# Generated by pormake.
# Topology ato, (4)-cn, num edge types: 1
# Building blocks:
#     Node 0, Type 0, BuildingBlock: GALJAG_clean_sbu_0, # of connection points: 4
#     Node 1, Type 0, BuildingBlock: GALJAG_clean_sbu_0, # of connection points: 4
#     Node 2, Type 0, BuildingBlock: GALJAG_clean_sbu_0, # of connection points: 4
#     Node 3, Type 0, BuildingBlock: GALJAG_clean_sbu_0, # of connection points: 4
#     Node 4, Type 0, BuildingBlock: GALJAG_clean_sbu_0, # of connection points: 4
#     Node 5, Type 0, BuildingBlock: GALJAG_clean_sbu_0, # of connection points: 4
#     Node 6, Type 0, BuildingBlock: GALJAG_clean_sbu_0, # of connection points: 4
#     Node 7, Type 0, BuildingBlock: GALJAG_clean_sbu_0, # of connection points: 4
#     Node 8, Type 0, BuildingBlock: GALJAG_clean_sbu_0, # of connection points: 4
#     Node 9, Type 0, BuildingBlock: GALJAG_clean_sbu_0, # of connection points: 4
#     Node 10, Type 0, BuildingBlock: GALJAG_clean_sbu_0, # of connection points: 4
#     Node 11, Type 0, BuildingBlock: GALJAG_clean_sbu_0, # of connection points: 4
#     Node 12, Type 0, BuildingBlock: GALJAG_clean_sbu_0, # of connection points: 4
#     Node 13, Type 0, BuildingBlock: GALJAG_clean_sbu_0, # of connection points: 4
#     Node 14, Type 0, BuildingBlock: GALJAG_clean_sbu_0, # of connection points: 4
#     Node 15, Type 0, BuildingBlock: GALJAG_clean_sbu_0, # of connection points: 4
#     Node 16, Type 0, BuildingBlock: GALJAG_clean_sbu_0, # of connection points: 4
#     Node 17, Type 0, BuildingBlock: GALJAG_clean_sbu_0, # of connection points: 4
#     Node 18, Type 0, BuildingBlock: GALJAG_clean_sbu_0, # of connection points: 4
#     Node 19, Type 0, BuildingBlock: GALJAG_clean_sbu_0, # of connection points: 4
#     Node 20, Type 0, BuildingBlock: GALJAG_clean_sbu_0, # of connection points: 4
#     Node 21, Type 0, BuildingBlock: GALJAG_clean_sbu_0, # of connection points: 4
#     Node 22, Type 0, BuildingBlock: GALJAG_clean_sbu_0, # of connection points: 4
#     Node 23, Type 0, BuildingBlock: GALJAG_clean_sbu_0, # of connection points: 4
#     Node 24, Type 0, BuildingBlock: GALJAG_clean_sbu_0, # of connection points: 4
#     Node 25, Type 0, BuildingBlock: GALJAG_clean_sbu_0, # of connection points: 4
#     Node 26, Type 0, BuildingBlock: GALJAG_clean_sbu_0, # of connection points: 4
#     Node 27, Type 0, BuildingBlock: GALJAG_clean_sbu_0, # of connection points: 4
#     Node 28, Type 0, BuildingBlock: GALJAG_clean_sbu_0, # of connection points: 4
#     Node 29, Type 0, BuildingBlock: GALJAG_clean_sbu_0, # of connection points: 4
#     Node 30, Type 0, BuildingBlock: GALJAG_clean_sbu_0, # of connection points: 4
#     Node 31, Type 0, BuildingBlock: GALJAG_clean_sbu_0, # of connection points: 4
#     Node 32, Type 0, BuildingBlock: GALJAG_clean_sbu_0, # of connection points: 4
#     Node 33, Type 0, BuildingBlock: GALJAG_clean_sbu_0, # of connection points: 4
#     Node 34, Type 0, BuildingBlock: GALJAG_clean_sbu_0, # of connection points: 4
#     Node 35, Type 0, BuildingBlock: GALJAG_clean_sbu_0, # of connection points: 4
#     Edge 36, Type (0, 0), BuildingBlock: XIVTED_clean_linker_0, # of connection points: 2
#     Edge 37, Type (0, 0), BuildingBlock: XIVTED_clean_linker_0, # of connection points: 2
#     Edge 38, Type (0, 0), BuildingBlock: XIVTED_clean_linker_0, # of connection points: 2
#     Edge 39, Type (0, 0), BuildingBlock: XIVTED_clean_linker_0, # of connection points: 2
#     Edge 40, Type (0, 0), BuildingBlock: XIVTED_clean_linker_0, # of connection points: 2
#     Edge 41, Type (0, 0), BuildingBlock: XIVTED_clean_linker_0, # of connection points: 2
#     Edge 42, Type (0, 0), BuildingBlock: XIVTED_clean_linker_0, # of connection points: 2
#     Edge 43, Type (0, 0), BuildingBlock: XIVTED_clean_linker_0, # of connection points: 2
#     Edge 44, Type (0, 0), BuildingBlock: XIVTED_clean_linker_0, # of connection points: 2
#     Edge 45, Type (0, 0), BuildingBlock: XIVTED_clean_linker_0, # of connection points: 2
#     Edge 46, Type (0, 0), BuildingBlock: XIVTED_clean_linker_0, # of connection points: 2
#     Edge 47, Type (0, 0), BuildingBlock: XIVTED_clean_linker_0, # of connection points: 2
#     Edge 48, Type (0, 0), BuildingBlock: XIVTED_clean_linker_0, # of connection points: 2
#     Edge 49, Type (0, 0), BuildingBlock: XIVTED_clean_linker_0, # of connection points: 2
#     Edge 50, Type (0, 0), BuildingBlock: XIVTED_clean_linker_0, # of connection points: 2
#     Edge 51, Type (0, 0), BuildingBlock: XIVTED_clean_linker_0, # of connection points: 2
#     Edge 52, Type (0, 0), BuildingBlock: XIVTED_clean_linker_0, # of connection points: 2
#     Edge 53, Type (0, 0), BuildingBlock: XIVTED_clean_linker_0, # of connection points: 2
#     Edge 54, Type (0, 0), BuildingBlock: XIVTED_clean_linker_0, # of connection points: 2
#     Edge 55, Type (0, 0), BuildingBlock: XIVTED_clean_linker_0, # of connection points: 2
#     Edge 56, Type (0, 0), BuildingBlock: XIVTED_clean_linker_0, # of connection points: 2
#     Edge 57, Type (0, 0), BuildingBlock: XIVTED_clean_linker_0, # of connection points: 2
#     Edge 58, Type (0, 0), BuildingBlock: XIVTED_clean_linker_0, # of connection points: 2
#     Edge 59, Type (0, 0), BuildingBlock: XIVTED_clean_linker_0, # of connection points: 2
#     Edge 60, Type (0, 0), BuildingBlock: XIVTED_clean_linker_0, # of connection points: 2
#     Edge 61, Type (0, 0), BuildingBlock: XIVTED_clean_linker_0, # of connection points: 2
#     Edge 62, Type (0, 0), BuildingBlock: XIVTED_clean_linker_0, # of connection points: 2
#     Edge 63, Type (0, 0), BuildingBlock: XIVTED_clean_linker_0, # of connection points: 2
#     Edge 64, Type (0, 0), BuildingBlock: XIVTED_clean_linker_0, # of connection points: 2
#     Edge 65, Type (0, 0), BuildingBlock: XIVTED_clean_linker_0, # of connection points: 2
#     Edge 66, Type (0, 0), BuildingBlock: XIVTED_clean_linker_0, # of connection points: 2
#     Edge 67, Type (0, 0), BuildingBlock: XIVTED_clean_linker_0, # of connection points: 2
#     Edge 68, Type (0, 0), BuildingBlock: XIVTED_clean_linker_0, # of connection points: 2
#     Edge 69, Type (0, 0), BuildingBlock: XIVTED_clean_linker_0, # of connection points: 2
#     Edge 70, Type (0, 0), BuildingBlock: XIVTED_clean_linker_0, # of connection points: 2
#     Edge 71, Type (0, 0), BuildingBlock: XIVTED_clean_linker_0, # of connection points: 2
#     Edge 72, Type (0, 0), BuildingBlock: XIVTED_clean_linker_0, # of connection points: 2
#     Edge 73, Type (0, 0), BuildingBlock: XIVTED_clean_linker_0, # of connection points: 2
#     Edge 74, Type (0, 0), BuildingBlock: XIVTED_clean_linker_0, # of connection points: 2
#     Edge 75, Type (0, 0), BuildingBlock: XIVTED_clean_linker_0, # of connection points: 2
#     Edge 76, Type (0, 0), BuildingBlock: XIVTED_clean_linker_0, # of connection points: 2
#     Edge 77, Type (0, 0), BuildingBlock: XIVTED_clean_linker_0, # of connection points: 2
#     Edge 78, Type (0, 0), BuildingBlock: XIVTED_clean_linker_0, # of connection points: 2
#     Edge 79, Type (0, 0), BuildingBlock: XIVTED_clean_linker_0, # of connection points: 2
#     Edge 80, Type (0, 0), BuildingBlock: XIVTED_clean_linker_0, # of connection points: 2
#     Edge 81, Type (0, 0), BuildingBlock: XIVTED_clean_linker_0, # of connection points: 2
#     Edge 82, Type (0, 0), BuildingBlock: XIVTED_clean_linker_0, # of connection points: 2
#     Edge 83, Type (0, 0), BuildingBlock: XIVTED_clean_linker_0, # of connection points: 2
#     Edge 84, Type (0, 0), BuildingBlock: XIVTED_clean_linker_0, # of connection points: 2
#     Edge 85, Type (0, 0), BuildingBlock: XIVTED_clean_linker_0, # of connection points: 2
#     Edge 86, Type (0, 0), BuildingBlock: XIVTED_clean_linker_0, # of connection points: 2
#     Edge 87, Type (0, 0), BuildingBlock: XIVTED_clean_linker_0, # of connection points: 2
#     Edge 88, Type (0, 0), BuildingBlock: XIVTED_clean_linker_0, # of connection points: 2
#     Edge 89, Type (0, 0), BuildingBlock: XIVTED_clean_linker_0, # of connection points: 2
#     Edge 90, Type (0, 0), BuildingBlock: XIVTED_clean_linker_0, # of connection points: 2
#     Edge 91, Type (0, 0), BuildingBlock: XIVTED_clean_linker_0, # of connection points: 2
#     Edge 92, Type (0, 0), BuildingBlock: XIVTED_clean_linker_0, # of connection points: 2
#     Edge 93, Type (0, 0), BuildingBlock: XIVTED_clean_linker_0, # of connection points: 2
#     Edge 94, Type (0, 0), BuildingBlock: XIVTED_clean_linker_0, # of connection points: 2
#     Edge 95, Type (0, 0), BuildingBlock: XIVTED_clean_linker_0, # of connection points: 2
#     Edge 96, Type (0, 0), BuildingBlock: XIVTED_clean_linker_0, # of connection points: 2
#     Edge 97, Type (0, 0), BuildingBlock: XIVTED_clean_linker_0, # of connection points: 2
#     Edge 98, Type (0, 0), BuildingBlock: XIVTED_clean_linker_0, # of connection points: 2
#     Edge 99, Type (0, 0), BuildingBlock: XIVTED_clean_linker_0, # of connection points: 2
#     Edge 100, Type (0, 0), BuildingBlock: XIVTED_clean_linker_0, # of connection points: 2
#     Edge 101, Type (0, 0), BuildingBlock: XIVTED_clean_linker_0, # of connection points: 2
#     Edge 102, Type (0, 0), BuildingBlock: XIVTED_clean_linker_0, # of connection points: 2
#     Edge 103, Type (0, 0), BuildingBlock: XIVTED_clean_linker_0, # of connection points: 2
#     Edge 104, Type (0, 0), BuildingBlock: XIVTED_clean_linker_0, # of connection points: 2
#     Edge 105, Type (0, 0), BuildingBlock: XIVTED_clean_linker_0, # of connection points: 2
#     Edge 106, Type (0, 0), BuildingBlock: XIVTED_clean_linker_0, # of connection points: 2
#     Edge 107, Type (0, 0), BuildingBlock: XIVTED_clean_linker_0, # of connection points: 2
# Relax obj value: 0.074
# Max RMSD: 0.099
# Mean RMSD: 0.099
data_MOF--net-ato--node1-GALJAG_clean_sbu_0--edge1-XIVTED_clean_linker_0
_symmetry_space_group_name_H-M    P1
_symmetry_Int_Tables_number       1
_symmetry_cell_setting            triclinic
loop_
_symmetry_equiv_pos_as_xyz
'x, y, z'
_cell_length_a     109.06023
_cell_length_b     109.00071
_cell_length_c     21.482093
_cell_angle_alpha  89.974953
_cell_angle_beta   90.088179
_cell_angle_gamma 119.979
loop_
_atom_site_label
_atom_site_type_symbol
_atom_site_fract_x
_atom_site_fract_y
_atom_site_fract_z
_atom_type_partial_charge
In0 In 0.25089 0.05426 0.25529 0.0
O1 O 0.25445 0.04308 0.33718 0.0
O2 O 0.23407 0.04089 0.32664 0.0
C3 C 0.27836 0.06888 0.22074 0.0
C4 C 0.23737 0.03305 0.17331 0.0
C5 C 0.24482 0.07529 0.2655 0.0
O6 O 0.27454 0.06719 0.27696 0.0
O7 O 0.26835 0.06327 0.18207 0.0
O8 O 0.24221 0.06788 0.217 0.0
O9 O 0.2504 0.07203 0.30916 0.0
C10 C 0.2419 0.03756 0.35686 0.0
O11 O 0.23373 0.04223 0.18246 0.0
O12 O 0.24789 0.03475 0.20476 0.0
In13 In 0.93987 0.19343 0.24135 0.0
O14 O 0.95391 0.20998 0.31307 0.0
O15 O 0.9536 0.19035 0.31253 0.0
C16 C 0.92318 0.20457 0.2175 0.0
C17 C 0.95878 0.2014 0.14833 0.0
C18 C 0.91944 0.16623 0.25393 0.0
O19 O 0.92782 0.20461 0.27147 0.0
O20 O 0.92687 0.19884 0.17625 0.0
O21 O 0.92684 0.17091 0.20538 0.0
O22 O 0.92249 0.17524 0.29672 0.0
C23 C 0.9587 0.20254 0.33585 0.0
O24 O 0.9531 0.18915 0.17168 0.0
O25 O 0.95484 0.20947 0.17165 0.0
In26 In 0.80031 0.74447 0.23892 0.0
O27 O 0.80077 0.75393 0.14387 0.0
O28 O 0.78183 0.74564 0.19758 0.0
C29 C 0.82804 0.75343 0.25487 0.0
C30 C 0.79518 0.75755 0.33263 0.0
C31 C 0.78805 0.71648 0.21477 0.0
O32 O 0.82348 0.75728 0.2093 0.0
O33 O 0.81866 0.74523 0.29252 0.0
O34 O 0.78574 0.72113 0.26457 0.0
O35 O 0.79655 0.72589 0.17807 0.0
C36 C 0.78825 0.75169 0.14818 0.0
O37 O 0.79207 0.74473 0.33622 0.0
O38 O 0.80123 0.76377 0.28291 0.0
In39 In 0.05575 0.25126 0.74123 0.0
O40 O 0.0422 0.23402 0.81172 0.0
O41 O 0.03778 0.25068 0.79562 0.0
C42 C 0.07665 0.2449 0.74338 0.0
C43 C 0.03901 0.24219 0.63996 0.0
C44 C 0.07103 0.27926 0.76479 0.0
O45 O 0.07152 0.24701 0.79195 0.0
O46 O 0.07102 0.24565 0.69328 0.0
O47 O 0.06968 0.27437 0.7103 0.0
O48 O 0.06471 0.27007 0.80633 0.0
C49 C 0.03462 0.23943 0.82455 0.0
O50 O 0.0456 0.25505 0.65611 0.0
O51 O 0.04135 0.23406 0.67339 0.0
In52 In 0.74122 0.80002 0.73508 0.0
O53 O 0.74203 0.79243 0.63696 0.0
O54 O 0.76091 0.80175 0.69147 0.0
C55 C 0.71315 0.78661 0.75808 0.0
C56 C 0.74903 0.78846 0.82582 0.0
C57 C 0.74906 0.82756 0.72137 0.0
O58 O 0.71811 0.78447 0.70888 0.0
O59 O 0.72228 0.7955 0.7947 0.0
O60 O 0.75324 0.82312 0.76626 0.0
O61 O 0.74114 0.81815 0.68306 0.0
C62 C 0.75491 0.79585 0.6411 0.0
O63 O 0.75072 0.80077 0.83042 0.0
O64 O 0.74324 0.78197 0.77611 0.0
In65 In 0.18984 0.93872 0.75717 0.0
O66 O 0.20818 0.95477 0.69742 0.0
O67 O 0.18771 0.95177 0.67959 0.0
C68 C 0.20139 0.92229 0.77744 0.0
C69 C 0.19602 0.95608 0.85588 0.0
C70 C 0.16281 0.9183 0.73805 0.0
O71 O 0.20278 0.92856 0.72617 0.0
O72 O 0.19402 0.92414 0.81745 0.0
O73 O 0.16669 0.92602 0.78599 0.0
O74 O 0.17252 0.92101 0.69937 0.0
C75 C 0.20069 0.95836 0.66611 0.0
O76 O 0.20247 0.9495 0.84373 0.0
O77 O 0.18622 0.95387 0.81835 0.0
In78 In 0.74324 0.9394 0.75067 0.0
O79 O 0.75957 0.95085 0.8273 0.0
O80 O 0.74618 0.95898 0.80069 0.0
C81 C 0.75005 0.91899 0.73589 0.0
C82 C 0.75227 0.95663 0.65104 0.0
C83 C 0.71559 0.92387 0.78157 0.0
O84 O 0.75251 0.92599 0.7856 0.0
O85 O 0.74429 0.92238 0.6935 0.0
O86 O 0.71978 0.92657 0.72599 0.0
O87 O 0.72533 0.92897 0.82168 0.0
C88 C 0.75623 0.96031 0.83455 0.0
O89 O 0.73973 0.95103 0.67089 0.0
O90 O 0.76011 0.95314 0.68021 0.0
In91 In 0.0533 0.799 0.74552 0.0
O92 O 0.04537 0.79146 0.64594 0.0
O93 O 0.03294 0.79642 0.70556 0.0
C94 C 0.06803 0.78571 0.76981 0.0
C95 C 0.03564 0.79045 0.84303 0.0
C96 C 0.07302 0.8264 0.72821 0.0
O97 O 0.05858 0.78146 0.72827 0.0
O98 O 0.07019 0.79675 0.79803 0.0
O99 O 0.06588 0.82191 0.7775 0.0
O100 O 0.07009 0.8171 0.68699 0.0
C101 C 0.03417 0.79203 0.65315 0.0
O102 O 0.04222 0.8032 0.82516 0.0
O103 O 0.03823 0.78212 0.81249 0.0
In104 In 0.19667 0.25424 0.73342 0.0
O105 O 0.21063 0.25856 0.64784 0.0
O106 O 0.1917 0.23871 0.6535 0.0
C107 C 0.21105 0.28136 0.77092 0.0
C108 C 0.20471 0.2412 0.81703 0.0
C109 C 0.16991 0.24946 0.72816 0.0
O110 O 0.20931 0.27789 0.71402 0.0
O111 O 0.20555 0.27112 0.80876 0.0
O112 O 0.17256 0.2395 0.73367 0.0
O113 O 0.18063 0.26162 0.7241 0.0
C114 C 0.20291 0.24653 0.62391 0.0
O115 O 0.19261 0.24007 0.81872 0.0
O116 O 0.2126 0.24893 0.77395 0.0
In117 In 0.93769 0.74522 0.24343 0.0
O118 O 0.95038 0.7601 0.1649 0.0
O119 O 0.95271 0.74208 0.1815 0.0
C120 C 0.91891 0.75426 0.2581 0.0
C121 C 0.95698 0.75642 0.33553 0.0
C122 C 0.92131 0.71719 0.22253 0.0
O123 O 0.92504 0.75523 0.20719 0.0
O124 O 0.9224 0.74894 0.30189 0.0
O125 O 0.92861 0.72207 0.2714 0.0
O126 O 0.92219 0.72644 0.18469 0.0
C127 C 0.95639 0.75317 0.15004 0.0
O128 O 0.94612 0.7443 0.33994 0.0
O129 O 0.95781 0.76297 0.28602 0.0
In130 In 0.25041 0.19297 0.23681 0.0
O131 O 0.25301 0.21086 0.30042 0.0
O132 O 0.23419 0.19095 0.30881 0.0
C133 C 0.27841 0.20416 0.219 0.0
C134 C 0.23964 0.19996 0.13921 0.0
C135 C 0.24351 0.16578 0.25363 0.0
O136 O 0.27337 0.2051 0.27056 0.0
O137 O 0.26932 0.19745 0.1773 0.0
O138 O 0.24081 0.17017 0.20403 0.0
O139 O 0.24948 0.17507 0.29534 0.0
C140 C 0.24113 0.20367 0.32628 0.0
O141 O 0.23214 0.18921 0.17227 0.0
O142 O 0.25247 0.20695 0.15486 0.0
In143 In 0.80095 0.05423 0.2458 0.0
O144 O 0.80144 0.03535 0.20299 0.0
O145 O 0.7977 0.04864 0.14291 0.0
C146 C 0.82802 0.07539 0.25562 0.0
C147 C 0.79038 0.03547 0.34019 0.0
C148 C 0.78539 0.067 0.22973 0.0
O149 O 0.82299 0.06856 0.2059 0.0
O150 O 0.81944 0.07151 0.30039 0.0
O151 O 0.7834 0.05634 0.19881 0.0
O152 O 0.79501 0.07105 0.27034 0.0
C153 C 0.79876 0.03769 0.14856 0.0
O154 O 0.78282 0.03896 0.30881 0.0
O155 O 0.80325 0.04172 0.32501 0.0
In156 In 0.91631 0.38806 0.57921 0.0
O157 O 0.89976 0.37495 0.5054 0.0
O158 O 0.91761 0.37217 0.51589 0.0
C159 C 0.90913 0.40815 0.59546 0.0
C160 C 0.90669 0.36958 0.67477 0.0
C161 C 0.9439 0.40496 0.55203 0.0
O162 O 0.9062 0.40083 0.54644 0.0
O163 O 0.91547 0.40516 0.63667 0.0
O164 O 0.9397 0.40012 0.60607 0.0
O165 O 0.93419 0.40138 0.5122 0.0
C166 C 0.90615 0.36858 0.48787 0.0
O167 O 0.9194 0.37563 0.65706 0.0
O168 O 0.89896 0.37321 0.64568 0.0
In169 In 0.60467 0.52978 0.57353 0.0
O170 O 0.61796 0.5257 0.50324 0.0
O171 O 0.61946 0.54589 0.5034 0.0
C172 C 0.58389 0.50278 0.58926 0.0
C173 C 0.62343 0.53849 0.66823 0.0
C174 C 0.5887 0.54171 0.54961 0.0
O175 O 0.59103 0.50713 0.5399 0.0
O176 O 0.58733 0.51203 0.63128 0.0
O177 O 0.59468 0.54301 0.60156 0.0
O178 O 0.59058 0.5342 0.51038 0.0
C179 C 0.62351 0.53794 0.47991 0.0
O180 O 0.61787 0.54555 0.64921 0.0
O181 O 0.61916 0.52681 0.64092 0.0
In182 In 0.46646 0.07758 0.58034 0.0
O183 O 0.45762 0.07792 0.67623 0.0
O184 O 0.46793 0.09714 0.62416 0.0
C185 C 0.45393 0.04969 0.55366 0.0
C186 C 0.45513 0.08549 0.48916 0.0
C187 C 0.49387 0.08551 0.59918 0.0
O188 O 0.45159 0.05415 0.60398 0.0
O189 O 0.46255 0.05924 0.51778 0.0
O190 O 0.48979 0.08965 0.55284 0.0
O191 O 0.48417 0.0776 0.63629 0.0
C192 C 0.4613 0.0909 0.67286 0.0
O193 O 0.46768 0.08778 0.48633 0.0
O194 O 0.44831 0.07904 0.53723 0.0
In195 In 0.72076 0.58585 0.07382 0.0
O196 O 0.70735 0.56884 0.14518 0.0
O197 O 0.70342 0.58591 0.13101 0.0
C198 C 0.7412 0.57896 0.06456 0.0
C199 C 0.70337 0.57663 0.97431 0.0
C200 C 0.73672 0.61343 0.10441 0.0
O201 O 0.7337 0.57645 0.11266 0.0
O202 O 0.73825 0.58477 0.02077 0.0
O203 O 0.73367 0.60933 0.04868 0.0
O204 O 0.73187 0.60364 0.14427 0.0
C205 C 0.70012 0.57456 0.15949 0.0
O206 O 0.70921 0.58927 0.99316 0.0
O207 O 0.70673 0.56878 0.00422 0.0
In208 In 0.40885 0.13476 0.07666 0.0
O209 O 0.40943 0.1267 0.97917 0.0
O210 O 0.42849 0.13654 0.03243 0.0
C211 C 0.38088 0.12144 0.10213 0.0
C212 C 0.41695 0.12337 0.16698 0.0
C213 C 0.41656 0.16225 0.06222 0.0
O214 O 0.38559 0.11936 0.05195 0.0
O215 O 0.39022 0.13022 0.13838 0.0
O216 O 0.42091 0.15792 0.10684 0.0
O217 O 0.40854 0.15277 0.02439 0.0
C218 C 0.42237 0.13029 0.98282 0.0
O219 O 0.41868 0.1357 0.17139 0.0
O220 O 0.41096 0.11678 0.11773 0.0
In221 In 0.85965 0.27171 0.07829 0.0
O222 O 0.85564 0.28509 0.14834 0.0
O223 O 0.87639 0.28798 0.14225 0.0
C224 C 0.83245 0.25109 0.06655 0.0
C225 C 0.86824 0.28969 0.98081 0.0
C226 C 0.87108 0.25542 0.10548 0.0
O227 O 0.83715 0.25867 0.1147 0.0
O228 O 0.84143 0.25406 0.02384 0.0
O229 O 0.87072 0.25945 0.05072 0.0
O230 O 0.8656 0.25952 0.14617 0.0
C231 C 0.86828 0.29163 0.16756 0.0
O232 O 0.87537 0.28438 0.00169 0.0
O233 O 0.85655 0.28555 0.00769 0.0
In234 In 0.40983 0.27356 0.09522 0.0
O235 O 0.40613 0.28531 0.01652 0.0
O236 O 0.4266 0.28761 0.02489 0.0
C237 C 0.38215 0.25775 0.12534 0.0
C238 C 0.42288 0.29424 0.18011 0.0
C239 C 0.41687 0.25333 0.07947 0.0
O240 O 0.38645 0.26027 0.06989 0.0
O241 O 0.39179 0.26322 0.1658 0.0
O242 O 0.41902 0.26006 0.1298 0.0
O243 O 0.4113 0.2569 0.03694 0.0
C244 C 0.41865 0.29105 0.99638 0.0
O245 O 0.42619 0.28479 0.17195 0.0
O246 O 0.41281 0.29301 0.14661 0.0
In247 In 0.72051 0.13276 0.08841 0.0
O248 O 0.708 0.118 0.00864 0.0
O249 O 0.70599 0.13618 0.02313 0.0
C250 C 0.73596 0.12036 0.11434 0.0
C251 C 0.70123 0.12425 0.18037 0.0
C252 C 0.74154 0.15963 0.07196 0.0
O253 O 0.72988 0.11888 0.06254 0.0
O254 O 0.73445 0.1283 0.15255 0.0
O255 O 0.73427 0.15549 0.12109 0.0
O256 O 0.73812 0.15023 0.03067 0.0
C257 C 0.70219 0.125 0.99234 0.0
O258 O 0.7077 0.13687 0.16123 0.0
O259 O 0.70463 0.11609 0.15372 0.0
In260 In 0.85955 0.58608 0.09408 0.0
O261 O 0.85577 0.56926 0.16687 0.0
O262 O 0.87654 0.58695 0.15751 0.0
C263 C 0.83223 0.57894 0.08021 0.0
C264 C 0.86837 0.57645 -0.00149 0.0
C265 C 0.8706 0.61386 0.11896 0.0
O266 O 0.83699 0.57677 0.13002 0.0
O267 O 0.84121 0.58453 0.03718 0.0
O268 O 0.87002 0.60927 0.06444 0.0
O269 O 0.86552 0.60444 0.16051 0.0
C270 C 0.8685 0.57544 0.18481 0.0
O271 O 0.87519 0.5891 0.0172 0.0
O272 O 0.85688 0.56879 0.0267 0.0
In273 In 0.60432 0.07754 0.58837 0.0
O274 O 0.61645 0.07392 0.66585 0.0
O275 O 0.61885 0.09442 0.65766 0.0
C276 C 0.58734 0.04992 0.56105 0.0
C277 C 0.62421 0.08805 0.4991 0.0
C278 C 0.58453 0.08524 0.60122 0.0
O279 O 0.59157 0.05421 0.61574 0.0
O280 O 0.59152 0.05957 0.52057 0.0
O281 O 0.59187 0.08775 0.55256 0.0
O282 O 0.5873 0.07899 0.64369 0.0
C283 C 0.62239 0.08649 0.68558 0.0
O284 O 0.61792 0.09448 0.51712 0.0
O285 O 0.62033 0.07636 0.52559 0.0
In286 In 0.91664 0.52682 0.59548 0.0
O287 O 0.89948 0.5232 0.5246 0.0
O288 O 0.91759 0.54376 0.53129 0.0
C289 C 0.90976 0.49953 0.60757 0.0
C290 C 0.90716 0.53541 0.69249 0.0
C291 C 0.94437 0.53816 0.56938 0.0
O292 O 0.90712 0.5043 0.559 0.0
O293 O 0.91571 0.50849 0.6505 0.0
O294 O 0.93997 0.5383 0.62357 0.0
O295 O 0.93478 0.53215 0.52891 0.0
C296 C 0.90584 0.53584 0.50548 0.0
O297 O 0.91971 0.54239 0.6729 0.0
O298 O 0.89953 0.52386 0.66455 0.0
In299 In 0.46692 0.38849 0.59005 0.0
O300 O 0.44945 0.37322 0.65538 0.0
O301 O 0.47009 0.37627 0.66841 0.0
C302 C 0.4503 0.40017 0.57636 0.0
C303 C 0.46457 0.37207 0.49211 0.0
C304 C 0.49378 0.4103 0.59654 0.0
O305 O 0.44857 0.38959 0.54553 0.0
O306 O 0.46027 0.40476 0.61543 0.0
O307 O 0.48868 0.403 0.54798 0.0
O308 O 0.4854 0.40653 0.64203 0.0
C309 C 0.45733 0.36992 0.68538 0.0
O310 O 0.46731 0.36965 0.54629 0.0
O311 O 0.46352 0.38304 0.48707 0.0
In312 In 0.58301 0.72115 0.90942 0.0
O313 O 0.56618 0.71002 0.83431 0.0
O314 O 0.57834 0.70063 0.86277 0.0
C315 C 0.57737 0.74249 0.91957 0.0
C316 C 0.57394 0.70466 0.01141 0.0
C317 C 0.61064 0.73523 0.87688 0.0
O318 O 0.57527 0.7355 0.87005 0.0
O319 O 0.5822 0.73864 0.96414 0.0
O320 O 0.60656 0.73414 0.93249 0.0
O321 O 0.6008 0.72922 0.83761 0.0
C322 C 0.56854 0.69985 0.82873 0.0
O323 O 0.58635 0.70971 0.9906 0.0
O324 O 0.56628 0.70835 0.98202 0.0
In325 In 0.27213 0.86159 0.90024 0.0
O326 O 0.28576 0.87792 0.97356 0.0
O327 O 0.28613 0.85865 0.97041 0.0
C328 C 0.25552 0.87275 0.87495 0.0
C329 C 0.2912 0.86978 0.80792 0.0
C330 C 0.25172 0.83437 0.91311 0.0
O331 O 0.25973 0.87246 0.92946 0.0
O332 O 0.25959 0.86733 0.83382 0.0
O333 O 0.25908 0.83903 0.86446 0.0
O334 O 0.25478 0.8434 0.95576 0.0
C335 C 0.29086 0.87066 0.99516 0.0
O336 O 0.28741 0.87787 0.83222 0.0
O337 O 0.2853 0.85739 0.82997 0.0
In338 In 0.1322 0.40988 0.90293 0.0
O339 O 0.11647 0.40719 0.97885 0.0
O340 O 0.13459 0.42755 0.96726 0.0
C341 C 0.12132 0.38221 0.87674 0.0
C342 C 0.12356 0.41987 0.80829 0.0
C343 C 0.1591 0.41661 0.92613 0.0
O344 O 0.11986 0.38654 0.92922 0.0
O345 O 0.12841 0.39186 0.83776 0.0
O346 O 0.15549 0.42014 0.87643 0.0
O347 O 0.14918 0.40986 0.9643 0.0
C348 C 0.12315 0.41997 0.99587 0.0
O349 O 0.13623 0.42622 0.82714 0.0
O350 O 0.11546 0.40853 0.83657 0.0
In351 In 0.38814 0.91973 0.40069 0.0
O352 O 0.3748 0.9028 0.47237 0.0
O353 O 0.37039 0.91947 0.45576 0.0
C354 C 0.40861 0.91286 0.39125 0.0
C355 C 0.37101 0.91065 0.30031 0.0
C356 C 0.4038 0.94717 0.43407 0.0
O357 O 0.40079 0.9099 0.4385 0.0
O358 O 0.406 0.91913 0.34836 0.0
O359 O 0.40097 0.94334 0.37794 0.0
O360 O 0.39891 0.93718 0.47296 0.0
C361 C 0.36728 0.90828 0.48518 0.0
O362 O 0.37707 0.92335 0.31854 0.0
O363 O 0.37403 0.90268 0.33123 0.0
In364 In 0.07373 0.46763 0.40197 0.0
O365 O 0.09114 0.47136 0.47148 0.0
O366 O 0.07339 0.45058 0.46331 0.0
C367 C 0.0807 0.49495 0.39075 0.0
C368 C 0.08269 0.45906 0.30318 0.0
C369 C 0.04616 0.45651 0.43098 0.0
O370 O 0.08324 0.49009 0.43932 0.0
O371 O 0.07482 0.48607 0.34747 0.0
O372 O 0.05031 0.45683 0.37585 0.0
O373 O 0.0559 0.46188 0.47107 0.0
C374 C 0.08512 0.45861 0.48909 0.0
O375 O 0.07023 0.45209 0.32377 0.0
O376 O 0.09048 0.47057 0.33109 0.0
In377 In 0.52281 0.60693 0.41609 0.0
O378 O 0.52506 0.61193 0.51953 0.0
O379 O 0.52251 0.6259 0.45875 0.0
C380 C 0.49587 0.5856 0.40263 0.0
C381 C 0.53399 0.62602 0.32317 0.0
C382 C 0.53838 0.59427 0.43532 0.0
O383 O 0.50021 0.59304 0.45123 0.0
O384 O 0.50506 0.58902 0.36064 0.0
O385 O 0.53953 0.60433 0.46838 0.0
O386 O 0.5296 0.59077 0.39123 0.0
C387 C 0.52447 0.62314 0.51368 0.0
O388 O 0.54136 0.62251 0.35587 0.0
O389 O 0.52099 0.61963 0.33628 0.0
In390 In 0.07422 0.60665 0.41581 0.0
O391 O 0.07072 0.61841 0.33647 0.0
O392 O 0.09094 0.62008 0.34426 0.0
C393 C 0.04665 0.59122 0.44808 0.0
C394 C 0.08768 0.62762 0.49898 0.0
C395 C 0.08085 0.58609 0.40212 0.0
O396 O 0.05069 0.59366 0.39223 0.0
O397 O 0.05649 0.59658 0.48766 0.0
O398 O 0.08332 0.59319 0.45154 0.0
O399 O 0.07517 0.58946 0.3593 0.0
C400 C 0.08318 0.62378 0.31583 0.0
O401 O 0.09089 0.61809 0.49107 0.0
O402 O 0.07751 0.62633 0.46612 0.0
In403 In 0.38571 0.46655 0.4393 0.0
O404 O 0.37421 0.45229 0.35734 0.0
O405 O 0.37202 0.47045 0.37102 0.0
C406 C 0.39927 0.45248 0.47222 0.0
C407 C 0.36594 0.45922 0.52846 0.0
C408 C 0.40618 0.49339 0.41628 0.0
O409 O 0.39396 0.45142 0.419 0.0
O410 O 0.39785 0.46071 0.50883 0.0
O411 O 0.39667 0.49032 0.45647 0.0
O412 O 0.40528 0.48294 0.38706 0.0
C413 C 0.36856 0.45938 0.33974 0.0
O414 O 0.37809 0.47001 0.53335 0.0
O415 O 0.36394 0.45208 0.47963 0.0
In416 In 0.52678 0.91966 0.41741 0.0
O417 O 0.54259 0.92287 0.341 0.0
O418 O 0.52431 0.9025 0.34968 0.0
C419 C 0.53755 0.94732 0.44433 0.0
C420 C 0.53553 0.90888 0.5085 0.0
C421 C 0.49956 0.91262 0.40062 0.0
O422 O 0.53792 0.94303 0.39013 0.0
O423 O 0.5317 0.93766 0.48454 0.0
O424 O 0.50399 0.91007 0.45052 0.0
O425 O 0.50881 0.9185 0.35885 0.0
C426 C 0.53584 0.91024 0.32192 0.0
O427 O 0.52285 0.9027 0.48979 0.0
O428 O 0.54361 0.92047 0.48183 0.0
In429 In 0.27082 0.41043 0.93974 0.0
O430 O 0.28319 0.40734 0.01702 0.0
O431 O 0.28258 0.42658 0.01628 0.0
C432 C 0.2584 0.38295 0.90475 0.0
C433 C 0.29096 0.42423 0.85332 0.0
C434 C 0.24982 0.41641 0.95548 0.0
O435 O 0.2602 0.38669 0.96108 0.0
O436 O 0.2628 0.39301 0.86647 0.0
O437 O 0.25998 0.42324 0.91861 0.0
O438 O 0.25036 0.40671 0.9851 0.0
C439 C 0.28727 0.41928 0.04174 0.0
O440 O 0.27815 0.42055 0.84374 0.0
O441 O 0.29352 0.42093 0.90595 0.0
In442 In 0.58502 0.86149 0.9188 0.0
O443 O 0.56795 0.85809 0.84788 0.0
O444 O 0.58626 0.87852 0.85428 0.0
C445 C 0.57814 0.83417 0.92932 0.0
C446 C 0.57536 0.86995 0.01562 0.0
C447 C 0.61283 0.8727 0.89489 0.0
O448 O 0.57581 0.83914 0.88058 0.0
O449 O 0.58373 0.84293 0.97326 0.0
O450 O 0.60824 0.87272 0.94881 0.0
O451 O 0.6034 0.86694 0.85359 0.0
C452 C 0.57446 0.87072 0.82857 0.0
O453 O 0.58791 0.87702 0.99615 0.0
O454 O 0.56782 0.85838 0.98764 0.0
In455 In 0.13418 0.72128 0.91034 0.0
O456 O 0.1165 0.70673 0.97679 0.0
O457 O 0.13673 0.7087 0.9888 0.0
C458 C 0.11835 0.73373 0.8938 0.0
C459 C 0.1319 0.70493 0.81218 0.0
C460 C 0.16119 0.74255 0.91983 0.0
O461 O 0.12914 0.73896 0.92848 0.0
O462 O 0.11536 0.72207 0.8691 0.0
O463 O 0.15617 0.73561 0.87028 0.0
O464 O 0.15262 0.73868 0.96473 0.0
C465 C 0.12403 0.70293 0.00641 0.0
O466 O 0.13091 0.71593 0.80721 0.0
O467 O 0.13458 0.70246 0.86636 0.0
H468 H 0.18663 0.96821 0.59562 0.0
H469 H 0.25643 0.02801 0.4267 0.0
H470 H 0.22844 0.9749 0.63244 0.0
H471 H 0.21485 0.02283 0.40063 0.0
H472 H 0.24655 0.00879 0.50305 0.0
H473 H 0.19685 0.98811 0.52316 0.0
C474 C 0.19797 0.97384 0.58822 0.0
C475 C 0.20671 0.9699 0.61995 0.0
C476 C 0.2396 0.01192 0.48091 0.0
C477 C 0.21851 0.99276 0.53743 0.0
C478 C 0.24524 0.02291 0.43751 0.0
C479 C 0.23643 0.02699 0.40731 0.0
C480 C 0.22503 0.00492 0.4939 0.0
C481 C 0.22202 0.02002 0.42287 0.0
C482 C 0.20381 0.98524 0.54703 0.0
C483 C 0.22133 0.97758 0.60876 0.0
N484 N 0.21676 0.00928 0.46486 0.0
N485 N 0.22678 0.98866 0.56839 0.0
H486 H 0.02981 0.25705 0.57052 0.0
H487 H 0.97031 0.18835 0.39295 0.0
H488 H 0.02351 0.21504 0.59733 0.0
H489 H 0.9734 0.22935 0.38338 0.0
H490 H 0.9905 0.19814 0.46424 0.0
H491 H 0.01019 0.24741 0.49613 0.0
C492 C 0.02439 0.24582 0.56022 0.0
C493 C 0.02826 0.23682 0.59014 0.0
C494 C 0.98673 0.20499 0.44675 0.0
C495 C 0.00574 0.2257 0.5057 0.0
C496 C 0.97519 0.1994 0.40622 0.0
C497 C 0.97018 0.20806 0.3824 0.0
C498 C 0.99336 0.21937 0.46329 0.0
C499 C 0.97691 0.2223 0.40088 0.0
C500 C 0.01314 0.24031 0.51806 0.0
C501 C 0.02086 0.22235 0.5753 0.0
N502 N 0.98819 0.22753 0.4401 0.0
N503 N 0.00992 0.21723 0.53425 0.0
H504 H 0.79071 0.75147 0.45682 0.0
H505 H 0.74919 0.79168 0.51648 0.0
H506 H 0.78948 0.77885 0.31482 0.0
H507 H 0.77656 0.7907 0.65923 0.0
H508 H 0.76037 0.78343 0.44058 0.0
H509 H 0.78199 0.76221 0.53272 0.0
C510 C 0.78867 0.75978 0.44186 0.0
C511 C 0.79085 0.76437 0.37986 0.0
C512 C 0.76396 0.78516 0.4885 0.0
C513 C 0.78061 0.77629 0.46518 0.0
C514 C 0.7576 0.78981 0.5316 0.0
C515 C 0.76205 0.79191 0.59382 0.0
C516 C 0.77446 0.7822 0.5085 0.0
C517 C 0.77294 0.78931 0.61143 0.0
C518 C 0.78376 0.7659 0.48497 0.0
C519 C 0.78804 0.77513 0.36246 0.0
N520 N 0.77866 0.78437 0.5691 0.0
N521 N 0.78285 0.78061 0.40477 0.0
H522 H 0.77915 0.97118 0.60518 0.0
H523 H 0.76286 0.01968 0.37855 0.0
H524 H 0.73774 0.96673 0.58501 0.0
H525 H 0.80455 0.02541 0.4084 0.0
H526 H 0.75325 -8e-05 0.45225 0.0
H527 H 0.78841 0.99046 0.52949 0.0
C528 C 0.77199 0.97419 0.58438 0.0
C529 C 0.75767 0.96738 0.60136 0.0
C530 C 0.76451 0.00553 0.4428 0.0
C531 C 0.7682 0.98951 0.51522 0.0
C532 C 0.77 0.01683 0.40095 0.0
C533 C 0.78451 0.02418 0.3875 0.0
C534 C 0.77361 0.00155 0.47117 0.0
C535 C 0.79329 0.02003 0.41755 0.0
C536 C 0.77728 0.98524 0.54139 0.0
C537 C 0.74885 0.97171 0.57315 0.0
N538 N 0.78769 0.00897 0.45785 0.0
N539 N 0.75427 0.98255 0.53156 0.0
H540 H 0.00653 0.78365 0.67261 0.0
H541 H 0.9845 0.77659 0.31838 0.0
H542 H 0.03616 0.7893 0.52722 0.0
H543 H 0.95532 0.74919 0.45838 0.0
H544 H 0.00365 0.78544 0.39545 0.0
H545 H 0.98755 0.77501 0.59509 0.0
C546 C 0.00904 0.78315 0.62424 0.0
C547 C 0.0229 0.78718 0.60603 0.0
C548 C 0.99304 0.77751 0.40912 0.0
C549 C 0.00134 0.77749 0.51758 0.0
C550 C 0.98212 0.77254 0.36551 0.0
C551 C 0.96835 0.76218 0.38234 0.0
C552 C 0.99006 0.77232 0.47017 0.0
C553 C 0.96582 0.75717 0.44371 0.0
C554 C -0.00179 0.77815 0.58028 0.0
C555 C 0.02559 0.78624 0.54296 0.0
N556 N 0.97658 0.76239 0.48575 0.0
N557 N 0.01489 0.78159 0.50067 0.0
H558 H 0.21526 0.19059 0.38267 0.0
H559 H 0.22767 0.26059 0.55877 0.0
H560 H 0.25363 0.23104 0.36733 0.0
H561 H 0.18909 0.22023 0.57124 0.0
H562 H 0.23685 0.25036 0.48359 0.0
H563 H 0.20522 0.20148 0.44936 0.0
C564 C 0.2216 0.20175 0.39368 0.0
C565 C 0.23531 0.20993 0.36971 0.0
C566 C 0.22632 0.24378 0.50232 0.0
C567 C 0.22385 0.22249 0.44543 0.0
C568 C 0.22105 0.24963 0.54493 0.0
C569 C 0.20763 0.24122 0.57142 0.0
C570 C 0.21814 0.22939 0.48634 0.0
C571 C 0.19951 0.22709 0.55201 0.0
C572 C 0.21584 0.20798 0.43147 0.0
C573 C 0.24303 0.22435 0.38509 0.0
N574 N 0.20494 0.22158 0.51102 0.0
N575 N 0.23719 0.23018 0.42202 0.0
H576 H 0.87985 0.35541 0.72178 0.0
H577 H 0.89408 0.30204 0.92397 0.0
H578 H 0.92056 0.35795 0.73472 0.0
H579 H 0.85485 0.30269 0.92863 0.0
H580 H 0.90356 0.32172 0.85011 0.0
H581 H 0.87022 0.33557 0.79482 0.0
C582 C 0.88678 0.35185 0.74037 0.0
C583 C 0.90102 0.35832 0.7223 0.0
C584 C 0.89287 0.31754 0.86713 0.0
C585 C 0.89005 0.33555 0.80525 0.0
C586 C 0.88742 0.30626 0.90903 0.0
C587 C 0.87366 0.30075 0.93241 0.0
C588 C 0.88447 0.32332 0.8484 0.0
C589 C 0.86551 0.30663 0.91171 0.0
C590 C 0.88127 0.3405 0.78191 0.0
C591 C 0.90952 0.35327 0.74759 0.0
N592 N 0.87105 0.31763 0.87093 0.0
N593 N 0.90389 0.34214 0.78762 0.0
H594 H 0.63606 0.56435 0.72508 0.0
H595 H 0.68953 0.54994 0.92517 0.0
H596 H 0.63684 0.52519 0.71739 0.0
H597 H 0.69217 0.59071 0.91291 0.0
H598 H 0.66991 0.54045 0.85079 0.0
H599 H 0.65601 0.57386 0.79752 0.0
C600 C 0.64037 0.55772 0.73901 0.0
C601 C 0.6348 0.54396 0.7153 0.0
C602 C 0.67483 0.55149 0.86407 0.0
C603 C 0.65768 0.55479 0.79775 0.0
C604 C 0.68605 0.55692 0.90636 0.0
C605 C 0.69246 0.57112 0.92517 0.0
C606 C 0.66994 0.56032 0.84079 0.0
C607 C 0.68753 0.5797 0.89955 0.0
C608 C 0.65181 0.56317 0.78009 0.0
C609 C 0.64082 0.53585 0.73466 0.0
N610 N 0.67651 0.57414 0.85891 0.0
N611 N 0.65196 0.54139 0.77478 0.0
H612 H 0.45631 0.11259 0.6526 0.0
H613 H 0.44399 0.12519 0.00249 0.0
H614 H 0.45622 0.08503 0.79704 0.0
H615 H 0.41658 0.12552 0.85831 0.0
H616 H 0.45443 0.11619 0.92689 0.0
H617 H 0.44744 0.12323 0.72791 0.0
C618 C 0.45459 0.10893 0.70039 0.0
C619 C 0.45697 0.09795 0.71897 0.0
C620 C 0.44621 0.11836 0.91196 0.0
C621 C 0.44712 0.11016 0.80465 0.0
C622 C 0.44033 0.12356 0.95467 0.0
C623 C 0.42944 0.12608 0.93629 0.0
C624 C 0.44141 0.11605 0.85026 0.0
C625 C 0.42494 0.12367 0.8741 0.0
C626 C 0.44947 0.11492 0.74294 0.0
C627 C 0.45446 0.09346 0.78111 0.0
N628 N 0.43105 0.11887 0.83294 0.0
N629 N 0.44976 0.09968 0.82211 0.0
H630 H 0.47209 0.3602 0.75181 0.0
H631 H 0.40375 0.30076 0.93065 0.0
H632 H 0.4301 0.35403 0.72667 0.0
H633 H 0.44554 0.30616 0.95077 0.0
H634 H 0.41312 0.3201 0.85511 0.0
H635 H 0.46257 0.34057 0.82581 0.0
C636 C 0.46087 0.35476 0.76221 0.0
C637 C 0.45186 0.35874 0.73319 0.0
C638 C 0.42023 0.31702 0.87582 0.0
C639 C 0.44087 0.3362 0.81735 0.0
C640 C 0.41488 0.30595 0.91876 0.0
C641 C 0.4239 0.30187 0.94696 0.0
C642 C 0.43472 0.32409 0.86116 0.0
C643 C 0.43823 0.30896 0.93005 0.0
C644 C 0.45543 0.34352 0.80425 0.0
C645 C 0.43742 0.35131 0.74814 0.0
N646 N 0.44321 0.31977 0.8884 0.0
N647 N 0.43236 0.34037 0.78915 0.0
H648 H 0.68862 0.13851 0.94726 0.0
H649 H 0.63377 0.07215 0.74323 0.0
H650 H 0.69011 0.09983 0.92986 0.0
H651 H 0.63641 0.11297 0.73683 0.0
H652 H 0.65345 0.08168 0.81711 0.0
H653 H 0.66882 0.12908 0.87381 0.0
C654 C 0.68484 0.12807 0.92761 0.0
C655 C 0.691 0.11993 0.94454 0.0
C656 C 0.64971 0.08855 0.79968 0.0
C657 C 0.66828 0.10902 0.86123 0.0
C658 C 0.63842 0.08309 0.75779 0.0
C659 C 0.63347 0.0918 0.73392 0.0
C660 C 0.65605 0.1028 0.81799 0.0
C661 C 0.63991 0.10591 0.75414 0.0
C662 C 0.67352 0.12269 0.88583 0.0
C663 C 0.68568 0.10647 0.9179 0.0
N664 N 0.65089 0.11099 0.795 0.0
N665 N 0.67457 0.10141 0.87776 0.0
H666 H 0.88065 0.52221 0.74313 0.0
H667 H 0.8939 0.59021 0.93924 0.0
H668 H 0.92076 0.56117 0.75021 0.0
H669 H 0.85548 0.54968 0.95027 0.0
H670 H 0.90353 0.58006 0.8659 0.0
H671 H 0.87097 0.53224 0.8168 0.0
C672 C 0.88745 0.53284 0.76059 0.0
C673 C 0.90153 0.54088 0.74065 0.0
C674 C 0.89298 0.57339 0.88425 0.0
C675 C 0.89049 0.55248 0.82425 0.0
C676 C 0.88746 0.5792 0.92584 0.0
C677 C 0.87388 0.57076 0.95079 0.0
C678 C 0.88485 0.55906 0.86738 0.0
C679 C 0.866 0.55655 0.93208 0.0
C680 C 0.88191 0.53858 0.80248 0.0
C681 C 0.90986 0.5546 0.76452 0.0
N682 N 0.87161 0.55114 0.89152 0.0
N683 N 0.90419 0.56 0.80488 0.0
H684 H 0.56171 0.64171 0.28757 0.0
H685 H 0.54714 0.69105 0.05862 0.0
H686 H 0.52035 0.63649 0.25372 0.0
H687 H 0.588 0.69417 0.0784 0.0
H688 H 0.53749 0.67198 0.13529 0.0
H689 H 0.57184 0.66159 0.21445 0.0
C690 C 0.55476 0.6447 0.26445 0.0
C691 C 0.54018 0.63745 0.27652 0.0
C692 C 0.54859 0.67687 0.12312 0.0
C693 C 0.55167 0.66021 0.19353 0.0
C694 C 0.55411 0.68781 0.07958 0.0
C695 C 0.56838 0.69416 0.06211 0.0
C696 C 0.55739 0.67225 0.14937 0.0
C697 C 0.57693 0.68953 0.09059 0.0
C698 C 0.56054 0.65607 0.22292 0.0
C699 C 0.53165 0.64178 0.2456 0.0
N700 N 0.57129 0.67881 0.1327 0.0
N701 N 0.53753 0.6529 0.20563 0.0
H702 H 0.36091 0.92522 0.23464 0.0
H703 H 0.30303 0.85676 0.05013 0.0
H704 H 0.35622 0.88368 0.25471 0.0
H705 H 0.30484 0.89722 0.04565 0.0
H706 H 0.32309 0.86663 0.12206 0.0
H707 H 0.3413 0.91548 0.16029 0.0
C708 C 0.35584 0.91407 0.22291 0.0
C709 C 0.36017 0.90523 0.25087 0.0
C710 C 0.31908 0.87334 0.10554 0.0
C711 C 0.33765 0.89399 0.16642 0.0
C712 C 0.3076 0.8677 0.06464 0.0
C713 C 0.30227 0.87619 0.04206 0.0
C714 C 0.32532 0.8876 0.12371 0.0
C715 C 0.30861 0.8903 0.06216 0.0
C716 C 0.34459 0.9085 0.18075 0.0
C717 C 0.3532 0.89087 0.2342 0.0
N718 N 0.31984 0.89558 0.10171 0.0
N719 N 0.34225 0.88568 0.19318 0.0
H720 H 0.06878 0.43341 0.24459 0.0
H721 H 0.13595 0.44691 0.04202 0.0
H722 H 0.10902 0.47224 0.25085 0.0
H723 H 0.09757 0.4064 0.05485 0.0
H724 H 0.12591 0.45677 0.11473 0.0
H725 H 0.07865 0.42383 0.16956 0.0
C726 C 0.07966 0.43996 0.22973 0.0
C727 C 0.08811 0.45362 0.25394 0.0
C728 C 0.1197 0.44571 0.10182 0.0
C729 C 0.0995 0.44271 0.16862 0.0
C730 C 0.12544 0.44008 0.06045 0.0
C731 C 0.11758 0.42582 0.04255 0.0
C732 C 0.10598 0.43704 0.12515 0.0
C733 C 0.104 0.41744 0.06762 0.0
C734 C 0.08531 0.43446 0.18717 0.0
C735 C 0.10214 0.46165 0.23331 0.0
N736 N 0.09861 0.42319 0.10753 0.0
N737 N 0.10741 0.45605 0.1919 0.0
H738 H 0.06886 0.6343 0.25103 0.0
H739 H 0.13807 0.69237 0.07241 0.0
H740 H 0.11001 0.63804 0.26919 0.0
H741 H 0.09674 0.68789 0.04817 0.0
H742 H 0.12797 0.67265 0.14587 0.0
H743 H 0.07874 0.65376 0.17597 0.0
C744 C 0.07994 0.63914 0.23877 0.0
C745 C 0.08864 0.63457 0.26631 0.0
C746 C 0.1211 0.67599 0.12465 0.0
C747 C 0.10005 0.65692 0.18117 0.0
C748 C 0.12688 0.68729 0.08292 0.0
C749 C 0.11822 0.69175 0.05426 0.0
C750 C 0.10655 0.6691 0.13781 0.0
C751 C 0.10378 0.68478 0.06937 0.0
C752 C 0.08559 0.65028 0.19614 0.0
C753 C 0.10293 0.64123 0.24898 0.0
N754 N 0.09839 0.67377 0.11007 0.0
N755 N 0.1082 0.65211 0.20769 0.0
H756 H 0.35802 0.43488 0.27326 0.0
H757 H 0.29909 0.44527 0.0979 0.0
H758 H 0.35354 0.47173 0.29829 0.0
H759 H 0.30069 0.4065 0.09497 0.0
H760 H 0.31933 0.45555 0.16918 0.0
H761 H 0.33778 0.42498 0.20269 0.0
C762 C 0.35286 0.44096 0.26336 0.0
C763 C 0.35743 0.45413 0.29166 0.0
C764 C 0.31518 0.44476 0.15326 0.0
C765 C 0.33414 0.44279 0.21156 0.0
C766 C 0.30359 0.43887 0.11288 0.0
C767 C 0.29823 0.42503 0.09056 0.0
C768 C 0.32147 0.43676 0.17101 0.0
C769 C 0.30449 0.41722 0.11111 0.0
C770 C 0.34124 0.43526 0.2234 0.0
C771 C 0.35034 0.46153 0.27735 0.0
N772 N 0.31583 0.42322 0.14988 0.0
N773 N 0.33899 0.45574 0.23837 0.0
H774 H 0.56145 0.92419 0.26335 0.0
H775 H 0.54881 0.85656 0.06589 0.0
H776 H 0.52314 0.88355 0.27293 0.0
H777 H 0.58876 0.89568 0.07364 0.0
H778 H 0.53896 0.86641 0.1396 0.0
H779 H 0.57126 0.91423 0.18991 0.0
C780 C 0.55507 0.91319 0.24962 0.0
C781 C 0.54147 0.90467 0.27419 0.0
C782 C 0.5499 0.87282 0.12542 0.0
C783 C 0.55265 0.89318 0.19065 0.0
C784 C 0.55554 0.86718 0.0835 0.0
C785 C 0.56962 0.87532 0.06373 0.0
C786 C 0.55839 0.88672 0.14742 0.0
C787 C 0.57785 0.88904 0.08781 0.0
C788 C 0.5607 0.9075 0.20796 0.0
C789 C 0.53368 0.89049 0.25504 0.0
N790 N 0.5721 0.89433 0.12821 0.0
N791 N 0.53938 0.88518 0.21443 0.0
H792 H 0.21382 0.95917 0.95057 0.0
H793 H 0.21569 0.02786 0.09318 0.0
H794 H 0.18801 0.97581 0.87972 0.0
H795 H 0.24213 0.01113 0.15472 0.0
H796 H 0.20398 0.00805 0.01977 0.0
H797 H 0.22262 0.9771 0.03187 0.0
C798 C 0.20995 0.96658 0.9524 0.0
C799 C 0.20027 0.96611 0.90817 0.0
C800 C 0.21231 0.00871 0.04956 0.0
C801 C 0.21042 0.98681 0.00083 0.0
C802 C 0.21899 0.02 0.09133 0.0
C803 C 0.22995 0.02115 0.12965 0.0
C804 C 0.21662 -0.00145 0.04647 0.0
C805 C 0.2338 0.0107 0.12568 0.0
C806 C 0.21499 0.97684 -0.00118 0.0
C807 C 0.1955 0.97587 0.91299 0.0
N808 N 0.22717 -0.00014 0.08475 0.0
N809 N 0.20073 0.98594 0.95829 0.0
H810 H 0.97136 0.18731 0.09808 0.0
H811 H 0.01804 0.25016 0.86103 0.0
H812 H 0.97034 0.22631 0.08525 0.0
H813 H 0.0248 0.21482 0.89145 0.0
H814 H -0.00092 0.24035 0.93749 0.0
H815 H 0.98958 0.19603 0.01684 0.0
C816 C 0.97494 0.19767 0.07798 0.0
C817 C 0.96939 0.20614 0.09836 0.0
C818 C 0.00469 0.23471 0.92758 0.0
C819 C 0.9901 0.21611 0.00591 0.0
C820 C 0.01551 0.2403 0.88383 0.0
C821 C 0.02302 0.23331 0.87015 0.0
C822 C 0.00129 0.22199 0.95789 0.0
C823 C 0.01928 0.22056 0.90093 0.0
C824 C 0.98534 0.20264 0.03184 0.0
C825 C 0.97437 0.21947 0.071 0.0
N826 N 0.00865 0.21529 0.94356 0.0
N827 N 0.98443 0.22403 0.0262 0.0
H828 H 0.75656 0.76839 0.80909 0.0
H829 H 0.76739 0.7581 0.16475 0.0
H830 H 0.75312 0.79475 0.94975 0.0
H831 H 0.79459 0.75607 0.02441 0.0
H832 H 0.75732 0.76683 0.08591 0.0
H833 H 0.76592 0.75893 0.88793 0.0
C834 C 0.75767 0.77208 0.85671 0.0
C835 C 0.75411 0.78235 0.87327 0.0
C836 C 0.76547 0.76443 0.07259 0.0
C837 C 0.76454 0.77149 0.96297 0.0
C838 C 0.77114 0.75939 0.1172 0.0
C839 C 0.78182 0.75641 0.10072 0.0
C840 C 0.77027 0.76612 0.01102 0.0
C841 C 0.78641 0.75833 0.03877 0.0
C842 C 0.76307 0.76675 0.90132 0.0
C843 C 0.75582 0.78688 0.93532 0.0
N844 N 0.78051 0.76297 0.9958 0.0
N845 N 0.76082 0.78132 0.97828 0.0
H846 H 0.754 0.98402 0.84211 0.0
H847 H 0.80073 0.01363 0.1481 0.0
H848 H 0.77556 0.96389 0.92463 0.0
H849 H 0.78877 0.03846 0.03316 0.0
H850 H 0.79176 0.99523 0.06778 0.0
H851 H 0.76638 0.00386 0.91376 0.0
C852 C 0.76135 0.98378 0.87543 0.0
C853 C 0.76372 0.97228 0.87781 0.0
C854 C 0.79127 0.00479 0.05985 0.0
C855 C 0.77793 0.99494 0.95992 0.0
C856 C 0.7964 0.01529 0.10557 0.0
C857 C 0.79538 0.02752 0.09733 0.0
C858 C 0.78495 0.00649 0.00606 0.0
C859 C 0.78971 0.02916 0.04145 0.0
C860 C 0.76848 0.99515 0.91605 0.0
C861 C 0.77342 0.97255 0.92151 0.0
N862 N 0.78454 0.01868 -0.00176 0.0
N863 N 0.78011 0.98368 0.9613 0.0
H864 H 0.02548 0.8055 0.90396 0.0
H865 H 0.96968 0.73942 0.10547 0.0
H866 H 0.02095 0.76389 0.89234 0.0
H867 H 0.96889 0.77848 0.08874 0.0
H868 H 0.98948 0.74864 0.03251 0.0
H869 H 0.00601 0.79635 0.97876 0.0
C870 C 0.02046 0.79447 0.91761 0.0
C871 C 0.02478 0.78542 0.89199 0.0
C872 C 0.98494 0.75517 0.0446 0.0
C873 C 0.0025 0.77488 0.97693 0.0
C874 C 0.97363 0.74991 0.08611 0.0
C875 C 0.96766 0.75821 0.10298 0.0
C876 C 0.99036 0.76887 0.02025 0.0
C877 C 0.97318 0.77173 0.07673 0.0
C878 C 0.00931 0.78924 0.95996 0.0
C879 C 0.01791 0.77121 0.911 0.0
N880 N 0.98428 0.77668 0.03681 0.0
N881 N 0.00708 0.76637 0.95233 0.0
H882 H 0.2118 0.19016 0.10975 0.0
H883 H 0.23091 0.24422 0.82616 0.0
H884 H 0.2544 0.22031 0.05301 0.0
H885 H 0.18937 0.22233 0.90939 0.0
H886 H 0.23903 0.23306 0.90116 0.0
H887 H 0.20271 0.19936 0.02839 0.0
C888 C 0.21922 0.19862 0.07982 0.0
C889 C 0.23386 0.20454 0.08808 0.0
C890 C 0.22813 0.23067 0.9031 0.0
C891 C 0.2236 0.21504 0.99553 0.0
C892 C 0.22348 0.23703 0.86024 0.0
C893 C 0.20947 0.23424 0.86189 0.0
C894 C 0.21869 0.22139 0.94784 0.0
C895 C 0.20029 0.22481 0.90688 0.0
C896 C 0.21404 0.20389 0.03373 0.0
C897 C 0.24303 0.2155 0.04835 0.0
N898 N 0.20507 0.2187 0.94826 0.0
N899 N 0.23775 0.22039 0.00383 0.0
H900 H 0.91916 0.35511 0.4384 0.0
H901 H 0.85364 0.30302 0.22338 0.0
H902 H 0.88056 0.3569 0.42767 0.0
H903 H 0.89452 0.30579 0.21948 0.0
H904 H 0.86273 0.32205 0.30105 0.0
H905 H 0.90977 0.33636 0.36052 0.0
C906 C 0.9087 0.35156 0.41947 0.0
C907 C 0.90061 0.35755 0.43942 0.0
C908 C 0.86969 0.31848 0.28311 0.0
C909 C 0.88975 0.33602 0.35034 0.0
C910 C 0.86451 0.30761 0.239 0.0
C911 C 0.87335 0.30284 0.21511 0.0
C912 C 0.88379 0.32453 0.3035 0.0
C913 C 0.88734 0.30915 0.23669 0.0
C914 C 0.90334 0.34086 0.37496 0.0
C915 C 0.88714 0.35256 0.41337 0.0
N916 N 0.89211 0.31965 0.27969 0.0
N917 N 0.88209 0.34203 0.37018 0.0
H918 H 0.6899 0.54966 0.22424 0.0
H919 H 0.63499 0.56295 0.41757 0.0
H920 H 0.68422 0.58581 0.19949 0.0
H921 H 0.63641 0.52415 0.42988 0.0
H922 H 0.65337 0.5715 0.33835 0.0
H923 H 0.6707 0.54012 0.30096 0.0
C924 C 0.68461 0.55557 0.23498 0.0
C925 C 0.68864 0.56854 0.2057 0.0
C926 C 0.64966 0.56109 0.35811 0.0
C927 C 0.66678 0.55775 0.29295 0.0
C928 C 0.63916 0.55621 0.40339 0.0
C929 C 0.63421 0.54284 0.43028 0.0
C930 C 0.65533 0.55259 0.33975 0.0
C931 C 0.63996 0.53453 0.41015 0.0
C932 C 0.67366 0.55012 0.27858 0.0
C933 C 0.68145 0.57578 0.22106 0.0
N934 N 0.65029 0.53957 0.36615 0.0
N935 N 0.6709 0.5703 0.2637 0.0
H936 H 0.42467 0.10346 0.14977 0.0
H937 H 0.43433 0.092 0.50478 0.0
H938 H 0.42106 0.12963 0.29091 0.0
H939 H 0.46222 0.09062 0.36625 0.0
H940 H 0.42474 0.10123 0.42591 0.0
H941 H 0.434 0.09394 0.22848 0.0
C942 C 0.42575 0.10711 0.19745 0.0
C943 C 0.42213 0.11732 0.21423 0.0
C944 C 0.43294 0.09886 0.41299 0.0
C945 C 0.43251 0.10639 0.30376 0.0
C946 C 0.43834 0.09355 0.45761 0.0
C947 C 0.44905 0.09059 0.44165 0.0
C948 C 0.43806 0.10085 0.35188 0.0
C949 C 0.45399 0.09284 0.38019 0.0
C950 C 0.43113 0.10175 0.24199 0.0
C951 C 0.4238 0.1218 0.27634 0.0
N952 N 0.44834 0.09774 0.33714 0.0
N953 N 0.42877 0.11619 0.31924 0.0
H954 H 0.44223 0.29752 0.26948 0.0
H955 H 0.45495 0.37329 0.37643 0.0
H956 H 0.42079 0.31801 0.18936 0.0
H957 H 0.46623 0.34784 0.49067 0.0
H958 H 0.44623 0.35489 0.29655 0.0
H959 H 0.45453 0.31751 0.34157 0.0
C960 C 0.44014 0.30623 0.26704 0.0
C961 C 0.43042 0.3061 0.22386 0.0
C962 C 0.45072 0.35339 0.33889 0.0
C963 C 0.44451 0.32896 0.30515 0.0
C964 C 0.45577 0.36391 0.38431 0.0
C965 C 0.4612 0.36201 0.44039 0.0
C966 C 0.45116 0.3409 0.34953 0.0
C967 C 0.46204 0.34967 0.44817 0.0
C968 C 0.44715 0.31761 0.30806 0.0
C969 C 0.42811 0.31765 0.22235 0.0
N970 N 0.45697 0.33951 0.40333 0.0
N971 N 0.43512 0.32862 0.26239 0.0
H972 H 0.68743 0.09806 0.23277 0.0
H973 H 0.6361 0.11385 0.44083 0.0
H974 H 0.68996 0.13885 0.23749 0.0
H975 H 0.6379 0.07522 0.44994 0.0
H976 H 0.65517 0.12309 0.36358 0.0
H977 H 0.66867 0.08939 0.31027 0.0
C978 C 0.68405 0.10521 0.25032 0.0
C979 C 0.69024 0.11918 0.22879 0.0
C980 C 0.65138 0.1126 0.38257 0.0
C981 C 0.6687 0.10932 0.31736 0.0
C982 C 0.64049 0.10732 0.42644 0.0
C983 C 0.63544 0.09376 0.45167 0.0
C984 C 0.65717 0.10422 0.36382 0.0
C985 C 0.64149 0.08574 0.43166 0.0
C986 C 0.67333 0.10026 0.29459 0.0
C987 C 0.68546 0.128 0.25306 0.0
N988 N 0.65202 0.09108 0.38889 0.0
N989 N 0.67491 0.1229 0.29604 0.0
H990 H 0.87985 0.52169 0.44876 0.0
H991 H 0.89497 0.58786 0.23451 0.0
H992 H 0.91853 0.56209 0.45356 0.0
H993 H 0.85413 0.54979 0.24409 0.0
H994 H 0.90394 0.57802 0.31214 0.0
H995 H 0.87038 0.53118 0.37064 0.0
C996 C 0.88635 0.53254 0.43324 0.0
C997 C 0.89998 0.54114 0.45754 0.0
C998 C 0.893 0.5718 0.29748 0.0
C999 C 0.88927 0.55202 0.36865 0.0
C1000 C 0.88788 0.57742 0.25312 0.0
C1001 C 0.87379 0.56962 0.23296 0.0
C1002 C 0.884 0.55824 0.32175 0.0
C1003 C 0.86506 0.55615 0.25857 0.0
C1004 C 0.88093 0.53795 0.38886 0.0
C1005 C 0.90796 0.5551 0.43605 0.0
N1006 N 0.87033 0.55085 0.30165 0.0
N1007 N 0.90248 0.5601 0.39282 0.0
H1008 H 0.52368 0.64783 0.51345 0.0
H1009 H 0.56854 0.67492 0.82511 0.0
H1010 H 0.5329 0.62134 0.63117 0.0
H1011 H 0.54996 0.69738 0.73702 0.0
H1012 H 0.55542 0.65516 0.75385 0.0
H1013 H 0.53266 0.66597 0.59489 0.0
C1014 C 0.52739 0.64575 0.55682 0.0
C1015 C 0.52768 0.63314 0.56549 0.0
C1016 C 0.55412 0.66436 0.75029 0.0
C1017 C 0.53813 0.65386 0.65812 0.0
C1018 C 0.56167 0.67567 0.79071 0.0
C1019 C 0.56039 0.68781 0.78653 0.0
C1020 C 0.54535 0.66526 0.70478 0.0
C1021 C 0.55126 0.6882 0.74152 0.0
C1022 C 0.53253 0.65611 0.6032 0.0
C1023 C 0.53256 0.63095 0.62249 0.0
N1024 N 0.54417 0.67712 0.70188 0.0
N1025 N 0.53777 0.6413 0.66635 0.0
H1026 H 0.30384 0.8558 0.75714 0.0
H1027 H 0.35067 0.91899 0.52179 0.0
H1028 H 0.30284 0.89483 0.74597 0.0
H1029 H 0.35757 0.88375 0.55233 0.0
H1030 H 0.33166 0.90909 0.59815 0.0
H1031 H 0.32217 0.8647 0.67637 0.0
C1032 C 0.30745 0.8662 0.7375 0.0
C1033 C 0.30188 0.87463 0.75822 0.0
C1034 C 0.33732 0.90351 0.58829 0.0
C1035 C 0.32271 0.88481 0.66627 0.0
C1036 C 0.34817 0.90915 0.54464 0.0
C1037 C 0.35572 0.9022 0.531 0.0
C1038 C 0.33395 0.89078 0.61851 0.0
C1039 C 0.35201 0.88946 0.56178 0.0
C1040 C 0.31791 0.87128 0.69163 0.0
C1041 C 0.3069 0.88802 0.73145 0.0
N1042 N 0.34136 0.88414 0.60427 0.0
N1043 N 0.31702 0.89269 0.68687 0.0
H1044 H 0.09747 0.40674 0.75499 0.0
H1045 H 0.11103 0.4731 0.54617 0.0
H1046 H 0.13769 0.44558 0.74927 0.0
H1047 H 0.07323 0.43203 0.53719 0.0
H1048 H 0.12097 0.4637 0.62249 0.0
H1049 H 0.08838 0.41624 0.67642 0.0
C1050 C 0.10441 0.41727 0.73694 0.0
C1051 C 0.11834 0.4254 0.75861 0.0
C1052 C 0.11051 0.45676 0.60368 0.0
C1053 C 0.10799 0.43642 0.66881 0.0
C1054 C 0.10483 0.46213 0.56035 0.0
C1055 C 0.09129 0.45332 0.53553 0.0
C1056 C 0.10254 0.44254 0.62232 0.0
C1057 C 0.08371 0.43919 0.55521 0.0
C1058 C 0.09922 0.4227 0.69204 0.0
C1059 C 0.12688 0.43897 0.73363 0.0
N1060 N 0.08942 0.43425 0.59751 0.0
N1061 N 0.12154 0.4441 0.69012 0.0
H1062 H 0.13369 0.68078 0.81028 0.0
H1063 H 0.08577 0.65151 0.5076 0.0
H1064 H 0.12176 0.70593 0.69745 0.0
H1065 H 0.10732 0.63106 0.58708 0.0
H1066 H 0.09864 0.67137 0.57867 0.0
H1067 H 0.12435 0.66241 0.72982 0.0
C1068 C 0.1293 0.68252 0.76816 0.0
C1069 C 0.12838 0.69482 0.76059 0.0
C1070 C 0.10063 0.66258 0.5804 0.0
C1071 C 0.11751 0.67383 0.66919 0.0
C1072 C 0.09322 0.6512 0.54013 0.0
C1073 C 0.09544 0.63961 0.54185 0.0
C1074 C 0.11022 0.6623 0.62326 0.0
C1075 C 0.10528 0.6398 0.58451 0.0
C1076 C 0.12395 0.67204 0.72236 0.0
C1077 C 0.12261 0.69657 0.70521 0.0
N1078 N 0.11225 0.65094 0.62399 0.0
N1079 N 0.11723 0.6861 0.66194 0.0
H1080 H 0.31946 0.43815 0.87145 0.0
H1081 H 0.33775 0.44102 0.51424 0.0
H1082 H 0.2877 0.42608 0.72813 0.0
H1083 H 0.3688 0.46844 0.64883 0.0
H1084 H 0.31929 0.43399 0.59302 0.0
H1085 H 0.33787 0.44813 0.79165 0.0
C1086 C 0.31639 0.4377 0.82315 0.0
C1087 C 0.30208 0.43124 0.80609 0.0
C1088 C 0.33013 0.44162 0.60517 0.0
C1089 C 0.323 0.44245 0.71492 0.0
C1090 C 0.34066 0.44556 0.56045 0.0
C1091 C 0.35479 0.45525 0.57538 0.0
C1092 C 0.3338 0.44723 0.66547 0.0
C1093 C 0.35801 0.46092 0.63565 0.0
C1094 C 0.32688 0.44343 0.77777 0.0
C1095 C 0.29863 0.43097 0.74305 0.0
N1096 N 0.34758 0.4567 0.67887 0.0
N1097 N 0.30904 0.43635 0.69951 0.0
H1098 H 0.58745 0.89696 0.77649 0.0
H1099 H 0.52097 0.88318 0.56719 0.0
H1100 H 0.54842 0.85688 0.77222 0.0
H1101 H 0.56192 0.92114 0.55902 0.0
H1102 H 0.53028 0.87352 0.6453 0.0
H1103 H 0.57777 0.90617 0.6992 0.0
C1104 C 0.57683 0.89008 0.75913 0.0
C1105 C 0.56872 0.87614 0.78068 0.0
C1106 C 0.5372 0.88396 0.62637 0.0
C1107 C 0.55751 0.88663 0.69228 0.0
C1108 C 0.5319 0.88948 0.582 0.0
C1109 C 0.5407 0.90296 0.55672 0.0
C1110 C 0.55138 0.89203 0.64558 0.0
C1111 C 0.55477 0.91069 0.5773 0.0
C1112 C 0.5713 0.89535 0.71497 0.0
C1113 C 0.55503 0.8677 0.75665 0.0
N1114 N 0.55966 0.90512 0.62051 0.0
N1115 N 0.54982 0.87309 0.71372 0.0
H1116 H 0.36914 0.12282 0.21163 0.0
H1117 H 0.2892 0.07132 0.1038 0.0
H1118 H 0.35819 0.10315 0.03034 0.0
H1119 H 0.30157 0.08425 0.29419 0.0
H1120 H 0.31417 0.08428 0.07336 0.0
H1121 H 0.34415 0.11021 0.23991 0.0
C1122 C 0.36145 0.11586 0.17767 0.0
C1123 C 0.36573 0.11401 0.11855 0.0
C1124 C 0.31141 0.08426 0.12177 0.0
C1125 C 0.33707 0.09952 0.15067 0.0
C1126 C 0.29718 0.07691 0.13916 0.0
C1127 C 0.29334 0.07672 0.20162 0.0
C1128 C 0.32185 0.09157 0.16714 0.0
C1129 C 0.30408 0.0841 0.24555 0.0
C1130 C 0.34719 0.10863 0.19393 0.0
C1131 C 0.35532 0.10485 0.07644 0.0
N1132 N 0.31784 0.09126 0.22743 0.0
N1133 N 0.34145 0.09794 0.0933 0.0
H1134 H 0.8822 0.24398 0.02585 0.0
H1135 H 0.91284 0.2167 0.29795 0.0
H1136 H 0.87535 0.24775 0.22101 0.0
H1137 H 0.91393 0.20744 0.10341 0.0
H1138 H 0.8993 0.22836 0.27109 0.0
H1139 H 0.89412 0.23078 0.05348 0.0
C1140 C 0.88317 0.24198 0.0745 0.0
C1141 C 0.87782 0.24698 0.12122 0.0
C1142 C 0.90245 0.22371 0.23433 0.0
C1143 C 0.89149 0.23196 0.15327 0.0
C1144 C 0.91018 0.21707 0.24965 0.0
C1145 C 0.91453 0.21114 0.20281 0.0
C1146 C 0.89915 0.22449 0.17169 0.0
C1147 C 0.9108 0.2119 0.14098 0.0
C1148 C 0.88996 0.23443 0.09028 0.0
C1149 C 0.87933 0.24408 0.18353 0.0
N1150 N 0.90338 0.21851 0.12719 0.0
N1151 N 0.8861 0.23682 0.19777 0.0
H1152 H 0.7414 0.62475 0.22123 0.0
H1153 H 0.7892 0.70462 0.10494 0.0
H1154 H 0.75062 0.63638 0.02777 0.0
H1155 H 0.77115 0.69378 0.28916 0.0
H1156 H 0.77724 0.67948 0.07847 0.0
H1157 H 0.75438 0.64985 0.24949 0.0
C1158 C 0.74621 0.63259 0.18472 0.0
C1159 C 0.74493 0.62851 0.12204 0.0
C1160 C 0.77589 0.68259 0.1247 0.0
C1161 C 0.75978 0.65719 0.15405 0.0
C1162 C 0.78275 0.69693 0.13992 0.0
C1163 C 0.78113 0.70127 0.19931 0.0
C1164 C 0.76744 0.67249 0.16933 0.0
C1165 C 0.77264 0.69087 0.24278 0.0
C1166 C 0.75357 0.6469 0.20088 0.0
C1167 C 0.75133 0.63909 0.07663 0.0
N1168 N 0.76612 0.67693 0.22694 0.0
N1169 N 0.75851 0.65295 0.09355 0.0
H1170 H 0.08611 0.30158 0.68534 0.0
H1171 H 0.10646 0.35964 0.95384 0.0
H1172 H 0.07444 0.29157 0.87836 0.0
H1173 H 0.12121 0.3703 0.76453 0.0
H1174 H 0.0948 0.33457 0.92647 0.0
H1175 H 0.09915 0.32682 0.71255 0.0
C1176 C 0.08632 0.3047 0.73338 0.0
C1177 C 0.07917 0.2945 0.77964 0.0
C1178 C 0.10062 0.34237 0.89088 0.0
C1179 C 0.094 0.32323 0.81106 0.0
C1180 C 0.10728 0.35669 0.90654 0.0
C1181 C 0.11478 0.36704 0.86135 0.0
C1182 C 0.1014 0.33836 0.82948 0.0
C1183 C 0.11552 0.36263 0.80077 0.0
C1184 C 0.09376 0.31908 0.74891 0.0
C1185 C 0.07979 0.29908 0.84117 0.0
N1186 N 0.10886 0.34861 0.7865 0.0
N1187 N 0.08703 0.3131 0.85502 0.0
H1188 H 0.69089 0.76809 0.68489 0.0
H1189 H 0.63342 0.75093 0.9519 0.0
H1190 H 0.70079 0.78808 0.86561 0.0
H1191 H 0.62212 0.73694 0.76184 0.0
H1192 H 0.65835 0.76355 0.92205 0.0
H1193 H 0.66573 0.75555 0.71287 0.0
C1194 C 0.68776 0.76985 0.73035 0.0
C1195 C 0.69791 0.77912 0.77302 0.0
C1196 C 0.65043 0.75775 0.88678 0.0
C1197 C 0.66927 0.76481 0.80539 0.0
C1198 C 0.6362 0.75052 0.90385 0.0
C1199 C 0.62572 0.7429 0.85925 0.0
C1200 C 0.65422 0.75728 0.82471 0.0
C1201 C 0.6299 0.74272 0.79764 0.0
C1202 C 0.67342 0.76271 0.74626 0.0
C1203 C 0.69331 0.78103 0.83127 0.0
N1204 N 0.64385 0.74979 0.78217 0.0
N1205 N 0.67934 0.77391 0.8458 0.0
H1206 H 0.20259 0.91095 0.88881 0.0
H1207 H 0.24814 0.87745 0.75976 0.0
H1208 H 0.21628 0.91497 0.69778 0.0
H1209 H 0.24325 0.88291 0.95537 0.0
H1210 H 0.23431 0.88885 0.73493 0.0
H1211 H 0.2152 0.89827 0.91261 0.0
C1212 C 0.20819 0.90909 0.85176 0.0
C1213 C 0.20842 0.91403 0.79122 0.0
C1214 C 0.23625 0.88754 0.78327 0.0
C1215 C 0.22287 0.89952 0.81819 0.0
C1216 C 0.2441 0.88101 0.7975 0.0
C1217 C 0.24685 0.87927 0.85974 0.0
C1218 C 0.231 0.89227 0.83164 0.0
C1219 C 0.24139 0.88408 0.90677 0.0
C1220 C 0.21543 0.90189 0.86547 0.0
C1221 C 0.21586 0.91135 0.74509 0.0
N1222 N 0.2337 0.89036 0.89175 0.0
N1223 N 0.2228 0.90426 0.75953 0.0
H1224 H 0.69295 0.91073 0.70308 0.0
H1225 H 0.6353 0.88562 0.97516 0.0
H1226 H 0.70388 0.91817 0.89794 0.0
H1227 H 0.62494 0.87498 0.78142 0.0
H1228 H 0.66048 0.89748 0.94849 0.0
H1229 H 0.66794 0.89751 0.73134 0.0
C1230 C 0.69008 0.90955 0.75185 0.0
C1231 C 0.70048 0.91557 0.79825 0.0
C1232 C 0.6527 0.89249 0.91187 0.0
C1233 C 0.67188 0.90049 0.83102 0.0
C1234 C 0.63834 0.88573 0.92708 0.0
C1235 C 0.62805 0.87935 0.88038 0.0
C1236 C 0.65676 0.89292 0.8495 0.0
C1237 C 0.63253 0.87978 0.81886 0.0
C1238 C 0.67579 0.90198 0.76799 0.0
C1239 C 0.69617 0.9137 0.86072 0.0
N1240 N 0.64655 0.8865 0.80518 0.0
N1241 N 0.68218 0.90636 0.8753 0.0
H1242 H 0.06405 0.76073 0.72178 0.0
H1243 H 0.12285 0.75904 0.93992 0.0
H1244 H 0.08886 0.79314 0.85665 0.0
H1245 H 0.09597 0.72523 0.81449 0.0
H1246 H 0.11057 0.77175 0.90992 0.0
H1247 H 0.07592 0.74774 0.75382 0.0
C1248 C 0.07204 0.76514 0.75794 0.0
C1249 C 0.0755 0.77802 0.78658 0.0
C1250 C 0.10731 0.76152 0.88915 0.0
C1251 C 0.08906 0.76321 0.82372 0.0
C1252 C 0.1143 0.75426 0.90639 0.0
C1253 C 0.11042 0.74108 0.87961 0.0
C1254 C 0.09641 0.75559 0.84462 0.0
C1255 C 0.09929 0.73537 0.8363 0.0
C1256 C 0.07878 0.7577 0.77638 0.0
C1257 C 0.08589 0.78323 0.83332 0.0
N1258 N 0.09271 0.74269 0.81996 0.0
N1259 N 0.0923 0.77581 0.85044 0.0
H1260 H 0.2159 0.29138 0.89027 0.0
H1261 H 0.25394 0.37274 0.78606 0.0
H1262 H 0.2231 0.30519 0.69879 0.0
H1263 H 0.24768 0.35925 0.97795 0.0
H1264 H 0.2428 0.34802 0.75341 0.0
H1265 H 0.2277 0.31614 0.92359 0.0
C1266 C 0.22 0.29964 0.85525 0.0
C1267 C 0.21852 0.29625 0.79167 0.0
C1268 C 0.24386 0.35044 0.80267 0.0
C1269 C 0.23199 0.32457 0.82941 0.0
C1270 C 0.25022 0.36456 0.82134 0.0
C1271 C 0.25171 0.36803 0.88481 0.0
C1272 C 0.23895 0.33969 0.84779 0.0
C1273 C 0.24672 0.35701 0.92853 0.0
C1274 C 0.22673 0.31376 0.87429 0.0
C1275 C 0.22402 0.30734 0.74828 0.0
N1276 N 0.24054 0.34332 0.90919 0.0
N1277 N 0.23049 0.32101 0.76796 0.0
H1278 H 0.91539 0.69518 0.30109 0.0
H1279 H 0.87958 0.63601 0.03758 0.0
H1280 H 0.90823 0.70445 0.11363 0.0
H1281 H 0.87656 0.62627 0.23363 0.0
H1282 H 0.89119 0.66125 0.06339 0.0
H1283 H 0.90223 0.66988 0.2764 0.0
C1284 C 0.911 0.69188 0.25482 0.0
C1285 C 0.9129 0.70189 0.20929 0.0
C1286 C 0.88791 0.65358 0.10074 0.0
C1287 C 0.89796 0.67304 0.18059 0.0
C1288 C 0.88133 0.63919 0.08603 0.0
C1289 C 0.87714 0.62907 0.13356 0.0
C1290 C 0.89046 0.65785 0.16337 0.0
C1291 C 0.87962 0.63374 0.19556 0.0
C1292 C 0.90347 0.67745 0.24079 0.0
C1293 C 0.90698 0.69706 0.15011 0.0
N1294 N 0.8862 0.6478 0.20869 0.0
N1295 N 0.89986 0.68297 0.13731 0.0
H1296 H 0.37004 0.25272 0.24092 0.0
H1297 H 0.29131 0.20458 0.10993 0.0
H1298 H 0.35985 0.24333 0.04626 0.0
H1299 H 0.30036 0.21922 0.30008 0.0
H1300 H 0.31664 0.21692 0.08824 0.0
H1301 H 0.34478 0.23882 0.2658 0.0
C1302 C 0.36249 0.2477 0.20347 0.0
C1303 C 0.36701 0.2492 0.14142 0.0
C1304 C 0.31311 0.21742 0.13479 0.0
C1305 C 0.33818 0.23329 0.16949 0.0
C1306 C 0.29865 0.21034 0.14725 0.0
C1307 C 0.29374 0.21093 0.20685 0.0
C1308 C 0.32278 0.22513 0.18228 0.0
C1309 C 0.30372 0.21854 0.25344 0.0
C1310 C 0.34809 0.23979 0.21768 0.0
C1311 C 0.35681 0.24249 0.0947 0.0
N1312 N 0.31779 0.22538 0.24013 0.0
N1313 N 0.34287 0.23483 0.1097 0.0
H1314 H 0.73803 0.10044 0.04537 0.0
H1315 H 0.78695 0.08969 0.29186 0.0
H1316 H 0.75119 0.12305 0.21977 0.0
H1317 H 0.7665 0.06177 0.13617 0.0
H1318 H 0.77506 0.10296 0.264 0.0
H1319 H 0.74985 0.08726 0.07475 0.0
C1320 C 0.74347 0.10268 0.08973 0.0
C1321 C 0.74364 0.11283 0.13024 0.0
C1322 C 0.77313 0.09389 0.23615 0.0
C1323 C 0.75714 0.09778 0.16427 0.0
C1324 C 0.7799 0.08631 0.25207 0.0
C1325 C 0.77769 0.07462 0.21628 0.0
C1326 C 0.76421 0.0898 0.18378 0.0
C1327 C 0.76848 0.0707 0.16511 0.0
C1328 C 0.75016 0.09511 0.10661 0.0
C1329 C 0.75081 0.11529 0.18721 0.0
N1330 N 0.76213 0.07832 0.15022 0.0
N1331 N 0.7573 0.10781 0.20255 0.0
H1332 H 0.02324 0.44558 0.35304 0.0
H1333 H 0.9668 0.41525 0.62997 0.0
H1334 H 0.03479 0.45245 0.5474 0.0
H1335 H 0.95534 0.41433 0.43695 0.0
H1336 H 0.9918 0.42873 0.60077 0.0
H1337 H -0.00173 0.43388 0.38272 0.0
C1338 C 0.02051 0.44467 0.40194 0.0
C1339 C 0.03107 0.44995 0.44785 0.0
C1340 C 0.98382 0.42564 0.56484 0.0
C1341 C 0.00257 0.43654 0.4822 0.0
C1342 C 0.96956 0.41794 0.58149 0.0
C1343 C 0.95901 0.41365 0.53577 0.0
C1344 C 0.98754 0.42897 0.50195 0.0
C1345 C 0.96315 0.41743 0.47367 0.0
C1346 C 0.00626 0.43801 0.41888 0.0
C1347 C 0.02697 0.44852 0.51051 0.0
N1348 N 0.97709 0.42481 0.45853 0.0
N1349 N 0.01303 0.44188 0.52587 0.0
H1350 H 0.58551 0.56063 0.62136 0.0
H1351 H 0.53833 0.57272 0.36968 0.0
H1352 H 0.57399 0.53951 0.44322 0.0
H1353 H 0.55578 0.59846 0.53411 0.0
H1354 H 0.5503 0.55956 0.39783 0.0
H1355 H 0.57334 0.57354 0.59296 0.0
C1356 C 0.58035 0.55866 0.57641 0.0
C1357 C 0.58076 0.54901 0.53454 0.0
C1358 C 0.55155 0.56812 0.42761 0.0
C1359 C 0.56688 0.56376 0.5016 0.0
C1360 C 0.54474 0.57564 0.41152 0.0
C1361 C 0.54609 0.5867 0.4496 0.0
C1362 C 0.55968 0.57164 0.48238 0.0
C1363 C 0.55448 0.59003 0.50336 0.0
C1364 C 0.57346 0.56607 0.56009 0.0
C1365 C 0.57393 0.54688 0.47685 0.0
N1366 N 0.56092 0.5825 0.51827 0.0
N1367 N 0.56727 0.5542 0.46205 0.0
H1368 H 0.45534 0.03837 0.44285 0.0
H1369 H 0.40783 0.95792 0.55189 0.0
H1370 H 0.4368 0.02663 0.62591 0.0
H1371 H 0.41775 0.97051 0.35971 0.0
H1372 H 0.42037 0.98289 0.58243 0.0
H1373 H 0.4436 0.01338 0.41422 0.0
C1374 C 0.44881 0.03051 0.47711 0.0
C1375 C 0.44701 0.03456 0.53683 0.0
C1376 C 0.41981 0.98018 0.53361 0.0
C1377 C 0.43356 0.00592 0.50436 0.0
C1378 C 0.41271 0.96594 0.51616 0.0
C1379 C 0.41175 0.96217 0.45316 0.0
C1380 C 0.42611 0.9907 0.48777 0.0
C1381 C 0.41822 0.97297 0.40878 0.0
C1382 C 0.44209 0.01625 0.46065 0.0
C1383 C 0.43843 0.02395 0.57932 0.0
N1384 N 0.42515 0.98676 0.42695 0.0
N1385 N 0.43203 0.01008 0.56229 0.0
H1386 H 0.57594 0.02721 0.64004 0.0
H1387 H 0.54937 0.97005 0.36541 0.0
H1388 H 0.57935 0.0382 0.44535 0.0
H1389 H 0.5401 0.95899 0.55935 0.0
H1390 H 0.56055 0.99511 0.39364 0.0
H1391 H 0.56286 0.00213 0.61154 0.0
C1392 C 0.57387 0.02433 0.59132 0.0
C1393 C 0.57876 0.03477 0.54497 0.0
C1394 C 0.55601 0.9872 0.42999 0.0
C1395 C 0.5639 0.00614 0.51195 0.0
C1396 C 0.54965 0.9729 0.41389 0.0
C1397 C 0.54385 0.96245 0.46014 0.0
C1398 C 0.55665 0.99106 0.49284 0.0
C1399 C 0.54446 0.96672 0.52223 0.0
C1400 C 0.5664 0.01003 0.57506 0.0
C1401 C 0.57577 0.03048 0.48256 0.0
N1402 N 0.55082 0.9807 0.53681 0.0
N1403 N 0.56861 0.01649 0.46785 0.0
H1404 H 0.96712 0.55171 0.64772 0.0
H1405 H 0.02376 0.57754 0.37114 0.0
H1406 H 0.9561 0.5404 0.45493 0.0
H1407 H 0.03534 0.58574 0.56515 0.0
H1408 H -0.00112 0.56387 0.40125 0.0
H1409 H 0.99218 0.56413 0.61894 0.0
C1410 C 0.96999 0.55178 0.5994 0.0
C1411 C 0.95954 0.54505 0.5536 0.0
C1412 C 0.00685 0.56862 0.4373 0.0
C1413 C 0.98813 0.55928 0.52029 0.0
C1414 C 0.02106 0.57644 0.4201 0.0
C1415 C 0.03161 0.5828 0.46573 0.0
C1416 C 0.00316 0.56719 0.5006 0.0
C1417 C 0.02752 0.58102 0.52849 0.0
C1418 C 0.98428 0.55887 0.58299 0.0
C1419 C 0.96382 0.54546 0.49172 0.0
N1420 N 0.01361 0.57342 0.54409 0.0
N1421 N 0.97778 0.55251 0.47685 0.0
H1422 H 0.41392 0.45503 0.57949 0.0
H1423 H 0.43018 0.39349 0.48703 0.0
H1424 H 0.4009 0.43198 0.40614 0.0
H1425 H 0.45124 0.42258 0.63852 0.0
H1426 H 0.41726 0.40586 0.46355 0.0
H1427 H 0.42578 0.44177 0.60812 0.0
C1428 C 0.41355 0.44717 0.54752 0.0
C1429 C 0.40647 0.44461 0.4903 0.0
C1430 C 0.42468 0.40953 0.50204 0.0
C1431 C 0.41989 0.42939 0.52283 0.0
C1432 C 0.43201 0.40243 0.51563 0.0
C1433 C 0.44182 0.40705 0.56468 0.0
C1434 C 0.4271 0.42129 0.53792 0.0
C1435 C 0.44379 0.4187 0.60019 0.0
C1436 C 0.42033 0.43963 0.56384 0.0
C1437 C 0.40629 0.43432 0.45061 0.0
N1438 N 0.43649 0.42545 0.58606 0.0
N1439 N 0.41288 0.42706 0.46768 0.0
H1440 H 0.25062 0.09353 0.36291 0.0
H1441 H 0.23114 0.14417 0.16962 0.0
H1442 H 0.23323 0.08442 0.17704 0.0
H1443 H 0.25013 0.15433 0.35242 0.0
H1444 H 0.22922 0.12092 0.17675 0.0
H1445 H 0.24802 0.11454 0.36502 0.0
C1446 C 0.24615 0.0959 0.32275 0.0
C1447 C 0.24225 0.08731 0.2695 0.0
C1448 C 0.2337 0.12818 0.21556 0.0
C1449 C 0.23928 0.11132 0.27146 0.0
C1450 C 0.23477 0.14145 0.21154 0.0
C1451 C 0.24092 0.15122 0.26029 0.0
C1452 C 0.23886 0.12468 0.26862 0.0
C1453 C 0.2454 0.14712 0.31362 0.0
C1454 C 0.24467 0.10789 0.32395 0.0
C1455 C 0.23646 0.09082 0.21887 0.0
N1456 N 0.24439 0.13419 0.31617 0.0
N1457 N 0.23524 0.10261 0.22094 0.0
H1458 H 0.84068 0.0925 0.35603 0.0
H1459 H 0.91041 0.14536 0.16633 0.0
H1460 H 0.84837 0.08575 0.16551 0.0
H1461 H 0.90119 0.15395 0.35128 0.0
H1462 H 0.88915 0.12202 0.17024 0.0
H1463 H 0.86418 0.11359 0.35998 0.0
C1464 C 0.84737 0.0954 0.31519 0.0
C1465 C 0.84256 0.08746 0.26018 0.0
C1466 C 0.89183 0.12895 0.21018 0.0
C1467 C 0.8694 0.11156 0.26427 0.0
C1468 C 0.90397 0.14227 0.20801 0.0
C1469 C 0.90747 0.15163 0.25835 0.0
C1470 C 0.88311 0.12499 0.26304 0.0
C1471 C 0.89881 0.14707 0.3113 0.0
C1472 C 0.86077 0.10744 0.31744 0.0
C1473 C 0.85165 0.09164 0.20872 0.0
N1474 N 0.88696 0.1341 0.31208 0.0
N1475 N 0.86462 0.10347 0.21189 0.0
H1476 H 0.90278 0.75109 0.36048 0.0
H1477 H 0.84962 0.76791 0.17219 0.0
H1478 H 0.90921 0.76538 0.16971 0.0
H1479 H 0.84038 0.74742 0.35167 0.0
H1480 H 0.87356 0.7714 0.17825 0.0
H1481 H 0.88205 0.75409 0.36557 0.0
C1482 C 0.89993 0.75503 0.31991 0.0
C1483 C 0.90759 0.75782 0.26433 0.0
C1484 C 0.86634 0.76628 0.21659 0.0
C1485 C 0.88388 0.7612 0.26967 0.0
C1486 C 0.8527 0.76431 0.21322 0.0
C1487 C 0.84298 0.7572 0.26115 0.0
C1488 C 0.87026 0.7611 0.26832 0.0
C1489 C 0.84751 0.75281 0.31337 0.0
C1490 C 0.88808 0.75672 0.32279 0.0
C1491 C 0.9035 0.76299 0.21329 0.0
N1492 N 0.86079 0.75473 0.31533 0.0
N1493 N 0.89182 0.76438 0.21698 0.0
H1494 H 0.09606 0.25279 0.83613 0.0
H1495 H 0.14508 0.22619 0.69118 0.0
H1496 H 0.08589 0.23345 0.65406 0.0
H1497 H 0.16214 0.2679 0.77096 0.0
H1498 H 0.12118 0.22335 0.69632 0.0
H1499 H 0.1184 0.2526 0.83376 0.0
C1500 C 0.09842 0.24828 0.79614 0.0
C1501 C 0.08922 0.24321 0.74498 0.0
C1502 C 0.13022 0.23307 0.71266 0.0
C1503 C 0.11453 0.24281 0.74258 0.0
C1504 C 0.14376 0.23468 0.70991 0.0
C1505 C 0.15551 0.24732 0.73037 0.0
C1506 C 0.12852 0.24399 0.73797 0.0
C1507 C 0.15334 0.25805 0.75426 0.0
C1508 C 0.11116 0.24825 0.79477 0.0
C1509 C 0.0928 0.23754 0.69417 0.0
N1510 N 0.14007 0.25608 0.75802 0.0
N1511 N 0.10524 0.23746 0.69419 0.0
H1512 H 0.74216 0.83967 0.6266 0.0
H1513 H 0.76223 0.9096 0.82061 0.0
H1514 H 0.76284 0.84895 0.80578 0.0
H1515 H 0.74412 0.9014 0.6361 0.0
H1516 H 0.76464 0.88853 0.8122 0.0
H1517 H 0.74492 0.86331 0.62497 0.0
C1518 C 0.74742 0.84675 0.66532 0.0
C1519 C 0.75216 0.84232 0.71669 0.0
C1520 C 0.76027 0.89142 0.7733 0.0
C1521 C 0.75524 0.86934 0.71548 0.0
C1522 C 0.75889 0.90343 0.7781 0.0
C1523 C 0.75284 0.90715 0.7292 0.0
C1524 C 0.75548 0.88302 0.71936 0.0
C1525 C 0.74875 0.89885 0.67507 0.0
C1526 C 0.74899 0.86025 0.6644 0.0
C1527 C 0.75897 0.85193 0.76543 0.0
N1528 N 0.75002 0.88709 0.67183 0.0
N1529 N 0.76017 0.86495 0.76396 0.0
H1530 H 0.14025 0.91021 0.8157 0.0
H1531 H 0.09159 0.8381 0.63138 0.0
H1532 H 0.15236 0.89923 0.64245 0.0
H1533 H 0.08093 0.84816 0.81036 0.0
H1534 H 0.11237 0.86186 0.62722 0.0
H1535 H 0.11697 0.88897 0.80708 0.0
C1536 C 0.13795 0.90339 0.77553 0.0
C1537 C 0.14828 0.90638 0.73004 0.0
C1538 C 0.10541 0.85891 0.66712 0.0
C1539 C 0.12171 0.88203 0.72003 0.0
C1540 C 0.09354 0.84537 0.66945 0.0
C1541 C 0.08463 0.84114 0.72159 0.0
C1542 C 0.10837 0.86824 0.71734 0.0
C1543 C 0.0876 0.85096 0.76952 0.0
C1544 C 0.12467 0.89126 0.77064 0.0
C1545 C 0.14472 0.89725 0.67878 0.0
N1546 N 0.09929 0.86403 0.76647 0.0
N1547 N 0.13177 0.8854 0.67543 0.0
H1548 H 0.89637 0.41709 0.51182 0.0
H1549 H 0.91561 0.48712 0.70503 0.0
H1550 H 0.91565 0.4262 0.69405 0.0
H1551 H 0.89773 0.47864 0.52005 0.0
H1552 H 0.91304 0.46353 0.7072 0.0
H1553 H 0.89408 0.43823 0.51934 0.0
C1554 C 0.89999 0.42347 0.55368 0.0
C1555 C 0.90633 0.41998 0.60215 0.0
C1556 C 0.90956 0.46677 0.66633 0.0
C1557 C 0.90384 0.44421 0.61096 0.0
C1558 C 0.91101 0.48023 0.66512 0.0
C1559 C 0.90699 0.48486 0.61205 0.0
C1560 C 0.90409 0.45792 0.61402 0.0
C1561 C 0.90105 0.47551 0.56174 0.0
C1562 C 0.8987 0.43554 0.55794 0.0
C1563 C 0.91078 0.42857 0.65544 0.0
N1564 N 0.89988 0.46251 0.56376 0.0
N1565 N 0.90956 0.44036 0.65821 0.0
H1566 H 0.51381 0.4201 0.50514 0.0
H1567 H 0.56628 0.49104 0.68918 0.0
H1568 H 0.50635 0.42881 0.69292 0.0
H1569 H 0.57412 0.4815 0.50349 0.0
H1570 H 0.54522 0.4675 0.69486 0.0
H1571 H 0.53687 0.44175 0.50687 0.0
C1572 C 0.51708 0.42653 0.54691 0.0
C1573 C 0.50815 0.42273 0.59881 0.0
C1574 C 0.55161 0.47052 0.65305 0.0
C1575 C 0.53446 0.44756 0.60107 0.0
C1576 C 0.56363 0.48394 0.64983 0.0
C1577 C 0.57187 0.48824 0.59562 0.0
C1578 C 0.5478 0.46137 0.60158 0.0
C1579 C 0.568 0.47863 0.54606 0.0
C1580 C 0.53025 0.43889 0.5479 0.0
C1581 C 0.51291 0.4314 0.6518 0.0
N1582 N 0.55619 0.46568 0.55007 0.0
N1583 N 0.52572 0.44348 0.65142 0.0
H1584 H 0.57641 0.09836 0.51568 0.0
H1585 H 0.50514 0.07855 0.69712 0.0
H1586 H 0.56622 0.07924 0.69809 0.0
H1587 H 0.51596 0.09934 0.51826 0.0
H1588 H 0.52868 0.08117 0.70341 0.0
H1589 H 0.55559 0.10123 0.52056 0.0
C1590 C 0.56986 0.0949 0.55703 0.0
C1591 C 0.57293 0.08841 0.60629 0.0
C1592 C 0.52598 0.0853 0.66305 0.0
C1593 C 0.54908 0.09158 0.61206 0.0
C1594 C 0.51254 0.08381 0.65946 0.0
C1595 C 0.50857 0.0886 0.60678 0.0
C1596 C 0.53547 0.09152 0.61334 0.0
C1597 C 0.51858 0.09541 0.55953 0.0
C1598 C 0.55798 0.09654 0.5598 0.0
C1599 C 0.56416 0.08419 0.65888 0.0
N1600 N 0.53154 0.09653 0.5636 0.0
N1601 N 0.55255 0.08572 0.66013 0.0
H1602 H 0.75916 0.58395 0.96711 0.0
H1603 H 0.81118 0.56761 0.16721 0.0
H1604 H 0.75044 0.5679 0.15516 0.0
H1605 H 0.82001 0.58393 0.97962 0.0
H1606 H 0.7877 0.56516 0.15964 0.0
H1607 H 0.78027 0.58154 0.96668 0.0
C1608 C 0.76163 0.57979 0.0081 0.0
C1609 C 0.75313 0.57624 0.06145 0.0
C1610 C 0.79472 0.56917 0.11992 0.0
C1611 C 0.77729 0.57354 0.06149 0.0
C1612 C 0.80812 0.57055 0.12422 0.0
C1613 C 0.81758 0.5761 0.07416 0.0
C1614 C 0.79079 0.57342 0.06525 0.0
C1615 C 0.81306 0.57969 0.01946 0.0
C1616 C 0.77368 0.57843 0.00787 0.0
C1617 C 0.75676 0.57085 0.11318 0.0
N1618 N 0.80003 0.5784 0.01664 0.0
N1619 N 0.76864 0.56978 0.1121 0.0
H1620 H 0.40916 0.17418 0.96837 0.0
H1621 H 0.42909 0.24388 0.16364 0.0
H1622 H 0.43058 0.18375 0.14584 0.0
H1623 H 0.41109 0.23595 0.97895 0.0
H1624 H 0.43165 0.22292 0.15434 0.0
H1625 H 0.41173 0.19776 0.96726 0.0
C1626 C 0.41455 0.18132 0.00679 0.0
C1627 C 0.41955 0.17699 0.05756 0.0
C1628 C 0.42727 0.22584 0.11558 0.0
C1629 C 0.42241 0.20391 0.05697 0.0
C1630 C 0.4258 0.2378 0.12091 0.0
C1631 C 0.41975 0.24156 0.07222 0.0
C1632 C 0.42255 0.21754 0.06135 0.0
C1633 C 0.41573 0.23336 0.01776 0.0
C1634 C 0.41601 0.19477 0.00617 0.0
C1635 C 0.42651 0.18665 0.10596 0.0
N1636 N 0.41708 0.22166 0.01403 0.0
N1637 N 0.42759 0.19962 0.1048 0.0
H1638 H 0.75957 0.17078 0.97304 0.0
H1639 H 0.81136 0.24268 0.15256 0.0
H1640 H 0.75104 0.18137 0.15534 0.0
H1641 H 0.82045 0.23204 0.97147 0.0
H1642 H 0.78804 0.22138 0.1494 0.0
H1643 H 0.78074 0.19423 0.96662 0.0
C1644 C 0.7621 0.17809 0.01147 0.0
C1645 C 0.75363 0.17411 0.06502 0.0
C1646 C 0.79508 0.22375 0.11009 0.0
C1647 C 0.77781 0.20088 0.05817 0.0
C1648 C 0.80838 0.23592 0.11187 0.0
C1649 C 0.81787 0.23905 0.06243 0.0
C1650 C 0.79125 0.21461 0.05862 0.0
C1651 C 0.81347 0.22997 0.01073 0.0
C1652 C 0.77418 0.19146 0.00782 0.0
C1653 C 0.75734 0.18399 0.11337 0.0
N1654 N 0.80051 0.21808 0.01039 0.0
N1655 N 0.76921 0.19689 0.10897 0.0
H1656 H 0.56712 0.75276 0.82989 0.0
H1657 H 0.58302 0.82128 0.02777 0.0
H1658 H 0.58246 0.75998 0.01921 0.0
H1659 H 0.56745 0.81387 0.83882 0.0
H1660 H 0.58077 0.79781 0.02904 0.0
H1661 H 0.5651 0.77407 0.83556 0.0
C1662 C 0.56996 0.75879 0.87281 0.0
C1663 C 0.57507 0.75468 0.924 0.0
C1664 C 0.57773 0.80126 0.98746 0.0
C1665 C 0.57285 0.77909 0.93079 0.0
C1666 C 0.579 0.81465 0.98676 0.0
C1667 C 0.57552 0.81954 0.93294 0.0
C1668 C 0.573 0.79275 0.93385 0.0
C1669 C 0.57032 0.81052 0.88117 0.0
C1670 C 0.56881 0.77095 0.87604 0.0
C1671 C 0.57854 0.76282 0.97855 0.0
N1672 N 0.56932 0.7976 0.88274 0.0
N1673 N 0.57747 0.7747 0.98037 0.0
H1674 H 0.17374 0.76007 0.01924 0.0
H1675 H 0.24273 0.81337 0.82614 0.0
H1676 H 0.18144 0.75291 0.82932 0.0
H1677 H 0.23363 0.82212 0.01099 0.0
H1678 H 0.22172 0.78985 0.83131 0.0
H1679 H 0.19702 0.7815 0.02181 0.0
C1680 C 0.18039 0.76295 0.97826 0.0
C1681 C 0.17564 0.75479 0.9238 0.0
C1682 C 0.22437 0.79687 0.87094 0.0
C1683 C 0.20221 0.77928 0.9263 0.0
C1684 C 0.23637 0.81028 0.86805 0.0
C1685 C 0.23984 0.81972 0.91803 0.0
C1686 C 0.21576 0.79288 0.92416 0.0
C1687 C 0.23127 0.81518 0.97128 0.0
C1688 C 0.19366 0.77519 0.97972 0.0
C1689 C 0.18468 0.75897 0.87212 0.0
N1690 N 0.21956 0.8021 0.97278 0.0
N1691 N 0.1975 0.77098 0.87451 0.0
H1692 H 0.18246 0.43154 0.85301 0.0
H1693 H 0.22771 0.4043 0.03692 0.0
H1694 H 0.16857 0.40754 0.02364 0.0
H1695 H 0.24433 0.43385 0.88404 0.0
H1696 H 0.20651 0.40651 0.03659 0.0
H1697 H 0.20573 0.43373 0.86686 0.0
C1698 C 0.18436 0.42685 0.89369 0.0
C1699 C 0.17356 0.41924 0.93696 0.0
C1700 C 0.21485 0.41264 0.00352 0.0
C1701 C 0.20007 0.42159 0.95289 0.0
C1702 C 0.22694 0.41136 0.00368 0.0
C1703 C 0.23771 0.41881 0.96009 0.0
C1704 C 0.21345 0.42131 0.95899 0.0
C1705 C 0.23623 0.42787 0.91825 0.0
C1706 C 0.19764 0.42811 0.90163 0.0
C1707 C 0.17659 0.41343 0.98898 0.0
N1708 N 0.22423 0.42875 0.91827 0.0
N1709 N 0.18952 0.4146 0.99516 0.0
H1710 H 0.4168 0.90032 0.47936 0.0
H1711 H 0.4879 0.9181 0.2993 0.0
H1712 H 0.42749 0.91911 0.29637 0.0
H1713 H 0.4781 0.90112 0.48567 0.0
H1714 H 0.46448 0.91581 0.29225 0.0
H1715 H 0.43785 0.89782 0.47742 0.0
C1716 C 0.42352 0.9038 0.43853 0.0
C1717 C 0.42049 0.91005 0.38817 0.0
C1718 C 0.46739 0.91247 0.3345 0.0
C1719 C 0.44461 0.90729 0.38573 0.0
C1720 C 0.48075 0.91375 0.33851 0.0
C1721 C 0.48497 0.90991 0.39337 0.0
C1722 C 0.45822 0.90734 0.38582 0.0
C1723 C 0.4753 0.90429 0.44266 0.0
C1724 C 0.43554 0.90238 0.43746 0.0
C1725 C 0.4295 0.91432 0.33635 0.0
N1726 N 0.4624 0.90328 0.4379 0.0
N1727 N 0.44122 0.91296 0.33666 0.0
H1728 H 0.09267 0.57671 0.48845 0.0
H1729 H 0.07538 0.50758 0.29267 0.0
H1730 H 0.07517 0.5684 0.30277 0.0
H1731 H 0.09214 0.51558 0.47967 0.0
H1732 H 0.07779 0.5311 0.29085 0.0
H1733 H 0.0951 0.55566 0.48154 0.0
C1734 C 0.08945 0.57051 0.44601 0.0
C1735 C 0.08359 0.5742 0.39631 0.0
C1736 C 0.08106 0.52776 0.33209 0.0
C1737 C 0.08626 0.55008 0.38817 0.0
C1738 C 0.0797 0.51435 0.33312 0.0
C1739 C 0.08345 0.5096 0.38662 0.0
C1740 C 0.08615 0.53645 0.38506 0.0
C1741 C 0.08904 0.5188 0.43762 0.0
C1742 C 0.09083 0.55849 0.44209 0.0
C1743 C 0.07966 0.56586 0.34231 0.0
N1744 N 0.09011 0.53176 0.43578 0.0
N1745 N 0.08096 0.55411 0.33986 0.0
H1746 H 0.48526 0.56622 0.30843 0.0
H1747 H 0.41187 0.51703 0.48248 0.0
H1748 H 0.47391 0.5769 0.48433 0.0
H1749 H 0.42728 0.50283 0.3296 0.0
H1750 H 0.43268 0.54064 0.473 0.0
H1751 H 0.46217 0.54456 0.30497 0.0
C1752 C 0.47785 0.56407 0.34601 0.0
C1753 C 0.48152 0.57327 0.39705 0.0
C1754 C 0.43145 0.53238 0.44124 0.0
C1755 C 0.45515 0.54856 0.39344 0.0
C1756 C 0.41957 0.51893 0.44652 0.0
C1757 C 0.41795 0.50796 0.40713 0.0
C1758 C 0.44174 0.53487 0.39611 0.0
C1759 C 0.4282 0.51098 0.36121 0.0
C1760 C 0.46469 0.5517 0.34408 0.0
C1761 C 0.47152 0.57002 0.44437 0.0
N1762 N 0.43972 0.52415 0.35718 0.0
N1763 N 0.4588 0.55787 0.4416 0.0
loop_
_geom_bond_atom_site_label_1
_geom_bond_atom_site_label_2
_geom_bond_distance
_geom_bond_site_symmetry_2
_ccdc_geom_bond_type
In0 O1 2.294 . S
In0 O2 2.326 . S
In0 O6 2.266 . S
In0 O7 2.326 . S
In0 O8 2.266 . S
In0 O9 2.326 . S
In0 O11 2.294 . S
In0 O12 2.326 . S
O1 In0 2.294 . S
O1 C10 1.240 . S
O2 In0 2.326 . S
O2 C10 1.252 . S
C3 O6 1.252 . S
C3 O7 1.260 . S
C4 O11 1.240 . S
C4 O12 1.252 . S
C5 O8 1.252 . S
C5 O9 1.260 . S
O6 In0 2.266 . S
O6 C3 1.252 . S
O7 In0 2.326 . S
O7 C3 1.260 . S
O8 In0 2.266 . S
O8 C5 1.252 . S
O9 In0 2.326 . S
O9 C5 1.260 . S
C10 O1 1.240 . S
C10 O2 1.252 . S
O11 In0 2.294 . S
O11 C4 1.240 . S
O12 In0 2.326 . S
O12 C4 1.252 . S
In13 O14 2.294 . S
In13 O15 2.326 . S
In13 O19 2.266 . S
In13 O20 2.326 . S
In13 O21 2.266 . S
In13 O22 2.326 . S
In13 O24 2.294 . S
In13 O25 2.326 . S
O14 In13 2.294 . S
O14 C23 1.240 . S
O15 In13 2.326 . S
O15 C23 1.252 . S
C16 O19 1.252 . S
C16 O20 1.260 . S
C17 O24 1.240 . S
C17 O25 1.252 . S
C18 O21 1.252 . S
C18 O22 1.260 . S
O19 In13 2.266 . S
O19 C16 1.252 . S
O20 In13 2.326 . S
O20 C16 1.260 . S
O21 In13 2.266 . S
O21 C18 1.252 . S
O22 In13 2.326 . S
O22 C18 1.260 . S
C23 O14 1.240 . S
C23 O15 1.252 . S
O24 In13 2.294 . S
O24 C17 1.240 . S
O25 In13 2.326 . S
O25 C17 1.252 . S
In26 O27 2.294 . S
In26 O28 2.326 . S
In26 O32 2.266 . S
In26 O33 2.326 . S
In26 O34 2.266 . S
In26 O35 2.326 . S
In26 O37 2.294 . S
In26 O38 2.326 . S
O27 In26 2.294 . S
O27 C36 1.240 . S
O28 In26 2.326 . S
O28 C36 1.252 . S
C29 O32 1.252 . S
C29 O33 1.260 . S
C30 O37 1.240 . S
C30 O38 1.252 . S
C31 O34 1.252 . S
C31 O35 1.260 . S
O32 In26 2.266 . S
O32 C29 1.252 . S
O33 In26 2.326 . S
O33 C29 1.260 . S
O34 In26 2.266 . S
O34 C31 1.252 . S
O35 In26 2.326 . S
O35 C31 1.260 . S
C36 O27 1.240 . S
C36 O28 1.252 . S
O37 In26 2.294 . S
O37 C30 1.240 . S
O38 In26 2.326 . S
O38 C30 1.252 . S
In39 O40 2.294 . S
In39 O41 2.326 . S
In39 O45 2.266 . S
In39 O46 2.326 . S
In39 O47 2.266 . S
In39 O48 2.326 . S
In39 O50 2.294 . S
In39 O51 2.326 . S
O40 In39 2.294 . S
O40 C49 1.240 . S
O41 In39 2.326 . S
O41 C49 1.252 . S
C42 O45 1.252 . S
C42 O46 1.260 . S
C43 O50 1.240 . S
C43 O51 1.252 . S
C44 O47 1.252 . S
C44 O48 1.260 . S
O45 In39 2.266 . S
O45 C42 1.252 . S
O46 In39 2.326 . S
O46 C42 1.260 . S
O47 In39 2.266 . S
O47 C44 1.252 . S
O48 In39 2.326 . S
O48 C44 1.260 . S
C49 O40 1.240 . S
C49 O41 1.252 . S
O50 In39 2.294 . S
O50 C43 1.240 . S
O51 In39 2.326 . S
O51 C43 1.252 . S
In52 O53 2.294 . S
In52 O54 2.326 . S
In52 O58 2.266 . S
In52 O59 2.326 . S
In52 O60 2.266 . S
In52 O61 2.326 . S
In52 O63 2.294 . S
In52 O64 2.326 . S
O53 In52 2.294 . S
O53 C62 1.240 . S
O54 In52 2.326 . S
O54 C62 1.252 . S
C55 O58 1.252 . S
C55 O59 1.260 . S
C56 O63 1.240 . S
C56 O64 1.252 . S
C57 O60 1.252 . S
C57 O61 1.260 . S
O58 In52 2.266 . S
O58 C55 1.252 . S
O59 In52 2.326 . S
O59 C55 1.260 . S
O60 In52 2.266 . S
O60 C57 1.252 . S
O61 In52 2.326 . S
O61 C57 1.260 . S
C62 O53 1.240 . S
C62 O54 1.252 . S
O63 In52 2.294 . S
O63 C56 1.240 . S
O64 In52 2.326 . S
O64 C56 1.252 . S
In65 O66 2.294 . S
In65 O67 2.326 . S
In65 O71 2.266 . S
In65 O72 2.326 . S
In65 O73 2.266 . S
In65 O74 2.326 . S
In65 O76 2.294 . S
In65 O77 2.326 . S
O66 In65 2.294 . S
O66 C75 1.240 . S
O67 In65 2.326 . S
O67 C75 1.252 . S
C68 O71 1.252 . S
C68 O72 1.260 . S
C69 O76 1.240 . S
C69 O77 1.252 . S
C70 O73 1.252 . S
C70 O74 1.260 . S
O71 In65 2.266 . S
O71 C68 1.252 . S
O72 In65 2.326 . S
O72 C68 1.260 . S
O73 In65 2.266 . S
O73 C70 1.252 . S
O74 In65 2.326 . S
O74 C70 1.260 . S
C75 O66 1.240 . S
C75 O67 1.252 . S
O76 In65 2.294 . S
O76 C69 1.240 . S
O77 In65 2.326 . S
O77 C69 1.252 . S
In78 O79 2.294 . S
In78 O80 2.326 . S
In78 O84 2.266 . S
In78 O85 2.326 . S
In78 O86 2.266 . S
In78 O87 2.326 . S
In78 O89 2.294 . S
In78 O90 2.326 . S
O79 In78 2.294 . S
O79 C88 1.240 . S
O80 In78 2.326 . S
O80 C88 1.252 . S
C81 O84 1.252 . S
C81 O85 1.260 . S
C82 O89 1.240 . S
C82 O90 1.252 . S
C83 O86 1.252 . S
C83 O87 1.260 . S
O84 In78 2.266 . S
O84 C81 1.252 . S
O85 In78 2.326 . S
O85 C81 1.260 . S
O86 In78 2.266 . S
O86 C83 1.252 . S
O87 In78 2.326 . S
O87 C83 1.260 . S
C88 O79 1.240 . S
C88 O80 1.252 . S
O89 In78 2.294 . S
O89 C82 1.240 . S
O90 In78 2.326 . S
O90 C82 1.252 . S
In91 O92 2.294 . S
In91 O93 2.326 . S
In91 O97 2.266 . S
In91 O98 2.326 . S
In91 O99 2.266 . S
In91 O100 2.326 . S
In91 O102 2.294 . S
In91 O103 2.326 . S
O92 In91 2.294 . S
O92 C101 1.240 . S
O93 In91 2.326 . S
O93 C101 1.252 . S
C94 O97 1.252 . S
C94 O98 1.260 . S
C95 O102 1.240 . S
C95 O103 1.252 . S
C96 O99 1.252 . S
C96 O100 1.260 . S
O97 In91 2.266 . S
O97 C94 1.252 . S
O98 In91 2.326 . S
O98 C94 1.260 . S
O99 In91 2.266 . S
O99 C96 1.252 . S
O100 In91 2.326 . S
O100 C96 1.260 . S
C101 O92 1.240 . S
C101 O93 1.252 . S
O102 In91 2.294 . S
O102 C95 1.240 . S
O103 In91 2.326 . S
O103 C95 1.252 . S
In104 O105 2.294 . S
In104 O106 2.326 . S
In104 O110 2.266 . S
In104 O111 2.326 . S
In104 O112 2.266 . S
In104 O113 2.326 . S
In104 O115 2.294 . S
In104 O116 2.326 . S
O105 In104 2.294 . S
O105 C114 1.240 . S
O106 In104 2.326 . S
O106 C114 1.252 . S
C107 O110 1.252 . S
C107 O111 1.260 . S
C108 O115 1.240 . S
C108 O116 1.252 . S
C109 O112 1.252 . S
C109 O113 1.260 . S
O110 In104 2.266 . S
O110 C107 1.252 . S
O111 In104 2.326 . S
O111 C107 1.260 . S
O112 In104 2.266 . S
O112 C109 1.252 . S
O113 In104 2.326 . S
O113 C109 1.260 . S
C114 O105 1.240 . S
C114 O106 1.252 . S
O115 In104 2.294 . S
O115 C108 1.240 . S
O116 In104 2.326 . S
O116 C108 1.252 . S
In117 O118 2.294 . S
In117 O119 2.326 . S
In117 O123 2.266 . S
In117 O124 2.326 . S
In117 O125 2.266 . S
In117 O126 2.326 . S
In117 O128 2.294 . S
In117 O129 2.326 . S
O118 In117 2.294 . S
O118 C127 1.240 . S
O119 In117 2.326 . S
O119 C127 1.252 . S
C120 O123 1.252 . S
C120 O124 1.260 . S
C121 O128 1.240 . S
C121 O129 1.252 . S
C122 O125 1.252 . S
C122 O126 1.260 . S
O123 In117 2.266 . S
O123 C120 1.252 . S
O124 In117 2.326 . S
O124 C120 1.260 . S
O125 In117 2.266 . S
O125 C122 1.252 . S
O126 In117 2.326 . S
O126 C122 1.260 . S
C127 O118 1.240 . S
C127 O119 1.252 . S
O128 In117 2.294 . S
O128 C121 1.240 . S
O129 In117 2.326 . S
O129 C121 1.252 . S
In130 O131 2.294 . S
In130 O132 2.326 . S
In130 O136 2.266 . S
In130 O137 2.326 . S
In130 O138 2.266 . S
In130 O139 2.326 . S
In130 O141 2.294 . S
In130 O142 2.326 . S
O131 In130 2.294 . S
O131 C140 1.240 . S
O132 In130 2.326 . S
O132 C140 1.252 . S
C133 O136 1.252 . S
C133 O137 1.260 . S
C134 O141 1.240 . S
C134 O142 1.252 . S
C135 O138 1.252 . S
C135 O139 1.260 . S
O136 In130 2.266 . S
O136 C133 1.252 . S
O137 In130 2.326 . S
O137 C133 1.260 . S
O138 In130 2.266 . S
O138 C135 1.252 . S
O139 In130 2.326 . S
O139 C135 1.260 . S
C140 O131 1.240 . S
C140 O132 1.252 . S
O141 In130 2.294 . S
O141 C134 1.240 . S
O142 In130 2.326 . S
O142 C134 1.252 . S
In143 O144 2.294 . S
In143 O145 2.326 . S
In143 O149 2.266 . S
In143 O150 2.326 . S
In143 O151 2.266 . S
In143 O152 2.326 . S
In143 O154 2.294 . S
In143 O155 2.326 . S
O144 In143 2.294 . S
O144 C153 1.240 . S
O145 In143 2.326 . S
O145 C153 1.252 . S
C146 O149 1.252 . S
C146 O150 1.260 . S
C147 O154 1.240 . S
C147 O155 1.252 . S
C148 O151 1.252 . S
C148 O152 1.260 . S
O149 In143 2.266 . S
O149 C146 1.252 . S
O150 In143 2.326 . S
O150 C146 1.260 . S
O151 In143 2.266 . S
O151 C148 1.252 . S
O152 In143 2.326 . S
O152 C148 1.260 . S
C153 O144 1.240 . S
C153 O145 1.252 . S
O154 In143 2.294 . S
O154 C147 1.240 . S
O155 In143 2.326 . S
O155 C147 1.252 . S
In156 O157 2.294 . S
In156 O158 2.326 . S
In156 O162 2.266 . S
In156 O163 2.326 . S
In156 O164 2.266 . S
In156 O165 2.326 . S
In156 O167 2.294 . S
In156 O168 2.326 . S
O157 In156 2.294 . S
O157 C166 1.240 . S
O158 In156 2.326 . S
O158 C166 1.252 . S
C159 O162 1.252 . S
C159 O163 1.260 . S
C160 O167 1.240 . S
C160 O168 1.252 . S
C161 O164 1.252 . S
C161 O165 1.260 . S
O162 In156 2.266 . S
O162 C159 1.252 . S
O163 In156 2.326 . S
O163 C159 1.260 . S
O164 In156 2.266 . S
O164 C161 1.252 . S
O165 In156 2.326 . S
O165 C161 1.260 . S
C166 O157 1.240 . S
C166 O158 1.252 . S
O167 In156 2.294 . S
O167 C160 1.240 . S
O168 In156 2.326 . S
O168 C160 1.252 . S
In169 O170 2.294 . S
In169 O171 2.326 . S
In169 O175 2.266 . S
In169 O176 2.326 . S
In169 O177 2.266 . S
In169 O178 2.326 . S
In169 O180 2.294 . S
In169 O181 2.326 . S
O170 In169 2.294 . S
O170 C179 1.240 . S
O171 In169 2.326 . S
O171 C179 1.252 . S
C172 O175 1.252 . S
C172 O176 1.260 . S
C173 O180 1.240 . S
C173 O181 1.252 . S
C174 O177 1.252 . S
C174 O178 1.260 . S
O175 In169 2.266 . S
O175 C172 1.252 . S
O176 In169 2.326 . S
O176 C172 1.260 . S
O177 In169 2.266 . S
O177 C174 1.252 . S
O178 In169 2.326 . S
O178 C174 1.260 . S
C179 O170 1.240 . S
C179 O171 1.252 . S
O180 In169 2.294 . S
O180 C173 1.240 . S
O181 In169 2.326 . S
O181 C173 1.252 . S
In182 O183 2.294 . S
In182 O184 2.326 . S
In182 O188 2.266 . S
In182 O189 2.326 . S
In182 O190 2.266 . S
In182 O191 2.326 . S
In182 O193 2.294 . S
In182 O194 2.326 . S
O183 In182 2.294 . S
O183 C192 1.240 . S
O184 In182 2.326 . S
O184 C192 1.252 . S
C185 O188 1.252 . S
C185 O189 1.260 . S
C186 O193 1.240 . S
C186 O194 1.252 . S
C187 O190 1.252 . S
C187 O191 1.260 . S
O188 In182 2.266 . S
O188 C185 1.252 . S
O189 In182 2.326 . S
O189 C185 1.260 . S
O190 In182 2.266 . S
O190 C187 1.252 . S
O191 In182 2.326 . S
O191 C187 1.260 . S
C192 O183 1.240 . S
C192 O184 1.252 . S
O193 In182 2.294 . S
O193 C186 1.240 . S
O194 In182 2.326 . S
O194 C186 1.252 . S
In195 O196 2.294 . S
In195 O197 2.326 . S
In195 O201 2.266 . S
In195 O202 2.326 . S
In195 O203 2.266 . S
In195 O204 2.326 . S
In195 O206 2.295 1_554 S
In195 O207 2.326 . S
O196 In195 2.294 . S
O196 C205 1.240 . S
O197 In195 2.326 . S
O197 C205 1.252 . S
C198 O201 1.252 . S
C198 O202 1.260 . S
C199 O206 1.240 . S
C199 O207 1.252 1_556 S
C200 O203 1.252 . S
C200 O204 1.260 . S
O201 In195 2.266 . S
O201 C198 1.252 . S
O202 In195 2.326 . S
O202 C198 1.260 . S
O203 In195 2.266 . S
O203 C200 1.252 . S
O204 In195 2.326 . S
O204 C200 1.260 . S
C205 O196 1.240 . S
C205 O197 1.252 . S
O206 In195 2.295 1_556 S
O206 C199 1.240 . S
O207 In195 2.326 . S
O207 C199 1.252 1_554 S
In208 O209 2.293 . S
In208 O210 2.326 . S
In208 O214 2.266 . S
In208 O215 2.326 . S
In208 O216 2.266 . S
In208 O217 2.326 . S
In208 O219 2.294 . S
In208 O220 2.326 . S
O209 In208 2.293 . S
O209 C218 1.240 1_554 S
O210 In208 2.326 . S
O210 C218 1.252 1_554 S
C211 O214 1.252 . S
C211 O215 1.260 . S
C212 O219 1.240 . S
C212 O220 1.252 . S
C213 O216 1.252 . S
C213 O217 1.260 . S
O214 In208 2.266 . S
O214 C211 1.252 . S
O215 In208 2.326 . S
O215 C211 1.260 . S
O216 In208 2.266 . S
O216 C213 1.252 . S
O217 In208 2.326 . S
O217 C213 1.260 . S
C218 O209 1.240 1_556 S
C218 O210 1.252 1_556 S
O219 In208 2.294 . S
O219 C212 1.240 . S
O220 In208 2.326 . S
O220 C212 1.252 . S
In221 O222 2.294 . S
In221 O223 2.326 . S
In221 O227 2.266 . S
In221 O228 2.326 . S
In221 O229 2.266 . S
In221 O230 2.326 . S
In221 O232 2.293 . S
In221 O233 2.326 . S
O222 In221 2.294 . S
O222 C231 1.240 . S
O223 In221 2.326 . S
O223 C231 1.252 . S
C224 O227 1.252 . S
C224 O228 1.260 . S
C225 O232 1.240 1_556 S
C225 O233 1.252 1_556 S
C226 O229 1.252 . S
C226 O230 1.260 . S
O227 In221 2.266 . S
O227 C224 1.252 . S
O228 In221 2.326 . S
O228 C224 1.260 . S
O229 In221 2.266 . S
O229 C226 1.252 . S
O230 In221 2.326 . S
O230 C226 1.260 . S
C231 O222 1.240 . S
C231 O223 1.252 . S
O232 In221 2.293 . S
O232 C225 1.240 1_554 S
O233 In221 2.326 . S
O233 C225 1.252 1_554 S
In234 O235 2.295 1_554 S
In234 O236 2.326 . S
In234 O240 2.266 . S
In234 O241 2.326 . S
In234 O242 2.266 . S
In234 O243 2.326 . S
In234 O245 2.294 . S
In234 O246 2.326 . S
O235 In234 2.295 1_556 S
O235 C244 1.240 . S
O236 In234 2.326 . S
O236 C244 1.252 1_554 S
C237 O240 1.252 . S
C237 O241 1.260 . S
C238 O245 1.240 . S
C238 O246 1.252 . S
C239 O242 1.252 . S
C239 O243 1.260 . S
O240 In234 2.266 . S
O240 C237 1.252 . S
O241 In234 2.326 . S
O241 C237 1.260 . S
O242 In234 2.266 . S
O242 C239 1.252 . S
O243 In234 2.326 . S
O243 C239 1.260 . S
C244 O235 1.240 . S
C244 O236 1.252 1_556 S
O245 In234 2.294 . S
O245 C238 1.240 . S
O246 In234 2.326 . S
O246 C238 1.252 . S
In247 O248 2.293 . S
In247 O249 2.326 . S
In247 O253 2.266 . S
In247 O254 2.326 . S
In247 O255 2.266 . S
In247 O256 2.326 . S
In247 O258 2.294 . S
In247 O259 2.326 . S
O248 In247 2.293 . S
O248 C257 1.240 1_554 S
O249 In247 2.326 . S
O249 C257 1.252 1_554 S
C250 O253 1.252 . S
C250 O254 1.260 . S
C251 O258 1.240 . S
C251 O259 1.252 . S
C252 O255 1.252 . S
C252 O256 1.260 . S
O253 In247 2.266 . S
O253 C250 1.252 . S
O254 In247 2.326 . S
O254 C250 1.260 . S
O255 In247 2.266 . S
O255 C252 1.252 . S
O256 In247 2.326 . S
O256 C252 1.260 . S
C257 O248 1.240 1_556 S
C257 O249 1.252 1_556 S
O258 In247 2.294 . S
O258 C251 1.240 . S
O259 In247 2.326 . S
O259 C251 1.252 . S
In260 O261 2.294 . S
In260 O262 2.326 . S
In260 O266 2.266 . S
In260 O267 2.326 . S
In260 O268 2.266 . S
In260 O269 2.326 . S
In260 O271 2.293 . S
In260 O272 2.326 . S
O261 In260 2.294 . S
O261 C270 1.240 . S
O262 In260 2.326 . S
O262 C270 1.252 . S
C263 O266 1.252 . S
C263 O267 1.260 . S
C264 O271 1.240 1_556 S
C264 O272 1.252 1_556 S
C265 O268 1.252 . S
C265 O269 1.260 . S
O266 In260 2.266 . S
O266 C263 1.252 . S
O267 In260 2.326 . S
O267 C263 1.260 . S
O268 In260 2.266 . S
O268 C265 1.252 . S
O269 In260 2.326 . S
O269 C265 1.260 . S
C270 O261 1.240 . S
C270 O262 1.252 . S
O271 In260 2.293 . S
O271 C264 1.240 1_554 S
O272 In260 2.326 . S
O272 C264 1.252 1_554 S
In273 O274 2.294 . S
In273 O275 2.326 . S
In273 O279 2.266 . S
In273 O280 2.326 . S
In273 O281 2.266 . S
In273 O282 2.326 . S
In273 O284 2.294 . S
In273 O285 2.326 . S
O274 In273 2.294 . S
O274 C283 1.240 . S
O275 In273 2.326 . S
O275 C283 1.252 . S
C276 O279 1.252 . S
C276 O280 1.260 . S
C277 O284 1.240 . S
C277 O285 1.252 . S
C278 O281 1.252 . S
C278 O282 1.260 . S
O279 In273 2.266 . S
O279 C276 1.252 . S
O280 In273 2.326 . S
O280 C276 1.260 . S
O281 In273 2.266 . S
O281 C278 1.252 . S
O282 In273 2.326 . S
O282 C278 1.260 . S
C283 O274 1.240 . S
C283 O275 1.252 . S
O284 In273 2.294 . S
O284 C277 1.240 . S
O285 In273 2.326 . S
O285 C277 1.252 . S
In286 O287 2.294 . S
In286 O288 2.326 . S
In286 O292 2.266 . S
In286 O293 2.326 . S
In286 O294 2.266 . S
In286 O295 2.326 . S
In286 O297 2.294 . S
In286 O298 2.326 . S
O287 In286 2.294 . S
O287 C296 1.240 . S
O288 In286 2.326 . S
O288 C296 1.252 . S
C289 O292 1.252 . S
C289 O293 1.260 . S
C290 O297 1.240 . S
C290 O298 1.252 . S
C291 O294 1.252 . S
C291 O295 1.260 . S
O292 In286 2.266 . S
O292 C289 1.252 . S
O293 In286 2.326 . S
O293 C289 1.260 . S
O294 In286 2.266 . S
O294 C291 1.252 . S
O295 In286 2.326 . S
O295 C291 1.260 . S
C296 O287 1.240 . S
C296 O288 1.252 . S
O297 In286 2.294 . S
O297 C290 1.240 . S
O298 In286 2.326 . S
O298 C290 1.252 . S
In299 O300 2.294 . S
In299 O301 2.326 . S
In299 O305 2.266 . S
In299 O306 2.326 . S
In299 O307 2.266 . S
In299 O308 2.326 . S
In299 O310 2.294 . S
In299 O311 2.326 . S
O300 In299 2.294 . S
O300 C309 1.240 . S
O301 In299 2.326 . S
O301 C309 1.252 . S
C302 O305 1.252 . S
C302 O306 1.260 . S
C303 O310 1.240 . S
C303 O311 1.252 . S
C304 O307 1.252 . S
C304 O308 1.260 . S
O305 In299 2.266 . S
O305 C302 1.252 . S
O306 In299 2.326 . S
O306 C302 1.260 . S
O307 In299 2.266 . S
O307 C304 1.252 . S
O308 In299 2.326 . S
O308 C304 1.260 . S
C309 O300 1.240 . S
C309 O301 1.252 . S
O310 In299 2.294 . S
O310 C303 1.240 . S
O311 In299 2.326 . S
O311 C303 1.252 . S
In312 O313 2.294 . S
In312 O314 2.326 . S
In312 O318 2.266 . S
In312 O319 2.326 . S
In312 O320 2.266 . S
In312 O321 2.326 . S
In312 O323 2.295 1_556 S
In312 O324 2.326 . S
O313 In312 2.294 . S
O313 C322 1.240 . S
O314 In312 2.326 . S
O314 C322 1.252 . S
C315 O318 1.252 . S
C315 O319 1.260 . S
C316 O323 1.240 . S
C316 O324 1.252 1_554 S
C317 O320 1.252 . S
C317 O321 1.260 . S
O318 In312 2.266 . S
O318 C315 1.252 . S
O319 In312 2.326 . S
O319 C315 1.260 . S
O320 In312 2.266 . S
O320 C317 1.252 . S
O321 In312 2.326 . S
O321 C317 1.260 . S
C322 O313 1.240 . S
C322 O314 1.252 . S
O323 In312 2.295 1_554 S
O323 C316 1.240 . S
O324 In312 2.326 . S
O324 C316 1.252 1_556 S
In325 O326 2.293 . S
In325 O327 2.326 . S
In325 O331 2.266 . S
In325 O332 2.326 . S
In325 O333 2.266 . S
In325 O334 2.326 . S
In325 O336 2.294 . S
In325 O337 2.326 . S
O326 In325 2.293 . S
O326 C335 1.240 1_556 S
O327 In325 2.326 . S
O327 C335 1.252 1_556 S
C328 O331 1.252 . S
C328 O332 1.260 . S
C329 O336 1.240 . S
C329 O337 1.252 . S
C330 O333 1.252 . S
C330 O334 1.260 . S
O331 In325 2.266 . S
O331 C328 1.252 . S
O332 In325 2.326 . S
O332 C328 1.260 . S
O333 In325 2.266 . S
O333 C330 1.252 . S
O334 In325 2.326 . S
O334 C330 1.260 . S
C335 O326 1.240 1_554 S
C335 O327 1.252 1_554 S
O336 In325 2.294 . S
O336 C329 1.240 . S
O337 In325 2.326 . S
O337 C329 1.252 . S
In338 O339 2.293 . S
In338 O340 2.326 . S
In338 O344 2.266 . S
In338 O345 2.326 . S
In338 O346 2.266 . S
In338 O347 2.326 . S
In338 O349 2.294 . S
In338 O350 2.326 . S
O339 In338 2.293 . S
O339 C348 1.240 1_556 S
O340 In338 2.326 . S
O340 C348 1.252 1_556 S
C341 O344 1.252 . S
C341 O345 1.260 . S
C342 O349 1.240 . S
C342 O350 1.252 . S
C343 O346 1.252 . S
C343 O347 1.260 . S
O344 In338 2.266 . S
O344 C341 1.252 . S
O345 In338 2.326 . S
O345 C341 1.260 . S
O346 In338 2.266 . S
O346 C343 1.252 . S
O347 In338 2.326 . S
O347 C343 1.260 . S
C348 O339 1.240 1_554 S
C348 O340 1.252 1_554 S
O349 In338 2.294 . S
O349 C342 1.240 . S
O350 In338 2.326 . S
O350 C342 1.252 . S
In351 O352 2.294 . S
In351 O353 2.326 . S
In351 O357 2.266 . S
In351 O358 2.326 . S
In351 O359 2.266 . S
In351 O360 2.326 . S
In351 O362 2.294 . S
In351 O363 2.326 . S
O352 In351 2.294 . S
O352 C361 1.240 . S
O353 In351 2.326 . S
O353 C361 1.252 . S
C354 O357 1.252 . S
C354 O358 1.260 . S
C355 O362 1.240 . S
C355 O363 1.252 . S
C356 O359 1.252 . S
C356 O360 1.260 . S
O357 In351 2.266 . S
O357 C354 1.252 . S
O358 In351 2.326 . S
O358 C354 1.260 . S
O359 In351 2.266 . S
O359 C356 1.252 . S
O360 In351 2.326 . S
O360 C356 1.260 . S
C361 O352 1.240 . S
C361 O353 1.252 . S
O362 In351 2.294 . S
O362 C355 1.240 . S
O363 In351 2.326 . S
O363 C355 1.252 . S
In364 O365 2.294 . S
In364 O366 2.326 . S
In364 O370 2.266 . S
In364 O371 2.326 . S
In364 O372 2.266 . S
In364 O373 2.326 . S
In364 O375 2.294 . S
In364 O376 2.326 . S
O365 In364 2.294 . S
O365 C374 1.240 . S
O366 In364 2.326 . S
O366 C374 1.252 . S
C367 O370 1.252 . S
C367 O371 1.260 . S
C368 O375 1.240 . S
C368 O376 1.252 . S
C369 O372 1.252 . S
C369 O373 1.260 . S
O370 In364 2.266 . S
O370 C367 1.252 . S
O371 In364 2.326 . S
O371 C367 1.260 . S
O372 In364 2.266 . S
O372 C369 1.252 . S
O373 In364 2.326 . S
O373 C369 1.260 . S
C374 O365 1.240 . S
C374 O366 1.252 . S
O375 In364 2.294 . S
O375 C368 1.240 . S
O376 In364 2.326 . S
O376 C368 1.252 . S
In377 O378 2.294 . S
In377 O379 2.326 . S
In377 O383 2.266 . S
In377 O384 2.326 . S
In377 O385 2.266 . S
In377 O386 2.326 . S
In377 O388 2.294 . S
In377 O389 2.326 . S
O378 In377 2.294 . S
O378 C387 1.240 . S
O379 In377 2.326 . S
O379 C387 1.252 . S
C380 O383 1.252 . S
C380 O384 1.260 . S
C381 O388 1.240 . S
C381 O389 1.252 . S
C382 O385 1.252 . S
C382 O386 1.260 . S
O383 In377 2.266 . S
O383 C380 1.252 . S
O384 In377 2.326 . S
O384 C380 1.260 . S
O385 In377 2.266 . S
O385 C382 1.252 . S
O386 In377 2.326 . S
O386 C382 1.260 . S
C387 O378 1.240 . S
C387 O379 1.252 . S
O388 In377 2.294 . S
O388 C381 1.240 . S
O389 In377 2.326 . S
O389 C381 1.252 . S
In390 O391 2.294 . S
In390 O392 2.326 . S
In390 O396 2.266 . S
In390 O397 2.326 . S
In390 O398 2.266 . S
In390 O399 2.326 . S
In390 O401 2.294 . S
In390 O402 2.326 . S
O391 In390 2.294 . S
O391 C400 1.240 . S
O392 In390 2.326 . S
O392 C400 1.252 . S
C393 O396 1.252 . S
C393 O397 1.260 . S
C394 O401 1.240 . S
C394 O402 1.252 . S
C395 O398 1.252 . S
C395 O399 1.260 . S
O396 In390 2.266 . S
O396 C393 1.252 . S
O397 In390 2.326 . S
O397 C393 1.260 . S
O398 In390 2.266 . S
O398 C395 1.252 . S
O399 In390 2.326 . S
O399 C395 1.260 . S
C400 O391 1.240 . S
C400 O392 1.252 . S
O401 In390 2.294 . S
O401 C394 1.240 . S
O402 In390 2.326 . S
O402 C394 1.252 . S
In403 O404 2.294 . S
In403 O405 2.326 . S
In403 O409 2.266 . S
In403 O410 2.326 . S
In403 O411 2.266 . S
In403 O412 2.326 . S
In403 O414 2.294 . S
In403 O415 2.326 . S
O404 In403 2.294 . S
O404 C413 1.240 . S
O405 In403 2.326 . S
O405 C413 1.252 . S
C406 O409 1.252 . S
C406 O410 1.260 . S
C407 O414 1.240 . S
C407 O415 1.252 . S
C408 O411 1.252 . S
C408 O412 1.260 . S
O409 In403 2.266 . S
O409 C406 1.252 . S
O410 In403 2.326 . S
O410 C406 1.260 . S
O411 In403 2.266 . S
O411 C408 1.252 . S
O412 In403 2.326 . S
O412 C408 1.260 . S
C413 O404 1.240 . S
C413 O405 1.252 . S
O414 In403 2.294 . S
O414 C407 1.240 . S
O415 In403 2.326 . S
O415 C407 1.252 . S
In416 O417 2.294 . S
In416 O418 2.326 . S
In416 O422 2.266 . S
In416 O423 2.326 . S
In416 O424 2.266 . S
In416 O425 2.326 . S
In416 O427 2.294 . S
In416 O428 2.326 . S
O417 In416 2.294 . S
O417 C426 1.240 . S
O418 In416 2.326 . S
O418 C426 1.252 . S
C419 O422 1.252 . S
C419 O423 1.260 . S
C420 O427 1.240 . S
C420 O428 1.252 . S
C421 O424 1.252 . S
C421 O425 1.260 . S
O422 In416 2.266 . S
O422 C419 1.252 . S
O423 In416 2.326 . S
O423 C419 1.260 . S
O424 In416 2.266 . S
O424 C421 1.252 . S
O425 In416 2.326 . S
O425 C421 1.260 . S
C426 O417 1.240 . S
C426 O418 1.252 . S
O427 In416 2.294 . S
O427 C420 1.240 . S
O428 In416 2.326 . S
O428 C420 1.252 . S
In429 O430 2.295 1_556 S
In429 O431 2.326 . S
In429 O435 2.266 . S
In429 O436 2.326 . S
In429 O437 2.266 . S
In429 O438 2.326 . S
In429 O440 2.294 . S
In429 O441 2.326 . S
O430 In429 2.295 1_554 S
O430 C439 1.240 . S
O431 In429 2.326 . S
O431 C439 1.252 1_556 S
C432 O435 1.252 . S
C432 O436 1.260 . S
C433 O440 1.240 . S
C433 O441 1.252 . S
C434 O437 1.252 . S
C434 O438 1.260 . S
O435 In429 2.266 . S
O435 C432 1.252 . S
O436 In429 2.326 . S
O436 C432 1.260 . S
O437 In429 2.266 . S
O437 C434 1.252 . S
O438 In429 2.326 . S
O438 C434 1.260 . S
C439 O430 1.240 . S
C439 O431 1.252 1_554 S
O440 In429 2.294 . S
O440 C433 1.240 . S
O441 In429 2.326 . S
O441 C433 1.252 . S
In442 O443 2.294 . S
In442 O444 2.326 . S
In442 O448 2.266 . S
In442 O449 2.326 . S
In442 O450 2.266 . S
In442 O451 2.326 . S
In442 O453 2.293 . S
In442 O454 2.326 . S
O443 In442 2.294 . S
O443 C452 1.240 . S
O444 In442 2.326 . S
O444 C452 1.252 . S
C445 O448 1.252 . S
C445 O449 1.260 . S
C446 O453 1.240 1_554 S
C446 O454 1.252 1_554 S
C447 O450 1.252 . S
C447 O451 1.260 . S
O448 In442 2.266 . S
O448 C445 1.252 . S
O449 In442 2.326 . S
O449 C445 1.260 . S
O450 In442 2.266 . S
O450 C447 1.252 . S
O451 In442 2.326 . S
O451 C447 1.260 . S
C452 O443 1.240 . S
C452 O444 1.252 . S
O453 In442 2.293 . S
O453 C446 1.240 1_556 S
O454 In442 2.326 . S
O454 C446 1.252 1_556 S
In455 O456 2.293 . S
In455 O457 2.326 . S
In455 O461 2.266 . S
In455 O462 2.326 . S
In455 O463 2.266 . S
In455 O464 2.326 . S
In455 O466 2.294 . S
In455 O467 2.326 . S
O456 In455 2.293 . S
O456 C465 1.240 1_556 S
O457 In455 2.326 . S
O457 C465 1.252 1_556 S
C458 O461 1.252 . S
C458 O462 1.260 . S
C459 O466 1.240 . S
C459 O467 1.252 . S
C460 O463 1.252 . S
C460 O464 1.260 . S
O461 In455 2.266 . S
O461 C458 1.252 . S
O462 In455 2.326 . S
O462 C458 1.260 . S
O463 In455 2.266 . S
O463 C460 1.252 . S
O464 In455 2.326 . S
O464 C460 1.260 . S
C465 O456 1.240 1_554 S
C465 O457 1.252 1_554 S
O466 In455 2.294 . S
O466 C459 1.240 . S
O467 In455 2.326 . S
O467 C459 1.252 . S
H468 C474 0.930 . S
H469 C478 0.930 . S
H470 C483 0.929 . S
H471 C481 0.929 . S
H472 C476 0.929 . S
H473 C482 0.929 . S
C474 H468 0.930 . S
C474 C475 1.367 . S
C474 C482 1.378 . S
C475 C474 1.367 . S
C475 C483 1.433 . S
C476 H472 0.929 . S
C476 C478 1.378 . S
C476 C480 1.350 . S
C477 C480 1.463 1_565 S
C477 C482 1.350 . S
C477 N485 1.427 . S
C478 H469 0.930 . S
C478 C476 1.378 . S
C478 C479 1.367 . S
C479 C478 1.367 . S
C479 C481 1.433 . S
C480 C476 1.350 . S
C480 C477 1.463 1_545 S
C480 N484 1.427 . S
C481 H471 0.929 . S
C481 C479 1.433 . S
C481 N484 1.384 . S
C482 H473 0.929 . S
C482 C474 1.378 . S
C482 C477 1.350 . S
C483 H470 0.929 . S
C483 C475 1.433 . S
C483 N485 1.384 . S
N484 C480 1.427 . S
N484 C481 1.384 . S
N485 C477 1.427 . S
N485 C483 1.384 . S
H486 C492 0.930 . S
H487 C496 0.930 . S
H488 C501 0.929 . S
H489 C499 0.929 . S
H490 C494 0.929 . S
H491 C500 0.929 . S
C492 H486 0.930 . S
C492 C493 1.367 . S
C492 C500 1.378 . S
C493 C492 1.367 . S
C493 C501 1.433 . S
C494 H490 0.929 . S
C494 C496 1.378 . S
C494 C498 1.350 . S
C495 C498 1.463 1_455 S
C495 C500 1.350 . S
C495 N503 1.427 . S
C496 H487 0.930 . S
C496 C494 1.378 . S
C496 C497 1.367 . S
C497 C496 1.367 . S
C497 C499 1.433 . S
C498 C494 1.350 . S
C498 C495 1.463 1_655 S
C498 N502 1.427 . S
C499 H489 0.929 . S
C499 C497 1.433 . S
C499 N502 1.384 . S
C500 H491 0.929 . S
C500 C492 1.378 . S
C500 C495 1.350 . S
C501 H488 0.929 . S
C501 C493 1.433 . S
C501 N503 1.384 . S
N502 C498 1.427 . S
N502 C499 1.384 . S
N503 C495 1.427 . S
N503 C501 1.384 . S
H504 C510 0.930 . S
H505 C514 0.930 . S
H506 C519 0.929 . S
H507 C517 0.929 . S
H508 C512 0.929 . S
H509 C518 0.929 . S
C510 H504 0.930 . S
C510 C511 1.367 . S
C510 C518 1.378 . S
C511 C510 1.367 . S
C511 C519 1.433 . S
C512 H508 0.929 . S
C512 C514 1.378 . S
C512 C516 1.350 . S
C513 C516 1.463 . S
C513 C518 1.350 . S
C513 N521 1.427 . S
C514 H505 0.930 . S
C514 C512 1.378 . S
C514 C515 1.367 . S
C515 C514 1.367 . S
C515 C517 1.433 . S
C516 C512 1.350 . S
C516 C513 1.463 . S
C516 N520 1.427 . S
C517 H507 0.929 . S
C517 C515 1.433 . S
C517 N520 1.384 . S
C518 H509 0.929 . S
C518 C510 1.378 . S
C518 C513 1.350 . S
C519 H506 0.929 . S
C519 C511 1.433 . S
C519 N521 1.384 . S
N520 C516 1.427 . S
N520 C517 1.384 . S
N521 C513 1.427 . S
N521 C519 1.384 . S
H522 C528 0.930 . S
H523 C532 0.930 . S
H524 C537 0.929 . S
H525 C535 0.929 . S
H526 C530 0.929 1_565 S
H527 C536 0.929 1_545 S
C528 H522 0.930 . S
C528 C529 1.367 . S
C528 C536 1.378 . S
C529 C528 1.367 . S
C529 C537 1.433 . S
C530 H526 0.929 1_545 S
C530 C532 1.378 . S
C530 C534 1.350 . S
C531 C534 1.463 1_565 S
C531 C536 1.350 . S
C531 N539 1.427 . S
C532 H523 0.930 . S
C532 C530 1.378 . S
C532 C533 1.367 . S
C533 C532 1.367 . S
C533 C535 1.433 . S
C534 C530 1.350 . S
C534 C531 1.463 1_545 S
C534 N538 1.427 . S
C535 H525 0.929 . S
C535 C533 1.433 . S
C535 N538 1.384 . S
C536 H527 0.929 1_565 S
C536 C528 1.378 . S
C536 C531 1.350 . S
C537 H524 0.929 . S
C537 C529 1.433 . S
C537 N539 1.384 . S
N538 C534 1.427 . S
N538 C535 1.384 . S
N539 C531 1.427 . S
N539 C537 1.384 . S
H540 C546 0.930 . S
H541 C550 0.930 . S
H542 C555 0.929 . S
H543 C553 0.929 . S
H544 C548 0.929 1_455 S
H545 C554 0.929 1_655 S
C546 H540 0.930 . S
C546 C547 1.367 . S
C546 C554 1.378 . S
C547 C546 1.367 . S
C547 C555 1.433 . S
C548 H544 0.929 1_655 S
C548 C550 1.378 . S
C548 C552 1.350 . S
C549 C552 1.463 1_455 S
C549 C554 1.350 . S
C549 N557 1.427 . S
C550 H541 0.930 . S
C550 C548 1.378 . S
C550 C551 1.367 . S
C551 C550 1.367 . S
C551 C553 1.433 . S
C552 C548 1.350 . S
C552 C549 1.463 1_655 S
C552 N556 1.427 . S
C553 H543 0.929 . S
C553 C551 1.433 . S
C553 N556 1.384 . S
C554 H545 0.929 1_455 S
C554 C546 1.378 . S
C554 C549 1.350 . S
C555 H542 0.929 . S
C555 C547 1.433 . S
C555 N557 1.384 . S
N556 C552 1.427 . S
N556 C553 1.384 . S
N557 C549 1.427 . S
N557 C555 1.384 . S
H558 C564 0.930 . S
H559 C568 0.930 . S
H560 C573 0.929 . S
H561 C571 0.929 . S
H562 C566 0.929 . S
H563 C572 0.929 . S
C564 H558 0.930 . S
C564 C565 1.367 . S
C564 C572 1.378 . S
C565 C564 1.367 . S
C565 C573 1.433 . S
C566 H562 0.929 . S
C566 C568 1.378 . S
C566 C570 1.350 . S
C567 C570 1.463 . S
C567 C572 1.350 . S
C567 N575 1.427 . S
C568 H559 0.930 . S
C568 C566 1.378 . S
C568 C569 1.367 . S
C569 C568 1.367 . S
C569 C571 1.433 . S
C570 C566 1.350 . S
C570 C567 1.463 . S
C570 N574 1.427 . S
C571 H561 0.929 . S
C571 C569 1.433 . S
C571 N574 1.384 . S
C572 H563 0.929 . S
C572 C564 1.378 . S
C572 C567 1.350 . S
C573 H560 0.929 . S
C573 C565 1.433 . S
C573 N575 1.384 . S
N574 C570 1.427 . S
N574 C571 1.384 . S
N575 C567 1.427 . S
N575 C573 1.384 . S
H576 C582 0.930 . S
H577 C586 0.930 . S
H578 C591 0.929 . S
H579 C589 0.929 . S
H580 C584 0.929 . S
H581 C590 0.929 . S
C582 H576 0.930 . S
C582 C583 1.367 . S
C582 C590 1.378 . S
C583 C582 1.367 . S
C583 C591 1.433 . S
C584 H580 0.929 . S
C584 C586 1.378 . S
C584 C588 1.350 . S
C585 C588 1.463 . S
C585 C590 1.350 . S
C585 N593 1.427 . S
C586 H577 0.930 . S
C586 C584 1.378 . S
C586 C587 1.367 . S
C587 C586 1.367 . S
C587 C589 1.433 . S
C588 C584 1.350 . S
C588 C585 1.463 . S
C588 N592 1.427 . S
C589 H579 0.929 . S
C589 C587 1.433 . S
C589 N592 1.384 . S
C590 H581 0.929 . S
C590 C582 1.378 . S
C590 C585 1.350 . S
C591 H578 0.929 . S
C591 C583 1.433 . S
C591 N593 1.384 . S
N592 C588 1.427 . S
N592 C589 1.384 . S
N593 C585 1.427 . S
N593 C591 1.384 . S
H594 C600 0.930 . S
H595 C604 0.930 . S
H596 C609 0.929 . S
H597 C607 0.929 . S
H598 C602 0.929 . S
H599 C608 0.929 . S
C600 H594 0.930 . S
C600 C601 1.367 . S
C600 C608 1.378 . S
C601 C600 1.367 . S
C601 C609 1.433 . S
C602 H598 0.929 . S
C602 C604 1.378 . S
C602 C606 1.350 . S
C603 C606 1.463 . S
C603 C608 1.350 . S
C603 N611 1.427 . S
C604 H595 0.930 . S
C604 C602 1.378 . S
C604 C605 1.367 . S
C605 C604 1.367 . S
C605 C607 1.433 . S
C606 C602 1.350 . S
C606 C603 1.463 . S
C606 N610 1.427 . S
C607 H597 0.929 . S
C607 C605 1.433 . S
C607 N610 1.384 . S
C608 H599 0.929 . S
C608 C600 1.378 . S
C608 C603 1.350 . S
C609 H596 0.929 . S
C609 C601 1.433 . S
C609 N611 1.384 . S
N610 C606 1.427 . S
N610 C607 1.384 . S
N611 C603 1.427 . S
N611 C609 1.384 . S
H612 C618 0.930 . S
H613 C622 0.930 1_554 S
H614 C627 0.929 . S
H615 C625 0.929 . S
H616 C620 0.929 . S
H617 C626 0.929 . S
C618 H612 0.930 . S
C618 C619 1.367 . S
C618 C626 1.378 . S
C619 C618 1.367 . S
C619 C627 1.433 . S
C620 H616 0.929 . S
C620 C622 1.378 . S
C620 C624 1.350 . S
C621 C624 1.463 . S
C621 C626 1.350 . S
C621 N629 1.427 . S
C622 H613 0.930 1_556 S
C622 C620 1.378 . S
C622 C623 1.367 . S
C623 C622 1.367 . S
C623 C625 1.433 . S
C624 C620 1.350 . S
C624 C621 1.463 . S
C624 N628 1.427 . S
C625 H615 0.929 . S
C625 C623 1.433 . S
C625 N628 1.384 . S
C626 H617 0.929 . S
C626 C618 1.378 . S
C626 C621 1.350 . S
C627 H614 0.929 . S
C627 C619 1.433 . S
C627 N629 1.384 . S
N628 C624 1.427 . S
N628 C625 1.384 . S
N629 C621 1.427 . S
N629 C627 1.384 . S
H630 C636 0.930 . S
H631 C640 0.930 . S
H632 C645 0.929 . S
H633 C643 0.929 1_554 S
H634 C638 0.929 . S
H635 C644 0.929 . S
C636 H630 0.930 . S
C636 C637 1.367 . S
C636 C644 1.378 . S
C637 C636 1.367 . S
C637 C645 1.433 . S
C638 H634 0.929 . S
C638 C640 1.378 . S
C638 C642 1.350 . S
C639 C642 1.463 . S
C639 C644 1.350 . S
C639 N647 1.427 . S
C640 H631 0.930 . S
C640 C638 1.378 . S
C640 C641 1.367 . S
C641 C640 1.367 . S
C641 C643 1.433 . S
C642 C638 1.350 . S
C642 C639 1.463 . S
C642 N646 1.427 . S
C643 H633 0.929 1_556 S
C643 C641 1.433 . S
C643 N646 1.384 . S
C644 H635 0.929 . S
C644 C636 1.378 . S
C644 C639 1.350 . S
C645 H632 0.929 . S
C645 C637 1.433 . S
C645 N647 1.384 . S
N646 C642 1.427 . S
N646 C643 1.384 . S
N647 C639 1.427 . S
N647 C645 1.384 . S
H648 C654 0.930 . S
H649 C658 0.930 . S
H650 C663 0.929 . S
H651 C661 0.929 . S
H652 C656 0.929 . S
H653 C662 0.929 . S
C654 H648 0.930 . S
C654 C655 1.367 . S
C654 C662 1.378 . S
C655 C654 1.367 . S
C655 C663 1.433 . S
C656 H652 0.929 . S
C656 C658 1.378 . S
C656 C660 1.350 . S
C657 C660 1.463 . S
C657 C662 1.350 . S
C657 N665 1.427 . S
C658 H649 0.930 . S
C658 C656 1.378 . S
C658 C659 1.367 . S
C659 C658 1.367 . S
C659 C661 1.433 . S
C660 C656 1.350 . S
C660 C657 1.463 . S
C660 N664 1.427 . S
C661 H651 0.929 . S
C661 C659 1.433 . S
C661 N664 1.384 . S
C662 H653 0.929 . S
C662 C654 1.378 . S
C662 C657 1.350 . S
C663 H650 0.929 . S
C663 C655 1.433 . S
C663 N665 1.384 . S
N664 C660 1.427 . S
N664 C661 1.384 . S
N665 C657 1.427 . S
N665 C663 1.384 . S
H666 C672 0.930 . S
H667 C676 0.930 . S
H668 C681 0.929 . S
H669 C679 0.929 . S
H670 C674 0.929 . S
H671 C680 0.929 . S
C672 H666 0.930 . S
C672 C673 1.367 . S
C672 C680 1.378 . S
C673 C672 1.367 . S
C673 C681 1.433 . S
C674 H670 0.929 . S
C674 C676 1.378 . S
C674 C678 1.350 . S
C675 C678 1.463 . S
C675 C680 1.350 . S
C675 N683 1.427 . S
C676 H667 0.930 . S
C676 C674 1.378 . S
C676 C677 1.367 . S
C677 C676 1.367 . S
C677 C679 1.433 . S
C678 C674 1.350 . S
C678 C675 1.463 . S
C678 N682 1.427 . S
C679 H669 0.929 . S
C679 C677 1.433 . S
C679 N682 1.384 . S
C680 H671 0.929 . S
C680 C672 1.378 . S
C680 C675 1.350 . S
C681 H668 0.929 . S
C681 C673 1.433 . S
C681 N683 1.384 . S
N682 C678 1.427 . S
N682 C679 1.384 . S
N683 C675 1.427 . S
N683 C681 1.384 . S
H684 C690 0.930 . S
H685 C694 0.930 . S
H686 C699 0.929 . S
H687 C697 0.929 . S
H688 C692 0.929 . S
H689 C698 0.929 . S
C690 H684 0.930 . S
C690 C691 1.367 . S
C690 C698 1.378 . S
C691 C690 1.367 . S
C691 C699 1.433 . S
C692 H688 0.929 . S
C692 C694 1.378 . S
C692 C696 1.350 . S
C693 C696 1.463 . S
C693 C698 1.350 . S
C693 N701 1.427 . S
C694 H685 0.930 . S
C694 C692 1.378 . S
C694 C695 1.367 . S
C695 C694 1.367 . S
C695 C697 1.433 . S
C696 C692 1.350 . S
C696 C693 1.463 . S
C696 N700 1.427 . S
C697 H687 0.929 . S
C697 C695 1.433 . S
C697 N700 1.384 . S
C698 H689 0.929 . S
C698 C690 1.378 . S
C698 C693 1.350 . S
C699 H686 0.929 . S
C699 C691 1.433 . S
C699 N701 1.384 . S
N700 C696 1.427 . S
N700 C697 1.384 . S
N701 C693 1.427 . S
N701 C699 1.384 . S
H702 C708 0.930 . S
H703 C712 0.930 . S
H704 C717 0.929 . S
H705 C715 0.929 1_556 S
H706 C710 0.929 . S
H707 C716 0.929 . S
C708 H702 0.930 . S
C708 C709 1.367 . S
C708 C716 1.378 . S
C709 C708 1.367 . S
C709 C717 1.433 . S
C710 H706 0.929 . S
C710 C712 1.378 . S
C710 C714 1.350 . S
C711 C714 1.463 . S
C711 C716 1.350 . S
C711 N719 1.427 . S
C712 H703 0.930 . S
C712 C710 1.378 . S
C712 C713 1.367 . S
C713 C712 1.367 . S
C713 C715 1.433 . S
C714 C710 1.350 . S
C714 C711 1.463 . S
C714 N718 1.427 . S
C715 H705 0.929 1_554 S
C715 C713 1.433 . S
C715 N718 1.384 . S
C716 H707 0.929 . S
C716 C708 1.378 . S
C716 C711 1.350 . S
C717 H704 0.929 . S
C717 C709 1.433 . S
C717 N719 1.384 . S
N718 C714 1.427 . S
N718 C715 1.384 . S
N719 C711 1.427 . S
N719 C717 1.384 . S
H720 C726 0.930 . S
H721 C730 0.930 . S
H722 C735 0.929 . S
H723 C733 0.929 . S
H724 C728 0.929 . S
H725 C734 0.929 . S
C726 H720 0.930 . S
C726 C727 1.367 . S
C726 C734 1.378 . S
C727 C726 1.367 . S
C727 C735 1.433 . S
C728 H724 0.929 . S
C728 C730 1.378 . S
C728 C732 1.350 . S
C729 C732 1.463 . S
C729 C734 1.350 . S
C729 N737 1.427 . S
C730 H721 0.930 . S
C730 C728 1.378 . S
C730 C731 1.367 . S
C731 C730 1.367 . S
C731 C733 1.433 . S
C732 C728 1.350 . S
C732 C729 1.463 . S
C732 N736 1.427 . S
C733 H723 0.929 . S
C733 C731 1.433 . S
C733 N736 1.384 . S
C734 H725 0.929 . S
C734 C726 1.378 . S
C734 C729 1.350 . S
C735 H722 0.929 . S
C735 C727 1.433 . S
C735 N737 1.384 . S
N736 C732 1.427 . S
N736 C733 1.384 . S
N737 C729 1.427 . S
N737 C735 1.384 . S
H738 C744 0.930 . S
H739 C748 0.930 . S
H740 C753 0.929 . S
H741 C751 0.929 . S
H742 C746 0.929 . S
H743 C752 0.929 . S
C744 H738 0.930 . S
C744 C745 1.367 . S
C744 C752 1.378 . S
C745 C744 1.367 . S
C745 C753 1.433 . S
C746 H742 0.929 . S
C746 C748 1.378 . S
C746 C750 1.350 . S
C747 C750 1.463 . S
C747 C752 1.350 . S
C747 N755 1.427 . S
C748 H739 0.930 . S
C748 C746 1.378 . S
C748 C749 1.367 . S
C749 C748 1.367 . S
C749 C751 1.433 . S
C750 C746 1.350 . S
C750 C747 1.463 . S
C750 N754 1.427 . S
C751 H741 0.929 . S
C751 C749 1.433 . S
C751 N754 1.384 . S
C752 H743 0.929 . S
C752 C744 1.378 . S
C752 C747 1.350 . S
C753 H740 0.929 . S
C753 C745 1.433 . S
C753 N755 1.384 . S
N754 C750 1.427 . S
N754 C751 1.384 . S
N755 C747 1.427 . S
N755 C753 1.384 . S
H756 C762 0.930 . S
H757 C766 0.930 . S
H758 C771 0.929 . S
H759 C769 0.929 . S
H760 C764 0.929 . S
H761 C770 0.929 . S
C762 H756 0.930 . S
C762 C763 1.367 . S
C762 C770 1.378 . S
C763 C762 1.367 . S
C763 C771 1.433 . S
C764 H760 0.929 . S
C764 C766 1.378 . S
C764 C768 1.350 . S
C765 C768 1.463 . S
C765 C770 1.350 . S
C765 N773 1.427 . S
C766 H757 0.930 . S
C766 C764 1.378 . S
C766 C767 1.367 . S
C767 C766 1.367 . S
C767 C769 1.433 . S
C768 C764 1.350 . S
C768 C765 1.463 . S
C768 N772 1.427 . S
C769 H759 0.929 . S
C769 C767 1.433 . S
C769 N772 1.384 . S
C770 H761 0.929 . S
C770 C762 1.378 . S
C770 C765 1.350 . S
C771 H758 0.929 . S
C771 C763 1.433 . S
C771 N773 1.384 . S
N772 C768 1.427 . S
N772 C769 1.384 . S
N773 C765 1.427 . S
N773 C771 1.384 . S
H774 C780 0.930 . S
H775 C784 0.930 . S
H776 C789 0.929 . S
H777 C787 0.929 . S
H778 C782 0.929 . S
H779 C788 0.929 . S
C780 H774 0.930 . S
C780 C781 1.367 . S
C780 C788 1.378 . S
C781 C780 1.367 . S
C781 C789 1.433 . S
C782 H778 0.929 . S
C782 C784 1.378 . S
C782 C786 1.350 . S
C783 C786 1.463 . S
C783 C788 1.350 . S
C783 N791 1.427 . S
C784 H775 0.930 . S
C784 C782 1.378 . S
C784 C785 1.367 . S
C785 C784 1.367 . S
C785 C787 1.433 . S
C786 C782 1.350 . S
C786 C783 1.463 . S
C786 N790 1.427 . S
C787 H777 0.929 . S
C787 C785 1.433 . S
C787 N790 1.384 . S
C788 H779 0.929 . S
C788 C780 1.378 . S
C788 C783 1.350 . S
C789 H776 0.929 . S
C789 C781 1.433 . S
C789 N791 1.384 . S
N790 C786 1.427 . S
N790 C787 1.384 . S
N791 C783 1.427 . S
N791 C789 1.384 . S
H792 C798 0.930 . S
H793 C802 0.930 . S
H794 C807 0.929 . S
H795 C805 0.929 . S
H796 C800 0.929 1_556 S
H797 C806 0.929 1_554 S
C798 H792 0.930 . S
C798 C799 1.367 . S
C798 C806 1.378 . S
C799 C798 1.367 . S
C799 C807 1.433 . S
C800 H796 0.929 1_554 S
C800 C802 1.378 . S
C800 C804 1.350 . S
C801 C804 1.463 1_566 S
C801 C806 1.350 . S
C801 N809 1.427 . S
C802 H793 0.930 . S
C802 C800 1.378 . S
C802 C803 1.367 . S
C803 C802 1.367 . S
C803 C805 1.433 . S
C804 C800 1.350 . S
C804 C801 1.463 1_544 S
C804 N808 1.427 . S
C805 H795 0.929 . S
C805 C803 1.433 . S
C805 N808 1.384 . S
C806 H797 0.929 1_556 S
C806 C798 1.378 . S
C806 C801 1.350 . S
C807 H794 0.929 . S
C807 C799 1.433 . S
C807 N809 1.384 . S
N808 C804 1.427 . S
N808 C805 1.384 . S
N809 C801 1.427 . S
N809 C807 1.384 . S
H810 C816 0.930 . S
H811 C820 0.930 . S
H812 C825 0.929 . S
H813 C823 0.929 . S
H814 C818 0.929 . S
H815 C824 0.929 . S
C816 H810 0.930 . S
C816 C817 1.367 . S
C816 C824 1.378 . S
C817 C816 1.367 . S
C817 C825 1.433 . S
C818 H814 0.929 . S
C818 C820 1.378 . S
C818 C822 1.350 . S
C819 C822 1.463 1_654 S
C819 C824 1.350 . S
C819 N827 1.427 . S
C820 H811 0.930 . S
C820 C818 1.378 . S
C820 C821 1.367 . S
C821 C820 1.367 . S
C821 C823 1.433 . S
C822 C818 1.350 . S
C822 C819 1.463 1_456 S
C822 N826 1.427 . S
C823 H813 0.929 . S
C823 C821 1.433 . S
C823 N826 1.384 . S
C824 H815 0.929 . S
C824 C816 1.378 . S
C824 C819 1.350 . S
C825 H812 0.929 . S
C825 C817 1.433 . S
C825 N827 1.384 . S
N826 C822 1.427 . S
N826 C823 1.384 . S
N827 C819 1.427 . S
N827 C825 1.384 . S
H828 C834 0.930 . S
H829 C838 0.930 . S
H830 C843 0.929 . S
H831 C841 0.929 . S
H832 C836 0.929 . S
H833 C842 0.929 . S
C834 H828 0.930 . S
C834 C835 1.367 . S
C834 C842 1.378 . S
C835 C834 1.367 . S
C835 C843 1.433 . S
C836 H832 0.929 . S
C836 C838 1.378 . S
C836 C840 1.350 . S
C837 C840 1.463 1_556 S
C837 C842 1.350 . S
C837 N845 1.427 . S
C838 H829 0.930 . S
C838 C836 1.378 . S
C838 C839 1.367 . S
C839 C838 1.367 . S
C839 C841 1.433 . S
C840 C836 1.350 . S
C840 C837 1.463 1_554 S
C840 N844 1.427 . S
C841 H831 0.929 . S
C841 C839 1.433 . S
C841 N844 1.384 . S
C842 H833 0.929 . S
C842 C834 1.378 . S
C842 C837 1.350 . S
C843 H830 0.929 . S
C843 C835 1.433 . S
C843 N845 1.384 . S
N844 C840 1.427 . S
N844 C841 1.384 . S
N845 C837 1.427 . S
N845 C843 1.384 . S
H846 C852 0.930 . S
H847 C856 0.930 . S
H848 C861 0.929 . S
H849 C859 0.929 . S
H850 C854 0.929 1_565 S
H851 C860 0.929 1_545 S
C852 H846 0.930 . S
C852 C853 1.367 . S
C852 C860 1.378 . S
C853 C852 1.367 . S
C853 C861 1.433 . S
C854 H850 0.929 1_545 S
C854 C856 1.378 . S
C854 C858 1.350 . S
C855 C858 1.463 1_566 S
C855 C860 1.350 . S
C855 N863 1.427 . S
C856 H847 0.930 . S
C856 C854 1.378 . S
C856 C857 1.367 . S
C857 C856 1.367 . S
C857 C859 1.433 . S
C858 C854 1.350 . S
C858 C855 1.463 1_544 S
C858 N862 1.427 . S
C859 H849 0.929 . S
C859 C857 1.433 . S
C859 N862 1.384 . S
C860 H851 0.929 1_565 S
C860 C852 1.378 . S
C860 C855 1.350 . S
C861 H848 0.929 . S
C861 C853 1.433 . S
C861 N863 1.384 . S
N862 C858 1.427 . S
N862 C859 1.384 . S
N863 C855 1.427 . S
N863 C861 1.384 . S
H864 C870 0.930 . S
H865 C874 0.930 . S
H866 C879 0.929 . S
H867 C877 0.929 . S
H868 C872 0.929 1_556 S
H869 C878 0.929 1_554 S
C870 H864 0.930 . S
C870 C871 1.367 . S
C870 C878 1.378 . S
C871 C870 1.367 . S
C871 C879 1.433 . S
C872 H868 0.929 1_554 S
C872 C874 1.378 . S
C872 C876 1.350 . S
C873 C876 1.463 1_456 S
C873 C878 1.350 . S
C873 N881 1.427 . S
C874 H865 0.930 . S
C874 C872 1.378 . S
C874 C875 1.367 . S
C875 C874 1.367 . S
C875 C877 1.433 . S
C876 C872 1.350 . S
C876 C873 1.463 1_654 S
C876 N880 1.427 . S
C877 H867 0.929 . S
C877 C875 1.433 . S
C877 N880 1.384 . S
C878 H869 0.929 1_556 S
C878 C870 1.378 . S
C878 C873 1.350 . S
C879 H866 0.929 . S
C879 C871 1.433 . S
C879 N881 1.384 . S
N880 C876 1.427 . S
N880 C877 1.384 . S
N881 C873 1.427 . S
N881 C879 1.384 . S
H882 C888 0.930 . S
H883 C892 0.930 . S
H884 C897 0.929 . S
H885 C895 0.929 . S
H886 C890 0.929 . S
H887 C896 0.929 . S
C888 H882 0.930 . S
C888 C889 1.367 . S
C888 C896 1.378 . S
C889 C888 1.367 . S
C889 C897 1.433 . S
C890 H886 0.929 . S
C890 C892 1.378 . S
C890 C894 1.350 . S
C891 C894 1.463 1_554 S
C891 C896 1.350 . S
C891 N899 1.427 . S
C892 H883 0.930 . S
C892 C890 1.378 . S
C892 C893 1.367 . S
C893 C892 1.367 . S
C893 C895 1.433 . S
C894 C890 1.350 . S
C894 C891 1.463 1_556 S
C894 N898 1.427 . S
C895 H885 0.929 . S
C895 C893 1.433 . S
C895 N898 1.384 . S
C896 H887 0.929 . S
C896 C888 1.378 . S
C896 C891 1.350 . S
C897 H884 0.929 . S
C897 C889 1.433 . S
C897 N899 1.384 . S
N898 C894 1.427 . S
N898 C895 1.384 . S
N899 C891 1.427 . S
N899 C897 1.384 . S
H900 C906 0.930 . S
H901 C910 0.930 . S
H902 C915 0.929 . S
H903 C913 0.929 . S
H904 C908 0.929 . S
H905 C914 0.929 . S
C906 H900 0.930 . S
C906 C907 1.367 . S
C906 C914 1.378 . S
C907 C906 1.367 . S
C907 C915 1.433 . S
C908 H904 0.929 . S
C908 C910 1.378 . S
C908 C912 1.350 . S
C909 C912 1.463 . S
C909 C914 1.350 . S
C909 N917 1.427 . S
C910 H901 0.930 . S
C910 C908 1.378 . S
C910 C911 1.367 . S
C911 C910 1.367 . S
C911 C913 1.433 . S
C912 C908 1.350 . S
C912 C909 1.463 . S
C912 N916 1.427 . S
C913 H903 0.929 . S
C913 C911 1.433 . S
C913 N916 1.384 . S
C914 H905 0.929 . S
C914 C906 1.378 . S
C914 C909 1.350 . S
C915 H902 0.929 . S
C915 C907 1.433 . S
C915 N917 1.384 . S
N916 C912 1.427 . S
N916 C913 1.384 . S
N917 C909 1.427 . S
N917 C915 1.384 . S
H918 C924 0.930 . S
H919 C928 0.930 . S
H920 C933 0.929 . S
H921 C931 0.929 . S
H922 C926 0.929 . S
H923 C932 0.929 . S
C924 H918 0.930 . S
C924 C925 1.367 . S
C924 C932 1.378 . S
C925 C924 1.367 . S
C925 C933 1.433 . S
C926 H922 0.929 . S
C926 C928 1.378 . S
C926 C930 1.350 . S
C927 C930 1.463 . S
C927 C932 1.350 . S
C927 N935 1.427 . S
C928 H919 0.930 . S
C928 C926 1.378 . S
C928 C929 1.367 . S
C929 C928 1.367 . S
C929 C931 1.433 . S
C930 C926 1.350 . S
C930 C927 1.463 . S
C930 N934 1.427 . S
C931 H921 0.929 . S
C931 C929 1.433 . S
C931 N934 1.384 . S
C932 H923 0.929 . S
C932 C924 1.378 . S
C932 C927 1.350 . S
C933 H920 0.929 . S
C933 C925 1.433 . S
C933 N935 1.384 . S
N934 C930 1.427 . S
N934 C931 1.384 . S
N935 C927 1.427 . S
N935 C933 1.384 . S
H936 C942 0.930 . S
H937 C946 0.930 . S
H938 C951 0.929 . S
H939 C949 0.929 . S
H940 C944 0.929 . S
H941 C950 0.929 . S
C942 H936 0.930 . S
C942 C943 1.367 . S
C942 C950 1.378 . S
C943 C942 1.367 . S
C943 C951 1.433 . S
C944 H940 0.929 . S
C944 C946 1.378 . S
C944 C948 1.350 . S
C945 C948 1.463 . S
C945 C950 1.350 . S
C945 N953 1.427 . S
C946 H937 0.930 . S
C946 C944 1.378 . S
C946 C947 1.367 . S
C947 C946 1.367 . S
C947 C949 1.433 . S
C948 C944 1.350 . S
C948 C945 1.463 . S
C948 N952 1.427 . S
C949 H939 0.929 . S
C949 C947 1.433 . S
C949 N952 1.384 . S
C950 H941 0.929 . S
C950 C942 1.378 . S
C950 C945 1.350 . S
C951 H938 0.929 . S
C951 C943 1.433 . S
C951 N953 1.384 . S
N952 C948 1.427 . S
N952 C949 1.384 . S
N953 C945 1.427 . S
N953 C951 1.384 . S
H954 C960 0.930 . S
H955 C964 0.930 . S
H956 C969 0.929 . S
H957 C967 0.929 . S
H958 C962 0.929 . S
H959 C968 0.929 . S
C960 H954 0.930 . S
C960 C961 1.367 . S
C960 C968 1.378 . S
C961 C960 1.367 . S
C961 C969 1.433 . S
C962 H958 0.929 . S
C962 C964 1.378 . S
C962 C966 1.350 . S
C963 C966 1.463 . S
C963 C968 1.350 . S
C963 N971 1.427 . S
C964 H955 0.930 . S
C964 C962 1.378 . S
C964 C965 1.367 . S
C965 C964 1.367 . S
C965 C967 1.433 . S
C966 C962 1.350 . S
C966 C963 1.463 . S
C966 N970 1.427 . S
C967 H957 0.929 . S
C967 C965 1.433 . S
C967 N970 1.384 . S
C968 H959 0.929 . S
C968 C960 1.378 . S
C968 C963 1.350 . S
C969 H956 0.929 . S
C969 C961 1.433 . S
C969 N971 1.384 . S
N970 C966 1.427 . S
N970 C967 1.384 . S
N971 C963 1.427 . S
N971 C969 1.384 . S
H972 C978 0.930 . S
H973 C982 0.930 . S
H974 C987 0.929 . S
H975 C985 0.929 . S
H976 C980 0.929 . S
H977 C986 0.929 . S
C978 H972 0.930 . S
C978 C979 1.367 . S
C978 C986 1.378 . S
C979 C978 1.367 . S
C979 C987 1.433 . S
C980 H976 0.929 . S
C980 C982 1.378 . S
C980 C984 1.350 . S
C981 C984 1.463 . S
C981 C986 1.350 . S
C981 N989 1.427 . S
C982 H973 0.930 . S
C982 C980 1.378 . S
C982 C983 1.367 . S
C983 C982 1.367 . S
C983 C985 1.433 . S
C984 C980 1.350 . S
C984 C981 1.463 . S
C984 N988 1.427 . S
C985 H975 0.929 . S
C985 C983 1.433 . S
C985 N988 1.384 . S
C986 H977 0.929 . S
C986 C978 1.378 . S
C986 C981 1.350 . S
C987 H974 0.929 . S
C987 C979 1.433 . S
C987 N989 1.384 . S
N988 C984 1.427 . S
N988 C985 1.384 . S
N989 C981 1.427 . S
N989 C987 1.384 . S
H990 C996 0.930 . S
H991 C1000 0.930 . S
H992 C1005 0.929 . S
H993 C1003 0.929 . S
H994 C998 0.929 . S
H995 C1004 0.929 . S
C996 H990 0.930 . S
C996 C997 1.367 . S
C996 C1004 1.378 . S
C997 C996 1.367 . S
C997 C1005 1.433 . S
C998 H994 0.929 . S
C998 C1000 1.378 . S
C998 C1002 1.350 . S
C999 C1002 1.463 . S
C999 C1004 1.350 . S
C999 N1007 1.427 . S
C1000 H991 0.930 . S
C1000 C998 1.378 . S
C1000 C1001 1.367 . S
C1001 C1000 1.367 . S
C1001 C1003 1.433 . S
C1002 C998 1.350 . S
C1002 C999 1.463 . S
C1002 N1006 1.427 . S
C1003 H993 0.929 . S
C1003 C1001 1.433 . S
C1003 N1006 1.384 . S
C1004 H995 0.929 . S
C1004 C996 1.378 . S
C1004 C999 1.350 . S
C1005 H992 0.929 . S
C1005 C997 1.433 . S
C1005 N1007 1.384 . S
N1006 C1002 1.427 . S
N1006 C1003 1.384 . S
N1007 C999 1.427 . S
N1007 C1005 1.384 . S
H1008 C1014 0.930 . S
H1009 C1018 0.930 . S
H1010 C1023 0.929 . S
H1011 C1021 0.929 . S
H1012 C1016 0.929 . S
H1013 C1022 0.929 . S
C1014 H1008 0.930 . S
C1014 C1015 1.367 . S
C1014 C1022 1.378 . S
C1015 C1014 1.367 . S
C1015 C1023 1.433 . S
C1016 H1012 0.929 . S
C1016 C1018 1.378 . S
C1016 C1020 1.350 . S
C1017 C1020 1.463 . S
C1017 C1022 1.350 . S
C1017 N1025 1.427 . S
C1018 H1009 0.930 . S
C1018 C1016 1.378 . S
C1018 C1019 1.367 . S
C1019 C1018 1.367 . S
C1019 C1021 1.433 . S
C1020 C1016 1.350 . S
C1020 C1017 1.463 . S
C1020 N1024 1.427 . S
C1021 H1011 0.929 . S
C1021 C1019 1.433 . S
C1021 N1024 1.384 . S
C1022 H1013 0.929 . S
C1022 C1014 1.378 . S
C1022 C1017 1.350 . S
C1023 H1010 0.929 . S
C1023 C1015 1.433 . S
C1023 N1025 1.384 . S
N1024 C1020 1.427 . S
N1024 C1021 1.384 . S
N1025 C1017 1.427 . S
N1025 C1023 1.384 . S
H1026 C1032 0.930 . S
H1027 C1036 0.930 . S
H1028 C1041 0.929 . S
H1029 C1039 0.929 . S
H1030 C1034 0.929 . S
H1031 C1040 0.929 . S
C1032 H1026 0.930 . S
C1032 C1033 1.367 . S
C1032 C1040 1.378 . S
C1033 C1032 1.367 . S
C1033 C1041 1.433 . S
C1034 H1030 0.929 . S
C1034 C1036 1.378 . S
C1034 C1038 1.350 . S
C1035 C1038 1.463 . S
C1035 C1040 1.350 . S
C1035 N1043 1.427 . S
C1036 H1027 0.930 . S
C1036 C1034 1.378 . S
C1036 C1037 1.367 . S
C1037 C1036 1.367 . S
C1037 C1039 1.433 . S
C1038 C1034 1.350 . S
C1038 C1035 1.463 . S
C1038 N1042 1.427 . S
C1039 H1029 0.929 . S
C1039 C1037 1.433 . S
C1039 N1042 1.384 . S
C1040 H1031 0.929 . S
C1040 C1032 1.378 . S
C1040 C1035 1.350 . S
C1041 H1028 0.929 . S
C1041 C1033 1.433 . S
C1041 N1043 1.384 . S
N1042 C1038 1.427 . S
N1042 C1039 1.384 . S
N1043 C1035 1.427 . S
N1043 C1041 1.384 . S
H1044 C1050 0.930 . S
H1045 C1054 0.930 . S
H1046 C1059 0.929 . S
H1047 C1057 0.929 . S
H1048 C1052 0.929 . S
H1049 C1058 0.929 . S
C1050 H1044 0.930 . S
C1050 C1051 1.367 . S
C1050 C1058 1.378 . S
C1051 C1050 1.367 . S
C1051 C1059 1.433 . S
C1052 H1048 0.929 . S
C1052 C1054 1.378 . S
C1052 C1056 1.350 . S
C1053 C1056 1.463 . S
C1053 C1058 1.350 . S
C1053 N1061 1.427 . S
C1054 H1045 0.930 . S
C1054 C1052 1.378 . S
C1054 C1055 1.367 . S
C1055 C1054 1.367 . S
C1055 C1057 1.433 . S
C1056 C1052 1.350 . S
C1056 C1053 1.463 . S
C1056 N1060 1.427 . S
C1057 H1047 0.929 . S
C1057 C1055 1.433 . S
C1057 N1060 1.384 . S
C1058 H1049 0.929 . S
C1058 C1050 1.378 . S
C1058 C1053 1.350 . S
C1059 H1046 0.929 . S
C1059 C1051 1.433 . S
C1059 N1061 1.384 . S
N1060 C1056 1.427 . S
N1060 C1057 1.384 . S
N1061 C1053 1.427 . S
N1061 C1059 1.384 . S
H1062 C1068 0.930 . S
H1063 C1072 0.930 . S
H1064 C1077 0.929 . S
H1065 C1075 0.929 . S
H1066 C1070 0.929 . S
H1067 C1076 0.929 . S
C1068 H1062 0.930 . S
C1068 C1069 1.367 . S
C1068 C1076 1.378 . S
C1069 C1068 1.367 . S
C1069 C1077 1.433 . S
C1070 H1066 0.929 . S
C1070 C1072 1.378 . S
C1070 C1074 1.350 . S
C1071 C1074 1.463 . S
C1071 C1076 1.350 . S
C1071 N1079 1.427 . S
C1072 H1063 0.930 . S
C1072 C1070 1.378 . S
C1072 C1073 1.367 . S
C1073 C1072 1.367 . S
C1073 C1075 1.433 . S
C1074 C1070 1.350 . S
C1074 C1071 1.463 . S
C1074 N1078 1.427 . S
C1075 H1065 0.929 . S
C1075 C1073 1.433 . S
C1075 N1078 1.384 . S
C1076 H1067 0.929 . S
C1076 C1068 1.378 . S
C1076 C1071 1.350 . S
C1077 H1064 0.929 . S
C1077 C1069 1.433 . S
C1077 N1079 1.384 . S
N1078 C1074 1.427 . S
N1078 C1075 1.384 . S
N1079 C1071 1.427 . S
N1079 C1077 1.384 . S
H1080 C1086 0.930 . S
H1081 C1090 0.930 . S
H1082 C1095 0.929 . S
H1083 C1093 0.929 . S
H1084 C1088 0.929 . S
H1085 C1094 0.929 . S
C1086 H1080 0.930 . S
C1086 C1087 1.367 . S
C1086 C1094 1.378 . S
C1087 C1086 1.367 . S
C1087 C1095 1.433 . S
C1088 H1084 0.929 . S
C1088 C1090 1.378 . S
C1088 C1092 1.350 . S
C1089 C1092 1.463 . S
C1089 C1094 1.350 . S
C1089 N1097 1.427 . S
C1090 H1081 0.930 . S
C1090 C1088 1.378 . S
C1090 C1091 1.367 . S
C1091 C1090 1.367 . S
C1091 C1093 1.433 . S
C1092 C1088 1.350 . S
C1092 C1089 1.463 . S
C1092 N1096 1.427 . S
C1093 H1083 0.929 . S
C1093 C1091 1.433 . S
C1093 N1096 1.384 . S
C1094 H1085 0.929 . S
C1094 C1086 1.378 . S
C1094 C1089 1.350 . S
C1095 H1082 0.929 . S
C1095 C1087 1.433 . S
C1095 N1097 1.384 . S
N1096 C1092 1.427 . S
N1096 C1093 1.384 . S
N1097 C1089 1.427 . S
N1097 C1095 1.384 . S
H1098 C1104 0.930 . S
H1099 C1108 0.930 . S
H1100 C1113 0.929 . S
H1101 C1111 0.929 . S
H1102 C1106 0.929 . S
H1103 C1112 0.929 . S
C1104 H1098 0.930 . S
C1104 C1105 1.367 . S
C1104 C1112 1.378 . S
C1105 C1104 1.367 . S
C1105 C1113 1.433 . S
C1106 H1102 0.929 . S
C1106 C1108 1.378 . S
C1106 C1110 1.350 . S
C1107 C1110 1.463 . S
C1107 C1112 1.350 . S
C1107 N1115 1.427 . S
C1108 H1099 0.930 . S
C1108 C1106 1.378 . S
C1108 C1109 1.367 . S
C1109 C1108 1.367 . S
C1109 C1111 1.433 . S
C1110 C1106 1.350 . S
C1110 C1107 1.463 . S
C1110 N1114 1.427 . S
C1111 H1101 0.929 . S
C1111 C1109 1.433 . S
C1111 N1114 1.384 . S
C1112 H1103 0.929 . S
C1112 C1104 1.378 . S
C1112 C1107 1.350 . S
C1113 H1100 0.929 . S
C1113 C1105 1.433 . S
C1113 N1115 1.384 . S
N1114 C1110 1.427 . S
N1114 C1111 1.384 . S
N1115 C1107 1.427 . S
N1115 C1113 1.384 . S
H1116 C1122 0.930 . S
H1117 C1126 0.930 . S
H1118 C1131 0.929 . S
H1119 C1129 0.929 . S
H1120 C1124 0.929 . S
H1121 C1130 0.929 . S
C1122 H1116 0.930 . S
C1122 C1123 1.367 . S
C1122 C1130 1.378 . S
C1123 C1122 1.367 . S
C1123 C1131 1.433 . S
C1124 H1120 0.929 . S
C1124 C1126 1.378 . S
C1124 C1128 1.350 . S
C1125 C1128 1.463 . S
C1125 C1130 1.350 . S
C1125 N1133 1.427 . S
C1126 H1117 0.930 . S
C1126 C1124 1.378 . S
C1126 C1127 1.367 . S
C1127 C1126 1.367 . S
C1127 C1129 1.433 . S
C1128 C1124 1.350 . S
C1128 C1125 1.463 . S
C1128 N1132 1.427 . S
C1129 H1119 0.929 . S
C1129 C1127 1.433 . S
C1129 N1132 1.384 . S
C1130 H1121 0.929 . S
C1130 C1122 1.378 . S
C1130 C1125 1.350 . S
C1131 H1118 0.929 . S
C1131 C1123 1.433 . S
C1131 N1133 1.384 . S
N1132 C1128 1.427 . S
N1132 C1129 1.384 . S
N1133 C1125 1.427 . S
N1133 C1131 1.384 . S
H1134 C1140 0.930 . S
H1135 C1144 0.930 . S
H1136 C1149 0.929 . S
H1137 C1147 0.929 . S
H1138 C1142 0.929 . S
H1139 C1148 0.929 . S
C1140 H1134 0.930 . S
C1140 C1141 1.367 . S
C1140 C1148 1.378 . S
C1141 C1140 1.367 . S
C1141 C1149 1.433 . S
C1142 H1138 0.929 . S
C1142 C1144 1.378 . S
C1142 C1146 1.350 . S
C1143 C1146 1.463 . S
C1143 C1148 1.350 . S
C1143 N1151 1.427 . S
C1144 H1135 0.930 . S
C1144 C1142 1.378 . S
C1144 C1145 1.367 . S
C1145 C1144 1.367 . S
C1145 C1147 1.433 . S
C1146 C1142 1.350 . S
C1146 C1143 1.463 . S
C1146 N1150 1.427 . S
C1147 H1137 0.929 . S
C1147 C1145 1.433 . S
C1147 N1150 1.384 . S
C1148 H1139 0.929 . S
C1148 C1140 1.378 . S
C1148 C1143 1.350 . S
C1149 H1136 0.929 . S
C1149 C1141 1.433 . S
C1149 N1151 1.384 . S
N1150 C1146 1.427 . S
N1150 C1147 1.384 . S
N1151 C1143 1.427 . S
N1151 C1149 1.384 . S
H1152 C1158 0.930 . S
H1153 C1162 0.930 . S
H1154 C1167 0.929 . S
H1155 C1165 0.929 . S
H1156 C1160 0.929 . S
H1157 C1166 0.929 . S
C1158 H1152 0.930 . S
C1158 C1159 1.367 . S
C1158 C1166 1.378 . S
C1159 C1158 1.367 . S
C1159 C1167 1.433 . S
C1160 H1156 0.929 . S
C1160 C1162 1.378 . S
C1160 C1164 1.350 . S
C1161 C1164 1.463 . S
C1161 C1166 1.350 . S
C1161 N1169 1.427 . S
C1162 H1153 0.930 . S
C1162 C1160 1.378 . S
C1162 C1163 1.367 . S
C1163 C1162 1.367 . S
C1163 C1165 1.433 . S
C1164 C1160 1.350 . S
C1164 C1161 1.463 . S
C1164 N1168 1.427 . S
C1165 H1155 0.929 . S
C1165 C1163 1.433 . S
C1165 N1168 1.384 . S
C1166 H1157 0.929 . S
C1166 C1158 1.378 . S
C1166 C1161 1.350 . S
C1167 H1154 0.929 . S
C1167 C1159 1.433 . S
C1167 N1169 1.384 . S
N1168 C1164 1.427 . S
N1168 C1165 1.384 . S
N1169 C1161 1.427 . S
N1169 C1167 1.384 . S
H1170 C1176 0.930 . S
H1171 C1180 0.930 . S
H1172 C1185 0.929 . S
H1173 C1183 0.929 . S
H1174 C1178 0.929 . S
H1175 C1184 0.929 . S
C1176 H1170 0.930 . S
C1176 C1177 1.367 . S
C1176 C1184 1.378 . S
C1177 C1176 1.367 . S
C1177 C1185 1.433 . S
C1178 H1174 0.929 . S
C1178 C1180 1.378 . S
C1178 C1182 1.350 . S
C1179 C1182 1.463 . S
C1179 C1184 1.350 . S
C1179 N1187 1.427 . S
C1180 H1171 0.930 . S
C1180 C1178 1.378 . S
C1180 C1181 1.367 . S
C1181 C1180 1.367 . S
C1181 C1183 1.433 . S
C1182 C1178 1.350 . S
C1182 C1179 1.463 . S
C1182 N1186 1.427 . S
C1183 H1173 0.929 . S
C1183 C1181 1.433 . S
C1183 N1186 1.384 . S
C1184 H1175 0.929 . S
C1184 C1176 1.378 . S
C1184 C1179 1.350 . S
C1185 H1172 0.929 . S
C1185 C1177 1.433 . S
C1185 N1187 1.384 . S
N1186 C1182 1.427 . S
N1186 C1183 1.384 . S
N1187 C1179 1.427 . S
N1187 C1185 1.384 . S
H1188 C1194 0.930 . S
H1189 C1198 0.930 . S
H1190 C1203 0.929 . S
H1191 C1201 0.929 . S
H1192 C1196 0.929 . S
H1193 C1202 0.929 . S
C1194 H1188 0.930 . S
C1194 C1195 1.367 . S
C1194 C1202 1.378 . S
C1195 C1194 1.367 . S
C1195 C1203 1.433 . S
C1196 H1192 0.929 . S
C1196 C1198 1.378 . S
C1196 C1200 1.350 . S
C1197 C1200 1.463 . S
C1197 C1202 1.350 . S
C1197 N1205 1.427 . S
C1198 H1189 0.930 . S
C1198 C1196 1.378 . S
C1198 C1199 1.367 . S
C1199 C1198 1.367 . S
C1199 C1201 1.433 . S
C1200 C1196 1.350 . S
C1200 C1197 1.463 . S
C1200 N1204 1.427 . S
C1201 H1191 0.929 . S
C1201 C1199 1.433 . S
C1201 N1204 1.384 . S
C1202 H1193 0.929 . S
C1202 C1194 1.378 . S
C1202 C1197 1.350 . S
C1203 H1190 0.929 . S
C1203 C1195 1.433 . S
C1203 N1205 1.384 . S
N1204 C1200 1.427 . S
N1204 C1201 1.384 . S
N1205 C1197 1.427 . S
N1205 C1203 1.384 . S
H1206 C1212 0.930 . S
H1207 C1216 0.930 . S
H1208 C1221 0.929 . S
H1209 C1219 0.929 . S
H1210 C1214 0.929 . S
H1211 C1220 0.929 . S
C1212 H1206 0.930 . S
C1212 C1213 1.367 . S
C1212 C1220 1.378 . S
C1213 C1212 1.367 . S
C1213 C1221 1.433 . S
C1214 H1210 0.929 . S
C1214 C1216 1.378 . S
C1214 C1218 1.350 . S
C1215 C1218 1.463 . S
C1215 C1220 1.350 . S
C1215 N1223 1.427 . S
C1216 H1207 0.930 . S
C1216 C1214 1.378 . S
C1216 C1217 1.367 . S
C1217 C1216 1.367 . S
C1217 C1219 1.433 . S
C1218 C1214 1.350 . S
C1218 C1215 1.463 . S
C1218 N1222 1.427 . S
C1219 H1209 0.929 . S
C1219 C1217 1.433 . S
C1219 N1222 1.384 . S
C1220 H1211 0.929 . S
C1220 C1212 1.378 . S
C1220 C1215 1.350 . S
C1221 H1208 0.929 . S
C1221 C1213 1.433 . S
C1221 N1223 1.384 . S
N1222 C1218 1.427 . S
N1222 C1219 1.384 . S
N1223 C1215 1.427 . S
N1223 C1221 1.384 . S
H1224 C1230 0.930 . S
H1225 C1234 0.930 . S
H1226 C1239 0.929 . S
H1227 C1237 0.929 . S
H1228 C1232 0.929 . S
H1229 C1238 0.929 . S
C1230 H1224 0.930 . S
C1230 C1231 1.367 . S
C1230 C1238 1.378 . S
C1231 C1230 1.367 . S
C1231 C1239 1.433 . S
C1232 H1228 0.929 . S
C1232 C1234 1.378 . S
C1232 C1236 1.350 . S
C1233 C1236 1.463 . S
C1233 C1238 1.350 . S
C1233 N1241 1.427 . S
C1234 H1225 0.930 . S
C1234 C1232 1.378 . S
C1234 C1235 1.367 . S
C1235 C1234 1.367 . S
C1235 C1237 1.433 . S
C1236 C1232 1.350 . S
C1236 C1233 1.463 . S
C1236 N1240 1.427 . S
C1237 H1227 0.929 . S
C1237 C1235 1.433 . S
C1237 N1240 1.384 . S
C1238 H1229 0.929 . S
C1238 C1230 1.378 . S
C1238 C1233 1.350 . S
C1239 H1226 0.929 . S
C1239 C1231 1.433 . S
C1239 N1241 1.384 . S
N1240 C1236 1.427 . S
N1240 C1237 1.384 . S
N1241 C1233 1.427 . S
N1241 C1239 1.384 . S
H1242 C1248 0.930 . S
H1243 C1252 0.930 . S
H1244 C1257 0.929 . S
H1245 C1255 0.929 . S
H1246 C1250 0.929 . S
H1247 C1256 0.929 . S
C1248 H1242 0.930 . S
C1248 C1249 1.367 . S
C1248 C1256 1.378 . S
C1249 C1248 1.367 . S
C1249 C1257 1.433 . S
C1250 H1246 0.929 . S
C1250 C1252 1.378 . S
C1250 C1254 1.350 . S
C1251 C1254 1.463 . S
C1251 C1256 1.350 . S
C1251 N1259 1.427 . S
C1252 H1243 0.930 . S
C1252 C1250 1.378 . S
C1252 C1253 1.367 . S
C1253 C1252 1.367 . S
C1253 C1255 1.433 . S
C1254 C1250 1.350 . S
C1254 C1251 1.463 . S
C1254 N1258 1.427 . S
C1255 H1245 0.929 . S
C1255 C1253 1.433 . S
C1255 N1258 1.384 . S
C1256 H1247 0.929 . S
C1256 C1248 1.378 . S
C1256 C1251 1.350 . S
C1257 H1244 0.929 . S
C1257 C1249 1.433 . S
C1257 N1259 1.384 . S
N1258 C1254 1.427 . S
N1258 C1255 1.384 . S
N1259 C1251 1.427 . S
N1259 C1257 1.384 . S
H1260 C1266 0.930 . S
H1261 C1270 0.930 . S
H1262 C1275 0.929 . S
H1263 C1273 0.929 . S
H1264 C1268 0.929 . S
H1265 C1274 0.929 . S
C1266 H1260 0.930 . S
C1266 C1267 1.367 . S
C1266 C1274 1.378 . S
C1267 C1266 1.367 . S
C1267 C1275 1.433 . S
C1268 H1264 0.929 . S
C1268 C1270 1.378 . S
C1268 C1272 1.350 . S
C1269 C1272 1.463 . S
C1269 C1274 1.350 . S
C1269 N1277 1.427 . S
C1270 H1261 0.930 . S
C1270 C1268 1.378 . S
C1270 C1271 1.367 . S
C1271 C1270 1.367 . S
C1271 C1273 1.433 . S
C1272 C1268 1.350 . S
C1272 C1269 1.463 . S
C1272 N1276 1.427 . S
C1273 H1263 0.929 . S
C1273 C1271 1.433 . S
C1273 N1276 1.384 . S
C1274 H1265 0.929 . S
C1274 C1266 1.378 . S
C1274 C1269 1.350 . S
C1275 H1262 0.929 . S
C1275 C1267 1.433 . S
C1275 N1277 1.384 . S
N1276 C1272 1.427 . S
N1276 C1273 1.384 . S
N1277 C1269 1.427 . S
N1277 C1275 1.384 . S
H1278 C1284 0.930 . S
H1279 C1288 0.930 . S
H1280 C1293 0.929 . S
H1281 C1291 0.929 . S
H1282 C1286 0.929 . S
H1283 C1292 0.929 . S
C1284 H1278 0.930 . S
C1284 C1285 1.367 . S
C1284 C1292 1.378 . S
C1285 C1284 1.367 . S
C1285 C1293 1.433 . S
C1286 H1282 0.929 . S
C1286 C1288 1.378 . S
C1286 C1290 1.350 . S
C1287 C1290 1.463 . S
C1287 C1292 1.350 . S
C1287 N1295 1.427 . S
C1288 H1279 0.930 . S
C1288 C1286 1.378 . S
C1288 C1289 1.367 . S
C1289 C1288 1.367 . S
C1289 C1291 1.433 . S
C1290 C1286 1.350 . S
C1290 C1287 1.463 . S
C1290 N1294 1.427 . S
C1291 H1281 0.929 . S
C1291 C1289 1.433 . S
C1291 N1294 1.384 . S
C1292 H1283 0.929 . S
C1292 C1284 1.378 . S
C1292 C1287 1.350 . S
C1293 H1280 0.929 . S
C1293 C1285 1.433 . S
C1293 N1295 1.384 . S
N1294 C1290 1.427 . S
N1294 C1291 1.384 . S
N1295 C1287 1.427 . S
N1295 C1293 1.384 . S
H1296 C1302 0.930 . S
H1297 C1306 0.930 . S
H1298 C1311 0.929 . S
H1299 C1309 0.929 . S
H1300 C1304 0.929 . S
H1301 C1310 0.929 . S
C1302 H1296 0.930 . S
C1302 C1303 1.367 . S
C1302 C1310 1.378 . S
C1303 C1302 1.367 . S
C1303 C1311 1.433 . S
C1304 H1300 0.929 . S
C1304 C1306 1.378 . S
C1304 C1308 1.350 . S
C1305 C1308 1.463 . S
C1305 C1310 1.350 . S
C1305 N1313 1.427 . S
C1306 H1297 0.930 . S
C1306 C1304 1.378 . S
C1306 C1307 1.367 . S
C1307 C1306 1.367 . S
C1307 C1309 1.433 . S
C1308 C1304 1.350 . S
C1308 C1305 1.463 . S
C1308 N1312 1.427 . S
C1309 H1299 0.929 . S
C1309 C1307 1.433 . S
C1309 N1312 1.384 . S
C1310 H1301 0.929 . S
C1310 C1302 1.378 . S
C1310 C1305 1.350 . S
C1311 H1298 0.929 . S
C1311 C1303 1.433 . S
C1311 N1313 1.384 . S
N1312 C1308 1.427 . S
N1312 C1309 1.384 . S
N1313 C1305 1.427 . S
N1313 C1311 1.384 . S
H1314 C1320 0.930 . S
H1315 C1324 0.930 . S
H1316 C1329 0.929 . S
H1317 C1327 0.929 . S
H1318 C1322 0.929 . S
H1319 C1328 0.929 . S
C1320 H1314 0.930 . S
C1320 C1321 1.367 . S
C1320 C1328 1.378 . S
C1321 C1320 1.367 . S
C1321 C1329 1.433 . S
C1322 H1318 0.929 . S
C1322 C1324 1.378 . S
C1322 C1326 1.350 . S
C1323 C1326 1.463 . S
C1323 C1328 1.350 . S
C1323 N1331 1.427 . S
C1324 H1315 0.930 . S
C1324 C1322 1.378 . S
C1324 C1325 1.367 . S
C1325 C1324 1.367 . S
C1325 C1327 1.433 . S
C1326 C1322 1.350 . S
C1326 C1323 1.463 . S
C1326 N1330 1.427 . S
C1327 H1317 0.929 . S
C1327 C1325 1.433 . S
C1327 N1330 1.384 . S
C1328 H1319 0.929 . S
C1328 C1320 1.378 . S
C1328 C1323 1.350 . S
C1329 H1316 0.929 . S
C1329 C1321 1.433 . S
C1329 N1331 1.384 . S
N1330 C1326 1.427 . S
N1330 C1327 1.384 . S
N1331 C1323 1.427 . S
N1331 C1329 1.384 . S
H1332 C1338 0.930 . S
H1333 C1342 0.930 . S
H1334 C1347 0.929 . S
H1335 C1345 0.929 . S
H1336 C1340 0.929 . S
H1337 C1346 0.929 . S
C1338 H1332 0.930 . S
C1338 C1339 1.367 . S
C1338 C1346 1.378 . S
C1339 C1338 1.367 . S
C1339 C1347 1.433 . S
C1340 H1336 0.929 . S
C1340 C1342 1.378 . S
C1340 C1344 1.350 . S
C1341 C1344 1.463 1_455 S
C1341 C1346 1.350 . S
C1341 N1349 1.427 . S
C1342 H1333 0.930 . S
C1342 C1340 1.378 . S
C1342 C1343 1.367 . S
C1343 C1342 1.367 . S
C1343 C1345 1.433 . S
C1344 C1340 1.350 . S
C1344 C1341 1.463 1_655 S
C1344 N1348 1.427 . S
C1345 H1335 0.929 . S
C1345 C1343 1.433 . S
C1345 N1348 1.384 . S
C1346 H1337 0.929 . S
C1346 C1338 1.378 . S
C1346 C1341 1.350 . S
C1347 H1334 0.929 . S
C1347 C1339 1.433 . S
C1347 N1349 1.384 . S
N1348 C1344 1.427 . S
N1348 C1345 1.384 . S
N1349 C1341 1.427 . S
N1349 C1347 1.384 . S
H1350 C1356 0.930 . S
H1351 C1360 0.930 . S
H1352 C1365 0.929 . S
H1353 C1363 0.929 . S
H1354 C1358 0.929 . S
H1355 C1364 0.929 . S
C1356 H1350 0.930 . S
C1356 C1357 1.367 . S
C1356 C1364 1.378 . S
C1357 C1356 1.367 . S
C1357 C1365 1.433 . S
C1358 H1354 0.929 . S
C1358 C1360 1.378 . S
C1358 C1362 1.350 . S
C1359 C1362 1.463 . S
C1359 C1364 1.350 . S
C1359 N1367 1.427 . S
C1360 H1351 0.930 . S
C1360 C1358 1.378 . S
C1360 C1361 1.367 . S
C1361 C1360 1.367 . S
C1361 C1363 1.433 . S
C1362 C1358 1.350 . S
C1362 C1359 1.463 . S
C1362 N1366 1.427 . S
C1363 H1353 0.929 . S
C1363 C1361 1.433 . S
C1363 N1366 1.384 . S
C1364 H1355 0.929 . S
C1364 C1356 1.378 . S
C1364 C1359 1.350 . S
C1365 H1352 0.929 . S
C1365 C1357 1.433 . S
C1365 N1367 1.384 . S
N1366 C1362 1.427 . S
N1366 C1363 1.384 . S
N1367 C1359 1.427 . S
N1367 C1365 1.384 . S
H1368 C1374 0.930 . S
H1369 C1378 0.930 . S
H1370 C1383 0.929 . S
H1371 C1381 0.929 . S
H1372 C1376 0.929 . S
H1373 C1382 0.929 . S
C1374 H1368 0.930 . S
C1374 C1375 1.367 . S
C1374 C1382 1.378 . S
C1375 C1374 1.367 . S
C1375 C1383 1.433 . S
C1376 H1372 0.929 . S
C1376 C1378 1.378 . S
C1376 C1380 1.350 . S
C1377 C1380 1.463 1_545 S
C1377 C1382 1.350 . S
C1377 N1385 1.427 . S
C1378 H1369 0.930 . S
C1378 C1376 1.378 . S
C1378 C1379 1.367 . S
C1379 C1378 1.367 . S
C1379 C1381 1.433 . S
C1380 C1376 1.350 . S
C1380 C1377 1.463 1_565 S
C1380 N1384 1.427 . S
C1381 H1371 0.929 . S
C1381 C1379 1.433 . S
C1381 N1384 1.384 . S
C1382 H1373 0.929 . S
C1382 C1374 1.378 . S
C1382 C1377 1.350 . S
C1383 H1370 0.929 . S
C1383 C1375 1.433 . S
C1383 N1385 1.384 . S
N1384 C1380 1.427 . S
N1384 C1381 1.384 . S
N1385 C1377 1.427 . S
N1385 C1383 1.384 . S
H1386 C1392 0.930 . S
H1387 C1396 0.930 . S
H1388 C1401 0.929 . S
H1389 C1399 0.929 . S
H1390 C1394 0.929 . S
H1391 C1400 0.929 . S
C1392 H1386 0.930 . S
C1392 C1393 1.367 . S
C1392 C1400 1.378 . S
C1393 C1392 1.367 . S
C1393 C1401 1.433 . S
C1394 H1390 0.929 . S
C1394 C1396 1.378 . S
C1394 C1398 1.350 . S
C1395 C1398 1.463 1_545 S
C1395 C1400 1.350 . S
C1395 N1403 1.427 . S
C1396 H1387 0.930 . S
C1396 C1394 1.378 . S
C1396 C1397 1.367 . S
C1397 C1396 1.367 . S
C1397 C1399 1.433 . S
C1398 C1394 1.350 . S
C1398 C1395 1.463 1_565 S
C1398 N1402 1.427 . S
C1399 H1389 0.929 . S
C1399 C1397 1.433 . S
C1399 N1402 1.384 . S
C1400 H1391 0.929 . S
C1400 C1392 1.378 . S
C1400 C1395 1.350 . S
C1401 H1388 0.929 . S
C1401 C1393 1.433 . S
C1401 N1403 1.384 . S
N1402 C1398 1.427 . S
N1402 C1399 1.384 . S
N1403 C1395 1.427 . S
N1403 C1401 1.384 . S
H1404 C1410 0.930 . S
H1405 C1414 0.930 . S
H1406 C1419 0.929 . S
H1407 C1417 0.929 . S
H1408 C1412 0.929 . S
H1409 C1418 0.929 . S
C1410 H1404 0.930 . S
C1410 C1411 1.367 . S
C1410 C1418 1.378 . S
C1411 C1410 1.367 . S
C1411 C1419 1.433 . S
C1412 H1408 0.929 . S
C1412 C1414 1.378 . S
C1412 C1416 1.350 . S
C1413 C1416 1.463 1_655 S
C1413 C1418 1.350 . S
C1413 N1421 1.427 . S
C1414 H1405 0.930 . S
C1414 C1412 1.378 . S
C1414 C1415 1.367 . S
C1415 C1414 1.367 . S
C1415 C1417 1.433 . S
C1416 C1412 1.350 . S
C1416 C1413 1.463 1_455 S
C1416 N1420 1.427 . S
C1417 H1407 0.929 . S
C1417 C1415 1.433 . S
C1417 N1420 1.384 . S
C1418 H1409 0.929 . S
C1418 C1410 1.378 . S
C1418 C1413 1.350 . S
C1419 H1406 0.929 . S
C1419 C1411 1.433 . S
C1419 N1421 1.384 . S
N1420 C1416 1.427 . S
N1420 C1417 1.384 . S
N1421 C1413 1.427 . S
N1421 C1419 1.384 . S
H1422 C1428 0.930 . S
H1423 C1432 0.930 . S
H1424 C1437 0.929 . S
H1425 C1435 0.929 . S
H1426 C1430 0.929 . S
H1427 C1436 0.929 . S
C1428 H1422 0.930 . S
C1428 C1429 1.367 . S
C1428 C1436 1.378 . S
C1429 C1428 1.367 . S
C1429 C1437 1.433 . S
C1430 H1426 0.929 . S
C1430 C1432 1.378 . S
C1430 C1434 1.350 . S
C1431 C1434 1.463 . S
C1431 C1436 1.350 . S
C1431 N1439 1.427 . S
C1432 H1423 0.930 . S
C1432 C1430 1.378 . S
C1432 C1433 1.367 . S
C1433 C1432 1.367 . S
C1433 C1435 1.433 . S
C1434 C1430 1.350 . S
C1434 C1431 1.463 . S
C1434 N1438 1.427 . S
C1435 H1425 0.929 . S
C1435 C1433 1.433 . S
C1435 N1438 1.384 . S
C1436 H1427 0.929 . S
C1436 C1428 1.378 . S
C1436 C1431 1.350 . S
C1437 H1424 0.929 . S
C1437 C1429 1.433 . S
C1437 N1439 1.384 . S
N1438 C1434 1.427 . S
N1438 C1435 1.384 . S
N1439 C1431 1.427 . S
N1439 C1437 1.384 . S
H1440 C1446 0.930 . S
H1441 C1450 0.930 . S
H1442 C1455 0.929 . S
H1443 C1453 0.929 . S
H1444 C1448 0.929 . S
H1445 C1454 0.929 . S
C1446 H1440 0.930 . S
C1446 C1447 1.367 . S
C1446 C1454 1.378 . S
C1447 C1446 1.367 . S
C1447 C1455 1.433 . S
C1448 H1444 0.929 . S
C1448 C1450 1.378 . S
C1448 C1452 1.350 . S
C1449 C1452 1.463 . S
C1449 C1454 1.350 . S
C1449 N1457 1.427 . S
C1450 H1441 0.930 . S
C1450 C1448 1.378 . S
C1450 C1451 1.367 . S
C1451 C1450 1.367 . S
C1451 C1453 1.433 . S
C1452 C1448 1.350 . S
C1452 C1449 1.463 . S
C1452 N1456 1.427 . S
C1453 H1443 0.929 . S
C1453 C1451 1.433 . S
C1453 N1456 1.384 . S
C1454 H1445 0.929 . S
C1454 C1446 1.378 . S
C1454 C1449 1.350 . S
C1455 H1442 0.929 . S
C1455 C1447 1.433 . S
C1455 N1457 1.384 . S
N1456 C1452 1.427 . S
N1456 C1453 1.384 . S
N1457 C1449 1.427 . S
N1457 C1455 1.384 . S
H1458 C1464 0.930 . S
H1459 C1468 0.930 . S
H1460 C1473 0.929 . S
H1461 C1471 0.929 . S
H1462 C1466 0.929 . S
H1463 C1472 0.929 . S
C1464 H1458 0.930 . S
C1464 C1465 1.367 . S
C1464 C1472 1.378 . S
C1465 C1464 1.367 . S
C1465 C1473 1.433 . S
C1466 H1462 0.929 . S
C1466 C1468 1.378 . S
C1466 C1470 1.350 . S
C1467 C1470 1.463 . S
C1467 C1472 1.350 . S
C1467 N1475 1.427 . S
C1468 H1459 0.930 . S
C1468 C1466 1.378 . S
C1468 C1469 1.367 . S
C1469 C1468 1.367 . S
C1469 C1471 1.433 . S
C1470 C1466 1.350 . S
C1470 C1467 1.463 . S
C1470 N1474 1.427 . S
C1471 H1461 0.929 . S
C1471 C1469 1.433 . S
C1471 N1474 1.384 . S
C1472 H1463 0.929 . S
C1472 C1464 1.378 . S
C1472 C1467 1.350 . S
C1473 H1460 0.929 . S
C1473 C1465 1.433 . S
C1473 N1475 1.384 . S
N1474 C1470 1.427 . S
N1474 C1471 1.384 . S
N1475 C1467 1.427 . S
N1475 C1473 1.384 . S
H1476 C1482 0.930 . S
H1477 C1486 0.930 . S
H1478 C1491 0.929 . S
H1479 C1489 0.929 . S
H1480 C1484 0.929 . S
H1481 C1490 0.929 . S
C1482 H1476 0.930 . S
C1482 C1483 1.367 . S
C1482 C1490 1.378 . S
C1483 C1482 1.367 . S
C1483 C1491 1.433 . S
C1484 H1480 0.929 . S
C1484 C1486 1.378 . S
C1484 C1488 1.350 . S
C1485 C1488 1.463 . S
C1485 C1490 1.350 . S
C1485 N1493 1.427 . S
C1486 H1477 0.930 . S
C1486 C1484 1.378 . S
C1486 C1487 1.367 . S
C1487 C1486 1.367 . S
C1487 C1489 1.433 . S
C1488 C1484 1.350 . S
C1488 C1485 1.463 . S
C1488 N1492 1.427 . S
C1489 H1479 0.929 . S
C1489 C1487 1.433 . S
C1489 N1492 1.384 . S
C1490 H1481 0.929 . S
C1490 C1482 1.378 . S
C1490 C1485 1.350 . S
C1491 H1478 0.929 . S
C1491 C1483 1.433 . S
C1491 N1493 1.384 . S
N1492 C1488 1.427 . S
N1492 C1489 1.384 . S
N1493 C1485 1.427 . S
N1493 C1491 1.384 . S
H1494 C1500 0.930 . S
H1495 C1504 0.930 . S
H1496 C1509 0.929 . S
H1497 C1507 0.929 . S
H1498 C1502 0.929 . S
H1499 C1508 0.929 . S
C1500 H1494 0.930 . S
C1500 C1501 1.367 . S
C1500 C1508 1.378 . S
C1501 C1500 1.367 . S
C1501 C1509 1.433 . S
C1502 H1498 0.929 . S
C1502 C1504 1.378 . S
C1502 C1506 1.350 . S
C1503 C1506 1.463 . S
C1503 C1508 1.350 . S
C1503 N1511 1.427 . S
C1504 H1495 0.930 . S
C1504 C1502 1.378 . S
C1504 C1505 1.367 . S
C1505 C1504 1.367 . S
C1505 C1507 1.433 . S
C1506 C1502 1.350 . S
C1506 C1503 1.463 . S
C1506 N1510 1.427 . S
C1507 H1497 0.929 . S
C1507 C1505 1.433 . S
C1507 N1510 1.384 . S
C1508 H1499 0.929 . S
C1508 C1500 1.378 . S
C1508 C1503 1.350 . S
C1509 H1496 0.929 . S
C1509 C1501 1.433 . S
C1509 N1511 1.384 . S
N1510 C1506 1.427 . S
N1510 C1507 1.384 . S
N1511 C1503 1.427 . S
N1511 C1509 1.384 . S
H1512 C1518 0.930 . S
H1513 C1522 0.930 . S
H1514 C1527 0.929 . S
H1515 C1525 0.929 . S
H1516 C1520 0.929 . S
H1517 C1526 0.929 . S
C1518 H1512 0.930 . S
C1518 C1519 1.367 . S
C1518 C1526 1.378 . S
C1519 C1518 1.367 . S
C1519 C1527 1.433 . S
C1520 H1516 0.929 . S
C1520 C1522 1.378 . S
C1520 C1524 1.350 . S
C1521 C1524 1.463 . S
C1521 C1526 1.350 . S
C1521 N1529 1.427 . S
C1522 H1513 0.930 . S
C1522 C1520 1.378 . S
C1522 C1523 1.367 . S
C1523 C1522 1.367 . S
C1523 C1525 1.433 . S
C1524 C1520 1.350 . S
C1524 C1521 1.463 . S
C1524 N1528 1.427 . S
C1525 H1515 0.929 . S
C1525 C1523 1.433 . S
C1525 N1528 1.384 . S
C1526 H1517 0.929 . S
C1526 C1518 1.378 . S
C1526 C1521 1.350 . S
C1527 H1514 0.929 . S
C1527 C1519 1.433 . S
C1527 N1529 1.384 . S
N1528 C1524 1.427 . S
N1528 C1525 1.384 . S
N1529 C1521 1.427 . S
N1529 C1527 1.384 . S
H1530 C1536 0.930 . S
H1531 C1540 0.930 . S
H1532 C1545 0.929 . S
H1533 C1543 0.929 . S
H1534 C1538 0.929 . S
H1535 C1544 0.929 . S
C1536 H1530 0.930 . S
C1536 C1537 1.367 . S
C1536 C1544 1.378 . S
C1537 C1536 1.367 . S
C1537 C1545 1.433 . S
C1538 H1534 0.929 . S
C1538 C1540 1.378 . S
C1538 C1542 1.350 . S
C1539 C1542 1.463 . S
C1539 C1544 1.350 . S
C1539 N1547 1.427 . S
C1540 H1531 0.930 . S
C1540 C1538 1.378 . S
C1540 C1541 1.367 . S
C1541 C1540 1.367 . S
C1541 C1543 1.433 . S
C1542 C1538 1.350 . S
C1542 C1539 1.463 . S
C1542 N1546 1.427 . S
C1543 H1533 0.929 . S
C1543 C1541 1.433 . S
C1543 N1546 1.384 . S
C1544 H1535 0.929 . S
C1544 C1536 1.378 . S
C1544 C1539 1.350 . S
C1545 H1532 0.929 . S
C1545 C1537 1.433 . S
C1545 N1547 1.384 . S
N1546 C1542 1.427 . S
N1546 C1543 1.384 . S
N1547 C1539 1.427 . S
N1547 C1545 1.384 . S
H1548 C1554 0.930 . S
H1549 C1558 0.930 . S
H1550 C1563 0.929 . S
H1551 C1561 0.929 . S
H1552 C1556 0.929 . S
H1553 C1562 0.929 . S
C1554 H1548 0.930 . S
C1554 C1555 1.367 . S
C1554 C1562 1.378 . S
C1555 C1554 1.367 . S
C1555 C1563 1.433 . S
C1556 H1552 0.929 . S
C1556 C1558 1.378 . S
C1556 C1560 1.350 . S
C1557 C1560 1.463 . S
C1557 C1562 1.350 . S
C1557 N1565 1.427 . S
C1558 H1549 0.930 . S
C1558 C1556 1.378 . S
C1558 C1559 1.367 . S
C1559 C1558 1.367 . S
C1559 C1561 1.433 . S
C1560 C1556 1.350 . S
C1560 C1557 1.463 . S
C1560 N1564 1.427 . S
C1561 H1551 0.929 . S
C1561 C1559 1.433 . S
C1561 N1564 1.384 . S
C1562 H1553 0.929 . S
C1562 C1554 1.378 . S
C1562 C1557 1.350 . S
C1563 H1550 0.929 . S
C1563 C1555 1.433 . S
C1563 N1565 1.384 . S
N1564 C1560 1.427 . S
N1564 C1561 1.384 . S
N1565 C1557 1.427 . S
N1565 C1563 1.384 . S
H1566 C1572 0.930 . S
H1567 C1576 0.930 . S
H1568 C1581 0.929 . S
H1569 C1579 0.929 . S
H1570 C1574 0.929 . S
H1571 C1580 0.929 . S
C1572 H1566 0.930 . S
C1572 C1573 1.367 . S
C1572 C1580 1.378 . S
C1573 C1572 1.367 . S
C1573 C1581 1.433 . S
C1574 H1570 0.929 . S
C1574 C1576 1.378 . S
C1574 C1578 1.350 . S
C1575 C1578 1.463 . S
C1575 C1580 1.350 . S
C1575 N1583 1.427 . S
C1576 H1567 0.930 . S
C1576 C1574 1.378 . S
C1576 C1577 1.367 . S
C1577 C1576 1.367 . S
C1577 C1579 1.433 . S
C1578 C1574 1.350 . S
C1578 C1575 1.463 . S
C1578 N1582 1.427 . S
C1579 H1569 0.929 . S
C1579 C1577 1.433 . S
C1579 N1582 1.384 . S
C1580 H1571 0.929 . S
C1580 C1572 1.378 . S
C1580 C1575 1.350 . S
C1581 H1568 0.929 . S
C1581 C1573 1.433 . S
C1581 N1583 1.384 . S
N1582 C1578 1.427 . S
N1582 C1579 1.384 . S
N1583 C1575 1.427 . S
N1583 C1581 1.384 . S
H1584 C1590 0.930 . S
H1585 C1594 0.930 . S
H1586 C1599 0.929 . S
H1587 C1597 0.929 . S
H1588 C1592 0.929 . S
H1589 C1598 0.929 . S
C1590 H1584 0.930 . S
C1590 C1591 1.367 . S
C1590 C1598 1.378 . S
C1591 C1590 1.367 . S
C1591 C1599 1.433 . S
C1592 H1588 0.929 . S
C1592 C1594 1.378 . S
C1592 C1596 1.350 . S
C1593 C1596 1.463 . S
C1593 C1598 1.350 . S
C1593 N1601 1.427 . S
C1594 H1585 0.930 . S
C1594 C1592 1.378 . S
C1594 C1595 1.367 . S
C1595 C1594 1.367 . S
C1595 C1597 1.433 . S
C1596 C1592 1.350 . S
C1596 C1593 1.463 . S
C1596 N1600 1.427 . S
C1597 H1587 0.929 . S
C1597 C1595 1.433 . S
C1597 N1600 1.384 . S
C1598 H1589 0.929 . S
C1598 C1590 1.378 . S
C1598 C1593 1.350 . S
C1599 H1586 0.929 . S
C1599 C1591 1.433 . S
C1599 N1601 1.384 . S
N1600 C1596 1.427 . S
N1600 C1597 1.384 . S
N1601 C1593 1.427 . S
N1601 C1599 1.384 . S
H1602 C1608 0.930 . S
H1603 C1612 0.930 . S
H1604 C1617 0.929 . S
H1605 C1615 0.929 . S
H1606 C1610 0.929 . S
H1607 C1616 0.929 . S
C1608 H1602 0.930 . S
C1608 C1609 1.367 . S
C1608 C1616 1.378 . S
C1609 C1608 1.367 . S
C1609 C1617 1.433 . S
C1610 H1606 0.929 . S
C1610 C1612 1.378 . S
C1610 C1614 1.350 . S
C1611 C1614 1.463 . S
C1611 C1616 1.350 . S
C1611 N1619 1.427 . S
C1612 H1603 0.930 . S
C1612 C1610 1.378 . S
C1612 C1613 1.367 . S
C1613 C1612 1.367 . S
C1613 C1615 1.433 . S
C1614 C1610 1.350 . S
C1614 C1611 1.463 . S
C1614 N1618 1.427 . S
C1615 H1605 0.929 . S
C1615 C1613 1.433 . S
C1615 N1618 1.384 . S
C1616 H1607 0.929 . S
C1616 C1608 1.378 . S
C1616 C1611 1.350 . S
C1617 H1604 0.929 . S
C1617 C1609 1.433 . S
C1617 N1619 1.384 . S
N1618 C1614 1.427 . S
N1618 C1615 1.384 . S
N1619 C1611 1.427 . S
N1619 C1617 1.384 . S
H1620 C1626 0.930 1_556 S
H1621 C1630 0.930 . S
H1622 C1635 0.929 . S
H1623 C1633 0.929 1_556 S
H1624 C1628 0.929 . S
H1625 C1634 0.929 1_556 S
C1626 H1620 0.930 1_554 S
C1626 C1627 1.367 . S
C1626 C1634 1.378 . S
C1627 C1626 1.367 . S
C1627 C1635 1.433 . S
C1628 H1624 0.929 . S
C1628 C1630 1.378 . S
C1628 C1632 1.350 . S
C1629 C1632 1.463 . S
C1629 C1634 1.350 . S
C1629 N1637 1.427 . S
C1630 H1621 0.930 . S
C1630 C1628 1.378 . S
C1630 C1631 1.367 . S
C1631 C1630 1.367 . S
C1631 C1633 1.433 . S
C1632 C1628 1.350 . S
C1632 C1629 1.463 . S
C1632 N1636 1.427 . S
C1633 H1623 0.929 1_554 S
C1633 C1631 1.433 . S
C1633 N1636 1.384 . S
C1634 H1625 0.929 1_554 S
C1634 C1626 1.378 . S
C1634 C1629 1.350 . S
C1635 H1622 0.929 . S
C1635 C1627 1.433 . S
C1635 N1637 1.384 . S
N1636 C1632 1.427 . S
N1636 C1633 1.384 . S
N1637 C1629 1.427 . S
N1637 C1635 1.384 . S
H1638 C1644 0.930 1_556 S
H1639 C1648 0.930 . S
H1640 C1653 0.929 . S
H1641 C1651 0.929 1_556 S
H1642 C1646 0.929 . S
H1643 C1652 0.929 1_556 S
C1644 H1638 0.930 1_554 S
C1644 C1645 1.367 . S
C1644 C1652 1.378 . S
C1645 C1644 1.367 . S
C1645 C1653 1.433 . S
C1646 H1642 0.929 . S
C1646 C1648 1.378 . S
C1646 C1650 1.350 . S
C1647 C1650 1.463 . S
C1647 C1652 1.350 . S
C1647 N1655 1.427 . S
C1648 H1639 0.930 . S
C1648 C1646 1.378 . S
C1648 C1649 1.367 . S
C1649 C1648 1.367 . S
C1649 C1651 1.433 . S
C1650 C1646 1.350 . S
C1650 C1647 1.463 . S
C1650 N1654 1.427 . S
C1651 H1641 0.929 1_554 S
C1651 C1649 1.433 . S
C1651 N1654 1.384 . S
C1652 H1643 0.929 1_554 S
C1652 C1644 1.378 . S
C1652 C1647 1.350 . S
C1653 H1640 0.929 . S
C1653 C1645 1.433 . S
C1653 N1655 1.384 . S
N1654 C1650 1.427 . S
N1654 C1651 1.384 . S
N1655 C1647 1.427 . S
N1655 C1653 1.384 . S
H1656 C1662 0.930 . S
H1657 C1666 0.930 . S
H1658 C1671 0.929 . S
H1659 C1669 0.929 . S
H1660 C1664 0.929 . S
H1661 C1670 0.929 . S
C1662 H1656 0.930 . S
C1662 C1663 1.367 . S
C1662 C1670 1.378 . S
C1663 C1662 1.367 . S
C1663 C1671 1.433 . S
C1664 H1660 0.929 . S
C1664 C1666 1.378 . S
C1664 C1668 1.350 . S
C1665 C1668 1.463 . S
C1665 C1670 1.350 . S
C1665 N1673 1.427 . S
C1666 H1657 0.930 . S
C1666 C1664 1.378 . S
C1666 C1667 1.367 . S
C1667 C1666 1.367 . S
C1667 C1669 1.433 . S
C1668 C1664 1.350 . S
C1668 C1665 1.463 . S
C1668 N1672 1.427 . S
C1669 H1659 0.929 . S
C1669 C1667 1.433 . S
C1669 N1672 1.384 . S
C1670 H1661 0.929 . S
C1670 C1662 1.378 . S
C1670 C1665 1.350 . S
C1671 H1658 0.929 . S
C1671 C1663 1.433 . S
C1671 N1673 1.384 . S
N1672 C1668 1.427 . S
N1672 C1669 1.384 . S
N1673 C1665 1.427 . S
N1673 C1671 1.384 . S
H1674 C1680 0.930 1_554 S
H1675 C1684 0.930 . S
H1676 C1689 0.929 . S
H1677 C1687 0.929 1_554 S
H1678 C1682 0.929 . S
H1679 C1688 0.929 1_554 S
C1680 H1674 0.930 1_556 S
C1680 C1681 1.367 . S
C1680 C1688 1.378 . S
C1681 C1680 1.367 . S
C1681 C1689 1.433 . S
C1682 H1678 0.929 . S
C1682 C1684 1.378 . S
C1682 C1686 1.350 . S
C1683 C1686 1.463 . S
C1683 C1688 1.350 . S
C1683 N1691 1.427 . S
C1684 H1675 0.930 . S
C1684 C1682 1.378 . S
C1684 C1685 1.367 . S
C1685 C1684 1.367 . S
C1685 C1687 1.433 . S
C1686 C1682 1.350 . S
C1686 C1683 1.463 . S
C1686 N1690 1.427 . S
C1687 H1677 0.929 1_556 S
C1687 C1685 1.433 . S
C1687 N1690 1.384 . S
C1688 H1679 0.929 1_556 S
C1688 C1680 1.378 . S
C1688 C1683 1.350 . S
C1689 H1676 0.929 . S
C1689 C1681 1.433 . S
C1689 N1691 1.384 . S
N1690 C1686 1.427 . S
N1690 C1687 1.384 . S
N1691 C1683 1.427 . S
N1691 C1689 1.384 . S
H1692 C1698 0.930 . S
H1693 C1702 0.930 . S
H1694 C1707 0.929 . S
H1695 C1705 0.929 . S
H1696 C1700 0.929 . S
H1697 C1706 0.929 . S
C1698 H1692 0.930 . S
C1698 C1699 1.367 . S
C1698 C1706 1.378 . S
C1699 C1698 1.367 . S
C1699 C1707 1.433 . S
C1700 H1696 0.929 . S
C1700 C1702 1.378 . S
C1700 C1704 1.350 . S
C1701 C1704 1.463 . S
C1701 C1706 1.350 . S
C1701 N1709 1.427 . S
C1702 H1693 0.930 . S
C1702 C1700 1.378 . S
C1702 C1703 1.367 . S
C1703 C1702 1.367 . S
C1703 C1705 1.433 . S
C1704 C1700 1.350 . S
C1704 C1701 1.463 . S
C1704 N1708 1.427 . S
C1705 H1695 0.929 . S
C1705 C1703 1.433 . S
C1705 N1708 1.384 . S
C1706 H1697 0.929 . S
C1706 C1698 1.378 . S
C1706 C1701 1.350 . S
C1707 H1694 0.929 . S
C1707 C1699 1.433 . S
C1707 N1709 1.384 . S
N1708 C1704 1.427 . S
N1708 C1705 1.384 . S
N1709 C1701 1.427 . S
N1709 C1707 1.384 . S
H1710 C1716 0.930 . S
H1711 C1720 0.930 . S
H1712 C1725 0.929 . S
H1713 C1723 0.929 . S
H1714 C1718 0.929 . S
H1715 C1724 0.929 . S
C1716 H1710 0.930 . S
C1716 C1717 1.367 . S
C1716 C1724 1.378 . S
C1717 C1716 1.367 . S
C1717 C1725 1.433 . S
C1718 H1714 0.929 . S
C1718 C1720 1.378 . S
C1718 C1722 1.350 . S
C1719 C1722 1.463 . S
C1719 C1724 1.350 . S
C1719 N1727 1.427 . S
C1720 H1711 0.930 . S
C1720 C1718 1.378 . S
C1720 C1721 1.367 . S
C1721 C1720 1.367 . S
C1721 C1723 1.433 . S
C1722 C1718 1.350 . S
C1722 C1719 1.463 . S
C1722 N1726 1.427 . S
C1723 H1713 0.929 . S
C1723 C1721 1.433 . S
C1723 N1726 1.384 . S
C1724 H1715 0.929 . S
C1724 C1716 1.378 . S
C1724 C1719 1.350 . S
C1725 H1712 0.929 . S
C1725 C1717 1.433 . S
C1725 N1727 1.384 . S
N1726 C1722 1.427 . S
N1726 C1723 1.384 . S
N1727 C1719 1.427 . S
N1727 C1725 1.384 . S
H1728 C1734 0.930 . S
H1729 C1738 0.930 . S
H1730 C1743 0.929 . S
H1731 C1741 0.929 . S
H1732 C1736 0.929 . S
H1733 C1742 0.929 . S
C1734 H1728 0.930 . S
C1734 C1735 1.367 . S
C1734 C1742 1.378 . S
C1735 C1734 1.367 . S
C1735 C1743 1.433 . S
C1736 H1732 0.929 . S
C1736 C1738 1.378 . S
C1736 C1740 1.350 . S
C1737 C1740 1.463 . S
C1737 C1742 1.350 . S
C1737 N1745 1.427 . S
C1738 H1729 0.930 . S
C1738 C1736 1.378 . S
C1738 C1739 1.367 . S
C1739 C1738 1.367 . S
C1739 C1741 1.433 . S
C1740 C1736 1.350 . S
C1740 C1737 1.463 . S
C1740 N1744 1.427 . S
C1741 H1731 0.929 . S
C1741 C1739 1.433 . S
C1741 N1744 1.384 . S
C1742 H1733 0.929 . S
C1742 C1734 1.378 . S
C1742 C1737 1.350 . S
C1743 H1730 0.929 . S
C1743 C1735 1.433 . S
C1743 N1745 1.384 . S
N1744 C1740 1.427 . S
N1744 C1741 1.384 . S
N1745 C1737 1.427 . S
N1745 C1743 1.384 . S
H1746 C1752 0.930 . S
H1747 C1756 0.930 . S
H1748 C1761 0.929 . S
H1749 C1759 0.929 . S
H1750 C1754 0.929 . S
H1751 C1760 0.929 . S
C1752 H1746 0.930 . S
C1752 C1753 1.367 . S
C1752 C1760 1.378 . S
C1753 C1752 1.367 . S
C1753 C1761 1.433 . S
C1754 H1750 0.929 . S
C1754 C1756 1.378 . S
C1754 C1758 1.350 . S
C1755 C1758 1.463 . S
C1755 C1760 1.350 . S
C1755 N1763 1.427 . S
C1756 H1747 0.930 . S
C1756 C1754 1.378 . S
C1756 C1757 1.367 . S
C1757 C1756 1.367 . S
C1757 C1759 1.433 . S
C1758 C1754 1.350 . S
C1758 C1755 1.463 . S
C1758 N1762 1.427 . S
C1759 H1749 0.929 . S
C1759 C1757 1.433 . S
C1759 N1762 1.384 . S
C1760 H1751 0.929 . S
C1760 C1752 1.378 . S
C1760 C1755 1.350 . S
C1761 H1748 0.929 . S
C1761 C1753 1.433 . S
C1761 N1763 1.384 . S
N1762 C1758 1.427 . S
N1762 C1759 1.384 . S
N1763 C1755 1.427 . S
N1763 C1761 1.384 . S
C475 C75 1.644 . S
C479 C10 1.639 . S
C493 C43 1.641 . S
C497 C23 1.645 . S
C511 C30 1.644 . S
C515 C62 1.644 . S
C529 C82 1.641 . S
C533 C147 1.639 . S
C547 C101 1.640 . S
C551 C121 1.639 . S
C565 C140 1.642 . S
C569 C114 1.638 . S
C583 C160 1.645 . S
C587 C225 1.642 . S
C601 C173 1.639 . S
C605 C199 1.642 . S
C619 C192 1.639 . S
C623 C218 1.640 . S
C637 C309 1.645 . S
C641 C244 1.643 . S
C655 C257 1.645 . S
C659 C283 1.641 . S
C673 C290 1.644 . S
C677 C264 1.639 . S
C691 C381 1.639 . S
C695 C316 1.641 . S
C709 C355 1.643 . S
C713 C335 1.645 . S
C727 C368 1.638 . S
C731 C348 1.643 . S
C745 C400 1.641 . S
C749 C465 1.645 . S
C763 C413 1.639 . S
C767 C439 1.643 . S
C781 C426 1.639 . S
C785 C446 1.644 . S
C799 C69 1.501 . S
C803 C4 1.501 . S
C817 C17 1.502 . S
C821 C49 1.502 . S
C835 C56 1.502 . S
C839 C36 1.502 . S
C853 C88 1.502 . S
C857 C153 1.502 . S
C871 C95 1.501 . S
C875 C127 1.501 . S
C889 C134 1.502 . S
C893 C108 1.501 . S
C907 C166 1.501 . S
C911 C231 1.502 . S
C925 C205 1.502 . S
C929 C179 1.502 . S
C943 C212 1.502 . S
C947 C186 1.502 . S
C961 C238 1.501 . S
C965 C303 1.501 . S
C979 C251 1.501 . S
C983 C277 1.502 . S
C997 C296 1.501 . S
C1001 C270 1.500 . S
C1015 C387 1.503 . S
C1019 C322 1.503 . S
C1033 C329 1.502 . S
C1037 C361 1.503 . S
C1051 C342 1.501 . S
C1055 C374 1.501 . S
C1069 C459 1.503 . S
C1073 C394 1.502 . S
C1087 C433 1.503 . S
C1091 C407 1.503 . S
C1105 C452 1.501 . S
C1109 C420 1.501 . S
C1123 C211 1.737 . S
C1127 C3 1.738 . S
C1141 C226 1.737 . S
C1145 C16 1.737 . S
C1159 C200 1.737 . S
C1163 C31 1.738 . S
C1177 C44 1.738 . S
C1181 C341 1.736 . S
C1195 C55 1.737 . S
C1199 C317 1.738 . S
C1213 C68 1.738 . S
C1217 C328 1.737 . S
C1231 C83 1.737 . S
C1235 C447 1.737 . S
C1249 C94 1.738 . S
C1253 C458 1.737 . S
C1267 C107 1.737 . S
C1271 C432 1.738 . S
C1285 C122 1.738 . S
C1289 C265 1.736 . S
C1303 C237 1.737 . S
C1307 C133 1.739 . S
C1321 C250 1.736 . S
C1325 C148 1.738 . S
C1339 C369 1.738 . S
C1343 C161 1.737 . S
C1357 C174 1.737 . S
C1361 C382 1.739 . S
C1375 C185 1.738 . S
C1379 C356 1.738 . S
C1393 C276 1.738 . S
C1397 C419 1.737 . S
C1411 C291 1.737 . S
C1415 C393 1.737 . S
C1429 C406 1.739 . S
C1433 C302 1.737 . S
C1447 C5 1.329 . S
C1451 C135 1.327 . S
C1465 C146 1.331 . S
C1469 C18 1.326 . S
C1483 C120 1.329 . S
C1487 C29 1.327 . S
C1501 C42 1.326 . S
C1505 C109 1.330 . S
C1519 C57 1.331 . S
C1523 C81 1.326 . S
C1537 C70 1.329 . S
C1541 C96 1.327 . S
C1555 C159 1.326 . S
C1559 C289 1.330 . S
C1573 C304 1.326 . S
C1577 C172 1.331 . S
C1591 C278 1.328 . S
C1595 C187 1.328 . S
C1609 C198 1.326 . S
C1613 C263 1.330 . S
C1627 C213 1.330 . S
C1631 C239 1.327 . S
C1645 C252 1.331 . S
C1649 C224 1.326 . S
C1663 C315 1.328 . S
C1667 C445 1.328 . S
C1681 C460 1.331 . S
C1685 C330 1.326 . S
C1699 C343 1.330 . S
C1703 C434 1.326 . S
C1717 C354 1.326 . S
C1721 C421 1.331 . S
C1735 C395 1.325 . S
C1739 C367 1.330 . S
C1753 C380 1.329 . S
C1757 C408 1.328 . S
