# Generated by pormake.
# Topology crb, (4)-cn, num edge types: 1
# Building blocks:
#     Node 0, Type 0, BuildingBlock: QUQFOY_clean_sbu_1, # of connection points: 4
#     Node 1, Type 0, BuildingBlock: QUQFOY_clean_sbu_1, # of connection points: 4
#     Node 2, Type 0, BuildingBlock: QUQFOY_clean_sbu_1, # of connection points: 4
#     Node 3, Type 0, BuildingBlock: QUQFOY_clean_sbu_1, # of connection points: 4
#     Node 4, Type 0, BuildingBlock: QUQFOY_clean_sbu_1, # of connection points: 4
#     Node 5, Type 0, BuildingBlock: QUQFOY_clean_sbu_1, # of connection points: 4
#     Node 6, Type 0, BuildingBlock: QUQFOY_clean_sbu_1, # of connection points: 4
#     Node 7, Type 0, BuildingBlock: QUQFOY_clean_sbu_1, # of connection points: 4
#     Edge 8, Type (0, 0), BuildingBlock: XUDNAN_clean_linker_2, # of connection points: 2
#     Edge 9, Type (0, 0), BuildingBlock: XUDNAN_clean_linker_2, # of connection points: 2
#     Edge 10, Type (0, 0), BuildingBlock: XUDNAN_clean_linker_2, # of connection points: 2
#     Edge 11, Type (0, 0), BuildingBlock: XUDNAN_clean_linker_2, # of connection points: 2
#     Edge 12, Type (0, 0), BuildingBlock: XUDNAN_clean_linker_2, # of connection points: 2
#     Edge 13, Type (0, 0), BuildingBlock: XUDNAN_clean_linker_2, # of connection points: 2
#     Edge 14, Type (0, 0), BuildingBlock: XUDNAN_clean_linker_2, # of connection points: 2
#     Edge 15, Type (0, 0), BuildingBlock: XUDNAN_clean_linker_2, # of connection points: 2
#     Edge 16, Type (0, 0), BuildingBlock: XUDNAN_clean_linker_2, # of connection points: 2
#     Edge 17, Type (0, 0), BuildingBlock: XUDNAN_clean_linker_2, # of connection points: 2
#     Edge 18, Type (0, 0), BuildingBlock: XUDNAN_clean_linker_2, # of connection points: 2
#     Edge 19, Type (0, 0), BuildingBlock: XUDNAN_clean_linker_2, # of connection points: 2
#     Edge 20, Type (0, 0), BuildingBlock: XUDNAN_clean_linker_2, # of connection points: 2
#     Edge 21, Type (0, 0), BuildingBlock: XUDNAN_clean_linker_2, # of connection points: 2
#     Edge 22, Type (0, 0), BuildingBlock: XUDNAN_clean_linker_2, # of connection points: 2
#     Edge 23, Type (0, 0), BuildingBlock: XUDNAN_clean_linker_2, # of connection points: 2
# Relax obj value: 0.153
# Max RMSD: 0.215
# Mean RMSD: 0.215
data_MOF--net-crb--node1-QUQFOY_clean_sbu_1--edge1-XUDNAN_clean_linker_2
_symmetry_space_group_name_H-M    P1
_symmetry_Int_Tables_number       1
_symmetry_cell_setting            triclinic
loop_
_symmetry_equiv_pos_as_xyz
'x, y, z'
_cell_length_a     40.379412
_cell_length_b     50.788701
_cell_length_c     23.325611
_cell_angle_alpha  90.014666
_cell_angle_beta   90.035616
_cell_angle_gamma 89.974814
loop_
_atom_site_label
_atom_site_type_symbol
_atom_site_fract_x
_atom_site_fract_y
_atom_site_fract_z
_atom_type_partial_charge
O0 O 0.30186 0.29862 0.06763 0.0
Cd1 Cd 0.32462 0.31829 0.13347 0.0
Cd2 Cd 0.3059 0.36162 0.05425 0.0
O3 O 0.28331 0.33043 0.01162 0.0
O4 O 0.33881 0.28758 0.18033 0.0
O5 O 0.303 0.31689 0.21204 0.0
C6 C 0.31914 0.29527 0.22022 0.0
C7 C 0.27888 0.40206 0.06444 0.0
C8 C 0.286 0.30607 0.02355 0.0
C9 C 0.37828 0.35344 0.08344 0.0
O10 O 0.35694 0.36521 0.05259 0.0
O11 O 0.36979 0.33559 0.11859 0.0
O12 O 0.28936 0.39404 0.01527 0.0
O13 O 0.28231 0.38651 0.10789 0.0
O14 O 0.7031 0.32212 0.15597 0.0
Cd15 Cd 0.68085 0.32926 0.07844 0.0
Cd16 Cd 0.68956 0.38419 0.12483 0.0
O17 O 0.71194 0.36227 0.18941 0.0
O18 O 0.67632 0.2927 0.0486 0.0
O19 O 0.70613 0.32293 0.00461 0.0
C20 C 0.69545 0.29899 0.00674 0.0
C21 C 0.71232 0.42523 0.10086 0.0
C22 C 0.71423 0.33738 0.19454 0.0
C23 C 0.62049 0.36415 0.09325 0.0
O24 O 0.63878 0.38247 0.11266 0.0
O25 O 0.63265 0.34221 0.07778 0.0
O26 O 0.69662 0.42163 0.14824 0.0
O27 O 0.71624 0.40514 0.06754 0.0
O28 O 0.6905 0.71703 0.03696 0.0
Cd29 Cd 0.67009 0.69466 0.10051 0.0
Cd30 Cd 0.68691 0.65436 0.02196 0.0
O31 O 0.71048 0.6857 0.98134 0.0
O32 O 0.66587 0.72091 0.16324 0.0
O33 O 0.6977 0.68558 0.16961 0.0
C34 C 0.68714 0.70732 0.19184 0.0
C35 C 0.71268 0.61323 0.02922 0.0
C36 C 0.70702 0.71 0.99337 0.0
C37 C 0.61444 0.66327 0.05118 0.0
O38 O 0.63571 0.65168 0.01988 0.0
O39 O 0.62322 0.6804 0.08782 0.0
O40 O 0.70227 0.62215 0.98074 0.0
O41 O 0.70995 0.62827 0.07367 0.0
O42 O 0.29244 0.69033 0.15648 0.0
Cd43 Cd 0.3085 0.67677 0.07836 0.0
Cd44 Cd 0.31209 0.62945 0.14256 0.0
O45 O 0.30031 0.65474 0.20944 0.0
O46 O 0.30195 0.70825 0.02883 0.0
O47 O 0.27596 0.67062 0.01395 0.0
C48 C 0.28115 0.69476 -0.00092 0.0
C49 C 0.28455 0.58945 0.12944 0.0
C50 C 0.29225 0.67885 0.20478 0.0
C51 C 0.37401 0.64801 0.08374 0.0
O52 O 0.35984 0.6299 0.11204 0.0
O53 O 0.35827 0.66847 0.06821 0.0
O54 O 0.3053 0.59279 0.17086 0.0
O55 O 0.27818 0.60939 0.09679 0.0
O56 O 0.80443 0.8086 0.53613 0.0
Cd57 Cd 0.82389 0.83148 0.60082 0.0
Cd58 Cd 0.8109 0.8685 0.52122 0.0
O59 O 0.78327 0.83958 0.48113 0.0
O60 O 0.82768 0.80499 0.66319 0.0
O61 O 0.79522 0.83995 0.66899 0.0
C62 C 0.80588 0.81825 0.69123 0.0
C63 C 0.78968 0.90825 0.55435 0.0
C64 C 0.78705 0.81535 0.49321 0.0
C65 C 0.88169 0.85915 0.54913 0.0
O66 O 0.86171 0.86765 0.5113 0.0
O67 O 0.87101 0.84632 0.59205 0.0
O68 O 0.79567 0.90463 0.50051 0.0
O69 O 0.79397 0.88859 0.58887 0.0
O70 O 0.18331 0.80052 0.64237 0.0
Cd71 Cd 0.18287 0.82255 0.56774 0.0
Cd72 Cd 0.18305 0.86071 0.64879 0.0
O73 O 0.20175 0.83135 0.70065 0.0
O74 O 0.18374 0.79479 0.50753 0.0
O75 O 0.22558 0.82204 0.5227 0.0
C76 C 0.21333 0.80222 0.49529 0.0
C77 C 0.20845 0.90113 0.63267 0.0
C78 C 0.19536 0.80728 0.69053 0.0
C79 C 0.12242 0.85489 0.58051 0.0
O80 O 0.1331 0.86023 0.63037 0.0
O81 O 0.14102 0.84333 0.54462 0.0
O82 O 0.19294 0.89641 0.67998 0.0
O83 O 0.21134 0.88213 0.59602 0.0
O84 O 0.20547 0.19704 0.55448 0.0
Cd85 Cd 0.1798 0.18139 0.62288 0.0
Cd86 Cd 0.19064 0.13421 0.55773 0.0
O87 O 0.22352 0.15955 0.51827 0.0
O88 O 0.17853 0.21133 0.67797 0.0
O89 O 0.20418 0.17374 0.69619 0.0
C90 C 0.19641 0.19733 0.71209 0.0
C91 C 0.20787 0.09027 0.56725 0.0
C92 C 0.22374 0.18456 0.51954 0.0
C93 C 0.12044 0.15365 0.57552 0.0
O94 O 0.14009 0.13952 0.54605 0.0
O95 O 0.13137 0.16995 0.61222 0.0
O96 O 0.20026 0.10019 0.5182 0.0
O97 O 0.20591 0.10536 0.61169 0.0
O98 O 0.79626 0.20351 0.6562 0.0
Cd99 Cd 0.81575 0.1954 0.57602 0.0
Cd100 Cd 0.81431 0.14022 0.63825 0.0
O101 O 0.78954 0.16414 0.69519 0.0
O102 O 0.82141 0.23198 0.54649 0.0
O103 O 0.78774 0.20331 0.50597 0.0
C104 C 0.80014 0.22673 0.50708 0.0
C105 C 0.79691 0.09613 0.63457 0.0
C106 C 0.78603 0.18899 0.69687 0.0
C107 C 0.87844 0.16158 0.58906 0.0
O108 O 0.86426 0.14568 0.62316 0.0
O109 O 0.86277 0.18017 0.56472 0.0
O110 O 0.81255 0.10546 0.67814 0.0
O111 O 0.79068 0.11191 0.59253 0.0
H112 H 0.286 0.43422 0.15736 0.0
H113 H 0.24668 0.43177 0.98458 0.0
H114 H 0.23516 0.47953 0.98913 0.0
H115 H 0.2315 0.48869 0.21449 0.0
H116 H 0.26536 0.5027 0.25457 0.0
H117 H 0.26356 0.46764 0.24274 0.0
H118 H 0.32224 0.46896 0.19796 0.0
H119 H 0.32416 0.50391 0.20927 0.0
H120 H 0.33016 0.49065 0.13834 0.0
H121 H 0.23508 0.52819 0.00717 0.0
H122 H 0.24913 0.57377 0.03503 0.0
H123 H 0.29109 0.54483 0.19432 0.0
C124 C 0.27369 0.44358 0.12149 0.0
C125 C 0.26658 0.42929 0.07105 0.0
C126 C 0.25187 0.44236 0.02389 0.0
C127 C 0.24516 0.46946 0.02617 0.0
C128 C 0.25352 0.48324 0.07582 0.0
C129 C 0.26746 0.47073 0.1227 0.0
C130 C 0.27848 0.49049 0.16751 0.0
C131 C 0.25852 0.48718 0.22312 0.0
C132 C 0.31597 0.48837 0.17888 0.0
C133 C 0.26977 0.51605 0.13761 0.0
C134 C 0.25465 0.51146 0.08539 0.0
C135 C 0.24641 0.53203 0.04838 0.0
C136 C 0.25449 0.55788 0.06458 0.0
C137 C 0.27112 0.5629 0.11692 0.0
C138 C 0.27808 0.54169 0.15429 0.0
H139 H 0.43118 0.32109 0.0998 0.0
H140 H 0.40493 0.40152 0.05682 0.0
H141 H 0.46446 0.41344 0.05481 0.0
H142 H 0.49954 0.33495 0.19056 0.0
H143 H 0.52416 0.30767 0.16547 0.0
H144 H 0.47966 0.3057 0.16348 0.0
H145 H 0.48167 0.29564 0.05456 0.0
H146 H 0.52621 0.29746 0.05626 0.0
H147 H 0.50316 0.3179 0.00727 0.0
H148 H 0.52701 0.41686 0.06451 0.0
H149 H 0.58761 0.41049 0.07412 0.0
H150 H 0.57211 0.32705 0.10303 0.0
C151 C 0.43797 0.34121 0.08988 0.0
C152 C 0.4136 0.36048 0.0789 0.0
C153 C 0.42335 0.3865 0.06526 0.0
C154 C 0.45702 0.39344 0.06426 0.0
C155 C 0.48047 0.37398 0.07591 0.0
C156 C 0.47134 0.3483 0.08746 0.0
C157 C 0.50123 0.33088 0.09694 0.0
C158 C 0.50112 0.31912 0.15773 0.0
C159 C 0.50317 0.3092 0.05101 0.0
C160 C 0.52868 0.35082 0.08976 0.0
C161 C 0.51627 0.37565 0.07829 0.0
C162 C 0.537 0.39745 0.07273 0.0
C163 C 0.5713 0.39369 0.07849 0.0
C164 C 0.58442 0.36826 0.08872 0.0
C165 C 0.56275 0.34664 0.09433 0.0
H166 H 0.70814 0.47054 0.16407 0.0
H167 H 0.7397 0.44069 -0.00146 0.0
H168 H 0.75064 0.48622 0.96631 0.0
H169 H 0.66445 0.52375 0.11364 0.0
H170 H 0.67564 0.54603 0.17061 0.0
H171 H 0.67517 0.51115 0.18349 0.0
H172 H 0.73627 0.51302 0.21728 0.0
H173 H 0.73691 0.54803 0.20461 0.0
H174 H 0.76726 0.52711 0.17092 0.0
H175 H 0.74998 0.53491 0.94752 0.0
H176 H 0.73924 0.58278 0.94451 0.0
H177 H 0.70998 0.58108 0.12327 0.0
C178 C 0.71816 0.47348 0.12151 0.0
C179 C 0.72318 0.45201 0.08387 0.0
C180 C 0.73587 0.45679 0.02827 0.0
C181 C 0.7422 0.4826 0.00961 0.0
C182 C 0.73613 0.50338 0.04732 0.0
C183 C 0.72474 0.49907 0.10237 0.0
C184 C 0.71765 0.52481 0.13293 0.0
C185 C 0.68106 0.52652 0.1512 0.0
C186 C 0.74092 0.52845 0.18449 0.0
C187 C 0.72553 0.5443 0.08573 0.0
C188 C 0.73647 0.53155 0.03685 0.0
C189 C 0.74219 0.54514 0.98591 0.0
C190 C 0.73596 0.57232 0.98457 0.0
C191 C 0.72429 0.58568 0.03389 0.0
C192 C 0.71981 0.57152 0.08541 0.0
H193 H 0.42052 0.68683 0.08462 0.0
H194 H 0.40722 0.60329 0.0543 0.0
H195 H 0.46724 0.59868 0.03494 0.0
H196 H 0.48655 0.69867 0.98063 0.0
H197 H 0.5085 0.72086 0.02748 0.0
H198 H 0.46411 0.71806 0.03243 0.0
H199 H 0.4692 0.70685 0.1405 0.0
H200 H 0.51354 0.7096 0.13588 0.0
H201 H 0.49505 0.67972 0.16253 0.0
H202 H 0.52879 0.6033 0.02004 0.0
H203 H 0.58809 0.61567 0.02128 0.0
H204 H 0.56132 0.69529 0.07021 0.0
C205 C 0.43024 0.66769 0.07287 0.0
C206 C 0.40942 0.64546 0.07002 0.0
C207 C 0.42294 0.62054 0.05629 0.0
C208 C 0.45688 0.61779 0.045 0.0
C209 C 0.47689 0.64008 0.04864 0.0
C210 C 0.46414 0.66449 0.06298 0.0
C211 C 0.4913 0.68479 0.06931 0.0
C212 C 0.48737 0.7069 0.0248 0.0
C213 C 0.49233 0.69588 0.1307 0.0
C214 C 0.52134 0.66796 0.05672 0.0
C215 C 0.51249 0.64237 0.04372 0.0
C216 C 0.53604 0.62327 0.03026 0.0
C217 C 0.56958 0.63047 0.03091 0.0
C218 C 0.57913 0.65635 0.04616 0.0
C219 C 0.55465 0.6753 0.05881 0.0
H220 H 0.78392 0.95418 0.49314 0.0
H221 H 0.77819 0.92261 0.66577 0.0
H222 H 0.77294 0.9677 0.70411 0.0
H223 H 0.83415 0.00686 0.52497 0.0
H224 H 0.81495 0.02994 0.47656 0.0
H225 H 0.81312 0.99524 0.46163 0.0
H226 H 0.74908 0.99748 0.45694 0.0
H227 H 0.7507 0.03232 0.47144 0.0
H228 H 0.72633 0.01102 0.51654 0.0
H229 H 0.77673 0.01587 0.72466 0.0
H230 H 0.78647 0.06383 0.7258 0.0
H231 H 0.78806 0.06465 0.53989 0.0
C232 C 0.78061 0.95668 0.53888 0.0
C233 C 0.78131 0.9348 0.57644 0.0
C234 C 0.77751 0.939 0.6361 0.0
C235 C 0.77449 0.96457 0.6583 0.0
C236 C 0.77495 0.98574 0.62025 0.0
C237 C 0.77748 0.98207 0.56172 0.0
C238 C 0.77993 0.00821 0.53054 0.0
C239 C 0.81247 0.01016 0.49644 0.0
C240 C 0.7497 0.01251 0.49156 0.0
C241 C 0.77964 0.02712 0.58082 0.0
C242 C 0.77649 0.01372 0.63215 0.0
C243 C 0.77849 0.02662 0.68474 0.0
C244 C 0.78417 0.05385 0.68495 0.0
C245 C 0.78762 0.06797 0.63294 0.0
C246 C 0.78474 0.05445 0.58024 0.0
H247 H 0.06923 0.85716 0.65228 0.0
H248 H 0.09749 0.86441 0.47363 0.0
H249 H 0.03871 0.8706 0.4469 0.0
H250 H -0.00038 0.81822 0.62659 0.0
H251 H 0.97478 0.83225 0.68306 0.0
H252 H 0.01919 0.83222 0.68904 0.0
H253 H 0.01888 0.88287 0.70294 0.0
H254 H 0.97437 0.88304 0.69722 0.0
H255 H -0.00115 0.90346 0.65036 0.0
H256 H 0.97662 0.87365 0.43935 0.0
H257 H 0.91589 0.86997 0.45055 0.0
H258 H 0.9286 0.85774 0.63339 0.0
C259 C 0.06308 0.86069 0.60773 0.0
C260 C 0.08779 0.86068 0.56503 0.0
C261 C 0.07882 0.86452 0.50695 0.0
C262 C 0.04557 0.86816 0.49144 0.0
C263 C 0.02168 0.86762 0.5345 0.0
C264 C 0.03001 0.86382 0.59143 0.0
C265 C -0.00049 0.86142 0.62867 0.0
C266 C -0.00179 0.83442 0.65857 0.0
C267 C 0.99781 0.88405 0.67237 0.0
C268 C 0.97272 0.86399 0.5837 0.0
C269 C 0.98595 0.86808 0.52982 0.0
C270 C 0.96596 0.87057 0.48137 0.0
C271 C 0.93154 0.86848 0.48814 0.0
C272 C 0.91763 0.86346 0.54276 0.0
C273 C 0.93856 0.86148 0.59106 0.0
H274 H 0.20052 0.05707 0.65941 0.0
H275 H 0.23558 0.06002 0.48384 0.0
H276 H 0.2468 0.01227 0.48653 0.0
H277 H 0.2573 1.00408 0.71109 0.0
H278 H 0.22543 0.98914 0.75428 0.0
H279 H 0.2251 0.02418 0.74195 0.0
H280 H 0.1653 0.02095 0.70216 0.0
H281 H 0.16547 0.986 0.71436 0.0
H282 H 0.15668 0.99869 0.64381 0.0
H283 H 0.24902 0.96382 0.50447 0.0
H284 H 0.23908 0.9179 0.53448 0.0
H285 H 0.20099 0.94586 0.69752 0.0
C286 C 0.21143 0.04774 0.62217 0.0
C287 C 0.21756 0.06225 0.57163 0.0
C288 C 0.23086 0.04927 0.52309 0.0
C289 C 0.23747 0.02218 0.5243 0.0
C290 C 0.23052 0.00827 0.57432 0.0
C291 C 0.21771 0.02056 0.62239 0.0
C292 C 0.20909 1.00061 0.66838 0.0
C293 C 0.23052 1.00476 0.72211 0.0
C294 C 0.17194 1.00163 0.68299 0.0
C295 C 0.21814 0.9752 0.63801 0.0
C296 C 0.23104 0.98009 0.58423 0.0
C297 C 0.23936 0.95973 0.5468 0.0
C298 C 0.23364 0.93368 0.56426 0.0
C299 C 0.21942 0.92821 0.61845 0.0
C300 C 0.21231 0.94932 0.65613 0.0
H301 H 0.92987 0.15975 0.66479 0.0
H302 H 0.90609 0.15634 0.4838 0.0
H303 H 0.9656 0.15091 0.4607 0.0
H304 H 0.00187 0.19957 0.64644 0.0
H305 H 0.02477 0.18431 0.70388 0.0
H306 H 0.98023 0.18521 0.70634 0.0
H307 H 0.97874 0.13443 0.71732 0.0
H308 H 0.02331 0.13339 0.7148 0.0
H309 H -0.00067 0.1141 0.66494 0.0
H310 H 0.02758 0.14518 0.45792 0.0
H311 H 0.0882 0.14543 0.47428 0.0
H312 H 0.07172 0.15749 0.65609 0.0
C313 C 0.93732 0.15752 0.62045 0.0
C314 C 0.91372 0.15803 0.57595 0.0
C315 C 0.92408 0.15579 0.51827 0.0
C316 C 0.95769 0.15261 0.50487 0.0
C317 C 0.98053 0.15227 0.54969 0.0
C318 C 0.97086 0.15511 0.60625 0.0
C319 C 0.00054 0.15638 0.64585 0.0
C320 C 0.00193 0.18295 0.67747 0.0
C321 C 0.00047 0.13319 0.68822 0.0
C322 C 0.02838 0.15384 0.60276 0.0
C323 C 0.01631 0.15092 0.54767 0.0
C324 C 0.03734 0.14762 0.50081 0.0
C325 C 0.07164 0.14769 0.51047 0.0
C326 C 0.08443 0.15168 0.56628 0.0
C327 C 0.06249 0.15466 0.61291 0.0
H328 H 0.21543 0.23492 0.47942 0.0
H329 H 0.28023 0.16691 0.46835 0.0
H330 H 0.31526 0.19043 0.39849 0.0
H331 H 0.21635 0.24919 0.33222 0.0
H332 H 0.21542 0.28447 0.34052 0.0
H333 H 0.19776 0.26371 0.39499 0.0
H334 H 0.23534 0.28563 0.47139 0.0
H335 H 0.25321 0.30644 0.41701 0.0
H336 H 0.27957 0.2861 0.46094 0.0
H337 H 0.34109 0.2197 0.32621 0.0
H338 H 0.35403 0.25152 0.25001 0.0
H339 H 0.27153 0.30041 0.3043 0.0
C340 C 0.23736 0.2252 0.46306 0.0
C341 C 0.24533 0.19918 0.4796 0.0
C342 C 0.27373 0.18684 0.45627 0.0
C343 C 0.29388 0.20011 0.41689 0.0
C344 C 0.28518 0.22563 0.40103 0.0
C345 C 0.2575 0.23804 0.42299 0.0
C346 C 0.25207 0.26459 0.39473 0.0
C347 C 0.21841 0.26553 0.36378 0.0
C348 C 0.25525 0.28702 0.43865 0.0
C349 C 0.2806 0.26488 0.35253 0.0
C350 C 0.29968 0.2424 0.35775 0.0
C351 C 0.32652 0.23748 0.32197 0.0
C352 C 0.33363 0.2557 0.27874 0.0
C353 C 0.31381 0.27849 0.2712 0.0
C354 C 0.28736 0.28335 0.30943 0.0
H355 H 0.71348 0.28559 0.22726 0.0
H356 H 0.74989 0.36249 0.27881 0.0
H357 H 0.77597 0.3424 0.36421 0.0
H358 H 0.69397 0.26257 0.3689 0.0
H359 H 0.70647 0.22915 0.35438 0.0
H360 H 0.69107 0.24957 0.29714 0.0
H361 H 0.74474 0.24103 0.23918 0.0
H362 H 0.76034 0.2206 0.29623 0.0
H363 H 0.78435 0.24822 0.27127 0.0
H364 H 0.79889 0.31373 0.44274 0.0
H365 H 0.81536 0.27903 0.51091 0.0
H366 H 0.7626 0.22098 0.40923 0.0
C367 C 0.72699 0.29827 0.25635 0.0
C368 C 0.72975 0.32565 0.24616 0.0
C369 C 0.74743 0.3415 0.28568 0.0
C370 C 0.76236 0.33025 0.33424 0.0
C371 C 0.75918 0.30319 0.3428 0.0
C372 C 0.74178 0.28744 0.30512 0.0
C373 C 0.74164 0.25896 0.32449 0.0
C374 C 0.70618 0.24952 0.33698 0.0
C375 C 0.7588 0.24116 0.28015 0.0
C376 C 0.76182 0.26109 0.37898 0.0
C377 C 0.77181 0.28676 0.3886 0.0
C378 C 0.79111 0.29359 0.43575 0.0
C379 C 0.80039 0.2737 0.47417 0.0
C380 C 0.79021 0.24727 0.46548 0.0
C381 C 0.77063 0.24099 0.41719 0.0
H382 H 0.74236 0.82127 0.40487 0.0
H383 H 0.79824 0.76234 0.49904 0.0
H384 H 0.77565 0.72766 0.43644 0.0
H385 H 0.66897 0.78017 0.38014 0.0
H386 H 0.66207 0.79334 0.30938 0.0
H387 H 0.68119 0.81346 0.36375 0.0
H388 H 0.7314 0.82162 0.29685 0.0
H389 H 0.71242 0.8016 0.24234 0.0
H390 H 0.75349 0.79386 0.26754 0.0
H391 H 0.75076 0.69978 0.35855 0.0
H392 H 0.72383 0.68086 0.27252 0.0
H393 H 0.68245 0.75754 0.23221 0.0
C394 C 0.74962 0.80106 0.41266 0.0
C395 C 0.77212 0.79459 0.45685 0.0
C396 C 0.78099 0.76785 0.46556 0.0
C397 C 0.76826 0.74795 0.43026 0.0
C398 C 0.74638 0.75501 0.38682 0.0
C399 C 0.7369 0.78088 0.37817 0.0
C400 C 0.71376 0.78328 0.32739 0.0
C401 C 0.67946 0.79314 0.34632 0.0
C402 C 0.72867 0.80114 0.28079 0.0
C403 C 0.71239 0.75484 0.30807 0.0
C404 C 0.73129 0.7388 0.34295 0.0
C405 C 0.73545 0.71205 0.33139 0.0
C406 C 0.72014 0.70148 0.28248 0.0
C407 C 0.70079 0.71765 0.24612 0.0
C408 C 0.69658 0.74455 0.25977 0.0
H409 H 0.19508 0.78591 0.38885 0.0
H410 H 0.27512 0.78251 0.51237 0.0
H411 H 0.30382 0.74929 0.45234 0.0
H412 H 0.19244 0.71953 0.35106 0.0
H413 H 0.18548 0.72473 0.27557 0.0
H414 H 0.17191 0.74901 0.32668 0.0
H415 H 0.20589 0.78505 0.27456 0.0
H416 H 0.21898 0.76101 0.22248 0.0
H417 H 0.2494 0.77981 0.26151 0.0
H418 H 0.31973 0.71235 0.38448 0.0
H419 H 0.32792 0.68121 0.30375 0.0
H420 H 0.24058 0.71252 0.21994 0.0
C421 C 0.21902 0.77855 0.40241 0.0
C422 C 0.23312 0.78666 0.4548 0.0
C423 C 0.2643 0.77668 0.4718 0.0
C424 C 0.28055 0.75767 0.43831 0.0
C425 C 0.26554 0.74948 0.38747 0.0
C426 C 0.236 0.76024 0.36867 0.0
C427 C 0.22552 0.74863 0.31173 0.0
C428 C 0.19184 0.73465 0.3166 0.0
C429 C 0.22493 0.76989 0.26479 0.0
C430 C 0.25328 0.72912 0.30212 0.0
C431 C 0.27585 0.72957 0.34671 0.0
C432 C 0.30255 0.71216 0.34884 0.0
C433 C 0.30682 0.69439 0.30329 0.0
C434 C 0.28488 0.69465 0.25602 0.0
C435 C 0.25773 0.71211 0.25566 0.0
H436 H 0.23237 0.81224 0.78883 0.0
H437 H 0.17566 0.75572 0.68943 0.0
H438 H 0.19007 0.72088 0.75882 0.0
H439 H 0.29843 0.76887 0.82363 0.0
H440 H 0.3044 0.78182 0.89484 0.0
H441 H 0.28807 0.80266 0.83915 0.0
H442 H 0.2367 0.81297 0.90189 0.0
H443 H 0.25294 0.79223 0.95789 0.0
H444 H 0.21209 0.78623 0.92957 0.0
H445 H 0.21182 0.69183 0.83824 0.0
H446 H 0.23999 0.67093 0.92084 0.0
H447 H 0.28324 0.74635 0.96625 0.0
C448 C 0.22265 0.79262 0.78196 0.0
C449 C 0.20276 0.78676 0.7338 0.0
C450 C 0.19093 0.76071 0.72603 0.0
C451 C 0.19893 0.74077 0.76525 0.0
C452 C 0.21889 0.74715 0.81193 0.0
C453 C 0.2306 0.77243 0.82042 0.0
C454 C 0.25258 0.77392 0.87288 0.0
C455 C 0.28796 0.78231 0.85662 0.0
C456 C 0.23768 0.79243 0.91824 0.0
C457 C 0.25152 0.74551 0.89238 0.0
C458 C 0.23182 0.73038 0.85693 0.0
C459 C 0.22728 0.70349 0.86638 0.0
C460 C 0.24336 0.69179 0.91333 0.0
C461 C 0.26385 0.70697 0.94989 0.0
C462 C 0.26782 0.73417 0.93906 0.0
H463 H 0.24954 0.31306 0.92435 0.0
H464 H 0.29035 0.2527 0.03598 0.0
H465 H 0.26952 0.21839 0.97098 0.0
H466 H 0.17482 0.27646 0.88412 0.0
H467 H 0.17534 0.28833 0.8113 0.0
H468 H 0.19203 0.30837 0.86814 0.0
H469 H 0.24791 0.31149 0.81395 0.0
H470 H 0.23142 0.29144 0.75706 0.0
H471 H 0.26896 0.28168 0.7931 0.0
H472 H 0.24787 0.19051 0.89097 0.0
H473 H 0.22485 0.17112 0.80224 0.0
H474 H 0.19657 0.24914 0.74404 0.0
C475 C 0.25381 0.29264 0.93542 0.0
C476 C 0.27164 0.28569 0.98536 0.0
C477 C 0.27676 0.25866 0.99806 0.0
C478 C 0.26501 0.23893 0.96143 0.0
C479 C 0.24789 0.24644 0.91234 0.0
C480 C 0.24206 0.2726 0.89941 0.0
C481 C 0.22366 0.27527 0.84309 0.0
C482 C 0.18943 0.28785 0.85223 0.0
C483 C 0.24422 0.29089 0.79922 0.0
C484 C 0.22065 0.24656 0.82607 0.0
C485 C 0.23475 0.23025 0.86665 0.0
C486 C 0.23638 0.20304 0.85914 0.0
C487 C 0.22332 0.19221 0.80862 0.0
C488 C 0.20871 0.20857 0.76653 0.0
C489 C 0.20717 0.23607 0.77581 0.0
H490 H 0.73159 0.30588 0.90738 0.0
H491 H 0.68166 0.24653 0.00975 0.0
H492 H 0.699 0.21232 0.94135 0.0
H493 H 0.71066 0.27751 0.76891 0.0
H494 H 0.74992 0.28578 0.73689 0.0
H495 H 0.73334 0.30591 0.79365 0.0
H496 H 0.78727 0.29929 0.85218 0.0
H497 H 0.80397 0.2791 0.79568 0.0
H498 H 0.80139 0.26637 0.86766 0.0
H499 H 0.72314 0.18422 0.86452 0.0
H500 H 0.7508 0.16413 0.78109 0.0
H501 H 0.78401 0.24149 0.7263 0.0
C502 C 0.72422 0.28571 0.91524 0.0
C503 C 0.70528 0.27891 0.964 0.0
C504 C 0.6961 0.25227 0.9727 0.0
C505 C 0.70586 0.23264 0.93412 0.0
C506 C 0.72464 0.23993 0.88675 0.0
C507 C 0.73357 0.2658 0.87682 0.0
C508 C 0.75382 0.26819 0.82234 0.0
C509 C 0.73585 0.28536 0.77782 0.0
C510 C 0.78868 0.27887 0.83526 0.0
C511 C 0.75504 0.23961 0.80364 0.0
C512 C 0.73812 0.22367 0.84156 0.0
C513 C 0.73633 0.19649 0.83428 0.0
C514 C 0.75221 0.18526 0.78681 0.0
C515 C 0.76951 0.2012 0.74697 0.0
C516 C 0.77081 0.22876 0.75568 0.0
H517 H 0.75083 0.70389 0.90369 0.0
H518 H 0.69566 0.76295 -0.00123 0.0
H519 H 0.71769 0.79753 0.93556 0.0
H520 H 0.82393 0.74488 0.87776 0.0
H521 H 0.83048 0.73177 0.80685 0.0
H522 H 0.81156 0.71162 0.86132 0.0
H523 H 0.76103 0.7036 0.79499 0.0
H524 H 0.77979 0.72366 0.74037 0.0
H525 H 0.73885 0.73142 0.76609 0.0
H526 H 0.74216 0.82539 0.85767 0.0
H527 H 0.76908 0.84448 0.77192 0.0
H528 H 0.81014 0.76781 0.73047 0.0
C529 C 0.74357 0.7241 0.91147 0.0
C530 C 0.72147 0.73063 0.95618 0.0
C531 C 0.71262 0.75738 0.9649 0.0
C532 C 0.72501 0.77723 0.92925 0.0
C533 C 0.74654 0.77013 0.88539 0.0
C534 C 0.75598 0.74426 0.8766 0.0
C535 C 0.77889 0.74189 0.82553 0.0
C536 C 0.81325 0.73196 0.84399 0.0
C537 C 0.76372 0.7241 0.779 0.0
C538 C 0.78022 0.77036 0.80635 0.0
C539 C 0.76144 0.78636 0.84146 0.0
C540 C 0.75735 0.81314 0.83028 0.0
C541 C 0.77265 0.82381 0.78152 0.0
C542 C 0.79195 0.8077 0.745 0.0
C543 C 0.79604 0.78073 0.75818 0.0
loop_
_geom_bond_atom_site_label_1
_geom_bond_atom_site_label_2
_geom_bond_distance
_geom_bond_site_symmetry_2
_ccdc_geom_bond_type
O0 Cd1 2.223 . S
O0 C8 1.315 . S
Cd1 O0 2.223 . S
Cd1 O4 2.297 . S
Cd1 O5 2.439 . S
Cd1 O11 2.240 . S
Cd2 O3 2.240 . S
Cd2 O10 2.223 . S
Cd2 O12 2.297 . S
Cd2 O13 2.439 . S
O3 Cd2 2.240 . S
O3 C8 1.279 . S
O4 Cd1 2.297 . S
O4 C6 1.247 . S
O5 Cd1 2.439 . S
O5 C6 1.208 . S
C6 O4 1.247 . S
C6 O5 1.208 . S
C7 O12 1.247 . S
C7 O13 1.208 . S
C8 O0 1.315 . S
C8 O3 1.279 . S
C9 O10 1.315 . S
C9 O11 1.279 . S
O10 Cd2 2.223 . S
O10 C9 1.315 . S
O11 Cd1 2.240 . S
O11 C9 1.279 . S
O12 Cd2 2.297 . S
O12 C7 1.247 . S
O13 Cd2 2.439 . S
O13 C7 1.208 . S
O14 Cd15 2.223 . S
O14 C22 1.315 . S
Cd15 O14 2.223 . S
Cd15 O18 2.297 1_554 S
Cd15 O19 2.439 1_554 S
Cd15 O25 2.240 . S
Cd16 O17 2.240 . S
Cd16 O24 2.223 . S
Cd16 O26 2.297 . S
Cd16 O27 2.439 . S
O17 Cd16 2.240 . S
O17 C22 1.279 . S
O18 Cd15 2.297 1_556 S
O18 C20 1.247 . S
O19 Cd15 2.439 1_556 S
O19 C20 1.208 . S
C20 O18 1.247 . S
C20 O19 1.208 . S
C21 O26 1.247 . S
C21 O27 1.208 . S
C22 O14 1.315 . S
C22 O17 1.279 . S
C23 O24 1.315 . S
C23 O25 1.279 . S
O24 Cd16 2.223 . S
O24 C23 1.315 . S
O25 Cd15 2.240 . S
O25 C23 1.279 . S
O26 Cd16 2.297 . S
O26 C21 1.247 . S
O27 Cd16 2.439 . S
O27 C21 1.208 . S
O28 Cd29 2.223 . S
O28 C36 1.315 . S
Cd29 O28 2.223 . S
Cd29 O32 2.297 . S
Cd29 O33 2.439 . S
Cd29 O39 2.240 . S
Cd30 O31 2.240 . S
Cd30 O38 2.223 . S
Cd30 O40 2.297 . S
Cd30 O41 2.439 . S
O31 Cd30 2.240 . S
O31 C36 1.279 . S
O32 Cd29 2.297 . S
O32 C34 1.247 . S
O33 Cd29 2.439 . S
O33 C34 1.208 . S
C34 O32 1.247 . S
C34 O33 1.208 . S
C35 O40 1.247 . S
C35 O41 1.208 . S
C36 O28 1.315 . S
C36 O31 1.279 . S
C37 O38 1.315 . S
C37 O39 1.279 . S
O38 Cd30 2.223 . S
O38 C37 1.315 . S
O39 Cd29 2.240 . S
O39 C37 1.279 . S
O40 Cd30 2.297 . S
O40 C35 1.247 . S
O41 Cd30 2.439 . S
O41 C35 1.208 . S
O42 Cd43 2.223 . S
O42 C50 1.315 . S
Cd43 O42 2.223 . S
Cd43 O46 2.297 1_554 S
Cd43 O47 2.439 1_554 S
Cd43 O53 2.240 . S
Cd44 O45 2.240 . S
Cd44 O52 2.223 . S
Cd44 O54 2.297 . S
Cd44 O55 2.439 . S
O45 Cd44 2.240 . S
O45 C50 1.279 . S
O46 Cd43 2.297 1_556 S
O46 C48 1.247 . S
O47 Cd43 2.439 1_556 S
O47 C48 1.208 . S
C48 O46 1.247 . S
C48 O47 1.208 . S
C49 O54 1.247 . S
C49 O55 1.208 . S
C50 O42 1.315 . S
C50 O45 1.279 . S
C51 O52 1.315 . S
C51 O53 1.279 . S
O52 Cd44 2.223 . S
O52 C51 1.315 . S
O53 Cd43 2.240 . S
O53 C51 1.279 . S
O54 Cd44 2.297 . S
O54 C49 1.247 . S
O55 Cd44 2.439 . S
O55 C49 1.208 . S
O56 Cd57 2.223 . S
O56 C64 1.315 . S
Cd57 O56 2.223 . S
Cd57 O60 2.297 . S
Cd57 O61 2.439 . S
Cd57 O67 2.240 . S
Cd58 O59 2.240 . S
Cd58 O66 2.223 . S
Cd58 O68 2.297 . S
Cd58 O69 2.439 . S
O59 Cd58 2.240 . S
O59 C64 1.279 . S
O60 Cd57 2.297 . S
O60 C62 1.247 . S
O61 Cd57 2.439 . S
O61 C62 1.208 . S
C62 O60 1.247 . S
C62 O61 1.208 . S
C63 O68 1.247 . S
C63 O69 1.208 . S
C64 O56 1.315 . S
C64 O59 1.279 . S
C65 O66 1.315 . S
C65 O67 1.279 . S
O66 Cd58 2.223 . S
O66 C65 1.315 . S
O67 Cd57 2.240 . S
O67 C65 1.279 . S
O68 Cd58 2.297 . S
O68 C63 1.247 . S
O69 Cd58 2.439 . S
O69 C63 1.208 . S
O70 Cd71 2.223 . S
O70 C78 1.315 . S
Cd71 O70 2.223 . S
Cd71 O74 2.297 . S
Cd71 O75 2.439 . S
Cd71 O81 2.240 . S
Cd72 O73 2.240 . S
Cd72 O80 2.223 . S
Cd72 O82 2.297 . S
Cd72 O83 2.439 . S
O73 Cd72 2.240 . S
O73 C78 1.279 . S
O74 Cd71 2.297 . S
O74 C76 1.247 . S
O75 Cd71 2.439 . S
O75 C76 1.208 . S
C76 O74 1.247 . S
C76 O75 1.208 . S
C77 O82 1.247 . S
C77 O83 1.208 . S
C78 O70 1.315 . S
C78 O73 1.279 . S
C79 O80 1.315 . S
C79 O81 1.279 . S
O80 Cd72 2.223 . S
O80 C79 1.315 . S
O81 Cd71 2.240 . S
O81 C79 1.279 . S
O82 Cd72 2.297 . S
O82 C77 1.247 . S
O83 Cd72 2.439 . S
O83 C77 1.208 . S
O84 Cd85 2.223 . S
O84 C92 1.315 . S
Cd85 O84 2.223 . S
Cd85 O88 2.297 . S
Cd85 O89 2.439 . S
Cd85 O95 2.240 . S
Cd86 O87 2.240 . S
Cd86 O94 2.223 . S
Cd86 O96 2.297 . S
Cd86 O97 2.439 . S
O87 Cd86 2.240 . S
O87 C92 1.279 . S
O88 Cd85 2.297 . S
O88 C90 1.247 . S
O89 Cd85 2.439 . S
O89 C90 1.208 . S
C90 O88 1.247 . S
C90 O89 1.208 . S
C91 O96 1.247 . S
C91 O97 1.208 . S
C92 O84 1.315 . S
C92 O87 1.279 . S
C93 O94 1.315 . S
C93 O95 1.279 . S
O94 Cd86 2.223 . S
O94 C93 1.315 . S
O95 Cd85 2.240 . S
O95 C93 1.279 . S
O96 Cd86 2.297 . S
O96 C91 1.247 . S
O97 Cd86 2.439 . S
O97 C91 1.208 . S
O98 Cd99 2.223 . S
O98 C106 1.315 . S
Cd99 O98 2.223 . S
Cd99 O102 2.297 . S
Cd99 O103 2.439 . S
Cd99 O109 2.240 . S
Cd100 O101 2.240 . S
Cd100 O108 2.223 . S
Cd100 O110 2.297 . S
Cd100 O111 2.439 . S
O101 Cd100 2.240 . S
O101 C106 1.279 . S
O102 Cd99 2.297 . S
O102 C104 1.247 . S
O103 Cd99 2.439 . S
O103 C104 1.208 . S
C104 O102 1.247 . S
C104 O103 1.208 . S
C105 O110 1.247 . S
C105 O111 1.208 . S
C106 O98 1.315 . S
C106 O101 1.279 . S
C107 O108 1.315 . S
C107 O109 1.279 . S
O108 Cd100 2.223 . S
O108 C107 1.315 . S
O109 Cd99 2.240 . S
O109 C107 1.279 . S
O110 Cd100 2.297 . S
O110 C105 1.247 . S
O111 Cd100 2.439 . S
O111 C105 1.208 . S
H112 C124 0.930 . S
H113 C126 0.930 . S
H114 C127 0.930 . S
H115 C131 0.959 . S
H116 C131 0.959 . S
H117 C131 0.961 . S
H118 C132 0.960 . S
H119 C132 0.961 . S
H120 C132 0.959 . S
H121 C135 0.929 1_556 S
H122 C136 0.923 1_556 S
H123 C138 0.930 . S
C124 H112 0.930 . S
C124 C125 1.399 . S
C124 C129 1.399 . S
C125 C124 1.399 . S
C125 C126 1.376 . S
C126 H113 0.930 . S
C126 C125 1.376 . S
C126 C127 1.388 . S
C127 H114 0.930 . S
C127 C126 1.388 . S
C127 C128 1.390 . S
C128 C127 1.390 . S
C128 C129 1.394 . S
C128 C134 1.465 . S
C129 C124 1.399 . S
C129 C128 1.394 . S
C129 C130 1.516 . S
C130 C129 1.516 . S
C130 C131 1.502 . S
C130 C132 1.561 . S
C130 C133 1.526 . S
C131 H115 0.959 . S
C131 H116 0.959 . S
C131 H117 0.961 . S
C131 C130 1.502 . S
C132 H118 0.960 . S
C132 H119 0.961 . S
C132 H120 0.959 . S
C132 C130 1.561 . S
C133 C130 1.526 . S
C133 C134 1.396 . S
C133 C138 1.390 . S
C134 C128 1.465 . S
C134 C133 1.396 . S
C134 C135 1.399 . S
C135 H121 0.929 1_554 S
C135 C134 1.399 . S
C135 C136 1.386 . S
C136 H122 0.923 1_554 S
C136 C135 1.386 . S
C136 C137 1.396 . S
C137 C136 1.396 . S
C137 C138 1.387 . S
C138 H123 0.930 . S
C138 C133 1.390 . S
C138 C137 1.387 . S
H139 C151 0.930 . S
H140 C153 0.930 . S
H141 C154 0.930 . S
H142 C158 0.959 . S
H143 C158 0.959 . S
H144 C158 0.961 . S
H145 C159 0.960 . S
H146 C159 0.961 . S
H147 C159 0.959 . S
H148 C162 0.929 . S
H149 C163 0.931 . S
H150 C165 0.930 . S
C151 H139 0.930 . S
C151 C152 1.399 . S
C151 C156 1.399 . S
C152 C151 1.399 . S
C152 C153 1.376 . S
C153 H140 0.930 . S
C153 C152 1.376 . S
C153 C154 1.388 . S
C154 H141 0.930 . S
C154 C153 1.388 . S
C154 C155 1.390 . S
C155 C154 1.390 . S
C155 C156 1.394 . S
C155 C161 1.465 . S
C156 C151 1.399 . S
C156 C155 1.394 . S
C156 C157 1.516 . S
C157 C156 1.516 . S
C157 C158 1.502 . S
C157 C159 1.561 . S
C157 C160 1.526 . S
C158 H142 0.959 . S
C158 H143 0.959 . S
C158 H144 0.961 . S
C158 C157 1.502 . S
C159 H145 0.960 . S
C159 H146 0.961 . S
C159 H147 0.959 . S
C159 C157 1.561 . S
C160 C157 1.526 . S
C160 C161 1.396 . S
C160 C165 1.390 . S
C161 C155 1.465 . S
C161 C160 1.396 . S
C161 C162 1.399 . S
C162 H148 0.929 . S
C162 C161 1.399 . S
C162 C163 1.385 . S
C163 H149 0.931 . S
C163 C162 1.385 . S
C163 C164 1.389 . S
C164 C163 1.389 . S
C164 C165 1.387 . S
C165 H150 0.930 . S
C165 C160 1.390 . S
C165 C164 1.387 . S
H166 C178 0.930 . S
H167 C180 0.930 . S
H168 C181 0.930 . S
H169 C185 0.959 . S
H170 C185 0.959 . S
H171 C185 0.961 . S
H172 C186 0.960 . S
H173 C186 0.961 . S
H174 C186 0.959 . S
H175 C189 0.929 . S
H176 C190 0.931 . S
H177 C192 0.930 . S
C178 H166 0.930 . S
C178 C179 1.399 . S
C178 C183 1.399 . S
C179 C178 1.399 . S
C179 C180 1.376 . S
C180 H167 0.930 . S
C180 C179 1.376 . S
C180 C181 1.388 . S
C181 H168 0.930 . S
C181 C180 1.388 . S
C181 C182 1.390 . S
C182 C181 1.390 . S
C182 C183 1.394 . S
C182 C188 1.465 . S
C183 C178 1.399 . S
C183 C182 1.394 . S
C183 C184 1.516 . S
C184 C183 1.516 . S
C184 C185 1.502 . S
C184 C186 1.561 . S
C184 C187 1.526 . S
C185 H169 0.959 . S
C185 H170 0.959 . S
C185 H171 0.961 . S
C185 C184 1.502 . S
C186 H172 0.960 . S
C186 H173 0.961 . S
C186 H174 0.959 . S
C186 C184 1.561 . S
C187 C184 1.526 . S
C187 C188 1.396 . S
C187 C192 1.390 . S
C188 C182 1.465 . S
C188 C187 1.396 . S
C188 C189 1.399 . S
C189 H175 0.929 . S
C189 C188 1.399 . S
C189 C190 1.385 . S
C190 H176 0.931 . S
C190 C189 1.385 . S
C190 C191 1.389 . S
C191 C190 1.389 . S
C191 C192 1.387 . S
C192 H177 0.930 . S
C192 C187 1.390 . S
C192 C191 1.387 . S
H193 C205 0.930 . S
H194 C207 0.930 . S
H195 C208 0.930 . S
H196 C212 0.959 . S
H197 C212 0.959 . S
H198 C212 0.961 . S
H199 C213 0.960 . S
H200 C213 0.961 . S
H201 C213 0.959 . S
H202 C216 0.929 . S
H203 C217 0.931 . S
H204 C219 0.930 . S
C205 H193 0.930 . S
C205 C206 1.399 . S
C205 C210 1.399 . S
C206 C205 1.399 . S
C206 C207 1.376 . S
C207 H194 0.930 . S
C207 C206 1.376 . S
C207 C208 1.388 . S
C208 H195 0.930 . S
C208 C207 1.388 . S
C208 C209 1.390 . S
C209 C208 1.390 . S
C209 C210 1.394 . S
C209 C215 1.465 . S
C210 C205 1.399 . S
C210 C209 1.394 . S
C210 C211 1.516 . S
C211 C210 1.516 . S
C211 C212 1.502 . S
C211 C213 1.561 . S
C211 C214 1.526 . S
C212 H196 0.959 . S
C212 H197 0.959 . S
C212 H198 0.961 . S
C212 C211 1.502 . S
C213 H199 0.960 . S
C213 H200 0.961 . S
C213 H201 0.959 . S
C213 C211 1.561 . S
C214 C211 1.526 . S
C214 C215 1.396 . S
C214 C219 1.390 . S
C215 C209 1.465 . S
C215 C214 1.396 . S
C215 C216 1.399 . S
C216 H202 0.929 . S
C216 C215 1.399 . S
C216 C217 1.385 . S
C217 H203 0.931 . S
C217 C216 1.385 . S
C217 C218 1.389 . S
C218 C217 1.389 . S
C218 C219 1.387 . S
C219 H204 0.930 . S
C219 C214 1.390 . S
C219 C218 1.387 . S
H220 C232 0.930 . S
H221 C234 0.930 . S
H222 C235 0.930 . S
H223 C239 0.959 . S
H224 C239 0.959 . S
H225 C239 0.961 . S
H226 C240 0.960 . S
H227 C240 0.961 . S
H228 C240 0.959 . S
H229 C243 0.929 . S
H230 C244 0.931 . S
H231 C246 0.930 . S
C232 H220 0.930 . S
C232 C233 1.399 . S
C232 C237 1.399 . S
C233 C232 1.399 . S
C233 C234 1.376 . S
C234 H221 0.930 . S
C234 C233 1.376 . S
C234 C235 1.388 . S
C235 H222 0.930 . S
C235 C234 1.388 . S
C235 C236 1.390 . S
C236 C235 1.390 . S
C236 C237 1.394 . S
C236 C242 1.465 1_565 S
C237 C232 1.399 . S
C237 C236 1.394 . S
C237 C238 1.516 . S
C238 C237 1.516 . S
C238 C239 1.502 . S
C238 C240 1.561 . S
C238 C241 1.526 1_565 S
C239 H223 0.959 . S
C239 H224 0.959 . S
C239 H225 0.961 . S
C239 C238 1.502 . S
C240 H226 0.960 . S
C240 H227 0.961 . S
C240 H228 0.959 . S
C240 C238 1.561 . S
C241 C238 1.526 1_545 S
C241 C242 1.396 . S
C241 C246 1.390 . S
C242 C236 1.465 1_545 S
C242 C241 1.396 . S
C242 C243 1.399 . S
C243 H229 0.929 . S
C243 C242 1.399 . S
C243 C244 1.385 . S
C244 H230 0.931 . S
C244 C243 1.385 . S
C244 C245 1.389 . S
C245 C244 1.389 . S
C245 C246 1.387 . S
C246 H231 0.930 . S
C246 C241 1.390 . S
C246 C245 1.387 . S
H247 C259 0.930 . S
H248 C261 0.930 . S
H249 C262 0.930 . S
H250 C266 0.959 . S
H251 C266 0.959 . S
H252 C266 0.961 1_455 S
H253 C267 0.991 . S
H254 C267 0.934 1_655 S
H255 C267 0.957 1_655 S
H256 C270 0.929 . S
H257 C271 0.931 . S
H258 C273 0.930 . S
C259 H247 0.930 . S
C259 C260 1.399 . S
C259 C264 1.399 . S
C260 C259 1.399 . S
C260 C261 1.376 . S
C261 H248 0.930 . S
C261 C260 1.376 . S
C261 C262 1.388 . S
C262 H249 0.930 . S
C262 C261 1.388 . S
C262 C263 1.390 . S
C263 C262 1.390 . S
C263 C264 1.394 . S
C263 C269 1.465 1_455 S
C264 C259 1.399 . S
C264 C263 1.394 . S
C264 C265 1.516 1_455 S
C265 C264 1.516 1_655 S
C265 C266 1.502 . S
C265 C267 1.561 1_655 S
C265 C268 1.526 . S
C266 H250 0.959 . S
C266 H251 0.959 . S
C266 H252 0.961 1_655 S
C266 C265 1.502 . S
C267 H253 0.991 . S
C267 H254 0.934 1_455 S
C267 H255 0.957 1_455 S
C267 C265 1.561 1_455 S
C268 C265 1.526 . S
C268 C269 1.396 . S
C268 C273 1.390 . S
C269 C263 1.465 1_655 S
C269 C268 1.396 . S
C269 C270 1.399 . S
C270 H256 0.929 . S
C270 C269 1.399 . S
C270 C271 1.385 . S
C271 H257 0.931 . S
C271 C270 1.385 . S
C271 C272 1.389 . S
C272 C271 1.389 . S
C272 C273 1.387 . S
C273 H258 0.930 . S
C273 C268 1.390 . S
C273 C272 1.387 . S
H274 C286 0.930 . S
H275 C288 0.930 . S
H276 C289 0.930 . S
H277 C293 0.959 . S
H278 C293 0.959 . S
H279 C293 0.961 . S
H280 C294 0.960 . S
H281 C294 0.961 . S
H282 C294 0.959 . S
H283 C297 0.929 . S
H284 C298 0.931 . S
H285 C300 0.930 . S
C286 H274 0.930 . S
C286 C287 1.399 . S
C286 C291 1.399 . S
C287 C286 1.399 . S
C287 C288 1.376 . S
C288 H275 0.930 . S
C288 C287 1.376 . S
C288 C289 1.388 . S
C289 H276 0.930 . S
C289 C288 1.388 . S
C289 C290 1.390 . S
C290 C289 1.390 . S
C290 C291 1.394 . S
C290 C296 1.465 1_545 S
C291 C286 1.399 . S
C291 C290 1.394 . S
C291 C292 1.516 1_545 S
C292 C291 1.516 1_565 S
C292 C293 1.502 . S
C292 C294 1.561 . S
C292 C295 1.526 . S
C293 H277 0.959 . S
C293 H278 0.959 . S
C293 H279 0.961 . S
C293 C292 1.502 . S
C294 H280 0.960 . S
C294 H281 0.961 . S
C294 H282 0.959 . S
C294 C292 1.561 . S
C295 C292 1.526 . S
C295 C296 1.396 . S
C295 C300 1.390 . S
C296 C290 1.465 1_565 S
C296 C295 1.396 . S
C296 C297 1.399 . S
C297 H283 0.929 . S
C297 C296 1.399 . S
C297 C298 1.385 . S
C298 H284 0.931 . S
C298 C297 1.385 . S
C298 C299 1.389 . S
C299 C298 1.389 . S
C299 C300 1.387 . S
C300 H285 0.930 . S
C300 C295 1.390 . S
C300 C299 1.387 . S
H301 C313 0.930 . S
H302 C315 0.930 . S
H303 C316 0.930 . S
H304 C320 0.959 . S
H305 C320 0.959 . S
H306 C320 0.961 1_655 S
H307 C321 0.960 1_655 S
H308 C321 0.961 . S
H309 C321 0.959 . S
H310 C324 0.929 . S
H311 C325 0.931 . S
H312 C327 0.930 . S
C313 H301 0.930 . S
C313 C314 1.399 . S
C313 C318 1.399 . S
C314 C313 1.399 . S
C314 C315 1.376 . S
C315 H302 0.930 . S
C315 C314 1.376 . S
C315 C316 1.388 . S
C316 H303 0.930 . S
C316 C315 1.388 . S
C316 C317 1.390 . S
C317 C316 1.390 . S
C317 C318 1.394 . S
C317 C323 1.465 1_655 S
C318 C313 1.399 . S
C318 C317 1.394 . S
C318 C319 1.516 1_655 S
C319 C318 1.516 1_455 S
C319 C320 1.502 . S
C319 C321 1.561 . S
C319 C322 1.526 . S
C320 H304 0.959 . S
C320 H305 0.959 . S
C320 H306 0.961 1_455 S
C320 C319 1.502 . S
C321 H307 0.960 1_455 S
C321 H308 0.961 . S
C321 H309 0.959 . S
C321 C319 1.561 . S
C322 C319 1.526 . S
C322 C323 1.396 . S
C322 C327 1.390 . S
C323 C317 1.465 1_455 S
C323 C322 1.396 . S
C323 C324 1.399 . S
C324 H310 0.929 . S
C324 C323 1.399 . S
C324 C325 1.385 . S
C325 H311 0.931 . S
C325 C324 1.385 . S
C325 C326 1.389 . S
C326 C325 1.389 . S
C326 C327 1.387 . S
C327 H312 0.930 . S
C327 C322 1.390 . S
C327 C326 1.387 . S
H328 C340 0.930 . S
H329 C342 0.930 . S
H330 C343 0.930 . S
H331 C347 0.959 . S
H332 C347 0.959 . S
H333 C347 0.961 . S
H334 C348 0.960 . S
H335 C348 0.961 . S
H336 C348 0.959 . S
H337 C351 0.929 . S
H338 C352 0.931 . S
H339 C354 0.930 . S
C340 H328 0.930 . S
C340 C341 1.399 . S
C340 C345 1.399 . S
C341 C340 1.399 . S
C341 C342 1.376 . S
C342 H329 0.930 . S
C342 C341 1.376 . S
C342 C343 1.388 . S
C343 H330 0.930 . S
C343 C342 1.388 . S
C343 C344 1.390 . S
C344 C343 1.390 . S
C344 C345 1.394 . S
C344 C350 1.465 . S
C345 C340 1.399 . S
C345 C344 1.394 . S
C345 C346 1.516 . S
C346 C345 1.516 . S
C346 C347 1.502 . S
C346 C348 1.561 . S
C346 C349 1.526 . S
C347 H331 0.959 . S
C347 H332 0.959 . S
C347 H333 0.961 . S
C347 C346 1.502 . S
C348 H334 0.960 . S
C348 H335 0.961 . S
C348 H336 0.959 . S
C348 C346 1.561 . S
C349 C346 1.526 . S
C349 C350 1.396 . S
C349 C354 1.390 . S
C350 C344 1.465 . S
C350 C349 1.396 . S
C350 C351 1.399 . S
C351 H337 0.929 . S
C351 C350 1.399 . S
C351 C352 1.385 . S
C352 H338 0.931 . S
C352 C351 1.385 . S
C352 C353 1.389 . S
C353 C352 1.389 . S
C353 C354 1.387 . S
C354 H339 0.930 . S
C354 C349 1.390 . S
C354 C353 1.387 . S
H355 C367 0.930 . S
H356 C369 0.930 . S
H357 C370 0.930 . S
H358 C374 0.959 . S
H359 C374 0.959 . S
H360 C374 0.961 . S
H361 C375 0.960 . S
H362 C375 0.961 . S
H363 C375 0.959 . S
H364 C378 0.929 . S
H365 C379 0.931 . S
H366 C381 0.930 . S
C367 H355 0.930 . S
C367 C368 1.399 . S
C367 C372 1.399 . S
C368 C367 1.399 . S
C368 C369 1.376 . S
C369 H356 0.930 . S
C369 C368 1.376 . S
C369 C370 1.388 . S
C370 H357 0.930 . S
C370 C369 1.388 . S
C370 C371 1.390 . S
C371 C370 1.390 . S
C371 C372 1.394 . S
C371 C377 1.465 . S
C372 C367 1.399 . S
C372 C371 1.394 . S
C372 C373 1.516 . S
C373 C372 1.516 . S
C373 C374 1.502 . S
C373 C375 1.561 . S
C373 C376 1.526 . S
C374 H358 0.959 . S
C374 H359 0.959 . S
C374 H360 0.961 . S
C374 C373 1.502 . S
C375 H361 0.960 . S
C375 H362 0.961 . S
C375 H363 0.959 . S
C375 C373 1.561 . S
C376 C373 1.526 . S
C376 C377 1.396 . S
C376 C381 1.390 . S
C377 C371 1.465 . S
C377 C376 1.396 . S
C377 C378 1.399 . S
C378 H364 0.929 . S
C378 C377 1.399 . S
C378 C379 1.385 . S
C379 H365 0.931 . S
C379 C378 1.385 . S
C379 C380 1.389 . S
C380 C379 1.389 . S
C380 C381 1.387 . S
C381 H366 0.930 . S
C381 C376 1.390 . S
C381 C380 1.387 . S
H382 C394 0.930 . S
H383 C396 0.930 . S
H384 C397 0.930 . S
H385 C401 0.959 . S
H386 C401 0.959 . S
H387 C401 0.961 . S
H388 C402 0.960 . S
H389 C402 0.961 . S
H390 C402 0.959 . S
H391 C405 0.929 . S
H392 C406 0.931 . S
H393 C408 0.930 . S
C394 H382 0.930 . S
C394 C395 1.399 . S
C394 C399 1.399 . S
C395 C394 1.399 . S
C395 C396 1.376 . S
C396 H383 0.930 . S
C396 C395 1.376 . S
C396 C397 1.388 . S
C397 H384 0.930 . S
C397 C396 1.388 . S
C397 C398 1.390 . S
C398 C397 1.390 . S
C398 C399 1.394 . S
C398 C404 1.465 . S
C399 C394 1.399 . S
C399 C398 1.394 . S
C399 C400 1.516 . S
C400 C399 1.516 . S
C400 C401 1.502 . S
C400 C402 1.561 . S
C400 C403 1.526 . S
C401 H385 0.959 . S
C401 H386 0.959 . S
C401 H387 0.961 . S
C401 C400 1.502 . S
C402 H388 0.960 . S
C402 H389 0.961 . S
C402 H390 0.959 . S
C402 C400 1.561 . S
C403 C400 1.526 . S
C403 C404 1.396 . S
C403 C408 1.390 . S
C404 C398 1.465 . S
C404 C403 1.396 . S
C404 C405 1.399 . S
C405 H391 0.929 . S
C405 C404 1.399 . S
C405 C406 1.385 . S
C406 H392 0.931 . S
C406 C405 1.385 . S
C406 C407 1.389 . S
C407 C406 1.389 . S
C407 C408 1.387 . S
C408 H393 0.930 . S
C408 C403 1.390 . S
C408 C407 1.387 . S
H409 C421 0.930 . S
H410 C423 0.930 . S
H411 C424 0.930 . S
H412 C428 0.959 . S
H413 C428 0.959 . S
H414 C428 0.961 . S
H415 C429 0.960 . S
H416 C429 0.961 . S
H417 C429 0.959 . S
H418 C432 0.929 . S
H419 C433 0.931 . S
H420 C435 0.930 . S
C421 H409 0.930 . S
C421 C422 1.399 . S
C421 C426 1.399 . S
C422 C421 1.399 . S
C422 C423 1.376 . S
C423 H410 0.930 . S
C423 C422 1.376 . S
C423 C424 1.388 . S
C424 H411 0.930 . S
C424 C423 1.388 . S
C424 C425 1.390 . S
C425 C424 1.390 . S
C425 C426 1.394 . S
C425 C431 1.465 . S
C426 C421 1.399 . S
C426 C425 1.394 . S
C426 C427 1.516 . S
C427 C426 1.516 . S
C427 C428 1.502 . S
C427 C429 1.561 . S
C427 C430 1.526 . S
C428 H412 0.959 . S
C428 H413 0.959 . S
C428 H414 0.961 . S
C428 C427 1.502 . S
C429 H415 0.960 . S
C429 H416 0.961 . S
C429 H417 0.959 . S
C429 C427 1.561 . S
C430 C427 1.526 . S
C430 C431 1.396 . S
C430 C435 1.390 . S
C431 C425 1.465 . S
C431 C430 1.396 . S
C431 C432 1.399 . S
C432 H418 0.929 . S
C432 C431 1.399 . S
C432 C433 1.385 . S
C433 H419 0.931 . S
C433 C432 1.385 . S
C433 C434 1.389 . S
C434 C433 1.389 . S
C434 C435 1.387 . S
C435 H420 0.930 . S
C435 C430 1.390 . S
C435 C434 1.387 . S
H436 C448 0.930 . S
H437 C450 0.930 . S
H438 C451 0.930 . S
H439 C455 0.959 . S
H440 C455 0.959 . S
H441 C455 0.961 . S
H442 C456 0.960 . S
H443 C456 0.961 . S
H444 C456 0.959 . S
H445 C459 0.929 . S
H446 C460 0.931 . S
H447 C462 0.930 . S
C448 H436 0.930 . S
C448 C449 1.399 . S
C448 C453 1.399 . S
C449 C448 1.399 . S
C449 C450 1.376 . S
C450 H437 0.930 . S
C450 C449 1.376 . S
C450 C451 1.388 . S
C451 H438 0.930 . S
C451 C450 1.388 . S
C451 C452 1.390 . S
C452 C451 1.390 . S
C452 C453 1.394 . S
C452 C458 1.465 . S
C453 C448 1.399 . S
C453 C452 1.394 . S
C453 C454 1.516 . S
C454 C453 1.516 . S
C454 C455 1.502 . S
C454 C456 1.561 . S
C454 C457 1.526 . S
C455 H439 0.959 . S
C455 H440 0.959 . S
C455 H441 0.961 . S
C455 C454 1.502 . S
C456 H442 0.960 . S
C456 H443 0.961 . S
C456 H444 0.959 . S
C456 C454 1.561 . S
C457 C454 1.526 . S
C457 C458 1.396 . S
C457 C462 1.390 . S
C458 C452 1.465 . S
C458 C457 1.396 . S
C458 C459 1.399 . S
C459 H445 0.929 . S
C459 C458 1.399 . S
C459 C460 1.385 . S
C460 H446 0.931 . S
C460 C459 1.385 . S
C460 C461 1.389 . S
C461 C460 1.389 . S
C461 C462 1.387 . S
C462 H447 0.930 . S
C462 C457 1.390 . S
C462 C461 1.387 . S
H463 C475 0.930 . S
H464 C477 0.930 . S
H465 C478 0.930 1_554 S
H466 C482 0.959 . S
H467 C482 0.959 . S
H468 C482 0.961 . S
H469 C483 0.960 . S
H470 C483 0.961 . S
H471 C483 0.959 . S
H472 C486 0.929 . S
H473 C487 0.931 . S
H474 C489 0.930 . S
C475 H463 0.930 . S
C475 C476 1.399 1_556 S
C475 C480 1.399 . S
C476 C475 1.399 1_554 S
C476 C477 1.376 . S
C477 H464 0.930 . S
C477 C476 1.376 . S
C477 C478 1.388 1_554 S
C478 H465 0.930 1_556 S
C478 C477 1.388 1_556 S
C478 C479 1.390 . S
C479 C478 1.390 . S
C479 C480 1.394 . S
C479 C485 1.465 . S
C480 C475 1.399 . S
C480 C479 1.394 . S
C480 C481 1.516 . S
C481 C480 1.516 . S
C481 C482 1.502 . S
C481 C483 1.561 . S
C481 C484 1.526 . S
C482 H466 0.959 . S
C482 H467 0.959 . S
C482 H468 0.961 . S
C482 C481 1.502 . S
C483 H469 0.960 . S
C483 H470 0.961 . S
C483 H471 0.959 . S
C483 C481 1.561 . S
C484 C481 1.526 . S
C484 C485 1.396 . S
C484 C489 1.390 . S
C485 C479 1.465 . S
C485 C484 1.396 . S
C485 C486 1.399 . S
C486 H472 0.929 . S
C486 C485 1.399 . S
C486 C487 1.385 . S
C487 H473 0.931 . S
C487 C486 1.385 . S
C487 C488 1.389 . S
C488 C487 1.389 . S
C488 C489 1.387 . S
C489 H474 0.930 . S
C489 C484 1.390 . S
C489 C488 1.387 . S
H490 C502 0.930 . S
H491 C504 0.930 . S
H492 C505 0.930 . S
H493 C509 0.959 . S
H494 C509 0.959 . S
H495 C509 0.961 . S
H496 C510 0.960 . S
H497 C510 0.961 . S
H498 C510 0.959 . S
H499 C513 0.929 . S
H500 C514 0.931 . S
H501 C516 0.930 . S
C502 H490 0.930 . S
C502 C503 1.399 . S
C502 C507 1.399 . S
C503 C502 1.399 . S
C503 C504 1.376 . S
C504 H491 0.930 . S
C504 C503 1.376 . S
C504 C505 1.388 . S
C505 H492 0.930 . S
C505 C504 1.388 . S
C505 C506 1.390 . S
C506 C505 1.390 . S
C506 C507 1.394 . S
C506 C512 1.465 . S
C507 C502 1.399 . S
C507 C506 1.394 . S
C507 C508 1.516 . S
C508 C507 1.516 . S
C508 C509 1.502 . S
C508 C510 1.561 . S
C508 C511 1.526 . S
C509 H493 0.959 . S
C509 H494 0.959 . S
C509 H495 0.961 . S
C509 C508 1.502 . S
C510 H496 0.960 . S
C510 H497 0.961 . S
C510 H498 0.959 . S
C510 C508 1.561 . S
C511 C508 1.526 . S
C511 C512 1.396 . S
C511 C516 1.390 . S
C512 C506 1.465 . S
C512 C511 1.396 . S
C512 C513 1.399 . S
C513 H499 0.929 . S
C513 C512 1.399 . S
C513 C514 1.385 . S
C514 H500 0.931 . S
C514 C513 1.385 . S
C514 C515 1.389 . S
C515 C514 1.389 . S
C515 C516 1.387 . S
C516 H501 0.930 . S
C516 C511 1.390 . S
C516 C515 1.387 . S
H517 C529 0.930 . S
H518 C531 0.930 . S
H519 C532 0.930 . S
H520 C536 0.959 . S
H521 C536 0.959 . S
H522 C536 0.961 . S
H523 C537 0.960 . S
H524 C537 0.961 . S
H525 C537 0.959 . S
H526 C540 0.929 . S
H527 C541 0.931 . S
H528 C543 0.930 . S
C529 H517 0.930 . S
C529 C530 1.399 1_556 S
C529 C534 1.399 . S
C530 C529 1.399 1_554 S
C530 C531 1.376 . S
C531 H518 0.930 . S
C531 C530 1.376 . S
C531 C532 1.388 1_554 S
C532 H519 0.930 . S
C532 C531 1.388 1_556 S
C532 C533 1.390 . S
C533 C532 1.390 . S
C533 C534 1.394 . S
C533 C539 1.465 . S
C534 C529 1.399 . S
C534 C533 1.394 . S
C534 C535 1.516 . S
C535 C534 1.516 . S
C535 C536 1.502 . S
C535 C537 1.561 . S
C535 C538 1.526 . S
C536 H520 0.959 . S
C536 H521 0.959 . S
C536 H522 0.961 . S
C536 C535 1.502 . S
C537 H523 0.960 . S
C537 H524 0.961 . S
C537 H525 0.959 . S
C537 C535 1.561 . S
C538 C535 1.526 . S
C538 C539 1.396 . S
C538 C543 1.390 . S
C539 C533 1.465 . S
C539 C538 1.396 . S
C539 C540 1.399 . S
C540 H526 0.929 . S
C540 C539 1.399 . S
C540 C541 1.385 . S
C541 H527 0.931 . S
C541 C540 1.385 . S
C541 C542 1.389 . S
C542 C541 1.389 . S
C542 C543 1.387 . S
C543 H528 0.930 . S
C543 C538 1.390 . S
C543 C542 1.387 . S
C125 C7 1.452 . S
C137 C49 1.546 . S
C152 C9 1.585 . S
C164 C23 1.569 . S
C179 C21 1.510 . S
C191 C35 1.476 . S
C206 C51 1.577 . S
C218 C37 1.569 . S
C233 C63 1.542 . S
C245 C105 1.451 . S
C260 C79 1.603 . S
C272 C65 1.611 . S
C287 C91 1.453 . S
C299 C77 1.546 . S
C314 C107 1.574 . S
C326 C93 1.596 . S
C341 C92 1.556 . S
C353 C6 1.448 . S
C368 C22 1.553 . S
C380 C104 1.441 . S
C395 C64 1.534 . S
C407 C34 1.514 . S
C422 C76 1.501 . S
C434 C50 1.558 . S
C449 C78 1.535 . S
C461 C48 1.515 . S
C476 C8 1.530 . S
C488 C90 1.505 . S
C503 C20 1.470 . S
C515 C106 1.560 . S
C530 C36 1.534 . S
C542 C62 1.514 . S
