# Generated by pormake.
# Topology sxb, (6)-cn, num edge types: 1
# Building blocks:
#     Node 0, Type 0, BuildingBlock: GEDQOX_clean_sbu_0, # of connection points: 6
#     Node 1, Type 0, BuildingBlock: GEDQOX_clean_sbu_0, # of connection points: 6
#     Node 2, Type 0, BuildingBlock: GEDQOX_clean_sbu_0, # of connection points: 6
#     Node 3, Type 0, BuildingBlock: GEDQOX_clean_sbu_0, # of connection points: 6
#     Edge 4, Type (0, 0), BuildingBlock: FUNLAD_clean_linker_1, # of connection points: 2
#     Edge 5, Type (0, 0), BuildingBlock: FUNLAD_clean_linker_1, # of connection points: 2
#     Edge 6, Type (0, 0), BuildingBlock: FUNLAD_clean_linker_1, # of connection points: 2
#     Edge 7, Type (0, 0), BuildingBlock: FUNLAD_clean_linker_1, # of connection points: 2
#     Edge 8, Type (0, 0), BuildingBlock: FUNLAD_clean_linker_1, # of connection points: 2
#     Edge 9, Type (0, 0), BuildingBlock: FUNLAD_clean_linker_1, # of connection points: 2
#     Edge 10, Type (0, 0), BuildingBlock: FUNLAD_clean_linker_1, # of connection points: 2
#     Edge 11, Type (0, 0), BuildingBlock: FUNLAD_clean_linker_1, # of connection points: 2
#     Edge 12, Type (0, 0), BuildingBlock: FUNLAD_clean_linker_1, # of connection points: 2
#     Edge 13, Type (0, 0), BuildingBlock: FUNLAD_clean_linker_1, # of connection points: 2
#     Edge 14, Type (0, 0), BuildingBlock: FUNLAD_clean_linker_1, # of connection points: 2
#     Edge 15, Type (0, 0), BuildingBlock: FUNLAD_clean_linker_1, # of connection points: 2
# Relax obj value: 0.374
# Max RMSD: 0.130
# Mean RMSD: 0.080
data_MOF--net-sxb--node1-GEDQOX_clean_sbu_0--edge1-FUNLAD_clean_linker_1
_symmetry_space_group_name_H-M    P1
_symmetry_Int_Tables_number       1
_symmetry_cell_setting            triclinic
loop_
_symmetry_equiv_pos_as_xyz
'x, y, z'
_cell_length_a     17.274795
_cell_length_b     36.351666
_cell_length_c     31.37299
_cell_angle_alpha  87.78831
_cell_angle_beta   92.853705
_cell_angle_gamma 112.66074
loop_
_atom_site_label
_atom_site_type_symbol
_atom_site_fract_x
_atom_site_fract_y
_atom_site_fract_z
_atom_type_partial_charge
Nd0 Nd 0.24318 0.10456 0.9766 0.0
Nd1 Nd 1.1594 1.02151 0.98337 0.0
C2 C 0.33458 0.18009 0.99255 0.0
C3 C 0.31615 0.21085 0.01378 0.0
C4 C 0.25992 0.20027 0.04717 0.0
C5 C 0.22859 0.22753 0.06129 0.0
C6 C 0.25184 0.26547 0.04158 0.0
C7 C 0.31385 0.27712 0.01096 0.0
C8 C 0.34552 0.24985 -0.00306 0.0
C9 C 1.20372 0.07213 0.8965 0.0
C10 C 1.0353 0.07402 0.97906 0.0
C11 C 1.06449 0.9453 0.97252 0.0
C12 C 1.0747 0.90977 0.95748 0.0
C13 C 1.11781 0.9112 0.92025 0.0
C14 C 1.13747 0.87889 0.90998 0.0
C15 C 1.1159 0.84524 0.93722 0.0
C16 C 1.06779 0.84275 0.97283 0.0
C17 C 1.04721 0.87484 0.98281 0.0
C18 C 1.20081 1.05528 0.06285 0.0
C19 C 0.36697 1.0518 0.97934 0.0
O20 O 0.33737 0.15053 0.01687 0.0
O21 O 0.29296 0.16825 0.95638 0.0
O22 O 1.19731 0.10506 0.90663 0.0
O23 O 0.23213 1.05764 0.92796 0.0
O24 O 1.1079 0.10516 0.98317 0.0
O25 O 1.03836 1.03828 0.97568 0.0
O26 O 1.06882 0.97326 0.94411 0.0
O27 O 1.10442 0.95942 0.00847 0.0
O28 O 0.2128 1.02378 0.05238 0.0
O29 O 1.16897 0.06828 0.03154 0.0
O30 O 0.2942 1.02059 0.97596 0.0
O31 O 0.36423 0.08766 0.98253 0.0
H32 H 0.23661 0.1703 0.06077 0.0
H33 H 1.18304 0.21812 0.08604 0.0
H34 H 0.33325 0.30632 -0.0044 0.0
H35 H 0.38899 0.25847 0.97119 0.0
H36 H 1.13971 0.93787 0.90017 0.0
H37 H 1.17467 0.88133 0.88241 0.0
H38 H 1.04926 0.81673 -0.00609 0.0
H39 H 1.01328 0.87313 0.01145 0.0
Nd40 Nd 1.15594 0.0765 0.48108 0.0
Nd41 Nd 0.32216 0.08387 0.48492 0.0
C42 C 1.00455 0.07313 0.49601 0.0
C43 C 0.93427 1.04305 0.51898 0.0
C44 C 0.92858 1.04589 0.56313 0.0
C45 C 0.86289 1.0176 0.58504 0.0
C46 C 0.79915 0.98707 0.5629 0.0
C47 C 0.80684 0.98266 0.51933 0.0
C48 C 0.87369 1.01058 0.49743 0.0
C49 C 1.20912 0.07352 0.39983 0.0
C50 C 1.17478 0.99245 0.48099 0.0
C51 C 0.47565 0.08531 0.48393 0.0
C52 C 0.55395 0.11086 0.5066 0.0
C53 C 0.61863 0.13979 0.48395 0.0
C54 C 0.69282 0.16401 0.5053 0.0
C55 C 0.7041 0.15889 0.54937 0.0
C56 C 0.63767 0.13177 0.57243 0.0
C57 C 0.5635 0.10779 0.55125 0.0
C58 C 0.26909 0.09021 0.56501 0.0
C59 C 0.30521 0.16954 0.48083 0.0
O60 O 1.07122 0.09381 0.51917 0.0
O61 O 1.02328 1.06219 0.46008 0.0
O62 O 1.13638 1.05079 0.41355 0.0
O63 O 0.25155 0.09751 0.42828 0.0
O64 O 1.12634 1.00938 0.49519 0.0
O65 O 0.25053 1.01594 0.46835 0.0
O66 O 0.44527 0.10287 0.45437 0.0
O67 O 0.41743 1.06005 0.5074 0.0
O68 O 0.338 0.11447 0.54903 0.0
O69 O 0.22774 1.06379 0.53835 0.0
O70 O 0.35929 0.15232 0.4779 0.0
O71 O 0.22412 0.14676 0.48389 0.0
H72 H 0.97375 0.07057 0.58059 0.0
H73 H 0.8586 1.02097 0.61883 0.0
H74 H 0.75818 0.95931 0.50169 0.0
H75 H 0.87655 1.00734 0.46344 0.0
H76 H 0.61241 0.14318 0.44964 0.0
H77 H 0.74343 0.18487 0.48702 0.0
H78 H 0.64462 0.12791 0.60663 0.0
H79 H 0.51434 0.08646 0.56993 0.0
Nd80 Nd 0.71588 0.59846 0.98764 0.0
Nd81 Nd 0.66 0.51663 0.98511 0.0
C82 C 0.74187 0.673 0.00409 0.0
C83 C 0.69018 0.69601 -0.00678 0.0
C84 C 0.69058 0.72577 0.02032 0.0
C85 C 0.63244 0.74366 0.01312 0.0
C86 C 0.57277 0.73165 0.97906 0.0
C87 C 0.57539 0.70306 0.9508 0.0
C88 C 0.63312 0.68516 0.95811 0.0
C89 C 0.69661 0.57339 0.90379 0.0
C90 C 0.50539 0.54915 0.98261 0.0
C91 C 0.63083 0.44146 0.96929 0.0
C92 C 0.6823 0.41738 0.974 0.0
C93 C 0.76699 0.43353 0.96325 0.0
C94 C 0.81797 0.41221 0.9722 0.0
C95 C 0.7853 0.37442 0.99247 0.0
C96 C 0.69976 0.35767 0.00156 0.0
C97 C 0.64868 0.37909 0.99261 0.0
C98 C 0.66777 0.54069 0.06813 0.0
C99 C 0.87048 0.56661 0.9898 0.0
O100 O 0.70872 0.64349 0.03117 0.0
O101 O 0.77446 0.66302 0.97197 0.0
O102 O 0.76084 0.60319 0.91847 0.0
O103 O 0.64526 0.5578 0.9329 0.0
O104 O 0.56819 0.58358 0.9916 0.0
O105 O 0.52552 0.5184 0.97446 0.0
O106 O 0.65248 0.46985 0.94005 0.0
O107 O 0.61213 0.45281 0.00496 0.0
O108 O 0.60443 0.51248 0.05055 0.0
O109 O 0.72529 0.55671 0.04162 0.0
O110 O 0.80785 0.53229 0.98036 0.0
O111 O 0.8502 0.5971 -0.00152 0.0
H112 H 0.73387 0.7342 0.04776 0.0
H113 H 0.63224 0.76593 0.03505 0.0
H114 H 0.53269 0.69402 0.92328 0.0
H115 H 0.63162 0.662 0.93694 0.0
H116 H 0.79437 0.46289 0.94851 0.0
H117 H 0.88271 0.4255 0.9631 0.0
H118 H 0.67288 0.32837 0.0166 0.0
H119 H 0.58345 0.36618 0.00114 0.0
Nd120 Nd 0.66393 0.57974 0.47765 0.0
Nd121 Nd 0.82039 0.58223 0.49591 0.0
C122 C 0.51622 0.58512 0.46699 0.0
C123 C 0.43459 0.5588 0.44863 0.0
C124 C 0.39877 0.51813 0.46033 0.0
C125 C 0.31688 0.49484 0.4465 0.0
C126 C 0.27026 0.51207 0.42111 0.0
C127 C 0.30969 0.55123 0.40522 0.0
C128 C 0.39109 0.57466 0.4194 0.0
C129 C 0.7338 0.57038 0.40297 0.0
C130 C 0.66595 0.49216 0.48527 0.0
C131 C 0.96721 0.57652 0.50972 0.0
C132 C 1.04674 0.60154 0.53116 0.0
C133 C 1.08517 0.64264 0.52187 0.0
C134 C 1.16563 0.66468 0.53865 0.0
C135 C 1.20822 0.64573 0.56453 0.0
C136 C 1.1655 0.60604 0.57812 0.0
C137 C 1.08563 0.58389 0.561 0.0
C138 C 0.75443 0.5958 0.56948 0.0
C139 C 0.81844 0.66988 0.48493 0.0
O140 O 0.5418 0.57326 0.50286 0.0
O141 O 0.57595 0.60067 0.4401 0.0
O142 O 0.65913 0.54805 0.41464 0.0
O143 O 0.77142 0.59552 0.43143 0.0
O144 O 0.61525 0.5111 0.48846 0.0
O145 O 0.74742 0.5137 0.48228 0.0
O146 O 0.94591 0.59033 0.4739 0.0
O147 O 0.90426 0.55955 0.53448 0.0
O148 O 0.82696 0.61791 0.5554 0.0
O149 O 0.71494 0.56843 0.54328 0.0
O150 O 0.8688 0.65063 0.48197 0.0
O151 O 0.73717 0.64858 0.48916 0.0
H152 H 0.43208 0.50488 0.48197 0.0
H153 H 0.28736 0.46466 0.45906 0.0
H154 H 0.27466 0.56485 0.38524 0.0
H155 H 0.4184 0.6057 0.40926 0.0
H156 H 1.05526 0.65722 0.49983 0.0
H157 H 1.19762 0.69532 0.52793 0.0
H158 H 1.19725 0.59111 0.59854 0.0
H159 H 1.05616 0.55247 0.56934 0.0
H160 H 0.51972 0.77663 0.9907 0.0
C161 C 0.50802 0.74898 0.97443 0.0
H162 H 0.4169 0.7019 0.9397 0.0
H163 H 1.10893 0.73635 -0.00157 0.0
H164 H 1.08324 0.67135 0.03122 0.0
H165 H 1.18876 0.64116 0.02932 0.0
H166 H 0.3198 0.67544 -0.00603 0.0
C167 C 0.43384 0.731 0.9534 0.0
C168 C 0.36896 0.74835 0.95266 0.0
C169 C 0.29296 0.72784 0.97369 0.0
C170 C 0.23328 0.7457 0.97592 0.0
C171 C 1.15715 0.72442 -0.0035 0.0
C172 C 1.1415 0.68704 0.01536 0.0
C173 C 1.20088 0.67005 0.01426 0.0
C174 C 0.27581 0.69004 -0.00627 0.0
H175 H 1.16572 0.8101 0.89883 0.0
C176 C 1.15427 0.81604 0.93114 0.0
H177 H 1.18427 0.81133 -0.00322 0.0
H178 H 0.5015 0.79243 0.90345 0.0
H179 H 0.53347 0.85985 0.8762 0.0
H180 H 0.43958 0.89476 0.88879 0.0
H181 H 0.31221 0.86206 0.92715 0.0
C182 C 1.19188 0.80424 0.96432 0.0
C183 C 0.251 0.78442 0.95829 0.0
C184 C 0.32774 0.8052 0.93772 0.0
C185 C 0.38499 0.78632 0.93326 0.0
C186 C 0.45807 0.80629 0.90977 0.0
C187 C 0.4769 0.84488 0.89367 0.0
C188 C 0.42383 0.86444 0.90055 0.0
C189 C 0.35019 0.84504 0.92233 0.0
H190 H 0.80787 0.31943 0.00807 0.0
C191 C 0.83848 0.35162 0.00392 0.0
H192 H 0.95411 0.40124 0.01007 0.0
H193 H 1.14541 0.31492 0.12326 0.0
H194 H 1.13285 0.36143 0.17345 0.0
H195 H 1.04494 0.39998 0.15516 0.0
H196 H 0.96969 0.39252 0.08654 0.0
C197 C 0.92214 0.36901 0.0104 0.0
C198 C 0.97303 0.34497 0.02161 0.0
C199 C 1.01533 0.34924 0.06215 0.0
C200 C 1.06491 0.32663 0.07297 0.0
C201 C 1.10706 0.33153 0.11349 0.0
C202 C 1.10016 0.35799 0.1426 0.0
C203 C 1.0507 0.37971 0.1323 0.0
C204 C 1.00826 0.37534 0.09269 0.0
H205 H 0.23459 0.32274 0.03931 0.0
C206 C 1.20482 0.29121 0.04776 0.0
H207 H 1.08857 0.24367 0.05858 0.0
H208 H 0.90883 0.33325 0.93897 0.0
H209 H 0.91908 0.28577 0.88979 0.0
H210 H 0.99742 0.24328 0.91051 0.0
H211 H 1.06703 0.24857 0.98032 0.0
C212 C 1.12196 0.27559 0.05414 0.0
C213 C 1.07039 0.2993 0.04357 0.0
C214 C 1.02754 0.29469 0.00318 0.0
C215 C 0.98027 0.31823 0.99176 0.0
C216 C 0.94262 0.31493 0.95014 0.0
C217 C 0.94866 0.28801 0.92136 0.0
C218 C 0.99289 0.26416 0.93298 0.0
C219 C 1.0324 0.26747 0.97324 0.0
H220 H 0.2852 0.22679 0.48141 0.0
C221 C 0.33399 0.2149 0.48104 0.0
H222 H 0.4643 0.22952 0.47999 0.0
H223 H 0.60668 0.40756 0.41233 0.0
H224 H 0.63335 0.37261 0.35445 0.0
H225 H 0.57568 0.29921 0.35367 0.0
H226 H 0.48984 0.26007 0.41058 0.0
C227 C 0.41586 0.24153 0.48143 0.0
C228 C 0.4461 0.28748 0.48128 0.0
C229 C 0.4984 0.311 0.44836 0.0
C230 C 0.53372 0.35408 0.44922 0.0
C231 C 0.58124 0.37539 0.41441 0.0
C232 C 0.59644 0.35564 0.38064 0.0
C233 C 0.56388 0.31429 0.38018 0.0
C234 C 0.51507 0.29215 0.4133 0.0
H235 H 0.6811 0.43397 0.48297 0.0
C236 C 0.63383 0.44673 0.48403 0.0
H237 H 0.50427 0.43369 0.48619 0.0
H238 H 0.35744 0.25484 0.55217 0.0
H239 H 0.33059 0.28978 0.61002 0.0
H240 H 0.38878 0.36317 0.61097 0.0
H241 H 0.47524 0.40232 0.55429 0.0
C242 C 0.55136 0.42095 0.48397 0.0
C243 C 0.5193 0.37494 0.48363 0.0
C244 C 0.4667 0.35141 0.51646 0.0
C245 C 0.43128 0.30833 0.51555 0.0
C246 C 0.38327 0.28701 0.55022 0.0
C247 C 0.36788 0.30675 0.58394 0.0
C248 C 0.40072 0.3481 0.5845 0.0
C249 C 0.44991 0.37025 0.5515 0.0
H250 H 1.19121 0.93581 0.46826 0.0
C251 C 1.14576 0.94723 0.47853 0.0
H252 H 1.0208 0.9316 0.49631 0.0
H253 H 0.84524 0.75985 0.41842 0.0
H254 H 0.79212 0.79903 0.37044 0.0
H255 H 0.84889 0.87231 0.37394 0.0
H256 H 0.96038 0.90714 0.42516 0.0
C257 C 1.06732 0.92015 0.48774 0.0
C258 C 1.03693 0.87448 0.48417 0.0
C259 C 0.96949 0.85346 0.45502 0.0
C260 C 0.93469 0.81041 0.45371 0.0
C261 C 0.87143 0.79176 0.42226 0.0
C262 C 0.84082 0.81399 0.39413 0.0
C263 C 0.87288 0.85528 0.39606 0.0
C264 C 0.93663 0.8749 0.42583 0.0
H265 H 0.80481 0.72802 0.49111 0.0
C266 C 0.85088 0.7153 0.48571 0.0
H267 H 0.97858 0.72837 0.47611 0.0
H268 H 1.16074 0.90214 0.54582 0.0
H269 H 0.21385 0.8631 0.59416 0.0
H270 H 1.15444 0.78972 0.59227 0.0
H271 H 1.04092 0.75464 0.54231 0.0
C272 C 0.93213 0.74115 0.48033 0.0
C273 C 0.96474 0.78708 0.48251 0.0
C274 C 1.03255 0.80817 0.51154 0.0
C275 C 1.06792 0.85123 0.51247 0.0
C276 C 1.13297 0.8701 0.54299 0.0
C277 C 1.16384 0.848 0.57114 0.0
C278 C 1.13036 0.80665 0.57008 0.0
C279 C 1.06538 0.78687 0.54095 0.0
H280 H 0.44357 1.01386 0.98152 0.0
C281 C 0.45072 1.04488 0.97974 0.0
H282 H 0.53908 0.10401 0.97712 0.0
H283 H 0.88854 0.1018 0.04274 0.0
H284 H 0.86151 0.1436 0.09297 0.0
H285 H 0.72491 0.15018 0.09236 0.0
H286 H 0.61347 0.11462 0.04182 0.0
C287 C 0.53237 0.07305 0.97801 0.0
C288 C 0.61705 1.06583 0.97929 0.0
C289 C 0.68518 0.08711 0.00847 0.0
C290 C 0.76686 0.08391 0.00831 0.0
C291 C 0.82824 0.10425 0.03985 0.0
C292 C 0.81315 0.12811 0.06935 0.0
C293 C 0.73613 0.13178 0.06903 0.0
C294 C 0.67273 0.11138 0.03945 0.0
H295 H 0.95862 0.11192 0.97647 0.0
C296 C 0.95146 0.0809 0.97817 0.0
H297 H 0.86307 1.02175 0.9804 0.0
H298 H 0.51344 1.02385 0.91493 0.0
H299 H 0.54047 0.98204 0.86465 0.0
H300 H 0.67718 0.9756 0.86513 0.0
H301 H 0.78873 1.01123 0.91563 0.0
C302 C 0.86978 1.05271 0.97958 0.0
C303 C 0.7851 1.05994 0.97823 0.0
C304 C 0.71697 1.03868 0.94903 0.0
C305 C 0.63526 1.04185 0.94922 0.0
C306 C 0.57381 1.02145 0.91774 0.0
C307 C 0.58889 0.99759 0.88822 0.0
C308 C 0.66598 0.99399 0.88847 0.0
C309 C 0.72943 1.01442 0.91803 0.0
H310 H 0.82166 0.20979 0.56661 0.0
C311 C 0.7888 0.17772 0.56992 0.0
H312 H 0.89103 0.17179 0.60421 0.0
H313 H 0.63451 0.99699 0.51959 0.0
H314 H 0.67586 1.03006 0.45047 0.0
H315 H 0.78067 0.09919 0.4462 0.0
H316 H 0.83883 0.13665 0.51084 0.0
C317 C 0.8292 0.15614 0.58956 0.0
C318 C 0.7919 0.11155 0.59247 0.0
C319 C 0.76689 0.08895 0.55476 0.0
C320 C 0.71411 1.04801 0.55725 0.0
C321 C 0.67899 1.02764 0.51908 0.0
C322 C 0.70216 1.04624 0.47942 0.0
C323 C 0.76098 0.08516 0.47702 0.0
C324 C 0.79346 0.10638 0.51421 0.0
H325 H 0.69264 0.9323 0.58278 0.0
C326 C 0.71815 0.96465 0.58321 0.0
H327 H 0.61363 0.96572 0.61415 0.0
H328 H 0.8324 0.14531 0.67117 0.0
H329 H 0.80268 0.1105 0.73977 0.0
H330 H 0.72745 1.03747 0.74395 0.0
H331 H 0.67944 0.99883 0.67945 0.0
C332 C 0.67223 0.98338 0.59924 0.0
C333 C 0.70019 1.0278 0.5974 0.0
C334 C 0.72801 1.04986 0.63529 0.0
C335 C 0.77298 0.09192 0.63284 0.0
C336 C 0.79863 0.11333 0.67118 0.0
C337 C 0.78208 0.0937 0.71075 0.0
C338 C 0.73976 1.05255 0.7131 0.0
C339 C 0.71286 1.03072 0.6759 0.0
H340 H 1.0082 0.60317 -0.00164 0.0
C341 C 0.96527 0.57313 0.99084 0.0
H342 H 0.95987 0.5157 0.97774 0.0
H343 H 0.30995 0.51441 0.04633 0.0
H344 H 0.21291 0.46885 0.09543 0.0
H345 H 1.06585 0.4625 0.09557 0.0
H346 H 1.01304 0.50038 0.04576 0.0
C347 C 1.00219 0.54624 0.98367 0.0
C348 C 1.09888 0.55441 0.98597 0.0
C349 C 1.13141 0.53116 0.01393 0.0
C350 C 0.21873 0.5351 0.01391 0.0
C351 C 0.24573 0.51217 0.04397 0.0
C352 C 1.19066 0.48602 0.07262 0.0
C353 C 1.10759 0.48223 0.07256 0.0
C354 C 1.07804 0.50424 0.04367 0.0
H355 H 0.36745 0.51276 0.97422 0.0
C356 C 0.41069 0.54289 0.98127 0.0
H357 H 0.41694 0.60072 -0.00687 0.0
H358 H 1.06686 0.603 0.92605 0.0
H359 H 1.16478 0.65023 0.87856 0.0
H360 H 0.31246 0.65751 0.87894 0.0
H361 H 0.36419 0.61764 0.92683 0.0
C362 C 0.37423 0.57015 0.98767 0.0
C363 C 0.27761 0.56226 0.98549 0.0
C364 C 0.24524 0.58581 0.9578 0.0
C365 C 1.15784 0.58177 0.95776 0.0
C366 C 1.13107 0.60522 0.92829 0.0
C367 C 1.18666 0.63234 0.90057 0.0
C368 C 0.26994 0.63643 0.90078 0.0
C369 C 0.29899 0.61347 0.92871 0.0
H370 H 1.14319 0.46754 0.40373 0.0
C371 C 1.17773 0.49408 0.42193 0.0
H372 H 1.06859 0.49547 0.44794 0.0
H373 H 0.38629 0.59377 0.58296 0.0
H374 H 0.36392 0.52711 0.61056 0.0
H375 H 0.25636 0.46779 0.57714 0.0
H376 H 1.17119 0.47475 0.51557 0.0
C377 C 1.13659 0.50893 0.44742 0.0
C378 C 1.18324 0.54418 0.47455 0.0
C379 C 0.23019 0.53977 0.5114 0.0
C380 C 0.2907 0.57395 0.5313 0.0
C381 C 0.33862 0.56868 0.56716 0.0
C382 C 0.32651 0.53065 0.58319 0.0
C383 C 0.26604 0.49725 0.56433 0.0
C384 C 0.21794 0.5016 0.52897 0.0
H385 H 0.33392 0.68952 0.58527 0.0
C386 C 0.30101 0.66297 0.56681 0.0
H387 H 0.41292 0.66055 0.54557 0.0
H388 H 1.09761 0.56311 0.40755 0.0
H389 H 1.12181 0.62975 0.37927 0.0
H390 H 0.23138 0.68891 0.41189 0.0
H391 H 0.31616 0.68181 0.47362 0.0
C392 C 0.3448 0.64763 0.54361 0.0
C393 C 0.30095 0.61255 0.51579 0.0
C394 C 0.25509 0.61692 0.47851 0.0
C395 C 1.19401 0.58279 0.45885 0.0
C396 C 1.14598 0.58814 0.42307 0.0
C397 C 1.15918 0.62615 0.40663 0.0
C398 C 0.22078 0.65947 0.42504 0.0
C399 C 0.26865 0.65506 0.46047 0.0
H400 H 0.29681 0.0939 0.34642 0.0
C401 C 0.23201 0.07677 0.35425 0.0
H402 H 1.11017 1.04188 0.33128 0.0
H403 H 0.29532 0.12926 0.15062 0.0
H404 H 0.32447 0.19259 0.18357 0.0
H405 H 0.29095 0.19548 0.25855 0.0
H406 H 0.23011 0.13511 0.30138 0.0
C407 C 1.17453 1.05926 0.32279 0.0
C408 C 1.19495 1.05872 0.27666 0.0
C409 C 0.22678 0.09425 0.25119 0.0
C410 C 0.24134 0.09246 0.20689 0.0
C411 C 0.27877 0.12862 0.18348 0.0
C412 C 0.29655 0.16527 0.20214 0.0
C413 C 0.27801 0.1669 0.24441 0.0
C414 C 0.24356 0.13195 0.26877 0.0
H415 H 1.16044 0.08291 0.1148 0.0
C416 C 1.19714 1.0655 0.10804 0.0
H417 H 0.26957 1.03419 0.13305 0.0
H418 H 1.13792 0.98492 0.3156 0.0
H419 H 1.10038 0.92141 0.28167 0.0
H420 H 1.11408 0.91795 0.20424 0.0
H421 H 1.16635 0.97793 0.16035 0.0
C422 C 0.23387 1.05189 0.14058 0.0
C423 C 0.21926 1.055 0.18712 0.0
C424 C 1.18621 1.01951 0.21253 0.0
C425 C 1.17544 1.02141 0.25713 0.0
C426 C 1.14513 0.98535 0.28151 0.0
C427 C 1.12366 0.94859 0.26249 0.0
C428 C 1.13162 0.94665 0.21893 0.0
C429 C 1.16231 0.98149 0.19412 0.0
H430 H 1.2071 1.03149 0.84611 0.0
C431 C 1.20124 1.05961 0.8516 0.0
H432 H 1.18786 0.11057 0.82387 0.0
H433 H 0.33269 1.04884 0.6591 0.0
H434 H 0.45266 1.05302 0.70506 0.0
H435 H 0.45737 0.0679 0.78139 0.0
H436 H 0.34165 0.07771 0.81246 0.0
C437 C 1.19522 0.08286 0.81792 0.0
C438 C 1.19307 0.07202 0.77182 0.0
C439 C 0.26311 0.06791 0.75363 0.0
C440 C 0.26261 1.06164 0.70884 0.0
C441 C 0.33138 1.05551 0.69229 0.0
C442 C 0.40044 1.05754 0.71839 0.0
C443 C 0.40293 1.06575 0.7614 0.0
C444 C 0.33548 0.071 0.77894 0.0
H445 H 0.29973 0.11487 0.62928 0.0
C446 C 0.25585 0.08971 0.61159 0.0
H447 H 1.15233 1.03484 0.61678 0.0
H448 H 1.04602 0.07555 0.79556 0.0
H449 H 0.92956 0.07485 0.74882 0.0
H450 H 0.93317 0.06874 0.67111 0.0
H451 H 1.05242 1.06161 0.63969 0.0
C452 C 1.19813 1.06002 0.6336 0.0
C453 C 1.19449 1.06179 0.68148 0.0
C454 C 1.12404 1.06514 0.69979 0.0
C455 C 1.12307 0.06993 0.74474 0.0
C456 C 1.0512 0.07286 0.7617 0.0
C457 C 0.98361 0.07229 0.73524 0.0
C458 C 0.98548 0.06861 0.69147 0.0
C459 C 1.05438 1.06477 0.67384 0.0
H460 H 0.82093 0.59703 0.35006 0.0
C461 C 0.75911 0.57527 0.35747 0.0
H462 H 0.64278 0.53531 0.3326 0.0
H463 H 0.65179 0.60955 0.14806 0.0
H464 H 0.56147 0.63596 0.18179 0.0
H465 H 0.54469 0.62949 0.25966 0.0
H466 H 0.61894 0.59695 0.30445 0.0
C467 C 0.70597 0.5556 0.32521 0.0
C468 C 0.72492 0.56349 0.27843 0.0
C469 C 0.68034 0.58203 0.25215 0.0
C470 C 0.68866 0.58503 0.20684 0.0
C471 C 0.64555 0.60513 0.1822 0.0
C472 C 0.59403 0.62077 0.20122 0.0
C473 C 0.58467 0.61717 0.24508 0.0
C474 C 0.62735 0.59823 0.27039 0.0
H475 H 0.61529 0.53047 0.13186 0.0
C476 C 0.67289 0.54641 0.11525 0.0
H477 H 0.80164 0.58233 0.12347 0.0
H478 H 0.8219 0.52739 0.31822 0.0
H479 H 0.91428 0.50204 0.28468 0.0
H480 H 0.92829 0.50691 0.20662 0.0
H481 H 0.84989 0.53707 0.16144 0.0
C482 C 0.74219 0.56773 0.13888 0.0
C483 C 0.74008 0.56857 0.1871 0.0
C484 C 0.78773 0.55169 0.21357 0.0
C485 C 0.77996 0.54903 0.259 0.0
C486 C 0.82613 0.53066 0.28392 0.0
C487 C 0.87924 0.51587 0.26504 0.0
C488 C 0.88712 0.51861 0.22106 0.0
C489 C 0.84184 0.53609 0.19549 0.0
H490 H 0.77762 0.62404 0.63198 0.0
C491 C 0.73786 0.59707 0.6156 0.0
H492 H 0.64964 0.53842 0.62419 0.0
H493 H 0.75699 0.52259 0.81875 0.0
H494 H 0.78641 0.47068 0.78522 0.0
H495 H 0.77105 0.46307 0.70715 0.0
H496 H 0.72627 0.50728 0.66198 0.0
C497 C 0.68606 0.56655 0.63935 0.0
C498 C 0.68704 0.56887 0.68761 0.0
C499 C 0.71198 0.54233 0.71408 0.0
C500 C 0.72088 0.54669 0.7595 0.0
C501 C 0.74836 0.52044 0.78443 0.0
C502 C 0.76571 0.49054 0.76557 0.0
C503 C 0.75705 0.48626 0.7216 0.0
C504 C 0.73097 0.51183 0.69601 0.0
H505 H 0.621 0.53802 0.84924 0.0
C506 C 0.67719 0.56377 0.85754 0.0
H507 H 0.77966 0.61271 0.83403 0.0
H508 H 0.62232 0.61992 0.6488 0.0
H509 H 0.59112 0.67121 0.68262 0.0
H510 H 0.61209 0.68043 0.76041 0.0
H511 H 0.66334 0.63801 0.80509 0.0
C512 C 0.72532 0.58604 0.8259 0.0
C513 C 0.70477 0.57754 0.77897 0.0
C514 C 0.67643 0.60295 0.75275 0.0
C515 C 0.66633 0.59827 0.70743 0.0
C516 C 0.6343 0.62311 0.6829 0.0
C517 C 0.61537 0.65246 0.70197 0.0
C518 C 0.62705 0.6576 0.7458 0.0
C519 C 0.65687 0.63316 0.77105 0.0
loop_
_geom_bond_atom_site_label_1
_geom_bond_atom_site_label_2
_geom_bond_distance
_geom_bond_site_symmetry_2
_ccdc_geom_bond_type
Nd0 C2 2.838 1_455 S
Nd0 O20 2.500 1_456 S
Nd0 O21 2.492 1_455 S
Nd0 O22 2.487 . S
Nd0 O23 2.682 1_545 S
Nd0 O24 2.410 1_455 S
Nd0 O29 2.414 1_456 S
Nd0 O31 2.424 . S
Nd1 C11 2.839 1_655 S
Nd1 O23 2.414 1_654 S
Nd1 O25 2.424 . S
Nd1 O26 2.500 1_654 S
Nd1 O27 2.492 1_655 S
Nd1 O28 2.487 . S
Nd1 O29 2.682 1_565 S
Nd1 O30 2.410 1_655 S
C2 Nd0 2.838 1_655 S
C2 C3 1.496 1_556 S
C2 O20 1.247 1_556 S
C2 O21 1.252 . S
C3 C2 1.496 1_554 S
C3 C4 1.366 . S
C3 C8 1.407 1_554 S
C4 C3 1.366 . S
C4 C5 1.392 . S
C4 H32 0.930 . S
C5 C4 1.392 . S
C5 C6 1.398 . S
C5 H33 0.929 . S
C6 C5 1.398 . S
C6 C7 1.352 1_554 S
C7 C6 1.352 1_556 S
C7 C8 1.384 . S
C7 H34 0.930 . S
C8 C3 1.407 1_556 S
C8 C7 1.384 . S
C8 H35 0.929 . S
C9 O22 1.241 . S
C9 O23 1.273 1_545 S
C10 O24 1.251 1_565 S
C10 O25 1.268 1_556 S
C11 Nd1 2.839 1_455 S
C11 C12 1.496 1_554 S
C11 O26 1.242 1_554 S
C11 O27 1.257 . S
C12 C11 1.496 1_556 S
C12 C13 1.366 . S
C12 C17 1.407 1_556 S
C13 C12 1.366 . S
C13 C14 1.392 . S
C13 H36 0.930 . S
C14 C13 1.392 . S
C14 C15 1.398 . S
C14 H37 0.929 . S
C15 C14 1.398 . S
C15 C16 1.352 1_556 S
C16 C15 1.352 1_554 S
C16 C17 1.384 . S
C16 H38 0.930 . S
C17 C12 1.407 1_554 S
C17 C16 1.384 . S
C17 H39 0.929 . S
C18 O28 1.246 . S
C18 O29 1.273 1_565 S
C19 O30 1.251 1_545 S
C19 O31 1.268 1_554 S
O20 Nd0 2.500 1_654 S
O20 C2 1.247 1_554 S
O21 Nd0 2.492 1_655 S
O21 C2 1.252 . S
O22 Nd0 2.487 . S
O22 C9 1.241 . S
O23 Nd0 2.682 1_565 S
O23 Nd1 2.414 1_456 S
O23 C9 1.273 1_565 S
O24 Nd0 2.410 1_655 S
O24 C10 1.251 1_545 S
O25 Nd1 2.424 . S
O25 C10 1.268 1_554 S
O26 Nd1 2.500 1_456 S
O26 C11 1.242 1_556 S
O27 Nd1 2.492 1_455 S
O27 C11 1.257 . S
O28 Nd1 2.487 . S
O28 C18 1.246 . S
O29 Nd0 2.414 1_654 S
O29 Nd1 2.682 1_545 S
O29 C18 1.273 1_545 S
O30 Nd1 2.410 1_455 S
O30 C19 1.251 1_565 S
O31 Nd0 2.424 . S
O31 C19 1.268 1_556 S
H32 C4 0.930 . S
H33 C5 0.929 . S
H34 C7 0.930 . S
H35 C8 0.929 . S
H36 C13 0.930 . S
H37 C14 0.929 . S
H38 C16 0.930 . S
H39 C17 0.929 . S
Nd40 C42 2.836 . S
Nd40 O60 2.500 . S
Nd40 O61 2.492 . S
Nd40 O62 2.487 . S
Nd40 O63 2.698 1_655 S
Nd40 O64 2.410 1_545 S
Nd40 O69 2.402 1_545 S
Nd40 O71 2.424 1_655 S
Nd41 C51 2.836 . S
Nd41 O63 2.398 1_565 S
Nd41 O65 2.424 1_455 S
Nd41 O66 2.500 . S
Nd41 O67 2.492 . S
Nd41 O68 2.487 . S
Nd41 O69 2.694 1_455 S
Nd41 O70 2.410 1_565 S
C42 Nd40 2.836 . S
C42 C43 1.498 1_545 S
C42 O60 1.258 . S
C42 O61 1.239 . S
C43 C42 1.498 1_565 S
C43 C44 1.366 . S
C43 C48 1.407 . S
C44 C43 1.366 . S
C44 C45 1.392 . S
C44 H72 0.930 . S
C45 C44 1.392 . S
C45 C46 1.398 . S
C45 H73 0.929 . S
C46 C45 1.398 . S
C46 C47 1.352 . S
C47 C46 1.352 . S
C47 C48 1.384 . S
C47 H74 0.930 . S
C48 C43 1.407 . S
C48 C47 1.384 . S
C48 H75 0.929 1_565 S
C49 O62 1.241 . S
C49 O63 1.281 1_655 S
C50 O64 1.251 . S
C50 O65 1.268 . S
C51 Nd41 2.836 . S
C51 C52 1.498 1_565 S
C51 O66 1.258 . S
C51 O67 1.239 . S
C52 C51 1.498 1_545 S
C52 C53 1.366 . S
C52 C57 1.407 . S
C53 C52 1.366 . S
C53 C54 1.392 . S
C53 H76 0.930 . S
C54 C53 1.392 . S
C54 C55 1.398 . S
C54 H77 0.929 . S
C55 C54 1.398 . S
C55 C56 1.352 . S
C56 C55 1.352 . S
C56 C57 1.384 . S
C56 H78 0.930 . S
C57 C52 1.407 . S
C57 C56 1.384 . S
C57 H79 0.929 1_545 S
C58 O68 1.241 . S
C58 O69 1.279 1_455 S
C59 O70 1.251 . S
C59 O71 1.268 . S
O60 Nd40 2.500 . S
O60 C42 1.258 . S
O61 Nd40 2.492 . S
O61 C42 1.239 . S
O62 Nd40 2.487 . S
O62 C49 1.241 . S
O63 Nd40 2.698 1_455 S
O63 Nd41 2.398 1_545 S
O63 C49 1.281 1_455 S
O64 Nd40 2.410 1_565 S
O64 C50 1.251 . S
O65 Nd41 2.424 1_655 S
O65 C50 1.268 . S
O66 Nd41 2.500 . S
O66 C51 1.258 . S
O67 Nd41 2.492 . S
O67 C51 1.239 . S
O68 Nd41 2.487 . S
O68 C58 1.241 . S
O69 Nd40 2.402 1_565 S
O69 Nd41 2.694 1_655 S
O69 C58 1.279 1_655 S
O70 Nd41 2.410 1_545 S
O70 C59 1.251 . S
O71 Nd40 2.424 1_455 S
O71 C59 1.268 . S
H72 C44 0.930 . S
H73 C45 0.929 . S
H74 C47 0.930 . S
H75 C48 0.929 1_545 S
H76 C53 0.930 . S
H77 C54 0.929 . S
H78 C56 0.930 . S
H79 C57 0.929 1_565 S
Nd80 C82 2.838 . S
Nd80 O100 2.500 1_556 S
Nd80 O101 2.492 . S
Nd80 O102 2.487 . S
Nd80 O103 2.682 . S
Nd80 O104 2.410 . S
Nd80 O109 2.414 1_556 S
Nd80 O111 2.424 . S
Nd81 C91 2.839 . S
Nd81 O103 2.414 1_554 S
Nd81 O105 2.424 . S
Nd81 O106 2.500 1_554 S
Nd81 O107 2.492 . S
Nd81 O108 2.487 . S
Nd81 O109 2.682 . S
Nd81 O110 2.410 . S
C82 Nd80 2.838 . S
C82 C83 1.496 1_556 S
C82 O100 1.247 1_556 S
C82 O101 1.252 . S
C83 C82 1.496 1_554 S
C83 C84 1.366 . S
C83 C88 1.407 1_554 S
C84 C83 1.366 . S
C84 C85 1.392 . S
C84 H112 0.930 . S
C85 C84 1.392 . S
C85 C86 1.398 . S
C85 H113 0.929 . S
C86 C85 1.398 . S
C86 C87 1.352 1_554 S
C87 C86 1.352 1_556 S
C87 C88 1.384 . S
C87 H114 0.930 . S
C88 C83 1.407 1_556 S
C88 C87 1.384 . S
C88 H115 0.929 . S
C89 O102 1.241 . S
C89 O103 1.273 . S
C90 O104 1.251 . S
C90 O105 1.268 1_556 S
C91 Nd81 2.839 . S
C91 C92 1.496 1_554 S
C91 O106 1.242 1_554 S
C91 O107 1.257 . S
C92 C91 1.496 1_556 S
C92 C93 1.366 . S
C92 C97 1.407 1_556 S
C93 C92 1.366 . S
C93 C94 1.392 . S
C93 H116 0.930 . S
C94 C93 1.392 . S
C94 C95 1.398 . S
C94 H117 0.929 . S
C95 C94 1.398 . S
C95 C96 1.352 1_556 S
C96 C95 1.352 1_554 S
C96 C97 1.384 . S
C96 H118 0.930 . S
C97 C92 1.407 1_554 S
C97 C96 1.384 . S
C97 H119 0.929 . S
C98 O108 1.241 . S
C98 O109 1.273 . S
C99 O110 1.251 . S
C99 O111 1.268 1_554 S
O100 Nd80 2.500 1_554 S
O100 C82 1.247 1_554 S
O101 Nd80 2.492 . S
O101 C82 1.252 . S
O102 Nd80 2.487 . S
O102 C89 1.241 . S
O103 Nd80 2.682 . S
O103 Nd81 2.414 1_556 S
O103 C89 1.273 . S
O104 Nd80 2.410 . S
O104 C90 1.251 . S
O105 Nd81 2.424 . S
O105 C90 1.268 1_554 S
O106 Nd81 2.500 1_556 S
O106 C91 1.242 1_556 S
O107 Nd81 2.492 . S
O107 C91 1.257 . S
O108 Nd81 2.487 . S
O108 C98 1.241 . S
O109 Nd80 2.414 1_554 S
O109 Nd81 2.682 . S
O109 C98 1.273 . S
O110 Nd81 2.410 . S
O110 C99 1.251 . S
O111 Nd80 2.424 . S
O111 C99 1.268 1_556 S
H112 C84 0.930 . S
H113 C85 0.929 . S
H114 C87 0.930 . S
H115 C88 0.929 . S
H116 C93 0.930 . S
H117 C94 0.929 . S
H118 C96 0.930 . S
H119 C97 0.929 . S
Nd120 C122 2.836 . S
Nd120 O140 2.500 . S
Nd120 O141 2.492 . S
Nd120 O142 2.487 . S
Nd120 O143 2.682 . S
Nd120 O144 2.410 . S
Nd120 O149 2.414 . S
Nd120 O151 2.424 . S
Nd121 C131 2.836 . S
Nd121 O143 2.414 . S
Nd121 O145 2.424 . S
Nd121 O146 2.500 . S
Nd121 O147 2.492 . S
Nd121 O148 2.487 . S
Nd121 O149 2.682 . S
Nd121 O150 2.410 . S
C122 Nd120 2.836 . S
C122 C123 1.498 . S
C122 O140 1.258 . S
C122 O141 1.239 . S
C123 C122 1.498 . S
C123 C124 1.366 . S
C123 C128 1.407 . S
C124 C123 1.366 . S
C124 C125 1.392 . S
C124 H152 0.930 . S
C125 C124 1.392 . S
C125 C126 1.398 . S
C125 H153 0.929 . S
C126 C125 1.398 . S
C126 C127 1.352 . S
C127 C126 1.352 . S
C127 C128 1.384 . S
C127 H154 0.930 . S
C128 C123 1.407 . S
C128 C127 1.384 . S
C128 H155 0.929 . S
C129 O142 1.241 . S
C129 O143 1.273 . S
C130 O144 1.251 . S
C130 O145 1.268 . S
C131 Nd121 2.836 . S
C131 C132 1.498 . S
C131 O146 1.258 . S
C131 O147 1.239 . S
C132 C131 1.498 . S
C132 C133 1.366 . S
C132 C137 1.407 . S
C133 C132 1.366 . S
C133 C134 1.392 . S
C133 H156 0.930 . S
C134 C133 1.392 . S
C134 C135 1.398 . S
C134 H157 0.929 . S
C135 C134 1.398 . S
C135 C136 1.352 . S
C136 C135 1.352 . S
C136 C137 1.384 . S
C136 H158 0.930 . S
C137 C132 1.407 . S
C137 C136 1.384 . S
C137 H159 0.929 . S
C138 O148 1.241 . S
C138 O149 1.273 . S
C139 O150 1.251 . S
C139 O151 1.268 . S
O140 Nd120 2.500 . S
O140 C122 1.258 . S
O141 Nd120 2.492 . S
O141 C122 1.239 . S
O142 Nd120 2.487 . S
O142 C129 1.241 . S
O143 Nd120 2.682 . S
O143 Nd121 2.414 . S
O143 C129 1.273 . S
O144 Nd120 2.410 . S
O144 C130 1.251 . S
O145 Nd121 2.424 . S
O145 C130 1.268 . S
O146 Nd121 2.500 . S
O146 C131 1.258 . S
O147 Nd121 2.492 . S
O147 C131 1.239 . S
O148 Nd121 2.487 . S
O148 C138 1.241 . S
O149 Nd120 2.414 . S
O149 Nd121 2.682 . S
O149 C138 1.273 . S
O150 Nd121 2.410 . S
O150 C139 1.251 . S
O151 Nd120 2.424 . S
O151 C139 1.268 . S
H152 C124 0.930 . S
H153 C125 0.929 . S
H154 C127 0.930 . S
H155 C128 0.929 . S
H156 C133 0.930 . S
H157 C134 0.929 . S
H158 C136 0.930 . S
H159 C137 0.929 . S
H160 C161 0.951 . S
C161 H160 0.951 . S
C161 C167 1.265 . S
H162 C167 0.950 . S
H163 C171 0.949 . S
H164 C172 0.950 . S
H165 C173 0.951 . S
H166 C174 0.951 . S
C167 C161 1.265 . S
C167 H162 0.950 . S
C167 C168 1.478 . S
C168 C167 1.478 . S
C168 C169 1.397 . S
C168 C185 1.394 1_554 S
C169 C168 1.397 . S
C169 C170 1.438 . S
C169 C174 1.429 . S
C170 C169 1.438 . S
C170 C171 1.428 . S
C170 C183 1.394 1_554 S
C171 H163 0.949 . S
C171 C170 1.428 . S
C171 C172 1.345 . S
C172 H164 0.950 . S
C172 C171 1.345 . S
C172 C173 1.424 . S
C173 H165 0.951 . S
C173 C172 1.424 . S
C173 C174 1.347 . S
C174 H166 0.951 . S
C174 C169 1.429 . S
C174 C173 1.347 . S
H175 C176 0.951 . S
C176 H175 0.951 . S
C176 C182 1.265 . S
H177 C182 0.950 . S
H178 C186 0.949 . S
H179 C187 0.950 . S
H180 C188 0.951 . S
H181 C189 0.951 . S
C182 C176 1.265 . S
C182 H177 0.950 . S
C182 C183 1.478 . S
C183 C170 1.394 1_556 S
C183 C182 1.478 . S
C183 C184 1.397 . S
C184 C183 1.397 . S
C184 C185 1.438 . S
C184 C189 1.429 . S
C185 C168 1.394 1_556 S
C185 C184 1.438 . S
C185 C186 1.428 . S
C186 H178 0.949 . S
C186 C185 1.428 . S
C186 C187 1.345 . S
C187 H179 0.950 . S
C187 C186 1.345 . S
C187 C188 1.424 . S
C188 H180 0.951 . S
C188 C187 1.424 . S
C188 C189 1.347 . S
C189 H181 0.951 . S
C189 C184 1.429 . S
C189 C188 1.347 . S
H190 C191 0.951 . S
C191 H190 0.951 . S
C191 C197 1.265 . S
H192 C197 0.950 . S
H193 C201 0.949 . S
H194 C202 0.950 . S
H195 C203 0.951 . S
H196 C204 0.951 . S
C197 C191 1.265 . S
C197 H192 0.950 . S
C197 C198 1.478 . S
C198 C197 1.478 . S
C198 C199 1.397 1_556 S
C198 C215 1.394 . S
C199 C198 1.397 1_554 S
C199 C200 1.438 . S
C199 C204 1.429 . S
C200 C199 1.438 . S
C200 C201 1.428 . S
C200 C213 1.394 . S
C201 H193 0.949 . S
C201 C200 1.428 . S
C201 C202 1.345 . S
C202 H194 0.950 . S
C202 C201 1.345 . S
C202 C203 1.424 . S
C203 H195 0.951 . S
C203 C202 1.424 . S
C203 C204 1.347 . S
C204 H196 0.951 . S
C204 C199 1.429 . S
C204 C203 1.347 . S
H205 C206 0.951 . S
C206 H205 0.951 . S
C206 C212 1.265 . S
H207 C212 0.950 . S
H208 C216 0.949 . S
H209 C217 0.950 . S
H210 C218 0.951 . S
H211 C219 0.951 . S
C212 C206 1.265 . S
C212 H207 0.950 . S
C212 C213 1.478 . S
C213 C200 1.394 . S
C213 C212 1.478 . S
C213 C214 1.397 1_554 S
C214 C213 1.397 1_556 S
C214 C215 1.438 . S
C214 C219 1.429 . S
C215 C198 1.394 . S
C215 C214 1.438 . S
C215 C216 1.428 . S
C216 H208 0.949 . S
C216 C215 1.428 . S
C216 C217 1.345 . S
C217 H209 0.950 . S
C217 C216 1.345 . S
C217 C218 1.424 . S
C218 H210 0.951 . S
C218 C217 1.424 . S
C218 C219 1.347 . S
C219 H211 0.951 . S
C219 C214 1.429 . S
C219 C218 1.347 . S
H220 C221 0.951 . S
C221 H220 0.951 . S
C221 C227 1.265 . S
H222 C227 0.950 . S
H223 C231 0.949 . S
H224 C232 0.950 . S
H225 C233 0.951 . S
H226 C234 0.951 . S
C227 C221 1.265 . S
C227 H222 0.950 . S
C227 C228 1.478 . S
C228 C227 1.478 . S
C228 C229 1.397 . S
C228 C245 1.394 . S
C229 C228 1.397 . S
C229 C230 1.438 . S
C229 C234 1.429 . S
C230 C229 1.438 . S
C230 C231 1.428 . S
C230 C243 1.394 . S
C231 H223 0.949 . S
C231 C230 1.428 . S
C231 C232 1.345 . S
C232 H224 0.950 . S
C232 C231 1.345 . S
C232 C233 1.424 . S
C233 H225 0.951 . S
C233 C232 1.424 . S
C233 C234 1.347 . S
C234 H226 0.951 . S
C234 C229 1.429 . S
C234 C233 1.347 . S
H235 C236 0.951 . S
C236 H235 0.951 . S
C236 C242 1.265 . S
H237 C242 0.950 . S
H238 C246 0.949 . S
H239 C247 0.950 . S
H240 C248 0.951 . S
H241 C249 0.951 . S
C242 C236 1.265 . S
C242 H237 0.950 . S
C242 C243 1.478 . S
C243 C230 1.394 . S
C243 C242 1.478 . S
C243 C244 1.397 . S
C244 C243 1.397 . S
C244 C245 1.438 . S
C244 C249 1.429 . S
C245 C228 1.394 . S
C245 C244 1.438 . S
C245 C246 1.428 . S
C246 H238 0.949 . S
C246 C245 1.428 . S
C246 C247 1.345 . S
C247 H239 0.950 . S
C247 C246 1.345 . S
C247 C248 1.424 . S
C248 H240 0.951 . S
C248 C247 1.424 . S
C248 C249 1.347 . S
C249 H241 0.951 . S
C249 C244 1.429 . S
C249 C248 1.347 . S
H250 C251 0.951 . S
C251 H250 0.951 . S
C251 C257 1.265 . S
H252 C257 0.950 . S
H253 C261 0.949 . S
H254 C262 0.950 . S
H255 C263 0.951 . S
H256 C264 0.951 . S
C257 C251 1.265 . S
C257 H252 0.950 . S
C257 C258 1.478 . S
C258 C257 1.478 . S
C258 C259 1.397 . S
C258 C275 1.394 . S
C259 C258 1.397 . S
C259 C260 1.438 . S
C259 C264 1.429 . S
C260 C259 1.438 . S
C260 C261 1.428 . S
C260 C273 1.394 . S
C261 H253 0.949 . S
C261 C260 1.428 . S
C261 C262 1.345 . S
C262 H254 0.950 . S
C262 C261 1.345 . S
C262 C263 1.424 . S
C263 H255 0.951 . S
C263 C262 1.424 . S
C263 C264 1.347 . S
C264 H256 0.951 . S
C264 C259 1.429 . S
C264 C263 1.347 . S
H265 C266 0.951 . S
C266 H265 0.951 . S
C266 C272 1.265 . S
H267 C272 0.950 . S
H268 C276 0.949 . S
H269 C277 0.950 . S
H270 C278 0.951 . S
H271 C279 0.951 . S
C272 C266 1.265 . S
C272 H267 0.950 . S
C272 C273 1.478 . S
C273 C260 1.394 . S
C273 C272 1.478 . S
C273 C274 1.397 . S
C274 C273 1.397 . S
C274 C275 1.438 . S
C274 C279 1.429 . S
C275 C258 1.394 . S
C275 C274 1.438 . S
C275 C276 1.428 . S
C276 H268 0.949 . S
C276 C275 1.428 . S
C276 C277 1.345 . S
C277 H269 0.950 . S
C277 C276 1.345 . S
C277 C278 1.424 . S
C278 H270 0.951 . S
C278 C277 1.424 . S
C278 C279 1.347 . S
C279 H271 0.951 . S
C279 C274 1.429 . S
C279 C278 1.347 . S
H280 C281 0.951 . S
C281 H280 0.951 . S
C281 C287 1.265 1_566 S
H282 C287 0.950 . S
H283 C291 0.949 . S
H284 C292 0.950 . S
H285 C293 0.956 . S
H286 C294 0.951 . S
C287 C281 1.265 1_544 S
C287 H282 0.950 . S
C287 C288 1.478 . S
C288 C287 1.478 . S
C288 C289 1.397 . S
C288 C305 1.394 1_554 S
C289 C288 1.397 . S
C289 C290 1.438 1_545 S
C289 C294 1.429 . S
C290 C289 1.438 1_565 S
C290 C291 1.428 . S
C290 C303 1.394 1_554 S
C291 H283 0.949 . S
C291 C290 1.428 . S
C291 C292 1.345 . S
C292 H284 0.950 . S
C292 C291 1.345 . S
C292 C293 1.413 1_565 S
C293 H285 0.956 . S
C293 C292 1.413 1_545 S
C293 C294 1.354 . S
C294 H286 0.951 . S
C294 C289 1.429 . S
C294 C293 1.354 . S
H295 C296 0.951 . S
C296 H295 0.951 . S
C296 C302 1.265 1_544 S
H297 C302 0.950 . S
H298 C306 0.949 . S
H299 C307 0.950 . S
H300 C308 0.954 . S
H301 C309 0.951 . S
C302 C296 1.265 1_566 S
C302 H297 0.950 . S
C302 C303 1.478 . S
C303 C290 1.394 1_556 S
C303 C302 1.478 . S
C303 C304 1.397 . S
C304 C303 1.397 . S
C304 C305 1.438 1_565 S
C304 C309 1.429 . S
C305 C288 1.394 1_556 S
C305 C304 1.438 1_545 S
C305 C306 1.428 . S
C306 H298 0.949 . S
C306 C305 1.428 . S
C306 C307 1.345 . S
C307 H299 0.950 . S
C307 C306 1.345 . S
C307 C308 1.416 1_545 S
C308 H300 0.954 . S
C308 C307 1.416 1_565 S
C308 C309 1.352 . S
C309 H301 0.951 . S
C309 C304 1.429 . S
C309 C308 1.352 . S
H310 C311 0.951 . S
C311 H310 0.951 . S
C311 C317 1.265 . S
H312 C317 0.950 . S
H313 C321 0.949 . S
H314 C322 0.950 . S
H315 C323 0.951 . S
H316 C324 0.951 . S
C317 C311 1.265 . S
C317 H312 0.950 . S
C317 C318 1.478 . S
C318 C317 1.478 . S
C318 C319 1.397 1_545 S
C318 C335 1.394 . S
C319 C318 1.397 1_565 S
C319 C320 1.438 . S
C319 C324 1.429 . S
C320 C319 1.438 . S
C320 C321 1.428 . S
C320 C333 1.394 . S
C321 H313 0.949 . S
C321 C320 1.428 . S
C321 C322 1.345 . S
C322 H314 0.950 . S
C322 C321 1.345 . S
C322 C323 1.424 . S
C323 H315 0.951 . S
C323 C322 1.424 . S
C323 C324 1.347 . S
C324 H316 0.951 . S
C324 C319 1.429 . S
C324 C323 1.347 . S
H325 C326 0.951 . S
C326 H325 0.951 . S
C326 C332 1.265 . S
H327 C332 0.950 . S
H328 C336 0.949 . S
H329 C337 0.950 . S
H330 C338 0.951 . S
H331 C339 0.951 . S
C332 C326 1.265 . S
C332 H327 0.950 . S
C332 C333 1.478 . S
C333 C320 1.394 . S
C333 C332 1.478 . S
C333 C334 1.397 1_565 S
C334 C333 1.397 1_545 S
C334 C335 1.438 . S
C334 C339 1.429 . S
C335 C318 1.394 . S
C335 C334 1.438 . S
C335 C336 1.428 . S
C336 H328 0.949 . S
C336 C335 1.428 . S
C336 C337 1.345 . S
C337 H329 0.950 . S
C337 C336 1.345 . S
C337 C338 1.424 . S
C338 H330 0.951 . S
C338 C337 1.424 . S
C338 C339 1.347 . S
C339 H331 0.951 . S
C339 C334 1.429 . S
C339 C338 1.347 . S
H340 C341 0.951 . S
C341 H340 0.951 . S
C341 C347 1.265 1_556 S
H342 C347 0.950 . S
H343 C351 0.949 . S
H344 C352 0.950 . S
H345 C353 0.951 . S
H346 C354 0.951 . S
C347 C341 1.265 1_554 S
C347 H342 0.950 . S
C347 C348 1.478 . S
C348 C347 1.478 . S
C348 C349 1.397 . S
C348 C365 1.394 1_554 S
C349 C348 1.397 . S
C349 C350 1.438 1_655 S
C349 C354 1.429 . S
C350 C349 1.438 1_455 S
C350 C351 1.428 . S
C350 C363 1.394 1_554 S
C351 H343 0.949 . S
C351 C350 1.428 . S
C351 C352 1.345 . S
C352 H344 0.950 . S
C352 C351 1.345 . S
C352 C353 1.424 1_455 S
C353 H345 0.951 . S
C353 C352 1.424 1_655 S
C353 C354 1.347 . S
C354 H346 0.951 . S
C354 C349 1.429 . S
C354 C353 1.347 . S
H355 C356 0.951 . S
C356 H355 0.951 . S
C356 C362 1.265 1_554 S
H357 C362 0.950 . S
H358 C366 0.949 . S
H359 C367 0.950 . S
H360 C368 0.951 . S
H361 C369 0.951 . S
C362 C356 1.265 1_556 S
C362 H357 0.950 . S
C362 C363 1.478 . S
C363 C350 1.394 1_556 S
C363 C362 1.478 . S
C363 C364 1.397 . S
C364 C363 1.397 . S
C364 C365 1.438 1_455 S
C364 C369 1.429 . S
C365 C348 1.394 1_556 S
C365 C364 1.438 1_655 S
C365 C366 1.428 . S
C366 H358 0.949 . S
C366 C365 1.428 . S
C366 C367 1.345 . S
C367 H359 0.950 . S
C367 C366 1.345 . S
C367 C368 1.424 1_655 S
C368 H360 0.951 . S
C368 C367 1.424 1_455 S
C368 C369 1.347 . S
C369 H361 0.951 . S
C369 C364 1.429 . S
C369 C368 1.347 . S
H370 C371 0.951 . S
C371 H370 0.951 . S
C371 C377 1.265 . S
H372 C377 0.950 . S
H373 C381 0.949 . S
H374 C382 0.950 . S
H375 C383 0.951 . S
H376 C384 0.951 . S
C377 C371 1.265 . S
C377 H372 0.950 . S
C377 C378 1.478 . S
C378 C377 1.478 . S
C378 C379 1.397 . S
C378 C395 1.394 . S
C379 C378 1.397 . S
C379 C380 1.438 1_455 S
C379 C384 1.429 . S
C380 C379 1.438 1_655 S
C380 C381 1.428 . S
C380 C393 1.394 . S
C381 H373 0.949 . S
C381 C380 1.428 . S
C381 C382 1.345 . S
C382 H374 0.950 . S
C382 C381 1.345 . S
C382 C383 1.424 1_655 S
C383 H375 0.951 . S
C383 C382 1.424 1_455 S
C383 C384 1.347 . S
C384 H376 0.951 . S
C384 C379 1.429 . S
C384 C383 1.347 . S
H385 C386 0.951 . S
C386 H385 0.951 . S
C386 C392 1.265 . S
H387 C392 0.950 . S
H388 C396 0.949 . S
H389 C397 0.950 . S
H390 C398 0.951 . S
H391 C399 0.951 . S
C392 C386 1.265 . S
C392 H387 0.950 . S
C392 C393 1.478 . S
C393 C380 1.394 . S
C393 C392 1.478 . S
C393 C394 1.397 . S
C394 C393 1.397 . S
C394 C395 1.438 1_655 S
C394 C399 1.429 . S
C395 C378 1.394 . S
C395 C394 1.438 1_455 S
C395 C396 1.428 . S
C396 H388 0.949 . S
C396 C395 1.428 . S
C396 C397 1.345 . S
C397 H389 0.950 . S
C397 C396 1.345 . S
C397 C398 1.424 1_455 S
C398 H390 0.951 . S
C398 C397 1.424 1_655 S
C398 C399 1.347 . S
C399 H391 0.951 . S
C399 C394 1.429 . S
C399 C398 1.347 . S
H400 C401 0.951 . S
C401 H400 0.951 . S
C401 C407 1.265 1_455 S
H402 C407 0.950 . S
H403 C411 0.949 . S
H404 C412 0.950 . S
H405 C413 0.951 . S
H406 C414 0.951 . S
C407 C401 1.265 1_655 S
C407 H402 0.950 . S
C407 C408 1.478 . S
C408 C407 1.478 . S
C408 C409 1.397 . S
C408 C425 1.394 1_645 S
C409 C408 1.397 . S
C409 C410 1.438 . S
C409 C414 1.429 . S
C410 C409 1.438 . S
C410 C411 1.428 . S
C410 C423 1.394 1_655 S
C411 H403 0.949 . S
C411 C410 1.428 . S
C411 C412 1.345 . S
C412 H404 0.950 . S
C412 C411 1.345 . S
C412 C413 1.424 . S
C413 H405 0.951 . S
C413 C412 1.424 . S
C413 C414 1.347 . S
C414 H406 0.951 . S
C414 C409 1.429 . S
C414 C413 1.347 . S
H415 C416 0.957 . S
C416 H415 0.957 . S
C416 C422 1.261 1_655 S
H417 C422 0.950 . S
H418 C426 0.949 . S
H419 C427 0.950 . S
H420 C428 0.951 . S
H421 C429 0.951 . S
C422 C416 1.261 1_455 S
C422 H417 0.950 . S
C422 C423 1.478 . S
C423 C410 1.394 1_455 S
C423 C422 1.478 . S
C423 C424 1.397 1_545 S
C424 C423 1.397 1_565 S
C424 C425 1.438 . S
C424 C429 1.429 . S
C425 C408 1.394 1_465 S
C425 C424 1.438 . S
C425 C426 1.428 . S
C426 H418 0.949 . S
C426 C425 1.428 . S
C426 C427 1.345 . S
C427 H419 0.950 . S
C427 C426 1.345 . S
C427 C428 1.424 . S
C428 H420 0.951 . S
C428 C427 1.424 . S
C428 C429 1.347 . S
C429 H421 0.951 . S
C429 C424 1.429 . S
C429 C428 1.347 . S
H430 C431 0.951 . S
C431 H430 0.951 . S
C431 C437 1.265 1_655 S
H432 C437 0.950 . S
H433 C441 0.949 . S
H434 C442 0.950 . S
H435 C443 0.951 . S
H436 C444 0.951 . S
C437 C431 1.265 1_455 S
C437 H432 0.950 . S
C437 C438 1.478 . S
C438 C437 1.478 . S
C438 C439 1.397 . S
C438 C455 1.394 1_465 S
C439 C438 1.397 . S
C439 C440 1.438 . S
C439 C444 1.429 . S
C440 C439 1.438 . S
C440 C441 1.428 . S
C440 C453 1.394 1_455 S
C441 H433 0.949 . S
C441 C440 1.428 . S
C441 C442 1.345 . S
C442 H434 0.950 . S
C442 C441 1.345 . S
C442 C443 1.424 . S
C443 H435 0.951 . S
C443 C442 1.424 . S
C443 C444 1.347 . S
C444 H436 0.951 . S
C444 C439 1.429 . S
C444 C443 1.347 . S
H445 C446 0.951 . S
C446 H445 0.951 . S
C446 C452 1.265 1_455 S
H447 C452 0.950 . S
H448 C456 0.949 . S
H449 C457 0.950 . S
H450 C458 0.951 . S
H451 C459 0.951 . S
C452 C446 1.265 1_655 S
C452 H447 0.950 . S
C452 C453 1.478 . S
C453 C440 1.394 1_655 S
C453 C452 1.478 . S
C453 C454 1.397 1_565 S
C454 C453 1.397 1_545 S
C454 C455 1.438 . S
C454 C459 1.429 . S
C455 C438 1.394 1_645 S
C455 C454 1.438 . S
C455 C456 1.428 . S
C456 H448 0.949 . S
C456 C455 1.428 . S
C456 C457 1.345 . S
C457 H449 0.950 . S
C457 C456 1.345 . S
C457 C458 1.424 . S
C458 H450 0.951 . S
C458 C457 1.424 . S
C458 C459 1.347 . S
C459 H451 0.951 . S
C459 C454 1.429 . S
C459 C458 1.347 . S
H460 C461 0.951 . S
C461 H460 0.951 . S
C461 C467 1.265 . S
H462 C467 0.950 . S
H463 C471 0.949 . S
H464 C472 0.950 . S
H465 C473 0.951 . S
H466 C474 0.951 . S
C467 C461 1.265 . S
C467 H462 0.950 . S
C467 C468 1.478 . S
C468 C467 1.478 . S
C468 C469 1.397 . S
C468 C485 1.394 . S
C469 C468 1.397 . S
C469 C470 1.438 . S
C469 C474 1.429 . S
C470 C469 1.438 . S
C470 C471 1.428 . S
C470 C483 1.394 . S
C471 H463 0.949 . S
C471 C470 1.428 . S
C471 C472 1.345 . S
C472 H464 0.950 . S
C472 C471 1.345 . S
C472 C473 1.424 . S
C473 H465 0.951 . S
C473 C472 1.424 . S
C473 C474 1.347 . S
C474 H466 0.951 . S
C474 C469 1.429 . S
C474 C473 1.347 . S
H475 C476 0.951 . S
C476 H475 0.951 . S
C476 C482 1.265 . S
H477 C482 0.950 . S
H478 C486 0.949 . S
H479 C487 0.950 . S
H480 C488 0.951 . S
H481 C489 0.951 . S
C482 C476 1.265 . S
C482 H477 0.950 . S
C482 C483 1.478 . S
C483 C470 1.394 . S
C483 C482 1.478 . S
C483 C484 1.397 . S
C484 C483 1.397 . S
C484 C485 1.438 . S
C484 C489 1.429 . S
C485 C468 1.394 . S
C485 C484 1.438 . S
C485 C486 1.428 . S
C486 H478 0.949 . S
C486 C485 1.428 . S
C486 C487 1.345 . S
C487 H479 0.950 . S
C487 C486 1.345 . S
C487 C488 1.424 . S
C488 H480 0.951 . S
C488 C487 1.424 . S
C488 C489 1.347 . S
C489 H481 0.951 . S
C489 C484 1.429 . S
C489 C488 1.347 . S
H490 C491 0.951 . S
C491 H490 0.951 . S
C491 C497 1.265 . S
H492 C497 0.950 . S
H493 C501 0.949 . S
H494 C502 0.950 . S
H495 C503 0.951 . S
H496 C504 0.951 . S
C497 C491 1.265 . S
C497 H492 0.950 . S
C497 C498 1.478 . S
C498 C497 1.478 . S
C498 C499 1.397 . S
C498 C515 1.394 . S
C499 C498 1.397 . S
C499 C500 1.438 . S
C499 C504 1.429 . S
C500 C499 1.438 . S
C500 C501 1.428 . S
C500 C513 1.394 . S
C501 H493 0.949 . S
C501 C500 1.428 . S
C501 C502 1.345 . S
C502 H494 0.950 . S
C502 C501 1.345 . S
C502 C503 1.424 . S
C503 H495 0.951 . S
C503 C502 1.424 . S
C503 C504 1.347 . S
C504 H496 0.951 . S
C504 C499 1.429 . S
C504 C503 1.347 . S
H505 C506 0.951 . S
C506 H505 0.951 . S
C506 C512 1.265 . S
H507 C512 0.950 . S
H508 C516 0.949 . S
H509 C517 0.950 . S
H510 C518 0.951 . S
H511 C519 0.951 . S
C512 C506 1.265 . S
C512 H507 0.950 . S
C512 C513 1.478 . S
C513 C500 1.394 . S
C513 C512 1.478 . S
C513 C514 1.397 . S
C514 C513 1.397 . S
C514 C515 1.438 . S
C514 C519 1.429 . S
C515 C498 1.394 . S
C515 C514 1.438 . S
C515 C516 1.428 . S
C516 H508 0.949 . S
C516 C515 1.428 . S
C516 C517 1.345 . S
C517 H509 0.950 . S
C517 C516 1.345 . S
C517 C518 1.424 . S
C518 H510 0.951 . S
C518 C517 1.424 . S
C518 C519 1.347 . S
C519 H511 0.951 . S
C519 C514 1.429 . S
C519 C518 1.347 . S
C161 C86 0.247 . S
C176 C15 0.247 . S
C191 C95 0.234 . S
C206 C6 0.234 . S
C221 C59 3.555 . S
C236 C130 3.555 . S
C251 C50 3.530 . S
C266 C139 3.530 . S
C281 C19 4.863 1_566 S
C296 C10 4.863 1_544 S
C311 C55 1.026 . S
C326 C46 1.026 . S
C341 C99 4.864 1_556 S
C356 C90 4.864 1_554 S
C371 C126 0.824 . S
C386 C135 0.824 . S
C401 C49 1.487 1_455 S
C416 C18 1.435 1_545 S
C431 C9 1.439 1_665 S
C446 C58 1.410 . S
C461 C129 1.487 . S
C476 C98 1.445 . S
C491 C138 1.408 . S
C506 C89 1.440 . S
