# Generated by pormake.
# Topology zfr, (5)-cn, num edge types: 1
# Building blocks:
#     Node 0, Type 0, BuildingBlock: XOMCOT_clean_sbu_0, # of connection points: 5
#     Node 1, Type 0, BuildingBlock: XOMCOT_clean_sbu_0, # of connection points: 5
#     Node 2, Type 0, BuildingBlock: XOMCOT_clean_sbu_0, # of connection points: 5
#     Node 3, Type 0, BuildingBlock: XOMCOT_clean_sbu_0, # of connection points: 5
#     Node 4, Type 0, BuildingBlock: XOMCOT_clean_sbu_0, # of connection points: 5
#     Node 5, Type 0, BuildingBlock: XOMCOT_clean_sbu_0, # of connection points: 5
#     Node 6, Type 0, BuildingBlock: XOMCOT_clean_sbu_0, # of connection points: 5
#     Node 7, Type 0, BuildingBlock: XOMCOT_clean_sbu_0, # of connection points: 5
#     Edge 8, Type (0, 0), BuildingBlock: AJUNOK_clean_linker_0, # of connection points: 2
#     Edge 9, Type (0, 0), BuildingBlock: AJUNOK_clean_linker_0, # of connection points: 2
#     Edge 10, Type (0, 0), BuildingBlock: AJUNOK_clean_linker_0, # of connection points: 2
#     Edge 11, Type (0, 0), BuildingBlock: AJUNOK_clean_linker_0, # of connection points: 2
#     Edge 12, Type (0, 0), BuildingBlock: AJUNOK_clean_linker_0, # of connection points: 2
#     Edge 13, Type (0, 0), BuildingBlock: AJUNOK_clean_linker_0, # of connection points: 2
#     Edge 14, Type (0, 0), BuildingBlock: AJUNOK_clean_linker_0, # of connection points: 2
#     Edge 15, Type (0, 0), BuildingBlock: AJUNOK_clean_linker_0, # of connection points: 2
#     Edge 16, Type (0, 0), BuildingBlock: AJUNOK_clean_linker_0, # of connection points: 2
#     Edge 17, Type (0, 0), BuildingBlock: AJUNOK_clean_linker_0, # of connection points: 2
#     Edge 18, Type (0, 0), BuildingBlock: AJUNOK_clean_linker_0, # of connection points: 2
#     Edge 19, Type (0, 0), BuildingBlock: AJUNOK_clean_linker_0, # of connection points: 2
#     Edge 20, Type (0, 0), BuildingBlock: AJUNOK_clean_linker_0, # of connection points: 2
#     Edge 21, Type (0, 0), BuildingBlock: AJUNOK_clean_linker_0, # of connection points: 2
#     Edge 22, Type (0, 0), BuildingBlock: AJUNOK_clean_linker_0, # of connection points: 2
#     Edge 23, Type (0, 0), BuildingBlock: AJUNOK_clean_linker_0, # of connection points: 2
#     Edge 24, Type (0, 0), BuildingBlock: AJUNOK_clean_linker_0, # of connection points: 2
#     Edge 25, Type (0, 0), BuildingBlock: AJUNOK_clean_linker_0, # of connection points: 2
#     Edge 26, Type (0, 0), BuildingBlock: AJUNOK_clean_linker_0, # of connection points: 2
#     Edge 27, Type (0, 0), BuildingBlock: AJUNOK_clean_linker_0, # of connection points: 2
# Relax obj value: 0.179
# Max RMSD: 0.175
# Mean RMSD: 0.175
data_MOF--net-zfr--node1-XOMCOT_clean_sbu_0--edge1-AJUNOK_clean_linker_0
_symmetry_space_group_name_H-M    P1
_symmetry_Int_Tables_number       1
_symmetry_cell_setting            triclinic
loop_
_symmetry_equiv_pos_as_xyz
'x, y, z'
_cell_length_a     38.260532
_cell_length_b     38.250631
_cell_length_c     13.443375
_cell_angle_alpha  89.97362
_cell_angle_beta   89.964111
_cell_angle_gamma 89.930627
loop_
_atom_site_label
_atom_site_type_symbol
_atom_site_fract_x
_atom_site_fract_y
_atom_site_fract_z
_atom_type_partial_charge
Co0 Co 0.13156 0.30653 0.2214 0.0
C1 C 0.12724 0.31092 0.44095 0.0
C2 C 0.07933 0.29202 0.37936 0.0
C3 C 0.07721 0.2901 0.48165 0.0
N4 N 0.11054 0.3058 0.35353 0.0
N5 N 0.10755 0.30181 0.51986 0.0
H6 H 0.15437 0.3183 0.44756 0.0
H7 H 0.06012 0.28193 0.32809 0.0
C8 C 0.05695 0.32246 0.16212 0.0
O9 O 0.05523 0.34735 0.22927 0.0
N10 N 0.15229 0.30632 0.09037 0.0
C11 C 0.18233 0.32173 0.06219 0.0
C12 C 0.18443 0.32073 0.95975 0.0
C13 C 0.13679 0.29588 1.00537 0.0
N14 N 0.15568 0.30453 0.92432 0.0
C15 C 0.14961 0.37497 0.29018 0.0
C16 C 0.11443 0.41279 0.14684 0.0
C17 C 0.13118 0.43096 0.22425 0.0
C18 C 0.14983 0.41135 0.29455 0.0
C19 C 0.1162 0.37623 0.14303 0.0
N20 N 0.13132 0.35764 0.21851 0.0
H21 H 0.16491 0.36088 0.34383 0.0
H22 H 0.10462 0.36293 0.08038 0.0
H23 H 0.20042 0.33452 0.11209 0.0
H24 H 0.11104 0.28438 1.00218 0.0
O25 O 0.17702 0.3001 0.27954 0.0
O26 O 0.1417 0.25689 0.23668 0.0
O27 O 0.08404 0.30309 0.15577 0.0
C28 C 0.17127 0.26669 0.27609 0.0
H29 H 0.05548 0.27988 0.52416 0.0
H30 H 0.20484 0.33229 0.91471 0.0
H31 H 0.09953 0.42633 0.09038 0.0
H32 H 0.16476 0.42396 0.35276 0.0
Co33 Co 0.70705 0.13208 0.4688 0.0
C34 C 0.70002 0.12691 0.68741 0.0
C35 C 0.72559 0.08179 0.62773 0.0
C36 C 0.72636 0.07974 0.73025 0.0
N37 N 0.70841 0.11114 0.6007 0.0
N38 N 0.71003 0.10813 0.76725 0.0
H39 H 0.68996 0.15316 0.69314 0.0
H40 H 0.73861 0.06415 0.57697 0.0
C41 C 0.69139 0.05666 0.4173 0.0
O42 O 0.66872 0.05487 0.49058 0.0
N43 N 0.70627 0.15283 0.33783 0.0
C44 C 0.69059 0.18301 0.31162 0.0
C45 C 0.68969 0.18499 0.20918 0.0
C46 C 0.71502 0.1371 0.25147 0.0
N47 N 0.70469 0.15586 0.1718 0.0
C48 C 0.63954 0.15425 0.53671 0.0
C49 C 0.59982 0.11323 0.41178 0.0
C50 C 0.58295 0.13182 0.48824 0.0
C51 C 0.60332 0.15406 0.54725 0.0
C52 C 0.63622 0.11523 0.40171 0.0
N53 N 0.6559 0.13293 0.46991 0.0
H54 H 0.65423 0.17221 0.58163 0.0
H55 H 0.64847 0.10212 0.33979 0.0
H56 H 0.67893 0.20132 0.36318 0.0
H57 H 0.72674 0.11143 0.24634 0.0
O58 O 0.71529 0.17733 0.52731 0.0
O59 O 0.75696 0.14082 0.48011 0.0
O60 O 0.70915 0.08444 0.40331 0.0
C61 C 0.74845 0.17036 0.52206 0.0
H62 H 0.73914 0.05972 0.77409 0.0
H63 H 0.67795 0.20574 0.16578 0.0
H64 H 0.5852 0.09699 0.36071 0.0
H65 H 0.59148 0.17155 0.60085 0.0
Co66 Co 0.88268 0.70533 0.73551 0.0
C67 C 0.88576 0.7036 0.95502 0.0
C68 C 0.9354 0.71784 0.89439 0.0
C69 C 0.93679 0.72137 0.99655 0.0
N70 N 0.90345 0.706 0.86814 0.0
N71 N 0.90528 0.71287 0.03391 0.0
H72 H 0.85848 0.6968 0.96081 0.0
H73 H 0.95569 0.72579 0.84336 0.0
C74 C 0.95659 0.68857 0.67186 0.0
O75 O 0.95777 0.6623 0.73475 0.0
N76 N 0.86224 0.70599 0.60427 0.0
C77 C 0.83205 0.69118 0.57465 0.0
C78 C 0.82996 0.69351 0.47227 0.0
C79 C 0.87785 0.71735 0.52037 0.0
N80 N 0.85894 0.70977 0.43886 0.0
C81 C 0.86709 0.63686 0.80832 0.0
C82 C 0.89573 0.59894 0.65367 0.0
C83 C 0.88106 0.58112 0.73469 0.0
C84 C 0.86619 0.60052 0.81176 0.0
C85 C 0.89556 0.63563 0.65251 0.0
N86 N 0.88308 0.65419 0.7321 0.0
H87 H 0.85402 0.6509 0.86644 0.0
H88 H 0.90585 0.64905 0.58811 0.0
H89 H 0.81384 0.67794 0.62333 0.0
H90 H 0.90322 0.72976 0.51785 0.0
O91 O 0.83708 0.71121 0.79298 0.0
O92 O 0.87206 0.75487 0.75181 0.0
O93 O 0.93027 0.70909 0.67025 0.0
C94 C 0.84256 0.74468 0.79114 0.0
H95 H 0.95857 0.73134 0.03936 0.0
H96 H 0.80987 0.68218 0.42571 0.0
H97 H 0.90662 0.58467 0.59133 0.0
H98 H 0.85388 0.58766 0.87447 0.0
Co99 Co 0.30555 0.88169 0.97548 0.0
C100 C 0.31121 0.88541 0.19427 0.0
C101 C 0.29042 0.933 0.13489 0.0
C102 C 0.28929 0.93482 0.23727 0.0
N103 N 0.30508 0.90231 0.10769 0.0
N104 N 0.30227 0.90474 0.27385 0.0
H105 H 0.31979 0.8586 0.19999 0.0
H106 H 0.27897 0.95181 0.08457 0.0
C107 C 0.3209 0.95723 0.92178 0.0
O108 O 0.34501 0.9588 0.99123 0.0
N109 N 0.30524 0.86117 0.84442 0.0
C110 C 0.32015 0.8308 0.81617 0.0
C111 C 0.31984 0.82907 0.71355 0.0
C112 C 0.29582 0.87727 0.75937 0.0
N113 N 0.30498 0.85858 0.67862 0.0
C114 C 0.37405 0.86168 0.04109 0.0
C115 C 0.41174 0.89997 0.9041 0.0
C116 C 0.42998 0.8818 0.97882 0.0
C117 C 0.41045 0.86162 0.04586 0.0
C118 C 0.37523 0.89812 0.89976 0.0
N119 N 0.35666 0.88138 0.97245 0.0
H120 H 0.35998 0.84522 0.09196 0.0
H121 H 0.36197 0.91081 0.83875 0.0
H122 H 0.33232 0.81229 0.86623 0.0
H123 H 0.28388 0.90287 0.75576 0.0
O124 O 0.29812 0.83618 0.03367 0.0
O125 O 0.25587 0.87264 0.99028 0.0
O126 O 0.30268 0.92953 0.91091 0.0
C127 C 0.26486 0.84303 0.03106 0.0
H128 H 0.2777 0.95554 0.28115 0.0
H129 H 0.33166 0.80891 0.6681 0.0
H130 H 0.42522 0.91604 0.85017 0.0
H131 H 0.42316 0.84566 0.10173 0.0
Co132 Co 0.13229 0.7072 0.2941 0.0
C133 C 0.1285 0.70168 0.07544 0.0
C134 C 0.08156 0.7239 0.1349 0.0
C135 C 0.07971 0.72497 0.03253 0.0
N136 N 0.11184 0.70841 0.16196 0.0
N137 N 0.10939 0.7111 0.99593 0.0
H138 H 0.155 0.69224 0.06972 0.0
H139 H 0.06308 0.73579 0.18543 0.0
C140 C 0.05643 0.69157 0.34501 0.0
O141 O 0.05473 0.66838 0.27307 0.0
N142 N 0.15261 0.7067 0.42525 0.0
C143 C 0.18289 0.69159 0.45334 0.0
C144 C 0.18457 0.69174 0.55598 0.0
C145 C 0.13651 0.71604 0.51032 0.0
N146 N 0.15511 0.70667 0.59099 0.0
C147 C 0.15449 0.63979 0.22671 0.0
C148 C 0.11334 0.59996 0.35133 0.0
C149 C 0.13222 0.58312 0.27537 0.0
C150 C 0.15453 0.60356 0.21664 0.0
C151 C 0.11524 0.63638 0.3614 0.0
N152 N 0.13315 0.65608 0.29356 0.0
H153 H 0.17219 0.65459 0.18112 0.0
H154 H 0.10177 0.6486 0.4228 0.0
H155 H 0.20142 0.67955 0.40312 0.0
H156 H 0.11103 0.72825 0.51392 0.0
O157 O 0.17779 0.71543 0.23686 0.0
O158 O 0.14099 0.75712 0.28213 0.0
O159 O 0.08435 0.70924 0.35845 0.0
C160 C 0.17071 0.74858 0.24121 0.0
H161 H 0.05928 0.73704 0.98863 0.0
H162 H 0.20472 0.67987 0.60134 0.0
H163 H 0.0969 0.58532 0.40194 0.0
H164 H 0.17219 0.59179 0.16335 0.0
Co165 Co 0.30642 0.13243 0.53882 0.0
C166 C 0.31337 0.1277 0.32006 0.0
C167 C 0.29058 0.08115 0.37955 0.0
C168 C 0.28987 0.07917 0.27702 0.0
N169 N 0.30604 0.11139 0.40681 0.0
N170 N 0.30446 0.10847 0.24015 0.0
H171 H 0.32182 0.15452 0.31437 0.0
H172 H 0.2785 0.06276 0.42995 0.0
C173 C 0.32089 0.05732 0.59572 0.0
O174 O 0.34564 0.05548 0.52815 0.0
N175 N 0.30614 0.15333 0.66973 0.0
C176 C 0.32053 0.18413 0.69571 0.0
C177 C 0.32109 0.18637 0.79809 0.0
C178 C 0.29782 0.13748 0.75629 0.0
N179 N 0.30722 0.15675 0.83579 0.0
C180 C 0.37526 0.15104 0.4739 0.0
C181 C 0.41238 0.1137 0.61423 0.0
C182 C 0.43087 0.13114 0.53865 0.0
C183 C 0.41164 0.15089 0.47 0.0
C184 C 0.37582 0.11569 0.61741 0.0
N185 N 0.35755 0.13185 0.54302 0.0
H186 H 0.36153 0.1674 0.4221 0.0
H187 H 0.36228 0.10359 0.67887 0.0
H188 H 0.33162 0.20278 0.64412 0.0
H189 H 0.28717 0.11138 0.76189 0.0
O190 O 0.3004 0.17781 0.47958 0.0
O191 O 0.2569 0.14292 0.52223 0.0
O192 O 0.30234 0.0849 0.60427 0.0
C193 C 0.26697 0.17222 0.4816 0.0
H194 H 0.27825 0.05852 0.23311 0.0
H195 H 0.33188 0.20765 0.84122 0.0
H196 H 0.42569 0.09813 0.6697 0.0
H197 H 0.42456 0.16642 0.41354 0.0
Co198 Co 0.88246 0.3057 0.7801 0.0
C199 C 0.88557 0.30844 0.56061 0.0
C200 C 0.93479 0.29255 0.62112 0.0
C201 C 0.9367 0.29062 0.51885 0.0
N202 N 0.90295 0.30476 0.64752 0.0
N203 N 0.9056 0.30058 0.48158 0.0
H204 H 0.85818 0.31484 0.55437 0.0
H205 H 0.95464 0.28338 0.6719 0.0
C206 C 0.95712 0.32352 0.83575 0.0
O207 O 0.95772 0.34853 0.76874 0.0
N208 N 0.86217 0.30555 0.91149 0.0
C209 C 0.83169 0.32008 0.9404 0.0
C210 C 0.82995 0.31911 0.04302 0.0
C211 C 0.8783 0.29568 0.99601 0.0
N212 N 0.85952 0.30418 0.07714 0.0
C213 C 0.86368 0.37351 0.70703 0.0
C214 C 0.89614 0.41262 0.85273 0.0
C215 C 0.87986 0.42981 0.77315 0.0
C216 C 0.8629 0.40984 0.70094 0.0
C217 C 0.89578 0.37599 0.85677 0.0
N218 N 0.88156 0.35682 0.78097 0.0
H219 H 0.84923 0.35894 0.65272 0.0
H220 H 0.90736 0.36311 0.92025 0.0
H221 H 0.81305 0.33229 0.89087 0.0
H222 H 0.90396 0.28383 0.99904 0.0
O223 O 0.83691 0.2978 0.72342 0.0
O224 O 0.87378 0.25587 0.76712 0.0
O225 O 0.93039 0.30375 0.84415 0.0
C226 C 0.84396 0.2646 0.72712 0.0
H227 H 0.95846 0.28076 0.47564 0.0
H228 H 0.80969 0.33047 0.08909 0.0
H229 H 0.90855 0.42734 0.91172 0.0
H230 H 0.84923 0.42224 0.63977 0.0
Co231 Co 0.7063 0.87903 0.04686 0.0
C232 C 0.70178 0.88258 0.82793 0.0
C233 C 0.72389 0.92946 0.88758 0.0
C234 C 0.72522 0.93129 0.78526 0.0
N235 N 0.70824 0.89926 0.91448 0.0
N236 N 0.71139 0.90166 0.74855 0.0
H237 H 0.69233 0.85611 0.82207 0.0
H238 H 0.73562 0.94796 0.93822 0.0
C239 C 0.69083 0.95472 0.09592 0.0
O240 O 0.66793 0.95602 0.0232 0.0
N241 N 0.7052 0.85889 0.17818 0.0
C242 C 0.68988 0.82875 0.20638 0.0
C243 C 0.69012 0.82705 0.30901 0.0
C244 C 0.71478 0.87487 0.26306 0.0
N245 N 0.70534 0.85635 0.3438 0.0
C246 C 0.63861 0.8587 0.97738 0.0
C247 C 0.59919 0.89881 0.10593 0.0
C248 C 0.58215 0.88084 0.02871 0.0
C249 C 0.60238 0.85909 0.96773 0.0
C250 C 0.63564 0.89659 0.11518 0.0
N251 N 0.65515 0.87919 0.0457 0.0
H252 H 0.65318 0.84122 0.93053 0.0
H253 H 0.64808 0.90939 0.17731 0.0
H254 H 0.67774 0.8103 0.15626 0.0
H255 H 0.7273 0.90017 0.26646 0.0
O256 O 0.71351 0.83335 0.99076 0.0
O257 O 0.75614 0.86898 0.03567 0.0
O258 O 0.70891 0.92709 0.11035 0.0
C259 C 0.74683 0.83927 0.9961 0.0
H260 H 0.73735 0.95172 0.74149 0.0
H261 H 0.67822 0.80696 0.35453 0.0
H262 H 0.58468 0.91474 0.15817 0.0
H263 H 0.59042 0.84211 0.91311 0.0
C264 C 0.20753 0.18705 0.41231 0.0
C265 C 0.24245 0.19669 0.43111 0.0
C266 C 0.18481 0.20922 0.35909 0.0
C267 C 0.19612 0.24192 0.32339 0.0
H268 H 0.19772 0.1621 0.43815 0.0
H269 H 0.15803 0.20098 0.34768 0.0
S270 S 0.28516 0.27922 0.3502 0.0
N271 N 0.2872 0.24118 0.40776 0.0
N272 N 0.24475 0.28241 0.30851 0.0
C273 C 0.23099 0.2517 0.34107 0.0
C274 C 0.25406 0.22923 0.3947 0.0
C275 C 0.78596 0.24921 0.65528 0.0
C276 C 0.82034 0.23904 0.67846 0.0
C277 C 0.76339 0.22702 0.6032 0.0
C278 C 0.77426 0.19375 0.5708 0.0
H279 H 0.77626 0.27465 0.67757 0.0
H280 H 0.73709 0.23615 0.58834 0.0
S281 S 0.862 0.15467 0.61064 0.0
N282 N 0.86443 0.19347 0.66404 0.0
N283 N 0.82196 0.15169 0.56553 0.0
C284 C 0.80867 0.18321 0.5928 0.0
C285 C 0.83167 0.20581 0.64694 0.0
C286 C 0.82758 0.80362 0.86381 0.0
C287 C 0.81783 0.76899 0.84142 0.0
C288 C 0.80511 0.826 0.91722 0.0
C289 C 0.77201 0.81462 0.94958 0.0
H290 H 0.85285 0.81345 0.8407 0.0
H291 H 0.81343 0.8526 0.93132 0.0
S292 S 0.73438 0.72611 0.91318 0.0
N293 N 0.77286 0.72437 0.85805 0.0
N294 N 0.7311 0.76613 0.95785 0.0
C295 C 0.76216 0.77999 0.92851 0.0
C296 C 0.78492 0.75729 0.87461 0.0
C297 C 0.22851 0.76433 0.16826 0.0
C298 C 0.1941 0.77427 0.19202 0.0
C299 C 0.25076 0.78655 0.11495 0.0
C300 C 0.23951 0.81961 0.08182 0.0
H301 H 0.23846 0.73902 0.19089 0.0
H302 H 0.27709 0.7776 0.09958 0.0
S303 S 0.15156 0.85809 0.12317 0.0
N304 N 0.14961 0.81943 0.17769 0.0
N305 N 0.19143 0.86126 0.07688 0.0
C306 C 0.20508 0.82994 0.10467 0.0
C307 C 0.18243 0.80733 0.16006 0.0
C308 C 0.13994 0.32939 0.6573 0.0
C309 C 0.11879 0.302 0.62219 0.0
C310 C 0.15236 0.32975 0.75533 0.0
C311 C 0.14425 0.30262 0.82215 0.0
H312 H 0.14661 0.35095 0.60867 0.0
H313 H 0.16782 0.35185 0.77947 0.0
S314 S 0.09232 0.22326 0.76452 0.0
N315 N 0.09184 0.24607 0.66022 0.0
N316 N 0.11538 0.24654 0.84432 0.0
C317 C 0.12359 0.27473 0.78748 0.0
C318 C 0.11079 0.27448 0.68765 0.0
C319 C 0.73487 0.12596 0.03335 0.0
C320 C 0.70567 0.14439 0.06964 0.0
C321 C 0.73598 0.11359 0.93508 0.0
C322 C 0.70785 0.11914 0.86962 0.0
H323 H 0.7572 0.12144 0.08113 0.0
H324 H 0.75928 0.10025 0.90954 0.0
S325 S 0.62362 0.16208 0.93128 0.0
N326 N 0.64682 0.16502 0.03449 0.0
N327 N 0.64894 0.14185 0.85011 0.0
C328 C 0.67815 0.13673 0.9057 0.0
C329 C 0.67704 0.14936 1.00555 0.0
C330 C 0.91649 0.70413 0.21287 0.0
C331 C 0.89394 0.7147 0.13603 0.0
C332 C 0.90505 0.70315 0.31195 0.0
C333 C 0.87062 0.7126 0.3375 0.0
H334 H 0.94281 0.69558 0.19583 0.0
H335 H 0.92295 0.69399 0.3687 0.0
S336 S 0.80297 0.7471 0.16675 0.0
N337 N 0.83678 0.73868 0.09415 0.0
N338 N 0.81518 0.73579 0.28016 0.0
C339 C 0.84822 0.72438 0.26216 0.0
C340 C 0.85992 0.72575 0.16146 0.0
C341 C 0.29156 0.8597 0.40197 0.0
C342 C 0.30274 0.89355 0.37587 0.0
C343 C 0.29242 0.8483 0.50119 0.0
C344 C 0.30435 0.87044 0.5772 0.0
H345 H 0.28178 0.84211 0.34537 0.0
H346 H 0.28336 0.82222 0.51897 0.0
S347 S 0.34088 0.9594 0.54493 0.0
N348 N 0.32875 0.94775 0.43195 0.0
N349 N 0.33052 0.92643 0.61853 0.0
C350 C 0.31632 0.90399 0.55156 0.0
C351 C 0.31542 0.91554 0.45081 0.0
C352 C 0.15452 0.72057 0.86743 0.0
C353 C 0.12047 0.71015 0.89388 0.0
C354 C 0.16582 0.71928 0.76817 0.0
C355 C 0.14339 0.70763 0.69251 0.0
H356 H 0.17233 0.73011 0.92376 0.0
H357 H 0.19205 0.72779 0.75008 0.0
S358 S 0.05373 0.67301 0.72595 0.0
N359 N 0.06571 0.68515 0.83865 0.0
N360 N 0.08685 0.68251 0.65196 0.0
C361 C 0.10962 0.69639 0.71855 0.0
C362 C 0.09817 0.69775 0.81934 0.0
C363 C 0.2783 0.1126 0.07224 0.0
C364 C 0.306 0.11971 0.13787 0.0
C365 C 0.27871 0.12514 0.97406 0.0
C366 C 0.30678 0.14528 0.93802 0.0
H367 H 0.25584 0.09788 0.09755 0.0
H368 H 0.25673 0.11937 0.92615 0.0
S369 S 0.3875 0.16758 0.07703 0.0
N370 N 0.36339 0.14582 0.1579 0.0
N371 N 0.36426 0.16924 0.97369 0.0
C372 C 0.33501 0.15183 1.00233 0.0
C373 C 0.33459 0.13906 0.10208 0.0
C374 C 0.86135 0.28827 0.35261 0.0
C375 C 0.89471 0.30066 0.37933 0.0
C376 C 0.84986 0.28952 0.25356 0.0
C377 C 0.87144 0.30301 0.17834 0.0
H378 H 0.84415 0.27741 0.40864 0.0
H379 H 0.82414 0.27964 0.23528 0.0
S380 S 0.95885 0.34276 0.21232 0.0
N381 N 0.94775 0.32932 0.32459 0.0
N382 N 0.92632 0.33161 0.13823 0.0
C383 C 0.90453 0.31601 0.20448 0.0
C384 C 0.91614 0.31478 0.30508 0.0
C385 C 0.71824 0.84528 0.52058 0.0
C386 C 0.70672 0.86797 0.44527 0.0
C387 C 0.72 0.8565 0.61978 0.0
C388 C 0.71019 0.89073 0.64649 0.0
H389 H 0.7263 0.81891 0.50225 0.0
H390 H 0.72939 0.83847 0.67587 0.0
S391 S 0.67377 0.95832 0.47953 0.0
N392 N 0.68245 0.92503 0.40531 0.0
N393 N 0.68597 0.94601 0.59193 0.0
C394 C 0.69795 0.9133 0.5723 0.0
C395 C 0.69611 0.90194 0.47157 0.0
C396 C 0.02134 0.3533 0.03341 0.0
C397 C 0.0315 0.32181 0.07924 0.0
C398 C 0.99838 0.35347 0.95191 0.0
C399 C 0.98431 0.32219 0.91424 0.0
H400 H 0.03136 0.37802 0.06041 0.0
H401 H 0.99079 0.37839 0.92019 0.0
S402 S 1.00376 0.23275 1.00552 0.0
N403 N 0.02707 0.25852 0.07838 0.0
N404 N 0.98291 0.25885 0.92753 0.0
C405 C 0.99454 0.29052 0.95887 0.0
C406 C 0.0185 0.29032 0.04049 0.0
C407 C 0.72223 0.99306 0.21805 0.0
C408 C 0.69073 0.98201 0.17418 0.0
C409 C 0.72235 0.01734 0.29668 0.0
C410 C 0.69091 0.03018 0.33697 0.0
H411 H 0.74696 0.98304 0.19089 0.0
H412 H 0.74716 0.02572 0.32722 0.0
S413 S 0.60142 0.00851 0.25111 0.0
N414 N 0.62733 0.9858 0.17704 0.0
N415 N 0.62751 0.02995 0.32745 0.0
C416 C 0.65927 0.01901 0.29452 0.0
C417 C 0.65919 0.99525 0.21257 0.0
C418 C 0.01257 0.66093 0.45227 0.0
C419 C 0.02923 0.69218 0.42384 0.0
C420 C 0.98965 0.65994 0.53392 0.0
C421 C 0.98194 0.69028 0.58883 0.0
H422 H 0.0181 0.6368 0.41315 0.0
H423 H 0.97763 0.63526 0.55372 0.0
S424 S 0.01766 0.77881 0.54346 0.0
N425 N 0.03617 0.75424 0.45714 0.0
N426 N 0.99192 0.75253 0.60784 0.0
C427 C 0.99762 0.72183 0.55974 0.0
C428 C 0.02164 0.72271 0.47819 0.0
C429 C 0.35063 1.00078 0.81158 0.0
C430 C 0.31962 0.98427 0.84261 0.0
C431 C 0.35089 0.02373 0.73002 0.0
C432 C 0.32003 0.03159 0.67775 0.0
H433 H 0.37513 0.99515 0.84869 0.0
H434 H 0.3754 0.03568 0.70823 0.0
S435 S 0.23188 0.9962 0.73011 0.0
N436 N 0.25723 0.97753 0.81431 0.0
N437 N 0.25761 0.02185 0.66367 0.0
C438 C 0.28875 0.01597 0.70916 0.0
C439 C 0.2886 0.99193 0.79069 0.0
C440 C 0.12728 0.48534 0.3287 0.0
C441 C 0.12963 0.46993 0.23358 0.0
C442 C 0.12777 0.52169 0.34145 0.0
C443 C 0.1299 0.54449 0.25954 0.0
H444 H 0.12526 0.46917 0.3946 0.0
H445 H 0.12721 0.53187 0.41657 0.0
S446 S 0.13383 0.51799 0.9936 0.0
N447 N 0.1338 0.48075 0.0555 0.0
N448 N 0.13138 0.54893 0.07879 0.0
C449 C 0.13074 0.52954 0.16356 0.0
C450 C 0.13128 0.49242 0.15071 0.0
C451 C 0.52162 0.12785 0.42178 0.0
C452 C 0.54434 0.12945 0.50387 0.0
C453 C 0.48526 0.12745 0.43437 0.0
C454 C 0.4698 0.12928 0.52953 0.0
H455 H 0.53186 0.12769 0.34669 0.0
H456 H 0.46913 0.12597 0.36835 0.0
S457 S 0.51766 0.13188 0.76983 0.0
N458 N 0.54866 0.12993 0.68466 0.0
N459 N 0.48045 0.13222 0.70783 0.0
C460 C 0.4922 0.13029 0.61257 0.0
C461 C 0.52933 0.12978 0.59983 0.0
C462 C 0.91175 0.5233 0.74319 0.0
C463 C 0.88037 0.54245 0.73959 0.0
C464 C 0.91148 0.48685 0.75659 0.0
C465 C 0.87981 0.46844 0.76519 0.0
H466 H 0.93662 0.53668 0.73763 0.0
H467 H 0.93614 0.47292 0.75893 0.0
S468 S 0.7907 0.50651 0.75926 0.0
N469 N 0.81696 0.54041 0.74535 0.0
N470 N 0.81644 0.47197 0.76899 0.0
C471 C 0.84834 0.4873 0.76076 0.0
C472 C 0.84862 0.52431 0.74837 0.0
C473 C 0.52078 0.88402 0.09602 0.0
C474 C 0.5435 0.8834 0.01373 0.0
C475 C 0.48439 0.88431 0.08358 0.0
C476 C 0.46893 0.88341 0.98834 0.0
H477 H 0.53107 0.88348 0.17101 0.0
H478 H 0.46823 0.88503 0.14973 0.0
S479 S 0.51684 0.88357 0.74778 0.0
N480 N 0.54781 0.88487 0.833 0.0
N481 N 0.47965 0.88229 0.80984 0.0
C482 C 0.49136 0.88335 0.90521 0.0
C483 C 0.52848 0.884 0.91787 0.0
loop_
_geom_bond_atom_site_label_1
_geom_bond_atom_site_label_2
_geom_bond_distance
_geom_bond_site_symmetry_2
_ccdc_geom_bond_type
Co0 N4 2.148 . S
Co0 N10 2.128 . S
Co0 N20 2.194 . S
Co0 O25 2.351 . S
Co0 O26 2.155 . S
Co0 O27 2.096 . S
C1 N4 1.301 . S
C1 N5 1.328 . S
C1 H6 0.930 . S
C2 C3 1.333 . S
C2 N4 1.317 . S
C2 H7 0.930 . S
C3 C2 1.333 . S
C3 N5 1.350 . S
C3 H29 0.931 . S
N4 Co0 2.148 . S
N4 C1 1.301 . S
N4 C2 1.317 . S
N5 C1 1.328 . S
N5 C3 1.350 . S
H6 C1 0.930 . S
H7 C2 0.930 . S
C8 O9 1.224 . S
C8 O27 1.247 . S
O9 C8 1.224 . S
N10 Co0 2.128 . S
N10 C11 1.355 . S
N10 C13 1.311 1_554 S
C11 N10 1.355 . S
C11 C12 1.363 1_554 S
C11 H23 0.929 . S
C12 C11 1.363 1_556 S
C12 N14 1.375 . S
C12 H30 0.931 . S
C13 N10 1.311 1_556 S
C13 N14 1.347 . S
C13 H24 0.929 . S
N14 C12 1.375 . S
N14 C13 1.347 . S
C15 C18 1.365 . S
C15 N20 1.328 . S
C15 H21 0.929 . S
C16 C17 1.362 . S
C16 C19 1.378 . S
C16 H31 0.929 . S
C17 C16 1.362 . S
C17 C18 1.366 . S
C18 C15 1.365 . S
C18 C17 1.366 . S
C18 H32 0.930 . S
C19 C16 1.378 . S
C19 N20 1.315 . S
C19 H22 0.930 . S
N20 Co0 2.194 . S
N20 C15 1.328 . S
N20 C19 1.315 . S
H21 C15 0.929 . S
H22 C19 0.930 . S
H23 C11 0.929 . S
H24 C13 0.929 . S
O25 Co0 2.351 . S
O25 C28 1.244 . S
O26 Co0 2.155 . S
O26 C28 1.240 . S
O27 Co0 2.096 . S
O27 C8 1.247 . S
C28 O25 1.244 . S
C28 O26 1.240 . S
H29 C3 0.931 . S
H30 C12 0.931 . S
H31 C16 0.929 . S
H32 C18 0.930 . S
Co33 N37 2.148 . S
Co33 N43 2.128 . S
Co33 N53 2.194 . S
Co33 O58 2.351 . S
Co33 O59 2.155 . S
Co33 O60 2.096 . S
C34 N37 1.301 . S
C34 N38 1.328 . S
C34 H39 0.930 . S
C35 C36 1.333 . S
C35 N37 1.317 . S
C35 H40 0.930 . S
C36 C35 1.333 . S
C36 N38 1.350 . S
C36 H62 0.931 . S
N37 Co33 2.148 . S
N37 C34 1.301 . S
N37 C35 1.317 . S
N38 C34 1.328 . S
N38 C36 1.350 . S
H39 C34 0.930 . S
H40 C35 0.930 . S
C41 O42 1.224 . S
C41 O60 1.247 . S
O42 C41 1.224 . S
N43 Co33 2.128 . S
N43 C44 1.355 . S
N43 C46 1.311 . S
C44 N43 1.355 . S
C44 C45 1.363 . S
C44 H56 0.929 . S
C45 C44 1.363 . S
C45 N47 1.375 . S
C45 H63 0.931 . S
C46 N43 1.311 . S
C46 N47 1.347 . S
C46 H57 0.929 . S
N47 C45 1.375 . S
N47 C46 1.347 . S
C48 C51 1.365 . S
C48 N53 1.328 . S
C48 H54 0.929 . S
C49 C50 1.362 . S
C49 C52 1.378 . S
C49 H64 0.929 . S
C50 C49 1.362 . S
C50 C51 1.366 . S
C51 C48 1.365 . S
C51 C50 1.366 . S
C51 H65 0.930 . S
C52 C49 1.378 . S
C52 N53 1.315 . S
C52 H55 0.930 . S
N53 Co33 2.194 . S
N53 C48 1.328 . S
N53 C52 1.315 . S
H54 C48 0.929 . S
H55 C52 0.930 . S
H56 C44 0.929 . S
H57 C46 0.929 . S
O58 Co33 2.351 . S
O58 C61 1.244 . S
O59 Co33 2.155 . S
O59 C61 1.240 . S
O60 Co33 2.096 . S
O60 C41 1.247 . S
C61 O58 1.244 . S
C61 O59 1.240 . S
H62 C36 0.931 . S
H63 C45 0.931 . S
H64 C49 0.929 . S
H65 C51 0.930 . S
Co66 N70 2.148 . S
Co66 N76 2.128 . S
Co66 N86 2.194 . S
Co66 O91 2.351 . S
Co66 O92 2.155 . S
Co66 O93 2.096 . S
C67 N70 1.301 . S
C67 N71 1.328 1_556 S
C67 H72 0.930 . S
C68 C69 1.333 . S
C68 N70 1.317 . S
C68 H73 0.930 . S
C69 C68 1.333 . S
C69 N71 1.350 1_556 S
C69 H95 0.931 1_556 S
N70 Co66 2.148 . S
N70 C67 1.301 . S
N70 C68 1.317 . S
N71 C67 1.328 1_554 S
N71 C69 1.350 1_554 S
H72 C67 0.930 . S
H73 C68 0.930 . S
C74 O75 1.224 . S
C74 O93 1.247 . S
O75 C74 1.224 . S
N76 Co66 2.128 . S
N76 C77 1.355 . S
N76 C79 1.311 . S
C77 N76 1.355 . S
C77 C78 1.363 . S
C77 H89 0.929 . S
C78 C77 1.363 . S
C78 N80 1.375 . S
C78 H96 0.931 . S
C79 N76 1.311 . S
C79 N80 1.347 . S
C79 H90 0.929 . S
N80 C78 1.375 . S
N80 C79 1.347 . S
C81 C84 1.365 . S
C81 N86 1.328 . S
C81 H87 0.929 . S
C82 C83 1.362 . S
C82 C85 1.378 . S
C82 H97 0.929 . S
C83 C82 1.362 . S
C83 C84 1.366 . S
C84 C81 1.365 . S
C84 C83 1.366 . S
C84 H98 0.930 . S
C85 C82 1.378 . S
C85 N86 1.315 . S
C85 H88 0.930 . S
N86 Co66 2.194 . S
N86 C81 1.328 . S
N86 C85 1.315 . S
H87 C81 0.929 . S
H88 C85 0.930 . S
H89 C77 0.929 . S
H90 C79 0.929 . S
O91 Co66 2.351 . S
O91 C94 1.244 . S
O92 Co66 2.155 . S
O92 C94 1.240 . S
O93 Co66 2.096 . S
O93 C74 1.247 . S
C94 O91 1.244 . S
C94 O92 1.240 . S
H95 C69 0.931 1_554 S
H96 C78 0.931 . S
H97 C82 0.929 . S
H98 C84 0.930 . S
Co99 N103 2.148 1_556 S
Co99 N109 2.128 . S
Co99 N119 2.194 . S
Co99 O124 2.351 1_556 S
Co99 O125 2.155 . S
Co99 O126 2.096 . S
C100 N103 1.301 . S
C100 N104 1.328 . S
C100 H105 0.930 . S
C101 C102 1.333 . S
C101 N103 1.317 . S
C101 H106 0.930 . S
C102 C101 1.333 . S
C102 N104 1.350 . S
C102 H128 0.931 . S
N103 Co99 2.148 1_554 S
N103 C100 1.301 . S
N103 C101 1.317 . S
N104 C100 1.328 . S
N104 C102 1.350 . S
H105 C100 0.930 . S
H106 C101 0.930 . S
C107 O108 1.224 . S
C107 O126 1.247 . S
O108 C107 1.224 . S
N109 Co99 2.128 . S
N109 C110 1.355 . S
N109 C112 1.311 . S
C110 N109 1.355 . S
C110 C111 1.363 . S
C110 H122 0.929 . S
C111 C110 1.363 . S
C111 N113 1.375 . S
C111 H129 0.931 . S
C112 N109 1.311 . S
C112 N113 1.347 . S
C112 H123 0.929 . S
N113 C111 1.375 . S
N113 C112 1.347 . S
C114 C117 1.365 . S
C114 N119 1.328 1_554 S
C114 H120 0.929 . S
C115 C116 1.362 . S
C115 C118 1.378 . S
C115 H130 0.929 . S
C116 C115 1.362 . S
C116 C117 1.366 1_556 S
C117 C114 1.365 . S
C117 C116 1.366 1_554 S
C117 H131 0.930 . S
C118 C115 1.378 . S
C118 N119 1.315 . S
C118 H121 0.930 . S
N119 Co99 2.194 . S
N119 C114 1.328 1_556 S
N119 C118 1.315 . S
H120 C114 0.929 . S
H121 C118 0.930 . S
H122 C110 0.929 . S
H123 C112 0.929 . S
O124 Co99 2.351 1_554 S
O124 C127 1.244 1_554 S
O125 Co99 2.155 . S
O125 C127 1.240 . S
O126 Co99 2.096 . S
O126 C107 1.247 . S
C127 O124 1.244 1_556 S
C127 O125 1.240 . S
H128 C102 0.931 . S
H129 C111 0.931 . S
H130 C115 0.929 . S
H131 C117 0.930 . S
Co132 N136 2.148 . S
Co132 N142 2.128 . S
Co132 N152 2.194 . S
Co132 O157 2.351 . S
Co132 O158 2.155 . S
Co132 O159 2.096 . S
C133 N136 1.301 . S
C133 N137 1.328 1_554 S
C133 H138 0.930 . S
C134 C135 1.333 . S
C134 N136 1.317 . S
C134 H139 0.930 . S
C135 C134 1.333 . S
C135 N137 1.350 1_554 S
C135 H161 0.931 1_554 S
N136 Co132 2.148 . S
N136 C133 1.301 . S
N136 C134 1.317 . S
N137 C133 1.328 1_556 S
N137 C135 1.350 1_556 S
H138 C133 0.930 . S
H139 C134 0.930 . S
C140 O141 1.224 . S
C140 O159 1.247 . S
O141 C140 1.224 . S
N142 Co132 2.128 . S
N142 C143 1.355 . S
N142 C145 1.311 . S
C143 N142 1.355 . S
C143 C144 1.363 . S
C143 H155 0.929 . S
C144 C143 1.363 . S
C144 N146 1.375 . S
C144 H162 0.931 . S
C145 N142 1.311 . S
C145 N146 1.347 . S
C145 H156 0.929 . S
N146 C144 1.375 . S
N146 C145 1.347 . S
C147 C150 1.365 . S
C147 N152 1.328 . S
C147 H153 0.929 . S
C148 C149 1.362 . S
C148 C151 1.378 . S
C148 H163 0.929 . S
C149 C148 1.362 . S
C149 C150 1.366 . S
C150 C147 1.365 . S
C150 C149 1.366 . S
C150 H164 0.930 . S
C151 C148 1.378 . S
C151 N152 1.315 . S
C151 H154 0.930 . S
N152 Co132 2.194 . S
N152 C147 1.328 . S
N152 C151 1.315 . S
H153 C147 0.929 . S
H154 C151 0.930 . S
H155 C143 0.929 . S
H156 C145 0.929 . S
O157 Co132 2.351 . S
O157 C160 1.244 . S
O158 Co132 2.155 . S
O158 C160 1.240 . S
O159 Co132 2.096 . S
O159 C140 1.247 . S
C160 O157 1.244 . S
C160 O158 1.240 . S
H161 C135 0.931 1_556 S
H162 C144 0.931 . S
H163 C148 0.929 . S
H164 C150 0.930 . S
Co165 N169 2.148 . S
Co165 N175 2.128 . S
Co165 N185 2.194 . S
Co165 O190 2.351 . S
Co165 O191 2.155 . S
Co165 O192 2.096 . S
C166 N169 1.301 . S
C166 N170 1.328 . S
C166 H171 0.930 . S
C167 C168 1.333 . S
C167 N169 1.317 . S
C167 H172 0.930 . S
C168 C167 1.333 . S
C168 N170 1.350 . S
C168 H194 0.931 . S
N169 Co165 2.148 . S
N169 C166 1.301 . S
N169 C167 1.317 . S
N170 C166 1.328 . S
N170 C168 1.350 . S
H171 C166 0.930 . S
H172 C167 0.930 . S
C173 O174 1.224 . S
C173 O192 1.247 . S
O174 C173 1.224 . S
N175 Co165 2.128 . S
N175 C176 1.355 . S
N175 C178 1.311 . S
C176 N175 1.355 . S
C176 C177 1.363 . S
C176 H188 0.929 . S
C177 C176 1.363 . S
C177 N179 1.375 . S
C177 H195 0.931 . S
C178 N175 1.311 . S
C178 N179 1.347 . S
C178 H189 0.929 . S
N179 C177 1.375 . S
N179 C178 1.347 . S
C180 C183 1.365 . S
C180 N185 1.328 . S
C180 H186 0.929 . S
C181 C182 1.362 . S
C181 C184 1.378 . S
C181 H196 0.929 . S
C182 C181 1.362 . S
C182 C183 1.366 . S
C183 C180 1.365 . S
C183 C182 1.366 . S
C183 H197 0.930 . S
C184 C181 1.378 . S
C184 N185 1.315 . S
C184 H187 0.930 . S
N185 Co165 2.194 . S
N185 C180 1.328 . S
N185 C184 1.315 . S
H186 C180 0.929 . S
H187 C184 0.930 . S
H188 C176 0.929 . S
H189 C178 0.929 . S
O190 Co165 2.351 . S
O190 C193 1.244 . S
O191 Co165 2.155 . S
O191 C193 1.240 . S
O192 Co165 2.096 . S
O192 C173 1.247 . S
C193 O190 1.244 . S
C193 O191 1.240 . S
H194 C168 0.931 . S
H195 C177 0.931 . S
H196 C181 0.929 . S
H197 C183 0.930 . S
Co198 N202 2.148 . S
Co198 N208 2.128 . S
Co198 N218 2.194 . S
Co198 O223 2.351 . S
Co198 O224 2.155 . S
Co198 O225 2.096 . S
C199 N202 1.301 . S
C199 N203 1.328 . S
C199 H204 0.930 . S
C200 C201 1.333 . S
C200 N202 1.317 . S
C200 H205 0.930 . S
C201 C200 1.333 . S
C201 N203 1.350 . S
C201 H227 0.931 . S
N202 Co198 2.148 . S
N202 C199 1.301 . S
N202 C200 1.317 . S
N203 C199 1.328 . S
N203 C201 1.350 . S
H204 C199 0.930 . S
H205 C200 0.930 . S
C206 O207 1.224 . S
C206 O225 1.247 . S
O207 C206 1.224 . S
N208 Co198 2.128 . S
N208 C209 1.355 . S
N208 C211 1.311 1_556 S
C209 N208 1.355 . S
C209 C210 1.363 1_556 S
C209 H221 0.929 . S
C210 C209 1.363 1_554 S
C210 N212 1.375 . S
C210 H228 0.931 . S
C211 N208 1.311 1_554 S
C211 N212 1.347 . S
C211 H222 0.929 . S
N212 C210 1.375 . S
N212 C211 1.347 . S
C213 C216 1.365 . S
C213 N218 1.328 . S
C213 H219 0.929 . S
C214 C215 1.362 . S
C214 C217 1.378 . S
C214 H229 0.929 . S
C215 C214 1.362 . S
C215 C216 1.366 . S
C216 C213 1.365 . S
C216 C215 1.366 . S
C216 H230 0.930 . S
C217 C214 1.378 . S
C217 N218 1.315 . S
C217 H220 0.930 . S
N218 Co198 2.194 . S
N218 C213 1.328 . S
N218 C217 1.315 . S
H219 C213 0.929 . S
H220 C217 0.930 . S
H221 C209 0.929 . S
H222 C211 0.929 . S
O223 Co198 2.351 . S
O223 C226 1.244 . S
O224 Co198 2.155 . S
O224 C226 1.240 . S
O225 Co198 2.096 . S
O225 C206 1.247 . S
C226 O223 1.244 . S
C226 O224 1.240 . S
H227 C201 0.931 . S
H228 C210 0.931 . S
H229 C214 0.929 . S
H230 C216 0.930 . S
Co231 N235 2.148 1_554 S
Co231 N241 2.128 . S
Co231 N251 2.194 . S
Co231 O256 2.351 1_554 S
Co231 O257 2.155 . S
Co231 O258 2.096 . S
C232 N235 1.301 . S
C232 N236 1.328 . S
C232 H237 0.930 . S
C233 C234 1.333 . S
C233 N235 1.317 . S
C233 H238 0.930 . S
C234 C233 1.333 . S
C234 N236 1.350 . S
C234 H260 0.931 . S
N235 Co231 2.148 1_556 S
N235 C232 1.301 . S
N235 C233 1.317 . S
N236 C232 1.328 . S
N236 C234 1.350 . S
H237 C232 0.930 . S
H238 C233 0.930 . S
C239 O240 1.224 . S
C239 O258 1.247 . S
O240 C239 1.224 . S
N241 Co231 2.128 . S
N241 C242 1.355 . S
N241 C244 1.311 . S
C242 N241 1.355 . S
C242 C243 1.363 . S
C242 H254 0.929 . S
C243 C242 1.363 . S
C243 N245 1.375 . S
C243 H261 0.931 . S
C244 N241 1.311 . S
C244 N245 1.347 . S
C244 H255 0.929 . S
N245 C243 1.375 . S
N245 C244 1.347 . S
C246 C249 1.365 . S
C246 N251 1.328 1_556 S
C246 H252 0.929 . S
C247 C248 1.362 . S
C247 C250 1.378 . S
C247 H262 0.929 . S
C248 C247 1.362 . S
C248 C249 1.366 1_554 S
C249 C246 1.365 . S
C249 C248 1.366 1_556 S
C249 H263 0.930 . S
C250 C247 1.378 . S
C250 N251 1.315 . S
C250 H253 0.930 . S
N251 Co231 2.194 . S
N251 C246 1.328 1_554 S
N251 C250 1.315 . S
H252 C246 0.929 . S
H253 C250 0.930 . S
H254 C242 0.929 . S
H255 C244 0.929 . S
O256 Co231 2.351 1_556 S
O256 C259 1.244 1_556 S
O257 Co231 2.155 . S
O257 C259 1.240 . S
O258 Co231 2.096 . S
O258 C239 1.247 . S
C259 O256 1.244 1_554 S
C259 O257 1.240 . S
H260 C234 0.931 . S
H261 C243 0.931 . S
H262 C247 0.929 . S
H263 C249 0.930 . S
C264 C265 1.369 . S
C264 C266 1.419 . S
C264 H268 0.930 . S
C265 C264 1.369 . S
C265 C274 1.429 . S
C266 C264 1.419 . S
C266 C267 1.363 . S
C266 H269 0.929 . S
C267 C266 1.363 . S
C267 C273 1.428 . S
H268 C264 0.930 . S
H269 C266 0.929 . S
S270 N271 1.613 . S
S270 N272 1.610 . S
N271 S270 1.613 . S
N271 C274 1.350 . S
N272 S270 1.610 . S
N272 C273 1.351 . S
C273 C267 1.428 . S
C273 N272 1.351 . S
C273 C274 1.434 . S
C274 C265 1.429 . S
C274 N271 1.350 . S
C274 C273 1.434 . S
C275 C276 1.369 . S
C275 C277 1.419 . S
C275 H279 0.930 . S
C276 C275 1.369 . S
C276 C285 1.429 . S
C277 C275 1.419 . S
C277 C278 1.363 . S
C277 H280 0.929 . S
C278 C277 1.363 . S
C278 C284 1.428 . S
H279 C275 0.930 . S
H280 C277 0.929 . S
S281 N282 1.613 . S
S281 N283 1.610 . S
N282 S281 1.613 . S
N282 C285 1.350 . S
N283 S281 1.610 . S
N283 C284 1.351 . S
C284 C278 1.428 . S
C284 N283 1.351 . S
C284 C285 1.434 . S
C285 C276 1.429 . S
C285 N282 1.350 . S
C285 C284 1.434 . S
C286 C287 1.369 . S
C286 C288 1.419 . S
C286 H290 0.930 . S
C287 C286 1.369 . S
C287 C296 1.429 . S
C288 C286 1.419 . S
C288 C289 1.363 . S
C288 H291 0.929 . S
C289 C288 1.363 . S
C289 C295 1.428 . S
H290 C286 0.930 . S
H291 C288 0.929 . S
S292 N293 1.613 . S
S292 N294 1.610 . S
N293 S292 1.613 . S
N293 C296 1.350 . S
N294 S292 1.610 . S
N294 C295 1.351 . S
C295 C289 1.428 . S
C295 N294 1.351 . S
C295 C296 1.434 . S
C296 C287 1.429 . S
C296 N293 1.350 . S
C296 C295 1.434 . S
C297 C298 1.369 . S
C297 C299 1.419 . S
C297 H301 0.930 . S
C298 C297 1.369 . S
C298 C307 1.429 . S
C299 C297 1.419 . S
C299 C300 1.363 . S
C299 H302 0.929 . S
C300 C299 1.363 . S
C300 C306 1.428 . S
H301 C297 0.930 . S
H302 C299 0.929 . S
S303 N304 1.613 . S
S303 N305 1.610 1_554 S
N304 S303 1.613 . S
N304 C307 1.350 . S
N305 S303 1.610 1_556 S
N305 C306 1.351 1_556 S
C306 C300 1.428 . S
C306 N305 1.351 1_554 S
C306 C307 1.434 . S
C307 C298 1.429 . S
C307 N304 1.350 . S
C307 C306 1.434 . S
C308 C309 1.369 . S
C308 C310 1.419 . S
C308 H312 0.930 . S
C309 C308 1.369 . S
C309 C318 1.429 . S
C310 C308 1.419 . S
C310 C311 1.363 . S
C310 H313 0.929 . S
C311 C310 1.363 . S
C311 C317 1.428 . S
H312 C308 0.930 . S
H313 C310 0.929 . S
S314 N315 1.613 . S
S314 N316 1.610 . S
N315 S314 1.613 . S
N315 C318 1.350 . S
N316 S314 1.610 . S
N316 C317 1.351 . S
C317 C311 1.428 . S
C317 N316 1.351 . S
C317 C318 1.434 . S
C318 C309 1.429 . S
C318 N315 1.350 . S
C318 C317 1.434 . S
C319 C320 1.369 1_556 S
C319 C321 1.419 . S
C319 H323 0.930 1_556 S
C320 C319 1.369 1_554 S
C320 C329 1.430 . S
C321 C319 1.419 . S
C321 C322 1.363 . S
C321 H324 0.929 . S
C322 C321 1.363 . S
C322 C328 1.428 . S
H323 C319 0.930 1_554 S
H324 C321 0.929 . S
S325 N326 1.613 1_556 S
S325 N327 1.610 . S
N326 S325 1.613 1_554 S
N326 C329 1.351 . S
N327 S325 1.610 . S
N327 C328 1.351 . S
C328 C322 1.428 . S
C328 N327 1.351 . S
C328 C329 1.431 1_556 S
C329 C320 1.430 . S
C329 N326 1.351 . S
C329 C328 1.431 1_554 S
C330 C331 1.369 . S
C330 C332 1.419 . S
C330 H334 0.930 . S
C331 C330 1.369 . S
C331 C340 1.429 . S
C332 C330 1.419 . S
C332 C333 1.363 . S
C332 H335 0.929 . S
C333 C332 1.363 . S
C333 C339 1.428 . S
H334 C330 0.930 . S
H335 C332 0.929 . S
S336 N337 1.613 . S
S336 N338 1.610 . S
N337 S336 1.613 . S
N337 C340 1.350 . S
N338 S336 1.610 . S
N338 C339 1.351 . S
C339 C333 1.428 . S
C339 N338 1.351 . S
C339 C340 1.434 . S
C340 C331 1.429 . S
C340 N337 1.350 . S
C340 C339 1.434 . S
C341 C342 1.369 . S
C341 C343 1.419 . S
C341 H345 0.930 . S
C342 C341 1.369 . S
C342 C351 1.429 . S
C343 C341 1.419 . S
C343 C344 1.363 . S
C343 H346 0.929 . S
C344 C343 1.363 . S
C344 C350 1.428 . S
H345 C341 0.930 . S
H346 C343 0.929 . S
S347 N348 1.613 . S
S347 N349 1.610 . S
N348 S347 1.613 . S
N348 C351 1.350 . S
N349 S347 1.610 . S
N349 C350 1.351 . S
C350 C344 1.428 . S
C350 N349 1.351 . S
C350 C351 1.434 . S
C351 C342 1.429 . S
C351 N348 1.350 . S
C351 C350 1.434 . S
C352 C353 1.369 . S
C352 C354 1.419 . S
C352 H356 0.930 . S
C353 C352 1.369 . S
C353 C362 1.429 . S
C354 C352 1.419 . S
C354 C355 1.363 . S
C354 H357 0.929 . S
C355 C354 1.363 . S
C355 C361 1.428 . S
H356 C352 0.930 . S
H357 C354 0.929 . S
S358 N359 1.613 . S
S358 N360 1.610 . S
N359 S358 1.613 . S
N359 C362 1.350 . S
N360 S358 1.610 . S
N360 C361 1.351 . S
C361 C355 1.428 . S
C361 N360 1.351 . S
C361 C362 1.434 . S
C362 C353 1.429 . S
C362 N359 1.350 . S
C362 C361 1.434 . S
C363 C364 1.369 . S
C363 C365 1.419 1_554 S
C363 H367 0.930 . S
C364 C363 1.369 . S
C364 C373 1.429 . S
C365 C363 1.419 1_556 S
C365 C366 1.363 . S
C365 H368 0.929 . S
C366 C365 1.363 . S
C366 C372 1.428 1_556 S
H367 C363 0.930 . S
H368 C365 0.929 . S
S369 N370 1.613 . S
S369 N371 1.610 . S
N370 S369 1.613 . S
N370 C373 1.350 . S
N371 S369 1.610 . S
N371 C372 1.351 . S
C372 C366 1.428 1_554 S
C372 N371 1.351 . S
C372 C373 1.434 . S
C373 C364 1.429 . S
C373 N370 1.350 . S
C373 C372 1.434 . S
C374 C375 1.369 . S
C374 C376 1.419 . S
C374 H378 0.930 . S
C375 C374 1.369 . S
C375 C384 1.429 . S
C376 C374 1.419 . S
C376 C377 1.363 . S
C376 H379 0.929 . S
C377 C376 1.363 . S
C377 C383 1.428 . S
H378 C374 0.930 . S
H379 C376 0.929 . S
S380 N381 1.613 . S
S380 N382 1.610 . S
N381 S380 1.613 . S
N381 C384 1.350 . S
N382 S380 1.610 . S
N382 C383 1.351 . S
C383 C377 1.428 . S
C383 N382 1.351 . S
C383 C384 1.434 . S
C384 C375 1.429 . S
C384 N381 1.350 . S
C384 C383 1.434 . S
C385 C386 1.369 . S
C385 C387 1.419 . S
C385 H389 0.930 . S
C386 C385 1.369 . S
C386 C395 1.429 . S
C387 C385 1.419 . S
C387 C388 1.363 . S
C387 H390 0.929 . S
C388 C387 1.363 . S
C388 C394 1.428 . S
H389 C385 0.930 . S
H390 C387 0.929 . S
S391 N392 1.613 . S
S391 N393 1.610 . S
N392 S391 1.613 . S
N392 C395 1.350 . S
N393 S391 1.610 . S
N393 C394 1.351 . S
C394 C388 1.428 . S
C394 N393 1.351 . S
C394 C395 1.434 . S
C395 C386 1.429 . S
C395 N392 1.350 . S
C395 C394 1.434 . S
C396 C397 1.369 . S
C396 C398 1.419 1_454 S
C396 H400 0.930 . S
C397 C396 1.369 . S
C397 C406 1.422 1_554 S
C398 C396 1.419 1_656 S
C398 C399 1.363 . S
C398 H401 0.929 . S
C399 C398 1.363 . S
C399 C405 1.428 . S
H400 C396 0.930 . S
H401 C398 0.929 . S
S402 N403 1.613 . S
S402 N404 1.610 1_455 S
N403 S402 1.613 . S
N403 C406 1.351 . S
N404 S402 1.610 1_655 S
N404 C405 1.351 . S
C405 C399 1.428 . S
C405 N404 1.351 . S
C405 C406 1.441 1_655 S
C406 C397 1.422 1_556 S
C406 N403 1.351 . S
C406 C405 1.441 1_455 S
C407 C408 1.369 . S
C407 C409 1.419 1_565 S
C407 H411 0.930 . S
C408 C407 1.369 . S
C408 C417 1.429 . S
C409 C407 1.419 1_545 S
C409 C410 1.363 . S
C409 H412 0.929 . S
C410 C409 1.363 . S
C410 C416 1.428 . S
H411 C407 0.930 . S
H412 C409 0.929 . S
S413 N414 1.613 1_545 S
S413 N415 1.610 . S
N414 S413 1.613 1_565 S
N414 C417 1.350 . S
N415 S413 1.610 . S
N415 C416 1.351 . S
C416 C410 1.428 . S
C416 N415 1.351 . S
C416 C417 1.434 1_545 S
C417 C408 1.429 . S
C417 N414 1.350 . S
C417 C416 1.434 1_565 S
C418 C419 1.369 1_655 S
C418 C420 1.419 . S
C418 H422 0.930 . S
C419 C418 1.369 1_455 S
C419 C428 1.429 . S
C420 C418 1.419 . S
C420 C421 1.363 . S
C420 H423 0.929 . S
C421 C420 1.363 . S
C421 C427 1.428 1_655 S
H422 C418 0.930 . S
H423 C420 0.929 . S
S424 N425 1.613 . S
S424 N426 1.610 . S
N425 S424 1.613 . S
N425 C428 1.350 . S
N426 S424 1.610 . S
N426 C427 1.351 . S
C427 C421 1.428 1_455 S
C427 N426 1.351 . S
C427 C428 1.434 . S
C428 C419 1.429 . S
C428 N425 1.350 . S
C428 C427 1.434 . S
C429 C430 1.369 1_545 S
C429 C431 1.419 . S
C429 H433 0.930 . S
C430 C429 1.369 1_565 S
C430 C439 1.429 . S
C431 C429 1.419 . S
C431 C432 1.363 . S
C431 H434 0.929 . S
C432 C431 1.363 . S
C432 C438 1.428 1_545 S
H433 C429 0.930 . S
H434 C431 0.929 . S
S435 N436 1.613 . S
S435 N437 1.610 . S
N436 S435 1.613 . S
N436 C439 1.350 . S
N437 S435 1.610 . S
N437 C438 1.351 . S
C438 C432 1.428 1_565 S
C438 N437 1.351 . S
C438 C439 1.434 . S
C439 C430 1.429 . S
C439 N436 1.350 . S
C439 C438 1.434 . S
C440 C441 1.369 . S
C440 C442 1.419 . S
C440 H444 0.930 . S
C441 C440 1.369 . S
C441 C450 1.429 . S
C442 C440 1.419 . S
C442 C443 1.363 . S
C442 H445 0.929 . S
C443 C442 1.363 . S
C443 C449 1.428 . S
H444 C440 0.930 . S
H445 C442 0.929 . S
S446 N447 1.613 . S
S446 N448 1.610 . S
N447 S446 1.613 . S
N447 C450 1.350 . S
N448 S446 1.610 . S
N448 C449 1.351 . S
C449 C443 1.428 . S
C449 N448 1.351 . S
C449 C450 1.434 . S
C450 C441 1.429 . S
C450 N447 1.350 . S
C450 C449 1.434 . S
C451 C452 1.369 . S
C451 C453 1.419 . S
C451 H455 0.930 . S
C452 C451 1.369 . S
C452 C461 1.429 . S
C453 C451 1.419 . S
C453 C454 1.363 . S
C453 H456 0.929 . S
C454 C453 1.363 . S
C454 C460 1.428 . S
H455 C451 0.930 . S
H456 C453 0.929 . S
S457 N458 1.613 . S
S457 N459 1.610 . S
N458 S457 1.613 . S
N458 C461 1.350 . S
N459 S457 1.610 . S
N459 C460 1.351 . S
C460 C454 1.428 . S
C460 N459 1.351 . S
C460 C461 1.434 . S
C461 C452 1.429 . S
C461 N458 1.350 . S
C461 C460 1.434 . S
C462 C463 1.369 . S
C462 C464 1.419 . S
C462 H466 0.930 . S
C463 C462 1.369 . S
C463 C472 1.429 . S
C464 C462 1.419 . S
C464 C465 1.363 . S
C464 H467 0.929 . S
C465 C464 1.363 . S
C465 C471 1.428 . S
H466 C462 0.930 . S
H467 C464 0.929 . S
S468 N469 1.613 . S
S468 N470 1.610 . S
N469 S468 1.613 . S
N469 C472 1.350 . S
N470 S468 1.610 . S
N470 C471 1.351 . S
C471 C465 1.428 . S
C471 N470 1.351 . S
C471 C472 1.434 . S
C472 C463 1.429 . S
C472 N469 1.350 . S
C472 C471 1.434 . S
C473 C474 1.369 . S
C473 C475 1.419 . S
C473 H477 0.930 . S
C474 C473 1.369 . S
C474 C483 1.429 1_554 S
C475 C473 1.419 . S
C475 C476 1.363 1_554 S
C475 H478 0.929 . S
C476 C475 1.363 1_556 S
C476 C482 1.428 . S
H477 C473 0.930 . S
H478 C475 0.929 . S
S479 N480 1.613 . S
S479 N481 1.610 . S
N480 S479 1.613 . S
N480 C483 1.350 . S
N481 S479 1.610 . S
N481 C482 1.351 . S
C482 C476 1.428 . S
C482 N481 1.351 . S
C482 C483 1.434 . S
C483 C474 1.429 1_556 S
C483 N480 1.350 . S
C483 C482 1.434 . S
C265 C193 1.350 . S
C267 C28 1.356 . S
C276 C226 1.349 . S
C278 C61 1.356 . S
C287 C94 1.355 . S
C289 C259 1.351 1_556 S
C298 C160 1.349 . S
C300 C127 1.354 1_554 S
C309 N5 1.327 . S
C311 N14 1.327 . S
C320 N47 1.326 . S
C322 N38 1.327 . S
C331 N71 1.326 . S
C333 N80 1.328 . S
C342 N104 1.328 . S
C344 N113 1.326 . S
C353 N137 1.328 . S
C355 N146 1.326 . S
C364 N170 1.326 . S
C366 N179 1.327 . S
C375 N203 1.328 . S
C377 N212 1.326 . S
C386 N245 1.326 . S
C388 N236 1.328 . S
C397 C8 1.445 . S
C399 C206 1.449 . S
C408 C239 1.444 . S
C410 C41 1.442 . S
C419 C140 1.441 . S
C421 C74 1.447 . S
C430 C107 1.443 . S
C432 C173 1.448 . S
C441 C17 1.572 . S
C443 C149 1.570 . S
C452 C50 1.571 . S
C454 C182 1.573 . S
C463 C83 1.571 . S
C465 C215 1.573 . S
C474 C248 1.571 . S
C476 C116 1.573 . S
