# Generated by pormake.
# Topology uku, (4)-cn, num edge types: 1
# Building blocks:
#     Node 0, Type 0, BuildingBlock: KUFVIS_clean_sbu_0, # of connection points: 4
#     Node 1, Type 0, BuildingBlock: KUFVIS_clean_sbu_0, # of connection points: 4
#     Node 2, Type 0, BuildingBlock: KUFVIS_clean_sbu_0, # of connection points: 4
#     Node 3, Type 0, BuildingBlock: KUFVIS_clean_sbu_0, # of connection points: 4
#     Node 4, Type 0, BuildingBlock: KUFVIS_clean_sbu_0, # of connection points: 4
#     Node 5, Type 0, BuildingBlock: KUFVIS_clean_sbu_0, # of connection points: 4
#     Node 6, Type 0, BuildingBlock: KUFVIS_clean_sbu_0, # of connection points: 4
#     Node 7, Type 0, BuildingBlock: KUFVIS_clean_sbu_0, # of connection points: 4
#     Node 8, Type 0, BuildingBlock: KUFVIS_clean_sbu_0, # of connection points: 4
#     Node 9, Type 0, BuildingBlock: KUFVIS_clean_sbu_0, # of connection points: 4
#     Node 10, Type 0, BuildingBlock: KUFVIS_clean_sbu_0, # of connection points: 4
#     Node 11, Type 0, BuildingBlock: KUFVIS_clean_sbu_0, # of connection points: 4
#     Edge 12, Type (0, 0), None
#     Edge 13, Type (0, 0), None
#     Edge 14, Type (0, 0), None
#     Edge 15, Type (0, 0), None
#     Edge 16, Type (0, 0), None
#     Edge 17, Type (0, 0), None
#     Edge 18, Type (0, 0), None
#     Edge 19, Type (0, 0), None
#     Edge 20, Type (0, 0), None
#     Edge 21, Type (0, 0), None
#     Edge 22, Type (0, 0), None
#     Edge 23, Type (0, 0), None
#     Edge 24, Type (0, 0), None
#     Edge 25, Type (0, 0), None
#     Edge 26, Type (0, 0), None
#     Edge 27, Type (0, 0), None
#     Edge 28, Type (0, 0), None
#     Edge 29, Type (0, 0), None
#     Edge 30, Type (0, 0), None
#     Edge 31, Type (0, 0), None
#     Edge 32, Type (0, 0), None
#     Edge 33, Type (0, 0), None
#     Edge 34, Type (0, 0), None
#     Edge 35, Type (0, 0), None
# Relax obj value: 0.400
# Max RMSD: 0.285
# Mean RMSD: 0.285
data_MOF--net-uku--node1-KUFVIS_clean_sbu_0--edge1-none
_symmetry_space_group_name_H-M    P1
_symmetry_Int_Tables_number       1
_symmetry_cell_setting            triclinic
loop_
_symmetry_equiv_pos_as_xyz
'x, y, z'
_cell_length_a     18.419561
_cell_length_b     18.981295
_cell_length_c     20.441387
_cell_angle_alpha  90.000483
_cell_angle_beta   89.999212
_cell_angle_gamma 90.004278
loop_
_atom_site_label
_atom_site_type_symbol
_atom_site_fract_x
_atom_site_fract_y
_atom_site_fract_z
_atom_type_partial_charge
Mn0 Mn 0.11922 0.13262 0.59524 0.0
Mn1 Mn 0.93034 0.15594 0.60315 0.0
C2 C 0.07794 0.2374 0.64564 0.0
C3 C 0.22482 0.08456 0.65466 0.0
C4 C 0.00946 0.18144 0.48376 0.0
O5 O 0.07567 0.03544 0.58589 0.0
O6 O 0.95879 0.06438 0.57004 0.0
C7 C 0.94 0.04568 0.75493 0.0
N8 N 0.89004 0.09317 0.70696 0.0
C9 C 0.84569 0.20447 0.82415 0.0
C10 C 0.90357 0.14574 0.87145 0.0
C11 C 0.94838 0.07081 0.83785 0.0
C12 C 0.82934 0.18618 0.74233 0.0
H13 H 0.94475 -0.00841 0.74125 0.0
C14 C 0.00973 0.02027 0.57295 0.0
O15 O 0.22542 0.09418 0.59163 0.0
O16 O 0.16505 0.10286 0.68166 0.0
N17 N 0.86164 0.26614 0.63407 0.0
C18 C 0.85732 0.32623 0.59869 0.0
C19 C 0.8189 0.38323 0.62425 0.0
C20 C 0.79201 0.3807 0.68839 0.0
C21 C 0.79995 0.31985 0.72738 0.0
C22 C 0.8218 0.25811 0.69808 0.0
H23 H 0.88325 0.32977 0.55134 0.0
O24 O 0.14156 0.23455 0.61875 0.0
O25 O 0.04019 0.18023 0.63236 0.0
O26 O 0.07311 0.15763 0.50193 0.0
O27 O 0.95982 0.2001 0.52247 0.0
C28 C 0.81035 0.32724 0.79414 0.0
C29 C 0.84623 0.27728 0.83262 0.0
H30 H 0.91265 0.15009 0.92293 0.0
H31 H 0.97735 0.0373 0.87128 0.0
H32 H 0.81471 0.43151 0.59633 0.0
H33 H 0.77176 0.42913 0.70981 0.0
H34 H 0.81583 0.38064 0.81033 0.0
H35 H 0.8922 0.30008 0.85527 0.0
Mn36 Mn 0.87796 0.8351 0.59522 0.0
Mn37 Mn 0.06684 0.81182 0.60319 0.0
C38 C 0.91926 0.73034 0.64565 0.0
C39 C 0.77235 0.88314 0.65463 0.0
C40 C 0.98776 0.78632 0.48376 0.0
O41 O 0.92148 0.9323 0.58585 0.0
O42 O 0.03839 0.90339 0.57015 0.0
C43 C 0.05721 0.92203 0.75503 0.0
N44 N 0.10715 0.87454 0.70702 0.0
C45 C 0.15152 0.7632 0.82417 0.0
C46 C 0.09365 0.82192 0.87149 0.0
C47 C 0.04885 0.89686 0.83794 0.0
C48 C 0.16785 0.78152 0.74235 0.0
H49 H 0.05254 0.97615 0.74142 0.0
C50 C 0.98741 0.94747 0.57291 0.0
O51 O 0.77176 0.87351 0.5916 0.0
O52 O 0.83213 0.86487 0.68164 0.0
N53 N 0.13553 0.7016 0.63407 0.0
C54 C 0.13983 0.64151 0.59868 0.0
C55 C 0.17825 0.5845 0.62421 0.0
C56 C 0.20515 0.58701 0.68834 0.0
C57 C 0.19722 0.64785 0.72736 0.0
C58 C 0.17537 0.7096 0.69807 0.0
H59 H 0.11388 0.63799 0.55133 0.0
O60 O 0.85564 0.73317 0.61875 0.0
O61 O 0.957 0.78751 0.63238 0.0
O62 O 0.92409 0.81009 0.50192 0.0
O63 O 0.03739 0.76769 0.52249 0.0
C64 C 0.18685 0.64044 0.79411 0.0
C65 C 0.15097 0.69038 0.83261 0.0
H66 H 0.0846 0.81757 0.92298 0.0
H67 H 0.01991 0.93036 0.87139 0.0
H68 H 0.18242 0.53623 0.59627 0.0
H69 H 0.2254 0.53857 0.70974 0.0
H70 H 0.18139 0.58703 0.81029 0.0
H71 H 0.10501 0.66757 0.85526 0.0
Mn72 Mn 0.11924 0.8351 0.30332 0.0
Mn73 Mn 0.93036 0.81181 0.29536 0.0
C74 C 0.07793 0.73033 0.2529 0.0
C75 C 0.22486 0.88313 0.24391 0.0
C76 C 0.00945 0.7863 0.41478 0.0
O77 O 0.07573 0.93229 0.31267 0.0
O78 O 0.95883 0.90337 0.32843 0.0
C79 C 0.94001 0.92202 0.14353 0.0
N80 N 0.89006 0.87454 0.19153 0.0
C81 C 0.84568 0.76319 0.07438 0.0
C82 C 0.90356 0.82192 0.02706 0.0
C83 C 0.94837 0.89686 0.06062 0.0
C84 C 0.82935 0.78151 0.1562 0.0
H85 H 0.94468 0.97614 0.15714 0.0
C86 C 0.00979 0.94747 0.32558 0.0
O87 O 0.22545 0.87351 0.30694 0.0
O88 O 0.16508 0.86485 0.2169 0.0
N89 N 0.86166 0.70159 0.26448 0.0
C90 C 0.85735 0.6415 0.29987 0.0
C91 C 0.81893 0.58449 0.27433 0.0
C92 C 0.79203 0.587 0.2102 0.0
C93 C 0.79996 0.64784 0.17118 0.0
C94 C 0.82182 0.70959 0.20047 0.0
H95 H 0.88329 0.63798 0.34722 0.0
O96 O 0.14155 0.73317 0.2798 0.0
O97 O 0.0402 0.7875 0.26617 0.0
O98 O 0.07311 0.8101 0.39662 0.0
O99 O 0.95981 0.76768 0.37606 0.0
C100 C 0.81034 0.64043 0.10443 0.0
C101 C 0.84623 0.69038 0.06593 0.0
H102 H 0.91261 0.81757 -0.02443 0.0
H103 H 0.97731 0.93036 0.02717 0.0
H104 H 0.81475 0.53622 0.30227 0.0
H105 H 0.77178 0.53856 0.18879 0.0
H106 H 0.81581 0.58702 0.08825 0.0
H107 H 0.89218 0.66757 0.04328 0.0
Mn108 Mn 0.87803 0.13262 0.3033 0.0
Mn109 Mn 0.06691 0.15592 0.29539 0.0
C110 C 0.91933 0.2374 0.25291 0.0
C111 C 0.77242 0.08456 0.24389 0.0
C112 C 0.98779 0.18146 0.41478 0.0
O113 O 0.92156 0.03544 0.31265 0.0
O114 O 0.03844 0.06436 0.32849 0.0
C115 C 0.05723 0.04567 0.14361 0.0
N116 N 0.1072 0.09316 0.19159 0.0
C117 C 0.15159 0.20445 0.0744 0.0
C118 C 0.09369 0.14573 0.0271 0.0
C119 C 0.04886 0.07081 0.06069 0.0
C120 C 0.16792 0.18616 0.15622 0.0
H121 H 0.05248 -0.00842 0.15729 0.0
C122 C 0.98748 0.02027 0.32563 0.0
O123 O 0.77183 0.09418 0.30692 0.0
O124 O 0.83219 0.10286 0.21688 0.0
N125 N 0.13564 0.26612 0.26448 0.0
C126 C 0.13999 0.32622 0.29986 0.0
C127 C 0.17843 0.38321 0.27431 0.0
C128 C 0.20532 0.38067 0.21017 0.0
C129 C 0.19735 0.31983 0.17117 0.0
C130 C 0.17548 0.2581 0.20047 0.0
H131 H 0.11405 0.32976 0.34721 0.0
O132 O 0.8557 0.23455 0.27979 0.0
O133 O 0.95707 0.18023 0.26617 0.0
O134 O 0.92414 0.15763 0.39661 0.0
O135 O 0.03745 0.20008 0.37608 0.0
C136 C 0.18694 0.32722 0.10441 0.0
C137 C 0.15104 0.27727 0.06594 0.0
H138 H 0.08461 0.15009 -0.02438 0.0
H139 H 0.01989 0.0373 0.02726 0.0
H140 H 0.18263 0.43148 0.30223 0.0
H141 H 0.22558 0.4291 0.18875 0.0
H142 H 0.18146 0.38063 0.08823 0.0
H143 H 0.10506 0.30006 0.04331 0.0
Mn144 Mn 0.66483 0.10706 0.09414 0.0
Mn145 Mn 0.68379 0.93395 0.12928 0.0
C146 C 0.70654 0.0719 0.20128 0.0
C147 C 0.71743 0.22611 0.07262 0.0
C148 C 0.5381 -0.00487 0.09732 0.0
O149 O 0.67758 0.06171 -0.00055 0.0
O150 O 0.7088 0.9525 0.03145 0.0
C151 C 0.83163 0.88164 0.1026 0.0
N152 N 0.77612 0.89719 0.15517 0.0
C153 C 0.83259 0.81806 0.26458 0.0
C154 C 0.93419 0.77412 0.21172 0.0
C155 C 0.94537 0.8006 0.13283 0.0
C156 C 0.77185 0.86959 0.22552 0.0
H157 H 0.81998 0.90797 0.05642 0.0
C158 C 0.69569 -0.00276 -0.01459 0.0
O159 O 0.64898 0.21199 0.06483 0.0
O160 O 0.7553 0.17083 0.08626 0.0
N161 N 0.65719 0.91911 0.21983 0.0
C162 C 0.59256 0.93786 0.24706 0.0
C163 C 0.57643 0.91977 0.31171 0.0
C164 C 0.6282 0.8853 0.34942 0.0
C165 C 0.69525 0.86781 0.32181 0.0
C166 C 0.70825 0.886 0.25635 0.0
H167 H 0.55352 0.96655 0.21949 0.0
O168 O 0.66679 0.12715 0.19184 0.0
O169 O 0.71224 0.03332 0.14847 0.0
O170 O 0.55858 0.06048 0.09882 0.0
O171 O 0.58284 0.94627 0.1049 0.0
C172 C 0.74673 0.83111 0.35826 0.0
C173 C 0.8114 0.80651 0.33143 0.0
H174 H 0.95127 0.78153 0.16888 0.0
H175 H 0.99636 0.78712 0.09411 0.0
H176 H 0.5239 0.93113 0.33244 0.0
H177 H 0.61535 0.87147 0.39956 0.0
H178 H 0.73504 0.8177 0.40878 0.0
H179 H 0.84078 0.7728 0.36364 0.0
Mn180 Mn 0.33242 0.86061 0.09414 0.0
Mn181 Mn 0.31347 0.03372 0.12933 0.0
C182 C 0.29074 0.89576 0.20129 0.0
C183 C 0.2798 0.74156 0.0726 0.0
C184 C 0.45915 0.97255 0.09733 0.0
O185 O 0.31965 0.90597 -0.00054 0.0
O186 O 0.28848 0.01518 0.03149 0.0
C187 C 0.16561 0.08601 0.10265 0.0
N188 N 0.22113 0.07047 0.15522 0.0
C189 C 0.16468 0.14965 0.26462 0.0
C190 C 0.06309 0.1936 0.21175 0.0
C191 C 0.05189 0.16709 0.13287 0.0
C192 C 0.22541 0.0981 0.22556 0.0
H193 H 0.17725 0.05966 0.05647 0.0
C194 C 0.30156 0.97045 -0.01456 0.0
O195 O 0.34825 0.75568 0.0648 0.0
O196 O 0.24194 0.79685 0.08627 0.0
N197 N 0.34006 0.04854 0.21988 0.0
C198 C 0.40468 0.02976 0.24712 0.0
C199 C 0.4208 0.04785 0.31176 0.0
C200 C 0.36905 0.08235 0.34947 0.0
C201 C 0.302 0.09988 0.32186 0.0
C202 C 0.28901 0.08168 0.25639 0.0
H203 H 0.44369 0.00104 0.21955 0.0
O204 O 0.33048 0.84051 0.19184 0.0
O205 O 0.28503 0.93435 0.14849 0.0
O206 O 0.43868 0.90719 0.0988 0.0
O207 O 0.41442 0.0214 0.10495 0.0
C208 C 0.25054 0.1366 0.3583 0.0
C209 C 0.18587 0.16121 0.33146 0.0
H210 H 0.04601 0.18617 0.16891 0.0
H211 H 0.0009 0.18056 0.09415 0.0
H212 H 0.47332 0.03646 0.33251 0.0
H213 H 0.38189 0.09619 0.39961 0.0
H214 H 0.26222 0.15001 0.40881 0.0
H215 H 0.15649 0.19492 0.36367 0.0
Mn216 Mn 0.66479 0.86063 0.8044 0.0
Mn217 Mn 0.68377 0.03374 0.76923 0.0
C218 C 0.70648 0.89578 0.69725 0.0
C219 C 0.7174 0.74157 0.82595 0.0
C220 C 0.53808 0.97257 0.80122 0.0
O221 O 0.67757 0.90599 0.89908 0.0
O222 O 0.70877 0.01521 0.86707 0.0
C223 C 0.83163 0.08603 0.7959 0.0
N224 N 0.77611 0.07049 0.74333 0.0
C225 C 0.83257 0.14967 0.63393 0.0
C226 C 0.93418 0.1936 0.68679 0.0
C227 C 0.94537 0.1671 0.76568 0.0
C228 C 0.77183 0.09812 0.67299 0.0
H229 H 0.81999 0.05968 0.84207 0.0
C230 C 0.69568 0.97046 0.91311 0.0
O231 O 0.64895 0.7557 0.83375 0.0
O232 O 0.75526 0.79686 0.81227 0.0
N233 N 0.65717 0.04857 0.67868 0.0
C234 C 0.59255 0.02981 0.65145 0.0
C235 C 0.57642 0.04791 0.5868 0.0
C236 C 0.62818 0.0824 0.54909 0.0
C237 C 0.69523 0.09991 0.5767 0.0
C238 C 0.70823 0.0817 0.64216 0.0
H239 H 0.55352 0.0011 0.67901 0.0
O240 O 0.66673 0.84053 0.7067 0.0
O241 O 0.71219 0.93437 0.75005 0.0
O242 O 0.55854 0.90721 0.79974 0.0
O243 O 0.58282 0.02142 0.79361 0.0
C244 C 0.74671 0.13663 0.54026 0.0
C245 C 0.81138 0.16123 0.56709 0.0
H246 H 0.95126 0.18618 0.72964 0.0
H247 H 0.99637 0.18057 0.80439 0.0
H248 H 0.52389 0.03653 0.56606 0.0
H249 H 0.61533 0.09624 0.49895 0.0
H250 H 0.73502 0.15004 0.48974 0.0
H251 H 0.84077 0.19493 0.53488 0.0
Mn252 Mn 0.33241 0.10707 0.80442 0.0
Mn253 Mn 0.31343 0.93396 0.76926 0.0
C254 C 0.2907 0.07192 0.69728 0.0
C255 C 0.2798 0.22613 0.82596 0.0
C256 C 0.45913 -0.00485 0.80124 0.0
O257 O 0.31966 0.06171 0.89911 0.0
O258 O 0.28844 0.9525 0.8671 0.0
C259 C 0.16558 0.88165 0.79595 0.0
N260 N 0.2211 0.8972 0.74338 0.0
C261 C 0.16461 0.81807 0.63397 0.0
C262 C 0.063 0.77413 0.68683 0.0
C263 C 0.05183 0.8006 0.76573 0.0
C264 C 0.22536 0.8696 0.67303 0.0
H265 H 0.17724 0.90797 0.84214 0.0
C266 C 0.30155 -0.00276 0.91314 0.0
O267 O 0.34826 0.21201 0.83375 0.0
O268 O 0.24194 0.17084 0.81231 0.0
N269 N 0.34003 0.91914 0.67871 0.0
C270 C 0.40465 0.93791 0.65147 0.0
C271 C 0.42077 0.91983 0.58682 0.0
C272 C 0.369 0.88535 0.54911 0.0
C273 C 0.30195 0.86783 0.57673 0.0
C274 C 0.28896 0.88602 0.6422 0.0
H275 H 0.44368 0.96661 0.67904 0.0
O276 O 0.33045 0.12717 0.70672 0.0
O277 O 0.28499 0.03333 0.75008 0.0
O278 O 0.43866 0.0605 0.79974 0.0
O279 O 0.41438 0.94629 0.79364 0.0
C280 C 0.25047 0.83113 0.54028 0.0
C281 C 0.1858 0.80652 0.56712 0.0
H282 H 0.04593 0.78153 0.72967 0.0
H283 H 0.00084 0.78712 0.80444 0.0
H284 H 0.47329 0.93121 0.56608 0.0
H285 H 0.38184 0.87152 0.49897 0.0
H286 H 0.26215 0.81773 0.48976 0.0
H287 H 0.15642 0.77281 0.53491 0.0
Mn288 Mn 0.11645 0.63197 0.08384 0.0
Mn289 Mn 0.1882 0.64812 0.93298 0.0
C290 C 0.2444 0.66799 0.0675 0.0
C291 C 0.07659 0.69459 0.18553 0.0
C292 C 0.10672 0.52063 -0.03404 0.0
O293 O 0.02613 0.65614 0.02757 0.0
O294 O 0.09651 0.70837 -0.04698 0.0
C295 C 0.25991 0.78692 0.92008 0.0
N296 N 0.2663 0.71741 0.93144 0.0
C297 C 0.39447 0.72566 0.90169 0.0
C298 C 0.38335 0.79392 0.88129 0.0
C299 C 0.31306 0.81847 0.88159 0.0
C300 C 0.3331 0.68664 0.92258 0.0
H301 H 0.20995 0.8134 0.92939 0.0
C302 C 0.03197 0.68799 -0.02757 0.0
O303 O 0.06176 0.62883 0.17432 0.0
O304 O 0.10919 0.72374 0.13712 0.0
N305 N 0.26923 0.58342 0.91732 0.0
C306 C 0.26325 0.51967 0.88694 0.0
C307 C 0.32376 0.48144 0.86641 0.0
C308 C 0.39198 0.51112 0.87197 0.0
C309 C 0.39787 0.58025 0.89381 0.0
C310 C 0.3347 0.61508 0.91701 0.0
H311 H 0.21262 0.50004 0.87347 0.0
O312 O 0.22369 0.63607 0.12014 0.0
O313 O 0.19474 0.65794 0.02515 0.0
O314 O 0.1123 0.53139 0.02985 0.0
O315 O 0.11692 0.57091 0.92714 0.0
C316 C 0.46127 0.61862 0.88185 0.0
C317 C 0.45922 0.69166 0.8848 0.0
H318 H 0.42415 0.821 0.85251 0.0
H319 H 0.29663 0.84425 0.83795 0.0
H320 H 0.31729 0.43075 0.84305 0.0
H321 H 0.43783 0.48359 0.85165 0.0
H322 H 0.50991 0.59342 0.86375 0.0
H323 H 0.50604 0.72137 0.86835 0.0
Mn324 Mn 0.11647 0.33572 0.81472 0.0
Mn325 Mn 0.18821 0.31957 -0.03443 0.0
C326 C 0.24442 0.2997 0.83105 0.0
C327 C 0.0766 0.27312 0.71302 0.0
C328 C 0.10673 0.44704 0.93261 0.0
O329 O 0.02615 0.31153 0.87098 0.0
O330 O 0.09653 0.25929 0.94553 0.0
C331 C 0.25989 0.18077 -0.02159 0.0
N332 N 0.2663 0.25028 -0.0329 0.0
C333 C 0.39444 0.24201 -0.00308 0.0
C334 C 0.38329 0.17374 0.01728 0.0
C335 C 0.313 0.1492 0.01692 0.0
C336 C 0.3331 0.28104 -0.02399 0.0
H337 H 0.20992 0.15431 -0.03092 0.0
C338 C 0.03199 0.27967 0.92612 0.0
O339 O 0.06177 0.33887 0.72424 0.0
O340 O 0.10921 0.24395 0.76142 0.0
N341 N 0.26925 0.38427 -0.01876 0.0
C342 C 0.26328 0.44804 0.0116 0.0
C343 C 0.32378 0.48626 0.03216 0.0
C344 C 0.39199 0.45656 0.02667 0.0
C345 C 0.39787 0.38742 0.00484 0.0
C346 C 0.33471 0.35261 -0.01841 0.0
H347 H 0.21264 0.46768 0.02503 0.0
O348 O 0.22371 0.33162 0.77841 0.0
O349 O 0.19476 0.30976 0.8734 0.0
O350 O 0.1123 0.43629 0.86871 0.0
O351 O 0.11694 0.39677 -0.02857 0.0
C352 C 0.46125 0.34904 0.01686 0.0
C353 C 0.45919 0.276 0.01389 0.0
H354 H 0.42406 0.14665 0.04607 0.0
H355 H 0.29652 0.12346 0.06056 0.0
H356 H 0.31731 0.53695 0.05551 0.0
H357 H 0.43784 0.48407 0.04702 0.0
H358 H 0.50988 0.37424 0.03499 0.0
H359 H 0.50599 0.24629 0.03036 0.0
Mn360 Mn 0.88073 0.63197 0.81471 0.0
Mn361 Mn 0.80899 0.64812 -0.03444 0.0
C362 C 0.75278 0.668 0.83104 0.0
C363 C 0.9206 0.69459 0.71302 0.0
C364 C 0.89044 0.52063 0.93259 0.0
O365 O 0.97106 0.65613 0.87097 0.0
O366 O 0.90068 0.70838 0.94552 0.0
C367 C 0.73728 0.78693 -0.02153 0.0
N368 N 0.73089 0.71742 -0.0329 0.0
C369 C 0.60272 0.72566 -0.00318 0.0
C370 C 0.61383 0.79392 0.01723 0.0
C371 C 0.68412 0.81847 0.01695 0.0
C372 C 0.66409 0.68664 -0.02405 0.0
H373 H 0.78725 0.81341 -0.03082 0.0
C374 C 0.96521 0.68798 0.92611 0.0
O375 O 0.93542 0.62883 0.72422 0.0
O376 O 0.888 0.72375 0.76143 0.0
N377 N 0.72795 0.58342 -0.01877 0.0
C378 C 0.73392 0.51967 0.01161 0.0
C379 C 0.6734 0.48145 0.03216 0.0
C380 C 0.60519 0.51113 0.02658 0.0
C381 C 0.59931 0.58026 0.00472 0.0
C382 C 0.66248 0.61508 -0.01847 0.0
H383 H 0.78455 0.50003 0.02506 0.0
O384 O 0.77348 0.63608 0.7784 0.0
O385 O 0.80244 0.65794 0.87339 0.0
O386 O 0.88486 0.53139 0.86869 0.0
O387 O 0.88025 0.57091 -0.0286 0.0
C388 C 0.5359 0.61861 0.01665 0.0
C389 C 0.53796 0.69166 0.01369 0.0
H390 H 0.57302 0.821 0.04598 0.0
H391 H 0.70054 0.84426 0.06059 0.0
H392 H 0.67986 0.43077 0.05552 0.0
H393 H 0.55932 0.4836 0.04688 0.0
H394 H 0.48725 0.59341 0.03472 0.0
H395 H 0.49112 0.72136 0.03011 0.0
Mn396 Mn 0.88077 0.33573 0.08384 0.0
Mn397 Mn 0.80901 0.31953 0.933 0.0
C398 C 0.75282 0.29968 0.06752 0.0
C399 C 0.92066 0.27313 0.18553 0.0
C400 C 0.89045 0.44704 -0.03405 0.0
O401 O 0.97108 0.31156 0.02757 0.0
O402 O 0.9007 0.25928 -0.04697 0.0
C403 C 0.7373 0.18074 0.92006 0.0
N404 N 0.73091 0.25023 0.93148 0.0
C405 C 0.60272 0.24199 0.90182 0.0
C406 C 0.61384 0.17375 0.88134 0.0
C407 C 0.68413 0.14922 0.88157 0.0
C408 C 0.6641 0.281 0.92268 0.0
H409 H 0.78727 0.15425 0.92933 0.0
C410 C 0.96523 0.27968 -0.02757 0.0
O411 O 0.93548 0.33889 0.17432 0.0
O412 O 0.88806 0.24396 0.13713 0.0
N413 N 0.72797 0.38423 0.91736 0.0
C414 C 0.73392 0.44797 0.88696 0.0
C415 C 0.6734 0.4862 0.86646 0.0
C416 C 0.60518 0.45652 0.8721 0.0
C417 C 0.59931 0.38739 0.89396 0.0
C418 C 0.6625 0.35257 0.91711 0.0
H419 H 0.78455 0.46761 0.87347 0.0
O420 O 0.77353 0.33161 0.12016 0.0
O421 O 0.80248 0.30974 0.02517 0.0
O422 O 0.88489 0.4363 0.02985 0.0
O423 O 0.88028 0.39676 0.92714 0.0
C424 C 0.53589 0.34904 0.88207 0.0
C425 C 0.53795 0.27599 0.885 0.0
H426 H 0.57302 0.14669 0.85258 0.0
H427 H 0.70053 0.12345 0.83791 0.0
H428 H 0.67985 0.53688 0.84309 0.0
H429 H 0.5593 0.48405 0.85183 0.0
H430 H 0.48723 0.37424 0.86404 0.0
H431 H 0.4911 0.24629 0.86859 0.0
loop_
_geom_bond_atom_site_label_1
_geom_bond_atom_site_label_2
_geom_bond_distance
_geom_bond_site_symmetry_2
_ccdc_geom_bond_type
Mn0 O5 2.095 . S
Mn0 O15 2.162 . S
Mn0 O16 2.297 . S
Mn0 O24 2.385 . S
Mn0 O25 2.209 . S
Mn0 O26 2.094 . S
Mn1 O6 2.121 . S
Mn1 N8 2.257 . S
Mn1 N17 2.282 . S
Mn1 O25 2.215 1_655 S
Mn1 O27 2.117 . S
C2 O24 1.234 . S
C2 O25 1.283 . S
C3 O15 1.281 . S
C3 O16 1.236 . S
C4 O26 1.240 . S
C4 O27 1.264 1_455 S
O5 Mn0 2.095 . S
O5 C14 1.250 1_455 S
O6 Mn1 2.121 . S
O6 C14 1.258 . S
C7 N8 1.326 . S
C7 C11 1.460 . S
C7 H13 0.929 . S
N8 Mn1 2.257 . S
N8 C7 1.326 . S
N8 C12 1.362 . S
C9 C10 1.258 . S
C9 C12 1.431 . S
C9 C29 1.449 . S
C10 C9 1.258 . S
C10 C11 1.477 . S
C10 H30 0.931 . S
C11 C7 1.460 . S
C11 C10 1.477 . S
C11 H31 0.930 . S
C12 N8 1.362 . S
C12 C9 1.431 . S
C12 C22 1.476 . S
H13 C7 0.929 . S
C14 O5 1.250 1_655 S
C14 O6 1.258 . S
O15 Mn0 2.162 . S
O15 C3 1.281 . S
O16 Mn0 2.297 . S
O16 C3 1.236 . S
N17 Mn1 2.282 . S
N17 C18 1.328 . S
N17 C22 1.318 . S
C18 N17 1.328 . S
C18 C19 1.457 . S
C18 H23 0.929 . S
C19 C18 1.457 . S
C19 C20 1.291 . S
C19 H32 0.931 . S
C20 C19 1.291 . S
C20 C21 1.373 . S
C20 H33 0.929 . S
C21 C20 1.373 . S
C21 C22 1.396 . S
C21 C28 1.403 . S
C22 C12 1.476 . S
C22 N17 1.318 . S
C22 C21 1.396 . S
H23 C18 0.929 . S
O24 Mn0 2.385 . S
O24 C2 1.234 . S
O25 Mn0 2.209 . S
O25 Mn1 2.215 1_455 S
O25 C2 1.283 . S
O26 Mn0 2.094 . S
O26 C4 1.240 . S
O27 Mn1 2.117 . S
O27 C4 1.264 1_655 S
C28 C21 1.403 . S
C28 C29 1.399 . S
C28 H34 0.929 . S
C29 C9 1.449 . S
C29 C28 1.399 . S
C29 H35 0.930 . S
H30 C10 0.931 . S
H31 C11 0.930 . S
H32 C19 0.931 . S
H33 C20 0.929 . S
H34 C28 0.929 . S
H35 C29 0.930 . S
Mn36 O41 2.095 . S
Mn36 O51 2.162 . S
Mn36 O52 2.297 . S
Mn36 O60 2.385 . S
Mn36 O61 2.209 . S
Mn36 O62 2.094 . S
Mn37 O42 2.121 . S
Mn37 N44 2.257 . S
Mn37 N53 2.282 . S
Mn37 O61 2.215 1_455 S
Mn37 O63 2.117 . S
C38 O60 1.234 . S
C38 O61 1.283 . S
C39 O51 1.281 . S
C39 O52 1.236 . S
C40 O62 1.240 . S
C40 O63 1.264 1_655 S
O41 Mn36 2.095 . S
O41 C50 1.250 1_655 S
O42 Mn37 2.121 . S
O42 C50 1.258 . S
C43 N44 1.326 . S
C43 C47 1.460 . S
C43 H49 0.929 . S
N44 Mn37 2.257 . S
N44 C43 1.326 . S
N44 C48 1.362 . S
C45 C46 1.258 . S
C45 C48 1.431 . S
C45 C65 1.449 . S
C46 C45 1.258 . S
C46 C47 1.477 . S
C46 H66 0.931 . S
C47 C43 1.460 . S
C47 C46 1.477 . S
C47 H67 0.930 . S
C48 N44 1.362 . S
C48 C45 1.431 . S
C48 C58 1.476 . S
H49 C43 0.929 . S
C50 O41 1.250 1_455 S
C50 O42 1.258 . S
O51 Mn36 2.162 . S
O51 C39 1.281 . S
O52 Mn36 2.297 . S
O52 C39 1.236 . S
N53 Mn37 2.282 . S
N53 C54 1.328 . S
N53 C58 1.318 . S
C54 N53 1.328 . S
C54 C55 1.457 . S
C54 H59 0.929 . S
C55 C54 1.457 . S
C55 C56 1.291 . S
C55 H68 0.931 . S
C56 C55 1.291 . S
C56 C57 1.373 . S
C56 H69 0.929 . S
C57 C56 1.373 . S
C57 C58 1.396 . S
C57 C64 1.403 . S
C58 C48 1.476 . S
C58 N53 1.318 . S
C58 C57 1.396 . S
H59 C54 0.929 . S
O60 Mn36 2.385 . S
O60 C38 1.234 . S
O61 Mn36 2.209 . S
O61 Mn37 2.215 1_655 S
O61 C38 1.283 . S
O62 Mn36 2.094 . S
O62 C40 1.240 . S
O63 Mn37 2.117 . S
O63 C40 1.264 1_455 S
C64 C57 1.403 . S
C64 C65 1.399 . S
C64 H70 0.929 . S
C65 C45 1.449 . S
C65 C64 1.399 . S
C65 H71 0.930 . S
H66 C46 0.931 . S
H67 C47 0.930 . S
H68 C55 0.931 . S
H69 C56 0.929 . S
H70 C64 0.929 . S
H71 C65 0.930 . S
Mn72 O77 2.095 . S
Mn72 O87 2.162 . S
Mn72 O88 2.297 . S
Mn72 O96 2.385 . S
Mn72 O97 2.209 . S
Mn72 O98 2.094 . S
Mn73 O78 2.121 . S
Mn73 N80 2.257 . S
Mn73 N89 2.282 . S
Mn73 O97 2.215 1_655 S
Mn73 O99 2.117 . S
C74 O96 1.234 . S
C74 O97 1.283 . S
C75 O87 1.281 . S
C75 O88 1.236 . S
C76 O98 1.240 . S
C76 O99 1.264 1_455 S
O77 Mn72 2.095 . S
O77 C86 1.250 1_455 S
O78 Mn73 2.121 . S
O78 C86 1.258 . S
C79 N80 1.326 . S
C79 C83 1.460 . S
C79 H85 0.929 . S
N80 Mn73 2.257 . S
N80 C79 1.326 . S
N80 C84 1.362 . S
C81 C82 1.258 . S
C81 C84 1.431 . S
C81 C101 1.449 . S
C82 C81 1.258 . S
C82 C83 1.477 . S
C82 H102 0.931 . S
C83 C79 1.460 . S
C83 C82 1.477 . S
C83 H103 0.930 . S
C84 N80 1.362 . S
C84 C81 1.431 . S
C84 C94 1.476 . S
H85 C79 0.929 . S
C86 O77 1.250 1_655 S
C86 O78 1.258 . S
O87 Mn72 2.162 . S
O87 C75 1.281 . S
O88 Mn72 2.297 . S
O88 C75 1.236 . S
N89 Mn73 2.282 . S
N89 C90 1.328 . S
N89 C94 1.318 . S
C90 N89 1.328 . S
C90 C91 1.457 . S
C90 H95 0.929 . S
C91 C90 1.457 . S
C91 C92 1.291 . S
C91 H104 0.931 . S
C92 C91 1.291 . S
C92 C93 1.373 . S
C92 H105 0.929 . S
C93 C92 1.373 . S
C93 C94 1.396 . S
C93 C100 1.403 . S
C94 C84 1.476 . S
C94 N89 1.318 . S
C94 C93 1.396 . S
H95 C90 0.929 . S
O96 Mn72 2.385 . S
O96 C74 1.234 . S
O97 Mn72 2.209 . S
O97 Mn73 2.215 1_455 S
O97 C74 1.283 . S
O98 Mn72 2.094 . S
O98 C76 1.240 . S
O99 Mn73 2.117 . S
O99 C76 1.264 1_655 S
C100 C93 1.403 . S
C100 C101 1.399 . S
C100 H106 0.929 . S
C101 C81 1.449 . S
C101 C100 1.399 . S
C101 H107 0.930 . S
H102 C82 0.931 . S
H103 C83 0.930 . S
H104 C91 0.931 . S
H105 C92 0.929 . S
H106 C100 0.929 . S
H107 C101 0.930 . S
Mn108 O113 2.095 . S
Mn108 O123 2.162 . S
Mn108 O124 2.297 . S
Mn108 O132 2.385 . S
Mn108 O133 2.209 . S
Mn108 O134 2.094 . S
Mn109 O114 2.121 . S
Mn109 N116 2.257 . S
Mn109 N125 2.282 . S
Mn109 O133 2.215 1_455 S
Mn109 O135 2.117 . S
C110 O132 1.234 . S
C110 O133 1.283 . S
C111 O123 1.281 . S
C111 O124 1.236 . S
C112 O134 1.240 . S
C112 O135 1.264 1_655 S
O113 Mn108 2.095 . S
O113 C122 1.250 1_655 S
O114 Mn109 2.121 . S
O114 C122 1.258 . S
C115 N116 1.326 . S
C115 C119 1.460 . S
C115 H121 0.929 . S
N116 Mn109 2.257 . S
N116 C115 1.326 . S
N116 C120 1.362 . S
C117 C118 1.258 . S
C117 C120 1.431 . S
C117 C137 1.449 . S
C118 C117 1.258 . S
C118 C119 1.477 . S
C118 H138 0.931 . S
C119 C115 1.460 . S
C119 C118 1.477 . S
C119 H139 0.930 . S
C120 N116 1.362 . S
C120 C117 1.431 . S
C120 C130 1.476 . S
H121 C115 0.929 . S
C122 O113 1.250 1_455 S
C122 O114 1.258 . S
O123 Mn108 2.162 . S
O123 C111 1.281 . S
O124 Mn108 2.297 . S
O124 C111 1.236 . S
N125 Mn109 2.282 . S
N125 C126 1.328 . S
N125 C130 1.318 . S
C126 N125 1.328 . S
C126 C127 1.457 . S
C126 H131 0.929 . S
C127 C126 1.457 . S
C127 C128 1.291 . S
C127 H140 0.931 . S
C128 C127 1.291 . S
C128 C129 1.373 . S
C128 H141 0.929 . S
C129 C128 1.373 . S
C129 C130 1.396 . S
C129 C136 1.403 . S
C130 C120 1.476 . S
C130 N125 1.318 . S
C130 C129 1.396 . S
H131 C126 0.929 . S
O132 Mn108 2.385 . S
O132 C110 1.234 . S
O133 Mn108 2.209 . S
O133 Mn109 2.215 1_655 S
O133 C110 1.283 . S
O134 Mn108 2.094 . S
O134 C112 1.240 . S
O135 Mn109 2.117 . S
O135 C112 1.264 1_455 S
C136 C129 1.403 . S
C136 C137 1.399 . S
C136 H142 0.929 . S
C137 C117 1.449 . S
C137 C136 1.399 . S
C137 H143 0.930 . S
H138 C118 0.931 . S
H139 C119 0.930 . S
H140 C127 0.931 . S
H141 C128 0.929 . S
H142 C136 0.929 . S
H143 C137 0.930 . S
Mn144 O149 2.095 . S
Mn144 O159 2.162 . S
Mn144 O160 2.297 . S
Mn144 O168 2.385 . S
Mn144 O169 2.209 . S
Mn144 O170 2.094 . S
Mn145 O150 2.121 . S
Mn145 N152 2.257 . S
Mn145 N161 2.282 . S
Mn145 O169 2.215 1_565 S
Mn145 O171 2.117 . S
C146 O168 1.234 . S
C146 O169 1.283 . S
C147 O159 1.281 . S
C147 O160 1.236 . S
C148 O170 1.240 . S
C148 O171 1.264 1_545 S
O149 Mn144 2.095 . S
O149 C158 1.250 1_545 S
O150 Mn145 2.121 . S
O150 C158 1.258 . S
C151 N152 1.326 . S
C151 C155 1.460 . S
C151 H157 0.929 . S
N152 Mn145 2.257 . S
N152 C151 1.326 . S
N152 C156 1.362 . S
C153 C154 1.258 . S
C153 C156 1.431 . S
C153 C173 1.449 . S
C154 C153 1.258 . S
C154 C155 1.477 . S
C154 H174 0.931 . S
C155 C151 1.460 . S
C155 C154 1.477 . S
C155 H175 0.930 . S
C156 N152 1.362 . S
C156 C153 1.431 . S
C156 C166 1.476 . S
H157 C151 0.929 . S
C158 O149 1.250 1_565 S
C158 O150 1.258 . S
O159 Mn144 2.162 . S
O159 C147 1.281 . S
O160 Mn144 2.297 . S
O160 C147 1.236 . S
N161 Mn145 2.282 . S
N161 C162 1.328 . S
N161 C166 1.318 . S
C162 N161 1.328 . S
C162 C163 1.457 . S
C162 H167 0.929 . S
C163 C162 1.457 . S
C163 C164 1.291 . S
C163 H176 0.931 . S
C164 C163 1.291 . S
C164 C165 1.373 . S
C164 H177 0.929 . S
C165 C164 1.373 . S
C165 C166 1.396 . S
C165 C172 1.403 . S
C166 C156 1.476 . S
C166 N161 1.318 . S
C166 C165 1.396 . S
H167 C162 0.929 . S
O168 Mn144 2.385 . S
O168 C146 1.234 . S
O169 Mn144 2.209 . S
O169 Mn145 2.215 1_545 S
O169 C146 1.283 . S
O170 Mn144 2.094 . S
O170 C148 1.240 . S
O171 Mn145 2.117 . S
O171 C148 1.264 1_565 S
C172 C165 1.403 . S
C172 C173 1.399 . S
C172 H178 0.929 . S
C173 C153 1.449 . S
C173 C172 1.399 . S
C173 H179 0.930 . S
H174 C154 0.931 . S
H175 C155 0.930 . S
H176 C163 0.931 . S
H177 C164 0.929 . S
H178 C172 0.929 . S
H179 C173 0.930 . S
Mn180 O185 2.095 . S
Mn180 O195 2.162 . S
Mn180 O196 2.297 . S
Mn180 O204 2.385 . S
Mn180 O205 2.209 . S
Mn180 O206 2.094 . S
Mn181 O186 2.121 . S
Mn181 N188 2.257 . S
Mn181 N197 2.282 . S
Mn181 O205 2.215 1_545 S
Mn181 O207 2.117 . S
C182 O204 1.234 . S
C182 O205 1.283 . S
C183 O195 1.281 . S
C183 O196 1.236 . S
C184 O206 1.240 . S
C184 O207 1.264 1_565 S
O185 Mn180 2.095 . S
O185 C194 1.250 1_565 S
O186 Mn181 2.121 . S
O186 C194 1.258 . S
C187 N188 1.326 . S
C187 C191 1.460 . S
C187 H193 0.929 . S
N188 Mn181 2.257 . S
N188 C187 1.326 . S
N188 C192 1.362 . S
C189 C190 1.258 . S
C189 C192 1.431 . S
C189 C209 1.449 . S
C190 C189 1.258 . S
C190 C191 1.477 . S
C190 H210 0.931 . S
C191 C187 1.460 . S
C191 C190 1.477 . S
C191 H211 0.930 . S
C192 N188 1.362 . S
C192 C189 1.431 . S
C192 C202 1.476 . S
H193 C187 0.929 . S
C194 O185 1.250 1_545 S
C194 O186 1.258 . S
O195 Mn180 2.162 . S
O195 C183 1.281 . S
O196 Mn180 2.297 . S
O196 C183 1.236 . S
N197 Mn181 2.282 . S
N197 C198 1.328 . S
N197 C202 1.318 . S
C198 N197 1.328 . S
C198 C199 1.457 . S
C198 H203 0.929 . S
C199 C198 1.457 . S
C199 C200 1.291 . S
C199 H212 0.931 . S
C200 C199 1.291 . S
C200 C201 1.373 . S
C200 H213 0.929 . S
C201 C200 1.373 . S
C201 C202 1.396 . S
C201 C208 1.403 . S
C202 C192 1.476 . S
C202 N197 1.318 . S
C202 C201 1.396 . S
H203 C198 0.929 . S
O204 Mn180 2.385 . S
O204 C182 1.234 . S
O205 Mn180 2.209 . S
O205 Mn181 2.215 1_565 S
O205 C182 1.283 . S
O206 Mn180 2.094 . S
O206 C184 1.240 . S
O207 Mn181 2.117 . S
O207 C184 1.264 1_545 S
C208 C201 1.403 . S
C208 C209 1.399 . S
C208 H214 0.929 . S
C209 C189 1.449 . S
C209 C208 1.399 . S
C209 H215 0.930 . S
H210 C190 0.931 . S
H211 C191 0.930 . S
H212 C199 0.931 . S
H213 C200 0.929 . S
H214 C208 0.929 . S
H215 C209 0.930 . S
Mn216 O221 2.095 . S
Mn216 O231 2.162 . S
Mn216 O232 2.297 . S
Mn216 O240 2.385 . S
Mn216 O241 2.209 . S
Mn216 O242 2.094 . S
Mn217 O222 2.121 . S
Mn217 N224 2.257 . S
Mn217 N233 2.282 . S
Mn217 O241 2.215 1_545 S
Mn217 O243 2.117 . S
C218 O240 1.234 . S
C218 O241 1.283 . S
C219 O231 1.281 . S
C219 O232 1.236 . S
C220 O242 1.240 . S
C220 O243 1.264 1_565 S
O221 Mn216 2.095 . S
O221 C230 1.250 1_565 S
O222 Mn217 2.121 . S
O222 C230 1.258 . S
C223 N224 1.326 . S
C223 C227 1.460 . S
C223 H229 0.929 . S
N224 Mn217 2.257 . S
N224 C223 1.326 . S
N224 C228 1.362 . S
C225 C226 1.258 . S
C225 C228 1.431 . S
C225 C245 1.449 . S
C226 C225 1.258 . S
C226 C227 1.477 . S
C226 H246 0.931 . S
C227 C223 1.460 . S
C227 C226 1.477 . S
C227 H247 0.930 . S
C228 N224 1.362 . S
C228 C225 1.431 . S
C228 C238 1.476 . S
H229 C223 0.929 . S
C230 O221 1.250 1_545 S
C230 O222 1.258 . S
O231 Mn216 2.162 . S
O231 C219 1.281 . S
O232 Mn216 2.297 . S
O232 C219 1.236 . S
N233 Mn217 2.282 . S
N233 C234 1.328 . S
N233 C238 1.318 . S
C234 N233 1.328 . S
C234 C235 1.457 . S
C234 H239 0.929 . S
C235 C234 1.457 . S
C235 C236 1.291 . S
C235 H248 0.931 . S
C236 C235 1.291 . S
C236 C237 1.373 . S
C236 H249 0.929 . S
C237 C236 1.373 . S
C237 C238 1.396 . S
C237 C244 1.403 . S
C238 C228 1.476 . S
C238 N233 1.318 . S
C238 C237 1.396 . S
H239 C234 0.929 . S
O240 Mn216 2.385 . S
O240 C218 1.234 . S
O241 Mn216 2.209 . S
O241 Mn217 2.215 1_565 S
O241 C218 1.283 . S
O242 Mn216 2.094 . S
O242 C220 1.240 . S
O243 Mn217 2.117 . S
O243 C220 1.264 1_545 S
C244 C237 1.403 . S
C244 C245 1.399 . S
C244 H250 0.929 . S
C245 C225 1.449 . S
C245 C244 1.399 . S
C245 H251 0.930 . S
H246 C226 0.931 . S
H247 C227 0.930 . S
H248 C235 0.931 . S
H249 C236 0.929 . S
H250 C244 0.929 . S
H251 C245 0.930 . S
Mn252 O257 2.095 . S
Mn252 O267 2.162 . S
Mn252 O268 2.297 . S
Mn252 O276 2.385 . S
Mn252 O277 2.209 . S
Mn252 O278 2.094 . S
Mn253 O258 2.121 . S
Mn253 N260 2.257 . S
Mn253 N269 2.282 . S
Mn253 O277 2.215 1_565 S
Mn253 O279 2.117 . S
C254 O276 1.234 . S
C254 O277 1.283 . S
C255 O267 1.281 . S
C255 O268 1.236 . S
C256 O278 1.240 . S
C256 O279 1.264 1_545 S
O257 Mn252 2.095 . S
O257 C266 1.250 1_545 S
O258 Mn253 2.121 . S
O258 C266 1.258 . S
C259 N260 1.326 . S
C259 C263 1.460 . S
C259 H265 0.929 . S
N260 Mn253 2.257 . S
N260 C259 1.326 . S
N260 C264 1.362 . S
C261 C262 1.258 . S
C261 C264 1.431 . S
C261 C281 1.449 . S
C262 C261 1.258 . S
C262 C263 1.477 . S
C262 H282 0.931 . S
C263 C259 1.460 . S
C263 C262 1.477 . S
C263 H283 0.930 . S
C264 N260 1.362 . S
C264 C261 1.431 . S
C264 C274 1.476 . S
H265 C259 0.929 . S
C266 O257 1.250 1_565 S
C266 O258 1.258 . S
O267 Mn252 2.162 . S
O267 C255 1.281 . S
O268 Mn252 2.297 . S
O268 C255 1.236 . S
N269 Mn253 2.282 . S
N269 C270 1.328 . S
N269 C274 1.318 . S
C270 N269 1.328 . S
C270 C271 1.457 . S
C270 H275 0.929 . S
C271 C270 1.457 . S
C271 C272 1.291 . S
C271 H284 0.931 . S
C272 C271 1.291 . S
C272 C273 1.373 . S
C272 H285 0.929 . S
C273 C272 1.373 . S
C273 C274 1.396 . S
C273 C280 1.403 . S
C274 C264 1.476 . S
C274 N269 1.318 . S
C274 C273 1.396 . S
H275 C270 0.929 . S
O276 Mn252 2.385 . S
O276 C254 1.234 . S
O277 Mn252 2.209 . S
O277 Mn253 2.215 1_545 S
O277 C254 1.283 . S
O278 Mn252 2.094 . S
O278 C256 1.240 . S
O279 Mn253 2.117 . S
O279 C256 1.264 1_565 S
C280 C273 1.403 . S
C280 C281 1.399 . S
C280 H286 0.929 . S
C281 C261 1.449 . S
C281 C280 1.399 . S
C281 H287 0.930 . S
H282 C262 0.931 . S
H283 C263 0.930 . S
H284 C271 0.931 . S
H285 C272 0.929 . S
H286 C280 0.929 . S
H287 C281 0.930 . S
Mn288 O293 2.095 . S
Mn288 O303 2.162 . S
Mn288 O304 2.297 . S
Mn288 O312 2.385 . S
Mn288 O313 2.209 . S
Mn288 O314 2.094 . S
Mn289 O294 2.121 . S
Mn289 N296 2.257 . S
Mn289 N305 2.282 . S
Mn289 O313 2.215 1_556 S
Mn289 O315 2.117 . S
C290 O312 1.234 . S
C290 O313 1.283 . S
C291 O303 1.281 . S
C291 O304 1.236 . S
C292 O314 1.240 . S
C292 O315 1.264 1_554 S
O293 Mn288 2.095 . S
O293 C302 1.250 1_554 S
O294 Mn289 2.121 . S
O294 C302 1.258 . S
C295 N296 1.326 . S
C295 C299 1.460 . S
C295 H301 0.929 . S
N296 Mn289 2.257 . S
N296 C295 1.326 . S
N296 C300 1.362 . S
C297 C298 1.258 . S
C297 C300 1.431 . S
C297 C317 1.449 . S
C298 C297 1.258 . S
C298 C299 1.477 . S
C298 H318 0.931 . S
C299 C295 1.460 . S
C299 C298 1.477 . S
C299 H319 0.930 . S
C300 N296 1.362 . S
C300 C297 1.431 . S
C300 C310 1.476 . S
H301 C295 0.929 . S
C302 O293 1.250 1_556 S
C302 O294 1.258 . S
O303 Mn288 2.162 . S
O303 C291 1.281 . S
O304 Mn288 2.297 . S
O304 C291 1.236 . S
N305 Mn289 2.282 . S
N305 C306 1.328 . S
N305 C310 1.318 . S
C306 N305 1.328 . S
C306 C307 1.457 . S
C306 H311 0.929 . S
C307 C306 1.457 . S
C307 C308 1.291 . S
C307 H320 0.931 . S
C308 C307 1.291 . S
C308 C309 1.373 . S
C308 H321 0.929 . S
C309 C308 1.373 . S
C309 C310 1.396 . S
C309 C316 1.403 . S
C310 C300 1.476 . S
C310 N305 1.318 . S
C310 C309 1.396 . S
H311 C306 0.929 . S
O312 Mn288 2.385 . S
O312 C290 1.234 . S
O313 Mn288 2.209 . S
O313 Mn289 2.215 1_554 S
O313 C290 1.283 . S
O314 Mn288 2.094 . S
O314 C292 1.240 . S
O315 Mn289 2.117 . S
O315 C292 1.264 1_556 S
C316 C309 1.403 . S
C316 C317 1.399 . S
C316 H322 0.929 . S
C317 C297 1.449 . S
C317 C316 1.399 . S
C317 H323 0.930 . S
H318 C298 0.931 . S
H319 C299 0.930 . S
H320 C307 0.931 . S
H321 C308 0.929 . S
H322 C316 0.929 . S
H323 C317 0.930 . S
Mn324 O329 2.095 . S
Mn324 O339 2.162 . S
Mn324 O340 2.297 . S
Mn324 O348 2.385 . S
Mn324 O349 2.209 . S
Mn324 O350 2.094 . S
Mn325 O330 2.121 . S
Mn325 N332 2.257 . S
Mn325 N341 2.282 . S
Mn325 O349 2.215 1_554 S
Mn325 O351 2.117 . S
C326 O348 1.234 . S
C326 O349 1.283 . S
C327 O339 1.281 . S
C327 O340 1.236 . S
C328 O350 1.240 . S
C328 O351 1.264 1_556 S
O329 Mn324 2.095 . S
O329 C338 1.250 1_556 S
O330 Mn325 2.121 . S
O330 C338 1.258 . S
C331 N332 1.326 . S
C331 C335 1.460 . S
C331 H337 0.929 . S
N332 Mn325 2.257 . S
N332 C331 1.326 . S
N332 C336 1.362 . S
C333 C334 1.258 . S
C333 C336 1.431 . S
C333 C353 1.449 . S
C334 C333 1.258 . S
C334 C335 1.477 . S
C334 H354 0.931 . S
C335 C331 1.460 . S
C335 C334 1.477 . S
C335 H355 0.930 . S
C336 N332 1.362 . S
C336 C333 1.431 . S
C336 C346 1.476 . S
H337 C331 0.929 . S
C338 O329 1.250 1_554 S
C338 O330 1.258 . S
O339 Mn324 2.162 . S
O339 C327 1.281 . S
O340 Mn324 2.297 . S
O340 C327 1.236 . S
N341 Mn325 2.282 . S
N341 C342 1.328 . S
N341 C346 1.318 . S
C342 N341 1.328 . S
C342 C343 1.457 . S
C342 H347 0.929 . S
C343 C342 1.457 . S
C343 C344 1.291 . S
C343 H356 0.931 . S
C344 C343 1.291 . S
C344 C345 1.373 . S
C344 H357 0.929 . S
C345 C344 1.373 . S
C345 C346 1.396 . S
C345 C352 1.403 . S
C346 C336 1.476 . S
C346 N341 1.318 . S
C346 C345 1.396 . S
H347 C342 0.929 . S
O348 Mn324 2.385 . S
O348 C326 1.234 . S
O349 Mn324 2.209 . S
O349 Mn325 2.215 1_556 S
O349 C326 1.283 . S
O350 Mn324 2.094 . S
O350 C328 1.240 . S
O351 Mn325 2.117 . S
O351 C328 1.264 1_554 S
C352 C345 1.403 . S
C352 C353 1.399 . S
C352 H358 0.929 . S
C353 C333 1.449 . S
C353 C352 1.399 . S
C353 H359 0.930 . S
H354 C334 0.931 . S
H355 C335 0.930 . S
H356 C343 0.931 . S
H357 C344 0.929 . S
H358 C352 0.929 . S
H359 C353 0.930 . S
Mn360 O365 2.095 . S
Mn360 O375 2.162 . S
Mn360 O376 2.297 . S
Mn360 O384 2.385 . S
Mn360 O385 2.209 . S
Mn360 O386 2.094 . S
Mn361 O366 2.121 . S
Mn361 N368 2.257 . S
Mn361 N377 2.282 . S
Mn361 O385 2.215 1_554 S
Mn361 O387 2.117 . S
C362 O384 1.234 . S
C362 O385 1.283 . S
C363 O375 1.281 . S
C363 O376 1.236 . S
C364 O386 1.240 . S
C364 O387 1.264 1_556 S
O365 Mn360 2.095 . S
O365 C374 1.250 1_556 S
O366 Mn361 2.121 . S
O366 C374 1.258 . S
C367 N368 1.326 . S
C367 C371 1.460 . S
C367 H373 0.929 . S
N368 Mn361 2.257 . S
N368 C367 1.326 . S
N368 C372 1.362 . S
C369 C370 1.258 . S
C369 C372 1.431 . S
C369 C389 1.449 . S
C370 C369 1.258 . S
C370 C371 1.477 . S
C370 H390 0.931 . S
C371 C367 1.460 . S
C371 C370 1.477 . S
C371 H391 0.930 . S
C372 N368 1.362 . S
C372 C369 1.431 . S
C372 C382 1.476 . S
H373 C367 0.929 . S
C374 O365 1.250 1_554 S
C374 O366 1.258 . S
O375 Mn360 2.162 . S
O375 C363 1.281 . S
O376 Mn360 2.297 . S
O376 C363 1.236 . S
N377 Mn361 2.282 . S
N377 C378 1.328 . S
N377 C382 1.318 . S
C378 N377 1.328 . S
C378 C379 1.457 . S
C378 H383 0.929 . S
C379 C378 1.457 . S
C379 C380 1.291 . S
C379 H392 0.931 . S
C380 C379 1.291 . S
C380 C381 1.373 . S
C380 H393 0.929 . S
C381 C380 1.373 . S
C381 C382 1.396 . S
C381 C388 1.403 . S
C382 C372 1.476 . S
C382 N377 1.318 . S
C382 C381 1.396 . S
H383 C378 0.929 . S
O384 Mn360 2.385 . S
O384 C362 1.234 . S
O385 Mn360 2.209 . S
O385 Mn361 2.215 1_556 S
O385 C362 1.283 . S
O386 Mn360 2.094 . S
O386 C364 1.240 . S
O387 Mn361 2.117 . S
O387 C364 1.264 1_554 S
C388 C381 1.403 . S
C388 C389 1.399 . S
C388 H394 0.929 . S
C389 C369 1.449 . S
C389 C388 1.399 . S
C389 H395 0.930 . S
H390 C370 0.931 . S
H391 C371 0.930 . S
H392 C379 0.931 . S
H393 C380 0.929 . S
H394 C388 0.929 . S
H395 C389 0.930 . S
Mn396 O401 2.095 . S
Mn396 O411 2.162 . S
Mn396 O412 2.297 . S
Mn396 O420 2.385 . S
Mn396 O421 2.209 . S
Mn396 O422 2.094 . S
Mn397 O402 2.121 . S
Mn397 N404 2.257 . S
Mn397 N413 2.282 . S
Mn397 O421 2.215 1_556 S
Mn397 O423 2.117 . S
C398 O420 1.234 . S
C398 O421 1.283 . S
C399 O411 1.281 . S
C399 O412 1.236 . S
C400 O422 1.240 . S
C400 O423 1.264 1_554 S
O401 Mn396 2.095 . S
O401 C410 1.250 1_554 S
O402 Mn397 2.121 . S
O402 C410 1.258 . S
C403 N404 1.326 . S
C403 C407 1.460 . S
C403 H409 0.929 . S
N404 Mn397 2.257 . S
N404 C403 1.326 . S
N404 C408 1.362 . S
C405 C406 1.258 . S
C405 C408 1.431 . S
C405 C425 1.449 . S
C406 C405 1.258 . S
C406 C407 1.477 . S
C406 H426 0.931 . S
C407 C403 1.460 . S
C407 C406 1.477 . S
C407 H427 0.930 . S
C408 N404 1.362 . S
C408 C405 1.431 . S
C408 C418 1.476 . S
H409 C403 0.929 . S
C410 O401 1.250 1_556 S
C410 O402 1.258 . S
O411 Mn396 2.162 . S
O411 C399 1.281 . S
O412 Mn396 2.297 . S
O412 C399 1.236 . S
N413 Mn397 2.282 . S
N413 C414 1.328 . S
N413 C418 1.318 . S
C414 N413 1.328 . S
C414 C415 1.457 . S
C414 H419 0.929 . S
C415 C414 1.457 . S
C415 C416 1.291 . S
C415 H428 0.931 . S
C416 C415 1.291 . S
C416 C417 1.373 . S
C416 H429 0.929 . S
C417 C416 1.373 . S
C417 C418 1.396 . S
C417 C424 1.403 . S
C418 C408 1.476 . S
C418 N413 1.318 . S
C418 C417 1.396 . S
H419 C414 0.929 . S
O420 Mn396 2.385 . S
O420 C398 1.234 . S
O421 Mn396 2.209 . S
O421 Mn397 2.215 1_554 S
O421 C398 1.283 . S
O422 Mn396 2.094 . S
O422 C400 1.240 . S
O423 Mn397 2.117 . S
O423 C400 1.264 1_556 S
C424 C417 1.403 . S
C424 C425 1.399 . S
C424 H430 0.929 . S
C425 C405 1.449 . S
C425 C424 1.399 . S
C425 H431 0.930 . S
H426 C406 0.931 . S
H427 C407 0.930 . S
H428 C415 0.931 . S
H429 C416 0.929 . S
H430 C424 0.929 . S
H431 C425 0.930 . S
C112 C4 1.309 1_655 S
C76 C40 1.309 1_455 S
C184 C148 1.309 1_565 S
C220 C256 1.309 1_565 S
C328 C292 1.309 1_556 S
C364 C400 1.309 1_556 S
C3 C254 1.157 . S
C218 C39 1.157 . S
C182 C75 1.157 . S
C146 C111 1.157 . S
C147 C398 1.157 . S
C290 C183 1.157 . S
C362 C219 1.157 . S
C255 C326 1.157 . S
C74 C291 1.157 . S
C2 C327 1.157 . S
C363 C38 1.157 . S
C110 C399 1.157 . S
C14 C50 1.474 1_645 S
C122 C86 1.474 1_445 S
C230 C158 1.474 1_546 S
C194 C266 1.474 1_544 S
C374 C302 1.474 1_654 S
C338 C410 1.474 1_454 S
