# Generated by pormake.
# Topology snl, (6)-cn, num edge types: 1
# Building blocks:
#     Node 0, Type 0, BuildingBlock: BETDEL_clean_sbu_0, # of connection points: 6
#     Node 1, Type 0, BuildingBlock: BETDEL_clean_sbu_0, # of connection points: 6
#     Node 2, Type 0, BuildingBlock: BETDEL_clean_sbu_0, # of connection points: 6
#     Node 3, Type 0, BuildingBlock: BETDEL_clean_sbu_0, # of connection points: 6
#     Node 4, Type 0, BuildingBlock: BETDEL_clean_sbu_0, # of connection points: 6
#     Node 5, Type 0, BuildingBlock: BETDEL_clean_sbu_0, # of connection points: 6
#     Node 6, Type 0, BuildingBlock: BETDEL_clean_sbu_0, # of connection points: 6
#     Node 7, Type 0, BuildingBlock: BETDEL_clean_sbu_0, # of connection points: 6
#     Node 8, Type 0, BuildingBlock: BETDEL_clean_sbu_0, # of connection points: 6
#     Node 9, Type 0, BuildingBlock: BETDEL_clean_sbu_0, # of connection points: 6
#     Node 10, Type 0, BuildingBlock: BETDEL_clean_sbu_0, # of connection points: 6
#     Node 11, Type 0, BuildingBlock: BETDEL_clean_sbu_0, # of connection points: 6
#     Node 12, Type 0, BuildingBlock: BETDEL_clean_sbu_0, # of connection points: 6
#     Node 13, Type 0, BuildingBlock: BETDEL_clean_sbu_0, # of connection points: 6
#     Node 14, Type 0, BuildingBlock: BETDEL_clean_sbu_0, # of connection points: 6
#     Node 15, Type 0, BuildingBlock: BETDEL_clean_sbu_0, # of connection points: 6
#     Edge 16, Type (0, 0), BuildingBlock: AJUNOK_clean_linker_0, # of connection points: 2
#     Edge 17, Type (0, 0), BuildingBlock: AJUNOK_clean_linker_0, # of connection points: 2
#     Edge 18, Type (0, 0), BuildingBlock: AJUNOK_clean_linker_0, # of connection points: 2
#     Edge 19, Type (0, 0), BuildingBlock: AJUNOK_clean_linker_0, # of connection points: 2
#     Edge 20, Type (0, 0), BuildingBlock: AJUNOK_clean_linker_0, # of connection points: 2
#     Edge 21, Type (0, 0), BuildingBlock: AJUNOK_clean_linker_0, # of connection points: 2
#     Edge 22, Type (0, 0), BuildingBlock: AJUNOK_clean_linker_0, # of connection points: 2
#     Edge 23, Type (0, 0), BuildingBlock: AJUNOK_clean_linker_0, # of connection points: 2
#     Edge 24, Type (0, 0), BuildingBlock: AJUNOK_clean_linker_0, # of connection points: 2
#     Edge 25, Type (0, 0), BuildingBlock: AJUNOK_clean_linker_0, # of connection points: 2
#     Edge 26, Type (0, 0), BuildingBlock: AJUNOK_clean_linker_0, # of connection points: 2
#     Edge 27, Type (0, 0), BuildingBlock: AJUNOK_clean_linker_0, # of connection points: 2
#     Edge 28, Type (0, 0), BuildingBlock: AJUNOK_clean_linker_0, # of connection points: 2
#     Edge 29, Type (0, 0), BuildingBlock: AJUNOK_clean_linker_0, # of connection points: 2
#     Edge 30, Type (0, 0), BuildingBlock: AJUNOK_clean_linker_0, # of connection points: 2
#     Edge 31, Type (0, 0), BuildingBlock: AJUNOK_clean_linker_0, # of connection points: 2
#     Edge 32, Type (0, 0), BuildingBlock: AJUNOK_clean_linker_0, # of connection points: 2
#     Edge 33, Type (0, 0), BuildingBlock: AJUNOK_clean_linker_0, # of connection points: 2
#     Edge 34, Type (0, 0), BuildingBlock: AJUNOK_clean_linker_0, # of connection points: 2
#     Edge 35, Type (0, 0), BuildingBlock: AJUNOK_clean_linker_0, # of connection points: 2
#     Edge 36, Type (0, 0), BuildingBlock: AJUNOK_clean_linker_0, # of connection points: 2
#     Edge 37, Type (0, 0), BuildingBlock: AJUNOK_clean_linker_0, # of connection points: 2
#     Edge 38, Type (0, 0), BuildingBlock: AJUNOK_clean_linker_0, # of connection points: 2
#     Edge 39, Type (0, 0), BuildingBlock: AJUNOK_clean_linker_0, # of connection points: 2
#     Edge 40, Type (0, 0), BuildingBlock: AJUNOK_clean_linker_0, # of connection points: 2
#     Edge 41, Type (0, 0), BuildingBlock: AJUNOK_clean_linker_0, # of connection points: 2
#     Edge 42, Type (0, 0), BuildingBlock: AJUNOK_clean_linker_0, # of connection points: 2
#     Edge 43, Type (0, 0), BuildingBlock: AJUNOK_clean_linker_0, # of connection points: 2
#     Edge 44, Type (0, 0), BuildingBlock: AJUNOK_clean_linker_0, # of connection points: 2
#     Edge 45, Type (0, 0), BuildingBlock: AJUNOK_clean_linker_0, # of connection points: 2
#     Edge 46, Type (0, 0), BuildingBlock: AJUNOK_clean_linker_0, # of connection points: 2
#     Edge 47, Type (0, 0), BuildingBlock: AJUNOK_clean_linker_0, # of connection points: 2
#     Edge 48, Type (0, 0), BuildingBlock: AJUNOK_clean_linker_0, # of connection points: 2
#     Edge 49, Type (0, 0), BuildingBlock: AJUNOK_clean_linker_0, # of connection points: 2
#     Edge 50, Type (0, 0), BuildingBlock: AJUNOK_clean_linker_0, # of connection points: 2
#     Edge 51, Type (0, 0), BuildingBlock: AJUNOK_clean_linker_0, # of connection points: 2
#     Edge 52, Type (0, 0), BuildingBlock: AJUNOK_clean_linker_0, # of connection points: 2
#     Edge 53, Type (0, 0), BuildingBlock: AJUNOK_clean_linker_0, # of connection points: 2
#     Edge 54, Type (0, 0), BuildingBlock: AJUNOK_clean_linker_0, # of connection points: 2
#     Edge 55, Type (0, 0), BuildingBlock: AJUNOK_clean_linker_0, # of connection points: 2
#     Edge 56, Type (0, 0), BuildingBlock: AJUNOK_clean_linker_0, # of connection points: 2
#     Edge 57, Type (0, 0), BuildingBlock: AJUNOK_clean_linker_0, # of connection points: 2
#     Edge 58, Type (0, 0), BuildingBlock: AJUNOK_clean_linker_0, # of connection points: 2
#     Edge 59, Type (0, 0), BuildingBlock: AJUNOK_clean_linker_0, # of connection points: 2
#     Edge 60, Type (0, 0), BuildingBlock: AJUNOK_clean_linker_0, # of connection points: 2
#     Edge 61, Type (0, 0), BuildingBlock: AJUNOK_clean_linker_0, # of connection points: 2
#     Edge 62, Type (0, 0), BuildingBlock: AJUNOK_clean_linker_0, # of connection points: 2
#     Edge 63, Type (0, 0), BuildingBlock: AJUNOK_clean_linker_0, # of connection points: 2
# Relax obj value: 0.150
# Max RMSD: 0.206
# Mean RMSD: 0.179
data_MOF--net-snl--node1-BETDEL_clean_sbu_0--edge1-AJUNOK_clean_linker_0
_symmetry_space_group_name_H-M    P1
_symmetry_Int_Tables_number       1
_symmetry_cell_setting            triclinic
loop_
_symmetry_equiv_pos_as_xyz
'x, y, z'
_cell_length_a     41.948095
_cell_length_b     42.226072
_cell_length_c     14.084997
_cell_angle_alpha  96.754938
_cell_angle_beta   90.147133
_cell_angle_gamma 90.29655
loop_
_atom_site_label
_atom_site_type_symbol
_atom_site_fract_x
_atom_site_fract_y
_atom_site_fract_z
_atom_type_partial_charge
Dy0 Dy 0.15531 0.62943 0.05084 0.0
C1 C 0.14659 0.62116 0.45152 0.0
C2 C 0.15815 0.61353 0.85799 0.0
Dy3 Dy 0.14317 0.62489 0.25949 0.0
O4 O 0.17905 0.63109 0.9086 0.0
O5 O 0.13667 0.6034 0.91366 0.0
O6 O 0.15137 0.68092 0.0382 0.0
O7 O 0.14415 0.665 0.17354 0.0
C8 C 0.14432 0.68899 0.12708 0.0
C9 C 0.14295 0.56936 0.14339 0.0
O10 O 0.09581 0.64199 0.22159 0.0
O11 O 0.10148 0.62353 0.06173 0.0
O12 O 0.12127 0.62927 0.40686 0.0
O13 O 0.16988 0.61576 0.39179 0.0
O14 O 0.12293 0.57582 0.21231 0.0
O15 O 0.16217 0.59203 0.14119 0.0
O16 O 0.20569 0.62918 0.1082 0.0
O17 O 0.19113 0.64746 0.26304 0.0
C18 C 0.08336 0.63438 0.13573 0.0
C19 C 0.21311 0.64143 0.19675 0.0
Dy20 Dy 0.656 0.88861 0.46139 0.0
C21 C 0.64473 0.89336 0.06517 0.0
C22 C 0.65555 0.88888 0.65479 0.0
Dy23 Dy 0.64494 0.89577 0.259 0.0
O24 O 0.64742 0.86506 0.59322 0.0
O25 O 0.66458 0.91271 0.61079 0.0
O26 O 0.67409 0.83984 0.41864 0.0
O27 O 0.63563 0.85619 0.34346 0.0
C28 C 0.65369 0.83262 0.35015 0.0
C29 C 0.64641 0.9511 0.37391 0.0
O30 O 0.59443 0.89054 0.2962 0.0
O31 O 0.6032 0.90102 0.45887 0.0
O32 O 0.65621 0.91658 0.12374 0.0
O33 O 0.63294 0.8715 0.11253 0.0
O34 O 0.62768 0.94565 0.30035 0.0
O35 O 0.66463 0.92774 0.3789 0.0
O36 O 0.70732 0.8923 0.41645 0.0
O37 O 0.695 0.87852 0.25693 0.0
C38 C 0.58358 0.89709 0.38406 0.0
C39 C 0.71601 0.88325 0.32693 0.0
Dy40 Dy 0.3967 0.39919 0.73277 0.0
C41 C 0.38963 0.37296 0.31569 0.0
C42 C 0.38392 0.40234 0.92323 0.0
Dy43 Dy 0.38816 0.37495 0.51023 0.0
O44 O 0.40476 0.42015 0.88559 0.0
O45 O 0.36899 0.38436 0.85605 0.0
O46 O 0.45042 0.39981 0.73827 0.0
O47 O 0.4264 0.38566 0.61111 0.0
C48 C 0.45359 0.38958 0.6482 0.0
C49 C 0.3366 0.37452 0.62271 0.0
O50 O 0.40761 0.33088 0.56001 0.0
O51 O 0.39461 0.34527 0.72044 0.0
O52 O 0.36572 0.36395 0.36467 0.0
O53 O 0.4134 0.38123 0.37283 0.0
O54 O 0.34114 0.35405 0.54743 0.0
O55 O 0.3583 0.39537 0.62895 0.0
O56 O 0.38872 0.44652 0.6763 0.0
O57 O 0.38844 0.42773 0.51293 0.0
C58 C 0.40349 0.32386 0.64867 0.0
C59 C 0.38803 0.45119 0.58401 0.0
Dy60 Dy 0.89202 0.12499 0.78085 0.0
C61 C 0.87277 0.14214 0.19087 0.0
C62 C 0.87775 0.12415 0.59219 0.0
Dy63 Dy 0.87965 0.14576 1.00025 0.0
O64 O 0.89264 0.10123 0.6284 0.0
O65 O 0.87014 0.14653 0.65916 0.0
O66 O 0.94561 0.12377 0.78072 0.0
O67 O 0.92054 0.13714 0.90717 0.0
C68 C 0.94799 0.13343 0.87173 0.0
C69 C 0.82981 0.14624 0.87859 0.0
O70 O 0.89985 0.19107 0.96333 0.0
O71 O 0.89058 0.1792 0.79979 0.0
O72 O 0.86025 0.12259 0.123 0.0
O73 O 0.88836 0.16473 0.15491 0.0
O74 O 0.83283 0.16616 0.95575 0.0
O75 O 0.85173 0.12612 0.87568 0.0
O76 O 0.88292 0.07773 0.83802 0.0
O77 O 0.89831 0.09657 0.99247 0.0
C78 C 0.89777 0.1997 0.8761 0.0
C79 C 0.89072 0.07277 0.92708 0.0
Dy80 Dy 0.159 0.39459 0.97028 0.0
C81 C 0.14587 0.4008 0.5663 0.0
C82 C 0.16612 0.4061 0.16284 0.0
Dy83 Dy 0.14527 0.39896 0.75868 0.0
O84 O 0.18229 0.3855 0.10705 0.0
O85 O 0.14728 0.42204 0.11253 0.0
O86 O 0.15257 0.34305 0.98089 0.0
O87 O 0.1459 0.35994 0.84784 0.0
C88 C 0.14517 0.33547 0.89205 0.0
C89 C 0.14459 0.4539 0.87581 0.0
O90 O 0.09686 0.38683 0.80187 0.0
O91 O 0.10532 0.40224 0.96391 0.0
O92 O 0.15254 0.42459 0.62987 0.0
O93 O 0.13817 0.37586 0.60756 0.0
O94 O 0.12451 0.44706 0.8062 0.0
O95 O 0.16443 0.43166 0.8779 0.0
O96 O 0.20943 0.3948 0.91348 0.0
O97 O 0.19564 0.38354 0.7533 0.0
C98 C 0.08596 0.39435 0.88956 0.0
C99 C 0.217 0.38632 0.82252 0.0
Dy100 Dy 0.89357 0.9005 0.23314 0.0
C101 C 0.88915 0.8733 0.81667 0.0
C102 C 0.88131 0.90404 0.42478 0.0
Dy103 Dy 0.88573 0.87318 1.01052 0.0
O104 O 0.90078 0.92284 0.38544 0.0
O105 O 0.86725 0.88491 0.35844 0.0
O106 O 0.94744 0.90347 0.23591 0.0
O107 O 0.92319 0.88559 0.11284 0.0
C108 C 0.95049 0.89147 0.14716 0.0
C109 C 0.83411 0.87349 0.12315 0.0
O110 O 0.90568 0.83019 0.06533 0.0
O111 O 0.89186 0.84654 0.22444 0.0
O112 O 0.86586 0.86098 0.86131 0.0
O113 O 0.91148 0.88306 0.87739 0.0
O114 O 0.83846 0.8526 0.04863 0.0
O115 O 0.85571 0.89442 0.12753 0.0
O116 O 0.88397 0.94681 0.17117 0.0
O117 O 0.88476 0.92568 1.0098 0.0
C118 C 0.90094 0.82434 0.15492 0.0
C119 C 0.88324 0.95002 0.07772 0.0
Dy120 Dy 0.39292 0.62848 0.30088 0.0
C121 C 0.38083 0.65379 0.71721 0.0
C122 C 0.38068 0.62415 0.10949 0.0
Dy123 Dy 0.38257 0.65257 0.52281 0.0
O124 O 0.40279 0.6083 0.14846 0.0
O125 O 0.36452 0.64103 0.17556 0.0
O126 O 0.44665 0.6288 0.29997 0.0
O127 O 0.42163 0.64302 0.42476 0.0
C128 C 0.44914 0.63931 0.39015 0.0
C129 C 0.33173 0.65087 0.40568 0.0
O130 O 0.39979 0.69783 0.47558 0.0
O131 O 0.39012 0.68247 0.31283 0.0
O132 O 0.35608 0.65233 0.66133 0.0
O133 O 0.40657 0.65641 0.66722 0.0
O134 O 0.33554 0.67206 0.47989 0.0
O135 O 0.35394 0.63079 0.40203 0.0
O136 O 0.38628 0.58092 0.35812 0.0
O137 O 0.3906 0.60063 0.51981 0.0
C138 C 0.39677 0.70443 0.38613 0.0
C139 C 0.38941 0.57675 0.45035 0.0
Dy140 Dy 0.65291 0.13156 0.52519 0.0
C141 C 0.65121 0.12822 0.93628 0.0
C142 C 0.65239 0.11634 0.33528 0.0
Dy143 Dy 0.64749 0.12559 0.74651 0.0
O144 O 0.62809 0.12677 0.38585 0.0
O145 O 0.67731 0.11369 0.38886 0.0
O146 O 0.65341 0.18385 0.52427 0.0
O147 O 0.64897 0.16455 0.65517 0.0
C148 C 0.64989 0.1901 0.61605 0.0
C149 C 0.65024 0.06801 0.63591 0.0
O150 O 0.59734 0.13543 0.71582 0.0
O151 O 0.60018 0.12309 0.55037 0.0
O152 O 0.67494 0.1218 0.87862 0.0
O153 O 0.62536 0.13435 0.89042 0.0
O154 O 0.64838 0.07034 0.72807 0.0
O155 O 0.65097 0.09568 0.61542 0.0
O156 O 0.70467 0.12976 0.57405 0.0
O157 O 0.69483 0.14758 0.73365 0.0
C158 C 0.58366 0.12877 0.6312 0.0
C159 C 0.7146 0.14135 0.66141 0.0
Dy160 Dy 0.88595 0.39847 0.78284 0.0
C161 C 0.87132 0.4088 0.1852 0.0
C162 C 0.88044 0.40031 0.59093 0.0
Dy163 Dy 0.87631 0.39445 0.99246 0.0
O164 O 0.85837 0.40825 0.65317 0.0
O165 O 0.90574 0.391 0.63318 0.0
O166 O 0.90554 0.44811 0.82266 0.0
O167 O 0.86827 0.43178 0.90247 0.0
C168 C 0.88711 0.45453 0.8955 0.0
C169 C 0.88766 0.33476 0.91672 0.0
O170 O 0.82552 0.39529 0.93911 0.0
O171 O 0.8386 0.37529 0.78489 0.0
O172 O 0.89431 0.41828 0.13351 0.0
O173 O 0.85049 0.39251 0.13095 0.0
O174 O 0.88148 0.34318 1.00594 0.0
O175 O 0.88683 0.35854 0.86948 0.0
O176 O 0.93445 0.38435 0.81807 0.0
O177 O 0.9296 0.40276 0.97848 0.0
C178 C 0.81727 0.38214 0.8524 0.0
C179 C 0.94737 0.39336 0.90243 0.0
Dy180 Dy 0.38632 0.12786 0.76987 0.0
C181 C 0.36663 0.11881 0.36602 0.0
C182 C 0.38557 0.12999 0.9643 0.0
Dy183 Dy 0.37336 0.13171 0.55874 0.0
O184 O 0.40217 0.11021 0.90721 0.0
O185 O 0.37074 0.14953 0.9154 0.0
O186 O 0.40307 0.07768 0.7277 0.0
O187 O 0.36532 0.09545 0.65273 0.0
C188 C 0.38327 0.07194 0.65724 0.0
C189 C 0.38884 0.19069 0.63415 0.0
O190 O 0.32257 0.1327 0.61287 0.0
O191 O 0.33474 0.13881 0.77512 0.0
O192 O 0.34888 0.1381 0.42131 0.0
O193 O 0.38716 0.10511 0.41714 0.0
O194 O 0.3812 0.18294 0.54557 0.0
O195 O 0.38739 0.16667 0.68 0.0
O196 O 0.43376 0.14304 0.72598 0.0
O197 O 0.4264 0.12161 0.56844 0.0
C198 C 0.31417 0.13831 0.70416 0.0
C199 C 0.44536 0.13189 0.64164 0.0
Dy200 Dy 0.64519 0.65093 0.52318 0.0
C201 C 0.64726 0.6219 0.11038 0.0
C202 C 0.64437 0.65273 0.71812 0.0
Dy203 Dy 0.63472 0.62468 0.30152 0.0
O204 O 0.66907 0.65896 0.66773 0.0
O205 O 0.6197 0.64752 0.66225 0.0
O206 O 0.69221 0.67082 0.48006 0.0
O207 O 0.67371 0.62907 0.40342 0.0
C208 C 0.69573 0.64955 0.40604 0.0
C209 C 0.57862 0.63563 0.39043 0.0
O210 O 0.64305 0.57778 0.36023 0.0
O211 O 0.64333 0.59831 0.52226 0.0
O212 O 0.62552 0.60498 0.14773 0.0
O213 O 0.66311 0.63866 0.1781 0.0
O214 O 0.58091 0.62415 0.30098 0.0
O215 O 0.60622 0.63988 0.42464 0.0
O216 O 0.62727 0.69531 0.47251 0.0
O217 O 0.63772 0.67848 0.31146 0.0
C218 C 0.64405 0.5742 0.45328 0.0
C219 C 0.63086 0.70105 0.38249 0.0
Dy220 Dy 0.1458 0.87355 1.01176 0.0
C221 C 0.14921 0.90221 0.42496 0.0
C222 C 0.14242 0.87387 0.8183 0.0
Dy223 Dy 0.13706 0.89881 0.23357 0.0
O224 O 0.1655 0.86133 0.863 0.0
O225 O 0.12035 0.88393 0.87872 0.0
O226 O 0.19338 0.85387 0.05018 0.0
O227 O 0.17545 0.89476 0.13069 0.0
C228 C 0.19744 0.87451 0.12559 0.0
C229 C 0.08022 0.88958 0.14657 0.0
O230 O 0.14675 0.94586 0.17527 0.0
O231 O 0.14648 0.92607 1.01306 0.0
O232 O 0.13071 0.92166 0.38523 0.0
O233 O 0.16221 0.88226 0.3593 0.0
O234 O 0.08332 0.90085 0.236 0.0
O235 O 0.10749 0.88458 0.11157 0.0
O236 O 0.1258 0.8298 0.06171 0.0
O237 O 0.13888 0.84477 0.2221 0.0
C238 C 0.14778 0.94995 0.08248 0.0
C239 C 0.1303 0.82298 0.15037 0.0
Dy240 Dy 0.88476 0.62819 0.26524 0.0
C241 C 0.865 0.62209 0.86021 0.0
C242 C 0.88384 0.62685 0.45709 0.0
Dy243 Dy 0.87178 0.63313 0.05231 0.0
O244 O 0.87768 0.60274 0.3941 0.0
O245 O 0.89114 0.65184 0.4156 0.0
O246 O 0.90647 0.58059 0.21892 0.0
O247 O 0.86709 0.59551 0.14351 0.0
C248 C 0.88726 0.57362 0.14715 0.0
C249 C 0.88294 0.6921 0.13712 0.0
O250 O 0.82122 0.63088 0.10622 0.0
O251 O 0.83361 0.64163 0.26786 0.0
O252 O 0.84856 0.64245 0.91599 0.0
O253 O 0.88412 0.60629 0.91006 0.0
O254 O 0.87669 0.6855 0.04705 0.0
O255 O 0.88269 0.66685 0.17695 0.0
O256 O 0.93299 0.64227 0.22389 0.0
O257 O 0.92571 0.62758 0.06095 0.0
C258 C 0.81283 0.63843 0.19689 0.0
C259 C 0.94448 0.63617 0.13626 0.0
Dy260 Dy 0.14324 0.15139 0.0175 0.0
C261 C 0.14682 0.1233 0.60452 0.0
C262 C 0.14357 0.15344 0.21241 0.0
Dy263 Dy 0.13414 0.12625 0.79517 0.0
O264 O 0.16841 0.15716 0.15993 0.0
O265 O 0.11822 0.15046 0.15864 0.0
O266 O 0.19056 0.17142 0.97703 0.0
O267 O 0.17246 0.12989 0.8989 0.0
C268 C 0.19464 0.15016 0.90333 0.0
C269 C 0.07748 0.135 0.88167 0.0
O270 O 0.14371 0.07948 0.85354 0.0
O271 O 0.13908 0.09876 0.01557 0.0
O272 O 0.12587 0.10556 0.64206 0.0
O273 O 0.16178 0.14121 0.67176 0.0
O274 O 0.08046 0.1238 0.79222 0.0
O275 O 0.1048 0.14015 0.91722 0.0
O276 O 0.12514 0.19588 0.96754 0.0
O277 O 0.13598 0.1802 0.80612 0.0
C278 C 0.14182 0.07503 0.94588 0.0
C279 C 0.12862 0.20227 0.87801 0.0
Dy280 Dy 0.65011 0.37818 0.52278 0.0
C281 C 0.65426 0.40128 0.93261 0.0
C282 C 0.65526 0.38261 0.33282 0.0
Dy283 Dy 0.63983 0.39858 0.74394 0.0
O284 O 0.66895 0.40147 0.40011 0.0
O285 O 0.63923 0.36026 0.36873 0.0
O286 O 0.69828 0.35966 0.55808 0.0
O287 O 0.67911 0.39848 0.64467 0.0
C288 C 0.70164 0.37885 0.63648 0.0
C289 C 0.58327 0.38679 0.65783 0.0
O290 O 0.6472 0.4459 0.68706 0.0
O291 O 0.6302 0.42706 0.5342 0.0
O292 O 0.63772 0.42286 0.89532 0.0
O293 O 0.66362 0.37936 0.86651 0.0
O294 O 0.58619 0.39646 0.74855 0.0
O295 O 0.61044 0.38475 0.62036 0.0
O296 O 0.63649 0.33091 0.56419 0.0
O297 O 0.64528 0.34508 0.72774 0.0
C298 C 0.63822 0.45086 0.59915 0.0
C299 C 0.63994 0.32361 0.6527 0.0
Dy300 Dy 0.38401 0.90195 0.27105 0.0
C301 C 0.36852 0.91345 0.67358 0.0
C302 C 0.37835 0.90507 0.07959 0.0
Dy303 Dy 0.37342 0.89793 0.48101 0.0
O304 O 0.35686 0.91393 0.14292 0.0
O305 O 0.40317 0.89413 0.12056 0.0
O306 O 0.40296 0.95166 0.3145 0.0
O307 O 0.36498 0.93469 0.38975 0.0
C308 C 0.38349 0.95784 0.38505 0.0
C309 C 0.38591 0.83855 0.40641 0.0
O310 O 0.3229 0.89666 0.42369 0.0
O311 O 0.33752 0.87688 0.27051 0.0
O312 O 0.34752 0.89705 0.62018 0.0
O313 O 0.39154 0.92238 0.62108 0.0
O314 O 0.37943 0.84681 0.49553 0.0
O315 O 0.38499 0.86228 0.35894 0.0
O316 O 0.43294 0.88964 0.3078 0.0
O317 O 0.42671 0.90737 0.46854 0.0
C318 C 0.31553 0.88319 0.33636 0.0
C319 C 0.44511 0.8986 0.39325 0.0
C320 C 0.18169 0.61936 0.69865 0.0
C321 C 0.15523 0.61194 0.75307 0.0
C322 C 0.17868 0.62179 0.60061 0.0
C323 C 0.14894 0.6178 0.55431 0.0
H324 H 0.2048 0.62374 0.73228 0.0
H325 H 0.19966 0.62765 0.56134 0.0
S326 S 0.07253 0.59704 0.6638 0.0
N327 N 0.09854 0.59932 0.75259 0.0
N328 N 0.09279 0.60502 0.56895 0.0
C329 C 0.12238 0.61 0.60746 0.0
C330 C 0.12557 0.60672 0.70677 0.0
C331 C 0.65928 0.91763 0.91879 0.0
C332 C 0.64664 0.89164 0.9605 0.0
C333 C 0.66227 0.91649 0.81957 0.0
C334 C 0.65286 0.88926 0.75895 0.0
H335 H 0.66696 0.93905 0.96304 0.0
H336 H 0.672 0.93708 0.79028 0.0
S337 S 0.61831 0.81482 0.83267 0.0
N338 N 0.62459 0.83795 0.93395 0.0
N339 N 0.63031 0.83568 0.74722 0.0
C340 C 0.64018 0.86308 0.79969 0.0
C341 C 0.63702 0.86431 0.90069 0.0
C342 C 0.411 0.39905 0.17875 0.0
C343 C 0.38777 0.37953 0.21486 0.0
C344 C 0.4087 0.4077 0.08578 0.0
C345 C 0.38326 0.39686 0.02508 0.0
H346 H 0.43102 0.408 0.22289 0.0
H347 H 0.42748 0.42228 0.06055 0.0
S348 S 0.31581 0.34578 0.08575 0.0
N349 N 0.33807 0.35025 0.18335 0.0
N350 N 0.33403 0.36603 1.00817 0.0
C351 C 0.3597 0.37758 0.06056 0.0
C352 C 0.3619 0.369 0.15551 0.0
C353 C 0.87601 0.1585 0.46079 0.0
C354 C 0.87477 0.1277 0.48971 0.0
C355 C 0.87536 0.16305 0.36383 0.0
C356 C 0.87236 0.13703 0.2927 0.0
H357 H 0.87843 0.17926 0.51342 0.0
H358 H 0.8771 0.18709 0.34451 0.0
S359 S 0.86685 0.05165 0.33121 0.0
N360 N 0.87013 0.07087 0.44 0.0
N361 N 0.86737 0.07935 0.25755 0.0
C362 C 0.8702 0.10613 0.32075 0.0
C363 C 0.87182 0.10147 0.41943 0.0
C364 C 0.15187 0.43175 0.32567 0.0
C365 C 0.16293 0.40503 0.26643 0.0
C366 C 0.14628 0.43015 0.42312 0.0
C367 C 0.15046 0.40148 0.46324 0.0
H368 H 0.14758 0.45399 0.29659 0.0
H369 H 0.13825 0.45138 0.4671 0.0
S370 S 0.17867 0.32469 0.33837 0.0
N371 N 0.17814 0.34911 0.25502 0.0
N372 N 0.16642 0.34597 0.43727 0.0
C373 C 0.16121 0.37456 0.4047 0.0
C374 C 0.1678 0.37639 0.30637 0.0
C375 C 0.86628 0.86523 0.65088 0.0
C376 C 0.88726 0.88171 0.71745 0.0
C377 C 0.86352 0.87355 0.55747 0.0
C378 C 0.88128 0.899 0.52745 0.0
H379 H 0.85223 0.84543 0.67062 0.0
H380 H 0.84782 0.85945 0.50779 0.0
S381 S 0.93647 0.95239 0.67856 0.0
N382 N 0.92411 0.92641 0.74949 0.0
N383 N 0.91865 0.9422 0.57469 0.0
C384 C 0.9013 0.91654 0.5947 0.0
C385 C 0.9044 0.90784 0.68943 0.0
C386 C 0.40753 0.63469 0.85851 0.0
C387 C 0.38015 0.64673 0.81769 0.0
C388 C 0.40702 0.62571 0.95137 0.0
C389 C 0.37926 0.62901 1.00736 0.0
H390 H 0.42947 0.63182 0.81806 0.0
H391 H 0.42882 0.6171 0.98052 0.0
S392 S 0.30093 0.65823 0.93299 0.0
N393 N 0.32413 0.66023 0.83922 0.0
N394 N 0.32352 0.64438 0.01481 0.0
C395 C 0.35165 0.6407 0.96718 0.0
C396 C 0.352 0.6493 0.87206 0.0
C397 C 0.62394 0.12558 0.0893 0.0
C398 C 0.65238 0.12426 0.03726 0.0
C399 C 0.62406 0.12085 0.18519 0.0
C400 C 0.65266 0.11493 0.23182 0.0
H401 H 0.60144 0.13043 0.05604 0.0
H402 H 0.60168 0.12286 0.22365 0.0
S403 S 0.73327 0.1072 0.1251 0.0
N404 N 0.70971 0.11502 0.03683 0.0
N405 N 0.70986 0.10634 0.21882 0.0
C406 C 0.68115 0.11242 0.17995 0.0
C407 C 0.68105 0.11719 0.08197 0.0
C408 C 0.90221 0.41204 0.33698 0.0
C409 C 0.87253 0.40958 0.2899 0.0
C410 C 0.90467 0.40849 0.4344 0.0
C411 C 0.87745 0.40317 0.48822 0.0
H412 H 0.92384 0.41564 0.29766 0.0
H413 H 0.928 0.41012 0.46788 0.0
S414 S 0.79413 0.39575 0.3993 0.0
N415 N 0.81539 0.40169 0.30433 0.0
N416 N 0.81987 0.39621 0.4884 0.0
C417 C 0.84755 0.40147 0.44264 0.0
C418 C 0.84513 0.40438 0.34308 0.0
C419 C 0.39333 0.10253 0.20991 0.0
C420 C 0.36883 0.11928 0.26166 0.0
C421 C 0.39879 0.10632 0.11369 0.0
C422 C 0.38013 0.1272 0.06638 0.0
H423 H 0.40889 0.08696 0.24447 0.0
H424 H 0.41797 0.09305 0.07649 0.0
S425 S 0.3117 0.17502 0.16819 0.0
N426 N 0.32469 0.15626 0.25703 0.0
N427 N 0.33521 0.16364 0.07688 0.0
C428 C 0.35512 0.14354 0.11668 0.0
C429 C 0.34936 0.13945 0.21417 0.0
C430 C 0.62285 0.61819 0.94704 0.0
C431 C 0.6485 0.6277 1.00855 0.0
C432 C 0.62136 0.62715 0.85418 0.0
C433 C 0.64564 0.64565 0.81879 0.0
H434 H 0.60331 0.6044 0.97154 0.0
H435 H 0.60112 0.61923 0.8095 0.0
S436 S 0.71851 0.67586 0.95007 0.0
N437 N 0.69903 0.6563 0.02687 0.0
N438 N 0.69652 0.67253 0.85189 0.0
C439 C 0.67174 0.65479 0.87883 0.0
C440 C 0.6731 0.64596 0.97376 0.0
C441 C 0.16751 0.87294 0.55914 0.0
C442 C 0.14953 0.89786 0.52784 0.0
C443 C 0.16504 0.8652 0.65311 0.0
C444 C 0.14413 0.88177 0.71879 0.0
H445 H 0.18316 0.8588 0.51009 0.0
H446 H 0.17922 0.84578 0.67398 0.0
S447 S 0.09421 0.95109 0.67588 0.0
N448 N 0.11195 0.94062 0.5725 0.0
N449 N 0.10697 0.92586 0.74846 0.0
C450 C 0.12675 0.90737 0.68939 0.0
C451 C 0.12958 0.91551 0.59412 0.0
C452 C 0.87882 0.59628 0.69778 0.0
C453 C 0.86779 0.62304 0.75681 0.0
C454 C 0.88404 0.59774 0.60023 0.0
C455 C 0.87946 0.6263 0.55996 0.0
H456 H 0.88339 0.57413 0.72711 0.0
H457 H 0.89212 0.57652 0.55632 0.0
S458 S 0.85115 0.70311 0.68439 0.0
N459 N 0.85217 0.67884 0.7681 0.0
N460 N 0.86318 0.68174 0.58537 0.0
C461 C 0.86871 0.65326 0.61826 0.0
C462 C 0.86251 0.65156 0.71675 0.0
C463 C 0.121 0.12127 0.4439 0.0
C464 C 0.14781 0.1287 0.50265 0.0
C465 C 0.11949 0.13026 0.35113 0.0
C466 C 0.14493 0.14657 0.31313 0.0
H467 H 0.10062 0.10925 0.47067 0.0
H468 H 0.09834 0.12406 0.30855 0.0
S469 S 0.22108 0.17043 0.43668 0.0
N470 N 0.20059 0.15282 0.51585 0.0
N471 N 0.19815 0.16893 0.34069 0.0
C472 C 0.17216 0.15353 0.37045 0.0
C473 C 0.1735 0.14478 0.46539 0.0
C474 C 0.65503 0.36192 0.15987 0.0
C475 C 0.65582 0.38791 0.23149 0.0
C476 C 0.65569 0.36669 0.06316 0.0
C477 C 0.65608 0.39762 0.03506 0.0
H478 H 0.65421 0.33777 0.17865 0.0
H479 H 0.655 0.34596 1.00995 0.0
S480 S 0.65773 0.47361 0.19557 0.0
N481 N 0.65746 0.44569 0.26851 0.0
N482 N 0.65707 0.45454 0.08617 0.0
C483 C 0.65659 0.42382 0.10594 0.0
C484 C 0.65691 0.41897 0.20447 0.0
C485 C 0.40255 0.91107 0.9212 0.0
C486 C 0.3752 0.90826 0.97695 0.0
C487 C 0.40003 0.91454 0.82371 0.0
C488 C 0.3701 0.91449 0.77837 0.0
H489 H 0.42605 0.91069 0.95315 0.0
H490 H 0.42173 0.91608 0.78289 0.0
S491 S 0.29127 0.90823 0.89308 0.0
N492 N 0.31724 0.90661 0.98073 0.0
N493 N 0.31262 0.91184 0.79648 0.0
C494 C 0.34259 0.91192 0.83342 0.0
C495 C 0.34511 0.90915 0.93311 0.0
C496 C 0.11095 0.73526 0.10732 0.0
C497 C 0.13444 0.72167 0.16088 0.0
C498 C 0.10812 0.76834 0.11016 0.0
C499 C 0.12875 0.78903 0.16672 0.0
H500 H 0.09622 0.72017 0.05711 0.0
H501 H 0.09091 0.77771 0.06335 0.0
S502 S 0.19237 0.76517 0.3273 0.0
N503 N 0.17703 0.73103 0.27761 0.0
N504 N 0.1717 0.79355 0.28438 0.0
C505 C 0.15061 0.77576 0.22701 0.0
C506 C 0.1535 0.74189 0.22368 0.0
C507 C 0.53045 0.90658 0.31559 0.0
C508 C 0.54853 0.90034 0.39547 0.0
C509 C 0.49724 0.90683 0.31772 0.0
C510 C 0.48033 0.90096 0.39991 0.0
H511 H 0.54198 0.91089 0.24954 0.0
H512 H 0.48471 0.91133 0.25331 0.0
S513 S 0.51598 0.8849 0.63054 0.0
N514 N 0.54703 0.88935 0.56119 0.0
N515 N 0.48403 0.89007 0.56526 0.0
C516 C 0.49788 0.89599 0.48209 0.0
C517 C 0.5321 0.89561 0.47984 0.0
C518 C 0.3831 0.27711 0.72487 0.0
C519 C 0.40566 0.29009 0.66597 0.0
C520 C 0.38015 0.24392 0.72522 0.0
C521 C 0.40007 0.22301 0.66805 0.0
H522 H 0.36589 0.29245 0.7645 0.0
H523 H 0.36038 0.23461 0.76306 0.0
S524 S 0.46699 0.24522 0.5176 0.0
N525 N 0.45117 0.27965 0.5609 0.0
N526 N 0.44585 0.21748 0.56264 0.0
C527 C 0.42477 0.23589 0.6173 0.0
C528 C 0.42752 0.26944 0.61585 0.0
C529 C 0.99574 0.16595 0.91792 0.0
C530 C 0.97873 0.13737 0.92171 0.0
C531 C 0.02921 0.16648 0.92179 0.0
C532 C 0.04643 0.13841 0.92921 0.0
H533 H 0.9834 0.18706 0.90081 0.0
H534 H 0.04161 0.18793 0.90703 0.0
S535 S 1.01266 0.0589 0.95718 0.0
N536 N 0.98117 0.08156 0.94624 0.0
N537 N 0.04405 0.08252 0.95324 0.0
C538 C 0.02952 0.11072 0.94439 0.0
C539 C 0.99554 0.11019 0.94053 0.0
C540 C 0.11066 0.29025 0.91653 0.0
C541 C 0.13334 0.30325 0.85847 0.0
C542 C 0.10765 0.25728 0.91745 0.0
C543 C 0.12709 0.23604 0.8597 0.0
H544 H 0.09708 0.3058 0.96803 0.0
H545 H 0.09132 0.24848 0.96789 0.0
S546 S 0.187 0.25788 0.68493 0.0
N547 N 0.17312 0.29248 0.73458 0.0
N548 N 0.16723 0.23018 0.73443 0.0
C549 C 0.14764 0.24859 0.79424 0.0
C550 C 0.15082 0.28235 0.79399 0.0
C551 C 0.0315 0.85828 0.10382 0.0
C552 C 0.04919 0.88633 0.098 0.0
C553 C 0.99801 0.85881 0.10439 0.0
C554 C 0.98145 0.8874 0.09913 0.0
H555 H 0.04346 0.8368 0.11957 0.0
H556 H 0.98526 0.83776 0.12063 0.0
S557 S 0.01687 0.96588 0.06717 0.0
N558 N 0.04786 0.94223 0.07398 0.0
N559 N 0.98496 0.94323 0.07514 0.0
C560 C 0.99885 0.91459 0.08215 0.0
C561 C 0.03284 0.91405 0.08148 0.0
C562 C 0.42018 0.75856 0.42417 0.0
C563 C 0.39876 0.73825 0.36943 0.0
C564 C 0.41832 0.79165 0.42546 0.0
C565 C 0.39493 0.80564 0.3725 0.0
H566 H 0.43733 0.74893 0.4706 0.0
H567 H 0.4337 0.80652 0.47433 0.0
S568 S 0.33471 0.76301 0.2121 0.0
N569 N 0.35496 0.73432 0.25487 0.0
N570 N 0.35127 0.7969 0.25909 0.0
C571 C 0.37492 0.78568 0.31185 0.0
C572 C 0.3769 0.75179 0.3099 0.0
C573 C 0.53059 0.13339 0.54899 0.0
C574 C 0.54835 0.12672 0.62934 0.0
C575 C 0.49699 0.13413 0.55132 0.0
C576 C 0.48031 0.12833 0.63413 0.0
H577 H 0.5427 0.13906 0.48524 0.0
H578 H 0.48411 0.14036 0.48945 0.0
S579 S 0.51532 0.10439 0.85707 0.0
N580 N 0.54629 0.11034 0.78936 0.0
N581 N 0.48377 0.11199 0.79361 0.0
C582 C 0.49777 0.11995 0.71259 0.0
C583 C 0.53164 0.11908 0.71023 0.0
C584 C 0.91869 0.25334 0.93677 0.0
C585 C 0.9012 0.23412 0.8667 0.0
C586 C 0.91668 0.28652 0.94496 0.0
C587 C 0.89726 0.30187 0.88327 0.0
H588 H 0.9326 0.24267 0.98953 0.0
H589 H 0.92875 0.30022 1.00451 0.0
S590 S 0.85111 0.26291 0.67723 0.0
N591 N 0.86717 0.23299 0.72593 0.0
N592 N 0.86355 0.29588 0.742 0.0
C593 C 0.88222 0.28331 0.80678 0.0
C594 C 0.88419 0.24921 0.7983 0.0
C595 C 0.65847 0.77592 0.28352 0.0
C596 C 0.64152 0.79984 0.33915 0.0
C597 C 0.65312 0.74367 0.29337 0.0
C598 C 0.63149 0.73451 0.3617 0.0
H599 H 0.67715 0.78223 0.23606 0.0
H600 H 0.66768 0.726 0.25194 0.0
S601 S 0.58009 0.78852 0.52089 0.0
N602 N 0.60082 0.81254 0.45973 0.0
N603 N 0.59174 0.75202 0.48161 0.0
C604 C 0.61346 0.75827 0.41478 0.0
C605 C 0.61826 0.79097 0.40263 0.0
C606 C 0.87167 0.74537 0.22288 0.0
C607 C 0.89377 0.72399 0.17673 0.0
C608 C 0.87568 0.77845 0.22303 0.0
C609 C 0.90151 0.79085 0.17507 0.0
H610 H 0.84975 0.73649 0.25083 0.0
H611 H 0.857 0.79413 0.25324 0.0
S612 S 0.96839 0.74477 0.05784 0.0
N613 N 0.94438 0.71749 0.09395 0.0
N614 N 0.95153 0.7795 0.09205 0.0
C615 C 0.92507 0.7698 0.13626 0.0
C616 C 0.92129 0.73633 0.13782 0.0
C617 C 0.67577 0.24203 0.62986 0.0
C618 C 0.65126 0.22306 0.66138 0.0
C619 C 0.67206 0.27485 0.63065 0.0
C620 C 0.64411 0.28995 0.66534 0.0
H621 H 0.69672 0.23099 0.5956 0.0
H622 H 0.69044 0.28822 0.59888 0.0
S623 S 0.57443 0.25177 0.76674 0.0
N624 N 0.59903 0.22194 0.73486 0.0
N625 N 0.59275 0.28448 0.74104 0.0
C626 C 0.62054 0.27189 0.7052 0.0
C627 C 0.62405 0.23813 0.70261 0.0
C628 C 0.99914 0.39801 0.8214 0.0
C629 C 0.98264 0.39518 0.90671 0.0
C630 C 0.03228 0.3983 0.81836 0.0
C631 C 0.0508 0.39569 0.90042 0.0
H632 H 0.98638 0.40002 0.75541 0.0
H633 H 0.0434 0.40053 0.7501 0.0
S634 S 0.01947 0.38875 0.14332 0.0
N635 N 0.98717 0.39068 0.07677 0.0
N636 N 0.05016 0.39106 0.07101 0.0
C637 C 0.0348 0.39371 0.98737 0.0
C638 C 1.00059 0.3935 0.99052 0.0
C639 C 0.4963 0.61709 0.46221 0.0
C640 C 0.48004 0.64417 0.43893 0.0
C641 C 0.52977 0.61608 0.46168 0.0
C642 C 0.54784 0.64215 0.43809 0.0
H643 H 0.48318 0.59532 0.46942 0.0
H644 H 0.54135 0.59358 0.46868 0.0
S645 S 0.51652 0.71994 0.38486 0.0
N646 N 0.48435 0.69876 0.40306 0.0
N647 N 0.5472 0.69684 0.40177 0.0
C648 C 0.53189 0.67046 0.42545 0.0
C649 C 0.49789 0.67149 0.42604 0.0
C650 C 0.50079 0.35557 0.6287 0.0
C651 C 0.48467 0.38248 0.60379 0.0
C652 C 0.53417 0.35499 0.63222 0.0
C653 C 0.55227 0.38123 0.61041 0.0
H654 H 0.48761 0.33656 0.65661 0.0
H655 H 0.54567 0.3355 0.66235 0.0
S656 S 0.52139 0.45514 0.52716 0.0
N657 N 0.4891 0.43415 0.54571 0.0
N658 N 0.55201 0.43294 0.55153 0.0
C659 C 0.53655 0.40658 0.57471 0.0
C660 C 0.50254 0.40722 0.57151 0.0
C661 C 0.0309 0.65235 0.20373 0.0
C662 C 0.04814 0.63713 0.12597 0.0
C663 C 0.99766 0.65287 0.20368 0.0
C664 C 0.97974 0.63815 0.12594 0.0
H665 H 0.04307 0.66354 0.26697 0.0
H666 H 0.98597 0.66447 0.26684 0.0
S667 S 1.01308 0.59839 0.89884 0.0
N668 N 0.04479 0.60949 0.9645 0.0
N669 N 0.98186 0.61027 0.96471 0.0
C670 C 0.99652 0.62436 0.04497 0.0
C671 C 0.03076 0.62389 0.04494 0.0
C672 C 0.17047 0.52135 0.06306 0.0
C673 C 0.14287 0.54004 0.0757 0.0
C674 C 0.17069 0.49308 0.99956 0.0
C675 C 0.1436 0.48323 0.94446 0.0
H676 H 0.19187 0.52839 0.10355 0.0
H677 H 0.19233 0.47913 0.99253 0.0
S678 S 0.06585 0.525 0.94909 0.0
N679 N 0.088 0.54721 0.02836 0.0
N680 N 0.08863 0.49495 0.90579 0.0
C681 C 0.11602 0.50214 0.95566 0.0
C682 C 0.11559 0.53037 0.02219 0.0
C683 C 0.77128 0.90342 0.30592 0.0
C684 C 0.74958 0.87781 0.29945 0.0
C685 C 0.7996 0.90133 0.25217 0.0
C686 C 0.80688 0.87365 0.19005 0.0
H687 H 0.76524 0.92592 0.34686 0.0
H688 H 0.81496 0.92214 0.25526 0.0
S689 S 0.7601 0.79833 0.16108 0.0
N690 N 0.73893 0.82284 0.23586 0.0
N691 N 0.79204 0.81875 0.13573 0.0
C692 C 0.78653 0.84711 0.1893 0.0
C693 C 0.75788 0.84925 0.24384 0.0
C694 C 0.37432 0.48849 0.4645 0.0
C695 C 0.38734 0.48378 0.5545 0.0
C696 C 0.37586 0.51823 0.42923 0.0
C697 C 0.3906 0.54445 0.48247 0.0
H698 H 0.36271 0.46896 0.42058 0.0
H699 H 0.3649 0.5208 0.36086 0.0
S700 S 0.43084 0.5441 0.71869 0.0
N701 N 0.41679 0.50749 0.69353 0.0
N702 N 0.4203 0.56319 0.62792 0.0
C703 C 0.4043 0.53987 0.57193 0.0
C704 C 0.40243 0.50966 0.60793 0.0
C705 C 0.78393 0.17334 0.81007 0.0
C706 C 0.80421 0.14689 0.80584 0.0
C707 C 0.75675 0.1729 0.75191 0.0
C708 C 0.74863 0.14595 0.68747 0.0
H709 H 0.78815 0.19397 0.86206 0.0
H710 H 0.74052 0.19289 0.76302 0.0
S711 S 0.79638 0.07234 0.6388 0.0
N712 N 0.81655 0.09445 0.72336 0.0
N713 N 0.76494 0.09356 0.6153 0.0
C714 C 0.77018 0.12049 0.67624 0.0
C715 C 0.79807 0.12094 0.73543 0.0
C716 C 0.86374 0.53633 1.01326 0.0
C717 C 0.88781 0.54329 0.0826 0.0
C718 C 0.86346 0.50731 0.95314 0.0
C719 C 0.88751 0.48465 0.95946 0.0
H720 H 0.84486 0.55328 1.00583 0.0
H721 H 0.84449 0.50268 0.90092 0.0
S722 S 0.95573 0.49093 0.12796 0.0
N723 N 0.93609 0.52461 0.15424 0.0
N724 N 0.9359 0.47076 0.03894 0.0
C725 C 0.9118 0.49134 0.02732 0.0
C726 C 0.91187 0.52053 0.08958 0.0
C727 C 0.24553 0.17319 0.85057 0.0
C728 C 0.2226 0.14867 0.83872 0.0
C729 C 0.27415 0.17078 0.79931 0.0
C730 C 0.28075 0.14405 0.73305 0.0
H731 H 0.24203 0.19379 0.90298 0.0
H732 H 0.29204 0.18927 0.81529 0.0
S733 S 0.22778 0.07436 0.66977 0.0
N734 N 0.20776 0.0974 0.75163 0.0
N735 N 0.26149 0.09345 0.65392 0.0
C736 C 0.25731 0.12028 0.71582 0.0
C737 C 0.22823 0.12245 0.76911 0.0
C738 C 0.62841 0.51648 0.43782 0.0
C739 C 0.64514 0.54222 0.48668 0.0
C740 C 0.62548 0.48751 0.4768 0.0
C741 C 0.63934 0.48301 0.56598 0.0
H742 H 0.61665 0.519 0.37057 0.0
H743 H 0.61211 0.46848 0.43619 0.0
S744 S 0.68741 0.54271 0.71954 0.0
N745 N 0.67701 0.56111 0.62721 0.0
N746 N 0.67147 0.50672 0.69976 0.0
C747 C 0.65653 0.50849 0.61482 0.0
C748 C 0.65953 0.53798 0.57519 0.0
C749 C 0.27539 0.85183 0.23486 0.0
C750 C 0.28219 0.87801 0.30353 0.0
C751 C 0.24724 0.85029 0.1808 0.0
C752 C 0.22488 0.87508 0.19244 0.0
H753 H 0.2928 0.83309 0.21921 0.0
H754 H 0.24366 0.83014 0.12666 0.0
S755 S 0.23013 0.94779 0.36812 0.0
N756 N 0.26323 0.92816 0.38525 0.0
N757 N 0.21041 0.92572 0.28253 0.0
C758 C 0.23047 0.90058 0.2647 0.0
C759 C 0.25908 0.9019 0.32074 0.0
C760 C 0.66576 0.98348 0.52368 0.0
C761 C 0.64774 0.98134 0.43866 0.0
C762 C 0.66606 1.01147 0.58832 0.0
C763 C 0.64941 0.03864 0.56805 0.0
H764 H 0.67964 0.9634 0.5407 0.0
H765 H 0.67988 1.01204 0.6536 0.0
S766 S 0.59951 0.04597 0.35411 0.0
N767 N 0.61293 1.00905 0.33785 0.0
N768 N 0.6148 0.06193 0.45693 0.0
C769 C 0.632 0.03711 0.48236 0.0
C770 C 0.63088 1.00839 0.41809 0.0
C771 C 0.27424 0.40295 0.80987 0.0
C772 C 0.25021 0.3797 0.79175 0.0
C773 C 0.30293 0.4006 0.75763 0.0
C774 C 0.30842 0.37485 0.68624 0.0
H775 H 0.26997 0.4241 0.85951 0.0
H776 H 0.32023 0.41978 0.77015 0.0
S777 S 0.25439 0.30593 0.62107 0.0
N778 N 0.23493 0.32892 0.70415 0.0
N779 N 0.28866 0.32421 0.60783 0.0
C780 C 0.28544 0.35047 0.67278 0.0
C781 C 0.25638 0.35297 0.72516 0.0
C782 C 0.89752 1.00809 0.09323 0.0
C783 C 0.88219 0.98181 0.04248 0.0
C784 C 0.90096 0.03685 0.05341 0.0
C785 C 0.88903 0.04072 0.96126 0.0
H786 H 0.90787 1.00616 0.16284 0.0
H787 H 0.91324 0.05624 0.09589 0.0
S788 S 0.84563 0.97927 0.80029 0.0
N789 N 0.85398 0.96161 0.89579 0.0
N790 N 0.86052 0.01567 0.82184 0.0
C791 C 0.87334 0.01468 0.91015 0.0
C792 C 0.86981 0.98534 0.95063 0.0
C793 C 0.25369 0.67305 0.29566 0.0
C794 C 0.24651 0.6464 0.22922 0.0
C795 C 0.28203 0.67483 0.34889 0.0
C796 C 0.30417 0.6498 0.33897 0.0
H797 H 0.23649 0.69206 0.31003 0.0
H798 H 0.28593 0.69544 0.40118 0.0
S799 S 0.29768 0.57565 0.16965 0.0
N800 N 0.26478 0.59543 0.15129 0.0
N801 N 0.31783 0.59823 0.25318 0.0
C802 C 0.2981 0.62369 0.26911 0.0
C803 C 0.26934 0.62216 0.2136 0.0
C804 C 0.35516 1.00078 0.4882 0.0
C805 C 0.38395 0.98706 0.45345 0.0
C806 C 0.35507 0.02883 0.55255 0.0
C807 C 0.38378 0.0432 0.58701 0.0
H808 H 0.33258 0.99004 0.46431 0.0
H809 H 0.33244 0.03894 0.5771 0.0
S810 S 0.46545 0.01615 0.51962 0.0
N811 N 0.4418 0.99 0.45729 0.0
N812 N 0.44166 0.04172 0.5822 0.0
C813 C 0.41269 0.02945 0.55384 0.0
C814 C 0.41277 1.00158 0.48592 0.0
C815 C 0.75845 0.61739 0.22564 0.0
C816 C 0.77924 0.64355 0.22485 0.0
C817 C 0.73038 0.61994 0.28061 0.0
C818 C 0.72252 0.64861 0.33723 0.0
H819 H 0.76504 0.59431 0.18938 0.0
H820 H 0.71577 0.59882 0.28313 0.0
S821 S 0.76667 0.72523 0.34612 0.0
N822 N 0.78828 0.69978 0.27555 0.0
N823 N 0.73568 0.70469 0.37822 0.0
C824 C 0.74192 0.67548 0.33075 0.0
C825 C 0.77028 0.67289 0.27472 0.0
C826 C 0.13401 0.03823 0.07129 0.0
C827 C 0.14385 0.0427 0.97763 0.0
C828 C 0.13669 1.00867 0.10677 0.0
C829 C 0.14926 0.98221 0.05012 0.0
H830 H 0.12371 0.05772 0.11797 0.0
H831 H 0.12791 1.00634 0.1779 0.0
S832 S 0.18067 0.98144 0.80239 0.0
N833 N 0.16803 0.01827 0.83084 0.0
N834 N 0.17344 0.96278 0.89671 0.0
C835 C 0.15992 0.98647 0.95694 0.0
C836 C 0.15703 0.01659 0.92081 0.0
C837 C 0.73509 0.40357 0.77432 0.0
C838 C 0.7279 0.37733 0.70612 0.0
C839 C 0.76278 0.40389 0.83126 0.0
C840 C 0.78372 0.37781 0.82213 0.0
H841 H 0.72034 0.42469 0.77967 0.0
H842 H 0.76907 0.42553 0.87675 0.0
S843 S 0.77224 0.30117 0.66839 0.0
N844 N 0.74172 0.32316 0.64267 0.0
N845 N 0.79301 0.32356 0.75065 0.0
C846 C 0.77507 0.35046 0.76096 0.0
C847 C 0.74734 0.35027 0.70251 0.0
loop_
_geom_bond_atom_site_label_1
_geom_bond_atom_site_label_2
_geom_bond_distance
_geom_bond_site_symmetry_2
_ccdc_geom_bond_type
Dy0 O4 2.390 1_554 S
Dy0 O5 2.485 1_554 S
Dy0 O6 2.405 . S
Dy0 O7 2.672 . S
Dy0 O11 2.327 . S
Dy0 O15 2.315 . S
Dy0 O16 2.357 . S
C1 O12 1.185 . S
C1 O13 1.355 . S
C2 O4 1.185 . S
C2 O5 1.355 . S
Dy3 O7 2.310 . S
Dy3 O10 2.351 . S
Dy3 O12 2.398 . S
Dy3 O13 2.491 . S
Dy3 O14 2.403 . S
Dy3 O15 2.664 . S
Dy3 O17 2.326 . S
O4 Dy0 2.390 1_556 S
O4 C2 1.185 . S
O5 Dy0 2.485 1_556 S
O5 C2 1.355 . S
O6 Dy0 2.405 . S
O6 C8 1.254 . S
O7 Dy0 2.672 . S
O7 Dy3 2.310 . S
O7 C8 1.268 . S
C8 O6 1.254 . S
C8 O7 1.268 . S
C9 O14 1.254 . S
C9 O15 1.268 . S
O10 Dy3 2.351 . S
O10 C18 1.249 . S
O11 Dy0 2.327 . S
O11 C18 1.267 . S
O12 C1 1.185 . S
O12 Dy3 2.398 . S
O13 C1 1.355 . S
O13 Dy3 2.491 . S
O14 Dy3 2.403 . S
O14 C9 1.254 . S
O15 Dy0 2.315 . S
O15 Dy3 2.664 . S
O15 C9 1.268 . S
O16 Dy0 2.357 . S
O16 C19 1.249 . S
O17 Dy3 2.326 . S
O17 C19 1.267 . S
C18 O10 1.249 . S
C18 O11 1.267 . S
C19 O16 1.249 . S
C19 O17 1.267 . S
Dy20 O24 2.398 . S
Dy20 O25 2.491 . S
Dy20 O26 2.403 . S
Dy20 O27 2.664 . S
Dy20 O31 2.326 . S
Dy20 O35 2.310 . S
Dy20 O36 2.351 . S
C21 O32 1.185 . S
C21 O33 1.355 . S
C22 O24 1.185 . S
C22 O25 1.355 . S
Dy23 O27 2.310 . S
Dy23 O30 2.351 . S
Dy23 O32 2.398 . S
Dy23 O33 2.491 . S
Dy23 O34 2.403 . S
Dy23 O35 2.664 . S
Dy23 O37 2.326 . S
O24 Dy20 2.398 . S
O24 C22 1.185 . S
O25 Dy20 2.491 . S
O25 C22 1.355 . S
O26 Dy20 2.403 . S
O26 C28 1.254 . S
O27 Dy20 2.664 . S
O27 Dy23 2.310 . S
O27 C28 1.268 . S
C28 O26 1.254 . S
C28 O27 1.268 . S
C29 O34 1.254 . S
C29 O35 1.268 . S
O30 Dy23 2.351 . S
O30 C38 1.249 . S
O31 Dy20 2.326 . S
O31 C38 1.267 . S
O32 C21 1.185 . S
O32 Dy23 2.398 . S
O33 C21 1.355 . S
O33 Dy23 2.491 . S
O34 Dy23 2.403 . S
O34 C29 1.254 . S
O35 Dy20 2.310 . S
O35 Dy23 2.664 . S
O35 C29 1.268 . S
O36 Dy20 2.351 . S
O36 C39 1.249 . S
O37 Dy23 2.326 . S
O37 C39 1.267 . S
C38 O30 1.249 . S
C38 O31 1.267 . S
C39 O36 1.249 . S
C39 O37 1.267 . S
Dy40 O44 2.398 . S
Dy40 O45 2.491 . S
Dy40 O46 2.403 . S
Dy40 O47 2.664 . S
Dy40 O51 2.326 . S
Dy40 O55 2.310 . S
Dy40 O56 2.351 . S
C41 O52 1.185 . S
C41 O53 1.355 . S
C42 O44 1.185 . S
C42 O45 1.355 . S
Dy43 O47 2.310 . S
Dy43 O50 2.351 . S
Dy43 O52 2.398 . S
Dy43 O53 2.491 . S
Dy43 O54 2.403 . S
Dy43 O55 2.664 . S
Dy43 O57 2.326 . S
O44 Dy40 2.398 . S
O44 C42 1.185 . S
O45 Dy40 2.491 . S
O45 C42 1.355 . S
O46 Dy40 2.403 . S
O46 C48 1.254 . S
O47 Dy40 2.664 . S
O47 Dy43 2.310 . S
O47 C48 1.268 . S
C48 O46 1.254 . S
C48 O47 1.268 . S
C49 O54 1.254 . S
C49 O55 1.268 . S
O50 Dy43 2.351 . S
O50 C58 1.249 . S
O51 Dy40 2.326 . S
O51 C58 1.267 . S
O52 C41 1.185 . S
O52 Dy43 2.398 . S
O53 C41 1.355 . S
O53 Dy43 2.491 . S
O54 Dy43 2.403 . S
O54 C49 1.254 . S
O55 Dy40 2.310 . S
O55 Dy43 2.664 . S
O55 C49 1.268 . S
O56 Dy40 2.351 . S
O56 C59 1.249 . S
O57 Dy43 2.326 . S
O57 C59 1.267 . S
C58 O50 1.249 . S
C58 O51 1.267 . S
C59 O56 1.249 . S
C59 O57 1.267 . S
Dy60 O64 2.398 . S
Dy60 O65 2.491 . S
Dy60 O66 2.403 . S
Dy60 O67 2.664 . S
Dy60 O71 2.326 . S
Dy60 O75 2.310 . S
Dy60 O76 2.351 . S
C61 O72 1.185 . S
C61 O73 1.355 . S
C62 O64 1.185 . S
C62 O65 1.355 . S
Dy63 O67 2.310 1_554 S
Dy63 O70 2.351 1_554 S
Dy63 O72 2.398 . S
Dy63 O73 2.491 . S
Dy63 O74 2.403 1_554 S
Dy63 O75 2.664 1_554 S
Dy63 O77 2.326 1_554 S
O64 Dy60 2.398 . S
O64 C62 1.185 . S
O65 Dy60 2.491 . S
O65 C62 1.355 . S
O66 Dy60 2.403 . S
O66 C68 1.254 . S
O67 Dy60 2.664 . S
O67 Dy63 2.310 1_556 S
O67 C68 1.268 . S
C68 O66 1.254 . S
C68 O67 1.268 . S
C69 O74 1.254 . S
C69 O75 1.268 . S
O70 Dy63 2.351 1_556 S
O70 C78 1.249 . S
O71 Dy60 2.326 . S
O71 C78 1.267 . S
O72 C61 1.185 . S
O72 Dy63 2.398 . S
O73 C61 1.355 . S
O73 Dy63 2.491 . S
O74 Dy63 2.403 1_556 S
O74 C69 1.254 . S
O75 Dy60 2.310 . S
O75 Dy63 2.664 1_556 S
O75 C69 1.268 . S
O76 Dy60 2.351 . S
O76 C79 1.249 . S
O77 Dy63 2.326 1_556 S
O77 C79 1.267 . S
C78 O70 1.249 . S
C78 O71 1.267 . S
C79 O76 1.249 . S
C79 O77 1.267 . S
Dy80 O84 2.390 1_556 S
Dy80 O85 2.485 1_556 S
Dy80 O86 2.405 . S
Dy80 O87 2.672 . S
Dy80 O91 2.327 . S
Dy80 O95 2.315 . S
Dy80 O96 2.357 . S
C81 O92 1.185 . S
C81 O93 1.355 . S
C82 O84 1.185 . S
C82 O85 1.355 . S
Dy83 O87 2.310 . S
Dy83 O90 2.351 . S
Dy83 O92 2.398 . S
Dy83 O93 2.491 . S
Dy83 O94 2.403 . S
Dy83 O95 2.664 . S
Dy83 O97 2.326 . S
O84 Dy80 2.390 1_554 S
O84 C82 1.185 . S
O85 Dy80 2.485 1_554 S
O85 C82 1.355 . S
O86 Dy80 2.405 . S
O86 C88 1.254 . S
O87 Dy80 2.672 . S
O87 Dy83 2.310 . S
O87 C88 1.268 . S
C88 O86 1.254 . S
C88 O87 1.268 . S
C89 O94 1.254 . S
C89 O95 1.268 . S
O90 Dy83 2.351 . S
O90 C98 1.249 . S
O91 Dy80 2.327 . S
O91 C98 1.267 . S
O92 C81 1.185 . S
O92 Dy83 2.398 . S
O93 C81 1.355 . S
O93 Dy83 2.491 . S
O94 Dy83 2.403 . S
O94 C89 1.254 . S
O95 Dy80 2.315 . S
O95 Dy83 2.664 . S
O95 C89 1.268 . S
O96 Dy80 2.357 . S
O96 C99 1.249 . S
O97 Dy83 2.326 . S
O97 C99 1.267 . S
C98 O90 1.249 . S
C98 O91 1.267 . S
C99 O96 1.249 . S
C99 O97 1.267 . S
Dy100 O104 2.398 . S
Dy100 O105 2.491 . S
Dy100 O106 2.403 . S
Dy100 O107 2.664 . S
Dy100 O111 2.326 . S
Dy100 O115 2.310 . S
Dy100 O116 2.351 . S
C101 O112 1.185 . S
C101 O113 1.355 . S
C102 O104 1.185 . S
C102 O105 1.355 . S
Dy103 O107 2.310 1_556 S
Dy103 O110 2.351 1_556 S
Dy103 O112 2.398 . S
Dy103 O113 2.491 . S
Dy103 O114 2.403 1_556 S
Dy103 O115 2.664 1_556 S
Dy103 O117 2.326 1_556 S
O104 Dy100 2.398 . S
O104 C102 1.185 . S
O105 Dy100 2.491 . S
O105 C102 1.355 . S
O106 Dy100 2.403 . S
O106 C108 1.254 . S
O107 Dy100 2.664 . S
O107 Dy103 2.310 1_554 S
O107 C108 1.268 . S
C108 O106 1.254 . S
C108 O107 1.268 . S
C109 O114 1.254 . S
C109 O115 1.268 . S
O110 Dy103 2.351 1_554 S
O110 C118 1.249 . S
O111 Dy100 2.326 . S
O111 C118 1.267 . S
O112 C101 1.185 . S
O112 Dy103 2.398 . S
O113 C101 1.355 . S
O113 Dy103 2.491 . S
O114 Dy103 2.403 1_554 S
O114 C109 1.254 . S
O115 Dy100 2.310 . S
O115 Dy103 2.664 1_554 S
O115 C109 1.268 . S
O116 Dy100 2.351 . S
O116 C119 1.249 . S
O117 Dy103 2.326 1_554 S
O117 C119 1.267 . S
C118 O110 1.249 . S
C118 O111 1.267 . S
C119 O116 1.249 . S
C119 O117 1.267 . S
Dy120 O124 2.398 . S
Dy120 O125 2.491 . S
Dy120 O126 2.403 . S
Dy120 O127 2.664 . S
Dy120 O131 2.326 . S
Dy120 O135 2.310 . S
Dy120 O136 2.351 . S
C121 O132 1.185 . S
C121 O133 1.355 . S
C122 O124 1.185 . S
C122 O125 1.355 . S
Dy123 O127 2.310 . S
Dy123 O130 2.351 . S
Dy123 O132 2.398 . S
Dy123 O133 2.491 . S
Dy123 O134 2.403 . S
Dy123 O135 2.664 . S
Dy123 O137 2.326 . S
O124 Dy120 2.398 . S
O124 C122 1.185 . S
O125 Dy120 2.491 . S
O125 C122 1.355 . S
O126 Dy120 2.403 . S
O126 C128 1.254 . S
O127 Dy120 2.664 . S
O127 Dy123 2.310 . S
O127 C128 1.268 . S
C128 O126 1.254 . S
C128 O127 1.268 . S
C129 O134 1.254 . S
C129 O135 1.268 . S
O130 Dy123 2.351 . S
O130 C138 1.249 . S
O131 Dy120 2.326 . S
O131 C138 1.267 . S
O132 C121 1.185 . S
O132 Dy123 2.398 . S
O133 C121 1.355 . S
O133 Dy123 2.491 . S
O134 Dy123 2.403 . S
O134 C129 1.254 . S
O135 Dy120 2.310 . S
O135 Dy123 2.664 . S
O135 C129 1.268 . S
O136 Dy120 2.351 . S
O136 C139 1.249 . S
O137 Dy123 2.326 . S
O137 C139 1.267 . S
C138 O130 1.249 . S
C138 O131 1.267 . S
C139 O136 1.249 . S
C139 O137 1.267 . S
Dy140 O144 2.398 . S
Dy140 O145 2.491 . S
Dy140 O146 2.403 . S
Dy140 O147 2.664 . S
Dy140 O151 2.326 . S
Dy140 O155 2.310 . S
Dy140 O156 2.351 . S
C141 O152 1.185 . S
C141 O153 1.355 . S
C142 O144 1.185 . S
C142 O145 1.355 . S
Dy143 O147 2.310 . S
Dy143 O150 2.351 . S
Dy143 O152 2.398 . S
Dy143 O153 2.491 . S
Dy143 O154 2.403 . S
Dy143 O155 2.664 . S
Dy143 O157 2.326 . S
O144 Dy140 2.398 . S
O144 C142 1.185 . S
O145 Dy140 2.491 . S
O145 C142 1.355 . S
O146 Dy140 2.403 . S
O146 C148 1.254 . S
O147 Dy140 2.664 . S
O147 Dy143 2.310 . S
O147 C148 1.268 . S
C148 O146 1.254 . S
C148 O147 1.268 . S
C149 O154 1.254 . S
C149 O155 1.268 . S
O150 Dy143 2.351 . S
O150 C158 1.249 . S
O151 Dy140 2.326 . S
O151 C158 1.267 . S
O152 C141 1.185 . S
O152 Dy143 2.398 . S
O153 C141 1.355 . S
O153 Dy143 2.491 . S
O154 Dy143 2.403 . S
O154 C149 1.254 . S
O155 Dy140 2.310 . S
O155 Dy143 2.664 . S
O155 C149 1.268 . S
O156 Dy140 2.351 . S
O156 C159 1.249 . S
O157 Dy143 2.326 . S
O157 C159 1.267 . S
C158 O150 1.249 . S
C158 O151 1.267 . S
C159 O156 1.249 . S
C159 O157 1.267 . S
Dy160 O164 2.398 . S
Dy160 O165 2.491 . S
Dy160 O166 2.403 . S
Dy160 O167 2.664 . S
Dy160 O171 2.326 . S
Dy160 O175 2.310 . S
Dy160 O176 2.351 . S
C161 O172 1.185 . S
C161 O173 1.355 . S
C162 O164 1.185 . S
C162 O165 1.355 . S
Dy163 O167 2.315 . S
Dy163 O170 2.357 . S
Dy163 O172 2.390 1_556 S
Dy163 O173 2.485 1_556 S
Dy163 O174 2.404 . S
Dy163 O175 2.672 . S
Dy163 O177 2.327 . S
O164 Dy160 2.398 . S
O164 C162 1.185 . S
O165 Dy160 2.491 . S
O165 C162 1.355 . S
O166 Dy160 2.403 . S
O166 C168 1.254 . S
O167 Dy160 2.664 . S
O167 Dy163 2.315 . S
O167 C168 1.268 . S
C168 O166 1.254 . S
C168 O167 1.268 . S
C169 O174 1.254 . S
C169 O175 1.268 . S
O170 Dy163 2.357 . S
O170 C178 1.249 . S
O171 Dy160 2.326 . S
O171 C178 1.267 . S
O172 C161 1.185 . S
O172 Dy163 2.390 1_554 S
O173 C161 1.355 . S
O173 Dy163 2.485 1_554 S
O174 Dy163 2.404 . S
O174 C169 1.254 . S
O175 Dy160 2.310 . S
O175 Dy163 2.672 . S
O175 C169 1.268 . S
O176 Dy160 2.351 . S
O176 C179 1.249 . S
O177 Dy163 2.327 . S
O177 C179 1.267 . S
C178 O170 1.249 . S
C178 O171 1.267 . S
C179 O176 1.249 . S
C179 O177 1.267 . S
Dy180 O184 2.398 . S
Dy180 O185 2.491 . S
Dy180 O186 2.403 . S
Dy180 O187 2.664 . S
Dy180 O191 2.326 . S
Dy180 O195 2.310 . S
Dy180 O196 2.351 . S
C181 O192 1.185 . S
C181 O193 1.355 . S
C182 O184 1.185 . S
C182 O185 1.355 . S
Dy183 O187 2.310 . S
Dy183 O190 2.351 . S
Dy183 O192 2.398 . S
Dy183 O193 2.491 . S
Dy183 O194 2.403 . S
Dy183 O195 2.664 . S
Dy183 O197 2.326 . S
O184 Dy180 2.398 . S
O184 C182 1.185 . S
O185 Dy180 2.491 . S
O185 C182 1.355 . S
O186 Dy180 2.403 . S
O186 C188 1.254 . S
O187 Dy180 2.664 . S
O187 Dy183 2.310 . S
O187 C188 1.268 . S
C188 O186 1.254 . S
C188 O187 1.268 . S
C189 O194 1.254 . S
C189 O195 1.268 . S
O190 Dy183 2.351 . S
O190 C198 1.249 . S
O191 Dy180 2.326 . S
O191 C198 1.267 . S
O192 C181 1.185 . S
O192 Dy183 2.398 . S
O193 C181 1.355 . S
O193 Dy183 2.491 . S
O194 Dy183 2.403 . S
O194 C189 1.254 . S
O195 Dy180 2.310 . S
O195 Dy183 2.664 . S
O195 C189 1.268 . S
O196 Dy180 2.351 . S
O196 C199 1.249 . S
O197 Dy183 2.326 . S
O197 C199 1.267 . S
C198 O190 1.249 . S
C198 O191 1.267 . S
C199 O196 1.249 . S
C199 O197 1.267 . S
Dy200 O204 2.398 . S
Dy200 O205 2.491 . S
Dy200 O206 2.403 . S
Dy200 O207 2.664 . S
Dy200 O211 2.326 . S
Dy200 O215 2.310 . S
Dy200 O216 2.351 . S
C201 O212 1.185 . S
C201 O213 1.355 . S
C202 O204 1.185 . S
C202 O205 1.355 . S
Dy203 O207 2.310 . S
Dy203 O210 2.351 . S
Dy203 O212 2.398 . S
Dy203 O213 2.491 . S
Dy203 O214 2.403 . S
Dy203 O215 2.664 . S
Dy203 O217 2.326 . S
O204 Dy200 2.398 . S
O204 C202 1.185 . S
O205 Dy200 2.491 . S
O205 C202 1.355 . S
O206 Dy200 2.403 . S
O206 C208 1.254 . S
O207 Dy200 2.664 . S
O207 Dy203 2.310 . S
O207 C208 1.268 . S
C208 O206 1.254 . S
C208 O207 1.268 . S
C209 O214 1.254 . S
C209 O215 1.268 . S
O210 Dy203 2.351 . S
O210 C218 1.249 . S
O211 Dy200 2.326 . S
O211 C218 1.267 . S
O212 C201 1.185 . S
O212 Dy203 2.398 . S
O213 C201 1.355 . S
O213 Dy203 2.491 . S
O214 Dy203 2.403 . S
O214 C209 1.254 . S
O215 Dy200 2.310 . S
O215 Dy203 2.664 . S
O215 C209 1.268 . S
O216 Dy200 2.351 . S
O216 C219 1.249 . S
O217 Dy203 2.326 . S
O217 C219 1.267 . S
C218 O210 1.249 . S
C218 O211 1.267 . S
C219 O216 1.249 . S
C219 O217 1.267 . S
Dy220 O224 2.398 . S
Dy220 O225 2.491 . S
Dy220 O226 2.403 1_556 S
Dy220 O227 2.664 1_556 S
Dy220 O231 2.326 1_556 S
Dy220 O235 2.310 1_556 S
Dy220 O236 2.351 1_556 S
C221 O232 1.185 . S
C221 O233 1.355 . S
C222 O224 1.185 . S
C222 O225 1.355 . S
Dy223 O227 2.310 . S
Dy223 O230 2.351 . S
Dy223 O232 2.398 . S
Dy223 O233 2.491 . S
Dy223 O234 2.403 . S
Dy223 O235 2.664 . S
Dy223 O237 2.326 . S
O224 Dy220 2.398 . S
O224 C222 1.185 . S
O225 Dy220 2.491 . S
O225 C222 1.355 . S
O226 Dy220 2.403 1_554 S
O226 C228 1.254 . S
O227 Dy220 2.664 1_554 S
O227 Dy223 2.310 . S
O227 C228 1.268 . S
C228 O226 1.254 . S
C228 O227 1.268 . S
C229 O234 1.254 . S
C229 O235 1.268 . S
O230 Dy223 2.351 . S
O230 C238 1.249 . S
O231 Dy220 2.326 1_554 S
O231 C238 1.267 . S
O232 C221 1.185 . S
O232 Dy223 2.398 . S
O233 C221 1.355 . S
O233 Dy223 2.491 . S
O234 Dy223 2.403 . S
O234 C229 1.254 . S
O235 Dy220 2.310 1_554 S
O235 Dy223 2.664 . S
O235 C229 1.268 . S
O236 Dy220 2.351 1_554 S
O236 C239 1.249 . S
O237 Dy223 2.326 . S
O237 C239 1.267 . S
C238 O230 1.249 . S
C238 O231 1.267 . S
C239 O236 1.249 . S
C239 O237 1.267 . S
Dy240 O244 2.398 . S
Dy240 O245 2.491 . S
Dy240 O246 2.403 . S
Dy240 O247 2.664 . S
Dy240 O251 2.326 . S
Dy240 O255 2.310 . S
Dy240 O256 2.351 . S
C241 O252 1.185 . S
C241 O253 1.355 . S
C242 O244 1.185 . S
C242 O245 1.355 . S
Dy243 O247 2.315 . S
Dy243 O250 2.357 . S
Dy243 O252 2.390 1_554 S
Dy243 O253 2.485 1_554 S
Dy243 O254 2.404 . S
Dy243 O255 2.672 . S
Dy243 O257 2.327 . S
O244 Dy240 2.398 . S
O244 C242 1.185 . S
O245 Dy240 2.491 . S
O245 C242 1.355 . S
O246 Dy240 2.403 . S
O246 C248 1.254 . S
O247 Dy240 2.664 . S
O247 Dy243 2.315 . S
O247 C248 1.268 . S
C248 O246 1.254 . S
C248 O247 1.268 . S
C249 O254 1.254 . S
C249 O255 1.268 . S
O250 Dy243 2.357 . S
O250 C258 1.249 . S
O251 Dy240 2.326 . S
O251 C258 1.267 . S
O252 C241 1.185 . S
O252 Dy243 2.390 1_556 S
O253 C241 1.355 . S
O253 Dy243 2.485 1_556 S
O254 Dy243 2.404 . S
O254 C249 1.254 . S
O255 Dy240 2.310 . S
O255 Dy243 2.672 . S
O255 C249 1.268 . S
O256 Dy240 2.351 . S
O256 C259 1.249 . S
O257 Dy243 2.327 . S
O257 C259 1.267 . S
C258 O250 1.249 . S
C258 O251 1.267 . S
C259 O256 1.249 . S
C259 O257 1.267 . S
Dy260 O264 2.398 . S
Dy260 O265 2.491 . S
Dy260 O266 2.403 1_554 S
Dy260 O267 2.664 1_554 S
Dy260 O271 2.326 1_554 S
Dy260 O275 2.310 1_554 S
Dy260 O276 2.351 1_554 S
C261 O272 1.185 . S
C261 O273 1.355 . S
C262 O264 1.185 . S
C262 O265 1.355 . S
Dy263 O267 2.310 . S
Dy263 O270 2.351 . S
Dy263 O272 2.398 . S
Dy263 O273 2.491 . S
Dy263 O274 2.403 . S
Dy263 O275 2.664 . S
Dy263 O277 2.326 . S
O264 Dy260 2.398 . S
O264 C262 1.185 . S
O265 Dy260 2.491 . S
O265 C262 1.355 . S
O266 Dy260 2.403 1_556 S
O266 C268 1.254 . S
O267 Dy260 2.664 1_556 S
O267 Dy263 2.310 . S
O267 C268 1.268 . S
C268 O266 1.254 . S
C268 O267 1.268 . S
C269 O274 1.254 . S
C269 O275 1.268 . S
O270 Dy263 2.351 . S
O270 C278 1.249 . S
O271 Dy260 2.326 1_556 S
O271 C278 1.267 . S
O272 C261 1.185 . S
O272 Dy263 2.398 . S
O273 C261 1.355 . S
O273 Dy263 2.491 . S
O274 Dy263 2.403 . S
O274 C269 1.254 . S
O275 Dy260 2.310 1_556 S
O275 Dy263 2.664 . S
O275 C269 1.268 . S
O276 Dy260 2.351 1_556 S
O276 C279 1.249 . S
O277 Dy263 2.326 . S
O277 C279 1.267 . S
C278 O270 1.249 . S
C278 O271 1.267 . S
C279 O276 1.249 . S
C279 O277 1.267 . S
Dy280 O284 2.398 . S
Dy280 O285 2.491 . S
Dy280 O286 2.403 . S
Dy280 O287 2.664 . S
Dy280 O291 2.326 . S
Dy280 O295 2.310 . S
Dy280 O296 2.351 . S
C281 O292 1.185 . S
C281 O293 1.355 . S
C282 O284 1.185 . S
C282 O285 1.355 . S
Dy283 O287 2.310 . S
Dy283 O290 2.351 . S
Dy283 O292 2.398 . S
Dy283 O293 2.491 . S
Dy283 O294 2.403 . S
Dy283 O295 2.664 . S
Dy283 O297 2.326 . S
O284 Dy280 2.398 . S
O284 C282 1.185 . S
O285 Dy280 2.491 . S
O285 C282 1.355 . S
O286 Dy280 2.403 . S
O286 C288 1.254 . S
O287 Dy280 2.664 . S
O287 Dy283 2.310 . S
O287 C288 1.268 . S
C288 O286 1.254 . S
C288 O287 1.268 . S
C289 O294 1.254 . S
C289 O295 1.268 . S
O290 Dy283 2.351 . S
O290 C298 1.249 . S
O291 Dy280 2.326 . S
O291 C298 1.267 . S
O292 C281 1.185 . S
O292 Dy283 2.398 . S
O293 C281 1.355 . S
O293 Dy283 2.491 . S
O294 Dy283 2.403 . S
O294 C289 1.254 . S
O295 Dy280 2.310 . S
O295 Dy283 2.664 . S
O295 C289 1.268 . S
O296 Dy280 2.351 . S
O296 C299 1.249 . S
O297 Dy283 2.326 . S
O297 C299 1.267 . S
C298 O290 1.249 . S
C298 O291 1.267 . S
C299 O296 1.249 . S
C299 O297 1.267 . S
Dy300 O304 2.398 . S
Dy300 O305 2.491 . S
Dy300 O306 2.403 . S
Dy300 O307 2.664 . S
Dy300 O311 2.326 . S
Dy300 O315 2.310 . S
Dy300 O316 2.351 . S
C301 O312 1.185 . S
C301 O313 1.355 . S
C302 O304 1.185 . S
C302 O305 1.355 . S
Dy303 O307 2.310 . S
Dy303 O310 2.351 . S
Dy303 O312 2.398 . S
Dy303 O313 2.491 . S
Dy303 O314 2.403 . S
Dy303 O315 2.664 . S
Dy303 O317 2.326 . S
O304 Dy300 2.398 . S
O304 C302 1.185 . S
O305 Dy300 2.491 . S
O305 C302 1.355 . S
O306 Dy300 2.403 . S
O306 C308 1.254 . S
O307 Dy300 2.664 . S
O307 Dy303 2.310 . S
O307 C308 1.268 . S
C308 O306 1.254 . S
C308 O307 1.268 . S
C309 O314 1.254 . S
C309 O315 1.268 . S
O310 Dy303 2.351 . S
O310 C318 1.249 . S
O311 Dy300 2.326 . S
O311 C318 1.267 . S
O312 C301 1.185 . S
O312 Dy303 2.398 . S
O313 C301 1.355 . S
O313 Dy303 2.491 . S
O314 Dy303 2.403 . S
O314 C309 1.254 . S
O315 Dy300 2.310 . S
O315 Dy303 2.664 . S
O315 C309 1.268 . S
O316 Dy300 2.351 . S
O316 C319 1.249 . S
O317 Dy303 2.326 . S
O317 C319 1.267 . S
C318 O310 1.249 . S
C318 O311 1.267 . S
C319 O316 1.249 . S
C319 O317 1.267 . S
C320 C321 1.369 . S
C320 C322 1.419 . S
C320 H324 0.930 . S
C321 C320 1.369 . S
C321 C330 1.429 . S
C322 C320 1.419 . S
C322 C323 1.363 . S
C322 H325 0.929 . S
C323 C322 1.363 . S
C323 C329 1.428 . S
H324 C320 0.930 . S
H325 C322 0.929 . S
S326 N327 1.613 . S
S326 N328 1.610 . S
N327 S326 1.613 . S
N327 C330 1.350 . S
N328 S326 1.610 . S
N328 C329 1.351 . S
C329 C323 1.428 . S
C329 N328 1.351 . S
C329 C330 1.434 . S
C330 C321 1.429 . S
C330 N327 1.350 . S
C330 C329 1.434 . S
C331 C332 1.369 . S
C331 C333 1.419 . S
C331 H335 0.930 . S
C332 C331 1.369 . S
C332 C341 1.429 . S
C333 C331 1.419 . S
C333 C334 1.363 . S
C333 H336 0.929 . S
C334 C333 1.363 . S
C334 C340 1.428 . S
H335 C331 0.930 . S
H336 C333 0.929 . S
S337 N338 1.613 . S
S337 N339 1.610 . S
N338 S337 1.613 . S
N338 C341 1.350 . S
N339 S337 1.610 . S
N339 C340 1.351 . S
C340 C334 1.428 . S
C340 N339 1.351 . S
C340 C341 1.434 . S
C341 C332 1.429 . S
C341 N338 1.350 . S
C341 C340 1.434 . S
C342 C343 1.369 . S
C342 C344 1.419 . S
C342 H346 0.930 . S
C343 C342 1.369 . S
C343 C352 1.429 . S
C344 C342 1.419 . S
C344 C345 1.363 . S
C344 H347 0.929 . S
C345 C344 1.363 . S
C345 C351 1.428 . S
H346 C342 0.930 . S
H347 C344 0.929 . S
S348 N349 1.613 . S
S348 N350 1.610 . S
N349 S348 1.613 . S
N349 C352 1.350 . S
N350 S348 1.610 . S
N350 C351 1.351 . S
C351 C345 1.428 . S
C351 N350 1.351 . S
C351 C352 1.434 . S
C352 C343 1.429 . S
C352 N349 1.350 . S
C352 C351 1.434 . S
C353 C354 1.369 . S
C353 C355 1.419 . S
C353 H357 0.930 . S
C354 C353 1.369 . S
C354 C363 1.429 . S
C355 C353 1.419 . S
C355 C356 1.363 . S
C355 H358 0.929 . S
C356 C355 1.363 . S
C356 C362 1.428 . S
H357 C353 0.930 . S
H358 C355 0.929 . S
S359 N360 1.613 . S
S359 N361 1.610 . S
N360 S359 1.613 . S
N360 C363 1.350 . S
N361 S359 1.610 . S
N361 C362 1.351 . S
C362 C356 1.428 . S
C362 N361 1.351 . S
C362 C363 1.434 . S
C363 C354 1.429 . S
C363 N360 1.350 . S
C363 C362 1.434 . S
C364 C365 1.369 . S
C364 C366 1.419 . S
C364 H368 0.930 . S
C365 C364 1.369 . S
C365 C374 1.429 . S
C366 C364 1.419 . S
C366 C367 1.363 . S
C366 H369 0.929 . S
C367 C366 1.363 . S
C367 C373 1.428 . S
H368 C364 0.930 . S
H369 C366 0.929 . S
S370 N371 1.613 . S
S370 N372 1.610 . S
N371 S370 1.613 . S
N371 C374 1.350 . S
N372 S370 1.610 . S
N372 C373 1.351 . S
C373 C367 1.428 . S
C373 N372 1.351 . S
C373 C374 1.434 . S
C374 C365 1.429 . S
C374 N371 1.350 . S
C374 C373 1.434 . S
C375 C376 1.369 . S
C375 C377 1.419 . S
C375 H379 0.930 . S
C376 C375 1.369 . S
C376 C385 1.429 . S
C377 C375 1.419 . S
C377 C378 1.363 . S
C377 H380 0.929 . S
C378 C377 1.363 . S
C378 C384 1.428 . S
H379 C375 0.930 . S
H380 C377 0.929 . S
S381 N382 1.613 . S
S381 N383 1.610 . S
N382 S381 1.613 . S
N382 C385 1.350 . S
N383 S381 1.610 . S
N383 C384 1.351 . S
C384 C378 1.428 . S
C384 N383 1.351 . S
C384 C385 1.434 . S
C385 C376 1.429 . S
C385 N382 1.350 . S
C385 C384 1.434 . S
C386 C387 1.369 . S
C386 C388 1.419 . S
C386 H390 0.930 . S
C387 C386 1.369 . S
C387 C396 1.429 . S
C388 C386 1.419 . S
C388 C389 1.363 . S
C388 H391 0.929 . S
C389 C388 1.363 . S
C389 C395 1.428 . S
H390 C386 0.930 . S
H391 C388 0.929 . S
S392 N393 1.613 . S
S392 N394 1.610 . S
N393 S392 1.613 . S
N393 C396 1.350 . S
N394 S392 1.610 . S
N394 C395 1.351 . S
C395 C389 1.428 . S
C395 N394 1.351 . S
C395 C396 1.434 . S
C396 C387 1.429 . S
C396 N393 1.350 . S
C396 C395 1.434 . S
C397 C398 1.369 . S
C397 C399 1.419 . S
C397 H401 0.930 . S
C398 C397 1.369 . S
C398 C407 1.429 . S
C399 C397 1.419 . S
C399 C400 1.363 . S
C399 H402 0.929 . S
C400 C399 1.363 . S
C400 C406 1.428 . S
H401 C397 0.930 . S
H402 C399 0.929 . S
S403 N404 1.613 . S
S403 N405 1.610 . S
N404 S403 1.613 . S
N404 C407 1.350 . S
N405 S403 1.610 . S
N405 C406 1.351 . S
C406 C400 1.428 . S
C406 N405 1.351 . S
C406 C407 1.434 . S
C407 C398 1.429 . S
C407 N404 1.350 . S
C407 C406 1.434 . S
C408 C409 1.369 . S
C408 C410 1.419 . S
C408 H412 0.930 . S
C409 C408 1.369 . S
C409 C418 1.429 . S
C410 C408 1.419 . S
C410 C411 1.363 . S
C410 H413 0.929 . S
C411 C410 1.363 . S
C411 C417 1.428 . S
H412 C408 0.930 . S
H413 C410 0.929 . S
S414 N415 1.613 . S
S414 N416 1.610 . S
N415 S414 1.613 . S
N415 C418 1.350 . S
N416 S414 1.610 . S
N416 C417 1.351 . S
C417 C411 1.428 . S
C417 N416 1.351 . S
C417 C418 1.434 . S
C418 C409 1.429 . S
C418 N415 1.350 . S
C418 C417 1.434 . S
C419 C420 1.369 . S
C419 C421 1.419 . S
C419 H423 0.930 . S
C420 C419 1.369 . S
C420 C429 1.429 . S
C421 C419 1.419 . S
C421 C422 1.363 . S
C421 H424 0.929 1_554 S
C422 C421 1.363 . S
C422 C428 1.428 . S
H423 C419 0.930 . S
H424 C421 0.929 1_556 S
S425 N426 1.613 . S
S425 N427 1.610 . S
N426 S425 1.613 . S
N426 C429 1.350 . S
N427 S425 1.610 . S
N427 C428 1.351 . S
C428 C422 1.428 . S
C428 N427 1.351 . S
C428 C429 1.434 . S
C429 C420 1.429 . S
C429 N426 1.350 . S
C429 C428 1.434 . S
C430 C431 1.369 . S
C430 C432 1.419 . S
C430 H434 0.930 . S
C431 C430 1.369 . S
C431 C440 1.429 . S
C432 C430 1.419 . S
C432 C433 1.363 . S
C432 H435 0.929 . S
C433 C432 1.363 . S
C433 C439 1.428 . S
H434 C430 0.930 . S
H435 C432 0.929 . S
S436 N437 1.613 . S
S436 N438 1.610 . S
N437 S436 1.613 . S
N437 C440 1.350 . S
N438 S436 1.610 . S
N438 C439 1.351 . S
C439 C433 1.428 . S
C439 N438 1.351 . S
C439 C440 1.434 . S
C440 C431 1.429 . S
C440 N437 1.350 . S
C440 C439 1.434 . S
C441 C442 1.369 . S
C441 C443 1.419 . S
C441 H445 0.930 . S
C442 C441 1.369 . S
C442 C451 1.429 . S
C443 C441 1.419 . S
C443 C444 1.363 . S
C443 H446 0.929 . S
C444 C443 1.363 . S
C444 C450 1.428 . S
H445 C441 0.930 . S
H446 C443 0.929 . S
S447 N448 1.613 . S
S447 N449 1.610 . S
N448 S447 1.613 . S
N448 C451 1.350 . S
N449 S447 1.610 . S
N449 C450 1.351 . S
C450 C444 1.428 . S
C450 N449 1.351 . S
C450 C451 1.434 . S
C451 C442 1.429 . S
C451 N448 1.350 . S
C451 C450 1.434 . S
C452 C453 1.369 . S
C452 C454 1.419 . S
C452 H456 0.930 . S
C453 C452 1.369 . S
C453 C462 1.429 . S
C454 C452 1.419 . S
C454 C455 1.363 . S
C454 H457 0.929 . S
C455 C454 1.363 . S
C455 C461 1.428 . S
H456 C452 0.930 . S
H457 C454 0.929 . S
S458 N459 1.613 . S
S458 N460 1.610 . S
N459 S458 1.613 . S
N459 C462 1.350 . S
N460 S458 1.610 . S
N460 C461 1.351 . S
C461 C455 1.428 . S
C461 N460 1.351 . S
C461 C462 1.434 . S
C462 C453 1.429 . S
C462 N459 1.350 . S
C462 C461 1.434 . S
C463 C464 1.369 . S
C463 C465 1.419 . S
C463 H467 0.930 . S
C464 C463 1.369 . S
C464 C473 1.429 . S
C465 C463 1.419 . S
C465 C466 1.363 . S
C465 H468 0.929 . S
C466 C465 1.363 . S
C466 C472 1.428 . S
H467 C463 0.930 . S
H468 C465 0.929 . S
S469 N470 1.613 . S
S469 N471 1.610 . S
N470 S469 1.613 . S
N470 C473 1.350 . S
N471 S469 1.610 . S
N471 C472 1.351 . S
C472 C466 1.428 . S
C472 N471 1.351 . S
C472 C473 1.434 . S
C473 C464 1.429 . S
C473 N470 1.350 . S
C473 C472 1.434 . S
C474 C475 1.369 . S
C474 C476 1.419 . S
C474 H478 0.930 . S
C475 C474 1.369 . S
C475 C484 1.429 . S
C476 C474 1.419 . S
C476 C477 1.363 . S
C476 H479 0.929 . S
C477 C476 1.363 . S
C477 C483 1.428 . S
H478 C474 0.930 . S
H479 C476 0.929 . S
S480 N481 1.613 . S
S480 N482 1.610 . S
N481 S480 1.613 . S
N481 C484 1.350 . S
N482 S480 1.610 . S
N482 C483 1.351 . S
C483 C477 1.428 . S
C483 N482 1.351 . S
C483 C484 1.434 . S
C484 C475 1.429 . S
C484 N481 1.350 . S
C484 C483 1.434 . S
C485 C486 1.369 . S
C485 C487 1.419 . S
C485 H489 0.930 . S
C486 C485 1.369 . S
C486 C495 1.429 . S
C487 C485 1.419 . S
C487 C488 1.363 . S
C487 H490 0.929 . S
C488 C487 1.363 . S
C488 C494 1.428 . S
H489 C485 0.930 . S
H490 C487 0.929 . S
S491 N492 1.613 . S
S491 N493 1.610 . S
N492 S491 1.613 . S
N492 C495 1.350 . S
N493 S491 1.610 . S
N493 C494 1.351 . S
C494 C488 1.428 . S
C494 N493 1.351 . S
C494 C495 1.434 . S
C495 C486 1.429 . S
C495 N492 1.350 . S
C495 C494 1.434 . S
C496 C497 1.369 . S
C496 C498 1.419 . S
C496 H500 0.930 . S
C497 C496 1.369 . S
C497 C506 1.429 . S
C498 C496 1.419 . S
C498 C499 1.363 . S
C498 H501 0.929 . S
C499 C498 1.363 . S
C499 C505 1.428 . S
H500 C496 0.930 . S
H501 C498 0.929 . S
S502 N503 1.613 . S
S502 N504 1.610 . S
N503 S502 1.613 . S
N503 C506 1.350 . S
N504 S502 1.610 . S
N504 C505 1.351 . S
C505 C499 1.428 . S
C505 N504 1.351 . S
C505 C506 1.434 . S
C506 C497 1.429 . S
C506 N503 1.350 . S
C506 C505 1.434 . S
C507 C508 1.369 . S
C507 C509 1.419 . S
C507 H511 0.930 . S
C508 C507 1.369 . S
C508 C517 1.429 . S
C509 C507 1.419 . S
C509 C510 1.363 . S
C509 H512 0.929 . S
C510 C509 1.363 . S
C510 C516 1.428 . S
H511 C507 0.930 . S
H512 C509 0.929 . S
S513 N514 1.613 . S
S513 N515 1.610 . S
N514 S513 1.613 . S
N514 C517 1.350 . S
N515 S513 1.610 . S
N515 C516 1.351 . S
C516 C510 1.428 . S
C516 N515 1.351 . S
C516 C517 1.434 . S
C517 C508 1.429 . S
C517 N514 1.350 . S
C517 C516 1.434 . S
C518 C519 1.369 . S
C518 C520 1.419 . S
C518 H522 0.930 . S
C519 C518 1.369 . S
C519 C528 1.429 . S
C520 C518 1.419 . S
C520 C521 1.363 . S
C520 H523 0.929 . S
C521 C520 1.363 . S
C521 C527 1.428 . S
H522 C518 0.930 . S
H523 C520 0.929 . S
S524 N525 1.613 . S
S524 N526 1.610 . S
N525 S524 1.613 . S
N525 C528 1.350 . S
N526 S524 1.610 . S
N526 C527 1.351 . S
C527 C521 1.428 . S
C527 N526 1.351 . S
C527 C528 1.434 . S
C528 C519 1.429 . S
C528 N525 1.350 . S
C528 C527 1.434 . S
C529 C530 1.369 . S
C529 C531 1.419 1_655 S
C529 H533 0.930 . S
C530 C529 1.369 . S
C530 C539 1.429 . S
C531 C529 1.419 1_455 S
C531 C532 1.363 . S
C531 H534 0.929 . S
C532 C531 1.363 . S
C532 C538 1.428 . S
H533 C529 0.930 . S
H534 C531 0.929 . S
S535 N536 1.616 1_455 S
S535 N537 1.608 . S
N536 S535 1.616 1_655 S
N536 C539 1.350 . S
N537 S535 1.608 . S
N537 C538 1.351 . S
C538 C532 1.428 . S
C538 N537 1.351 . S
C538 C539 1.434 1_455 S
C539 C530 1.429 . S
C539 N536 1.350 . S
C539 C538 1.434 1_655 S
C540 C541 1.369 . S
C540 C542 1.419 . S
C540 H544 0.930 . S
C541 C540 1.369 . S
C541 C550 1.429 . S
C542 C540 1.419 . S
C542 C543 1.363 . S
C542 H545 0.929 . S
C543 C542 1.363 . S
C543 C549 1.428 . S
H544 C540 0.930 . S
H545 C542 0.929 . S
S546 N547 1.613 1_554 S
S546 N548 1.610 1_554 S
N547 S546 1.613 1_556 S
N547 C550 1.350 . S
N548 S546 1.610 1_556 S
N548 C549 1.351 . S
C549 C543 1.428 . S
C549 N548 1.351 . S
C549 C550 1.434 . S
C550 C541 1.429 . S
C550 N547 1.350 . S
C550 C549 1.434 . S
C551 C552 1.369 . S
C551 C553 1.419 1_455 S
C551 H555 0.930 . S
C552 C551 1.369 . S
C552 C561 1.429 . S
C553 C551 1.419 1_655 S
C553 C554 1.363 . S
C553 H556 0.929 . S
C554 C553 1.363 . S
C554 C560 1.428 . S
H555 C551 0.930 . S
H556 C553 0.929 . S
S557 N558 1.616 1_655 S
S557 N559 1.608 . S
N558 S557 1.616 1_455 S
N558 C561 1.350 . S
N559 S557 1.608 . S
N559 C560 1.351 . S
C560 C554 1.428 . S
C560 N559 1.351 . S
C560 C561 1.434 1_655 S
C561 C552 1.429 . S
C561 N558 1.350 . S
C561 C560 1.434 1_455 S
C562 C563 1.369 . S
C562 C564 1.419 . S
C562 H566 0.930 . S
C563 C562 1.369 . S
C563 C572 1.429 . S
C564 C562 1.419 . S
C564 C565 1.363 . S
C564 H567 0.929 . S
C565 C564 1.363 . S
C565 C571 1.428 . S
H566 C562 0.930 . S
H567 C564 0.929 . S
S568 N569 1.613 . S
S568 N570 1.610 . S
N569 S568 1.613 . S
N569 C572 1.350 . S
N570 S568 1.610 . S
N570 C571 1.351 . S
C571 C565 1.428 . S
C571 N570 1.351 . S
C571 C572 1.434 . S
C572 C563 1.429 . S
C572 N569 1.350 . S
C572 C571 1.434 . S
C573 C574 1.369 . S
C573 C575 1.419 . S
C573 H577 0.930 . S
C574 C573 1.369 . S
C574 C583 1.429 . S
C575 C573 1.419 . S
C575 C576 1.363 . S
C575 H578 0.929 . S
C576 C575 1.363 . S
C576 C582 1.428 . S
H577 C573 0.930 . S
H578 C575 0.929 . S
S579 N580 1.613 . S
S579 N581 1.610 . S
N580 S579 1.613 . S
N580 C583 1.350 . S
N581 S579 1.610 . S
N581 C582 1.351 . S
C582 C576 1.428 . S
C582 N581 1.351 . S
C582 C583 1.434 . S
C583 C574 1.429 . S
C583 N580 1.350 . S
C583 C582 1.434 . S
C584 C585 1.369 . S
C584 C586 1.419 . S
C584 H588 0.930 . S
C585 C584 1.369 . S
C585 C594 1.429 . S
C586 C584 1.419 . S
C586 C587 1.363 . S
C586 H589 0.929 . S
C587 C586 1.363 . S
C587 C593 1.428 . S
H588 C584 0.930 . S
H589 C586 0.929 . S
S590 N591 1.613 . S
S590 N592 1.610 . S
N591 S590 1.613 . S
N591 C594 1.350 . S
N592 S590 1.610 . S
N592 C593 1.351 . S
C593 C587 1.428 . S
C593 N592 1.351 . S
C593 C594 1.434 . S
C594 C585 1.429 . S
C594 N591 1.350 . S
C594 C593 1.434 . S
C595 C596 1.369 . S
C595 C597 1.419 . S
C595 H599 0.930 . S
C596 C595 1.369 . S
C596 C605 1.429 . S
C597 C595 1.419 . S
C597 C598 1.363 . S
C597 H600 0.929 . S
C598 C597 1.363 . S
C598 C604 1.428 . S
H599 C595 0.930 . S
H600 C597 0.929 . S
S601 N602 1.613 . S
S601 N603 1.610 . S
N602 S601 1.613 . S
N602 C605 1.350 . S
N603 S601 1.610 . S
N603 C604 1.351 . S
C604 C598 1.428 . S
C604 N603 1.351 . S
C604 C605 1.434 . S
C605 C596 1.429 . S
C605 N602 1.350 . S
C605 C604 1.434 . S
C606 C607 1.369 . S
C606 C608 1.419 . S
C606 H610 0.930 . S
C607 C606 1.369 . S
C607 C616 1.429 . S
C608 C606 1.419 . S
C608 C609 1.363 . S
C608 H611 0.929 . S
C609 C608 1.363 . S
C609 C615 1.428 . S
H610 C606 0.930 . S
H611 C608 0.929 . S
S612 N613 1.613 . S
S612 N614 1.610 . S
N613 S612 1.613 . S
N613 C616 1.350 . S
N614 S612 1.610 . S
N614 C615 1.351 . S
C615 C609 1.428 . S
C615 N614 1.351 . S
C615 C616 1.434 . S
C616 C607 1.429 . S
C616 N613 1.350 . S
C616 C615 1.434 . S
C617 C618 1.369 . S
C617 C619 1.419 . S
C617 H621 0.930 . S
C618 C617 1.369 . S
C618 C627 1.429 . S
C619 C617 1.419 . S
C619 C620 1.363 . S
C619 H622 0.929 . S
C620 C619 1.363 . S
C620 C626 1.428 . S
H621 C617 0.930 . S
H622 C619 0.929 . S
S623 N624 1.613 . S
S623 N625 1.610 . S
N624 S623 1.613 . S
N624 C627 1.350 . S
N625 S623 1.610 . S
N625 C626 1.351 . S
C626 C620 1.428 . S
C626 N625 1.351 . S
C626 C627 1.434 . S
C627 C618 1.429 . S
C627 N624 1.350 . S
C627 C626 1.434 . S
C628 C629 1.369 . S
C628 C630 1.419 1_655 S
C628 H632 0.930 . S
C629 C628 1.369 . S
C629 C638 1.429 1_556 S
C630 C628 1.419 1_455 S
C630 C631 1.363 . S
C630 H633 0.929 . S
C631 C630 1.363 . S
C631 C637 1.428 1_556 S
H632 C628 0.930 . S
H633 C630 0.929 . S
S634 N635 1.616 1_455 S
S634 N636 1.608 . S
N635 S634 1.616 1_655 S
N635 C638 1.350 . S
N636 S634 1.608 . S
N636 C637 1.351 . S
C637 C631 1.428 1_554 S
C637 N636 1.351 . S
C637 C638 1.434 1_455 S
C638 C629 1.429 1_554 S
C638 N635 1.350 . S
C638 C637 1.434 1_655 S
C639 C640 1.369 . S
C639 C641 1.419 . S
C639 H643 0.930 . S
C640 C639 1.369 . S
C640 C649 1.429 . S
C641 C639 1.419 . S
C641 C642 1.363 . S
C641 H644 0.929 . S
C642 C641 1.363 . S
C642 C648 1.428 . S
H643 C639 0.930 . S
H644 C641 0.929 . S
S645 N646 1.613 . S
S645 N647 1.610 . S
N646 S645 1.613 . S
N646 C649 1.350 . S
N647 S645 1.610 . S
N647 C648 1.351 . S
C648 C642 1.428 . S
C648 N647 1.351 . S
C648 C649 1.434 . S
C649 C640 1.429 . S
C649 N646 1.350 . S
C649 C648 1.434 . S
C650 C651 1.369 . S
C650 C652 1.419 . S
C650 H654 0.930 . S
C651 C650 1.369 . S
C651 C660 1.429 . S
C652 C650 1.419 . S
C652 C653 1.363 . S
C652 H655 0.929 . S
C653 C652 1.363 . S
C653 C659 1.428 . S
H654 C650 0.930 . S
H655 C652 0.929 . S
S656 N657 1.613 . S
S656 N658 1.610 . S
N657 S656 1.613 . S
N657 C660 1.350 . S
N658 S656 1.610 . S
N658 C659 1.351 . S
C659 C653 1.428 . S
C659 N658 1.351 . S
C659 C660 1.434 . S
C660 C651 1.429 . S
C660 N657 1.350 . S
C660 C659 1.434 . S
C661 C662 1.369 . S
C661 C663 1.419 1_455 S
C661 H665 0.930 . S
C662 C661 1.369 . S
C662 C671 1.429 1_554 S
C663 C661 1.419 1_655 S
C663 C664 1.363 . S
C663 H666 0.929 . S
C664 C663 1.363 . S
C664 C670 1.428 1_554 S
H665 C661 0.930 . S
H666 C663 0.929 . S
S667 N668 1.616 1_655 S
S667 N669 1.608 . S
N668 S667 1.616 1_455 S
N668 C671 1.350 . S
N669 S667 1.608 . S
N669 C670 1.351 . S
C670 C664 1.428 1_556 S
C670 N669 1.351 . S
C670 C671 1.434 1_655 S
C671 C662 1.429 1_556 S
C671 N668 1.350 . S
C671 C670 1.434 1_455 S
C672 C673 1.369 . S
C672 C674 1.419 . S
C672 H676 0.930 . S
C673 C672 1.369 . S
C673 C682 1.429 1_554 S
C674 C672 1.419 . S
C674 C675 1.363 1_554 S
C674 H677 0.929 . S
C675 C674 1.363 1_556 S
C675 C681 1.428 . S
H676 C672 0.930 . S
H677 C674 0.929 . S
S678 N679 1.613 . S
S678 N680 1.610 . S
N679 S678 1.613 . S
N679 C682 1.350 . S
N680 S678 1.610 . S
N680 C681 1.351 . S
C681 C675 1.428 . S
C681 N680 1.351 . S
C681 C682 1.434 . S
C682 C673 1.429 1_556 S
C682 N679 1.350 . S
C682 C681 1.434 . S
C683 C684 1.369 . S
C683 C685 1.419 . S
C683 H687 0.930 . S
C684 C683 1.369 . S
C684 C693 1.429 . S
C685 C683 1.419 . S
C685 C686 1.363 . S
C685 H688 0.929 . S
C686 C685 1.363 . S
C686 C692 1.428 . S
H687 C683 0.930 . S
H688 C685 0.929 . S
S689 N690 1.613 . S
S689 N691 1.610 . S
N690 S689 1.613 . S
N690 C693 1.350 . S
N691 S689 1.610 . S
N691 C692 1.351 . S
C692 C686 1.428 . S
C692 N691 1.351 . S
C692 C693 1.434 . S
C693 C684 1.429 . S
C693 N690 1.350 . S
C693 C692 1.434 . S
C694 C695 1.369 . S
C694 C696 1.419 . S
C694 H698 0.930 . S
C695 C694 1.369 . S
C695 C704 1.429 . S
C696 C694 1.419 . S
C696 C697 1.363 . S
C696 H699 0.929 . S
C697 C696 1.363 . S
C697 C703 1.428 . S
H698 C694 0.930 . S
H699 C696 0.929 . S
S700 N701 1.613 . S
S700 N702 1.610 . S
N701 S700 1.613 . S
N701 C704 1.350 . S
N702 S700 1.610 . S
N702 C703 1.351 . S
C703 C697 1.428 . S
C703 N702 1.351 . S
C703 C704 1.434 . S
C704 C695 1.429 . S
C704 N701 1.350 . S
C704 C703 1.434 . S
C705 C706 1.369 . S
C705 C707 1.419 . S
C705 H709 0.930 . S
C706 C705 1.369 . S
C706 C715 1.429 . S
C707 C705 1.419 . S
C707 C708 1.363 . S
C707 H710 0.929 . S
C708 C707 1.363 . S
C708 C714 1.428 . S
H709 C705 0.930 . S
H710 C707 0.929 . S
S711 N712 1.613 . S
S711 N713 1.610 . S
N712 S711 1.613 . S
N712 C715 1.350 . S
N713 S711 1.610 . S
N713 C714 1.351 . S
C714 C708 1.428 . S
C714 N713 1.351 . S
C714 C715 1.434 . S
C715 C706 1.429 . S
C715 N712 1.350 . S
C715 C714 1.434 . S
C716 C717 1.369 1_556 S
C716 C718 1.419 . S
C716 H720 0.930 . S
C717 C716 1.369 1_554 S
C717 C726 1.429 . S
C718 C716 1.419 . S
C718 C719 1.363 . S
C718 H721 0.929 . S
C719 C718 1.363 . S
C719 C725 1.428 1_556 S
H720 C716 0.930 . S
H721 C718 0.929 . S
S722 N723 1.613 . S
S722 N724 1.610 . S
N723 S722 1.613 . S
N723 C726 1.350 . S
N724 S722 1.610 . S
N724 C725 1.351 . S
C725 C719 1.428 1_554 S
C725 N724 1.351 . S
C725 C726 1.434 . S
C726 C717 1.429 . S
C726 N723 1.350 . S
C726 C725 1.434 . S
C727 C728 1.369 . S
C727 C729 1.419 . S
C727 H731 0.930 . S
C728 C727 1.369 . S
C728 C737 1.429 . S
C729 C727 1.419 . S
C729 C730 1.363 . S
C729 H732 0.929 . S
C730 C729 1.363 . S
C730 C736 1.428 . S
H731 C727 0.930 . S
H732 C729 0.929 . S
S733 N734 1.613 . S
S733 N735 1.610 . S
N734 S733 1.613 . S
N734 C737 1.350 . S
N735 S733 1.610 . S
N735 C736 1.351 . S
C736 C730 1.428 . S
C736 N735 1.351 . S
C736 C737 1.434 . S
C737 C728 1.429 . S
C737 N734 1.350 . S
C737 C736 1.434 . S
C738 C739 1.369 . S
C738 C740 1.419 . S
C738 H742 0.930 . S
C739 C738 1.369 . S
C739 C748 1.429 . S
C740 C738 1.419 . S
C740 C741 1.363 . S
C740 H743 0.929 . S
C741 C740 1.363 . S
C741 C747 1.428 . S
H742 C738 0.930 . S
H743 C740 0.929 . S
S744 N745 1.613 . S
S744 N746 1.610 . S
N745 S744 1.613 . S
N745 C748 1.350 . S
N746 S744 1.610 . S
N746 C747 1.351 . S
C747 C741 1.428 . S
C747 N746 1.351 . S
C747 C748 1.434 . S
C748 C739 1.429 . S
C748 N745 1.350 . S
C748 C747 1.434 . S
C749 C750 1.369 . S
C749 C751 1.419 . S
C749 H753 0.930 . S
C750 C749 1.369 . S
C750 C759 1.429 . S
C751 C749 1.419 . S
C751 C752 1.363 . S
C751 H754 0.929 . S
C752 C751 1.363 . S
C752 C758 1.428 . S
H753 C749 0.930 . S
H754 C751 0.929 . S
S755 N756 1.613 . S
S755 N757 1.610 . S
N756 S755 1.613 . S
N756 C759 1.350 . S
N757 S755 1.610 . S
N757 C758 1.351 . S
C758 C752 1.428 . S
C758 N757 1.351 . S
C758 C759 1.434 . S
C759 C750 1.429 . S
C759 N756 1.350 . S
C759 C758 1.434 . S
C760 C761 1.369 . S
C760 C762 1.419 1_565 S
C760 H764 0.930 . S
C761 C760 1.369 . S
C761 C770 1.429 . S
C762 C760 1.419 1_545 S
C762 C763 1.363 . S
C762 H765 0.929 . S
C763 C762 1.363 . S
C763 C769 1.428 . S
H764 C760 0.930 . S
H765 C762 0.929 . S
S766 N767 1.613 1_545 S
S766 N768 1.610 . S
N767 S766 1.613 1_565 S
N767 C770 1.350 . S
N768 S766 1.610 . S
N768 C769 1.351 . S
C769 C763 1.428 . S
C769 N768 1.351 . S
C769 C770 1.434 1_545 S
C770 C761 1.429 . S
C770 N767 1.350 . S
C770 C769 1.434 1_565 S
C771 C772 1.369 . S
C771 C773 1.419 . S
C771 H775 0.930 . S
C772 C771 1.369 . S
C772 C781 1.429 . S
C773 C771 1.419 . S
C773 C774 1.363 . S
C773 H776 0.929 . S
C774 C773 1.363 . S
C774 C780 1.428 . S
H775 C771 0.930 . S
H776 C773 0.929 . S
S777 N778 1.613 . S
S777 N779 1.610 . S
N778 S777 1.613 . S
N778 C781 1.350 . S
N779 S777 1.610 . S
N779 C780 1.351 . S
C780 C774 1.428 . S
C780 N779 1.351 . S
C780 C781 1.434 . S
C781 C772 1.429 . S
C781 N778 1.350 . S
C781 C780 1.434 . S
C782 C783 1.369 . S
C782 C784 1.419 1_565 S
C782 H786 0.930 . S
C783 C782 1.369 . S
C783 C792 1.429 1_554 S
C784 C782 1.419 1_545 S
C784 C785 1.363 1_554 S
C784 H787 0.929 . S
C785 C784 1.363 1_556 S
C785 C791 1.428 . S
H786 C782 0.930 . S
H787 C784 0.929 . S
S788 N789 1.613 . S
S788 N790 1.610 1_565 S
N789 S788 1.613 . S
N789 C792 1.350 . S
N790 S788 1.610 1_545 S
N790 C791 1.351 . S
C791 C785 1.428 . S
C791 N790 1.351 . S
C791 C792 1.434 1_545 S
C792 C783 1.429 1_556 S
C792 N789 1.350 . S
C792 C791 1.434 1_565 S
C793 C794 1.369 . S
C793 C795 1.419 . S
C793 H797 0.930 . S
C794 C793 1.369 . S
C794 C803 1.429 . S
C795 C793 1.419 . S
C795 C796 1.363 . S
C795 H798 0.929 . S
C796 C795 1.363 . S
C796 C802 1.428 . S
H797 C793 0.930 . S
H798 C795 0.929 . S
S799 N800 1.613 . S
S799 N801 1.610 . S
N800 S799 1.613 . S
N800 C803 1.350 . S
N801 S799 1.610 . S
N801 C802 1.351 . S
C802 C796 1.428 . S
C802 N801 1.351 . S
C802 C803 1.434 . S
C803 C794 1.429 . S
C803 N800 1.350 . S
C803 C802 1.434 . S
C804 C805 1.369 . S
C804 C806 1.419 1_565 S
C804 H808 0.930 . S
C805 C804 1.369 . S
C805 C814 1.429 . S
C806 C804 1.419 1_545 S
C806 C807 1.363 . S
C806 H809 0.929 . S
C807 C806 1.363 . S
C807 C813 1.428 . S
H808 C804 0.930 . S
H809 C806 0.929 . S
S810 N811 1.613 1_545 S
S810 N812 1.610 . S
N811 S810 1.613 1_565 S
N811 C814 1.350 . S
N812 S810 1.610 . S
N812 C813 1.351 . S
C813 C807 1.428 . S
C813 N812 1.351 . S
C813 C814 1.434 1_545 S
C814 C805 1.429 . S
C814 N811 1.350 . S
C814 C813 1.434 1_565 S
C815 C816 1.369 . S
C815 C817 1.419 . S
C815 H819 0.930 . S
C816 C815 1.369 . S
C816 C825 1.429 . S
C817 C815 1.419 . S
C817 C818 1.363 . S
C817 H820 0.929 . S
C818 C817 1.363 . S
C818 C824 1.428 . S
H819 C815 0.930 . S
H820 C817 0.929 . S
S821 N822 1.613 . S
S821 N823 1.610 . S
N822 S821 1.613 . S
N822 C825 1.350 . S
N823 S821 1.610 . S
N823 C824 1.351 . S
C824 C818 1.428 . S
C824 N823 1.351 . S
C824 C825 1.434 . S
C825 C816 1.429 . S
C825 N822 1.350 . S
C825 C824 1.434 . S
C826 C827 1.369 1_554 S
C826 C828 1.419 1_545 S
C826 H830 0.930 . S
C827 C826 1.369 1_556 S
C827 C836 1.429 . S
C828 C826 1.419 1_565 S
C828 C829 1.363 . S
C828 H831 0.929 . S
C829 C828 1.363 . S
C829 C835 1.428 1_554 S
H830 C826 0.930 . S
H831 C828 0.929 . S
S832 N833 1.626 . S
S832 N834 1.610 . S
N833 S832 1.626 . S
N833 C836 1.351 1_565 S
N834 S832 1.610 . S
N834 C835 1.351 . S
C835 C829 1.428 1_556 S
C835 N834 1.351 . S
C835 C836 1.434 1_565 S
C836 C827 1.429 . S
C836 N833 1.351 1_545 S
C836 C835 1.434 1_545 S
C837 C838 1.369 . S
C837 C839 1.419 . S
C837 H841 0.930 . S
C838 C837 1.369 . S
C838 C847 1.429 . S
C839 C837 1.419 . S
C839 C840 1.363 . S
C839 H842 0.929 . S
C840 C839 1.363 . S
C840 C846 1.428 . S
H841 C837 0.930 . S
H842 C839 0.929 . S
S843 N844 1.613 . S
S843 N845 1.610 . S
N844 S843 1.613 . S
N844 C847 1.350 . S
N845 S843 1.610 . S
N845 C846 1.351 . S
C846 C840 1.428 . S
C846 N845 1.351 . S
C846 C847 1.434 . S
C847 C838 1.429 . S
C847 N844 1.350 . S
C847 C846 1.434 . S
C321 C2 1.576 . S
C323 C1 1.566 . S
C332 C21 1.572 1_556 S
C334 C22 1.570 . S
C343 C41 1.465 . S
C345 C42 1.472 1_554 S
C354 C62 1.464 . S
C356 C61 1.472 . S
C365 C82 1.569 . S
C367 C81 1.572 . S
C376 C101 1.473 . S
C378 C102 1.465 . S
C387 C121 1.467 . S
C389 C122 1.470 1_556 S
C398 C141 1.573 1_554 S
C400 C142 1.568 . S
C409 C161 1.567 . S
C411 C162 1.573 . S
C420 C181 1.564 . S
C422 C182 1.575 1_554 S
C431 C201 1.473 1_556 S
C433 C202 1.465 . S
C442 C221 1.464 . S
C444 C222 1.472 . S
C453 C241 1.567 . S
C455 C242 1.573 . S
C464 C261 1.473 . S
C466 C262 1.466 . S
C475 C282 1.474 . S
C477 C281 1.465 1_554 S
C486 C302 1.576 1_556 S
C488 C301 1.566 . S
C497 C8 1.556 . S
C499 C239 1.611 . S
C508 C38 1.613 . S
C510 C319 1.613 . S
C519 C58 1.606 . S
C521 C189 1.550 . S
C530 C68 1.596 . S
C532 C269 1.596 . S
C541 C88 1.549 . S
C543 C279 1.609 . S
C552 C229 1.593 . S
C554 C108 1.594 . S
C563 C138 1.609 . S
C565 C309 1.551 . S
C574 C158 1.611 . S
C576 C199 1.611 . S
C585 C78 1.612 . S
C587 C169 1.556 . S
C596 C28 1.548 . S
C598 C219 1.607 . S
C607 C249 1.558 . S
C609 C118 1.610 . S
C618 C148 1.557 . S
C620 C299 1.610 . S
C629 C179 1.616 . S
C631 C98 1.615 . S
C640 C128 1.592 . S
C642 C209 1.593 . S
C651 C48 1.600 . S
C653 C289 1.599 . S
C662 C18 1.614 . S
C664 C259 1.614 . S
C673 C9 1.420 . S
C675 C89 1.418 . S
C684 C39 1.602 . S
C686 C109 1.599 . S
C695 C59 1.751 . S
C697 C139 1.750 . S
C706 C69 1.603 . S
C708 C159 1.599 . S
C717 C248 1.418 . S
C719 C168 1.419 . S
C728 C268 1.603 . S
C730 C198 1.599 . S
C739 C218 1.748 . S
C741 C298 1.749 . S
C750 C318 1.601 . S
C752 C228 1.602 . S
C761 C29 1.418 . S
C763 C149 1.420 . S
C772 C99 1.601 . S
C774 C49 1.600 . S
C783 C119 1.749 . S
C785 C79 1.750 . S
C794 C19 1.600 . S
C796 C129 1.602 . S
C805 C308 1.418 . S
C807 C188 1.418 . S
C816 C258 1.603 . S
C818 C208 1.599 . S
C827 C278 1.750 . S
C829 C238 1.749 . S
C838 C288 1.599 . S
C840 C178 1.601 . S
