# Generated by pormake.
# Topology umb, (4)-cn, num edge types: 1
# Building blocks:
#     Node 0, Type 0, BuildingBlock: CEKHIL_clean_sbu_0, # of connection points: 4
#     Node 1, Type 0, BuildingBlock: CEKHIL_clean_sbu_0, # of connection points: 4
#     Node 2, Type 0, BuildingBlock: CEKHIL_clean_sbu_0, # of connection points: 4
#     Node 3, Type 0, BuildingBlock: CEKHIL_clean_sbu_0, # of connection points: 4
#     Node 4, Type 0, BuildingBlock: CEKHIL_clean_sbu_0, # of connection points: 4
#     Node 5, Type 0, BuildingBlock: CEKHIL_clean_sbu_0, # of connection points: 4
#     Node 6, Type 0, BuildingBlock: CEKHIL_clean_sbu_0, # of connection points: 4
#     Node 7, Type 0, BuildingBlock: CEKHIL_clean_sbu_0, # of connection points: 4
#     Node 8, Type 0, BuildingBlock: CEKHIL_clean_sbu_0, # of connection points: 4
#     Node 9, Type 0, BuildingBlock: CEKHIL_clean_sbu_0, # of connection points: 4
#     Node 10, Type 0, BuildingBlock: CEKHIL_clean_sbu_0, # of connection points: 4
#     Node 11, Type 0, BuildingBlock: CEKHIL_clean_sbu_0, # of connection points: 4
#     Edge 12, Type (0, 0), BuildingBlock: UVAHIK_clean_linker_0, # of connection points: 2
#     Edge 13, Type (0, 0), BuildingBlock: UVAHIK_clean_linker_0, # of connection points: 2
#     Edge 14, Type (0, 0), BuildingBlock: UVAHIK_clean_linker_0, # of connection points: 2
#     Edge 15, Type (0, 0), BuildingBlock: UVAHIK_clean_linker_0, # of connection points: 2
#     Edge 16, Type (0, 0), BuildingBlock: UVAHIK_clean_linker_0, # of connection points: 2
#     Edge 17, Type (0, 0), BuildingBlock: UVAHIK_clean_linker_0, # of connection points: 2
#     Edge 18, Type (0, 0), BuildingBlock: UVAHIK_clean_linker_0, # of connection points: 2
#     Edge 19, Type (0, 0), BuildingBlock: UVAHIK_clean_linker_0, # of connection points: 2
#     Edge 20, Type (0, 0), BuildingBlock: UVAHIK_clean_linker_0, # of connection points: 2
#     Edge 21, Type (0, 0), BuildingBlock: UVAHIK_clean_linker_0, # of connection points: 2
#     Edge 22, Type (0, 0), BuildingBlock: UVAHIK_clean_linker_0, # of connection points: 2
#     Edge 23, Type (0, 0), BuildingBlock: UVAHIK_clean_linker_0, # of connection points: 2
#     Edge 24, Type (0, 0), BuildingBlock: UVAHIK_clean_linker_0, # of connection points: 2
#     Edge 25, Type (0, 0), BuildingBlock: UVAHIK_clean_linker_0, # of connection points: 2
#     Edge 26, Type (0, 0), BuildingBlock: UVAHIK_clean_linker_0, # of connection points: 2
#     Edge 27, Type (0, 0), BuildingBlock: UVAHIK_clean_linker_0, # of connection points: 2
#     Edge 28, Type (0, 0), BuildingBlock: UVAHIK_clean_linker_0, # of connection points: 2
#     Edge 29, Type (0, 0), BuildingBlock: UVAHIK_clean_linker_0, # of connection points: 2
#     Edge 30, Type (0, 0), BuildingBlock: UVAHIK_clean_linker_0, # of connection points: 2
#     Edge 31, Type (0, 0), BuildingBlock: UVAHIK_clean_linker_0, # of connection points: 2
#     Edge 32, Type (0, 0), BuildingBlock: UVAHIK_clean_linker_0, # of connection points: 2
#     Edge 33, Type (0, 0), BuildingBlock: UVAHIK_clean_linker_0, # of connection points: 2
#     Edge 34, Type (0, 0), BuildingBlock: UVAHIK_clean_linker_0, # of connection points: 2
#     Edge 35, Type (0, 0), BuildingBlock: UVAHIK_clean_linker_0, # of connection points: 2
# Relax obj value: 0.272
# Max RMSD: 0.248
# Mean RMSD: 0.247
data_MOF--net-umb--node1-CEKHIL_clean_sbu_0--edge1-UVAHIK_clean_linker_0
_symmetry_space_group_name_H-M    P1
_symmetry_Int_Tables_number       1
_symmetry_cell_setting            triclinic
loop_
_symmetry_equiv_pos_as_xyz
'x, y, z'
_cell_length_a     60.403685
_cell_length_b     60.400961
_cell_length_c     47.721109
_cell_angle_alpha  89.987166
_cell_angle_beta   89.964591
_cell_angle_gamma 120.00769
loop_
_atom_site_label
_atom_site_type_symbol
_atom_site_fract_x
_atom_site_fract_y
_atom_site_fract_z
_atom_type_partial_charge
Co0 Co 0.51522 0.15856 0.32549 0.0
O1 O 0.49152 0.12243 0.3259 0.0
O2 O 0.53385 0.14062 0.32439 0.0
C3 C 0.49657 0.1703 0.29247 0.0
O4 O 0.54559 0.19436 0.32387 0.0
Co5 Co 0.49936 0.19649 0.34633 0.0
O6 O 0.53147 0.22218 0.32798 0.0
C7 C 0.51539 0.17156 0.38798 0.0
C8 C 0.51166 0.11988 0.32529 0.0
C9 C 0.54918 0.21715 0.32292 0.0
O10 O 0.51766 0.159 0.36759 0.0
O11 O 0.50753 0.18752 0.38439 0.0
O12 O 0.5105 0.16029 0.28578 0.0
O13 O 0.49098 0.16935 0.31897 0.0
Co14 Co 0.34613 0.51381 0.66023 0.0
O15 O 0.35947 0.491 0.66406 0.0
O16 O 0.3826 0.53299 0.65742 0.0
C17 C 0.31472 0.4909 0.62942 0.0
O18 O 0.33974 0.54329 0.65451 0.0
Co19 Co 0.29279 0.49897 0.68213 0.0
O20 O 0.2982 0.52974 0.66152 0.0
C21 C 0.33507 0.51841 0.72243 0.0
C22 C 0.38184 0.51133 0.66121 0.0
C23 C 0.32052 0.54685 0.65396 0.0
O24 O 0.34951 0.52036 0.70175 0.0
O25 O 0.31095 0.50927 0.71963 0.0
O26 O 0.33829 0.50465 0.62133 0.0
O27 O 0.31111 0.48854 0.65642 0.0
Co28 Co 0.83244 0.35252 0.99108 0.0
O29 O 0.86863 0.36585 0.99384 0.0
O30 O 0.84977 0.38908 0.9883 0.0
C31 C 0.82333 0.32107 0.95996 0.0
O32 O 0.79628 0.34578 0.98666 0.0
Co33 Co 0.79484 0.29889 0.01329 0.0
O34 O 0.76932 0.30379 0.99237 0.0
C35 C 0.81764 0.34135 0.05351 0.0
C36 C 0.87073 0.38826 0.99131 0.0
C37 C 0.77376 0.32607 0.98578 0.0
O38 O 0.83008 0.35588 0.03283 0.0
O39 O 0.8027 0.31722 0.05066 0.0
O40 O 0.83289 0.34462 0.95193 0.0
O41 O 0.82284 0.31761 0.98693 0.0
Co42 Co 0.47568 0.8304 0.33097 0.0
O43 O 0.50144 0.86555 0.33671 0.0
O44 O 0.45986 0.85102 0.33145 0.0
C45 C 0.4959 0.82087 0.29752 0.0
O46 O 0.44361 0.79657 0.32374 0.0
Co47 Co 0.48435 0.78602 0.34595 0.0
O48 O 0.45323 0.76528 0.3233 0.0
C49 C 0.46833 0.80871 0.39059 0.0
C50 C 0.48269 0.87028 0.33539 0.0
C51 C 0.43759 0.77327 0.31925 0.0
O52 O 0.46969 0.82513 0.37258 0.0
O53 O 0.47368 0.79125 0.38451 0.0
O54 O 0.48395 0.83311 0.29156 0.0
O55 O 0.49806 0.81746 0.32409 0.0
Co56 Co 0.63664 0.47806 0.65688 0.0
O57 O 0.62771 0.50406 0.6634 0.0
O58 O 0.60026 0.46282 0.65629 0.0
C59 C 0.66746 0.49893 0.62462 0.0
O60 O 0.63806 0.44599 0.64874 0.0
Co61 Co 0.68877 0.48548 0.67379 0.0
O62 O 0.67898 0.45549 0.6492 0.0
C63 C 0.64891 0.46922 0.71708 0.0
C64 C 0.60414 0.48563 0.66125 0.0
C65 C 0.65545 0.44019 0.64411 0.0
O66 O 0.63447 0.47043 0.69816 0.0
O67 O 0.67216 0.47537 0.71217 0.0
O68 O 0.64346 0.48766 0.6179 0.0
O69 O 0.67226 0.50016 0.65136 0.0
Co70 Co 0.15939 0.64354 0.99795 0.0
O71 O 0.12415 0.63409 1.00329 0.0
O72 O 0.13873 0.60708 0.99817 0.0
C73 C 0.16925 0.67348 0.96462 0.0
O74 O 0.19331 0.64534 0.99101 0.0
Co75 Co 0.20353 0.69655 0.01363 0.0
O76 O 0.22457 0.68631 0.99132 0.0
C77 C 0.18017 0.65763 0.05794 0.0
C78 C 0.11941 0.61061 1.00184 0.0
C79 C 0.21663 0.66274 0.98686 0.0
O80 O 0.1642 0.64259 0.03961 0.0
O81 O 0.1976 0.68054 0.05218 0.0
O82 O 0.15706 0.64931 0.95854 0.0
O83 O 0.17244 0.67894 0.99121 0.0
Co84 Co 0.83181 0.48059 0.36666 0.0
O85 O 0.86785 0.50398 0.36322 0.0
O86 O 0.84973 0.46199 0.36933 0.0
C87 C 0.82244 0.50271 0.3978 0.0
O88 O 0.79607 0.45069 0.37194 0.0
Co89 Co 0.7929 0.49498 0.34499 0.0
O90 O 0.76814 0.46452 0.36651 0.0
C91 C 0.81616 0.47604 0.30447 0.0
C92 C 0.87041 0.48395 0.36595 0.0
C93 C 0.77333 0.44723 0.37327 0.0
O94 O 0.829 0.47444 0.32499 0.0
O95 O 0.80079 0.48471 0.30749 0.0
O96 O 0.83261 0.48924 0.40573 0.0
O97 O 0.82147 0.50536 0.37082 0.0
Co98 Co 0.34499 0.83054 0.69743 0.0
O99 O 0.35591 0.86607 0.69202 0.0
O100 O 0.38157 0.84989 0.69726 0.0
C101 C 0.31525 0.82184 0.73071 0.0
O102 O 0.34129 0.79578 0.70431 0.0
Co103 Co 0.29102 0.78828 0.68149 0.0
O104 O 0.29961 0.76651 0.70478 0.0
C105 C 0.33038 0.80986 0.63742 0.0
C106 C 0.37903 0.8698 0.69344 0.0
C107 C 0.32289 0.77298 0.70887 0.0
O108 O 0.34577 0.82553 0.65576 0.0
O109 O 0.30714 0.79325 0.6431 0.0
O110 O 0.33938 0.83319 0.73688 0.0
O111 O 0.30992 0.81904 0.70408 0.0
Co112 Co 0.51412 0.35213 0.03341 0.0
O113 O 0.49118 0.36532 0.03022 0.0
O114 O 0.53336 0.38877 0.03473 0.0
C115 C 0.49244 0.32192 0.06604 0.0
O116 O 0.54364 0.34564 0.03823 0.0
Co117 Co 0.49786 0.29798 0.01342 0.0
O118 O 0.52875 0.30356 0.03388 0.0
C119 C 0.51682 0.33902 0.97148 0.0
C120 C 0.51148 0.3878 0.03213 0.0
C121 C 0.54656 0.32604 0.03984 0.0
O122 O 0.5192 0.35413 0.99161 0.0
O123 O 0.50755 0.31497 0.97524 0.0
O124 O 0.50662 0.34578 0.07279 0.0
O125 O 0.48882 0.31729 0.03926 0.0
Co126 Co 0.1578 0.51339 0.36505 0.0
O127 O 0.12223 0.4882 0.36037 0.0
O128 O 0.13805 0.53009 0.36454 0.0
C129 C 0.16736 0.49337 0.39877 0.0
O130 O 0.19209 0.54512 0.37116 0.0
Co131 Co 0.20123 0.50327 0.34984 0.0
O132 O 0.22325 0.53531 0.37056 0.0
C133 C 0.17828 0.51893 0.3051 0.0
C134 C 0.11826 0.50748 0.36137 0.0
C135 C 0.21548 0.55112 0.37469 0.0
O136 O 0.16234 0.51838 0.32327 0.0
O137 O 0.19547 0.51319 0.31115 0.0
O138 O 0.15573 0.50595 0.40467 0.0
O139 O 0.17014 0.49053 0.3722 0.0
Co140 Co 0.63595 0.15784 0.70288 0.0
O141 O 0.62439 0.12185 0.70125 0.0
O142 O 0.59943 0.13904 0.7041 0.0
C143 C 0.66656 0.16883 0.73558 0.0
O144 O 0.64002 0.19304 0.70557 0.0
Co145 Co 0.68919 0.1983 0.68312 0.0
O146 O 0.68135 0.22292 0.70167 0.0
C147 C 0.64857 0.17292 0.64093 0.0
C148 C 0.60145 0.11867 0.70231 0.0
C149 C 0.65815 0.21637 0.70649 0.0
O150 O 0.63386 0.1593 0.66093 0.0
O151 O 0.67212 0.18962 0.64493 0.0
O152 O 0.64264 0.15848 0.74247 0.0
O153 O 0.67125 0.16951 0.70886 0.0
Co154 Co 0.47815 0.64372 0.03295 0.0
O155 O 0.50337 0.63334 0.02964 0.0
O156 O 0.4616 0.60721 0.03483 0.0
C157 C 0.49853 0.67486 0.06488 0.0
O158 O 0.44657 0.6469 0.03787 0.0
Co159 Co 0.48925 0.69647 0.01293 0.0
O160 O 0.45738 0.688 0.03319 0.0
C161 C 0.47283 0.6553 0.97131 0.0
C162 C 0.4843 0.61012 0.03197 0.0
C163 C 0.44114 0.66489 0.03909 0.0
O164 O 0.47265 0.64095 0.99124 0.0
O165 O 0.47967 0.67887 0.97511 0.0
O166 O 0.48589 0.651 0.0722 0.0
O167 O 0.5013 0.67923 0.03803 0.0
C168 C 0.53238 0.15055 0.42001 0.0
C169 C 0.52502 0.16907 0.41596 0.0
C170 C 0.54502 0.15024 0.44442 0.0
C171 C 0.58415 0.19197 0.50312 0.0
H172 H 0.5735 0.12791 0.5337 0.0
C173 C 0.64886 0.18878 0.59167 0.0
C174 C 0.63649 0.1705 0.61294 0.0
C175 C 0.63573 0.18818 0.56709 0.0
C176 C 0.57667 0.14603 0.52565 0.0
H177 H 0.52454 0.2013 0.43531 0.0
H178 H 0.54609 0.20037 0.47834 0.0
H179 H 0.54785 0.12749 0.49433 0.0
H180 H 0.60068 0.13671 0.6243 0.0
H181 H 0.57805 0.13589 0.58214 0.0
H182 H 0.61248 0.21045 0.53511 0.0
C183 C 0.54248 0.18636 0.46222 0.0
C184 C 0.56207 0.1458 0.50274 0.0
C185 C 0.5298 0.18669 0.43766 0.0
C186 C 0.61099 0.15114 0.60847 0.0
C187 C 0.59793 0.15057 0.58406 0.0
C188 C 0.5987 0.1922 0.52618 0.0
C189 C 0.55066 0.16837 0.46575 0.0
C190 C 0.5656 0.16874 0.49103 0.0
C191 C 0.60992 0.16927 0.56313 0.0
C192 C 0.59517 0.16922 0.53782 0.0
H193 H 0.52915 0.13666 0.40385 0.0
H194 H 0.5512 0.13627 0.44603 0.0
H195 H 0.58772 0.21006 0.49455 0.0
H196 H 0.66841 0.20404 0.59435 0.0
H197 H 0.64577 0.20269 0.55128 0.0
C198 C 0.33521 0.53384 0.7719 0.0
C199 C 0.34788 0.52931 0.7498 0.0
C200 C 0.34863 0.54696 0.79612 0.0
C201 C 0.40975 0.56757 0.83485 0.0
H202 H 0.39548 0.61747 0.86859 0.0
C203 C 0.45588 0.61727 0.93938 0.0
C204 C 0.46212 0.64281 0.94376 0.0
C205 C 0.4426 0.60391 0.91544 0.0
C206 C 0.39993 0.60382 0.85925 0.0
H207 H 0.38462 0.53455 0.73649 0.0
H208 H 0.40768 0.55735 0.77799 0.0
H209 H 0.37027 0.5924 0.82853 0.0
H210 H 0.45974 0.67445 0.92555 0.0
H211 H 0.43704 0.65126 0.88329 0.0
H212 H 0.43984 0.5794 0.86486 0.0
C213 C 0.38738 0.55061 0.77701 0.0
C214 C 0.38516 0.58911 0.83651 0.0
C215 C 0.37406 0.53757 0.75297 0.0
C216 C 0.45541 0.65487 0.9229 0.0
C217 C 0.44208 0.64144 0.8988 0.0
C218 C 0.42454 0.5823 0.85744 0.0
C219 C 0.375 0.55579 0.79886 0.0
C220 C 0.3899 0.57079 0.82392 0.0
C221 C 0.43517 0.61563 0.89492 0.0
C222 C 0.41986 0.60063 0.87006 0.0
H223 H 0.31512 0.52789 0.77021 0.0
H224 H 0.33833 0.55027 0.81265 0.0
H225 H 0.41386 0.55349 0.82604 0.0
H226 H 0.46058 0.60719 0.9549 0.0
H227 H 0.43742 0.58403 0.91354 0.0
C228 C 0.80025 0.46 0.25534 0.0
C229 C 0.81807 0.46529 0.27696 0.0
C230 C 0.80056 0.44702 0.231 0.0
C231 C 0.84194 0.42879 0.19033 0.0
H232 H 0.77783 0.37654 0.15866 0.0
C233 C 0.83752 0.38006 0.08464 0.0
C234 C 0.81939 0.35399 0.08099 0.0
C235 C 0.83756 0.39317 0.10882 0.0
C236 C 0.79593 0.39088 0.16739 0.0
H237 H 0.85066 0.46153 0.28926 0.0
H238 H 0.85109 0.4391 0.24738 0.0
H239 H 0.77752 0.40105 0.19924 0.0
H240 H 0.7874 0.32124 0.10063 0.0
H241 H 0.78776 0.34408 0.14318 0.0
H242 H 0.86039 0.41834 0.15902 0.0
C243 C 0.83696 0.44508 0.24893 0.0
C244 C 0.79575 0.40524 0.19045 0.0
C245 C 0.83662 0.45793 0.27315 0.0
C246 C 0.80173 0.34124 0.10271 0.0
C247 C 0.80175 0.35444 0.12699 0.0
C248 C 0.84212 0.41447 0.16735 0.0
C249 C 0.81879 0.43914 0.22759 0.0
C250 C 0.81877 0.42439 0.20231 0.0
C251 C 0.81952 0.3807 0.13024 0.0
C252 C 0.81914 0.39531 0.15546 0.0
H253 H 0.7856 0.46522 0.25753 0.0
H254 H 0.78646 0.4431 0.21488 0.0
H255 H 0.86008 0.4435 0.1986 0.0
H256 H 0.85142 0.39066 0.06845 0.0
H257 H 0.85135 0.41339 0.11026 0.0
C258 C 0.44177 0.78583 0.43289 0.0
C259 C 0.4575 0.80881 0.41856 0.0
C260 C 0.42779 0.78549 0.45658 0.0
C261 C 0.40444 0.82557 0.49202 0.0
H262 H 0.38545 0.77549 0.55142 0.0
C263 C 0.3625 0.83215 0.59914 0.0
C264 C 0.34123 0.80978 0.60944 0.0
C265 C 0.37523 0.83152 0.57489 0.0
C266 C 0.39042 0.78945 0.53483 0.0
H267 H 0.47204 0.84965 0.41889 0.0
H268 H 0.4491 0.8494 0.46088 0.0
H269 H 0.41221 0.77588 0.51284 0.0
H270 H 0.31658 0.76921 0.60208 0.0
H271 H 0.33922 0.76804 0.55988 0.0
H272 H 0.38338 0.83967 0.51477 0.0
C273 C 0.44646 0.83135 0.4533 0.0
C274 C 0.40576 0.78967 0.51259 0.0
C275 C 0.45999 0.83159 0.42935 0.0
C276 C 0.33267 0.78684 0.5945 0.0
C277 C 0.34579 0.7861 0.57053 0.0
C278 C 0.38952 0.82561 0.51448 0.0
C279 C 0.42949 0.80821 0.46685 0.0
C280 C 0.41312 0.80781 0.49082 0.0
C281 C 0.3674 0.8084 0.56064 0.0
C282 C 0.38235 0.80759 0.53617 0.0
H283 H 0.43912 0.76789 0.42489 0.0
H284 H 0.41484 0.76721 0.46605 0.0
H285 H 0.40891 0.83941 0.47545 0.0
H286 H 0.36968 0.8501 0.61023 0.0
H287 H 0.39187 0.84898 0.56789 0.0
C288 C 0.53982 0.37771 0.94061 0.0
C289 C 0.52778 0.35094 0.9437 0.0
C290 C 0.55305 0.38976 0.91609 0.0
C291 C 0.55979 0.38015 0.84115 0.0
H292 H 0.62613 0.44138 0.84938 0.0
C293 C 0.61058 0.44891 0.74884 0.0
C294 C 0.63685 0.45789 0.74471 0.0
C295 C 0.59808 0.4356 0.77315 0.0
C296 C 0.60773 0.42422 0.84669 0.0
H297 H 0.51965 0.31591 0.9225 0.0
H298 H 0.54241 0.33706 0.87926 0.0
H299 H 0.60224 0.41796 0.891 0.0
H300 H 0.67058 0.46037 0.76382 0.0
H301 H 0.64871 0.43747 0.80672 0.0
H302 H 0.56515 0.38658 0.79684 0.0
C303 C 0.54166 0.34863 0.89615 0.0
C304 C 0.59392 0.41092 0.87056 0.0
C305 C 0.52857 0.3365 0.92094 0.0
C306 C 0.65041 0.45387 0.76622 0.0
C307 C 0.63786 0.4407 0.79081 0.0
C308 C 0.57346 0.39363 0.81729 0.0
C309 C 0.55451 0.37548 0.89368 0.0
C310 C 0.56966 0.38882 0.86811 0.0
C311 C 0.61141 0.43099 0.79432 0.0
C312 C 0.59753 0.41599 0.81976 0.0
H313 H 0.53967 0.38962 0.95748 0.0
H314 H 0.56226 0.41039 0.91472 0.0
H315 H 0.54116 0.36328 0.83849 0.0
H316 H 0.59935 0.4516 0.73293 0.0
H317 H 0.57784 0.42886 0.77536 0.0
C318 C 0.20105 0.54398 0.26199 0.0
C319 C 0.17813 0.52939 0.27693 0.0
C320 C 0.20161 0.55765 0.23795 0.0
C321 C 0.16218 0.56148 0.18172 0.0
H322 H 0.21109 0.63416 0.18097 0.0
C323 C 0.15675 0.62604 0.09626 0.0
C324 C 0.17963 0.64658 0.08596 0.0
C325 C 0.15669 0.61268 0.12026 0.0
C326 C 0.19754 0.61385 0.18046 0.0
H327 H 0.13765 0.51682 0.27755 0.0
H328 H 0.13848 0.53983 0.23505 0.0
H329 H 0.2114 0.60772 0.21946 0.0
H330 H 0.22037 0.66952 0.09322 0.0
H331 H 0.22055 0.64579 0.13445 0.0
H332 H 0.14874 0.5671 0.14248 0.0
C333 C 0.15606 0.54098 0.24215 0.0
C334 C 0.19771 0.5987 0.20265 0.0
C335 C 0.15559 0.52778 0.26648 0.0
C336 C 0.20236 0.65401 0.10083 0.0
C337 C 0.2024 0.6403 0.12457 0.0
C338 C 0.16229 0.57649 0.15928 0.0
C339 C 0.17917 0.55657 0.22799 0.0
C340 C 0.1799 0.57238 0.20364 0.0
C341 C 0.17962 0.61904 0.13435 0.0
C342 C 0.17979 0.60302 0.15838 0.0
H343 H 0.2188 0.54589 0.26966 0.0
H344 H 0.21967 0.56937 0.22735 0.0
H345 H 0.14836 0.54121 0.18177 0.0
H346 H 0.13887 0.61989 0.08536 0.0
H347 H 0.13858 0.59706 0.12745 0.0
C348 C 0.75607 0.40012 0.37694 0.0
C349 C 0.75184 0.42103 0.3774 0.0
C350 C 0.73574 0.37545 0.37223 0.0
C351 C 0.67956 0.34832 0.33062 0.0
H352 H 0.65502 0.28422 0.37024 0.0
C353 C 0.57981 0.26356 0.31632 0.0
C354 C 0.57547 0.23864 0.31987 0.0
C355 C 0.60431 0.28443 0.31927 0.0
C356 C 0.66211 0.30188 0.35859 0.0
H357 H 0.72266 0.43204 0.37742 0.0
H358 H 0.68737 0.38904 0.36903 0.0
H359 H 0.69165 0.32318 0.38872 0.0
H360 H 0.59369 0.21589 0.3268 0.0
H361 H 0.63665 0.25255 0.33183 0.0
H362 H 0.65017 0.32743 0.30061 0.0
C363 C 0.70644 0.39189 0.37171 0.0
C364 C 0.68282 0.32409 0.36932 0.0
C365 C 0.72664 0.41645 0.37656 0.0
C366 C 0.59641 0.2349 0.32413 0.0
C367 C 0.62097 0.25584 0.32721 0.0
C368 C 0.65913 0.32619 0.31975 0.0
C369 C 0.7111 0.37156 0.36798 0.0
C370 C 0.69101 0.34753 0.35587 0.0
C371 C 0.62495 0.28078 0.32579 0.0
C372 C 0.64963 0.30293 0.33413 0.0
H373 H 0.77524 0.40298 0.37788 0.0
H374 H 0.73958 0.35987 0.36964 0.0
H375 H 0.68612 0.36623 0.31958 0.0
H376 H 0.56409 0.26704 0.31274 0.0
H377 H 0.60674 0.30344 0.31824 0.0
C378 C 0.309 0.72717 0.71683 0.0
C379 C 0.32896 0.75239 0.71284 0.0
C380 C 0.31282 0.70677 0.71099 0.0
C381 C 0.35548 0.68283 0.6972 0.0
H382 H 0.30937 0.64757 0.63532 0.0
C383 C 0.35032 0.59382 0.64902 0.0
C384 C 0.3252 0.57293 0.64902 0.0
C385 C 0.35468 0.61869 0.65169 0.0
C386 C 0.32238 0.65722 0.65251 0.0
H387 H 0.36955 0.77605 0.70394 0.0
H388 H 0.37613 0.74009 0.694 0.0
H389 H 0.30972 0.68436 0.65675 0.0
H390 H 0.28505 0.56188 0.64846 0.0
H391 H 0.2926 0.60501 0.65335 0.0
H392 H 0.36722 0.65489 0.69398 0.0
C393 C 0.35752 0.73631 0.70112 0.0
C394 C 0.32251 0.67815 0.66479 0.0
C395 C 0.35368 0.75682 0.70683 0.0
C396 C 0.30462 0.57754 0.64877 0.0
C397 C 0.30898 0.60234 0.65139 0.0
C398 C 0.35512 0.66159 0.68512 0.0
C399 C 0.3367 0.71133 0.70148 0.0
C400 C 0.33851 0.69059 0.68768 0.0
C401 C 0.33401 0.62303 0.65417 0.0
C402 C 0.33802 0.64817 0.66318 0.0
H403 H 0.28987 0.72312 0.72204 0.0
H404 H 0.29666 0.68748 0.71185 0.0
H405 H 0.3681 0.69243 0.7147 0.0
H406 H 0.36664 0.59094 0.64894 0.0
H407 H 0.37418 0.63437 0.65322 0.0
C408 C 0.57622 0.30898 0.04579 0.0
C409 C 0.57247 0.33009 0.04423 0.0
C410 C 0.60062 0.31231 0.04296 0.0
C411 C 0.66 0.3555 1.00711 0.0
H412 H 0.68165 0.31047 0.03931 0.0
C413 C 0.7548 0.35454 0.98527 0.0
C414 C 0.75165 0.32991 0.98258 0.0
C415 C 0.73375 0.35749 0.99095 0.0
C416 C 0.67571 0.32308 0.0301 0.0
H417 H 0.59167 0.37153 0.04162 0.0
H418 H 0.63443 0.3773 0.03706 0.0
H419 H 0.64522 0.31172 0.05947 0.0
H420 H 0.7237 0.28944 0.97966 0.0
H421 H 0.6871 0.29472 0.98961 0.0
H422 H 0.69073 0.36677 0.97772 0.0
C423 C 0.61836 0.35815 0.03975 0.0
C424 C 0.65499 0.32388 0.04168 0.0
C425 C 0.59389 0.35482 0.04259 0.0
C426 C 0.72683 0.30862 0.98224 0.0
C427 C 0.70589 0.31159 0.98803 0.0
C428 C 0.68099 0.3549 0.9957 0.0
C429 C 0.62178 0.33683 0.03868 0.0
C430 C 0.64645 0.33951 0.0298 0.0
C431 C 0.70943 0.33588 0.99395 0.0
C432 C 0.68843 0.3381 1.00663 0.0
H433 H 0.56015 0.28969 0.04738 0.0
H434 H 0.60258 0.29545 0.04212 0.0
H435 H 0.65367 0.36754 0.99728 0.0
H436 H 0.77366 0.37137 0.98536 0.0
H437 H 0.73678 0.37643 0.99522 0.0
C438 C 0.39145 0.76082 0.32006 0.0
C439 C 0.41037 0.75413 0.31522 0.0
C440 C 0.36623 0.74187 0.32531 0.0
C441 C 0.33777 0.68854 0.36592 0.0
H442 H 0.27414 0.65468 0.32447 0.0
C443 C 0.2603 0.58561 0.38374 0.0
C444 C 0.23466 0.5783 0.3787 0.0
C445 C 0.27937 0.61105 0.38065 0.0
C446 C 0.29159 0.66442 0.3366 0.0
H447 H 0.41701 0.72241 0.30796 0.0
H448 H 0.37297 0.68947 0.31726 0.0
H449 H 0.3115 0.69177 0.30388 0.0
H450 H 0.20859 0.59231 0.36934 0.0
H451 H 0.24207 0.63676 0.36382 0.0
H452 H 0.31849 0.66084 0.39815 0.0
C453 C 0.37785 0.70935 0.31735 0.0
C454 C 0.31288 0.68541 0.32471 0.0
C455 C 0.403 0.72821 0.31209 0.0
C456 C 0.22822 0.59728 0.37314 0.0
C457 C 0.24734 0.62272 0.36982 0.0
C458 C 0.31657 0.66768 0.37782 0.0
C459 C 0.35976 0.71617 0.32543 0.0
C460 C 0.3362 0.69695 0.339 0.0
C461 C 0.27312 0.62959 0.3724 0.0
C462 C 0.29356 0.65486 0.36284 0.0
H463 H 0.39645 0.78063 0.32233 0.0
H464 H 0.35237 0.74733 0.33153 0.0
H465 H 0.35573 0.69749 0.37723 0.0
H466 H 0.26583 0.57147 0.38832 0.0
H467 H 0.29913 0.6158 0.38267 0.0
C468 C 0.62584 0.39427 0.65301 0.0
C469 C 0.64754 0.41328 0.63913 0.0
C470 C 0.62239 0.36984 0.6562 0.0
C471 C 0.66414 0.34171 0.65926 0.0
H472 H 0.60108 0.28142 0.68144 0.0
C473 C 0.62862 0.23189 0.69333 0.0
C474 C 0.65127 0.23649 0.70662 0.0
C475 C 0.62505 0.25219 0.68598 0.0
C476 C 0.61888 0.29797 0.67508 0.0
H477 H 0.68055 0.421 0.61414 0.0
H478 H 0.67348 0.37767 0.61772 0.0
H479 H 0.59944 0.31652 0.65871 0.0
H480 H 0.68648 0.26531 0.72572 0.0
H481 H 0.67942 0.30072 0.71483 0.0
H482 H 0.68353 0.32273 0.67389 0.0
C483 C 0.65999 0.38196 0.62776 0.0
C484 C 0.61795 0.31827 0.66225 0.0
C485 C 0.66391 0.40668 0.62534 0.0
C486 C 0.66901 0.26137 0.71516 0.0
C487 C 0.66508 0.28163 0.70852 0.0
C488 C 0.66502 0.32123 0.67137 0.0
C489 C 0.64026 0.36381 0.64493 0.0
C490 C 0.64062 0.34062 0.65463 0.0
C491 C 0.64379 0.27744 0.6924 0.0
C492 C 0.64247 0.29928 0.67995 0.0
H493 H 0.61293 0.39892 0.66388 0.0
H494 H 0.60698 0.35657 0.6696 0.0
H495 H 0.68211 0.35869 0.65437 0.0
H496 H 0.61466 0.21286 0.68635 0.0
H497 H 0.60846 0.2481 0.67352 0.0
C498 C 0.22986 0.62962 0.98674 0.0
C499 C 0.23577 0.65491 0.98146 0.0
C500 C 0.24934 0.62364 0.98865 0.0
C501 C 0.31905 0.65004 0.97823 0.0
H502 H 0.31568 0.61897 0.05056 0.0
C503 C 0.40755 0.67723 0.04099 0.0
C504 C 0.41407 0.65793 0.04166 0.0
C505 C 0.38269 0.67122 0.03459 0.0
C506 C 0.31663 0.62728 0.03016 0.0
H507 H 0.26622 0.69303 0.97079 0.0
H508 H 0.30006 0.68271 0.97423 0.0
H509 H 0.27735 0.6174 0.03128 0.0
H510 H 0.39891 0.61685 0.03989 0.0
H511 H 0.35517 0.60648 0.02906 0.0
H512 H 0.35876 0.66143 0.97815 0.0
C513 C 0.2805 0.66745 0.97702 0.0
C514 C 0.29476 0.62624 0.01898 0.0
C515 C 0.2611 0.67345 0.97524 0.0
C516 C 0.39456 0.6322 0.03925 0.0
C517 C 0.36956 0.62619 0.033 0.0
C518 C 0.34087 0.6513 0.98954 0.0
C519 C 0.27494 0.64279 0.98502 0.0
C520 C 0.29605 0.63848 0.99339 0.0
C521 C 0.36395 0.64584 0.0292 0.0
C522 C 0.33995 0.64073 0.01596 0.0
H523 H 0.21047 0.61482 0.99141 0.0
H524 H 0.24452 0.60439 0.9944 0.0
H525 H 0.32049 0.65926 0.9583 0.0
H526 H 0.422 0.69718 0.04321 0.0
H527 H 0.37846 0.68655 0.03209 0.0
C528 C 0.48548 0.07237 0.32836 0.0
C529 C 0.50956 0.0946 0.32682 0.0
C530 C 0.48359 0.0485 0.33095 0.0
C531 C 0.51929 0.01494 0.31883 0.0
H532 H 0.46962 0.96511 0.37029 0.0
C533 C 0.51187 0.91746 0.33914 0.0
C534 C 0.48698 0.89639 0.33781 0.0
C535 C 0.51575 0.94225 0.34008 0.0
C536 C 0.48349 0.97883 0.35577 0.0
H537 H 0.55053 0.10938 0.32663 0.0
H538 H 0.5472 0.06767 0.33133 0.0
H539 H 0.47409 0.00746 0.36676 0.0
H540 H 0.44662 0.88456 0.33715 0.0
H541 H 0.45341 0.92777 0.33866 0.0
H542 H 0.52851 0.98621 0.30764 0.0
C543 C 0.52981 0.06868 0.33025 0.0
C544 C 0.486 0.00299 0.35369 0.0
C545 C 0.5317 0.09254 0.32765 0.0
C546 C 0.46604 0.90045 0.33811 0.0
C547 C 0.46991 0.92517 0.33917 0.0
C548 C 0.51681 0.99079 0.32094 0.0
C549 C 0.50575 0.04645 0.33205 0.0
C550 C 0.50373 0.02117 0.33498 0.0
C551 C 0.49478 0.94629 0.33988 0.0
C552 C 0.4987 0.97244 0.33921 0.0
H553 H 0.4681 0.07341 0.32772 0.0
H554 H 0.46478 0.03162 0.33187 0.0
H555 H 0.53292 0.0285 0.304 0.0
H556 H 0.52835 0.91484 0.33902 0.0
H557 H 0.53512 0.95824 0.34088 0.0
C558 C 0.40444 0.48649 0.6661 0.0
C559 C 0.40549 0.5101 0.6631 0.0
C560 C 0.42692 0.48547 0.66835 0.0
C561 C 0.49545 0.52213 0.65207 0.0
H562 H 0.49905 0.47427 0.70347 0.0
C563 C 0.58664 0.51516 0.6662 0.0
C564 C 0.58255 0.49018 0.66453 0.0
C565 C 0.56592 0.51923 0.66862 0.0
C566 C 0.49825 0.48768 0.68901 0.0
H567 H 0.43072 0.55117 0.66034 0.0
H568 H 0.46997 0.54937 0.66456 0.0
H569 H 0.46082 0.47828 0.7026 0.0
H570 H 0.5538 0.44988 0.66466 0.0
H571 H 0.51771 0.45702 0.66885 0.0
H572 H 0.53281 0.53132 0.63832 0.0
C573 C 0.45182 0.53165 0.66478 0.0
C574 C 0.47639 0.48992 0.68844 0.0
C575 C 0.42936 0.53267 0.66245 0.0
C576 C 0.55751 0.46936 0.66582 0.0
C577 C 0.53687 0.47342 0.66845 0.0
C578 C 0.51736 0.51996 0.65274 0.0
C579 C 0.45082 0.50804 0.66774 0.0
C580 C 0.47462 0.50687 0.66964 0.0
C581 C 0.54087 0.49837 0.66968 0.0
C582 C 0.51876 0.50242 0.67089 0.0
H583 H 0.38628 0.4688 0.66662 0.0
H584 H 0.42558 0.46696 0.67017 0.0
H585 H 0.49451 0.53515 0.63715 0.0
H586 H 0.60578 0.53154 0.66531 0.0
H587 H 0.56945 0.53865 0.6697 0.0
C588 C 0.89742 0.43582 0.99245 0.0
C589 C 0.89576 0.41179 0.99291 0.0
C590 C 0.92108 0.4581 0.995 0.0
C591 C 0.98664 0.48131 0.02023 0.0
H592 H 0.00362 0.53951 0.97222 0.0
C593 C 0.08922 0.56377 1.0046 0.0
C594 C 0.09325 0.58875 1.00384 0.0
C595 C 0.0645 0.54288 1.00543 0.0
C596 C -0.00102 0.52353 0.98604 0.0
H597 H 0.91747 0.39214 0.99603 0.0
H598 H 0.95883 0.43106 1.00004 0.0
H599 H 0.96146 0.50136 0.9688 0.0
H600 H 0.07471 0.6116 1.00379 0.0
H601 H 0.0313 0.5749 1.0052 0.0
H602 H 0.02434 0.50332 0.03708 0.0
C603 C 0.94182 0.43268 0.9982 0.0
C604 C 0.97489 0.50171 0.98408 0.0
C605 C 0.91817 0.41041 0.99569 0.0
C606 C 0.07212 0.59252 1.00433 0.0
C607 C 0.04733 0.57157 1.005 0.0
C608 C 0.01073 0.50308 0.02213 0.0
C609 C 0.94349 0.45673 0.99804 0.0
C610 C 0.9686 0.48029 1.00094 0.0
C611 C 0.04333 0.54658 1.00541 0.0
C612 C 0.01721 0.52427 1.00484 0.0
H613 H 0.88042 0.43744 0.99045 0.0
H614 H 0.92178 0.47637 0.99508 0.0
H615 H 0.98214 0.46525 0.03387 0.0
H616 H 0.10515 0.56028 1.00427 0.0
H617 H 0.06194 0.5238 1.00539 0.0
C618 C 0.0895 0.5257 0.35795 0.0
C619 C 0.09248 0.50412 0.35942 0.0
C620 C 0.06522 0.52293 0.35743 0.0
C621 C -0.00249 0.47706 0.34364 0.0
H622 H 0.98654 0.52312 0.39065 0.0
C623 C 0.89773 0.46381 0.36596 0.0
C624 C 0.89565 0.48593 0.36471 0.0
C625 C 0.92164 0.46564 0.36459 0.0
C626 C 0.9894 0.51031 0.37721 0.0
H627 H 0.0725 0.4627 0.36086 0.0
H628 H 0.02981 0.45782 0.36035 0.0
H629 H 0.02851 0.52674 0.38933 0.0
H630 H 0.9168 0.52726 0.36086 0.0
H631 H 0.95862 0.53044 0.35844 0.0
H632 H 0.95822 0.46054 0.33171 0.0
C633 C 0.04633 0.47686 0.35931 0.0
C634 C 0.0134 0.51238 0.37643 0.0
C635 C 0.07072 0.47965 0.35973 0.0
C636 C 0.91786 0.5099 0.36199 0.0
C637 C 0.94177 0.51173 0.36072 0.0
C638 C 0.97343 0.47495 0.34448 0.0
C639 C 0.04339 0.49852 0.35851 0.0
C640 C 0.01774 0.49587 0.35953 0.0
C641 C 0.94387 0.48962 0.36205 0.0
C642 C 0.96923 0.49164 0.36119 0.0
H643 H 0.10595 0.54482 0.3574 0.0
H644 H 0.06353 0.53993 0.35625 0.0
H645 H 0.0004 0.46427 0.3302 0.0
H646 H 0.88091 0.44507 0.36802 0.0
H647 H 0.92278 0.44833 0.36595 0.0
C648 C 0.55422 0.09076 0.69967 0.0
C649 C 0.57857 0.09318 0.70054 0.0
C650 C 0.53244 0.06675 0.69729 0.0
C651 C 0.51078 0.00067 0.67538 0.0
H652 H 0.45162 0.98505 0.72115 0.0
C653 C 0.42619 0.89875 0.69128 0.0
C654 C 0.40151 0.89554 0.69116 0.0
C655 C 0.44759 0.92316 0.69027 0.0
C656 C 0.46787 0.98928 0.70796 0.0
H657 H 0.59932 0.07249 0.69969 0.0
H658 H 0.56111 0.03035 0.69599 0.0
H659 H 0.48973 0.02714 0.72429 0.0
H660 H 0.37974 0.91518 0.68917 0.0
H661 H 0.41726 0.95796 0.68741 0.0
H662 H 0.48895 0.96259 0.65939 0.0
C663 C 0.55894 0.04709 0.69673 0.0
C664 C 0.48968 0.01333 0.70978 0.0
C665 C 0.58077 0.07115 0.69905 0.0
C666 C 0.39856 0.91712 0.68943 0.0
C667 C 0.41999 0.94157 0.68854 0.0
C668 C 0.48897 0.97656 0.67363 0.0
C669 C 0.53457 0.04468 0.69582 0.0
C670 C 0.51138 0.01923 0.69359 0.0
C671 C 0.44468 0.94479 0.68921 0.0
C672 C 0.46737 0.97064 0.69 0.0
H673 H 0.55194 0.10743 0.70059 0.0
H674 H 0.51393 0.06551 0.69625 0.0
H675 H 0.5271 0.00485 0.66234 0.0
H676 H 0.42903 0.88243 0.69253 0.0
H677 H 0.46642 0.92513 0.6911 0.0
C678 C 0.46703 0.5631 0.03261 0.0
C679 C 0.48816 0.58795 0.0315 0.0
C680 C 0.47055 0.54201 0.03266 0.0
C681 C 0.51673 0.52157 0.01454 0.0
H682 H 0.47493 0.46516 0.0645 0.0
C683 C 0.53194 0.43535 0.0317 0.0
C684 C 0.5097 0.4112 0.03157 0.0
C685 C 0.53018 0.45751 0.03165 0.0
C686 C 0.48658 0.4807 0.05029 0.0
H687 H 0.52955 0.61034 0.02935 0.0
H688 H 0.53573 0.57336 0.02977 0.0
H689 H 0.47044 0.50305 0.06467 0.0
H690 H 0.46823 0.39118 0.03099 0.0
H691 H 0.46518 0.4299 0.03088 0.0
H692 H 0.53289 0.49909 1.00025 0.0
C693 C 0.51644 0.57023 0.03029 0.0
C694 C 0.484 0.50235 0.05036 0.0
C695 C 0.51291 0.59136 0.03019 0.0
C696 C 0.4857 0.40955 0.03118 0.0
C697 C 0.48394 0.43169 0.03127 0.0
C698 C 0.51937 0.4999 0.01454 0.0
C699 C 0.49528 0.54536 0.03169 0.0
C700 C 0.49885 0.52288 0.03228 0.0
C701 C 0.50615 0.45584 0.03163 0.0
C702 C 0.50412 0.47919 0.03223 0.0
H703 H 0.44772 0.55989 0.03345 0.0
H704 H 0.45387 0.52305 0.03324 0.0
H705 H 0.52824 0.53702 1.00019 0.0
H706 H 0.55071 0.43716 0.03197 0.0
H707 H 0.54758 0.47593 0.03212 0.0
C708 C 0.50983 0.19711 0.24961 0.0
C709 C 0.49187 0.18538 0.27126 0.0
C710 C 0.50584 0.21054 0.22835 0.0
C711 C 0.45959 0.2151 0.186 0.0
H712 H 0.51248 0.28566 0.17458 0.0
C713 C 0.47814 0.27706 0.08346 0.0
C714 C 0.48356 0.30223 0.08841 0.0
C715 C 0.47455 0.26064 0.10614 0.0
C716 C 0.49747 0.266 0.17753 0.0
H717 H 0.45553 0.17851 0.28763 0.0
H718 H 0.44813 0.20179 0.24948 0.0
H719 H 0.5151 0.26191 0.21458 0.0
H720 H 0.48736 0.32916 0.12078 0.0
H721 H 0.48122 0.30083 0.15975 0.0
H722 H 0.44248 0.21913 0.14815 0.0
C723 C 0.4654 0.20055 0.24939 0.0
C724 C 0.49899 0.25245 0.20043 0.0
C725 C 0.46971 0.18746 0.27124 0.0
C726 C 0.48358 0.31 0.1162 0.0
C727 C 0.4801 0.2938 0.13861 0.0
C728 C 0.4583 0.22861 0.16264 0.0
C729 C 0.48355 0.21224 0.22782 0.0
C730 C 0.48013 0.22689 0.20491 0.0
C731 C 0.47642 0.26927 0.13396 0.0
C732 C 0.47726 0.25424 0.15824 0.0
H733 H 0.52719 0.19601 0.24912 0.0
H734 H 0.52013 0.2194 0.21203 0.0
H735 H 0.445 0.19528 0.18885 0.0
H736 H 0.47807 0.27057 0.06229 0.0
H737 H 0.47176 0.24178 0.10199 0.0
C738 C 0.17158 0.48628 0.44947 0.0
C739 C 0.17857 0.4854 0.42155 0.0
C740 C 0.18353 0.48132 0.47167 0.0
C741 C 0.24406 0.4844 0.48942 0.0
H742 H 0.20835 0.44997 0.55758 0.0
C743 C 0.29961 0.47535 0.58131 0.0
C744 C 0.29415 0.48086 0.60817 0.0
C745 C 0.28305 0.47093 0.55896 0.0
C746 C 0.21863 0.45979 0.53879 0.0
H747 H 0.20309 0.47781 0.39499 0.0
H748 H 0.22414 0.46908 0.43395 0.0
H749 H 0.18412 0.45099 0.51705 0.0
H750 H 0.26626 0.4846 0.6331 0.0
H751 H 0.23734 0.4775 0.5937 0.0
H752 H 0.27857 0.49391 0.51114 0.0
C753 C 0.20943 0.4738 0.4386 0.0
C754 C 0.20474 0.46032 0.5155 0.0
C755 C 0.19728 0.47861 0.41627 0.0
C756 C 0.2709 0.4803 0.61264 0.0
C757 C 0.25436 0.47623 0.59001 0.0
C758 C 0.25792 0.48395 0.51264 0.0
C759 C 0.20293 0.47545 0.46661 0.0
C760 C 0.21731 0.47283 0.49059 0.0
C761 C 0.26073 0.47237 0.56267 0.0
C762 C 0.24545 0.47176 0.53773 0.0
H763 H 0.15718 0.49139 0.45431 0.0
H764 H 0.17822 0.4831 0.49288 0.0
H765 H 0.25444 0.49467 0.47085 0.0
H766 H 0.31728 0.47537 0.57731 0.0
H767 H 0.28824 0.46721 0.53849 0.0
C768 C 0.81857 0.30605 0.91066 0.0
C769 C 0.81151 0.30026 0.93896 0.0
C770 C 0.80526 0.28827 0.8896 0.0
C771 C 0.74141 0.2348 0.87488 0.0
H772 H 0.77319 0.22817 0.80714 0.0
C773 C 0.67971 0.17042 0.78518 0.0
C774 C 0.68643 0.1797 0.75767 0.0
C775 C 0.69661 0.18226 0.80737 0.0
C776 C 0.76399 0.22995 0.82579 0.0
H777 H 0.78565 0.27073 0.96749 0.0
H778 H 0.76204 0.23942 0.93046 0.0
H779 H 0.79985 0.25301 0.84658 0.0
H780 H 0.71659 0.20814 0.73163 0.0
H781 H 0.74619 0.22948 0.77066 0.0
H782 H 0.70567 0.21261 0.85402 0.0
C783 C 0.77793 0.25792 0.92466 0.0
C784 C 0.77928 0.24409 0.84848 0.0
C785 C 0.79154 0.27573 0.94589 0.0
C786 C 0.71096 0.20052 0.75261 0.0
C787 C 0.72789 0.21268 0.77502 0.0
C788 C 0.72617 0.2208 0.8522 0.0
C789 C 0.78433 0.26421 0.89619 0.0
C790 C 0.76818 0.24691 0.87322 0.0
C791 C 0.72064 0.20405 0.80282 0.0
C792 C 0.7372 0.2183 0.82723 0.0
H793 H 0.83395 0.32478 0.90462 0.0
H794 H 0.81061 0.29393 0.86799 0.0
H795 H 0.73221 0.23698 0.89331 0.0
H796 H 0.66104 0.15419 0.78972 0.0
H797 H 0.69056 0.17454 0.82825 0.0
C798 C 0.50823 0.71819 0.08252 0.0
C799 C 0.50753 0.69485 0.08675 0.0
C800 C 0.51207 0.73446 0.10535 0.0
C801 C 0.50346 0.73026 0.18252 0.0
H802 H 0.53866 0.80423 0.17936 0.0
C803 C 0.50971 0.79027 0.27978 0.0
C804 C 0.50386 0.80967 0.27471 0.0
C805 C 0.51434 0.77811 0.25731 0.0
C806 C 0.5287 0.78356 0.18056 0.0
H807 H 0.51237 0.67119 0.11748 0.0
H808 H 0.51995 0.69969 0.15669 0.0
H809 H 0.53915 0.78007 0.13848 0.0
H810 H 0.49943 0.83232 0.24225 0.0
H811 H 0.50735 0.81125 0.20345 0.0
H812 H 0.49261 0.73361 0.22429 0.0
C813 C 0.5166 0.70518 0.13622 0.0
C814 C 0.52893 0.76972 0.15708 0.0
C815 C 0.51247 0.68893 0.11365 0.0
C816 C 0.50379 0.81736 0.24691 0.0
C817 C 0.50855 0.80539 0.22458 0.0
C818 C 0.50328 0.74406 0.20594 0.0
C819 C 0.5155 0.7277 0.13266 0.0
C820 C 0.51619 0.74286 0.15771 0.0
C821 C 0.51341 0.78528 0.22939 0.0
C822 C 0.51568 0.77087 0.20522 0.0
H823 H 0.50435 0.72316 0.06201 0.0
H824 H 0.51106 0.75165 0.10182 0.0
H825 H 0.49295 0.70958 0.18367 0.0
H826 H 0.50989 0.78392 0.30097 0.0
H827 H 0.51829 0.76284 0.26177 0.0
C828 C 0.71128 0.51004 0.60687 0.0
C829 C 0.68709 0.50735 0.60226 0.0
C830 C 0.72793 0.51452 0.58424 0.0
C831 C 0.7257 0.50536 0.50706 0.0
H832 H 0.79946 0.54649 0.5119 0.0
C833 C 0.79025 0.51561 0.4124 0.0
C834 C 0.81054 0.51145 0.41899 0.0
C835 C 0.77671 0.51965 0.43386 0.0
C836 C 0.77887 0.53489 0.51021 0.0
H837 H 0.6621 0.50891 0.57068 0.0
H838 H 0.69111 0.51735 0.53176 0.0
H839 H 0.7732 0.54459 0.55181 0.0
H840 H 0.83354 0.50986 0.45297 0.0
H841 H 0.81027 0.51698 0.48997 0.0
H842 H 0.73131 0.49527 0.46573 0.0
C843 C 0.69707 0.51521 0.5525 0.0
C844 C 0.76382 0.53373 0.53316 0.0
C845 C 0.68048 0.51055 0.57492 0.0
C846 C 0.81792 0.5129 0.44718 0.0
C847 C 0.80465 0.51716 0.46846 0.0
C848 C 0.74072 0.50657 0.48414 0.0
C849 C 0.72074 0.51656 0.55664 0.0
C850 C 0.73702 0.51876 0.532 0.0
C851 C 0.78346 0.51995 0.46223 0.0
C852 C 0.76751 0.52109 0.4855 0.0
H853 H 0.71686 0.50758 0.62769 0.0
H854 H 0.74597 0.51534 0.58823 0.0
H855 H 0.70516 0.49323 0.50548 0.0
H856 H 0.78411 0.51455 0.39088 0.0
H857 H 0.76062 0.522 0.42831 0.0
C858 C 0.1699 0.68555 0.91472 0.0
C859 C 0.18021 0.69263 0.94179 0.0
C860 C 0.18165 0.70161 0.89186 0.0
C861 C 0.2309 0.76756 0.87068 0.0
H862 H 0.23382 0.73283 0.80358 0.0
C863 C 0.30338 0.81812 0.78117 0.0
C864 C 0.29591 0.81037 0.75333 0.0
C865 C 0.28674 0.80557 0.80343 0.0
C866 C 0.23282 0.74285 0.82192 0.0
H867 H 0.21044 0.72264 0.96633 0.0
H868 H 0.23154 0.75073 0.92609 0.0
H869 H 0.21032 0.70795 0.84426 0.0
H870 H 0.26466 0.78395 0.72693 0.0
H871 H 0.23538 0.76175 0.76602 0.0
H872 H 0.25415 0.80254 0.84836 0.0
C873 C 0.21405 0.7328 0.92263 0.0
C874 C 0.21932 0.72857 0.84536 0.0
C875 C 0.20202 0.71673 0.94572 0.0
C876 C 0.27096 0.79036 0.74814 0.0
C877 C 0.25429 0.77756 0.77054 0.0
C878 C 0.24453 0.78188 0.8472 0.0
C879 C 0.20433 0.72513 0.89528 0.0
C880 C 0.21825 0.74069 0.87015 0.0
C881 C 0.26218 0.78476 0.7985 0.0
C882 C 0.24581 0.76969 0.82259 0.0
H883 H 0.15291 0.66722 0.91105 0.0
H884 H 0.17314 0.69531 0.87134 0.0
H885 H 0.23024 0.77756 0.8892 0.0
H886 H 0.32246 0.83354 0.78591 0.0
H887 H 0.2936 0.8115 0.8246 0.0
loop_
_geom_bond_atom_site_label_1
_geom_bond_atom_site_label_2
_geom_bond_distance
_geom_bond_site_symmetry_2
_ccdc_geom_bond_type
Co0 O1 2.216 . S
Co0 O2 2.091 . S
Co0 O4 2.004 . S
Co0 O10 2.021 . S
Co0 O12 2.137 . S
Co0 O13 2.244 . S
O1 Co0 2.216 . S
O1 C8 1.247 . S
O2 Co0 2.091 . S
O2 C8 1.261 . S
C3 O12 1.247 . S
C3 O13 1.272 . S
O4 Co0 2.004 . S
O4 C9 1.259 . S
Co5 O6 2.061 . S
Co5 O11 2.052 . S
Co5 O13 2.135 . S
O6 Co5 2.061 . S
O6 C9 1.235 . S
C7 O10 1.238 . S
C7 O11 1.241 . S
C8 O1 1.247 . S
C8 O2 1.261 . S
C9 O4 1.259 . S
C9 O6 1.235 . S
O10 Co0 2.021 . S
O10 C7 1.238 . S
O11 Co5 2.052 . S
O11 C7 1.241 . S
O12 Co0 2.137 . S
O12 C3 1.247 . S
O13 Co0 2.244 . S
O13 C3 1.272 . S
O13 Co5 2.135 . S
Co14 O15 2.216 . S
Co14 O16 2.091 . S
Co14 O18 2.004 . S
Co14 O24 2.021 . S
Co14 O26 2.137 . S
Co14 O27 2.244 . S
O15 Co14 2.216 . S
O15 C22 1.247 . S
O16 Co14 2.091 . S
O16 C22 1.261 . S
C17 O26 1.247 . S
C17 O27 1.272 . S
O18 Co14 2.004 . S
O18 C23 1.259 . S
Co19 O20 2.061 . S
Co19 O25 2.052 . S
Co19 O27 2.135 . S
O20 Co19 2.061 . S
O20 C23 1.235 . S
C21 O24 1.238 . S
C21 O25 1.241 . S
C22 O15 1.247 . S
C22 O16 1.261 . S
C23 O18 1.259 . S
C23 O20 1.235 . S
O24 Co14 2.021 . S
O24 C21 1.238 . S
O25 Co19 2.052 . S
O25 C21 1.241 . S
O26 Co14 2.137 . S
O26 C17 1.247 . S
O27 Co14 2.244 . S
O27 C17 1.272 . S
O27 Co19 2.135 . S
Co28 O29 2.216 . S
Co28 O30 2.091 . S
Co28 O32 2.004 . S
Co28 O38 2.021 1_556 S
Co28 O40 2.137 . S
Co28 O41 2.244 . S
O29 Co28 2.216 . S
O29 C36 1.247 . S
O30 Co28 2.091 . S
O30 C36 1.261 . S
C31 O40 1.247 . S
C31 O41 1.272 . S
O32 Co28 2.004 . S
O32 C37 1.259 . S
Co33 O34 2.061 . S
Co33 O39 2.052 . S
Co33 O41 2.135 1_554 S
O34 Co33 2.061 . S
O34 C37 1.235 1_554 S
C35 O38 1.238 . S
C35 O39 1.241 . S
C36 O29 1.247 . S
C36 O30 1.261 . S
C37 O32 1.259 . S
C37 O34 1.235 1_556 S
O38 Co28 2.021 1_554 S
O38 C35 1.238 . S
O39 Co33 2.052 . S
O39 C35 1.241 . S
O40 Co28 2.137 . S
O40 C31 1.247 . S
O41 Co28 2.244 . S
O41 C31 1.272 . S
O41 Co33 2.135 1_556 S
Co42 O43 2.216 . S
Co42 O44 2.091 . S
Co42 O46 2.004 . S
Co42 O52 2.021 . S
Co42 O54 2.137 . S
Co42 O55 2.244 . S
O43 Co42 2.216 . S
O43 C50 1.247 . S
O44 Co42 2.091 . S
O44 C50 1.261 . S
C45 O54 1.247 . S
C45 O55 1.272 . S
O46 Co42 2.004 . S
O46 C51 1.259 . S
Co47 O48 2.061 . S
Co47 O53 2.052 . S
Co47 O55 2.135 . S
O48 Co47 2.061 . S
O48 C51 1.235 . S
C49 O52 1.238 . S
C49 O53 1.241 . S
C50 O43 1.247 . S
C50 O44 1.261 . S
C51 O46 1.259 . S
C51 O48 1.235 . S
O52 Co42 2.021 . S
O52 C49 1.238 . S
O53 Co47 2.052 . S
O53 C49 1.241 . S
O54 Co42 2.137 . S
O54 C45 1.247 . S
O55 Co42 2.244 . S
O55 C45 1.272 . S
O55 Co47 2.135 . S
Co56 O57 2.216 . S
Co56 O58 2.091 . S
Co56 O60 2.004 . S
Co56 O66 2.021 . S
Co56 O68 2.137 . S
Co56 O69 2.244 . S
O57 Co56 2.216 . S
O57 C64 1.247 . S
O58 Co56 2.091 . S
O58 C64 1.261 . S
C59 O68 1.247 . S
C59 O69 1.272 . S
O60 Co56 2.004 . S
O60 C65 1.259 . S
Co61 O62 2.061 . S
Co61 O67 2.052 . S
Co61 O69 2.135 . S
O62 Co61 2.061 . S
O62 C65 1.235 . S
C63 O66 1.238 . S
C63 O67 1.241 . S
C64 O57 1.247 . S
C64 O58 1.261 . S
C65 O60 1.259 . S
C65 O62 1.235 . S
O66 Co56 2.021 . S
O66 C63 1.238 . S
O67 Co61 2.052 . S
O67 C63 1.241 . S
O68 Co56 2.137 . S
O68 C59 1.247 . S
O69 Co56 2.244 . S
O69 C59 1.272 . S
O69 Co61 2.135 . S
Co70 O71 2.216 . S
Co70 O72 2.091 . S
Co70 O74 2.004 . S
Co70 O80 2.021 1_556 S
Co70 O82 2.137 . S
Co70 O83 2.244 . S
O71 Co70 2.216 . S
O71 C78 1.247 . S
O72 Co70 2.091 . S
O72 C78 1.261 . S
C73 O82 1.247 . S
C73 O83 1.272 . S
O74 Co70 2.004 . S
O74 C79 1.259 . S
Co75 O76 2.061 . S
Co75 O81 2.052 . S
Co75 O83 2.135 1_554 S
O76 Co75 2.061 . S
O76 C79 1.235 1_554 S
C77 O80 1.238 . S
C77 O81 1.241 . S
C78 O71 1.247 . S
C78 O72 1.261 . S
C79 O74 1.259 . S
C79 O76 1.235 1_556 S
O80 Co70 2.021 1_554 S
O80 C77 1.238 . S
O81 Co75 2.052 . S
O81 C77 1.241 . S
O82 Co70 2.137 . S
O82 C73 1.247 . S
O83 Co70 2.244 . S
O83 C73 1.272 . S
O83 Co75 2.135 1_556 S
Co84 O85 2.216 . S
Co84 O86 2.091 . S
Co84 O88 2.004 . S
Co84 O94 2.021 . S
Co84 O96 2.137 . S
Co84 O97 2.244 . S
O85 Co84 2.216 . S
O85 C92 1.247 . S
O86 Co84 2.091 . S
O86 C92 1.261 . S
C87 O96 1.247 . S
C87 O97 1.272 . S
O88 Co84 2.004 . S
O88 C93 1.259 . S
Co89 O90 2.061 . S
Co89 O95 2.052 . S
Co89 O97 2.135 . S
O90 Co89 2.061 . S
O90 C93 1.235 . S
C91 O94 1.238 . S
C91 O95 1.241 . S
C92 O85 1.247 . S
C92 O86 1.261 . S
C93 O88 1.259 . S
C93 O90 1.235 . S
O94 Co84 2.021 . S
O94 C91 1.238 . S
O95 Co89 2.052 . S
O95 C91 1.241 . S
O96 Co84 2.137 . S
O96 C87 1.247 . S
O97 Co84 2.244 . S
O97 C87 1.272 . S
O97 Co89 2.135 . S
Co98 O99 2.216 . S
Co98 O100 2.091 . S
Co98 O102 2.004 . S
Co98 O108 2.021 . S
Co98 O110 2.137 . S
Co98 O111 2.244 . S
O99 Co98 2.216 . S
O99 C106 1.247 . S
O100 Co98 2.091 . S
O100 C106 1.261 . S
C101 O110 1.247 . S
C101 O111 1.272 . S
O102 Co98 2.004 . S
O102 C107 1.259 . S
Co103 O104 2.061 . S
Co103 O109 2.052 . S
Co103 O111 2.135 . S
O104 Co103 2.061 . S
O104 C107 1.235 . S
C105 O108 1.238 . S
C105 O109 1.241 . S
C106 O99 1.247 . S
C106 O100 1.261 . S
C107 O102 1.259 . S
C107 O104 1.235 . S
O108 Co98 2.021 . S
O108 C105 1.238 . S
O109 Co103 2.052 . S
O109 C105 1.241 . S
O110 Co98 2.137 . S
O110 C101 1.247 . S
O111 Co98 2.244 . S
O111 C101 1.272 . S
O111 Co103 2.135 . S
Co112 O113 2.216 . S
Co112 O114 2.091 . S
Co112 O116 2.004 . S
Co112 O122 2.021 1_554 S
Co112 O124 2.137 . S
Co112 O125 2.244 . S
O113 Co112 2.216 . S
O113 C120 1.247 . S
O114 Co112 2.091 . S
O114 C120 1.261 . S
C115 O124 1.247 . S
C115 O125 1.272 . S
O116 Co112 2.004 . S
O116 C121 1.259 . S
Co117 O118 2.055 1_556 S
Co117 O123 2.073 . S
Co117 O125 2.114 1_556 S
O118 Co117 2.055 1_554 S
O118 C121 1.235 . S
C119 O122 1.238 . S
C119 O123 1.241 . S
C120 O113 1.247 . S
C120 O114 1.261 . S
C121 O116 1.259 . S
C121 O118 1.235 . S
O122 Co112 2.021 1_556 S
O122 C119 1.238 . S
O123 Co117 2.073 . S
O123 C119 1.241 . S
O124 Co112 2.137 . S
O124 C115 1.247 . S
O125 Co112 2.244 . S
O125 C115 1.272 . S
O125 Co117 2.114 1_554 S
Co126 O127 2.216 . S
Co126 O128 2.091 . S
Co126 O130 2.004 . S
Co126 O136 2.021 . S
Co126 O138 2.137 . S
Co126 O139 2.244 . S
O127 Co126 2.216 . S
O127 C134 1.247 . S
O128 Co126 2.091 . S
O128 C134 1.261 . S
C129 O138 1.247 . S
C129 O139 1.272 . S
O130 Co126 2.004 . S
O130 C135 1.259 . S
Co131 O132 2.061 . S
Co131 O137 2.052 . S
Co131 O139 2.135 . S
O132 Co131 2.061 . S
O132 C135 1.235 . S
C133 O136 1.238 . S
C133 O137 1.241 . S
C134 O127 1.247 . S
C134 O128 1.261 . S
C135 O130 1.259 . S
C135 O132 1.235 . S
O136 Co126 2.021 . S
O136 C133 1.238 . S
O137 Co131 2.052 . S
O137 C133 1.241 . S
O138 Co126 2.137 . S
O138 C129 1.247 . S
O139 Co126 2.244 . S
O139 C129 1.272 . S
O139 Co131 2.135 . S
Co140 O141 2.216 . S
Co140 O142 2.091 . S
Co140 O144 2.004 . S
Co140 O150 2.021 . S
Co140 O152 2.137 . S
Co140 O153 2.244 . S
O141 Co140 2.216 . S
O141 C148 1.247 . S
O142 Co140 2.091 . S
O142 C148 1.261 . S
C143 O152 1.247 . S
C143 O153 1.272 . S
O144 Co140 2.004 . S
O144 C149 1.259 . S
Co145 O146 2.061 . S
Co145 O151 2.052 . S
Co145 O153 2.135 . S
O146 Co145 2.061 . S
O146 C149 1.235 . S
C147 O150 1.238 . S
C147 O151 1.241 . S
C148 O141 1.247 . S
C148 O142 1.261 . S
C149 O144 1.259 . S
C149 O146 1.235 . S
O150 Co140 2.021 . S
O150 C147 1.238 . S
O151 Co145 2.052 . S
O151 C147 1.241 . S
O152 Co140 2.137 . S
O152 C143 1.247 . S
O153 Co140 2.244 . S
O153 C143 1.272 . S
O153 Co145 2.135 . S
Co154 O155 2.216 . S
Co154 O156 2.091 . S
Co154 O158 2.004 . S
Co154 O164 2.021 1_554 S
Co154 O166 2.137 . S
Co154 O167 2.244 . S
O155 Co154 2.216 . S
O155 C162 1.247 . S
O156 Co154 2.091 . S
O156 C162 1.261 . S
C157 O166 1.247 . S
C157 O167 1.272 . S
O158 Co154 2.004 . S
O158 C163 1.259 . S
Co159 O160 2.055 1_556 S
Co159 O165 2.073 . S
Co159 O167 2.114 1_556 S
O160 Co159 2.055 1_554 S
O160 C163 1.235 . S
C161 O164 1.238 . S
C161 O165 1.241 . S
C162 O155 1.247 . S
C162 O156 1.261 . S
C163 O158 1.259 . S
C163 O160 1.235 . S
O164 Co154 2.021 1_556 S
O164 C161 1.238 . S
O165 Co159 2.073 . S
O165 C161 1.241 . S
O166 Co154 2.137 . S
O166 C157 1.247 . S
O167 Co154 2.244 . S
O167 C157 1.272 . S
O167 Co159 2.114 1_554 S
C168 C169 1.349 . S
C168 C170 1.327 . S
C168 H193 0.950 . S
C169 C168 1.349 . S
C169 C185 1.349 . S
C170 C168 1.327 . S
C170 C189 1.429 . S
C170 H194 0.950 . S
C171 C188 1.574 . S
C171 C190 1.368 . S
C171 H195 0.949 . S
H172 C176 0.949 . S
C173 C174 1.349 . S
C173 C175 1.327 . S
C173 H196 0.950 . S
C174 C173 1.349 . S
C174 C186 1.349 . S
C175 C173 1.327 . S
C175 C191 1.429 . S
C175 H197 0.950 . S
C176 H172 0.949 . S
C176 C184 1.574 . S
C176 C192 1.368 . S
H177 C185 0.950 . S
H178 C183 0.950 . S
H179 C184 0.949 . S
H180 C186 0.950 . S
H181 C187 0.950 . S
H182 C188 0.949 . S
C183 H178 0.950 . S
C183 C185 1.327 . S
C183 C189 1.429 . S
C184 C176 1.574 . S
C184 H179 0.949 . S
C184 C190 1.368 . S
C185 C169 1.349 . S
C185 H177 0.950 . S
C185 C183 1.327 . S
C186 C174 1.349 . S
C186 H180 0.950 . S
C186 C187 1.327 . S
C187 H181 0.950 . S
C187 C186 1.327 . S
C187 C191 1.429 . S
C188 C171 1.574 . S
C188 H182 0.949 . S
C188 C192 1.368 . S
C189 C170 1.429 . S
C189 C183 1.429 . S
C189 C190 1.523 . S
C190 C171 1.368 . S
C190 C184 1.368 . S
C190 C189 1.523 . S
C191 C175 1.429 . S
C191 C187 1.429 . S
C191 C192 1.523 . S
C192 C176 1.368 . S
C192 C188 1.368 . S
C192 C191 1.523 . S
H193 C168 0.950 . S
H194 C170 0.950 . S
H195 C171 0.949 . S
H196 C173 0.950 . S
H197 C175 0.950 . S
C198 C199 1.349 . S
C198 C200 1.327 . S
C198 H223 0.950 . S
C199 C198 1.349 . S
C199 C215 1.349 . S
C200 C198 1.327 . S
C200 C219 1.429 . S
C200 H224 0.950 . S
C201 C218 1.574 . S
C201 C220 1.368 . S
C201 H225 0.949 . S
H202 C206 0.949 . S
C203 C204 1.349 . S
C203 C205 1.327 . S
C203 H226 0.950 . S
C204 C203 1.349 . S
C204 C216 1.349 . S
C205 C203 1.327 . S
C205 C221 1.429 . S
C205 H227 0.950 . S
C206 H202 0.949 . S
C206 C214 1.574 . S
C206 C222 1.368 . S
H207 C215 0.950 . S
H208 C213 0.950 . S
H209 C214 0.949 . S
H210 C216 0.950 . S
H211 C217 0.950 . S
H212 C218 0.949 . S
C213 H208 0.950 . S
C213 C215 1.327 . S
C213 C219 1.429 . S
C214 C206 1.574 . S
C214 H209 0.949 . S
C214 C220 1.368 . S
C215 C199 1.349 . S
C215 H207 0.950 . S
C215 C213 1.327 . S
C216 C204 1.349 . S
C216 H210 0.950 . S
C216 C217 1.327 . S
C217 H211 0.950 . S
C217 C216 1.327 . S
C217 C221 1.429 . S
C218 C201 1.574 . S
C218 H212 0.949 . S
C218 C222 1.368 . S
C219 C200 1.429 . S
C219 C213 1.429 . S
C219 C220 1.523 . S
C220 C201 1.368 . S
C220 C214 1.368 . S
C220 C219 1.523 . S
C221 C205 1.429 . S
C221 C217 1.429 . S
C221 C222 1.523 . S
C222 C206 1.368 . S
C222 C218 1.368 . S
C222 C221 1.523 . S
H223 C198 0.950 . S
H224 C200 0.950 . S
H225 C201 0.949 . S
H226 C203 0.950 . S
H227 C205 0.950 . S
C228 C229 1.349 . S
C228 C230 1.327 . S
C228 H253 0.950 . S
C229 C228 1.349 . S
C229 C245 1.349 . S
C230 C228 1.327 . S
C230 C249 1.429 . S
C230 H254 0.950 . S
C231 C248 1.574 . S
C231 C250 1.368 . S
C231 H255 0.949 . S
H232 C236 0.949 . S
C233 C234 1.349 . S
C233 C235 1.327 . S
C233 H256 0.950 . S
C234 C233 1.349 . S
C234 C246 1.349 . S
C235 C233 1.327 . S
C235 C251 1.429 . S
C235 H257 0.950 . S
C236 H232 0.949 . S
C236 C244 1.574 . S
C236 C252 1.368 . S
H237 C245 0.950 . S
H238 C243 0.950 . S
H239 C244 0.949 . S
H240 C246 0.950 . S
H241 C247 0.950 . S
H242 C248 0.949 . S
C243 H238 0.950 . S
C243 C245 1.327 . S
C243 C249 1.429 . S
C244 C236 1.574 . S
C244 H239 0.949 . S
C244 C250 1.368 . S
C245 C229 1.349 . S
C245 H237 0.950 . S
C245 C243 1.327 . S
C246 C234 1.349 . S
C246 H240 0.950 . S
C246 C247 1.327 . S
C247 H241 0.950 . S
C247 C246 1.327 . S
C247 C251 1.429 . S
C248 C231 1.574 . S
C248 H242 0.949 . S
C248 C252 1.368 . S
C249 C230 1.429 . S
C249 C243 1.429 . S
C249 C250 1.523 . S
C250 C231 1.368 . S
C250 C244 1.368 . S
C250 C249 1.523 . S
C251 C235 1.429 . S
C251 C247 1.429 . S
C251 C252 1.523 . S
C252 C236 1.368 . S
C252 C248 1.368 . S
C252 C251 1.523 . S
H253 C228 0.950 . S
H254 C230 0.950 . S
H255 C231 0.949 . S
H256 C233 0.950 . S
H257 C235 0.950 . S
C258 C259 1.349 . S
C258 C260 1.327 . S
C258 H283 0.950 . S
C259 C258 1.349 . S
C259 C275 1.349 . S
C260 C258 1.327 . S
C260 C279 1.429 . S
C260 H284 0.950 . S
C261 C278 1.574 . S
C261 C280 1.368 . S
C261 H285 0.949 . S
H262 C266 0.949 . S
C263 C264 1.349 . S
C263 C265 1.327 . S
C263 H286 0.950 . S
C264 C263 1.349 . S
C264 C276 1.349 . S
C265 C263 1.327 . S
C265 C281 1.429 . S
C265 H287 0.950 . S
C266 H262 0.949 . S
C266 C274 1.574 . S
C266 C282 1.368 . S
H267 C275 0.950 . S
H268 C273 0.950 . S
H269 C274 0.949 . S
H270 C276 0.950 . S
H271 C277 0.950 . S
H272 C278 0.949 . S
C273 H268 0.950 . S
C273 C275 1.327 . S
C273 C279 1.429 . S
C274 C266 1.574 . S
C274 H269 0.949 . S
C274 C280 1.368 . S
C275 C259 1.349 . S
C275 H267 0.950 . S
C275 C273 1.327 . S
C276 C264 1.349 . S
C276 H270 0.950 . S
C276 C277 1.327 . S
C277 H271 0.950 . S
C277 C276 1.327 . S
C277 C281 1.429 . S
C278 C261 1.574 . S
C278 H272 0.949 . S
C278 C282 1.368 . S
C279 C260 1.429 . S
C279 C273 1.429 . S
C279 C280 1.523 . S
C280 C261 1.368 . S
C280 C274 1.368 . S
C280 C279 1.523 . S
C281 C265 1.429 . S
C281 C277 1.429 . S
C281 C282 1.523 . S
C282 C266 1.368 . S
C282 C278 1.368 . S
C282 C281 1.523 . S
H283 C258 0.950 . S
H284 C260 0.950 . S
H285 C261 0.949 . S
H286 C263 0.950 . S
H287 C265 0.950 . S
C288 C289 1.349 . S
C288 C290 1.327 . S
C288 H313 0.950 . S
C289 C288 1.349 . S
C289 C305 1.349 . S
C290 C288 1.327 . S
C290 C309 1.429 . S
C290 H314 0.950 . S
C291 C308 1.574 . S
C291 C310 1.368 . S
C291 H315 0.949 . S
H292 C296 0.949 . S
C293 C294 1.349 . S
C293 C295 1.327 . S
C293 H316 0.950 . S
C294 C293 1.349 . S
C294 C306 1.349 . S
C295 C293 1.327 . S
C295 C311 1.429 . S
C295 H317 0.950 . S
C296 H292 0.949 . S
C296 C304 1.574 . S
C296 C312 1.368 . S
H297 C305 0.950 . S
H298 C303 0.950 . S
H299 C304 0.949 . S
H300 C306 0.950 . S
H301 C307 0.950 . S
H302 C308 0.949 . S
C303 H298 0.950 . S
C303 C305 1.327 . S
C303 C309 1.429 . S
C304 C296 1.574 . S
C304 H299 0.949 . S
C304 C310 1.368 . S
C305 C289 1.349 . S
C305 H297 0.950 . S
C305 C303 1.327 . S
C306 C294 1.349 . S
C306 H300 0.950 . S
C306 C307 1.327 . S
C307 H301 0.950 . S
C307 C306 1.327 . S
C307 C311 1.429 . S
C308 C291 1.574 . S
C308 H302 0.949 . S
C308 C312 1.368 . S
C309 C290 1.429 . S
C309 C303 1.429 . S
C309 C310 1.523 . S
C310 C291 1.368 . S
C310 C304 1.368 . S
C310 C309 1.523 . S
C311 C295 1.429 . S
C311 C307 1.429 . S
C311 C312 1.523 . S
C312 C296 1.368 . S
C312 C308 1.368 . S
C312 C311 1.523 . S
H313 C288 0.950 . S
H314 C290 0.950 . S
H315 C291 0.949 . S
H316 C293 0.950 . S
H317 C295 0.950 . S
C318 C319 1.349 . S
C318 C320 1.327 . S
C318 H343 0.950 . S
C319 C318 1.349 . S
C319 C335 1.349 . S
C320 C318 1.327 . S
C320 C339 1.429 . S
C320 H344 0.950 . S
C321 C338 1.574 . S
C321 C340 1.368 . S
C321 H345 0.949 . S
H322 C326 0.949 . S
C323 C324 1.349 . S
C323 C325 1.327 . S
C323 H346 0.950 . S
C324 C323 1.349 . S
C324 C336 1.349 . S
C325 C323 1.327 . S
C325 C341 1.429 . S
C325 H347 0.950 . S
C326 H322 0.949 . S
C326 C334 1.574 . S
C326 C342 1.368 . S
H327 C335 0.950 . S
H328 C333 0.950 . S
H329 C334 0.949 . S
H330 C336 0.950 . S
H331 C337 0.950 . S
H332 C338 0.949 . S
C333 H328 0.950 . S
C333 C335 1.327 . S
C333 C339 1.429 . S
C334 C326 1.574 . S
C334 H329 0.949 . S
C334 C340 1.368 . S
C335 C319 1.349 . S
C335 H327 0.950 . S
C335 C333 1.327 . S
C336 C324 1.349 . S
C336 H330 0.950 . S
C336 C337 1.327 . S
C337 H331 0.950 . S
C337 C336 1.327 . S
C337 C341 1.429 . S
C338 C321 1.574 . S
C338 H332 0.949 . S
C338 C342 1.368 . S
C339 C320 1.429 . S
C339 C333 1.429 . S
C339 C340 1.523 . S
C340 C321 1.368 . S
C340 C334 1.368 . S
C340 C339 1.523 . S
C341 C325 1.429 . S
C341 C337 1.429 . S
C341 C342 1.523 . S
C342 C326 1.368 . S
C342 C338 1.368 . S
C342 C341 1.523 . S
H343 C318 0.950 . S
H344 C320 0.950 . S
H345 C321 0.949 . S
H346 C323 0.950 . S
H347 C325 0.950 . S
C348 C349 1.349 . S
C348 C350 1.327 . S
C348 H373 0.950 . S
C349 C348 1.349 . S
C349 C365 1.349 . S
C350 C348 1.327 . S
C350 C369 1.429 . S
C350 H374 0.950 . S
C351 C368 1.574 . S
C351 C370 1.368 . S
C351 H375 0.949 . S
H352 C356 0.949 . S
C353 C354 1.349 . S
C353 C355 1.327 . S
C353 H376 0.950 . S
C354 C353 1.349 . S
C354 C366 1.349 . S
C355 C353 1.327 . S
C355 C371 1.429 . S
C355 H377 0.950 . S
C356 H352 0.949 . S
C356 C364 1.574 . S
C356 C372 1.368 . S
H357 C365 0.950 . S
H358 C363 0.950 . S
H359 C364 0.949 . S
H360 C366 0.950 . S
H361 C367 0.950 . S
H362 C368 0.949 . S
C363 H358 0.950 . S
C363 C365 1.327 . S
C363 C369 1.429 . S
C364 C356 1.574 . S
C364 H359 0.949 . S
C364 C370 1.368 . S
C365 C349 1.349 . S
C365 H357 0.950 . S
C365 C363 1.327 . S
C366 C354 1.349 . S
C366 H360 0.950 . S
C366 C367 1.327 . S
C367 H361 0.950 . S
C367 C366 1.327 . S
C367 C371 1.429 . S
C368 C351 1.574 . S
C368 H362 0.949 . S
C368 C372 1.368 . S
C369 C350 1.429 . S
C369 C363 1.429 . S
C369 C370 1.523 . S
C370 C351 1.368 . S
C370 C364 1.368 . S
C370 C369 1.523 . S
C371 C355 1.429 . S
C371 C367 1.429 . S
C371 C372 1.523 . S
C372 C356 1.368 . S
C372 C368 1.368 . S
C372 C371 1.523 . S
H373 C348 0.950 . S
H374 C350 0.950 . S
H375 C351 0.949 . S
H376 C353 0.950 . S
H377 C355 0.950 . S
C378 C379 1.349 . S
C378 C380 1.327 . S
C378 H403 0.950 . S
C379 C378 1.349 . S
C379 C395 1.349 . S
C380 C378 1.327 . S
C380 C399 1.429 . S
C380 H404 0.950 . S
C381 C398 1.574 . S
C381 C400 1.368 . S
C381 H405 0.949 . S
H382 C386 0.949 . S
C383 C384 1.349 . S
C383 C385 1.327 . S
C383 H406 0.950 . S
C384 C383 1.349 . S
C384 C396 1.349 . S
C385 C383 1.327 . S
C385 C401 1.429 . S
C385 H407 0.950 . S
C386 H382 0.949 . S
C386 C394 1.574 . S
C386 C402 1.368 . S
H387 C395 0.950 . S
H388 C393 0.950 . S
H389 C394 0.949 . S
H390 C396 0.950 . S
H391 C397 0.950 . S
H392 C398 0.949 . S
C393 H388 0.950 . S
C393 C395 1.327 . S
C393 C399 1.429 . S
C394 C386 1.574 . S
C394 H389 0.949 . S
C394 C400 1.368 . S
C395 C379 1.349 . S
C395 H387 0.950 . S
C395 C393 1.327 . S
C396 C384 1.349 . S
C396 H390 0.950 . S
C396 C397 1.327 . S
C397 H391 0.950 . S
C397 C396 1.327 . S
C397 C401 1.429 . S
C398 C381 1.574 . S
C398 H392 0.949 . S
C398 C402 1.368 . S
C399 C380 1.429 . S
C399 C393 1.429 . S
C399 C400 1.523 . S
C400 C381 1.368 . S
C400 C394 1.368 . S
C400 C399 1.523 . S
C401 C385 1.429 . S
C401 C397 1.429 . S
C401 C402 1.523 . S
C402 C386 1.368 . S
C402 C398 1.368 . S
C402 C401 1.523 . S
H403 C378 0.950 . S
H404 C380 0.950 . S
H405 C381 0.949 . S
H406 C383 0.950 . S
H407 C385 0.950 . S
C408 C409 1.349 . S
C408 C410 1.327 . S
C408 H433 0.939 1_554 S
C409 C408 1.349 . S
C409 C425 1.349 . S
C410 C408 1.327 . S
C410 C429 1.429 . S
C410 H434 0.950 1_554 S
C411 C428 1.574 . S
C411 C430 1.368 . S
C411 H435 0.949 . S
H412 C416 0.949 . S
C413 C414 1.349 1_554 S
C413 C415 1.327 . S
C413 H436 0.950 . S
C414 C413 1.349 1_556 S
C414 C426 1.349 . S
C415 C413 1.327 . S
C415 C431 1.429 1_554 S
C415 H437 0.950 . S
C416 H412 0.949 . S
C416 C424 1.574 . S
C416 C432 1.368 1_556 S
H417 C425 0.950 . S
H418 C423 0.950 . S
H419 C424 0.949 . S
H420 C426 0.950 . S
H421 C427 0.950 . S
H422 C428 0.949 . S
C423 H418 0.950 . S
C423 C425 1.327 . S
C423 C429 1.429 . S
C424 C416 1.574 . S
C424 H419 0.949 . S
C424 C430 1.368 1_556 S
C425 C409 1.349 . S
C425 H417 0.950 . S
C425 C423 1.327 . S
C426 C414 1.349 . S
C426 H420 0.950 . S
C426 C427 1.327 . S
C427 H421 0.950 . S
C427 C426 1.327 . S
C427 C431 1.429 . S
C428 C411 1.574 . S
C428 H422 0.949 . S
C428 C432 1.368 . S
C429 C410 1.429 . S
C429 C423 1.429 . S
C429 C430 1.523 . S
C430 C411 1.368 . S
C430 C424 1.368 1_554 S
C430 C429 1.523 . S
C431 C415 1.429 1_556 S
C431 C427 1.429 . S
C431 C432 1.523 1_556 S
C432 C416 1.368 1_554 S
C432 C428 1.368 . S
C432 C431 1.523 1_554 S
H433 C408 0.939 1_556 S
H434 C410 0.950 1_556 S
H435 C411 0.949 . S
H436 C413 0.950 . S
H437 C415 0.950 . S
C438 C439 1.349 . S
C438 C440 1.327 . S
C438 H463 0.950 . S
C439 C438 1.349 . S
C439 C455 1.349 . S
C440 C438 1.327 . S
C440 C459 1.429 . S
C440 H464 0.950 . S
C441 C458 1.574 . S
C441 C460 1.368 . S
C441 H465 0.949 . S
H442 C446 0.949 . S
C443 C444 1.349 . S
C443 C445 1.327 . S
C443 H466 0.950 . S
C444 C443 1.349 . S
C444 C456 1.349 . S
C445 C443 1.327 . S
C445 C461 1.429 . S
C445 H467 0.950 . S
C446 H442 0.949 . S
C446 C454 1.574 . S
C446 C462 1.368 . S
H447 C455 0.950 . S
H448 C453 0.950 . S
H449 C454 0.949 . S
H450 C456 0.950 . S
H451 C457 0.950 . S
H452 C458 0.949 . S
C453 H448 0.950 . S
C453 C455 1.327 . S
C453 C459 1.429 . S
C454 C446 1.574 . S
C454 H449 0.949 . S
C454 C460 1.368 . S
C455 C439 1.349 . S
C455 H447 0.950 . S
C455 C453 1.327 . S
C456 C444 1.349 . S
C456 H450 0.950 . S
C456 C457 1.327 . S
C457 H451 0.950 . S
C457 C456 1.327 . S
C457 C461 1.429 . S
C458 C441 1.574 . S
C458 H452 0.949 . S
C458 C462 1.368 . S
C459 C440 1.429 . S
C459 C453 1.429 . S
C459 C460 1.523 . S
C460 C441 1.368 . S
C460 C454 1.368 . S
C460 C459 1.523 . S
C461 C445 1.429 . S
C461 C457 1.429 . S
C461 C462 1.523 . S
C462 C446 1.368 . S
C462 C458 1.368 . S
C462 C461 1.523 . S
H463 C438 0.950 . S
H464 C440 0.950 . S
H465 C441 0.949 . S
H466 C443 0.950 . S
H467 C445 0.950 . S
C468 C469 1.349 . S
C468 C470 1.327 . S
C468 H493 0.950 . S
C469 C468 1.349 . S
C469 C485 1.349 . S
C470 C468 1.327 . S
C470 C489 1.429 . S
C470 H494 0.950 . S
C471 C488 1.574 . S
C471 C490 1.368 . S
C471 H495 0.949 . S
H472 C476 0.949 . S
C473 C474 1.349 . S
C473 C475 1.327 . S
C473 H496 0.950 . S
C474 C473 1.349 . S
C474 C486 1.349 . S
C475 C473 1.327 . S
C475 C491 1.429 . S
C475 H497 0.950 . S
C476 H472 0.949 . S
C476 C484 1.574 . S
C476 C492 1.368 . S
H477 C485 0.950 . S
H478 C483 0.950 . S
H479 C484 0.949 . S
H480 C486 0.950 . S
H481 C487 0.950 . S
H482 C488 0.949 . S
C483 H478 0.950 . S
C483 C485 1.327 . S
C483 C489 1.429 . S
C484 C476 1.574 . S
C484 H479 0.949 . S
C484 C490 1.368 . S
C485 C469 1.349 . S
C485 H477 0.950 . S
C485 C483 1.327 . S
C486 C474 1.349 . S
C486 H480 0.950 . S
C486 C487 1.327 . S
C487 H481 0.950 . S
C487 C486 1.327 . S
C487 C491 1.429 . S
C488 C471 1.574 . S
C488 H482 0.949 . S
C488 C492 1.368 . S
C489 C470 1.429 . S
C489 C483 1.429 . S
C489 C490 1.523 . S
C490 C471 1.368 . S
C490 C484 1.368 . S
C490 C489 1.523 . S
C491 C475 1.429 . S
C491 C487 1.429 . S
C491 C492 1.523 . S
C492 C476 1.368 . S
C492 C488 1.368 . S
C492 C491 1.523 . S
H493 C468 0.950 . S
H494 C470 0.950 . S
H495 C471 0.949 . S
H496 C473 0.950 . S
H497 C475 0.950 . S
C498 C499 1.349 . S
C498 C500 1.327 . S
C498 H523 0.950 . S
C499 C498 1.349 . S
C499 C515 1.349 1_556 S
C500 C498 1.327 . S
C500 C519 1.429 . S
C500 H524 0.950 . S
C501 C518 1.574 . S
C501 C520 1.368 . S
C501 H525 0.949 . S
H502 C506 0.949 . S
C503 C504 1.349 . S
C503 C505 1.327 . S
C503 H526 0.950 . S
C504 C503 1.349 . S
C504 C516 1.349 . S
C505 C503 1.327 . S
C505 C521 1.429 . S
C505 H527 0.950 . S
C506 H502 0.949 . S
C506 C514 1.574 . S
C506 C522 1.368 1_556 S
H507 C515 0.950 . S
H508 C513 0.950 . S
H509 C514 0.949 . S
H510 C516 0.939 1_556 S
H511 C517 0.950 1_556 S
H512 C518 0.949 . S
C513 H508 0.950 . S
C513 C515 1.327 . S
C513 C519 1.429 1_554 S
C514 C506 1.574 . S
C514 H509 0.949 . S
C514 C520 1.368 1_556 S
C515 C499 1.349 1_554 S
C515 H507 0.950 . S
C515 C513 1.327 . S
C516 C504 1.349 . S
C516 H510 0.939 1_554 S
C516 C517 1.327 . S
C517 H511 0.950 1_554 S
C517 C516 1.327 . S
C517 C521 1.429 . S
C518 C501 1.574 . S
C518 H512 0.949 . S
C518 C522 1.368 . S
C519 C500 1.429 . S
C519 C513 1.429 1_556 S
C519 C520 1.523 1_556 S
C520 C501 1.368 . S
C520 C514 1.368 1_554 S
C520 C519 1.523 1_554 S
C521 C505 1.429 . S
C521 C517 1.429 . S
C521 C522 1.523 . S
C522 C506 1.368 1_554 S
C522 C518 1.368 . S
C522 C521 1.523 . S
H523 C498 0.950 . S
H524 C500 0.950 . S
H525 C501 0.949 . S
H526 C503 0.950 . S
H527 C505 0.950 . S
C528 C529 1.349 . S
C528 C530 1.327 . S
C528 H553 0.950 . S
C529 C528 1.349 . S
C529 C545 1.349 . S
C530 C528 1.327 . S
C530 C549 1.429 . S
C530 H554 0.950 . S
C531 C548 1.574 1_545 S
C531 C550 1.368 . S
C531 H555 0.949 . S
H532 C536 0.949 . S
C533 C534 1.349 . S
C533 C535 1.327 . S
C533 H556 0.950 . S
C534 C533 1.349 . S
C534 C546 1.349 . S
C535 C533 1.327 . S
C535 C551 1.429 . S
C535 H557 0.950 . S
C536 H532 0.949 . S
C536 C544 1.574 1_565 S
C536 C552 1.368 . S
H537 C545 0.950 . S
H538 C543 0.950 . S
H539 C544 0.949 . S
H540 C546 0.950 . S
H541 C547 0.950 . S
H542 C548 0.949 . S
C543 H538 0.950 . S
C543 C545 1.327 . S
C543 C549 1.429 . S
C544 C536 1.574 1_545 S
C544 H539 0.949 . S
C544 C550 1.368 . S
C545 C529 1.349 . S
C545 H537 0.950 . S
C545 C543 1.327 . S
C546 C534 1.349 . S
C546 H540 0.950 . S
C546 C547 1.327 . S
C547 H541 0.950 . S
C547 C546 1.327 . S
C547 C551 1.429 . S
C548 C531 1.574 1_565 S
C548 H542 0.949 . S
C548 C552 1.368 . S
C549 C530 1.429 . S
C549 C543 1.429 . S
C549 C550 1.523 . S
C550 C531 1.368 . S
C550 C544 1.368 . S
C550 C549 1.523 . S
C551 C535 1.429 . S
C551 C547 1.429 . S
C551 C552 1.523 . S
C552 C536 1.368 . S
C552 C548 1.368 . S
C552 C551 1.523 . S
H553 C528 0.950 . S
H554 C530 0.950 . S
H555 C531 0.949 . S
H556 C533 0.950 . S
H557 C535 0.950 . S
C558 C559 1.349 . S
C558 C560 1.327 . S
C558 H583 0.950 . S
C559 C558 1.349 . S
C559 C575 1.349 . S
C560 C558 1.327 . S
C560 C579 1.429 . S
C560 H584 0.950 . S
C561 C578 1.574 . S
C561 C580 1.368 . S
C561 H585 0.949 . S
H562 C566 0.949 . S
C563 C564 1.349 . S
C563 C565 1.327 . S
C563 H586 0.950 . S
C564 C563 1.349 . S
C564 C576 1.349 . S
C565 C563 1.327 . S
C565 C581 1.429 . S
C565 H587 0.950 . S
C566 H562 0.949 . S
C566 C574 1.574 . S
C566 C582 1.368 . S
H567 C575 0.950 . S
H568 C573 0.950 . S
H569 C574 0.949 . S
H570 C576 0.950 . S
H571 C577 0.950 . S
H572 C578 0.949 . S
C573 H568 0.950 . S
C573 C575 1.327 . S
C573 C579 1.429 . S
C574 C566 1.574 . S
C574 H569 0.949 . S
C574 C580 1.368 . S
C575 C559 1.349 . S
C575 H567 0.950 . S
C575 C573 1.327 . S
C576 C564 1.349 . S
C576 H570 0.950 . S
C576 C577 1.327 . S
C577 H571 0.950 . S
C577 C576 1.327 . S
C577 C581 1.429 . S
C578 C561 1.574 . S
C578 H572 0.949 . S
C578 C582 1.368 . S
C579 C560 1.429 . S
C579 C573 1.429 . S
C579 C580 1.523 . S
C580 C561 1.368 . S
C580 C574 1.368 . S
C580 C579 1.523 . S
C581 C565 1.429 . S
C581 C577 1.429 . S
C581 C582 1.523 . S
C582 C566 1.368 . S
C582 C578 1.368 . S
C582 C581 1.523 . S
H583 C558 0.950 . S
H584 C560 0.950 . S
H585 C561 0.949 . S
H586 C563 0.950 . S
H587 C565 0.950 . S
C588 C589 1.349 . S
C588 C590 1.327 . S
C588 H613 0.950 . S
C589 C588 1.349 . S
C589 C605 1.349 . S
C590 C588 1.327 . S
C590 C609 1.429 . S
C590 H614 0.950 . S
C591 C608 1.574 1_655 S
C591 C610 1.389 . S
C591 H615 0.931 1_556 S
H592 C596 0.949 . S
C593 C594 1.349 . S
C593 C595 1.327 . S
C593 H616 0.950 1_556 S
C594 C593 1.349 . S
C594 C606 1.349 . S
C595 C593 1.327 . S
C595 C611 1.429 . S
C595 H617 0.950 1_556 S
C596 H592 0.949 . S
C596 C604 1.574 1_455 S
C596 C612 1.368 . S
H597 C605 0.950 1_554 S
H598 C603 0.950 1_554 S
H599 C604 0.949 . S
H600 C606 0.950 . S
H601 C607 0.950 . S
H602 C608 0.931 1_554 S
C603 H598 0.950 1_556 S
C603 C605 1.327 . S
C603 C609 1.429 . S
C604 C596 1.574 1_655 S
C604 H599 0.949 . S
C604 C610 1.368 . S
C605 C589 1.349 . S
C605 H597 0.950 1_556 S
C605 C603 1.327 . S
C606 C594 1.349 . S
C606 H600 0.950 . S
C606 C607 1.327 . S
C607 H601 0.950 . S
C607 C606 1.327 . S
C607 C611 1.429 . S
C608 C591 1.574 1_455 S
C608 H602 0.931 1_556 S
C608 C612 1.389 . S
C609 C590 1.429 . S
C609 C603 1.429 . S
C609 C610 1.523 . S
C610 C591 1.389 . S
C610 C604 1.368 . S
C610 C609 1.523 . S
C611 C595 1.429 . S
C611 C607 1.429 . S
C611 C612 1.523 . S
C612 C596 1.368 . S
C612 C608 1.389 . S
C612 C611 1.523 . S
H613 C588 0.950 . S
H614 C590 0.950 . S
H615 C591 0.931 1_554 S
H616 C593 0.950 1_554 S
H617 C595 0.950 1_554 S
C618 C619 1.349 . S
C618 C620 1.327 . S
C618 H643 0.950 . S
C619 C618 1.349 . S
C619 C635 1.349 . S
C620 C618 1.327 . S
C620 C639 1.429 . S
C620 H644 0.950 . S
C621 C638 1.574 1_455 S
C621 C640 1.368 . S
C621 H645 0.949 . S
H622 C626 0.949 . S
C623 C624 1.349 . S
C623 C625 1.327 . S
C623 H646 0.950 . S
C624 C623 1.349 . S
C624 C636 1.349 . S
C625 C623 1.327 . S
C625 C641 1.429 . S
C625 H647 0.950 . S
C626 H622 0.949 . S
C626 C634 1.574 1_655 S
C626 C642 1.368 . S
H627 C635 0.950 . S
H628 C633 0.950 . S
H629 C634 0.949 . S
H630 C636 0.950 . S
H631 C637 0.950 . S
H632 C638 0.949 . S
C633 H628 0.950 . S
C633 C635 1.327 . S
C633 C639 1.429 . S
C634 C626 1.574 1_455 S
C634 H629 0.949 . S
C634 C640 1.368 . S
C635 C619 1.349 . S
C635 H627 0.950 . S
C635 C633 1.327 . S
C636 C624 1.349 . S
C636 H630 0.950 . S
C636 C637 1.327 . S
C637 H631 0.950 . S
C637 C636 1.327 . S
C637 C641 1.429 . S
C638 C621 1.574 1_655 S
C638 H632 0.949 . S
C638 C642 1.368 . S
C639 C620 1.429 . S
C639 C633 1.429 . S
C639 C640 1.523 . S
C640 C621 1.368 . S
C640 C634 1.368 . S
C640 C639 1.523 . S
C641 C625 1.429 . S
C641 C637 1.429 . S
C641 C642 1.523 . S
C642 C626 1.368 . S
C642 C638 1.368 . S
C642 C641 1.523 . S
H643 C618 0.950 . S
H644 C620 0.950 . S
H645 C621 0.949 . S
H646 C623 0.950 . S
H647 C625 0.950 . S
C648 C649 1.349 . S
C648 C650 1.327 . S
C648 H673 0.950 . S
C649 C648 1.349 . S
C649 C665 1.349 . S
C650 C648 1.327 . S
C650 C669 1.429 . S
C650 H674 0.950 . S
C651 C668 1.574 1_545 S
C651 C670 1.368 . S
C651 H675 0.949 . S
H652 C656 0.949 . S
C653 C654 1.349 . S
C653 C655 1.327 . S
C653 H676 0.950 . S
C654 C653 1.349 . S
C654 C666 1.349 . S
C655 C653 1.327 . S
C655 C671 1.429 . S
C655 H677 0.950 . S
C656 H652 0.949 . S
C656 C664 1.574 1_565 S
C656 C672 1.368 . S
H657 C665 0.950 . S
H658 C663 0.950 . S
H659 C664 0.949 . S
H660 C666 0.950 . S
H661 C667 0.950 . S
H662 C668 0.949 . S
C663 H658 0.950 . S
C663 C665 1.327 . S
C663 C669 1.429 . S
C664 C656 1.574 1_545 S
C664 H659 0.949 . S
C664 C670 1.368 . S
C665 C649 1.349 . S
C665 H657 0.950 . S
C665 C663 1.327 . S
C666 C654 1.349 . S
C666 H660 0.950 . S
C666 C667 1.327 . S
C667 H661 0.950 . S
C667 C666 1.327 . S
C667 C671 1.429 . S
C668 C651 1.574 1_565 S
C668 H662 0.949 . S
C668 C672 1.368 . S
C669 C650 1.429 . S
C669 C663 1.429 . S
C669 C670 1.523 . S
C670 C651 1.368 . S
C670 C664 1.368 . S
C670 C669 1.523 . S
C671 C655 1.429 . S
C671 C667 1.429 . S
C671 C672 1.523 . S
C672 C656 1.368 . S
C672 C668 1.368 . S
C672 C671 1.523 . S
H673 C648 0.950 . S
H674 C650 0.950 . S
H675 C651 0.949 . S
H676 C653 0.950 . S
H677 C655 0.950 . S
C678 C679 1.349 . S
C678 C680 1.327 . S
C678 H703 0.950 . S
C679 C678 1.349 . S
C679 C695 1.349 . S
C680 C678 1.327 . S
C680 C699 1.429 . S
C680 H704 0.950 . S
C681 C698 1.574 . S
C681 C700 1.368 . S
C681 H705 0.949 1_554 S
H682 C686 0.949 . S
C683 C684 1.349 . S
C683 C685 1.327 . S
C683 H706 0.945 1_554 S
C684 C683 1.349 . S
C684 C696 1.349 . S
C685 C683 1.327 . S
C685 C701 1.429 . S
C685 H707 0.950 1_554 S
C686 H682 0.949 . S
C686 C694 1.574 . S
C686 C702 1.368 . S
H687 C695 0.945 1_556 S
H688 C693 0.950 1_556 S
H689 C694 0.949 . S
H690 C696 0.950 . S
H691 C697 0.950 . S
H692 C698 0.949 1_556 S
C693 H688 0.950 1_554 S
C693 C695 1.327 . S
C693 C699 1.429 . S
C694 C686 1.574 . S
C694 H689 0.949 . S
C694 C700 1.368 . S
C695 C679 1.349 . S
C695 H687 0.945 1_554 S
C695 C693 1.327 . S
C696 C684 1.349 . S
C696 H690 0.950 . S
C696 C697 1.327 . S
C697 H691 0.950 . S
C697 C696 1.327 . S
C697 C701 1.429 . S
C698 C681 1.574 . S
C698 H692 0.949 1_554 S
C698 C702 1.368 . S
C699 C680 1.429 . S
C699 C693 1.429 . S
C699 C700 1.523 . S
C700 C681 1.368 . S
C700 C694 1.368 . S
C700 C699 1.523 . S
C701 C685 1.429 . S
C701 C697 1.429 . S
C701 C702 1.523 . S
C702 C686 1.368 . S
C702 C698 1.368 . S
C702 C701 1.523 . S
H703 C678 0.950 . S
H704 C680 0.950 . S
H705 C681 0.949 1_556 S
H706 C683 0.945 1_556 S
H707 C685 0.950 1_556 S
C708 C709 1.349 . S
C708 C710 1.327 . S
C708 H733 0.950 . S
C709 C708 1.349 . S
C709 C725 1.349 . S
C710 C708 1.327 . S
C710 C729 1.429 . S
C710 H734 0.950 . S
C711 C728 1.574 . S
C711 C730 1.368 . S
C711 H735 0.949 . S
H712 C716 0.949 . S
C713 C714 1.349 . S
C713 C715 1.327 . S
C713 H736 0.950 . S
C714 C713 1.349 . S
C714 C726 1.349 . S
C715 C713 1.327 . S
C715 C731 1.429 . S
C715 H737 0.950 . S
C716 H712 0.949 . S
C716 C724 1.574 . S
C716 C732 1.368 . S
H717 C725 0.950 . S
H718 C723 0.950 . S
H719 C724 0.949 . S
H720 C726 0.950 . S
H721 C727 0.950 . S
H722 C728 0.949 . S
C723 H718 0.950 . S
C723 C725 1.327 . S
C723 C729 1.429 . S
C724 C716 1.574 . S
C724 H719 0.949 . S
C724 C730 1.368 . S
C725 C709 1.349 . S
C725 H717 0.950 . S
C725 C723 1.327 . S
C726 C714 1.349 . S
C726 H720 0.950 . S
C726 C727 1.327 . S
C727 H721 0.950 . S
C727 C726 1.327 . S
C727 C731 1.429 . S
C728 C711 1.574 . S
C728 H722 0.949 . S
C728 C732 1.368 . S
C729 C710 1.429 . S
C729 C723 1.429 . S
C729 C730 1.523 . S
C730 C711 1.368 . S
C730 C724 1.368 . S
C730 C729 1.523 . S
C731 C715 1.429 . S
C731 C727 1.429 . S
C731 C732 1.523 . S
C732 C716 1.368 . S
C732 C728 1.368 . S
C732 C731 1.523 . S
H733 C708 0.950 . S
H734 C710 0.950 . S
H735 C711 0.949 . S
H736 C713 0.950 . S
H737 C715 0.950 . S
C738 C739 1.349 . S
C738 C740 1.327 . S
C738 H763 0.950 . S
C739 C738 1.349 . S
C739 C755 1.349 . S
C740 C738 1.327 . S
C740 C759 1.429 . S
C740 H764 0.950 . S
C741 C758 1.574 . S
C741 C760 1.368 . S
C741 H765 0.949 . S
H742 C746 0.949 . S
C743 C744 1.349 . S
C743 C745 1.327 . S
C743 H766 0.950 . S
C744 C743 1.349 . S
C744 C756 1.349 . S
C745 C743 1.327 . S
C745 C761 1.429 . S
C745 H767 0.950 . S
C746 H742 0.949 . S
C746 C754 1.574 . S
C746 C762 1.368 . S
H747 C755 0.950 . S
H748 C753 0.950 . S
H749 C754 0.949 . S
H750 C756 0.950 . S
H751 C757 0.950 . S
H752 C758 0.949 . S
C753 H748 0.950 . S
C753 C755 1.327 . S
C753 C759 1.429 . S
C754 C746 1.574 . S
C754 H749 0.949 . S
C754 C760 1.368 . S
C755 C739 1.349 . S
C755 H747 0.950 . S
C755 C753 1.327 . S
C756 C744 1.349 . S
C756 H750 0.950 . S
C756 C757 1.327 . S
C757 H751 0.950 . S
C757 C756 1.327 . S
C757 C761 1.429 . S
C758 C741 1.574 . S
C758 H752 0.949 . S
C758 C762 1.368 . S
C759 C740 1.429 . S
C759 C753 1.429 . S
C759 C760 1.523 . S
C760 C741 1.368 . S
C760 C754 1.368 . S
C760 C759 1.523 . S
C761 C745 1.429 . S
C761 C757 1.429 . S
C761 C762 1.523 . S
C762 C746 1.368 . S
C762 C758 1.368 . S
C762 C761 1.523 . S
H763 C738 0.950 . S
H764 C740 0.950 . S
H765 C741 0.949 . S
H766 C743 0.950 . S
H767 C745 0.950 . S
C768 C769 1.349 . S
C768 C770 1.327 . S
C768 H793 0.950 . S
C769 C768 1.349 . S
C769 C785 1.349 . S
C770 C768 1.327 . S
C770 C789 1.429 . S
C770 H794 0.950 . S
C771 C788 1.574 . S
C771 C790 1.368 . S
C771 H795 0.949 . S
H772 C776 0.949 . S
C773 C774 1.349 . S
C773 C775 1.327 . S
C773 H796 0.950 . S
C774 C773 1.349 . S
C774 C786 1.349 . S
C775 C773 1.327 . S
C775 C791 1.429 . S
C775 H797 0.950 . S
C776 H772 0.949 . S
C776 C784 1.574 . S
C776 C792 1.368 . S
H777 C785 0.950 . S
H778 C783 0.950 . S
H779 C784 0.949 . S
H780 C786 0.950 . S
H781 C787 0.950 . S
H782 C788 0.949 . S
C783 H778 0.950 . S
C783 C785 1.327 . S
C783 C789 1.429 . S
C784 C776 1.574 . S
C784 H779 0.949 . S
C784 C790 1.368 . S
C785 C769 1.349 . S
C785 H777 0.950 . S
C785 C783 1.327 . S
C786 C774 1.349 . S
C786 H780 0.950 . S
C786 C787 1.327 . S
C787 H781 0.950 . S
C787 C786 1.327 . S
C787 C791 1.429 . S
C788 C771 1.574 . S
C788 H782 0.949 . S
C788 C792 1.368 . S
C789 C770 1.429 . S
C789 C783 1.429 . S
C789 C790 1.523 . S
C790 C771 1.368 . S
C790 C784 1.368 . S
C790 C789 1.523 . S
C791 C775 1.429 . S
C791 C787 1.429 . S
C791 C792 1.523 . S
C792 C776 1.368 . S
C792 C788 1.368 . S
C792 C791 1.523 . S
H793 C768 0.950 . S
H794 C770 0.950 . S
H795 C771 0.949 . S
H796 C773 0.950 . S
H797 C775 0.950 . S
C798 C799 1.349 . S
C798 C800 1.327 . S
C798 H823 0.950 . S
C799 C798 1.349 . S
C799 C815 1.349 . S
C800 C798 1.327 . S
C800 C819 1.429 . S
C800 H824 0.950 . S
C801 C818 1.574 . S
C801 C820 1.368 . S
C801 H825 0.949 . S
H802 C806 0.949 . S
C803 C804 1.349 . S
C803 C805 1.327 . S
C803 H826 0.950 . S
C804 C803 1.349 . S
C804 C816 1.349 . S
C805 C803 1.327 . S
C805 C821 1.429 . S
C805 H827 0.950 . S
C806 H802 0.949 . S
C806 C814 1.574 . S
C806 C822 1.368 . S
H807 C815 0.950 . S
H808 C813 0.950 . S
H809 C814 0.949 . S
H810 C816 0.950 . S
H811 C817 0.950 . S
H812 C818 0.949 . S
C813 H808 0.950 . S
C813 C815 1.327 . S
C813 C819 1.429 . S
C814 C806 1.574 . S
C814 H809 0.949 . S
C814 C820 1.368 . S
C815 C799 1.349 . S
C815 H807 0.950 . S
C815 C813 1.327 . S
C816 C804 1.349 . S
C816 H810 0.950 . S
C816 C817 1.327 . S
C817 H811 0.950 . S
C817 C816 1.327 . S
C817 C821 1.429 . S
C818 C801 1.574 . S
C818 H812 0.949 . S
C818 C822 1.368 . S
C819 C800 1.429 . S
C819 C813 1.429 . S
C819 C820 1.523 . S
C820 C801 1.368 . S
C820 C814 1.368 . S
C820 C819 1.523 . S
C821 C805 1.429 . S
C821 C817 1.429 . S
C821 C822 1.523 . S
C822 C806 1.368 . S
C822 C818 1.368 . S
C822 C821 1.523 . S
H823 C798 0.950 . S
H824 C800 0.950 . S
H825 C801 0.949 . S
H826 C803 0.950 . S
H827 C805 0.950 . S
C828 C829 1.349 . S
C828 C830 1.327 . S
C828 H853 0.950 . S
C829 C828 1.349 . S
C829 C845 1.349 . S
C830 C828 1.327 . S
C830 C849 1.429 . S
C830 H854 0.950 . S
C831 C848 1.574 . S
C831 C850 1.368 . S
C831 H855 0.949 . S
H832 C836 0.949 . S
C833 C834 1.349 . S
C833 C835 1.327 . S
C833 H856 0.950 . S
C834 C833 1.349 . S
C834 C846 1.349 . S
C835 C833 1.327 . S
C835 C851 1.429 . S
C835 H857 0.950 . S
C836 H832 0.949 . S
C836 C844 1.574 . S
C836 C852 1.368 . S
H837 C845 0.950 . S
H838 C843 0.950 . S
H839 C844 0.949 . S
H840 C846 0.950 . S
H841 C847 0.950 . S
H842 C848 0.949 . S
C843 H838 0.950 . S
C843 C845 1.327 . S
C843 C849 1.429 . S
C844 C836 1.574 . S
C844 H839 0.949 . S
C844 C850 1.368 . S
C845 C829 1.349 . S
C845 H837 0.950 . S
C845 C843 1.327 . S
C846 C834 1.349 . S
C846 H840 0.950 . S
C846 C847 1.327 . S
C847 H841 0.950 . S
C847 C846 1.327 . S
C847 C851 1.429 . S
C848 C831 1.574 . S
C848 H842 0.949 . S
C848 C852 1.368 . S
C849 C830 1.429 . S
C849 C843 1.429 . S
C849 C850 1.523 . S
C850 C831 1.368 . S
C850 C844 1.368 . S
C850 C849 1.523 . S
C851 C835 1.429 . S
C851 C847 1.429 . S
C851 C852 1.523 . S
C852 C836 1.368 . S
C852 C848 1.368 . S
C852 C851 1.523 . S
H853 C828 0.950 . S
H854 C830 0.950 . S
H855 C831 0.949 . S
H856 C833 0.950 . S
H857 C835 0.950 . S
C858 C859 1.349 . S
C858 C860 1.327 . S
C858 H883 0.950 . S
C859 C858 1.349 . S
C859 C875 1.349 . S
C860 C858 1.327 . S
C860 C879 1.429 . S
C860 H884 0.950 . S
C861 C878 1.574 . S
C861 C880 1.368 . S
C861 H885 0.949 . S
H862 C866 0.949 . S
C863 C864 1.349 . S
C863 C865 1.327 . S
C863 H886 0.950 . S
C864 C863 1.349 . S
C864 C876 1.349 . S
C865 C863 1.327 . S
C865 C881 1.429 . S
C865 H887 0.950 . S
C866 H862 0.949 . S
C866 C874 1.574 . S
C866 C882 1.368 . S
H867 C875 0.950 . S
H868 C873 0.950 . S
H869 C874 0.949 . S
H870 C876 0.950 . S
H871 C877 0.950 . S
H872 C878 0.949 . S
C873 H868 0.950 . S
C873 C875 1.327 . S
C873 C879 1.429 . S
C874 C866 1.574 . S
C874 H869 0.949 . S
C874 C880 1.368 . S
C875 C859 1.349 . S
C875 H867 0.950 . S
C875 C873 1.327 . S
C876 C864 1.349 . S
C876 H870 0.950 . S
C876 C877 1.327 . S
C877 H871 0.950 . S
C877 C876 1.327 . S
C877 C881 1.429 . S
C878 C861 1.574 . S
C878 H872 0.949 . S
C878 C882 1.368 . S
C879 C860 1.429 . S
C879 C873 1.429 . S
C879 C880 1.523 . S
C880 C861 1.368 . S
C880 C874 1.368 . S
C880 C879 1.523 . S
C881 C865 1.429 . S
C881 C877 1.429 . S
C881 C882 1.523 . S
C882 C866 1.368 . S
C882 C878 1.368 . S
C882 C881 1.523 . S
H883 C858 0.950 . S
H884 C860 0.950 . S
H885 C861 0.949 . S
H886 C863 0.950 . S
H887 C865 0.950 . S
C169 C7 1.454 . S
C174 C147 1.454 . S
C199 C21 1.454 . S
C204 C161 1.454 . S
C229 C91 1.454 . S
C234 C35 1.454 . S
C259 C49 1.454 . S
C264 C105 1.454 . S
C289 C119 1.454 . S
C294 C63 1.454 . S
C319 C133 1.454 . S
C324 C77 1.454 . S
C349 C93 0.306 . S
C354 C9 0.306 . S
C379 C107 0.306 . S
C384 C23 0.306 . S
C409 C121 0.306 . S
C414 C37 0.306 . S
C439 C51 0.306 . S
C444 C135 0.306 . S
C469 C65 0.306 . S
C474 C149 0.306 . S
C499 C79 0.306 . S
C504 C163 0.306 . S
C529 C8 1.415 . S
C534 C50 1.415 . S
C559 C22 1.415 . S
C564 C64 1.415 . S
C589 C36 1.414 . S
C594 C78 1.414 . S
C619 C134 1.415 . S
C624 C92 1.415 . S
C649 C148 1.415 . S
C654 C106 1.415 . S
C679 C162 1.415 . S
C684 C120 1.415 . S
C709 C3 1.470 . S
C714 C115 1.470 . S
C739 C129 1.470 . S
C744 C17 1.470 . S
C769 C31 1.470 . S
C774 C143 1.470 . S
C799 C157 1.470 . S
C804 C45 1.470 . S
C829 C59 1.470 . S
C834 C87 1.470 . S
C859 C73 1.470 . S
C864 C101 1.470 . S
