# Generated by pormake.
# Topology wgq, (5)-cn, num edge types: 1
# Building blocks:
#     Node 0, Type 0, BuildingBlock: BEQFEK_clean_sbu_0, # of connection points: 5
#     Node 1, Type 0, BuildingBlock: BEQFEK_clean_sbu_0, # of connection points: 5
#     Node 2, Type 0, BuildingBlock: BEQFEK_clean_sbu_0, # of connection points: 5
#     Node 3, Type 0, BuildingBlock: BEQFEK_clean_sbu_0, # of connection points: 5
#     Node 4, Type 0, BuildingBlock: BEQFEK_clean_sbu_0, # of connection points: 5
#     Node 5, Type 0, BuildingBlock: BEQFEK_clean_sbu_0, # of connection points: 5
#     Node 6, Type 0, BuildingBlock: BEQFEK_clean_sbu_0, # of connection points: 5
#     Node 7, Type 0, BuildingBlock: BEQFEK_clean_sbu_0, # of connection points: 5
#     Node 8, Type 0, BuildingBlock: BEQFEK_clean_sbu_0, # of connection points: 5
#     Node 9, Type 0, BuildingBlock: BEQFEK_clean_sbu_0, # of connection points: 5
#     Node 10, Type 0, BuildingBlock: BEQFEK_clean_sbu_0, # of connection points: 5
#     Node 11, Type 0, BuildingBlock: BEQFEK_clean_sbu_0, # of connection points: 5
#     Node 12, Type 0, BuildingBlock: BEQFEK_clean_sbu_0, # of connection points: 5
#     Node 13, Type 0, BuildingBlock: BEQFEK_clean_sbu_0, # of connection points: 5
#     Node 14, Type 0, BuildingBlock: BEQFEK_clean_sbu_0, # of connection points: 5
#     Node 15, Type 0, BuildingBlock: BEQFEK_clean_sbu_0, # of connection points: 5
#     Node 16, Type 0, BuildingBlock: BEQFEK_clean_sbu_0, # of connection points: 5
#     Node 17, Type 0, BuildingBlock: BEQFEK_clean_sbu_0, # of connection points: 5
#     Node 18, Type 0, BuildingBlock: BEQFEK_clean_sbu_0, # of connection points: 5
#     Node 19, Type 0, BuildingBlock: BEQFEK_clean_sbu_0, # of connection points: 5
#     Node 20, Type 0, BuildingBlock: BEQFEK_clean_sbu_0, # of connection points: 5
#     Node 21, Type 0, BuildingBlock: BEQFEK_clean_sbu_0, # of connection points: 5
#     Node 22, Type 0, BuildingBlock: BEQFEK_clean_sbu_0, # of connection points: 5
#     Node 23, Type 0, BuildingBlock: BEQFEK_clean_sbu_0, # of connection points: 5
#     Node 24, Type 0, BuildingBlock: BEQFEK_clean_sbu_0, # of connection points: 5
#     Node 25, Type 0, BuildingBlock: BEQFEK_clean_sbu_0, # of connection points: 5
#     Node 26, Type 0, BuildingBlock: BEQFEK_clean_sbu_0, # of connection points: 5
#     Node 27, Type 0, BuildingBlock: BEQFEK_clean_sbu_0, # of connection points: 5
#     Node 28, Type 0, BuildingBlock: BEQFEK_clean_sbu_0, # of connection points: 5
#     Node 29, Type 0, BuildingBlock: BEQFEK_clean_sbu_0, # of connection points: 5
#     Node 30, Type 0, BuildingBlock: BEQFEK_clean_sbu_0, # of connection points: 5
#     Node 31, Type 0, BuildingBlock: BEQFEK_clean_sbu_0, # of connection points: 5
#     Edge 32, Type (0, 0), BuildingBlock: AJUNOK_clean_linker_0, # of connection points: 2
#     Edge 33, Type (0, 0), BuildingBlock: AJUNOK_clean_linker_0, # of connection points: 2
#     Edge 34, Type (0, 0), BuildingBlock: AJUNOK_clean_linker_0, # of connection points: 2
#     Edge 35, Type (0, 0), BuildingBlock: AJUNOK_clean_linker_0, # of connection points: 2
#     Edge 36, Type (0, 0), BuildingBlock: AJUNOK_clean_linker_0, # of connection points: 2
#     Edge 37, Type (0, 0), BuildingBlock: AJUNOK_clean_linker_0, # of connection points: 2
#     Edge 38, Type (0, 0), BuildingBlock: AJUNOK_clean_linker_0, # of connection points: 2
#     Edge 39, Type (0, 0), BuildingBlock: AJUNOK_clean_linker_0, # of connection points: 2
#     Edge 40, Type (0, 0), BuildingBlock: AJUNOK_clean_linker_0, # of connection points: 2
#     Edge 41, Type (0, 0), BuildingBlock: AJUNOK_clean_linker_0, # of connection points: 2
#     Edge 42, Type (0, 0), BuildingBlock: AJUNOK_clean_linker_0, # of connection points: 2
#     Edge 43, Type (0, 0), BuildingBlock: AJUNOK_clean_linker_0, # of connection points: 2
#     Edge 44, Type (0, 0), BuildingBlock: AJUNOK_clean_linker_0, # of connection points: 2
#     Edge 45, Type (0, 0), BuildingBlock: AJUNOK_clean_linker_0, # of connection points: 2
#     Edge 46, Type (0, 0), BuildingBlock: AJUNOK_clean_linker_0, # of connection points: 2
#     Edge 47, Type (0, 0), BuildingBlock: AJUNOK_clean_linker_0, # of connection points: 2
#     Edge 48, Type (0, 0), BuildingBlock: AJUNOK_clean_linker_0, # of connection points: 2
#     Edge 49, Type (0, 0), BuildingBlock: AJUNOK_clean_linker_0, # of connection points: 2
#     Edge 50, Type (0, 0), BuildingBlock: AJUNOK_clean_linker_0, # of connection points: 2
#     Edge 51, Type (0, 0), BuildingBlock: AJUNOK_clean_linker_0, # of connection points: 2
#     Edge 52, Type (0, 0), BuildingBlock: AJUNOK_clean_linker_0, # of connection points: 2
#     Edge 53, Type (0, 0), BuildingBlock: AJUNOK_clean_linker_0, # of connection points: 2
#     Edge 54, Type (0, 0), BuildingBlock: AJUNOK_clean_linker_0, # of connection points: 2
#     Edge 55, Type (0, 0), BuildingBlock: AJUNOK_clean_linker_0, # of connection points: 2
#     Edge 56, Type (0, 0), BuildingBlock: AJUNOK_clean_linker_0, # of connection points: 2
#     Edge 57, Type (0, 0), BuildingBlock: AJUNOK_clean_linker_0, # of connection points: 2
#     Edge 58, Type (0, 0), BuildingBlock: AJUNOK_clean_linker_0, # of connection points: 2
#     Edge 59, Type (0, 0), BuildingBlock: AJUNOK_clean_linker_0, # of connection points: 2
#     Edge 60, Type (0, 0), BuildingBlock: AJUNOK_clean_linker_0, # of connection points: 2
#     Edge 61, Type (0, 0), BuildingBlock: AJUNOK_clean_linker_0, # of connection points: 2
#     Edge 62, Type (0, 0), BuildingBlock: AJUNOK_clean_linker_0, # of connection points: 2
#     Edge 63, Type (0, 0), BuildingBlock: AJUNOK_clean_linker_0, # of connection points: 2
#     Edge 64, Type (0, 0), BuildingBlock: AJUNOK_clean_linker_0, # of connection points: 2
#     Edge 65, Type (0, 0), BuildingBlock: AJUNOK_clean_linker_0, # of connection points: 2
#     Edge 66, Type (0, 0), BuildingBlock: AJUNOK_clean_linker_0, # of connection points: 2
#     Edge 67, Type (0, 0), BuildingBlock: AJUNOK_clean_linker_0, # of connection points: 2
#     Edge 68, Type (0, 0), BuildingBlock: AJUNOK_clean_linker_0, # of connection points: 2
#     Edge 69, Type (0, 0), BuildingBlock: AJUNOK_clean_linker_0, # of connection points: 2
#     Edge 70, Type (0, 0), BuildingBlock: AJUNOK_clean_linker_0, # of connection points: 2
#     Edge 71, Type (0, 0), BuildingBlock: AJUNOK_clean_linker_0, # of connection points: 2
#     Edge 72, Type (0, 0), BuildingBlock: AJUNOK_clean_linker_0, # of connection points: 2
#     Edge 73, Type (0, 0), BuildingBlock: AJUNOK_clean_linker_0, # of connection points: 2
#     Edge 74, Type (0, 0), BuildingBlock: AJUNOK_clean_linker_0, # of connection points: 2
#     Edge 75, Type (0, 0), BuildingBlock: AJUNOK_clean_linker_0, # of connection points: 2
#     Edge 76, Type (0, 0), BuildingBlock: AJUNOK_clean_linker_0, # of connection points: 2
#     Edge 77, Type (0, 0), BuildingBlock: AJUNOK_clean_linker_0, # of connection points: 2
#     Edge 78, Type (0, 0), BuildingBlock: AJUNOK_clean_linker_0, # of connection points: 2
#     Edge 79, Type (0, 0), BuildingBlock: AJUNOK_clean_linker_0, # of connection points: 2
#     Edge 80, Type (0, 0), BuildingBlock: AJUNOK_clean_linker_0, # of connection points: 2
#     Edge 81, Type (0, 0), BuildingBlock: AJUNOK_clean_linker_0, # of connection points: 2
#     Edge 82, Type (0, 0), BuildingBlock: AJUNOK_clean_linker_0, # of connection points: 2
#     Edge 83, Type (0, 0), BuildingBlock: AJUNOK_clean_linker_0, # of connection points: 2
#     Edge 84, Type (0, 0), BuildingBlock: AJUNOK_clean_linker_0, # of connection points: 2
#     Edge 85, Type (0, 0), BuildingBlock: AJUNOK_clean_linker_0, # of connection points: 2
#     Edge 86, Type (0, 0), BuildingBlock: AJUNOK_clean_linker_0, # of connection points: 2
#     Edge 87, Type (0, 0), BuildingBlock: AJUNOK_clean_linker_0, # of connection points: 2
#     Edge 88, Type (0, 0), BuildingBlock: AJUNOK_clean_linker_0, # of connection points: 2
#     Edge 89, Type (0, 0), BuildingBlock: AJUNOK_clean_linker_0, # of connection points: 2
#     Edge 90, Type (0, 0), BuildingBlock: AJUNOK_clean_linker_0, # of connection points: 2
#     Edge 91, Type (0, 0), BuildingBlock: AJUNOK_clean_linker_0, # of connection points: 2
#     Edge 92, Type (0, 0), BuildingBlock: AJUNOK_clean_linker_0, # of connection points: 2
#     Edge 93, Type (0, 0), BuildingBlock: AJUNOK_clean_linker_0, # of connection points: 2
#     Edge 94, Type (0, 0), BuildingBlock: AJUNOK_clean_linker_0, # of connection points: 2
#     Edge 95, Type (0, 0), BuildingBlock: AJUNOK_clean_linker_0, # of connection points: 2
#     Edge 96, Type (0, 0), BuildingBlock: AJUNOK_clean_linker_0, # of connection points: 2
#     Edge 97, Type (0, 0), BuildingBlock: AJUNOK_clean_linker_0, # of connection points: 2
#     Edge 98, Type (0, 0), BuildingBlock: AJUNOK_clean_linker_0, # of connection points: 2
#     Edge 99, Type (0, 0), BuildingBlock: AJUNOK_clean_linker_0, # of connection points: 2
#     Edge 100, Type (0, 0), BuildingBlock: AJUNOK_clean_linker_0, # of connection points: 2
#     Edge 101, Type (0, 0), BuildingBlock: AJUNOK_clean_linker_0, # of connection points: 2
#     Edge 102, Type (0, 0), BuildingBlock: AJUNOK_clean_linker_0, # of connection points: 2
#     Edge 103, Type (0, 0), BuildingBlock: AJUNOK_clean_linker_0, # of connection points: 2
#     Edge 104, Type (0, 0), BuildingBlock: AJUNOK_clean_linker_0, # of connection points: 2
#     Edge 105, Type (0, 0), BuildingBlock: AJUNOK_clean_linker_0, # of connection points: 2
#     Edge 106, Type (0, 0), BuildingBlock: AJUNOK_clean_linker_0, # of connection points: 2
#     Edge 107, Type (0, 0), BuildingBlock: AJUNOK_clean_linker_0, # of connection points: 2
#     Edge 108, Type (0, 0), BuildingBlock: AJUNOK_clean_linker_0, # of connection points: 2
#     Edge 109, Type (0, 0), BuildingBlock: AJUNOK_clean_linker_0, # of connection points: 2
#     Edge 110, Type (0, 0), BuildingBlock: AJUNOK_clean_linker_0, # of connection points: 2
#     Edge 111, Type (0, 0), BuildingBlock: AJUNOK_clean_linker_0, # of connection points: 2
# Relax obj value: 0.079
# Max RMSD: 0.130
# Mean RMSD: 0.130
data_MOF--net-wgq--node1-BEQFEK_clean_sbu_0--edge1-AJUNOK_clean_linker_0
_symmetry_space_group_name_H-M    P1
_symmetry_Int_Tables_number       1
_symmetry_cell_setting            triclinic
loop_
_symmetry_equiv_pos_as_xyz
'x, y, z'
_cell_length_a     22.953409
_cell_length_b     22.913806
_cell_length_c     123.47601
_cell_angle_alpha  89.984009
_cell_angle_beta   90.024273
_cell_angle_gamma 89.997169
loop_
_atom_site_label
_atom_site_type_symbol
_atom_site_fract_x
_atom_site_fract_y
_atom_site_fract_z
_atom_type_partial_charge
Co0 Co 0.15091 0.07194 0.16884 0.0
Co1 Co 0.1429 0.07323 0.19418 0.0
C2 C 0.06222 0.99999 0.18068 0.0
O3 O 0.0868 0.01676 0.17196 0.0
O4 O 0.08242 0.0142 0.18995 0.0
C5 C 0.13136 0.06873 0.14604 0.0
O6 O 0.07641 0.06664 0.14898 0.0
C7 C 0.15283 0.03183 0.2166 0.0
C8 C 0.15248 0.11471 0.22577 0.0
C9 C 0.15496 0.05469 0.22703 0.0
N10 N 0.14871 0.07634 0.20957 0.0
N11 N 0.1484 0.12573 0.21509 0.0
C12 C 0.15837 0.96944 0.21319 0.0
H13 H 0.18207 0.96672 0.20537 0.0
H14 H 0.18133 0.9433 0.21945 0.0
H15 H 0.11423 0.95098 0.21189 0.0
C16 C 0.27593 0.05575 0.17387 0.0
N17 N 0.21991 0.06055 0.17704 0.0
N18 N 0.21771 0.06421 0.18764 0.0
C19 C 0.27269 0.06404 0.19156 0.0
C20 C 0.31183 0.05897 0.18295 0.0
C21 C 0.29386 0.04461 0.1624 0.0
H22 H 0.26307 0.01352 0.15857 0.0
H23 H 0.33848 0.02619 0.16193 0.0
H24 H 0.29215 0.08614 0.15779 0.0
O25 O 0.11417 0.14831 0.17176 0.0
O26 O 0.10684 0.14674 0.18966 0.0
H27 H 0.33382 0.08558 0.20434 0.0
H28 H 0.27818 0.03299 0.20785 0.0
C29 C 0.2874 0.07353 0.20324 0.0
H30 H 0.25983 0.10887 0.20659 0.0
H31 H 0.14561 0.16702 0.21156 0.0
O32 O 0.17045 0.07052 0.1533 0.0
C33 C 0.09625 0.17074 0.18058 0.0
Co34 Co 0.17285 0.8897 0.41897 0.0
Co35 Co 0.17629 0.89583 0.44446 0.0
C36 C 0.2479 0.80826 0.43222 0.0
O37 O 0.23297 0.82866 0.42297 0.0
O38 O 0.23146 0.83236 0.44101 0.0
C39 C 0.20219 0.91057 0.3958 0.0
O40 O 0.25663 0.91846 0.39874 0.0
C41 C 0.21278 0.89843 0.46738 0.0
C42 C 0.13991 0.94744 0.47477 0.0
C43 C 0.19217 0.92024 0.47712 0.0
N44 N 0.17421 0.91201 0.45959 0.0
N45 N 0.13051 0.94075 0.46408 0.0
C46 C 0.26936 0.86797 0.46536 0.0
H47 H 0.28936 0.88484 0.4578 0.0
H48 H 0.29996 0.87386 0.47223 0.0
H49 H 0.2609 0.82068 0.46422 0.0
C50 C 0.18098 0.01965 0.42203 0.0
N51 N 0.18134 0.96434 0.42585 0.0
N52 N 0.18735 0.96595 0.43643 0.0
C53 C 0.19392 0.02196 0.43962 0.0
C54 C 0.18875 0.05845 0.43064 0.0
C55 C 0.16888 0.03514 0.41047 0.0
H56 H 0.13562 0.00521 0.40708 0.0
H57 H 0.20952 0.03032 0.4057 0.0
H58 H 0.15305 0.08071 0.40971 0.0
O59 O 0.10023 0.85163 0.42345 0.0
O60 O 0.10096 0.85848 0.44134 0.0
H61 H 0.17036 0.04375 0.45588 0.0
H62 H 0.2337 0.08189 0.45094 0.0
C63 C 0.21029 0.03951 0.4509 0.0
H64 H 0.23861 0.00575 0.4546 0.0
H65 H 0.09458 0.95652 0.4598 0.0
O66 O 0.16434 0.89841 0.40296 0.0
C67 C 0.07776 0.84026 0.43262 0.0
Co68 Co 0.35552 0.93381 0.66818 0.0
Co69 Co 0.36181 0.94984 0.69331 0.0
C70 C 0.4433 0.01423 0.67982 0.0
O71 O 0.42045 0.98919 0.67162 0.0
O72 O 0.41998 0.01008 0.68917 0.0
C73 C 0.3685 0.91349 0.64542 0.0
O74 O 0.41722 0.88797 0.64838 0.0
C75 C 0.37443 0.97813 0.71656 0.0
C76 C 0.31037 0.91755 0.72379 0.0
C77 C 0.34882 0.96207 0.72634 0.0
N78 N 0.35047 0.94595 0.70861 0.0
N79 N 0.31317 0.90904 0.71303 0.0
C80 C 0.42501 0.01828 0.7148 0.0
H81 H 0.4563 0.99788 0.7091 0.0
H82 H 0.40935 0.05945 0.71107 0.0
H83 H 0.44793 0.02797 0.72251 0.0
C84 C 0.2297 0.94278 0.67272 0.0
N85 N 0.28566 0.94498 0.67598 0.0
N86 N 0.28762 0.95717 0.68635 0.0
C87 C 0.23257 0.96602 0.68993 0.0
C88 C 0.19363 0.95613 0.68142 0.0
C89 C 0.2113 0.92438 0.6616 0.0
H90 H 0.24064 0.88957 0.65857 0.0
H91 H 0.21449 0.96236 0.65606 0.0
H92 H 0.16583 0.90793 0.66155 0.0
O93 O 0.39078 0.85842 0.6716 0.0
O94 O 0.40263 0.87659 0.68911 0.0
H95 H 0.20868 0.95209 0.70648 0.0
H96 H 0.17857 0.0171 0.70059 0.0
C97 C 0.21794 0.98901 0.70094 0.0
H98 H 0.25503 0.01439 0.70427 0.0
H99 H 0.2889 0.87861 0.70865 0.0
O100 O 0.33684 0.93728 0.65258 0.0
C101 C 0.41235 0.84519 0.68078 0.0
Co102 Co 0.32303 0.10028 0.92027 0.0
Co103 Co 0.3475 0.10152 0.94521 0.0
C104 C 0.26612 0.18824 0.9338 0.0
O105 O 0.26732 0.16323 0.92456 0.0
O106 O 0.29309 0.16646 0.94187 0.0
C107 C 0.3197 0.11964 0.89727 0.0
O108 O 0.32379 0.17483 0.90005 0.0
C109 C 0.31124 0.0953 0.9678 0.0
C110 C 0.39531 0.09412 0.97654 0.0
C111 C 0.33556 0.09498 0.97811 0.0
N112 N 0.3546 0.09555 0.96052 0.0
N113 N 0.40481 0.09478 0.96577 0.0
C114 C 0.24826 0.09211 0.96473 0.0
H115 H 0.24315 0.06594 0.95722 0.0
H116 H 0.22185 0.07272 0.97134 0.0
H117 H 0.23207 0.13675 0.96297 0.0
C118 C 0.30473 0.97365 0.92539 0.0
N119 N 0.31588 0.02921 0.92841 0.0
N120 N 0.3284 0.02977 0.93878 0.0
C121 C 0.32763 0.97479 0.94264 0.0
C122 C 0.31193 0.93697 0.93431 0.0
C123 C 0.28627 0.9565 0.91421 0.0
H124 H 0.25719 0.9904 0.91076 0.0
H125 H 0.26325 0.91392 0.91423 0.0
H126 H 0.32541 0.9531 0.90898 0.0
O127 O 0.39986 0.14009 0.92231 0.0
O128 O 0.42105 0.13006 0.93973 0.0
H129 H 0.35779 0.9114 0.95441 0.0
H130 H 0.3135 0.97012 0.95974 0.0
C131 C 0.34783 0.95866 0.95378 0.0
H132 H 0.3875 0.98394 0.95585 0.0
H133 H 0.44545 0.09526 0.96202 0.0
O134 O 0.31712 0.08115 0.90466 0.0
C135 C 0.43335 0.14943 0.93036 0.0
Co136 Co 0.15941 0.95164 0.32752 0.0
Co137 Co 0.16017 0.93252 0.30224 0.0
C138 C 0.07381 0.01295 0.31414 0.0
O139 O 0.0989 0.00974 0.32335 0.0
O140 O 0.09464 0.98674 0.30587 0.0
C141 C 0.13675 0.93998 0.35027 0.0
O142 O 0.08392 0.92871 0.34677 0.0
C143 C 0.16996 0.96859 0.27931 0.0
C144 C 0.16862 0.88288 0.27112 0.0
C145 C 0.16967 0.94237 0.26916 0.0
N146 N 0.16879 0.92644 0.28689 0.0
N147 N 0.16854 0.87535 0.28192 0.0
C148 C 0.16719 0.0324 0.28181 0.0
H149 H 0.15365 0.0397 0.29032 0.0
H150 H 0.21106 0.05177 0.28068 0.0
H151 H 0.13663 0.05464 0.27619 0.0
C152 C 0.28604 0.96709 0.32328 0.0
N153 N 0.23099 0.95857 0.31978 0.0
N154 N 0.23182 0.9483 0.30932 0.0
C155 C 0.28756 0.94814 0.30586 0.0
C156 C 0.32427 0.95988 0.3146 0.0
C157 C 0.30084 0.98501 0.3346 0.0
H158 H 0.26719 0.01542 0.33772 0.0
H159 H 0.34408 0.00655 0.33499 0.0
H160 H 0.30113 0.94582 0.33989 0.0
O161 O 0.11902 0.87645 0.32446 0.0
O162 O 0.12892 0.85799 0.30694 0.0
H163 H 0.27904 0.89497 0.29168 0.0
H164 H 0.35205 0.92117 0.29405 0.0
C165 C 0.30517 0.9326 0.29455 0.0
H166 H 0.29615 0.97015 0.28912 0.0
H167 H 0.1667 0.83523 0.28591 0.0
O168 O 0.17579 0.95325 0.3434 0.0
C169 C 0.10909 0.84452 0.31621 0.0
Co170 Co 0.30582 0.88706 0.5775 0.0
Co171 Co 0.31306 0.89417 0.55222 0.0
C172 C 0.2364 0.80599 0.56402 0.0
O173 O 0.24494 0.82854 0.57336 0.0
O174 O 0.25881 0.82836 0.55551 0.0
C175 C 0.28158 0.90014 0.6011 0.0
O176 O 0.22555 0.90537 0.59915 0.0
C177 C 0.27777 0.89708 0.52925 0.0
C178 C 0.3509 0.94635 0.52201 0.0
C179 C 0.29875 0.91918 0.51955 0.0
N180 N 0.31602 0.91043 0.5371 0.0
N181 N 0.35988 0.93934 0.5327 0.0
C182 C 0.22106 0.86668 0.53117 0.0
H183 H 0.20119 0.88277 0.5388 0.0
H184 H 0.19046 0.87349 0.52432 0.0
H185 H 0.2293 0.81923 0.53212 0.0
C186 C 0.29809 0.01637 0.57494 0.0
N187 N 0.29979 0.96176 0.57085 0.0
N188 N 0.29881 0.96458 0.56023 0.0
C189 C 0.29354 0.02111 0.55722 0.0
C190 C 0.29407 0.05634 0.56645 0.0
C191 C 0.30513 0.02991 0.58673 0.0
H192 H 0.33943 1.00167 0.59026 0.0
H193 H 0.26357 0.02072 0.59098 0.0
H194 H 0.31743 0.07616 0.58807 0.0
O195 O 0.37735 0.84843 0.57327 0.0
O196 O 0.38976 0.85937 0.55567 0.0
H197 H 0.32553 0.0443 0.54154 0.0
H198 H 0.26067 0.08322 0.54554 0.0
C199 C 0.28318 0.04038 0.5458 0.0
H200 H 0.2562 0.00768 0.54148 0.0
H201 H 0.3956 0.95505 0.53704 0.0
O202 O 0.31665 0.8933 0.59328 0.0
C203 C 0.40664 0.83942 0.56475 0.0
Co204 Co 0.35522 0.06895 0.82896 0.0
Co205 Co 0.36343 0.06689 0.80343 0.0
C206 C 0.44311 0.99476 0.81773 0.0
O207 O 0.41652 0.00952 0.82639 0.0
O208 O 0.42486 0.01065 0.8084 0.0
C209 C 0.34984 0.04658 0.85237 0.0
O210 O 0.3757 0.99654 0.85041 0.0
C211 C 0.36946 0.03214 0.78004 0.0
C212 C 0.33269 0.11188 0.77267 0.0
C213 C 0.35473 0.05734 0.7701 0.0
N214 N 0.35579 0.07004 0.78799 0.0
N215 N 0.33467 0.1178 0.78347 0.0
C216 C 0.39979 0.97525 0.78196 0.0
H217 H 0.42704 0.97758 0.78933 0.0
H218 H 0.36674 0.9405 0.78316 0.0
H219 H 0.42794 0.96357 0.77499 0.0
C220 C 0.23008 0.0527 0.824 0.0
N221 N 0.2861 0.0577 0.82084 0.0
N222 N 0.28866 0.05749 0.8102 0.0
C223 C 0.23388 0.05281 0.80625 0.0
C224 C 0.19475 0.04966 0.81487 0.0
C225 C 0.21133 0.04927 0.83559 0.0
H226 H 0.24039 0.01898 0.84005 0.0
H227 H 0.16565 0.03401 0.83636 0.0
H228 H 0.21543 0.09308 0.83934 0.0
O229 O 0.39576 0.14121 0.82505 0.0
O230 O 0.3995 0.14189 0.80716 0.0
H231 H 0.23005 0.10055 0.79146 0.0
H232 H 0.17203 0.04923 0.79291 0.0
C233 C 0.21901 0.05639 0.79446 0.0
H234 H 0.24512 0.02404 0.78987 0.0
H235 H 0.3214 0.15457 0.7878 0.0
O236 O 0.33705 0.07996 0.84452 0.0
C237 C 0.41275 0.16417 0.81625 0.0
Co238 Co 0.17536 0.10268 0.07775 0.0
Co239 Co 0.1961 0.10717 0.05269 0.0
C240 C 0.25732 0.19039 0.06725 0.0
O241 O 0.23293 0.16648 0.07541 0.0
O242 O 0.25199 0.16865 0.05777 0.0
C243 C 0.19969 0.09471 0.10087 0.0
O244 O 0.25296 0.11129 0.09849 0.0
C245 C 0.24286 0.09852 0.03027 0.0
C246 C 0.1606 0.08806 0.02116 0.0
C247 C 0.22022 0.09329 0.0199 0.0
N248 N 0.1984 0.09661 0.03736 0.0
N249 N 0.14951 0.08986 0.03184 0.0
C250 C 0.30509 0.1086 0.03333 0.0
H251 H 0.30921 0.11807 0.04209 0.0
H252 H 0.33097 0.06904 0.03142 0.0
H253 H 0.32316 0.14525 0.0285 0.0
C254 C 0.19076 0.97653 0.07401 0.0
N255 N 0.1909 0.03214 0.07047 0.0
N256 N 0.20154 0.03308 0.06002 0.0
C257 C 0.21021 0.97759 0.05662 0.0
C258 C 0.20314 0.93952 0.06538 0.0
C259 C 0.17454 0.95929 0.08532 0.0
H260 H 0.13553 0.98415 0.08792 0.0
H261 H 0.21089 0.97039 0.09087 0.0
H262 H 0.16485 0.91199 0.08595 0.0
O263 O 0.10317 0.13721 0.07273 0.0
O264 O 0.12028 0.14705 0.05519 0.0
H265 H 0.1895 0.96548 0.03991 0.0
H266 H 0.24591 0.91715 0.04489 0.0
C267 C 0.22793 0.96202 0.04533 0.0
H268 H 0.26129 0.99328 0.04243 0.0
H269 H 0.10826 0.08771 0.03537 0.0
O270 O 0.16277 0.08874 0.09331 0.0
C271 C 0.08902 0.15694 0.06349 0.0
Co272 Co 0.86187 0.93849 0.82815 0.0
Co273 Co 0.85566 0.94488 0.80258 0.0
C274 C 0.94338 0.014 0.81475 0.0
O275 O 0.9243 0.99562 0.82385 0.0
O276 O 0.91729 1.00223 0.8059 0.0
C277 C 0.83265 0.97419 0.85035 0.0
O278 O 0.8141 0.02331 0.84607 0.0
C279 C 0.84575 0.98376 0.77975 0.0
C280 C 0.8227 0.90093 0.77163 0.0
C281 C 0.8345 0.95918 0.76967 0.0
N282 N 0.84044 0.94184 0.78732 0.0
N283 N 0.82644 0.89256 0.7824 0.0
C284 C 0.86601 0.04444 0.78214 0.0
H285 H 0.91222 0.04284 0.78476 0.0
H286 H 0.84027 0.0627 0.78895 0.0
H287 H 0.86259 0.07325 0.77495 0.0
C288 C 0.73306 0.94574 0.82523 0.0
N289 N 0.78787 0.9476 0.82128 0.0
N290 N 0.78553 0.95462 0.81072 0.0
C291 C 0.72925 0.9607 0.8077 0.0
C292 C 0.69381 0.95532 0.81681 0.0
C293 C 0.71809 0.92603 0.83646 0.0
H294 H 0.75074 0.894 0.83937 0.0
H295 H 0.71803 0.96397 0.84201 0.0
H296 H 0.67419 0.90573 0.83668 0.0
O297 O 0.89706 0.86459 0.82393 0.0
O298 O 0.89592 0.87053 0.80601 0.0
H299 H 0.70988 0.93096 0.79171 0.0
H300 H 0.66599 0.99205 0.79607 0.0
C301 C 0.7102 0.97254 0.79632 0.0
H302 H 0.74132 1.00271 0.79235 0.0
H303 H 0.82059 0.85283 0.78639 0.0
O304 O 0.85405 0.93504 0.84424 0.0
C305 C 0.91132 0.84477 0.81468 0.0
Co306 Co 0.80448 0.09934 0.57975 0.0
Co307 Co 0.80415 0.10847 0.55433 0.0
C308 C 0.73002 0.18722 0.56804 0.0
O309 O 0.74791 0.1627 0.57671 0.0
O310 O 0.74387 0.1675 0.55871 0.0
C311 C 0.76652 0.07472 0.602 0.0
O312 O 0.71263 0.0779 0.59847 0.0
C313 C 0.76715 0.09692 0.53143 0.0
C314 C 0.85235 0.10063 0.52313 0.0
C315 C 0.79314 0.09485 0.52124 0.0
N316 N 0.80926 0.10327 0.53892 0.0
N317 N 0.85999 0.1057 0.53388 0.0
C318 C 0.70411 0.08993 0.53418 0.0
H319 H 0.69926 0.07389 0.54262 0.0
H320 H 0.68266 0.05933 0.52846 0.0
H321 H 0.68227 0.13301 0.53359 0.0
C322 C 0.79128 0.97305 0.57445 0.0
N323 N 0.79457 0.02968 0.57147 0.0
N324 N 0.79743 0.03288 0.56085 0.0
C325 C 0.79806 0.97817 0.55675 0.0
C326 C 0.79443 0.93804 0.56524 0.0
C327 C 0.78078 0.95352 0.58585 0.0
H328 H 0.7442 0.97887 0.58929 0.0
H329 H 0.7692 0.90665 0.58633 0.0
H330 H 0.82022 0.96212 0.5908 0.0
O331 O 0.87939 0.13775 0.57657 0.0
O332 O 0.87672 0.14638 0.55872 0.0
H333 H 0.81836 0.91822 0.5437 0.0
H334 H 0.76582 0.9745 0.54053 0.0
C335 C 0.80658 0.96463 0.545 0.0
H336 H 0.84176 0.99242 0.54166 0.0
H337 H 0.89999 0.11043 0.5378 0.0
O338 O 0.80854 0.08213 0.59546 0.0
C339 C 0.90099 0.15673 0.56777 0.0
Co340 Co 0.65949 0.07519 0.32772 0.0
Co341 Co 0.6595 0.08743 0.3023 0.0
C342 C 0.57322 0.01082 0.31505 0.0
O343 O 0.59816 0.01609 0.32424 0.0
O344 O 0.59413 0.03539 0.30664 0.0
C345 C 0.6419 0.06694 0.35113 0.0
O346 O 0.58893 0.04973 0.34866 0.0
C347 C 0.6607 0.04702 0.27937 0.0
C348 C 0.69218 0.12689 0.27128 0.0
C349 C 0.67564 0.06973 0.26924 0.0
N350 N 0.66915 0.08871 0.28691 0.0
N351 N 0.68719 0.13647 0.28196 0.0
C352 C 0.63558 0.9882 0.28185 0.0
H353 H 0.60989 0.98916 0.28939 0.0
H354 H 0.67157 0.95641 0.28295 0.0
H355 H 0.6069 0.97323 0.27517 0.0
C356 C 0.78631 0.05641 0.32336 0.0
N357 N 0.73103 0.06507 0.31994 0.0
N358 N 0.73131 0.0723 0.30939 0.0
C359 C 0.78678 0.06998 0.30577 0.0
C360 C 0.8239 0.06005 0.31451 0.0
C361 C 0.80226 0.04248 0.33481 0.0
H362 H 0.76808 0.01483 0.33855 0.0
H363 H 0.84481 0.01959 0.33525 0.0
H364 H 0.80521 0.08371 0.33948 0.0
O365 O 0.61952 0.15007 0.32399 0.0
O366 O 0.62944 0.16365 0.3063 0.0
H367 H 0.7874 0.12615 0.29201 0.0
H368 H 0.8519 0.08274 0.29318 0.0
C369 C 0.80405 0.08253 0.29432 0.0
H370 H 0.7841 0.04966 0.28887 0.0
H371 H 0.69652 0.17564 0.28591 0.0
O372 O 0.67743 0.07839 0.34353 0.0
C373 C 0.6101 0.17995 0.31544 0.0
Co374 Co 0.66914 0.89779 0.07762 0.0
Co375 Co 0.69737 0.90019 0.0527 0.0
C376 C 0.75465 0.81325 0.06693 0.0
O377 O 0.72678 0.83384 0.07503 0.0
O378 O 0.75204 0.83786 0.05766 0.0
C379 C 0.6902 0.91387 0.10077 0.0
O380 O 0.74556 0.91849 0.09821 0.0
C381 C 0.73904 0.89396 0.02987 0.0
C382 C 0.68614 0.96406 0.02248 0.0
C383 C 0.72896 0.92337 0.02015 0.0
N384 N 0.70511 0.91785 0.03759 0.0
N385 N 0.67294 0.95892 0.03304 0.0
C386 C 0.7741 0.83972 0.03161 0.0
H387 H 0.75011 0.80956 0.03704 0.0
H388 H 0.81578 0.85131 0.03562 0.0
H389 H 0.78316 0.81709 0.02385 0.0
C390 C 0.68698 0.02495 0.07524 0.0
N391 N 0.68768 0.97023 0.07122 0.0
N392 N 0.70355 0.9716 0.061 0.0
C393 C 0.71679 0.02748 0.05838 0.0
C394 C 0.70597 0.06341 0.06727 0.0
C395 C 0.66291 0.04034 0.08614 0.0
H396 H 0.62465 0.01249 0.08797 0.0
H397 H 0.69656 0.03216 0.0924 0.0
H398 H 0.64969 0.08689 0.0865 0.0
O399 O 0.59817 0.86712 0.07148 0.0
O400 O 0.61983 0.86083 0.05404 0.0
H401 H 0.70958 0.06193 0.04235 0.0
H402 H 0.77496 0.08248 0.0493 0.0
C403 C 0.74398 0.04602 0.04792 0.0
H404 H 0.76745 0.00907 0.04411 0.0
H405 H 0.64173 0.98344 0.03717 0.0
O406 O 0.65298 0.90578 0.09332 0.0
C407 C 0.58591 0.85017 0.06196 0.0
Co408 Co 0.85832 0.07849 0.66806 0.0
Co409 Co 0.86021 0.07045 0.69344 0.0
C410 C 0.94344 1.00134 0.6809 0.0
O411 O 0.92217 0.02369 0.67228 0.0
O412 O 0.91947 0.00984 0.69008 0.0
C413 C 0.82172 0.03286 0.64724 0.0
O414 O 0.80415 0.98696 0.65271 0.0
C415 C 0.85087 0.03568 0.71652 0.0
C416 C 0.83105 0.12042 0.72419 0.0
C417 C 0.83989 0.06187 0.72652 0.0
N418 N 0.84845 0.07693 0.70877 0.0
N419 N 0.83669 0.12745 0.71343 0.0
C420 C 0.86025 0.97233 0.71416 0.0
H421 H 0.84767 0.96229 0.70568 0.0
H422 H 0.83466 0.94476 0.71982 0.0
H423 H 0.90716 0.96188 0.71514 0.0
C424 C 0.73109 0.07123 0.67202 0.0
N425 N 0.78668 0.0695 0.67554 0.0
N426 N 0.78708 0.06123 0.68607 0.0
C427 C 0.73147 0.05428 0.6895 0.0
C428 C 0.69392 0.06003 0.68066 0.0
C429 C 0.71336 0.09218 0.661 0.0
H430 H 0.74614 0.12323 0.65779 0.0
H431 H 0.71008 0.05472 0.65538 0.0
H432 H 0.67014 0.11387 0.66131 0.0
O433 O 0.89258 0.15397 0.67117 0.0
O434 O 0.90162 0.14348 0.68895 0.0
H435 H 0.7175 0.08258 0.70575 0.0
H436 H 0.67015 0.02378 0.70155 0.0
C437 C 0.71495 0.04166 0.70097 0.0
H438 H 0.746 0.00994 0.70452 0.0
H439 H 0.83247 0.16678 0.70924 0.0
O440 O 0.84623 0.07478 0.65219 0.0
C441 C 0.91222 0.17141 0.68022 0.0
Co442 Co 0.66842 0.09878 0.41982 0.0
Co443 Co 0.67953 0.0986 0.44529 0.0
C444 C 0.74727 0.18299 0.4324 0.0
O445 O 0.7243 0.16272 0.42374 0.0
O446 O 0.7391 0.15835 0.44155 0.0
C447 C 0.70103 0.1014 0.3968 0.0
O448 O 0.74907 0.12741 0.39997 0.0
C449 C 0.71556 0.09412 0.46831 0.0
C450 C 0.63471 0.062 0.47602 0.0
C451 C 0.6911 0.07957 0.47824 0.0
N452 N 0.67548 0.08488 0.46055 0.0
N453 N 0.62733 0.06568 0.46522 0.0
C454 C 0.77385 0.12105 0.46622 0.0
H455 H 0.76738 0.16501 0.46267 0.0
H456 H 0.79786 0.09435 0.4602 0.0
H457 H 0.79994 0.12554 0.47373 0.0
C458 C 0.68368 0.97179 0.42332 0.0
N459 N 0.68128 0.02696 0.42708 0.0
N460 N 0.68801 0.02648 0.43765 0.0
C461 C 0.69651 0.97081 0.44093 0.0
C462 C 0.69391 0.93395 0.43195 0.0
C463 C 0.67177 0.95574 0.41178 0.0
H464 H 0.63274 0.97961 0.40886 0.0
H465 H 0.70926 0.96926 0.40669 0.0
H466 H 0.66431 0.90818 0.41082 0.0
O467 O 0.59373 0.13279 0.42389 0.0
O468 O 0.60605 0.13962 0.44163 0.0
H469 H 0.66791 0.95259 0.45702 0.0
H470 H 0.73016 0.91011 0.45282 0.0
C471 C 0.70927 0.95371 0.45238 0.0
H472 H 0.73838 0.98647 0.45617 0.0
H473 H 0.58914 0.05565 0.46103 0.0
O474 O 0.66371 0.08624 0.40386 0.0
C475 C 0.57719 0.1512 0.43309 0.0
Co476 Co 0.64464 0.94693 0.16879 0.0
Co477 Co 0.64887 0.9402 0.19422 0.0
C478 C 0.56178 0.01571 0.18268 0.0
O479 O 0.58276 0.00432 0.17333 0.0
O480 O 0.58557 0.99614 0.19126 0.0
C481 C 0.62103 0.93314 0.14613 0.0
O482 O 0.57109 0.91278 0.14969 0.0
C483 C 0.64586 0.97168 0.21729 0.0
C484 C 0.70978 0.90994 0.22422 0.0
C485 C 0.67519 0.95751 0.2268 0.0
N486 N 0.66447 0.9359 0.2094 0.0
N487 N 0.7015 0.89816 0.21365 0.0
C488 C 0.59646 0.01372 0.21591 0.0
H489 H 0.56075 0.99225 0.21136 0.0
H490 H 0.61141 0.05186 0.21112 0.0
H491 H 0.5789 0.02844 0.22382 0.0
C492 C 0.77294 0.95344 0.17212 0.0
N493 N 0.7179 0.95299 0.17597 0.0
N494 N 0.71943 0.95582 0.18658 0.0
C495 C 0.77544 0.96187 0.1898 0.0
C496 C 0.81172 0.95889 0.18076 0.0
C497 C 0.78782 0.94394 0.16045 0.0
H498 H 0.78029 0.98504 0.1559 0.0
H499 H 0.83383 0.93023 0.15941 0.0
H500 H 0.75911 0.90977 0.15699 0.0
O501 O 0.60814 0.87141 0.17188 0.0
O502 O 0.61312 0.86514 0.18981 0.0
H503 H 0.80191 0.93693 0.20577 0.0
H504 H 0.83386 0.0038 0.20106 0.0
C505 C 0.79337 0.9773 0.2011 0.0
H506 H 0.75833 1.0023 0.20519 0.0
H507 H 0.72252 0.86547 0.20926 0.0
O508 O 0.65791 0.95213 0.15295 0.0
C509 C 0.59659 0.84495 0.18068 0.0
Co510 Co 0.82312 0.89566 0.918 0.0
Co511 Co 0.83732 0.89596 0.94352 0.0
C512 C 0.75836 0.81084 0.93138 0.0
O513 O 0.7644 0.83459 0.92207 0.0
O514 O 0.7829 0.83227 0.93973 0.0
C515 C 0.78408 0.91979 0.89555 0.0
O516 O 0.73052 0.9229 0.89925 0.0
C517 C 0.80414 0.89558 0.96693 0.0
C518 C 0.88581 0.92766 0.97427 0.0
C519 C 0.8298 0.90986 0.97684 0.0
N520 N 0.8431 0.90546 0.95897 0.0
N521 N 0.89197 0.92391 0.96347 0.0
C522 C 0.74508 0.86967 0.96508 0.0
H523 H 0.74603 0.839 0.95818 0.0
H524 H 0.71384 0.90511 0.96313 0.0
H525 H 0.72966 0.84571 0.97234 0.0
C526 C 0.80847 0.02416 0.92253 0.0
N527 N 0.8162 0.96827 0.92579 0.0
N528 N 0.8216 0.96765 0.93641 0.0
C529 C 0.81737 0.02267 0.94021 0.0
C530 C 0.80883 0.06052 0.93157 0.0
C531 C 0.79891 0.04208 0.91102 0.0
H532 H 0.757 0.02368 0.90816 0.0
H533 H 0.79722 0.09016 0.91009 0.0
H534 H 0.83432 0.02428 0.90589 0.0
O535 O 0.89747 0.85495 0.92114 0.0
O536 O 0.91175 0.86377 0.93882 0.0
H537 H 0.82022 0.08657 0.95321 0.0
H538 H 0.79296 0.01505 0.95689 0.0
C539 C 0.82511 0.039 0.95186 0.0
H540 H 0.8694 0.02618 0.95451 0.0
H541 H 0.92955 0.93438 0.95913 0.0
O542 O 0.82571 0.90932 0.90206 0.0
C543 C 0.92742 0.84467 0.9296 0.0
Co544 Co 0.65084 0.56937 0.67058 0.0
Co545 Co 0.65024 0.58437 0.69599 0.0
C546 C 0.56487 0.5054 0.684 0.0
O547 O 0.58829 0.51255 0.67471 0.0
O548 O 0.58659 0.52899 0.69242 0.0
C549 C 0.64075 0.58928 0.64745 0.0
O550 O 0.5959 0.6215 0.65027 0.0
C551 C 0.64198 0.55512 0.71927 0.0
C552 C 0.6892 0.62914 0.72662 0.0
C553 C 0.66171 0.57701 0.72914 0.0
N554 N 0.65907 0.59159 0.71134 0.0
N555 N 0.68582 0.63651 0.71584 0.0
C556 C 0.60198 0.50442 0.71742 0.0
H557 H 0.56711 0.51725 0.71172 0.0
H558 H 0.62681 0.46779 0.71378 0.0
H559 H 0.58045 0.48996 0.72499 0.0
C560 C 0.77772 0.55192 0.67518 0.0
N561 N 0.7224 0.56081 0.67854 0.0
N562 N 0.72252 0.56801 0.6891 0.0
C563 C 0.77796 0.56475 0.69277 0.0
C564 C 0.81516 0.55496 0.68404 0.0
C565 C 0.79368 0.53726 0.66377 0.0
H566 H 0.76324 0.50361 0.66067 0.0
H567 H 0.83889 0.52048 0.66315 0.0
H568 H 0.78915 0.57687 0.65866 0.0
O569 O 0.61225 0.64666 0.67325 0.0
O570 O 0.6186 0.65802 0.69104 0.0
H571 H 0.78778 0.62224 0.70618 0.0
H572 H 0.84191 0.56654 0.70581 0.0
C573 C 0.7953 0.57564 0.70428 0.0
H574 H 0.76827 0.54857 0.70977 0.0
H575 H 0.7023 0.672 0.71152 0.0
O576 O 0.66892 0.56241 0.65478 0.0
C577 C 0.60136 0.67568 0.68184 0.0
Co578 Co 0.70096 0.39644 0.91981 0.0
Co579 Co 0.67774 0.39725 0.94472 0.0
C580 C 0.75867 0.31011 0.93279 0.0
O581 O 0.75948 0.33624 0.92367 0.0
O582 O 0.73049 0.33114 0.9408 0.0
C583 C 0.69033 0.37855 0.89689 0.0
O584 O 0.68498 0.32308 0.8994 0.0
C585 C 0.71376 0.39416 0.96765 0.0
C586 C 0.63561 0.42961 0.97578 0.0
C587 C 0.69173 0.41003 0.97773 0.0
N588 N 0.67312 0.4058 0.9601 0.0
N589 N 0.6262 0.42598 0.96505 0.0
C590 C 0.76932 0.3624 0.96527 0.0
H591 H 0.75971 0.32324 0.96033 0.0
H592 H 0.79856 0.39107 0.96048 0.0
H593 H 0.79155 0.34775 0.97277 0.0
C594 C 0.71816 0.52295 0.92411 0.0
N595 N 0.70799 0.468 0.92756 0.0
N596 N 0.69524 0.46927 0.93792 0.0
C597 C 0.69482 0.52528 0.94132 0.0
C598 C 0.70889 0.56155 0.93264 0.0
C599 C 0.74007 0.53761 0.91303 0.0
H600 H 0.76808 0.50188 0.90993 0.0
H601 H 0.76516 0.57902 0.9131 0.0
H602 H 0.70249 0.54274 0.90749 0.0
O603 O 0.62622 0.3545 0.92252 0.0
O604 O 0.60303 0.36815 0.93978 0.0
H605 H 0.63201 0.52607 0.95402 0.0
H606 H 0.67435 0.59169 0.95331 0.0
C607 C 0.67611 0.54363 0.95242 0.0
H608 H 0.70641 0.52503 0.95851 0.0
H609 H 0.58777 0.43759 0.96107 0.0
O610 O 0.70062 0.41547 0.90429 0.0
C611 C 0.59232 0.34614 0.93053 0.0
Co612 Co 0.85963 0.44853 0.16972 0.0
Co613 Co 0.86877 0.44122 0.1952 0.0
C614 C 0.94997 0.51544 0.18166 0.0
O615 O 0.92287 0.50439 0.17289 0.0
O616 O 0.93167 0.49678 0.19077 0.0
C617 C 0.87902 0.44131 0.14712 0.0
O618 O 0.93266 0.43222 0.15042 0.0
C619 C 0.87131 0.47552 0.21854 0.0
C620 C 0.84416 0.39258 0.2261 0.0
C621 C 0.85941 0.44962 0.22855 0.0
N622 N 0.86254 0.43566 0.21068 0.0
N623 N 0.84707 0.38607 0.21531 0.0
C624 C 0.89367 0.53585 0.21645 0.0
H625 H 0.91932 0.53728 0.20889 0.0
H626 H 0.85622 0.56608 0.21552 0.0
H627 H 0.9216 0.55098 0.22322 0.0
C628 C 0.73513 0.46312 0.17508 0.0
N629 N 0.79133 0.45831 0.17813 0.0
N630 N 0.79414 0.45342 0.18872 0.0
C631 C 0.7394 0.45349 0.19275 0.0
C632 C 0.69988 0.45911 0.18422 0.0
C633 C 0.71626 0.4739 0.16365 0.0
H634 H 0.74598 0.50589 0.15978 0.0
H635 H 0.67107 0.49095 0.16326 0.0
H636 H 0.71894 0.43249 0.15902 0.0
O637 O 0.89767 0.37255 0.17243 0.0
O638 O 0.90174 0.36695 0.19035 0.0
H639 H 0.74236 0.39896 0.20672 0.0
H640 H 0.67793 0.44283 0.20602 0.0
C641 C 0.72538 0.44245 0.20441 0.0
H642 H 0.74723 0.4757 0.20952 0.0
H643 H 0.83791 0.34778 0.21106 0.0
O644 O 0.83974 0.45068 0.15414 0.0
C645 C 0.91377 0.34655 0.18103 0.0
Co646 Co 0.82075 0.59381 0.42056 0.0
Co647 Co 0.80708 0.6015 0.44564 0.0
C648 C 0.74277 0.68355 0.43201 0.0
O649 O 0.76631 0.65962 0.42377 0.0
O650 O 0.74801 0.66119 0.44144 0.0
C651 C 0.83164 0.61372 0.39786 0.0
O652 O 0.84183 0.66762 0.40095 0.0
C653 C 0.76966 0.59482 0.46835 0.0
C654 C 0.85392 0.57985 0.47662 0.0
C655 C 0.79489 0.58661 0.47843 0.0
N656 N 0.81201 0.5926 0.46088 0.0
N657 N 0.86222 0.58366 0.46586 0.0
C658 C 0.70739 0.60857 0.46584 0.0
H659 H 0.70301 0.65641 0.46469 0.0
H660 H 0.69433 0.58721 0.45815 0.0
H661 H 0.67796 0.59503 0.4725 0.0
C662 C 0.80856 0.46839 0.42521 0.0
N663 N 0.80818 0.52444 0.42845 0.0
N664 N 0.79889 0.52667 0.43892 0.0
C665 C 0.79095 0.4716 0.44264 0.0
C666 C 0.79718 0.43249 0.43402 0.0
C667 C 0.82499 0.44961 0.41403 0.0
H668 H 0.86259 0.47596 0.41123 0.0
H669 H 0.78766 0.45747 0.40851 0.0
H670 H 0.83714 0.40278 0.41373 0.0
O671 O 0.89627 0.6279 0.42396 0.0
O672 O 0.88068 0.64108 0.4415 0.0
H673 H 0.81481 0.46061 0.45923 0.0
H674 H 0.75685 0.41269 0.45479 0.0
C675 C 0.77528 0.45729 0.45409 0.0
H676 H 0.74293 0.48918 0.45713 0.0
H677 H 0.90224 0.58035 0.4619 0.0
O678 O 0.81966 0.57553 0.40495 0.0
C679 C 0.91112 0.64953 0.43304 0.0
Co680 Co 0.65067 0.43093 0.82948 0.0
Co681 Co 0.64458 0.43811 0.8042 0.0
C682 C 0.56139 0.50503 0.81855 0.0
O683 O 0.5871 0.48797 0.82714 0.0
O684 O 0.58113 0.49229 0.80918 0.0
C685 C 0.64859 0.45182 0.85251 0.0
O686 O 0.61675 0.49765 0.85009 0.0
C687 C 0.63837 0.48142 0.78164 0.0
C688 C 0.68818 0.41244 0.77321 0.0
C689 C 0.66077 0.46558 0.77157 0.0
N690 N 0.65439 0.44068 0.78889 0.0
N691 N 0.68278 0.39894 0.78374 0.0
C692 C 0.59632 0.52949 0.78416 0.0
H693 H 0.56109 0.51258 0.78943 0.0
H694 H 0.61923 0.56464 0.78864 0.0
H695 H 0.57607 0.54737 0.77671 0.0
C696 C 0.77553 0.45311 0.82532 0.0
N697 N 0.72016 0.44682 0.82185 0.0
N698 N 0.71882 0.44908 0.81122 0.0
C699 C 0.77395 0.45661 0.80757 0.0
C700 C 0.81199 0.45868 0.81639 0.0
C701 C 0.79233 0.45652 0.83701 0.0
H702 H 0.76111 0.48492 0.8414 0.0
H703 H 0.83698 0.47417 0.83806 0.0
H704 H 0.78997 0.41226 0.84064 0.0
O705 O 0.61475 0.35731 0.82509 0.0
O706 O 0.61088 0.36081 0.8072 0.0
H707 H 0.78613 0.41286 0.79253 0.0
H708 H 0.83594 0.47144 0.7945 0.0
C709 C 0.79037 0.45756 0.79583 0.0
H710 H 0.76076 0.48708 0.79133 0.0
H711 H 0.69921 0.36153 0.78748 0.0
O712 O 0.6676 0.41967 0.84494 0.0
C713 C 0.59917 0.33545 0.8161 0.0
Co714 Co 0.83899 0.40035 0.07869 0.0
Co715 Co 0.8141 0.39819 0.05374 0.0
C716 C 0.75539 0.31344 0.06794 0.0
O717 O 0.78228 0.33575 0.076 0.0
O718 O 0.7578 0.33715 0.05858 0.0
C719 C 0.8134 0.41595 0.10171 0.0
O720 O 0.75807 0.41298 0.09904 0.0
C721 C 0.78006 0.39066 0.03044 0.0
C722 C 0.83781 0.45868 0.02371 0.0
C723 C 0.79503 0.41896 0.02081 0.0
N724 N 0.81173 0.41386 0.03855 0.0
N725 N 0.84689 0.45358 0.0344 0.0
C726 C 0.74088 0.33902 0.03187 0.0
H727 H 0.75741 0.3107 0.03847 0.0
H728 H 0.69667 0.35433 0.03413 0.0
H729 H 0.73817 0.31296 0.02432 0.0
C730 C 0.82215 0.52719 0.07542 0.0
N731 N 0.82179 0.47168 0.07179 0.0
N732 N 0.80768 0.47108 0.06148 0.0
C733 C 0.79586 0.52647 0.05835 0.0
C734 C 0.80601 0.56418 0.06701 0.0
C735 C 0.84117 0.54453 0.08656 0.0
H736 H 0.8048 0.53692 0.0923 0.0
H737 H 0.85379 0.59123 0.08689 0.0
H738 H 0.87872 0.5174 0.08913 0.0
O739 O 0.91143 0.36833 0.0733 0.0
O740 O 0.89012 0.35794 0.05593 0.0
H741 H 0.80395 0.55511 0.04191 0.0
H742 H 0.73964 0.5806 0.04863 0.0
C743 C 0.76922 0.5426 0.04769 0.0
H744 H 0.74449 0.50523 0.0443 0.0
H745 H 0.87703 0.4775 0.03891 0.0
O746 O 0.8518 0.41157 0.09437 0.0
C747 C 0.92352 0.34852 0.06397 0.0
Co748 Co 0.86401 0.59056 0.3298 0.0
Co749 Co 0.8669 0.57399 0.30472 0.0
C750 C 0.95087 0.5104 0.31848 0.0
O751 O 0.92791 0.53427 0.32678 0.0
O752 O 0.92812 0.51652 0.30911 0.0
C753 C 0.85574 0.5568 0.35216 0.0
O754 O 0.86741 0.50403 0.34862 0.0
C755 C 0.87627 0.53882 0.28167 0.0
C756 C 0.80853 0.59472 0.2743 0.0
C757 C 0.84812 0.55093 0.27191 0.0
N758 N 0.85261 0.57243 0.28945 0.0
N759 N 0.81304 0.6065 0.28493 0.0
C760 C 0.92895 0.50153 0.28346 0.0
H761 H 0.95982 0.52438 0.28892 0.0
H762 H 0.91574 0.46028 0.28748 0.0
H763 H 0.95149 0.49166 0.27573 0.0
C764 C 0.73845 0.5744 0.32649 0.0
N765 N 0.79341 0.57571 0.32271 0.0
N766 N 0.79356 0.56468 0.31228 0.0
C767 C 0.73806 0.55303 0.30919 0.0
C768 C 0.70112 0.5594 0.31809 0.0
C769 C 0.72202 0.59215 0.33776 0.0
H770 H 0.7473 0.63131 0.34017 0.0
H771 H 0.7331 0.55635 0.34345 0.0
H772 H 0.67483 0.60209 0.3384 0.0
O773 O 0.89639 0.66405 0.32544 0.0
O774 O 0.90683 0.65014 0.30782 0.0
H775 H 0.70666 0.56948 0.29319 0.0
H776 H 0.68336 0.50119 0.2988 0.0
C777 C 0.7207 0.53182 0.2982 0.0
H778 H 0.75771 0.50951 0.29418 0.0
H779 H 0.78856 0.63739 0.28915 0.0
O780 O 0.85204 0.59837 0.34543 0.0
C781 C 0.91633 0.68004 0.31636 0.0
Co782 Co 0.67978 0.60805 0.57897 0.0
Co783 Co 0.67546 0.59969 0.5536 0.0
C784 C 0.75127 0.68773 0.5651 0.0
O785 O 0.74015 0.66706 0.5745 0.0
O786 O 0.73091 0.664 0.55657 0.0
C787 C 0.71137 0.58878 0.60198 0.0
O788 O 0.76385 0.574 0.59875 0.0
C789 C 0.713 0.58961 0.53096 0.0
C790 C 0.63142 0.56121 0.52304 0.0
C791 C 0.68894 0.57572 0.52095 0.0
N792 N 0.67151 0.58368 0.53854 0.0
N793 N 0.62288 0.56668 0.53376 0.0
C794 C 0.77479 0.60523 0.53351 0.0
H795 H 0.78588 0.59141 0.54187 0.0
H796 H 0.80514 0.5844 0.52768 0.0
H797 H 0.77997 0.6533 0.53301 0.0
C798 C 0.68496 0.47767 0.57633 0.0
N799 N 0.68553 0.53261 0.57235 0.0
N800 N 0.68792 0.52999 0.56172 0.0
C801 C 0.69167 0.4736 0.55863 0.0
C802 C 0.68875 0.43799 0.56778 0.0
C803 C 0.67563 0.46342 0.58803 0.0
H804 H 0.64493 0.49509 0.59169 0.0
H805 H 0.71783 0.46637 0.59238 0.0
H806 H 0.65787 0.41872 0.58905 0.0
O807 O 0.60731 0.64632 0.57475 0.0
O808 O 0.60006 0.63613 0.55699 0.0
H809 H 0.66056 0.45604 0.54263 0.0
H810 H 0.7208 0.41025 0.54679 0.0
C811 C 0.70224 0.4549 0.54718 0.0
H812 H 0.73302 0.48547 0.54323 0.0
H813 H 0.58373 0.55924 0.53782 0.0
O814 O 0.67335 0.60338 0.59501 0.0
C815 C 0.58062 0.65568 0.56592 0.0
Co816 Co 0.3642 0.42856 0.3301 0.0
Co817 Co 0.36609 0.45444 0.30517 0.0
C818 C 0.45087 0.5122 0.31886 0.0
O819 O 0.42907 0.48394 0.32679 0.0
O820 O 0.42593 0.5123 0.30962 0.0
C821 C 0.33041 0.46279 0.35176 0.0
O822 O 0.31112 0.51074 0.34716 0.0
C823 C 0.37084 0.49165 0.28206 0.0
C824 C 0.30875 0.4292 0.27479 0.0
C825 C 0.34419 0.47627 0.27233 0.0
N826 N 0.35068 0.45613 0.2899 0.0
N827 N 0.31417 0.41856 0.28545 0.0
C828 C 0.41851 0.53521 0.28379 0.0
H829 H 0.45262 0.51605 0.28907 0.0
H830 H 0.40052 0.57404 0.28799 0.0
H831 H 0.43866 0.54867 0.27602 0.0
C832 C 0.23718 0.44094 0.32655 0.0
N833 N 0.29277 0.444 0.32307 0.0
N834 N 0.29348 0.46063 0.31289 0.0
C835 C 0.23812 0.47233 0.30977 0.0
C836 C 0.20037 0.46 0.31832 0.0
C837 C 0.21926 0.41224 0.33693 0.0
H838 H 0.25153 0.37844 0.33927 0.0
H839 H 0.21714 0.44508 0.3435 0.0
H840 H 0.17555 0.39195 0.33612 0.0
O841 O 0.39622 0.35489 0.32531 0.0
O842 O 0.40808 0.37925 0.30807 0.0
H843 H 0.2092 0.46167 0.29345 0.0
H844 H 0.18374 0.52717 0.29986 0.0
C845 C 0.22172 0.49752 0.29902 0.0
H846 H 0.25885 0.5219 0.29548 0.0
H847 H 0.2925 0.38585 0.28974 0.0
O848 O 0.35392 0.42345 0.34598 0.0
C849 C 0.41776 0.34496 0.31601 0.0
Co850 Co 0.33825 0.60707 0.07811 0.0
Co851 Co 0.31503 0.60361 0.05292 0.0
C852 C 0.25346 0.68985 0.06667 0.0
O853 O 0.27936 0.66972 0.07506 0.0
O854 O 0.25851 0.66502 0.05745 0.0
C855 C 0.3169 0.58998 0.10152 0.0
O856 O 0.26143 0.58455 0.09909 0.0
C857 C 0.27186 0.60337 0.03026 0.0
C858 C 0.33643 0.54499 0.02256 0.0
C859 C 0.28719 0.57784 0.02049 0.0
N860 N 0.31044 0.5862 0.03782 0.0
N861 N 0.34923 0.55189 0.03312 0.0
C862 C 0.22057 0.64172 0.03249 0.0
H863 H 0.23623 0.68667 0.03414 0.0
H864 H 0.19756 0.62599 0.03983 0.0
H865 H 0.18998 0.64269 0.02553 0.0
C866 C 0.3236 0.47903 0.07548 0.0
N867 N 0.32297 0.53392 0.07152 0.0
N868 N 0.30975 0.53239 0.06116 0.0
C869 C 0.29879 0.47636 0.05834 0.0
C870 C 0.30772 0.44034 0.0673 0.0
C871 C 0.34443 0.46382 0.08662 0.0
H872 H 0.38206 0.49177 0.08883 0.0
H873 H 0.30899 0.47213 0.09252 0.0
H874 H 0.35759 0.4173 0.08715 0.0
O875 O 0.40873 0.6417 0.07229 0.0
O876 O 0.39065 0.64524 0.05465 0.0
H877 H 0.31376 0.44724 0.04215 0.0
H878 H 0.24883 0.41818 0.04823 0.0
C879 C 0.2764 0.45778 0.0475 0.0
H880 H 0.25044 0.49324 0.04375 0.0
H881 H 0.38419 0.53259 0.03717 0.0
O882 O 0.35338 0.59904 0.09397 0.0
C883 C 0.42181 0.65863 0.0628 0.0
Co884 Co 0.1444 0.57757 0.82907 0.0
Co885 Co 0.15104 0.57306 0.80358 0.0
C886 C 0.06189 0.50414 0.81643 0.0
O887 O 0.08379 0.51731 0.82563 0.0
O888 O 0.08504 0.52138 0.8076 0.0
C889 C 0.16151 0.55196 0.85236 0.0
O890 O 0.16585 0.49651 0.84977 0.0
C891 C 0.15915 0.52755 0.78116 0.0
C892 C 0.18951 0.60632 0.77248 0.0
C893 C 0.17393 0.54858 0.77097 0.0
N894 N 0.16642 0.57091 0.78838 0.0
N895 N 0.18465 0.61775 0.78313 0.0
C896 C 0.13456 0.469 0.78397 0.0
H897 H 0.0921 0.47481 0.78811 0.0
H898 H 0.1643 0.44668 0.78972 0.0
H899 H 0.12801 0.44145 0.77669 0.0
C900 C 0.27278 0.56305 0.82639 0.0
N901 N 0.21824 0.56582 0.82233 0.0
N902 N 0.22069 0.56069 0.81174 0.0
C903 C 0.27671 0.55226 0.80876 0.0
C904 C 0.31195 0.55363 0.81795 0.0
C905 C 0.2875 0.57537 0.83799 0.0
H906 H 0.26109 0.61256 0.84096 0.0
H907 H 0.27696 0.53652 0.84297 0.0
H908 H 0.33434 0.58606 0.83899 0.0
O909 O 0.10762 0.64966 0.82402 0.0
O910 O 0.11699 0.6508 0.80618 0.0
H911 H 0.2958 0.58268 0.7928 0.0
H912 H 0.33971 0.52128 0.79703 0.0
C913 C 0.29559 0.54093 0.79735 0.0
H914 H 0.26438 0.51091 0.79337 0.0
H915 H 0.19305 0.65786 0.78681 0.0
O916 O 0.15288 0.58937 0.84494 0.0
C917 C 0.09809 0.67349 0.81489 0.0
Co918 Co 0.17474 0.39491 0.57946 0.0
Co919 Co 0.17364 0.38631 0.55392 0.0
C920 C 0.2476 0.30634 0.56769 0.0
O921 O 0.23106 0.33076 0.57647 0.0
O922 O 0.23241 0.32614 0.55844 0.0
C923 C 0.20623 0.41402 0.60244 0.0
O924 O 0.2608 0.40475 0.59974 0.0
C925 C 0.21203 0.39603 0.53099 0.0
C926 C 0.12694 0.39412 0.52259 0.0
C927 C 0.18629 0.3979 0.52078 0.0
N928 N 0.16953 0.39216 0.53846 0.0
N929 N 0.11888 0.39104 0.53336 0.0
C930 C 0.27562 0.39398 0.53363 0.0
H931 H 0.29066 0.43849 0.5358 0.0
H932 H 0.30139 0.37799 0.52663 0.0
H933 H 0.28325 0.36543 0.54074 0.0
C934 C 0.1914 0.52078 0.57412 0.0
N935 N 0.18591 0.46434 0.57113 0.0
N936 N 0.18237 0.46138 0.56052 0.0
C937 C 0.18351 0.5161 0.55643 0.0
C938 C 0.18912 0.55601 0.5649 0.0
C939 C 0.20257 0.53968 0.58553 0.0
H940 H 0.16149 0.53685 0.59023 0.0
H941 H 0.23473 0.50992 0.58931 0.0
H942 H 0.21977 0.58486 0.58591 0.0
O943 O 0.10011 0.35702 0.57608 0.0
O944 O 0.09999 0.34983 0.55821 0.0
H945 H 0.13868 0.50309 0.54141 0.0
H946 H 0.16403 0.57663 0.54341 0.0
C947 C 0.17473 0.52993 0.54469 0.0
H948 H 0.21499 0.51907 0.54015 0.0
H949 H 0.07865 0.38779 0.53724 0.0
O950 O 0.16702 0.4124 0.59518 0.0
C951 C 0.07694 0.33907 0.56735 0.0
Co952 Co 0.36709 0.56352 0.16984 0.0
Co953 Co 0.3632 0.57531 0.19545 0.0
C954 C 0.44979 0.49769 0.18413 0.0
O955 O 0.42889 0.50742 0.17471 0.0
O956 O 0.42612 0.51873 0.1926 0.0
C957 C 0.38941 0.57398 0.14688 0.0
O958 O 0.43987 0.59437 0.15018 0.0
C959 C 0.36892 0.55085 0.21908 0.0
C960 C 0.31233 0.6205 0.22556 0.0
C961 C 0.3455 0.57279 0.22866 0.0
N962 N 0.34949 0.5835 0.21075 0.0
N963 N 0.31641 0.62555 0.21473 0.0
C964 C 0.41282 0.50297 0.21786 0.0
H965 H 0.4486 0.51788 0.21251 0.0
H966 H 0.39179 0.46464 0.214 0.0
H967 H 0.4321 0.4901 0.22574 0.0
C968 C 0.23998 0.55336 0.17331 0.0
N969 N 0.29465 0.55726 0.17724 0.0
N970 N 0.29268 0.55858 0.18788 0.0
C971 C 0.23657 0.553 0.19106 0.0
C972 C 0.2011 0.55001 0.18193 0.0
C973 C 0.2253 0.55898 0.16154 0.0
H974 H 0.25018 0.59578 0.15798 0.0
H975 H 0.2383 0.51843 0.15727 0.0
H976 H 0.17814 0.567 0.16025 0.0
O977 O 0.40336 0.63973 0.17255 0.0
O978 O 0.3989 0.64913 0.19044 0.0
H979 H 0.20948 0.59209 0.20592 0.0
H980 H 0.17608 0.52267 0.20318 0.0
C981 C 0.21727 0.54783 0.20259 0.0
H982 H 0.25124 0.52583 0.20749 0.0
H983 H 0.29607 0.6574 0.21001 0.0
O984 O 0.35302 0.55639 0.15392 0.0
C985 C 0.41513 0.66771 0.18118 0.0
Co986 Co 0.20137 0.60253 0.92015 0.0
Co987 Co 0.17696 0.60103 0.94521 0.0
C988 C 0.2598 0.6877 0.93439 0.0
O989 O 0.257 0.66445 0.92499 0.0
O990 O 0.23324 0.66513 0.94243 0.0
C991 C 0.19022 0.62337 0.89748 0.0
O992 O 0.17223 0.67446 0.90095 0.0
C993 C 0.20638 0.59833 0.96834 0.0
C994 C 0.1227 0.57218 0.97575 0.0
C995 C 0.17975 0.5866 0.97816 0.0
N996 N 0.1668 0.59136 0.96043 0.0
N997 N 0.11668 0.57638 0.96493 0.0
C998 C 0.26881 0.61369 0.96641 0.0
H999 H 0.28367 0.59491 0.95859 0.0
H1000 H 0.29683 0.59783 0.97312 0.0
H1001 H 0.27288 0.66187 0.96589 0.0
C1002 C 0.21877 0.47526 0.92468 0.0
N1003 N 0.20746 0.5304 0.92794 0.0
N1004 N 0.19546 0.52977 0.93834 0.0
C1005 C 0.19732 0.47434 0.94199 0.0
C1006 C 0.21269 0.43761 0.93348 0.0
C1007 C 0.23667 0.45947 0.91341 0.0
H1008 H 0.26689 0.49299 0.91017 0.0
H1009 H 0.25814 0.41612 0.91314 0.0
H1010 H 0.19745 0.45856 0.90815 0.0
O1011 O 0.1247 0.64201 0.92221 0.0
O1012 O 0.10456 0.63296 0.93968 0.0
H1013 H 0.17644 0.40856 0.95406 0.0
H1014 H 0.21087 0.47431 0.95913 0.0
C1015 C 0.17931 0.45663 0.95317 0.0
H1016 H 0.13593 0.47543 0.95497 0.0
H1017 H 0.0785 0.56836 0.96058 0.0
O1018 O 0.20792 0.5862 0.90438 0.0
C1019 C 0.0919 0.65208 0.93031 0.0
Co1020 Co 0.15234 0.44954 0.67073 0.0
Co1021 Co 0.15063 0.42611 0.69585 0.0
C1022 C 0.0653 0.50847 0.68428 0.0
O1023 O 0.09054 0.50618 0.67507 0.0
O1024 O 0.08603 0.48151 0.69247 0.0
C1025 C 0.13509 0.44352 0.64751 0.0
O1026 O 0.08152 0.4296 0.65022 0.0
C1027 C 0.16298 0.46141 0.71856 0.0
C1028 C 0.16119 0.37655 0.72705 0.0
C1029 C 0.16516 0.43617 0.72881 0.0
N1030 N 0.15788 0.41873 0.71118 0.0
N1031 N 0.15681 0.36806 0.71629 0.0
C1032 C 0.16839 0.52453 0.71564 0.0
H1033 H 0.18566 0.52912 0.70728 0.0
H1034 H 0.19728 0.54757 0.72144 0.0
H1035 H 0.12461 0.54502 0.71588 0.0
C1036 C 0.27879 0.46416 0.67562 0.0
N1037 N 0.22328 0.45526 0.67883 0.0
N1038 N 0.22306 0.44297 0.68922 0.0
C1039 C 0.2785 0.44183 0.69288 0.0
C1040 C 0.31609 0.45491 0.68436 0.0
C1041 C 0.29523 0.48397 0.6645 0.0
H1042 H 0.26188 0.51463 0.66136 0.0
H1043 H 0.33835 0.50586 0.66448 0.0
H1044 H 0.29699 0.44541 0.65909 0.0
O1045 O 0.11226 0.37302 0.67298 0.0
O1046 O 0.11959 0.35273 0.69051 0.0
H1047 H 0.34179 0.41149 0.70462 0.0
H1048 H 0.28698 0.46093 0.70973 0.0
C1049 C 0.29518 0.42402 0.70413 0.0
H1050 H 0.26806 0.38658 0.70675 0.0
H1051 H 0.15288 0.32779 0.71245 0.0
O1052 O 0.17134 0.45553 0.65497 0.0
C1053 C 0.1014 0.3401 0.68107 0.0
Co1054 Co 0.31456 0.39454 0.41949 0.0
Co1055 Co 0.30695 0.38981 0.44493 0.0
C1056 C 0.23689 0.30834 0.43099 0.0
O1057 O 0.25713 0.33185 0.42241 0.0
O1058 O 0.24826 0.3292 0.44037 0.0
C1059 C 0.28047 0.41321 0.39694 0.0
O1060 O 0.22625 0.40986 0.40028 0.0
C1061 C 0.26664 0.39734 0.46774 0.0
C1062 C 0.35058 0.411 0.47615 0.0
C1063 C 0.29132 0.40525 0.47795 0.0
N1064 N 0.30948 0.39868 0.46032 0.0
N1065 N 0.35948 0.40659 0.46542 0.0
C1066 C 0.20357 0.39104 0.46495 0.0
H1067 H 0.19547 0.40687 0.45658 0.0
H1068 H 0.17602 0.41548 0.47078 0.0
H1069 H 0.19148 0.34419 0.46531 0.0
C1070 C 0.29762 0.52156 0.42384 0.0
N1071 N 0.30171 0.46557 0.42719 0.0
N1072 N 0.30083 0.46416 0.43784 0.0
C1073 C 0.29776 0.51949 0.4416 0.0
C1074 C 0.29593 0.55814 0.43285 0.0
C1075 C 0.29066 0.53882 0.41222 0.0
H1076 H 0.25544 0.51248 0.40854 0.0
H1077 H 0.27891 0.58545 0.41129 0.0
H1078 H 0.33165 0.5296 0.40778 0.0
O1079 O 0.38866 0.357 0.42363 0.0
O1080 O 0.38074 0.35132 0.44146 0.0
H1081 H 0.30456 0.58262 0.45467 0.0
H1082 H 0.2609 0.51849 0.4575 0.0
C1083 C 0.30056 0.53493 0.45337 0.0
H1084 H 0.33885 0.51337 0.45708 0.0
H1085 H 0.39983 0.40918 0.46156 0.0
O1086 O 0.32181 0.40881 0.40373 0.0
C1087 C 0.40767 0.33959 0.43276 0.0
C1088 C 0.20101 0.01827 0.25575 0.0
C1089 C 0.16565 0.97025 0.25837 0.0
C1090 C 0.19759 0.04482 0.24553 0.0
C1091 C 0.15906 0.02399 0.23755 0.0
H1092 H 0.23213 0.03499 0.26156 0.0
H1093 H 0.22565 0.08172 0.24383 0.0
S1094 S 0.05351 0.90268 0.24073 0.0
N1095 N 0.08904 0.90456 0.25236 0.0
N1096 N 0.08182 0.95527 0.23326 0.0
C1097 C 0.12292 0.97653 0.24012 0.0
C1098 C 0.12656 0.94935 0.2505 0.0
C1099 C 0.23277 0.97096 0.49322 0.0
C1100 C 0.22009 0.91848 0.48784 0.0
C1101 C 0.25871 0.9707 0.50349 0.0
C1102 C 0.27111 0.91795 0.5088 0.0
H1103 H 0.22315 0.01245 0.4894 0.0
H1104 H 0.26847 0.012 0.50736 0.0
S1105 S 0.24531 0.76892 0.49823 0.0
N1106 N 0.22159 0.81255 0.48852 0.0
N1107 N 0.2692 0.81206 0.50799 0.0
C1108 C 0.25816 0.8652 0.50356 0.0
C1109 C 0.23286 0.86546 0.49301 0.0
C1110 C 0.35233 0.95051 0.74642 0.0
C1111 C 0.35586 0.98733 0.73733 0.0
C1112 C 0.3531 0.973 0.75697 0.0
C1113 C 0.35861 0.03329 0.7589 0.0
H1114 H 0.34751 0.90381 0.74537 0.0
H1115 H 0.34683 0.94274 0.76358 0.0
S1116 S 0.36428 0.14908 0.73783 0.0
N1117 N 0.35936 0.08763 0.73094 0.0
N1118 N 0.36588 0.12971 0.75069 0.0
C1119 C 0.3622 0.07065 0.74984 0.0
C1120 C 0.35983 0.04779 0.73909 0.0
C1121 C 0.3254 0.05906 0.9971 0.0
C1122 C 0.30607 0.09617 0.98875 0.0
C1123 C 0.2982 0.05896 0.00727 0.0
C1124 C 0.25097 0.09616 0.00942 0.0
H1125 H 0.36113 0.02911 0.99569 0.0
H1126 H 0.31322 0.02854 0.01338 0.0
S1127 S 0.18901 0.20719 0.99088 0.0
N1128 N 0.24105 0.17554 0.98376 0.0
N1129 N 0.18868 0.17388 0.00274 0.0
C1130 C 0.23229 0.13454 0.00127 0.0
C1131 C 0.26027 0.13506 0.99097 0.0
C1132 C 0.87347 0.96468 0.75084 0.0
C1133 C 0.83625 0.98687 0.75887 0.0
C1134 C 0.87469 0.98902 0.74041 0.0
C1135 C 0.83758 0.0355 0.73754 0.0
H1136 H 0.90248 0.92871 0.75269 0.0
H1137 H 0.90582 0.97186 0.73467 0.0
S1138 S 0.72953 0.10676 0.75563 0.0
N1139 N 0.76038 0.05646 0.76331 0.0
N1140 N 0.76145 0.10174 0.74368 0.0
C1141 C 0.7998 0.05767 0.74555 0.0
C1142 C 0.79921 0.03331 0.7562 0.0
C1143 C 0.68914 0.11317 0.49746 0.0
C1144 C 0.7175 0.08249 0.48914 0.0
C1145 C 0.71326 0.11651 0.50789 0.0
C1146 C 0.76607 0.08836 0.51039 0.0
H1147 H 0.64859 0.13575 0.49583 0.0
H1148 H 0.69108 0.14265 0.5139 0.0
S1149 S 0.85416 0.99759 0.49162 0.0
N1150 N 0.79881 0.02034 0.48418 0.0
N1151 N 0.8443 0.02622 0.50375 0.0
C1152 C 0.79407 0.05643 0.50215 0.0
C1153 C 0.76963 0.05337 0.49154 0.0
C1154 C 0.68051 0.98074 0.25717 0.0
C1155 C 0.6748 0.04165 0.25833 0.0
C1156 C 0.67939 0.95412 0.24696 0.0
C1157 C 0.67432 0.9873 0.23745 0.0
H1158 H 0.68755 0.9529 0.26408 0.0
H1159 H 0.68308 0.90704 0.24652 0.0
S1160 S 0.67086 0.14901 0.23574 0.0
N1161 N 0.66962 0.13481 0.24884 0.0
N1162 N 0.67371 0.08488 0.22971 0.0
C1163 C 0.67281 0.04841 0.23839 0.0
C1164 C 0.67183 0.07551 0.2488 0.0
C1165 C 0.74501 0.92171 0.98959 0.0
C1166 C 0.80439 0.90931 0.98795 0.0
C1167 C 0.7211 0.9241 1e-05 0.0
C1168 C 0.75565 0.91546 0.00929 0.0
H1169 H 0.71678 0.93177 0.98283 0.0
H1170 H 0.67512 0.93391 0.00081 0.0
S1171 S 0.91519 0.88906 0.00957 0.0
N1172 N 0.89794 0.89103 0.9966 0.0
N1173 N 0.85369 0.90004 0.01618 0.0
C1174 C 0.81549 0.905 0.00783 0.0
C1175 C 0.83967 0.90116 0.99718 0.0
C1176 C 0.65873 0.48902 0.74125 0.0
C1177 C 0.65894 0.5501 0.74009 0.0
C1178 C 0.65724 0.46274 0.75146 0.0
C1179 C 0.65838 0.4962 0.76099 0.0
H1180 H 0.66156 0.46073 0.73427 0.0
H1181 H 0.65631 0.41551 0.75186 0.0
S1182 S 0.67169 0.65754 0.76248 0.0
N1183 N 0.66555 0.64341 0.74942 0.0
N1184 N 0.66956 0.59355 0.7686 0.0
C1185 C 0.66256 0.55724 0.76 0.0
C1186 C 0.66162 0.58422 0.74957 0.0
C1187 C 0.68795 0.39331 0.99768 0.0
C1188 C 0.72036 0.40918 0.98848 0.0
C1189 C 0.71241 0.39544 0.00808 0.0
C1190 C 0.7707 0.41255 0.00969 0.0
H1191 H 0.64287 0.38 0.99686 0.0
H1192 H 0.68439 0.38569 0.01486 0.0
S1193 S 0.87235 0.46428 0.9883 0.0
N1194 N 0.81166 0.44873 0.98175 0.0
N1195 N 0.85942 0.44812 0.0011 0.0
C1196 C 0.80342 0.42903 0.00051 0.0
C1197 C 0.77794 0.42833 0.98997 0.0
C1198 C 0.8476 0.55894 0.25178 0.0
C1199 C 0.85515 0.52406 0.26105 0.0
C1200 C 0.84931 0.53498 0.24135 0.0
C1201 C 0.86017 0.47518 0.23968 0.0
H1202 H 0.83912 0.60526 0.25259 0.0
H1203 H 0.83979 0.56369 0.23465 0.0
S1204 S 0.87607 0.36343 0.26132 0.0
N1205 N 0.86678 0.42532 0.26792 0.0
N1206 N 0.87536 0.38089 0.24836 0.0
C1207 C 0.86708 0.43957 0.24892 0.0
C1208 C 0.86358 0.46382 0.25957 0.0
C1209 C 0.75622 0.62172 0.50742 0.0
C1210 C 0.71624 0.57743 0.51009 0.0
C1211 C 0.78144 0.6245 0.49711 0.0
C1212 C 0.7664 0.584 0.48906 0.0
H1213 H 0.76743 0.65521 0.51323 0.0
H1214 H 0.81236 0.65898 0.49536 0.0
S1215 S 0.66543 0.45898 0.49189 0.0
N1216 N 0.66386 0.49144 0.50383 0.0
N1217 N 0.7108 0.49758 0.48438 0.0
C1218 C 0.72648 0.53975 0.49155 0.0
C1219 C 0.70126 0.53644 0.50208 0.0
C1220 C 0.34993 0.46595 0.25225 0.0
C1221 C 0.34945 0.50263 0.26139 0.0
C1222 C 0.3498 0.48882 0.24172 0.0
C1223 C 0.34989 0.54942 0.23988 0.0
H1224 H 0.34935 0.41897 0.25324 0.0
H1225 H 0.34749 0.45855 0.23501 0.0
S1226 S 0.34338 0.66445 0.26101 0.0
N1227 N 0.34407 0.60264 0.26788 0.0
N1228 N 0.34701 0.64577 0.24811 0.0
C1229 C 0.34888 0.58665 0.24895 0.0
C1230 C 0.34819 0.56329 0.25969 0.0
C1231 C 0.23407 0.53155 0.0052 0.0
C1232 C 0.2576 0.58202 0.00995 0.0
C1233 C 0.20796 0.53369 0.99494 0.0
C1234 C 0.20624 0.58598 0.98902 0.0
H1235 H 0.23577 0.49024 0.00946 0.0
H1236 H 0.19006 0.49399 0.99153 0.0
S1237 S 0.2621 0.72991 0.99787 0.0
N1238 N 0.27708 0.68569 0.00808 0.0
N1239 N 0.22947 0.68936 0.98861 0.0
C1240 C 0.22973 0.63667 0.99366 0.0
C1241 C 0.25512 0.63477 0.0042 0.0
C1242 C 0.13898 0.5173 0.74159 0.0
C1243 C 0.16885 0.46477 0.73957 0.0
C1244 C 0.14091 0.54401 0.75179 0.0
C1245 C 0.17167 0.51852 0.76041 0.0
H1246 H 0.11283 0.53749 0.73534 0.0
H1247 H 0.11739 0.58449 0.75299 0.0
S1248 S 0.25896 0.38269 0.75937 0.0
N1249 N 0.23147 0.38914 0.74707 0.0
N1250 N 0.23451 0.43938 0.76627 0.0
C1251 C 0.20175 0.4662 0.75856 0.0
C1252 C 0.20023 0.43918 0.74815 0.0
C1253 C 0.19464 0.36331 0.50169 0.0
C1254 C 0.21392 0.40084 0.50997 0.0
C1255 C 0.21908 0.36545 0.49129 0.0
C1256 C 0.26316 0.40578 0.48875 0.0
H1257 H 0.16103 0.33129 0.50333 0.0
H1258 H 0.2043 0.33426 0.48531 0.0
S1259 S 0.32452 0.51775 0.50723 0.0
N1260 N 0.27644 0.48243 0.51471 0.0
N1261 N 0.32293 0.48619 0.49521 0.0
C1262 C 0.28198 0.44433 0.49691 0.0
C1263 C 0.25711 0.44208 0.50749 0.0
C1264 C 0.02468 0.23469 0.18999 0.0
C1265 C 0.0528 0.21864 0.1803 0.0
C1266 C 0.97779 0.2734 0.19001 0.0
C1267 C 0.957 0.29859 0.18036 0.0
H1268 H 0.03815 0.21645 0.19769 0.0
H1269 H 0.9584 0.28432 0.19774 0.0
S1270 S 0.01572 0.27214 0.15273 0.0
N1271 N 0.05652 0.23132 0.16073 0.0
N1272 N 0.96857 0.30494 0.16077 0.0
C1273 C 0.98464 0.28316 0.17057 0.0
C1274 C 0.03258 0.24333 0.17055 0.0
C1275 C 0.00922 0.77165 0.42347 0.0
C1276 C 0.03144 0.79518 0.43316 0.0
C1277 C 0.97281 0.72279 0.42351 0.0
C1278 C 0.95656 0.69537 0.43326 0.0
H1279 H 0.02074 0.79045 0.41571 0.0
H1280 H 0.95631 0.7073 0.41581 0.0
S1281 S 1.00222 0.73945 0.46093 0.0
N1282 N 0.03412 0.7871 0.45285 0.0
N1283 N 0.96533 0.69533 0.45289 0.0
C1284 C 0.978 0.71851 0.44303 0.0
C1285 C 0.01524 0.76843 0.443 0.0
C1286 C 0.4792 0.77346 0.67178 0.0
C1287 C 0.4585 0.79979 0.68135 0.0
C1288 C 0.52752 0.73601 0.67189 0.0
C1289 C 0.55741 0.72336 0.68156 0.0
H1290 H 0.45838 0.78222 0.66407 0.0
H1291 H 0.54064 0.71591 0.66433 0.0
S1292 S 0.5218 0.78215 0.70888 0.0
N1293 N 0.47221 0.81072 0.7008 0.0
N1294 N 0.56341 0.74178 0.70099 0.0
C1295 C 0.53776 0.75025 0.69118 0.0
C1296 C 0.48817 0.78778 0.69109 0.0
C1297 C 0.50284 0.21687 0.93935 0.0
C1298 C 0.47882 0.19529 0.92964 0.0
C1299 C 0.53666 0.26729 0.93951 0.0
C1300 C 0.54943 0.2981 0.92996 0.0
H1301 H 0.49412 0.19584 0.94704 0.0
H1302 H 0.55405 0.28127 0.94725 0.0
S1303 S 0.50097 0.25854 0.90224 0.0
N1304 N 0.47192 0.20792 0.91009 0.0
N1305 N 0.53783 0.3022 0.91039 0.0
C1306 C 0.52753 0.27632 0.92011 0.0
C1307 C 0.49191 0.22506 0.91995 0.0
C1308 C 0.04567 0.77013 0.30723 0.0
C1309 C 0.0631 0.79909 0.31678 0.0
C1310 C 0.99624 0.7344 0.30701 0.0
C1311 C 0.96197 0.72592 0.31631 0.0
H1312 H 0.0698 0.77575 0.29977 0.0
H1313 H 0.98561 0.7124 0.2995 0.0
S1314 S 0.98865 0.79143 0.34346 0.0
N1315 N 0.04228 0.81605 0.33585 0.0
N1316 N 0.94894 0.75001 0.33541 0.0
C1317 C 0.97876 0.75476 0.32593 0.0
C1318 C 0.0295 0.79068 0.32618 0.0
C1319 C 0.51487 0.72403 0.55592 0.0
C1320 C 0.5331 0.69937 0.56581 0.0
C1321 C 0.47626 0.77132 0.55565 0.0
C1322 C 0.45425 0.79586 0.56525 0.0
H1323 H 0.5313 0.70748 0.54829 0.0
H1324 H 0.4628 0.78794 0.54782 0.0
S1325 S 0.48818 0.74729 0.59331 0.0
N1326 N 0.52547 0.70268 0.58547 0.0
N1327 N 0.45418 0.79213 0.585 0.0
C1328 C 0.47239 0.77178 0.57521 0.0
C1329 C 0.5112 0.72331 0.57548 0.0
C1330 C 0.476 0.23732 0.80693 0.0
C1331 C 0.45826 0.20999 0.81659 0.0
C1332 C 0.5238 0.27519 0.80672 0.0
C1333 C 0.55602 0.28735 0.81617 0.0
H1334 H 0.45296 0.22925 0.79942 0.0
H1335 H 0.53449 0.2962 0.79912 0.0
S1336 S 0.52991 0.22445 0.84348 0.0
N1337 N 0.47829 0.19615 0.83582 0.0
N1338 N 0.56823 0.26691 0.83539 0.0
C1339 C 0.53953 0.2594 0.82585 0.0
C1340 C 0.49055 0.22113 0.82608 0.0
C1341 C 0.02761 0.23048 0.07279 0.0
C1342 C 0.04384 0.20303 0.06306 0.0
C1343 C 0.9918 0.27949 0.07285 0.0
C1344 C 0.96929 0.30305 0.06319 0.0
H1345 H 0.04375 0.215 0.08052 0.0
H1346 H 0.9806 0.29799 0.08065 0.0
S1347 S 0.99834 0.24785 0.03543 0.0
N1348 N 0.03541 0.20348 0.04341 0.0
N1349 N 0.96612 0.29527 0.04353 0.0
C1350 C 0.98499 0.27623 0.05334 0.0
C1351 C 0.0225 0.22632 0.05328 0.0
C1352 C 0.02761 0.7395 0.82408 0.0
C1353 C 0.05424 0.72099 0.81441 0.0
C1354 C 0.97967 0.77689 0.82399 0.0
C1355 C 0.95627 0.79831 0.81423 0.0
H1356 H 0.04302 0.72411 0.83187 0.0
H1357 H 0.9615 0.78974 0.83173 0.0
S1358 S 0.01055 0.76465 0.78657 0.0
N1359 N 0.054 0.72761 0.79471 0.0
N1360 N 0.96403 0.79877 0.79455 0.0
C1361 C 0.98264 0.78069 0.80446 0.0
C1362 C 0.03167 0.7422 0.80454 0.0
C1363 C 0.9685 0.22486 0.55828 0.0
C1364 C 0.94869 0.20033 0.56806 0.0
C1365 C 0.00756 0.27155 0.55818 0.0
C1366 C 0.02903 0.29577 0.56786 0.0
H1367 H 0.95316 0.2085 0.55055 0.0
H1368 H 0.02166 0.28809 0.55039 0.0
S1369 S 0.9912 0.24764 0.59575 0.0
N1370 N 0.95357 0.20393 0.58776 0.0
N1371 N 0.02743 0.29159 0.58758 0.0
C1372 C 0.00963 0.27181 0.57774 0.0
C1373 C 0.96969 0.22402 0.57784 0.0
C1374 C 0.47667 0.26457 0.32417 0.0
C1375 C 0.4646 0.30047 0.31519 0.0
C1376 C 0.52575 0.22846 0.32443 0.0
C1377 C 0.56493 0.2262 0.31568 0.0
H1378 H 0.44834 0.26473 0.33119 0.0
H1379 H 0.53196 0.20093 0.33147 0.0
S1380 S 0.55478 0.31257 0.29028 0.0
N1381 N 0.49703 0.33228 0.29734 0.0
N1382 N 0.58914 0.26407 0.29782 0.0
C1383 C 0.55378 0.26207 0.30664 0.0
C1384 C 0.50363 0.29898 0.30637 0.0
C1385 C 0.50314 0.79586 0.06997 0.0
C1386 C 0.53826 0.80685 0.06086 0.0
C1387 C 0.46738 0.74692 0.0705 0.0
C1388 C 0.46386 0.7071 0.06187 0.0
H1389 H 0.50476 0.82409 0.077 0.0
H1390 H 0.44175 0.74072 0.07778 0.0
S1391 S 0.54131 0.71847 0.03563 0.0
N1392 N 0.56431 0.77547 0.04263 0.0
N1393 N 0.49442 0.6841 0.04353 0.0
C1394 C 0.49575 0.719 0.05242 0.0
C1395 C 0.53342 0.76876 0.05193 0.0
C1396 C 0.99401 0.22316 0.68942 0.0
C1397 C 0.95777 0.21735 0.68029 0.0
C1398 C 0.04238 0.26019 0.68932 0.0
C1399 C 0.05665 0.29358 0.68011 0.0
H1400 H 0.98576 0.19811 0.6967 0.0
H1401 H 0.06814 0.26337 0.69665 0.0
S1402 S 0.97577 0.29456 0.65403 0.0
N1403 N 0.93955 0.24816 0.66172 0.0
N1404 N 0.03042 0.31801 0.66154 0.0
C1405 C 0.02108 0.28792 0.67087 0.0
C1406 C 0.97161 0.25007 0.67097 0.0
C1407 C 0.46892 0.26479 0.42353 0.0
C1408 C 0.4544 0.29501 0.43307 0.0
C1409 C 0.50612 0.21652 0.42374 0.0
C1410 C 0.53095 0.19644 0.43349 0.0
H1411 H 0.45037 0.27752 0.41581 0.0
H1412 H 0.51611 0.19544 0.41611 0.0
S1413 S 0.50775 0.26093 0.46078 0.0
N1414 N 0.46827 0.30183 0.45258 0.0
N1415 N 0.53837 0.2111 0.45299 0.0
C1416 C 0.51689 0.2263 0.44312 0.0
C1417 C 0.47886 0.27562 0.4429 0.0
C1418 C 0.52864 0.7773 0.19028 0.0
C1419 C 0.55354 0.79661 0.18049 0.0
C1420 C 0.48199 0.73805 0.19037 0.0
C1421 C 0.45816 0.71602 0.18069 0.0
H1422 H 0.54448 0.79337 0.19798 0.0
H1423 H 0.46528 0.72417 0.19816 0.0
S1424 S 0.50739 0.75248 0.15281 0.0
N1425 N 0.55097 0.7902 0.1608 0.0
N1426 N 0.46291 0.717 0.16098 0.0
C1427 C 0.48246 0.73505 0.17082 0.0
C1428 C 0.53029 0.7749 0.17072 0.0
C1429 C 0.99054 0.77282 0.93904 0.0
C1430 C 0.97296 0.79882 0.92925 0.0
C1431 C 0.02592 0.72343 0.93918 0.0
C1432 C 0.04656 0.698 0.92954 0.0
H1433 H 0.97576 0.78971 0.94676 0.0
H1434 H 0.03824 0.70608 0.94701 0.0
S1435 S 0.01421 0.74937 0.90164 0.0
N1436 N 0.9789 0.7954 0.90956 0.0
N1437 N 0.04689 0.70276 0.90984 0.0
C1438 C 0.02976 0.72356 0.91964 0.0
C1439 C 0.99289 0.77392 0.91949 0.0
C1440 C 0.40296 0.01687 0.19091 0.0
C1441 C 0.37675 0.05479 0.18342 0.0
C1442 C 0.46339 0.00818 0.19104 0.0
C1443 C 0.50039 0.03603 0.18352 0.0
H1444 H 0.37637 0.99187 0.19648 0.0
H1445 H 0.48074 0.9765 0.19671 0.0
S1446 S 0.45464 0.14482 0.16302 0.0
N1447 N 0.39336 0.12582 0.16909 0.0
N1448 N 0.50672 0.1061 0.16884 0.0
C1449 C 0.47513 0.07551 0.1762 0.0
C1450 C 0.41347 0.0857 0.17627 0.0
C1451 C 0.2387 0.21029 0.42217 0.0
C1452 C 0.2147 0.24733 0.43014 0.0
C1453 C 0.22903 0.14983 0.42229 0.0
C1454 C 0.19385 0.12358 0.43023 0.0
H1455 H 0.26828 0.22751 0.41613 0.0
H1456 H 0.25131 0.12322 0.41635 0.0
S1457 S 0.11343 0.20181 0.45193 0.0
N1458 N 0.15061 0.2537 0.44572 0.0
N1459 N 0.12895 0.14055 0.44549 0.0
C1460 C 0.16648 0.16047 0.43783 0.0
C1461 C 0.17769 0.22209 0.4379 0.0
C1462 C 0.04192 1.00143 0.6723 0.0
C1463 C 0.00489 0.98016 0.68053 0.0
C1464 C 0.10237 0.99332 0.67272 0.0
C1465 C 0.12883 0.96242 0.68124 0.0
H1466 H 0.02463 0.02754 0.66573 0.0
H1467 H 0.12878 0.01303 0.66644 0.0
S1468 S 0.05153 0.89137 0.70412 0.0
N1469 N 0.99918 0.92367 0.69715 0.0
N1470 N 0.11272 0.90544 0.69758 0.0
C1471 C 0.09234 0.93834 0.68925 0.0
C1472 C 0.03054 0.94773 0.68896 0.0
C1473 C 0.31617 0.77443 0.92732 0.0
C1474 C 0.28123 0.74906 0.93545 0.0
C1475 C 0.32725 0.83491 0.92713 0.0
C1476 C 0.30302 0.87256 0.93494 0.0
H1477 H 0.33382 0.74762 0.92089 0.0
H1478 H 0.35417 0.85246 0.92071 0.0
S1479 S 0.20727 0.82944 0.95777 0.0
N1480 N 0.22323 0.76749 0.95166 0.0
N1481 N 0.24162 0.8805 0.95085 0.0
C1482 C 0.26876 0.84787 0.94317 0.0
C1483 C 0.25855 0.78639 0.94354 0.0
C1484 C 0.41497 1.00106 0.30638 0.0
C1485 C 0.38895 0.9667 0.31446 0.0
C1486 C 0.47511 0.01139 0.30629 0.0
C1487 C 0.51211 0.9889 0.31442 0.0
H1488 H 0.38838 0.02185 0.30024 0.0
H1489 H 0.4921 0.03996 0.30005 0.0
S1490 S 0.46666 0.8907 0.33675 0.0
N1491 N 0.40561 0.90478 0.33016 0.0
N1492 N 0.51843 0.92716 0.33038 0.0
C1493 C 0.48698 0.95282 0.32237 0.0
C1494 C 0.42557 0.94113 0.3223 0.0
C1495 C 0.24967 0.14576 0.5748 0.0
C1496 C 0.28827 0.12133 0.56721 0.0
C1497 C 0.2407 0.20624 0.57542 0.0
C1498 C 0.26878 0.24508 0.56827 0.0
H1499 H 0.22451 0.11779 0.5801 0.0
H1500 H 0.20868 0.22232 0.58113 0.0
S1501 S 0.37837 0.20466 0.54757 0.0
N1502 N 0.35965 0.14181 0.55314 0.0
N1503 N 0.33909 0.25516 0.55373 0.0
C1504 C 0.30853 0.22163 0.5608 0.0
C1505 C 0.31912 0.15995 0.5604 0.0
C1506 C 0.09302 0.08095 0.82012 0.0
C1507 C 0.13025 0.0426 0.81445 0.0
C1508 C 0.03199 0.07326 0.82003 0.0
C1509 C 0.00633 0.02792 0.81403 0.0
H1510 H 0.11127 0.11673 0.82474 0.0
H1511 H 0.00489 0.10257 0.82472 0.0
S1512 S 0.08478 0.91219 0.79884 0.0
N1513 N 0.13695 0.95471 0.80357 0.0
N1514 N 0.02308 0.94198 0.8029 0.0
C1515 C 0.04325 0.98932 0.80839 0.0
C1516 C 0.10497 0.99625 0.80872 0.0
C1517 C 0.2554 0.79003 0.07469 0.0
C1518 C 0.23118 0.75109 0.06707 0.0
C1519 C 0.24589 0.85039 0.07403 0.0
C1520 C 0.21087 0.87479 0.06586 0.0
H1521 H 0.28471 0.77432 0.08092 0.0
H1522 H 0.26756 0.8784 0.07984 0.0
S1523 S 0.1313 0.79209 0.04467 0.0
N1524 N 0.16729 0.74146 0.05146 0.0
N1525 N 0.14733 0.85483 0.05055 0.0
C1526 C 0.184 0.83642 0.05848 0.0
C1527 C 0.19451 0.77473 0.05903 0.0
C1528 C 0.53088 0.94043 0.81066 0.0
C1529 C 0.505 0.976 0.81862 0.0
C1530 C 0.59177 0.93238 0.81026 0.0
C1531 C 0.62912 0.96103 0.81761 0.0
H1532 H 0.504 0.91982 0.80454 0.0
H1533 H 0.60979 0.90441 0.80404 0.0
S1534 S 0.58387 0.06327 0.83934 0.0
N1535 N 0.52215 0.04131 0.83384 0.0
N1536 N 0.63573 0.02897 0.83264 0.0
C1537 C 0.60374 0.99681 0.82555 0.0
C1538 C 0.54199 1.00363 0.82616 0.0
C1539 C 0.74295 0.78675 0.55694 0.0
C1540 C 0.7719 0.74913 0.56422 0.0
C1541 C 0.7516 0.84731 0.55719 0.0
C1542 C 0.79065 0.873 0.56454 0.0
H1543 H 0.71042 0.76975 0.55141 0.0
H1544 H 0.72568 0.87439 0.55185 0.0
S1545 S 0.88423 0.79337 0.58414 0.0
N1546 N 0.8445 0.74165 0.57844 0.0
N1547 N 0.86423 0.85524 0.57835 0.0
C1548 C 0.8229 0.83563 0.57136 0.0
C1549 C 0.81268 0.77387 0.57135 0.0
C1550 C 0.91356 0.01442 0.30668 0.0
C1551 C 0.88854 0.05274 0.31424 0.0
C1552 C 0.9739 0.00541 0.30627 0.0
C1553 C 0.01212 0.03318 0.31359 0.0
H1554 H 0.88608 0.99003 0.30117 0.0
H1555 H 0.99025 0.97392 0.30047 0.0
S1556 S 0.96908 0.14075 0.33456 0.0
N1557 N 0.90699 0.12218 0.32872 0.0
N1558 N 0.02033 0.10254 0.32839 0.0
C1559 C 0.9878 0.0724 0.3211 0.0
C1560 C 0.92615 0.08266 0.32134 0.0
C1561 C 0.69238 0.16538 0.05996 0.0
C1562 C 0.71386 0.12798 0.06809 0.0
C1563 C 0.70239 0.22601 0.06032 0.0
C1564 C 0.73384 0.25192 0.06888 0.0
H1565 H 0.66837 0.14754 0.05318 0.0
H1566 H 0.68696 0.25249 0.05363 0.0
S1567 S 0.79937 0.17241 0.09221 0.0
N1568 N 0.76854 0.1209 0.08485 0.0
N1569 N 0.78524 0.2342 0.08587 0.0
C1570 C 0.7536 0.21484 0.07727 0.0
C1571 C 0.74426 0.15316 0.07678 0.0
C1572 C 0.59133 0.07939 0.68739 0.0
C1573 C 0.62945 0.05141 0.68012 0.0
C1574 C 0.53058 0.06993 0.68695 0.0
C1575 C 0.50554 0.03311 0.67906 0.0
H1576 H 0.60861 0.10829 0.69354 0.0
H1577 H 0.50317 0.09063 0.69297 0.0
S1578 S 0.58743 0.94689 0.65853 0.0
N1579 N 0.63812 0.98279 0.66525 0.0
N1580 N 0.52506 0.96743 0.66395 0.0
C1581 C 0.54356 0.00582 0.67162 0.0
C1582 C 0.60511 0.01433 0.67227 0.0
C1583 C 0.68422 0.77066 0.43839 0.0
C1584 C 0.7242 0.74581 0.43106 0.0
C1585 C 0.67365 0.83135 0.43853 0.0
C1586 C 0.70352 0.86955 0.43151 0.0
H1587 H 0.66169 0.74316 0.44416 0.0
H1588 H 0.64239 0.84858 0.44427 0.0
S1589 S 0.81707 0.82798 0.41161 0.0
N1590 N 0.79572 0.76551 0.41693 0.0
N1591 N 0.77741 0.87861 0.41758 0.0
C1592 C 0.74394 0.84541 0.42426 0.0
C1593 C 0.75387 0.78389 0.42394 0.0
C1594 C 0.90323 0.99937 0.17258 0.0
C1595 C 0.87673 0.96319 0.18034 0.0
C1596 C 0.9638 0.00708 0.1723 0.0
C1597 C 1.00067 0.98015 0.17996 0.0
H1598 H 0.87682 0.02366 0.16688 0.0
H1599 H 0.98146 0.0373 0.16641 0.0
S1600 S 0.95431 0.87658 0.20132 0.0
N1601 N 0.89308 0.89498 0.19515 0.0
N1602 N 0.00662 0.9134 0.19517 0.0
C1603 C 0.97512 0.94275 0.18761 0.0
C1604 C 0.91335 0.93338 0.18768 0.0
C1605 C 0.82163 0.22512 0.92697 0.0
C1606 C 0.77574 0.24746 0.9333 0.0
C1607 C 0.83276 0.16462 0.92649 0.0
C1608 C 0.79753 0.12441 0.93211 0.0
H1609 H 0.84877 0.2545 0.9223 0.0
H1610 H 0.86888 0.14916 0.92163 0.0
S1611 S 0.66839 0.15934 0.94889 0.0
N1612 N 0.69315 0.22342 0.9449 0.0
N1613 N 0.7131 0.11068 0.94361 0.0
C1614 C 0.75113 0.14604 0.93829 0.0
C1615 C 0.74048 0.20726 0.93899 0.0
C1616 C 0.96511 0.49827 0.69188 0.0
C1617 C 0.00343 0.52811 0.68486 0.0
C1618 C 0.90474 0.50713 0.69148 0.0
C1619 C 0.87978 0.54749 0.68429 0.0
H1620 H 0.98143 0.46533 0.69739 0.0
H1621 H 0.8772 0.4811 0.69672 0.0
S1622 S 0.96035 0.64027 0.66473 0.0
N1623 N 0.01166 0.60087 0.67063 0.0
N1624 N 0.89821 0.62021 0.67037 0.0
C1625 C 0.91743 0.57916 0.67746 0.0
C1626 C 0.97912 0.56899 0.67765 0.0
C1627 C 0.74859 0.65348 0.94066 0.0
C1628 C 0.71507 0.62635 0.93261 0.0
C1629 C 0.75834 0.71379 0.94056 0.0
C1630 C 0.73631 0.74979 0.93222 0.0
H1631 H 0.76915 0.62761 0.94694 0.0
H1632 H 0.78628 0.73162 0.94681 0.0
S1633 S 0.64095 0.70092 0.90973 0.0
N1634 N 0.65481 0.64067 0.91662 0.0
N1635 N 0.67621 0.75383 0.91604 0.0
C1636 C 0.70121 0.72347 0.92427 0.0
C1637 C 0.69003 0.6619 0.92453 0.0
C1638 C 0.54817 0.50853 0.19228 0.0
C1639 C 0.51132 0.47834 0.18505 0.0
C1640 C 0.60871 0.50124 0.19204 0.0
C1641 C 0.6351 0.46225 0.18478 0.0
H1642 H 0.53055 0.541 0.19775 0.0
H1643 H 0.63522 0.528 0.19733 0.0
S1644 S 0.55804 0.36719 0.16508 0.0
N1645 N 0.50547 0.40559 0.17081 0.0
N1646 N 0.61929 0.38859 0.17089 0.0
C1647 C 0.59869 0.4293 0.17791 0.0
C1648 C 0.53688 0.43807 0.17792 0.0
C1649 C 0.74426 0.28357 0.42474 0.0
C1650 C 0.76885 0.24435 0.43225 0.0
C1651 C 0.75341 0.34384 0.42552 0.0
C1652 C 0.78865 0.3679 0.4337 0.0
H1653 H 0.71502 0.26808 0.41848 0.0
H1654 H 0.73156 0.37202 0.41976 0.0
S1655 S 0.86853 0.28433 0.45472 0.0
N1656 N 0.83258 0.23396 0.44786 0.0
N1657 N 0.85234 0.34737 0.44896 0.0
C1658 C 0.81559 0.32929 0.44102 0.0
C1659 C 0.80524 0.26761 0.44036 0.0
C1660 C 0.90068 0.51369 0.8105 0.0
C1661 C 0.87649 0.46679 0.81627 0.0
C1662 C 0.96098 0.52292 0.81023 0.0
C1663 C 0.99974 0.48676 0.816 0.0
H1664 H 0.87267 0.54425 0.80629 0.0
H1665 H 0.97724 0.56036 0.80579 0.0
S1666 S 0.95906 0.35788 0.83242 0.0
N1667 N 0.89634 0.38237 0.82765 0.0
N1668 N 0.00975 0.40254 0.82775 0.0
C1669 C 0.97636 0.44015 0.82194 0.0
C1670 C 0.91477 0.42955 0.82195 0.0
C1671 C 0.7565 0.71521 0.07594 0.0
C1672 C 0.77788 0.75246 0.06774 0.0
C1673 C 0.76667 0.65482 0.07572 0.0
C1674 C 0.79916 0.62891 0.06737 0.0
H1675 H 0.72887 0.73216 0.08232 0.0
H1676 H 0.74709 0.62793 0.08195 0.0
S1677 S 0.87285 0.70715 0.04491 0.0
N1678 N 0.83821 0.75901 0.0516 0.0
N1679 N 0.85862 0.64575 0.0514 0.0
C1680 C 0.82382 0.66573 0.05949 0.0
C1681 C 0.81303 0.72735 0.05964 0.0
C1682 C 0.53828 0.56675 0.31158 0.0
C1683 C 0.5131 0.53121 0.31965 0.0
C1684 C 0.59894 0.57622 0.31114 0.0
C1685 C 0.63688 0.54998 0.31867 0.0
H1686 H 0.51109 0.58633 0.3054 0.0
H1687 H 0.61629 0.60394 0.30482 0.0
S1688 S 0.59474 0.45002 0.34095 0.0
N1689 N 0.53245 0.46885 0.33528 0.0
N1690 N 0.64552 0.48479 0.33406 0.0
C1691 C 0.61254 0.51438 0.32674 0.0
C1692 C 0.551 0.50558 0.32734 0.0
C1693 C 0.72906 0.34657 0.57606 0.0
C1694 C 0.69218 0.37283 0.56839 0.0
C1695 C 0.73699 0.28591 0.57637 0.0
C1696 C 0.70949 0.24867 0.56885 0.0
H1697 H 0.75396 0.37325 0.58163 0.0
H1698 H 0.76797 0.26851 0.58216 0.0
S1699 S 0.60302 0.29421 0.54794 0.0
N1700 N 0.62204 0.35581 0.55393 0.0
N1701 N 0.64076 0.24209 0.55397 0.0
C1702 C 0.67096 0.27393 0.56136 0.0
C1703 C 0.6614 0.33581 0.56126 0.0
C1704 C 0.09924 0.4484 0.31046 0.0
C1705 C 0.13587 0.46821 0.31885 0.0
C1706 C 0.03869 0.45872 0.31068 0.0
C1707 C 0.01219 0.48861 0.31937 0.0
H1708 H 0.1176 0.42546 0.3036 0.0
H1709 H 0.01274 0.44467 0.30383 0.0
S1710 S 0.08973 0.55051 0.34325 0.0
N1711 N 0.14161 0.52069 0.33587 0.0
N1712 N 0.02858 0.53731 0.33668 0.0
C1713 C 0.04852 0.50687 0.32798 0.0
C1714 C 0.11005 0.49747 0.32761 0.0
C1715 C 0.31258 0.27784 0.06016 0.0
C1716 C 0.27884 0.25178 0.06839 0.0
C1717 C 0.32324 0.33844 0.06002 0.0
C1718 C 0.29987 0.37566 0.068 0.0
H1719 H 0.32948 0.25148 0.05359 0.0
H1720 H 0.34907 0.35643 0.05349 0.0
S1721 S 0.20687 0.3307 0.0911 0.0
N1722 N 0.2225 0.26912 0.08483 0.0
N1723 N 0.24032 0.38231 0.08417 0.0
C1724 C 0.26686 0.35027 0.07634 0.0
C1725 C 0.25696 0.28863 0.07663 0.0
C1726 C 0.41478 0.57433 0.81167 0.0
C1727 C 0.3763 0.54474 0.81868 0.0
C1728 C 0.47528 0.56366 0.81192 0.0
C1729 C 0.49967 0.52435 0.81943 0.0
H1730 H 0.3979 0.60523 0.80582 0.0
H1731 H 0.50301 0.58553 0.8061 0.0
S1732 S 0.41737 0.43307 0.83906 0.0
N1733 N 0.36688 0.47189 0.83284 0.0
N1734 N 0.47992 0.45429 0.83379 0.0
C1735 C 0.46158 0.49541 0.82661 0.0
C1736 C 0.40016 0.50504 0.82613 0.0
C1737 C 0.24278 0.706 0.55612 0.0
C1738 C 0.21509 0.74466 0.56337 0.0
C1739 C 0.23336 0.64555 0.5566 0.0
C1740 C 0.19477 0.62096 0.56416 0.0
H1741 H 0.27482 0.72207 0.55041 0.0
H1742 H 0.2582 0.61769 0.55122 0.0
S1743 S 0.10475 0.70348 0.5839 0.0
N1744 N 0.14429 0.75418 0.57785 0.0
N1745 N 0.12338 0.64087 0.57824 0.0
C1746 C 0.16403 0.65932 0.57102 0.0
C1747 C 0.17491 0.72097 0.57074 0.0
C1748 C 0.09975 0.57915 0.18777 0.0
C1749 C 0.13658 0.54348 0.18146 0.0
C1750 C 0.03874 0.572 0.18759 0.0
C1751 C 0.01262 0.5301 0.18083 0.0
H1752 H 0.11824 0.61243 0.19296 0.0
H1753 H 0.01198 0.59884 0.19282 0.0
S1754 S 0.08981 0.42175 0.16368 0.0
N1755 N 0.14235 0.46142 0.16907 0.0
N1756 N 0.02846 0.44989 0.16829 0.0
C1757 C 0.04908 0.49428 0.17451 0.0
C1758 C 0.11083 0.50054 0.17492 0.0
C1759 C 0.19755 0.33514 0.92645 0.0
C1760 C 0.2235 0.3735 0.93394 0.0
C1761 C 0.20899 0.27468 0.92671 0.0
C1762 C 0.24609 0.25018 0.93461 0.0
H1763 H 0.16866 0.35207 0.92026 0.0
H1764 H 0.18953 0.24713 0.92057 0.0
S1765 S 0.3269 0.33314 0.95577 0.0
N1766 N 0.28995 0.38333 0.9491 0.0
N1767 N 0.30943 0.27053 0.95004 0.0
C1768 C 0.27139 0.28846 0.94227 0.0
C1769 C 0.2607 0.3498 0.94182 0.0
C1770 C 0.46715 0.50466 0.69294 0.0
C1771 C 0.50404 0.48274 0.68474 0.0
C1772 C 0.40698 0.4942 0.69286 0.0
C1773 C 0.38086 0.46066 0.68468 0.0
H1774 H 0.48413 0.53319 0.69917 0.0
H1775 H 0.3804 0.51458 0.69904 0.0
S1776 S 0.45824 0.38603 0.66221 0.0
N1777 N 0.51014 0.4219 0.66867 0.0
N1778 N 0.39728 0.39979 0.66885 0.0
C1779 C 0.4174 0.43548 0.67679 0.0
C1780 C 0.4788 0.44704 0.67675 0.0
C1781 C 0.23573 0.70838 0.43971 0.0
C1782 C 0.26736 0.7465 0.43294 0.0
C1783 C 0.24581 0.64804 0.43968 0.0
C1784 C 0.28905 0.62307 0.4331 0.0
H1785 H 0.20069 0.72497 0.44472 0.0
H1786 H 0.21826 0.62053 0.44465 0.0
S1787 S 0.38846 0.7043 0.41476 0.0
N1788 N 0.34525 0.75527 0.41978 0.0
N1789 N 0.36759 0.64214 0.42034 0.0
C1790 C 0.32295 0.66096 0.42665 0.0
C1791 C 0.31127 0.7225 0.42641 0.0
C1792 C 0.22155 0.09522 0.12074 0.0
C1793 C 0.18176 0.08506 0.11228 0.0
C1794 C 0.20507 0.08883 0.1316 0.0
C1795 C 0.148 0.07232 0.13446 0.0
H1796 H 0.26573 0.10892 0.11899 0.0
H1797 H 0.23723 0.09799 0.13779 0.0
S1798 S 0.02796 0.03675 0.11542 0.0
N1799 N 0.08315 0.05474 0.10754 0.0
N1800 N 0.05236 0.04318 0.12794 0.0
C1801 C 0.10805 0.06079 0.1261 0.0
C1802 C 0.12487 0.06701 0.11503 0.0
C1803 C 0.20937 0.94309 0.36552 0.0
C1804 C 0.15174 0.93378 0.36197 0.0
C1805 C 0.22523 0.93541 0.37642 0.0
C1806 C 0.18421 0.91812 0.38427 0.0
H1807 H 0.24284 0.9561 0.35983 0.0
H1808 H 0.27018 0.9431 0.37868 0.0
S1809 S 0.02716 0.88842 0.37925 0.0
N1810 N 0.05329 0.90658 0.36727 0.0
N1811 N 0.0829 0.89222 0.38767 0.0
C1812 C 0.12627 0.90897 0.38084 0.0
C1813 C 0.11012 0.91678 0.36974 0.0
C1814 C 0.26851 0.92069 0.6209 0.0
C1815 C 0.30489 0.90356 0.61231 0.0
C1816 C 0.28975 0.92468 0.63152 0.0
C1817 C 0.34814 0.91118 0.63402 0.0
H1818 H 0.22322 0.93135 0.61942 0.0
H1819 H 0.25977 0.93779 0.63783 0.0
S1820 S 0.46204 0.86521 0.61448 0.0
N1821 N 0.40292 0.87375 0.60705 0.0
N1822 N 0.44236 0.8811 0.62699 0.0
C1823 C 0.38515 0.8943 0.62552 0.0
C1824 C 0.36368 0.89054 0.61469 0.0
C1825 C 0.33711 0.04347 0.88308 0.0
C1826 C 0.32334 0.10167 0.88573 0.0
C1827 C 0.34484 0.02594 0.8723 0.0
C1828 C 0.33843 0.06566 0.86369 0.0
H1829 H 0.34339 0.01127 0.8894 0.0
H1830 H 0.3564 0.9809 0.87072 0.0
S1831 S 0.29914 0.22254 0.86622 0.0
N1832 N 0.30132 0.19855 0.87882 0.0
N1833 N 0.31519 0.16574 0.85857 0.0
C1834 C 0.323 0.12371 0.86621 0.0
C1835 C 0.31568 0.14165 0.87721 0.0
C1836 C 0.7611 0.971 0.87812 0.0
C1837 C 0.79696 0.93266 0.88402 0.0
C1838 C 0.77385 0.98548 0.86732 0.0
C1839 C 0.82221 0.96116 0.86195 0.0
H1840 H 0.72335 0.99068 0.88191 0.0
H1841 H 0.74489 0.01503 0.86308 0.0
S1842 S 0.92941 0.85792 0.87377 0.0
N1843 N 0.88307 0.87081 0.88371 0.0
N1844 N 0.9061 0.89683 0.86337 0.0
C1845 C 0.85816 0.92247 0.86775 0.0
C1846 C 0.84582 0.90858 0.87879 0.0
C1847 C 0.83062 0.08441 0.61817 0.0
C1848 C 0.77936 0.0621 0.6135 0.0
C1849 C 0.8442 0.07394 0.62905 0.0
C1850 C 0.80782 0.03954 0.63561 0.0
H1851 H 0.86005 0.11119 0.61344 0.0
H1852 H 0.88359 0.09303 0.63235 0.0
S1853 S 0.66948 0.96906 0.62718 0.0
N1854 N 0.69241 1.00327 0.6162 0.0
N1855 N 0.71878 0.98218 0.63662 0.0
C1856 C 0.75705 0.01577 0.63099 0.0
C1857 C 0.74253 0.02752 0.61995 0.0
C1858 C 0.63603 0.06454 0.38195 0.0
C1859 C 0.68862 0.09146 0.38509 0.0
C1860 C 0.62172 0.05642 0.37101 0.0
C1861 C 0.65939 0.07464 0.36268 0.0
H1862 H 0.60511 0.0499 0.38799 0.0
H1863 H 0.58051 0.03582 0.36909 0.0
S1864 S 0.80315 0.1466 0.36645 0.0
N1865 N 0.7791 0.13556 0.37888 0.0
N1866 N 0.75221 0.12051 0.35836 0.0
C1867 C 0.71253 0.10099 0.36568 0.0
C1868 C 0.72712 0.10933 0.37685 0.0
C1869 C 0.69346 0.94378 0.13106 0.0
C1870 C 0.63647 0.92998 0.13445 0.0
C1871 C 0.71035 0.93844 0.1202 0.0
C1872 C 0.67091 0.91943 0.11222 0.0
H1873 H 0.72578 0.95821 0.13687 0.0
H1874 H 0.75479 0.94937 0.11806 0.0
S1875 S 0.51602 0.87864 0.11675 0.0
N1876 N 0.54025 0.89705 0.12886 0.0
N1877 N 0.57178 0.88724 0.10847 0.0
C1878 C 0.6135 0.90612 0.11546 0.0
C1879 C 0.59637 0.91132 0.12655 0.0
C1880 C 0.64564 0.61877 0.61714 0.0
C1881 C 0.69512 0.58777 0.61363 0.0
C1882 C 0.62844 0.61855 0.62803 0.0
C1883 C 0.6596 0.58687 0.6359 0.0
H1884 H 0.62006 0.64406 0.61145 0.0
H1885 H 0.59037 0.64373 0.63026 0.0
S1886 S 0.79083 0.49576 0.63081 0.0
N1887 N 0.77428 0.52314 0.61884 0.0
N1888 N 0.74154 0.52178 0.63926 0.0
C1889 C 0.70874 0.55486 0.63246 0.0
C1890 C 0.72662 0.55561 0.62136 0.0
C1891 C 0.69191 0.3612 0.87695 0.0
C1892 C 0.68056 0.39871 0.88567 0.0
C1893 C 0.68229 0.37924 0.86626 0.0
C1894 C 0.66011 0.43522 0.8639 0.0
H1895 H 0.70867 0.31766 0.87837 0.0
H1896 H 0.69166 0.34859 0.85981 0.0
S1897 S 0.62128 0.54928 0.88397 0.0
N1898 N 0.6446 0.49384 0.89132 0.0
N1899 N 0.62671 0.52786 0.87125 0.0
C1900 C 0.64833 0.47308 0.87258 0.0
C1901 C 0.65853 0.45481 0.88346 0.0
C1902 C 0.78895 0.42811 0.12138 0.0
C1903 C 0.83134 0.42424 0.11318 0.0
C1904 C 0.80475 0.43462 0.13228 0.0
C1905 C 0.86365 0.43726 0.13546 0.0
H1906 H 0.74304 0.42566 0.1194 0.0
H1907 H 0.77037 0.43669 0.13828 0.0
S1908 S 0.99182 0.43209 0.11714 0.0
N1909 N 0.93514 0.42574 0.10901 0.0
N1910 N 0.96458 0.43766 0.12946 0.0
C1911 C 0.90653 0.43441 0.12734 0.0
C1912 C 0.89048 0.428 0.11623 0.0
C1913 C 0.84005 0.62722 0.36732 0.0
C1914 C 0.84815 0.56917 0.36385 0.0
C1915 C 0.83442 0.64103 0.37831 0.0
C1916 C 0.83611 0.59737 0.38628 0.0
H1917 H 0.83855 0.66268 0.36152 0.0
H1918 H 0.82862 0.68637 0.38054 0.0
S1919 S 0.85639 0.43847 0.38154 0.0
N1920 N 0.85746 0.46761 0.36932 0.0
N1921 N 0.8467 0.49353 0.38995 0.0
C1922 C 0.84362 0.53905 0.38294 0.0
C1923 C 0.84971 0.52497 0.37173 0.0
C1924 C 0.26861 0.47282 0.36833 0.0
C1925 C 0.31949 0.4515 0.36336 0.0
C1926 C 0.25567 0.45941 0.37916 0.0
C1927 C 0.29387 0.42539 0.38545 0.0
H1928 H 0.23791 0.49896 0.36375 0.0
H1929 H 0.21589 0.47644 0.38266 0.0
S1930 S 0.43344 0.36023 0.37629 0.0
N1931 N 0.40832 0.39496 0.36554 0.0
N1932 N 0.38488 0.37106 0.38595 0.0
C1933 C 0.34528 0.40456 0.38061 0.0
C1934 C 0.35784 0.41724 0.36955 0.0
C1935 C 0.31511 0.56432 0.13203 0.0
C1936 C 0.37299 0.57576 0.1352 0.0
C1937 C 0.29754 0.56885 0.12117 0.0
C1938 C 0.33709 0.58469 0.11297 0.0
H1939 H 0.28264 0.55255 0.138 0.0
H1940 H 0.25238 0.56001 0.11922 0.0
S1941 S 0.49443 0.61726 0.11687 0.0
N1942 N 0.47031 0.60229 0.12914 0.0
N1943 N 0.43754 0.61055 0.10879 0.0
C1944 C 0.39542 0.5953 0.11599 0.0
C1945 C 0.41325 0.59092 0.12707 0.0
C1946 C 0.18921 0.53218 0.87169 0.0
C1947 C 0.16918 0.57152 0.86377 0.0
C1948 C 0.19706 0.54965 0.88249 0.0
C1949 C 0.18492 0.60716 0.88585 0.0
H1950 H 0.19906 0.4874 0.86956 0.0
H1951 H 0.21214 0.51742 0.88827 0.0
S1952 S 0.13161 0.72752 0.86827 0.0
N1953 N 0.13764 0.67107 0.86005 0.0
N1954 N 0.15225 0.70368 0.88028 0.0
C1955 C 0.16524 0.64712 0.87799 0.0
C1956 C 0.15741 0.62939 0.86698 0.0
C1957 C 0.11446 0.4209 0.62802 0.0
C1958 C 0.154 0.44016 0.63598 0.0
C1959 C 0.13165 0.41351 0.61721 0.0
C1960 C 0.18928 0.42449 0.61388 0.0
H1961 H 0.06989 0.41051 0.63015 0.0
H1962 H 0.0996 0.39778 0.61147 0.0
S1963 S 0.30885 0.4804 0.63123 0.0
N1964 N 0.25279 0.47391 0.63951 0.0
N1965 N 0.28516 0.45881 0.61926 0.0
C1966 C 0.22903 0.44503 0.62166 0.0
C1967 C 0.21136 0.45323 0.63267 0.0
loop_
_geom_bond_atom_site_label_1
_geom_bond_atom_site_label_2
_geom_bond_distance
_geom_bond_site_symmetry_2
_ccdc_geom_bond_type
Co0 O3 1.970 . S
Co0 N17 1.989 . S
Co0 O25 1.967 . S
Co0 O32 1.920 . S
Co1 O4 1.966 . S
Co1 N10 2.022 . S
Co1 N18 1.993 . S
Co1 O26 1.941 . S
C2 O3 1.258 . S
C2 O4 1.263 . S
O3 Co0 1.970 . S
O3 C2 1.258 . S
O4 Co1 1.966 . S
O4 C2 1.263 . S
C5 O6 1.221 1_545 S
C5 O32 1.289 . S
O6 C5 1.221 1_565 S
C7 C9 1.400 . S
C7 N10 1.351 . S
C7 C12 1.501 1_545 S
C8 C9 1.387 . S
C8 N11 1.341 . S
C9 C7 1.400 . S
C9 C8 1.387 . S
N10 Co1 2.022 . S
N10 C7 1.351 . S
N10 N11 1.365 . S
N11 C8 1.341 . S
N11 N10 1.365 . S
N11 H31 0.862 . S
C12 C7 1.501 1_565 S
C12 H13 0.961 . S
C12 H14 0.961 . S
C12 H15 0.960 . S
H13 C12 0.961 . S
H14 C12 0.961 . S
H15 C12 0.960 . S
C16 N17 1.342 . S
C16 C20 1.401 . S
C16 C21 1.499 . S
N17 Co0 1.989 . S
N17 C16 1.342 . S
N17 N18 1.388 . S
N18 Co1 1.993 . S
N18 N17 1.388 . S
N18 C19 1.346 . S
C19 N18 1.346 . S
C19 C20 1.396 . S
C19 C29 1.510 . S
C20 C16 1.401 . S
C20 C19 1.396 . S
C21 C16 1.499 . S
C21 H22 0.959 . S
C21 H23 0.960 . S
C21 H24 0.961 . S
H22 C21 0.959 . S
H23 C21 0.960 . S
H24 C21 0.961 . S
O25 Co0 1.967 . S
O25 C33 1.258 . S
O26 Co1 1.941 . S
O26 C33 1.266 . S
H27 C29 0.959 . S
H28 C29 0.961 1_565 S
C29 C19 1.510 . S
C29 H27 0.959 . S
C29 H28 0.961 1_545 S
C29 H30 0.960 . S
H30 C29 0.960 . S
H31 N11 0.862 . S
O32 Co0 1.920 . S
O32 C5 1.289 . S
C33 O25 1.258 . S
C33 O26 1.266 . S
Co34 O37 1.970 . S
Co34 N51 1.989 . S
Co34 O59 1.967 . S
Co34 O66 1.920 . S
Co35 O38 1.966 . S
Co35 N44 2.022 . S
Co35 N52 1.993 . S
Co35 O60 1.941 . S
C36 O37 1.258 . S
C36 O38 1.263 . S
O37 Co34 1.970 . S
O37 C36 1.258 . S
O38 Co35 1.966 . S
O38 C36 1.263 . S
C39 O40 1.235 . S
C39 O66 1.289 . S
O40 C39 1.235 . S
C41 C43 1.400 . S
C41 N44 1.351 . S
C41 C46 1.501 . S
C42 C43 1.387 . S
C42 N45 1.341 . S
C43 C41 1.400 . S
C43 C42 1.387 . S
N44 Co35 2.022 . S
N44 C41 1.351 . S
N44 N45 1.365 . S
N45 C42 1.341 . S
N45 N44 1.365 . S
N45 H65 0.862 . S
C46 C41 1.501 . S
C46 H47 0.961 . S
C46 H48 0.961 . S
C46 H49 0.960 . S
H47 C46 0.961 . S
H48 C46 0.961 . S
H49 C46 0.960 . S
C50 N51 1.342 . S
C50 C54 1.401 1_565 S
C50 C55 1.500 . S
N51 Co34 1.989 . S
N51 C50 1.342 . S
N51 N52 1.388 . S
N52 Co35 1.993 . S
N52 N51 1.388 . S
N52 C53 1.346 . S
C53 N52 1.346 . S
C53 C54 1.396 1_565 S
C53 C63 1.510 . S
C54 C50 1.401 1_545 S
C54 C53 1.396 1_545 S
C55 C50 1.500 . S
C55 H56 0.961 . S
C55 H57 0.959 1_565 S
C55 H58 0.959 1_565 S
H56 C55 0.961 . S
H57 C55 0.959 1_545 S
H58 C55 0.959 1_545 S
O59 Co34 1.967 . S
O59 C67 1.258 . S
O60 Co35 1.941 . S
O60 C67 1.266 . S
H61 C63 0.959 1_545 S
H62 C63 0.957 1_545 S
C63 C53 1.510 . S
C63 H61 0.959 1_565 S
C63 H62 0.957 1_565 S
C63 H64 0.960 . S
H64 C63 0.960 . S
H65 N45 0.862 . S
O66 Co34 1.920 . S
O66 C39 1.289 . S
C67 O59 1.258 . S
C67 O60 1.266 . S
Co68 O71 1.970 . S
Co68 N85 1.989 . S
Co68 O93 1.967 . S
Co68 O100 1.920 . S
Co69 O72 1.966 . S
Co69 N78 2.022 . S
Co69 N86 1.993 . S
Co69 O94 1.941 . S
C70 O71 1.258 . S
C70 O72 1.263 . S
O71 Co68 1.970 . S
O71 C70 1.258 . S
O72 Co69 1.966 . S
O72 C70 1.263 . S
C73 O74 1.223 1_565 S
C73 O100 1.289 . S
O74 C73 1.223 1_545 S
C75 C77 1.400 . S
C75 N78 1.351 . S
C75 C80 1.501 1_565 S
C76 C77 1.387 . S
C76 N79 1.341 . S
C77 C75 1.400 . S
C77 C76 1.387 . S
N78 Co69 2.022 . S
N78 C75 1.351 . S
N78 N79 1.365 . S
N79 C76 1.341 . S
N79 N78 1.365 . S
N79 H99 0.862 . S
C80 C75 1.501 1_545 S
C80 H81 0.961 . S
C80 H82 0.961 . S
C80 H83 0.960 . S
H81 C80 0.961 . S
H82 C80 0.961 . S
H83 C80 0.960 . S
C84 N85 1.342 . S
C84 C88 1.401 . S
C84 C89 1.499 . S
N85 Co68 1.989 . S
N85 C84 1.342 . S
N85 N86 1.388 . S
N86 Co69 1.993 . S
N86 N85 1.388 . S
N86 C87 1.346 . S
C87 N86 1.346 . S
C87 C88 1.396 . S
C87 C97 1.510 . S
C88 C84 1.401 . S
C88 C87 1.396 . S
C89 C84 1.499 . S
C89 H90 0.959 . S
C89 H91 0.960 . S
C89 H92 0.961 . S
H90 C89 0.959 . S
H91 C89 0.960 . S
H92 C89 0.961 . S
O93 Co68 1.967 . S
O93 C101 1.258 . S
O94 Co69 1.941 . S
O94 C101 1.266 . S
H95 C97 0.959 . S
H96 C97 0.961 1_545 S
C97 C87 1.510 . S
C97 H95 0.959 . S
C97 H96 0.961 1_565 S
C97 H98 0.960 . S
H98 C97 0.960 . S
H99 N79 0.862 . S
O100 Co68 1.920 . S
O100 C73 1.289 . S
C101 O93 1.258 . S
C101 O94 1.266 . S
Co102 O105 1.970 . S
Co102 N119 1.989 . S
Co102 O127 1.967 . S
Co102 O134 1.920 . S
Co103 O106 1.966 . S
Co103 N112 2.022 . S
Co103 N120 1.993 . S
Co103 O128 1.941 . S
C104 O105 1.258 . S
C104 O106 1.263 . S
O105 Co102 1.970 . S
O105 C104 1.258 . S
O106 Co103 1.966 . S
O106 C104 1.263 . S
C107 O108 1.235 . S
C107 O134 1.289 . S
O108 C107 1.235 . S
C109 C111 1.400 . S
C109 N112 1.351 . S
C109 C114 1.501 . S
C110 C111 1.387 . S
C110 N113 1.341 . S
C111 C109 1.400 . S
C111 C110 1.387 . S
N112 Co103 2.022 . S
N112 C109 1.351 . S
N112 N113 1.365 . S
N113 C110 1.341 . S
N113 N112 1.365 . S
N113 H133 0.862 . S
C114 C109 1.501 . S
C114 H115 0.961 . S
C114 H116 0.961 . S
C114 H117 0.960 . S
H115 C114 0.961 . S
H116 C114 0.961 . S
H117 C114 0.960 . S
C118 N119 1.342 . S
C118 C122 1.401 1_545 S
C118 C123 1.500 . S
N119 Co102 1.989 . S
N119 C118 1.342 . S
N119 N120 1.388 . S
N120 Co103 1.993 . S
N120 N119 1.388 . S
N120 C121 1.346 . S
C121 N120 1.346 . S
C121 C122 1.396 1_545 S
C121 C131 1.510 . S
C122 C118 1.401 1_565 S
C122 C121 1.396 1_565 S
C123 C118 1.500 . S
C123 H124 0.961 . S
C123 H125 0.958 1_545 S
C123 H126 0.959 1_545 S
H124 C123 0.961 . S
H125 C123 0.958 1_565 S
H126 C123 0.959 1_565 S
O127 Co102 1.967 . S
O127 C135 1.258 . S
O128 Co103 1.941 . S
O128 C135 1.266 . S
H129 C131 0.959 1_565 S
H130 C131 0.957 1_565 S
C131 C121 1.510 . S
C131 H129 0.959 1_545 S
C131 H130 0.957 1_545 S
C131 H132 0.960 . S
H132 C131 0.960 . S
H133 N113 0.862 . S
O134 Co102 1.920 . S
O134 C107 1.289 . S
C135 O127 1.258 . S
C135 O128 1.266 . S
Co136 O139 1.970 . S
Co136 N153 1.989 . S
Co136 O161 1.967 . S
Co136 O168 1.920 . S
Co137 O140 1.966 . S
Co137 N146 2.022 . S
Co137 N154 1.993 . S
Co137 O162 1.941 . S
C138 O139 1.258 . S
C138 O140 1.263 . S
O139 Co136 1.970 . S
O139 C138 1.258 . S
O140 Co137 1.966 . S
O140 C138 1.263 . S
C141 O142 1.221 1_565 S
C141 O168 1.289 . S
O142 C141 1.221 1_545 S
C143 C145 1.400 . S
C143 N146 1.351 . S
C143 C148 1.501 1_565 S
C144 C145 1.387 . S
C144 N147 1.341 . S
C145 C143 1.400 . S
C145 C144 1.387 . S
N146 Co137 2.022 . S
N146 C143 1.351 . S
N146 N147 1.365 . S
N147 C144 1.341 . S
N147 N146 1.365 . S
N147 H167 0.862 . S
C148 C143 1.501 1_545 S
C148 H149 0.961 . S
C148 H150 0.961 . S
C148 H151 0.960 . S
H149 C148 0.961 . S
H150 C148 0.961 . S
H151 C148 0.960 . S
C152 N153 1.342 . S
C152 C156 1.401 . S
C152 C157 1.499 . S
N153 Co136 1.989 . S
N153 C152 1.342 . S
N153 N154 1.388 . S
N154 Co137 1.993 . S
N154 N153 1.388 . S
N154 C155 1.346 . S
C155 N154 1.346 . S
C155 C156 1.396 . S
C155 C165 1.510 . S
C156 C152 1.401 . S
C156 C155 1.396 . S
C157 C152 1.499 . S
C157 H158 0.959 . S
C157 H159 0.960 . S
C157 H160 0.961 . S
H158 C157 0.959 . S
H159 C157 0.960 . S
H160 C157 0.961 . S
O161 Co136 1.967 . S
O161 C169 1.258 . S
O162 Co137 1.941 . S
O162 C169 1.266 . S
H163 C165 0.959 . S
H164 C165 0.961 1_545 S
C165 C155 1.510 . S
C165 H163 0.959 . S
C165 H164 0.961 1_565 S
C165 H166 0.960 . S
H166 C165 0.960 . S
H167 N147 0.862 . S
O168 Co136 1.920 . S
O168 C141 1.289 . S
C169 O161 1.258 . S
C169 O162 1.266 . S
Co170 O173 1.970 . S
Co170 N187 1.989 . S
Co170 O195 1.967 . S
Co170 O202 1.920 . S
Co171 O174 1.966 . S
Co171 N180 2.022 . S
Co171 N188 1.993 . S
Co171 O196 1.941 . S
C172 O173 1.258 . S
C172 O174 1.263 . S
O173 Co170 1.970 . S
O173 C172 1.258 . S
O174 Co171 1.966 . S
O174 C172 1.263 . S
C175 O176 1.235 . S
C175 O202 1.289 . S
O176 C175 1.235 . S
C177 C179 1.400 . S
C177 N180 1.351 . S
C177 C182 1.501 . S
C178 C179 1.387 . S
C178 N181 1.341 . S
C179 C177 1.400 . S
C179 C178 1.387 . S
N180 Co171 2.022 . S
N180 C177 1.351 . S
N180 N181 1.365 . S
N181 C178 1.341 . S
N181 N180 1.365 . S
N181 H201 0.862 . S
C182 C177 1.501 . S
C182 H183 0.961 . S
C182 H184 0.961 . S
C182 H185 0.960 . S
H183 C182 0.961 . S
H184 C182 0.961 . S
H185 C182 0.960 . S
C186 N187 1.342 . S
C186 C190 1.401 1_565 S
C186 C191 1.500 . S
N187 Co170 1.989 . S
N187 C186 1.342 . S
N187 N188 1.388 . S
N188 Co171 1.993 . S
N188 N187 1.388 . S
N188 C189 1.346 . S
C189 N188 1.346 . S
C189 C190 1.396 1_565 S
C189 C199 1.510 . S
C190 C186 1.401 1_545 S
C190 C189 1.396 1_545 S
C191 C186 1.500 . S
C191 H192 0.962 . S
C191 H193 0.958 1_565 S
C191 H194 0.959 1_565 S
H192 C191 0.962 . S
H193 C191 0.958 1_545 S
H194 C191 0.959 1_545 S
O195 Co170 1.967 . S
O195 C203 1.258 . S
O196 Co171 1.941 . S
O196 C203 1.266 . S
H197 C199 0.959 1_545 S
H198 C199 0.957 1_545 S
C199 C189 1.510 . S
C199 H197 0.959 1_565 S
C199 H198 0.957 1_565 S
C199 H200 0.960 . S
H200 C199 0.960 . S
H201 N181 0.862 . S
O202 Co170 1.920 . S
O202 C175 1.289 . S
C203 O195 1.258 . S
C203 O196 1.266 . S
Co204 O207 1.970 . S
Co204 N221 1.989 . S
Co204 O229 1.967 . S
Co204 O236 1.920 . S
Co205 O208 1.966 . S
Co205 N214 2.022 . S
Co205 N222 1.993 . S
Co205 O230 1.941 . S
C206 O207 1.258 . S
C206 O208 1.263 . S
O207 Co204 1.970 . S
O207 C206 1.258 . S
O208 Co205 1.966 . S
O208 C206 1.263 . S
C209 O210 1.223 1_545 S
C209 O236 1.289 . S
O210 C209 1.223 1_565 S
C211 C213 1.400 . S
C211 N214 1.351 . S
C211 C216 1.501 1_545 S
C212 C213 1.387 . S
C212 N215 1.341 . S
C213 C211 1.400 . S
C213 C212 1.387 . S
N214 Co205 2.022 . S
N214 C211 1.351 . S
N214 N215 1.365 . S
N215 C212 1.341 . S
N215 N214 1.365 . S
N215 H235 0.862 . S
C216 C211 1.501 1_565 S
C216 H217 0.961 . S
C216 H218 0.961 . S
C216 H219 0.960 . S
H217 C216 0.961 . S
H218 C216 0.961 . S
H219 C216 0.960 . S
C220 N221 1.342 . S
C220 C224 1.401 . S
C220 C225 1.499 . S
N221 Co204 1.989 . S
N221 C220 1.342 . S
N221 N222 1.388 . S
N222 Co205 1.993 . S
N222 N221 1.388 . S
N222 C223 1.346 . S
C223 N222 1.346 . S
C223 C224 1.396 . S
C223 C233 1.510 . S
C224 C220 1.401 . S
C224 C223 1.396 . S
C225 C220 1.499 . S
C225 H226 0.959 . S
C225 H227 0.960 . S
C225 H228 0.961 . S
H226 C225 0.959 . S
H227 C225 0.960 . S
H228 C225 0.961 . S
O229 Co204 1.967 . S
O229 C237 1.258 . S
O230 Co205 1.941 . S
O230 C237 1.266 . S
H231 C233 0.959 . S
H232 C233 0.961 1_565 S
C233 C223 1.510 . S
C233 H231 0.959 . S
C233 H232 0.961 1_545 S
C233 H234 0.960 . S
H234 C233 0.960 . S
H235 N215 0.862 . S
O236 Co204 1.920 . S
O236 C209 1.289 . S
C237 O229 1.258 . S
C237 O230 1.266 . S
Co238 O241 1.970 . S
Co238 N255 1.989 . S
Co238 O263 1.967 . S
Co238 O270 1.920 . S
Co239 O242 1.966 . S
Co239 N248 2.022 . S
Co239 N256 1.993 . S
Co239 O264 1.941 . S
C240 O241 1.258 . S
C240 O242 1.263 . S
O241 Co238 1.970 . S
O241 C240 1.258 . S
O242 Co239 1.966 . S
O242 C240 1.263 . S
C243 O244 1.235 . S
C243 O270 1.289 . S
O244 C243 1.235 . S
C245 C247 1.400 . S
C245 N248 1.351 . S
C245 C250 1.501 . S
C246 C247 1.387 . S
C246 N249 1.341 . S
C247 C245 1.400 . S
C247 C246 1.387 . S
N248 Co239 2.022 . S
N248 C245 1.351 . S
N248 N249 1.365 . S
N249 C246 1.341 . S
N249 N248 1.365 . S
N249 H269 0.862 . S
C250 C245 1.501 . S
C250 H251 0.961 . S
C250 H252 0.961 . S
C250 H253 0.960 . S
H251 C250 0.961 . S
H252 C250 0.961 . S
H253 C250 0.960 . S
C254 N255 1.342 . S
C254 C258 1.401 1_545 S
C254 C259 1.500 . S
N255 Co238 1.989 . S
N255 C254 1.342 . S
N255 N256 1.388 . S
N256 Co239 1.993 . S
N256 N255 1.388 . S
N256 C257 1.346 . S
C257 N256 1.346 . S
C257 C258 1.396 1_545 S
C257 C267 1.510 . S
C258 C254 1.401 1_565 S
C258 C257 1.396 1_565 S
C259 C254 1.500 . S
C259 H260 0.961 . S
C259 H261 0.959 1_545 S
C259 H262 0.959 1_545 S
H260 C259 0.961 . S
H261 C259 0.959 1_565 S
H262 C259 0.959 1_565 S
O263 Co238 1.967 . S
O263 C271 1.258 . S
O264 Co239 1.941 . S
O264 C271 1.266 . S
H265 C267 0.959 1_565 S
H266 C267 0.956 1_565 S
C267 C257 1.510 . S
C267 H265 0.959 1_545 S
C267 H266 0.956 1_545 S
C267 H268 0.960 . S
H268 C267 0.960 . S
H269 N249 0.862 . S
O270 Co238 1.920 . S
O270 C243 1.289 . S
C271 O263 1.258 . S
C271 O264 1.266 . S
Co272 O275 1.970 . S
Co272 N289 1.989 . S
Co272 O297 1.967 . S
Co272 O304 1.920 . S
Co273 O276 1.966 . S
Co273 N282 2.022 . S
Co273 N290 1.993 . S
Co273 O298 1.941 . S
C274 O275 1.258 . S
C274 O276 1.263 . S
O275 Co272 1.970 . S
O275 C274 1.258 . S
O276 Co273 1.966 . S
O276 C274 1.263 . S
C277 O278 1.221 1_565 S
C277 O304 1.289 . S
O278 C277 1.221 1_545 S
C279 C281 1.400 . S
C279 N282 1.351 . S
C279 C284 1.501 1_565 S
C280 C281 1.387 . S
C280 N283 1.341 . S
C281 C279 1.400 . S
C281 C280 1.387 . S
N282 Co273 2.022 . S
N282 C279 1.351 . S
N282 N283 1.365 . S
N283 C280 1.341 . S
N283 N282 1.365 . S
N283 H303 0.862 . S
C284 C279 1.501 1_545 S
C284 H285 0.961 . S
C284 H286 0.961 . S
C284 H287 0.960 . S
H285 C284 0.961 . S
H286 C284 0.961 . S
H287 C284 0.960 . S
C288 N289 1.342 . S
C288 C292 1.401 . S
C288 C293 1.499 . S
N289 Co272 1.989 . S
N289 C288 1.342 . S
N289 N290 1.388 . S
N290 Co273 1.993 . S
N290 N289 1.388 . S
N290 C291 1.346 . S
C291 N290 1.346 . S
C291 C292 1.396 . S
C291 C301 1.510 . S
C292 C288 1.401 . S
C292 C291 1.396 . S
C293 C288 1.499 . S
C293 H294 0.959 . S
C293 H295 0.960 . S
C293 H296 0.961 . S
H294 C293 0.959 . S
H295 C293 0.960 . S
H296 C293 0.961 . S
O297 Co272 1.967 . S
O297 C305 1.258 . S
O298 Co273 1.941 . S
O298 C305 1.266 . S
H299 C301 0.959 . S
H300 C301 0.961 1_545 S
C301 C291 1.510 . S
C301 H299 0.959 . S
C301 H300 0.961 1_565 S
C301 H302 0.960 . S
H302 C301 0.960 . S
H303 N283 0.862 . S
O304 Co272 1.920 . S
O304 C277 1.289 . S
C305 O297 1.258 . S
C305 O298 1.266 . S
Co306 O309 1.970 . S
Co306 N323 1.989 . S
Co306 O331 1.967 . S
Co306 O338 1.920 . S
Co307 O310 1.966 . S
Co307 N316 2.022 . S
Co307 N324 1.993 . S
Co307 O332 1.941 . S
C308 O309 1.258 . S
C308 O310 1.263 . S
O309 Co306 1.970 . S
O309 C308 1.258 . S
O310 Co307 1.966 . S
O310 C308 1.263 . S
C311 O312 1.235 . S
C311 O338 1.289 . S
O312 C311 1.235 . S
C313 C315 1.400 . S
C313 N316 1.351 . S
C313 C318 1.501 . S
C314 C315 1.387 . S
C314 N317 1.341 . S
C315 C313 1.400 . S
C315 C314 1.387 . S
N316 Co307 2.022 . S
N316 C313 1.351 . S
N316 N317 1.365 . S
N317 C314 1.341 . S
N317 N316 1.365 . S
N317 H337 0.862 . S
C318 C313 1.501 . S
C318 H319 0.961 . S
C318 H320 0.961 . S
C318 H321 0.960 . S
H319 C318 0.961 . S
H320 C318 0.961 . S
H321 C318 0.960 . S
C322 N323 1.342 . S
C322 C326 1.401 1_545 S
C322 C327 1.500 . S
N323 Co306 1.989 . S
N323 C322 1.342 . S
N323 N324 1.388 . S
N324 Co307 1.993 . S
N324 N323 1.388 . S
N324 C325 1.346 . S
C325 N324 1.346 . S
C325 C326 1.396 1_545 S
C325 C335 1.510 . S
C326 C322 1.401 1_565 S
C326 C325 1.396 1_565 S
C327 C322 1.500 . S
C327 H328 0.961 . S
C327 H329 0.959 1_545 S
C327 H330 0.959 1_545 S
H328 C327 0.961 . S
H329 C327 0.959 1_565 S
H330 C327 0.959 1_565 S
O331 Co306 1.967 . S
O331 C339 1.258 . S
O332 Co307 1.941 . S
O332 C339 1.266 . S
H333 C335 0.959 1_565 S
H334 C335 0.957 1_565 S
C335 C325 1.510 . S
C335 H333 0.959 1_545 S
C335 H334 0.957 1_545 S
C335 H336 0.960 . S
H336 C335 0.960 . S
H337 N317 0.862 . S
O338 Co306 1.920 . S
O338 C311 1.289 . S
C339 O331 1.258 . S
C339 O332 1.266 . S
Co340 O343 1.970 . S
Co340 N357 1.989 . S
Co340 O365 1.967 . S
Co340 O372 1.920 . S
Co341 O344 1.966 . S
Co341 N350 2.022 . S
Co341 N358 1.993 . S
Co341 O366 1.941 . S
C342 O343 1.258 . S
C342 O344 1.263 . S
O343 Co340 1.970 . S
O343 C342 1.258 . S
O344 Co341 1.966 . S
O344 C342 1.263 . S
C345 O346 1.223 1_545 S
C345 O372 1.289 . S
O346 C345 1.223 1_565 S
C347 C349 1.400 . S
C347 N350 1.351 . S
C347 C352 1.501 1_545 S
C348 C349 1.387 . S
C348 N351 1.341 . S
C349 C347 1.400 . S
C349 C348 1.387 . S
N350 Co341 2.022 . S
N350 C347 1.351 . S
N350 N351 1.365 . S
N351 C348 1.341 . S
N351 N350 1.365 . S
N351 H371 0.862 . S
C352 C347 1.501 1_565 S
C352 H353 0.961 . S
C352 H354 0.961 . S
C352 H355 0.960 . S
H353 C352 0.961 . S
H354 C352 0.961 . S
H355 C352 0.960 . S
C356 N357 1.342 . S
C356 C360 1.401 . S
C356 C361 1.499 . S
N357 Co340 1.989 . S
N357 C356 1.342 . S
N357 N358 1.388 . S
N358 Co341 1.993 . S
N358 N357 1.388 . S
N358 C359 1.346 . S
C359 N358 1.346 . S
C359 C360 1.396 . S
C359 C369 1.510 . S
C360 C356 1.401 . S
C360 C359 1.396 . S
C361 C356 1.499 . S
C361 H362 0.959 . S
C361 H363 0.960 . S
C361 H364 0.961 . S
H362 C361 0.959 . S
H363 C361 0.960 . S
H364 C361 0.961 . S
O365 Co340 1.967 . S
O365 C373 1.258 . S
O366 Co341 1.941 . S
O366 C373 1.266 . S
H367 C369 0.959 . S
H368 C369 0.961 1_565 S
C369 C359 1.510 . S
C369 H367 0.959 . S
C369 H368 0.961 1_545 S
C369 H370 0.960 . S
H370 C369 0.960 . S
H371 N351 0.862 . S
O372 Co340 1.920 . S
O372 C345 1.289 . S
C373 O365 1.258 . S
C373 O366 1.266 . S
Co374 O377 1.970 . S
Co374 N391 1.989 . S
Co374 O399 1.967 . S
Co374 O406 1.920 . S
Co375 O378 1.966 . S
Co375 N384 2.022 . S
Co375 N392 1.993 . S
Co375 O400 1.941 . S
C376 O377 1.258 . S
C376 O378 1.263 . S
O377 Co374 1.970 . S
O377 C376 1.258 . S
O378 Co375 1.966 . S
O378 C376 1.263 . S
C379 O380 1.235 . S
C379 O406 1.289 . S
O380 C379 1.235 . S
C381 C383 1.400 . S
C381 N384 1.351 . S
C381 C386 1.501 . S
C382 C383 1.387 . S
C382 N385 1.341 . S
C383 C381 1.400 . S
C383 C382 1.387 . S
N384 Co375 2.022 . S
N384 C381 1.351 . S
N384 N385 1.365 . S
N385 C382 1.341 . S
N385 N384 1.365 . S
N385 H405 0.862 . S
C386 C381 1.501 . S
C386 H387 0.961 . S
C386 H388 0.961 . S
C386 H389 0.960 . S
H387 C386 0.961 . S
H388 C386 0.961 . S
H389 C386 0.960 . S
C390 N391 1.342 . S
C390 C394 1.401 1_565 S
C390 C395 1.500 . S
N391 Co374 1.989 . S
N391 C390 1.342 . S
N391 N392 1.388 . S
N392 Co375 1.993 . S
N392 N391 1.388 . S
N392 C393 1.346 . S
C393 N392 1.346 . S
C393 C394 1.396 1_565 S
C393 C403 1.510 . S
C394 C390 1.401 1_545 S
C394 C393 1.396 1_545 S
C395 C390 1.500 . S
C395 H396 0.961 . S
C395 H397 0.958 1_565 S
C395 H398 0.959 1_565 S
H396 C395 0.961 . S
H397 C395 0.958 1_545 S
H398 C395 0.959 1_545 S
O399 Co374 1.967 . S
O399 C407 1.258 . S
O400 Co375 1.941 . S
O400 C407 1.266 . S
H401 C403 0.959 1_545 S
H402 C403 0.957 1_545 S
C403 C393 1.510 . S
C403 H401 0.959 1_565 S
C403 H402 0.957 1_565 S
C403 H404 0.960 . S
H404 C403 0.960 . S
H405 N385 0.862 . S
O406 Co374 1.920 . S
O406 C379 1.289 . S
C407 O399 1.258 . S
C407 O400 1.266 . S
Co408 O411 1.970 . S
Co408 N425 1.989 . S
Co408 O433 1.967 . S
Co408 O440 1.920 . S
Co409 O412 1.966 . S
Co409 N418 2.022 . S
Co409 N426 1.993 . S
Co409 O434 1.941 . S
C410 O411 1.258 . S
C410 O412 1.263 . S
O411 Co408 1.970 . S
O411 C410 1.258 . S
O412 Co409 1.966 . S
O412 C410 1.263 . S
C413 O414 1.221 1_545 S
C413 O440 1.289 . S
O414 C413 1.221 1_565 S
C415 C417 1.400 . S
C415 N418 1.351 . S
C415 C420 1.501 1_545 S
C416 C417 1.387 . S
C416 N419 1.341 . S
C417 C415 1.400 . S
C417 C416 1.387 . S
N418 Co409 2.022 . S
N418 C415 1.351 . S
N418 N419 1.365 . S
N419 C416 1.341 . S
N419 N418 1.365 . S
N419 H439 0.862 . S
C420 C415 1.501 1_565 S
C420 H421 0.961 . S
C420 H422 0.961 . S
C420 H423 0.960 . S
H421 C420 0.961 . S
H422 C420 0.961 . S
H423 C420 0.960 . S
C424 N425 1.342 . S
C424 C428 1.401 . S
C424 C429 1.499 . S
N425 Co408 1.989 . S
N425 C424 1.342 . S
N425 N426 1.388 . S
N426 Co409 1.993 . S
N426 N425 1.388 . S
N426 C427 1.346 . S
C427 N426 1.346 . S
C427 C428 1.396 . S
C427 C437 1.510 . S
C428 C424 1.401 . S
C428 C427 1.396 . S
C429 C424 1.499 . S
C429 H430 0.959 . S
C429 H431 0.960 . S
C429 H432 0.961 . S
H430 C429 0.959 . S
H431 C429 0.960 . S
H432 C429 0.961 . S
O433 Co408 1.967 . S
O433 C441 1.258 . S
O434 Co409 1.941 . S
O434 C441 1.266 . S
H435 C437 0.959 . S
H436 C437 0.961 1_565 S
C437 C427 1.510 . S
C437 H435 0.959 . S
C437 H436 0.961 1_545 S
C437 H438 0.960 . S
H438 C437 0.960 . S
H439 N419 0.862 . S
O440 Co408 1.920 . S
O440 C413 1.289 . S
C441 O433 1.258 . S
C441 O434 1.266 . S
Co442 O445 1.970 . S
Co442 N459 1.989 . S
Co442 O467 1.967 . S
Co442 O474 1.920 . S
Co443 O446 1.966 . S
Co443 N452 2.022 . S
Co443 N460 1.993 . S
Co443 O468 1.941 . S
C444 O445 1.258 . S
C444 O446 1.263 . S
O445 Co442 1.970 . S
O445 C444 1.258 . S
O446 Co443 1.966 . S
O446 C444 1.263 . S
C447 O448 1.235 . S
C447 O474 1.289 . S
O448 C447 1.235 . S
C449 C451 1.400 . S
C449 N452 1.351 . S
C449 C454 1.501 . S
C450 C451 1.387 . S
C450 N453 1.341 . S
C451 C449 1.400 . S
C451 C450 1.387 . S
N452 Co443 2.022 . S
N452 C449 1.351 . S
N452 N453 1.365 . S
N453 C450 1.341 . S
N453 N452 1.365 . S
N453 H473 0.862 . S
C454 C449 1.501 . S
C454 H455 0.961 . S
C454 H456 0.961 . S
C454 H457 0.960 . S
H455 C454 0.961 . S
H456 C454 0.961 . S
H457 C454 0.960 . S
C458 N459 1.342 . S
C458 C462 1.401 1_545 S
C458 C463 1.500 . S
N459 Co442 1.989 . S
N459 C458 1.342 . S
N459 N460 1.388 . S
N460 Co443 1.993 . S
N460 N459 1.388 . S
N460 C461 1.346 . S
C461 N460 1.346 . S
C461 C462 1.396 1_545 S
C461 C471 1.510 . S
C462 C458 1.401 1_565 S
C462 C461 1.396 1_565 S
C463 C458 1.500 . S
C463 H464 0.962 . S
C463 H465 0.958 1_545 S
C463 H466 0.959 1_545 S
H464 C463 0.962 . S
H465 C463 0.958 1_565 S
H466 C463 0.959 1_565 S
O467 Co442 1.967 . S
O467 C475 1.258 . S
O468 Co443 1.941 . S
O468 C475 1.266 . S
H469 C471 0.959 1_565 S
H470 C471 0.957 1_565 S
C471 C461 1.510 . S
C471 H469 0.959 1_545 S
C471 H470 0.957 1_545 S
C471 H472 0.960 . S
H472 C471 0.960 . S
H473 N453 0.862 . S
O474 Co442 1.920 . S
O474 C447 1.289 . S
C475 O467 1.258 . S
C475 O468 1.266 . S
Co476 O479 1.970 . S
Co476 N493 1.989 . S
Co476 O501 1.967 . S
Co476 O508 1.920 . S
Co477 O480 1.966 . S
Co477 N486 2.022 . S
Co477 N494 1.993 . S
Co477 O502 1.941 . S
C478 O479 1.258 . S
C478 O480 1.263 . S
O479 Co476 1.970 . S
O479 C478 1.258 . S
O480 Co477 1.966 . S
O480 C478 1.263 . S
C481 O482 1.223 1_565 S
C481 O508 1.289 . S
O482 C481 1.223 1_545 S
C483 C485 1.400 . S
C483 N486 1.351 . S
C483 C488 1.501 1_565 S
C484 C485 1.387 . S
C484 N487 1.341 . S
C485 C483 1.400 . S
C485 C484 1.387 . S
N486 Co477 2.022 . S
N486 C483 1.351 . S
N486 N487 1.365 . S
N487 C484 1.341 . S
N487 N486 1.365 . S
N487 H507 0.862 . S
C488 C483 1.501 1_545 S
C488 H489 0.961 . S
C488 H490 0.961 . S
C488 H491 0.960 . S
H489 C488 0.961 . S
H490 C488 0.961 . S
H491 C488 0.960 . S
C492 N493 1.342 . S
C492 C496 1.401 . S
C492 C497 1.499 . S
N493 Co476 1.989 . S
N493 C492 1.342 . S
N493 N494 1.388 . S
N494 Co477 1.993 . S
N494 N493 1.388 . S
N494 C495 1.346 . S
C495 N494 1.346 . S
C495 C496 1.396 . S
C495 C505 1.510 . S
C496 C492 1.401 . S
C496 C495 1.396 . S
C497 C492 1.499 . S
C497 H498 0.959 . S
C497 H499 0.960 . S
C497 H500 0.961 . S
H498 C497 0.959 . S
H499 C497 0.960 . S
H500 C497 0.961 . S
O501 Co476 1.967 . S
O501 C509 1.258 . S
O502 Co477 1.941 . S
O502 C509 1.266 . S
H503 C505 0.959 . S
H504 C505 0.961 1_545 S
C505 C495 1.510 . S
C505 H503 0.959 . S
C505 H504 0.961 1_565 S
C505 H506 0.960 . S
H506 C505 0.960 . S
H507 N487 0.862 . S
O508 Co476 1.920 . S
O508 C481 1.289 . S
C509 O501 1.258 . S
C509 O502 1.266 . S
Co510 O513 1.970 . S
Co510 N527 1.989 . S
Co510 O535 1.967 . S
Co510 O542 1.920 . S
Co511 O514 1.966 . S
Co511 N520 2.022 . S
Co511 N528 1.993 . S
Co511 O536 1.941 . S
C512 O513 1.258 . S
C512 O514 1.263 . S
O513 Co510 1.970 . S
O513 C512 1.258 . S
O514 Co511 1.966 . S
O514 C512 1.263 . S
C515 O516 1.235 . S
C515 O542 1.289 . S
O516 C515 1.235 . S
C517 C519 1.400 . S
C517 N520 1.351 . S
C517 C522 1.501 . S
C518 C519 1.387 . S
C518 N521 1.341 . S
C519 C517 1.400 . S
C519 C518 1.387 . S
N520 Co511 2.022 . S
N520 C517 1.351 . S
N520 N521 1.365 . S
N521 C518 1.341 . S
N521 N520 1.365 . S
N521 H541 0.862 . S
C522 C517 1.501 . S
C522 H523 0.961 . S
C522 H524 0.961 . S
C522 H525 0.960 . S
H523 C522 0.961 . S
H524 C522 0.961 . S
H525 C522 0.960 . S
C526 N527 1.342 . S
C526 C530 1.401 1_565 S
C526 C531 1.500 . S
N527 Co510 1.989 . S
N527 C526 1.342 . S
N527 N528 1.388 . S
N528 Co511 1.993 . S
N528 N527 1.388 . S
N528 C529 1.346 . S
C529 N528 1.346 . S
C529 C530 1.396 1_565 S
C529 C539 1.510 . S
C530 C526 1.401 1_545 S
C530 C529 1.396 1_545 S
C531 C526 1.500 . S
C531 H532 0.961 . S
C531 H533 0.959 1_565 S
C531 H534 0.959 1_565 S
H532 C531 0.961 . S
H533 C531 0.959 1_545 S
H534 C531 0.959 1_545 S
O535 Co510 1.967 . S
O535 C543 1.258 . S
O536 Co511 1.941 . S
O536 C543 1.266 . S
H537 C539 0.959 1_545 S
H538 C539 0.956 1_545 S
C539 C529 1.510 . S
C539 H537 0.959 1_565 S
C539 H538 0.956 1_565 S
C539 H540 0.960 . S
H540 C539 0.960 . S
H541 N521 0.862 . S
O542 Co510 1.920 . S
O542 C515 1.289 . S
C543 O535 1.258 . S
C543 O536 1.266 . S
Co544 O547 1.970 . S
Co544 N561 1.989 . S
Co544 O569 1.967 . S
Co544 O576 1.920 . S
Co545 O548 1.966 . S
Co545 N554 2.022 . S
Co545 N562 1.993 . S
Co545 O570 1.941 . S
C546 O547 1.258 . S
C546 O548 1.263 . S
O547 Co544 1.970 . S
O547 C546 1.258 . S
O548 Co545 1.966 . S
O548 C546 1.263 . S
C549 O550 1.235 . S
C549 O576 1.289 . S
O550 C549 1.235 . S
C551 C553 1.400 . S
C551 N554 1.351 . S
C551 C556 1.501 . S
C552 C553 1.387 . S
C552 N555 1.341 . S
C553 C551 1.400 . S
C553 C552 1.387 . S
N554 Co545 2.022 . S
N554 C551 1.351 . S
N554 N555 1.365 . S
N555 C552 1.341 . S
N555 N554 1.365 . S
N555 H575 0.862 . S
C556 C551 1.501 . S
C556 H557 0.961 . S
C556 H558 0.961 . S
C556 H559 0.960 . S
H557 C556 0.961 . S
H558 C556 0.961 . S
H559 C556 0.960 . S
C560 N561 1.342 . S
C560 C564 1.401 . S
C560 C565 1.499 . S
N561 Co544 1.989 . S
N561 C560 1.342 . S
N561 N562 1.388 . S
N562 Co545 1.993 . S
N562 N561 1.388 . S
N562 C563 1.346 . S
C563 N562 1.346 . S
C563 C564 1.396 . S
C563 C573 1.510 . S
C564 C560 1.401 . S
C564 C563 1.396 . S
C565 C560 1.499 . S
C565 H566 0.959 . S
C565 H567 0.960 . S
C565 H568 0.961 . S
H566 C565 0.959 . S
H567 C565 0.960 . S
H568 C565 0.961 . S
O569 Co544 1.967 . S
O569 C577 1.258 . S
O570 Co545 1.941 . S
O570 C577 1.266 . S
H571 C573 0.959 . S
H572 C573 0.961 . S
C573 C563 1.510 . S
C573 H571 0.959 . S
C573 H572 0.961 . S
C573 H574 0.960 . S
H574 C573 0.960 . S
H575 N555 0.862 . S
O576 Co544 1.920 . S
O576 C549 1.289 . S
C577 O569 1.258 . S
C577 O570 1.266 . S
Co578 O581 1.970 . S
Co578 N595 1.989 . S
Co578 O603 1.967 . S
Co578 O610 1.920 . S
Co579 O582 1.966 . S
Co579 N588 2.022 . S
Co579 N596 1.993 . S
Co579 O604 1.941 . S
C580 O581 1.258 . S
C580 O582 1.263 . S
O581 Co578 1.970 . S
O581 C580 1.258 . S
O582 Co579 1.966 . S
O582 C580 1.263 . S
C583 O584 1.235 . S
C583 O610 1.289 . S
O584 C583 1.235 . S
C585 C587 1.400 . S
C585 N588 1.351 . S
C585 C590 1.501 . S
C586 C587 1.387 . S
C586 N589 1.341 . S
C587 C585 1.400 . S
C587 C586 1.387 . S
N588 Co579 2.022 . S
N588 C585 1.351 . S
N588 N589 1.365 . S
N589 C586 1.341 . S
N589 N588 1.365 . S
N589 H609 0.862 . S
C590 C585 1.501 . S
C590 H591 0.961 . S
C590 H592 0.961 . S
C590 H593 0.960 . S
H591 C590 0.961 . S
H592 C590 0.961 . S
H593 C590 0.960 . S
C594 N595 1.342 . S
C594 C598 1.401 . S
C594 C599 1.499 . S
N595 Co578 1.989 . S
N595 C594 1.342 . S
N595 N596 1.388 . S
N596 Co579 1.993 . S
N596 N595 1.388 . S
N596 C597 1.346 . S
C597 N596 1.346 . S
C597 C598 1.396 . S
C597 C607 1.510 . S
C598 C594 1.401 . S
C598 C597 1.396 . S
C599 C594 1.499 . S
C599 H600 0.959 . S
C599 H601 0.960 . S
C599 H602 0.961 . S
H600 C599 0.959 . S
H601 C599 0.960 . S
H602 C599 0.961 . S
O603 Co578 1.967 . S
O603 C611 1.258 . S
O604 Co579 1.941 . S
O604 C611 1.266 . S
H605 C607 0.959 . S
H606 C607 0.961 . S
C607 C597 1.510 . S
C607 H605 0.959 . S
C607 H606 0.961 . S
C607 H608 0.960 . S
H608 C607 0.960 . S
H609 N589 0.862 . S
O610 Co578 1.920 . S
O610 C583 1.289 . S
C611 O603 1.258 . S
C611 O604 1.266 . S
Co612 O615 1.970 . S
Co612 N629 1.989 . S
Co612 O637 1.967 . S
Co612 O644 1.920 . S
Co613 O616 1.966 . S
Co613 N622 2.022 . S
Co613 N630 1.993 . S
Co613 O638 1.941 . S
C614 O615 1.258 . S
C614 O616 1.263 . S
O615 Co612 1.970 . S
O615 C614 1.258 . S
O616 Co613 1.966 . S
O616 C614 1.263 . S
C617 O618 1.235 . S
C617 O644 1.289 . S
O618 C617 1.235 . S
C619 C621 1.400 . S
C619 N622 1.351 . S
C619 C624 1.501 . S
C620 C621 1.387 . S
C620 N623 1.341 . S
C621 C619 1.400 . S
C621 C620 1.387 . S
N622 Co613 2.022 . S
N622 C619 1.351 . S
N622 N623 1.365 . S
N623 C620 1.341 . S
N623 N622 1.365 . S
N623 H643 0.862 . S
C624 C619 1.501 . S
C624 H625 0.961 . S
C624 H626 0.961 . S
C624 H627 0.960 . S
H625 C624 0.961 . S
H626 C624 0.961 . S
H627 C624 0.960 . S
C628 N629 1.342 . S
C628 C632 1.401 . S
C628 C633 1.499 . S
N629 Co612 1.989 . S
N629 C628 1.342 . S
N629 N630 1.388 . S
N630 Co613 1.993 . S
N630 N629 1.388 . S
N630 C631 1.346 . S
C631 N630 1.346 . S
C631 C632 1.396 . S
C631 C641 1.510 . S
C632 C628 1.401 . S
C632 C631 1.396 . S
C633 C628 1.499 . S
C633 H634 0.959 . S
C633 H635 0.960 . S
C633 H636 0.961 . S
H634 C633 0.959 . S
H635 C633 0.960 . S
H636 C633 0.961 . S
O637 Co612 1.967 . S
O637 C645 1.258 . S
O638 Co613 1.941 . S
O638 C645 1.266 . S
H639 C641 0.959 . S
H640 C641 0.961 . S
C641 C631 1.510 . S
C641 H639 0.959 . S
C641 H640 0.961 . S
C641 H642 0.960 . S
H642 C641 0.960 . S
H643 N623 0.862 . S
O644 Co612 1.920 . S
O644 C617 1.289 . S
C645 O637 1.258 . S
C645 O638 1.266 . S
Co646 O649 1.970 . S
Co646 N663 1.989 . S
Co646 O671 1.967 . S
Co646 O678 1.920 . S
Co647 O650 1.966 . S
Co647 N656 2.022 . S
Co647 N664 1.993 . S
Co647 O672 1.941 . S
C648 O649 1.258 . S
C648 O650 1.263 . S
O649 Co646 1.970 . S
O649 C648 1.258 . S
O650 Co647 1.966 . S
O650 C648 1.263 . S
C651 O652 1.235 . S
C651 O678 1.289 . S
O652 C651 1.235 . S
C653 C655 1.400 . S
C653 N656 1.351 . S
C653 C658 1.501 . S
C654 C655 1.387 . S
C654 N657 1.341 . S
C655 C653 1.400 . S
C655 C654 1.387 . S
N656 Co647 2.022 . S
N656 C653 1.351 . S
N656 N657 1.365 . S
N657 C654 1.341 . S
N657 N656 1.365 . S
N657 H677 0.862 . S
C658 C653 1.501 . S
C658 H659 0.961 . S
C658 H660 0.961 . S
C658 H661 0.960 . S
H659 C658 0.961 . S
H660 C658 0.961 . S
H661 C658 0.960 . S
C662 N663 1.342 . S
C662 C666 1.401 . S
C662 C667 1.499 . S
N663 Co646 1.989 . S
N663 C662 1.342 . S
N663 N664 1.388 . S
N664 Co647 1.993 . S
N664 N663 1.388 . S
N664 C665 1.346 . S
C665 N664 1.346 . S
C665 C666 1.396 . S
C665 C675 1.510 . S
C666 C662 1.401 . S
C666 C665 1.396 . S
C667 C662 1.499 . S
C667 H668 0.959 . S
C667 H669 0.960 . S
C667 H670 0.961 . S
H668 C667 0.959 . S
H669 C667 0.960 . S
H670 C667 0.961 . S
O671 Co646 1.967 . S
O671 C679 1.258 . S
O672 Co647 1.941 . S
O672 C679 1.266 . S
H673 C675 0.959 . S
H674 C675 0.961 . S
C675 C665 1.510 . S
C675 H673 0.959 . S
C675 H674 0.961 . S
C675 H676 0.960 . S
H676 C675 0.960 . S
H677 N657 0.862 . S
O678 Co646 1.920 . S
O678 C651 1.289 . S
C679 O671 1.258 . S
C679 O672 1.266 . S
Co680 O683 1.970 . S
Co680 N697 1.989 . S
Co680 O705 1.967 . S
Co680 O712 1.920 . S
Co681 O684 1.966 . S
Co681 N690 2.022 . S
Co681 N698 1.993 . S
Co681 O706 1.941 . S
C682 O683 1.258 . S
C682 O684 1.263 . S
O683 Co680 1.970 . S
O683 C682 1.258 . S
O684 Co681 1.966 . S
O684 C682 1.263 . S
C685 O686 1.235 . S
C685 O712 1.289 . S
O686 C685 1.235 . S
C687 C689 1.400 . S
C687 N690 1.351 . S
C687 C692 1.501 . S
C688 C689 1.387 . S
C688 N691 1.341 . S
C689 C687 1.400 . S
C689 C688 1.387 . S
N690 Co681 2.022 . S
N690 C687 1.351 . S
N690 N691 1.365 . S
N691 C688 1.341 . S
N691 N690 1.365 . S
N691 H711 0.862 . S
C692 C687 1.501 . S
C692 H693 0.961 . S
C692 H694 0.961 . S
C692 H695 0.960 . S
H693 C692 0.961 . S
H694 C692 0.961 . S
H695 C692 0.960 . S
C696 N697 1.342 . S
C696 C700 1.401 . S
C696 C701 1.499 . S
N697 Co680 1.989 . S
N697 C696 1.342 . S
N697 N698 1.388 . S
N698 Co681 1.993 . S
N698 N697 1.388 . S
N698 C699 1.346 . S
C699 N698 1.346 . S
C699 C700 1.396 . S
C699 C709 1.510 . S
C700 C696 1.401 . S
C700 C699 1.396 . S
C701 C696 1.499 . S
C701 H702 0.959 . S
C701 H703 0.960 . S
C701 H704 0.961 . S
H702 C701 0.959 . S
H703 C701 0.960 . S
H704 C701 0.961 . S
O705 Co680 1.967 . S
O705 C713 1.258 . S
O706 Co681 1.941 . S
O706 C713 1.266 . S
H707 C709 0.959 . S
H708 C709 0.961 . S
C709 C699 1.510 . S
C709 H707 0.959 . S
C709 H708 0.961 . S
C709 H710 0.960 . S
H710 C709 0.960 . S
H711 N691 0.862 . S
O712 Co680 1.920 . S
O712 C685 1.289 . S
C713 O705 1.258 . S
C713 O706 1.266 . S
Co714 O717 1.970 . S
Co714 N731 1.989 . S
Co714 O739 1.967 . S
Co714 O746 1.920 . S
Co715 O718 1.966 . S
Co715 N724 2.022 . S
Co715 N732 1.993 . S
Co715 O740 1.941 . S
C716 O717 1.258 . S
C716 O718 1.263 . S
O717 Co714 1.970 . S
O717 C716 1.258 . S
O718 Co715 1.966 . S
O718 C716 1.263 . S
C719 O720 1.235 . S
C719 O746 1.289 . S
O720 C719 1.235 . S
C721 C723 1.400 . S
C721 N724 1.351 . S
C721 C726 1.501 . S
C722 C723 1.387 . S
C722 N725 1.341 . S
C723 C721 1.400 . S
C723 C722 1.387 . S
N724 Co715 2.022 . S
N724 C721 1.351 . S
N724 N725 1.365 . S
N725 C722 1.341 . S
N725 N724 1.365 . S
N725 H745 0.862 . S
C726 C721 1.501 . S
C726 H727 0.961 . S
C726 H728 0.961 . S
C726 H729 0.960 . S
H727 C726 0.961 . S
H728 C726 0.961 . S
H729 C726 0.960 . S
C730 N731 1.342 . S
C730 C734 1.401 . S
C730 C735 1.499 . S
N731 Co714 1.989 . S
N731 C730 1.342 . S
N731 N732 1.388 . S
N732 Co715 1.993 . S
N732 N731 1.388 . S
N732 C733 1.346 . S
C733 N732 1.346 . S
C733 C734 1.396 . S
C733 C743 1.510 . S
C734 C730 1.401 . S
C734 C733 1.396 . S
C735 C730 1.499 . S
C735 H736 0.959 . S
C735 H737 0.960 . S
C735 H738 0.961 . S
H736 C735 0.959 . S
H737 C735 0.960 . S
H738 C735 0.961 . S
O739 Co714 1.967 . S
O739 C747 1.258 . S
O740 Co715 1.941 . S
O740 C747 1.266 . S
H741 C743 0.959 . S
H742 C743 0.961 . S
C743 C733 1.510 . S
C743 H741 0.959 . S
C743 H742 0.961 . S
C743 H744 0.960 . S
H744 C743 0.960 . S
H745 N725 0.862 . S
O746 Co714 1.920 . S
O746 C719 1.289 . S
C747 O739 1.258 . S
C747 O740 1.266 . S
Co748 O751 1.970 . S
Co748 N765 1.989 . S
Co748 O773 1.967 . S
Co748 O780 1.920 . S
Co749 O752 1.966 . S
Co749 N758 2.022 . S
Co749 N766 1.993 . S
Co749 O774 1.941 . S
C750 O751 1.258 . S
C750 O752 1.263 . S
O751 Co748 1.970 . S
O751 C750 1.258 . S
O752 Co749 1.966 . S
O752 C750 1.263 . S
C753 O754 1.235 . S
C753 O780 1.289 . S
O754 C753 1.235 . S
C755 C757 1.400 . S
C755 N758 1.351 . S
C755 C760 1.501 . S
C756 C757 1.387 . S
C756 N759 1.341 . S
C757 C755 1.400 . S
C757 C756 1.387 . S
N758 Co749 2.022 . S
N758 C755 1.351 . S
N758 N759 1.365 . S
N759 C756 1.341 . S
N759 N758 1.365 . S
N759 H779 0.862 . S
C760 C755 1.501 . S
C760 H761 0.961 . S
C760 H762 0.961 . S
C760 H763 0.960 . S
H761 C760 0.961 . S
H762 C760 0.961 . S
H763 C760 0.960 . S
C764 N765 1.342 . S
C764 C768 1.401 . S
C764 C769 1.499 . S
N765 Co748 1.989 . S
N765 C764 1.342 . S
N765 N766 1.388 . S
N766 Co749 1.993 . S
N766 N765 1.388 . S
N766 C767 1.346 . S
C767 N766 1.346 . S
C767 C768 1.396 . S
C767 C777 1.510 . S
C768 C764 1.401 . S
C768 C767 1.396 . S
C769 C764 1.499 . S
C769 H770 0.959 . S
C769 H771 0.960 . S
C769 H772 0.961 . S
H770 C769 0.959 . S
H771 C769 0.960 . S
H772 C769 0.961 . S
O773 Co748 1.967 . S
O773 C781 1.258 . S
O774 Co749 1.941 . S
O774 C781 1.266 . S
H775 C777 0.959 . S
H776 C777 0.961 . S
C777 C767 1.510 . S
C777 H775 0.959 . S
C777 H776 0.961 . S
C777 H778 0.960 . S
H778 C777 0.960 . S
H779 N759 0.862 . S
O780 Co748 1.920 . S
O780 C753 1.289 . S
C781 O773 1.258 . S
C781 O774 1.266 . S
Co782 O785 1.970 . S
Co782 N799 1.989 . S
Co782 O807 1.967 . S
Co782 O814 1.920 . S
Co783 O786 1.966 . S
Co783 N792 2.022 . S
Co783 N800 1.993 . S
Co783 O808 1.941 . S
C784 O785 1.258 . S
C784 O786 1.263 . S
O785 Co782 1.970 . S
O785 C784 1.258 . S
O786 Co783 1.966 . S
O786 C784 1.263 . S
C787 O788 1.235 . S
C787 O814 1.289 . S
O788 C787 1.235 . S
C789 C791 1.400 . S
C789 N792 1.351 . S
C789 C794 1.501 . S
C790 C791 1.387 . S
C790 N793 1.341 . S
C791 C789 1.400 . S
C791 C790 1.387 . S
N792 Co783 2.022 . S
N792 C789 1.351 . S
N792 N793 1.365 . S
N793 C790 1.341 . S
N793 N792 1.365 . S
N793 H813 0.862 . S
C794 C789 1.501 . S
C794 H795 0.961 . S
C794 H796 0.961 . S
C794 H797 0.960 . S
H795 C794 0.961 . S
H796 C794 0.961 . S
H797 C794 0.960 . S
C798 N799 1.342 . S
C798 C802 1.401 . S
C798 C803 1.499 . S
N799 Co782 1.989 . S
N799 C798 1.342 . S
N799 N800 1.388 . S
N800 Co783 1.993 . S
N800 N799 1.388 . S
N800 C801 1.346 . S
C801 N800 1.346 . S
C801 C802 1.396 . S
C801 C811 1.510 . S
C802 C798 1.401 . S
C802 C801 1.396 . S
C803 C798 1.499 . S
C803 H804 0.959 . S
C803 H805 0.960 . S
C803 H806 0.961 . S
H804 C803 0.959 . S
H805 C803 0.960 . S
H806 C803 0.961 . S
O807 Co782 1.967 . S
O807 C815 1.258 . S
O808 Co783 1.941 . S
O808 C815 1.266 . S
H809 C811 0.959 . S
H810 C811 0.961 . S
C811 C801 1.510 . S
C811 H809 0.959 . S
C811 H810 0.961 . S
C811 H812 0.960 . S
H812 C811 0.960 . S
H813 N793 0.862 . S
O814 Co782 1.920 . S
O814 C787 1.289 . S
C815 O807 1.258 . S
C815 O808 1.266 . S
Co816 O819 1.970 . S
Co816 N833 1.989 . S
Co816 O841 1.967 . S
Co816 O848 1.920 . S
Co817 O820 1.966 . S
Co817 N826 2.022 . S
Co817 N834 1.993 . S
Co817 O842 1.941 . S
C818 O819 1.258 . S
C818 O820 1.263 . S
O819 Co816 1.970 . S
O819 C818 1.258 . S
O820 Co817 1.966 . S
O820 C818 1.263 . S
C821 O822 1.235 . S
C821 O848 1.289 . S
O822 C821 1.235 . S
C823 C825 1.400 . S
C823 N826 1.351 . S
C823 C828 1.501 . S
C824 C825 1.387 . S
C824 N827 1.341 . S
C825 C823 1.400 . S
C825 C824 1.387 . S
N826 Co817 2.022 . S
N826 C823 1.351 . S
N826 N827 1.365 . S
N827 C824 1.341 . S
N827 N826 1.365 . S
N827 H847 0.862 . S
C828 C823 1.501 . S
C828 H829 0.961 . S
C828 H830 0.961 . S
C828 H831 0.960 . S
H829 C828 0.961 . S
H830 C828 0.961 . S
H831 C828 0.960 . S
C832 N833 1.342 . S
C832 C836 1.401 . S
C832 C837 1.499 . S
N833 Co816 1.989 . S
N833 C832 1.342 . S
N833 N834 1.388 . S
N834 Co817 1.993 . S
N834 N833 1.388 . S
N834 C835 1.346 . S
C835 N834 1.346 . S
C835 C836 1.396 . S
C835 C845 1.510 . S
C836 C832 1.401 . S
C836 C835 1.396 . S
C837 C832 1.499 . S
C837 H838 0.959 . S
C837 H839 0.960 . S
C837 H840 0.961 . S
H838 C837 0.959 . S
H839 C837 0.960 . S
H840 C837 0.961 . S
O841 Co816 1.967 . S
O841 C849 1.258 . S
O842 Co817 1.941 . S
O842 C849 1.266 . S
H843 C845 0.959 . S
H844 C845 0.961 . S
C845 C835 1.510 . S
C845 H843 0.959 . S
C845 H844 0.961 . S
C845 H846 0.960 . S
H846 C845 0.960 . S
H847 N827 0.862 . S
O848 Co816 1.920 . S
O848 C821 1.289 . S
C849 O841 1.258 . S
C849 O842 1.266 . S
Co850 O853 1.970 . S
Co850 N867 1.989 . S
Co850 O875 1.967 . S
Co850 O882 1.920 . S
Co851 O854 1.966 . S
Co851 N860 2.022 . S
Co851 N868 1.993 . S
Co851 O876 1.941 . S
C852 O853 1.258 . S
C852 O854 1.263 . S
O853 Co850 1.970 . S
O853 C852 1.258 . S
O854 Co851 1.966 . S
O854 C852 1.263 . S
C855 O856 1.235 . S
C855 O882 1.289 . S
O856 C855 1.235 . S
C857 C859 1.400 . S
C857 N860 1.351 . S
C857 C862 1.501 . S
C858 C859 1.387 . S
C858 N861 1.341 . S
C859 C857 1.400 . S
C859 C858 1.387 . S
N860 Co851 2.022 . S
N860 C857 1.351 . S
N860 N861 1.365 . S
N861 C858 1.341 . S
N861 N860 1.365 . S
N861 H881 0.862 . S
C862 C857 1.501 . S
C862 H863 0.961 . S
C862 H864 0.961 . S
C862 H865 0.960 . S
H863 C862 0.961 . S
H864 C862 0.961 . S
H865 C862 0.960 . S
C866 N867 1.342 . S
C866 C870 1.401 . S
C866 C871 1.499 . S
N867 Co850 1.989 . S
N867 C866 1.342 . S
N867 N868 1.388 . S
N868 Co851 1.993 . S
N868 N867 1.388 . S
N868 C869 1.346 . S
C869 N868 1.346 . S
C869 C870 1.396 . S
C869 C879 1.510 . S
C870 C866 1.401 . S
C870 C869 1.396 . S
C871 C866 1.499 . S
C871 H872 0.959 . S
C871 H873 0.960 . S
C871 H874 0.961 . S
H872 C871 0.959 . S
H873 C871 0.960 . S
H874 C871 0.961 . S
O875 Co850 1.967 . S
O875 C883 1.258 . S
O876 Co851 1.941 . S
O876 C883 1.266 . S
H877 C879 0.959 . S
H878 C879 0.961 . S
C879 C869 1.510 . S
C879 H877 0.959 . S
C879 H878 0.961 . S
C879 H880 0.960 . S
H880 C879 0.960 . S
H881 N861 0.862 . S
O882 Co850 1.920 . S
O882 C855 1.289 . S
C883 O875 1.258 . S
C883 O876 1.266 . S
Co884 O887 1.970 . S
Co884 N901 1.989 . S
Co884 O909 1.967 . S
Co884 O916 1.920 . S
Co885 O888 1.966 . S
Co885 N894 2.022 . S
Co885 N902 1.993 . S
Co885 O910 1.941 . S
C886 O887 1.258 . S
C886 O888 1.263 . S
O887 Co884 1.970 . S
O887 C886 1.258 . S
O888 Co885 1.966 . S
O888 C886 1.263 . S
C889 O890 1.235 . S
C889 O916 1.289 . S
O890 C889 1.235 . S
C891 C893 1.400 . S
C891 N894 1.351 . S
C891 C896 1.501 . S
C892 C893 1.387 . S
C892 N895 1.341 . S
C893 C891 1.400 . S
C893 C892 1.387 . S
N894 Co885 2.022 . S
N894 C891 1.351 . S
N894 N895 1.365 . S
N895 C892 1.341 . S
N895 N894 1.365 . S
N895 H915 0.862 . S
C896 C891 1.501 . S
C896 H897 0.961 . S
C896 H898 0.961 . S
C896 H899 0.960 . S
H897 C896 0.961 . S
H898 C896 0.961 . S
H899 C896 0.960 . S
C900 N901 1.342 . S
C900 C904 1.401 . S
C900 C905 1.499 . S
N901 Co884 1.989 . S
N901 C900 1.342 . S
N901 N902 1.388 . S
N902 Co885 1.993 . S
N902 N901 1.388 . S
N902 C903 1.346 . S
C903 N902 1.346 . S
C903 C904 1.396 . S
C903 C913 1.510 . S
C904 C900 1.401 . S
C904 C903 1.396 . S
C905 C900 1.499 . S
C905 H906 0.959 . S
C905 H907 0.960 . S
C905 H908 0.961 . S
H906 C905 0.959 . S
H907 C905 0.960 . S
H908 C905 0.961 . S
O909 Co884 1.967 . S
O909 C917 1.258 . S
O910 Co885 1.941 . S
O910 C917 1.266 . S
H911 C913 0.959 . S
H912 C913 0.961 . S
C913 C903 1.510 . S
C913 H911 0.959 . S
C913 H912 0.961 . S
C913 H914 0.960 . S
H914 C913 0.960 . S
H915 N895 0.862 . S
O916 Co884 1.920 . S
O916 C889 1.289 . S
C917 O909 1.258 . S
C917 O910 1.266 . S
Co918 O921 1.970 . S
Co918 N935 1.989 . S
Co918 O943 1.967 . S
Co918 O950 1.920 . S
Co919 O922 1.966 . S
Co919 N928 2.022 . S
Co919 N936 1.993 . S
Co919 O944 1.941 . S
C920 O921 1.258 . S
C920 O922 1.263 . S
O921 Co918 1.970 . S
O921 C920 1.258 . S
O922 Co919 1.966 . S
O922 C920 1.263 . S
C923 O924 1.235 . S
C923 O950 1.289 . S
O924 C923 1.235 . S
C925 C927 1.400 . S
C925 N928 1.351 . S
C925 C930 1.501 . S
C926 C927 1.387 . S
C926 N929 1.341 . S
C927 C925 1.400 . S
C927 C926 1.387 . S
N928 Co919 2.022 . S
N928 C925 1.351 . S
N928 N929 1.365 . S
N929 C926 1.341 . S
N929 N928 1.365 . S
N929 H949 0.862 . S
C930 C925 1.501 . S
C930 H931 0.961 . S
C930 H932 0.961 . S
C930 H933 0.960 . S
H931 C930 0.961 . S
H932 C930 0.961 . S
H933 C930 0.960 . S
C934 N935 1.342 . S
C934 C938 1.401 . S
C934 C939 1.499 . S
N935 Co918 1.989 . S
N935 C934 1.342 . S
N935 N936 1.388 . S
N936 Co919 1.993 . S
N936 N935 1.388 . S
N936 C937 1.346 . S
C937 N936 1.346 . S
C937 C938 1.396 . S
C937 C947 1.510 . S
C938 C934 1.401 . S
C938 C937 1.396 . S
C939 C934 1.499 . S
C939 H940 0.959 . S
C939 H941 0.960 . S
C939 H942 0.961 . S
H940 C939 0.959 . S
H941 C939 0.960 . S
H942 C939 0.961 . S
O943 Co918 1.967 . S
O943 C951 1.258 . S
O944 Co919 1.941 . S
O944 C951 1.266 . S
H945 C947 0.959 . S
H946 C947 0.961 . S
C947 C937 1.510 . S
C947 H945 0.959 . S
C947 H946 0.961 . S
C947 H948 0.960 . S
H948 C947 0.960 . S
H949 N929 0.862 . S
O950 Co918 1.920 . S
O950 C923 1.289 . S
C951 O943 1.258 . S
C951 O944 1.266 . S
Co952 O955 1.970 . S
Co952 N969 1.989 . S
Co952 O977 1.967 . S
Co952 O984 1.920 . S
Co953 O956 1.966 . S
Co953 N962 2.022 . S
Co953 N970 1.993 . S
Co953 O978 1.941 . S
C954 O955 1.258 . S
C954 O956 1.263 . S
O955 Co952 1.970 . S
O955 C954 1.258 . S
O956 Co953 1.966 . S
O956 C954 1.263 . S
C957 O958 1.235 . S
C957 O984 1.289 . S
O958 C957 1.235 . S
C959 C961 1.400 . S
C959 N962 1.351 . S
C959 C964 1.501 . S
C960 C961 1.387 . S
C960 N963 1.341 . S
C961 C959 1.400 . S
C961 C960 1.387 . S
N962 Co953 2.022 . S
N962 C959 1.351 . S
N962 N963 1.365 . S
N963 C960 1.341 . S
N963 N962 1.365 . S
N963 H983 0.862 . S
C964 C959 1.501 . S
C964 H965 0.961 . S
C964 H966 0.961 . S
C964 H967 0.960 . S
H965 C964 0.961 . S
H966 C964 0.961 . S
H967 C964 0.960 . S
C968 N969 1.342 . S
C968 C972 1.401 . S
C968 C973 1.499 . S
N969 Co952 1.989 . S
N969 C968 1.342 . S
N969 N970 1.388 . S
N970 Co953 1.993 . S
N970 N969 1.388 . S
N970 C971 1.346 . S
C971 N970 1.346 . S
C971 C972 1.396 . S
C971 C981 1.510 . S
C972 C968 1.401 . S
C972 C971 1.396 . S
C973 C968 1.499 . S
C973 H974 0.959 . S
C973 H975 0.960 . S
C973 H976 0.961 . S
H974 C973 0.959 . S
H975 C973 0.960 . S
H976 C973 0.961 . S
O977 Co952 1.967 . S
O977 C985 1.258 . S
O978 Co953 1.941 . S
O978 C985 1.266 . S
H979 C981 0.959 . S
H980 C981 0.961 . S
C981 C971 1.510 . S
C981 H979 0.959 . S
C981 H980 0.961 . S
C981 H982 0.960 . S
H982 C981 0.960 . S
H983 N963 0.862 . S
O984 Co952 1.920 . S
O984 C957 1.289 . S
C985 O977 1.258 . S
C985 O978 1.266 . S
Co986 O989 1.970 . S
Co986 N1003 1.989 . S
Co986 O1011 1.967 . S
Co986 O1018 1.920 . S
Co987 O990 1.966 . S
Co987 N996 2.022 . S
Co987 N1004 1.993 . S
Co987 O1012 1.941 . S
C988 O989 1.258 . S
C988 O990 1.263 . S
O989 Co986 1.970 . S
O989 C988 1.258 . S
O990 Co987 1.966 . S
O990 C988 1.263 . S
C991 O992 1.235 . S
C991 O1018 1.289 . S
O992 C991 1.235 . S
C993 C995 1.400 . S
C993 N996 1.351 . S
C993 C998 1.501 . S
C994 C995 1.387 . S
C994 N997 1.341 . S
C995 C993 1.400 . S
C995 C994 1.387 . S
N996 Co987 2.022 . S
N996 C993 1.351 . S
N996 N997 1.365 . S
N997 C994 1.341 . S
N997 N996 1.365 . S
N997 H1017 0.862 . S
C998 C993 1.501 . S
C998 H999 0.961 . S
C998 H1000 0.961 . S
C998 H1001 0.960 . S
H999 C998 0.961 . S
H1000 C998 0.961 . S
H1001 C998 0.960 . S
C1002 N1003 1.342 . S
C1002 C1006 1.401 . S
C1002 C1007 1.499 . S
N1003 Co986 1.989 . S
N1003 C1002 1.342 . S
N1003 N1004 1.388 . S
N1004 Co987 1.993 . S
N1004 N1003 1.388 . S
N1004 C1005 1.346 . S
C1005 N1004 1.346 . S
C1005 C1006 1.396 . S
C1005 C1015 1.510 . S
C1006 C1002 1.401 . S
C1006 C1005 1.396 . S
C1007 C1002 1.499 . S
C1007 H1008 0.959 . S
C1007 H1009 0.960 . S
C1007 H1010 0.961 . S
H1008 C1007 0.959 . S
H1009 C1007 0.960 . S
H1010 C1007 0.961 . S
O1011 Co986 1.967 . S
O1011 C1019 1.258 . S
O1012 Co987 1.941 . S
O1012 C1019 1.266 . S
H1013 C1015 0.959 . S
H1014 C1015 0.961 . S
C1015 C1005 1.510 . S
C1015 H1013 0.959 . S
C1015 H1014 0.961 . S
C1015 H1016 0.960 . S
H1016 C1015 0.960 . S
H1017 N997 0.862 . S
O1018 Co986 1.920 . S
O1018 C991 1.289 . S
C1019 O1011 1.258 . S
C1019 O1012 1.266 . S
Co1020 O1023 1.970 . S
Co1020 N1037 1.989 . S
Co1020 O1045 1.967 . S
Co1020 O1052 1.920 . S
Co1021 O1024 1.966 . S
Co1021 N1030 2.022 . S
Co1021 N1038 1.993 . S
Co1021 O1046 1.941 . S
C1022 O1023 1.258 . S
C1022 O1024 1.263 . S
O1023 Co1020 1.970 . S
O1023 C1022 1.258 . S
O1024 Co1021 1.966 . S
O1024 C1022 1.263 . S
C1025 O1026 1.235 . S
C1025 O1052 1.289 . S
O1026 C1025 1.235 . S
C1027 C1029 1.400 . S
C1027 N1030 1.351 . S
C1027 C1032 1.501 . S
C1028 C1029 1.387 . S
C1028 N1031 1.341 . S
C1029 C1027 1.400 . S
C1029 C1028 1.387 . S
N1030 Co1021 2.022 . S
N1030 C1027 1.351 . S
N1030 N1031 1.365 . S
N1031 C1028 1.341 . S
N1031 N1030 1.365 . S
N1031 H1051 0.862 . S
C1032 C1027 1.501 . S
C1032 H1033 0.961 . S
C1032 H1034 0.961 . S
C1032 H1035 0.960 . S
H1033 C1032 0.961 . S
H1034 C1032 0.961 . S
H1035 C1032 0.960 . S
C1036 N1037 1.342 . S
C1036 C1040 1.401 . S
C1036 C1041 1.499 . S
N1037 Co1020 1.989 . S
N1037 C1036 1.342 . S
N1037 N1038 1.388 . S
N1038 Co1021 1.993 . S
N1038 N1037 1.388 . S
N1038 C1039 1.346 . S
C1039 N1038 1.346 . S
C1039 C1040 1.396 . S
C1039 C1049 1.510 . S
C1040 C1036 1.401 . S
C1040 C1039 1.396 . S
C1041 C1036 1.499 . S
C1041 H1042 0.959 . S
C1041 H1043 0.960 . S
C1041 H1044 0.961 . S
H1042 C1041 0.959 . S
H1043 C1041 0.960 . S
H1044 C1041 0.961 . S
O1045 Co1020 1.967 . S
O1045 C1053 1.258 . S
O1046 Co1021 1.941 . S
O1046 C1053 1.266 . S
H1047 C1049 0.959 . S
H1048 C1049 0.961 . S
C1049 C1039 1.510 . S
C1049 H1047 0.959 . S
C1049 H1048 0.961 . S
C1049 H1050 0.960 . S
H1050 C1049 0.960 . S
H1051 N1031 0.862 . S
O1052 Co1020 1.920 . S
O1052 C1025 1.289 . S
C1053 O1045 1.258 . S
C1053 O1046 1.266 . S
Co1054 O1057 1.970 . S
Co1054 N1071 1.989 . S
Co1054 O1079 1.967 . S
Co1054 O1086 1.920 . S
Co1055 O1058 1.966 . S
Co1055 N1064 2.022 . S
Co1055 N1072 1.993 . S
Co1055 O1080 1.941 . S
C1056 O1057 1.258 . S
C1056 O1058 1.263 . S
O1057 Co1054 1.970 . S
O1057 C1056 1.258 . S
O1058 Co1055 1.966 . S
O1058 C1056 1.263 . S
C1059 O1060 1.235 . S
C1059 O1086 1.289 . S
O1060 C1059 1.235 . S
C1061 C1063 1.400 . S
C1061 N1064 1.351 . S
C1061 C1066 1.501 . S
C1062 C1063 1.387 . S
C1062 N1065 1.341 . S
C1063 C1061 1.400 . S
C1063 C1062 1.387 . S
N1064 Co1055 2.022 . S
N1064 C1061 1.351 . S
N1064 N1065 1.365 . S
N1065 C1062 1.341 . S
N1065 N1064 1.365 . S
N1065 H1085 0.862 . S
C1066 C1061 1.501 . S
C1066 H1067 0.961 . S
C1066 H1068 0.961 . S
C1066 H1069 0.960 . S
H1067 C1066 0.961 . S
H1068 C1066 0.961 . S
H1069 C1066 0.960 . S
C1070 N1071 1.342 . S
C1070 C1074 1.401 . S
C1070 C1075 1.499 . S
N1071 Co1054 1.989 . S
N1071 C1070 1.342 . S
N1071 N1072 1.388 . S
N1072 Co1055 1.993 . S
N1072 N1071 1.388 . S
N1072 C1073 1.346 . S
C1073 N1072 1.346 . S
C1073 C1074 1.396 . S
C1073 C1083 1.510 . S
C1074 C1070 1.401 . S
C1074 C1073 1.396 . S
C1075 C1070 1.499 . S
C1075 H1076 0.959 . S
C1075 H1077 0.960 . S
C1075 H1078 0.961 . S
H1076 C1075 0.959 . S
H1077 C1075 0.960 . S
H1078 C1075 0.961 . S
O1079 Co1054 1.967 . S
O1079 C1087 1.258 . S
O1080 Co1055 1.941 . S
O1080 C1087 1.266 . S
H1081 C1083 0.959 . S
H1082 C1083 0.961 . S
C1083 C1073 1.510 . S
C1083 H1081 0.959 . S
C1083 H1082 0.961 . S
C1083 H1084 0.960 . S
H1084 C1083 0.960 . S
H1085 N1065 0.862 . S
O1086 Co1054 1.920 . S
O1086 C1059 1.289 . S
C1087 O1079 1.258 . S
C1087 O1080 1.266 . S
C1088 C1089 1.369 . S
C1088 C1090 1.419 . S
C1088 H1092 0.930 . S
C1089 C1088 1.369 . S
C1089 C1098 1.429 1_545 S
C1090 C1088 1.419 . S
C1090 C1091 1.363 1_545 S
C1090 H1093 0.929 . S
C1091 C1090 1.363 1_565 S
C1091 C1097 1.428 . S
H1092 C1088 0.930 . S
H1093 C1090 0.929 . S
S1094 N1095 1.613 1_655 S
S1094 N1096 1.610 1_655 S
N1095 S1094 1.613 1_455 S
N1095 C1098 1.350 . S
N1096 S1094 1.610 1_455 S
N1096 C1097 1.351 . S
C1097 C1091 1.428 . S
C1097 N1096 1.351 . S
C1097 C1098 1.434 . S
C1098 C1089 1.429 1_565 S
C1098 N1095 1.350 . S
C1098 C1097 1.434 . S
C1099 C1100 1.369 . S
C1099 C1101 1.419 . S
C1099 H1103 0.930 . S
C1100 C1099 1.369 . S
C1100 C1109 1.429 . S
C1101 C1099 1.419 . S
C1101 C1102 1.363 . S
C1101 H1104 0.929 . S
C1102 C1101 1.363 . S
C1102 C1108 1.428 . S
H1103 C1099 0.930 . S
H1104 C1101 0.929 . S
S1105 N1106 1.613 . S
S1105 N1107 1.610 . S
N1106 S1105 1.613 . S
N1106 C1109 1.350 . S
N1107 S1105 1.610 . S
N1107 C1108 1.351 . S
C1108 C1102 1.428 . S
C1108 N1107 1.351 . S
C1108 C1109 1.434 . S
C1109 C1100 1.429 . S
C1109 N1106 1.350 . S
C1109 C1108 1.434 . S
C1110 C1111 1.369 1_565 S
C1110 C1112 1.419 . S
C1110 H1114 0.930 . S
C1111 C1110 1.369 1_545 S
C1111 C1120 1.429 . S
C1112 C1110 1.419 . S
C1112 C1113 1.363 . S
C1112 H1115 0.929 . S
C1113 C1112 1.363 . S
C1113 C1119 1.428 1_565 S
H1114 C1110 0.930 . S
H1115 C1112 0.929 . S
S1116 N1117 1.613 . S
S1116 N1118 1.610 . S
N1117 S1116 1.613 . S
N1117 C1120 1.350 . S
N1118 S1116 1.610 . S
N1118 C1119 1.351 . S
C1119 C1113 1.428 1_545 S
C1119 N1118 1.351 . S
C1119 C1120 1.434 . S
C1120 C1111 1.429 . S
C1120 N1117 1.350 . S
C1120 C1119 1.434 . S
C1121 C1122 1.369 . S
C1121 C1123 1.419 1_556 S
C1121 H1125 0.930 . S
C1122 C1121 1.369 . S
C1122 C1131 1.429 . S
C1123 C1121 1.419 1_554 S
C1123 C1124 1.363 . S
C1123 H1126 0.929 . S
C1124 C1123 1.363 . S
C1124 C1130 1.428 . S
H1125 C1121 0.930 . S
H1126 C1123 0.929 . S
S1127 N1128 1.613 1_554 S
S1127 N1129 1.610 . S
N1128 S1127 1.613 1_556 S
N1128 C1131 1.350 . S
N1129 S1127 1.610 . S
N1129 C1130 1.351 . S
C1130 C1124 1.428 . S
C1130 N1129 1.351 . S
C1130 C1131 1.434 1_554 S
C1131 C1122 1.429 . S
C1131 N1128 1.350 . S
C1131 C1130 1.434 1_556 S
C1132 C1133 1.369 1_565 S
C1132 C1134 1.419 . S
C1132 H1136 0.930 . S
C1133 C1132 1.369 1_545 S
C1133 C1142 1.429 . S
C1134 C1132 1.419 . S
C1134 C1135 1.363 . S
C1134 H1137 0.929 . S
C1135 C1134 1.363 . S
C1135 C1141 1.428 1_565 S
H1136 C1132 0.930 . S
H1137 C1134 0.929 . S
S1138 N1139 1.613 . S
S1138 N1140 1.610 . S
N1139 S1138 1.613 . S
N1139 C1142 1.350 . S
N1140 S1138 1.610 . S
N1140 C1141 1.351 . S
C1141 C1135 1.428 1_545 S
C1141 N1140 1.351 . S
C1141 C1142 1.434 . S
C1142 C1133 1.429 . S
C1142 N1139 1.350 . S
C1142 C1141 1.434 . S
C1143 C1144 1.369 . S
C1143 C1145 1.419 . S
C1143 H1147 0.930 . S
C1144 C1143 1.369 . S
C1144 C1153 1.429 . S
C1145 C1143 1.419 . S
C1145 C1146 1.363 . S
C1145 H1148 0.929 . S
C1146 C1145 1.363 . S
C1146 C1152 1.428 . S
H1147 C1143 0.930 . S
H1148 C1145 0.929 . S
S1149 N1150 1.613 . S
S1149 N1151 1.610 . S
N1150 S1149 1.613 . S
N1150 C1153 1.350 . S
N1151 S1149 1.610 . S
N1151 C1152 1.351 . S
C1152 C1146 1.428 . S
C1152 N1151 1.351 . S
C1152 C1153 1.434 . S
C1153 C1144 1.429 . S
C1153 N1150 1.350 . S
C1153 C1152 1.434 . S
C1154 C1155 1.369 . S
C1154 C1156 1.419 . S
C1154 H1158 0.930 . S
C1155 C1154 1.369 . S
C1155 C1164 1.429 1_565 S
C1156 C1154 1.419 . S
C1156 C1157 1.363 1_565 S
C1156 H1159 0.929 . S
C1157 C1156 1.363 1_545 S
C1157 C1163 1.428 . S
H1158 C1154 0.930 . S
H1159 C1156 0.929 . S
S1160 N1161 1.613 . S
S1160 N1162 1.610 . S
N1161 S1160 1.613 . S
N1161 C1164 1.350 . S
N1162 S1160 1.610 . S
N1162 C1163 1.351 . S
C1163 C1157 1.428 . S
C1163 N1162 1.351 . S
C1163 C1164 1.434 . S
C1164 C1155 1.429 1_545 S
C1164 N1161 1.350 . S
C1164 C1163 1.434 . S
C1165 C1166 1.369 . S
C1165 C1167 1.419 1_556 S
C1165 H1169 0.930 . S
C1166 C1165 1.369 . S
C1166 C1175 1.429 . S
C1167 C1165 1.419 1_554 S
C1167 C1168 1.363 . S
C1167 H1170 0.929 . S
C1168 C1167 1.363 . S
C1168 C1174 1.428 . S
H1169 C1165 0.930 . S
H1170 C1167 0.929 . S
S1171 N1172 1.613 . S
S1171 N1173 1.610 1_556 S
N1172 S1171 1.613 . S
N1172 C1175 1.350 . S
N1173 S1171 1.610 1_554 S
N1173 C1174 1.351 . S
C1174 C1168 1.428 . S
C1174 N1173 1.351 . S
C1174 C1175 1.434 1_554 S
C1175 C1166 1.429 . S
C1175 N1172 1.350 . S
C1175 C1174 1.434 1_556 S
C1176 C1177 1.369 . S
C1176 C1178 1.419 . S
C1176 H1180 0.930 . S
C1177 C1176 1.369 . S
C1177 C1186 1.429 . S
C1178 C1176 1.419 . S
C1178 C1179 1.363 . S
C1178 H1181 0.929 . S
C1179 C1178 1.363 . S
C1179 C1185 1.428 . S
H1180 C1176 0.930 . S
H1181 C1178 0.929 . S
S1182 N1183 1.613 . S
S1182 N1184 1.610 . S
N1183 S1182 1.613 . S
N1183 C1186 1.350 . S
N1184 S1182 1.610 . S
N1184 C1185 1.351 . S
C1185 C1179 1.428 . S
C1185 N1184 1.351 . S
C1185 C1186 1.434 . S
C1186 C1177 1.429 . S
C1186 N1183 1.350 . S
C1186 C1185 1.434 . S
C1187 C1188 1.369 . S
C1187 C1189 1.419 1_556 S
C1187 H1191 0.930 . S
C1188 C1187 1.369 . S
C1188 C1197 1.429 . S
C1189 C1187 1.419 1_554 S
C1189 C1190 1.363 . S
C1189 H1192 0.929 . S
C1190 C1189 1.363 . S
C1190 C1196 1.428 . S
H1191 C1187 0.930 . S
H1192 C1189 0.929 . S
S1193 N1194 1.613 1_554 S
S1193 N1195 1.610 . S
N1194 S1193 1.613 1_556 S
N1194 C1197 1.350 . S
N1195 S1193 1.610 . S
N1195 C1196 1.351 . S
C1196 C1190 1.428 . S
C1196 N1195 1.351 . S
C1196 C1197 1.434 1_554 S
C1197 C1188 1.429 . S
C1197 N1194 1.350 . S
C1197 C1196 1.434 1_556 S
C1198 C1199 1.369 . S
C1198 C1200 1.419 . S
C1198 H1202 0.930 . S
C1199 C1198 1.369 . S
C1199 C1208 1.429 . S
C1200 C1198 1.419 . S
C1200 C1201 1.363 . S
C1200 H1203 0.929 . S
C1201 C1200 1.363 . S
C1201 C1207 1.428 . S
H1202 C1198 0.930 . S
H1203 C1200 0.929 . S
S1204 N1205 1.613 . S
S1204 N1206 1.610 . S
N1205 S1204 1.613 . S
N1205 C1208 1.350 . S
N1206 S1204 1.610 . S
N1206 C1207 1.351 . S
C1207 C1201 1.428 . S
C1207 N1206 1.351 . S
C1207 C1208 1.434 . S
C1208 C1199 1.429 . S
C1208 N1205 1.350 . S
C1208 C1207 1.434 . S
C1209 C1210 1.369 . S
C1209 C1211 1.419 . S
C1209 H1213 0.930 . S
C1210 C1209 1.369 . S
C1210 C1219 1.429 . S
C1211 C1209 1.419 . S
C1211 C1212 1.363 . S
C1211 H1214 0.929 . S
C1212 C1211 1.363 . S
C1212 C1218 1.428 . S
H1213 C1209 0.930 . S
H1214 C1211 0.929 . S
S1215 N1216 1.613 . S
S1215 N1217 1.610 . S
N1216 S1215 1.613 . S
N1216 C1219 1.350 . S
N1217 S1215 1.610 . S
N1217 C1218 1.351 . S
C1218 C1212 1.428 . S
C1218 N1217 1.351 . S
C1218 C1219 1.434 . S
C1219 C1210 1.429 . S
C1219 N1216 1.350 . S
C1219 C1218 1.434 . S
C1220 C1221 1.369 . S
C1220 C1222 1.419 . S
C1220 H1224 0.930 . S
C1221 C1220 1.369 . S
C1221 C1230 1.429 . S
C1222 C1220 1.419 . S
C1222 C1223 1.363 . S
C1222 H1225 0.929 . S
C1223 C1222 1.363 . S
C1223 C1229 1.428 . S
H1224 C1220 0.930 . S
H1225 C1222 0.929 . S
S1226 N1227 1.613 . S
S1226 N1228 1.610 . S
N1227 S1226 1.613 . S
N1227 C1230 1.350 . S
N1228 S1226 1.610 . S
N1228 C1229 1.351 . S
C1229 C1223 1.428 . S
C1229 N1228 1.351 . S
C1229 C1230 1.434 . S
C1230 C1221 1.429 . S
C1230 N1227 1.350 . S
C1230 C1229 1.434 . S
C1231 C1232 1.369 . S
C1231 C1233 1.419 1_554 S
C1231 H1235 0.930 . S
C1232 C1231 1.369 . S
C1232 C1241 1.429 . S
C1233 C1231 1.419 1_556 S
C1233 C1234 1.363 . S
C1233 H1236 0.929 . S
C1234 C1233 1.363 . S
C1234 C1240 1.428 . S
H1235 C1231 0.930 . S
H1236 C1233 0.929 . S
S1237 N1238 1.697 . S
S1237 N1239 1.525 1_554 S
N1238 S1237 1.697 . S
N1238 C1241 1.350 . S
N1239 S1237 1.525 1_556 S
N1239 C1240 1.351 . S
C1240 C1234 1.428 . S
C1240 N1239 1.351 . S
C1240 C1241 1.434 1_556 S
C1241 C1232 1.429 . S
C1241 N1238 1.350 . S
C1241 C1240 1.434 1_554 S
C1242 C1243 1.369 . S
C1242 C1244 1.419 . S
C1242 H1246 0.930 . S
C1243 C1242 1.369 . S
C1243 C1252 1.429 . S
C1244 C1242 1.419 . S
C1244 C1245 1.363 . S
C1244 H1247 0.929 . S
C1245 C1244 1.363 . S
C1245 C1251 1.428 . S
H1246 C1242 0.930 . S
H1247 C1244 0.929 . S
S1248 N1249 1.613 . S
S1248 N1250 1.610 . S
N1249 S1248 1.613 . S
N1249 C1252 1.350 . S
N1250 S1248 1.610 . S
N1250 C1251 1.351 . S
C1251 C1245 1.428 . S
C1251 N1250 1.351 . S
C1251 C1252 1.434 . S
C1252 C1243 1.429 . S
C1252 N1249 1.350 . S
C1252 C1251 1.434 . S
C1253 C1254 1.369 . S
C1253 C1255 1.419 . S
C1253 H1257 0.930 . S
C1254 C1253 1.369 . S
C1254 C1263 1.429 . S
C1255 C1253 1.419 . S
C1255 C1256 1.363 . S
C1255 H1258 0.929 . S
C1256 C1255 1.363 . S
C1256 C1262 1.428 . S
H1257 C1253 0.930 . S
H1258 C1255 0.929 . S
S1259 N1260 1.613 . S
S1259 N1261 1.610 . S
N1260 S1259 1.613 . S
N1260 C1263 1.350 . S
N1261 S1259 1.610 . S
N1261 C1262 1.351 . S
C1262 C1256 1.428 . S
C1262 N1261 1.351 . S
C1262 C1263 1.434 . S
C1263 C1254 1.429 . S
C1263 N1260 1.350 . S
C1263 C1262 1.434 . S
C1264 C1265 1.369 . S
C1264 C1266 1.419 1_455 S
C1264 H1268 0.930 . S
C1265 C1264 1.369 . S
C1265 C1274 1.429 . S
C1266 C1264 1.419 1_655 S
C1266 C1267 1.363 . S
C1266 H1269 0.929 . S
C1267 C1266 1.363 . S
C1267 C1273 1.428 . S
H1268 C1264 0.930 . S
H1269 C1266 0.929 . S
S1270 N1271 1.623 . S
S1270 N1272 1.610 . S
N1271 S1270 1.623 . S
N1271 C1274 1.349 1_655 S
N1272 S1270 1.610 . S
N1272 C1273 1.351 . S
C1273 C1267 1.428 . S
C1273 N1272 1.351 . S
C1273 C1274 1.434 1_655 S
C1274 C1265 1.429 . S
C1274 N1271 1.349 1_455 S
C1274 C1273 1.434 1_455 S
C1275 C1276 1.369 1_655 S
C1275 C1277 1.419 . S
C1275 H1279 0.930 . S
C1276 C1275 1.369 1_455 S
C1276 C1285 1.429 . S
C1277 C1275 1.419 . S
C1277 C1278 1.363 . S
C1277 H1280 0.929 . S
C1278 C1277 1.363 . S
C1278 C1284 1.428 1_655 S
H1279 C1275 0.930 . S
H1280 C1277 0.929 . S
S1281 N1282 1.613 . S
S1281 N1283 1.610 . S
N1282 S1281 1.613 . S
N1282 C1285 1.350 . S
N1283 S1281 1.610 . S
N1283 C1284 1.351 . S
C1284 C1278 1.428 1_455 S
C1284 N1283 1.351 . S
C1284 C1285 1.434 . S
C1285 C1276 1.429 . S
C1285 N1282 1.350 . S
C1285 C1284 1.434 . S
C1286 C1287 1.369 . S
C1286 C1288 1.419 . S
C1286 H1290 0.930 . S
C1287 C1286 1.369 . S
C1287 C1296 1.429 . S
C1288 C1286 1.419 . S
C1288 C1289 1.363 . S
C1288 H1291 0.929 . S
C1289 C1288 1.363 . S
C1289 C1295 1.428 . S
H1290 C1286 0.930 . S
H1291 C1288 0.929 . S
S1292 N1293 1.613 . S
S1292 N1294 1.610 . S
N1293 S1292 1.613 . S
N1293 C1296 1.350 . S
N1294 S1292 1.610 . S
N1294 C1295 1.351 . S
C1295 C1289 1.428 . S
C1295 N1294 1.351 . S
C1295 C1296 1.434 . S
C1296 C1287 1.429 . S
C1296 N1293 1.350 . S
C1296 C1295 1.434 . S
C1297 C1298 1.369 . S
C1297 C1299 1.419 . S
C1297 H1301 0.930 . S
C1298 C1297 1.369 . S
C1298 C1307 1.429 . S
C1299 C1297 1.419 . S
C1299 C1300 1.363 . S
C1299 H1302 0.929 . S
C1300 C1299 1.363 . S
C1300 C1306 1.428 . S
H1301 C1297 0.930 . S
H1302 C1299 0.929 . S
S1303 N1304 1.613 . S
S1303 N1305 1.610 . S
N1304 S1303 1.613 . S
N1304 C1307 1.350 . S
N1305 S1303 1.610 . S
N1305 C1306 1.351 . S
C1306 C1300 1.428 . S
C1306 N1305 1.351 . S
C1306 C1307 1.434 . S
C1307 C1298 1.429 . S
C1307 N1304 1.350 . S
C1307 C1306 1.434 . S
C1308 C1309 1.369 . S
C1308 C1310 1.419 1_455 S
C1308 H1312 0.930 . S
C1309 C1308 1.369 . S
C1309 C1318 1.429 . S
C1310 C1308 1.419 1_655 S
C1310 C1311 1.363 . S
C1310 H1313 0.929 . S
C1311 C1310 1.363 . S
C1311 C1317 1.428 . S
H1312 C1308 0.930 . S
H1313 C1310 0.929 . S
S1314 N1315 1.613 . S
S1314 N1316 1.610 1_455 S
N1315 S1314 1.613 . S
N1315 C1318 1.350 . S
N1316 S1314 1.610 1_655 S
N1316 C1317 1.351 . S
C1317 C1311 1.428 . S
C1317 N1316 1.351 . S
C1317 C1318 1.434 1_655 S
C1318 C1309 1.429 . S
C1318 N1315 1.350 . S
C1318 C1317 1.434 1_455 S
C1319 C1320 1.369 . S
C1319 C1321 1.419 . S
C1319 H1323 0.930 . S
C1320 C1319 1.369 . S
C1320 C1329 1.429 . S
C1321 C1319 1.419 . S
C1321 C1322 1.363 . S
C1321 H1324 0.929 . S
C1322 C1321 1.363 . S
C1322 C1328 1.428 . S
H1323 C1319 0.930 . S
H1324 C1321 0.929 . S
S1325 N1326 1.613 . S
S1325 N1327 1.610 . S
N1326 S1325 1.613 . S
N1326 C1329 1.350 . S
N1327 S1325 1.610 . S
N1327 C1328 1.351 . S
C1328 C1322 1.428 . S
C1328 N1327 1.351 . S
C1328 C1329 1.434 . S
C1329 C1320 1.429 . S
C1329 N1326 1.350 . S
C1329 C1328 1.434 . S
C1330 C1331 1.369 . S
C1330 C1332 1.419 . S
C1330 H1334 0.930 . S
C1331 C1330 1.369 . S
C1331 C1340 1.429 . S
C1332 C1330 1.419 . S
C1332 C1333 1.363 . S
C1332 H1335 0.929 . S
C1333 C1332 1.363 . S
C1333 C1339 1.428 . S
H1334 C1330 0.930 . S
H1335 C1332 0.929 . S
S1336 N1337 1.613 . S
S1336 N1338 1.610 . S
N1337 S1336 1.613 . S
N1337 C1340 1.350 . S
N1338 S1336 1.610 . S
N1338 C1339 1.351 . S
C1339 C1333 1.428 . S
C1339 N1338 1.351 . S
C1339 C1340 1.434 . S
C1340 C1331 1.429 . S
C1340 N1337 1.350 . S
C1340 C1339 1.434 . S
C1341 C1342 1.369 . S
C1341 C1343 1.419 1_455 S
C1341 H1345 0.930 . S
C1342 C1341 1.369 . S
C1342 C1351 1.429 . S
C1343 C1341 1.419 1_655 S
C1343 C1344 1.363 . S
C1343 H1346 0.929 . S
C1344 C1343 1.363 . S
C1344 C1350 1.428 . S
H1345 C1341 0.930 . S
H1346 C1343 0.929 . S
S1347 N1348 1.613 1_655 S
S1347 N1349 1.610 . S
N1348 S1347 1.613 1_455 S
N1348 C1351 1.350 . S
N1349 S1347 1.610 . S
N1349 C1350 1.351 . S
C1350 C1344 1.428 . S
C1350 N1349 1.351 . S
C1350 C1351 1.434 1_655 S
C1351 C1342 1.429 . S
C1351 N1348 1.350 . S
C1351 C1350 1.434 1_455 S
C1352 C1353 1.369 . S
C1352 C1354 1.419 1_455 S
C1352 H1356 0.930 . S
C1353 C1352 1.369 . S
C1353 C1362 1.428 . S
C1354 C1352 1.419 1_655 S
C1354 C1355 1.363 . S
C1354 H1357 0.930 . S
C1355 C1354 1.363 . S
C1355 C1361 1.428 . S
H1356 C1352 0.930 . S
H1357 C1354 0.930 . S
S1358 N1359 1.613 . S
S1358 N1360 1.610 . S
N1359 S1358 1.613 . S
N1359 C1362 1.350 1_655 S
N1360 S1358 1.610 . S
N1360 C1361 1.351 . S
C1361 C1355 1.428 . S
C1361 N1360 1.351 . S
C1361 C1362 1.434 1_655 S
C1362 C1353 1.428 . S
C1362 N1359 1.350 1_455 S
C1362 C1361 1.434 1_455 S
C1363 C1364 1.369 . S
C1363 C1365 1.419 . S
C1363 H1367 0.930 . S
C1364 C1363 1.369 . S
C1364 C1373 1.429 1_655 S
C1365 C1363 1.419 . S
C1365 C1366 1.363 1_655 S
C1365 H1368 0.929 . S
C1366 C1365 1.363 1_455 S
C1366 C1372 1.428 . S
H1367 C1363 0.930 . S
H1368 C1365 0.929 . S
S1369 N1370 1.613 . S
S1369 N1371 1.610 . S
N1370 S1369 1.613 . S
N1370 C1373 1.350 . S
N1371 S1369 1.610 . S
N1371 C1372 1.351 . S
C1372 C1366 1.428 . S
C1372 N1371 1.351 . S
C1372 C1373 1.434 . S
C1373 C1364 1.429 1_455 S
C1373 N1370 1.350 . S
C1373 C1372 1.434 . S
C1374 C1375 1.369 . S
C1374 C1376 1.419 . S
C1374 H1378 0.930 . S
C1375 C1374 1.369 . S
C1375 C1384 1.429 . S
C1376 C1374 1.419 . S
C1376 C1377 1.363 . S
C1376 H1379 0.929 . S
C1377 C1376 1.363 . S
C1377 C1383 1.428 . S
H1378 C1374 0.930 . S
H1379 C1376 0.929 . S
S1380 N1381 1.613 . S
S1380 N1382 1.610 . S
N1381 S1380 1.613 . S
N1381 C1384 1.350 . S
N1382 S1380 1.610 . S
N1382 C1383 1.351 . S
C1383 C1377 1.428 . S
C1383 N1382 1.351 . S
C1383 C1384 1.434 . S
C1384 C1375 1.429 . S
C1384 N1381 1.350 . S
C1384 C1383 1.434 . S
C1385 C1386 1.369 . S
C1385 C1387 1.419 . S
C1385 H1389 0.930 . S
C1386 C1385 1.369 . S
C1386 C1395 1.429 . S
C1387 C1385 1.419 . S
C1387 C1388 1.363 . S
C1387 H1390 0.929 . S
C1388 C1387 1.363 . S
C1388 C1394 1.428 . S
H1389 C1385 0.930 . S
H1390 C1387 0.929 . S
S1391 N1392 1.613 . S
S1391 N1393 1.610 . S
N1392 S1391 1.613 . S
N1392 C1395 1.350 . S
N1393 S1391 1.610 . S
N1393 C1394 1.351 . S
C1394 C1388 1.428 . S
C1394 N1393 1.351 . S
C1394 C1395 1.434 . S
C1395 C1386 1.429 . S
C1395 N1392 1.350 . S
C1395 C1394 1.434 . S
C1396 C1397 1.369 . S
C1396 C1398 1.419 1_655 S
C1396 H1400 0.930 . S
C1397 C1396 1.369 . S
C1397 C1406 1.429 . S
C1398 C1396 1.419 1_455 S
C1398 C1399 1.363 . S
C1398 H1401 0.929 . S
C1399 C1398 1.363 . S
C1399 C1405 1.428 . S
H1400 C1396 0.930 . S
H1401 C1398 0.929 . S
S1402 N1403 1.613 . S
S1402 N1404 1.610 1_655 S
N1403 S1402 1.613 . S
N1403 C1406 1.350 . S
N1404 S1402 1.610 1_455 S
N1404 C1405 1.351 . S
C1405 C1399 1.428 . S
C1405 N1404 1.351 . S
C1405 C1406 1.434 1_455 S
C1406 C1397 1.429 . S
C1406 N1403 1.350 . S
C1406 C1405 1.434 1_655 S
C1407 C1408 1.369 . S
C1407 C1409 1.419 . S
C1407 H1411 0.930 . S
C1408 C1407 1.369 . S
C1408 C1417 1.429 . S
C1409 C1407 1.419 . S
C1409 C1410 1.363 . S
C1409 H1412 0.929 . S
C1410 C1409 1.363 . S
C1410 C1416 1.428 . S
H1411 C1407 0.930 . S
H1412 C1409 0.929 . S
S1413 N1414 1.613 . S
S1413 N1415 1.610 . S
N1414 S1413 1.613 . S
N1414 C1417 1.350 . S
N1415 S1413 1.610 . S
N1415 C1416 1.351 . S
C1416 C1410 1.428 . S
C1416 N1415 1.351 . S
C1416 C1417 1.434 . S
C1417 C1408 1.429 . S
C1417 N1414 1.350 . S
C1417 C1416 1.434 . S
C1418 C1419 1.369 . S
C1418 C1420 1.419 . S
C1418 H1422 0.930 . S
C1419 C1418 1.369 . S
C1419 C1428 1.429 . S
C1420 C1418 1.419 . S
C1420 C1421 1.363 . S
C1420 H1423 0.929 . S
C1421 C1420 1.363 . S
C1421 C1427 1.428 . S
H1422 C1418 0.930 . S
H1423 C1420 0.929 . S
S1424 N1425 1.613 . S
S1424 N1426 1.610 . S
N1425 S1424 1.613 . S
N1425 C1428 1.350 . S
N1426 S1424 1.610 . S
N1426 C1427 1.351 . S
C1427 C1421 1.428 . S
C1427 N1426 1.351 . S
C1427 C1428 1.434 . S
C1428 C1419 1.429 . S
C1428 N1425 1.350 . S
C1428 C1427 1.434 . S
C1429 C1430 1.369 1_455 S
C1429 C1431 1.419 . S
C1429 H1433 0.930 . S
C1430 C1429 1.369 1_655 S
C1430 C1439 1.429 . S
C1431 C1429 1.419 . S
C1431 C1432 1.363 . S
C1431 H1434 0.929 . S
C1432 C1431 1.363 . S
C1432 C1438 1.428 1_455 S
H1433 C1429 0.930 . S
H1434 C1431 0.929 . S
S1435 N1436 1.613 . S
S1435 N1437 1.610 . S
N1436 S1435 1.613 . S
N1436 C1439 1.350 . S
N1437 S1435 1.610 . S
N1437 C1438 1.351 . S
C1438 C1432 1.428 1_655 S
C1438 N1437 1.351 . S
C1438 C1439 1.434 . S
C1439 C1430 1.429 . S
C1439 N1436 1.350 . S
C1439 C1438 1.434 . S
C1440 C1441 1.369 . S
C1440 C1442 1.419 1_545 S
C1440 H1444 0.930 1_545 S
C1441 C1440 1.369 . S
C1441 C1450 1.429 . S
C1442 C1440 1.419 1_565 S
C1442 C1443 1.364 . S
C1442 H1445 0.929 . S
C1443 C1442 1.364 . S
C1443 C1449 1.427 1_565 S
H1444 C1440 0.930 1_565 S
H1445 C1442 0.929 . S
S1446 N1447 1.613 . S
S1446 N1448 1.610 . S
N1447 S1446 1.613 . S
N1447 C1450 1.350 . S
N1448 S1446 1.610 . S
N1448 C1449 1.351 . S
C1449 C1443 1.427 1_545 S
C1449 N1448 1.351 . S
C1449 C1450 1.434 . S
C1450 C1441 1.429 . S
C1450 N1447 1.350 . S
C1450 C1449 1.434 . S
C1451 C1452 1.369 . S
C1451 C1453 1.419 . S
C1451 H1455 0.930 . S
C1452 C1451 1.369 . S
C1452 C1461 1.429 . S
C1453 C1451 1.419 . S
C1453 C1454 1.363 . S
C1453 H1456 0.929 . S
C1454 C1453 1.363 . S
C1454 C1460 1.428 . S
H1455 C1451 0.930 . S
H1456 C1453 0.929 . S
S1457 N1458 1.613 . S
S1457 N1459 1.610 . S
N1458 S1457 1.613 . S
N1458 C1461 1.350 . S
N1459 S1457 1.610 . S
N1459 C1460 1.351 . S
C1460 C1454 1.428 . S
C1460 N1459 1.351 . S
C1460 C1461 1.434 . S
C1461 C1452 1.429 . S
C1461 N1458 1.350 . S
C1461 C1460 1.434 . S
C1462 C1463 1.367 1_545 S
C1462 C1464 1.419 . S
C1462 H1466 0.930 . S
C1463 C1462 1.367 1_565 S
C1463 C1472 1.432 . S
C1464 C1462 1.419 . S
C1464 C1465 1.363 1_545 S
C1464 H1467 0.929 . S
C1465 C1464 1.363 1_565 S
C1465 C1471 1.428 . S
H1466 C1462 0.930 . S
H1467 C1464 0.929 . S
S1468 N1469 1.613 . S
S1468 N1470 1.610 . S
N1469 S1468 1.613 . S
N1469 C1472 1.350 . S
N1470 S1468 1.610 . S
N1470 C1471 1.351 . S
C1471 C1465 1.428 . S
C1471 N1470 1.351 . S
C1471 C1472 1.434 . S
C1472 C1463 1.432 . S
C1472 N1469 1.350 . S
C1472 C1471 1.434 . S
C1473 C1474 1.369 . S
C1473 C1475 1.419 . S
C1473 H1477 0.930 . S
C1474 C1473 1.369 . S
C1474 C1483 1.429 . S
C1475 C1473 1.419 . S
C1475 C1476 1.363 . S
C1475 H1478 0.929 . S
C1476 C1475 1.363 . S
C1476 C1482 1.428 . S
H1477 C1473 0.930 . S
H1478 C1475 0.929 . S
S1479 N1480 1.613 . S
S1479 N1481 1.610 . S
N1480 S1479 1.613 . S
N1480 C1483 1.350 . S
N1481 S1479 1.610 . S
N1481 C1482 1.351 . S
C1482 C1476 1.428 . S
C1482 N1481 1.351 . S
C1482 C1483 1.434 . S
C1483 C1474 1.429 . S
C1483 N1480 1.350 . S
C1483 C1482 1.434 . S
C1484 C1485 1.369 1_545 S
C1484 C1486 1.419 . S
C1484 H1488 0.930 . S
C1485 C1484 1.369 1_565 S
C1485 C1494 1.429 . S
C1486 C1484 1.419 . S
C1486 C1487 1.361 1_545 S
C1486 H1489 0.929 . S
C1487 C1486 1.361 1_565 S
C1487 C1493 1.431 . S
H1488 C1484 0.930 . S
H1489 C1486 0.929 . S
S1490 N1491 1.613 . S
S1490 N1492 1.610 . S
N1491 S1490 1.613 . S
N1491 C1494 1.350 . S
N1492 S1490 1.610 . S
N1492 C1493 1.351 . S
C1493 C1487 1.431 . S
C1493 N1492 1.351 . S
C1493 C1494 1.434 . S
C1494 C1485 1.429 . S
C1494 N1491 1.350 . S
C1494 C1493 1.434 . S
C1495 C1496 1.369 . S
C1495 C1497 1.419 . S
C1495 H1499 0.930 . S
C1496 C1495 1.369 . S
C1496 C1505 1.429 . S
C1497 C1495 1.419 . S
C1497 C1498 1.363 . S
C1497 H1500 0.929 . S
C1498 C1497 1.363 . S
C1498 C1504 1.428 . S
H1499 C1495 0.930 . S
H1500 C1497 0.929 . S
S1501 N1502 1.613 . S
S1501 N1503 1.610 . S
N1502 S1501 1.613 . S
N1502 C1505 1.350 . S
N1503 S1501 1.610 . S
N1503 C1504 1.351 . S
C1504 C1498 1.428 . S
C1504 N1503 1.351 . S
C1504 C1505 1.434 . S
C1505 C1496 1.429 . S
C1505 N1502 1.350 . S
C1505 C1504 1.434 . S
C1506 C1507 1.369 . S
C1506 C1508 1.419 . S
C1506 H1510 0.930 . S
C1507 C1506 1.369 . S
C1507 C1516 1.429 1_545 S
C1508 C1506 1.419 . S
C1508 C1509 1.351 1_545 S
C1508 H1511 0.929 . S
C1509 C1508 1.351 1_565 S
C1509 C1515 1.438 . S
H1510 C1506 0.930 . S
H1511 C1508 0.929 . S
S1512 N1513 1.613 . S
S1512 N1514 1.610 . S
N1513 S1512 1.613 . S
N1513 C1516 1.350 . S
N1514 S1512 1.610 . S
N1514 C1515 1.351 . S
C1515 C1509 1.438 . S
C1515 N1514 1.351 . S
C1515 C1516 1.434 . S
C1516 C1507 1.429 1_565 S
C1516 N1513 1.350 . S
C1516 C1515 1.434 . S
C1517 C1518 1.369 . S
C1517 C1519 1.419 . S
C1517 H1521 0.930 . S
C1518 C1517 1.369 . S
C1518 C1527 1.429 . S
C1519 C1517 1.419 . S
C1519 C1520 1.363 . S
C1519 H1522 0.929 . S
C1520 C1519 1.363 . S
C1520 C1526 1.428 . S
H1521 C1517 0.930 . S
H1522 C1519 0.929 . S
S1523 N1524 1.613 . S
S1523 N1525 1.610 . S
N1524 S1523 1.613 . S
N1524 C1527 1.350 . S
N1525 S1523 1.610 . S
N1525 C1526 1.351 . S
C1526 C1520 1.428 . S
C1526 N1525 1.351 . S
C1526 C1527 1.434 . S
C1527 C1518 1.429 . S
C1527 N1524 1.350 . S
C1527 C1526 1.434 . S
C1528 C1529 1.358 1_565 S
C1528 C1530 1.419 . S
C1528 H1532 0.930 . S
C1529 C1528 1.358 1_545 S
C1529 C1538 1.436 . S
C1530 C1528 1.419 . S
C1530 C1531 1.363 . S
C1530 H1533 0.929 . S
C1531 C1530 1.363 . S
C1531 C1537 1.428 1_565 S
H1532 C1528 0.930 . S
H1533 C1530 0.929 . S
S1534 N1535 1.613 . S
S1534 N1536 1.610 . S
N1535 S1534 1.613 . S
N1535 C1538 1.350 . S
N1536 S1534 1.610 . S
N1536 C1537 1.351 . S
C1537 C1531 1.428 1_545 S
C1537 N1536 1.351 . S
C1537 C1538 1.434 . S
C1538 C1529 1.436 . S
C1538 N1535 1.350 . S
C1538 C1537 1.434 . S
C1539 C1540 1.369 . S
C1539 C1541 1.419 . S
C1539 H1543 0.930 . S
C1540 C1539 1.369 . S
C1540 C1549 1.429 . S
C1541 C1539 1.419 . S
C1541 C1542 1.363 . S
C1541 H1544 0.929 . S
C1542 C1541 1.363 . S
C1542 C1548 1.428 . S
H1543 C1539 0.930 . S
H1544 C1541 0.929 . S
S1545 N1546 1.613 . S
S1545 N1547 1.610 . S
N1546 S1545 1.613 . S
N1546 C1549 1.350 . S
N1547 S1545 1.610 . S
N1547 C1548 1.351 . S
C1548 C1542 1.428 . S
C1548 N1547 1.351 . S
C1548 C1549 1.434 . S
C1549 C1540 1.429 . S
C1549 N1546 1.350 . S
C1549 C1548 1.434 . S
C1550 C1551 1.369 1_565 S
C1550 C1552 1.419 . S
C1550 H1554 0.930 . S
C1551 C1550 1.369 1_545 S
C1551 C1560 1.429 . S
C1552 C1550 1.419 . S
C1552 C1553 1.360 1_565 S
C1552 H1555 0.929 . S
C1553 C1552 1.360 1_545 S
C1553 C1559 1.433 . S
H1554 C1550 0.930 . S
H1555 C1552 0.929 . S
S1556 N1557 1.613 . S
S1556 N1558 1.610 . S
N1557 S1556 1.613 . S
N1557 C1560 1.350 . S
N1558 S1556 1.610 . S
N1558 C1559 1.351 . S
C1559 C1553 1.433 . S
C1559 N1558 1.351 . S
C1559 C1560 1.434 . S
C1560 C1551 1.429 . S
C1560 N1557 1.350 . S
C1560 C1559 1.434 . S
C1561 C1562 1.369 . S
C1561 C1563 1.419 . S
C1561 H1565 0.930 . S
C1562 C1561 1.369 . S
C1562 C1571 1.429 . S
C1563 C1561 1.419 . S
C1563 C1564 1.363 . S
C1563 H1566 0.929 . S
C1564 C1563 1.363 . S
C1564 C1570 1.428 . S
H1565 C1561 0.930 . S
H1566 C1563 0.929 . S
S1567 N1568 1.613 . S
S1567 N1569 1.610 . S
N1568 S1567 1.613 . S
N1568 C1571 1.350 . S
N1569 S1567 1.610 . S
N1569 C1570 1.351 . S
C1570 C1564 1.428 . S
C1570 N1569 1.351 . S
C1570 C1571 1.434 . S
C1571 C1562 1.429 . S
C1571 N1568 1.350 . S
C1571 C1570 1.434 . S
C1572 C1573 1.369 . S
C1572 C1574 1.419 . S
C1572 H1576 0.930 . S
C1573 C1572 1.369 . S
C1573 C1582 1.429 1_545 S
C1574 C1572 1.419 . S
C1574 C1575 1.353 1_545 S
C1574 H1577 0.929 . S
C1575 C1574 1.353 1_565 S
C1575 C1581 1.436 . S
H1576 C1572 0.930 . S
H1577 C1574 0.929 . S
S1578 N1579 1.613 . S
S1578 N1580 1.610 . S
N1579 S1578 1.613 . S
N1579 C1582 1.350 . S
N1580 S1578 1.610 . S
N1580 C1581 1.351 . S
C1581 C1575 1.436 . S
C1581 N1580 1.351 . S
C1581 C1582 1.434 . S
C1582 C1573 1.429 1_565 S
C1582 N1579 1.350 . S
C1582 C1581 1.434 . S
C1583 C1584 1.369 . S
C1583 C1585 1.419 . S
C1583 H1587 0.930 . S
C1584 C1583 1.369 . S
C1584 C1593 1.429 . S
C1585 C1583 1.419 . S
C1585 C1586 1.363 . S
C1585 H1588 0.929 . S
C1586 C1585 1.363 . S
C1586 C1592 1.428 . S
H1587 C1583 0.930 . S
H1588 C1585 0.929 . S
S1589 N1590 1.613 . S
S1589 N1591 1.610 . S
N1590 S1589 1.613 . S
N1590 C1593 1.350 . S
N1591 S1589 1.610 . S
N1591 C1592 1.351 . S
C1592 C1586 1.428 . S
C1592 N1591 1.351 . S
C1592 C1593 1.434 . S
C1593 C1584 1.429 . S
C1593 N1590 1.350 . S
C1593 C1592 1.434 . S
C1594 C1595 1.369 1_545 S
C1594 C1596 1.419 . S
C1594 H1598 0.930 . S
C1595 C1594 1.369 1_565 S
C1595 C1604 1.429 . S
C1596 C1594 1.419 . S
C1596 C1597 1.359 1_545 S
C1596 H1599 0.929 . S
C1597 C1596 1.359 1_565 S
C1597 C1603 1.434 . S
H1598 C1594 0.930 . S
H1599 C1596 0.929 . S
S1600 N1601 1.613 . S
S1600 N1602 1.610 . S
N1601 S1600 1.613 . S
N1601 C1604 1.350 . S
N1602 S1600 1.610 . S
N1602 C1603 1.351 . S
C1603 C1597 1.434 . S
C1603 N1602 1.351 . S
C1603 C1604 1.434 . S
C1604 C1595 1.429 . S
C1604 N1601 1.350 . S
C1604 C1603 1.434 . S
C1605 C1606 1.369 . S
C1605 C1607 1.419 . S
C1605 H1609 0.930 . S
C1606 C1605 1.369 . S
C1606 C1615 1.429 . S
C1607 C1605 1.419 . S
C1607 C1608 1.363 . S
C1607 H1610 0.929 . S
C1608 C1607 1.363 . S
C1608 C1614 1.428 . S
H1609 C1605 0.930 . S
H1610 C1607 0.929 . S
S1611 N1612 1.613 . S
S1611 N1613 1.610 . S
N1612 S1611 1.613 . S
N1612 C1615 1.350 . S
N1613 S1611 1.610 . S
N1613 C1614 1.351 . S
C1614 C1608 1.428 . S
C1614 N1613 1.351 . S
C1614 C1615 1.434 . S
C1615 C1606 1.429 . S
C1615 N1612 1.350 . S
C1615 C1614 1.434 . S
C1616 C1617 1.369 . S
C1616 C1618 1.419 . S
C1616 H1620 0.930 . S
C1617 C1616 1.369 . S
C1617 C1626 1.429 . S
C1618 C1616 1.419 . S
C1618 C1619 1.363 . S
C1618 H1621 0.929 . S
C1619 C1618 1.363 . S
C1619 C1625 1.428 . S
H1620 C1616 0.930 . S
H1621 C1618 0.929 . S
S1622 N1623 1.613 . S
S1622 N1624 1.610 . S
N1623 S1622 1.613 . S
N1623 C1626 1.350 . S
N1624 S1622 1.610 . S
N1624 C1625 1.351 . S
C1625 C1619 1.428 . S
C1625 N1624 1.351 . S
C1625 C1626 1.434 . S
C1626 C1617 1.429 . S
C1626 N1623 1.350 . S
C1626 C1625 1.434 . S
C1627 C1628 1.369 . S
C1627 C1629 1.419 . S
C1627 H1631 0.930 . S
C1628 C1627 1.369 . S
C1628 C1637 1.429 . S
C1629 C1627 1.419 . S
C1629 C1630 1.363 . S
C1629 H1632 0.929 . S
C1630 C1629 1.363 . S
C1630 C1636 1.428 . S
H1631 C1627 0.930 . S
H1632 C1629 0.929 . S
S1633 N1634 1.613 . S
S1633 N1635 1.610 . S
N1634 S1633 1.613 . S
N1634 C1637 1.350 . S
N1635 S1633 1.610 . S
N1635 C1636 1.351 . S
C1636 C1630 1.428 . S
C1636 N1635 1.351 . S
C1636 C1637 1.434 . S
C1637 C1628 1.429 . S
C1637 N1634 1.350 . S
C1637 C1636 1.434 . S
C1638 C1639 1.369 . S
C1638 C1640 1.419 . S
C1638 H1642 0.930 . S
C1639 C1638 1.369 . S
C1639 C1648 1.429 . S
C1640 C1638 1.419 . S
C1640 C1641 1.363 . S
C1640 H1643 0.929 . S
C1641 C1640 1.363 . S
C1641 C1647 1.428 . S
H1642 C1638 0.930 . S
H1643 C1640 0.929 . S
S1644 N1645 1.613 . S
S1644 N1646 1.610 . S
N1645 S1644 1.613 . S
N1645 C1648 1.350 . S
N1646 S1644 1.610 . S
N1646 C1647 1.351 . S
C1647 C1641 1.428 . S
C1647 N1646 1.351 . S
C1647 C1648 1.434 . S
C1648 C1639 1.429 . S
C1648 N1645 1.350 . S
C1648 C1647 1.434 . S
C1649 C1650 1.369 . S
C1649 C1651 1.419 . S
C1649 H1653 0.930 . S
C1650 C1649 1.369 . S
C1650 C1659 1.429 . S
C1651 C1649 1.419 . S
C1651 C1652 1.363 . S
C1651 H1654 0.929 . S
C1652 C1651 1.363 . S
C1652 C1658 1.428 . S
H1653 C1649 0.930 . S
H1654 C1651 0.929 . S
S1655 N1656 1.613 . S
S1655 N1657 1.610 . S
N1656 S1655 1.613 . S
N1656 C1659 1.350 . S
N1657 S1655 1.610 . S
N1657 C1658 1.351 . S
C1658 C1652 1.428 . S
C1658 N1657 1.351 . S
C1658 C1659 1.434 . S
C1659 C1650 1.429 . S
C1659 N1656 1.350 . S
C1659 C1658 1.434 . S
C1660 C1661 1.369 . S
C1660 C1662 1.419 . S
C1660 H1664 0.930 . S
C1661 C1660 1.369 . S
C1661 C1670 1.429 . S
C1662 C1660 1.419 . S
C1662 C1663 1.363 . S
C1662 H1665 0.929 . S
C1663 C1662 1.363 . S
C1663 C1669 1.428 . S
H1664 C1660 0.930 . S
H1665 C1662 0.929 . S
S1666 N1667 1.613 . S
S1666 N1668 1.610 . S
N1667 S1666 1.613 . S
N1667 C1670 1.350 . S
N1668 S1666 1.610 . S
N1668 C1669 1.351 . S
C1669 C1663 1.428 . S
C1669 N1668 1.351 . S
C1669 C1670 1.434 . S
C1670 C1661 1.429 . S
C1670 N1667 1.350 . S
C1670 C1669 1.434 . S
C1671 C1672 1.369 . S
C1671 C1673 1.419 . S
C1671 H1675 0.930 . S
C1672 C1671 1.369 . S
C1672 C1681 1.429 . S
C1673 C1671 1.419 . S
C1673 C1674 1.363 . S
C1673 H1676 0.929 . S
C1674 C1673 1.363 . S
C1674 C1680 1.428 . S
H1675 C1671 0.930 . S
H1676 C1673 0.929 . S
S1677 N1678 1.613 . S
S1677 N1679 1.610 . S
N1678 S1677 1.613 . S
N1678 C1681 1.350 . S
N1679 S1677 1.610 . S
N1679 C1680 1.351 . S
C1680 C1674 1.428 . S
C1680 N1679 1.351 . S
C1680 C1681 1.434 . S
C1681 C1672 1.429 . S
C1681 N1678 1.350 . S
C1681 C1680 1.434 . S
C1682 C1683 1.369 . S
C1682 C1684 1.419 . S
C1682 H1686 0.930 . S
C1683 C1682 1.369 . S
C1683 C1692 1.429 . S
C1684 C1682 1.419 . S
C1684 C1685 1.363 . S
C1684 H1687 0.929 . S
C1685 C1684 1.363 . S
C1685 C1691 1.428 . S
H1686 C1682 0.930 . S
H1687 C1684 0.929 . S
S1688 N1689 1.613 . S
S1688 N1690 1.610 . S
N1689 S1688 1.613 . S
N1689 C1692 1.350 . S
N1690 S1688 1.610 . S
N1690 C1691 1.351 . S
C1691 C1685 1.428 . S
C1691 N1690 1.351 . S
C1691 C1692 1.434 . S
C1692 C1683 1.429 . S
C1692 N1689 1.350 . S
C1692 C1691 1.434 . S
C1693 C1694 1.369 . S
C1693 C1695 1.419 . S
C1693 H1697 0.930 . S
C1694 C1693 1.369 . S
C1694 C1703 1.429 . S
C1695 C1693 1.419 . S
C1695 C1696 1.363 . S
C1695 H1698 0.929 . S
C1696 C1695 1.363 . S
C1696 C1702 1.428 . S
H1697 C1693 0.930 . S
H1698 C1695 0.929 . S
S1699 N1700 1.613 . S
S1699 N1701 1.610 . S
N1700 S1699 1.613 . S
N1700 C1703 1.350 . S
N1701 S1699 1.610 . S
N1701 C1702 1.351 . S
C1702 C1696 1.428 . S
C1702 N1701 1.351 . S
C1702 C1703 1.434 . S
C1703 C1694 1.429 . S
C1703 N1700 1.350 . S
C1703 C1702 1.434 . S
C1704 C1705 1.369 . S
C1704 C1706 1.419 . S
C1704 H1708 0.930 . S
C1705 C1704 1.369 . S
C1705 C1714 1.429 . S
C1706 C1704 1.419 . S
C1706 C1707 1.363 . S
C1706 H1709 0.929 . S
C1707 C1706 1.363 . S
C1707 C1713 1.428 . S
H1708 C1704 0.930 . S
H1709 C1706 0.929 . S
S1710 N1711 1.613 . S
S1710 N1712 1.610 . S
N1711 S1710 1.613 . S
N1711 C1714 1.350 . S
N1712 S1710 1.610 . S
N1712 C1713 1.351 . S
C1713 C1707 1.428 . S
C1713 N1712 1.351 . S
C1713 C1714 1.434 . S
C1714 C1705 1.429 . S
C1714 N1711 1.350 . S
C1714 C1713 1.434 . S
C1715 C1716 1.369 . S
C1715 C1717 1.419 . S
C1715 H1719 0.930 . S
C1716 C1715 1.369 . S
C1716 C1725 1.429 . S
C1717 C1715 1.419 . S
C1717 C1718 1.363 . S
C1717 H1720 0.929 . S
C1718 C1717 1.363 . S
C1718 C1724 1.428 . S
H1719 C1715 0.930 . S
H1720 C1717 0.929 . S
S1721 N1722 1.613 . S
S1721 N1723 1.610 . S
N1722 S1721 1.613 . S
N1722 C1725 1.350 . S
N1723 S1721 1.610 . S
N1723 C1724 1.351 . S
C1724 C1718 1.428 . S
C1724 N1723 1.351 . S
C1724 C1725 1.434 . S
C1725 C1716 1.429 . S
C1725 N1722 1.350 . S
C1725 C1724 1.434 . S
C1726 C1727 1.369 . S
C1726 C1728 1.419 . S
C1726 H1730 0.930 . S
C1727 C1726 1.369 . S
C1727 C1736 1.429 . S
C1728 C1726 1.419 . S
C1728 C1729 1.363 . S
C1728 H1731 0.929 . S
C1729 C1728 1.363 . S
C1729 C1735 1.428 . S
H1730 C1726 0.930 . S
H1731 C1728 0.929 . S
S1732 N1733 1.613 . S
S1732 N1734 1.610 . S
N1733 S1732 1.613 . S
N1733 C1736 1.350 . S
N1734 S1732 1.610 . S
N1734 C1735 1.351 . S
C1735 C1729 1.428 . S
C1735 N1734 1.351 . S
C1735 C1736 1.434 . S
C1736 C1727 1.429 . S
C1736 N1733 1.350 . S
C1736 C1735 1.434 . S
C1737 C1738 1.369 . S
C1737 C1739 1.419 . S
C1737 H1741 0.930 . S
C1738 C1737 1.369 . S
C1738 C1747 1.429 . S
C1739 C1737 1.419 . S
C1739 C1740 1.363 . S
C1739 H1742 0.929 . S
C1740 C1739 1.363 . S
C1740 C1746 1.428 . S
H1741 C1737 0.930 . S
H1742 C1739 0.929 . S
S1743 N1744 1.613 . S
S1743 N1745 1.610 . S
N1744 S1743 1.613 . S
N1744 C1747 1.350 . S
N1745 S1743 1.610 . S
N1745 C1746 1.351 . S
C1746 C1740 1.428 . S
C1746 N1745 1.351 . S
C1746 C1747 1.434 . S
C1747 C1738 1.429 . S
C1747 N1744 1.350 . S
C1747 C1746 1.434 . S
C1748 C1749 1.369 . S
C1748 C1750 1.419 . S
C1748 H1752 0.930 . S
C1749 C1748 1.369 . S
C1749 C1758 1.429 . S
C1750 C1748 1.419 . S
C1750 C1751 1.363 . S
C1750 H1753 0.929 . S
C1751 C1750 1.363 . S
C1751 C1757 1.428 . S
H1752 C1748 0.930 . S
H1753 C1750 0.929 . S
S1754 N1755 1.613 . S
S1754 N1756 1.610 . S
N1755 S1754 1.613 . S
N1755 C1758 1.350 . S
N1756 S1754 1.610 . S
N1756 C1757 1.351 . S
C1757 C1751 1.428 . S
C1757 N1756 1.351 . S
C1757 C1758 1.434 . S
C1758 C1749 1.429 . S
C1758 N1755 1.350 . S
C1758 C1757 1.434 . S
C1759 C1760 1.369 . S
C1759 C1761 1.419 . S
C1759 H1763 0.930 . S
C1760 C1759 1.369 . S
C1760 C1769 1.429 . S
C1761 C1759 1.419 . S
C1761 C1762 1.363 . S
C1761 H1764 0.929 . S
C1762 C1761 1.363 . S
C1762 C1768 1.428 . S
H1763 C1759 0.930 . S
H1764 C1761 0.929 . S
S1765 N1766 1.613 . S
S1765 N1767 1.610 . S
N1766 S1765 1.613 . S
N1766 C1769 1.350 . S
N1767 S1765 1.610 . S
N1767 C1768 1.351 . S
C1768 C1762 1.428 . S
C1768 N1767 1.351 . S
C1768 C1769 1.434 . S
C1769 C1760 1.429 . S
C1769 N1766 1.350 . S
C1769 C1768 1.434 . S
C1770 C1771 1.369 . S
C1770 C1772 1.419 . S
C1770 H1774 0.930 . S
C1771 C1770 1.369 . S
C1771 C1780 1.429 . S
C1772 C1770 1.419 . S
C1772 C1773 1.363 . S
C1772 H1775 0.929 . S
C1773 C1772 1.363 . S
C1773 C1779 1.428 . S
H1774 C1770 0.930 . S
H1775 C1772 0.929 . S
S1776 N1777 1.613 . S
S1776 N1778 1.610 . S
N1777 S1776 1.613 . S
N1777 C1780 1.350 . S
N1778 S1776 1.610 . S
N1778 C1779 1.351 . S
C1779 C1773 1.428 . S
C1779 N1778 1.351 . S
C1779 C1780 1.434 . S
C1780 C1771 1.429 . S
C1780 N1777 1.350 . S
C1780 C1779 1.434 . S
C1781 C1782 1.369 . S
C1781 C1783 1.419 . S
C1781 H1785 0.930 . S
C1782 C1781 1.369 . S
C1782 C1791 1.429 . S
C1783 C1781 1.419 . S
C1783 C1784 1.363 . S
C1783 H1786 0.929 . S
C1784 C1783 1.363 . S
C1784 C1790 1.428 . S
H1785 C1781 0.930 . S
H1786 C1783 0.929 . S
S1787 N1788 1.613 . S
S1787 N1789 1.610 . S
N1788 S1787 1.613 . S
N1788 C1791 1.350 . S
N1789 S1787 1.610 . S
N1789 C1790 1.351 . S
C1790 C1784 1.428 . S
C1790 N1789 1.351 . S
C1790 C1791 1.434 . S
C1791 C1782 1.429 . S
C1791 N1788 1.350 . S
C1791 C1790 1.434 . S
C1792 C1793 1.369 . S
C1792 C1794 1.419 . S
C1792 H1796 0.930 . S
C1793 C1792 1.369 . S
C1793 C1802 1.429 . S
C1794 C1792 1.419 . S
C1794 C1795 1.363 . S
C1794 H1797 0.929 . S
C1795 C1794 1.363 . S
C1795 C1801 1.428 . S
H1796 C1792 0.930 . S
H1797 C1794 0.929 . S
S1798 N1799 1.613 1_565 S
S1798 N1800 1.610 . S
N1799 S1798 1.613 1_545 S
N1799 C1802 1.350 . S
N1800 S1798 1.610 . S
N1800 C1801 1.351 1_565 S
C1801 C1795 1.428 . S
C1801 N1800 1.351 1_545 S
C1801 C1802 1.434 . S
C1802 C1793 1.429 . S
C1802 N1799 1.350 . S
C1802 C1801 1.434 . S
C1803 C1804 1.369 . S
C1803 C1805 1.419 . S
C1803 H1807 0.930 . S
C1804 C1803 1.369 . S
C1804 C1813 1.429 . S
C1805 C1803 1.419 . S
C1805 C1806 1.363 . S
C1805 H1808 0.929 . S
C1806 C1805 1.363 . S
C1806 C1812 1.428 . S
H1807 C1803 0.930 . S
H1808 C1805 0.929 . S
S1809 N1810 1.613 . S
S1809 N1811 1.610 . S
N1810 S1809 1.613 . S
N1810 C1813 1.350 . S
N1811 S1809 1.610 . S
N1811 C1812 1.351 . S
C1812 C1806 1.428 . S
C1812 N1811 1.351 . S
C1812 C1813 1.434 . S
C1813 C1804 1.429 . S
C1813 N1810 1.350 . S
C1813 C1812 1.434 . S
C1814 C1815 1.369 . S
C1814 C1816 1.419 . S
C1814 H1818 0.930 . S
C1815 C1814 1.369 . S
C1815 C1824 1.429 . S
C1816 C1814 1.419 . S
C1816 C1817 1.363 . S
C1816 H1819 0.929 . S
C1817 C1816 1.363 . S
C1817 C1823 1.428 . S
H1818 C1814 0.930 . S
H1819 C1816 0.929 . S
S1820 N1821 1.613 . S
S1820 N1822 1.610 . S
N1821 S1820 1.613 . S
N1821 C1824 1.350 . S
N1822 S1820 1.610 . S
N1822 C1823 1.351 . S
C1823 C1817 1.428 . S
C1823 N1822 1.351 . S
C1823 C1824 1.434 . S
C1824 C1815 1.429 . S
C1824 N1821 1.350 . S
C1824 C1823 1.434 . S
C1825 C1826 1.369 . S
C1825 C1827 1.419 . S
C1825 H1829 0.930 . S
C1826 C1825 1.369 . S
C1826 C1835 1.429 . S
C1827 C1825 1.419 . S
C1827 C1828 1.363 . S
C1827 H1830 0.929 . S
C1828 C1827 1.363 . S
C1828 C1834 1.428 . S
H1829 C1825 0.930 . S
H1830 C1827 0.929 . S
S1831 N1832 1.613 . S
S1831 N1833 1.610 . S
N1832 S1831 1.613 . S
N1832 C1835 1.350 . S
N1833 S1831 1.610 . S
N1833 C1834 1.351 . S
C1834 C1828 1.428 . S
C1834 N1833 1.351 . S
C1834 C1835 1.434 . S
C1835 C1826 1.429 . S
C1835 N1832 1.350 . S
C1835 C1834 1.434 . S
C1836 C1837 1.369 . S
C1836 C1838 1.419 . S
C1836 H1840 0.930 . S
C1837 C1836 1.369 . S
C1837 C1846 1.429 . S
C1838 C1836 1.419 . S
C1838 C1839 1.363 . S
C1838 H1841 0.929 . S
C1839 C1838 1.363 . S
C1839 C1845 1.428 . S
H1840 C1836 0.930 . S
H1841 C1838 0.929 . S
S1842 N1843 1.613 . S
S1842 N1844 1.610 . S
N1843 S1842 1.613 . S
N1843 C1846 1.350 . S
N1844 S1842 1.610 . S
N1844 C1845 1.351 . S
C1845 C1839 1.428 . S
C1845 N1844 1.351 . S
C1845 C1846 1.434 . S
C1846 C1837 1.429 . S
C1846 N1843 1.350 . S
C1846 C1845 1.434 . S
C1847 C1848 1.369 . S
C1847 C1849 1.419 . S
C1847 H1851 0.930 . S
C1848 C1847 1.369 . S
C1848 C1857 1.429 . S
C1849 C1847 1.419 . S
C1849 C1850 1.363 . S
C1849 H1852 0.929 . S
C1850 C1849 1.363 . S
C1850 C1856 1.428 . S
H1851 C1847 0.930 . S
H1852 C1849 0.929 . S
S1853 N1854 1.613 . S
S1853 N1855 1.610 . S
N1854 S1853 1.613 . S
N1854 C1857 1.350 . S
N1855 S1853 1.610 . S
N1855 C1856 1.351 . S
C1856 C1850 1.428 . S
C1856 N1855 1.351 . S
C1856 C1857 1.434 . S
C1857 C1848 1.429 . S
C1857 N1854 1.350 . S
C1857 C1856 1.434 . S
C1858 C1859 1.369 . S
C1858 C1860 1.419 . S
C1858 H1862 0.930 . S
C1859 C1858 1.369 . S
C1859 C1868 1.429 . S
C1860 C1858 1.419 . S
C1860 C1861 1.363 . S
C1860 H1863 0.929 . S
C1861 C1860 1.363 . S
C1861 C1867 1.428 . S
H1862 C1858 0.930 . S
H1863 C1860 0.929 . S
S1864 N1865 1.613 . S
S1864 N1866 1.610 . S
N1865 S1864 1.613 . S
N1865 C1868 1.350 . S
N1866 S1864 1.610 . S
N1866 C1867 1.351 . S
C1867 C1861 1.428 . S
C1867 N1866 1.351 . S
C1867 C1868 1.434 . S
C1868 C1859 1.429 . S
C1868 N1865 1.350 . S
C1868 C1867 1.434 . S
C1869 C1870 1.369 . S
C1869 C1871 1.419 . S
C1869 H1873 0.930 . S
C1870 C1869 1.369 . S
C1870 C1879 1.429 . S
C1871 C1869 1.419 . S
C1871 C1872 1.363 . S
C1871 H1874 0.929 . S
C1872 C1871 1.363 . S
C1872 C1878 1.428 . S
H1873 C1869 0.930 . S
H1874 C1871 0.929 . S
S1875 N1876 1.613 . S
S1875 N1877 1.610 . S
N1876 S1875 1.613 . S
N1876 C1879 1.350 . S
N1877 S1875 1.610 . S
N1877 C1878 1.351 . S
C1878 C1872 1.428 . S
C1878 N1877 1.351 . S
C1878 C1879 1.434 . S
C1879 C1870 1.429 . S
C1879 N1876 1.350 . S
C1879 C1878 1.434 . S
C1880 C1881 1.369 . S
C1880 C1882 1.419 . S
C1880 H1884 0.930 . S
C1881 C1880 1.369 . S
C1881 C1890 1.429 . S
C1882 C1880 1.419 . S
C1882 C1883 1.363 . S
C1882 H1885 0.929 . S
C1883 C1882 1.363 . S
C1883 C1889 1.428 . S
H1884 C1880 0.930 . S
H1885 C1882 0.929 . S
S1886 N1887 1.613 . S
S1886 N1888 1.610 . S
N1887 S1886 1.613 . S
N1887 C1890 1.350 . S
N1888 S1886 1.610 . S
N1888 C1889 1.351 . S
C1889 C1883 1.428 . S
C1889 N1888 1.351 . S
C1889 C1890 1.434 . S
C1890 C1881 1.429 . S
C1890 N1887 1.350 . S
C1890 C1889 1.434 . S
C1891 C1892 1.369 . S
C1891 C1893 1.419 . S
C1891 H1895 0.930 . S
C1892 C1891 1.369 . S
C1892 C1901 1.429 . S
C1893 C1891 1.419 . S
C1893 C1894 1.363 . S
C1893 H1896 0.929 . S
C1894 C1893 1.363 . S
C1894 C1900 1.428 . S
H1895 C1891 0.930 . S
H1896 C1893 0.929 . S
S1897 N1898 1.613 . S
S1897 N1899 1.610 . S
N1898 S1897 1.613 . S
N1898 C1901 1.350 . S
N1899 S1897 1.610 . S
N1899 C1900 1.351 . S
C1900 C1894 1.428 . S
C1900 N1899 1.351 . S
C1900 C1901 1.434 . S
C1901 C1892 1.429 . S
C1901 N1898 1.350 . S
C1901 C1900 1.434 . S
C1902 C1903 1.369 . S
C1902 C1904 1.419 . S
C1902 H1906 0.930 . S
C1903 C1902 1.369 . S
C1903 C1912 1.429 . S
C1904 C1902 1.419 . S
C1904 C1905 1.363 . S
C1904 H1907 0.929 . S
C1905 C1904 1.363 . S
C1905 C1911 1.428 . S
H1906 C1902 0.930 . S
H1907 C1904 0.929 . S
S1908 N1909 1.613 . S
S1908 N1910 1.610 . S
N1909 S1908 1.613 . S
N1909 C1912 1.350 . S
N1910 S1908 1.610 . S
N1910 C1911 1.351 . S
C1911 C1905 1.428 . S
C1911 N1910 1.351 . S
C1911 C1912 1.434 . S
C1912 C1903 1.429 . S
C1912 N1909 1.350 . S
C1912 C1911 1.434 . S
C1913 C1914 1.369 . S
C1913 C1915 1.419 . S
C1913 H1917 0.930 . S
C1914 C1913 1.369 . S
C1914 C1923 1.429 . S
C1915 C1913 1.419 . S
C1915 C1916 1.363 . S
C1915 H1918 0.929 . S
C1916 C1915 1.363 . S
C1916 C1922 1.428 . S
H1917 C1913 0.930 . S
H1918 C1915 0.929 . S
S1919 N1920 1.613 . S
S1919 N1921 1.610 . S
N1920 S1919 1.613 . S
N1920 C1923 1.350 . S
N1921 S1919 1.610 . S
N1921 C1922 1.351 . S
C1922 C1916 1.428 . S
C1922 N1921 1.351 . S
C1922 C1923 1.434 . S
C1923 C1914 1.429 . S
C1923 N1920 1.350 . S
C1923 C1922 1.434 . S
C1924 C1925 1.369 . S
C1924 C1926 1.419 . S
C1924 H1928 0.930 . S
C1925 C1924 1.369 . S
C1925 C1934 1.429 . S
C1926 C1924 1.419 . S
C1926 C1927 1.363 . S
C1926 H1929 0.929 . S
C1927 C1926 1.363 . S
C1927 C1933 1.428 . S
H1928 C1924 0.930 . S
H1929 C1926 0.929 . S
S1930 N1931 1.613 . S
S1930 N1932 1.610 . S
N1931 S1930 1.613 . S
N1931 C1934 1.350 . S
N1932 S1930 1.610 . S
N1932 C1933 1.351 . S
C1933 C1927 1.428 . S
C1933 N1932 1.351 . S
C1933 C1934 1.434 . S
C1934 C1925 1.429 . S
C1934 N1931 1.350 . S
C1934 C1933 1.434 . S
C1935 C1936 1.369 . S
C1935 C1937 1.419 . S
C1935 H1939 0.930 . S
C1936 C1935 1.369 . S
C1936 C1945 1.429 . S
C1937 C1935 1.419 . S
C1937 C1938 1.363 . S
C1937 H1940 0.929 . S
C1938 C1937 1.363 . S
C1938 C1944 1.428 . S
H1939 C1935 0.930 . S
H1940 C1937 0.929 . S
S1941 N1942 1.613 . S
S1941 N1943 1.610 . S
N1942 S1941 1.613 . S
N1942 C1945 1.350 . S
N1943 S1941 1.610 . S
N1943 C1944 1.351 . S
C1944 C1938 1.428 . S
C1944 N1943 1.351 . S
C1944 C1945 1.434 . S
C1945 C1936 1.429 . S
C1945 N1942 1.350 . S
C1945 C1944 1.434 . S
C1946 C1947 1.369 . S
C1946 C1948 1.419 . S
C1946 H1950 0.930 . S
C1947 C1946 1.369 . S
C1947 C1956 1.429 . S
C1948 C1946 1.419 . S
C1948 C1949 1.363 . S
C1948 H1951 0.929 . S
C1949 C1948 1.363 . S
C1949 C1955 1.428 . S
H1950 C1946 0.930 . S
H1951 C1948 0.929 . S
S1952 N1953 1.613 . S
S1952 N1954 1.610 . S
N1953 S1952 1.613 . S
N1953 C1956 1.350 . S
N1954 S1952 1.610 . S
N1954 C1955 1.351 . S
C1955 C1949 1.428 . S
C1955 N1954 1.351 . S
C1955 C1956 1.434 . S
C1956 C1947 1.429 . S
C1956 N1953 1.350 . S
C1956 C1955 1.434 . S
C1957 C1958 1.369 . S
C1957 C1959 1.419 . S
C1957 H1961 0.930 . S
C1958 C1957 1.369 . S
C1958 C1967 1.429 . S
C1959 C1957 1.419 . S
C1959 C1960 1.363 . S
C1959 H1962 0.929 . S
C1960 C1959 1.363 . S
C1960 C1966 1.428 . S
H1961 C1957 0.930 . S
H1962 C1959 0.929 . S
S1963 N1964 1.613 . S
S1963 N1965 1.610 . S
N1964 S1963 1.613 . S
N1964 C1967 1.350 . S
N1965 S1963 1.610 . S
N1965 C1966 1.351 . S
C1966 C1960 1.428 . S
C1966 N1965 1.351 . S
C1966 C1967 1.434 . S
C1967 C1958 1.429 . S
C1967 N1964 1.350 . S
C1967 C1966 1.434 . S
C1089 C145 1.409 1_545 S
C1091 C9 1.416 1_565 S
C1100 C43 1.411 . S
C1102 C179 1.415 . S
C1111 C77 1.419 1_545 S
C1113 C213 1.407 1_565 S
C1122 C111 1.416 . S
C1124 C247 1.410 . S
C1133 C281 1.415 1_545 S
C1135 C417 1.409 1_565 S
C1144 C451 1.415 . S
C1146 C315 1.409 . S
C1155 C349 1.407 1_565 S
C1157 C485 1.418 1_545 S
C1166 C519 1.405 . S
C1168 C383 1.418 . S
C1177 C553 1.405 . S
C1179 C689 1.418 . S
C1188 C587 1.418 . S
C1190 C723 1.409 . S
C1199 C757 1.419 . S
C1201 C621 1.407 . S
C1210 C791 1.411 . S
C1212 C655 1.413 . S
C1221 C825 1.419 . S
C1223 C961 1.407 . S
C1232 C859 1.412 . S
C1234 C995 1.415 . S
C1243 C1029 1.406 . S
C1245 C893 1.417 . S
C1254 C927 1.413 . S
C1256 C1063 1.411 . S
C1265 C33 0.950 . S
C1267 C645 0.959 . S
C1276 C67 0.945 . S
C1278 C679 0.961 . S
C1287 C101 0.954 . S
C1289 C577 0.953 . S
C1298 C135 0.962 . S
C1300 C611 0.950 . S
C1309 C169 0.960 . S
C1311 C781 0.952 . S
C1320 C815 0.962 . S
C1322 C203 0.949 . S
C1331 C237 0.947 . S
C1333 C713 0.961 . S
C1342 C271 0.951 . S
C1344 C747 0.955 . S
C1353 C917 0.948 . S
C1355 C305 0.959 . S
C1364 C339 0.960 . S
C1366 C951 0.949 . S
C1375 C849 0.951 . S
C1377 C373 0.957 . S
C1386 C407 0.950 . S
C1388 C883 0.957 . S
C1397 C441 0.955 . S
C1399 C1053 0.955 . S
C1408 C1087 0.963 . S
C1410 C475 0.947 . S
C1419 C509 0.952 . S
C1421 C985 0.957 . S
C1430 C543 0.946 . S
C1432 C1019 0.960 . S
C1441 C20 1.480 . S
C1443 C478 1.472 . S
C1452 C1056 1.472 . S
C1454 C54 1.482 . S
C1463 C410 1.471 1_465 S
C1465 C88 1.482 . S
C1474 C988 1.469 . S
C1476 C122 1.482 . S
C1485 C156 1.481 . S
C1487 C342 1.472 1_565 S
C1496 C190 1.482 . S
C1498 C920 1.471 . S
C1507 C224 1.481 . S
C1509 C274 1.473 1_455 S
C1518 C852 1.471 . S
C1520 C258 1.483 . S
C1529 C206 1.475 . S
C1531 C292 1.480 . S
C1540 C784 1.473 . S
C1542 C326 1.481 . S
C1551 C360 1.481 . S
C1553 C138 1.471 1_645 S
C1562 C394 1.480 . S
C1564 C716 1.470 . S
C1573 C428 1.480 . S
C1575 C70 1.474 . S
C1584 C648 1.469 . S
C1586 C462 1.480 . S
C1595 C496 1.482 . S
C1597 C2 1.471 1_665 S
C1606 C580 1.470 . S
C1608 C530 1.482 . S
C1617 C1022 1.474 1_655 S
C1619 C564 1.481 . S
C1628 C598 1.481 . S
C1630 C512 1.473 . S
C1639 C954 1.474 . S
C1641 C632 1.481 . S
C1650 C444 1.472 . S
C1652 C666 1.483 . S
C1661 C700 1.480 . S
C1663 C886 1.472 1_655 S
C1672 C376 1.472 . S
C1674 C734 1.483 . S
C1683 C818 1.471 . S
C1685 C768 1.480 . S
C1694 C802 1.482 . S
C1696 C308 1.471 . S
C1705 C836 1.480 . S
C1707 C750 1.471 1_455 S
C1716 C240 1.471 . S
C1718 C870 1.480 . S
C1727 C904 1.480 . S
C1729 C682 1.470 . S
C1738 C172 1.474 . S
C1740 C938 1.481 . S
C1749 C972 1.480 . S
C1751 C614 1.470 1_455 S
C1760 C1006 1.482 . S
C1762 C104 1.470 . S
C1771 C546 1.472 . S
C1773 C1040 1.480 . S
C1782 C36 1.473 . S
C1784 C1074 1.481 . S
C1793 C243 1.636 . S
C1795 C5 1.640 . S
C1804 C141 1.641 . S
C1806 C39 1.637 . S
C1815 C175 1.639 . S
C1817 C73 1.640 . S
C1826 C107 1.639 . S
C1828 C209 1.637 . S
C1837 C515 1.639 . S
C1839 C277 1.640 . S
C1848 C311 1.639 . S
C1850 C413 1.637 . S
C1859 C447 1.641 . S
C1861 C345 1.637 . S
C1870 C481 1.641 . S
C1872 C379 1.638 . S
C1881 C787 1.638 . S
C1883 C549 1.638 . S
C1892 C583 1.636 . S
C1894 C685 1.640 . S
C1903 C719 1.637 . S
C1905 C617 1.640 . S
C1914 C753 1.639 . S
C1916 C651 1.637 . S
C1925 C821 1.638 . S
C1927 C1059 1.641 . S
C1936 C957 1.641 . S
C1938 C855 1.637 . S
C1947 C889 1.636 . S
C1949 C991 1.640 . S
C1958 C1025 1.637 . S
C1960 C923 1.638 . S
