# Generated by pormake.
# Topology lcs, (4)-cn, num edge types: 1
# Building blocks:
#     Node 0, Type 0, BuildingBlock: KUFVIS_clean_sbu_0, # of connection points: 4
#     Node 1, Type 0, BuildingBlock: KUFVIS_clean_sbu_0, # of connection points: 4
#     Node 2, Type 0, BuildingBlock: KUFVIS_clean_sbu_0, # of connection points: 4
#     Node 3, Type 0, BuildingBlock: KUFVIS_clean_sbu_0, # of connection points: 4
#     Node 4, Type 0, BuildingBlock: KUFVIS_clean_sbu_0, # of connection points: 4
#     Node 5, Type 0, BuildingBlock: KUFVIS_clean_sbu_0, # of connection points: 4
#     Node 6, Type 0, BuildingBlock: KUFVIS_clean_sbu_0, # of connection points: 4
#     Node 7, Type 0, BuildingBlock: KUFVIS_clean_sbu_0, # of connection points: 4
#     Node 8, Type 0, BuildingBlock: KUFVIS_clean_sbu_0, # of connection points: 4
#     Node 9, Type 0, BuildingBlock: KUFVIS_clean_sbu_0, # of connection points: 4
#     Node 10, Type 0, BuildingBlock: KUFVIS_clean_sbu_0, # of connection points: 4
#     Node 11, Type 0, BuildingBlock: KUFVIS_clean_sbu_0, # of connection points: 4
#     Node 12, Type 0, BuildingBlock: KUFVIS_clean_sbu_0, # of connection points: 4
#     Node 13, Type 0, BuildingBlock: KUFVIS_clean_sbu_0, # of connection points: 4
#     Node 14, Type 0, BuildingBlock: KUFVIS_clean_sbu_0, # of connection points: 4
#     Node 15, Type 0, BuildingBlock: KUFVIS_clean_sbu_0, # of connection points: 4
#     Node 16, Type 0, BuildingBlock: KUFVIS_clean_sbu_0, # of connection points: 4
#     Node 17, Type 0, BuildingBlock: KUFVIS_clean_sbu_0, # of connection points: 4
#     Node 18, Type 0, BuildingBlock: KUFVIS_clean_sbu_0, # of connection points: 4
#     Node 19, Type 0, BuildingBlock: KUFVIS_clean_sbu_0, # of connection points: 4
#     Node 20, Type 0, BuildingBlock: KUFVIS_clean_sbu_0, # of connection points: 4
#     Node 21, Type 0, BuildingBlock: KUFVIS_clean_sbu_0, # of connection points: 4
#     Node 22, Type 0, BuildingBlock: KUFVIS_clean_sbu_0, # of connection points: 4
#     Node 23, Type 0, BuildingBlock: KUFVIS_clean_sbu_0, # of connection points: 4
#     Edge 24, Type (0, 0), BuildingBlock: OJICUG_clean_linker_0, # of connection points: 2
#     Edge 25, Type (0, 0), BuildingBlock: OJICUG_clean_linker_0, # of connection points: 2
#     Edge 26, Type (0, 0), BuildingBlock: OJICUG_clean_linker_0, # of connection points: 2
#     Edge 27, Type (0, 0), BuildingBlock: OJICUG_clean_linker_0, # of connection points: 2
#     Edge 28, Type (0, 0), BuildingBlock: OJICUG_clean_linker_0, # of connection points: 2
#     Edge 29, Type (0, 0), BuildingBlock: OJICUG_clean_linker_0, # of connection points: 2
#     Edge 30, Type (0, 0), BuildingBlock: OJICUG_clean_linker_0, # of connection points: 2
#     Edge 31, Type (0, 0), BuildingBlock: OJICUG_clean_linker_0, # of connection points: 2
#     Edge 32, Type (0, 0), BuildingBlock: OJICUG_clean_linker_0, # of connection points: 2
#     Edge 33, Type (0, 0), BuildingBlock: OJICUG_clean_linker_0, # of connection points: 2
#     Edge 34, Type (0, 0), BuildingBlock: OJICUG_clean_linker_0, # of connection points: 2
#     Edge 35, Type (0, 0), BuildingBlock: OJICUG_clean_linker_0, # of connection points: 2
#     Edge 36, Type (0, 0), BuildingBlock: OJICUG_clean_linker_0, # of connection points: 2
#     Edge 37, Type (0, 0), BuildingBlock: OJICUG_clean_linker_0, # of connection points: 2
#     Edge 38, Type (0, 0), BuildingBlock: OJICUG_clean_linker_0, # of connection points: 2
#     Edge 39, Type (0, 0), BuildingBlock: OJICUG_clean_linker_0, # of connection points: 2
#     Edge 40, Type (0, 0), BuildingBlock: OJICUG_clean_linker_0, # of connection points: 2
#     Edge 41, Type (0, 0), BuildingBlock: OJICUG_clean_linker_0, # of connection points: 2
#     Edge 42, Type (0, 0), BuildingBlock: OJICUG_clean_linker_0, # of connection points: 2
#     Edge 43, Type (0, 0), BuildingBlock: OJICUG_clean_linker_0, # of connection points: 2
#     Edge 44, Type (0, 0), BuildingBlock: OJICUG_clean_linker_0, # of connection points: 2
#     Edge 45, Type (0, 0), BuildingBlock: OJICUG_clean_linker_0, # of connection points: 2
#     Edge 46, Type (0, 0), BuildingBlock: OJICUG_clean_linker_0, # of connection points: 2
#     Edge 47, Type (0, 0), BuildingBlock: OJICUG_clean_linker_0, # of connection points: 2
#     Edge 48, Type (0, 0), BuildingBlock: OJICUG_clean_linker_0, # of connection points: 2
#     Edge 49, Type (0, 0), BuildingBlock: OJICUG_clean_linker_0, # of connection points: 2
#     Edge 50, Type (0, 0), BuildingBlock: OJICUG_clean_linker_0, # of connection points: 2
#     Edge 51, Type (0, 0), BuildingBlock: OJICUG_clean_linker_0, # of connection points: 2
#     Edge 52, Type (0, 0), BuildingBlock: OJICUG_clean_linker_0, # of connection points: 2
#     Edge 53, Type (0, 0), BuildingBlock: OJICUG_clean_linker_0, # of connection points: 2
#     Edge 54, Type (0, 0), BuildingBlock: OJICUG_clean_linker_0, # of connection points: 2
#     Edge 55, Type (0, 0), BuildingBlock: OJICUG_clean_linker_0, # of connection points: 2
#     Edge 56, Type (0, 0), BuildingBlock: OJICUG_clean_linker_0, # of connection points: 2
#     Edge 57, Type (0, 0), BuildingBlock: OJICUG_clean_linker_0, # of connection points: 2
#     Edge 58, Type (0, 0), BuildingBlock: OJICUG_clean_linker_0, # of connection points: 2
#     Edge 59, Type (0, 0), BuildingBlock: OJICUG_clean_linker_0, # of connection points: 2
#     Edge 60, Type (0, 0), BuildingBlock: OJICUG_clean_linker_0, # of connection points: 2
#     Edge 61, Type (0, 0), BuildingBlock: OJICUG_clean_linker_0, # of connection points: 2
#     Edge 62, Type (0, 0), BuildingBlock: OJICUG_clean_linker_0, # of connection points: 2
#     Edge 63, Type (0, 0), BuildingBlock: OJICUG_clean_linker_0, # of connection points: 2
#     Edge 64, Type (0, 0), BuildingBlock: OJICUG_clean_linker_0, # of connection points: 2
#     Edge 65, Type (0, 0), BuildingBlock: OJICUG_clean_linker_0, # of connection points: 2
#     Edge 66, Type (0, 0), BuildingBlock: OJICUG_clean_linker_0, # of connection points: 2
#     Edge 67, Type (0, 0), BuildingBlock: OJICUG_clean_linker_0, # of connection points: 2
#     Edge 68, Type (0, 0), BuildingBlock: OJICUG_clean_linker_0, # of connection points: 2
#     Edge 69, Type (0, 0), BuildingBlock: OJICUG_clean_linker_0, # of connection points: 2
#     Edge 70, Type (0, 0), BuildingBlock: OJICUG_clean_linker_0, # of connection points: 2
#     Edge 71, Type (0, 0), BuildingBlock: OJICUG_clean_linker_0, # of connection points: 2
# Relax obj value: 0.012
# Max RMSD: 0.065
# Mean RMSD: 0.054
data_MOF--net-lcs--node1-KUFVIS_clean_sbu_0--edge1-OJICUG_clean_linker_0
_symmetry_space_group_name_H-M    P1
_symmetry_Int_Tables_number       1
_symmetry_cell_setting            triclinic
loop_
_symmetry_equiv_pos_as_xyz
'x, y, z'
_cell_length_a     35.059206
_cell_length_b     35.720911
_cell_length_c     35.738685
_cell_angle_alpha  89.631328
_cell_angle_beta   91.367667
_cell_angle_gamma 91.381244
loop_
_atom_site_label
_atom_site_type_symbol
_atom_site_fract_x
_atom_site_fract_y
_atom_site_fract_z
_atom_type_partial_charge
Mn0 Mn 0.0162 0.26142 0.38268 0.0
Mn1 Mn 0.05232 0.3032 0.46047 0.0
C2 C 0.0739 0.242 0.40752 0.0
C3 C 0.97749 0.21512 0.35521 0.0
C4 C 0.05735 0.33865 0.38311 0.0
O5 O 0.97053 0.28791 0.40239 0.0
O6 O 0.99673 0.31401 0.45426 0.0
C7 C 1.00913 0.25782 0.51553 0.0
N8 N 0.0431 0.27076 0.50225 0.0
C9 C 0.07799 0.23785 0.55048 0.0
C10 C 0.04336 0.22441 0.56484 0.0
C11 C 1.00879 0.23439 0.54723 0.0
C12 C 0.07652 0.26121 0.51889 0.0
H13 H 0.98247 0.26527 0.50202 0.0
C14 C 0.96823 0.30737 0.43191 0.0
O15 O 0.98697 0.24525 0.33675 0.0
O16 O 0.98965 0.21233 0.38958 0.0
N17 N 0.1052 0.29513 0.47097 0.0
C18 C 0.13607 0.30931 0.45281 0.0
C19 C 0.17281 0.30157 0.46661 0.0
C20 C 0.17763 0.27943 0.49888 0.0
C21 C 0.14542 0.26548 0.51737 0.0
C22 C 0.10941 0.27449 0.50258 0.0
H23 H 0.13268 0.32611 0.42783 0.0
O24 O 0.0643 0.2356 0.37288 0.0
O25 O 0.04898 0.25954 0.42717 0.0
O26 O 0.03974 0.31207 0.36551 0.0
O27 O 0.06387 0.33804 0.41851 0.0
C28 C 0.14762 0.24243 0.54945 0.0
C29 C 0.11392 0.22856 0.56595 0.0
H30 H 0.04299 0.20622 0.58921 0.0
H31 H 0.98195 0.22398 0.55803 0.0
H32 H 0.19727 0.31269 0.45233 0.0
H33 H 0.20614 0.2732 0.50909 0.0
H34 H 0.17507 0.23484 0.56139 0.0
H35 H 0.11596 0.21053 0.59037 0.0
Mn36 Mn 0.02904 0.77446 0.64433 0.0
Mn37 Mn 0.98341 0.8125 0.71635 0.0
C38 C 0.04657 0.83386 0.66553 0.0
C39 C 0.07768 0.73881 0.61991 0.0
C40 C 0.94942 0.80957 0.63769 0.0
O41 O 1.00387 0.72876 0.66894 0.0
O42 O 0.97257 0.75715 0.71492 0.0
C43 C 0.02735 0.7765 0.77802 0.0
N44 N 0.01527 0.80811 0.76031 0.0
C45 C 0.04922 0.84731 0.80509 0.0
C46 C 0.06179 0.81518 0.82393 0.0
C47 C 0.05083 0.77963 0.8103 0.0
C48 C 0.02565 0.84247 0.77321 0.0
H49 H 0.0192 0.74909 0.76759 0.0
C50 C 0.98189 0.72785 0.69696 0.0
O51 O 0.04584 0.74378 0.60148 0.0
O52 O 0.0809 0.75362 0.65291 0.0
N53 N 0.99181 0.86543 0.72151 0.0
C54 C 0.97822 0.89364 0.69949 0.0
C55 C 0.98716 0.93099 0.70894 0.0
C56 C 0.00987 0.93895 0.74095 0.0
C57 C 0.02322 0.90947 0.76339 0.0
C58 C 0.01305 0.87281 0.75279 0.0
H59 H 0.96097 0.8877 0.67471 0.0
O60 O 0.05355 0.82406 0.6315 0.0
O61 O 0.02897 0.80878 0.68578 0.0
O62 O 0.9769 0.79185 0.62374 0.0
O63 O 0.94906 0.8193 0.67204 0.0
C64 C 0.04664 0.91501 0.79557 0.0
C65 C 0.05959 0.88395 0.81642 0.0
H66 H 0.08006 0.81746 0.84872 0.0
H67 H 0.06055 0.75468 0.82459 0.0
H68 H 0.97679 0.95358 0.69146 0.0
H69 H 0.01706 0.96777 0.74792 0.0
H70 H 0.05513 0.94302 0.80435 0.0
H71 H 0.07772 0.88853 0.841 0.0
Mn72 Mn 0.5162 0.76236 0.8832 0.0
Mn73 Mn 0.55097 0.8062 0.96034 0.0
C74 C 0.57442 0.74479 0.90852 0.0
C75 C 0.47865 0.71457 0.85675 0.0
C76 C 0.55545 0.84056 0.88241 0.0
O77 O 0.46968 0.78808 0.90233 0.0
O78 O 0.49513 0.81551 0.95385 0.0
C79 C 0.50894 0.76074 0.01623 0.0
N80 N 0.54258 0.77424 1.00266 0.0
C81 C 0.57839 0.74291 0.05135 0.0
C82 C 0.54411 0.72892 0.066 0.0
C83 C 0.50924 0.73782 0.04831 0.0
C84 C 0.57627 0.76576 0.01942 0.0
H85 H 0.48208 0.76736 1.00265 0.0
C86 C 0.46684 0.80792 0.93154 0.0
O87 O 0.48739 0.74449 0.83762 0.0
O88 O 0.49096 0.71278 0.89112 0.0
N89 N 0.604 0.7996 0.97095 0.0
C90 C 0.63443 0.81379 0.9522 0.0
C91 C 0.67138 0.80677 0.96572 0.0
C92 C 0.6769 0.78549 0.99848 0.0
C93 C 0.64509 0.77144 0.01755 0.0
C94 C 0.6088 0.77955 1.00285 0.0
H95 H 0.63056 0.82976 0.92676 0.0
O96 O 0.56508 0.73753 0.874 0.0
O97 O 0.54894 0.76203 0.92775 0.0
O98 O 0.53857 0.81332 0.86511 0.0
O99 O 0.56168 0.84062 0.91786 0.0
C100 C 0.64793 0.74894 0.04997 0.0
C101 C 0.61459 0.73464 0.06684 0.0
H102 H 0.54423 0.7111 0.09064 0.0
H103 H 0.48267 0.72698 0.05934 0.0
H104 H 0.69536 0.81755 0.95057 0.0
H105 H 0.70561 0.7798 1.00847 0.0
H106 H 0.67562 0.74205 0.06186 0.0
H107 H 0.61714 0.71703 0.09151 0.0
Mn108 Mn 0.52968 0.27268 0.14372 0.0
Mn109 Mn 0.48358 0.31159 0.215 0.0
C110 C 0.54757 0.33216 0.16476 0.0
C111 C 0.57827 0.23626 0.12013 0.0
C112 C 0.45031 0.30813 0.13598 0.0
O113 O 0.50373 0.22736 0.16836 0.0
O114 O 0.47247 0.25628 0.21404 0.0
C115 C 0.52665 0.27606 0.27754 0.0
N116 N 0.51494 0.30753 0.25934 0.0
C117 C 0.54857 0.34708 0.30405 0.0
C118 C 0.56075 0.31508 0.32339 0.0
C119 C 0.54976 0.27943 0.31005 0.0
C120 C 0.52531 0.34199 0.27198 0.0
H121 H 0.51849 0.24857 0.26732 0.0
C122 C 0.48157 0.2268 0.19626 0.0
O123 O 0.54671 0.24148 0.10131 0.0
O124 O 0.58126 0.25134 0.15303 0.0
N125 N 0.49216 0.36453 0.21967 0.0
C126 C 0.47892 0.39256 0.1972 0.0
C127 C 0.48792 0.42998 0.20633 0.0
C128 C 0.51032 0.43819 0.23849 0.0
C129 C 0.52329 0.4089 0.2614 0.0
C130 C 0.51307 0.37217 0.2511 0.0
H131 H 0.46192 0.38642 0.17231 0.0
O132 O 0.55487 0.32202 0.13091 0.0
O133 O 0.52947 0.30735 0.18494 0.0
O134 O 0.47791 0.29036 0.12232 0.0
O135 O 0.44971 0.318 0.17029 0.0
C136 C 0.54642 0.41468 0.29372 0.0
C137 C 0.55904 0.38379 0.31504 0.0
H138 H 0.57875 0.31755 0.34836 0.0
H139 H 0.55919 0.25459 0.32473 0.0
H140 H 0.47784 0.45243 0.18849 0.0
H141 H 0.51755 0.46706 0.24521 0.0
H142 H 0.55498 0.44276 0.30225 0.0
H143 H 0.57703 0.38858 0.33969 0.0
Mn144 Mn 0.01427 0.76867 0.1407 0.0
Mn145 Mn 0.981 0.84007 0.08622 0.0
C146 C 0.95314 0.75867 0.11279 0.0
C147 C 0.04639 0.7142 0.16158 0.0
C148 C 0.98655 0.84278 0.17027 0.0
O149 O 0.06333 0.79704 0.12444 0.0
O150 O 0.03751 0.84202 0.08782 0.0
C151 C 0.01111 0.84442 1.00868 0.0
N152 N 0.98093 0.8379 0.03156 0.0
C153 C 0.94187 0.82232 0.97131 0.0
C154 C 0.97387 0.82991 0.95066 0.0
C155 C 1.00732 0.84262 0.96915 0.0
C156 C 0.94542 0.83494 0.01694 0.0
H157 H 0.03884 0.85166 0.02053 0.0
C158 C 0.06635 0.8252 0.10209 0.0
O159 O 0.04153 0.74297 0.1821 0.0
O160 O 0.03498 0.71741 0.12674 0.0
N161 N 0.92698 0.83827 0.08458 0.0
C162 C 0.90267 0.84056 0.11373 0.0
C163 C 0.8648 0.82685 0.11094 0.0
C164 C 0.85177 0.80557 0.08029 0.0
C165 C 0.87627 0.799 0.05113 0.0
C166 C 0.9153 0.82556 0.05136 0.0
H167 H 0.91197 0.85329 0.1396 0.0
O168 O 0.96317 0.74492 0.14513 0.0
O169 O 0.97901 0.78196 0.09704 0.0
O170 O 0.9989 0.81042 0.176 0.0
O171 O 0.97994 0.85538 0.13803 0.0
C172 C 0.86194 0.77519 0.01317 0.0
C173 C 0.90566 0.79259 0.95566 0.0
H174 H 0.97383 0.82411 0.92097 0.0
H175 H 0.03163 0.84947 0.95225 0.0
H176 H 0.84603 0.8307 0.13414 0.0
H177 H 0.82306 0.79372 0.07973 0.0
H178 H 0.83569 0.75835 0.0158 0.0
H179 H 0.90457 0.78392 0.92635 0.0
Mn180 Mn 0.52852 0.76454 0.387 0.0
Mn181 Mn 0.50904 0.81846 0.461 0.0
C182 C 0.57483 0.80529 0.41148 0.0
C183 C 0.55031 0.70919 0.36162 0.0
C184 C 0.48283 0.83692 0.38186 0.0
O185 O 0.4813 0.73842 0.40782 0.0
O186 O 0.46954 0.77703 0.45551 0.0
C187 C 0.52351 0.76134 0.5198 0.0
N188 N 0.53104 0.79584 0.50488 0.0
C189 C 0.57814 0.80956 0.55331 0.0
C190 C 0.57065 0.77429 0.56932 0.0
C191 C 0.54326 0.75007 0.55246 0.0
C192 C 0.55742 0.81933 0.52085 0.0
H193 H 0.50269 0.74249 0.50684 0.0
C194 C 0.46142 0.74803 0.43548 0.0
O195 O 0.52756 0.73079 0.34267 0.0
O196 O 0.55935 0.71918 0.39558 0.0
N197 N 0.54465 0.85904 0.47049 0.0
C198 C 0.54977 0.89142 0.45072 0.0
C199 C 0.57667 0.91845 0.4635 0.0
C200 C 0.59791 0.91202 0.49661 0.0
C201 C 0.59184 0.8787 0.51676 0.0
C202 C 0.56432 0.85297 0.50286 0.0
H203 H 0.53381 0.89638 0.42519 0.0
O204 O 0.57646 0.79396 0.37715 0.0
O205 O 0.54598 0.79257 0.43048 0.0
O206 O 0.49576 0.80759 0.36691 0.0
O207 O 0.48668 0.84439 0.4167 0.0
C208 C 0.61261 0.86969 0.54966 0.0
C209 C 0.60584 0.83511 0.56789 0.0
H210 H 0.58599 0.7654 0.59438 0.0
H211 H 0.53748 0.72272 0.56453 0.0
H212 H 0.58122 0.94406 0.44772 0.0
H213 H 0.619 0.9327 0.50614 0.0
H214 H 0.63424 0.88895 0.56081 0.0
H215 H 0.62237 0.8283 0.59291 0.0
Mn216 Mn 0.51175 0.26942 0.63721 0.0
Mn217 Mn 0.48049 0.33549 0.57559 0.0
C218 C 0.45183 0.25645 0.60723 0.0
C219 C 0.54428 0.21631 0.66094 0.0
C220 C 0.48339 0.34594 0.65937 0.0
O221 O 0.56116 0.29779 0.62128 0.0
O222 O 0.53682 0.33739 0.57784 0.0
C223 C 0.51151 0.33287 0.4987 0.0
N224 N 0.48075 0.32942 0.52137 0.0
C225 C 0.44174 0.31233 0.46145 0.0
C226 C 0.47436 0.31694 0.44102 0.0
C227 C 0.50828 0.3284 0.45937 0.0
C228 C 0.44528 0.32707 0.50649 0.0
H229 H 0.53935 0.33946 0.51065 0.0
C230 C 0.56503 0.32308 0.5958 0.0
O231 O 0.53789 0.24543 0.68066 0.0
O232 O 0.53396 0.21842 0.62574 0.0
N233 N 0.4264 0.33367 0.57391 0.0
C234 C 0.40216 0.33646 0.60316 0.0
C235 C 0.36396 0.3238 0.60045 0.0
C236 C 0.35057 0.30213 0.5703 0.0
C237 C 0.37516 0.29404 0.54168 0.0
C238 C 0.41468 0.31994 0.54108 0.0
H239 H 0.4117 0.34813 0.62944 0.0
O240 O 0.46074 0.24485 0.6407 0.0
O241 O 0.47823 0.27882 0.59114 0.0
O242 O 0.49387 0.31368 0.66923 0.0
O243 O 0.47954 0.35465 0.62554 0.0
C244 C 0.36068 0.2688 0.5048 0.0
C245 C 0.40505 0.28267 0.44695 0.0
H246 H 0.47446 0.30911 0.41182 0.0
H247 H 0.5333 0.33182 0.44259 0.0
H248 H 0.34532 0.32831 0.62362 0.0
H249 H 0.32166 0.29079 0.56993 0.0
H250 H 0.33423 0.25243 0.50807 0.0
H251 H 0.40409 0.27251 0.41813 0.0
Mn252 Mn 0.02638 0.26534 0.88751 0.0
Mn253 Mn 1.00591 0.31723 0.96256 0.0
C254 C 0.07272 0.3052 0.91326 0.0
C255 C 0.04744 0.20966 0.86224 0.0
C256 C 0.97889 0.33606 0.88343 0.0
O257 O 0.97784 0.23994 0.90718 0.0
O258 O 0.96925 0.27347 0.9594 0.0
C259 C 0.02663 0.26305 0.02224 0.0
N260 N 0.03123 0.29742 1.00606 0.0
C261 C 0.07943 0.3155 0.05199 0.0
C262 C 0.07497 0.28038 0.06932 0.0
C263 C 0.0485 0.25404 0.05434 0.0
C264 C 0.05665 0.32298 0.02022 0.0
H265 H 1.00653 0.24261 0.01063 0.0
C266 C 0.95998 0.24647 0.93716 0.0
O267 O 0.02578 0.23198 0.84289 0.0
O268 O 0.05572 0.21912 0.89651 0.0
N269 N 0.03919 0.3601 0.96918 0.0
C270 C 0.04164 0.39181 0.94788 0.0
C271 C 0.06758 0.42062 0.95847 0.0
C272 C 0.09062 0.4166 0.99086 0.0
C273 C 0.08735 0.38387 0.01253 0.0
C274 C 0.06068 0.35628 1.00083 0.0
H275 H 0.02414 0.39502 0.92286 0.0
O276 O 0.07526 0.29372 0.87907 0.0
O277 O 0.04323 0.29264 0.93143 0.0
O278 O 0.99593 0.30976 0.86715 0.0
O279 O 0.97943 0.34041 0.91892 0.0
C280 C 0.11009 0.37721 0.0448 0.0
C281 C 0.10618 0.34303 0.06449 0.0
H282 H 0.09199 0.27321 0.09391 0.0
H283 H 0.04509 0.22679 0.06741 0.0
H284 H 0.06998 0.44577 0.94156 0.0
H285 H 0.11094 0.43867 0.99867 0.0
H286 H 0.1311 0.39796 0.05435 0.0
H287 H 0.12425 0.33801 0.08894 0.0
Mn288 Mn 0.39589 0.02197 0.25586 0.0
Mn289 Mn 0.32036 0.96132 0.26037 0.0
C290 C 0.37494 0.98971 0.20305 0.0
C291 C 0.42001 0.08313 0.24577 0.0
C292 C 0.3996 0.94358 0.29106 0.0
O293 O 0.37166 0.03503 0.30531 0.0
O294 O 0.31902 0.99723 0.30266 0.0
C295 C 0.25939 0.01537 0.24395 0.0
N296 N 0.27716 0.98306 0.23577 0.0
C297 C 0.23259 0.96994 0.185 0.0
C298 C 0.21353 1.00287 0.19317 0.0
C299 C 0.22712 0.02578 0.22265 0.0
C300 C 0.26472 0.96116 0.20706 0.0
H301 H 0.26986 0.0331 0.26647 0.0
C302 C 0.34023 0.02247 0.31853 0.0
O303 O 0.43975 0.0584 0.26409 0.0
O304 O 0.38591 0.07286 0.23469 0.0
N305 N 0.31736 0.9248 0.22133 0.0
C306 C 0.33937 0.89433 0.21667 0.0
C307 C 0.32967 0.86852 0.18832 0.0
C308 C 0.29723 0.87406 0.16532 0.0
C309 C 0.27476 0.90539 0.17089 0.0
C310 C 0.2857 0.93002 0.19975 0.0
H311 H 0.36421 0.88981 0.23435 0.0
O312 O 0.40917 1.00421 0.20489 0.0
O313 O 0.35386 0.99495 0.23186 0.0
O314 O 0.4162 0.974 0.28047 0.0
O315 O 0.364 0.93633 0.28544 0.0
C316 C 0.24202 0.91321 0.14885 0.0
C317 C 0.22112 0.94562 0.15571 0.0
H318 H 0.1886 0.01096 0.17685 0.0
H319 H 0.21273 0.05137 0.22895 0.0
H320 H 0.34715 0.8444 0.18422 0.0
H321 H 0.28992 0.85417 0.14339 0.0
H322 H 0.23284 0.89464 0.12638 0.0
H323 H 0.19628 0.95158 0.13826 0.0
Mn324 Mn 0.26865 0.14024 0.51501 0.0
Mn325 Mn 0.30172 0.19147 0.44138 0.0
C326 C 0.32999 0.16813 0.52384 0.0
C327 C 0.2363 0.12131 0.57 0.0
C328 C 0.29498 0.10742 0.44197 0.0
O329 O 0.21957 0.15591 0.48631 0.0
O330 O 0.24535 0.19094 0.44014 0.0
C331 C 0.27296 0.2693 0.43391 0.0
N332 N 0.30287 0.24619 0.44092 0.0
C333 C 0.3431 0.30641 0.45331 0.0
C334 C 0.31135 0.32729 0.44514 0.0
C335 C 0.27738 0.30881 0.43383 0.0
C336 C 0.33866 0.26027 0.44268 0.0
H337 H 0.2449 0.25765 0.42785 0.0
C338 C 0.21656 0.17758 0.45764 0.0
O339 O 0.24112 0.09994 0.5419 0.0
O340 O 0.24808 0.15596 0.56584 0.0
N341 N 0.3557 0.19206 0.44261 0.0
C342 C 0.37933 0.16226 0.44193 0.0
C343 C 0.41714 0.16484 0.4558 0.0
C344 C 0.4307 0.19621 0.47571 0.0
C345 C 0.4068 0.22621 0.48069 0.0
C346 C 0.36803 0.22563 0.45377 0.0
H347 H 0.3695 0.13599 0.43043 0.0
O348 O 0.31981 0.13634 0.53875 0.0
O349 O 0.30416 0.18316 0.49998 0.0
O350 O 0.28362 0.10303 0.47484 0.0
O351 O 0.30146 0.13912 0.42806 0.0
C352 C 0.42171 0.26492 0.50295 0.0
C353 C 0.3794 0.32259 0.48263 0.0
H354 H 0.31194 0.35722 0.44974 0.0
H355 H 0.2531 0.3257 0.42675 0.0
H356 H 0.43539 0.14103 0.45324 0.0
H357 H 0.45931 0.19669 0.4878 0.0
H358 H 0.4477 0.26249 0.52022 0.0
H359 H 0.38099 0.35224 0.49008 0.0
Mn360 Mn 0.14457 0.02769 0.77362 0.0
Mn361 Mn 0.22075 0.97616 0.75388 0.0
C362 C 0.16933 0.98666 0.81814 0.0
C363 C 0.1169 0.08164 0.79598 0.0
C364 C 0.14047 0.95345 0.72979 0.0
O365 O 0.16547 0.05566 0.72813 0.0
O366 O 0.21131 0.0154 0.71458 0.0
C367 C 0.27814 0.03787 0.76398 0.0
N368 N 0.26489 1.00292 0.7732 0.0
C369 C 0.31726 0.99447 0.81704 0.0
C370 C 0.33151 0.03027 0.80783 0.0
C371 C 0.3118 0.05209 0.78127 0.0
C372 C 0.28346 0.98185 0.79903 0.0
H373 H 0.26324 0.05482 0.74356 0.0
C374 C 0.19193 0.04473 0.70729 0.0
O375 O 0.09851 0.05949 0.77282 0.0
O376 O 0.15161 0.07302 0.80525 0.0
N377 N 0.2347 0.9375 0.78871 0.0
C378 C 0.2186 0.90268 0.7929 0.0
C379 C 0.23502 0.87726 0.81833 0.0
C380 C 0.26843 0.88751 0.83855 0.0
C381 C 0.28546 0.92289 0.83264 0.0
C382 C 0.26772 0.94708 0.80694 0.0
H383 H 0.1933 0.89445 0.77712 0.0
O384 O 0.1343 0.99727 0.81951 0.0
O385 O 0.18941 1.00073 0.79095 0.0
O386 O 0.12527 0.98372 0.74026 0.0
O387 O 0.1759 0.94658 0.73479 0.0
C388 C 0.31946 0.93501 0.85109 0.0
C389 C 0.33533 0.9708 0.84333 0.0
H390 H 0.35755 0.04128 0.82099 0.0
H391 H 0.32257 0.07979 0.77406 0.0
H392 H 0.22195 0.84981 0.82232 0.0
H393 H 0.28095 0.86788 0.85825 0.0
H394 H 0.33371 0.91698 0.87121 0.0
H395 H 0.36155 0.97977 0.85761 0.0
Mn396 Mn 0.26829 0.90213 0.02241 0.0
Mn397 Mn 0.23313 0.82417 0.98015 0.0
C398 C 0.21057 0.87668 0.04141 0.0
C399 C 0.30685 0.92989 0.06854 0.0
C400 C 0.2274 0.90173 0.94518 0.0
O401 O 0.31432 0.88297 0.99597 0.0
O402 O 0.28875 0.83086 0.96978 0.0
C403 C 0.27644 0.76923 0.0256 0.0
N404 N 0.24245 0.7823 0.01246 0.0
C405 C 0.20767 0.73359 0.04484 0.0
C406 C 0.24231 0.71944 0.05847 0.0
C407 C 0.27683 0.7374 0.04887 0.0
C408 C 0.20909 0.76532 0.02167 0.0
H409 H 0.30305 0.78301 0.01845 0.0
C410 C 0.31703 0.85344 0.97658 0.0
O411 O 0.29707 0.94831 0.03851 0.0
O412 O 0.29491 0.89543 0.07144 0.0
N413 N 0.18031 0.81317 0.98776 0.0
C414 C 0.14945 0.83125 0.97355 0.0
C415 C 0.11276 0.81724 0.98106 0.0
C416 C 0.10796 0.78471 1.00285 0.0
C417 C 0.14019 0.7663 0.01684 0.0
C418 C 0.17618 0.78141 1.00819 0.0
H419 H 0.15278 0.85646 0.95708 0.0
O420 O 0.21992 0.91134 0.04814 0.0
O421 O 0.23581 0.85733 0.02396 0.0
O422 O 0.24469 0.91931 0.97193 0.0
O423 O 0.22142 0.86623 0.94542 0.0
C424 C 0.13805 0.73407 0.03969 0.0
C425 C 0.17177 0.71776 0.05374 0.0
H426 H 0.24273 0.69497 0.07653 0.0
H427 H 0.30368 0.72676 0.05943 0.0
H428 H 0.0884 0.83172 0.97016 0.0
H429 H 0.07946 0.77434 1.00889 0.0
H430 H 0.11061 0.72188 0.047 0.0
H431 H 0.16977 0.69322 0.07161 0.0
Mn432 Mn 0.25507 0.3975 0.02085 0.0
Mn433 Mn 0.27382 0.32239 0.96826 0.0
C434 C 0.20824 0.37267 0.98095 0.0
C435 C 0.23398 0.42333 0.0762 0.0
C436 C 0.30104 0.4012 0.94869 0.0
O437 O 0.30263 0.37688 0.04665 0.0
O438 O 0.31258 0.32685 0.01044 0.0
C439 C 0.25661 0.26365 0.02467 0.0
N440 N 0.2502 0.27896 0.99016 0.0
C441 C 0.20226 0.23169 0.97513 0.0
C442 C 0.20859 0.21526 0.01039 0.0
C443 C 0.23584 0.23135 0.03528 0.0
C444 C 0.224 0.26372 0.96601 0.0
H445 H 0.27732 0.27607 0.04401 0.0
C446 C 0.32141 0.34797 0.03848 0.0
O447 O 0.25641 0.44219 0.05419 0.0
O448 O 0.22495 0.38925 0.06663 0.0
N449 N 0.23875 0.31418 0.92704 0.0
C450 C 0.23433 0.33475 0.89504 0.0
C451 C 0.20751 0.32291 0.86752 0.0
C452 C 0.18554 0.29006 0.87314 0.0
C453 C 0.1907 0.26927 0.90619 0.0
C454 C 0.21819 0.28218 0.93243 0.0
H455 H 0.2507 0.36028 0.89076 0.0
O456 O 0.20676 0.4071 0.99201 0.0
O457 O 0.23721 0.35375 0.99358 0.0
O458 O 0.28699 0.41707 0.97699 0.0
O459 O 0.29802 0.36597 0.94286 0.0
C460 C 0.16897 0.23673 0.91451 0.0
C461 C 0.17469 0.21797 0.94897 0.0
H462 H 0.19245 0.19049 0.01879 0.0
H463 H 0.24072 0.21896 0.06264 0.0
H464 H 0.20355 0.33925 0.84219 0.0
H465 H 0.1645 0.2813 0.85209 0.0
H466 H 0.14737 0.2263 0.89483 0.0
H467 H 0.15741 0.19329 0.95526 0.0
Mn468 Mn 0.75208 0.14108 0.01236 0.0
Mn469 Mn 0.79781 0.06955 0.97342 0.0
C470 C 0.73432 0.12035 0.95283 0.0
C471 C 0.70352 0.16483 0.0487 0.0
C472 C 0.83154 0.14838 0.97695 0.0
O473 O 0.77768 0.11619 0.05765 0.0
O474 O 0.80886 0.07048 0.02871 0.0
C475 C 0.75419 1.00735 1.00896 0.0
N476 N 0.76612 0.02541 0.97749 0.0
C477 C 0.73228 0.98081 0.93799 0.0
C478 C 0.71986 0.96162 0.96998 0.0
C479 C 0.73085 0.97498 1.00561 0.0
C480 C 0.75572 0.01277 0.94307 0.0
H481 H 0.76236 0.01758 0.03643 0.0
C482 C 0.79971 0.0882 0.0582 0.0
O483 O 0.7352 0.18353 0.04362 0.0
O484 O 0.70039 0.13198 0.0335 0.0
N485 N 0.78927 0.06487 0.9205 0.0
C486 C 0.80273 0.0872 0.89246 0.0
C487 C 0.79377 0.07803 0.85507 0.0
C488 C 0.77118 0.04597 0.84688 0.0
C489 C 0.75798 0.0232 0.87617 0.0
C490 C 0.76817 0.03353 0.91288 0.0
H491 H 0.81989 0.112 0.89858 0.0
O492 O 0.72718 0.15423 0.96304 0.0
O493 O 0.75215 0.09994 0.97761 0.0
O494 O 0.80405 0.16213 0.99483 0.0
O495 O 0.83197 0.11408 0.96697 0.0
C496 C 0.73468 0.99096 0.87041 0.0
C497 C 0.72187 0.96976 0.9013 0.0
H498 H 0.70169 0.93675 0.96752 0.0
H499 H 0.72124 0.96042 0.03044 0.0
H500 H 0.80403 0.09576 0.83261 0.0
H501 H 0.76398 0.03922 0.81802 0.0
H502 H 0.72617 0.98239 0.84234 0.0
H503 H 0.70381 0.94515 0.89654 0.0
Mn504 Mn 0.13826 0.51232 0.25867 0.0
Mn505 Mn 0.062 0.53166 0.31016 0.0
C506 C 0.11378 0.46756 0.29964 0.0
C507 C 0.16561 0.49003 0.20454 0.0
C508 C 0.14221 0.5564 0.33275 0.0
O509 O 0.11711 0.55772 0.23079 0.0
O510 O 0.07088 0.57099 0.2707 0.0
C511 C 1.00441 0.5209 0.24878 0.0
N512 N 0.01793 0.51184 0.28365 0.0
C513 C 0.96609 0.46742 0.29239 0.0
C514 C 0.95156 0.47646 0.25667 0.0
C515 C 0.97088 0.50323 0.23474 0.0
C516 C 0.99973 0.48584 0.30484 0.0
H517 H 0.01902 0.54146 0.23174 0.0
C518 C 0.09035 0.57835 0.24143 0.0
O519 O 0.18416 0.51317 0.2266 0.0
O520 O 0.13098 0.48074 0.2134 0.0
N521 N 0.04859 0.49671 0.34891 0.0
C522 C 0.06512 0.49245 0.38352 0.0
C523 C 0.04921 0.46669 0.40895 0.0
C524 C 0.01591 0.44619 0.39891 0.0
C525 C 0.9985 0.45208 0.36372 0.0
C526 C 0.01573 0.47811 0.33952 0.0
H527 H 0.09037 0.50838 0.39155 0.0
O528 O 0.14881 0.46642 0.28897 0.0
O529 O 0.09357 0.49473 0.28567 0.0
O530 O 0.15755 0.54577 0.30261 0.0
O531 O 0.10676 0.55132 0.33953 0.0
C532 C 0.96465 0.43324 0.35178 0.0
C533 C 0.94847 0.44088 0.31612 0.0
H534 H 0.92563 0.46299 0.24578 0.0
H535 H 0.95989 0.5103 0.2071 0.0
H536 H 0.0626 0.46266 0.43623 0.0
H537 H 1.00379 0.42623 0.41854 0.0
H538 H 0.95078 0.41287 0.36983 0.0
H539 H 0.92238 0.42628 0.30727 0.0
Mn540 Mn 0.75533 0.8999 0.52008 0.0
Mn541 Mn 0.77611 0.82464 0.46849 0.0
C542 C 0.70932 0.87408 0.47986 0.0
C543 C 0.73386 0.92544 0.57556 0.0
C544 C 0.80356 0.90372 0.44984 0.0
O545 O 0.80363 0.88013 0.54591 0.0
O546 O 0.81225 0.82778 0.51255 0.0
C547 C 0.75462 0.76501 0.52245 0.0
N548 N 0.75047 0.78118 0.48803 0.0
C549 C 0.70256 0.73516 0.46939 0.0
C550 C 0.70655 0.71785 0.50454 0.0
C551 C 0.73265 0.73288 0.5312 0.0
C552 C 0.72541 0.76697 0.46219 0.0
H553 H 0.77444 0.77666 0.54311 0.0
C554 C 0.8214 0.85004 0.53956 0.0
O555 O 0.75574 0.94466 0.55334 0.0
O556 O 0.72555 0.89116 0.56612 0.0
N557 N 0.7433 0.81806 0.4253 0.0
C558 C 0.74127 0.83935 0.39357 0.0
C559 C 0.71574 0.82872 0.36446 0.0
C560 C 0.69268 0.79627 0.36819 0.0
C561 C 0.69553 0.77461 0.40095 0.0
C562 C 0.7218 0.78636 0.42886 0.0
H563 H 0.7588 0.8644 0.39057 0.0
O564 O 0.70668 0.90831 0.49125 0.0
O565 O 0.73867 0.85592 0.49272 0.0
O566 O 0.78625 0.92011 0.47589 0.0
O567 O 0.80297 0.8682 0.44557 0.0
C568 C 0.67273 0.74229 0.40733 0.0
C569 C 0.6762 0.7226 0.44155 0.0
H570 H 0.68946 0.69323 0.51151 0.0
H571 H 0.73571 0.71982 0.55847 0.0
H572 H 0.71366 0.84562 0.33928 0.0
H573 H 0.67267 0.78842 0.34588 0.0
H574 H 0.65201 0.7327 0.38633 0.0
H575 H 0.65809 0.69813 0.44635 0.0
Mn576 Mn 0.88615 0.02866 0.26257 0.0
Mn577 Mn 0.96387 0.02203 0.31959 0.0
C578 C 0.90891 0.08095 0.2945 0.0
C579 C 0.86109 0.0389 0.20186 0.0
C580 C 0.88511 0.99094 0.33916 0.0
O581 O 0.90915 0.97857 0.24882 0.0
O582 O 0.96541 0.9824 0.28093 0.0
C583 C 0.02385 0.04321 0.26598 0.0
N584 N 1.00609 0.04914 0.29882 0.0
C585 C 0.04918 0.10052 0.31419 0.0
C586 C 0.06813 0.09478 0.28066 0.0
C587 C 0.05531 0.06609 0.2564 0.0
C588 C 0.0179 0.07694 0.32215 0.0
H589 H 0.01401 0.02123 0.24726 0.0
C590 C 0.94214 0.96617 0.2577 0.0
O591 O 0.84136 0.02123 0.22706 0.0
O592 O 0.89555 0.04936 0.21148 0.0
N593 N 0.96632 0.05877 0.35842 0.0
C594 C 0.94451 0.06102 0.38935 0.0
C595 C 0.95342 0.08843 0.4164 0.0
C596 C 0.9849 0.11293 0.41162 0.0
C597 C 1.00726 0.10974 0.37985 0.0
C598 C 0.9971 0.08177 0.35392 0.0
H599 H 0.92052 0.04204 0.3934 0.0
O600 O 0.87443 0.07998 0.28057 0.0
O601 O 0.92919 0.05174 0.28845 0.0
O602 O 0.86664 1.00506 0.31141 0.0
O603 O 0.92139 0.99392 0.34355 0.0
C604 C 0.03912 0.13333 0.37279 0.0
C605 C 0.05991 0.12888 0.33987 0.0
H606 H 0.09243 0.11234 0.27318 0.0
H607 H 0.06967 0.0616 0.23039 0.0
H608 H 0.93608 0.09064 0.4409 0.0
H609 H 0.99156 0.13414 0.43245 0.0
H610 H 0.04768 0.15517 0.39235 0.0
H611 H 0.08405 0.1475 0.33454 0.0
Mn612 Mn 0.25194 0.6454 0.51123 0.0
Mn613 Mn 0.29825 0.57316 0.47434 0.0
C614 C 0.23461 0.62318 0.45213 0.0
C615 C 0.20311 0.66931 0.54701 0.0
C616 C 0.3316 0.65225 0.47633 0.0
O617 O 0.27757 0.62179 0.55719 0.0
O618 O 0.30875 0.57521 0.52966 0.0
C619 C 0.25437 0.51162 0.51064 0.0
N620 N 0.26665 0.52903 0.47896 0.0
C621 C 0.2333 0.48362 0.44001 0.0
C622 C 0.22053 0.46508 0.47223 0.0
C623 C 0.23108 0.47917 0.50769 0.0
C624 C 0.25665 0.5157 0.44469 0.0
H625 H 0.26219 0.52243 0.53797 0.0
C626 C 0.2995 0.59376 0.5586 0.0
O627 O 0.23455 0.6883 0.54154 0.0
O628 O 0.20033 0.63619 0.53239 0.0
N629 N 0.29028 0.56743 0.42146 0.0
C630 C 0.30399 0.58924 0.39314 0.0
C631 C 0.29546 0.57931 0.35586 0.0
C632 C 0.27305 0.54704 0.34807 0.0
C633 C 0.25959 0.52482 0.37766 0.0
C634 C 0.26936 0.5359 0.41425 0.0
H635 H 0.32102 0.6142 0.39895 0.0
O636 O 0.22709 0.65722 0.46153 0.0
O637 O 0.25249 0.6035 0.47747 0.0
O638 O 0.30383 0.66644 0.49343 0.0
O639 O 0.33229 0.61766 0.46741 0.0
C640 C 0.23643 0.49243 0.37229 0.0
C641 C 0.22331 0.47183 0.40344 0.0
H642 H 0.20239 0.44016 0.47007 0.0
H643 H 0.22119 0.46512 0.53269 0.0
H644 H 0.30592 0.59663 0.33318 0.0
H645 H 0.26618 0.53971 0.31929 0.0
H646 H 0.22824 0.48329 0.34432 0.0
H647 H 0.20533 0.44711 0.39899 0.0
Mn648 Mn 0.38442 0.53078 0.7629 0.0
Mn649 Mn 0.4614 0.51869 0.82033 0.0
C650 C 0.40831 0.58005 0.79826 0.0
C651 C 0.35924 0.54546 0.70321 0.0
C652 C 0.3817 0.49111 0.83944 0.0
O653 O 0.40664 0.48272 0.74454 0.0
O654 O 0.45848 0.47734 0.78264 0.0
C655 C 0.52085 0.53294 0.76415 0.0
N656 N 0.50479 0.54164 0.79721 0.0
C657 C 0.55112 0.59144 0.80822 0.0
C658 C 0.5683 0.58282 0.77441 0.0
C659 C 0.55304 0.5535 0.75225 0.0
C660 C 0.51908 0.56998 0.81861 0.0
H661 H 0.50914 0.51053 0.74693 0.0
C662 C 0.43668 0.46591 0.75552 0.0
O663 O 0.33941 0.5263 0.72726 0.0
O664 O 0.39363 0.5555 0.71355 0.0
N665 N 0.4686 0.55637 0.85794 0.0
C666 C 0.44881 0.56103 0.88987 0.0
C667 C 0.46052 0.58914 0.91524 0.0
C668 C 0.49266 0.61194 0.90774 0.0
C669 C 0.51301 0.60619 0.87506 0.0
C670 C 0.5002 0.57749 0.85099 0.0
H671 H 0.42423 0.54353 0.89586 0.0
O672 O 0.37347 0.58026 0.78521 0.0
O673 O 0.42823 0.55109 0.78995 0.0
O674 O 0.3649 0.50277 0.80956 0.0
O675 O 0.41748 0.4955 0.84641 0.0
C676 C 0.5454 0.62793 0.86534 0.0
C677 C 0.56434 0.62065 0.83186 0.0
H678 H 0.5931 0.59863 0.76511 0.0
H679 H 0.56605 0.54678 0.72605 0.0
H680 H 0.44474 0.59329 0.94048 0.0
H681 H 0.50143 0.63379 0.92722 0.0
H682 H 0.55583 0.65046 0.88329 0.0
H683 H 0.58904 0.63773 0.82455 0.0
Mn684 Mn 0.63658 0.01414 0.75757 0.0
Mn685 Mn 0.56046 0.03365 0.80927 0.0
C686 C 0.61162 0.96912 0.79803 0.0
C687 C 0.66414 0.99216 0.70333 0.0
C688 C 0.64085 0.05722 0.83227 0.0
O689 O 0.61583 0.06011 0.73024 0.0
O690 O 0.56986 0.07351 0.7704 0.0
C691 C 0.50298 0.02426 0.74758 0.0
N692 N 0.51629 0.01461 0.78237 0.0
C693 C 0.46407 0.97044 0.79028 0.0
C694 C 0.44976 0.98008 0.75464 0.0
C695 C 0.46937 1.00703 0.73317 0.0
C696 C 0.49781 0.98842 0.8031 0.0
H697 H 0.51781 0.04496 0.73089 0.0
C698 C 0.58941 0.08101 0.74123 0.0
O699 O 0.68263 0.01506 0.72568 0.0
O700 O 0.62937 0.98304 0.71187 0.0
N701 N 0.54653 0.99837 0.84754 0.0
C702 C 0.56266 0.99379 0.88228 0.0
C703 C 0.54636 0.96791 0.90735 0.0
C704 C 0.51304 0.94767 0.89685 0.0
C705 C 0.49597 0.95399 0.86158 0.0
C706 C 0.51359 0.98011 0.83774 0.0
H707 H 0.58789 1.00958 0.8907 0.0
O708 O 0.64663 0.96781 0.78735 0.0
O709 O 0.59166 0.99663 0.78436 0.0
O710 O 0.65607 0.0469 0.80196 0.0
O711 O 0.60536 0.0524 0.83899 0.0
C712 C 0.46203 0.93555 0.84925 0.0
C713 C 0.44611 0.94374 0.8136 0.0
H714 H 0.42377 0.96696 0.74348 0.0
H715 H 0.45856 0.01457 0.7056 0.0
H716 H 0.55945 0.96361 0.93472 0.0
H717 H 0.5006 0.92764 0.91621 0.0
H718 H 0.44786 0.91512 0.86701 0.0
H719 H 0.41994 0.92947 0.80447 0.0
Mn720 Mn 0.77029 0.64526 0.01674 0.0
Mn721 Mn 0.80387 0.69989 0.94557 0.0
C722 C 0.83148 0.67302 0.0269 0.0
C723 C 0.73784 0.62419 0.07099 0.0
C724 C 0.79794 0.61583 0.94257 0.0
O725 O 0.72136 0.66177 0.98839 0.0
O726 O 0.74737 0.69844 0.94355 0.0
C727 C 0.77392 0.77754 0.94162 0.0
N728 N 0.8041 0.75457 0.9479 0.0
C729 C 0.8433 0.81475 0.96355 0.0
C730 C 0.81132 0.83548 0.95616 0.0
C731 C 0.77779 0.81707 0.94359 0.0
C732 C 0.83965 0.76913 0.9508 0.0
H733 H 0.74613 0.76576 0.93451 0.0
C734 C 0.71848 0.68422 0.96031 0.0
O735 O 0.74281 0.60381 0.04216 0.0
O736 O 0.74945 0.65902 0.06802 0.0
N737 N 0.8579 0.70139 0.94743 0.0
C738 C 0.8821 0.67215 0.94518 0.0
C739 C 0.91997 0.67483 0.95891 0.0
C740 C 0.93308 0.70545 0.98019 0.0
C741 C 0.90866 0.7347 0.98674 0.0
C742 C 0.86968 0.73461 0.96013 0.0
H743 H 0.87272 0.64626 0.9325 0.0
O744 O 0.82135 0.64064 0.04053 0.0
O745 O 0.8057 0.68889 1.00363 0.0
O746 O 0.78554 0.61005 0.97489 0.0
O747 O 0.80477 0.64809 0.9301 0.0
C748 C 0.92304 0.77259 0.01066 0.0
C749 C 0.87947 0.83025 0.99335 0.0
H750 H 0.81144 0.86515 0.9621 0.0
H751 H 0.75351 0.83406 0.93702 0.0
H752 H 0.93866 0.65155 0.95508 0.0
H753 H 0.96177 0.70591 0.99207 0.0
H754 H 0.94925 0.76988 0.02753 0.0
H755 H 0.88059 0.85954 1.00211 0.0
Mn756 Mn 0.89713 0.52266 0.75657 0.0
Mn757 Mn 0.81945 0.46566 0.76369 0.0
C758 C 0.87444 0.49025 0.70457 0.0
C759 C 0.92188 0.58345 0.74595 0.0
C760 C 0.8982 0.44644 0.79504 0.0
O761 O 0.87417 0.5367 0.80653 0.0
O762 O 0.8178 0.50474 0.80293 0.0
C763 C 0.75944 0.519 0.74188 0.0
N764 N 0.77728 0.48613 0.73629 0.0
C765 C 0.73456 0.47039 0.68475 0.0
C766 C 0.71554 0.50394 0.69014 0.0
C767 C 0.72812 0.52841 0.71875 0.0
C768 C 0.76567 0.46258 0.7086 0.0
H769 H 0.76911 0.53788 0.76379 0.0
C770 C 0.84118 0.52799 0.81901 0.0
O771 O 0.94178 0.55844 0.76372 0.0
O772 O 0.88749 0.57357 0.73554 0.0
N773 N 0.81715 0.42645 0.72735 0.0
C774 C 0.839 0.39551 0.72546 0.0
C775 C 0.83031 0.36826 0.69819 0.0
C776 C 0.79902 0.37288 0.67344 0.0
C777 C 0.77661 0.40467 0.67626 0.0
C778 C 0.78652 0.43077 0.70413 0.0
H779 H 0.86287 0.39161 0.74461 0.0
O780 O 0.90888 0.5043 0.7054 0.0
O781 O 0.85416 0.4965 0.73373 0.0
O782 O 0.91672 0.474 0.78055 0.0
O783 O 0.86191 0.44206 0.79211 0.0
C784 C 0.74498 0.4116 0.65235 0.0
C785 C 0.72411 0.44454 0.65645 0.0
H786 H 0.69137 0.51131 0.67236 0.0
H787 H 0.7137 0.55444 0.72296 0.0
H788 H 0.84769 0.34375 0.69626 0.0
H789 H 0.79255 0.35192 0.6523 0.0
H790 H 0.73665 0.39194 0.63051 0.0
H791 H 0.70013 0.44977 0.63761 0.0
Mn792 Mn 0.76921 0.40163 0.52291 0.0
Mn793 Mn 0.735 0.32391 0.47951 0.0
C794 C 0.7112 0.37579 0.54079 0.0
C795 C 0.80675 0.42899 0.57017 0.0
C796 C 0.72995 0.40168 0.44483 0.0
O797 O 0.81583 0.38278 0.497 0.0
O798 O 0.79082 0.33048 0.47063 0.0
C799 C 0.77668 0.26831 0.52567 0.0
N800 N 0.74316 0.28174 0.51174 0.0
C801 C 0.70707 0.23292 0.5426 0.0
C802 C 0.74123 0.2184 0.55704 0.0
C803 C 0.77617 0.23623 0.5486 0.0
C804 C 0.7094 0.26486 0.5198 0.0
H805 H 0.80358 0.28199 0.51936 0.0
C806 C 0.81889 0.35319 0.47773 0.0
O807 O 0.79757 0.44769 0.54013 0.0
O808 O 0.79493 0.39444 0.57237 0.0
N809 N 0.68199 0.31327 0.48566 0.0
C810 C 0.65173 0.33207 0.47123 0.0
C811 C 0.61472 0.31856 0.4778 0.0
C812 C 0.60896 0.28558 0.49875 0.0
C813 C 0.64063 0.2665 0.51315 0.0
C814 C 0.67699 0.28132 0.50559 0.0
H815 H 0.65576 0.35771 0.45563 0.0
O816 O 0.72031 0.4104 0.548 0.0
O817 O 0.7368 0.35677 0.5235 0.0
O818 O 0.74636 0.4193 0.47209 0.0
O819 O 0.72443 0.36613 0.44475 0.0
C820 C 0.63757 0.23403 0.53557 0.0
C821 C 0.67078 0.21727 0.55033 0.0
H822 H 0.74095 0.19374 0.57486 0.0
H823 H 0.80263 0.2253 0.55979 0.0
H824 H 0.59097 0.33415 0.46714 0.0
H825 H 0.5802 0.27552 0.50409 0.0
H826 H 0.60982 0.22203 0.54207 0.0
H827 H 0.66807 0.19256 0.56789 0.0
Mn828 Mn 0.64598 0.52643 0.27281 0.0
Mn829 Mn 0.72195 0.47489 0.2523 0.0
C830 C 0.67131 0.48558 0.31723 0.0
C831 C 0.61883 0.58061 0.29532 0.0
C832 C 0.64133 0.45226 0.22879 0.0
O833 O 0.66643 0.55425 0.22702 0.0
O834 O 0.71268 0.51451 0.21326 0.0
C835 C 0.77973 0.53622 0.26263 0.0
N836 N 0.76627 0.5013 0.27171 0.0
C837 C 0.81843 0.49248 0.31571 0.0
C838 C 0.8329 0.52823 0.30665 0.0
C839 C 0.8134 0.55022 0.28008 0.0
C840 C 0.78464 0.48007 0.29754 0.0
H841 H 0.76498 0.55331 0.24223 0.0
C842 C 0.69307 0.54375 0.20616 0.0
O843 O 0.60003 0.55837 0.27254 0.0
O844 O 0.65361 0.57189 0.30417 0.0
N845 N 0.73571 0.43598 0.28691 0.0
C846 C 0.71943 0.40121 0.29091 0.0
C847 C 0.73563 0.37562 0.31633 0.0
C848 C 0.76898 0.38568 0.33672 0.0
C849 C 0.7862 0.42101 0.331 0.0
C850 C 0.7687 0.44535 0.30529 0.0
H851 H 0.69419 0.39312 0.27498 0.0
O852 O 0.63631 0.49621 0.31898 0.0
O853 O 0.69097 0.49947 0.28966 0.0
O854 O 0.62614 0.48233 0.23981 0.0
O855 O 0.67689 0.44559 0.23312 0.0
C856 C 0.82018 0.43292 0.34962 0.0
C857 C 0.83627 0.46865 0.34202 0.0
H858 H 0.85894 0.53909 0.31994 0.0
H859 H 0.82434 0.57789 0.27299 0.0
H860 H 0.72243 0.34821 0.32016 0.0
H861 H 0.78133 0.36594 0.35641 0.0
H862 H 0.83425 0.41477 0.36976 0.0
H863 H 0.86247 0.47747 0.35643 0.0
C864 C 0.0667 0.4143 0.30782 0.0
C865 C 0.0978 0.43597 0.32173 0.0
H866 H 0.02955 0.36642 0.31615 0.0
C867 C 0.11615 0.42488 0.35514 0.0
H868 H 0.05273 0.42175 0.28154 0.0
C869 C 0.1026 0.39375 0.37529 0.0
C870 C 0.07135 0.37194 0.36162 0.0
H871 H 0.14063 0.44077 0.36601 0.0
H872 H 0.11697 0.38656 0.40139 0.0
C873 C 0.05371 0.38247 0.32746 0.0
C874 C 0.91086 0.80288 0.57751 0.0
C875 C 0.91652 0.81985 0.6127 0.0
H876 H 0.87662 0.79873 0.52721 0.0
C877 C 0.89056 0.84702 0.62356 0.0
H878 H 0.93012 0.7818 0.56816 0.0
C879 C 0.86001 0.85711 0.59979 0.0
C880 C 0.85422 0.83993 0.56472 0.0
H881 H 0.89399 0.86083 0.65036 0.0
H882 H 0.8407 0.87816 0.60912 0.0
C883 C 0.88002 0.81257 0.554 0.0
C884 C 0.41105 0.63169 0.84477 0.0
C885 C 0.4257 0.61482 0.81305 0.0
H886 H 0.41751 0.67652 0.88433 0.0
C887 C 0.45529 0.6329 0.79367 0.0
H888 H 0.3876 0.61852 0.85952 0.0
C889 C 0.47119 0.66672 0.80681 0.0
C890 C 0.4581 0.68242 0.83984 0.0
H891 H 0.46623 0.62071 0.76852 0.0
H892 H 0.49479 0.67969 0.79213 0.0
C893 C 0.42785 0.66482 0.85869 0.0
C894 C 0.64818 0.22528 0.11427 0.0
C895 C 0.61022 0.21595 0.10388 0.0
H896 H 0.70754 0.21692 0.10439 0.0
C897 C 0.60324 0.18844 0.07648 0.0
H898 H 0.6544 0.24655 0.13516 0.0
C899 C 0.63363 0.17079 0.05962 0.0
C900 C 0.67159 0.18113 0.069 0.0
H901 H 0.57427 0.18068 0.06796 0.0
H902 H 0.62739 0.14995 0.0383 0.0
C903 C 0.67857 0.20845 0.09658 0.0
C904 C 0.0668 0.64364 0.23863 0.0
C905 C 0.08108 0.61294 0.21971 0.0
H906 H 0.0456 0.69882 0.23543 0.0
C907 C 0.08493 0.61569 0.18049 0.0
H908 H 0.06357 0.64272 0.26871 0.0
C909 C 0.07372 0.64826 0.16076 0.0
C910 C 0.05949 0.67894 0.18011 0.0
H911 H 0.09569 0.59236 0.16503 0.0
H912 H 0.0763 0.64946 0.13064 0.0
C913 C 0.05661 0.67606 0.21932 0.0
C914 C 0.62628 0.85502 0.41257 0.0
C915 C 0.60874 0.82357 0.42922 0.0
H916 H 0.67184 0.89632 0.41625 0.0
C917 C 0.62564 0.80774 0.46141 0.0
H918 H 0.61406 0.86725 0.38733 0.0
C919 C 0.65878 0.82392 0.47752 0.0
C920 C 0.67611 0.8556 0.46113 0.0
H921 H 0.61323 0.7828 0.47409 0.0
H922 H 0.67068 0.81188 0.50299 0.0
C923 C 0.65926 0.87147 0.42893 0.0
C924 C 0.48157 0.37474 0.72465 0.0
C925 C 0.47152 0.37491 0.6863 0.0
H926 H 0.47899 0.40411 0.77712 0.0
C927 C 0.44985 0.40481 0.67205 0.0
H928 H 0.49842 0.35238 0.73649 0.0
C929 C 0.4382 0.43327 0.69494 0.0
C930 C 0.44849 0.43372 0.73295 0.0
H931 H 0.44167 0.40669 0.6427 0.0
H932 H 0.42181 0.45563 0.68237 0.0
C933 C 0.47054 0.40432 0.74778 0.0
C934 C 0.9211 0.18643 0.92976 0.0
C935 C 0.92699 0.22142 0.94712 0.0
H936 H 0.88698 0.13596 0.92571 0.0
C937 C 0.90114 0.23209 0.97445 0.0
H938 H 0.94042 0.17712 0.90872 0.0
C939 C 0.87017 0.2086 0.98395 0.0
C940 C 0.86444 0.17349 0.9668 0.0
H941 H 0.90462 0.25882 0.98842 0.0
H942 H 0.85088 0.21789 1.00503 0.0
C943 C 0.89044 0.1627 0.93964 0.0
C944 C 0.34096 0.0641 0.41554 0.0
C945 C 0.30308 0.0755 0.41806 0.0
H946 H 0.38285 0.03948 0.38112 0.0
C947 C 0.27656 0.06538 0.38969 0.0
H948 H 0.36191 0.07165 0.43712 0.0
C949 C 0.28829 0.0462 0.35813 0.0
C950 C 0.327 0.03818 0.35389 0.0
H951 H 0.24741 0.07468 0.39067 0.0
H952 H 0.26758 0.03997 0.33594 0.0
C953 C 0.35302 0.04616 0.38339 0.0
C954 C 0.19885 0.10522 0.66939 0.0
C955 C 0.20076 0.06583 0.67228 0.0
H956 H 0.2093 0.15442 0.63507 0.0
C957 C 0.213 0.04592 0.64134 0.0
H958 H 0.18967 0.12139 0.69292 0.0
C959 C 0.22332 0.06446 0.60857 0.0
C960 C 0.22261 0.10382 0.60553 0.0
H961 H 0.21464 0.01568 0.64239 0.0
H962 H 0.2328 0.04753 0.5857 0.0
C963 C 0.21019 0.12416 0.63639 0.0
C964 C 0.21671 0.97811 0.87094 0.0
C965 C 0.18552 0.9643 0.84937 0.0
H966 H 0.2544 0.96929 0.91826 0.0
C967 C 0.16754 0.93053 0.86003 0.0
H968 H 0.23042 1.00462 0.86378 0.0
C969 C 0.18162 0.90992 0.89061 0.0
C970 C 0.21298 0.9235 0.91231 0.0
H971 H 0.14304 0.9197 0.84416 0.0
H972 H 0.16759 0.88354 0.89745 0.0
C973 C 0.23019 0.95803 0.90225 0.0
C974 C 0.35908 0.93049 0.11689 0.0
C975 C 0.32763 0.94792 0.09988 0.0
H976 H 0.3996 0.931 0.16297 0.0
C977 C 0.31328 0.98031 0.11578 0.0
H978 H 0.37038 0.90536 0.105 0.0
C979 C 0.32884 0.99388 0.14953 0.0
C980 C 0.35934 0.97561 0.16728 0.0
H981 H 0.28876 0.99387 0.10323 0.0
H982 H 0.31662 0.01821 0.16215 0.0
C983 C 0.37553 0.9449 0.14996 0.0
C984 C 0.38094 0.31115 0.052 0.0
C985 C 0.35468 0.3379 0.06314 0.0
H986 H 0.43163 0.28102 0.06579 0.0
C987 C 0.3603 0.35469 0.09845 0.0
H988 H 0.37764 0.29762 0.02505 0.0
C989 C 0.39105 0.34486 0.122 0.0
C990 C 0.41744 0.31827 0.11082 0.0
H991 H 0.34068 0.37527 0.10817 0.0
H992 H 0.39423 0.35839 0.14897 0.0
C993 C 0.41203 0.30167 0.07539 0.0
C994 C 1.00476 0.89558 0.21198 0.0
C995 C 0.97795 0.86768 0.20131 0.0
H996 H 0.01441 0.94865 0.23863 0.0
C997 C 0.93996 0.87065 0.21226 0.0
H998 H 0.034 0.89428 0.203 0.0
C999 C 0.9283 0.90248 0.23104 0.0
C1000 C 0.95471 0.93139 0.24006 0.0
H1001 H 0.91878 0.84944 0.20426 0.0
H1002 H 0.8985 0.90485 0.23783 0.0
C1003 C 0.99336 0.92692 0.23176 0.0
C1004 C 0.13326 0.67448 0.55845 0.0
C1005 C 0.17116 0.68537 0.56742 0.0
H1006 H 0.07386 0.68342 0.56755 0.0
C1007 C 0.17807 0.71276 0.59494 0.0
H1008 H 0.1271 0.65356 0.5372 0.0
C1009 C 0.14765 0.72906 0.61303 0.0
C1010 C 0.10972 0.71913 0.60311 0.0
H1011 H 0.20701 0.72162 0.60245 0.0
H1012 H 0.1538 0.75036 0.63391 0.0
C1013 C 0.10281 0.69162 0.5757 0.0
C1014 C 0.92887 0.68695 0.72157 0.0
C1015 C 0.96683 0.69099 0.71012 0.0
H1016 H 0.88476 0.64953 0.74123 0.0
C1017 C 0.99039 0.65968 0.71204 0.0
H1018 H 0.91009 0.7106 0.72043 0.0
C1019 C 0.97628 0.62507 0.72529 0.0
C1020 C 0.938 0.6208 0.73568 0.0
H1021 H 0.01985 0.6621 0.7037 0.0
H1022 H 0.99498 0.60137 0.72628 0.0
C1023 C 0.91442 0.65206 0.73354 0.0
C1024 C 0.17605 0.21255 0.41142 0.0
C1025 C 0.17849 0.19109 0.44459 0.0
H1026 H 0.14175 0.24634 0.37505 0.0
C1027 C 0.14529 0.18589 0.46565 0.0
H1028 H 0.20045 0.21658 0.39371 0.0
C1029 C 0.11101 0.20286 0.45424 0.0
C1030 C 0.10979 0.22614 0.42234 0.0
H1031 H 0.1459 0.16935 0.49114 0.0
H1032 H 0.08556 0.19785 0.47028 0.0
C1033 C 0.14234 0.22985 0.40061 0.0
C1034 C 0.61656 0.38616 0.22815 0.0
C1035 C 0.61621 0.4223 0.21248 0.0
H1036 H 0.59468 0.32966 0.22553 0.0
C1037 C 0.592 0.42911 0.18137 0.0
H1038 H 0.63423 0.38021 0.25254 0.0
C1039 C 0.56939 0.3999 0.16565 0.0
C1040 C 0.56948 0.36391 0.18182 0.0
H1041 H 0.59122 0.45675 0.16876 0.0
H1042 H 0.55156 0.40546 0.14117 0.0
C1043 C 0.59348 0.35733 0.21302 0.0
C1044 C 0.3591 0.816 0.93563 0.0
C1045 C 0.35527 0.8437 0.96297 0.0
H1046 H 0.39712 0.78332 0.90396 0.0
C1047 C 0.38853 0.86083 0.97852 0.0
H1048 H 0.33414 0.80233 0.92294 0.0
C1049 C 0.42468 0.84968 0.96791 0.0
C1050 C 0.42853 0.82146 0.94112 0.0
H1051 H 0.38672 0.88222 0.99972 0.0
H1052 H 0.44964 0.86296 0.98102 0.0
C1053 C 0.39527 0.80519 0.92466 0.0
C1054 C 0.9039 0.40426 0.85074 0.0
C1055 C 0.91927 0.41832 0.81736 0.0
H1056 H 0.91114 0.36776 0.89812 0.0
C1057 C 0.95425 0.40477 0.80551 0.0
H1058 H 0.87702 0.41432 0.86055 0.0
C1059 C 0.97319 0.3772 0.82644 0.0
C1060 C 0.95806 0.36365 0.86017 0.0
H1061 H 0.96658 0.41502 0.77978 0.0
H1062 H 1.00007 0.36707 0.81671 0.0
C1063 C 0.9234 0.37768 0.87223 0.0
C1064 C 0.39979 0.17871 0.54732 0.0
C1065 C 0.36124 0.18969 0.54654 0.0
H1066 H 0.4588 0.19427 0.56107 0.0
C1067 C 0.35249 0.21457 0.57554 0.0
H1068 H 0.40755 0.15397 0.53225 0.0
C1069 C 0.38191 0.23337 0.59719 0.0
C1070 C 0.42063 0.23255 0.58695 0.0
H1071 H 0.32293 0.21928 0.58181 0.0
H1072 H 0.37398 0.25067 0.62035 0.0
C1073 C 0.42929 0.20141 0.56472 0.0
C1074 C 0.55144 0.66016 0.31164 0.0
C1075 C 0.56698 0.67578 0.34481 0.0
H1076 H 0.55544 0.61736 0.27011 0.0
C1077 C 0.59958 0.65989 0.36137 0.0
H1078 H 0.52633 0.67184 0.29826 0.0
C1079 C 0.61666 0.6294 0.34487 0.0
C1080 C 0.60106 0.61357 0.31187 0.0
H1081 H 0.61227 0.67134 0.38688 0.0
H1082 H 0.64187 0.61791 0.35828 0.0
C1083 C 0.5681 0.62904 0.29554 0.0
C1084 C 0.13803 0.81811 0.09579 0.0
C1085 C 0.10461 0.83856 0.08925 0.0
H1086 H 0.19823 0.81413 0.0857 0.0
C1087 C 0.10724 0.87149 0.06741 0.0
H1088 H 0.13727 0.7928 0.11261 0.0
C1089 C 0.14148 0.88278 0.05132 0.0
C1090 C 0.17429 0.8616 0.05634 0.0
H1091 H 0.0826 0.88865 0.06223 0.0
H1092 H 0.14225 0.90819 0.03458 0.0
C1093 C 0.17272 0.82984 0.07979 0.0
C1094 C 0.731 0.97682 0.62311 0.0
C1095 C 0.71716 0.94232 0.60898 0.0
H1096 H 0.72535 0.01955 0.66451 0.0
C1097 C 0.68602 0.92446 0.62629 0.0
H1098 H 0.75499 0.99122 0.61038 0.0
C1099 C 0.6685 0.94111 0.65645 0.0
C1100 C 0.68234 0.97551 0.67067 0.0
H1101 H 0.6748 0.89777 0.61626 0.0
H1102 H 0.6444 0.9267 0.669 0.0
C1103 C 0.71403 0.99305 0.65401 0.0
C1104 C 0.82872 0.98089 0.3805 0.0
C1105 C 0.86395 0.96902 0.36755 0.0
H1106 H 0.78246 0.96998 0.41775 0.0
C1107 C 0.87939 0.93598 0.38235 0.0
H1108 H 0.81633 1.00637 0.36967 0.0
C1109 C 0.85967 0.91477 0.40901 0.0
C1110 C 0.82472 0.92683 0.42238 0.0
H1111 H 0.90645 0.92615 0.37277 0.0
H1112 H 0.87195 0.88909 0.41947 0.0
C1113 C 0.80956 0.96027 0.40814 0.0
C1114 C 0.85312 0.06345 0.0985 0.0
C1115 C 0.81511 0.07487 0.09484 0.0
H1116 H 0.89761 0.04377 0.13545 0.0
C1117 C 0.79186 0.07281 0.12635 0.0
H1118 H 0.87167 0.06469 0.07469 0.0
C1119 C 0.8063 0.0595 0.16078 0.0
C1120 C 0.84464 0.04916 0.16467 0.0
H1121 H 0.76237 0.08113 0.12425 0.0
H1122 H 0.78783 0.05843 0.18465 0.0
C1123 C 0.86792 0.05141 0.13321 0.0
C1124 C 0.69041 0.10424 0.85571 0.0
C1125 C 0.66587 0.07331 0.86236 0.0
H1126 H 0.73105 0.14409 0.87961 0.0
C1127 C 0.66511 0.05762 0.89846 0.0
H1128 H 0.6915 0.11685 0.8281 0.0
C1129 C 0.68815 0.07253 0.92741 0.0
C1130 C 0.71248 0.10353 0.92097 0.0
H1131 H 0.64716 0.03339 0.9043 0.0
H1132 H 0.68666 0.06 0.95504 0.0
C1133 C 0.71296 0.11975 0.88504 0.0
C1134 C 0.61224 0.70689 0.95568 0.0
C1135 C 0.61071 0.73013 0.92378 0.0
H1136 H 0.64761 0.67417 0.99286 0.0
C1137 C 0.64354 0.73502 0.90259 0.0
H1138 H 0.58673 0.70111 0.97141 0.0
C1139 C 0.67775 0.71893 0.91396 0.0
C1140 C 0.6803 0.69719 0.94695 0.0
H1141 H 0.64279 0.75161 0.87709 0.0
H1142 H 0.7024 0.72399 0.89681 0.0
C1143 C 0.64689 0.69087 0.96747 0.0
C1144 C 0.06695 0.13085 0.79507 0.0
C1145 C 0.09872 0.1143 0.81259 0.0
H1146 H 0.02598 0.17447 0.79683 0.0
C1147 C 0.1127 0.12872 0.84684 0.0
H1148 H 0.05555 0.1202 0.76868 0.0
C1149 C 0.09526 0.15899 0.86335 0.0
C1150 C 0.06404 0.17615 0.84553 0.0
H1151 H 0.13689 0.11628 0.86119 0.0
H1152 H 0.10665 0.16926 0.88988 0.0
C1153 C 0.05004 0.16183 0.81118 0.0
C1154 C 0.8968 0.306 0.4247 0.0
C1155 C 0.93018 0.32125 0.44186 0.0
H1156 H 0.83573 0.30394 0.42256 0.0
C1157 C 0.92659 0.34857 0.46963 0.0
H1158 H 0.89841 0.28485 0.40324 0.0
C1159 C 0.8905 0.3598 0.48048 0.0
C1160 C 0.85715 0.34358 0.46419 0.0
H1161 H 0.95166 0.36105 0.4833 0.0
H1162 H 0.88878 0.38044 0.50241 0.0
C1163 C 0.86078 0.31684 0.43589 0.0
C1164 C 0.56454 0.91575 0.80646 0.0
C1165 C 0.59553 0.93765 0.82028 0.0
H1166 H 0.52761 0.86769 0.81505 0.0
C1167 C 0.61382 0.92687 0.85382 0.0
H1168 H 0.55061 0.92297 0.7801 0.0
C1169 C 0.60032 0.89586 0.87417 0.0
C1170 C 0.56923 0.87375 0.86058 0.0
H1171 H 0.6382 0.94293 0.86466 0.0
H1172 H 0.61463 0.88901 0.90039 0.0
C1173 C 0.55165 0.88396 0.82629 0.0
C1174 C 0.97013 0.1686 0.30407 0.0
C1175 C 0.95681 0.18355 0.33737 0.0
H1176 H 0.96592 0.12312 0.2651 0.0
C1177 C 0.92656 0.16543 0.35573 0.0
H1178 H 0.99376 0.18198 0.28977 0.0
C1179 C 0.91017 0.13237 0.34122 0.0
C1180 C 0.92521 0.11615 0.30934 0.0
H1181 H 0.91607 0.17651 0.38158 0.0
H1182 H 0.88687 0.11865 0.35572 0.0
C1183 C 0.95462 0.13487 0.29031 0.0
C1184 C 0.56647 0.14674 0.73871 0.0
C1185 C 0.58035 0.11583 0.71972 0.0
H1186 H 0.5453 0.2021 0.73536 0.0
C1187 C 0.58378 0.11843 0.68049 0.0
H1188 H 0.56358 0.14592 0.76882 0.0
C1189 C 0.57239 0.1509 0.66076 0.0
C1190 C 0.55835 0.18171 0.68007 0.0
H1191 H 0.59421 0.09499 0.66497 0.0
H1192 H 0.57447 0.15183 0.63059 0.0
C1193 C 0.5561 0.17917 0.71933 0.0
C1194 C 0.15697 0.32307 0.97908 0.0
C1195 C 0.17418 0.35495 0.96292 0.0
H1196 H 0.11135 0.282 0.9755 0.0
C1197 C 0.15663 0.37163 0.93151 0.0
H1198 H 0.16936 0.31043 1.00403 0.0
C1199 C 0.12333 0.35559 0.91542 0.0
C1200 C 0.10615 0.3237 0.93159 0.0
H1201 H 0.16906 0.39667 0.91906 0.0
H1202 H 0.11076 0.36828 0.89058 0.0
C1203 C 0.1235 0.30727 0.96324 0.0
C1204 C 0.401 0.7361 0.47133 0.0
C1205 C 0.42778 0.7239 0.44558 0.0
H1206 H 0.34974 0.72348 0.501 0.0
C1207 C 0.42242 0.68799 0.43003 0.0
H1208 H 0.40408 0.76354 0.48391 0.0
C1209 C 0.39146 0.66486 0.44014 0.0
C1210 C 0.3646 0.67705 0.46581 0.0
H1211 H 0.44243 0.67747 0.41025 0.0
H1212 H 0.38852 0.63738 0.42761 0.0
C1213 C 0.36972 0.71309 0.48112 0.0
C1214 C 0.79029 0.55429 0.85847 0.0
C1215 C 0.82885 0.54578 0.85379 0.0
H1216 H 0.75002 0.58331 0.89132 0.0
C1217 C 0.85549 0.55474 0.88251 0.0
H1218 H 0.76909 0.54747 0.83688 0.0
C1219 C 0.84414 0.57366 0.91436 0.0
C1220 C 0.80624 0.58479 0.91755 0.0
H1221 H 0.88522 0.54779 0.87999 0.0
H1222 H 0.86549 0.58159 0.93541 0.0
C1223 C 0.7792 0.5742 0.88984 0.0
C1224 C 0.71556 0.54671 0.14056 0.0
C1225 C 0.70214 0.56564 0.17164 0.0
H1226 H 0.73635 0.55004 0.08527 0.0
C1227 C 0.69929 0.605 0.16943 0.0
H1228 H 0.71801 0.51653 0.1411 0.0
C1229 C 0.71074 0.62487 0.13702 0.0
C1230 C 0.72423 0.60553 0.10599 0.0
H1231 H 0.68923 0.62046 0.19308 0.0
H1232 H 0.70903 0.65509 0.13626 0.0
C1233 C 0.72598 0.56618 0.10831 0.0
C1234 C 0.73248 0.45793 0.40161 0.0
C1235 C 0.71561 0.42329 0.41177 0.0
H1236 H 0.73234 0.50432 0.36284 0.0
C1237 C 0.68455 0.40926 0.3899 0.0
H1238 H 0.75647 0.46952 0.41771 0.0
C1239 C 0.67031 0.42957 0.35922 0.0
C1240 C 0.68791 0.46347 0.34846 0.0
H1241 H 0.67083 0.38271 0.39667 0.0
H1242 H 0.64594 0.41841 0.34336 0.0
C1243 C 0.71892 0.4777 0.37008 0.0
C1244 C 0.82889 0.49406 0.65052 0.0
C1245 C 0.85817 0.47509 0.6695 0.0
H1246 H 0.79012 0.49446 0.60315 0.0
C1247 C 0.87322 0.44304 0.65359 0.0
H1248 H 0.81761 0.5194 0.66202 0.0
C1249 C 0.857 0.42836 0.62054 0.0
C1250 C 0.82693 0.4467 0.60211 0.0
H1251 H 0.89644 0.42859 0.6675 0.0
H1252 H 0.86757 0.40245 0.60963 0.0
C1253 C 0.81358 0.48013 0.61679 0.0
C1254 C 0.41287 0.15165 0.23215 0.0
C1255 C 0.43632 0.12036 0.23529 0.0
H1256 H 0.40907 0.21007 0.21818 0.0
C1257 C 0.47488 0.12441 0.22574 0.0
H1258 H 0.38301 0.14929 0.23916 0.0
C1259 C 0.48942 0.1588 0.21237 0.0
C1260 C 0.46601 0.19015 0.20948 0.0
H1261 H 0.49351 0.10068 0.2275 0.0
H1262 H 0.5191 0.16101 0.2047 0.0
C1263 C 0.42774 0.18636 0.22007 0.0
C1264 C 0.09307 0.85854 0.71334 0.0
C1265 C 0.06857 0.86545 0.68261 0.0
H1266 H 0.13433 0.88104 0.75252 0.0
C1267 C 0.06805 0.90161 0.66689 0.0
H1268 H 0.09457 0.83072 0.72548 0.0
C1269 C 0.09074 0.93071 0.68268 0.0
C1270 C 0.11544 0.92358 0.71333 0.0
H1271 H 0.04982 0.9074 0.64276 0.0
H1272 H 0.08961 0.95851 0.67048 0.0
C1273 C 0.11625 0.88724 0.72849 0.0
C1274 C 0.47318 0.90197 0.35764 0.0
C1275 C 0.46246 0.86384 0.35753 0.0
H1276 H 0.46243 0.95689 0.33598 0.0
C1277 C 0.43185 0.85175 0.33427 0.0
H1278 H 0.49692 0.91203 0.37491 0.0
C1279 C 0.4115 0.87758 0.31247 0.0
C1280 C 0.4222 0.91583 0.31258 0.0
H1281 H 0.42302 0.82247 0.33373 0.0
H1282 H 0.38735 0.86758 0.2956 0.0
C1283 C 0.45361 0.92762 0.33504 0.0
C1284 C 0.90129 0.68308 0.05025 0.0
C1285 C 0.86269 0.69375 0.0503 0.0
H1286 H 0.96025 0.69851 0.06428 0.0
C1287 C 0.85392 0.71725 0.08043 0.0
H1288 H 0.90913 0.65917 0.03394 0.0
C1289 C 0.88333 0.73539 0.10261 0.0
C1290 C 0.92194 0.73534 0.09197 0.0
H1291 H 0.82437 0.72144 0.08711 0.0
H1292 H 0.87547 0.75167 0.12653 0.0
C1293 C 0.93071 0.70521 0.06844 0.0
C1294 C 0.63713 0.31685 0.59283 0.0
C1295 C 0.60369 0.33666 0.58444 0.0
H1296 H 0.69784 0.3135 0.58519 0.0
C1297 C 0.60675 0.3693 0.56221 0.0
H1298 H 0.63594 0.29173 0.60993 0.0
C1299 C 0.64161 0.38112 0.54779 0.0
C1300 C 0.67452 0.36048 0.55452 0.0
H1301 H 0.58197 0.38581 0.55548 0.0
H1302 H 0.64275 0.40634 0.53078 0.0
C1303 C 0.67237 0.32887 0.57815 0.0
C1304 C 0.18513 0.4236 0.12577 0.0
C1305 C 0.21747 0.44034 0.10956 0.0
H1306 H 0.14307 0.4266 0.16793 0.0
C1307 C 0.23279 0.47378 0.12481 0.0
H1308 H 0.17258 0.39788 0.11463 0.0
C1309 C 0.21617 0.48999 0.1559 0.0
C1310 C 0.18345 0.47345 0.17167 0.0
H1311 H 0.25771 0.4873 0.11286 0.0
H1312 H 0.22863 0.51563 0.1673 0.0
C1313 C 0.16808 0.44017 0.15621 0.0
C1314 C 0.35607 0.48207 0.90369 0.0
C1315 C 0.35922 0.46946 0.8668 0.0
H1316 H 0.33465 0.47071 0.95843 0.0
C1317 C 0.34296 0.4346 0.85683 0.0
H1318 H 0.36842 0.50888 0.91202 0.0
C1319 C 0.32454 0.41227 0.88354 0.0
C1320 C 0.32108 0.42482 0.92057 0.0
H1321 H 0.34547 0.42416 0.82862 0.0
H1322 H 0.31292 0.38521 0.87506 0.0
C1323 C 0.33672 0.46021 0.93021 0.0
C1324 C 0.2909 0.57924 0.6268 0.0
C1325 C 0.31463 0.58132 0.59563 0.0
H1326 H 0.28612 0.56495 0.68507 0.0
C1327 C 0.35279 0.57061 0.59996 0.0
H1328 H 0.26128 0.58704 0.62415 0.0
C1329 C 0.36721 0.559 0.63495 0.0
C1330 C 0.34342 0.55651 0.66602 0.0
H1331 H 0.37168 0.5719 0.57641 0.0
H1332 H 0.39696 0.55164 0.63765 0.0
C1333 C 0.305 0.56633 0.66151 0.0
C1334 C 0.16603 0.55877 0.39907 0.0
C1335 C 0.16701 0.57339 0.36253 0.0
H1336 H 0.18714 0.56282 0.4557 0.0
C1337 C 0.19149 0.6042 0.35519 0.0
H1338 H 0.14812 0.53467 0.40549 0.0
C1339 C 0.21376 0.62063 0.38423 0.0
C1340 C 0.21305 0.60545 0.4206 0.0
H1341 H 0.19274 0.61603 0.32725 0.0
H1342 H 0.23181 0.64486 0.37825 0.0
C1343 C 0.18879 0.57457 0.42773 0.0
loop_
_geom_bond_atom_site_label_1
_geom_bond_atom_site_label_2
_geom_bond_distance
_geom_bond_site_symmetry_2
_ccdc_geom_bond_type
Mn0 O5 2.095 1_455 S
Mn0 O15 2.162 1_455 S
Mn0 O16 2.297 1_455 S
Mn0 O24 2.385 . S
Mn0 O25 2.209 . S
Mn0 O26 2.094 . S
Mn1 O6 2.121 1_455 S
Mn1 N8 2.257 . S
Mn1 N17 2.282 . S
Mn1 O25 2.215 . S
Mn1 O27 2.117 . S
C2 O24 1.234 . S
C2 O25 1.283 . S
C3 O15 1.281 . S
C3 O16 1.236 . S
C4 O26 1.240 . S
C4 O27 1.264 . S
O5 Mn0 2.095 1_655 S
O5 C14 1.250 . S
O6 Mn1 2.121 1_655 S
O6 C14 1.258 . S
C7 N8 1.326 . S
C7 C11 1.460 . S
C7 H13 0.929 1_455 S
N8 Mn1 2.257 . S
N8 C7 1.326 . S
N8 C12 1.362 . S
C9 C10 1.258 . S
C9 C12 1.431 . S
C9 C29 1.449 . S
C10 C9 1.258 . S
C10 C11 1.477 . S
C10 H30 0.931 . S
C11 C7 1.460 . S
C11 C10 1.477 . S
C11 H31 0.930 . S
C12 N8 1.362 . S
C12 C9 1.431 . S
C12 C22 1.476 . S
H13 C7 0.929 1_655 S
C14 O5 1.250 . S
C14 O6 1.258 . S
O15 Mn0 2.162 1_655 S
O15 C3 1.281 . S
O16 Mn0 2.297 1_655 S
O16 C3 1.236 . S
N17 Mn1 2.282 . S
N17 C18 1.328 . S
N17 C22 1.318 . S
C18 N17 1.328 . S
C18 C19 1.457 . S
C18 H23 0.929 . S
C19 C18 1.457 . S
C19 C20 1.291 . S
C19 H32 0.931 . S
C20 C19 1.291 . S
C20 C21 1.373 . S
C20 H33 0.929 . S
C21 C20 1.373 . S
C21 C22 1.396 . S
C21 C28 1.403 . S
C22 C12 1.476 . S
C22 N17 1.318 . S
C22 C21 1.396 . S
H23 C18 0.929 . S
O24 Mn0 2.385 . S
O24 C2 1.234 . S
O25 Mn0 2.209 . S
O25 Mn1 2.215 . S
O25 C2 1.283 . S
O26 Mn0 2.094 . S
O26 C4 1.240 . S
O27 Mn1 2.117 . S
O27 C4 1.264 . S
C28 C21 1.403 . S
C28 C29 1.399 . S
C28 H34 0.929 . S
C29 C9 1.449 . S
C29 C28 1.399 . S
C29 H35 0.930 . S
H30 C10 0.931 . S
H31 C11 0.930 . S
H32 C19 0.931 . S
H33 C20 0.929 . S
H34 C28 0.929 . S
H35 C29 0.930 . S
Mn36 O41 2.095 1_455 S
Mn36 O51 2.162 . S
Mn36 O52 2.297 . S
Mn36 O60 2.385 . S
Mn36 O61 2.209 . S
Mn36 O62 2.094 1_455 S
Mn37 O42 2.121 . S
Mn37 N44 2.257 . S
Mn37 N53 2.282 . S
Mn37 O61 2.215 1_655 S
Mn37 O63 2.117 . S
C38 O60 1.234 . S
C38 O61 1.283 . S
C39 O51 1.281 . S
C39 O52 1.236 . S
C40 O62 1.240 . S
C40 O63 1.264 . S
O41 Mn36 2.095 1_655 S
O41 C50 1.250 . S
O42 Mn37 2.121 . S
O42 C50 1.258 . S
C43 N44 1.326 . S
C43 C47 1.460 . S
C43 H49 0.929 . S
N44 Mn37 2.257 . S
N44 C43 1.326 . S
N44 C48 1.362 . S
C45 C46 1.258 . S
C45 C48 1.431 . S
C45 C65 1.449 . S
C46 C45 1.258 . S
C46 C47 1.477 . S
C46 H66 0.931 . S
C47 C43 1.460 . S
C47 C46 1.477 . S
C47 H67 0.930 . S
C48 N44 1.362 . S
C48 C45 1.431 . S
C48 C58 1.476 . S
H49 C43 0.929 . S
C50 O41 1.250 . S
C50 O42 1.258 . S
O51 Mn36 2.162 . S
O51 C39 1.281 . S
O52 Mn36 2.297 . S
O52 C39 1.236 . S
N53 Mn37 2.282 . S
N53 C54 1.328 . S
N53 C58 1.318 . S
C54 N53 1.328 . S
C54 C55 1.457 . S
C54 H59 0.929 . S
C55 C54 1.457 . S
C55 C56 1.291 . S
C55 H68 0.931 . S
C56 C55 1.291 . S
C56 C57 1.373 . S
C56 H69 0.929 . S
C57 C56 1.373 . S
C57 C58 1.396 . S
C57 C64 1.403 . S
C58 C48 1.476 . S
C58 N53 1.318 . S
C58 C57 1.396 . S
H59 C54 0.929 . S
O60 Mn36 2.385 . S
O60 C38 1.234 . S
O61 Mn36 2.209 . S
O61 Mn37 2.215 1_455 S
O61 C38 1.283 . S
O62 Mn36 2.094 1_655 S
O62 C40 1.240 . S
O63 Mn37 2.117 . S
O63 C40 1.264 . S
C64 C57 1.403 . S
C64 C65 1.399 . S
C64 H70 0.929 . S
C65 C45 1.449 . S
C65 C64 1.399 . S
C65 H71 0.930 . S
H66 C46 0.931 . S
H67 C47 0.930 . S
H68 C55 0.931 . S
H69 C56 0.929 . S
H70 C64 0.929 . S
H71 C65 0.930 . S
Mn72 O77 2.095 . S
Mn72 O87 2.162 . S
Mn72 O88 2.297 . S
Mn72 O96 2.385 . S
Mn72 O97 2.209 . S
Mn72 O98 2.094 . S
Mn73 O78 2.121 . S
Mn73 N80 2.257 . S
Mn73 N89 2.282 . S
Mn73 O97 2.215 . S
Mn73 O99 2.117 . S
C74 O96 1.234 . S
C74 O97 1.283 . S
C75 O87 1.281 . S
C75 O88 1.236 . S
C76 O98 1.240 . S
C76 O99 1.264 . S
O77 Mn72 2.095 . S
O77 C86 1.250 . S
O78 Mn73 2.121 . S
O78 C86 1.258 . S
C79 N80 1.326 1_554 S
C79 C83 1.460 . S
C79 H85 0.929 . S
N80 Mn73 2.257 . S
N80 C79 1.326 1_556 S
N80 C84 1.362 1_556 S
C81 C82 1.258 . S
C81 C84 1.431 . S
C81 C101 1.449 . S
C82 C81 1.258 . S
C82 C83 1.477 . S
C82 H102 0.931 . S
C83 C79 1.460 . S
C83 C82 1.477 . S
C83 H103 0.930 . S
C84 N80 1.362 1_554 S
C84 C81 1.431 . S
C84 C94 1.476 1_554 S
H85 C79 0.929 . S
C86 O77 1.250 . S
C86 O78 1.258 . S
O87 Mn72 2.162 . S
O87 C75 1.281 . S
O88 Mn72 2.297 . S
O88 C75 1.236 . S
N89 Mn73 2.282 . S
N89 C90 1.328 . S
N89 C94 1.318 . S
C90 N89 1.328 . S
C90 C91 1.457 . S
C90 H95 0.929 . S
C91 C90 1.457 . S
C91 C92 1.291 . S
C91 H104 0.931 . S
C92 C91 1.291 . S
C92 C93 1.373 . S
C92 H105 0.929 . S
C93 C92 1.373 . S
C93 C94 1.396 . S
C93 C100 1.403 1_556 S
C94 C84 1.476 1_556 S
C94 N89 1.318 . S
C94 C93 1.396 . S
H95 C90 0.929 . S
O96 Mn72 2.385 . S
O96 C74 1.234 . S
O97 Mn72 2.209 . S
O97 Mn73 2.215 . S
O97 C74 1.283 . S
O98 Mn72 2.094 . S
O98 C76 1.240 . S
O99 Mn73 2.117 . S
O99 C76 1.264 . S
C100 C93 1.403 1_554 S
C100 C101 1.399 . S
C100 H106 0.929 . S
C101 C81 1.449 . S
C101 C100 1.399 . S
C101 H107 0.930 . S
H102 C82 0.931 . S
H103 C83 0.930 . S
H104 C91 0.931 . S
H105 C92 0.929 . S
H106 C100 0.929 . S
H107 C101 0.930 . S
Mn108 O113 2.095 . S
Mn108 O123 2.162 . S
Mn108 O124 2.297 . S
Mn108 O132 2.385 . S
Mn108 O133 2.209 . S
Mn108 O134 2.094 . S
Mn109 O114 2.121 . S
Mn109 N116 2.257 . S
Mn109 N125 2.282 . S
Mn109 O133 2.215 . S
Mn109 O135 2.117 . S
C110 O132 1.234 . S
C110 O133 1.283 . S
C111 O123 1.281 . S
C111 O124 1.236 . S
C112 O134 1.240 . S
C112 O135 1.264 . S
O113 Mn108 2.095 . S
O113 C122 1.250 . S
O114 Mn109 2.121 . S
O114 C122 1.258 . S
C115 N116 1.326 . S
C115 C119 1.460 . S
C115 H121 0.929 . S
N116 Mn109 2.257 . S
N116 C115 1.326 . S
N116 C120 1.362 . S
C117 C118 1.258 . S
C117 C120 1.431 . S
C117 C137 1.449 . S
C118 C117 1.258 . S
C118 C119 1.477 . S
C118 H138 0.931 . S
C119 C115 1.460 . S
C119 C118 1.477 . S
C119 H139 0.930 . S
C120 N116 1.362 . S
C120 C117 1.431 . S
C120 C130 1.476 . S
H121 C115 0.929 . S
C122 O113 1.250 . S
C122 O114 1.258 . S
O123 Mn108 2.162 . S
O123 C111 1.281 . S
O124 Mn108 2.297 . S
O124 C111 1.236 . S
N125 Mn109 2.282 . S
N125 C126 1.328 . S
N125 C130 1.318 . S
C126 N125 1.328 . S
C126 C127 1.457 . S
C126 H131 0.929 . S
C127 C126 1.457 . S
C127 C128 1.291 . S
C127 H140 0.931 . S
C128 C127 1.291 . S
C128 C129 1.373 . S
C128 H141 0.929 . S
C129 C128 1.373 . S
C129 C130 1.396 . S
C129 C136 1.403 . S
C130 C120 1.476 . S
C130 N125 1.318 . S
C130 C129 1.396 . S
H131 C126 0.929 . S
O132 Mn108 2.385 . S
O132 C110 1.234 . S
O133 Mn108 2.209 . S
O133 Mn109 2.215 . S
O133 C110 1.283 . S
O134 Mn108 2.094 . S
O134 C112 1.240 . S
O135 Mn109 2.117 . S
O135 C112 1.264 . S
C136 C129 1.403 . S
C136 C137 1.399 . S
C136 H142 0.929 . S
C137 C117 1.449 . S
C137 C136 1.399 . S
C137 H143 0.930 . S
H138 C118 0.931 . S
H139 C119 0.930 . S
H140 C127 0.931 . S
H141 C128 0.929 . S
H142 C136 0.929 . S
H143 C137 0.930 . S
Mn144 O149 2.095 . S
Mn144 O159 2.162 . S
Mn144 O160 2.297 . S
Mn144 O168 2.385 1_455 S
Mn144 O169 2.209 1_455 S
Mn144 O170 2.094 1_455 S
Mn145 O150 2.121 1_655 S
Mn145 N152 2.257 . S
Mn145 N161 2.282 . S
Mn145 O169 2.215 . S
Mn145 O171 2.117 . S
C146 O168 1.234 . S
C146 O169 1.283 . S
C147 O159 1.281 . S
C147 O160 1.236 . S
C148 O170 1.240 . S
C148 O171 1.264 . S
O149 Mn144 2.095 . S
O149 C158 1.250 . S
O150 Mn145 2.121 1_455 S
O150 C158 1.258 . S
C151 N152 1.326 1_556 S
C151 C155 1.460 . S
C151 H157 0.929 1_655 S
N152 Mn145 2.257 . S
N152 C151 1.326 1_554 S
N152 C156 1.364 . S
C153 C154 1.258 . S
C153 C156 1.427 1_556 S
C153 C173 1.449 . S
C154 C153 1.258 . S
C154 C155 1.477 . S
C154 H174 0.931 . S
C155 C151 1.460 . S
C155 C154 1.477 . S
C155 H175 0.921 1_655 S
C156 N152 1.364 . S
C156 C153 1.427 1_554 S
C156 C166 1.479 . S
H157 C151 0.929 1_455 S
C158 O149 1.250 . S
C158 O150 1.258 . S
O159 Mn144 2.162 . S
O159 C147 1.281 . S
O160 Mn144 2.297 . S
O160 C147 1.236 . S
N161 Mn145 2.282 . S
N161 C162 1.328 . S
N161 C166 1.318 . S
C162 N161 1.328 . S
C162 C163 1.457 . S
C162 H167 0.929 . S
C163 C162 1.457 . S
C163 C164 1.291 . S
C163 H176 0.931 . S
C164 C163 1.291 . S
C164 C165 1.373 . S
C164 H177 0.929 . S
C165 C164 1.373 . S
C165 C166 1.396 . S
C165 C172 1.403 1_554 S
C166 C156 1.479 . S
C166 N161 1.318 . S
C166 C165 1.396 . S
H167 C162 0.929 . S
O168 Mn144 2.385 1_655 S
O168 C146 1.234 . S
O169 Mn144 2.209 1_655 S
O169 Mn145 2.215 . S
O169 C146 1.283 . S
O170 Mn144 2.094 1_655 S
O170 C148 1.240 . S
O171 Mn145 2.117 . S
O171 C148 1.264 . S
C172 C165 1.403 1_556 S
C172 C173 1.399 . S
C172 H178 0.929 . S
C173 C153 1.449 . S
C173 C172 1.399 . S
C173 H179 0.930 . S
H174 C154 0.931 . S
H175 C155 0.921 1_455 S
H176 C163 0.931 . S
H177 C164 0.929 . S
H178 C172 0.929 . S
H179 C173 0.930 . S
Mn180 O185 2.095 . S
Mn180 O195 2.162 . S
Mn180 O196 2.297 . S
Mn180 O204 2.385 . S
Mn180 O205 2.209 . S
Mn180 O206 2.094 . S
Mn181 O186 2.121 . S
Mn181 N188 2.257 . S
Mn181 N197 2.282 . S
Mn181 O205 2.215 . S
Mn181 O207 2.117 . S
C182 O204 1.234 . S
C182 O205 1.283 . S
C183 O195 1.281 . S
C183 O196 1.236 . S
C184 O206 1.240 . S
C184 O207 1.264 . S
O185 Mn180 2.095 . S
O185 C194 1.250 . S
O186 Mn181 2.121 . S
O186 C194 1.258 . S
C187 N188 1.326 . S
C187 C191 1.460 . S
C187 H193 0.929 . S
N188 Mn181 2.257 . S
N188 C187 1.326 . S
N188 C192 1.362 . S
C189 C190 1.258 . S
C189 C192 1.431 . S
C189 C209 1.449 . S
C190 C189 1.258 . S
C190 C191 1.477 . S
C190 H210 0.931 . S
C191 C187 1.460 . S
C191 C190 1.477 . S
C191 H211 0.930 . S
C192 N188 1.362 . S
C192 C189 1.431 . S
C192 C202 1.476 . S
H193 C187 0.929 . S
C194 O185 1.250 . S
C194 O186 1.258 . S
O195 Mn180 2.162 . S
O195 C183 1.281 . S
O196 Mn180 2.297 . S
O196 C183 1.236 . S
N197 Mn181 2.282 . S
N197 C198 1.328 . S
N197 C202 1.318 . S
C198 N197 1.328 . S
C198 C199 1.457 . S
C198 H203 0.929 . S
C199 C198 1.457 . S
C199 C200 1.291 . S
C199 H212 0.931 . S
C200 C199 1.291 . S
C200 C201 1.373 . S
C200 H213 0.929 . S
C201 C200 1.373 . S
C201 C202 1.396 . S
C201 C208 1.403 . S
C202 C192 1.476 . S
C202 N197 1.318 . S
C202 C201 1.396 . S
H203 C198 0.929 . S
O204 Mn180 2.385 . S
O204 C182 1.234 . S
O205 Mn180 2.209 . S
O205 Mn181 2.215 . S
O205 C182 1.283 . S
O206 Mn180 2.094 . S
O206 C184 1.240 . S
O207 Mn181 2.117 . S
O207 C184 1.264 . S
C208 C201 1.403 . S
C208 C209 1.399 . S
C208 H214 0.929 . S
C209 C189 1.449 . S
C209 C208 1.399 . S
C209 H215 0.930 . S
H210 C190 0.931 . S
H211 C191 0.930 . S
H212 C199 0.931 . S
H213 C200 0.929 . S
H214 C208 0.929 . S
H215 C209 0.930 . S
Mn216 O221 2.095 . S
Mn216 O231 2.162 . S
Mn216 O232 2.297 . S
Mn216 O240 2.385 . S
Mn216 O241 2.209 . S
Mn216 O242 2.094 . S
Mn217 O222 2.121 . S
Mn217 N224 2.257 . S
Mn217 N233 2.282 . S
Mn217 O241 2.215 . S
Mn217 O243 2.117 . S
C218 O240 1.234 . S
C218 O241 1.283 . S
C219 O231 1.281 . S
C219 O232 1.236 . S
C220 O242 1.240 . S
C220 O243 1.264 . S
O221 Mn216 2.095 . S
O221 C230 1.250 . S
O222 Mn217 2.121 . S
O222 C230 1.258 . S
C223 N224 1.326 . S
C223 C227 1.460 . S
C223 H229 0.929 . S
N224 Mn217 2.257 . S
N224 C223 1.326 . S
N224 C228 1.362 . S
C225 C226 1.258 . S
C225 C228 1.431 . S
C225 C245 1.449 . S
C226 C225 1.258 . S
C226 C227 1.477 . S
C226 H246 0.931 . S
C227 C223 1.460 . S
C227 C226 1.477 . S
C227 H247 0.930 . S
C228 N224 1.362 . S
C228 C225 1.431 . S
C228 C238 1.476 . S
H229 C223 0.929 . S
C230 O221 1.250 . S
C230 O222 1.258 . S
O231 Mn216 2.162 . S
O231 C219 1.281 . S
O232 Mn216 2.297 . S
O232 C219 1.236 . S
N233 Mn217 2.282 . S
N233 C234 1.328 . S
N233 C238 1.318 . S
C234 N233 1.328 . S
C234 C235 1.457 . S
C234 H239 0.929 . S
C235 C234 1.457 . S
C235 C236 1.291 . S
C235 H248 0.931 . S
C236 C235 1.291 . S
C236 C237 1.373 . S
C236 H249 0.929 . S
C237 C236 1.373 . S
C237 C238 1.396 . S
C237 C244 1.403 . S
C238 C228 1.476 . S
C238 N233 1.318 . S
C238 C237 1.396 . S
H239 C234 0.929 . S
O240 Mn216 2.385 . S
O240 C218 1.234 . S
O241 Mn216 2.209 . S
O241 Mn217 2.215 . S
O241 C218 1.283 . S
O242 Mn216 2.094 . S
O242 C220 1.240 . S
O243 Mn217 2.117 . S
O243 C220 1.264 . S
C244 C237 1.403 . S
C244 C245 1.399 . S
C244 H250 0.929 . S
C245 C225 1.449 . S
C245 C244 1.399 . S
C245 H251 0.930 . S
H246 C226 0.931 . S
H247 C227 0.930 . S
H248 C235 0.931 . S
H249 C236 0.929 . S
H250 C244 0.929 . S
H251 C245 0.930 . S
Mn252 O257 2.095 1_455 S
Mn252 O267 2.162 . S
Mn252 O268 2.297 . S
Mn252 O276 2.385 . S
Mn252 O277 2.209 . S
Mn252 O278 2.094 1_455 S
Mn253 O258 2.121 . S
Mn253 N260 2.257 1_656 S
Mn253 N269 2.282 1_655 S
Mn253 O277 2.215 1_655 S
Mn253 O279 2.117 . S
C254 O276 1.234 . S
C254 O277 1.283 . S
C255 O267 1.281 . S
C255 O268 1.236 . S
C256 O278 1.240 . S
C256 O279 1.264 . S
O257 Mn252 2.095 1_655 S
O257 C266 1.250 . S
O258 Mn253 2.121 . S
O258 C266 1.258 . S
C259 N260 1.326 1_655 S
C259 C263 1.460 1_655 S
C259 H265 0.929 . S
N260 Mn253 2.257 1_454 S
N260 C259 1.326 1_455 S
N260 C264 1.362 . S
C261 C262 1.258 . S
C261 C264 1.431 . S
C261 C281 1.449 . S
C262 C261 1.258 . S
C262 C263 1.477 . S
C262 H282 0.931 . S
C263 C259 1.460 1_455 S
C263 C262 1.477 . S
C263 H283 0.930 . S
C264 N260 1.362 . S
C264 C261 1.431 . S
C264 C274 1.476 1_554 S
H265 C259 0.929 . S
C266 O257 1.250 . S
C266 O258 1.258 . S
O267 Mn252 2.162 . S
O267 C255 1.281 . S
O268 Mn252 2.297 . S
O268 C255 1.236 . S
N269 Mn253 2.282 1_455 S
N269 C270 1.328 . S
N269 C274 1.318 . S
C270 N269 1.328 . S
C270 C271 1.457 . S
C270 H275 0.929 . S
C271 C270 1.457 . S
C271 C272 1.291 . S
C271 H284 0.931 . S
C272 C271 1.291 . S
C272 C273 1.373 . S
C272 H285 0.929 . S
C273 C272 1.373 . S
C273 C274 1.396 . S
C273 C280 1.403 1_556 S
C274 C264 1.476 1_556 S
C274 N269 1.318 . S
C274 C273 1.396 . S
H275 C270 0.929 . S
O276 Mn252 2.385 . S
O276 C254 1.234 . S
O277 Mn252 2.209 . S
O277 Mn253 2.215 1_455 S
O277 C254 1.283 . S
O278 Mn252 2.094 1_655 S
O278 C256 1.240 . S
O279 Mn253 2.117 . S
O279 C256 1.264 . S
C280 C273 1.403 1_554 S
C280 C281 1.399 . S
C280 H286 0.929 . S
C281 C261 1.449 . S
C281 C280 1.399 . S
C281 H287 0.930 . S
H282 C262 0.931 . S
H283 C263 0.930 . S
H284 C271 0.931 . S
H285 C272 0.929 . S
H286 C280 0.929 . S
H287 C281 0.930 . S
Mn288 O293 2.095 . S
Mn288 O303 2.162 . S
Mn288 O304 2.297 . S
Mn288 O312 2.385 1_545 S
Mn288 O313 2.209 1_545 S
Mn288 O314 2.094 1_545 S
Mn289 O294 2.121 1_565 S
Mn289 N296 2.257 . S
Mn289 N305 2.282 . S
Mn289 O313 2.215 . S
Mn289 O315 2.117 . S
C290 O312 1.234 . S
C290 O313 1.283 . S
C291 O303 1.281 . S
C291 O304 1.236 . S
C292 O314 1.240 . S
C292 O315 1.264 . S
O293 Mn288 2.095 . S
O293 C302 1.250 . S
O294 Mn289 2.121 1_545 S
O294 C302 1.258 . S
C295 N296 1.326 . S
C295 C299 1.460 . S
C295 H301 0.925 1_565 S
N296 Mn289 2.257 . S
N296 C295 1.326 . S
N296 C300 1.362 . S
C297 C298 1.258 . S
C297 C300 1.431 . S
C297 C317 1.449 . S
C298 C297 1.258 . S
C298 C299 1.477 . S
C298 H318 0.931 . S
C299 C295 1.460 . S
C299 C298 1.477 . S
C299 H319 0.930 . S
C300 N296 1.362 . S
C300 C297 1.431 . S
C300 C310 1.476 . S
H301 C295 0.925 1_545 S
C302 O293 1.250 . S
C302 O294 1.258 . S
O303 Mn288 2.162 . S
O303 C291 1.281 . S
O304 Mn288 2.297 . S
O304 C291 1.236 . S
N305 Mn289 2.282 . S
N305 C306 1.328 . S
N305 C310 1.318 . S
C306 N305 1.328 . S
C306 C307 1.457 . S
C306 H311 0.929 . S
C307 C306 1.457 . S
C307 C308 1.291 . S
C307 H320 0.931 . S
C308 C307 1.291 . S
C308 C309 1.373 . S
C308 H321 0.929 . S
C309 C308 1.373 . S
C309 C310 1.396 . S
C309 C316 1.403 . S
C310 C300 1.476 . S
C310 N305 1.318 . S
C310 C309 1.396 . S
H311 C306 0.929 . S
O312 Mn288 2.385 1_565 S
O312 C290 1.234 . S
O313 Mn288 2.209 1_565 S
O313 Mn289 2.215 . S
O313 C290 1.283 . S
O314 Mn288 2.094 1_565 S
O314 C292 1.240 . S
O315 Mn289 2.117 . S
O315 C292 1.264 . S
C316 C309 1.403 . S
C316 C317 1.399 . S
C316 H322 0.929 . S
C317 C297 1.449 . S
C317 C316 1.399 . S
C317 H323 0.930 . S
H318 C298 0.931 . S
H319 C299 0.930 . S
H320 C307 0.931 . S
H321 C308 0.929 . S
H322 C316 0.929 . S
H323 C317 0.930 . S
Mn324 O329 2.095 . S
Mn324 O339 2.162 . S
Mn324 O340 2.297 . S
Mn324 O348 2.385 . S
Mn324 O349 2.209 . S
Mn324 O350 2.094 . S
Mn325 O330 2.121 . S
Mn325 N332 2.257 . S
Mn325 N341 2.282 . S
Mn325 O349 2.215 . S
Mn325 O351 2.117 . S
C326 O348 1.234 . S
C326 O349 1.283 . S
C327 O339 1.281 . S
C327 O340 1.236 . S
C328 O350 1.240 . S
C328 O351 1.264 . S
O329 Mn324 2.095 . S
O329 C338 1.250 . S
O330 Mn325 2.121 . S
O330 C338 1.258 . S
C331 N332 1.326 . S
C331 C335 1.460 . S
C331 H337 0.929 . S
N332 Mn325 2.257 . S
N332 C331 1.326 . S
N332 C336 1.362 . S
C333 C334 1.258 . S
C333 C336 1.431 . S
C333 C353 1.449 . S
C334 C333 1.258 . S
C334 C335 1.477 . S
C334 H354 0.931 . S
C335 C331 1.460 . S
C335 C334 1.477 . S
C335 H355 0.930 . S
C336 N332 1.362 . S
C336 C333 1.431 . S
C336 C346 1.476 . S
H337 C331 0.929 . S
C338 O329 1.250 . S
C338 O330 1.258 . S
O339 Mn324 2.162 . S
O339 C327 1.281 . S
O340 Mn324 2.297 . S
O340 C327 1.236 . S
N341 Mn325 2.282 . S
N341 C342 1.328 . S
N341 C346 1.318 . S
C342 N341 1.328 . S
C342 C343 1.457 . S
C342 H347 0.929 . S
C343 C342 1.457 . S
C343 C344 1.291 . S
C343 H356 0.931 . S
C344 C343 1.291 . S
C344 C345 1.373 . S
C344 H357 0.929 . S
C345 C344 1.373 . S
C345 C346 1.396 . S
C345 C352 1.403 . S
C346 C336 1.476 . S
C346 N341 1.318 . S
C346 C345 1.396 . S
H347 C342 0.929 . S
O348 Mn324 2.385 . S
O348 C326 1.234 . S
O349 Mn324 2.209 . S
O349 Mn325 2.215 . S
O349 C326 1.283 . S
O350 Mn324 2.094 . S
O350 C328 1.240 . S
O351 Mn325 2.117 . S
O351 C328 1.264 . S
C352 C345 1.403 . S
C352 C353 1.399 . S
C352 H358 0.929 . S
C353 C333 1.449 . S
C353 C352 1.399 . S
C353 H359 0.930 . S
H354 C334 0.931 . S
H355 C335 0.930 . S
H356 C343 0.931 . S
H357 C344 0.929 . S
H358 C352 0.929 . S
H359 C353 0.930 . S
Mn360 O365 2.095 . S
Mn360 O375 2.162 . S
Mn360 O376 2.297 . S
Mn360 O384 2.385 1_545 S
Mn360 O385 2.209 1_545 S
Mn360 O386 2.094 1_545 S
Mn361 O366 2.121 1_565 S
Mn361 N368 2.257 . S
Mn361 N377 2.282 . S
Mn361 O385 2.215 . S
Mn361 O387 2.117 . S
C362 O384 1.234 . S
C362 O385 1.283 . S
C363 O375 1.281 . S
C363 O376 1.236 . S
C364 O386 1.240 . S
C364 O387 1.264 . S
O365 Mn360 2.095 . S
O365 C374 1.250 . S
O366 Mn361 2.121 1_545 S
O366 C374 1.258 . S
C367 N368 1.326 . S
C367 C371 1.460 . S
C367 H373 0.929 . S
N368 Mn361 2.257 . S
N368 C367 1.326 . S
N368 C372 1.362 . S
C369 C370 1.258 . S
C369 C372 1.431 . S
C369 C389 1.449 . S
C370 C369 1.258 . S
C370 C371 1.477 . S
C370 H390 0.931 . S
C371 C367 1.460 . S
C371 C370 1.477 . S
C371 H391 0.930 . S
C372 N368 1.362 . S
C372 C369 1.431 . S
C372 C382 1.476 . S
H373 C367 0.929 . S
C374 O365 1.250 . S
C374 O366 1.258 . S
O375 Mn360 2.162 . S
O375 C363 1.281 . S
O376 Mn360 2.297 . S
O376 C363 1.236 . S
N377 Mn361 2.282 . S
N377 C378 1.328 . S
N377 C382 1.318 . S
C378 N377 1.328 . S
C378 C379 1.457 . S
C378 H383 0.929 . S
C379 C378 1.457 . S
C379 C380 1.291 . S
C379 H392 0.931 . S
C380 C379 1.291 . S
C380 C381 1.373 . S
C380 H393 0.929 . S
C381 C380 1.373 . S
C381 C382 1.396 . S
C381 C388 1.403 . S
C382 C372 1.476 . S
C382 N377 1.318 . S
C382 C381 1.396 . S
H383 C378 0.929 . S
O384 Mn360 2.385 1_565 S
O384 C362 1.234 . S
O385 Mn360 2.209 1_565 S
O385 Mn361 2.215 . S
O385 C362 1.283 . S
O386 Mn360 2.094 1_565 S
O386 C364 1.240 . S
O387 Mn361 2.117 . S
O387 C364 1.264 . S
C388 C381 1.403 . S
C388 C389 1.399 . S
C388 H394 0.929 . S
C389 C369 1.449 . S
C389 C388 1.399 . S
C389 H395 0.930 . S
H390 C370 0.931 . S
H391 C371 0.930 . S
H392 C379 0.931 . S
H393 C380 0.929 . S
H394 C388 0.929 . S
H395 C389 0.930 . S
Mn396 O401 2.095 1_554 S
Mn396 O411 2.162 . S
Mn396 O412 2.297 . S
Mn396 O420 2.385 . S
Mn396 O421 2.209 . S
Mn396 O422 2.094 1_554 S
Mn397 O402 2.121 . S
Mn397 N404 2.257 . S
Mn397 N413 2.282 . S
Mn397 O421 2.215 1_556 S
Mn397 O423 2.117 . S
C398 O420 1.234 . S
C398 O421 1.283 . S
C399 O411 1.281 . S
C399 O412 1.236 . S
C400 O422 1.240 . S
C400 O423 1.264 . S
O401 Mn396 2.095 1_556 S
O401 C410 1.250 . S
O402 Mn397 2.121 . S
O402 C410 1.258 . S
C403 N404 1.326 . S
C403 C407 1.460 . S
C403 H409 0.929 . S
N404 Mn397 2.257 . S
N404 C403 1.326 . S
N404 C408 1.362 . S
C405 C406 1.258 . S
C405 C408 1.431 . S
C405 C425 1.449 . S
C406 C405 1.258 . S
C406 C407 1.477 . S
C406 H426 0.931 . S
C407 C403 1.460 . S
C407 C406 1.477 . S
C407 H427 0.930 . S
C408 N404 1.362 . S
C408 C405 1.431 . S
C408 C418 1.476 . S
H409 C403 0.929 . S
C410 O401 1.250 . S
C410 O402 1.258 . S
O411 Mn396 2.162 . S
O411 C399 1.281 . S
O412 Mn396 2.297 . S
O412 C399 1.236 . S
N413 Mn397 2.282 . S
N413 C414 1.328 . S
N413 C418 1.318 . S
C414 N413 1.328 . S
C414 C415 1.457 . S
C414 H419 0.929 . S
C415 C414 1.457 . S
C415 C416 1.291 . S
C415 H428 0.931 . S
C416 C415 1.291 . S
C416 C417 1.373 . S
C416 H429 0.929 . S
C417 C416 1.373 . S
C417 C418 1.396 . S
C417 C424 1.403 . S
C418 C408 1.476 . S
C418 N413 1.318 . S
C418 C417 1.396 . S
H419 C414 0.929 . S
O420 Mn396 2.385 . S
O420 C398 1.234 . S
O421 Mn396 2.209 . S
O421 Mn397 2.215 1_554 S
O421 C398 1.283 . S
O422 Mn396 2.094 1_556 S
O422 C400 1.240 . S
O423 Mn397 2.117 . S
O423 C400 1.264 . S
C424 C417 1.403 . S
C424 C425 1.399 . S
C424 H430 0.929 . S
C425 C405 1.449 . S
C425 C424 1.399 . S
C425 H431 0.930 . S
H426 C406 0.931 . S
H427 C407 0.930 . S
H428 C415 0.931 . S
H429 C416 0.929 . S
H430 C424 0.929 . S
H431 C425 0.930 . S
Mn432 O437 2.095 . S
Mn432 O447 2.162 . S
Mn432 O448 2.297 . S
Mn432 O456 2.385 1_554 S
Mn432 O457 2.209 1_554 S
Mn432 O458 2.094 1_554 S
Mn433 O438 2.114 1_556 S
Mn433 N440 2.257 . S
Mn433 N449 2.282 . S
Mn433 O457 2.215 . S
Mn433 O459 2.117 . S
C434 O456 1.234 . S
C434 O457 1.283 . S
C435 O447 1.281 . S
C435 O448 1.236 . S
C436 O458 1.240 . S
C436 O459 1.264 . S
O437 Mn432 2.095 . S
O437 C446 1.250 . S
O438 Mn433 2.114 1_554 S
O438 C446 1.264 . S
C439 N440 1.326 . S
C439 C443 1.460 . S
C439 H445 0.929 . S
N440 Mn433 2.257 . S
N440 C439 1.326 . S
N440 C444 1.362 . S
C441 C442 1.258 . S
C441 C444 1.431 . S
C441 C461 1.449 . S
C442 C441 1.258 . S
C442 C443 1.477 . S
C442 H462 0.931 . S
C443 C439 1.460 . S
C443 C442 1.477 . S
C443 H463 0.930 . S
C444 N440 1.362 . S
C444 C441 1.431 . S
C444 C454 1.476 . S
H445 C439 0.929 . S
C446 O437 1.250 . S
C446 O438 1.264 . S
O447 Mn432 2.162 . S
O447 C435 1.281 . S
O448 Mn432 2.297 . S
O448 C435 1.236 . S
N449 Mn433 2.282 . S
N449 C450 1.328 . S
N449 C454 1.318 . S
C450 N449 1.328 . S
C450 C451 1.457 . S
C450 H455 0.929 . S
C451 C450 1.457 . S
C451 C452 1.291 . S
C451 H464 0.931 . S
C452 C451 1.291 . S
C452 C453 1.373 . S
C452 H465 0.929 . S
C453 C452 1.373 . S
C453 C454 1.396 . S
C453 C460 1.403 . S
C454 C444 1.476 . S
C454 N449 1.318 . S
C454 C453 1.396 . S
H455 C450 0.929 . S
O456 Mn432 2.385 1_556 S
O456 C434 1.234 . S
O457 Mn432 2.209 1_556 S
O457 Mn433 2.215 . S
O457 C434 1.283 . S
O458 Mn432 2.094 1_556 S
O458 C436 1.240 . S
O459 Mn433 2.117 . S
O459 C436 1.264 . S
C460 C453 1.403 . S
C460 C461 1.399 . S
C460 H466 0.929 . S
C461 C441 1.449 . S
C461 C460 1.399 . S
C461 H467 0.930 . S
H462 C442 0.931 . S
H463 C443 0.930 . S
H464 C451 0.931 . S
H465 C452 0.929 . S
H466 C460 0.929 . S
H467 C461 0.930 . S
Mn468 O473 2.095 . S
Mn468 O483 2.162 . S
Mn468 O484 2.297 . S
Mn468 O492 2.385 1_554 S
Mn468 O493 2.209 1_554 S
Mn468 O494 2.094 1_554 S
Mn469 O474 2.121 1_556 S
Mn469 N476 2.257 . S
Mn469 N485 2.282 . S
Mn469 O493 2.215 . S
Mn469 O495 2.117 . S
C470 O492 1.234 . S
C470 O493 1.283 . S
C471 O483 1.281 . S
C471 O484 1.236 . S
C472 O494 1.240 . S
C472 O495 1.264 . S
O473 Mn468 2.095 . S
O473 C482 1.250 . S
O474 Mn469 2.121 1_554 S
O474 C482 1.258 . S
C475 N476 1.326 1_565 S
C475 C479 1.460 . S
C475 H481 0.929 1_566 S
N476 Mn469 2.257 . S
N476 C475 1.326 1_545 S
N476 C480 1.362 . S
C477 C478 1.258 . S
C477 C480 1.431 1_565 S
C477 C497 1.449 . S
C478 C477 1.258 . S
C478 C479 1.477 . S
C478 H498 0.931 . S
C479 C475 1.460 . S
C479 C478 1.477 . S
C479 H499 0.930 . S
C480 N476 1.362 . S
C480 C477 1.431 1_545 S
C480 C490 1.476 . S
H481 C475 0.929 1_544 S
C482 O473 1.250 . S
C482 O474 1.258 . S
O483 Mn468 2.162 . S
O483 C471 1.281 . S
O484 Mn468 2.297 . S
O484 C471 1.236 . S
N485 Mn469 2.282 . S
N485 C486 1.328 . S
N485 C490 1.318 . S
C486 N485 1.328 . S
C486 C487 1.457 . S
C486 H491 0.929 . S
C487 C486 1.457 . S
C487 C488 1.291 . S
C487 H500 0.931 . S
C488 C487 1.291 . S
C488 C489 1.373 . S
C488 H501 0.929 . S
C489 C488 1.373 . S
C489 C490 1.396 . S
C489 C496 1.403 1_545 S
C490 C480 1.476 . S
C490 N485 1.318 . S
C490 C489 1.396 . S
H491 C486 0.929 . S
O492 Mn468 2.385 1_556 S
O492 C470 1.234 . S
O493 Mn468 2.209 1_556 S
O493 Mn469 2.215 . S
O493 C470 1.283 . S
O494 Mn468 2.094 1_556 S
O494 C472 1.240 . S
O495 Mn469 2.117 . S
O495 C472 1.264 . S
C496 C489 1.403 1_565 S
C496 C497 1.399 . S
C496 H502 0.929 . S
C497 C477 1.449 . S
C497 C496 1.399 . S
C497 H503 0.930 . S
H498 C478 0.931 . S
H499 C479 0.930 . S
H500 C487 0.931 . S
H501 C488 0.929 . S
H502 C496 0.929 . S
H503 C497 0.930 . S
Mn504 O509 2.095 . S
Mn504 O519 2.162 . S
Mn504 O520 2.297 . S
Mn504 O528 2.385 . S
Mn504 O529 2.209 . S
Mn504 O530 2.094 . S
Mn505 O510 2.121 . S
Mn505 N512 2.257 . S
Mn505 N521 2.282 . S
Mn505 O529 2.215 . S
Mn505 O531 2.117 . S
C506 O528 1.234 . S
C506 O529 1.283 . S
C507 O519 1.281 . S
C507 O520 1.236 . S
C508 O530 1.240 . S
C508 O531 1.264 . S
O509 Mn504 2.095 . S
O509 C518 1.250 . S
O510 Mn505 2.121 . S
O510 C518 1.258 . S
C511 N512 1.326 1_655 S
C511 C515 1.460 . S
C511 H517 0.929 . S
N512 Mn505 2.257 . S
N512 C511 1.326 1_455 S
N512 C516 1.363 1_455 S
C513 C514 1.258 . S
C513 C516 1.428 . S
C513 C533 1.449 . S
C514 C513 1.258 . S
C514 C515 1.477 . S
C514 H534 0.931 . S
C515 C511 1.460 . S
C515 C514 1.477 . S
C515 H535 0.930 . S
C516 N512 1.363 1_655 S
C516 C513 1.428 . S
C516 C526 1.478 1_655 S
H517 C511 0.929 . S
C518 O509 1.250 . S
C518 O510 1.258 . S
O519 Mn504 2.162 . S
O519 C507 1.281 . S
O520 Mn504 2.297 . S
O520 C507 1.236 . S
N521 Mn505 2.282 . S
N521 C522 1.328 . S
N521 C526 1.318 . S
C522 N521 1.328 . S
C522 C523 1.457 . S
C522 H527 0.929 . S
C523 C522 1.457 . S
C523 C524 1.291 . S
C523 H536 0.931 . S
C524 C523 1.291 . S
C524 C525 1.373 . S
C524 H537 0.929 . S
C525 C524 1.373 . S
C525 C526 1.396 . S
C525 C532 1.403 1_455 S
C526 C516 1.478 1_455 S
C526 N521 1.318 . S
C526 C525 1.396 . S
H527 C522 0.929 . S
O528 Mn504 2.385 . S
O528 C506 1.234 . S
O529 Mn504 2.209 . S
O529 Mn505 2.215 . S
O529 C506 1.283 . S
O530 Mn504 2.094 . S
O530 C508 1.240 . S
O531 Mn505 2.117 . S
O531 C508 1.264 . S
C532 C525 1.403 1_655 S
C532 C533 1.399 . S
C532 H538 0.929 . S
C533 C513 1.449 . S
C533 C532 1.399 . S
C533 H539 0.930 . S
H534 C514 0.931 . S
H535 C515 0.930 . S
H536 C523 0.931 . S
H537 C524 0.929 . S
H538 C532 0.929 . S
H539 C533 0.930 . S
Mn540 O545 2.095 . S
Mn540 O555 2.162 . S
Mn540 O556 2.297 . S
Mn540 O564 2.385 . S
Mn540 O565 2.209 . S
Mn540 O566 2.094 . S
Mn541 O546 2.121 . S
Mn541 N548 2.257 . S
Mn541 N557 2.282 . S
Mn541 O565 2.215 . S
Mn541 O567 2.117 . S
C542 O564 1.234 . S
C542 O565 1.283 . S
C543 O555 1.281 . S
C543 O556 1.236 . S
C544 O566 1.240 . S
C544 O567 1.264 . S
O545 Mn540 2.095 . S
O545 C554 1.250 . S
O546 Mn541 2.121 . S
O546 C554 1.258 . S
C547 N548 1.326 . S
C547 C551 1.460 . S
C547 H553 0.929 . S
N548 Mn541 2.257 . S
N548 C547 1.326 . S
N548 C552 1.362 . S
C549 C550 1.258 . S
C549 C552 1.431 . S
C549 C569 1.449 . S
C550 C549 1.258 . S
C550 C551 1.477 . S
C550 H570 0.931 . S
C551 C547 1.460 . S
C551 C550 1.477 . S
C551 H571 0.930 . S
C552 N548 1.362 . S
C552 C549 1.431 . S
C552 C562 1.476 . S
H553 C547 0.929 . S
C554 O545 1.250 . S
C554 O546 1.258 . S
O555 Mn540 2.162 . S
O555 C543 1.281 . S
O556 Mn540 2.297 . S
O556 C543 1.236 . S
N557 Mn541 2.282 . S
N557 C558 1.328 . S
N557 C562 1.318 . S
C558 N557 1.328 . S
C558 C559 1.457 . S
C558 H563 0.929 . S
C559 C558 1.457 . S
C559 C560 1.291 . S
C559 H572 0.931 . S
C560 C559 1.291 . S
C560 C561 1.373 . S
C560 H573 0.929 . S
C561 C560 1.373 . S
C561 C562 1.396 . S
C561 C568 1.403 . S
C562 C552 1.476 . S
C562 N557 1.318 . S
C562 C561 1.396 . S
H563 C558 0.929 . S
O564 Mn540 2.385 . S
O564 C542 1.234 . S
O565 Mn540 2.209 . S
O565 Mn541 2.215 . S
O565 C542 1.283 . S
O566 Mn540 2.094 . S
O566 C544 1.240 . S
O567 Mn541 2.117 . S
O567 C544 1.264 . S
C568 C561 1.403 . S
C568 C569 1.399 . S
C568 H574 0.929 . S
C569 C549 1.449 . S
C569 C568 1.399 . S
C569 H575 0.930 . S
H570 C550 0.931 . S
H571 C551 0.930 . S
H572 C559 0.931 . S
H573 C560 0.929 . S
H574 C568 0.929 . S
H575 C569 0.930 . S
Mn576 O581 2.095 1_545 S
Mn576 O591 2.162 . S
Mn576 O592 2.297 . S
Mn576 O600 2.385 . S
Mn576 O601 2.209 . S
Mn576 O602 2.094 1_545 S
Mn577 O582 2.121 . S
Mn577 N584 2.257 1_665 S
Mn577 N593 2.282 1_565 S
Mn577 O601 2.215 1_565 S
Mn577 O603 2.117 . S
C578 O600 1.234 . S
C578 O601 1.283 . S
C579 O591 1.281 . S
C579 O592 1.236 . S
C580 O602 1.240 . S
C580 O603 1.264 . S
O581 Mn576 2.095 1_565 S
O581 C590 1.250 . S
O582 Mn577 2.121 . S
O582 C590 1.258 . S
C583 N584 1.326 1_565 S
C583 C587 1.460 1_565 S
C583 H589 0.929 . S
N584 Mn577 2.257 1_445 S
N584 C583 1.326 1_545 S
N584 C588 1.362 . S
C585 C586 1.258 . S
C585 C588 1.431 . S
C585 C605 1.449 . S
C586 C585 1.258 . S
C586 C587 1.477 . S
C586 H606 0.931 . S
C587 C583 1.460 1_545 S
C587 C586 1.477 . S
C587 H607 0.930 1_545 S
C588 N584 1.362 . S
C588 C585 1.431 . S
C588 C598 1.476 1_455 S
H589 C583 0.929 . S
C590 O581 1.250 . S
C590 O582 1.258 . S
O591 Mn576 2.162 . S
O591 C579 1.281 . S
O592 Mn576 2.297 . S
O592 C579 1.236 . S
N593 Mn577 2.282 1_545 S
N593 C594 1.328 . S
N593 C598 1.318 . S
C594 N593 1.328 . S
C594 C595 1.457 . S
C594 H599 0.929 . S
C595 C594 1.457 . S
C595 C596 1.291 . S
C595 H608 0.931 . S
C596 C595 1.291 . S
C596 C597 1.373 . S
C596 H609 0.929 . S
C597 C596 1.373 . S
C597 C598 1.396 . S
C597 C604 1.403 1_655 S
C598 C588 1.476 1_655 S
C598 N593 1.318 . S
C598 C597 1.396 . S
H599 C594 0.929 . S
O600 Mn576 2.385 . S
O600 C578 1.234 . S
O601 Mn576 2.209 . S
O601 Mn577 2.215 1_545 S
O601 C578 1.283 . S
O602 Mn576 2.094 1_565 S
O602 C580 1.240 . S
O603 Mn577 2.117 . S
O603 C580 1.264 . S
C604 C597 1.403 1_455 S
C604 C605 1.399 . S
C604 H610 0.929 . S
C605 C585 1.449 . S
C605 C604 1.399 . S
C605 H611 0.930 . S
H606 C586 0.931 . S
H607 C587 0.930 1_565 S
H608 C595 0.931 . S
H609 C596 0.929 . S
H610 C604 0.929 . S
H611 C605 0.930 . S
Mn612 O617 2.095 . S
Mn612 O627 2.162 . S
Mn612 O628 2.297 . S
Mn612 O636 2.385 . S
Mn612 O637 2.209 . S
Mn612 O638 2.094 . S
Mn613 O618 2.121 . S
Mn613 N620 2.257 . S
Mn613 N629 2.282 . S
Mn613 O637 2.215 . S
Mn613 O639 2.117 . S
C614 O636 1.234 . S
C614 O637 1.283 . S
C615 O627 1.281 . S
C615 O628 1.236 . S
C616 O638 1.240 . S
C616 O639 1.264 . S
O617 Mn612 2.095 . S
O617 C626 1.250 . S
O618 Mn613 2.121 . S
O618 C626 1.258 . S
C619 N620 1.326 . S
C619 C623 1.460 . S
C619 H625 0.929 . S
N620 Mn613 2.257 . S
N620 C619 1.326 . S
N620 C624 1.362 . S
C621 C622 1.258 . S
C621 C624 1.431 . S
C621 C641 1.449 . S
C622 C621 1.258 . S
C622 C623 1.477 . S
C622 H642 0.931 . S
C623 C619 1.460 . S
C623 C622 1.477 . S
C623 H643 0.930 . S
C624 N620 1.362 . S
C624 C621 1.431 . S
C624 C634 1.476 . S
H625 C619 0.929 . S
C626 O617 1.250 . S
C626 O618 1.258 . S
O627 Mn612 2.162 . S
O627 C615 1.281 . S
O628 Mn612 2.297 . S
O628 C615 1.236 . S
N629 Mn613 2.282 . S
N629 C630 1.328 . S
N629 C634 1.318 . S
C630 N629 1.328 . S
C630 C631 1.457 . S
C630 H635 0.929 . S
C631 C630 1.457 . S
C631 C632 1.291 . S
C631 H644 0.931 . S
C632 C631 1.291 . S
C632 C633 1.373 . S
C632 H645 0.929 . S
C633 C632 1.373 . S
C633 C634 1.396 . S
C633 C640 1.403 . S
C634 C624 1.476 . S
C634 N629 1.318 . S
C634 C633 1.396 . S
H635 C630 0.929 . S
O636 Mn612 2.385 . S
O636 C614 1.234 . S
O637 Mn612 2.209 . S
O637 Mn613 2.215 . S
O637 C614 1.283 . S
O638 Mn612 2.094 . S
O638 C616 1.240 . S
O639 Mn613 2.117 . S
O639 C616 1.264 . S
C640 C633 1.403 . S
C640 C641 1.399 . S
C640 H646 0.929 . S
C641 C621 1.449 . S
C641 C640 1.399 . S
C641 H647 0.930 . S
H642 C622 0.931 . S
H643 C623 0.930 . S
H644 C631 0.931 . S
H645 C632 0.929 . S
H646 C640 0.929 . S
H647 C641 0.930 . S
Mn648 O653 2.095 . S
Mn648 O663 2.162 . S
Mn648 O664 2.297 . S
Mn648 O672 2.385 . S
Mn648 O673 2.209 . S
Mn648 O674 2.094 . S
Mn649 O654 2.121 . S
Mn649 N656 2.257 . S
Mn649 N665 2.282 . S
Mn649 O673 2.215 . S
Mn649 O675 2.117 . S
C650 O672 1.234 . S
C650 O673 1.283 . S
C651 O663 1.281 . S
C651 O664 1.236 . S
C652 O674 1.240 . S
C652 O675 1.264 . S
O653 Mn648 2.095 . S
O653 C662 1.250 . S
O654 Mn649 2.121 . S
O654 C662 1.258 . S
C655 N656 1.326 . S
C655 C659 1.460 . S
C655 H661 0.929 . S
N656 Mn649 2.257 . S
N656 C655 1.326 . S
N656 C660 1.362 . S
C657 C658 1.258 . S
C657 C660 1.431 . S
C657 C677 1.449 . S
C658 C657 1.258 . S
C658 C659 1.477 . S
C658 H678 0.931 . S
C659 C655 1.460 . S
C659 C658 1.477 . S
C659 H679 0.930 . S
C660 N656 1.362 . S
C660 C657 1.431 . S
C660 C670 1.476 . S
H661 C655 0.929 . S
C662 O653 1.250 . S
C662 O654 1.258 . S
O663 Mn648 2.162 . S
O663 C651 1.281 . S
O664 Mn648 2.297 . S
O664 C651 1.236 . S
N665 Mn649 2.282 . S
N665 C666 1.328 . S
N665 C670 1.318 . S
C666 N665 1.328 . S
C666 C667 1.457 . S
C666 H671 0.929 . S
C667 C666 1.457 . S
C667 C668 1.291 . S
C667 H680 0.931 . S
C668 C667 1.291 . S
C668 C669 1.373 . S
C668 H681 0.929 . S
C669 C668 1.373 . S
C669 C670 1.396 . S
C669 C676 1.403 . S
C670 C660 1.476 . S
C670 N665 1.318 . S
C670 C669 1.396 . S
H671 C666 0.929 . S
O672 Mn648 2.385 . S
O672 C650 1.234 . S
O673 Mn648 2.209 . S
O673 Mn649 2.215 . S
O673 C650 1.283 . S
O674 Mn648 2.094 . S
O674 C652 1.240 . S
O675 Mn649 2.117 . S
O675 C652 1.264 . S
C676 C669 1.403 . S
C676 C677 1.399 . S
C676 H682 0.929 . S
C677 C657 1.449 . S
C677 C676 1.399 . S
C677 H683 0.930 . S
H678 C658 0.931 . S
H679 C659 0.930 . S
H680 C667 0.931 . S
H681 C668 0.929 . S
H682 C676 0.929 . S
H683 C677 0.930 . S
Mn684 O689 2.095 . S
Mn684 O699 2.162 1_545 S
Mn684 O700 2.297 1_545 S
Mn684 O708 2.385 1_545 S
Mn684 O709 2.209 1_545 S
Mn684 O710 2.094 . S
Mn685 O690 2.121 . S
Mn685 N692 2.257 . S
Mn685 N701 2.282 1_545 S
Mn685 O709 2.215 1_545 S
Mn685 O711 2.117 . S
C686 O708 1.234 . S
C686 O709 1.283 . S
C687 O699 1.281 . S
C687 O700 1.236 . S
C688 O710 1.240 . S
C688 O711 1.264 . S
O689 Mn684 2.095 . S
O689 C698 1.250 . S
O690 Mn685 2.121 . S
O690 C698 1.258 . S
C691 N692 1.326 . S
C691 C695 1.460 . S
C691 H697 0.929 . S
N692 Mn685 2.257 . S
N692 C691 1.326 . S
N692 C696 1.362 1_545 S
C693 C694 1.258 . S
C693 C696 1.431 . S
C693 C713 1.449 . S
C694 C693 1.258 . S
C694 C695 1.477 1_565 S
C694 H714 0.931 . S
C695 C691 1.460 . S
C695 C694 1.477 1_545 S
C695 H715 0.930 . S
C696 N692 1.362 1_565 S
C696 C693 1.431 . S
C696 C706 1.476 . S
H697 C691 0.929 . S
C698 O689 1.250 . S
C698 O690 1.258 . S
O699 Mn684 2.162 1_565 S
O699 C687 1.281 . S
O700 Mn684 2.297 1_565 S
O700 C687 1.236 . S
N701 Mn685 2.282 1_565 S
N701 C702 1.328 . S
N701 C706 1.318 . S
C702 N701 1.328 . S
C702 C703 1.457 . S
C702 H707 0.929 . S
C703 C702 1.457 . S
C703 C704 1.291 . S
C703 H716 0.931 . S
C704 C703 1.291 . S
C704 C705 1.373 . S
C704 H717 0.929 . S
C705 C704 1.373 . S
C705 C706 1.396 . S
C705 C712 1.403 . S
C706 C696 1.476 . S
C706 N701 1.318 . S
C706 C705 1.396 . S
H707 C702 0.929 . S
O708 Mn684 2.385 1_565 S
O708 C686 1.234 . S
O709 Mn684 2.209 1_565 S
O709 Mn685 2.215 1_565 S
O709 C686 1.283 . S
O710 Mn684 2.094 . S
O710 C688 1.240 . S
O711 Mn685 2.117 . S
O711 C688 1.264 . S
C712 C705 1.403 . S
C712 C713 1.399 . S
C712 H718 0.929 . S
C713 C693 1.449 . S
C713 C712 1.399 . S
C713 H719 0.930 . S
H714 C694 0.931 . S
H715 C695 0.930 . S
H716 C703 0.931 . S
H717 C704 0.929 . S
H718 C712 0.929 . S
H719 C713 0.930 . S
Mn720 O725 2.095 1_554 S
Mn720 O735 2.162 . S
Mn720 O736 2.297 . S
Mn720 O744 2.385 . S
Mn720 O745 2.209 . S
Mn720 O746 2.094 1_554 S
Mn721 O726 2.121 . S
Mn721 N728 2.257 . S
Mn721 N737 2.282 . S
Mn721 O745 2.215 1_556 S
Mn721 O747 2.117 . S
C722 O744 1.234 . S
C722 O745 1.283 . S
C723 O735 1.281 . S
C723 O736 1.236 . S
C724 O746 1.240 . S
C724 O747 1.264 . S
O725 Mn720 2.095 1_556 S
O725 C734 1.250 . S
O726 Mn721 2.121 . S
O726 C734 1.258 . S
C727 N728 1.326 . S
C727 C731 1.460 . S
C727 H733 0.929 . S
N728 Mn721 2.257 . S
N728 C727 1.326 . S
N728 C732 1.362 . S
C729 C730 1.258 . S
C729 C732 1.431 . S
C729 C749 1.449 . S
C730 C729 1.258 . S
C730 C731 1.477 . S
C730 H750 0.931 . S
C731 C727 1.460 . S
C731 C730 1.477 . S
C731 H751 0.930 . S
C732 N728 1.362 . S
C732 C729 1.431 . S
C732 C742 1.476 . S
H733 C727 0.929 . S
C734 O725 1.250 . S
C734 O726 1.258 . S
O735 Mn720 2.162 . S
O735 C723 1.281 . S
O736 Mn720 2.297 . S
O736 C723 1.236 . S
N737 Mn721 2.282 . S
N737 C738 1.328 . S
N737 C742 1.318 . S
C738 N737 1.328 . S
C738 C739 1.457 . S
C738 H743 0.929 . S
C739 C738 1.457 . S
C739 C740 1.291 . S
C739 H752 0.931 . S
C740 C739 1.291 . S
C740 C741 1.373 . S
C740 H753 0.929 . S
C741 C740 1.373 . S
C741 C742 1.396 . S
C741 C748 1.403 . S
C742 C732 1.476 . S
C742 N737 1.318 . S
C742 C741 1.396 . S
H743 C738 0.929 . S
O744 Mn720 2.385 . S
O744 C722 1.234 . S
O745 Mn720 2.209 . S
O745 Mn721 2.215 1_554 S
O745 C722 1.283 . S
O746 Mn720 2.094 1_556 S
O746 C724 1.240 . S
O747 Mn721 2.117 . S
O747 C724 1.264 . S
C748 C741 1.403 . S
C748 C749 1.399 . S
C748 H754 0.929 . S
C749 C729 1.449 . S
C749 C748 1.399 . S
C749 H755 0.930 . S
H750 C730 0.931 . S
H751 C731 0.930 . S
H752 C739 0.931 . S
H753 C740 0.929 . S
H754 C748 0.929 . S
H755 C749 0.930 . S
Mn756 O761 2.095 . S
Mn756 O771 2.162 . S
Mn756 O772 2.297 . S
Mn756 O780 2.385 . S
Mn756 O781 2.209 . S
Mn756 O782 2.094 . S
Mn757 O762 2.121 . S
Mn757 N764 2.257 . S
Mn757 N773 2.282 . S
Mn757 O781 2.215 . S
Mn757 O783 2.117 . S
C758 O780 1.234 . S
C758 O781 1.283 . S
C759 O771 1.281 . S
C759 O772 1.236 . S
C760 O782 1.240 . S
C760 O783 1.264 . S
O761 Mn756 2.095 . S
O761 C770 1.250 . S
O762 Mn757 2.121 . S
O762 C770 1.258 . S
C763 N764 1.326 . S
C763 C767 1.460 . S
C763 H769 0.929 . S
N764 Mn757 2.257 . S
N764 C763 1.326 . S
N764 C768 1.362 . S
C765 C766 1.258 . S
C765 C768 1.431 . S
C765 C785 1.449 . S
C766 C765 1.258 . S
C766 C767 1.477 . S
C766 H786 0.931 . S
C767 C763 1.460 . S
C767 C766 1.477 . S
C767 H787 0.930 . S
C768 N764 1.362 . S
C768 C765 1.431 . S
C768 C778 1.476 . S
H769 C763 0.929 . S
C770 O761 1.250 . S
C770 O762 1.258 . S
O771 Mn756 2.162 . S
O771 C759 1.281 . S
O772 Mn756 2.297 . S
O772 C759 1.236 . S
N773 Mn757 2.282 . S
N773 C774 1.328 . S
N773 C778 1.318 . S
C774 N773 1.328 . S
C774 C775 1.457 . S
C774 H779 0.929 . S
C775 C774 1.457 . S
C775 C776 1.291 . S
C775 H788 0.931 . S
C776 C775 1.291 . S
C776 C777 1.373 . S
C776 H789 0.929 . S
C777 C776 1.373 . S
C777 C778 1.396 . S
C777 C784 1.403 . S
C778 C768 1.476 . S
C778 N773 1.318 . S
C778 C777 1.396 . S
H779 C774 0.929 . S
O780 Mn756 2.385 . S
O780 C758 1.234 . S
O781 Mn756 2.209 . S
O781 Mn757 2.215 . S
O781 C758 1.283 . S
O782 Mn756 2.094 . S
O782 C760 1.240 . S
O783 Mn757 2.117 . S
O783 C760 1.264 . S
C784 C777 1.403 . S
C784 C785 1.399 . S
C784 H790 0.929 . S
C785 C765 1.449 . S
C785 C784 1.399 . S
C785 H791 0.930 . S
H786 C766 0.931 . S
H787 C767 0.930 . S
H788 C775 0.931 . S
H789 C776 0.929 . S
H790 C784 0.929 . S
H791 C785 0.930 . S
Mn792 O797 2.095 . S
Mn792 O807 2.162 . S
Mn792 O808 2.297 . S
Mn792 O816 2.385 . S
Mn792 O817 2.209 . S
Mn792 O818 2.094 . S
Mn793 O798 2.121 . S
Mn793 N800 2.257 . S
Mn793 N809 2.282 . S
Mn793 O817 2.215 . S
Mn793 O819 2.117 . S
C794 O816 1.234 . S
C794 O817 1.283 . S
C795 O807 1.281 . S
C795 O808 1.236 . S
C796 O818 1.240 . S
C796 O819 1.264 . S
O797 Mn792 2.095 . S
O797 C806 1.250 . S
O798 Mn793 2.121 . S
O798 C806 1.258 . S
C799 N800 1.326 . S
C799 C803 1.460 . S
C799 H805 0.929 . S
N800 Mn793 2.257 . S
N800 C799 1.326 . S
N800 C804 1.362 . S
C801 C802 1.258 . S
C801 C804 1.431 . S
C801 C821 1.449 . S
C802 C801 1.258 . S
C802 C803 1.477 . S
C802 H822 0.931 . S
C803 C799 1.460 . S
C803 C802 1.477 . S
C803 H823 0.930 . S
C804 N800 1.362 . S
C804 C801 1.431 . S
C804 C814 1.476 . S
H805 C799 0.929 . S
C806 O797 1.250 . S
C806 O798 1.258 . S
O807 Mn792 2.162 . S
O807 C795 1.281 . S
O808 Mn792 2.297 . S
O808 C795 1.236 . S
N809 Mn793 2.282 . S
N809 C810 1.328 . S
N809 C814 1.318 . S
C810 N809 1.328 . S
C810 C811 1.457 . S
C810 H815 0.929 . S
C811 C810 1.457 . S
C811 C812 1.291 . S
C811 H824 0.931 . S
C812 C811 1.291 . S
C812 C813 1.373 . S
C812 H825 0.929 . S
C813 C812 1.373 . S
C813 C814 1.396 . S
C813 C820 1.403 . S
C814 C804 1.476 . S
C814 N809 1.318 . S
C814 C813 1.396 . S
H815 C810 0.929 . S
O816 Mn792 2.385 . S
O816 C794 1.234 . S
O817 Mn792 2.209 . S
O817 Mn793 2.215 . S
O817 C794 1.283 . S
O818 Mn792 2.094 . S
O818 C796 1.240 . S
O819 Mn793 2.117 . S
O819 C796 1.264 . S
C820 C813 1.403 . S
C820 C821 1.399 . S
C820 H826 0.929 . S
C821 C801 1.449 . S
C821 C820 1.399 . S
C821 H827 0.930 . S
H822 C802 0.931 . S
H823 C803 0.930 . S
H824 C811 0.931 . S
H825 C812 0.929 . S
H826 C820 0.929 . S
H827 C821 0.930 . S
Mn828 O833 2.095 . S
Mn828 O843 2.162 . S
Mn828 O844 2.297 . S
Mn828 O852 2.385 . S
Mn828 O853 2.209 . S
Mn828 O854 2.094 . S
Mn829 O834 2.121 . S
Mn829 N836 2.257 . S
Mn829 N845 2.282 . S
Mn829 O853 2.215 . S
Mn829 O855 2.117 . S
C830 O852 1.234 . S
C830 O853 1.283 . S
C831 O843 1.281 . S
C831 O844 1.236 . S
C832 O854 1.240 . S
C832 O855 1.264 . S
O833 Mn828 2.095 . S
O833 C842 1.250 . S
O834 Mn829 2.121 . S
O834 C842 1.258 . S
C835 N836 1.326 . S
C835 C839 1.460 . S
C835 H841 0.929 . S
N836 Mn829 2.257 . S
N836 C835 1.326 . S
N836 C840 1.362 . S
C837 C838 1.258 . S
C837 C840 1.431 . S
C837 C857 1.449 . S
C838 C837 1.258 . S
C838 C839 1.477 . S
C838 H858 0.931 . S
C839 C835 1.460 . S
C839 C838 1.477 . S
C839 H859 0.930 . S
C840 N836 1.362 . S
C840 C837 1.431 . S
C840 C850 1.476 . S
H841 C835 0.929 . S
C842 O833 1.250 . S
C842 O834 1.258 . S
O843 Mn828 2.162 . S
O843 C831 1.281 . S
O844 Mn828 2.297 . S
O844 C831 1.236 . S
N845 Mn829 2.282 . S
N845 C846 1.328 . S
N845 C850 1.318 . S
C846 N845 1.328 . S
C846 C847 1.457 . S
C846 H851 0.929 . S
C847 C846 1.457 . S
C847 C848 1.291 . S
C847 H860 0.931 . S
C848 C847 1.291 . S
C848 C849 1.373 . S
C848 H861 0.929 . S
C849 C848 1.373 . S
C849 C850 1.396 . S
C849 C856 1.403 . S
C850 C840 1.476 . S
C850 N845 1.318 . S
C850 C849 1.396 . S
H851 C846 0.929 . S
O852 Mn828 2.385 . S
O852 C830 1.234 . S
O853 Mn828 2.209 . S
O853 Mn829 2.215 . S
O853 C830 1.283 . S
O854 Mn828 2.094 . S
O854 C832 1.240 . S
O855 Mn829 2.117 . S
O855 C832 1.264 . S
C856 C849 1.403 . S
C856 C857 1.399 . S
C856 H862 0.929 . S
C857 C837 1.449 . S
C857 C856 1.399 . S
C857 H863 0.930 . S
H858 C838 0.931 . S
H859 C839 0.930 . S
H860 C847 0.931 . S
H861 C848 0.929 . S
H862 C856 0.929 . S
H863 C857 0.930 . S
C864 C865 1.387 . S
C864 H868 0.950 . S
C864 C873 1.390 . S
C865 C864 1.387 . S
C865 C867 1.387 . S
H866 C873 0.950 . S
C867 C865 1.387 . S
C867 C869 1.390 . S
C867 H871 0.950 . S
H868 C864 0.950 . S
C869 C867 1.390 . S
C869 C870 1.387 . S
C869 H872 0.950 . S
C870 C869 1.387 . S
C870 C873 1.387 . S
H871 C867 0.950 . S
H872 C869 0.950 . S
C873 C864 1.390 . S
C873 H866 0.950 . S
C873 C870 1.387 . S
C874 C875 1.387 . S
C874 H878 0.950 . S
C874 C883 1.390 . S
C875 C874 1.387 . S
C875 C877 1.387 . S
H876 C883 0.950 . S
C877 C875 1.387 . S
C877 C879 1.390 . S
C877 H881 0.950 . S
H878 C874 0.950 . S
C879 C877 1.390 . S
C879 C880 1.387 . S
C879 H882 0.950 . S
C880 C879 1.387 . S
C880 C883 1.387 . S
H881 C877 0.950 . S
H882 C879 0.950 . S
C883 C874 1.390 . S
C883 H876 0.950 . S
C883 C880 1.387 . S
C884 C885 1.387 . S
C884 H888 0.950 . S
C884 C893 1.390 . S
C885 C884 1.387 . S
C885 C887 1.387 . S
H886 C893 0.950 . S
C887 C885 1.387 . S
C887 C889 1.390 . S
C887 H891 0.950 . S
H888 C884 0.950 . S
C889 C887 1.390 . S
C889 C890 1.387 . S
C889 H892 0.950 . S
C890 C889 1.387 . S
C890 C893 1.387 . S
H891 C887 0.950 . S
H892 C889 0.950 . S
C893 C884 1.390 . S
C893 H886 0.950 . S
C893 C890 1.387 . S
C894 C895 1.387 . S
C894 H898 0.950 . S
C894 C903 1.390 . S
C895 C894 1.387 . S
C895 C897 1.387 . S
H896 C903 0.950 . S
C897 C895 1.387 . S
C897 C899 1.390 . S
C897 H901 0.950 . S
H898 C894 0.950 . S
C899 C897 1.390 . S
C899 C900 1.387 . S
C899 H902 0.950 . S
C900 C899 1.387 . S
C900 C903 1.387 . S
H901 C897 0.950 . S
H902 C899 0.950 . S
C903 C894 1.390 . S
C903 H896 0.950 . S
C903 C900 1.387 . S
C904 C905 1.387 . S
C904 H908 0.950 . S
C904 C913 1.390 . S
C905 C904 1.387 . S
C905 C907 1.387 . S
H906 C913 0.950 . S
C907 C905 1.387 . S
C907 C909 1.390 . S
C907 H911 0.950 . S
H908 C904 0.950 . S
C909 C907 1.390 . S
C909 C910 1.387 . S
C909 H912 0.950 . S
C910 C909 1.387 . S
C910 C913 1.387 . S
H911 C907 0.950 . S
H912 C909 0.950 . S
C913 C904 1.390 . S
C913 H906 0.950 . S
C913 C910 1.387 . S
C914 C915 1.387 . S
C914 H918 0.950 . S
C914 C923 1.390 . S
C915 C914 1.387 . S
C915 C917 1.387 . S
H916 C923 0.950 . S
C917 C915 1.387 . S
C917 C919 1.390 . S
C917 H921 0.950 . S
H918 C914 0.950 . S
C919 C917 1.390 . S
C919 C920 1.387 . S
C919 H922 0.950 . S
C920 C919 1.387 . S
C920 C923 1.387 . S
H921 C917 0.950 . S
H922 C919 0.950 . S
C923 C914 1.390 . S
C923 H916 0.950 . S
C923 C920 1.387 . S
C924 C925 1.387 . S
C924 H928 0.950 . S
C924 C933 1.390 . S
C925 C924 1.387 . S
C925 C927 1.387 . S
H926 C933 0.950 . S
C927 C925 1.387 . S
C927 C929 1.390 . S
C927 H931 0.950 . S
H928 C924 0.950 . S
C929 C927 1.390 . S
C929 C930 1.387 . S
C929 H932 0.950 . S
C930 C929 1.387 . S
C930 C933 1.387 . S
H931 C927 0.950 . S
H932 C929 0.950 . S
C933 C924 1.390 . S
C933 H926 0.950 . S
C933 C930 1.387 . S
C934 C935 1.387 . S
C934 H938 0.950 . S
C934 C943 1.390 . S
C935 C934 1.387 . S
C935 C937 1.387 . S
H936 C943 0.950 . S
C937 C935 1.387 . S
C937 C939 1.390 . S
C937 H941 0.950 . S
H938 C934 0.950 . S
C939 C937 1.390 . S
C939 C940 1.387 . S
C939 H942 0.950 1_556 S
C940 C939 1.387 . S
C940 C943 1.387 . S
H941 C937 0.950 . S
H942 C939 0.950 1_554 S
C943 C934 1.390 . S
C943 H936 0.950 . S
C943 C940 1.387 . S
C944 C945 1.387 . S
C944 H948 0.950 . S
C944 C953 1.390 . S
C945 C944 1.387 . S
C945 C947 1.387 . S
H946 C953 0.950 . S
C947 C945 1.387 . S
C947 C949 1.390 . S
C947 H951 0.950 . S
H948 C944 0.950 . S
C949 C947 1.390 . S
C949 C950 1.387 . S
C949 H952 0.950 . S
C950 C949 1.387 . S
C950 C953 1.387 . S
H951 C947 0.950 . S
H952 C949 0.950 . S
C953 C944 1.390 . S
C953 H946 0.950 . S
C953 C950 1.387 . S
C954 C955 1.387 . S
C954 H958 0.950 . S
C954 C963 1.390 . S
C955 C954 1.387 . S
C955 C957 1.387 . S
H956 C963 0.950 . S
C957 C955 1.387 . S
C957 C959 1.390 . S
C957 H961 0.950 . S
H958 C954 0.950 . S
C959 C957 1.390 . S
C959 C960 1.387 . S
C959 H962 0.950 . S
C960 C959 1.387 . S
C960 C963 1.387 . S
H961 C957 0.950 . S
H962 C959 0.950 . S
C963 C954 1.390 . S
C963 H956 0.950 . S
C963 C960 1.387 . S
C964 C965 1.387 . S
C964 H968 0.950 1_565 S
C964 C973 1.390 . S
C965 C964 1.387 . S
C965 C967 1.387 . S
H966 C973 0.950 . S
C967 C965 1.387 . S
C967 C969 1.390 . S
C967 H971 0.950 . S
H968 C964 0.950 1_545 S
C969 C967 1.390 . S
C969 C970 1.387 . S
C969 H972 0.950 . S
C970 C969 1.387 . S
C970 C973 1.387 . S
H971 C967 0.950 . S
H972 C969 0.950 . S
C973 C964 1.390 . S
C973 H966 0.950 . S
C973 C970 1.387 . S
C974 C975 1.387 . S
C974 H978 0.950 . S
C974 C983 1.390 . S
C975 C974 1.387 . S
C975 C977 1.387 . S
H976 C983 0.950 . S
C977 C975 1.387 . S
C977 C979 1.390 . S
C977 H981 0.950 . S
H978 C974 0.950 . S
C979 C977 1.390 . S
C979 C980 1.387 . S
C979 H982 0.950 1_565 S
C980 C979 1.387 . S
C980 C983 1.387 . S
H981 C977 0.950 . S
H982 C979 0.950 1_545 S
C983 C974 1.390 . S
C983 H976 0.950 . S
C983 C980 1.387 . S
C984 C985 1.387 . S
C984 H988 0.950 . S
C984 C993 1.390 . S
C985 C984 1.387 . S
C985 C987 1.387 . S
H986 C993 0.950 . S
C987 C985 1.387 . S
C987 C989 1.390 . S
C987 H991 0.950 . S
H988 C984 0.950 . S
C989 C987 1.390 . S
C989 C990 1.387 . S
C989 H992 0.950 . S
C990 C989 1.387 . S
C990 C993 1.387 . S
H991 C987 0.950 . S
H992 C989 0.950 . S
C993 C984 1.390 . S
C993 H986 0.950 . S
C993 C990 1.387 . S
C994 C995 1.387 . S
C994 H998 0.950 1_655 S
C994 C1003 1.390 . S
C995 C994 1.387 . S
C995 C997 1.387 . S
H996 C1003 0.950 . S
C997 C995 1.387 . S
C997 C999 1.390 . S
C997 H1001 0.950 . S
H998 C994 0.950 1_455 S
C999 C997 1.390 . S
C999 C1000 1.387 . S
C999 H1002 0.950 . S
C1000 C999 1.387 . S
C1000 C1003 1.387 . S
H1001 C997 0.950 . S
H1002 C999 0.950 . S
C1003 C994 1.390 . S
C1003 H996 0.950 . S
C1003 C1000 1.387 . S
C1004 C1005 1.387 . S
C1004 H1008 0.950 . S
C1004 C1013 1.390 . S
C1005 C1004 1.387 . S
C1005 C1007 1.387 . S
H1006 C1013 0.950 . S
C1007 C1005 1.387 . S
C1007 C1009 1.390 . S
C1007 H1011 0.950 . S
H1008 C1004 0.950 . S
C1009 C1007 1.390 . S
C1009 C1010 1.387 . S
C1009 H1012 0.950 . S
C1010 C1009 1.387 . S
C1010 C1013 1.387 . S
H1011 C1007 0.950 . S
H1012 C1009 0.950 . S
C1013 C1004 1.390 . S
C1013 H1006 0.950 . S
C1013 C1010 1.387 . S
C1014 C1015 1.387 . S
C1014 H1018 0.950 . S
C1014 C1023 1.390 . S
C1015 C1014 1.387 . S
C1015 C1017 1.387 . S
H1016 C1023 0.950 . S
C1017 C1015 1.387 . S
C1017 C1019 1.390 . S
C1017 H1021 0.950 1_655 S
H1018 C1014 0.950 . S
C1019 C1017 1.390 . S
C1019 C1020 1.387 . S
C1019 H1022 0.950 . S
C1020 C1019 1.387 . S
C1020 C1023 1.387 . S
H1021 C1017 0.950 1_455 S
H1022 C1019 0.950 . S
C1023 C1014 1.390 . S
C1023 H1016 0.950 . S
C1023 C1020 1.387 . S
C1024 C1025 1.387 . S
C1024 H1028 0.950 . S
C1024 C1033 1.390 . S
C1025 C1024 1.387 . S
C1025 C1027 1.387 . S
H1026 C1033 0.950 . S
C1027 C1025 1.387 . S
C1027 C1029 1.390 . S
C1027 H1031 0.950 . S
H1028 C1024 0.950 . S
C1029 C1027 1.390 . S
C1029 C1030 1.387 . S
C1029 H1032 0.950 . S
C1030 C1029 1.387 . S
C1030 C1033 1.387 . S
H1031 C1027 0.950 . S
H1032 C1029 0.950 . S
C1033 C1024 1.390 . S
C1033 H1026 0.950 . S
C1033 C1030 1.387 . S
C1034 C1035 1.387 . S
C1034 H1038 0.950 . S
C1034 C1043 1.390 . S
C1035 C1034 1.387 . S
C1035 C1037 1.387 . S
H1036 C1043 0.950 . S
C1037 C1035 1.387 . S
C1037 C1039 1.390 . S
C1037 H1041 0.950 . S
H1038 C1034 0.950 . S
C1039 C1037 1.390 . S
C1039 C1040 1.387 . S
C1039 H1042 0.950 . S
C1040 C1039 1.387 . S
C1040 C1043 1.387 . S
H1041 C1037 0.950 . S
H1042 C1039 0.950 . S
C1043 C1034 1.390 . S
C1043 H1036 0.950 . S
C1043 C1040 1.387 . S
C1044 C1045 1.387 . S
C1044 H1048 0.950 . S
C1044 C1053 1.390 . S
C1045 C1044 1.387 . S
C1045 C1047 1.387 . S
H1046 C1053 0.950 . S
C1047 C1045 1.387 . S
C1047 C1049 1.390 . S
C1047 H1051 0.950 . S
H1048 C1044 0.950 . S
C1049 C1047 1.390 . S
C1049 C1050 1.387 . S
C1049 H1052 0.950 . S
C1050 C1049 1.387 . S
C1050 C1053 1.387 . S
H1051 C1047 0.950 . S
H1052 C1049 0.950 . S
C1053 C1044 1.390 . S
C1053 H1046 0.950 . S
C1053 C1050 1.387 . S
C1054 C1055 1.387 . S
C1054 H1058 0.950 . S
C1054 C1063 1.390 . S
C1055 C1054 1.387 . S
C1055 C1057 1.387 . S
H1056 C1063 0.950 . S
C1057 C1055 1.387 . S
C1057 C1059 1.390 . S
C1057 H1061 0.950 . S
H1058 C1054 0.950 . S
C1059 C1057 1.390 . S
C1059 C1060 1.387 . S
C1059 H1062 0.950 . S
C1060 C1059 1.387 . S
C1060 C1063 1.387 . S
H1061 C1057 0.950 . S
H1062 C1059 0.950 . S
C1063 C1054 1.390 . S
C1063 H1056 0.950 . S
C1063 C1060 1.387 . S
C1064 C1065 1.387 . S
C1064 H1068 0.950 . S
C1064 C1073 1.390 . S
C1065 C1064 1.387 . S
C1065 C1067 1.387 . S
H1066 C1073 0.950 . S
C1067 C1065 1.387 . S
C1067 C1069 1.390 . S
C1067 H1071 0.950 . S
H1068 C1064 0.950 . S
C1069 C1067 1.390 . S
C1069 C1070 1.387 . S
C1069 H1072 0.950 . S
C1070 C1069 1.387 . S
C1070 C1073 1.387 . S
H1071 C1067 0.950 . S
H1072 C1069 0.950 . S
C1073 C1064 1.390 . S
C1073 H1066 0.950 . S
C1073 C1070 1.387 . S
C1074 C1075 1.387 . S
C1074 H1078 0.950 . S
C1074 C1083 1.390 . S
C1075 C1074 1.387 . S
C1075 C1077 1.387 . S
H1076 C1083 0.950 . S
C1077 C1075 1.387 . S
C1077 C1079 1.390 . S
C1077 H1081 0.950 . S
H1078 C1074 0.950 . S
C1079 C1077 1.390 . S
C1079 C1080 1.387 . S
C1079 H1082 0.950 . S
C1080 C1079 1.387 . S
C1080 C1083 1.387 . S
H1081 C1077 0.950 . S
H1082 C1079 0.950 . S
C1083 C1074 1.390 . S
C1083 H1076 0.950 . S
C1083 C1080 1.387 . S
C1084 C1085 1.387 . S
C1084 H1088 0.950 . S
C1084 C1093 1.390 . S
C1085 C1084 1.387 . S
C1085 C1087 1.387 . S
H1086 C1093 0.950 . S
C1087 C1085 1.387 . S
C1087 C1089 1.390 . S
C1087 H1091 0.950 . S
H1088 C1084 0.950 . S
C1089 C1087 1.390 . S
C1089 C1090 1.387 . S
C1089 H1092 0.950 . S
C1090 C1089 1.387 . S
C1090 C1093 1.387 . S
H1091 C1087 0.950 . S
H1092 C1089 0.950 . S
C1093 C1084 1.390 . S
C1093 H1086 0.950 . S
C1093 C1090 1.387 . S
C1094 C1095 1.387 . S
C1094 H1098 0.950 . S
C1094 C1103 1.390 . S
C1095 C1094 1.387 . S
C1095 C1097 1.387 . S
H1096 C1103 0.938 1_545 S
C1097 C1095 1.387 . S
C1097 C1099 1.390 . S
C1097 H1101 0.950 . S
H1098 C1094 0.950 . S
C1099 C1097 1.390 . S
C1099 C1100 1.387 . S
C1099 H1102 0.950 . S
C1100 C1099 1.387 . S
C1100 C1103 1.387 . S
H1101 C1097 0.950 . S
H1102 C1099 0.950 . S
C1103 C1094 1.390 . S
C1103 H1096 0.938 1_565 S
C1103 C1100 1.387 . S
C1104 C1105 1.387 . S
C1104 H1108 0.950 . S
C1104 C1113 1.390 . S
C1105 C1104 1.387 . S
C1105 C1107 1.387 . S
H1106 C1113 0.950 . S
C1107 C1105 1.387 . S
C1107 C1109 1.390 . S
C1107 H1111 0.950 . S
H1108 C1104 0.950 . S
C1109 C1107 1.390 . S
C1109 C1110 1.387 . S
C1109 H1112 0.950 . S
C1110 C1109 1.387 . S
C1110 C1113 1.387 . S
H1111 C1107 0.950 . S
H1112 C1109 0.950 . S
C1113 C1104 1.390 . S
C1113 H1106 0.950 . S
C1113 C1110 1.387 . S
C1114 C1115 1.387 . S
C1114 H1118 0.950 . S
C1114 C1123 1.390 . S
C1115 C1114 1.387 . S
C1115 C1117 1.387 . S
H1116 C1123 0.950 . S
C1117 C1115 1.387 . S
C1117 C1119 1.390 . S
C1117 H1121 0.950 . S
H1118 C1114 0.950 . S
C1119 C1117 1.390 . S
C1119 C1120 1.387 . S
C1119 H1122 0.950 . S
C1120 C1119 1.387 . S
C1120 C1123 1.387 . S
H1121 C1117 0.950 . S
H1122 C1119 0.950 . S
C1123 C1114 1.390 . S
C1123 H1116 0.950 . S
C1123 C1120 1.387 . S
C1124 C1125 1.387 . S
C1124 H1128 0.950 . S
C1124 C1133 1.390 . S
C1125 C1124 1.387 . S
C1125 C1127 1.387 . S
H1126 C1133 0.950 . S
C1127 C1125 1.387 . S
C1127 C1129 1.390 . S
C1127 H1131 0.950 . S
H1128 C1124 0.950 . S
C1129 C1127 1.390 . S
C1129 C1130 1.387 . S
C1129 H1132 0.950 . S
C1130 C1129 1.387 . S
C1130 C1133 1.387 . S
H1131 C1127 0.950 . S
H1132 C1129 0.950 . S
C1133 C1124 1.390 . S
C1133 H1126 0.950 . S
C1133 C1130 1.387 . S
C1134 C1135 1.387 . S
C1134 H1138 0.950 . S
C1134 C1143 1.390 . S
C1135 C1134 1.387 . S
C1135 C1137 1.387 . S
H1136 C1143 0.950 . S
C1137 C1135 1.387 . S
C1137 C1139 1.390 . S
C1137 H1141 0.950 . S
H1138 C1134 0.950 . S
C1139 C1137 1.390 . S
C1139 C1140 1.387 . S
C1139 H1142 0.950 . S
C1140 C1139 1.387 . S
C1140 C1143 1.387 . S
H1141 C1137 0.950 . S
H1142 C1139 0.950 . S
C1143 C1134 1.390 . S
C1143 H1136 0.950 . S
C1143 C1140 1.387 . S
C1144 C1145 1.387 . S
C1144 H1148 0.950 . S
C1144 C1153 1.390 . S
C1145 C1144 1.387 . S
C1145 C1147 1.387 . S
H1146 C1153 0.950 . S
C1147 C1145 1.387 . S
C1147 C1149 1.390 . S
C1147 H1151 0.950 . S
H1148 C1144 0.950 . S
C1149 C1147 1.390 . S
C1149 C1150 1.387 . S
C1149 H1152 0.950 . S
C1150 C1149 1.387 . S
C1150 C1153 1.387 . S
H1151 C1147 0.950 . S
H1152 C1149 0.950 . S
C1153 C1144 1.390 . S
C1153 H1146 0.950 . S
C1153 C1150 1.387 . S
C1154 C1155 1.387 . S
C1154 H1158 0.950 . S
C1154 C1163 1.390 . S
C1155 C1154 1.387 . S
C1155 C1157 1.387 . S
H1156 C1163 0.950 . S
C1157 C1155 1.387 . S
C1157 C1159 1.390 . S
C1157 H1161 0.950 . S
H1158 C1154 0.950 . S
C1159 C1157 1.390 . S
C1159 C1160 1.387 . S
C1159 H1162 0.950 . S
C1160 C1159 1.387 . S
C1160 C1163 1.387 . S
H1161 C1157 0.950 . S
H1162 C1159 0.950 . S
C1163 C1154 1.390 . S
C1163 H1156 0.950 . S
C1163 C1160 1.387 . S
C1164 C1165 1.387 . S
C1164 H1168 0.950 . S
C1164 C1173 1.390 . S
C1165 C1164 1.387 . S
C1165 C1167 1.387 . S
H1166 C1173 0.950 . S
C1167 C1165 1.387 . S
C1167 C1169 1.390 . S
C1167 H1171 0.950 . S
H1168 C1164 0.950 . S
C1169 C1167 1.390 . S
C1169 C1170 1.387 . S
C1169 H1172 0.950 . S
C1170 C1169 1.387 . S
C1170 C1173 1.387 . S
H1171 C1167 0.950 . S
H1172 C1169 0.950 . S
C1173 C1164 1.390 . S
C1173 H1166 0.950 . S
C1173 C1170 1.387 . S
C1174 C1175 1.387 . S
C1174 H1178 0.950 . S
C1174 C1183 1.390 . S
C1175 C1174 1.387 . S
C1175 C1177 1.387 . S
H1176 C1183 0.950 . S
C1177 C1175 1.387 . S
C1177 C1179 1.390 . S
C1177 H1181 0.950 . S
H1178 C1174 0.950 . S
C1179 C1177 1.390 . S
C1179 C1180 1.387 . S
C1179 H1182 0.950 . S
C1180 C1179 1.387 . S
C1180 C1183 1.387 . S
H1181 C1177 0.950 . S
H1182 C1179 0.950 . S
C1183 C1174 1.390 . S
C1183 H1176 0.950 . S
C1183 C1180 1.387 . S
C1184 C1185 1.387 . S
C1184 H1188 0.950 . S
C1184 C1193 1.390 . S
C1185 C1184 1.387 . S
C1185 C1187 1.387 . S
H1186 C1193 0.950 . S
C1187 C1185 1.387 . S
C1187 C1189 1.390 . S
C1187 H1191 0.950 . S
H1188 C1184 0.950 . S
C1189 C1187 1.390 . S
C1189 C1190 1.387 . S
C1189 H1192 0.950 . S
C1190 C1189 1.387 . S
C1190 C1193 1.387 . S
H1191 C1187 0.950 . S
H1192 C1189 0.950 . S
C1193 C1184 1.390 . S
C1193 H1186 0.950 . S
C1193 C1190 1.387 . S
C1194 C1195 1.387 . S
C1194 H1198 0.950 . S
C1194 C1203 1.390 . S
C1195 C1194 1.387 . S
C1195 C1197 1.387 . S
H1196 C1203 0.950 . S
C1197 C1195 1.387 . S
C1197 C1199 1.390 . S
C1197 H1201 0.950 . S
H1198 C1194 0.950 . S
C1199 C1197 1.390 . S
C1199 C1200 1.387 . S
C1199 H1202 0.950 . S
C1200 C1199 1.387 . S
C1200 C1203 1.387 . S
H1201 C1197 0.950 . S
H1202 C1199 0.950 . S
C1203 C1194 1.390 . S
C1203 H1196 0.950 . S
C1203 C1200 1.387 . S
C1204 C1205 1.387 . S
C1204 H1208 0.950 . S
C1204 C1213 1.390 . S
C1205 C1204 1.387 . S
C1205 C1207 1.387 . S
H1206 C1213 0.950 . S
C1207 C1205 1.387 . S
C1207 C1209 1.390 . S
C1207 H1211 0.950 . S
H1208 C1204 0.950 . S
C1209 C1207 1.390 . S
C1209 C1210 1.387 . S
C1209 H1212 0.950 . S
C1210 C1209 1.387 . S
C1210 C1213 1.387 . S
H1211 C1207 0.950 . S
H1212 C1209 0.950 . S
C1213 C1204 1.390 . S
C1213 H1206 0.950 . S
C1213 C1210 1.387 . S
C1214 C1215 1.387 . S
C1214 H1218 0.950 . S
C1214 C1223 1.390 . S
C1215 C1214 1.387 . S
C1215 C1217 1.387 . S
H1216 C1223 0.950 . S
C1217 C1215 1.387 . S
C1217 C1219 1.390 . S
C1217 H1221 0.950 . S
H1218 C1214 0.950 . S
C1219 C1217 1.390 . S
C1219 C1220 1.387 . S
C1219 H1222 0.950 . S
C1220 C1219 1.387 . S
C1220 C1223 1.387 . S
H1221 C1217 0.950 . S
H1222 C1219 0.950 . S
C1223 C1214 1.390 . S
C1223 H1216 0.950 . S
C1223 C1220 1.387 . S
C1224 C1225 1.387 . S
C1224 H1228 0.950 . S
C1224 C1233 1.390 . S
C1225 C1224 1.387 . S
C1225 C1227 1.387 . S
H1226 C1233 0.950 . S
C1227 C1225 1.387 . S
C1227 C1229 1.390 . S
C1227 H1231 0.950 . S
H1228 C1224 0.950 . S
C1229 C1227 1.390 . S
C1229 C1230 1.387 . S
C1229 H1232 0.950 . S
C1230 C1229 1.387 . S
C1230 C1233 1.387 . S
H1231 C1227 0.950 . S
H1232 C1229 0.950 . S
C1233 C1224 1.390 . S
C1233 H1226 0.950 . S
C1233 C1230 1.387 . S
C1234 C1235 1.387 . S
C1234 H1238 0.950 . S
C1234 C1243 1.390 . S
C1235 C1234 1.387 . S
C1235 C1237 1.387 . S
H1236 C1243 0.950 . S
C1237 C1235 1.387 . S
C1237 C1239 1.390 . S
C1237 H1241 0.950 . S
H1238 C1234 0.950 . S
C1239 C1237 1.390 . S
C1239 C1240 1.387 . S
C1239 H1242 0.950 . S
C1240 C1239 1.387 . S
C1240 C1243 1.387 . S
H1241 C1237 0.950 . S
H1242 C1239 0.950 . S
C1243 C1234 1.390 . S
C1243 H1236 0.950 . S
C1243 C1240 1.387 . S
C1244 C1245 1.387 . S
C1244 H1248 0.950 . S
C1244 C1253 1.390 . S
C1245 C1244 1.387 . S
C1245 C1247 1.387 . S
H1246 C1253 0.950 . S
C1247 C1245 1.387 . S
C1247 C1249 1.390 . S
C1247 H1251 0.950 . S
H1248 C1244 0.950 . S
C1249 C1247 1.390 . S
C1249 C1250 1.387 . S
C1249 H1252 0.950 . S
C1250 C1249 1.387 . S
C1250 C1253 1.387 . S
H1251 C1247 0.950 . S
H1252 C1249 0.950 . S
C1253 C1244 1.390 . S
C1253 H1246 0.950 . S
C1253 C1250 1.387 . S
C1254 C1255 1.387 . S
C1254 H1258 0.950 . S
C1254 C1263 1.390 . S
C1255 C1254 1.387 . S
C1255 C1257 1.387 . S
H1256 C1263 0.950 . S
C1257 C1255 1.387 . S
C1257 C1259 1.390 . S
C1257 H1261 0.950 . S
H1258 C1254 0.950 . S
C1259 C1257 1.390 . S
C1259 C1260 1.387 . S
C1259 H1262 0.950 . S
C1260 C1259 1.387 . S
C1260 C1263 1.387 . S
H1261 C1257 0.950 . S
H1262 C1259 0.950 . S
C1263 C1254 1.390 . S
C1263 H1256 0.950 . S
C1263 C1260 1.387 . S
C1264 C1265 1.387 . S
C1264 H1268 0.950 . S
C1264 C1273 1.390 . S
C1265 C1264 1.387 . S
C1265 C1267 1.387 . S
H1266 C1273 0.950 . S
C1267 C1265 1.387 . S
C1267 C1269 1.390 . S
C1267 H1271 0.950 . S
H1268 C1264 0.950 . S
C1269 C1267 1.390 . S
C1269 C1270 1.387 . S
C1269 H1272 0.950 . S
C1270 C1269 1.387 . S
C1270 C1273 1.387 . S
H1271 C1267 0.950 . S
H1272 C1269 0.950 . S
C1273 C1264 1.390 . S
C1273 H1266 0.950 . S
C1273 C1270 1.387 . S
C1274 C1275 1.387 . S
C1274 H1278 0.950 . S
C1274 C1283 1.390 . S
C1275 C1274 1.387 . S
C1275 C1277 1.387 . S
H1276 C1283 0.950 . S
C1277 C1275 1.387 . S
C1277 C1279 1.390 . S
C1277 H1281 0.950 . S
H1278 C1274 0.950 . S
C1279 C1277 1.390 . S
C1279 C1280 1.387 . S
C1279 H1282 0.950 . S
C1280 C1279 1.387 . S
C1280 C1283 1.387 . S
H1281 C1277 0.950 . S
H1282 C1279 0.950 . S
C1283 C1274 1.390 . S
C1283 H1276 0.950 . S
C1283 C1280 1.387 . S
C1284 C1285 1.387 . S
C1284 H1288 0.950 . S
C1284 C1293 1.390 . S
C1285 C1284 1.387 . S
C1285 C1287 1.387 . S
H1286 C1293 0.950 . S
C1287 C1285 1.387 . S
C1287 C1289 1.390 . S
C1287 H1291 0.950 . S
H1288 C1284 0.950 . S
C1289 C1287 1.390 . S
C1289 C1290 1.387 . S
C1289 H1292 0.950 . S
C1290 C1289 1.387 . S
C1290 C1293 1.387 . S
H1291 C1287 0.950 . S
H1292 C1289 0.950 . S
C1293 C1284 1.390 . S
C1293 H1286 0.950 . S
C1293 C1290 1.387 . S
C1294 C1295 1.387 . S
C1294 H1298 0.950 . S
C1294 C1303 1.390 . S
C1295 C1294 1.387 . S
C1295 C1297 1.387 . S
H1296 C1303 0.950 . S
C1297 C1295 1.387 . S
C1297 C1299 1.390 . S
C1297 H1301 0.950 . S
H1298 C1294 0.950 . S
C1299 C1297 1.390 . S
C1299 C1300 1.387 . S
C1299 H1302 0.950 . S
C1300 C1299 1.387 . S
C1300 C1303 1.387 . S
H1301 C1297 0.950 . S
H1302 C1299 0.950 . S
C1303 C1294 1.390 . S
C1303 H1296 0.950 . S
C1303 C1300 1.387 . S
C1304 C1305 1.387 . S
C1304 H1308 0.950 . S
C1304 C1313 1.390 . S
C1305 C1304 1.387 . S
C1305 C1307 1.387 . S
H1306 C1313 0.950 . S
C1307 C1305 1.387 . S
C1307 C1309 1.390 . S
C1307 H1311 0.950 . S
H1308 C1304 0.950 . S
C1309 C1307 1.390 . S
C1309 C1310 1.387 . S
C1309 H1312 0.950 . S
C1310 C1309 1.387 . S
C1310 C1313 1.387 . S
H1311 C1307 0.950 . S
H1312 C1309 0.950 . S
C1313 C1304 1.390 . S
C1313 H1306 0.950 . S
C1313 C1310 1.387 . S
C1314 C1315 1.387 . S
C1314 H1318 0.950 . S
C1314 C1323 1.390 . S
C1315 C1314 1.387 . S
C1315 C1317 1.387 . S
H1316 C1323 0.950 . S
C1317 C1315 1.387 . S
C1317 C1319 1.390 . S
C1317 H1321 0.950 . S
H1318 C1314 0.950 . S
C1319 C1317 1.390 . S
C1319 C1320 1.387 . S
C1319 H1322 0.950 . S
C1320 C1319 1.387 . S
C1320 C1323 1.387 . S
H1321 C1317 0.950 . S
H1322 C1319 0.950 . S
C1323 C1314 1.390 . S
C1323 H1316 0.950 . S
C1323 C1320 1.387 . S
C1324 C1325 1.387 . S
C1324 H1328 0.950 . S
C1324 C1333 1.390 . S
C1325 C1324 1.387 . S
C1325 C1327 1.387 . S
H1326 C1333 0.950 . S
C1327 C1325 1.387 . S
C1327 C1329 1.390 . S
C1327 H1331 0.950 . S
H1328 C1324 0.950 . S
C1329 C1327 1.390 . S
C1329 C1330 1.387 . S
C1329 H1332 0.950 . S
C1330 C1329 1.387 . S
C1330 C1333 1.387 . S
H1331 C1327 0.950 . S
H1332 C1329 0.950 . S
C1333 C1324 1.390 . S
C1333 H1326 0.950 . S
C1333 C1330 1.387 . S
C1334 C1335 1.387 . S
C1334 H1338 0.950 . S
C1334 C1343 1.390 . S
C1335 C1334 1.387 . S
C1335 C1337 1.387 . S
H1336 C1343 0.950 . S
C1337 C1335 1.387 . S
C1337 C1339 1.390 . S
C1337 H1341 0.950 . S
H1338 C1334 0.950 . S
C1339 C1337 1.390 . S
C1339 C1340 1.387 . S
C1339 H1342 0.950 . S
C1340 C1339 1.387 . S
C1340 C1343 1.387 . S
H1341 C1337 0.950 . S
H1342 C1339 0.950 . S
C1343 C1334 1.390 . S
C1343 H1336 0.950 . S
C1343 C1340 1.387 . S
C865 C506 1.460 . S
C870 C4 1.481 . S
C875 C40 1.330 . S
C880 C554 1.299 . S
C885 C650 1.451 . S
C890 C75 1.479 . S
C895 C111 1.354 . S
C900 C471 1.354 . S
C905 C518 1.457 . S
C910 C147 1.494 . S
C915 C182 1.342 . S
C920 C542 1.342 . S
C925 C220 1.464 . S
C930 C662 1.431 . S
C935 C266 1.296 . S
C940 C472 1.329 . S
C945 C328 1.463 . S
C950 C302 1.429 . S
C955 C374 1.457 . S
C960 C327 1.494 . S
C965 C362 1.460 . S
C970 C400 1.481 . S
C975 C399 1.479 . S
C980 C290 1.451 . S
C985 C446 1.299 . S
C990 C112 1.330 . S
C995 C148 1.465 . S
C1000 C590 1.432 . S
C1005 C615 1.354 . S
C1010 C39 1.353 . S
C1015 C50 1.373 . S
C1020 C759 1.405 . S
C1025 C338 1.590 . S
C1030 C2 1.601 . S
C1035 C832 1.445 . S
C1040 C110 1.439 . S
C1045 C410 1.589 . S
C1050 C86 1.589 . S
C1055 C760 1.440 . S
C1060 C256 1.440 . S
C1065 C326 1.575 . S
C1070 C218 1.575 . S
C1075 C183 1.447 . S
C1080 C831 1.448 . S
C1085 C158 1.592 . S
C1090 C398 1.600 . S
C1095 C543 1.447 . S
C1100 C687 1.448 . S
C1105 C580 1.439 . S
C1110 C544 1.439 . S
C1115 C482 1.375 . S
C1120 C579 1.405 . S
C1125 C688 1.446 . S
C1130 C470 1.439 . S
C1135 C74 1.601 . S
C1140 C734 1.590 . S
C1145 C363 1.448 . S
C1150 C255 1.448 . S
C1155 C14 1.587 . S
C1160 C806 1.587 . S
C1165 C686 1.460 . S
C1170 C76 1.481 . S
C1175 C3 1.479 . S
C1180 C578 1.453 . S
C1185 C698 1.459 . S
C1190 C219 1.494 . S
C1195 C434 1.343 . S
C1200 C254 1.344 . S
C1205 C194 1.299 . S
C1210 C616 1.330 . S
C1215 C770 1.432 . S
C1220 C724 1.465 . S
C1225 C842 1.457 . S
C1230 C723 1.494 . S
C1235 C796 1.481 . S
C1240 C830 1.458 . S
C1245 C758 1.451 . S
C1250 C795 1.479 . S
C1255 C291 1.405 . S
C1260 C122 1.373 . S
C1265 C38 1.439 . S
C1270 C364 1.445 . S
C1275 C184 1.440 . S
C1280 C292 1.440 . S
C1285 C722 1.573 . S
C1290 C146 1.574 . S
C1295 C230 1.592 . S
C1300 C794 1.600 . S
C1305 C435 1.448 . S
C1310 C507 1.449 . S
C1315 C652 1.439 . S
C1320 C436 1.440 . S
C1325 C626 1.373 . S
C1330 C651 1.405 . S
C1335 C508 1.445 . S
C1340 C614 1.439 . S
