# Generated by pormake.
# Topology osc, (6)-cn, num edge types: 1
# Building blocks:
#     Node 0, Type 0, BuildingBlock: IZENUY_clean_sbu_0, # of connection points: 6
#     Node 1, Type 0, BuildingBlock: IZENUY_clean_sbu_0, # of connection points: 6
#     Node 2, Type 0, BuildingBlock: IZENUY_clean_sbu_0, # of connection points: 6
#     Node 3, Type 0, BuildingBlock: IZENUY_clean_sbu_0, # of connection points: 6
#     Node 4, Type 0, BuildingBlock: IZENUY_clean_sbu_0, # of connection points: 6
#     Node 5, Type 0, BuildingBlock: IZENUY_clean_sbu_0, # of connection points: 6
#     Node 6, Type 0, BuildingBlock: IZENUY_clean_sbu_0, # of connection points: 6
#     Node 7, Type 0, BuildingBlock: IZENUY_clean_sbu_0, # of connection points: 6
#     Edge 8, Type (0, 0), BuildingBlock: XUDNAN_clean_linker_2, # of connection points: 2
#     Edge 9, Type (0, 0), BuildingBlock: XUDNAN_clean_linker_2, # of connection points: 2
#     Edge 10, Type (0, 0), BuildingBlock: XUDNAN_clean_linker_2, # of connection points: 2
#     Edge 11, Type (0, 0), BuildingBlock: XUDNAN_clean_linker_2, # of connection points: 2
#     Edge 12, Type (0, 0), BuildingBlock: XUDNAN_clean_linker_2, # of connection points: 2
#     Edge 13, Type (0, 0), BuildingBlock: XUDNAN_clean_linker_2, # of connection points: 2
#     Edge 14, Type (0, 0), BuildingBlock: XUDNAN_clean_linker_2, # of connection points: 2
#     Edge 15, Type (0, 0), BuildingBlock: XUDNAN_clean_linker_2, # of connection points: 2
#     Edge 16, Type (0, 0), BuildingBlock: XUDNAN_clean_linker_2, # of connection points: 2
#     Edge 17, Type (0, 0), BuildingBlock: XUDNAN_clean_linker_2, # of connection points: 2
#     Edge 18, Type (0, 0), BuildingBlock: XUDNAN_clean_linker_2, # of connection points: 2
#     Edge 19, Type (0, 0), BuildingBlock: XUDNAN_clean_linker_2, # of connection points: 2
#     Edge 20, Type (0, 0), BuildingBlock: XUDNAN_clean_linker_2, # of connection points: 2
#     Edge 21, Type (0, 0), BuildingBlock: XUDNAN_clean_linker_2, # of connection points: 2
#     Edge 22, Type (0, 0), BuildingBlock: XUDNAN_clean_linker_2, # of connection points: 2
#     Edge 23, Type (0, 0), BuildingBlock: XUDNAN_clean_linker_2, # of connection points: 2
#     Edge 24, Type (0, 0), BuildingBlock: XUDNAN_clean_linker_2, # of connection points: 2
#     Edge 25, Type (0, 0), BuildingBlock: XUDNAN_clean_linker_2, # of connection points: 2
#     Edge 26, Type (0, 0), BuildingBlock: XUDNAN_clean_linker_2, # of connection points: 2
#     Edge 27, Type (0, 0), BuildingBlock: XUDNAN_clean_linker_2, # of connection points: 2
#     Edge 28, Type (0, 0), BuildingBlock: XUDNAN_clean_linker_2, # of connection points: 2
#     Edge 29, Type (0, 0), BuildingBlock: XUDNAN_clean_linker_2, # of connection points: 2
#     Edge 30, Type (0, 0), BuildingBlock: XUDNAN_clean_linker_2, # of connection points: 2
#     Edge 31, Type (0, 0), BuildingBlock: XUDNAN_clean_linker_2, # of connection points: 2
# Relax obj value: 0.251
# Max RMSD: 0.250
# Mean RMSD: 0.249
data_MOF--net-osc--node1-IZENUY_clean_sbu_0--edge1-XUDNAN_clean_linker_2
_symmetry_space_group_name_H-M    P1
_symmetry_Int_Tables_number       1
_symmetry_cell_setting            triclinic
loop_
_symmetry_equiv_pos_as_xyz
'x, y, z'
_cell_length_a     28.532173
_cell_length_b     46.437231
_cell_length_c     26.196643
_cell_angle_alpha  89.91451
_cell_angle_beta   89.7911
_cell_angle_gamma 89.994001
loop_
_atom_site_label
_atom_site_type_symbol
_atom_site_fract_x
_atom_site_fract_y
_atom_site_fract_z
_atom_type_partial_charge
Fe0 Fe 0.27491 0.06542 0.37909 0.0
Fe1 Fe 0.28496 0.1146 0.30211 0.0
O2 O 0.30184 0.09794 0.36019 0.0
Fe3 Fe 0.34561 0.11372 0.39881 0.0
O4 O 0.38252 0.082 0.39556 0.0
O5 O 0.32658 0.05107 0.41246 0.0
O6 O 0.29559 0.04717 0.32216 0.0
C7 C 0.28473 0.05492 0.27766 0.0
C8 C 0.27907 0.09162 0.47123 0.0
O9 O 0.27038 0.08039 0.26923 0.0
C10 C 0.29928 0.16227 0.3686 0.0
O11 O 0.21784 0.07421 0.35027 0.0
O12 O 0.22563 0.11908 0.32423 0.0
O13 O 0.31925 0.10173 0.46015 0.0
O14 O 0.25298 0.08154 0.43695 0.0
C15 C 0.37985 0.1195 0.29773 0.0
O16 O 0.2966 0.15198 0.3238 0.0
O17 O 0.312 0.14654 0.40523 0.0
C18 C 0.20019 0.09834 0.33815 0.0
O19 O 0.34297 0.11062 0.27692 0.0
O20 O 0.37985 0.12772 0.34403 0.0
C21 C 0.36967 0.05769 0.41163 0.0
Fe22 Fe 0.23078 0.96781 0.88612 0.0
Fe23 Fe 0.22031 0.92136 0.80398 0.0
O24 O 0.20366 0.936 0.86344 0.0
Fe25 Fe 0.15933 0.91852 0.89942 0.0
O26 O 0.12313 0.94962 0.89606 0.0
O27 O 0.17581 0.98231 0.91645 0.0
O28 O 0.21487 0.98828 0.82984 0.0
C29 C 0.22611 0.98138 0.78504 0.0
C30 C 0.22237 0.93891 0.97606 0.0
O31 O 0.23756 0.95574 0.77463 0.0
C32 C 0.20713 0.8719 0.86512 0.0
O33 O 0.28966 0.95815 0.85953 0.0
O34 O 0.27841 0.91487 0.82683 0.0
O35 O 0.18245 0.92956 0.96269 0.0
O36 O 0.24947 0.95011 0.9439 0.0
C37 C 0.1255 0.91778 0.7987 0.0
O38 O 0.20697 0.88395 0.82169 0.0
O39 O 0.19338 0.88546 0.90413 0.0
C40 C 0.30533 0.93373 0.84487 0.0
O41 O 0.16252 0.92758 0.77896 0.0
O42 O 0.12668 0.90591 0.84253 0.0
C43 C 0.1332 0.97474 0.90969 0.0
Fe44 Fe 0.78299 0.46799 0.15937 0.0
Fe45 Fe 0.78564 0.41308 0.224 0.0
O46 O 0.80554 0.43296 0.17034 0.0
Fe47 Fe 0.84758 0.41732 0.12867 0.0
O48 O 0.88815 0.44652 0.13687 0.0
O49 O 0.83834 0.48265 0.13296 0.0
O50 O 0.80146 0.48109 0.22166 0.0
C51 C 0.78793 0.46972 0.26278 0.0
C52 C 0.78585 0.44754 0.06132 0.0
O53 O 0.7718 0.44442 0.26311 0.0
C54 C 0.79693 0.36925 0.15061 0.0
O55 O 0.72362 0.4587 0.18267 0.0
O56 O 0.72686 0.41201 0.19921 0.0
O57 O 0.82334 0.43361 0.06978 0.0
O58 O 0.7623 0.45826 0.09718 0.0
C59 C 0.88004 0.40567 0.22868 0.0
O60 O 0.7957 0.37733 0.19653 0.0
O61 O 0.81042 0.38639 0.11638 0.0
C62 C 0.70362 0.43443 0.18907 0.0
O63 O 0.84324 0.41395 0.25093 0.0
O64 O 0.87979 0.39937 0.18131 0.0
C65 C 0.87988 0.47282 0.13053 0.0
Fe66 Fe 0.71155 0.61447 0.73214 0.0
Fe67 Fe 0.65948 0.61988 0.63045 0.0
O68 O 0.69641 0.60006 0.67244 0.0
Fe69 Fe 0.71907 0.56675 0.65295 0.0
O70 O 0.69572 0.54734 0.70727 0.0
O71 O 0.71724 0.5794 0.76434 0.0
O72 O 0.65076 0.61409 0.75084 0.0
C73 C 0.61912 0.62723 0.72703 0.0
C74 C 0.79649 0.59386 0.70126 0.0
O75 O 0.62685 0.63767 0.68294 0.0
C76 C 0.72165 0.59113 0.5616 0.0
O77 O 0.70939 0.65212 0.70981 0.0
O78 O 0.7016 0.6492 0.62614 0.0
O79 O 0.77643 0.57151 0.68403 0.0
O80 O 0.7731 0.61519 0.71655 0.0
C81 C 0.6224 0.56644 0.62181 0.0
O82 O 0.68296 0.60388 0.56948 0.0
O83 O 0.74561 0.58503 0.59966 0.0
C84 C 0.715 0.66277 0.66539 0.0
O85 O 0.61598 0.5923 0.63402 0.0
O86 O 0.66385 0.55614 0.61851 0.0
C87 C 0.70434 0.55408 0.75287 0.0
Fe88 Fe 0.72181 0.96923 0.63464 0.0
Fe89 Fe 0.66223 0.9147 0.61805 0.0
O90 O 0.70072 0.93553 0.65616 0.0
Fe91 Fe 0.71704 0.92254 0.71699 0.0
O92 O 0.72594 0.95796 0.74607 0.0
O93 O 0.69834 0.98822 0.68972 0.0
O94 O 0.6668 0.97928 0.60098 0.0
C95 C 0.62578 0.96866 0.60443 0.0
C96 C 0.80082 0.94208 0.68223 0.0
O97 O 0.61945 0.94298 0.61811 0.0
C98 C 0.71659 0.87203 0.65648 0.0
O99 O 0.7469 0.95328 0.57837 0.0
O100 O 0.68643 0.92717 0.5559 0.0
O101 O 0.7777 0.92079 0.69851 0.0
O102 O 0.78043 0.96436 0.66429 0.0
C103 C 0.62372 0.91132 0.71661 0.0
O104 O 0.70282 0.8845 0.61637 0.0
O105 O 0.71253 0.88429 0.69951 0.0
C106 C 0.72357 0.94081 0.54442 0.0
O107 O 0.62965 0.89967 0.67323 0.0
O108 O 0.65677 0.92439 0.73828 0.0
C109 C 0.71016 0.98253 0.73477 0.0
Fe110 Fe 0.78475 0.11066 0.20824 0.0
Fe111 Fe 0.77247 0.06329 0.12799 0.0
O112 O 0.8011 0.09466 0.14966 0.0
Fe113 Fe 0.84632 0.11022 0.11249 0.0
O114 O 0.87956 0.12391 0.1677 0.0
O115 O 0.84252 0.10537 0.23345 0.0
O116 O 0.76881 0.07638 0.23945 0.0
C117 C 0.77932 0.05044 0.22924 0.0
C118 C 0.79998 0.15846 0.14251 0.0
O119 O 0.78949 0.04301 0.18421 0.0
C120 C 0.78029 0.09201 0.03811 0.0
O121 O 0.7258 0.11651 0.18672 0.0
O122 O 0.71528 0.0728 0.15618 0.0
O123 O 0.81365 0.14323 0.10563 0.0
O124 O 0.79769 0.14795 0.18728 0.0
C125 C 0.86852 0.05434 0.09927 0.0
O126 O 0.75286 0.08153 0.07087 0.0
O127 O 0.82178 0.09888 0.0503 0.0
C128 C 0.6992 0.09685 0.17106 0.0
O129 O 0.82506 0.04856 0.09519 0.0
O130 O 0.88138 0.0781 0.11736 0.0
C131 C 0.87956 0.11464 0.21328 0.0
Fe132 Fe 0.21796 0.61071 0.8141 0.0
Fe133 Fe 0.22906 0.56642 0.89975 0.0
O134 O 0.20156 0.59751 0.87458 0.0
Fe135 Fe 0.15683 0.61522 0.90884 0.0
O136 O 0.12408 0.6264 0.85132 0.0
O137 O 0.16026 0.60361 0.78926 0.0
O138 O 0.23601 0.57561 0.78813 0.0
C139 C 0.22333 0.55034 0.79996 0.0
C140 C 0.20369 0.6615 0.87117 0.0
O141 O 0.21121 0.54453 0.84524 0.0
C142 C 0.22109 0.59743 0.98696 0.0
O143 O 0.27562 0.61815 0.83686 0.0
O144 O 0.28731 0.5752 0.87061 0.0
O145 O 0.18967 0.64883 0.91109 0.0
O146 O 0.20399 0.64844 0.82869 0.0
C147 C 0.13278 0.56081 0.93171 0.0
O148 O 0.24874 0.58605 0.95534 0.0
O149 O 0.18089 0.60608 0.97281 0.0
C150 C 0.30268 0.59969 0.85591 0.0
O151 O 0.17569 0.55332 0.93497 0.0
O152 O 0.12202 0.58306 0.90719 0.0
C153 C 0.12328 0.61406 0.80805 0.0
Fe154 Fe 0.27073 0.47006 0.39539 0.0
Fe155 Fe 0.34579 0.42372 0.4107 0.0
O156 O 0.30036 0.43903 0.37369 0.0
Fe157 Fe 0.28504 0.42323 0.31445 0.0
O158 O 0.26671 0.4573 0.28373 0.0
O159 O 0.28776 0.49036 0.33886 0.0
O160 O 0.32262 0.4856 0.42756 0.0
C161 C 0.3663 0.48021 0.42456 0.0
C162 C 0.19879 0.43521 0.35217 0.0
O163 O 0.38035 0.45634 0.40774 0.0
C164 C 0.30233 0.37481 0.37821 0.0
O165 O 0.25161 0.45212 0.45342 0.0
O166 O 0.32043 0.43437 0.47323 0.0
O167 O 0.22634 0.41607 0.33602 0.0
O168 O 0.21379 0.45947 0.36758 0.0
C169 C 0.38013 0.42126 0.30979 0.0
O170 O 0.31406 0.39001 0.416 0.0
O171 O 0.30009 0.38594 0.33395 0.0
C172 C 0.27943 0.44217 0.4862 0.0
O173 O 0.37996 0.41119 0.3549 0.0
O174 O 0.34283 0.43003 0.2896 0.0
C175 C 0.2773 0.48316 0.29393 0.0
H176 H 0.6184 1.00957 0.52739 0.0
H177 H 0.53793 0.96208 0.6406 0.0
H178 H 0.4647 0.97939 0.60237 0.0
H179 H 0.536 0.07225 0.52034 0.0
H180 H 0.54463 0.07663 0.45256 0.0
H181 H 0.59133 0.06265 0.49156 0.0
H182 H 0.59628 0.01778 0.43331 0.0
H183 H 0.54905 0.03141 0.39478 0.0
H184 H 0.54464 0.99617 0.42334 0.0
H185 H 0.40087 0.99607 0.54719 0.0
H186 H 0.34761 0.01904 0.48603 0.0
H187 H 0.46668 0.05846 0.40905 0.0
C188 C 0.58535 1.00363 0.54493 0.0
C189 C 0.58381 0.98444 0.58692 0.0
C190 C 0.53989 0.97666 0.60832 0.0
C191 C 0.49805 0.98629 0.58679 0.0
C192 C 0.50053 1.00395 0.54401 0.0
C193 C 0.5428 1.01322 0.52386 0.0
C194 C 0.53477 0.0319 0.47697 0.0
C195 C 0.55273 0.06269 0.48592 0.0
C196 C 0.55754 0.0185 0.42929 0.0
C197 C 0.48157 0.03109 0.47372 0.0
C198 C 0.46285 1.01455 0.51259 0.0
C199 C 0.41494 1.00942 0.51691 0.0
C200 C 0.38498 0.02234 0.48153 0.0
C201 C 0.40288 0.04055 0.44261 0.0
C202 C 0.45197 0.04467 0.43838 0.0
H203 H 0.96473 0.05873 0.10291 0.0
H204 H 0.85191 1.01345 0.02684 0.0
H205 H 0.90824 0.99539 0.96242 0.0
H206 H 0.03251 0.07807 0.99165 0.0
H207 H 0.08842 0.07096 0.0209 0.0
H208 H 0.03935 0.08208 0.05967 0.0
H209 H 0.04664 0.0364 0.11654 0.0
H210 H 0.09726 0.02722 0.07931 0.0
H211 H 0.0502 1.00156 0.08625 0.0
H212 H 0.97377 0.98707 0.90207 0.0
H213 H 0.04892 0.97261 0.86475 0.0
H214 H 0.1231 1.01621 0.98685 0.0
C215 C 0.95188 0.04478 0.07296 0.0
C216 C 0.90354 0.03813 0.06891 0.0
C217 C 0.88848 0.01929 0.02993 0.0
C218 C 0.92009 1.00924 0.99294 0.0
C219 C 0.96686 0.01764 0.99632 0.0
C220 C 0.98315 0.03396 0.03638 0.0
C221 C 0.03604 0.03728 0.03377 0.0
C222 C 0.04987 0.06899 0.02603 0.0
C223 C 0.05881 0.02479 0.08187 0.0
C224 C 0.04722 0.01953 0.98652 0.0
C225 C 0.00618 1.00975 0.96445 0.0
C226 C 0.00617 0.99398 0.91957 0.0
C227 C 0.04923 0.98605 0.89857 0.0
C228 C 0.09204 0.9927 0.9235 0.0
C229 C 0.09115 1.01083 0.96691 0.0
H230 H 0.11327 0.50578 0.97078 0.0
H231 H 0.07308 0.59583 0.98136 0.0
H232 H 0.01021 0.58348 0.04097 0.0
H233 H 0.99899 0.47856 0.96913 0.0
H234 H 0.01004 0.44717 1.0078 0.0
H235 H 0.05681 0.4629 0.97092 0.0
H236 H 0.10714 0.46855 0.0529 0.0
H237 H 0.06047 0.45202 0.08901 0.0
H238 H 0.08256 0.4868 0.10748 0.0
H239 H 0.94556 0.56213 0.08992 0.0
H240 H 0.88352 0.53183 0.12821 0.0
H241 H 0.96409 0.45541 0.09004 0.0
C242 C 0.09169 0.52281 0.98644 0.0
C243 C 0.0978 0.55168 0.97058 0.0
C244 C 0.06865 0.57342 0.99189 0.0
C245 C 0.03296 0.56674 0.02635 0.0
C246 C 0.02663 0.53816 0.03997 0.0
C247 C 0.05521 0.51646 0.02123 0.0
C248 C 0.03783 0.4873 0.03955 0.0
C249 C 0.02516 0.46785 0.99414 0.0
C250 C 0.07418 0.47283 0.07431 0.0
C251 C 0.9944 0.49618 0.06957 0.0
C252 C 0.98901 0.52567 0.0697 0.0
C253 C 0.94973 0.53898 0.09113 0.0
C254 C 0.91457 0.52163 0.11263 0.0
C255 C 0.91901 0.49132 0.11269 0.0
C256 C 0.95998 0.47857 0.09159 0.0
H257 H 0.61498 0.52354 0.54737 0.0
H258 H 0.53377 0.57579 0.65293 0.0
H259 H 0.46118 0.56101 0.61082 0.0
H260 H 0.54805 0.53663 0.43768 0.0
H261 H 0.54949 0.50049 0.4127 0.0
H262 H 0.59638 0.51312 0.45274 0.0
H263 H 0.58326 0.47049 0.51501 0.0
H264 H 0.53716 0.45735 0.47437 0.0
H265 H 0.52556 0.46415 0.54097 0.0
H266 H 0.39923 0.54778 0.55023 0.0
H267 H 0.3462 0.52492 0.48837 0.0
H268 H 0.4633 0.47646 0.42601 0.0
C269 C 0.5818 0.53106 0.56251 0.0
C270 C 0.58021 0.55104 0.60328 0.0
C271 C 0.53602 0.56066 0.62159 0.0
C272 C 0.49446 0.55257 0.59769 0.0
C273 C 0.49724 0.53434 0.55587 0.0
C274 C 0.53932 0.52275 0.53938 0.0
C275 C 0.53132 0.50306 0.49385 0.0
C276 C 0.5579 0.51399 0.44645 0.0
C277 C 0.54513 0.47191 0.50684 0.0
C278 C 0.47853 0.50603 0.48717 0.0
C279 C 0.46003 0.5247 0.52283 0.0
C280 C 0.41288 0.53242 0.52294 0.0
C281 C 0.38307 0.51947 0.48739 0.0
C282 C 0.40013 0.49834 0.45317 0.0
C283 C 0.44892 0.49222 0.45215 0.0
H284 H 0.21641 0.04841 0.20552 0.0
H285 H 0.3463 1.01103 0.25949 0.0
H286 H 0.3412 0.97335 0.19269 0.0
H287 H 0.16152 0.98096 0.18307 0.0
H288 H 0.13101 0.98954 0.12543 0.0
H289 H 0.14116 1.01723 0.17257 0.0
H290 H 0.18436 0.05055 0.11287 0.0
H291 H 0.1757 0.02697 0.05919 0.0
H292 H 0.23382 0.03785 0.07625 0.0
H293 H 0.32477 0.94258 0.11364 0.0
H294 H 0.2972 0.92102 0.03249 0.0
H295 H 0.17376 0.97505 0.03733 0.0
C296 C 0.24388 0.03236 0.20308 0.0
C297 C 0.28212 0.0328 0.2371 0.0
C298 C 0.31685 1.01109 0.2335 0.0
C299 C 0.31415 0.98959 0.19582 0.0
C300 C 0.27578 0.98964 0.16294 0.0
C301 C 0.24104 1.01029 0.16675 0.0
C302 C 0.20317 1.00544 0.12744 0.0
C303 C 0.15642 0.99796 0.15366 0.0
C304 C 0.19892 0.03176 0.09192 0.0
C305 C 0.22267 0.97957 0.09943 0.0
C306 C 0.26463 0.97065 0.12043 0.0
C307 C 0.2913 0.94887 0.09785 0.0
C308 C 0.27525 0.93654 0.05205 0.0
C309 C 0.23244 0.94552 0.03002 0.0
C310 C 0.20544 0.96683 0.05476 0.0
H311 H 0.22101 0.97435 0.68195 0.0
H312 H 0.24336 0.03911 0.79843 0.0
H313 H 0.25765 0.07568 0.73113 0.0
H314 H 0.30814 0.99854 0.5947 0.0
H315 H 0.27377 0.99071 0.53887 0.0
H316 H 0.265 0.97018 0.59644 0.0
H317 H 0.17657 0.98343 0.59574 0.0
H318 H 0.18523 1.00401 0.53814 0.0
H319 H 0.15948 0.02079 0.59355 0.0
H320 H 0.27696 0.1041 0.64908 0.0
H321 H 0.2905 0.12229 0.56072 0.0
H322 H 0.24836 0.03936 0.50076 0.0
C323 C 0.22866 0.99626 0.69333 0.0
C324 C 0.23129 1.00389 0.74534 0.0
C325 C 0.24099 0.03284 0.75872 0.0
C326 C 0.24936 0.05372 0.72078 0.0
C327 C 0.24706 0.04537 0.66971 0.0
C328 C 0.23622 1.01737 0.65612 0.0
C329 C 0.23535 1.01374 0.59885 0.0
C330 C 0.27279 0.99201 0.58121 0.0
C331 C 0.18623 1.00498 0.5805 0.0
C332 C 0.24759 0.04399 0.58217 0.0
C333 C 0.25499 0.06196 0.62332 0.0
C334 C 0.27024 0.09036 0.6166 0.0
C335 C 0.27786 0.10053 0.5665 0.0
C336 C 0.26909 0.0825 0.52416 0.0
C337 C 0.25371 0.05397 0.53242 0.0
H338 H 0.7224 0.60008 0.4548 0.0
H339 H 0.73473 0.53444 0.57275 0.0
H340 H 0.75526 0.49876 0.50911 0.0
H341 H 0.6732 0.55001 0.35718 0.0
H342 H 0.70468 0.56632 0.30482 0.0
H343 H 0.68788 0.58775 0.3592 0.0
H344 H 0.77443 0.60298 0.37112 0.0
H345 H 0.79162 0.5812 0.31731 0.0
H346 H 0.81881 0.57566 0.37855 0.0
H347 H 0.78076 0.47063 0.43845 0.0
H348 H 0.79846 0.44773 0.35647 0.0
H349 H 0.76947 0.52818 0.27773 0.0
C350 C 0.72852 0.57808 0.46674 0.0
C351 C 0.72683 0.57028 0.51907 0.0
C352 C 0.73556 0.54121 0.53319 0.0
C353 C 0.74765 0.5206 0.49728 0.0
C354 C 0.75092 0.52899 0.44675 0.0
C355 C 0.74082 0.55667 0.43069 0.0
C356 C 0.74721 0.55889 0.37297 0.0
C357 C 0.70045 0.56617 0.347 0.0
C358 C 0.78529 0.581 0.35919 0.0
C359 C 0.76303 0.52832 0.3602 0.0
C360 C 0.76511 0.51181 0.40395 0.0
C361 C 0.77883 0.48311 0.40362 0.0
C362 C 0.78898 0.47033 0.35688 0.0
C363 C 0.78518 0.4861 0.31087 0.0
C364 C 0.77311 0.51574 0.31247 0.0
H365 H 0.74476 0.49755 0.03398 0.0
H366 H 0.79854 0.41788 0.97055 0.0
H367 H 0.77559 0.4345 0.88374 0.0
H368 H 0.64647 0.50806 0.94925 0.0
H369 H 0.65511 0.54647 0.94599 0.0
H370 H 0.67181 0.52692 1.00254 0.0
H371 H 0.75635 0.54708 0.99502 0.0
H372 H 0.73984 0.56683 0.93879 0.0
H373 H 0.78858 0.54218 0.93636 0.0
H374 H 0.7467 0.4612 0.80357 0.0
H375 H 0.72536 0.49707 0.73761 0.0
H376 H 0.69593 0.55973 0.85601 0.0
C377 C 0.75103 0.48326 1.00202 0.0
C378 C 0.77258 0.45615 1.00896 0.0
C379 C 0.78167 0.43861 0.96596 0.0
C380 C 0.76852 0.44784 0.91672 0.0
C381 C 0.74704 0.47477 0.91143 0.0
C382 C 0.73908 0.49231 0.95308 0.0
C383 C 0.71956 0.52128 0.93762 0.0
C384 C 0.67031 0.52594 0.96019 0.0
C385 C 0.75309 0.54577 0.95283 0.0
C386 C 0.71774 0.51756 0.88046 0.0
C387 C 0.73286 0.49045 0.86592 0.0
C388 C 0.73478 0.48242 0.81468 0.0
C389 C 0.72227 0.50287 0.7775 0.0
C390 C 0.70891 0.53116 0.79179 0.0
C391 C 0.70585 0.53826 0.84399 0.0
H392 H 0.82715 0.05739 0.97329 0.0
H393 H 0.70436 0.11163 0.98515 0.0
H394 H 0.67664 0.09364 0.90132 0.0
H395 H 0.84307 0.05671 0.83311 0.0
H396 H 0.85679 0.01881 0.83269 0.0
H397 H 0.87144 0.04045 0.8874 0.0
H398 H 0.82447 1.00543 0.94518 0.0
H399 H 0.80946 0.98394 0.89095 0.0
H400 H 0.76389 0.99826 0.93152 0.0
H401 H 0.65883 0.06546 0.81985 0.0
H402 H 0.65063 0.02812 0.75247 0.0
H403 H 0.78142 0.98959 0.80104 0.0
C404 C 0.79552 0.06635 0.95705 0.0
C405 C 0.76866 0.08663 0.98435 0.0
C406 C 0.726 0.09675 0.96368 0.0
C407 C 0.71001 0.08656 0.91631 0.0
C408 C 0.73663 0.06576 0.89093 0.0
C409 C 0.77836 0.05563 0.91095 0.0
C410 C 0.79678 0.03021 0.88093 0.0
C411 C 0.84486 0.03697 0.8571 0.0
C412 C 0.79871 1.00286 0.91412 0.0
C413 C 0.75919 0.02763 0.84085 0.0
C414 C 0.72497 0.04845 0.84656 0.0
C415 C 0.68564 0.04921 0.81492 0.0
C416 C 0.68115 0.02797 0.77694 0.0
C417 C 0.71517 1.00597 0.77217 0.0
C418 C 0.75472 1.00609 0.80421 0.0
H419 H 0.74614 0.99442 0.51385 0.0
H420 H 0.71837 0.90896 0.45504 0.0
H421 H 0.73289 0.92702 0.36671 0.0
H422 H 0.6864 0.03176 0.4141 0.0
H423 H 0.72633 0.06183 0.41488 0.0
H424 H 0.71618 0.04131 0.47222 0.0
H425 H 0.80556 0.03188 0.47992 0.0
H426 H 0.81591 0.05222 0.4224 0.0
H427 H 0.83663 1.01565 0.42727 0.0
H428 H 0.75303 0.95562 0.28456 0.0
H429 H 0.76817 0.99192 0.21709 0.0
H430 H 0.777 0.05856 0.33252 0.0
C431 C 0.74379 0.9793 0.4825 0.0
C432 C 0.73234 0.9501 0.49118 0.0
C433 C 0.72777 0.93131 0.44907 0.0
C434 C 0.73601 0.94141 0.39897 0.0
C435 C 0.74767 0.97045 0.39193 0.0
C436 C 0.75075 0.98912 0.43276 0.0
C437 C 0.76077 0.01963 0.41571 0.0
C438 C 0.72 0.03981 0.43007 0.0
C439 C 0.8075 0.03047 0.43763 0.0
C440 C 0.76387 1.01537 0.35868 0.0
C441 C 0.7566 0.98688 0.34546 0.0
C442 C 0.75849 0.97796 0.29466 0.0
C443 C 0.76735 0.99872 0.25661 0.0
C444 C 0.77364 0.02814 0.26948 0.0
C445 C 0.77211 0.03632 0.32132 0.0
H446 H 0.28786 0.54723 0.72328 0.0
H447 H 0.16946 0.50156 0.78856 0.0
H448 H 0.17425 0.46566 0.7185 0.0
H449 H 0.25663 0.53871 0.59576 0.0
H450 H 0.31543 0.53419 0.57223 0.0
H451 H 0.30521 0.55472 0.62922 0.0
H452 H 0.36208 0.52225 0.67973 0.0
H453 H 0.3736 0.5016 0.62289 0.0
H454 H 0.35345 0.48378 0.68009 0.0
H455 H 0.18647 0.4386 0.63368 0.0
H456 H 0.2093 0.42082 0.54759 0.0
H457 H 0.32434 0.48143 0.54412 0.0
C458 C 0.26327 0.52945 0.72326 0.0
C459 C 0.22812 0.52721 0.76122 0.0
C460 C 0.19676 0.50359 0.75995 0.0
C461 C 0.19923 0.48315 0.72026 0.0
C462 C 0.23399 0.48628 0.68289 0.0
C463 C 0.26597 0.50861 0.6848 0.0
C464 C 0.29904 0.50796 0.63948 0.0
C465 C 0.29374 0.53552 0.6073 0.0
C466 C 0.35006 0.50363 0.6566 0.0
C467 C 0.28072 0.48183 0.61137 0.0
C468 C 0.24275 0.46976 0.63648 0.0
C469 C 0.217 0.44736 0.61458 0.0
C470 C 0.23021 0.4373 0.56583 0.0
C471 C 0.26949 0.44911 0.54024 0.0
C472 C 0.29527 0.47134 0.56378 0.0
H473 H 0.1748 0.55727 0.04234 0.0
H474 H 0.289 0.61837 0.05044 0.0
H475 H 0.31213 0.59806 0.1344 0.0
H476 H 0.14792 0.55142 0.18111 0.0
H477 H 0.13782 0.51319 0.1765 0.0
H478 H 0.12548 0.53626 0.12278 0.0
H479 H 0.17966 0.50493 0.06616 0.0
H480 H 0.19253 0.48207 0.11979 0.0
H481 H 0.23963 0.49915 0.08509 0.0
H482 H 0.32542 0.56869 0.21505 0.0
H483 H 0.33113 0.53136 0.2824 0.0
H484 H 0.21359 0.486 0.21562 0.0
C485 C 0.20344 0.56713 0.06286 0.0
C486 C 0.22907 0.59014 0.04111 0.0
C487 C 0.26806 0.60142 0.0675 0.0
C488 C 0.2815 0.58988 0.11497 0.0
C489 C 0.2562 0.56661 0.13482 0.0
C490 C 0.21806 0.55528 0.10938 0.0
C491 C 0.20019 0.52818 0.13541 0.0
C492 C 0.14987 0.53253 0.15514 0.0
C493 C 0.20322 0.50205 0.09947 0.0
C494 C 0.23474 0.52567 0.17908 0.0
C495 C 0.26609 0.5484 0.17875 0.0
C496 C 0.30104 0.55083 0.21561 0.0
C497 C 0.30407 0.52954 0.25369 0.0
C498 C 0.27315 0.5057 0.25394 0.0
C499 C 0.23808 0.50383 0.21603 0.0
H500 H 0.46896 0.13411 0.32846 0.0
H501 H 0.38952 0.10314 0.19833 0.0
H502 H 0.46263 0.09609 0.15028 0.0
H503 H 0.56 0.17191 0.25335 0.0
H504 H 0.60584 0.1619 0.2971 0.0
H505 H 0.54678 0.16678 0.32011 0.0
H506 H 0.54812 0.11525 0.35841 0.0
H507 H 0.60691 0.11007 0.33508 0.0
H508 H 0.56137 0.08511 0.31757 0.0
H509 H 0.54395 0.08654 0.12005 0.0
H510 H 0.62947 0.08051 0.10646 0.0
H511 H 0.65578 0.12035 0.25318 0.0
C512 C 0.46687 0.12647 0.28949 0.0
C513 C 0.42348 0.11922 0.26729 0.0
C514 C 0.42232 0.10893 0.2163 0.0
C515 C 0.46367 0.10479 0.18856 0.0
C516 C 0.50589 0.11135 0.21203 0.0
C517 C 0.50788 0.12241 0.26097 0.0
C518 C 0.55803 0.12672 0.27778 0.0
C519 C 0.56826 0.15873 0.28765 0.0
C520 C 0.56925 0.10818 0.32498 0.0
C521 C 0.58371 0.11596 0.2309 0.0
C522 C 0.55301 0.10695 0.19356 0.0
C523 C 0.56848 0.09408 0.14846 0.0
C524 C 0.61683 0.09059 0.14114 0.0
C525 C 0.64866 0.10043 0.17839 0.0
C526 C 0.63191 0.11332 0.22364 0.0
H527 H 0.84773 0.91639 0.76036 0.0
H528 H 0.86902 0.96794 0.62403 0.0
H529 H 0.955 0.96562 0.63738 0.0
H530 H 0.94006 0.95038 0.8332 0.0
H531 H 0.95594 0.91767 0.86594 0.0
H532 H 0.89653 0.923 0.84489 0.0
H533 H 0.90027 0.87512 0.79426 0.0
H534 H 0.95976 0.86963 0.81488 0.0
H535 H 0.94618 0.86987 0.74773 0.0
H536 H 0.0383 0.95602 0.66435 0.0
H537 H 0.11274 0.94452 0.70684 0.0
H538 H 0.03652 0.90105 0.82842 0.0
C539 C 0.87051 0.92711 0.73317 0.0
C540 C 0.85196 0.94207 0.69073 0.0
C541 C 0.88269 0.95635 0.65665 0.0
C542 C 0.93144 0.95503 0.66387 0.0
C543 C 0.94859 0.93977 0.70582 0.0
C544 C 0.919 0.92649 0.74037 0.0
C545 C 0.94609 0.91254 0.78351 0.0
C546 C 0.93393 0.92674 0.83492 0.0
C547 C 0.93756 0.87985 0.78516 0.0
C548 C 0.9958 0.91945 0.7673 0.0
C549 C 0.99643 0.93506 0.72229 0.0
C550 C 0.03819 0.9439 0.69967 0.0
C551 C 0.08037 0.93709 0.72411 0.0
C552 C 0.08066 0.92169 0.771 0.0
C553 C 0.03764 0.9126 0.7925 0.0
H554 H 0.15653 0.41478 0.26707 0.0
H555 H 0.12813 0.44622 0.41979 0.0
H556 H 0.04324 0.43718 0.40705 0.0
H557 H 0.05666 0.44855 0.21015 0.0
H558 H 0.04658 0.41984 0.16532 0.0
H559 H 0.10494 0.42679 0.18808 0.0
H560 H 0.11134 0.37369 0.21819 0.0
H561 H 0.05276 0.36675 0.19587 0.0
H562 H 0.06784 0.35933 0.26134 0.0
H563 H 0.9626 0.42466 0.37761 0.0
H564 H 0.88966 0.41632 0.33046 0.0
H565 H 0.97015 0.39594 0.19404 0.0
C566 C 0.13233 0.41946 0.29794 0.0
C567 C 0.1484 0.43074 0.34472 0.0
C568 C 0.11608 0.43743 0.38388 0.0
C569 C 0.06808 0.43219 0.37704 0.0
C570 C 0.05332 0.42079 0.33051 0.0
C571 C 0.08436 0.41503 0.29127 0.0
C572 C 0.0591 0.40518 0.2436 0.0
C573 C 0.06732 0.42636 0.1992 0.0
C574 C 0.07363 0.3744 0.22891 0.0
C575 C 0.00886 0.40618 0.26218 0.0
C576 C 0.00648 0.41481 0.31265 0.0
C577 C 0.96399 0.41792 0.3381 0.0
C578 C 0.92271 0.41301 0.31086 0.0
C579 C 0.92407 0.40543 0.25837 0.0
C580 C 0.96787 0.40138 0.23415 0.0
H581 H 0.37662 0.56421 0.82915 0.0
H582 H 0.34101 0.65161 0.87286 0.0
H583 H 0.41963 0.66803 0.84734 0.0
H584 H 0.50368 0.5687 0.86849 0.0
H585 H 0.52239 0.54702 0.81516 0.0
H586 H 0.46544 0.54129 0.84339 0.0
H587 H 0.42682 0.54882 0.75464 0.0
H588 H 0.48379 0.55451 0.72685 0.0
H589 H 0.4388 0.58144 0.71954 0.0
H590 H 0.49588 0.67671 0.80405 0.0
H591 H 0.57239 0.67527 0.75865 0.0
H592 H 0.56181 0.58242 0.74759 0.0
C593 C 0.38624 0.58649 0.83533 0.0
C594 C 0.35301 0.60663 0.85321 0.0
C595 C 0.36619 0.63585 0.85938 0.0
C596 C 0.41066 0.64543 0.84481 0.0
C597 C 0.44188 0.62547 0.82467 0.0
C598 C 0.43091 0.59648 0.82108 0.0
C599 C 0.47048 0.57995 0.79577 0.0
C600 C 0.49177 0.55794 0.83293 0.0
C601 C 0.45395 0.56534 0.74627 0.0
C602 C 0.50443 0.60432 0.78458 0.0
C603 C 0.48706 0.63043 0.80122 0.0
C604 C 0.51046 0.65634 0.79181 0.0
C605 C 0.55347 0.65543 0.76572 0.0
C606 C 0.57247 0.6288 0.75021 0.0
C607 C 0.54775 0.603 0.75968 0.0
H608 H 0.56603 0.95561 0.74131 0.0
H609 H 0.57912 0.86276 0.74901 0.0
H610 H 0.50263 0.85989 0.79405 0.0
H611 H 0.50488 0.96728 0.86265 0.0
H612 H 0.46651 0.99447 0.83692 0.0
H613 H 0.52437 0.98963 0.81039 0.0
H614 H 0.48872 0.98246 0.72071 0.0
H615 H 0.43075 0.98726 0.74656 0.0
H616 H 0.44482 0.95509 0.71127 0.0
H617 H 0.42508 0.86689 0.83534 0.0
H618 H 0.34527 0.88184 0.85918 0.0
H619 H 0.37879 0.97035 0.82031 0.0
C620 C 0.55281 0.93477 0.75321 0.0
C621 C 0.57825 0.90935 0.7427 0.0
C622 C 0.5599 0.88234 0.75724 0.0
C623 C 0.51682 0.8806 0.78305 0.0
C624 C 0.49249 0.90607 0.79314 0.0
C625 C 0.50933 0.93262 0.77788 0.0
C626 C 0.47396 0.95631 0.78868 0.0
C627 C 0.49362 0.97822 0.82695 0.0
C628 C 0.45865 0.97113 0.73885 0.0
C629 C 0.43434 0.9389 0.81213 0.0
C630 C 0.44638 0.91006 0.81515 0.0
C631 C 0.41532 0.88939 0.83337 0.0
C632 C 0.3701 0.89813 0.84695 0.0
C633 C 0.35598 0.92727 0.84186 0.0
C634 C 0.38897 0.94809 0.82565 0.0
H635 H 0.15522 0.12215 0.25741 0.0
H636 H 0.13169 0.07867 0.4018 0.0
H637 H 0.04584 0.08177 0.38831 0.0
H638 H 0.05516 0.1701 0.25948 0.0
H639 H 0.04306 0.16571 0.19244 0.0
H640 H 0.10221 0.16227 0.21552 0.0
H641 H 0.10814 0.11138 0.17517 0.0
H642 H 0.04914 0.11474 0.1518 0.0
H643 H 0.06494 0.08453 0.19141 0.0
H644 H 0.96369 0.08895 0.35838 0.0
H645 H 0.89015 0.09522 0.31098 0.0
H646 H 0.96782 0.13156 0.1832 0.0
C647 C 0.13183 0.11375 0.2865 0.0
C648 C 0.14946 0.10066 0.33108 0.0
C649 C 0.11834 0.08897 0.36767 0.0
C650 C 0.06979 0.09074 0.36039 0.0
C651 C 0.0534 0.10379 0.31591 0.0
C652 C 0.08347 0.1147 0.27922 0.0
C653 C 0.05708 0.12535 0.23287 0.0
C654 C 0.06484 0.15779 0.22462 0.0
C655 C 0.07063 0.10796 0.18501 0.0
C656 C 0.00733 0.11902 0.24944 0.0
C657 C 0.00603 0.10684 0.29762 0.0
C658 C 0.96421 0.09852 0.32069 0.0
C659 C 0.92262 0.10225 0.2934 0.0
C660 C 0.92319 0.11399 0.24335 0.0
C661 C 0.96615 0.12278 0.22149 0.0
H662 H 0.03788 0.6385 0.83061 0.0
H663 H 0.1075 0.58146 0.72313 0.0
H664 H 0.03176 0.57135 0.68204 0.0
H665 H 0.93667 0.59678 0.8481 0.0
H666 H 0.89671 0.62679 0.85142 0.0
H667 H 0.95684 0.63133 0.87031 0.0
H668 H 0.96631 0.6733 0.80573 0.0
H669 H 0.90602 0.66906 0.78691 0.0
H670 H 0.95194 0.66757 0.73955 0.0
H671 H 0.94763 0.56363 0.65806 0.0
H672 H 0.86142 0.56248 0.64804 0.0
H673 H 0.84735 0.62607 0.76839 0.0
C674 C 0.03734 0.62428 0.79789 0.0
C675 C 0.07868 0.61085 0.78006 0.0
C676 C 0.07638 0.59219 0.73731 0.0
C677 C 0.03348 0.58622 0.71376 0.0
C678 C 0.99327 0.59931 0.73297 0.0
C679 C 0.99488 0.61829 0.77355 0.0
C680 C 0.94638 0.62895 0.78752 0.0
C681 C 0.9334 0.62044 0.84259 0.0
C682 C 0.94244 0.66166 0.77942 0.0
C683 C 0.91726 0.6126 0.74906 0.0
C684 C 0.94491 0.59552 0.71808 0.0
C685 C 0.92562 0.57724 0.68157 0.0
C686 C 0.87671 0.57659 0.67634 0.0
C687 C 0.84787 0.59433 0.70713 0.0
C688 C 0.86859 0.61258 0.74378 0.0
H689 H 0.46554 0.39685 0.33219 0.0
H690 H 0.39454 0.45079 0.22107 0.0
H691 H 0.46904 0.45797 0.17513 0.0
H692 H 0.56936 0.43746 0.33867 0.0
H693 H 0.60795 0.40689 0.34409 0.0
H694 H 0.54846 0.40437 0.36669 0.0
H695 H 0.53456 0.35998 0.30875 0.0
H696 H 0.59416 0.36226 0.2861 0.0
H697 H 0.5464 0.36264 0.24125 0.0
H698 H 0.55237 0.46369 0.14663 0.0
H699 H 0.63849 0.46381 0.13353 0.0
H700 H 0.65409 0.40373 0.25921 0.0
C701 C 0.46554 0.40981 0.29779 0.0
C702 C 0.42418 0.42316 0.28019 0.0
C703 C 0.4257 0.44013 0.23513 0.0
C704 C 0.46788 0.44442 0.20877 0.0
C705 C 0.50812 0.43132 0.22752 0.0
C706 C 0.50725 0.41404 0.27057 0.0
C707 C 0.55572 0.40303 0.28333 0.0
C708 C 0.57127 0.41358 0.33632 0.0
C709 C 0.55782 0.37001 0.27962 0.0
C710 C 0.58395 0.41716 0.24118 0.0
C711 C 0.55592 0.43358 0.20959 0.0
C712 C 0.57463 0.45045 0.1704 0.0
C713 C 0.62339 0.45048 0.16331 0.0
C714 C 0.65243 0.43338 0.19472 0.0
C715 C 0.63237 0.41638 0.23379 0.0
H716 H 0.29751 0.20742 0.29874 0.0
H717 H 0.28722 0.18838 0.46077 0.0
H718 H 0.28276 0.24018 0.47955 0.0
H719 H 0.37094 0.26859 0.31113 0.0
H720 H 0.34389 0.28913 0.26078 0.0
H721 H 0.34263 0.25038 0.25891 0.0
H722 H 0.25209 0.25139 0.25247 0.0
H723 H 0.25309 0.29019 0.25413 0.0
H724 H 0.21848 0.27046 0.30003 0.0
H725 H 0.28457 0.29369 0.48221 0.0
H726 H 0.29124 0.34598 0.46832 0.0
H727 H 0.29994 0.33185 0.3047 0.0
C728 C 0.29352 0.21415 0.33807 0.0
C729 C 0.29267 0.19364 0.37825 0.0
C730 C 0.28808 0.2035 0.42925 0.0
C731 C 0.28541 0.23296 0.44039 0.0
C732 C 0.28723 0.25256 0.40019 0.0
C733 C 0.29095 0.24368 0.35001 0.0
C734 C 0.29413 0.26952 0.31438 0.0
C735 C 0.34067 0.26939 0.28455 0.0
C736 C 0.25193 0.27044 0.27811 0.0
C737 C 0.29237 0.29417 0.35251 0.0
C738 C 0.28816 0.28378 0.40175 0.0
C739 C 0.28749 0.30211 0.44379 0.0
C740 C 0.29145 0.33184 0.43547 0.0
C741 C 0.29604 0.3432 0.38544 0.0
C742 C 0.29605 0.32397 0.3434 0.0
H743 H 0.16982 0.82969 0.92814 0.0
H744 H 0.27093 0.84425 0.80672 0.0
H745 H 0.28676 0.79217 0.80249 0.0
H746 H 0.23166 0.76739 0.98913 0.0
H747 H 0.17769 0.74859 1.00234 0.0
H748 H 0.17865 0.78742 1.00126 0.0
H749 H 0.11254 0.78751 0.93381 0.0
H750 H 0.1115 0.74876 0.93451 0.0
H751 H 0.12054 0.76775 0.87522 0.0
H752 H 0.28568 0.73921 0.8038 0.0
H753 H 0.26796 0.68746 0.81083 0.0
H754 H 0.16751 0.70526 0.93149 0.0
C755 C 0.19616 0.82188 0.90172 0.0
C756 C 0.21941 0.84098 0.86791 0.0
C757 C 0.25275 0.82997 0.83288 0.0
C758 C 0.26214 0.80044 0.83036 0.0
C759 C 0.23787 0.78206 0.86309 0.0
C760 C 0.20566 0.79221 0.89829 0.0
C761 C 0.18167 0.76734 0.92576 0.0
C762 C 0.19312 0.76771 0.98303 0.0
C763 C 0.12841 0.76788 0.91677 0.0
C764 C 0.20451 0.74176 0.89939 0.0
C765 C 0.23716 0.75092 0.86379 0.0
C766 C 0.26071 0.73172 0.83203 0.0
C767 C 0.25023 0.70238 0.83614 0.0
C768 C 0.21656 0.69236 0.8718 0.0
C769 C 0.19401 0.7123 0.90454 0.0
H770 H 0.78929 0.20148 0.21406 0.0
H771 H 0.79409 0.18611 0.05063 0.0
H772 H 0.78741 0.23823 0.03482 0.0
H773 H 0.70649 0.26255 0.20971 0.0
H774 H 0.73607 0.28155 0.26015 0.0
H775 H 0.73686 0.24275 0.25875 0.0
H776 H 0.82767 0.24336 0.26083 0.0
H777 H 0.82716 0.28209 0.26215 0.0
H778 H 0.85939 0.26346 0.21296 0.0
H779 H 0.78697 0.29216 0.03645 0.0
H780 H 0.79224 0.34411 0.05595 0.0
H781 H 0.78681 0.32445 0.218 0.0
C782 C 0.78813 0.20902 0.17495 0.0
C783 C 0.79226 0.18964 0.13364 0.0
C784 C 0.79113 0.20048 0.083 0.0
C785 C 0.78716 0.23008 0.07354 0.0
C786 C 0.78407 0.24864 0.11507 0.0
C787 C 0.78425 0.23856 0.16478 0.0
C788 C 0.78311 0.26323 0.20253 0.0
C789 C 0.73793 0.26247 0.23467 0.0
C790 C 0.82694 0.26301 0.2366 0.0
C791 C 0.78336 0.28868 0.16626 0.0
C792 C 0.78356 0.27981 0.11598 0.0
C793 C 0.78626 0.29941 0.07569 0.0
C794 C 0.78934 0.32886 0.08713 0.0
C795 C 0.78977 0.33842 0.13845 0.0
C796 C 0.78604 0.31795 0.17834 0.0
H797 H 0.6851 0.82856 0.59352 0.0
H798 H 0.77933 0.84638 0.71909 0.0
H799 H 0.79715 0.79458 0.72657 0.0
H800 H 0.63535 0.76758 0.64753 0.0
H801 H 0.62925 0.74745 0.58915 0.0
H802 H 0.6297 0.78617 0.58738 0.0
H803 H 0.6988 0.78523 0.52303 0.0
H804 H 0.69847 0.7464 0.52447 0.0
H805 H 0.75151 0.7658 0.53884 0.0
H806 H 0.79696 0.74136 0.72866 0.0
H807 H 0.77848 0.68951 0.72546 0.0
H808 H 0.6844 0.7047 0.59858 0.0
C809 C 0.71061 0.82157 0.62141 0.0
C810 C 0.7313 0.84147 0.6554 0.0
C811 C 0.76331 0.83147 0.69257 0.0
C812 C 0.77378 0.80211 0.69697 0.0
C813 C 0.7519 0.7829 0.66395 0.0
C814 C 0.72108 0.79213 0.62673 0.0
C815 C 0.69873 0.76662 0.59986 0.0
C816 C 0.64509 0.76699 0.6064 0.0
C817 C 0.71273 0.76598 0.54318 0.0
C818 C 0.72072 0.74174 0.62888 0.0
C819 C 0.75172 0.75172 0.66524 0.0
C820 C 0.77348 0.73323 0.69973 0.0
C821 C 0.76267 0.70383 0.69772 0.0
C822 C 0.73052 0.69309 0.66142 0.0
C823 C 0.71005 0.71224 0.62583 0.0
loop_
_geom_bond_atom_site_label_1
_geom_bond_atom_site_label_2
_geom_bond_distance
_geom_bond_site_symmetry_2
_ccdc_geom_bond_type
Fe0 O2 1.918 . S
Fe0 O5 1.997 . S
Fe0 O6 2.002 . S
Fe0 O11 1.976 . S
Fe0 O14 1.996 . S
Fe1 O2 1.918 . S
Fe1 O9 1.997 . S
Fe1 O12 1.996 . S
Fe1 O16 1.976 . S
Fe1 O19 2.002 . S
O2 Fe0 1.918 . S
O2 Fe1 1.918 . S
O2 Fe3 1.918 . S
Fe3 O2 1.918 . S
Fe3 O4 2.002 . S
Fe3 O13 1.976 . S
Fe3 O17 1.996 . S
Fe3 O20 1.997 . S
O4 Fe3 2.002 . S
O4 C21 1.295 . S
O5 Fe0 1.997 . S
O5 C21 1.235 . S
O6 Fe0 2.002 . S
O6 C7 1.295 . S
C7 O6 1.295 . S
C7 O9 1.235 . S
C8 O13 1.287 . S
C8 O14 1.255 . S
O9 Fe1 1.997 . S
O9 C7 1.235 . S
C10 O16 1.287 . S
C10 O17 1.255 . S
O11 Fe0 1.976 . S
O11 C18 1.287 . S
O12 Fe1 1.996 . S
O12 C18 1.255 . S
O13 Fe3 1.976 . S
O13 C8 1.287 . S
O14 Fe0 1.996 . S
O14 C8 1.255 . S
C15 O19 1.295 . S
C15 O20 1.235 . S
O16 Fe1 1.976 . S
O16 C10 1.287 . S
O17 Fe3 1.996 . S
O17 C10 1.255 . S
C18 O11 1.287 . S
C18 O12 1.255 . S
O19 Fe1 2.002 . S
O19 C15 1.295 . S
O20 Fe3 1.997 . S
O20 C15 1.235 . S
C21 O4 1.295 . S
C21 O5 1.235 . S
Fe22 O24 1.918 . S
Fe22 O27 1.997 . S
Fe22 O28 2.002 . S
Fe22 O33 1.976 . S
Fe22 O36 1.996 . S
Fe23 O24 1.918 . S
Fe23 O31 1.997 . S
Fe23 O34 1.996 . S
Fe23 O38 1.976 . S
Fe23 O41 2.002 . S
O24 Fe22 1.918 . S
O24 Fe23 1.918 . S
O24 Fe25 1.918 . S
Fe25 O24 1.918 . S
Fe25 O26 2.002 . S
Fe25 O35 1.976 . S
Fe25 O39 1.996 . S
Fe25 O42 1.997 . S
O26 Fe25 2.002 . S
O26 C43 1.295 . S
O27 Fe22 1.997 . S
O27 C43 1.235 . S
O28 Fe22 2.002 . S
O28 C29 1.295 . S
C29 O28 1.295 . S
C29 O31 1.235 . S
C30 O35 1.287 . S
C30 O36 1.255 . S
O31 Fe23 1.997 . S
O31 C29 1.235 . S
C32 O38 1.287 . S
C32 O39 1.255 . S
O33 Fe22 1.976 . S
O33 C40 1.287 . S
O34 Fe23 1.996 . S
O34 C40 1.255 . S
O35 Fe25 1.976 . S
O35 C30 1.287 . S
O36 Fe22 1.996 . S
O36 C30 1.255 . S
C37 O41 1.295 . S
C37 O42 1.235 . S
O38 Fe23 1.976 . S
O38 C32 1.287 . S
O39 Fe25 1.996 . S
O39 C32 1.255 . S
C40 O33 1.287 . S
C40 O34 1.255 . S
O41 Fe23 2.002 . S
O41 C37 1.295 . S
O42 Fe25 1.997 . S
O42 C37 1.235 . S
C43 O26 1.295 . S
C43 O27 1.235 . S
Fe44 O46 1.918 . S
Fe44 O49 1.997 . S
Fe44 O50 2.002 . S
Fe44 O55 1.976 . S
Fe44 O58 1.996 . S
Fe45 O46 1.918 . S
Fe45 O53 1.997 . S
Fe45 O56 1.996 . S
Fe45 O60 1.976 . S
Fe45 O63 2.002 . S
O46 Fe44 1.918 . S
O46 Fe45 1.918 . S
O46 Fe47 1.918 . S
Fe47 O46 1.918 . S
Fe47 O48 2.002 . S
Fe47 O57 1.976 . S
Fe47 O61 1.996 . S
Fe47 O64 1.997 . S
O48 Fe47 2.002 . S
O48 C65 1.295 . S
O49 Fe44 1.997 . S
O49 C65 1.235 . S
O50 Fe44 2.002 . S
O50 C51 1.295 . S
C51 O50 1.295 . S
C51 O53 1.235 . S
C52 O57 1.287 . S
C52 O58 1.255 . S
O53 Fe45 1.997 . S
O53 C51 1.235 . S
C54 O60 1.287 . S
C54 O61 1.255 . S
O55 Fe44 1.976 . S
O55 C62 1.287 . S
O56 Fe45 1.996 . S
O56 C62 1.255 . S
O57 Fe47 1.976 . S
O57 C52 1.287 . S
O58 Fe44 1.996 . S
O58 C52 1.255 . S
C59 O63 1.295 . S
C59 O64 1.235 . S
O60 Fe45 1.976 . S
O60 C54 1.287 . S
O61 Fe47 1.996 . S
O61 C54 1.255 . S
C62 O55 1.287 . S
C62 O56 1.255 . S
O63 Fe45 2.002 . S
O63 C59 1.295 . S
O64 Fe47 1.997 . S
O64 C59 1.235 . S
C65 O48 1.295 . S
C65 O49 1.235 . S
Fe66 O68 1.918 . S
Fe66 O71 1.997 . S
Fe66 O72 2.002 . S
Fe66 O77 1.976 . S
Fe66 O80 1.996 . S
Fe67 O68 1.918 . S
Fe67 O75 1.997 . S
Fe67 O78 1.996 . S
Fe67 O82 1.976 . S
Fe67 O85 2.002 . S
O68 Fe66 1.918 . S
O68 Fe67 1.918 . S
O68 Fe69 1.918 . S
Fe69 O68 1.918 . S
Fe69 O70 2.002 . S
Fe69 O79 1.976 . S
Fe69 O83 1.996 . S
Fe69 O86 1.997 . S
O70 Fe69 2.002 . S
O70 C87 1.295 . S
O71 Fe66 1.997 . S
O71 C87 1.235 . S
O72 Fe66 2.002 . S
O72 C73 1.295 . S
C73 O72 1.295 . S
C73 O75 1.235 . S
C74 O79 1.287 . S
C74 O80 1.255 . S
O75 Fe67 1.997 . S
O75 C73 1.235 . S
C76 O82 1.287 . S
C76 O83 1.255 . S
O77 Fe66 1.976 . S
O77 C84 1.287 . S
O78 Fe67 1.996 . S
O78 C84 1.255 . S
O79 Fe69 1.976 . S
O79 C74 1.287 . S
O80 Fe66 1.996 . S
O80 C74 1.255 . S
C81 O85 1.295 . S
C81 O86 1.235 . S
O82 Fe67 1.976 . S
O82 C76 1.287 . S
O83 Fe69 1.996 . S
O83 C76 1.255 . S
C84 O77 1.287 . S
C84 O78 1.255 . S
O85 Fe67 2.002 . S
O85 C81 1.295 . S
O86 Fe69 1.997 . S
O86 C81 1.235 . S
C87 O70 1.295 . S
C87 O71 1.235 . S
Fe88 O90 1.918 . S
Fe88 O93 1.997 . S
Fe88 O94 2.002 . S
Fe88 O99 1.976 . S
Fe88 O102 1.996 . S
Fe89 O90 1.918 . S
Fe89 O97 1.997 . S
Fe89 O100 1.996 . S
Fe89 O104 1.976 . S
Fe89 O107 2.002 . S
O90 Fe88 1.918 . S
O90 Fe89 1.918 . S
O90 Fe91 1.918 . S
Fe91 O90 1.918 . S
Fe91 O92 2.002 . S
Fe91 O101 1.976 . S
Fe91 O105 1.996 . S
Fe91 O108 1.997 . S
O92 Fe91 2.002 . S
O92 C109 1.295 . S
O93 Fe88 1.997 . S
O93 C109 1.235 . S
O94 Fe88 2.002 . S
O94 C95 1.295 . S
C95 O94 1.295 . S
C95 O97 1.235 . S
C96 O101 1.287 . S
C96 O102 1.255 . S
O97 Fe89 1.997 . S
O97 C95 1.235 . S
C98 O104 1.287 . S
C98 O105 1.255 . S
O99 Fe88 1.976 . S
O99 C106 1.287 . S
O100 Fe89 1.996 . S
O100 C106 1.255 . S
O101 Fe91 1.976 . S
O101 C96 1.287 . S
O102 Fe88 1.996 . S
O102 C96 1.255 . S
C103 O107 1.295 . S
C103 O108 1.235 . S
O104 Fe89 1.976 . S
O104 C98 1.287 . S
O105 Fe91 1.996 . S
O105 C98 1.255 . S
C106 O99 1.287 . S
C106 O100 1.255 . S
O107 Fe89 2.002 . S
O107 C103 1.295 . S
O108 Fe91 1.997 . S
O108 C103 1.235 . S
C109 O92 1.295 . S
C109 O93 1.235 . S
Fe110 O112 1.918 . S
Fe110 O115 1.997 . S
Fe110 O116 2.002 . S
Fe110 O121 1.976 . S
Fe110 O124 1.996 . S
Fe111 O112 1.918 . S
Fe111 O119 1.997 . S
Fe111 O122 1.996 . S
Fe111 O126 1.976 . S
Fe111 O129 2.002 . S
O112 Fe110 1.918 . S
O112 Fe111 1.918 . S
O112 Fe113 1.918 . S
Fe113 O112 1.918 . S
Fe113 O114 2.002 . S
Fe113 O123 1.976 . S
Fe113 O127 1.996 . S
Fe113 O130 1.997 . S
O114 Fe113 2.002 . S
O114 C131 1.295 . S
O115 Fe110 1.997 . S
O115 C131 1.235 . S
O116 Fe110 2.002 . S
O116 C117 1.295 . S
C117 O116 1.295 . S
C117 O119 1.235 . S
C118 O123 1.287 . S
C118 O124 1.255 . S
O119 Fe111 1.997 . S
O119 C117 1.235 . S
C120 O126 1.287 . S
C120 O127 1.255 . S
O121 Fe110 1.976 . S
O121 C128 1.287 . S
O122 Fe111 1.996 . S
O122 C128 1.255 . S
O123 Fe113 1.976 . S
O123 C118 1.287 . S
O124 Fe110 1.996 . S
O124 C118 1.255 . S
C125 O129 1.295 . S
C125 O130 1.235 . S
O126 Fe111 1.976 . S
O126 C120 1.287 . S
O127 Fe113 1.996 . S
O127 C120 1.255 . S
C128 O121 1.287 . S
C128 O122 1.255 . S
O129 Fe111 2.002 . S
O129 C125 1.295 . S
O130 Fe113 1.997 . S
O130 C125 1.235 . S
C131 O114 1.295 . S
C131 O115 1.235 . S
Fe132 O134 1.918 . S
Fe132 O137 1.997 . S
Fe132 O138 2.002 . S
Fe132 O143 1.976 . S
Fe132 O146 1.996 . S
Fe133 O134 1.918 . S
Fe133 O141 1.997 . S
Fe133 O144 1.996 . S
Fe133 O148 1.976 . S
Fe133 O151 2.002 . S
O134 Fe132 1.918 . S
O134 Fe133 1.918 . S
O134 Fe135 1.918 . S
Fe135 O134 1.918 . S
Fe135 O136 2.002 . S
Fe135 O145 1.976 . S
Fe135 O149 1.996 . S
Fe135 O152 1.997 . S
O136 Fe135 2.002 . S
O136 C153 1.295 . S
O137 Fe132 1.997 . S
O137 C153 1.235 . S
O138 Fe132 2.002 . S
O138 C139 1.295 . S
C139 O138 1.295 . S
C139 O141 1.235 . S
C140 O145 1.287 . S
C140 O146 1.255 . S
O141 Fe133 1.997 . S
O141 C139 1.235 . S
C142 O148 1.287 . S
C142 O149 1.255 . S
O143 Fe132 1.976 . S
O143 C150 1.287 . S
O144 Fe133 1.996 . S
O144 C150 1.255 . S
O145 Fe135 1.976 . S
O145 C140 1.287 . S
O146 Fe132 1.996 . S
O146 C140 1.255 . S
C147 O151 1.295 . S
C147 O152 1.235 . S
O148 Fe133 1.976 . S
O148 C142 1.287 . S
O149 Fe135 1.996 . S
O149 C142 1.255 . S
C150 O143 1.287 . S
C150 O144 1.255 . S
O151 Fe133 2.002 . S
O151 C147 1.295 . S
O152 Fe135 1.997 . S
O152 C147 1.235 . S
C153 O136 1.295 . S
C153 O137 1.235 . S
Fe154 O156 1.918 . S
Fe154 O159 1.997 . S
Fe154 O160 2.002 . S
Fe154 O165 1.976 . S
Fe154 O168 1.996 . S
Fe155 O156 1.918 . S
Fe155 O163 1.997 . S
Fe155 O166 1.996 . S
Fe155 O170 1.976 . S
Fe155 O173 2.002 . S
O156 Fe154 1.918 . S
O156 Fe155 1.918 . S
O156 Fe157 1.918 . S
Fe157 O156 1.918 . S
Fe157 O158 2.002 . S
Fe157 O167 1.976 . S
Fe157 O171 1.996 . S
Fe157 O174 1.997 . S
O158 Fe157 2.002 . S
O158 C175 1.295 . S
O159 Fe154 1.997 . S
O159 C175 1.235 . S
O160 Fe154 2.002 . S
O160 C161 1.295 . S
C161 O160 1.295 . S
C161 O163 1.235 . S
C162 O167 1.287 . S
C162 O168 1.255 . S
O163 Fe155 1.997 . S
O163 C161 1.235 . S
C164 O170 1.287 . S
C164 O171 1.255 . S
O165 Fe154 1.976 . S
O165 C172 1.287 . S
O166 Fe155 1.996 . S
O166 C172 1.255 . S
O167 Fe157 1.976 . S
O167 C162 1.287 . S
O168 Fe154 1.996 . S
O168 C162 1.255 . S
C169 O173 1.295 . S
C169 O174 1.235 . S
O170 Fe155 1.976 . S
O170 C164 1.287 . S
O171 Fe157 1.996 . S
O171 C164 1.255 . S
C172 O165 1.287 . S
C172 O166 1.255 . S
O173 Fe155 2.002 . S
O173 C169 1.295 . S
O174 Fe157 1.997 . S
O174 C169 1.235 . S
C175 O158 1.295 . S
C175 O159 1.235 . S
H176 C188 0.924 1_545 S
H177 C190 0.930 . S
H178 C191 0.930 . S
H179 C195 0.959 . S
H180 C195 0.959 . S
H181 C195 0.961 . S
H182 C196 0.960 . S
H183 C196 0.961 . S
H184 C196 0.959 . S
H185 C199 0.929 . S
H186 C200 0.931 . S
H187 C202 0.930 . S
C188 H176 0.924 1_565 S
C188 C189 1.406 . S
C188 C193 1.397 1_565 S
C189 C188 1.406 . S
C189 C190 1.376 . S
C190 H177 0.930 . S
C190 C189 1.376 . S
C190 C191 1.388 . S
C191 H178 0.930 . S
C191 C190 1.388 . S
C191 C192 1.390 . S
C192 C191 1.390 . S
C192 C193 1.394 1_565 S
C192 C198 1.465 . S
C193 C188 1.397 1_545 S
C193 C192 1.394 1_545 S
C193 C194 1.516 . S
C194 C193 1.516 . S
C194 C195 1.502 . S
C194 C196 1.561 . S
C194 C197 1.526 . S
C195 H179 0.959 . S
C195 H180 0.959 . S
C195 H181 0.961 . S
C195 C194 1.502 . S
C196 H182 0.960 . S
C196 H183 0.961 . S
C196 H184 0.959 . S
C196 C194 1.561 . S
C197 C194 1.526 . S
C197 C198 1.396 1_545 S
C197 C202 1.390 . S
C198 C192 1.465 . S
C198 C197 1.396 1_565 S
C198 C199 1.399 . S
C199 H185 0.929 . S
C199 C198 1.399 . S
C199 C200 1.385 . S
C200 H186 0.931 . S
C200 C199 1.385 . S
C200 C201 1.389 1_565 S
C201 C200 1.389 1_545 S
C201 C202 1.387 . S
C202 H187 0.930 . S
C202 C197 1.390 . S
C202 C201 1.387 . S
H203 C215 0.930 . S
H204 C217 0.930 . S
H205 C218 0.930 . S
H206 C222 0.959 . S
H207 C222 0.959 . S
H208 C222 0.969 . S
H209 C223 0.960 . S
H210 C223 0.961 . S
H211 C223 0.959 . S
H212 C226 0.929 . S
H213 C227 0.931 . S
H214 C229 0.930 . S
C215 H203 0.930 . S
C215 C216 1.399 . S
C215 C220 1.399 . S
C216 C215 1.399 . S
C216 C217 1.376 1_545 S
C217 H204 0.930 . S
C217 C216 1.376 1_565 S
C217 C218 1.388 . S
C218 H205 0.930 . S
C218 C217 1.388 . S
C218 C219 1.390 . S
C219 C218 1.390 . S
C219 C220 1.394 1_565 S
C219 C225 1.465 1_654 S
C220 C215 1.399 . S
C220 C219 1.394 1_545 S
C220 C221 1.516 1_655 S
C221 C220 1.516 1_455 S
C221 C222 1.502 1_554 S
C221 C223 1.561 . S
C221 C224 1.526 1_554 S
C222 H206 0.959 . S
C222 H207 0.959 . S
C222 H208 0.969 . S
C222 C221 1.502 1_556 S
C223 H209 0.960 . S
C223 H210 0.961 . S
C223 H211 0.959 . S
C223 C221 1.561 . S
C224 C221 1.526 1_556 S
C224 C225 1.396 1_545 S
C224 C229 1.390 . S
C225 C219 1.465 1_456 S
C225 C224 1.396 1_565 S
C225 C226 1.399 . S
C226 H212 0.929 . S
C226 C225 1.399 . S
C226 C227 1.385 . S
C227 H213 0.931 . S
C227 C226 1.385 . S
C227 C228 1.389 . S
C228 C227 1.389 . S
C228 C229 1.387 1_565 S
C229 H214 0.930 . S
C229 C224 1.390 . S
C229 C228 1.387 1_545 S
H230 C242 0.930 . S
H231 C244 0.930 . S
H232 C245 0.930 . S
H233 C249 0.959 . S
H234 C249 0.959 . S
H235 C249 0.944 1_455 S
H236 C250 0.960 . S
H237 C250 0.961 1_554 S
H238 C250 0.959 1_554 S
H239 C253 0.929 . S
H240 C254 0.931 . S
H241 C256 0.930 . S
C242 H230 0.930 . S
C242 C243 1.399 . S
C242 C247 1.399 . S
C243 C242 1.399 . S
C243 C244 1.376 . S
C244 H231 0.930 . S
C244 C243 1.376 . S
C244 C245 1.388 1_556 S
C245 H232 0.930 . S
C245 C244 1.388 1_554 S
C245 C246 1.390 . S
C246 C245 1.390 . S
C246 C247 1.394 1_554 S
C246 C252 1.465 1_455 S
C247 C242 1.399 . S
C247 C246 1.394 1_556 S
C247 C248 1.516 . S
C248 C247 1.516 . S
C248 C249 1.502 1_455 S
C248 C250 1.561 . S
C248 C251 1.526 1_456 S
C249 H233 0.959 . S
C249 H234 0.959 . S
C249 H235 0.944 1_655 S
C249 C248 1.502 1_655 S
C250 H236 0.960 . S
C250 H237 0.961 1_556 S
C250 H238 0.959 1_556 S
C250 C248 1.561 . S
C251 C248 1.526 1_654 S
C251 C252 1.396 . S
C251 C256 1.390 . S
C252 C246 1.465 1_655 S
C252 C251 1.396 . S
C252 C253 1.399 . S
C253 H239 0.929 . S
C253 C252 1.399 . S
C253 C254 1.385 . S
C254 H240 0.931 . S
C254 C253 1.385 . S
C254 C255 1.389 . S
C255 C254 1.389 . S
C255 C256 1.387 . S
C256 H241 0.930 . S
C256 C251 1.390 . S
C256 C255 1.387 . S
H257 C269 0.930 . S
H258 C271 0.930 . S
H259 C272 0.930 . S
H260 C276 0.959 . S
H261 C276 0.959 . S
H262 C276 0.961 . S
H263 C277 0.960 . S
H264 C277 0.961 . S
H265 C277 0.959 . S
H266 C280 0.929 . S
H267 C281 0.931 . S
H268 C283 0.930 . S
C269 H257 0.930 . S
C269 C270 1.399 . S
C269 C274 1.399 . S
C270 C269 1.399 . S
C270 C271 1.376 . S
C271 H258 0.930 . S
C271 C270 1.376 . S
C271 C272 1.388 . S
C272 H259 0.930 . S
C272 C271 1.388 . S
C272 C273 1.390 . S
C273 C272 1.390 . S
C273 C274 1.394 . S
C273 C279 1.465 . S
C274 C269 1.399 . S
C274 C273 1.394 . S
C274 C275 1.516 . S
C275 C274 1.516 . S
C275 C276 1.502 . S
C275 C277 1.561 . S
C275 C278 1.526 . S
C276 H260 0.959 . S
C276 H261 0.959 . S
C276 H262 0.961 . S
C276 C275 1.502 . S
C277 H263 0.960 . S
C277 H264 0.961 . S
C277 H265 0.959 . S
C277 C275 1.561 . S
C278 C275 1.526 . S
C278 C279 1.396 . S
C278 C283 1.390 . S
C279 C273 1.465 . S
C279 C278 1.396 . S
C279 C280 1.399 . S
C280 H266 0.929 . S
C280 C279 1.399 . S
C280 C281 1.385 . S
C281 H267 0.931 . S
C281 C280 1.385 . S
C281 C282 1.389 . S
C282 C281 1.389 . S
C282 C283 1.387 . S
C283 H268 0.930 . S
C283 C278 1.390 . S
C283 C282 1.387 . S
H284 C296 0.930 . S
H285 C298 0.930 . S
H286 C299 0.930 . S
H287 C303 0.959 . S
H288 C303 0.959 . S
H289 C303 0.961 . S
H290 C304 0.960 . S
H291 C304 0.961 . S
H292 C304 0.959 . S
H293 C307 0.929 1_545 S
H294 C308 0.931 1_556 S
H295 C310 0.930 . S
C296 H284 0.930 . S
C296 C297 1.399 1_565 S
C296 C301 1.399 . S
C297 C296 1.399 1_545 S
C297 C298 1.376 . S
C298 H285 0.930 . S
C298 C297 1.376 . S
C298 C299 1.388 . S
C299 H286 0.930 . S
C299 C298 1.388 . S
C299 C300 1.398 . S
C300 C299 1.398 . S
C300 C301 1.389 1_545 S
C300 C306 1.460 1_545 S
C301 C296 1.399 . S
C301 C300 1.389 1_565 S
C301 C302 1.516 . S
C302 C301 1.516 . S
C302 C303 1.502 . S
C302 C304 1.561 . S
C302 C305 1.526 . S
C303 H287 0.959 . S
C303 H288 0.959 . S
C303 H289 0.961 . S
C303 C302 1.502 . S
C304 H290 0.960 . S
C304 H291 0.961 . S
C304 H292 0.959 . S
C304 C302 1.561 . S
C305 C302 1.526 . S
C305 C306 1.396 . S
C305 C310 1.390 . S
C306 C300 1.460 1_565 S
C306 C305 1.396 . S
C306 C307 1.399 . S
C307 H293 0.929 1_565 S
C307 C306 1.399 . S
C307 C308 1.385 . S
C308 H294 0.931 1_554 S
C308 C307 1.385 . S
C308 C309 1.389 . S
C309 C308 1.389 . S
C309 C310 1.387 . S
C310 H295 0.930 . S
C310 C305 1.390 . S
C310 C309 1.387 . S
H311 C323 0.930 . S
H312 C325 0.930 . S
H313 C326 0.930 . S
H314 C330 0.959 . S
H315 C330 0.959 . S
H316 C330 0.961 . S
H317 C331 0.960 . S
H318 C331 0.961 . S
H319 C331 0.959 . S
H320 C334 0.929 . S
H321 C335 0.931 . S
H322 C337 0.930 . S
C323 H311 0.930 . S
C323 C324 1.399 . S
C323 C328 1.399 . S
C324 C323 1.399 . S
C324 C325 1.376 1_565 S
C325 H312 0.930 . S
C325 C324 1.376 1_545 S
C325 C326 1.388 . S
C326 H313 0.930 . S
C326 C325 1.388 . S
C326 C327 1.390 . S
C327 C326 1.390 . S
C327 C328 1.394 1_545 S
C327 C333 1.465 . S
C328 C323 1.399 . S
C328 C327 1.394 1_565 S
C328 C329 1.516 . S
C329 C328 1.516 . S
C329 C330 1.502 . S
C329 C331 1.561 . S
C329 C332 1.526 1_565 S
C330 H314 0.959 . S
C330 H315 0.959 . S
C330 H316 0.961 . S
C330 C329 1.502 . S
C331 H317 0.960 . S
C331 H318 0.961 . S
C331 H319 0.959 . S
C331 C329 1.561 . S
C332 C329 1.526 1_545 S
C332 C333 1.396 . S
C332 C337 1.390 . S
C333 C327 1.465 . S
C333 C332 1.396 . S
C333 C334 1.399 . S
C334 H320 0.929 . S
C334 C333 1.399 . S
C334 C335 1.385 . S
C335 H321 0.931 . S
C335 C334 1.385 . S
C335 C336 1.389 . S
C336 C335 1.389 . S
C336 C337 1.387 . S
C337 H322 0.930 . S
C337 C332 1.390 . S
C337 C336 1.387 . S
H338 C350 0.930 . S
H339 C352 0.930 . S
H340 C353 0.930 . S
H341 C357 0.959 . S
H342 C357 0.959 . S
H343 C357 0.961 . S
H344 C358 0.960 . S
H345 C358 0.961 . S
H346 C358 0.959 . S
H347 C361 0.929 . S
H348 C362 0.931 . S
H349 C364 0.930 . S
C350 H338 0.930 . S
C350 C351 1.399 . S
C350 C355 1.399 . S
C351 C350 1.399 . S
C351 C352 1.376 . S
C352 H339 0.930 . S
C352 C351 1.376 . S
C352 C353 1.388 . S
C353 H340 0.930 . S
C353 C352 1.388 . S
C353 C354 1.390 . S
C354 C353 1.390 . S
C354 C355 1.394 . S
C354 C360 1.465 . S
C355 C350 1.399 . S
C355 C354 1.394 . S
C355 C356 1.516 . S
C356 C355 1.516 . S
C356 C357 1.502 . S
C356 C358 1.561 . S
C356 C359 1.526 . S
C357 H341 0.959 . S
C357 H342 0.959 . S
C357 H343 0.961 . S
C357 C356 1.502 . S
C358 H344 0.960 . S
C358 H345 0.961 . S
C358 H346 0.959 . S
C358 C356 1.561 . S
C359 C356 1.526 . S
C359 C360 1.396 . S
C359 C364 1.390 . S
C360 C354 1.465 . S
C360 C359 1.396 . S
C360 C361 1.399 . S
C361 H347 0.929 . S
C361 C360 1.399 . S
C361 C362 1.385 . S
C362 H348 0.931 . S
C362 C361 1.385 . S
C362 C363 1.389 . S
C363 C362 1.389 . S
C363 C364 1.387 . S
C364 H349 0.930 . S
C364 C359 1.390 . S
C364 C363 1.387 . S
H365 C377 0.930 . S
H366 C379 0.930 . S
H367 C380 0.930 . S
H368 C384 0.959 . S
H369 C384 0.959 . S
H370 C384 0.961 . S
H371 C385 0.960 . S
H372 C385 0.961 . S
H373 C385 0.959 . S
H374 C388 0.929 . S
H375 C389 0.931 . S
H376 C391 0.930 . S
C377 H365 0.930 . S
C377 C378 1.399 . S
C377 C382 1.399 . S
C378 C377 1.399 . S
C378 C379 1.376 . S
C379 H366 0.930 . S
C379 C378 1.376 . S
C379 C380 1.388 . S
C380 H367 0.930 . S
C380 C379 1.388 . S
C380 C381 1.390 . S
C381 C380 1.390 . S
C381 C382 1.394 . S
C381 C387 1.465 . S
C382 C377 1.399 . S
C382 C381 1.394 . S
C382 C383 1.516 . S
C383 C382 1.516 . S
C383 C384 1.502 . S
C383 C385 1.561 . S
C383 C386 1.526 . S
C384 H368 0.959 . S
C384 H369 0.959 . S
C384 H370 0.961 . S
C384 C383 1.502 . S
C385 H371 0.960 . S
C385 H372 0.961 . S
C385 H373 0.959 . S
C385 C383 1.561 . S
C386 C383 1.526 . S
C386 C387 1.396 . S
C386 C391 1.390 . S
C387 C381 1.465 . S
C387 C386 1.396 . S
C387 C388 1.399 . S
C388 H374 0.929 . S
C388 C387 1.399 . S
C388 C389 1.385 . S
C389 H375 0.931 . S
C389 C388 1.385 . S
C389 C390 1.389 . S
C390 C389 1.389 . S
C390 C391 1.387 . S
C391 H376 0.930 . S
C391 C386 1.390 . S
C391 C390 1.387 . S
H392 C404 0.930 . S
H393 C406 0.930 1_554 S
H394 C407 0.930 . S
H395 C411 0.959 . S
H396 C411 0.959 . S
H397 C411 0.961 . S
H398 C412 0.960 . S
H399 C412 0.961 . S
H400 C412 0.959 1_565 S
H401 C415 0.929 . S
H402 C416 0.931 . S
H403 C418 0.930 . S
C404 H392 0.930 . S
C404 C405 1.399 . S
C404 C409 1.399 . S
C405 C404 1.399 . S
C405 C406 1.376 . S
C406 H393 0.930 1_556 S
C406 C405 1.376 . S
C406 C407 1.388 . S
C407 H394 0.930 . S
C407 C406 1.388 . S
C407 C408 1.390 . S
C408 C407 1.390 . S
C408 C409 1.394 . S
C408 C414 1.465 . S
C409 C404 1.399 . S
C409 C408 1.394 . S
C409 C410 1.516 . S
C410 C409 1.516 . S
C410 C411 1.502 . S
C410 C412 1.561 . S
C410 C413 1.526 . S
C411 H395 0.959 . S
C411 H396 0.959 . S
C411 H397 0.961 . S
C411 C410 1.502 . S
C412 H398 0.960 . S
C412 H399 0.961 . S
C412 H400 0.959 1_545 S
C412 C410 1.561 . S
C413 C410 1.526 . S
C413 C414 1.396 . S
C413 C418 1.390 1_545 S
C414 C408 1.465 . S
C414 C413 1.396 . S
C414 C415 1.399 1_545 S
C415 H401 0.929 . S
C415 C414 1.399 1_565 S
C415 C416 1.385 . S
C416 H402 0.931 . S
C416 C415 1.385 . S
C416 C417 1.389 . S
C417 C416 1.389 . S
C417 C418 1.387 . S
C418 H403 0.930 . S
C418 C413 1.390 1_565 S
C418 C417 1.387 . S
H419 C431 0.930 . S
H420 C433 0.930 . S
H421 C434 0.930 . S
H422 C438 0.959 . S
H423 C438 0.959 . S
H424 C438 0.961 . S
H425 C439 0.957 1_565 S
H426 C439 0.961 . S
H427 C439 0.959 1_565 S
H428 C442 0.929 . S
H429 C443 0.931 . S
H430 C445 0.930 . S
C431 H419 0.930 . S
C431 C432 1.399 . S
C431 C436 1.399 . S
C432 C431 1.399 . S
C432 C433 1.376 . S
C433 H420 0.930 . S
C433 C432 1.376 . S
C433 C434 1.388 . S
C434 H421 0.930 . S
C434 C433 1.388 . S
C434 C435 1.390 . S
C435 C434 1.390 . S
C435 C436 1.394 . S
C435 C441 1.465 . S
C436 C431 1.399 . S
C436 C435 1.394 . S
C436 C437 1.516 1_565 S
C437 C436 1.516 1_545 S
C437 C438 1.502 . S
C437 C439 1.561 . S
C437 C440 1.526 . S
C438 H422 0.959 . S
C438 H423 0.959 . S
C438 H424 0.961 . S
C438 C437 1.502 . S
C439 H425 0.957 1_545 S
C439 H426 0.961 . S
C439 H427 0.959 1_545 S
C439 C437 1.561 . S
C440 C437 1.526 . S
C440 C441 1.396 1_545 S
C440 C445 1.390 . S
C441 C435 1.465 . S
C441 C440 1.396 1_565 S
C441 C442 1.399 . S
C442 H428 0.929 . S
C442 C441 1.399 . S
C442 C443 1.385 . S
C443 H429 0.931 . S
C443 C442 1.385 . S
C443 C444 1.389 1_565 S
C444 C443 1.389 1_545 S
C444 C445 1.387 . S
C445 H430 0.930 . S
C445 C440 1.390 . S
C445 C444 1.387 . S
H446 C458 0.930 . S
H447 C460 0.930 . S
H448 C461 0.930 . S
H449 C465 0.959 . S
H450 C465 0.959 . S
H451 C465 0.961 . S
H452 C466 0.960 . S
H453 C466 0.961 . S
H454 C466 0.959 . S
H455 C469 0.929 . S
H456 C470 0.931 . S
H457 C472 0.930 . S
C458 H446 0.930 . S
C458 C459 1.399 . S
C458 C463 1.399 . S
C459 C458 1.399 . S
C459 C460 1.376 . S
C460 H447 0.930 . S
C460 C459 1.376 . S
C460 C461 1.388 . S
C461 H448 0.930 . S
C461 C460 1.388 . S
C461 C462 1.390 . S
C462 C461 1.390 . S
C462 C463 1.394 . S
C462 C468 1.465 . S
C463 C458 1.399 . S
C463 C462 1.394 . S
C463 C464 1.516 . S
C464 C463 1.516 . S
C464 C465 1.502 . S
C464 C466 1.561 . S
C464 C467 1.526 . S
C465 H449 0.959 . S
C465 H450 0.959 . S
C465 H451 0.961 . S
C465 C464 1.502 . S
C466 H452 0.960 . S
C466 H453 0.961 . S
C466 H454 0.959 . S
C466 C464 1.561 . S
C467 C464 1.526 . S
C467 C468 1.396 . S
C467 C472 1.390 . S
C468 C462 1.465 . S
C468 C467 1.396 . S
C468 C469 1.399 . S
C469 H455 0.929 . S
C469 C468 1.399 . S
C469 C470 1.385 . S
C470 H456 0.931 . S
C470 C469 1.385 . S
C470 C471 1.389 . S
C471 C470 1.389 . S
C471 C472 1.387 . S
C472 H457 0.930 . S
C472 C467 1.390 . S
C472 C471 1.387 . S
H473 C485 0.930 . S
H474 C487 0.930 . S
H475 C488 0.930 . S
H476 C492 0.959 . S
H477 C492 0.959 . S
H478 C492 0.961 . S
H479 C493 0.960 . S
H480 C493 0.961 . S
H481 C493 0.959 . S
H482 C496 0.929 . S
H483 C497 0.931 . S
H484 C499 0.930 . S
C485 H473 0.930 . S
C485 C486 1.399 . S
C485 C490 1.399 . S
C486 C485 1.399 . S
C486 C487 1.376 . S
C487 H474 0.930 . S
C487 C486 1.376 . S
C487 C488 1.388 . S
C488 H475 0.930 . S
C488 C487 1.388 . S
C488 C489 1.390 . S
C489 C488 1.390 . S
C489 C490 1.394 . S
C489 C495 1.465 . S
C490 C485 1.399 . S
C490 C489 1.394 . S
C490 C491 1.516 . S
C491 C490 1.516 . S
C491 C492 1.502 . S
C491 C493 1.561 . S
C491 C494 1.526 . S
C492 H476 0.959 . S
C492 H477 0.959 . S
C492 H478 0.961 . S
C492 C491 1.502 . S
C493 H479 0.960 . S
C493 H480 0.961 . S
C493 H481 0.959 . S
C493 C491 1.561 . S
C494 C491 1.526 . S
C494 C495 1.396 . S
C494 C499 1.390 . S
C495 C489 1.465 . S
C495 C494 1.396 . S
C495 C496 1.399 . S
C496 H482 0.929 . S
C496 C495 1.399 . S
C496 C497 1.385 . S
C497 H483 0.931 . S
C497 C496 1.385 . S
C497 C498 1.389 . S
C498 C497 1.389 . S
C498 C499 1.387 . S
C499 H484 0.930 . S
C499 C494 1.390 . S
C499 C498 1.387 . S
H500 C512 0.930 . S
H501 C514 0.930 . S
H502 C515 0.930 . S
H503 C519 0.959 . S
H504 C519 0.959 . S
H505 C519 0.961 . S
H506 C520 0.960 . S
H507 C520 0.961 . S
H508 C520 0.959 . S
H509 C523 0.929 . S
H510 C524 0.931 . S
H511 C526 0.930 . S
C512 H500 0.930 . S
C512 C513 1.399 . S
C512 C517 1.399 . S
C513 C512 1.399 . S
C513 C514 1.376 . S
C514 H501 0.930 . S
C514 C513 1.376 . S
C514 C515 1.388 . S
C515 H502 0.930 . S
C515 C514 1.388 . S
C515 C516 1.390 . S
C516 C515 1.390 . S
C516 C517 1.394 . S
C516 C522 1.465 . S
C517 C512 1.399 . S
C517 C516 1.394 . S
C517 C518 1.516 . S
C518 C517 1.516 . S
C518 C519 1.502 . S
C518 C520 1.561 . S
C518 C521 1.526 . S
C519 H503 0.959 . S
C519 H504 0.959 . S
C519 H505 0.961 . S
C519 C518 1.502 . S
C520 H506 0.960 . S
C520 H507 0.961 . S
C520 H508 0.959 . S
C520 C518 1.561 . S
C521 C518 1.526 . S
C521 C522 1.396 . S
C521 C526 1.390 . S
C522 C516 1.465 . S
C522 C521 1.396 . S
C522 C523 1.399 . S
C523 H509 0.929 . S
C523 C522 1.399 . S
C523 C524 1.385 . S
C524 H510 0.931 . S
C524 C523 1.385 . S
C524 C525 1.389 . S
C525 C524 1.389 . S
C525 C526 1.387 . S
C526 H511 0.930 . S
C526 C521 1.390 . S
C526 C525 1.387 . S
H527 C539 0.930 . S
H528 C541 0.930 . S
H529 C542 0.930 . S
H530 C546 0.959 . S
H531 C546 0.959 . S
H532 C546 0.961 . S
H533 C547 0.960 . S
H534 C547 0.961 . S
H535 C547 0.959 . S
H536 C550 0.929 . S
H537 C551 0.931 . S
H538 C553 0.930 . S
C539 H527 0.930 . S
C539 C540 1.399 . S
C539 C544 1.399 . S
C540 C539 1.399 . S
C540 C541 1.376 . S
C541 H528 0.930 . S
C541 C540 1.376 . S
C541 C542 1.388 . S
C542 H529 0.930 . S
C542 C541 1.388 . S
C542 C543 1.390 . S
C543 C542 1.390 . S
C543 C544 1.394 . S
C543 C549 1.465 . S
C544 C539 1.399 . S
C544 C543 1.394 . S
C544 C545 1.516 . S
C545 C544 1.516 . S
C545 C546 1.502 . S
C545 C547 1.561 . S
C545 C548 1.526 . S
C546 H530 0.959 . S
C546 H531 0.959 . S
C546 H532 0.961 . S
C546 C545 1.502 . S
C547 H533 0.960 . S
C547 H534 0.961 . S
C547 H535 0.959 . S
C547 C545 1.561 . S
C548 C545 1.526 . S
C548 C549 1.396 . S
C548 C553 1.390 1_655 S
C549 C543 1.465 . S
C549 C548 1.396 . S
C549 C550 1.399 1_655 S
C550 H536 0.929 . S
C550 C549 1.399 1_455 S
C550 C551 1.385 . S
C551 H537 0.931 . S
C551 C550 1.385 . S
C551 C552 1.389 . S
C552 C551 1.389 . S
C552 C553 1.387 . S
C553 H538 0.930 . S
C553 C548 1.390 1_455 S
C553 C552 1.387 . S
H554 C566 0.930 . S
H555 C568 0.930 . S
H556 C569 0.930 . S
H557 C573 0.959 . S
H558 C573 0.959 . S
H559 C573 0.961 . S
H560 C574 0.960 . S
H561 C574 0.961 . S
H562 C574 0.959 . S
H563 C577 0.929 . S
H564 C578 0.931 . S
H565 C580 0.930 1_455 S
C566 H554 0.930 . S
C566 C567 1.399 . S
C566 C571 1.399 . S
C567 C566 1.399 . S
C567 C568 1.376 . S
C568 H555 0.930 . S
C568 C567 1.376 . S
C568 C569 1.388 . S
C569 H556 0.930 . S
C569 C568 1.388 . S
C569 C570 1.390 . S
C570 C569 1.390 . S
C570 C571 1.394 . S
C570 C576 1.465 . S
C571 C566 1.399 . S
C571 C570 1.394 . S
C571 C572 1.516 . S
C572 C571 1.516 . S
C572 C573 1.502 . S
C572 C574 1.561 . S
C572 C575 1.526 . S
C573 H557 0.959 . S
C573 H558 0.959 . S
C573 H559 0.961 . S
C573 C572 1.502 . S
C574 H560 0.960 . S
C574 H561 0.961 . S
C574 H562 0.959 . S
C574 C572 1.561 . S
C575 C572 1.526 . S
C575 C576 1.396 . S
C575 C580 1.390 1_455 S
C576 C570 1.465 . S
C576 C575 1.396 . S
C576 C577 1.399 1_455 S
C577 H563 0.929 . S
C577 C576 1.399 1_655 S
C577 C578 1.385 . S
C578 H564 0.931 . S
C578 C577 1.385 . S
C578 C579 1.389 . S
C579 C578 1.389 . S
C579 C580 1.387 . S
C580 H565 0.930 1_655 S
C580 C575 1.390 1_655 S
C580 C579 1.387 . S
H581 C593 0.930 . S
H582 C595 0.930 . S
H583 C596 0.930 . S
H584 C600 0.959 . S
H585 C600 0.959 . S
H586 C600 0.961 . S
H587 C601 0.960 . S
H588 C601 0.961 . S
H589 C601 0.959 . S
H590 C604 0.929 . S
H591 C605 0.931 . S
H592 C607 0.930 . S
C593 H581 0.930 . S
C593 C594 1.399 . S
C593 C598 1.399 . S
C594 C593 1.399 . S
C594 C595 1.376 . S
C595 H582 0.930 . S
C595 C594 1.376 . S
C595 C596 1.388 . S
C596 H583 0.930 . S
C596 C595 1.388 . S
C596 C597 1.390 . S
C597 C596 1.390 . S
C597 C598 1.394 . S
C597 C603 1.465 . S
C598 C593 1.399 . S
C598 C597 1.394 . S
C598 C599 1.516 . S
C599 C598 1.516 . S
C599 C600 1.502 . S
C599 C601 1.561 . S
C599 C602 1.526 . S
C600 H584 0.959 . S
C600 H585 0.959 . S
C600 H586 0.961 . S
C600 C599 1.502 . S
C601 H587 0.960 . S
C601 H588 0.961 . S
C601 H589 0.959 . S
C601 C599 1.561 . S
C602 C599 1.526 . S
C602 C603 1.396 . S
C602 C607 1.390 . S
C603 C597 1.465 . S
C603 C602 1.396 . S
C603 C604 1.399 . S
C604 H590 0.929 . S
C604 C603 1.399 . S
C604 C605 1.385 . S
C605 H591 0.931 . S
C605 C604 1.385 . S
C605 C606 1.389 . S
C606 C605 1.389 . S
C606 C607 1.387 . S
C607 H592 0.930 . S
C607 C602 1.390 . S
C607 C606 1.387 . S
H608 C620 0.930 . S
H609 C622 0.930 . S
H610 C623 0.930 . S
H611 C627 0.959 . S
H612 C627 0.959 . S
H613 C627 0.961 . S
H614 C628 0.960 . S
H615 C628 0.961 . S
H616 C628 0.959 . S
H617 C631 0.929 . S
H618 C632 0.931 . S
H619 C634 0.930 . S
C620 H608 0.930 . S
C620 C621 1.399 . S
C620 C625 1.399 . S
C621 C620 1.399 . S
C621 C622 1.376 . S
C622 H609 0.930 . S
C622 C621 1.376 . S
C622 C623 1.388 . S
C623 H610 0.930 . S
C623 C622 1.388 . S
C623 C624 1.390 . S
C624 C623 1.390 . S
C624 C625 1.394 . S
C624 C630 1.465 . S
C625 C620 1.399 . S
C625 C624 1.394 . S
C625 C626 1.516 . S
C626 C625 1.516 . S
C626 C627 1.502 . S
C626 C628 1.561 . S
C626 C629 1.526 . S
C627 H611 0.959 . S
C627 H612 0.959 . S
C627 H613 0.961 . S
C627 C626 1.502 . S
C628 H614 0.960 . S
C628 H615 0.961 . S
C628 H616 0.959 . S
C628 C626 1.561 . S
C629 C626 1.526 . S
C629 C630 1.396 . S
C629 C634 1.390 . S
C630 C624 1.465 . S
C630 C629 1.396 . S
C630 C631 1.399 . S
C631 H617 0.929 . S
C631 C630 1.399 . S
C631 C632 1.385 . S
C632 H618 0.931 . S
C632 C631 1.385 . S
C632 C633 1.389 . S
C633 C632 1.389 . S
C633 C634 1.387 . S
C634 H619 0.930 . S
C634 C629 1.390 . S
C634 C633 1.387 . S
H635 C647 0.930 . S
H636 C649 0.930 . S
H637 C650 0.930 . S
H638 C654 0.959 . S
H639 C654 0.959 . S
H640 C654 0.961 . S
H641 C655 0.960 . S
H642 C655 0.961 . S
H643 C655 0.959 . S
H644 C658 0.929 . S
H645 C659 0.931 . S
H646 C661 0.930 . S
C647 H635 0.930 . S
C647 C648 1.399 . S
C647 C652 1.399 . S
C648 C647 1.399 . S
C648 C649 1.376 . S
C649 H636 0.930 . S
C649 C648 1.376 . S
C649 C650 1.388 . S
C650 H637 0.930 . S
C650 C649 1.388 . S
C650 C651 1.390 . S
C651 C650 1.390 . S
C651 C652 1.394 . S
C651 C657 1.465 . S
C652 C647 1.399 . S
C652 C651 1.394 . S
C652 C653 1.516 . S
C653 C652 1.516 . S
C653 C654 1.502 . S
C653 C655 1.561 . S
C653 C656 1.526 . S
C654 H638 0.959 . S
C654 H639 0.959 . S
C654 H640 0.961 . S
C654 C653 1.502 . S
C655 H641 0.960 . S
C655 H642 0.961 . S
C655 H643 0.959 . S
C655 C653 1.561 . S
C656 C653 1.526 . S
C656 C657 1.396 . S
C656 C661 1.390 1_455 S
C657 C651 1.465 . S
C657 C656 1.396 . S
C657 C658 1.399 . S
C658 H644 0.929 . S
C658 C657 1.399 . S
C658 C659 1.385 1_455 S
C659 H645 0.931 . S
C659 C658 1.385 1_655 S
C659 C660 1.389 . S
C660 C659 1.389 . S
C660 C661 1.387 . S
C661 H646 0.930 . S
C661 C656 1.390 1_655 S
C661 C660 1.387 . S
H662 C674 0.930 . S
H663 C676 0.930 . S
H664 C677 0.930 . S
H665 C681 0.959 . S
H666 C681 0.959 . S
H667 C681 0.961 . S
H668 C682 0.960 . S
H669 C682 0.961 . S
H670 C682 0.959 . S
H671 C685 0.929 . S
H672 C686 0.931 . S
H673 C688 0.930 . S
C674 H662 0.930 . S
C674 C675 1.399 . S
C674 C679 1.399 1_455 S
C675 C674 1.399 . S
C675 C676 1.376 . S
C676 H663 0.930 . S
C676 C675 1.376 . S
C676 C677 1.388 . S
C677 H664 0.930 . S
C677 C676 1.388 . S
C677 C678 1.390 1_455 S
C678 C677 1.390 1_655 S
C678 C679 1.394 . S
C678 C684 1.465 . S
C679 C674 1.399 1_655 S
C679 C678 1.394 . S
C679 C680 1.516 . S
C680 C679 1.516 . S
C680 C681 1.502 . S
C680 C682 1.561 . S
C680 C683 1.526 . S
C681 H665 0.959 . S
C681 H666 0.959 . S
C681 H667 0.961 . S
C681 C680 1.502 . S
C682 H668 0.960 . S
C682 H669 0.961 . S
C682 H670 0.959 . S
C682 C680 1.561 . S
C683 C680 1.526 . S
C683 C684 1.396 . S
C683 C688 1.390 . S
C684 C678 1.465 . S
C684 C683 1.396 . S
C684 C685 1.399 . S
C685 H671 0.929 . S
C685 C684 1.399 . S
C685 C686 1.385 . S
C686 H672 0.931 . S
C686 C685 1.385 . S
C686 C687 1.389 . S
C687 C686 1.389 . S
C687 C688 1.387 . S
C688 H673 0.930 . S
C688 C683 1.390 . S
C688 C687 1.387 . S
H689 C701 0.930 . S
H690 C703 0.930 . S
H691 C704 0.930 . S
H692 C708 0.959 . S
H693 C708 0.959 . S
H694 C708 0.961 . S
H695 C709 0.960 . S
H696 C709 0.961 . S
H697 C709 0.959 . S
H698 C712 0.929 . S
H699 C713 0.931 . S
H700 C715 0.930 . S
C701 H689 0.930 . S
C701 C702 1.399 . S
C701 C706 1.399 . S
C702 C701 1.399 . S
C702 C703 1.376 . S
C703 H690 0.930 . S
C703 C702 1.376 . S
C703 C704 1.388 . S
C704 H691 0.930 . S
C704 C703 1.388 . S
C704 C705 1.390 . S
C705 C704 1.390 . S
C705 C706 1.394 . S
C705 C711 1.465 . S
C706 C701 1.399 . S
C706 C705 1.394 . S
C706 C707 1.516 . S
C707 C706 1.516 . S
C707 C708 1.502 . S
C707 C709 1.561 . S
C707 C710 1.526 . S
C708 H692 0.959 . S
C708 H693 0.959 . S
C708 H694 0.961 . S
C708 C707 1.502 . S
C709 H695 0.960 . S
C709 H696 0.961 . S
C709 H697 0.959 . S
C709 C707 1.561 . S
C710 C707 1.526 . S
C710 C711 1.396 . S
C710 C715 1.390 . S
C711 C705 1.465 . S
C711 C710 1.396 . S
C711 C712 1.399 . S
C712 H698 0.929 . S
C712 C711 1.399 . S
C712 C713 1.385 . S
C713 H699 0.931 . S
C713 C712 1.385 . S
C713 C714 1.389 . S
C714 C713 1.389 . S
C714 C715 1.387 . S
C715 H700 0.930 . S
C715 C710 1.390 . S
C715 C714 1.387 . S
H716 C728 0.930 . S
H717 C730 0.930 . S
H718 C731 0.930 . S
H719 C735 0.959 . S
H720 C735 0.959 . S
H721 C735 0.961 . S
H722 C736 0.960 . S
H723 C736 0.961 . S
H724 C736 0.959 . S
H725 C739 0.929 . S
H726 C740 0.931 . S
H727 C742 0.930 . S
C728 H716 0.930 . S
C728 C729 1.399 . S
C728 C733 1.399 . S
C729 C728 1.399 . S
C729 C730 1.376 . S
C730 H717 0.930 . S
C730 C729 1.376 . S
C730 C731 1.388 . S
C731 H718 0.930 . S
C731 C730 1.388 . S
C731 C732 1.390 . S
C732 C731 1.390 . S
C732 C733 1.394 . S
C732 C738 1.465 . S
C733 C728 1.399 . S
C733 C732 1.394 . S
C733 C734 1.516 . S
C734 C733 1.516 . S
C734 C735 1.502 . S
C734 C736 1.561 . S
C734 C737 1.526 . S
C735 H719 0.959 . S
C735 H720 0.959 . S
C735 H721 0.961 . S
C735 C734 1.502 . S
C736 H722 0.960 . S
C736 H723 0.961 . S
C736 H724 0.959 . S
C736 C734 1.561 . S
C737 C734 1.526 . S
C737 C738 1.396 . S
C737 C742 1.390 . S
C738 C732 1.465 . S
C738 C737 1.396 . S
C738 C739 1.399 . S
C739 H725 0.929 . S
C739 C738 1.399 . S
C739 C740 1.385 . S
C740 H726 0.931 . S
C740 C739 1.385 . S
C740 C741 1.389 . S
C741 C740 1.389 . S
C741 C742 1.387 . S
C742 H727 0.930 . S
C742 C737 1.390 . S
C742 C741 1.387 . S
H743 C755 0.930 . S
H744 C757 0.930 . S
H745 C758 0.930 . S
H746 C762 0.959 . S
H747 C762 0.959 . S
H748 C762 0.961 . S
H749 C763 0.960 1_554 S
H750 C763 0.961 1_554 S
H751 C763 0.959 . S
H752 C766 0.929 . S
H753 C767 0.931 . S
H754 C769 0.930 . S
C755 H743 0.930 . S
C755 C756 1.399 . S
C755 C760 1.399 . S
C756 C755 1.399 . S
C756 C757 1.376 . S
C757 H744 0.930 . S
C757 C756 1.376 . S
C757 C758 1.388 . S
C758 H745 0.930 . S
C758 C757 1.388 . S
C758 C759 1.390 . S
C759 C758 1.390 . S
C759 C760 1.394 . S
C759 C765 1.465 . S
C760 C755 1.399 . S
C760 C759 1.394 . S
C760 C761 1.516 . S
C761 C760 1.516 . S
C761 C762 1.502 . S
C761 C763 1.561 . S
C761 C764 1.526 . S
C762 H746 0.959 . S
C762 H747 0.959 . S
C762 H748 0.961 . S
C762 C761 1.502 . S
C763 H749 0.960 1_556 S
C763 H750 0.961 1_556 S
C763 H751 0.959 . S
C763 C761 1.561 . S
C764 C761 1.526 . S
C764 C765 1.396 . S
C764 C769 1.390 . S
C765 C759 1.465 . S
C765 C764 1.396 . S
C765 C766 1.399 . S
C766 H752 0.929 . S
C766 C765 1.399 . S
C766 C767 1.385 . S
C767 H753 0.931 . S
C767 C766 1.385 . S
C767 C768 1.389 . S
C768 C767 1.389 . S
C768 C769 1.387 . S
C769 H754 0.930 . S
C769 C764 1.390 . S
C769 C768 1.387 . S
H770 C782 0.930 . S
H771 C784 0.930 . S
H772 C785 0.930 . S
H773 C789 0.959 . S
H774 C789 0.959 . S
H775 C789 0.961 . S
H776 C790 0.960 . S
H777 C790 0.961 . S
H778 C790 0.959 . S
H779 C793 0.929 . S
H780 C794 0.931 . S
H781 C796 0.930 . S
C782 H770 0.930 . S
C782 C783 1.399 . S
C782 C787 1.399 . S
C783 C782 1.399 . S
C783 C784 1.376 . S
C784 H771 0.930 . S
C784 C783 1.376 . S
C784 C785 1.388 . S
C785 H772 0.930 . S
C785 C784 1.388 . S
C785 C786 1.390 . S
C786 C785 1.390 . S
C786 C787 1.394 . S
C786 C792 1.465 . S
C787 C782 1.399 . S
C787 C786 1.394 . S
C787 C788 1.516 . S
C788 C787 1.516 . S
C788 C789 1.502 . S
C788 C790 1.561 . S
C788 C791 1.526 . S
C789 H773 0.959 . S
C789 H774 0.959 . S
C789 H775 0.961 . S
C789 C788 1.502 . S
C790 H776 0.960 . S
C790 H777 0.961 . S
C790 H778 0.959 . S
C790 C788 1.561 . S
C791 C788 1.526 . S
C791 C792 1.396 . S
C791 C796 1.390 . S
C792 C786 1.465 . S
C792 C791 1.396 . S
C792 C793 1.399 . S
C793 H779 0.929 . S
C793 C792 1.399 . S
C793 C794 1.385 . S
C794 H780 0.931 . S
C794 C793 1.385 . S
C794 C795 1.389 . S
C795 C794 1.389 . S
C795 C796 1.387 . S
C796 H781 0.930 . S
C796 C791 1.390 . S
C796 C795 1.387 . S
H797 C809 0.930 . S
H798 C811 0.930 . S
H799 C812 0.930 . S
H800 C816 0.959 . S
H801 C816 0.959 . S
H802 C816 0.961 . S
H803 C817 0.960 . S
H804 C817 0.961 . S
H805 C817 0.959 . S
H806 C820 0.929 . S
H807 C821 0.931 . S
H808 C823 0.930 . S
C809 H797 0.930 . S
C809 C810 1.399 . S
C809 C814 1.399 . S
C810 C809 1.399 . S
C810 C811 1.376 . S
C811 H798 0.930 . S
C811 C810 1.376 . S
C811 C812 1.388 . S
C812 H799 0.930 . S
C812 C811 1.388 . S
C812 C813 1.390 . S
C813 C812 1.390 . S
C813 C814 1.394 . S
C813 C819 1.465 . S
C814 C809 1.399 . S
C814 C813 1.394 . S
C814 C815 1.516 . S
C815 C814 1.516 . S
C815 C816 1.502 . S
C815 C817 1.561 . S
C815 C818 1.526 . S
C816 H800 0.959 . S
C816 H801 0.959 . S
C816 H802 0.961 . S
C816 C815 1.502 . S
C817 H803 0.960 . S
C817 H804 0.961 . S
C817 H805 0.959 . S
C817 C815 1.561 . S
C818 C815 1.526 . S
C818 C819 1.396 . S
C818 C823 1.390 . S
C819 C813 1.465 . S
C819 C818 1.396 . S
C819 C820 1.399 . S
C820 H806 0.929 . S
C820 C819 1.399 . S
C820 C821 1.385 . S
C821 H807 0.931 . S
C821 C820 1.385 . S
C821 C822 1.389 . S
C822 C821 1.389 . S
C822 C823 1.387 . S
C823 H808 0.930 . S
C823 C818 1.390 . S
C823 C822 1.387 . S
C189 C95 0.994 . S
C201 C21 1.081 . S
C216 C125 1.091 . S
C228 C43 0.972 . S
C243 C147 0.981 . S
C255 C65 1.088 . S
C270 C81 0.996 . S
C282 C161 1.076 . S
C297 C7 1.573 . S
C309 C30 1.507 1_554 S
C324 C29 1.617 . S
C336 C8 1.584 . S
C351 C76 1.519 . S
C363 C51 1.604 . S
C378 C52 1.563 1_556 S
C390 C87 1.576 . S
C405 C120 1.533 1_556 S
C417 C109 1.618 . S
C432 C106 1.598 . S
C444 C117 1.597 . S
C459 C139 1.616 . S
C471 C172 1.530 . S
C486 C142 1.548 1_554 S
C498 C175 1.624 . S
C513 C15 1.394 . S
C525 C128 1.411 . S
C540 C96 1.413 . S
C552 C37 1.394 . S
C567 C162 1.425 . S
C579 C59 1.411 . S
C594 C150 1.386 . S
C606 C73 1.427 . S
C621 C103 1.426 . S
C633 C40 1.390 . S
C648 C18 1.380 . S
C660 C131 1.399 . S
C675 C153 1.401 . S
C687 C74 1.412 . S
C702 C169 1.401 . S
C714 C62 1.412 . S
C729 C10 1.444 . S
C741 C164 1.444 . S
C756 C32 1.416 . S
C768 C140 1.410 . S
C783 C118 1.434 . S
C795 C54 1.437 . S
C810 C98 1.422 . S
C822 C84 1.426 . S
