# Generated by pormake.
# Topology smk, (6)-cn, num edge types: 1
# Building blocks:
#     Node 0, Type 0, BuildingBlock: UKALOJ_clean_sbu_0, # of connection points: 6
#     Node 1, Type 0, BuildingBlock: UKALOJ_clean_sbu_0, # of connection points: 6
#     Node 2, Type 0, BuildingBlock: UKALOJ_clean_sbu_0, # of connection points: 6
#     Node 3, Type 0, BuildingBlock: UKALOJ_clean_sbu_0, # of connection points: 6
#     Node 4, Type 0, BuildingBlock: UKALOJ_clean_sbu_0, # of connection points: 6
#     Node 5, Type 0, BuildingBlock: UKALOJ_clean_sbu_0, # of connection points: 6
#     Edge 6, Type (0, 0), BuildingBlock: TEMPAE_clean_linker_10, # of connection points: 2
#     Edge 7, Type (0, 0), BuildingBlock: TEMPAE_clean_linker_10, # of connection points: 2
#     Edge 8, Type (0, 0), BuildingBlock: TEMPAE_clean_linker_10, # of connection points: 2
#     Edge 9, Type (0, 0), BuildingBlock: TEMPAE_clean_linker_10, # of connection points: 2
#     Edge 10, Type (0, 0), BuildingBlock: TEMPAE_clean_linker_10, # of connection points: 2
#     Edge 11, Type (0, 0), BuildingBlock: TEMPAE_clean_linker_10, # of connection points: 2
#     Edge 12, Type (0, 0), BuildingBlock: TEMPAE_clean_linker_10, # of connection points: 2
#     Edge 13, Type (0, 0), BuildingBlock: TEMPAE_clean_linker_10, # of connection points: 2
#     Edge 14, Type (0, 0), BuildingBlock: TEMPAE_clean_linker_10, # of connection points: 2
#     Edge 15, Type (0, 0), BuildingBlock: TEMPAE_clean_linker_10, # of connection points: 2
#     Edge 16, Type (0, 0), BuildingBlock: TEMPAE_clean_linker_10, # of connection points: 2
#     Edge 17, Type (0, 0), BuildingBlock: TEMPAE_clean_linker_10, # of connection points: 2
#     Edge 18, Type (0, 0), BuildingBlock: TEMPAE_clean_linker_10, # of connection points: 2
#     Edge 19, Type (0, 0), BuildingBlock: TEMPAE_clean_linker_10, # of connection points: 2
#     Edge 20, Type (0, 0), BuildingBlock: TEMPAE_clean_linker_10, # of connection points: 2
#     Edge 21, Type (0, 0), BuildingBlock: TEMPAE_clean_linker_10, # of connection points: 2
#     Edge 22, Type (0, 0), BuildingBlock: TEMPAE_clean_linker_10, # of connection points: 2
#     Edge 23, Type (0, 0), BuildingBlock: TEMPAE_clean_linker_10, # of connection points: 2
# Relax obj value: 0.276
# Max RMSD: 0.210
# Mean RMSD: 0.210
data_MOF--net-smk--node1-UKALOJ_clean_sbu_0--edge1-TEMPAE_clean_linker_10
_symmetry_space_group_name_H-M    P1
_symmetry_Int_Tables_number       1
_symmetry_cell_setting            triclinic
loop_
_symmetry_equiv_pos_as_xyz
'x, y, z'
_cell_length_a     47.27625
_cell_length_b     47.301848
_cell_length_c     14.759789
_cell_angle_alpha  90.139865
_cell_angle_beta   89.810986
_cell_angle_gamma 119.84717
loop_
_atom_site_label
_atom_site_type_symbol
_atom_site_fract_x
_atom_site_fract_y
_atom_site_fract_z
_atom_type_partial_charge
Zn0 Zn 0.42075 0.21244 0.52115 0.0
O1 O 0.38472 0.16206 0.54346 0.0
C2 C 0.44168 0.21345 0.70163 0.0
Zn3 Zn 0.46147 0.20102 0.52661 0.0
C4 C 0.39456 0.14133 0.54158 0.0
O5 O 0.42501 0.15145 0.53587 0.0
C6 C 0.488 0.27109 0.49597 0.0
O7 O 0.46089 0.19576 0.38956 0.0
O8 O 0.41759 0.20201 0.38699 0.0
N9 N 0.49748 0.18866 0.53854 0.0
C10 C 0.5224 0.19857 0.59776 0.0
C11 C 0.5256 0.1653 0.50654 0.0
N12 N 0.49956 0.16797 0.48201 0.0
N13 N 0.54024 0.18408 0.57949 0.0
C14 C 0.36467 0.22767 0.56863 0.0
C15 C 0.36493 0.2538 0.45124 0.0
N16 N 0.38605 0.22675 0.50917 0.0
N17 N 0.38593 0.24286 0.43619 0.0
N18 N 0.35129 0.24497 0.53428 0.0
H19 H 0.35869 0.18813 0.65357 0.0
H20 H 0.33029 0.20244 0.67627 0.0
H21 H 0.37235 0.22625 0.71101 0.0
C22 C 0.35582 0.20999 0.65741 0.0
C23 C 0.53033 0.22376 0.67009 0.0
H24 H 0.55694 0.23755 0.68342 0.0
H25 H 0.51762 0.21141 0.73363 0.0
H26 H 0.52215 0.24112 0.65077 0.0
O27 O 0.49711 0.25063 0.51398 0.0
O28 O 0.45772 0.26183 0.49341 0.0
C29 C 0.43729 0.19519 0.34746 0.0
O30 O 0.42405 0.22152 0.65708 0.0
O31 O 0.45981 0.20465 0.66226 0.0
Zn32 Zn 0.21725 0.41459 0.72031 0.0
O33 O 0.22763 0.37513 0.72983 0.0
C34 C 0.233 0.43492 0.90066 0.0
Zn35 Zn 0.27034 0.45247 0.728 0.0
C36 C 0.25758 0.38299 0.73626 0.0
O37 O 0.27913 0.413 0.74153 0.0
C38 C 0.23131 0.48444 0.70073 0.0
O39 O 0.27932 0.45359 0.59264 0.0
O40 O 0.22655 0.41778 0.58436 0.0
N41 N 0.3183 0.4841 0.75964 0.0
C42 C 0.33998 0.51535 0.73844 0.0
C43 C 0.36092 0.50097 0.84346 0.0
N44 N 0.33156 0.47528 0.82445 0.0
N45 N 0.36701 0.5268 0.79129 0.0
C46 C 0.14413 0.36087 0.75104 0.0
C47 C 0.12141 0.36781 0.63569 0.0
N48 N 0.16809 0.38341 0.69799 0.0
N49 N 0.15382 0.38747 0.62617 0.0
N50 N 0.1144 0.35092 0.71396 0.0
H51 H 0.17426 0.34874 0.83255 0.0
H52 H 0.13082 0.32196 0.84713 0.0
H53 H 0.15062 0.36246 0.89471 0.0
C54 C 0.15028 0.34758 0.83611 0.0
C55 C 0.33487 0.53346 0.66311 0.0
H56 H 0.31768 0.51626 0.61228 0.0
H57 H 0.35838 0.55025 0.62952 0.0
H58 H 0.32416 0.54781 0.69108 0.0
O59 O 0.2607 0.49105 0.71019 0.0
O60 O 0.20852 0.45486 0.70599 0.0
C61 C 0.25382 0.43624 0.54665 0.0
O62 O 0.20886 0.41368 0.85661 0.0
O63 O 0.26032 0.45206 0.8625 0.0
Zn64 Zn 0.80912 0.21457 0.87658 0.0
O65 O 0.85928 0.22699 0.88882 0.0
C66 C 0.80409 0.23145 0.05753 0.0
Zn67 Zn 0.8227 0.26735 0.88487 0.0
C68 C 0.88075 0.25707 0.89602 0.0
O69 O 0.87163 0.27825 0.9003 0.0
C70 C 0.75192 0.22603 0.85439 0.0
O71 O 0.82976 0.27409 0.7481 0.0
O72 O 0.81512 0.22195 0.74093 0.0
N73 N 0.83698 0.31604 0.90235 0.0
C74 C 0.82707 0.33132 0.96113 0.0
C75 C 0.86443 0.36805 0.87934 0.0
N76 N 0.86019 0.33898 0.85161 0.0
N77 N 0.84411 0.3639 0.94863 0.0
C78 C 0.79319 0.14253 0.9117 0.0
C79 C 0.76579 0.11874 0.79375 0.0
N80 N 0.79345 0.16572 0.85779 0.0
N81 N 0.77653 0.15081 0.78442 0.0
N82 N 0.77563 0.11262 0.87336 0.0
H83 H 0.83352 0.17433 -0.00307 0.0
H84 H 0.81914 0.13131 0.0122 0.0
H85 H 0.79578 0.14913 0.05541 0.0
C86 C 0.81161 0.1497 -0.00103 0.0
C87 C 0.79961 0.31439 0.02735 0.0
H88 H 0.78697 0.32856 0.03838 0.0
H89 H 0.80971 0.31234 0.09316 0.0
H90 H 0.78172 0.28969 0.00329 0.0
O91 O 0.77398 0.25561 0.86439 0.0
O92 O 0.75957 0.20379 0.86001 0.0
C93 C 0.82268 0.24872 0.70257 0.0
O94 O 0.80172 0.20765 0.01236 0.0
O95 O 0.81379 0.25898 0.02095 0.0
Zn96 Zn 0.61544 0.80662 -0.00026 0.0
O97 O 0.65154 0.85651 0.02712 0.0
C98 C 0.59287 0.80317 0.18035 0.0
Zn99 Zn 0.57509 0.8184 0.00644 0.0
C100 C 0.64193 0.8774 0.02831 0.0
O101 O 0.61159 0.8676 0.02165 0.0
C102 C 0.54827 0.74863 0.9692 0.0
O103 O 0.57702 0.82567 0.86972 0.0
O104 O 0.61975 0.81859 0.86645 0.0
N105 N 0.53949 0.83115 0.01968 0.0
C106 C 0.51426 0.82093 0.07825 0.0
C107 C 0.51257 0.85595 -0.00865 0.0
N108 N 0.53836 0.85292 0.96582 0.0
N109 N 0.49719 0.83633 0.06231 0.0
C110 C 0.67081 0.79069 0.04552 0.0
C111 C 0.67176 0.76618 0.92544 0.0
N112 N 0.65 0.79236 -0.01395 0.0
N113 N 0.65087 0.77729 0.91136 0.0
N114 N 0.68455 0.77393 0.00947 0.0
H115 H 0.67641 0.82927 0.13447 0.0
H116 H 0.70405 0.81403 0.15651 0.0
H117 H 0.66159 0.79032 0.18778 0.0
C118 C 0.67884 0.80715 0.13622 0.0
C119 C 0.50529 0.79465 0.14762 0.0
H120 H 0.47859 0.78123 0.15991 0.0
H121 H 0.51771 0.80594 0.21233 0.0
H122 H 0.51301 0.77711 0.12591 0.0
O123 O 0.53928 0.76913 -0.01157 0.0
O124 O 0.57851 0.75764 0.96766 0.0
C125 C 0.60069 0.82627 0.82743 0.0
O126 O 0.611 0.79583 0.13496 0.0
O127 O 0.57529 0.81271 0.14181 0.0
Zn128 Zn 0.76509 0.56622 0.23234 0.0
O129 O 0.75747 0.55948 0.09693 0.0
C130 C 0.80693 0.53613 0.2256 0.0
Zn131 Zn 0.81798 0.60486 0.22409 0.0
C132 C 0.78192 0.5798 0.0513 0.0
O133 O 0.80886 0.59938 0.08857 0.0
C134 C 0.79936 0.59491 0.40528 0.0
O135 O 0.80522 0.64262 0.22302 0.0
O136 O 0.75378 0.60409 0.2236 0.0
N137 N 0.86648 0.63894 0.20171 0.0
C138 C 0.89349 0.64601 0.24987 0.0
C139 C 0.90867 0.67894 0.13851 0.0
N140 N 0.87604 0.65946 0.1325 0.0
N141 N 0.92022 0.67121 0.21212 0.0
C142 C 0.69656 0.50197 0.25039 0.0
C143 C 0.67373 0.51841 0.34467 0.0
N144 N 0.71719 0.53405 0.26474 0.0
N145 N 0.70274 0.54413 0.32285 0.0
N146 N 0.66899 0.49128 0.30114 0.0
H147 H 0.7214 0.49814 0.13235 0.0
H148 H 0.68049 0.46442 0.14874 0.0
H149 H 0.71354 0.46884 0.2196 0.0
C150 C 0.70329 0.4822 0.18349 0.0
C151 C 0.89396 0.62711 0.33077 0.0
H152 H 0.89103 0.63855 0.39315 0.0
H153 H 0.91748 0.62729 0.33497 0.0
H154 H 0.87382 0.60156 0.32798 0.0
O155 O 0.82531 0.61085 0.36027 0.0
O156 O 0.77303 0.57475 0.36717 0.0
C157 C 0.77509 0.63418 0.21942 0.0
O158 O 0.7774 0.52902 0.23671 0.0
O159 O 0.82904 0.566 0.22032 0.0
Zn160 Zn 0.22756 0.80558 0.35579 0.0
O161 O 0.17734 0.79265 0.37252 0.0
C162 C 0.227 0.78571 0.53655 0.0
Zn163 Zn 0.21384 0.75274 0.36165 0.0
C164 C 0.15576 0.76247 0.37521 0.0
O165 O 0.16473 0.74116 0.3738 0.0
C166 C 0.28488 0.79466 0.33305 0.0
O167 O 0.20764 0.74721 0.22536 0.0
O168 O 0.21874 0.7984 0.22058 0.0
N169 N 0.20036 0.70423 0.37587 0.0
C170 C 0.20999 0.68908 0.43548 0.0
C171 C 0.17563 0.65262 0.34686 0.0
N172 N 0.17899 0.68148 0.32094 0.0
N173 N 0.19465 0.65668 0.41909 0.0
C174 C 0.24359 0.87734 0.39827 0.0
C175 C 0.27028 0.90216 0.28021 0.0
N176 N 0.24288 0.8546 0.34115 0.0
N177 N 0.25936 0.87017 0.26774 0.0
N178 N 0.26103 0.90761 0.36195 0.0
H179 H 0.20348 0.84494 0.48357 0.0
H180 H 0.2184 0.88784 0.50362 0.0
H181 H 0.24154 0.86913 0.54125 0.0
C182 C 0.22559 0.8694 0.48669 0.0
C183 C 0.23573 0.7062 0.50625 0.0
H184 H 0.24888 0.69271 0.52006 0.0
H185 H 0.22396 0.70755 0.57001 0.0
H186 H 0.25358 0.7313 0.48495 0.0
O187 O 0.26298 0.76518 0.3456 0.0
O188 O 0.27699 0.81676 0.33506 0.0
C189 C 0.20969 0.77125 0.18212 0.0
O190 O 0.23488 0.81133 0.4919 0.0
O191 O 0.2185 0.75888 0.49739 0.0
C192 C 0.45883 0.19309 0.19814 0.0
C193 C 0.4322 0.1863 0.25321 0.0
C194 C 0.45496 0.19017 0.10486 0.0
C195 C 0.42366 0.17982 0.06839 0.0
C196 C 0.39606 0.16908 0.12443 0.0
C197 C 0.40075 0.17279 0.21736 0.0
C198 C 0.48481 0.20142 0.04561 0.0
C199 C 0.36227 0.15666 0.0865 0.0
C200 C 0.43295 0.22609 0.8568 0.0
C201 C 0.43387 0.20449 0.79461 0.0
C202 C 0.42711 0.21726 0.94763 0.0
C203 C 0.42134 0.18597 0.97349 0.0
C204 C 0.41898 0.16302 0.90889 0.0
C205 C 0.42583 0.17283 0.81942 0.0
C206 C 0.42963 0.24215 0.01633 0.0
C207 C 0.41169 0.12914 0.93466 0.0
H208 H 0.48296 0.20296 0.22727 0.0
H209 H 0.38006 0.16648 0.26154 0.0
H210 H 0.48033 0.18316 -0.00783 0.0
H211 H 0.49042 0.22451 0.01136 0.0
H212 H 0.50658 0.20572 0.08511 0.0
H213 H 0.34313 0.14199 0.13726 0.0
H214 H 0.35931 0.17767 0.06687 0.0
H215 H 0.35832 0.14159 0.02506 0.0
H216 H 0.43835 0.25017 0.83513 0.0
H217 H 0.42534 0.15589 0.76884 0.0
H218 H 0.45148 0.2497 0.05928 0.0
H219 H 0.40801 0.23145 0.06161 0.0
H220 H 0.43165 0.26424 -0.01624 0.0
H221 H 0.43437 0.13014 0.95871 0.0
H222 H 0.40241 0.1122 0.87593 0.0
H223 H 0.39352 0.11905 -0.00964 0.0
C224 C 0.23145 0.45546 0.43076 0.0
C225 C 0.25297 0.44441 0.45375 0.0
C226 C 0.22668 0.46026 0.34077 0.0
C227 C 0.24355 0.45315 0.27404 0.0
C228 C 0.26719 0.44431 0.29763 0.0
C229 C 0.27185 0.44023 0.38872 0.0
C230 C 0.2021 0.47066 0.31743 0.0
C231 C 0.28585 0.43705 0.22678 0.0
C232 C 0.20859 0.41576 0.05129 0.0
C233 C 0.22984 0.4411 -0.00515 0.0
C234 C 0.21052 0.4204 0.14467 0.0
C235 C 0.23405 0.45107 0.17974 0.0
C236 C 0.25253 0.47777 0.12224 0.0
C237 C 0.25032 0.47236 0.02948 0.0
C238 C 0.19006 0.39165 0.20549 0.0
C239 C 0.27705 0.51098 0.15829 0.0
H240 H 0.21763 0.4594 0.48326 0.0
H241 H 0.28874 0.43215 0.40869 0.0
H242 H 0.21087 0.48835 0.26065 0.0
H243 H 0.17901 0.44904 0.29557 0.0
H244 H 0.19666 0.4818 0.37651 0.0
H245 H 0.3048 0.43266 0.25713 0.0
H246 H 0.26872 0.41506 0.1877 0.0
H247 H 0.29781 0.45758 0.17826 0.0
H248 H 0.19242 0.39183 0.02323 0.0
H249 H 0.26589 0.49218 -0.01564 0.0
H250 H 0.17924 0.39882 0.26154 0.0
H251 H 0.20576 0.38297 0.23623 0.0
H252 H 0.17009 0.37107 0.16779 0.0
H253 H 0.26774 0.51717 0.21989 0.0
H254 H 0.28339 0.53033 0.10675 0.0
H255 H 0.29972 0.51093 0.17713 0.0
C256 C 0.7797 0.24396 0.18664 0.0
C257 C 0.79472 0.22725 0.1515 0.0
C258 C 0.77608 0.24544 0.27954 0.0
C259 C 0.78788 0.22977 0.3363 0.0
C260 C 0.7993 0.20948 0.3004 0.0
C261 C 0.80257 0.20843 0.20707 0.0
C262 C 0.76275 0.2663 0.31647 0.0
C263 C 0.81129 0.1918 0.36035 0.0
C264 C 0.83439 0.26915 0.54627 0.0
C265 C 0.81315 0.24719 0.60985 0.0
C266 C 0.82526 0.26518 0.45552 0.0
C267 C 0.79415 0.23909 0.43095 0.0
C268 C 0.77149 0.21906 0.49684 0.0
C269 C 0.78153 0.22316 0.58632 0.0
C270 C 0.84969 0.28719 0.38561 0.0
C271 C 0.73777 0.19185 0.47274 0.0
H272 H 0.77207 0.25698 0.14182 0.0
H273 H 0.81351 0.19498 0.17831 0.0
H274 H 0.74798 0.25542 0.37849 0.0
H275 H 0.78335 0.29063 0.33484 0.0
H276 H 0.74754 0.26984 0.26553 0.0
H277 H 0.81575 0.17422 0.32157 0.0
H278 H 0.83447 0.20978 0.39317 0.0
H279 H 0.79338 0.17841 0.41484 0.0
H280 H 0.85846 0.28812 0.56679 0.0
H281 H 0.76486 0.20711 0.63786 0.0
H282 H 0.83831 0.29702 0.3391 0.0
H283 H 0.85787 0.27296 0.34416 0.0
H284 H 0.87147 0.30794 0.41707 0.0
H285 H 0.72737 0.19871 0.41525 0.0
H286 H 0.72084 0.185 0.53144 0.0
H287 H 0.73922 0.17004 0.45213 0.0
C288 C 0.61207 0.84448 0.29679 0.0
C289 C 0.60062 0.8119 0.27341 0.0
C290 C 0.61883 0.85439 0.38624 0.0
C291 C 0.61308 0.83072 0.45224 0.0
C292 C 0.60341 0.79811 0.42808 0.0
C293 C 0.5976 0.78907 0.33729 0.0
C294 C 0.63004 0.88948 0.41025 0.0
C295 C 0.59722 0.77246 0.49832 0.0
C296 C 0.63646 0.8447 0.69415 0.0
C297 C 0.60588 0.83494 0.73277 0.0
C298 C 0.64027 0.84681 0.60074 0.0
C299 C 0.61269 0.83859 0.54698 0.0
C300 C 0.5828 0.83245 0.58589 0.0
C301 C 0.57978 0.83086 0.67957 0.0
C302 C 0.67271 0.85457 0.56007 0.0
C303 C 0.5531 0.82409 0.52903 0.0
H304 H 0.61529 0.86211 0.24499 0.0
H305 H 0.58938 0.76414 0.31678 0.0
H306 H 0.60898 0.89145 0.43566 0.0
H307 H 0.64865 0.89831 0.46465 0.0
H308 H 0.64037 0.90577 0.35054 0.0
H309 H 0.59192 0.74892 0.46719 0.0
H310 H 0.61866 0.78091 0.54342 0.0
H311 H 0.57612 0.76815 0.54125 0.0
H312 H 0.65691 0.84895 0.73654 0.0
H313 H 0.55638 0.82395 0.71049 0.0
H314 H 0.67814 0.86982 0.49845 0.0
H315 H 0.67185 0.83155 0.53989 0.0
H316 H 0.69295 0.86742 0.60921 0.0
H317 H 0.55939 0.84182 0.47303 0.0
H318 H 0.5331 0.82373 0.56972 0.0
H319 H 0.5439 0.79964 0.49817 0.0
C320 C 0.82331 0.60842 0.55743 0.0
C321 C 0.79796 0.60248 0.49881 0.0
C322 C 0.81914 0.61045 0.65007 0.0
C323 C 0.78921 0.60685 0.68171 0.0
C324 C 0.76529 0.60482 0.62145 0.0
C325 C 0.76988 0.60234 0.52972 0.0
C326 C 0.84525 0.61316 0.71407 0.0
C327 C 0.73366 0.60207 0.65387 0.0
C328 C 0.76518 0.55967 0.89674 0.0
C329 C 0.77802 0.58534 0.95813 0.0
C330 C 0.76667 0.56633 0.80462 0.0
C331 C 0.78077 0.59924 0.77637 0.0
C332 C 0.79051 0.62478 0.83928 0.0
C333 C 0.78931 0.61746 0.93049 0.0
C334 C 0.75575 0.53858 0.73776 0.0
C335 C 0.80461 0.65991 0.8107 0.0
H336 H 0.84518 0.60916 0.53166 0.0
H337 H 0.7509 0.59895 0.48242 0.0
H338 H 0.85044 0.63193 0.76652 0.0
H339 H 0.83655 0.58954 0.74937 0.0
H340 H 0.86833 0.61944 0.67809 0.0
H341 H 0.72139 0.60805 0.59921 0.0
H342 H 0.71691 0.57672 0.67641 0.0
H343 H 0.7378 0.61841 0.71246 0.0
H344 H 0.75611 0.53491 0.92028 0.0
H345 H 0.7983 0.63698 -0.01983 0.0
H346 H 0.77726 0.54084 0.70078 0.0
H347 H 0.73905 0.53957 0.68691 0.0
H348 H 0.7431 0.51439 0.77147 0.0
H349 H 0.83073 0.67011 0.79308 0.0
H350 H 0.80294 0.67499 0.86605 0.0
H351 H 0.79202 0.66206 0.75001 0.0
C352 C 0.18778 0.7864 0.05309 0.0
C353 C 0.20065 0.76774 0.08819 0.0
C354 C 0.18368 0.78734 0.96037 0.0
C355 C 0.19351 0.7698 0.90375 0.0
C356 C 0.20319 0.74822 0.93965 0.0
C357 C 0.20642 0.74726 0.03282 0.0
C358 C 0.17189 0.80937 0.92314 0.0
C359 C 0.2135 0.72893 0.87979 0.0
C360 C 0.18626 0.76147 0.65456 0.0
C361 C 0.21809 0.78456 0.62961 0.0
C362 C 0.17655 0.75845 0.74426 0.0
C363 C 0.19978 0.77838 0.80886 0.0
C364 C 0.23132 0.80337 0.78289 0.0
C365 C 0.24004 0.80648 0.69189 0.0
C366 C 0.14241 0.73251 0.77012 0.0
C367 C 0.25653 0.82503 0.85154 0.0
H368 H 0.18225 0.80128 0.0977 0.0
H369 H 0.21576 0.73244 0.06156 0.0
H370 H 0.1932 0.83295 0.90274 0.0
H371 H 0.15647 0.79852 0.8623 0.0
H372 H 0.15776 0.81443 0.97458 0.0
H373 H 0.21728 0.71106 0.91895 0.0
H374 H 0.19495 0.71562 0.82685 0.0
H375 H 0.23669 0.74586 0.84492 0.0
H376 H 0.16912 0.74549 0.60389 0.0
H377 H 0.26429 0.82474 0.67009 0.0
H378 H 0.13276 0.74072 0.82679 0.0
H379 H 0.14276 0.71034 0.79277 0.0
H380 H 0.12544 0.72566 0.71177 0.0
H381 H 0.24637 0.83647 0.89702 0.0
H382 H 0.27895 0.84461 0.81894 0.0
H383 H 0.26343 0.81014 0.89428 0.0
C384 C 0.38286 0.08466 0.50934 0.0
C385 C 0.37119 0.1057 0.53426 0.0
C386 C 0.36151 0.05172 0.4894 0.0
C387 C 0.32741 0.03898 0.49633 0.0
C388 C 0.31539 0.05959 0.52605 0.0
C389 C 0.3374 0.09282 0.54367 0.0
C390 C 0.37554 0.03093 0.45673 0.0
C391 C 0.27928 0.04675 0.53676 0.0
C392 C 0.27886 0.96587 0.34304 0.0
C393 C 0.27223 0.93966 0.40047 0.0
C394 C 0.29518 0.99821 0.37453 0.0
C395 C 0.3048 1.0047 0.4665 0.0
C396 C 0.29639 0.97827 0.5263 0.0
C397 C 0.2808 0.94618 0.49232 0.0
C398 C 0.30412 0.02553 0.30773 0.0
C399 C 0.3056 0.98397 0.62518 0.0
H400 H 0.40886 0.09422 0.50152 0.0
H401 H 0.32811 0.10879 0.56314 0.0
H402 H 0.36683 1.00903 0.50009 0.0
H403 H 0.36707 0.02235 0.38671 0.0
H404 H 0.40263 0.04434 0.45693 0.0
H405 H 0.27403 0.06467 0.57047 0.0
H406 H 0.26748 0.04085 0.46921 0.0
H407 H 0.26797 0.02388 0.57688 0.0
H408 H 0.27248 0.96111 0.27201 0.0
H409 H 0.27712 0.92658 0.53703 0.0
H410 H 0.33099 0.03932 0.29842 0.0
H411 H 0.2967 0.04287 0.33393 0.0
H412 H 0.29258 0.01644 0.24053 0.0
H413 H 0.33213 0.99325 0.63229 0.0
H414 H 0.2923 0.96123 0.66553 0.0
H415 H 0.30043 1.00263 0.65405 0.0
C416 C 0.31178 0.26436 0.51972 0.0
C417 C 0.331 0.25657 0.5753 0.0
C418 C 0.29649 0.28121 0.55365 0.0
C419 C 0.29976 0.28999 0.64642 0.0
C420 C 0.31725 0.28031 0.70437 0.0
C421 C 0.33324 0.26443 0.6679 0.0
C422 C 0.27886 0.29167 0.48857 0.0
C423 C 0.32077 0.28846 0.80409 0.0
C424 C 0.30088 0.36919 0.69975 0.0
C425 C 0.26837 0.35848 0.72448 0.0
C426 C 0.31134 0.34714 0.67591 0.0
C427 C 0.28906 0.31321 0.67915 0.0
C428 C 0.25658 0.30206 0.7085 0.0
C429 C 0.24645 0.32483 0.72946 0.0
C430 C 0.34599 0.36033 0.64321 0.0
C431 C 0.23238 0.26612 0.71585 0.0
H432 H 0.30997 0.25856 0.44815 0.0
H433 H 0.34889 0.25998 0.71151 0.0
H434 H 0.25428 0.2848 0.51491 0.0
H435 H 0.2926 0.3186 0.48162 0.0
H436 H 0.2762 0.28071 0.42027 0.0
H437 H 0.32933 0.27398 0.84259 0.0
H438 H 0.33874 0.31468 0.81359 0.0
H439 H 0.29722 0.28398 0.83321 0.0
H440 H 0.31806 0.39509 0.69492 0.0
H441 H 0.22133 0.3163 0.74866 0.0
H442 H 0.34591 0.35217 0.57259 0.0
H443 H 0.35862 0.35071 0.68556 0.0
H444 H 0.36031 0.38739 0.64501 0.0
H445 H 0.22639 0.2551 0.64724 0.0
H446 H 0.2094 0.2614 0.74962 0.0
H447 H 0.24312 0.25364 0.75441 0.0
C448 C 0.92781 0.24608 0.88831 0.0
C449 C 0.91616 0.2682 0.88712 0.0
C450 C 0.96078 0.25639 0.86884 0.0
C451 C 0.98239 0.28939 0.84553 0.0
C452 C 0.9709 0.31191 0.84679 0.0
C453 C 0.93818 0.30114 0.86849 0.0
C454 C 0.97228 0.23183 0.87082 0.0
C455 C 0.99281 0.34721 0.8211 0.0
C456 C 0.07513 0.33126 0.84292 0.0
C457 C 0.08179 0.33103 0.75014 0.0
C458 C 0.0429 0.31561 0.87599 0.0
C459 C 0.0165 0.30042 0.81459 0.0
C460 C 0.02303 0.2993 0.72131 0.0
C461 C 0.05548 0.31434 0.69055 0.0
C462 C 0.03713 0.31694 0.97616 0.0
C463 C 0.99575 0.28399 0.65296 0.0
H464 H 0.91106 0.22061 0.90282 0.0
H465 H 0.92953 0.31849 0.86687 0.0
H466 H 0.97819 0.22762 0.80105 0.0
H467 H 0.99492 0.2413 0.91147 0.0
H468 H 0.95359 0.20809 0.89957 0.0
H469 H 0.98031 0.36175 0.82716 0.0
H470 H 1.01476 0.35844 0.86483 0.0
H471 H 1.00129 0.34878 0.75011 0.0
H472 H 0.09485 0.3451 0.88957 0.0
H473 H 0.06034 0.31421 0.6188 0.0
H474 H 0.01775 0.29285 0.00083 0.0
H475 H 0.02876 0.33474 -0.01111 0.0
H476 H 0.05962 0.32445 0.01628 0.0
H477 H 0.97753 0.2589 0.67397 0.0
H478 H 1.00475 0.28299 0.58405 0.0
H479 H 0.98299 0.29831 0.64956 0.0
C480 C 0.69923 0.92547 0.03475 0.0
C481 C 0.66551 0.91303 0.02585 0.0
C482 C 0.72149 0.95888 0.02102 0.0
C483 C 0.70978 0.98013 -0.00418 0.0
C484 C 0.67575 0.96783 -0.01007 0.0
C485 C 0.65415 0.93467 0.00597 0.0
C486 C 0.75753 0.97123 0.03063 0.0
C487 C 0.66206 0.98937 0.96215 0.0
C488 C 0.75665 0.07282 0.00044 0.0
C489 C 0.76486 0.08029 0.90864 0.0
C490 C 0.74123 0.04039 0.03151 0.0
C491 C 0.73263 0.01464 0.96887 0.0
C492 C 0.74203 0.02211 0.87693 0.0
C493 C 0.75821 0.05475 0.8483 0.0
C494 C 0.73229 0.03362 0.13046 0.0
C495 C 0.73291 0.99554 0.80725 0.0
H496 H 0.70827 0.90902 0.0505 0.0
H497 H 0.62819 0.92547 -0.00116 0.0
H498 H 0.7693 0.97754 0.96291 0.0
H499 H 0.76912 0.99375 0.07231 0.0
H500 H 0.76249 0.95282 0.06211 0.0
H501 H 0.63497 0.97622 0.96294 0.0
H502 H 0.67102 0.01067 0.00813 0.0
H503 H 0.67051 0.99886 0.89273 0.0
H504 H 0.76042 0.09191 0.04745 0.0
H505 H 0.76436 0.06029 0.77732 0.0
H506 H 0.73715 0.01439 0.15592 0.0
H507 H 0.70585 0.02465 0.13916 0.0
H508 H 0.74599 0.05584 0.17268 0.0
H509 H 0.74021 0.97781 0.83041 0.0
H510 H 0.74443 1.00535 0.74034 0.0
H511 H 0.70604 0.98199 0.79839 0.0
C512 C 0.78568 0.69195 0.21168 0.0
C513 C 0.76448 0.65836 0.2008 0.0
C514 C 0.77586 0.71466 0.1881 0.0
C515 C 0.74447 0.70352 0.15066 0.0
C516 C 0.72301 0.66963 0.14014 0.0
C517 C 0.73311 0.64756 0.16621 0.0
C518 C 0.79913 0.75053 0.20237 0.0
C519 C 0.68956 0.65659 0.0989 0.0
C520 C 0.69942 0.75128 0.14109 0.0
C521 C 0.70402 0.76154 0.05033 0.0
C522 C 0.71463 0.73467 0.17678 0.0
C523 C 0.73394 0.72692 0.11961 0.0
C524 C 0.73957 0.7381 0.02886 0.0
C525 C 0.72478 0.75544 -0.00427 0.0
C526 C 0.70835 0.72365 0.27431 0.0
C527 C 0.75938 0.72984 0.9648 0.0
H528 H 0.80993 0.70049 0.2384 0.0
H529 H 0.71663 0.6217 0.15658 0.0
H530 H 0.80585 0.76326 0.13611 0.0
H531 H 0.78715 0.76143 0.24296 0.0
H532 H 0.8218 0.75514 0.23742 0.0
H533 H 0.67591 0.62955 0.09486 0.0
H534 H 0.67501 0.66457 0.13948 0.0
H535 H 0.69186 0.66653 0.02954 0.0
H536 H 0.68248 0.75442 0.18329 0.0
H537 H 0.7283 0.76306 0.92547 0.0
H538 H 0.73129 0.72831 0.30765 0.0
H539 H 0.69114 0.69702 0.27704 0.0
H540 H 0.69764 0.73615 0.3135 0.0
H541 H 0.78315 0.73605 -0.00439 0.0
H542 H 0.76398 0.7428 0.89904 0.0
H543 H 0.74618 0.70321 0.95142 0.0
C544 C 0.97857 0.69361 0.17816 0.0
C545 C 0.95376 0.6868 0.24111 0.0
C546 C 1.01132 0.70786 0.20543 0.0
C547 C 0.01953 0.71594 0.29786 0.0
C548 C 0.99463 0.71016 0.36118 0.0
C549 C 0.96206 0.69568 0.332 0.0
C550 C 0.03703 0.71347 0.13566 0.0
C551 C 1.00233 0.71877 0.45998 0.0
C552 C 0.09733 0.71821 0.37418 0.0
C553 C 0.12039 0.75157 0.3688 0.0
C554 C 0.06432 0.7065 0.35428 0.0
C555 C 0.05386 0.72864 0.32858 0.0
C556 C 0.07665 0.76252 0.3274 0.0
C557 C 0.10966 0.7736 0.34747 0.0
C558 C 0.0409 0.67021 0.3568 0.0
C559 C 0.06645 0.78696 0.30114 0.0
H560 H 0.97214 0.68696 0.10783 0.0
H561 H 0.94301 0.6914 0.38018 0.0
H562 H 0.05662 0.73939 0.13635 0.0
H563 H 0.04844 0.69857 0.15255 0.0
H564 H 0.02685 0.70706 0.06609 0.0
H565 H 0.98048 0.71433 0.49965 0.0
H566 H 1.01235 0.70408 0.4898 0.0
H567 H 0.02128 0.74479 0.46708 0.0
H568 H 0.10525 0.70094 0.39102 0.0
H569 H 0.12723 0.79939 0.3429 0.0
H570 H 0.03173 0.66129 0.28748 0.0
H571 H 0.01948 0.66475 0.39976 0.0
H572 H 0.05244 0.65641 0.38331 0.0
H573 H 0.05963 0.7839 0.22845 0.0
H574 H 0.08621 0.81247 0.31227 0.0
H575 H 0.04465 0.78272 0.34052 0.0
C576 C 0.53998 0.3231 0.52171 0.0
C577 C 0.51244 0.30437 0.46826 0.0
C578 C 0.56456 0.35393 0.49247 0.0
C579 C 0.56225 0.36547 0.40573 0.0
C580 C 0.53454 0.3463 0.35115 0.0
C581 C 0.50962 0.31626 0.38399 0.0
C582 C 0.59302 0.37409 0.55432 0.0
C583 C 0.53174 0.35698 0.25689 0.0
C584 C 0.61263 0.45619 0.35573 0.0
C585 C 0.6413 0.45905 0.31773 0.0
C586 C 0.58685 0.42604 0.38466 0.0
C587 C 0.58891 0.39749 0.3721 0.0
C588 C 0.61699 0.39975 0.33042 0.0
C589 C 0.64317 0.4305 0.30636 0.0
C590 C 0.55796 0.42499 0.43202 0.0
C591 C 0.61979 0.36975 0.31316 0.0
H592 H 0.54212 0.31368 0.58669 0.0
H593 H 0.48855 0.30134 0.34202 0.0
H594 H 0.6158 0.37703 0.52393 0.0
H595 H 0.59621 0.39884 0.5627 0.0
H596 H 0.58978 0.36283 0.62231 0.0
H597 H 0.50893 0.33897 0.22246 0.0
H598 H 0.53239 0.38073 0.25952 0.0
H599 H 0.55286 0.36053 0.21528 0.0
H600 H 0.61077 0.4779 0.36573 0.0
H601 H 0.66526 0.43179 0.28202 0.0
H602 H 0.55563 0.41505 0.50142 0.0
H603 H 0.53512 0.4085 0.39548 0.0
H604 H 0.56017 0.44944 0.43711 0.0
H605 H 0.6227 0.3599 0.37836 0.0
H606 H 0.64095 0.37502 0.26908 0.0
H607 H 0.59726 0.35044 0.28066 0.0
C608 C 0.19206 0.50298 0.65404 0.0
C609 C 0.22409 0.51045 0.67365 0.0
C610 C 0.18552 0.5266 0.6176 0.0
C611 C 0.21164 0.55838 0.59964 0.0
C612 C 0.24386 0.56634 0.62212 0.0
C613 C 0.24965 0.54238 0.65916 0.0
C614 C 0.15078 0.51721 0.59553 0.0
C615 C 0.27246 0.59987 0.60378 0.0
C616 C 0.20221 0.60884 0.41422 0.0
C617 C 0.19793 0.63156 0.46463 0.0
C618 C 0.20635 0.58468 0.45729 0.0
C619 C 0.20565 0.5829 0.55321 0.0
C620 C 0.20036 0.60525 0.60434 0.0
C621 C 0.19659 0.62934 0.55937 0.0
C622 C 0.21208 0.56145 0.40019 0.0
C623 C 0.19894 0.60388 0.70652 0.0
H624 H 0.1721 0.47841 0.66482 0.0
H625 H 0.27444 0.5485 0.67412 0.0
H626 H 0.14468 0.53507 0.62539 0.0
H627 H 0.14792 0.51763 0.52106 0.0
H628 H 0.13301 0.4925 0.62085 0.0
H629 H 0.29582 0.6026 0.62886 0.0
H630 H 0.27472 0.60468 0.5298 0.0
H631 H 0.26845 0.61875 0.63639 0.0
H632 H 0.20305 0.61053 0.34096 0.0
H633 H 0.19238 0.64637 0.59816 0.0
H634 H 0.19313 0.53594 0.41494 0.0
H635 H 0.23602 0.56386 0.41735 0.0
H636 H 0.21171 0.56593 0.32646 0.0
H637 H 0.17999 0.57928 0.72922 0.0
H638 H 0.19346 0.62224 0.73613 0.0
H639 H 0.2226 0.6082 0.73386 0.0
C640 C 0.69458 0.18578 0.80774 0.0
C641 C 0.71851 0.21803 0.82712 0.0
C642 C 0.66413 0.17851 0.77201 0.0
C643 C 0.65751 0.20409 0.75466 0.0
C644 C 0.68117 0.23655 0.77671 0.0
C645 C 0.71128 0.2431 0.81289 0.0
C646 C 0.63945 0.14355 0.75019 0.0
C647 C 0.67516 0.26456 0.75906 0.0
C648 C 0.59613 0.19298 0.57205 0.0
C649 C 0.56914 0.18805 0.6237 0.0
C650 C 0.62489 0.19783 0.61377 0.0
C651 C 0.62652 0.19728 0.70959 0.0
C652 C 0.59892 0.19132 0.76198 0.0
C653 C 0.57055 0.18676 0.71833 0.0
C654 C 0.65378 0.20422 0.55536 0.0
C655 C 0.59947 0.19007 0.8641 0.0
H656 H 0.69991 0.16624 0.8183 0.0
H657 H 0.72955 0.2681 0.82753 0.0
H658 H 0.61555 0.13688 0.78138 0.0
H659 H 0.63574 0.14062 0.67583 0.0
H660 H 0.64725 0.12627 0.77432 0.0
H661 H 0.69544 0.28818 0.7837 0.0
H662 H 0.67216 0.26659 0.68525 0.0
H663 H 0.65224 0.26004 0.79256 0.0
H664 H 0.5949 0.19377 0.49887 0.0
H665 H 0.54934 0.182 0.75811 0.0
H666 H 0.6615 0.18609 0.57021 0.0
H667 H 0.67473 0.22865 0.57112 0.0
H668 H 0.64833 0.20317 0.48187 0.0
H669 H 0.60594 0.17159 0.88606 0.0
H670 H 0.57564 0.18407 0.89479 0.0
H671 H 0.61846 0.21395 0.89103 0.0
C672 C 0.5272 0.70249 0.85979 0.0
C673 C 0.52373 0.71533 0.94197 0.0
C674 C 0.50244 0.67215 0.82815 0.0
C675 C 0.47425 0.65369 0.88198 0.0
C676 C 0.47124 0.66624 0.96661 0.0
C677 C 0.4957 0.69729 -0.00547 0.0
C678 C 0.50598 0.66033 0.73599 0.0
C679 C 0.44222 0.64687 0.02773 0.0
C680 C 0.39368 0.58749 0.78508 0.0
C681 C 0.39511 0.55905 0.8028 0.0
C682 C 0.42001 0.61853 0.80576 0.0
C683 C 0.4478 0.62128 0.85009 0.0
C684 C 0.44951 0.59284 0.86825 0.0
C685 C 0.42353 0.56229 0.84292 0.0
C686 C 0.41759 0.64834 0.78269 0.0
C687 C 0.47811 0.59448 0.91837 0.0
H688 H 0.5487 0.71684 0.81851 0.0
H689 H 0.4931 0.7074 0.05799 0.0
H690 H 0.50523 0.63661 0.74213 0.0
H691 H 0.48523 0.65631 0.69231 0.0
H692 H 0.5291 0.6779 0.70179 0.0
H693 H 0.44479 0.65905 0.0941 0.0
H694 H 0.41971 0.64341 -0.00541 0.0
H695 H 0.43902 0.6223 0.03997 0.0
H696 H 0.3717 0.58587 0.7587 0.0
H697 H 0.42494 0.5406 0.85769 0.0
H698 H 0.44041 0.66705 0.74975 0.0
H699 H 0.41429 0.65924 0.84561 0.0
H700 H 0.39678 0.64248 0.73686 0.0
H701 H 0.50121 0.6107 0.88231 0.0
H702 H 0.47594 0.57013 0.92617 0.0
H703 H 0.47986 0.60505 -0.01325 0.0
C704 C 0.84692 0.51731 0.18895 0.0
C705 C 0.81468 0.5099 0.20546 0.0
C706 C 0.85384 0.49355 0.15501 0.0
C707 C 0.82788 0.46178 0.13595 0.0
C708 C 0.79549 0.45376 0.15674 0.0
C709 C 0.78935 0.47779 0.19189 0.0
C710 C 0.88879 0.5029 0.13567 0.0
C711 C 0.76703 0.42028 0.13706 0.0
C712 C 0.83818 0.41268 0.94715 0.0
C713 C 0.8414 0.38912 -0.0041 0.0
C714 C 0.8342 0.43672 -0.00803 0.0
C715 C 0.83414 0.43758 0.08802 0.0
C716 C 0.83852 0.41443 0.13754 0.0
C717 C 0.84196 0.39037 0.09079 0.0
C718 C 0.8292 0.46065 0.93649 0.0
C719 C 0.83923 0.41487 0.23977 0.0
H720 H 0.86673 0.54197 0.19955 0.0
H721 H 0.7644 0.47169 0.20459 0.0
H722 H 0.89427 0.48446 0.1641 0.0
H723 H 0.89269 0.50357 0.06137 0.0
H724 H 0.9063 0.52717 0.16417 0.0
H725 H 0.74355 0.41734 0.16229 0.0
H726 H 0.76503 0.4159 0.06284 0.0
H727 H 0.77097 0.40124 0.16852 0.0
H728 H 0.83787 0.41165 0.87378 0.0
H729 H 0.84524 0.37255 0.12827 0.0
H730 H 0.84795 0.48597 0.954 0.0
H731 H 0.80505 0.45801 0.95246 0.0
H732 H 0.83046 0.45705 0.86249 0.0
H733 H 0.8579 0.43929 0.26441 0.0
H734 H 0.84465 0.39632 0.26797 0.0
H735 H 0.81533 0.41014 0.2667 0.0
C736 C 0.44176 0.82841 0.05554 0.0
C737 C 0.46835 0.83247 0.10692 0.0
C738 C 0.41299 0.82357 0.09756 0.0
C739 C 0.411 0.82329 0.19343 0.0
C740 C 0.43823 0.82837 0.24566 0.0
C741 C 0.4666 0.8329 0.20168 0.0
C742 C 0.38447 0.81804 0.03933 0.0
C743 C 0.43727 0.82871 0.34787 0.0
C744 C 0.34284 0.83489 0.29138 0.0
C745 C 0.31845 0.80256 0.30765 0.0
C746 C 0.37357 0.84215 0.2574 0.0
C747 C 0.37995 0.81647 0.23847 0.0
C748 C 0.35585 0.78393 0.25783 0.0
C749 C 0.3255 0.77739 0.29253 0.0
C750 C 0.39879 0.87721 0.23883 0.0
C751 C 0.3616 0.75582 0.2384 0.0
H752 H 0.44328 0.82826 -0.01772 0.0
H753 H 0.48755 0.83693 0.24125 0.0
H754 H 0.36327 0.7936 0.05354 0.0
H755 H 0.377 0.83628 0.05589 0.0
H756 H 0.3902 0.81967 0.96582 0.0
H757 H 0.46091 0.83421 0.37845 0.0
H758 H 0.43094 0.84715 0.37162 0.0
H759 H 0.41802 0.80467 0.37318 0.0
H760 H 0.3377 0.85451 0.30309 0.0
H761 H 0.30688 0.75233 0.30491 0.0
H762 H 0.40309 0.88094 0.16478 0.0
H763 H 0.42235 0.88319 0.27063 0.0
H764 H 0.39113 0.89448 0.26453 0.0
H765 H 0.36488 0.75424 0.16443 0.0
H766 H 0.34106 0.73213 0.26174 0.0
H767 H 0.38429 0.75987 0.2719 0.0
loop_
_geom_bond_atom_site_label_1
_geom_bond_atom_site_label_2
_geom_bond_distance
_geom_bond_site_symmetry_2
_ccdc_geom_bond_type
Zn0 O1 2.055 . S
Zn0 O8 2.046 . S
Zn0 N16 2.036 . S
Zn0 O28 2.053 . S
Zn0 O30 2.066 . S
O1 Zn0 2.055 . S
O1 C4 1.259 . S
C2 O30 1.256 . S
C2 O31 1.244 . S
Zn3 O5 2.046 . S
Zn3 O7 2.055 . S
Zn3 N9 2.036 . S
Zn3 O27 2.066 . S
Zn3 O31 2.053 . S
C4 O1 1.259 . S
C4 O5 1.254 . S
O5 Zn3 2.046 . S
O5 C4 1.254 . S
C6 O27 1.256 . S
C6 O28 1.244 . S
O7 Zn3 2.055 . S
O7 C29 1.259 . S
O8 Zn0 2.046 . S
O8 C29 1.254 . S
N9 Zn3 2.036 . S
N9 C10 1.298 . S
N9 N12 1.398 . S
C10 N9 1.298 . S
C10 N13 1.367 . S
C10 C23 1.481 . S
C11 N12 1.299 . S
C11 N13 1.379 . S
N12 N9 1.398 . S
N12 C11 1.299 . S
N13 C10 1.367 . S
N13 C11 1.379 . S
C14 N16 1.298 . S
C14 N18 1.367 . S
C14 C22 1.481 . S
C15 N17 1.299 . S
C15 N18 1.379 . S
N16 Zn0 2.036 . S
N16 C14 1.298 . S
N16 N17 1.398 . S
N17 C15 1.299 . S
N17 N16 1.398 . S
N18 C14 1.367 . S
N18 C15 1.379 . S
H19 C22 0.980 . S
H20 C22 0.981 . S
H21 C22 0.981 . S
C22 C14 1.481 . S
C22 H19 0.980 . S
C22 H20 0.981 . S
C22 H21 0.981 . S
C23 C10 1.481 . S
C23 H24 0.980 . S
C23 H25 0.981 . S
C23 H26 0.981 . S
H24 C23 0.980 . S
H25 C23 0.981 . S
H26 C23 0.981 . S
O27 Zn3 2.066 . S
O27 C6 1.256 . S
O28 Zn0 2.053 . S
O28 C6 1.244 . S
C29 O7 1.259 . S
C29 O8 1.254 . S
O30 Zn0 2.066 . S
O30 C2 1.256 . S
O31 C2 1.244 . S
O31 Zn3 2.053 . S
Zn32 O33 2.055 . S
Zn32 O40 2.046 . S
Zn32 N48 2.036 . S
Zn32 O60 2.053 . S
Zn32 O62 2.066 . S
O33 Zn32 2.055 . S
O33 C36 1.259 . S
C34 O62 1.256 . S
C34 O63 1.244 . S
Zn35 O37 2.046 . S
Zn35 O39 2.055 . S
Zn35 N41 2.036 . S
Zn35 O59 2.066 . S
Zn35 O63 2.053 . S
C36 O33 1.259 . S
C36 O37 1.254 . S
O37 Zn35 2.046 . S
O37 C36 1.254 . S
C38 O59 1.256 . S
C38 O60 1.244 . S
O39 Zn35 2.055 . S
O39 C61 1.259 . S
O40 Zn32 2.046 . S
O40 C61 1.254 . S
N41 Zn35 2.036 . S
N41 C42 1.298 . S
N41 N44 1.398 . S
C42 N41 1.298 . S
C42 N45 1.367 . S
C42 C55 1.481 . S
C43 N44 1.299 . S
C43 N45 1.379 . S
N44 N41 1.398 . S
N44 C43 1.299 . S
N45 C42 1.367 . S
N45 C43 1.379 . S
C46 N48 1.298 . S
C46 N50 1.367 . S
C46 C54 1.481 . S
C47 N49 1.299 . S
C47 N50 1.379 . S
N48 Zn32 2.036 . S
N48 C46 1.298 . S
N48 N49 1.398 . S
N49 C47 1.299 . S
N49 N48 1.398 . S
N50 C46 1.367 . S
N50 C47 1.379 . S
H51 C54 0.980 . S
H52 C54 0.981 . S
H53 C54 0.981 . S
C54 C46 1.481 . S
C54 H51 0.980 . S
C54 H52 0.981 . S
C54 H53 0.981 . S
C55 C42 1.481 . S
C55 H56 0.980 . S
C55 H57 0.981 . S
C55 H58 0.981 . S
H56 C55 0.980 . S
H57 C55 0.981 . S
H58 C55 0.981 . S
O59 Zn35 2.066 . S
O59 C38 1.256 . S
O60 Zn32 2.053 . S
O60 C38 1.244 . S
C61 O39 1.259 . S
C61 O40 1.254 . S
O62 Zn32 2.066 . S
O62 C34 1.256 . S
O63 C34 1.244 . S
O63 Zn35 2.053 . S
Zn64 O65 2.055 . S
Zn64 O72 2.046 . S
Zn64 N80 2.036 . S
Zn64 O92 2.053 . S
Zn64 O94 2.066 1_556 S
O65 Zn64 2.055 . S
O65 C68 1.259 . S
C66 O94 1.256 . S
C66 O95 1.244 . S
Zn67 O69 2.046 . S
Zn67 O71 2.055 . S
Zn67 N73 2.036 . S
Zn67 O91 2.066 . S
Zn67 O95 2.053 1_556 S
C68 O65 1.259 . S
C68 O69 1.254 . S
O69 Zn67 2.046 . S
O69 C68 1.254 . S
C70 O91 1.256 . S
C70 O92 1.244 . S
O71 Zn67 2.055 . S
O71 C93 1.259 . S
O72 Zn64 2.046 . S
O72 C93 1.254 . S
N73 Zn67 2.036 . S
N73 C74 1.298 . S
N73 N76 1.398 1_556 S
C74 N73 1.298 . S
C74 N77 1.367 . S
C74 C87 1.481 . S
C75 N76 1.299 . S
C75 N77 1.379 1_554 S
N76 N73 1.398 1_554 S
N76 C75 1.299 . S
N77 C74 1.367 . S
N77 C75 1.379 1_556 S
C78 N80 1.298 . S
C78 N82 1.367 . S
C78 C86 1.481 . S
C79 N81 1.299 . S
C79 N82 1.379 . S
N80 Zn64 2.036 . S
N80 C78 1.298 . S
N80 N81 1.398 . S
N81 C79 1.299 . S
N81 N80 1.398 . S
N82 C78 1.367 . S
N82 C79 1.379 . S
H83 C86 0.980 . S
H84 C86 0.981 . S
H85 C86 0.981 1_554 S
C86 C78 1.481 . S
C86 H83 0.980 . S
C86 H84 0.981 . S
C86 H85 0.981 1_556 S
C87 C74 1.481 . S
C87 H88 0.980 . S
C87 H89 0.981 . S
C87 H90 0.981 . S
H88 C87 0.980 . S
H89 C87 0.981 . S
H90 C87 0.981 . S
O91 Zn67 2.066 . S
O91 C70 1.256 . S
O92 Zn64 2.053 . S
O92 C70 1.244 . S
C93 O71 1.259 . S
C93 O72 1.254 . S
O94 Zn64 2.066 1_554 S
O94 C66 1.256 . S
O95 C66 1.244 . S
O95 Zn67 2.053 1_554 S
Zn96 O97 2.055 . S
Zn96 O104 2.046 1_554 S
Zn96 N112 2.036 . S
Zn96 O124 2.053 . S
Zn96 O126 2.066 . S
O97 Zn96 2.055 . S
O97 C100 1.259 . S
C98 O126 1.256 . S
C98 O127 1.244 . S
Zn99 O101 2.046 . S
Zn99 O103 2.055 1_554 S
Zn99 N105 2.036 . S
Zn99 O123 2.066 . S
Zn99 O127 2.053 . S
C100 O97 1.259 . S
C100 O101 1.254 . S
O101 Zn99 2.046 . S
O101 C100 1.254 . S
C102 O123 1.256 . S
C102 O124 1.244 . S
O103 Zn99 2.055 1_556 S
O103 C125 1.259 . S
O104 Zn96 2.046 1_556 S
O104 C125 1.254 . S
N105 Zn99 2.036 . S
N105 C106 1.298 . S
N105 N108 1.398 . S
C106 N105 1.298 . S
C106 N109 1.367 . S
C106 C119 1.481 1_554 S
C107 N108 1.299 . S
C107 N109 1.379 . S
N108 N105 1.398 . S
N108 C107 1.299 . S
N109 C106 1.367 . S
N109 C107 1.379 . S
C110 N112 1.298 . S
C110 N114 1.367 . S
C110 C118 1.481 . S
C111 N113 1.299 . S
C111 N114 1.379 . S
N112 Zn96 2.036 . S
N112 C110 1.298 . S
N112 N113 1.398 . S
N113 C111 1.299 . S
N113 N112 1.398 . S
N114 C110 1.367 . S
N114 C111 1.379 . S
H115 C118 0.980 . S
H116 C118 0.981 . S
H117 C118 0.981 . S
C118 C110 1.481 . S
C118 H115 0.980 . S
C118 H116 0.981 . S
C118 H117 0.981 . S
C119 C106 1.481 1_556 S
C119 H120 0.980 . S
C119 H121 0.981 . S
C119 H122 0.981 . S
H120 C119 0.980 . S
H121 C119 0.981 . S
H122 C119 0.981 . S
O123 Zn99 2.066 . S
O123 C102 1.256 . S
O124 Zn96 2.053 . S
O124 C102 1.244 . S
C125 O103 1.259 . S
C125 O104 1.254 . S
O126 Zn96 2.066 . S
O126 C98 1.256 . S
O127 C98 1.244 . S
O127 Zn99 2.053 . S
Zn128 O129 2.055 . S
Zn128 O136 2.046 . S
Zn128 N144 2.036 . S
Zn128 O156 2.053 . S
Zn128 O158 2.066 . S
O129 Zn128 2.055 . S
O129 C132 1.259 . S
C130 O158 1.256 . S
C130 O159 1.244 . S
Zn131 O133 2.046 . S
Zn131 O135 2.055 . S
Zn131 N137 2.036 . S
Zn131 O155 2.066 . S
Zn131 O159 2.053 . S
C132 O129 1.259 . S
C132 O133 1.254 . S
O133 Zn131 2.046 . S
O133 C132 1.254 . S
C134 O155 1.256 . S
C134 O156 1.244 . S
O135 Zn131 2.055 . S
O135 C157 1.259 . S
O136 Zn128 2.046 . S
O136 C157 1.254 . S
N137 Zn131 2.036 . S
N137 C138 1.298 . S
N137 N140 1.398 . S
C138 N137 1.298 . S
C138 N141 1.367 . S
C138 C151 1.481 . S
C139 N140 1.299 . S
C139 N141 1.379 . S
N140 N137 1.398 . S
N140 C139 1.299 . S
N141 C138 1.367 . S
N141 C139 1.379 . S
C142 N144 1.298 . S
C142 N146 1.367 . S
C142 C150 1.481 . S
C143 N145 1.299 . S
C143 N146 1.379 . S
N144 Zn128 2.036 . S
N144 C142 1.298 . S
N144 N145 1.398 . S
N145 C143 1.299 . S
N145 N144 1.398 . S
N146 C142 1.367 . S
N146 C143 1.379 . S
H147 C150 0.980 . S
H148 C150 0.981 . S
H149 C150 0.981 . S
C150 C142 1.481 . S
C150 H147 0.980 . S
C150 H148 0.981 . S
C150 H149 0.981 . S
C151 C138 1.481 . S
C151 H152 0.980 . S
C151 H153 0.981 . S
C151 H154 0.981 . S
H152 C151 0.980 . S
H153 C151 0.981 . S
H154 C151 0.981 . S
O155 Zn131 2.066 . S
O155 C134 1.256 . S
O156 Zn128 2.053 . S
O156 C134 1.244 . S
C157 O135 1.259 . S
C157 O136 1.254 . S
O158 Zn128 2.066 . S
O158 C130 1.256 . S
O159 C130 1.244 . S
O159 Zn131 2.053 . S
Zn160 O161 2.055 . S
Zn160 O168 2.046 . S
Zn160 N176 2.036 . S
Zn160 O188 2.053 . S
Zn160 O190 2.066 . S
O161 Zn160 2.055 . S
O161 C164 1.259 . S
C162 O190 1.256 . S
C162 O191 1.244 . S
Zn163 O165 2.046 . S
Zn163 O167 2.055 . S
Zn163 N169 2.036 . S
Zn163 O187 2.066 . S
Zn163 O191 2.053 . S
C164 O161 1.259 . S
C164 O165 1.254 . S
O165 Zn163 2.046 . S
O165 C164 1.254 . S
C166 O187 1.256 . S
C166 O188 1.244 . S
O167 Zn163 2.055 . S
O167 C189 1.259 . S
O168 Zn160 2.046 . S
O168 C189 1.254 . S
N169 Zn163 2.036 . S
N169 C170 1.298 . S
N169 N172 1.398 . S
C170 N169 1.298 . S
C170 N173 1.367 . S
C170 C183 1.481 . S
C171 N172 1.299 . S
C171 N173 1.379 . S
N172 N169 1.398 . S
N172 C171 1.299 . S
N173 C170 1.367 . S
N173 C171 1.379 . S
C174 N176 1.298 . S
C174 N178 1.367 . S
C174 C182 1.481 . S
C175 N177 1.299 . S
C175 N178 1.379 . S
N176 Zn160 2.036 . S
N176 C174 1.298 . S
N176 N177 1.398 . S
N177 C175 1.299 . S
N177 N176 1.398 . S
N178 C174 1.367 . S
N178 C175 1.379 . S
H179 C182 0.980 . S
H180 C182 0.981 . S
H181 C182 0.981 . S
C182 C174 1.481 . S
C182 H179 0.980 . S
C182 H180 0.981 . S
C182 H181 0.981 . S
C183 C170 1.481 . S
C183 H184 0.980 . S
C183 H185 0.981 . S
C183 H186 0.981 . S
H184 C183 0.980 . S
H185 C183 0.981 . S
H186 C183 0.981 . S
O187 Zn163 2.066 . S
O187 C166 1.256 . S
O188 Zn160 2.053 . S
O188 C166 1.244 . S
C189 O167 1.259 . S
C189 O168 1.254 . S
O190 Zn160 2.066 . S
O190 C162 1.256 . S
O191 C162 1.244 . S
O191 Zn163 2.053 . S
C192 C193 1.391 . S
C192 C194 1.394 . S
C192 H208 0.931 . S
C193 C192 1.391 . S
C193 C197 1.376 . S
C194 C192 1.394 . S
C194 C195 1.369 . S
C194 C198 1.531 . S
C195 C194 1.369 . S
C195 C196 1.410 . S
C195 C203 1.503 . S
C196 C195 1.410 . S
C196 C197 1.392 . S
C196 C199 1.511 . S
C197 C193 1.376 . S
C197 C196 1.392 . S
C197 H209 0.929 . S
C198 C194 1.531 . S
C198 H210 0.960 . S
C198 H211 0.962 . S
C198 H212 0.960 . S
C199 C196 1.511 . S
C199 H213 0.961 . S
C199 H214 0.961 . S
C199 H215 0.961 . S
C200 C201 1.370 . S
C200 C202 1.363 . S
C200 H216 0.931 . S
C201 C200 1.370 . S
C201 C205 1.408 . S
C202 C200 1.363 . S
C202 C203 1.370 1_556 S
C202 C206 1.524 1_556 S
C203 C195 1.503 . S
C203 C202 1.370 1_554 S
C203 C204 1.403 1_554 S
C204 C203 1.403 1_556 S
C204 C205 1.404 . S
C204 C207 1.539 1_556 S
C205 C201 1.408 . S
C205 C204 1.404 . S
C205 H217 0.930 . S
C206 C202 1.524 1_554 S
C206 H218 0.956 . S
C206 H219 0.961 . S
C206 H220 0.961 1_554 S
C207 C204 1.539 1_554 S
C207 H221 0.958 . S
C207 H222 0.961 1_554 S
C207 H223 0.960 . S
H208 C192 0.931 . S
H209 C197 0.929 . S
H210 C198 0.960 . S
H211 C198 0.962 . S
H212 C198 0.960 . S
H213 C199 0.961 . S
H214 C199 0.961 . S
H215 C199 0.961 . S
H216 C200 0.931 . S
H217 C205 0.930 . S
H218 C206 0.956 . S
H219 C206 0.961 . S
H220 C206 0.961 1_556 S
H221 C207 0.958 . S
H222 C207 0.961 1_556 S
H223 C207 0.960 . S
C224 C225 1.391 . S
C224 C226 1.394 . S
C224 H240 0.931 . S
C225 C224 1.391 . S
C225 C229 1.376 . S
C226 C224 1.394 . S
C226 C227 1.369 . S
C226 C230 1.531 . S
C227 C226 1.369 . S
C227 C228 1.410 . S
C227 C235 1.503 . S
C228 C227 1.410 . S
C228 C229 1.392 . S
C228 C231 1.511 . S
C229 C225 1.376 . S
C229 C228 1.392 . S
C229 H241 0.929 . S
C230 C226 1.531 . S
C230 H242 0.960 . S
C230 H243 0.962 . S
C230 H244 0.960 . S
C231 C228 1.511 . S
C231 H245 0.961 . S
C231 H246 0.961 . S
C231 H247 0.961 . S
C232 C233 1.370 1_554 S
C232 C234 1.363 . S
C232 H248 0.931 . S
C233 C232 1.370 1_556 S
C233 C237 1.408 1_556 S
C234 C232 1.363 . S
C234 C235 1.370 . S
C234 C238 1.524 . S
C235 C227 1.503 . S
C235 C234 1.370 . S
C235 C236 1.403 . S
C236 C235 1.403 . S
C236 C237 1.404 . S
C236 C239 1.539 . S
C237 C233 1.408 1_554 S
C237 C236 1.404 . S
C237 H249 0.930 1_554 S
C238 C234 1.524 . S
C238 H250 0.956 . S
C238 H251 0.961 . S
C238 H252 0.961 . S
C239 C236 1.539 . S
C239 H253 0.958 . S
C239 H254 0.961 . S
C239 H255 0.960 . S
H240 C224 0.931 . S
H241 C229 0.929 . S
H242 C230 0.960 . S
H243 C230 0.962 . S
H244 C230 0.960 . S
H245 C231 0.961 . S
H246 C231 0.961 . S
H247 C231 0.961 . S
H248 C232 0.931 . S
H249 C237 0.930 1_556 S
H250 C238 0.956 . S
H251 C238 0.961 . S
H252 C238 0.961 . S
H253 C239 0.958 . S
H254 C239 0.961 . S
H255 C239 0.960 . S
C256 C257 1.391 . S
C256 C258 1.394 . S
C256 H272 0.931 . S
C257 C256 1.391 . S
C257 C261 1.376 . S
C258 C256 1.394 . S
C258 C259 1.369 . S
C258 C262 1.531 . S
C259 C258 1.369 . S
C259 C260 1.410 . S
C259 C267 1.503 . S
C260 C259 1.410 . S
C260 C261 1.392 . S
C260 C263 1.511 . S
C261 C257 1.376 . S
C261 C260 1.392 . S
C261 H273 0.929 . S
C262 C258 1.531 . S
C262 H274 0.960 . S
C262 H275 0.962 . S
C262 H276 0.960 . S
C263 C260 1.511 . S
C263 H277 0.961 . S
C263 H278 0.961 . S
C263 H279 0.961 . S
C264 C265 1.370 . S
C264 C266 1.363 . S
C264 H280 0.931 . S
C265 C264 1.370 . S
C265 C269 1.408 . S
C266 C264 1.363 . S
C266 C267 1.370 . S
C266 C270 1.524 . S
C267 C259 1.503 . S
C267 C266 1.370 . S
C267 C268 1.403 . S
C268 C267 1.403 . S
C268 C269 1.404 . S
C268 C271 1.539 . S
C269 C265 1.408 . S
C269 C268 1.404 . S
C269 H281 0.930 . S
C270 C266 1.524 . S
C270 H282 0.956 . S
C270 H283 0.961 . S
C270 H284 0.961 . S
C271 C268 1.539 . S
C271 H285 0.958 . S
C271 H286 0.961 . S
C271 H287 0.960 . S
H272 C256 0.931 . S
H273 C261 0.929 . S
H274 C262 0.960 . S
H275 C262 0.962 . S
H276 C262 0.960 . S
H277 C263 0.961 . S
H278 C263 0.961 . S
H279 C263 0.961 . S
H280 C264 0.931 . S
H281 C269 0.930 . S
H282 C270 0.956 . S
H283 C270 0.961 . S
H284 C270 0.961 . S
H285 C271 0.958 . S
H286 C271 0.961 . S
H287 C271 0.960 . S
C288 C289 1.391 . S
C288 C290 1.394 . S
C288 H304 0.931 . S
C289 C288 1.391 . S
C289 C293 1.376 . S
C290 C288 1.394 . S
C290 C291 1.369 . S
C290 C294 1.531 . S
C291 C290 1.369 . S
C291 C292 1.410 . S
C291 C299 1.503 . S
C292 C291 1.410 . S
C292 C293 1.392 . S
C292 C295 1.511 . S
C293 C289 1.376 . S
C293 C292 1.392 . S
C293 H305 0.929 . S
C294 C290 1.531 . S
C294 H306 0.960 . S
C294 H307 0.962 . S
C294 H308 0.960 . S
C295 C292 1.511 . S
C295 H309 0.961 . S
C295 H310 0.961 . S
C295 H311 0.961 . S
C296 C297 1.370 . S
C296 C298 1.363 . S
C296 H312 0.931 . S
C297 C296 1.370 . S
C297 C301 1.408 . S
C298 C296 1.363 . S
C298 C299 1.370 . S
C298 C302 1.524 . S
C299 C291 1.503 . S
C299 C298 1.370 . S
C299 C300 1.403 . S
C300 C299 1.403 . S
C300 C301 1.404 . S
C300 C303 1.539 . S
C301 C297 1.408 . S
C301 C300 1.404 . S
C301 H313 0.930 . S
C302 C298 1.524 . S
C302 H314 0.956 . S
C302 H315 0.961 . S
C302 H316 0.961 . S
C303 C300 1.539 . S
C303 H317 0.958 . S
C303 H318 0.961 . S
C303 H319 0.960 . S
H304 C288 0.931 . S
H305 C293 0.929 . S
H306 C294 0.960 . S
H307 C294 0.962 . S
H308 C294 0.960 . S
H309 C295 0.961 . S
H310 C295 0.961 . S
H311 C295 0.961 . S
H312 C296 0.931 . S
H313 C301 0.930 . S
H314 C302 0.956 . S
H315 C302 0.961 . S
H316 C302 0.961 . S
H317 C303 0.958 . S
H318 C303 0.961 . S
H319 C303 0.960 . S
C320 C321 1.391 . S
C320 C322 1.394 . S
C320 H336 0.931 . S
C321 C320 1.391 . S
C321 C325 1.376 . S
C322 C320 1.394 . S
C322 C323 1.369 . S
C322 C326 1.531 . S
C323 C322 1.369 . S
C323 C324 1.410 . S
C323 C331 1.503 . S
C324 C323 1.410 . S
C324 C325 1.392 . S
C324 C327 1.511 . S
C325 C321 1.376 . S
C325 C324 1.392 . S
C325 H337 0.929 . S
C326 C322 1.531 . S
C326 H338 0.960 . S
C326 H339 0.962 . S
C326 H340 0.960 . S
C327 C324 1.511 . S
C327 H341 0.961 . S
C327 H342 0.961 . S
C327 H343 0.961 . S
C328 C329 1.370 . S
C328 C330 1.363 . S
C328 H344 0.931 . S
C329 C328 1.370 . S
C329 C333 1.408 . S
C330 C328 1.363 . S
C330 C331 1.370 . S
C330 C334 1.524 . S
C331 C323 1.503 . S
C331 C330 1.370 . S
C331 C332 1.403 . S
C332 C331 1.403 . S
C332 C333 1.404 . S
C332 C335 1.539 . S
C333 C329 1.408 . S
C333 C332 1.404 . S
C333 H345 0.930 . S
C334 C330 1.524 . S
C334 H346 0.956 . S
C334 H347 0.961 . S
C334 H348 0.961 . S
C335 C332 1.539 . S
C335 H349 0.958 . S
C335 H350 0.961 . S
C335 H351 0.960 . S
H336 C320 0.931 . S
H337 C325 0.929 . S
H338 C326 0.960 . S
H339 C326 0.962 . S
H340 C326 0.960 . S
H341 C327 0.961 . S
H342 C327 0.961 . S
H343 C327 0.961 . S
H344 C328 0.931 . S
H345 C333 0.930 . S
H346 C334 0.956 . S
H347 C334 0.961 . S
H348 C334 0.961 . S
H349 C335 0.958 . S
H350 C335 0.961 . S
H351 C335 0.960 . S
C352 C353 1.391 . S
C352 C354 1.394 . S
C352 H368 0.931 . S
C353 C352 1.391 . S
C353 C357 1.376 . S
C354 C352 1.394 . S
C354 C355 1.369 1_554 S
C354 C358 1.531 1_554 S
C355 C354 1.369 1_556 S
C355 C356 1.410 1_556 S
C355 C363 1.503 . S
C356 C355 1.410 1_554 S
C356 C357 1.392 . S
C356 C359 1.511 1_554 S
C357 C353 1.376 . S
C357 C356 1.392 . S
C357 H369 0.929 . S
C358 C354 1.531 1_556 S
C358 H370 0.960 . S
C358 H371 0.962 . S
C358 H372 0.960 1_556 S
C359 C356 1.511 1_556 S
C359 H373 0.961 . S
C359 H374 0.961 . S
C359 H375 0.961 . S
C360 C361 1.370 . S
C360 C362 1.363 . S
C360 H376 0.931 . S
C361 C360 1.370 . S
C361 C365 1.408 . S
C362 C360 1.363 . S
C362 C363 1.370 . S
C362 C366 1.524 . S
C363 C355 1.503 . S
C363 C362 1.370 . S
C363 C364 1.403 . S
C364 C363 1.403 . S
C364 C365 1.404 . S
C364 C367 1.539 . S
C365 C361 1.408 . S
C365 C364 1.404 . S
C365 H377 0.930 . S
C366 C362 1.524 . S
C366 H378 0.956 . S
C366 H379 0.961 . S
C366 H380 0.961 . S
C367 C364 1.539 . S
C367 H381 0.958 . S
C367 H382 0.961 . S
C367 H383 0.960 . S
H368 C352 0.931 . S
H369 C357 0.929 . S
H370 C358 0.960 . S
H371 C358 0.962 . S
H372 C358 0.960 1_554 S
H373 C359 0.961 . S
H374 C359 0.961 . S
H375 C359 0.961 . S
H376 C360 0.931 . S
H377 C365 0.930 . S
H378 C366 0.956 . S
H379 C366 0.961 . S
H380 C366 0.961 . S
H381 C367 0.958 . S
H382 C367 0.961 . S
H383 C367 0.960 . S
C384 C385 1.391 . S
C384 C386 1.394 . S
C384 H400 0.931 . S
C385 C384 1.391 . S
C385 C389 1.376 . S
C386 C384 1.394 . S
C386 C387 1.369 . S
C386 C390 1.531 . S
C387 C386 1.369 . S
C387 C388 1.410 . S
C387 C395 1.503 . S
C388 C387 1.410 . S
C388 C389 1.392 . S
C388 C391 1.511 . S
C389 C385 1.376 . S
C389 C388 1.392 . S
C389 H401 0.929 . S
C390 C386 1.531 . S
C390 H402 0.960 . S
C390 H403 0.962 . S
C390 H404 0.960 . S
C391 C388 1.511 . S
C391 H405 0.961 . S
C391 H406 0.961 . S
C391 H407 0.961 . S
C392 C393 1.370 . S
C392 C394 1.363 1_565 S
C392 H408 0.931 . S
C393 C392 1.370 . S
C393 C397 1.408 . S
C394 C392 1.363 1_545 S
C394 C395 1.370 . S
C394 C398 1.524 . S
C395 C387 1.503 . S
C395 C394 1.370 . S
C395 C396 1.403 1_545 S
C396 C395 1.403 1_565 S
C396 C397 1.404 . S
C396 C399 1.539 1_565 S
C397 C393 1.408 . S
C397 C396 1.404 . S
C397 H409 0.930 . S
C398 C394 1.524 . S
C398 H410 0.956 . S
C398 H411 0.961 . S
C398 H412 0.961 . S
C399 C396 1.539 1_545 S
C399 H413 0.958 1_545 S
C399 H414 0.961 1_545 S
C399 H415 0.960 . S
H400 C384 0.931 . S
H401 C389 0.929 . S
H402 C390 0.960 . S
H403 C390 0.962 . S
H404 C390 0.960 . S
H405 C391 0.961 . S
H406 C391 0.961 . S
H407 C391 0.961 . S
H408 C392 0.931 . S
H409 C397 0.930 . S
H410 C398 0.956 . S
H411 C398 0.961 . S
H412 C398 0.961 . S
H413 C399 0.958 1_565 S
H414 C399 0.961 1_565 S
H415 C399 0.960 . S
C416 C417 1.391 . S
C416 C418 1.394 . S
C416 H432 0.931 . S
C417 C416 1.391 . S
C417 C421 1.376 . S
C418 C416 1.394 . S
C418 C419 1.369 . S
C418 C422 1.531 . S
C419 C418 1.369 . S
C419 C420 1.410 . S
C419 C427 1.503 . S
C420 C419 1.410 . S
C420 C421 1.392 . S
C420 C423 1.511 . S
C421 C417 1.376 . S
C421 C420 1.392 . S
C421 H433 0.929 . S
C422 C418 1.531 . S
C422 H434 0.960 . S
C422 H435 0.962 . S
C422 H436 0.960 . S
C423 C420 1.511 . S
C423 H437 0.961 . S
C423 H438 0.961 . S
C423 H439 0.961 . S
C424 C425 1.370 . S
C424 C426 1.363 . S
C424 H440 0.931 . S
C425 C424 1.370 . S
C425 C429 1.408 . S
C426 C424 1.363 . S
C426 C427 1.370 . S
C426 C430 1.524 . S
C427 C419 1.503 . S
C427 C426 1.370 . S
C427 C428 1.403 . S
C428 C427 1.403 . S
C428 C429 1.404 . S
C428 C431 1.539 . S
C429 C425 1.408 . S
C429 C428 1.404 . S
C429 H441 0.930 . S
C430 C426 1.524 . S
C430 H442 0.956 . S
C430 H443 0.961 . S
C430 H444 0.961 . S
C431 C428 1.539 . S
C431 H445 0.958 . S
C431 H446 0.961 . S
C431 H447 0.960 . S
H432 C416 0.931 . S
H433 C421 0.929 . S
H434 C422 0.960 . S
H435 C422 0.962 . S
H436 C422 0.960 . S
H437 C423 0.961 . S
H438 C423 0.961 . S
H439 C423 0.961 . S
H440 C424 0.931 . S
H441 C429 0.930 . S
H442 C430 0.956 . S
H443 C430 0.961 . S
H444 C430 0.961 . S
H445 C431 0.958 . S
H446 C431 0.961 . S
H447 C431 0.960 . S
C448 C449 1.391 . S
C448 C450 1.394 . S
C448 H464 0.931 . S
C449 C448 1.391 . S
C449 C453 1.376 . S
C450 C448 1.394 . S
C450 C451 1.369 . S
C450 C454 1.531 . S
C451 C450 1.369 . S
C451 C452 1.410 . S
C451 C459 1.503 . S
C452 C451 1.410 . S
C452 C453 1.392 . S
C452 C455 1.511 . S
C453 C449 1.376 . S
C453 C452 1.392 . S
C453 H465 0.929 1_556 S
C454 C450 1.531 . S
C454 H466 0.960 . S
C454 H467 0.962 . S
C454 H468 0.960 . S
C455 C452 1.511 . S
C455 H469 0.961 1_556 S
C455 H470 0.961 . S
C455 H471 0.961 . S
C456 C457 1.370 . S
C456 C458 1.363 . S
C456 H472 0.931 . S
C457 C456 1.370 . S
C457 C461 1.408 . S
C458 C456 1.363 . S
C458 C459 1.370 1_455 S
C458 C462 1.524 1_455 S
C459 C451 1.503 . S
C459 C458 1.370 1_655 S
C459 C460 1.403 . S
C460 C459 1.403 . S
C460 C461 1.404 1_655 S
C460 C463 1.539 . S
C461 C457 1.408 . S
C461 C460 1.404 1_455 S
C461 H473 0.930 . S
C462 C458 1.524 1_655 S
C462 H474 0.956 . S
C462 H475 0.961 1_556 S
C462 H476 0.961 1_655 S
C463 C460 1.539 . S
C463 H477 0.958 . S
C463 H478 0.961 . S
C463 H479 0.960 . S
H464 C448 0.931 . S
H465 C453 0.929 1_554 S
H466 C454 0.960 . S
H467 C454 0.962 . S
H468 C454 0.960 . S
H469 C455 0.961 1_554 S
H470 C455 0.961 . S
H471 C455 0.961 . S
H472 C456 0.931 . S
H473 C461 0.930 . S
H474 C462 0.956 . S
H475 C462 0.961 1_554 S
H476 C462 0.961 1_455 S
H477 C463 0.958 . S
H478 C463 0.961 . S
H479 C463 0.960 . S
C480 C481 1.391 . S
C480 C482 1.394 . S
C480 H496 0.931 . S
C481 C480 1.391 . S
C481 C485 1.376 . S
C482 C480 1.394 . S
C482 C483 1.369 . S
C482 C486 1.531 1_554 S
C483 C482 1.369 . S
C483 C484 1.410 . S
C483 C491 1.503 1_554 S
C484 C483 1.410 . S
C484 C485 1.392 . S
C484 C487 1.511 . S
C485 C481 1.376 . S
C485 C484 1.392 . S
C485 H497 0.929 . S
C486 C482 1.531 1_556 S
C486 H498 0.960 . S
C486 H499 0.962 1_556 S
C486 H500 0.960 . S
C487 C484 1.511 . S
C487 H501 0.961 . S
C487 H502 0.961 . S
C487 H503 0.961 . S
C488 C489 1.370 1_554 S
C488 C490 1.363 . S
C488 H504 0.931 . S
C489 C488 1.370 1_556 S
C489 C493 1.408 . S
C490 C488 1.363 . S
C490 C491 1.370 1_544 S
C490 C494 1.524 1_545 S
C491 C483 1.503 1_556 S
C491 C490 1.370 1_566 S
C491 C492 1.403 . S
C492 C491 1.403 . S
C492 C493 1.404 1_565 S
C492 C495 1.539 . S
C493 C489 1.408 . S
C493 C492 1.404 1_545 S
C493 H505 0.930 . S
C494 C490 1.524 1_565 S
C494 H506 0.956 . S
C494 H507 0.961 . S
C494 H508 0.961 1_565 S
C495 C492 1.539 . S
C495 H509 0.958 . S
C495 H510 0.961 . S
C495 H511 0.960 . S
H496 C480 0.931 . S
H497 C485 0.929 . S
H498 C486 0.960 . S
H499 C486 0.962 1_554 S
H500 C486 0.960 . S
H501 C487 0.961 . S
H502 C487 0.961 . S
H503 C487 0.961 . S
H504 C488 0.931 . S
H505 C493 0.930 . S
H506 C494 0.956 . S
H507 C494 0.961 . S
H508 C494 0.961 1_545 S
H509 C495 0.958 . S
H510 C495 0.961 . S
H511 C495 0.960 . S
C512 C513 1.391 . S
C512 C514 1.394 . S
C512 H528 0.931 . S
C513 C512 1.391 . S
C513 C517 1.376 . S
C514 C512 1.394 . S
C514 C515 1.369 . S
C514 C518 1.531 . S
C515 C514 1.369 . S
C515 C516 1.410 . S
C515 C523 1.503 . S
C516 C515 1.410 . S
C516 C517 1.392 . S
C516 C519 1.511 . S
C517 C513 1.376 . S
C517 C516 1.392 . S
C517 H529 0.929 . S
C518 C514 1.531 . S
C518 H530 0.960 . S
C518 H531 0.962 . S
C518 H532 0.960 . S
C519 C516 1.511 . S
C519 H533 0.961 . S
C519 H534 0.961 . S
C519 H535 0.961 . S
C520 C521 1.370 . S
C520 C522 1.363 . S
C520 H536 0.931 . S
C521 C520 1.370 . S
C521 C525 1.408 . S
C522 C520 1.363 . S
C522 C523 1.370 . S
C522 C526 1.524 . S
C523 C515 1.503 . S
C523 C522 1.370 . S
C523 C524 1.403 . S
C524 C523 1.403 . S
C524 C525 1.404 . S
C524 C527 1.539 1_554 S
C525 C521 1.408 . S
C525 C524 1.404 . S
C525 H537 0.930 1_554 S
C526 C522 1.524 . S
C526 H538 0.956 . S
C526 H539 0.961 . S
C526 H540 0.961 . S
C527 C524 1.539 1_556 S
C527 H541 0.958 . S
C527 H542 0.961 . S
C527 H543 0.960 1_556 S
H528 C512 0.931 . S
H529 C517 0.929 . S
H530 C518 0.960 . S
H531 C518 0.962 . S
H532 C518 0.960 . S
H533 C519 0.961 . S
H534 C519 0.961 . S
H535 C519 0.961 . S
H536 C520 0.931 . S
H537 C525 0.930 1_556 S
H538 C526 0.956 . S
H539 C526 0.961 . S
H540 C526 0.961 . S
H541 C527 0.958 . S
H542 C527 0.961 . S
H543 C527 0.960 1_554 S
C544 C545 1.391 . S
C544 C546 1.394 . S
C544 H560 0.931 . S
C545 C544 1.391 . S
C545 C549 1.376 . S
C546 C544 1.394 . S
C546 C547 1.369 1_655 S
C546 C550 1.531 1_655 S
C547 C546 1.369 1_455 S
C547 C548 1.410 . S
C547 C555 1.503 . S
C548 C547 1.410 . S
C548 C549 1.392 1_455 S
C548 C551 1.511 . S
C549 C545 1.376 . S
C549 C548 1.392 1_655 S
C549 H561 0.929 . S
C550 C546 1.531 1_455 S
C550 H562 0.960 . S
C550 H563 0.962 . S
C550 H564 0.958 1_455 S
C551 C548 1.511 . S
C551 H565 0.961 . S
C551 H566 0.961 . S
C551 H567 0.961 . S
C552 C553 1.370 . S
C552 C554 1.363 . S
C552 H568 0.931 . S
C553 C552 1.370 . S
C553 C557 1.408 . S
C554 C552 1.363 . S
C554 C555 1.370 . S
C554 C558 1.524 . S
C555 C547 1.503 . S
C555 C554 1.370 . S
C555 C556 1.403 . S
C556 C555 1.403 . S
C556 C557 1.404 . S
C556 C559 1.539 . S
C557 C553 1.408 . S
C557 C556 1.404 . S
C557 H569 0.930 . S
C558 C554 1.524 . S
C558 H570 0.956 . S
C558 H571 0.961 . S
C558 H572 0.961 . S
C559 C556 1.539 . S
C559 H573 0.958 . S
C559 H574 0.961 . S
C559 H575 0.960 . S
H560 C544 0.931 . S
H561 C549 0.929 . S
H562 C550 0.960 . S
H563 C550 0.962 . S
H564 C550 0.958 1_655 S
H565 C551 0.961 . S
H566 C551 0.961 . S
H567 C551 0.961 . S
H568 C552 0.931 . S
H569 C557 0.930 . S
H570 C558 0.956 . S
H571 C558 0.961 . S
H572 C558 0.961 . S
H573 C559 0.958 . S
H574 C559 0.961 . S
H575 C559 0.960 . S
C576 C577 1.391 . S
C576 C578 1.394 . S
C576 H592 0.931 . S
C577 C576 1.391 . S
C577 C581 1.376 . S
C578 C576 1.394 . S
C578 C579 1.369 . S
C578 C582 1.531 . S
C579 C578 1.369 . S
C579 C580 1.410 . S
C579 C587 1.503 . S
C580 C579 1.410 . S
C580 C581 1.392 . S
C580 C583 1.511 . S
C581 C577 1.376 . S
C581 C580 1.392 . S
C581 H593 0.929 . S
C582 C578 1.531 . S
C582 H594 0.960 . S
C582 H595 0.962 . S
C582 H596 0.960 . S
C583 C580 1.511 . S
C583 H597 0.961 . S
C583 H598 0.961 . S
C583 H599 0.961 . S
C584 C585 1.370 . S
C584 C586 1.363 . S
C584 H600 0.931 . S
C585 C584 1.370 . S
C585 C589 1.408 . S
C586 C584 1.363 . S
C586 C587 1.370 . S
C586 C590 1.524 . S
C587 C579 1.503 . S
C587 C586 1.370 . S
C587 C588 1.403 . S
C588 C587 1.403 . S
C588 C589 1.404 . S
C588 C591 1.539 . S
C589 C585 1.408 . S
C589 C588 1.404 . S
C589 H601 0.930 . S
C590 C586 1.524 . S
C590 H602 0.956 . S
C590 H603 0.961 . S
C590 H604 0.961 . S
C591 C588 1.539 . S
C591 H605 0.958 . S
C591 H606 0.961 . S
C591 H607 0.960 . S
H592 C576 0.931 . S
H593 C581 0.929 . S
H594 C582 0.960 . S
H595 C582 0.962 . S
H596 C582 0.960 . S
H597 C583 0.961 . S
H598 C583 0.961 . S
H599 C583 0.961 . S
H600 C584 0.931 . S
H601 C589 0.930 . S
H602 C590 0.956 . S
H603 C590 0.961 . S
H604 C590 0.961 . S
H605 C591 0.958 . S
H606 C591 0.961 . S
H607 C591 0.960 . S
C608 C609 1.391 . S
C608 C610 1.394 . S
C608 H624 0.931 . S
C609 C608 1.391 . S
C609 C613 1.376 . S
C610 C608 1.394 . S
C610 C611 1.369 . S
C610 C614 1.531 . S
C611 C610 1.369 . S
C611 C612 1.410 . S
C611 C619 1.503 . S
C612 C611 1.410 . S
C612 C613 1.392 . S
C612 C615 1.511 . S
C613 C609 1.376 . S
C613 C612 1.392 . S
C613 H625 0.929 . S
C614 C610 1.531 . S
C614 H626 0.960 . S
C614 H627 0.962 . S
C614 H628 0.960 . S
C615 C612 1.511 . S
C615 H629 0.961 . S
C615 H630 0.961 . S
C615 H631 0.961 . S
C616 C617 1.370 . S
C616 C618 1.363 . S
C616 H632 0.931 . S
C617 C616 1.370 . S
C617 C621 1.408 . S
C618 C616 1.363 . S
C618 C619 1.370 . S
C618 C622 1.524 . S
C619 C611 1.503 . S
C619 C618 1.370 . S
C619 C620 1.403 . S
C620 C619 1.403 . S
C620 C621 1.404 . S
C620 C623 1.539 . S
C621 C617 1.408 . S
C621 C620 1.404 . S
C621 H633 0.930 . S
C622 C618 1.524 . S
C622 H634 0.956 . S
C622 H635 0.961 . S
C622 H636 0.961 . S
C623 C620 1.539 . S
C623 H637 0.958 . S
C623 H638 0.961 . S
C623 H639 0.960 . S
H624 C608 0.931 . S
H625 C613 0.929 . S
H626 C614 0.960 . S
H627 C614 0.962 . S
H628 C614 0.960 . S
H629 C615 0.961 . S
H630 C615 0.961 . S
H631 C615 0.961 . S
H632 C616 0.931 . S
H633 C621 0.930 . S
H634 C622 0.956 . S
H635 C622 0.961 . S
H636 C622 0.961 . S
H637 C623 0.958 . S
H638 C623 0.961 . S
H639 C623 0.960 . S
C640 C641 1.391 . S
C640 C642 1.394 . S
C640 H656 0.931 . S
C641 C640 1.391 . S
C641 C645 1.376 . S
C642 C640 1.394 . S
C642 C643 1.369 . S
C642 C646 1.531 . S
C643 C642 1.369 . S
C643 C644 1.410 . S
C643 C651 1.503 . S
C644 C643 1.410 . S
C644 C645 1.392 . S
C644 C647 1.511 . S
C645 C641 1.376 . S
C645 C644 1.392 . S
C645 H657 0.929 . S
C646 C642 1.531 . S
C646 H658 0.960 . S
C646 H659 0.962 . S
C646 H660 0.960 . S
C647 C644 1.511 . S
C647 H661 0.961 . S
C647 H662 0.961 . S
C647 H663 0.961 . S
C648 C649 1.370 . S
C648 C650 1.363 . S
C648 H664 0.931 . S
C649 C648 1.370 . S
C649 C653 1.408 . S
C650 C648 1.363 . S
C650 C651 1.370 . S
C650 C654 1.524 . S
C651 C643 1.503 . S
C651 C650 1.370 . S
C651 C652 1.403 . S
C652 C651 1.403 . S
C652 C653 1.404 . S
C652 C655 1.539 . S
C653 C649 1.408 . S
C653 C652 1.404 . S
C653 H665 0.930 . S
C654 C650 1.524 . S
C654 H666 0.956 . S
C654 H667 0.961 . S
C654 H668 0.961 . S
C655 C652 1.539 . S
C655 H669 0.958 . S
C655 H670 0.961 . S
C655 H671 0.960 . S
H656 C640 0.931 . S
H657 C645 0.929 . S
H658 C646 0.960 . S
H659 C646 0.962 . S
H660 C646 0.960 . S
H661 C647 0.961 . S
H662 C647 0.961 . S
H663 C647 0.961 . S
H664 C648 0.931 . S
H665 C653 0.930 . S
H666 C654 0.956 . S
H667 C654 0.961 . S
H668 C654 0.961 . S
H669 C655 0.958 . S
H670 C655 0.961 . S
H671 C655 0.960 . S
C672 C673 1.391 1_556 S
C672 C674 1.394 . S
C672 H688 0.931 . S
C673 C672 1.391 1_554 S
C673 C677 1.376 . S
C674 C672 1.394 . S
C674 C675 1.369 . S
C674 C678 1.531 . S
C675 C674 1.369 . S
C675 C676 1.410 1_556 S
C675 C683 1.503 . S
C676 C675 1.410 1_554 S
C676 C677 1.392 . S
C676 C679 1.511 . S
C677 C673 1.376 . S
C677 C676 1.392 . S
C677 H689 0.929 . S
C678 C674 1.531 . S
C678 H690 0.960 . S
C678 H691 0.962 . S
C678 H692 0.960 . S
C679 C676 1.511 . S
C679 H693 0.961 . S
C679 H694 0.961 . S
C679 H695 0.961 . S
C680 C681 1.370 . S
C680 C682 1.363 . S
C680 H696 0.931 . S
C681 C680 1.370 . S
C681 C685 1.408 . S
C682 C680 1.363 . S
C682 C683 1.370 . S
C682 C686 1.524 . S
C683 C675 1.503 . S
C683 C682 1.370 . S
C683 C684 1.403 . S
C684 C683 1.403 . S
C684 C685 1.404 . S
C684 C687 1.539 . S
C685 C681 1.408 . S
C685 C684 1.404 . S
C685 H697 0.930 . S
C686 C682 1.524 . S
C686 H698 0.956 . S
C686 H699 0.961 . S
C686 H700 0.961 . S
C687 C684 1.539 . S
C687 H701 0.958 . S
C687 H702 0.961 . S
C687 H703 0.960 . S
H688 C672 0.931 . S
H689 C677 0.929 . S
H690 C678 0.960 . S
H691 C678 0.962 . S
H692 C678 0.960 . S
H693 C679 0.961 . S
H694 C679 0.961 . S
H695 C679 0.961 . S
H696 C680 0.931 . S
H697 C685 0.930 . S
H698 C686 0.956 . S
H699 C686 0.961 . S
H700 C686 0.961 . S
H701 C687 0.958 . S
H702 C687 0.961 . S
H703 C687 0.960 . S
C704 C705 1.391 . S
C704 C706 1.394 . S
C704 H720 0.931 . S
C705 C704 1.391 . S
C705 C709 1.376 . S
C706 C704 1.394 . S
C706 C707 1.369 . S
C706 C710 1.531 . S
C707 C706 1.369 . S
C707 C708 1.410 . S
C707 C715 1.503 . S
C708 C707 1.410 . S
C708 C709 1.392 . S
C708 C711 1.511 1_554 S
C709 C705 1.376 . S
C709 C708 1.392 . S
C709 H721 0.929 . S
C710 C706 1.531 . S
C710 H722 0.960 . S
C710 H723 0.962 . S
C710 H724 0.960 . S
C711 C708 1.511 1_556 S
C711 H725 0.961 . S
C711 H726 0.961 . S
C711 H727 0.961 1_556 S
C712 C713 1.370 . S
C712 C714 1.363 . S
C712 H728 0.931 . S
C713 C712 1.370 . S
C713 C717 1.408 1_556 S
C714 C712 1.363 . S
C714 C715 1.370 1_556 S
C714 C718 1.524 . S
C715 C707 1.503 . S
C715 C714 1.370 1_554 S
C715 C716 1.403 . S
C716 C715 1.403 . S
C716 C717 1.404 . S
C716 C719 1.539 . S
C717 C713 1.408 1_554 S
C717 C716 1.404 . S
C717 H729 0.930 . S
C718 C714 1.524 . S
C718 H730 0.956 1_556 S
C718 H731 0.961 . S
C718 H732 0.961 . S
C719 C716 1.539 . S
C719 H733 0.958 . S
C719 H734 0.961 . S
C719 H735 0.960 . S
H720 C704 0.931 . S
H721 C709 0.929 . S
H722 C710 0.960 . S
H723 C710 0.962 . S
H724 C710 0.960 . S
H725 C711 0.961 . S
H726 C711 0.961 . S
H727 C711 0.961 1_554 S
H728 C712 0.931 . S
H729 C717 0.930 . S
H730 C718 0.956 1_554 S
H731 C718 0.961 . S
H732 C718 0.961 . S
H733 C719 0.958 . S
H734 C719 0.961 . S
H735 C719 0.960 . S
C736 C737 1.391 . S
C736 C738 1.394 . S
C736 H752 0.931 . S
C737 C736 1.391 . S
C737 C741 1.376 . S
C738 C736 1.394 . S
C738 C739 1.369 . S
C738 C742 1.531 . S
C739 C738 1.369 . S
C739 C740 1.410 . S
C739 C747 1.503 . S
C740 C739 1.410 . S
C740 C741 1.392 . S
C740 C743 1.511 . S
C741 C737 1.376 . S
C741 C740 1.392 . S
C741 H753 0.929 . S
C742 C738 1.531 . S
C742 H754 0.960 . S
C742 H755 0.962 . S
C742 H756 0.960 . S
C743 C740 1.511 . S
C743 H757 0.961 . S
C743 H758 0.961 . S
C743 H759 0.961 . S
C744 C745 1.370 . S
C744 C746 1.363 . S
C744 H760 0.931 . S
C745 C744 1.370 . S
C745 C749 1.408 . S
C746 C744 1.363 . S
C746 C747 1.370 . S
C746 C750 1.524 . S
C747 C739 1.503 . S
C747 C746 1.370 . S
C747 C748 1.403 . S
C748 C747 1.403 . S
C748 C749 1.404 . S
C748 C751 1.539 . S
C749 C745 1.408 . S
C749 C748 1.404 . S
C749 H761 0.930 . S
C750 C746 1.524 . S
C750 H762 0.956 . S
C750 H763 0.961 . S
C750 H764 0.961 . S
C751 C748 1.539 . S
C751 H765 0.958 . S
C751 H766 0.961 . S
C751 H767 0.960 . S
H752 C736 0.931 . S
H753 C741 0.929 . S
H754 C742 0.960 . S
H755 C742 0.962 . S
H756 C742 0.960 . S
H757 C743 0.961 . S
H758 C743 0.961 . S
H759 C743 0.961 . S
H760 C744 0.931 . S
H761 C749 0.930 . S
H762 C750 0.956 . S
H763 C750 0.961 . S
H764 C750 0.961 . S
H765 C751 0.958 . S
H766 C751 0.961 . S
H767 C751 0.960 . S
C193 C29 0.994 . S
C201 C2 1.025 . S
C225 C61 1.038 . S
C233 C34 1.013 . S
C257 C66 1.021 . S
C265 C93 1.013 . S
C289 C98 1.013 . S
C297 C125 1.018 . S
C321 C134 1.032 . S
C329 C132 1.006 1_556 S
C353 C189 1.006 . S
C361 C162 1.022 . S
C385 C4 1.535 . S
C393 N178 1.505 . S
C417 N18 1.521 . S
C425 C36 1.515 . S
C449 C68 1.474 . S
C457 N50 1.477 . S
C481 C100 1.472 . S
C489 N82 1.481 . S
C513 C157 1.474 . S
C521 N114 1.484 . S
C545 N141 1.474 . S
C553 C164 1.496 . S
C577 C6 1.866 . S
C585 N146 1.799 . S
C609 C38 1.889 . S
C617 N173 1.776 . S
C641 C70 1.885 . S
C649 N13 1.779 . S
C673 C102 1.892 . S
C681 N45 1.778 . S
C705 C130 1.884 . S
C713 N77 1.780 . S
C737 N109 1.815 . S
C745 C166 1.879 . S
