# Generated by pormake.
# Topology ukj, (4)-cn, num edge types: 1
# Building blocks:
#     Node 0, Type 0, BuildingBlock: NAWXER_clean_sbu_0, # of connection points: 4
#     Node 1, Type 0, BuildingBlock: NAWXER_clean_sbu_0, # of connection points: 4
#     Node 2, Type 0, BuildingBlock: NAWXER_clean_sbu_0, # of connection points: 4
#     Node 3, Type 0, BuildingBlock: NAWXER_clean_sbu_0, # of connection points: 4
#     Node 4, Type 0, BuildingBlock: NAWXER_clean_sbu_0, # of connection points: 4
#     Node 5, Type 0, BuildingBlock: NAWXER_clean_sbu_0, # of connection points: 4
#     Node 6, Type 0, BuildingBlock: NAWXER_clean_sbu_0, # of connection points: 4
#     Node 7, Type 0, BuildingBlock: NAWXER_clean_sbu_0, # of connection points: 4
#     Node 8, Type 0, BuildingBlock: NAWXER_clean_sbu_0, # of connection points: 4
#     Node 9, Type 0, BuildingBlock: NAWXER_clean_sbu_0, # of connection points: 4
#     Node 10, Type 0, BuildingBlock: NAWXER_clean_sbu_0, # of connection points: 4
#     Node 11, Type 0, BuildingBlock: NAWXER_clean_sbu_0, # of connection points: 4
#     Node 12, Type 0, BuildingBlock: NAWXER_clean_sbu_0, # of connection points: 4
#     Node 13, Type 0, BuildingBlock: NAWXER_clean_sbu_0, # of connection points: 4
#     Node 14, Type 0, BuildingBlock: NAWXER_clean_sbu_0, # of connection points: 4
#     Node 15, Type 0, BuildingBlock: NAWXER_clean_sbu_0, # of connection points: 4
#     Node 16, Type 0, BuildingBlock: NAWXER_clean_sbu_0, # of connection points: 4
#     Node 17, Type 0, BuildingBlock: NAWXER_clean_sbu_0, # of connection points: 4
#     Node 18, Type 0, BuildingBlock: NAWXER_clean_sbu_0, # of connection points: 4
#     Node 19, Type 0, BuildingBlock: NAWXER_clean_sbu_0, # of connection points: 4
#     Node 20, Type 0, BuildingBlock: NAWXER_clean_sbu_0, # of connection points: 4
#     Node 21, Type 0, BuildingBlock: NAWXER_clean_sbu_0, # of connection points: 4
#     Node 22, Type 0, BuildingBlock: NAWXER_clean_sbu_0, # of connection points: 4
#     Node 23, Type 0, BuildingBlock: NAWXER_clean_sbu_0, # of connection points: 4
#     Node 24, Type 0, BuildingBlock: NAWXER_clean_sbu_0, # of connection points: 4
#     Node 25, Type 0, BuildingBlock: NAWXER_clean_sbu_0, # of connection points: 4
#     Node 26, Type 0, BuildingBlock: NAWXER_clean_sbu_0, # of connection points: 4
#     Node 27, Type 0, BuildingBlock: NAWXER_clean_sbu_0, # of connection points: 4
#     Node 28, Type 0, BuildingBlock: NAWXER_clean_sbu_0, # of connection points: 4
#     Node 29, Type 0, BuildingBlock: NAWXER_clean_sbu_0, # of connection points: 4
#     Node 30, Type 0, BuildingBlock: NAWXER_clean_sbu_0, # of connection points: 4
#     Node 31, Type 0, BuildingBlock: NAWXER_clean_sbu_0, # of connection points: 4
#     Edge 32, Type (0, 0), BuildingBlock: XUDNAN_clean_linker_2, # of connection points: 2
#     Edge 33, Type (0, 0), BuildingBlock: XUDNAN_clean_linker_2, # of connection points: 2
#     Edge 34, Type (0, 0), BuildingBlock: XUDNAN_clean_linker_2, # of connection points: 2
#     Edge 35, Type (0, 0), BuildingBlock: XUDNAN_clean_linker_2, # of connection points: 2
#     Edge 36, Type (0, 0), BuildingBlock: XUDNAN_clean_linker_2, # of connection points: 2
#     Edge 37, Type (0, 0), BuildingBlock: XUDNAN_clean_linker_2, # of connection points: 2
#     Edge 38, Type (0, 0), BuildingBlock: XUDNAN_clean_linker_2, # of connection points: 2
#     Edge 39, Type (0, 0), BuildingBlock: XUDNAN_clean_linker_2, # of connection points: 2
#     Edge 40, Type (0, 0), BuildingBlock: XUDNAN_clean_linker_2, # of connection points: 2
#     Edge 41, Type (0, 0), BuildingBlock: XUDNAN_clean_linker_2, # of connection points: 2
#     Edge 42, Type (0, 0), BuildingBlock: XUDNAN_clean_linker_2, # of connection points: 2
#     Edge 43, Type (0, 0), BuildingBlock: XUDNAN_clean_linker_2, # of connection points: 2
#     Edge 44, Type (0, 0), BuildingBlock: XUDNAN_clean_linker_2, # of connection points: 2
#     Edge 45, Type (0, 0), BuildingBlock: XUDNAN_clean_linker_2, # of connection points: 2
#     Edge 46, Type (0, 0), BuildingBlock: XUDNAN_clean_linker_2, # of connection points: 2
#     Edge 47, Type (0, 0), BuildingBlock: XUDNAN_clean_linker_2, # of connection points: 2
#     Edge 48, Type (0, 0), BuildingBlock: XUDNAN_clean_linker_2, # of connection points: 2
#     Edge 49, Type (0, 0), BuildingBlock: XUDNAN_clean_linker_2, # of connection points: 2
#     Edge 50, Type (0, 0), BuildingBlock: XUDNAN_clean_linker_2, # of connection points: 2
#     Edge 51, Type (0, 0), BuildingBlock: XUDNAN_clean_linker_2, # of connection points: 2
#     Edge 52, Type (0, 0), BuildingBlock: XUDNAN_clean_linker_2, # of connection points: 2
#     Edge 53, Type (0, 0), BuildingBlock: XUDNAN_clean_linker_2, # of connection points: 2
#     Edge 54, Type (0, 0), BuildingBlock: XUDNAN_clean_linker_2, # of connection points: 2
#     Edge 55, Type (0, 0), BuildingBlock: XUDNAN_clean_linker_2, # of connection points: 2
#     Edge 56, Type (0, 0), BuildingBlock: XUDNAN_clean_linker_2, # of connection points: 2
#     Edge 57, Type (0, 0), BuildingBlock: XUDNAN_clean_linker_2, # of connection points: 2
#     Edge 58, Type (0, 0), BuildingBlock: XUDNAN_clean_linker_2, # of connection points: 2
#     Edge 59, Type (0, 0), BuildingBlock: XUDNAN_clean_linker_2, # of connection points: 2
#     Edge 60, Type (0, 0), BuildingBlock: XUDNAN_clean_linker_2, # of connection points: 2
#     Edge 61, Type (0, 0), BuildingBlock: XUDNAN_clean_linker_2, # of connection points: 2
#     Edge 62, Type (0, 0), BuildingBlock: XUDNAN_clean_linker_2, # of connection points: 2
#     Edge 63, Type (0, 0), BuildingBlock: XUDNAN_clean_linker_2, # of connection points: 2
#     Edge 64, Type (0, 0), BuildingBlock: XUDNAN_clean_linker_2, # of connection points: 2
#     Edge 65, Type (0, 0), BuildingBlock: XUDNAN_clean_linker_2, # of connection points: 2
#     Edge 66, Type (0, 0), BuildingBlock: XUDNAN_clean_linker_2, # of connection points: 2
#     Edge 67, Type (0, 0), BuildingBlock: XUDNAN_clean_linker_2, # of connection points: 2
#     Edge 68, Type (0, 0), BuildingBlock: XUDNAN_clean_linker_2, # of connection points: 2
#     Edge 69, Type (0, 0), BuildingBlock: XUDNAN_clean_linker_2, # of connection points: 2
#     Edge 70, Type (0, 0), BuildingBlock: XUDNAN_clean_linker_2, # of connection points: 2
#     Edge 71, Type (0, 0), BuildingBlock: XUDNAN_clean_linker_2, # of connection points: 2
#     Edge 72, Type (0, 0), BuildingBlock: XUDNAN_clean_linker_2, # of connection points: 2
#     Edge 73, Type (0, 0), BuildingBlock: XUDNAN_clean_linker_2, # of connection points: 2
#     Edge 74, Type (0, 0), BuildingBlock: XUDNAN_clean_linker_2, # of connection points: 2
#     Edge 75, Type (0, 0), BuildingBlock: XUDNAN_clean_linker_2, # of connection points: 2
#     Edge 76, Type (0, 0), BuildingBlock: XUDNAN_clean_linker_2, # of connection points: 2
#     Edge 77, Type (0, 0), BuildingBlock: XUDNAN_clean_linker_2, # of connection points: 2
#     Edge 78, Type (0, 0), BuildingBlock: XUDNAN_clean_linker_2, # of connection points: 2
#     Edge 79, Type (0, 0), BuildingBlock: XUDNAN_clean_linker_2, # of connection points: 2
#     Edge 80, Type (0, 0), BuildingBlock: XUDNAN_clean_linker_2, # of connection points: 2
#     Edge 81, Type (0, 0), BuildingBlock: XUDNAN_clean_linker_2, # of connection points: 2
#     Edge 82, Type (0, 0), BuildingBlock: XUDNAN_clean_linker_2, # of connection points: 2
#     Edge 83, Type (0, 0), BuildingBlock: XUDNAN_clean_linker_2, # of connection points: 2
#     Edge 84, Type (0, 0), BuildingBlock: XUDNAN_clean_linker_2, # of connection points: 2
#     Edge 85, Type (0, 0), BuildingBlock: XUDNAN_clean_linker_2, # of connection points: 2
#     Edge 86, Type (0, 0), BuildingBlock: XUDNAN_clean_linker_2, # of connection points: 2
#     Edge 87, Type (0, 0), BuildingBlock: XUDNAN_clean_linker_2, # of connection points: 2
#     Edge 88, Type (0, 0), BuildingBlock: XUDNAN_clean_linker_2, # of connection points: 2
#     Edge 89, Type (0, 0), BuildingBlock: XUDNAN_clean_linker_2, # of connection points: 2
#     Edge 90, Type (0, 0), BuildingBlock: XUDNAN_clean_linker_2, # of connection points: 2
#     Edge 91, Type (0, 0), BuildingBlock: XUDNAN_clean_linker_2, # of connection points: 2
#     Edge 92, Type (0, 0), BuildingBlock: XUDNAN_clean_linker_2, # of connection points: 2
#     Edge 93, Type (0, 0), BuildingBlock: XUDNAN_clean_linker_2, # of connection points: 2
#     Edge 94, Type (0, 0), BuildingBlock: XUDNAN_clean_linker_2, # of connection points: 2
#     Edge 95, Type (0, 0), BuildingBlock: XUDNAN_clean_linker_2, # of connection points: 2
# Relax obj value: 0.006
# Max RMSD: 0.183
# Mean RMSD: 0.183
data_MOF--net-ukj--node1-NAWXER_clean_sbu_0--edge1-XUDNAN_clean_linker_2
_symmetry_space_group_name_H-M    P1
_symmetry_Int_Tables_number       1
_symmetry_cell_setting            triclinic
loop_
_symmetry_equiv_pos_as_xyz
'x, y, z'
_cell_length_a     34.331817
_cell_length_b     54.357792
_cell_length_c     57.852841
_cell_angle_alpha  90.002883
_cell_angle_beta   89.942852
_cell_angle_gamma 89.950986
loop_
_atom_site_label
_atom_site_type_symbol
_atom_site_fract_x
_atom_site_fract_y
_atom_site_fract_z
_atom_type_partial_charge
C0 C 0.14812 0.36999 0.30441 0.0
C1 C 0.13493 0.36613 0.22188 0.0
O2 O 0.1682 0.35181 0.29666 0.0
Zn3 Zn 0.17732 0.33549 0.26258 0.0
O4 O 0.1266 0.3821 0.29077 0.0
Zn5 Zn 0.13976 0.36532 0.26325 0.0
O6 O 0.11022 0.3303 0.26532 0.0
O7 O 0.15713 0.30274 0.26499 0.0
O8 O 0.11856 0.37995 0.2366 0.0
O9 O 0.15715 0.34853 0.22875 0.0
O10 O 0.23321 0.33857 0.25943 0.0
O11 O 0.20143 0.37386 0.25939 0.0
C12 C 0.12106 0.30771 0.2658 0.0
C13 C 0.23369 0.36191 0.25825 0.0
C14 C 0.11647 0.90033 0.30091 0.0
C15 C 0.10799 0.90647 0.21683 0.0
O16 O 0.09698 0.91899 0.29389 0.0
Zn17 Zn 0.07605 0.93433 0.26233 0.0
O18 O 0.12921 0.88466 0.28643 0.0
Zn19 Zn 0.11003 0.9011 0.25876 0.0
O20 O 0.14183 0.9352 0.25827 0.0
O21 O 0.10155 0.96662 0.26307 0.0
O22 O 0.12263 0.88858 0.22806 0.0
O23 O 0.09003 0.92367 0.22765 0.0
O24 O 0.0191 0.93072 0.2641 0.0
O25 O 0.04934 0.89516 0.26095 0.0
C26 C 0.13594 0.95847 0.25974 0.0
C27 C 0.01765 0.90737 0.26293 0.0
C28 C 0.15997 0.88137 0.96822 0.0
C29 C 0.16026 0.90377 0.04961 0.0
O30 O 0.17587 0.90246 0.97127 0.0
Zn31 Zn 0.18912 0.92543 1.00057 0.0
O32 O 0.14751 0.86945 0.98555 0.0
Zn33 Zn 0.16145 0.89287 0.00905 0.0
O34 O 0.12263 0.92495 1.00315 0.0
O35 O 0.16274 0.95494 0.99367 0.0
O36 O 0.14857 0.8839 0.0404 0.0
O37 O 0.17563 0.92052 0.0369 0.0
O38 O 0.2441 0.92843 1.00039 0.0
O39 O 0.22526 0.89099 0.00964 0.0
C40 C 0.12829 0.94759 0.99741 0.0
C41 C 0.25269 0.90661 1.00607 0.0
C42 C 0.16529 0.32751 0.00847 0.0
C43 C 0.03524 0.36627 1.00768 0.0
O44 O 0.16594 0.351 0.01028 0.0
Zn45 Zn 0.12571 0.381 0.0114 0.0
O46 O 0.13266 0.3166 1.00654 0.0
Zn47 Zn 0.0996 0.34597 0.00801 0.0
O48 O 0.11283 0.36495 0.97575 0.0
O49 O 0.13959 0.40042 0.98549 0.0
O50 O 0.04228 0.34329 1.00662 0.0
O51 O 0.06374 0.38132 0.00946 0.0
O52 O 0.13486 0.39556 0.04064 0.0
O53 O 0.10889 0.35848 0.04325 0.0
C54 C 0.12774 0.38576 0.96997 0.0
C55 C 0.12234 0.37796 0.05294 0.0
C56 C 0.87783 0.6405 0.79947 0.0
C57 C 0.86723 0.61798 0.71782 0.0
O58 O 0.88785 0.62009 0.79048 0.0
Zn59 Zn 0.87124 0.62772 0.7591 0.0
O60 O 0.86086 0.65681 0.78704 0.0
Zn61 Zn 0.84232 0.66203 0.75208 0.0
O62 O 0.78518 0.66293 0.75419 0.0
O63 O 0.80978 0.62639 0.76172 0.0
O64 O 0.85251 0.63911 0.72243 0.0
O65 O 0.88113 0.60489 0.73408 0.0
O66 O 0.90838 0.65798 0.75034 0.0
O67 O 0.87271 0.69127 0.74441 0.0
C68 C 0.7801 0.64044 0.7595 0.0
C69 C 0.90599 0.68092 0.74535 0.0
C70 C 0.86586 0.06066 0.74126 0.0
C71 C 0.98662 0.10639 0.75546 0.0
O72 O 0.90009 0.05163 0.74144 0.0
Zn73 Zn 0.92672 0.08226 0.74898 0.0
O74 O 0.86067 0.08353 0.74581 0.0
Zn75 Zn 0.89439 0.11532 0.75509 0.0
O76 O 0.88282 0.1377 0.73014 0.0
O77 O 0.9151 0.10459 0.71882 0.0
O78 O 0.95569 0.11939 0.75732 0.0
O79 O 0.98365 0.0835 0.75125 0.0
O80 O 0.9073 0.08737 0.7838 0.0
O81 O 0.87663 0.12297 0.78617 0.0
C82 C 0.89853 0.12517 0.71406 0.0
C83 C 0.88862 0.10335 0.79576 0.0
C84 C 0.85346 0.11304 0.04562 0.0
C85 C 0.84332 0.09488 0.96337 0.0
O86 O 0.8604 0.12688 0.02843 0.0
Zn87 Zn 0.8472 0.10405 1.00438 0.0
O88 O 0.84163 0.09095 0.04213 0.0
Zn89 Zn 0.82826 0.06817 0.01254 0.0
O90 O 0.86471 0.04102 0.01564 0.0
O91 O 0.89236 0.07629 1.00637 0.0
O92 O 0.83377 0.07645 0.97605 0.0
O93 O 0.85244 0.11515 0.97287 0.0
O94 O 0.78518 0.10045 0.008 0.0
O95 O 0.7731 0.0616 0.01601 0.0
C96 C 0.89519 0.05315 0.01055 0.0
C97 C 0.76068 0.08328 0.01239 0.0
C98 C 0.92401 0.65673 0.96643 0.0
C99 C 0.91427 0.64273 0.04942 0.0
O100 O 0.91077 0.63802 0.97699 0.0
Zn101 Zn 0.91916 0.65062 1.00767 0.0
O102 O 0.93763 0.67488 0.97813 0.0
Zn103 Zn 0.94533 0.68396 0.01456 0.0
O104 O 0.99992 0.68795 0.01705 0.0
O105 O 0.98316 0.64966 0.00974 0.0
O106 O 0.93048 0.66351 0.04527 0.0
O107 O 0.90261 0.62972 0.03263 0.0
O108 O 0.87922 0.68254 1.00798 0.0
O109 O 0.91719 0.71365 0.01718 0.0
C110 C 1.00979 0.66583 0.01341 0.0
C111 C 0.8838 0.70571 0.01168 0.0
C112 C 0.13244 0.7909 0.75395 0.0
C113 C 0.24397 0.84652 0.75653 0.0
O114 O 0.12177 0.81332 0.75708 0.0
Zn115 Zn 0.15052 0.8487 0.76062 0.0
O116 O 0.16852 0.78581 0.75276 0.0
Zn117 Zn 0.18805 0.8186 0.75603 0.0
O118 O 0.17434 0.82719 0.79165 0.0
O119 O 0.13629 0.85993 0.79092 0.0
O120 O 0.24409 0.82328 0.75436 0.0
O121 O 0.21138 0.85779 0.75889 0.0
O122 O 0.12981 0.86676 0.73502 0.0
O123 O 0.16682 0.83547 0.72447 0.0
C124 C 0.15452 0.84369 0.80236 0.0
C125 C 0.14479 0.8537 0.71912 0.0
C126 C 0.12198 0.39691 0.71917 0.0
C127 C 0.11276 0.40765 0.80207 0.0
O128 O 0.10005 0.4152 0.7245 0.0
Zn129 Zn 0.07831 0.43211 0.75575 0.0
O130 O 0.13714 0.38388 0.73499 0.0
Zn131 Zn 0.11625 0.40189 0.76061 0.0
O132 O 0.05592 0.3926 0.75893 0.0
O133 O 0.02211 0.42666 0.75433 0.0
O134 O 0.13038 0.39086 0.79096 0.0
O135 O 0.09286 0.42392 0.79116 0.0
O136 O 0.09798 0.46516 0.75281 0.0
O137 O 0.14433 0.4375 0.75789 0.0
C138 C 0.02301 0.40342 0.75654 0.0
C139 C 0.13394 0.46001 0.75498 0.0
C140 C 0.17236 0.39521 0.55259 0.0
C141 C 0.18658 0.40206 0.4696 0.0
O142 O 0.18835 0.41564 0.5469 0.0
Zn143 Zn 0.20771 0.43269 0.51532 0.0
O144 O 0.16399 0.37958 0.5371 0.0
Zn145 Zn 0.18177 0.39862 0.5112 0.0
O146 O 0.24496 0.3973 0.51522 0.0
O147 O 0.26217 0.43604 0.51925 0.0
O148 O 0.17402 0.38405 0.48136 0.0
O149 O 0.19982 0.42119 0.47994 0.0
O150 O 0.18066 0.46271 0.51582 0.0
O151 O 0.14188 0.43082 0.51082 0.0
C152 C 0.27157 0.41354 0.51838 0.0
C153 C 0.14666 0.45425 0.5128 0.0
C154 C 0.12092 0.8687 0.46767 0.0
C155 C 0.11194 0.86109 0.55074 0.0
O156 O 0.10995 0.84679 0.47292 0.0
Zn157 Zn 0.09829 0.82741 0.50538 0.0
O158 O 0.12705 0.88407 0.4837 0.0
Zn159 Zn 0.11532 0.86363 0.50921 0.0
O160 O 0.16262 0.83678 0.50919 0.0
O161 O 0.13458 0.80067 0.50456 0.0
O162 O 0.12041 0.87946 0.53824 0.0
O163 O 0.10347 0.84043 0.54116 0.0
O164 O 0.04437 0.81845 0.50299 0.0
O165 O 0.05281 0.85835 0.50687 0.0
C166 C 0.16532 0.81328 0.50723 0.0
C167 C 0.02991 0.83986 0.5046 0.0
C168 C 0.859 0.14524 0.21276 0.0
C169 C 0.86271 0.13602 0.29657 0.0
O170 O 0.8713 0.12697 0.22434 0.0
Zn171 Zn 0.85997 0.13993 0.25465 0.0
O172 O 0.84448 0.1639 0.22333 0.0
Zn173 Zn 0.83268 0.1751 0.25847 0.0
O174 O 0.86452 0.2048 0.26095 0.0
O175 O 0.89884 0.17061 0.2576 0.0
O176 O 0.84765 0.15658 0.29028 0.0
O177 O 0.87312 0.12045 0.28138 0.0
O178 O 0.79834 0.13916 0.25526 0.0
O179 O 0.7752 0.17664 0.25961 0.0
C180 C 0.89748 0.19406 0.25997 0.0
C181 C 0.76917 0.15369 0.25716 0.0
C182 C 0.92529 0.60668 0.21608 0.0
C183 C 0.92156 0.61248 0.3003 0.0
O184 O 0.91978 0.62573 0.22838 0.0
Zn185 Zn 0.92634 0.61012 0.25819 0.0
O186 O 0.93331 0.58613 0.22593 0.0
Zn187 Zn 0.94101 0.5725 0.2607 0.0
O188 O 0.90223 0.54684 0.26171 0.0
O189 O 0.87794 0.58442 0.25943 0.0
O190 O 0.93041 0.59076 0.29332 0.0
O191 O 0.91748 0.62965 0.2856 0.0
O192 O 0.98782 0.6031 0.25936 0.0
O193 O 0.99525 0.56298 0.26202 0.0
C194 C 0.87281 0.56103 0.2608 0.0
C195 C 1.01024 0.58429 0.26081 0.0
C196 C 0.90306 0.55003 0.50367 0.0
C197 C 0.76725 0.5776 0.50164 0.0
O198 O 0.87307 0.5367 0.50057 0.0
Zn199 Zn 0.83554 0.56335 0.50236 0.0
O200 O 0.89902 0.57334 0.50651 0.0
Zn201 Zn 0.85265 0.60026 0.50804 0.0
O202 O 0.85813 0.61305 0.53903 0.0
O203 O 0.84166 0.57383 0.5382 0.0
O204 O 0.79107 0.59538 0.50495 0.0
O205 O 0.78051 0.55594 0.4992 0.0
O206 O 0.84966 0.58395 0.47149 0.0
O207 O 0.86501 0.6216 0.4824 0.0
C208 C 0.85051 0.59321 0.54973 0.0
C209 C 0.86055 0.60588 0.46636 0.0
C210 C 0.01157 0.15474 0.49818 0.0
C211 C 0.89266 0.20249 0.49812 0.0
O212 O 1.00546 0.17764 0.49671 0.0
Zn213 Zn 0.95053 0.17766 0.49976 0.0
O214 O 0.98263 0.14021 0.50158 0.0
Zn215 Zn 0.9197 0.14553 0.50496 0.0
O216 O 0.90043 0.12574 0.4798 0.0
O217 O 0.93051 0.15955 0.46859 0.0
O218 O 0.88442 0.17965 0.5016 0.0
O219 O 0.92801 0.20893 0.49634 0.0
O220 O 0.93876 0.16954 0.53563 0.0
O221 O 0.90829 0.1339 0.53567 0.0
C222 C 0.91184 0.13981 0.46364 0.0
C223 C 0.92234 0.15195 0.54675 0.0
C224 C 0.67378 0.33597 0.80309 0.0
C225 C 0.66688 0.34577 0.71914 0.0
O226 O 0.68877 0.31747 0.7925 0.0
Zn227 Zn 0.69909 0.30707 0.75671 0.0
O228 O 0.66014 0.35371 0.79135 0.0
Zn229 Zn 0.67117 0.34042 0.76104 0.0
O230 O 0.63268 0.30796 0.75867 0.0
O231 O 0.67293 0.27668 0.7544 0.0
O232 O 0.6556 0.36019 0.73506 0.0
O233 O 0.68324 0.32534 0.7246 0.0
O234 O 0.75413 0.30442 0.75488 0.0
O235 O 0.73475 0.34271 0.75931 0.0
C236 C 0.63839 0.28469 0.75614 0.0
C237 C 0.76247 0.32701 0.75691 0.0
C238 C 0.60132 0.89375 0.71397 0.0
C239 C 0.60173 0.90703 0.79718 0.0
O240 O 0.58678 0.91478 0.71926 0.0
Zn241 Zn 0.5737 0.93455 0.75097 0.0
O242 O 0.61187 0.87917 0.72992 0.0
Zn243 Zn 0.59968 0.90061 0.7554 0.0
O244 O 0.53594 0.89987 0.75549 0.0
O245 O 0.51876 0.93848 0.7506 0.0
O246 O 0.61276 0.88843 0.78567 0.0
O247 O 0.58707 0.92556 0.78653 0.0
O248 O 0.60112 0.96402 0.74615 0.0
O249 O 0.64005 0.93192 0.74971 0.0
C250 C 0.5091 0.91623 0.75346 0.0
C251 C 0.63526 0.95513 0.74614 0.0
C252 C 0.65679 0.88453 0.54771 0.0
C253 C 0.66443 0.89439 0.46407 0.0
O254 O 0.67703 0.90335 0.54184 0.0
Zn255 Zn 0.69753 0.91991 0.51025 0.0
O256 O 0.6437 0.87022 0.5322 0.0
Zn257 Zn 0.66274 0.88843 0.50582 0.0
O258 O 0.72436 0.88129 0.50661 0.0
O259 O 0.75364 0.91689 0.51156 0.0
O260 O 0.64852 0.87705 0.47537 0.0
O261 O 0.68318 0.91123 0.47489 0.0
O262 O 0.67595 0.95212 0.51306 0.0
O263 O 0.63134 0.92325 0.50861 0.0
C264 C 0.75583 0.89377 0.50886 0.0
C265 C 0.64033 0.94601 0.51139 0.0
C266 C 0.63921 0.36341 0.55026 0.0
C267 C 0.62377 0.37559 0.46722 0.0
O268 O 0.62203 0.34486 0.54097 0.0
Zn269 Zn 0.60408 0.3343 0.50591 0.0
O270 O 0.65055 0.38103 0.53753 0.0
Zn271 Zn 0.6325 0.36847 0.50864 0.0
O272 O 0.57101 0.36951 0.51361 0.0
O273 O 0.54737 0.3321 0.5092 0.0
O274 O 0.63954 0.38917 0.48239 0.0
O275 O 0.6098 0.3546 0.47328 0.0
O276 O 0.63417 0.30436 0.50068 0.0
O277 O 0.67007 0.33794 0.50211 0.0
C278 C 0.54191 0.35479 0.51347 0.0
C279 C 0.6674 0.31458 0.49957 0.0
C280 C 0.37679 0.63905 0.29727 0.0
C281 C 0.376 0.63026 0.21475 0.0
O282 O 0.3941 0.6238 0.28429 0.0
Zn283 Zn 0.37694 0.63682 0.25596 0.0
O284 O 0.35591 0.65626 0.28838 0.0
Zn285 Zn 0.33974 0.6666 0.25308 0.0
O286 O 0.28392 0.6633 0.25376 0.0
O287 O 0.3151 0.62803 0.25698 0.0
O288 O 0.35476 0.64877 0.22046 0.0
O289 O 0.39473 0.61872 0.23014 0.0
O290 O 0.40626 0.67224 0.25406 0.0
O291 O 0.35915 0.69939 0.25012 0.0
C292 C 0.28294 0.64008 0.25598 0.0
C293 C 0.3952 0.6947 0.25188 0.0
C294 C 0.36345 0.06736 0.2585 0.0
C295 C 0.4934 0.10168 0.26022 0.0
O296 O 0.39676 0.05739 0.25796 0.0
Zn297 Zn 0.42712 0.08604 0.26081 0.0
O298 O 0.36079 0.09082 0.26118 0.0
Zn299 Zn 0.40444 0.12061 0.26437 0.0
O300 O 0.39167 0.14133 0.23918 0.0
O301 O 0.41495 0.10534 0.22836 0.0
O302 O 0.46853 0.11924 0.26235 0.0
O303 O 0.48116 0.07976 0.25902 0.0
O304 O 0.41832 0.09769 0.2965 0.0
O305 O 0.39491 0.13529 0.29357 0.0
C306 C 0.40129 0.12665 0.22314 0.0
C307 C 0.40601 0.11754 0.3061 0.0
C308 C 0.35256 0.0974 0.55686 0.0
C309 C 0.37517 0.1072 0.47436 0.0
O310 O 0.36509 0.11621 0.54618 0.0
Zn311 Zn 0.36282 0.10295 0.51543 0.0
O312 O 0.34233 0.07828 0.54539 0.0
Zn313 Zn 0.33948 0.06703 0.50981 0.0
O314 O 0.37413 0.03844 0.50972 0.0
O315 O 0.4042 0.07365 0.51611 0.0
O316 O 0.3597 0.08633 0.47927 0.0
O317 O 0.38204 0.12257 0.49042 0.0
O318 O 0.30257 0.10215 0.5077 0.0
O319 O 0.28313 0.06367 0.50418 0.0
C320 C 0.40547 0.05023 0.51369 0.0
C321 C 0.27547 0.08657 0.50381 0.0
C322 C 0.40859 0.63886 0.54843 0.0
C323 C 0.40393 0.64366 0.46572 0.0
O324 O 0.38877 0.62694 0.5338 0.0
Zn325 Zn 0.40624 0.64325 0.50708 0.0
O326 O 0.43067 0.65652 0.54159 0.0
Zn327 Zn 0.44527 0.67231 0.50793 0.0
O328 O 0.4274 0.70581 0.51 0.0
O329 O 0.37921 0.67915 0.5088 0.0
O330 O 0.42647 0.66066 0.47342 0.0
O331 O 0.38633 0.62962 0.47972 0.0
O332 O 0.46714 0.63283 0.50528 0.0
O333 O 0.50096 0.66722 0.5065 0.0
C334 C 0.39108 0.70151 0.50983 0.0
C335 C 0.50015 0.64389 0.50522 0.0
C336 C 0.65893 0.86878 0.29623 0.0
C337 C 0.66564 0.84998 0.21384 0.0
O338 O 0.67103 0.84683 0.29238 0.0
Zn339 Zn 0.68395 0.82425 0.26281 0.0
O340 O 0.65111 0.88281 0.27929 0.0
Zn341 Zn 0.66368 0.85993 0.25491 0.0
O342 O 0.61919 0.83169 0.25838 0.0
O343 O 0.64904 0.79683 0.26679 0.0
O344 O 0.65659 0.87038 0.22315 0.0
O345 O 0.67632 0.83193 0.22663 0.0
O346 O 0.73902 0.81825 0.2656 0.0
O347 O 0.72609 0.85706 0.25782 0.0
C348 C 0.6177 0.80851 0.26271 0.0
C349 C 0.75097 0.84002 0.26199 0.0
C350 C 0.59021 0.4124 0.30113 0.0
C351 C 0.59973 0.4169 0.2164 0.0
O352 O 0.57588 0.43221 0.29262 0.0
Zn353 Zn 0.56476 0.44765 0.25917 0.0
O354 O 0.60185 0.39555 0.28754 0.0
Zn355 Zn 0.59119 0.4131 0.25854 0.0
O356 O 0.63057 0.44546 0.26121 0.0
O357 O 0.59147 0.47775 0.26161 0.0
O358 O 0.60809 0.39852 0.22906 0.0
O359 O 0.5835 0.43577 0.22559 0.0
O360 O 0.51005 0.45102 0.25702 0.0
O361 O 0.52752 0.41212 0.25622 0.0
C362 C 0.62571 0.46897 0.26215 0.0
C363 C 0.5006 0.42858 0.25577 0.0
C364 C 0.66784 0.40034 0.05108 0.0
C365 C 0.67036 0.3745 0.96962 0.0
O366 O 0.67754 0.41756 0.03704 0.0
Zn367 Zn 0.68722 0.42249 1.00057 0.0
O368 O 0.66205 0.37881 0.04321 0.0
Zn369 Zn 0.67103 0.38682 0.01059 0.0
O370 O 0.73365 0.39267 0.00893 0.0
O371 O 0.74101 0.43135 0.99863 0.0
O372 O 0.66328 0.36148 0.98739 0.0
O373 O 0.67933 0.39724 0.97221 0.0
O374 O 0.65007 0.44787 0.99387 0.0
O375 O 0.62318 0.41251 1.00371 0.0
C376 C 0.75609 0.41084 1.00405 0.0
C377 C 0.61968 0.43522 0.99775 0.0
C378 C 0.62025 0.8527 0.04598 0.0
C379 C 0.61324 0.87417 0.96421 0.0
O380 O 0.60422 0.83587 0.03368 0.0
Zn381 Zn 0.58811 0.82968 0.99808 0.0
O382 O 0.63097 0.8727 0.03653 0.0
Zn383 Zn 0.61594 0.86402 1.00539 0.0
O384 O 0.55441 0.86462 1.00772 0.0
O385 O 0.53074 0.82804 0.99946 0.0
O386 O 0.62617 0.88699 0.98088 0.0
O387 O 0.59888 0.85278 0.96826 0.0
O388 O 0.61957 0.80036 0.99153 0.0
O389 O 0.65415 0.83393 0.9979 0.0
C390 C 0.52509 0.85035 1.00525 0.0
C391 C 0.65258 0.81088 0.99322 0.0
C392 C 0.25879 0.1635 0.75768 0.0
C393 C 0.39529 0.18838 0.7539 0.0
O394 O 0.27288 0.18457 0.75324 0.0
Zn395 Zn 0.32723 0.17616 0.75561 0.0
O396 O 0.28185 0.14555 0.76211 0.0
Zn397 Zn 0.34366 0.13983 0.76464 0.0
O398 O 0.35065 0.13055 0.79672 0.0
O399 O 0.33477 0.16953 0.7918 0.0
O400 O 0.391 0.16555 0.75907 0.0
O401 O 0.3654 0.20165 0.7503 0.0
O402 O 0.33654 0.15165 0.72693 0.0
O403 O 0.35262 0.11536 0.74121 0.0
C404 C 0.34375 0.15165 0.80524 0.0
C405 C 0.34596 0.12903 0.72384 0.0
C406 C 0.41335 0.61695 0.79914 0.0
C407 C 0.42207 0.61047 0.71568 0.0
O408 O 0.40918 0.63406 0.7844 0.0
Zn409 Zn 0.42005 0.61437 0.75739 0.0
O410 O 0.4231 0.59533 0.79243 0.0
Zn411 Zn 0.43589 0.57699 0.76064 0.0
O412 O 0.49001 0.56826 0.76336 0.0
O413 O 0.48186 0.60826 0.75991 0.0
O414 O 0.43006 0.59018 0.72593 0.0
O415 O 0.41522 0.62971 0.72747 0.0
O416 O 0.37212 0.58789 0.75726 0.0
O417 O 0.39819 0.55094 0.761 0.0
C418 C 0.50456 0.58968 0.76219 0.0
C419 C 0.36814 0.56441 0.75875 0.0
C420 C 0.36697 0.59506 0.04879 0.0
C421 C 0.3722 0.60673 0.96618 0.0
O422 O 0.38473 0.61138 0.03722 0.0
Zn423 Zn 0.36937 0.60013 1.00741 0.0
O424 O 0.34695 0.5785 0.03836 0.0
Zn425 Zn 0.33208 0.56998 1.00284 0.0
O426 O 0.35208 0.53721 0.99929 0.0
O427 O 0.39858 0.56478 1.00362 0.0
O428 O 0.35109 0.58801 0.97137 0.0
O429 O 0.38821 0.61914 0.98209 0.0
O430 O 0.30822 0.60877 1.00743 0.0
O431 O 0.27584 0.57426 1.00229 0.0
C432 C 0.3881 0.54229 1.00067 0.0
C433 C 0.2757 0.59739 1.00538 0.0
C434 C 0.40159 0.15401 0.05571 0.0
C435 C 0.39881 0.15747 0.97166 0.0
O436 O 0.38452 0.13897 0.04231 0.0
Zn437 Zn 0.40248 0.15364 0.01359 0.0
O438 O 0.42317 0.17103 0.04732 0.0
Zn439 Zn 0.44197 0.18365 0.01421 0.0
O440 O 0.42453 0.21716 0.01536 0.0
O441 O 0.37617 0.19036 0.01466 0.0
O442 O 0.42107 0.17366 0.98082 0.0
O443 O 0.38302 0.14111 0.98426 0.0
O444 O 0.46272 0.14311 0.01304 0.0
O445 O 0.49752 0.17707 0.01339 0.0
C446 C 0.38811 0.21278 0.01515 0.0
C447 C 0.49605 0.15374 0.01305 0.0
H448 H 0.1415 0.33465 0.18466 0.0
H449 H 0.11846 0.41066 0.20336 0.0
H450 H 0.11267 0.42155 0.16225 0.0
H451 H 0.19757 0.34667 0.13352 0.0
H452 H 0.17706 0.3217 0.11705 0.0
H453 H 0.17989 0.31956 0.14808 0.0
H454 H 0.10559 0.31153 0.15015 0.0
H455 H 0.10255 0.3136 0.11912 0.0
H456 H 0.07247 0.3331 0.13694 0.0
H457 H 0.11304 0.42502 0.11976 0.0
H458 H 0.11357 0.42012 0.07738 0.0
H459 H 0.13116 0.34149 0.08537 0.0
C460 C 0.13521 0.35354 0.18001 0.0
C461 C 0.13049 0.37183 0.19713 0.0
C462 C 0.12195 0.39633 0.19051 0.0
C463 C 0.11876 0.40274 0.16721 0.0
C464 C 0.12358 0.38437 0.15075 0.0
C465 C 0.13109 0.36021 0.15674 0.0
C466 C 0.13389 0.34406 0.13542 0.0
C467 C 0.17453 0.33231 0.13341 0.0
C468 C 0.1017 0.32441 0.13541 0.0
C469 C 0.12725 0.36304 0.11662 0.0
C470 C 0.12178 0.38619 0.12593 0.0
C471 C 0.11685 0.40697 0.11219 0.0
C472 C 0.11734 0.40402 0.08819 0.0
C473 C 0.12211 0.38044 0.07824 0.0
C474 C 0.12693 0.35967 0.09263 0.0
H475 H 0.14749 0.86982 0.08431 0.0
H476 H 0.15986 0.94812 0.07128 0.0
H477 H 0.14772 0.95666 0.11244 0.0
H478 H 0.07128 0.87401 0.12652 0.0
H479 H 0.09004 0.84983 0.14471 0.0
H480 H 0.0998 0.84947 0.11411 0.0
H481 H 0.17392 0.84748 0.12222 0.0
H482 H 0.16439 0.84773 0.15286 0.0
H483 H 0.19605 0.87056 0.14032 0.0
H484 H 0.13098 0.95726 0.15383 0.0
H485 H 0.11603 0.94987 0.19478 0.0
H486 H 0.11822 0.87101 0.18279 0.0
C487 C 0.14772 0.88873 0.09018 0.0
C488 C 0.15452 0.90833 0.07457 0.0
C489 C 0.1549 0.93282 0.08291 0.0
C490 C 0.14789 0.93788 0.10625 0.0
C491 C 0.14106 0.91823 0.12112 0.0
C492 C 0.1414 0.89412 0.1136 0.0
C493 C 0.13393 0.87652 0.13352 0.0
C494 C 0.09653 0.86158 0.12946 0.0
C495 C 0.16918 0.85957 0.13746 0.0
C496 C 0.12892 0.89459 0.15331 0.0
C497 C 0.13283 0.91853 0.14558 0.0
C498 C 0.12811 0.93861 0.16017 0.0
C499 C 0.11936 0.93419 0.18338 0.0
C500 C 0.11586 0.90987 0.19193 0.0
C501 C 0.12094 0.88977 0.17671 0.0
H502 H 0.88429 0.60945 0.83717 0.0
H503 H 0.89392 0.68584 0.8161 0.0
H504 H 0.91023 0.69764 0.85602 0.0
H505 H 0.83749 0.62231 0.89125 0.0
H506 H 0.86162 0.59799 0.90687 0.0
H507 H 0.85345 0.59501 0.87626 0.0
H508 H 0.92726 0.58773 0.86983 0.0
H509 H 0.93565 0.59073 0.90044 0.0
H510 H 0.96176 0.61004 0.88039 0.0
H511 H 0.92507 0.70154 0.89775 0.0
H512 H 0.93263 0.69782 0.93994 0.0
H513 H 0.90992 0.61938 0.93525 0.0
C514 C 0.89022 0.62858 0.84101 0.0
C515 C 0.88801 0.64674 0.82357 0.0
C516 C 0.89531 0.67166 0.82923 0.0
C517 C 0.90481 0.67854 0.85182 0.0
C518 C 0.90649 0.66033 0.86867 0.0
C519 C 0.89906 0.6359 0.86369 0.0
C520 C 0.90057 0.62035 0.88546 0.0
C521 C 0.86092 0.60821 0.89024 0.0
C522 C 0.93326 0.60107 0.88393 0.0
C523 C 0.90983 0.63991 0.90336 0.0
C524 C 0.91364 0.66276 0.89317 0.0
C525 C 0.92216 0.68375 0.90598 0.0
C526 C 0.9265 0.68143 0.92994 0.0
C527 C 0.92183 0.65833 0.94092 0.0
C528 C 0.91359 0.63729 0.92736 0.0
H529 H 0.85155 0.13092 0.93008 0.0
H530 H 0.8419 0.05183 0.93926 0.0
H531 H 0.85081 0.04589 0.89741 0.0
H532 H 0.79951 0.13321 0.87483 0.0
H533 H 0.83031 0.157 0.86313 0.0
H534 H 0.822 0.15529 0.89385 0.0
H535 H 0.89647 0.15336 0.90082 0.0
H536 H 0.90501 0.15494 0.87014 0.0
H537 H 0.92486 0.12981 0.88671 0.0
H538 H 0.86559 0.04799 0.85552 0.0
H539 H 0.88027 0.0582 0.81495 0.0
H540 H 0.87695 0.13603 0.83168 0.0
C541 C 0.85097 0.11238 0.92324 0.0
C542 C 0.84603 0.09183 0.93799 0.0
C543 C 0.84543 0.06787 0.92835 0.0
C544 C 0.85058 0.06428 0.90459 0.0
C545 C 0.85582 0.08484 0.8906 0.0
C546 C 0.85558 0.10845 0.89943 0.0
C547 C 0.86199 0.12729 0.88044 0.0
C548 C 0.82632 0.1442 0.87791 0.0
C549 C 0.8993 0.14223 0.88479 0.0
C550 C 0.86646 0.11051 0.85964 0.0
C551 C 0.86301 0.0861 0.86602 0.0
C552 C 0.8679 0.06703 0.85024 0.0
C553 C 0.87643 0.07302 0.82727 0.0
C554 C 0.87955 0.09789 0.82019 0.0
C555 C 0.87423 0.11688 0.83659 0.0
H556 H 0.15133 0.82265 0.68195 0.0
H557 H 0.11921 0.8972 0.70102 0.0
H558 H 0.10557 0.90667 0.66007 0.0
H559 H 0.19813 0.83696 0.6284 0.0
H560 H 0.1799 0.81024 0.61347 0.0
H561 H 0.1871 0.80929 0.64429 0.0
H562 H 0.11508 0.7964 0.64998 0.0
H563 H 0.10762 0.79737 0.61916 0.0
H564 H 0.07687 0.81527 0.63803 0.0
H565 H 0.09887 0.90871 0.61717 0.0
H566 H 0.09615 0.90271 0.57493 0.0
H567 H 0.12849 0.82608 0.58363 0.0
C568 C 0.1415 0.84098 0.67748 0.0
C569 C 0.13654 0.85927 0.69462 0.0
C570 C 0.12318 0.88293 0.68816 0.0
C571 C 0.11539 0.88848 0.66496 0.0
C572 C 0.12057 0.87005 0.64851 0.0
C573 C 0.13297 0.84671 0.65445 0.0
C574 C 0.13569 0.8302 0.63338 0.0
C575 C 0.17771 0.82115 0.62967 0.0
C576 C 0.10711 0.80853 0.63526 0.0
C577 C 0.12345 0.84803 0.6146 0.0
C578 C 0.11505 0.87094 0.62375 0.0
C579 C 0.10494 0.89081 0.60982 0.0
C580 C 0.10358 0.88723 0.58587 0.0
C581 C 0.1118 0.8639 0.5761 0.0
C582 C 0.12144 0.84399 0.5907 0.0
H583 H 0.15657 0.4285 0.5865 0.0
H584 H 0.16919 0.35027 0.57375 0.0
H585 H 0.15779 0.34192 0.6153 0.0
H586 H 0.20253 0.43056 0.6416 0.0
H587 H 0.16897 0.45267 0.65358 0.0
H588 H 0.17845 0.45236 0.62296 0.0
H589 H 0.10461 0.44756 0.61481 0.0
H590 H 0.09487 0.44795 0.64541 0.0
H591 H 0.07817 0.42257 0.62799 0.0
H592 H 0.14918 0.34263 0.65871 0.0
H593 H 0.13704 0.35192 0.70002 0.0
H594 H 0.12493 0.42934 0.68335 0.0
C595 C 0.15695 0.40962 0.59248 0.0
C596 C 0.16404 0.39001 0.57708 0.0
C597 C 0.16375 0.36551 0.58537 0.0
C598 C 0.15746 0.36063 0.60889 0.0
C599 C 0.15081 0.38043 0.6237 0.0
C600 C 0.14989 0.4044 0.61574 0.0
C601 C 0.14097 0.42234 0.63501 0.0
C602 C 0.17475 0.44055 0.63849 0.0
C603 C 0.10235 0.4359 0.63053 0.0
C604 C 0.1375 0.40476 0.65515 0.0
C605 C 0.14371 0.3807 0.64836 0.0
C606 C 0.14379 0.36137 0.66419 0.0
C607 C 0.13705 0.3668 0.68757 0.0
C608 C 0.12969 0.39127 0.69471 0.0
C609 C 0.12987 0.41042 0.67826 0.0
H610 H 0.8736 0.16974 0.3308 0.0
H611 H 0.8668 0.0912 0.31823 0.0
H612 H 0.87725 0.08336 0.35998 0.0
H613 H 0.95092 0.16621 0.37226 0.0
H614 H 0.93246 0.19115 0.38965 0.0
H615 H 0.92262 0.19039 0.35909 0.0
H616 H 0.84853 0.19307 0.36739 0.0
H617 H 0.85813 0.19382 0.39798 0.0
H618 H 0.82617 0.17072 0.38621 0.0
H619 H 0.88636 0.0845 0.40358 0.0
H620 H 0.89927 0.09429 0.44469 0.0
H621 H 0.90482 0.17191 0.42764 0.0
C622 C 0.874 0.15089 0.33686 0.0
C623 C 0.86898 0.13105 0.3214 0.0
C624 C 0.87051 0.10663 0.32986 0.0
C625 C 0.8763 0.10203 0.35352 0.0
C626 C 0.88114 0.12205 0.36833 0.0
C627 C 0.88053 0.14598 0.36025 0.0
C628 C 0.88824 0.16423 0.37946 0.0
C629 C 0.9258 0.17885 0.37484 0.0
C630 C 0.85317 0.18147 0.38296 0.0
C631 C 0.89307 0.14687 0.39969 0.0
C632 C 0.8884 0.12263 0.39302 0.0
C633 C 0.89039 0.1034 0.40894 0.0
C634 C 0.8976 0.10912 0.43223 0.0
C635 C 0.90338 0.1338 0.43925 0.0
C636 C 0.90105 0.15283 0.4227 0.0
H637 H 0.90927 0.57814 0.33409 0.0
H638 H 0.91624 0.65693 0.32274 0.0
H639 H 0.90165 0.66407 0.36412 0.0
H640 H 0.8288 0.58018 0.3732 0.0
H641 H 0.84647 0.55531 0.39093 0.0
H642 H 0.85903 0.5565 0.36073 0.0
H643 H 0.93238 0.55474 0.37119 0.0
H644 H 0.92004 0.55344 0.40143 0.0
H645 H 0.95223 0.57712 0.39092 0.0
H646 H 0.88663 0.66234 0.40715 0.0
H647 H 0.87063 0.65194 0.44771 0.0
H648 H 0.87093 0.57436 0.42996 0.0
C649 C 0.90812 0.59692 0.34031 0.0
C650 C 0.91421 0.61699 0.3252 0.0
C651 C 0.91179 0.64127 0.33401 0.0
C652 C 0.90354 0.6455 0.35748 0.0
C653 C 0.89743 0.62526 0.37186 0.0
C654 C 0.89948 0.60146 0.36355 0.0
C655 C 0.89065 0.58289 0.38235 0.0
C656 C 0.85406 0.56784 0.37644 0.0
C657 C 0.92593 0.56606 0.38673 0.0
C658 C 0.88342 0.59993 0.40259 0.0
C659 C 0.88767 0.6243 0.39627 0.0
C660 C 0.88308 0.64332 0.41224 0.0
C661 C 0.87401 0.63723 0.43524 0.0
C662 C 0.86927 0.61236 0.442 0.0
C663 C 0.87394 0.59357 0.42534 0.0
H664 H 0.64347 0.32569 0.58224 0.0
H665 H 0.64551 0.40523 0.57576 0.0
H666 H 0.65161 0.40913 0.61805 0.0
H667 H 0.58942 0.32248 0.63567 0.0
H668 H 0.61749 0.29736 0.64736 0.0
H669 H 0.61218 0.30058 0.61653 0.0
H670 H 0.68722 0.3008 0.61182 0.0
H671 H 0.69275 0.29752 0.64263 0.0
H672 H 0.7158 0.32279 0.6278 0.0
H673 H 0.65477 0.40474 0.66096 0.0
H674 H 0.66102 0.39221 0.70179 0.0
H675 H 0.662 0.3155 0.68097 0.0
C676 C 0.64514 0.34389 0.58977 0.0
C677 C 0.64387 0.36517 0.57569 0.0
C678 C 0.64658 0.38867 0.58616 0.0
C679 C 0.64988 0.39109 0.61019 0.0
C680 C 0.65104 0.36983 0.62359 0.0
C681 C 0.64928 0.34666 0.61381 0.0
C682 C 0.65266 0.32685 0.63223 0.0
C683 C 0.61574 0.31088 0.63299 0.0
C684 C 0.68929 0.31106 0.62838 0.0
C685 C 0.65633 0.34255 0.65383 0.0
C686 C 0.65483 0.36729 0.64842 0.0
C687 C 0.65631 0.38542 0.66541 0.0
C688 C 0.65973 0.37813 0.68857 0.0
C689 C 0.66224 0.35292 0.69456 0.0
C690 C 0.66056 0.33493 0.67689 0.0
H691 H 0.61465 0.92484 0.6778 0.0
H692 H 0.60258 0.84758 0.69506 0.0
H693 H 0.61407 0.83653 0.65406 0.0
H694 H 0.56997 0.92293 0.62137 0.0
H695 H 0.60404 0.94435 0.60884 0.0
H696 H 0.59264 0.94604 0.6392 0.0
H697 H 0.66601 0.94223 0.64911 0.0
H698 H 0.67763 0.94047 0.6188 0.0
H699 H 0.69346 0.91646 0.63812 0.0
H700 H 0.62537 0.83426 0.61069 0.0
H701 H 0.64092 0.84072 0.56928 0.0
H702 H 0.65077 0.91918 0.58157 0.0
C703 C 0.61398 0.90561 0.67289 0.0
C704 C 0.60726 0.88704 0.68947 0.0
C705 C 0.60753 0.86206 0.68254 0.0
C706 C 0.61394 0.85564 0.65932 0.0
C707 C 0.62068 0.87441 0.64338 0.0
C708 C 0.62118 0.89887 0.64994 0.0
C709 C 0.63115 0.91546 0.62978 0.0
C710 C 0.59744 0.93324 0.62449 0.0
C711 C 0.66933 0.92947 0.63422 0.0
C712 C 0.63602 0.89655 0.6108 0.0
C713 C 0.62937 0.87299 0.61887 0.0
C714 C 0.63096 0.8526 0.60424 0.0
C715 C 0.63973 0.85643 0.58077 0.0
C716 C 0.64747 0.88038 0.57234 0.0
C717 C 0.6456 0.9006 0.58762 0.0
H718 H 0.38191 0.67469 0.33094 0.0
H719 H 0.37772 0.59576 0.31993 0.0
H720 H 0.38347 0.58886 0.36186 0.0
H721 H 0.45478 0.67216 0.37564 0.0
H722 H 0.43442 0.69703 0.39236 0.0
H723 H 0.42754 0.6962 0.3615 0.0
H724 H 0.35276 0.69851 0.36719 0.0
H725 H 0.35941 0.69944 0.39807 0.0
H726 H 0.3289 0.67614 0.38532 0.0
H727 H 0.38805 0.5901 0.40414 0.0
H728 H 0.39584 0.59928 0.44553 0.0
H729 H 0.40281 0.6773 0.43006 0.0
C730 C 0.38183 0.65603 0.33751 0.0
C731 C 0.37911 0.63571 0.3224 0.0
C732 C 0.37982 0.61151 0.33135 0.0
C733 C 0.38296 0.60741 0.35508 0.0
C734 C 0.38601 0.62773 0.36956 0.0
C735 C 0.3859 0.65156 0.36124 0.0
C736 C 0.39156 0.66992 0.38071 0.0
C737 C 0.42933 0.68469 0.37734 0.0
C738 C 0.35604 0.68701 0.38295 0.0
C739 C 0.39463 0.6526 0.40118 0.0
C740 C 0.39086 0.62839 0.39425 0.0
C741 C 0.3913 0.60895 0.40984 0.0
C742 C 0.39564 0.61435 0.43327 0.0
C743 C 0.4001 0.63894 0.44084 0.0
C744 C 0.39992 0.65833 0.4246 0.0
H745 H 0.37913 0.07571 0.43741 0.0
H746 H 0.391 0.15264 0.45636 0.0
H747 H 0.40263 0.16324 0.41543 0.0
H748 H 0.45452 0.07598 0.39282 0.0
H749 H 0.42826 0.05513 0.37429 0.0
H750 H 0.42208 0.05347 0.40519 0.0
H751 H 0.34752 0.05873 0.40028 0.0
H752 H 0.35346 0.06047 0.3694 0.0
H753 H 0.32897 0.08493 0.38466 0.0
H754 H 0.40802 0.16589 0.3725 0.0
H755 H 0.41097 0.16025 0.33025 0.0
H756 H 0.39904 0.08133 0.33908 0.0
C757 C 0.3844 0.09478 0.43298 0.0
C758 C 0.38405 0.11339 0.45006 0.0
C759 C 0.39125 0.13809 0.44357 0.0
C760 C 0.39783 0.14429 0.42038 0.0
C761 C 0.39762 0.12553 0.40396 0.0
C762 C 0.39151 0.10125 0.40996 0.0
C763 C 0.39247 0.08467 0.38889 0.0
C764 C 0.42636 0.06622 0.39039 0.0
C765 C 0.35327 0.07142 0.38562 0.0
C766 C 0.39938 0.10351 0.37004 0.0
C767 C 0.40211 0.12696 0.37916 0.0
C768 C 0.40641 0.1476 0.36517 0.0
C769 C 0.40788 0.14421 0.3412 0.0
C770 C 0.40546 0.12035 0.33146 0.0
C771 C 0.40153 0.09973 0.34611 0.0
H772 H 0.65671 0.88496 0.17952 0.0
H773 H 0.66478 0.80616 0.19116 0.0
H774 H 0.65449 0.79875 0.14969 0.0
H775 H 0.58232 0.883 0.13638 0.0
H776 H 0.60274 0.90724 0.11891 0.0
H777 H 0.61138 0.90675 0.14961 0.0
H778 H 0.68585 0.90759 0.14239 0.0
H779 H 0.67744 0.90819 0.11165 0.0
H780 H 0.70768 0.88453 0.12409 0.0
H781 H 0.63968 0.79936 0.10784 0.0
H782 H 0.6263 0.80813 0.06684 0.0
H783 H 0.63103 0.88652 0.081 0.0
C784 C 0.65652 0.86618 0.17329 0.0
C785 C 0.66154 0.84615 0.18863 0.0
C786 C 0.66121 0.82183 0.17979 0.0
C787 C 0.65524 0.81739 0.15624 0.0
C788 C 0.65008 0.83745 0.14164 0.0
C789 C 0.65111 0.86138 0.14967 0.0
C790 C 0.64509 0.87953 0.13005 0.0
C791 C 0.60819 0.89504 0.13398 0.0
C792 C 0.68117 0.89592 0.12686 0.0
C793 C 0.64009 0.86199 0.10986 0.0
C794 C 0.64281 0.83782 0.11707 0.0
C795 C 0.63782 0.8182 0.10191 0.0
C796 C 0.63005 0.82339 0.07868 0.0
C797 C 0.62776 0.84799 0.07073 0.0
C798 C 0.63299 0.86754 0.08656 0.0
H799 H 0.65217 0.36887 0.08801 0.0
H800 H 0.66764 0.44596 0.07029 0.0
H801 H 0.65282 0.45764 0.11028 0.0
H802 H 0.57265 0.37729 0.12734 0.0
H803 H 0.58866 0.35447 0.14786 0.0
H804 H 0.60149 0.35148 0.11778 0.0
H805 H 0.67453 0.34934 0.1287 0.0
H806 H 0.66191 0.35221 0.15883 0.0
H807 H 0.69561 0.37358 0.14588 0.0
H808 H 0.63271 0.46181 0.15085 0.0
H809 H 0.61287 0.45815 0.19149 0.0
H810 H 0.61289 0.37851 0.18535 0.0
C811 C 0.65274 0.38817 0.09262 0.0
C812 C 0.66111 0.40647 0.07584 0.0
C813 C 0.66149 0.43153 0.08266 0.0
C814 C 0.653 0.43842 0.10541 0.0
C815 C 0.6445 0.42008 0.12139 0.0
C816 C 0.64469 0.39546 0.11552 0.0
C817 C 0.63453 0.37967 0.13642 0.0
C818 C 0.59711 0.36485 0.13208 0.0
C819 C 0.66868 0.3627 0.14284 0.0
C820 C 0.62816 0.39937 0.15474 0.0
C821 C 0.6339 0.42251 0.14548 0.0
C822 C 0.62843 0.4438 0.1584 0.0
C823 C 0.61693 0.4415 0.18148 0.0
C824 C 0.61131 0.41806 0.19168 0.0
C825 C 0.61724 0.39666 0.1781 0.0
H826 H 0.35333 0.11803 0.84079 0.0
H827 H 0.3447 0.19631 0.82627 0.0
H828 H 0.35582 0.20548 0.86725 0.0
H829 H 0.3042 0.1209 0.89723 0.0
H830 H 0.33518 0.09791 0.91012 0.0
H831 H 0.32522 0.09702 0.87955 0.0
H832 H 0.39928 0.09759 0.87097 0.0
H833 H 0.40947 0.09858 0.90149 0.0
H834 H 0.42887 0.12198 0.88265 0.0
H835 H 0.37273 0.20688 0.9083 0.0
H836 H 0.38985 0.20034 0.94909 0.0
H837 H 0.38422 0.12126 0.93907 0.0
C838 C 0.35346 0.13706 0.84631 0.0
C839 C 0.34816 0.15644 0.83026 0.0
C840 C 0.34852 0.18112 0.83817 0.0
C841 C 0.35488 0.18656 0.86144 0.0
C842 C 0.36041 0.16715 0.87672 0.0
C843 C 0.35932 0.14288 0.86968 0.0
C844 C 0.36643 0.12568 0.88995 0.0
C845 C 0.33062 0.10942 0.89448 0.0
C846 C 0.4032 0.11004 0.88602 0.0
C847 C 0.37235 0.14418 0.90929 0.0
C848 C 0.3689 0.16796 0.90108 0.0
C849 C 0.37508 0.18837 0.91506 0.0
C850 C 0.38502 0.18445 0.93815 0.0
C851 C 0.38825 0.16032 0.94715 0.0
C852 C 0.38148 0.13988 0.93261 0.0
H853 H 0.39324 0.58293 0.83134 0.0
H854 H 0.41751 0.66072 0.82273 0.0
H855 H 0.40842 0.66697 0.86485 0.0
H856 H 0.31781 0.59041 0.87459 0.0
H857 H 0.33182 0.56303 0.89008 0.0
H858 H 0.33989 0.56503 0.85937 0.0
H859 H 0.41318 0.55556 0.86553 0.0
H860 H 0.40538 0.55361 0.89624 0.0
H861 H 0.44124 0.57458 0.88486 0.0
H862 H 0.40106 0.66377 0.90832 0.0
H863 H 0.39072 0.65218 0.94923 0.0
H864 H 0.36743 0.57697 0.92834 0.0
C865 C 0.39661 0.60131 0.8383 0.0
C866 C 0.40638 0.62134 0.82391 0.0
C867 C 0.41001 0.64516 0.83354 0.0
C868 C 0.40499 0.64885 0.85739 0.0
C869 C 0.39574 0.62858 0.87114 0.0
C870 C 0.39108 0.60535 0.86186 0.0
C871 C 0.38074 0.58664 0.88019 0.0
C872 C 0.34015 0.57564 0.87579 0.0
C873 C 0.41201 0.56641 0.88179 0.0
C874 C 0.38086 0.60287 0.90137 0.0
C875 C 0.38984 0.62696 0.89586 0.0
C876 C 0.39354 0.64503 0.9128 0.0
C877 C 0.38777 0.63827 0.93595 0.0
C878 C 0.37797 0.61374 0.94183 0.0
C879 C 0.37431 0.59592 0.92428 0.0
H880 H 0.90948 0.24466 0.26026 0.0
H881 H 0.97004 0.17454 0.26423 0.0
H882 H 0.03254 0.19613 0.26726 0.0
H883 H 0.98159 0.27521 0.22542 0.0
H884 H 0.97673 0.30451 0.23973 0.0
H885 H 0.9359 0.28375 0.23856 0.0
H886 H 0.93034 0.28509 0.2832 0.0
H887 H 0.9712 0.30584 0.2845 0.0
H888 H 0.9722 0.27745 0.30058 0.0
H889 H 0.0886 0.22447 0.26918 0.0
H890 H 0.13576 0.25852 0.26929 0.0
H891 H 0.0407 0.31103 0.26393 0.0
C892 C 0.93588 0.23389 0.26187 0.0
C893 C 0.93466 0.20785 0.26199 0.0
C894 C 0.96999 0.19446 0.26401 0.0
C895 C 1.00578 0.20655 0.26581 0.0
C896 C 1.00604 0.23212 0.26556 0.0
C897 C 0.97218 0.24572 0.26361 0.0
C898 C 0.98121 0.27309 0.26328 0.0
C899 C 0.96808 0.28482 0.24038 0.0
C900 C 0.96263 0.28613 0.28414 0.0
C901 C 0.02534 0.27258 0.26522 0.0
C902 C 0.03888 0.2487 0.2666 0.0
C903 C 0.07842 0.24329 0.26818 0.0
C904 C 0.10501 0.2628 0.26821 0.0
C905 C 0.09206 0.2875 0.26664 0.0
C906 C 0.05157 0.29238 0.26526 0.0
H907 H 0.15398 0.00428 0.2788 0.0
H908 H 0.19315 0.94953 0.22928 0.0
H909 H 0.25182 0.97386 0.22151 0.0
H910 H 0.19414 0.05886 0.24753 0.0
H911 H 0.20915 0.07409 0.27372 0.0
H912 H 0.16744 0.05395 0.27398 0.0
H913 H 0.19875 0.02845 0.30688 0.0
H914 H 0.24053 0.04845 0.3067 0.0
H915 H 0.24684 0.01578 0.30288 0.0
H916 H 0.30806 1.00074 0.22121 0.0
H917 H 0.36116 0.02993 0.22835 0.0
H918 H 0.28899 0.06912 0.27784 0.0
C919 C 0.17465 0.99779 0.26603 0.0
C920 C 0.16906 0.97499 0.25464 0.0
C921 C 0.19699 0.96681 0.23833 0.0
C922 C 0.23034 0.98058 0.23367 0.0
C923 C 0.23559 0.0026 0.24544 0.0
C924 C 0.20874 0.01134 0.26126 0.0
C925 C 0.22359 0.03489 0.2725 0.0
C926 C 0.19699 0.05675 0.26657 0.0
C927 C 0.22767 0.03169 0.2988 0.0
C928 C 0.26322 0.03747 0.26089 0.0
C929 C 0.26901 0.01864 0.24521 0.0
C930 C 0.30379 0.01577 0.23321 0.0
C931 C 0.33385 0.0324 0.23748 0.0
C932 C 0.32915 0.0518 0.25356 0.0
C933 C 0.29308 0.05468 0.26518 0.0
H934 H 0.05062 0.94193 0.01031 0.0
H935 H 0.13305 0.99483 0.98236 0.0
H936 H 0.08269 0.0268 0.98322 0.0
H937 H 0.96574 0.96543 0.97868 0.0
H938 H 0.9325 0.96037 1.00234 0.0
H939 H 0.97473 0.94097 0.99905 0.0
H940 H 0.99614 0.95171 0.04075 0.0
H941 H 0.95417 0.97131 0.0441 0.0
H942 H 1.00232 0.9835 0.04883 0.0
H943 H 0.02579 0.05373 0.98856 0.0
H944 H 0.96277 0.07384 0.99546 0.0
H945 H 0.91455 0.00437 0.01922 0.0
C946 C 0.05787 0.96016 1.00412 0.0
C947 C 0.09599 0.96577 0.99631 0.0
C948 C 0.10426 0.98995 0.98849 0.0
C949 C 0.07582 0.00835 0.98892 0.0
C950 C 0.03894 0.00241 0.9971 0.0
C951 C 0.02957 0.97892 1.00434 0.0
C952 C 0.9874 0.97782 0.01237 0.0
C953 C 0.96369 0.9601 0.9972 0.0
C954 C 0.98488 0.97066 0.03804 0.0
C955 C 0.9749 0.00438 0.0086 0.0
C956 C 1.00532 0.01814 0.99988 0.0
C957 C 1.00159 0.04315 0.99526 0.0
C958 C 0.9656 0.05443 0.99934 0.0
C959 C 0.93352 0.04076 1.00787 0.0
C960 C 0.93843 0.01536 0.01267 0.0
H961 H 0.3079 0.21018 0.01264 0.0
H962 H 0.40379 0.26209 0.01669 0.0
H963 H 0.35711 0.29651 0.01509 0.0
H964 H 0.24949 0.24509 0.97274 0.0
H965 H 0.20378 0.23706 0.9861 0.0
H966 H 0.24454 0.21625 0.98784 0.0
H967 H 0.23929 0.21616 0.03251 0.0
H968 H 0.19844 0.23691 0.03091 0.0
H969 H 0.24046 0.24495 0.04796 0.0
H970 H 0.3009 0.32525 0.01278 0.0
H971 H 0.23826 0.34697 0.01059 0.0
H972 H 0.17746 0.27694 1.00797 0.0
C973 C 0.31911 0.22879 0.01328 0.0
C974 C 0.35966 0.23338 0.01482 0.0
C975 C 0.37299 0.25803 0.01553 0.0
C976 C 0.34667 0.27774 0.01461 0.0
C977 C 0.30703 0.27257 0.01297 0.0
C978 C 0.29318 0.24874 0.01236 0.0
C979 C 0.24902 0.2484 0.01053 0.0
C980 C 0.23595 0.23596 0.98796 0.0
C981 C 0.23073 0.23586 0.03174 0.0
C982 C 0.24028 0.27579 0.01021 0.0
C983 C 0.27428 0.2893 0.01162 0.0
C984 C 0.27407 0.31488 0.01169 0.0
C985 C 0.23819 0.32705 0.01043 0.0
C986 C 0.20272 0.31374 0.00911 0.0
C987 C 0.20395 0.28769 0.00891 0.0
H988 H 0.91906 0.73082 0.75089 0.0
H989 H 0.9761 0.66209 0.73298 0.0
H990 H 0.03944 0.68315 0.73205 0.0
H991 H 0.98308 0.7712 0.71583 0.0
H992 H 0.98309 0.79533 0.73721 0.0
H993 H 0.94142 0.77541 0.73442 0.0
H994 H 0.94673 0.76424 0.77783 0.0
H995 H 0.98866 0.78387 0.7807 0.0
H996 H 0.99183 0.75193 0.78884 0.0
H997 H 0.09697 0.71026 0.73602 0.0
H998 H 0.14556 0.74281 0.74257 0.0
H999 H 0.05254 0.79457 0.75791 0.0
C1000 C 0.94478 0.7204 0.74623 0.0
C1001 C 0.9426 0.69482 0.74193 0.0
C1002 C 0.97704 0.68168 0.73637 0.0
C1003 C 0.01321 0.69347 0.73577 0.0
C1004 C 0.01461 0.71848 0.74075 0.0
C1005 C 0.9814 0.73191 0.74567 0.0
C1006 C 0.99163 0.75839 0.75141 0.0
C1007 C 0.97374 0.77613 0.73365 0.0
C1008 C 0.97896 0.76498 0.77617 0.0
C1009 C 0.03569 0.75751 0.74928 0.0
C1010 C 0.04821 0.73429 0.74305 0.0
C1011 C 0.08756 0.72861 0.74068 0.0
C1012 C 0.11497 0.74722 0.74456 0.0
C1013 C 0.10297 0.77128 0.75073 0.0
C1014 C 0.0627 0.7764 0.75313 0.0
H1015 H 0.71368 0.95026 0.75751 0.0
H1016 H 0.63104 0.99772 0.72223 0.0
H1017 H 0.68317 0.02719 0.71385 0.0
H1018 H 0.76562 0.99828 0.78478 0.0
H1019 H 0.8131 0.98442 0.78198 0.0
H1020 H 0.77039 0.96528 0.78327 0.0
H1021 H 0.78988 0.94492 0.74446 0.0
H1022 H 0.83267 0.96407 0.74304 0.0
H1023 H 0.79843 0.96395 0.71945 0.0
H1024 H 0.74087 0.05325 0.71201 0.0
H1025 H 0.80259 0.07544 0.71752 0.0
H1026 H 0.85071 0.01238 0.75358 0.0
C1027 C 0.70686 0.96667 0.7477 0.0
C1028 C 0.66822 0.97166 0.74053 0.0
C1029 C 0.66028 0.99352 0.72804 0.0
C1030 C 0.68978 0.01036 0.72303 0.0
C1031 C 0.7273 0.00519 0.73059 0.0
C1032 C 0.73618 0.98397 0.74266 0.0
C1033 C 0.77866 0.98412 0.75012 0.0
C1034 C 0.78213 0.98296 0.77661 0.0
C1035 C 0.80125 0.963 0.73858 0.0
C1036 C 0.7917 0.00897 0.74082 0.0
C1037 C 0.76148 0.02057 0.72942 0.0
C1038 C 0.76499 0.04427 0.7206 0.0
C1039 C 0.80011 0.05674 0.72386 0.0
C1040 C 0.83142 0.04553 0.73575 0.0
C1041 C 0.82747 0.02112 0.74397 0.0
H1042 H 0.66651 0.76075 0.99886 0.0
H1043 H 0.72315 0.83031 0.98352 0.0
H1044 H 0.78697 0.81013 0.9852 0.0
H1045 H 0.73538 0.73984 0.03938 0.0
H1046 H 0.73493 0.70799 0.03073 0.0
H1047 H 0.6925 0.72688 0.02619 0.0
H1048 H 0.69335 0.71632 0.98256 0.0
H1049 H 0.73555 0.69714 0.987 0.0
H1050 H 0.73704 0.7216 0.96598 0.0
H1051 H 0.84409 0.78478 0.99255 0.0
H1052 H 0.89361 0.75381 1.00159 0.0
H1053 H 0.80319 0.69879 0.011 0.0
C1054 C 0.69234 0.77152 0.99529 0.0
C1055 C 0.68976 0.79717 0.99107 0.0
C1056 C 0.72428 0.81072 0.98689 0.0
C1057 C 0.76077 0.79942 0.98778 0.0
C1058 C 0.7625 0.77442 0.99272 0.0
C1059 C 0.72941 0.76042 0.99609 0.0
C1060 C 0.74033 0.73399 1.00199 0.0
C1061 C 0.72486 0.72676 0.026 0.0
C1062 C 0.7257 0.71621 0.98326 0.0
C1063 C 0.7846 0.73565 1.00188 0.0
C1064 C 0.79639 0.75926 0.99651 0.0
C1065 C 0.83535 0.76611 0.99646 0.0
C1066 C 0.86328 0.74835 1.00182 0.0
C1067 C 0.85241 0.72381 1.00701 0.0
C1068 C 0.81241 0.71734 1.00693 0.0
H1069 H 0.34908 0.51538 0.7617 0.0
H1070 H 0.29807 0.58795 0.75321 0.0
H1071 H 0.23265 0.56924 0.75104 0.0
H1072 H 0.28506 0.48369 0.72266 0.0
H1073 H 0.28262 0.45623 0.74007 0.0
H1074 H 0.3254 0.47535 0.74099 0.0
H1075 H 0.31835 0.47938 0.78544 0.0
H1076 H 0.27557 0.46025 0.78466 0.0
H1077 H 0.27315 0.49042 0.79749 0.0
H1078 H 0.1725 0.54246 0.74974 0.0
H1079 H 0.12254 0.50975 0.74983 0.0
H1080 H 0.21314 0.45487 0.75922 0.0
C1081 C 0.3242 0.52738 0.75939 0.0
C1082 C 0.32881 0.55317 0.75763 0.0
C1083 C 0.29537 0.56815 0.75462 0.0
C1084 C 0.25805 0.5577 0.75335 0.0
C1085 C 0.25458 0.53223 0.75512 0.0
C1086 C 0.28676 0.51727 0.7581 0.0
C1087 C 0.27513 0.49044 0.75959 0.0
C1088 C 0.29312 0.47556 0.73964 0.0
C1089 C 0.28621 0.47949 0.7832 0.0
C1090 C 0.23138 0.49263 0.75699 0.0
C1091 C 0.22006 0.51687 0.7544 0.0
C1092 C 0.18104 0.52341 0.75175 0.0
C1093 C 0.15286 0.50469 0.75181 0.0
C1094 C 0.16382 0.47971 0.75453 0.0
C1095 C 0.20369 0.47375 0.75709 0.0
H1096 H 0.92459 0.5008 0.50218 0.0
H1097 H 0.97152 0.57489 0.50693 0.0
H1098 H 0.03768 0.55801 0.5093 0.0
H1099 H 0.99161 0.47303 0.54221 0.0
H1100 H 0.99651 0.44466 0.52633 0.0
H1101 H 0.95213 0.46224 0.52436 0.0
H1102 H 0.95905 0.46376 0.4798 0.0
H1103 H 1.00342 0.44613 0.48163 0.0
H1104 H 1.00332 0.47549 0.46716 0.0
H1105 H 0.09802 0.53416 0.512 0.0
H1106 H 0.15103 0.5041 0.5144 0.0
H1107 H 0.06752 0.44441 0.50788 0.0
C1108 C 0.94883 0.51344 0.50359 0.0
C1109 C 0.94271 0.53922 0.50437 0.0
C1110 C 0.97525 0.55511 0.50633 0.0
C1111 C 0.01307 0.54571 0.50768 0.0
C1112 C 0.01809 0.52034 0.50703 0.0
C1113 C 0.98708 0.50433 0.50499 0.0
C1114 C 1.00114 0.47779 0.50499 0.0
C1115 C 0.98435 0.46359 0.52571 0.0
C1116 C 0.99114 0.46504 0.48203 0.0
C1117 C 0.0448 0.48153 0.50746 0.0
C1118 C 0.05364 0.50629 0.50858 0.0
C1119 C 0.09158 0.51469 0.51109 0.0
C1120 C 0.12153 0.49737 0.51247 0.0
C1121 C 0.11361 0.47179 0.51133 0.0
C1122 C 0.07458 0.46379 0.50877 0.0
H1123 H 0.31133 0.6988 0.50693 0.0
H1124 H 0.40647 0.75085 0.51392 0.0
H1125 H 0.35922 0.78513 0.51424 0.0
H1126 H 0.25312 0.73548 0.46885 0.0
H1127 H 0.20751 0.72614 0.48156 0.0
H1128 H 0.2488 0.7057 0.48233 0.0
H1129 H 0.24306 0.7028 0.52692 0.0
H1130 H 0.20171 0.7232 0.52629 0.0
H1131 H 0.24334 0.7306 0.54392 0.0
H1132 H 0.30129 0.81387 0.51355 0.0
H1133 H 0.23732 0.8347 0.5118 0.0
H1134 H 0.18046 0.76374 0.50499 0.0
C1135 C 0.3223 0.71739 0.50862 0.0
C1136 C 0.36268 0.72209 0.51044 0.0
C1137 C 0.37571 0.74674 0.51251 0.0
C1138 C 0.34908 0.76636 0.51272 0.0
C1139 C 0.30951 0.76106 0.51081 0.0
C1140 C 0.29617 0.73717 0.5088 0.0
C1141 C 0.2522 0.73644 0.50676 0.0
C1142 C 0.23969 0.72529 0.48349 0.0
C1143 C 0.23402 0.72244 0.52719 0.0
C1144 C 0.24288 0.76365 0.50791 0.0
C1145 C 0.27629 0.77756 0.51028 0.0
C1146 C 0.27493 0.80316 0.5117 0.0
C1147 C 0.23844 0.81482 0.51069 0.0
C1148 C 0.20381 0.8009 0.50823 0.0
C1149 C 0.20631 0.77497 0.50684 0.0
H1150 H 0.84936 0.51236 0.25959 0.0
H1151 H 0.80529 0.58718 0.26411 0.0
H1152 H 0.7383 0.57135 0.26586 0.0
H1153 H 0.77261 0.48918 0.2232 0.0
H1154 H 0.77046 0.4595 0.23704 0.0
H1155 H 0.8155 0.47647 0.23664 0.0
H1156 H 0.81915 0.47388 0.28129 0.0
H1157 H 0.77406 0.45694 0.28184 0.0
H1158 H 0.7788 0.48487 0.2984 0.0
H1159 H 0.6766 0.54819 0.26694 0.0
H1160 H 0.62244 0.51879 0.26627 0.0
H1161 H 0.70472 0.45825 0.26065 0.0
C1162 C 0.82561 0.52539 0.261 0.0
C1163 C 0.83269 0.55105 0.26172 0.0
C1164 C 0.80075 0.56747 0.26347 0.0
C1165 C 0.76251 0.55867 0.26454 0.0
C1166 C 0.75655 0.53337 0.26378 0.0
C1167 C 0.78705 0.5169 0.26199 0.0
C1168 C 0.77214 0.4906 0.26109 0.0
C1169 C 0.78334 0.47822 0.23812 0.0
C1170 C 0.78692 0.4757 0.2819 0.0
C1171 C 0.72852 0.49497 0.2626 0.0
C1172 C 0.72041 0.51982 0.26424 0.0
C1173 C 0.68251 0.52868 0.26567 0.0
C1174 C 0.6519 0.51175 0.26527 0.0
C1175 C 0.65919 0.48614 0.26339 0.0
C1176 C 0.69815 0.47768 0.26217 0.0
H1177 H 0.68011 0.2647 0.50656 0.0
H1178 H 0.73641 0.33211 0.48397 0.0
H1179 H 0.79833 0.30994 0.47966 0.0
H1180 H 0.75937 0.24284 0.54027 0.0
H1181 H 0.75332 0.21085 0.5329 0.0
H1182 H 0.71193 0.23122 0.53261 0.0
H1183 H 0.69783 0.21938 0.49007 0.0
H1184 H 0.73909 0.19885 0.49027 0.0
H1185 H 0.7357 0.22267 0.46869 0.0
H1186 H 0.85435 0.28219 0.47977 0.0
H1187 H 0.90306 0.24954 0.4838 0.0
H1188 H 0.81299 0.19882 0.50654 0.0
C1189 C 0.70537 0.27463 0.50035 0.0
C1190 C 0.70338 0.30016 0.49556 0.0
C1191 C 0.73719 0.31261 0.48782 0.0
C1192 C 0.77254 0.30017 0.48524 0.0
C1193 C 0.77378 0.27522 0.49047 0.0
C1194 C 0.74127 0.26245 0.4978 0.0
C1195 C 0.75162 0.23584 0.50323 0.0
C1196 C 0.74358 0.22984 0.52877 0.0
C1197 C 0.72976 0.21814 0.4871 0.0
C1198 C 0.79505 0.23591 0.49808 0.0
C1199 C 0.80688 0.25887 0.49064 0.0
C1200 C 0.8455 0.26406 0.48543 0.0
C1201 C 0.87301 0.24532 0.48788 0.0
C1202 C 0.86199 0.22153 0.49551 0.0
C1203 C 0.82231 0.21674 0.50055 0.0
H1204 H 0.41654 0.23744 0.75295 0.0
H1205 H 0.46396 0.16331 0.75272 0.0
H1206 H 0.53041 0.18024 0.75263 0.0
H1207 H 0.49063 0.26494 0.71583 0.0
H1208 H 0.49208 0.29345 0.73172 0.0
H1209 H 0.44781 0.27569 0.73081 0.0
H1210 H 0.4461 0.2747 0.77557 0.0
H1211 H 0.49044 0.29236 0.77661 0.0
H1212 H 0.48766 0.26311 0.79119 0.0
H1213 H 0.59115 0.20445 0.75333 0.0
H1214 H 0.64392 0.2348 0.75492 0.0
H1215 H 0.55882 0.29405 0.75542 0.0
C1216 C 0.44092 0.22479 0.75264 0.0
C1217 C 0.43499 0.19901 0.75278 0.0
C1218 C 0.46769 0.1831 0.75265 0.0
C1219 C 0.5056 0.19253 0.75256 0.0
C1220 C 0.51045 0.21795 0.75268 0.0
C1221 C 0.47916 0.23393 0.75272 0.0
C1222 C 0.49288 0.2605 0.75348 0.0
C1223 C 0.48009 0.27446 0.73166 0.0
C1224 C 0.47841 0.27342 0.77553 0.0
C1225 C 0.53673 0.25685 0.75396 0.0
C1226 C 0.546 0.23212 0.75339 0.0
C1227 C 0.58432 0.22388 0.75374 0.0
C1228 C 0.61413 0.24135 0.75465 0.0
C1229 C 0.60566 0.2669 0.75529 0.0
C1230 C 0.5663 0.2747 0.75498 0.0
H1231 H 0.42321 1.00083 0.50713 0.0
H1232 H 0.47504 0.07166 0.52348 0.0
H1233 H 0.53968 0.05253 0.52486 0.0
H1234 H 0.48709 0.96445 0.54402 0.0
H1235 H 0.49026 0.9391 0.52401 0.0
H1236 H 0.44725 0.95811 0.52463 0.0
H1237 H 0.45531 0.967 0.48089 0.0
H1238 H 0.4984 0.94808 0.48016 0.0
H1239 H 0.50059 0.97954 0.47038 0.0
H1240 H 0.59886 0.02672 0.52362 0.0
H1241 H 0.64968 0.99489 0.52071 0.0
H1242 H 0.56111 0.94017 0.50555 0.0
C1243 C 0.44813 0.01225 0.51112 0.0
C1244 C 0.44385 0.03779 0.51517 0.0
C1245 C 0.47733 0.05208 0.52027 0.0
C1246 C 0.51433 0.0414 0.52112 0.0
C1247 C 0.51763 0.01633 0.51689 0.0
C1248 C 0.48558 1.00184 0.51208 0.0
C1249 C 0.49774 0.97532 0.50805 0.0
C1250 C 0.4795 0.95824 0.52627 0.0
C1251 C 0.48739 0.967 0.4834 0.0
C1252 C 0.54151 0.97735 0.51124 0.0
C1253 C 0.55222 1.00122 0.51631 0.0
C1254 C 0.59091 0.00791 0.51974 0.0
C1255 C 0.61959 0.98968 0.518 0.0
C1256 C 0.60948 0.96501 0.51293 0.0
C1257 C 0.56982 0.95884 0.50952 0.0
H1258 H 0.60401 0.75867 0.26656 0.0
H1259 H 0.54557 0.82871 0.25621 0.0
H1260 H 0.48283 0.80713 0.25228 0.0
H1261 H 0.54799 0.72456 0.22563 0.0
H1262 H 0.54644 0.69682 0.24269 0.0
H1263 H 0.58687 0.71768 0.24554 0.0
H1264 H 0.57425 0.72093 0.2896 0.0
H1265 H 0.53393 0.69994 0.28691 0.0
H1266 H 0.52662 0.72977 0.29982 0.0
H1267 H 0.42674 0.77819 0.24849 0.0
H1268 H 0.38036 0.74374 0.24622 0.0
H1269 H 0.47466 0.69214 0.25885 0.0
C1270 C 0.57799 0.7695 0.26368 0.0
C1271 C 0.57981 0.79544 0.26174 0.0
C1272 C 0.54503 0.80886 0.25779 0.0
C1273 C 0.50919 0.79677 0.2555 0.0
C1274 C 0.50851 0.77122 0.2572 0.0
C1275 C 0.54189 0.75771 0.2613 0.0
C1276 C 0.53304 0.73037 0.2621 0.0
C1277 C 0.55488 0.71655 0.24284 0.0
C1278 C 0.54252 0.71963 0.28603 0.0
C1279 C 0.4895 0.73066 0.25771 0.0
C1280 C 0.47601 0.75443 0.25495 0.0
C1281 C 0.43693 0.75949 0.25067 0.0
C1282 C 0.4108 0.73974 0.24938 0.0
C1283 C 0.42378 0.71517 0.25233 0.0
C1284 C 0.46378 0.71066 0.25644 0.0
H1285 H 0.60244 0.48454 0.99569 0.0
H1286 H 0.54853 0.41236 0.99759 0.0
H1287 H 0.48348 0.43187 0.99737 0.0
H1288 H 0.53528 0.5135 0.03391 0.0
H1289 H 0.53545 0.54255 0.01888 0.0
H1290 H 0.5777 0.52293 0.01781 0.0
H1291 H 0.57524 0.52322 0.97305 0.0
H1292 H 0.53303 0.54291 0.97398 0.0
H1293 H 0.53108 0.51414 0.95854 0.0
H1294 H 0.42424 0.45933 0.99768 0.0
H1295 H 0.3753 0.49256 0.99945 0.0
H1296 H 0.46792 0.5469 0.9985 0.0
C1297 C 0.57698 0.4728 0.99578 0.0
C1298 C 0.58063 0.44687 0.9965 0.0
C1299 C 0.54651 0.43223 0.99698 0.0
C1300 C 0.50942 0.44315 0.99683 0.0
C1301 C 0.50689 0.46875 0.99633 0.0
C1302 C 0.53976 0.48339 0.99586 0.0
C1303 C 0.52905 0.51047 0.99628 0.0
C1304 C 0.54534 0.5231 0.01802 0.0
C1305 C 0.54292 0.52344 0.97414 0.0
C1306 C 0.48502 0.50878 0.99714 0.0
C1307 C 0.47282 0.48456 0.997 0.0
C1308 C 0.43347 0.47836 0.99777 0.0
C1309 C 0.40587 0.4974 0.99877 0.0
C1310 C 0.41767 0.52239 0.99915 0.0
C1311 C 0.45787 0.52803 0.99828 0.0
H1312 H 0.18529 0.36193 0.44075 0.0
H1313 H 0.1802 0.44173 0.4413 0.0
H1314 H 0.16981 0.44181 0.39912 0.0
H1315 H 0.23814 0.35729 0.38591 0.0
H1316 H 0.21279 0.32986 0.37701 0.0
H1317 H 0.22018 0.33599 0.40729 0.0
H1318 H 0.14584 0.33248 0.41432 0.0
H1319 H 0.13819 0.32653 0.38404 0.0
H1320 H 0.11299 0.35161 0.39793 0.0
H1321 H 0.15469 0.43336 0.35806 0.0
H1322 H 0.1438 0.41721 0.31883 0.0
H1323 H 0.16393 0.3429 0.34361 0.0
C1324 C 0.18224 0.37939 0.43191 0.0
C1325 C 0.1834 0.40184 0.44421 0.0
C1326 C 0.1796 0.42436 0.43214 0.0
C1327 C 0.17351 0.42458 0.40824 0.0
C1328 C 0.17201 0.40216 0.39665 0.0
C1329 C 0.17698 0.37998 0.40793 0.0
C1330 C 0.17488 0.35858 0.39115 0.0
C1331 C 0.21382 0.34461 0.39029 0.0
C1332 C 0.14095 0.34128 0.39723 0.0
C1333 C 0.16728 0.37223 0.36876 0.0
C1334 C 0.16531 0.39732 0.37248 0.0
C1335 C 0.15665 0.41379 0.35483 0.0
C1336 C 0.15025 0.40441 0.33267 0.0
C1337 C 0.15316 0.37885 0.32826 0.0
C1338 C 0.16191 0.36254 0.34653 0.0
H1339 H 0.11141 0.85946 0.32909 0.0
H1340 H 0.13943 0.93724 0.32865 0.0
H1341 H 0.1482 0.9364 0.37091 0.0
H1342 H 0.05409 0.86176 0.37967 0.0
H1343 H 0.069 0.8323 0.39091 0.0
H1344 H 0.06979 0.83779 0.36023 0.0
H1345 H 0.14278 0.82581 0.35872 0.0
H1346 H 0.14216 0.82012 0.38942 0.0
H1347 H 0.17693 0.84136 0.37731 0.0
H1348 H 0.14977 0.92842 0.41261 0.0
H1349 H 0.14272 0.91402 0.45256 0.0
H1350 H 0.11075 0.84136 0.4276 0.0
C1351 C 0.12035 0.87607 0.33794 0.0
C1352 C 0.1253 0.89837 0.32573 0.0
C1353 C 0.13577 0.91999 0.33779 0.0
C1354 C 0.1409 0.91967 0.36175 0.0
C1355 C 0.13504 0.89762 0.37343 0.0
C1356 C 0.12491 0.87618 0.36208 0.0
C1357 C 0.11723 0.85558 0.37926 0.0
C1358 C 0.07502 0.84632 0.3774 0.0
C1359 C 0.14653 0.83447 0.37598 0.0
C1360 C 0.12408 0.86898 0.40194 0.0
C1361 C 0.13477 0.89312 0.39801 0.0
C1362 C 0.14169 0.90951 0.41597 0.0
C1363 C 0.13749 0.90111 0.43865 0.0
C1364 C 0.12617 0.87653 0.44332 0.0
C1365 C 0.11958 0.86022 0.42463 0.0
H1366 H 0.15003 0.88402 0.83038 0.0
H1367 H 0.15841 0.80443 0.8317 0.0
H1368 H 0.15798 0.80525 0.8745 0.0
H1369 H 0.21548 0.89377 0.87759 0.0
H1370 H 0.18951 0.92006 0.88872 0.0
H1371 H 0.18764 0.91303 0.85833 0.0
H1372 H 0.11223 0.91191 0.86014 0.0
H1373 H 0.11386 0.91893 0.89056 0.0
H1374 H 0.08851 0.8919 0.88063 0.0
H1375 H 0.15525 0.8149 0.91716 0.0
H1376 H 0.1572 0.83273 0.95648 0.0
H1377 H 0.15629 0.90615 0.92708 0.0
C1378 C 0.15133 0.86677 0.83972 0.0
C1379 C 0.15375 0.84412 0.82785 0.0
C1380 C 0.15639 0.82194 0.84056 0.0
C1381 C 0.15603 0.82224 0.86482 0.0
C1382 C 0.15372 0.8449 0.87603 0.0
C1383 C 0.15196 0.86678 0.8639 0.0
C1384 C 0.15221 0.88871 0.88005 0.0
C1385 C 0.18837 0.90484 0.87592 0.0
C1386 C 0.11445 0.90375 0.8777 0.0
C1387 C 0.15423 0.87577 0.90319 0.0
C1388 C 0.15448 0.8505 0.90052 0.0
C1389 C 0.15531 0.83466 0.91946 0.0
C1390 C 0.15628 0.84494 0.9417 0.0
C1391 C 0.15714 0.87078 0.94477 0.0
C1392 C 0.15603 0.88632 0.92522 0.0
H1393 H 0.11963 0.36949 0.83271 0.0
H1394 H 0.11278 0.44905 0.82832 0.0
H1395 H 0.11904 0.45196 0.87077 0.0
H1396 H 0.06097 0.36462 0.88397 0.0
H1397 H 0.08818 0.33921 0.89582 0.0
H1398 H 0.08562 0.34339 0.86498 0.0
H1399 H 0.16102 0.34391 0.86276 0.0
H1400 H 0.1638 0.33981 0.89362 0.0
H1401 H 0.1879 0.36554 0.88015 0.0
H1402 H 0.12746 0.44638 0.91316 0.0
H1403 H 0.13032 0.43267 0.95373 0.0
H1404 H 0.12655 0.35652 0.93119 0.0
C1405 C 0.11974 0.38749 0.84074 0.0
C1406 C 0.11607 0.40908 0.82737 0.0
C1407 C 0.11555 0.43233 0.83837 0.0
C1408 C 0.11928 0.43416 0.8624 0.0
C1409 C 0.12285 0.41254 0.87514 0.0
C1410 C 0.12253 0.38962 0.86479 0.0
C1411 C 0.12441 0.36927 0.88266 0.0
C1412 C 0.0876 0.35318 0.8818 0.0
C1413 C 0.16149 0.35372 0.87961 0.0
C1414 C 0.12597 0.38437 0.90465 0.0
C1415 C 0.12564 0.40927 0.89983 0.0
C1416 C 0.12755 0.42694 0.91719 0.0
C1417 C 0.12934 0.41896 0.94016 0.0
C1418 C 0.12856 0.39355 0.94556 0.0
C1419 C 0.12699 0.37605 0.92754 0.0
H1420 H 0.85913 0.64557 0.67863 0.0
H1421 H 0.87557 0.57052 0.70228 0.0
H1422 H 0.87264 0.55595 0.66177 0.0
H1423 H 0.79221 0.63274 0.63313 0.0
H1424 H 0.81223 0.65536 0.61368 0.0
H1425 H 0.81579 0.6598 0.64445 0.0
H1426 H 0.89075 0.66402 0.64101 0.0
H1427 H 0.88743 0.65971 0.61021 0.0
H1428 H 0.9184 0.63994 0.62718 0.0
H1429 H 0.86471 0.54957 0.61877 0.0
H1430 H 0.85784 0.55198 0.57635 0.0
H1431 H 0.84978 0.63153 0.58079 0.0
C1432 C 0.86216 0.62605 0.67532 0.0
C1433 C 0.86737 0.60913 0.69362 0.0
C1434 C 0.87163 0.58379 0.68852 0.0
C1435 C 0.86986 0.57536 0.66559 0.0
C1436 C 0.86432 0.59255 0.64798 0.0
C1437 C 0.86101 0.61739 0.65257 0.0
C1438 C 0.85596 0.63214 0.63054 0.0
C1439 C 0.81671 0.64581 0.63045 0.0
C1440 C 0.89018 0.65 0.62703 0.0
C1441 C 0.85659 0.61168 0.61279 0.0
C1442 C 0.86112 0.58897 0.62322 0.0
C1443 C 0.86144 0.56726 0.61042 0.0
C1444 C 0.85734 0.56883 0.58634 0.0
C1445 C 0.8534 0.59195 0.57524 0.0
C1446 C 0.85304 0.61361 0.58874 0.0
H1447 H 0.90352 0.09791 0.67452 0.0
H1448 H 0.89493 0.17302 0.69935 0.0
H1449 H 0.90047 0.18823 0.65913 0.0
H1450 H 0.97232 0.10825 0.62969 0.0
H1451 H 0.95006 0.08712 0.60966 0.0
H1452 H 0.94512 0.08223 0.6403 0.0
H1453 H 0.86995 0.08188 0.63627 0.0
H1454 H 0.87465 0.0866 0.60557 0.0
H1455 H 0.84579 0.10753 0.62266 0.0
H1456 H 0.91168 0.19509 0.61632 0.0
H1457 H 0.9201 0.19307 0.57387 0.0
H1458 H 0.91658 0.11337 0.57701 0.0
C1459 C 0.90265 0.11756 0.67148 0.0
C1460 C 0.89901 0.13433 0.69001 0.0
C1461 C 0.89756 0.15988 0.68535 0.0
C1462 C 0.90087 0.16867 0.6626 0.0
C1463 C 0.90493 0.15163 0.64473 0.0
C1464 C 0.90514 0.1266 0.64889 0.0
C1465 C 0.90891 0.11211 0.62664 0.0
C1466 C 0.94633 0.09651 0.62658 0.0
C1467 C 0.87266 0.09609 0.62255 0.0
C1468 C 0.91133 0.13289 0.60929 0.0
C1469 C 0.90941 0.15556 0.62007 0.0
C1470 C 0.91275 0.17745 0.60768 0.0
C1471 C 0.91772 0.17612 0.58362 0.0
C1472 C 0.91871 0.15308 0.57219 0.0
C1473 C 0.91545 0.13124 0.58527 0.0
H1474 H 0.8609 0.10531 0.18365 0.0
H1475 H 0.86091 0.18514 0.18424 0.0
H1476 H 0.86262 0.1855 0.14156 0.0
H1477 H 0.92381 0.09686 0.13361 0.0
H1478 H 0.89645 0.07109 0.12266 0.0
H1479 H 0.89783 0.07704 0.15329 0.0
H1480 H 0.8224 0.07847 0.15438 0.0
H1481 H 0.82079 0.07253 0.12378 0.0
H1482 H 0.79682 0.0993 0.13547 0.0
H1483 H 0.86393 0.17726 0.09891 0.0
H1484 H 0.86024 0.16107 0.05911 0.0
H1485 H 0.85577 0.08659 0.0861 0.0
C1486 C 0.86174 0.12284 0.17478 0.0
C1487 C 0.86109 0.14521 0.18723 0.0
C1488 C 0.86141 0.1678 0.17502 0.0
C1489 C 0.86253 0.16819 0.1508 0.0
C1490 C 0.86288 0.14584 0.13902 0.0
C1491 C 0.86217 0.12358 0.15056 0.0
C1492 C 0.86048 0.10223 0.13372 0.0
C1493 C 0.89681 0.08584 0.13596 0.0
C1494 C 0.82288 0.08726 0.13704 0.0
C1495 C 0.86025 0.11598 0.11094 0.0
C1496 C 0.86213 0.1411 0.11439 0.0
C1497 C 0.86242 0.15762 0.09598 0.0
C1498 C 0.8604 0.14824 0.07343 0.0
C1499 C 0.85762 0.12258 0.06947 0.0
C1500 C 0.85772 0.1063 0.08855 0.0
H1501 H 0.92523 0.66813 0.09015 0.0
H1502 H 0.89716 0.59583 0.06297 0.0
H1503 H 0.89636 0.5791 0.10257 0.0
H1504 H 0.98835 0.64824 0.13524 0.0
H1505 H 0.97194 0.67076 0.15595 0.0
H1506 H 0.96944 0.6774 0.12549 0.0
H1507 H 0.89556 0.68634 0.12917 0.0
H1508 H 0.89786 0.67985 0.15968 0.0
H1509 H 0.86399 0.66339 0.14162 0.0
H1510 H 0.9027 0.56955 0.14465 0.0
H1511 H 0.91046 0.56841 0.18701 0.0
H1512 H 0.93109 0.64718 0.18757 0.0
C1513 C 0.91864 0.64882 0.09255 0.0
C1514 C 0.91131 0.63329 0.07341 0.0
C1515 C 0.90272 0.60813 0.07731 0.0
C1516 C 0.90231 0.59842 0.09976 0.0
C1517 C 0.91009 0.61414 0.11819 0.0
C1518 C 0.91761 0.63886 0.11491 0.0
C1519 C 0.92483 0.65171 0.13779 0.0
C1520 C 0.96609 0.66267 0.13866 0.0
C1521 C 0.8937 0.67149 0.14233 0.0
C1522 C 0.92066 0.63028 0.1544 0.0
C1523 C 0.91242 0.60876 0.14266 0.0
C1524 C 0.90876 0.58631 0.15406 0.0
C1525 C 0.9134 0.58584 0.17812 0.0
C1526 C 0.92119 0.60771 0.19061 0.0
C1527 C 0.92474 0.63022 0.17852 0.0
H1528 H 0.66616 0.39882 0.92811 0.0
H1529 H 0.67209 0.3256 0.95779 0.0
H1530 H 0.67311 0.30769 0.91848 0.0
H1531 H 0.60226 0.38266 0.88055 0.0
H1532 H 0.62556 0.4034 0.86056 0.0
H1533 H 0.62523 0.41032 0.89101 0.0
H1534 H 0.70051 0.41358 0.89064 0.0
H1535 H 0.70109 0.40661 0.86021 0.0
H1536 H 0.72904 0.3881 0.88004 0.0
H1537 H 0.6771 0.29797 0.87567 0.0
H1538 H 0.67884 0.29702 0.83294 0.0
H1539 H 0.66667 0.37645 0.83129 0.0
C1540 C 0.66758 0.379 0.92637 0.0
C1541 C 0.66921 0.36361 0.94607 0.0
C1542 C 0.67073 0.33776 0.94299 0.0
C1543 C 0.67143 0.32743 0.92071 0.0
C1544 C 0.67008 0.34315 0.90167 0.0
C1545 C 0.66773 0.36838 0.90429 0.0
C1546 C 0.66611 0.38121 0.88103 0.0
C1547 C 0.62749 0.39522 0.87812 0.0
C1548 C 0.70129 0.39839 0.8778 0.0
C1549 C 0.66832 0.35929 0.86488 0.0
C1550 C 0.67089 0.33751 0.87711 0.0
C1551 C 0.67472 0.31491 0.86593 0.0
C1552 C 0.6758 0.31455 0.84165 0.0
C1553 C 0.67259 0.33662 0.82875 0.0
C1554 C 0.66868 0.35923 0.84063 0.0
H1555 H 0.60911 0.84818 0.92364 0.0
H1556 H 0.61884 0.92233 0.95083 0.0
H1557 H 0.61748 0.93888 0.91104 0.0
H1558 H 0.67148 0.8582 0.87388 0.0
H1559 H 0.64316 0.83859 0.85522 0.0
H1560 H 0.64472 0.83267 0.88584 0.0
H1561 H 0.56936 0.8347 0.88764 0.0
H1562 H 0.56757 0.84068 0.85705 0.0
H1563 H 0.54461 0.86167 0.87698 0.0
H1564 H 0.61124 0.94743 0.86829 0.0
H1565 H 0.60595 0.94712 0.82564 0.0
H1566 H 0.60457 0.86731 0.82631 0.0
C1567 C 0.61099 0.8679 0.92122 0.0
C1568 C 0.61388 0.88399 0.94034 0.0
C1569 C 0.61669 0.90966 0.93644 0.0
C1570 C 0.61583 0.91924 0.91391 0.0
C1571 C 0.61273 0.90288 0.89545 0.0
C1572 C 0.61084 0.87774 0.89884 0.0
C1573 C 0.60837 0.86413 0.87604 0.0
C1574 C 0.64406 0.84741 0.87254 0.0
C1575 C 0.5702 0.84943 0.87434 0.0
C1576 C 0.6087 0.88554 0.85928 0.0
C1577 C 0.61089 0.90776 0.87082 0.0
C1578 C 0.60995 0.93014 0.85906 0.0
C1579 C 0.60682 0.92979 0.83486 0.0
C1580 C 0.60521 0.90721 0.82268 0.0
C1581 C 0.60633 0.88485 0.83513 0.0
H1582 H 0.65573 0.85601 0.4337 0.0
H1583 H 0.66646 0.93544 0.4371 0.0
H1584 H 0.66208 0.93778 0.39452 0.0
H1585 H 0.71612 0.84887 0.38404 0.0
H1586 H 0.68825 0.82389 0.37198 0.0
H1587 H 0.68901 0.82863 0.40277 0.0
H1588 H 0.61361 0.83104 0.40323 0.0
H1589 H 0.61263 0.82635 0.3724 0.0
H1590 H 0.58919 0.85293 0.38483 0.0
H1591 H 0.65687 0.93145 0.35153 0.0
H1592 H 0.65718 0.91661 0.31112 0.0
H1593 H 0.654 0.84121 0.33571 0.0
C1594 C 0.65668 0.87389 0.42546 0.0
C1595 C 0.6611 0.89557 0.43864 0.0
C1596 C 0.66307 0.91861 0.42728 0.0
C1597 C 0.66041 0.92014 0.40313 0.0
C1598 C 0.65628 0.89842 0.39059 0.0
C1599 C 0.65485 0.87571 0.40133 0.0
C1600 C 0.65296 0.85508 0.38377 0.0
C1601 C 0.68872 0.83813 0.38576 0.0
C1602 C 0.61482 0.8405 0.38621 0.0
C1603 C 0.65373 0.86973 0.36151 0.0
C1604 C 0.65504 0.89471 0.36581 0.0
C1605 C 0.65588 0.91192 0.34794 0.0
C1606 C 0.65593 0.90334 0.32506 0.0
C1607 C 0.65575 0.87778 0.32029 0.0
C1608 C 0.65433 0.86086 0.33882 0.0
H1609 H 0.61225 0.34911 0.42667 0.0
H1610 H 0.62638 0.42323 0.45338 0.0
H1611 H 0.61886 0.43991 0.41415 0.0
H1612 H 0.66696 0.3597 0.37366 0.0
H1613 H 0.63605 0.34058 0.35604 0.0
H1614 H 0.64159 0.33401 0.38639 0.0
H1615 H 0.5668 0.33627 0.39174 0.0
H1616 H 0.56102 0.34288 0.36142 0.0
H1617 H 0.54098 0.36352 0.38273 0.0
H1618 H 0.60745 0.44912 0.37302 0.0
H1619 H 0.59769 0.45042 0.33096 0.0
H1620 H 0.59491 0.37057 0.32883 0.0
C1621 C 0.6137 0.36883 0.4242 0.0
C1622 C 0.61982 0.38486 0.44318 0.0
C1623 C 0.6219 0.41055 0.43919 0.0
C1624 C 0.61752 0.42025 0.41695 0.0
C1625 C 0.61155 0.40406 0.39867 0.0
C1626 C 0.61006 0.3789 0.40187 0.0
C1627 C 0.60442 0.36579 0.37886 0.0
C1628 C 0.63934 0.34903 0.37342 0.0
C1629 C 0.56602 0.35126 0.37869 0.0
C1630 C 0.60271 0.38758 0.36237 0.0
C1631 C 0.60652 0.40943 0.37436 0.0
C1632 C 0.60469 0.43215 0.36338 0.0
C1633 C 0.59896 0.43268 0.33945 0.0
C1634 C 0.5956 0.41063 0.32654 0.0
C1635 C 0.59769 0.38773 0.3382 0.0
H1636 H 0.37018 0.65636 0.17416 0.0
H1637 H 0.38186 0.58255 0.20188 0.0
H1638 H 0.37989 0.56547 0.16242 0.0
H1639 H 0.30611 0.64189 0.127 0.0
H1640 H 0.32926 0.66258 0.1069 0.0
H1641 H 0.33035 0.66914 0.13741 0.0
H1642 H 0.40572 0.67141 0.13612 0.0
H1643 H 0.40485 0.66491 0.10559 0.0
H1644 H 0.433 0.64575 0.12476 0.0
H1645 H 0.37294 0.55616 0.12042 0.0
H1646 H 0.36902 0.55558 0.07769 0.0
H1647 H 0.36827 0.63536 0.07682 0.0
C1648 C 0.37228 0.63663 0.17183 0.0
C1649 C 0.37602 0.62072 0.19096 0.0
C1650 C 0.37916 0.59502 0.18737 0.0
C1651 C 0.37788 0.58513 0.16507 0.0
C1652 C 0.37416 0.60124 0.14653 0.0
C1653 C 0.37205 0.62645 0.14958 0.0
C1654 C 0.36992 0.63965 0.12656 0.0
C1655 C 0.33163 0.65417 0.12434 0.0
C1656 C 0.4055 0.65641 0.12305 0.0
C1657 C 0.37081 0.61789 0.1102 0.0
C1658 C 0.37267 0.5959 0.12211 0.0
C1659 C 0.37197 0.57324 0.11084 0.0
C1660 C 0.36962 0.57307 0.08666 0.0
C1661 C 0.36885 0.59539 0.07415 0.0
C1662 C 0.36952 0.61805 0.08607 0.0
H1663 H 0.40683 0.0983 0.18359 0.0
H1664 H 0.38653 0.17295 0.20765 0.0
H1665 H 0.38066 0.18705 0.16746 0.0
H1666 H 0.46436 0.11404 0.1345 0.0
H1667 H 0.44423 0.09068 0.11591 0.0
H1668 H 0.44551 0.08594 0.1467 0.0
H1669 H 0.37103 0.07836 0.14687 0.0
H1670 H 0.3695 0.08314 0.11605 0.0
H1671 H 0.33892 0.10128 0.13483 0.0
H1672 H 0.38184 0.19399 0.12545 0.0
H1673 H 0.38748 0.19309 0.08297 0.0
H1674 H 0.40309 0.11393 0.08489 0.0
C1675 C 0.40098 0.11757 0.18036 0.0
C1676 C 0.39719 0.13452 0.1988 0.0
C1677 C 0.38945 0.15959 0.19387 0.0
C1678 C 0.38603 0.16781 0.17108 0.0
C1679 C 0.38998 0.15072 0.15334 0.0
C1680 C 0.39701 0.12611 0.1576 0.0
C1681 C 0.40057 0.11182 0.13514 0.0
C1682 C 0.44108 0.09992 0.13294 0.0
C1683 C 0.36806 0.09251 0.13311 0.0
C1684 C 0.39515 0.13238 0.11769 0.0
C1685 C 0.38916 0.15465 0.1287 0.0
C1686 C 0.38591 0.17665 0.11658 0.0
C1687 C 0.38923 0.17597 0.09251 0.0
C1688 C 0.3952 0.15344 0.08082 0.0
C1689 C 0.39766 0.13129 0.0935 0.0
H1690 H 0.3511 0.15507 0.68356 0.0
H1691 H 0.34595 0.08062 0.71051 0.0
H1692 H 0.34689 0.06434 0.67058 0.0
H1693 H 0.29011 0.14584 0.63459 0.0
H1694 H 0.31825 0.16543 0.61579 0.0
H1695 H 0.31754 0.17114 0.64644 0.0
H1696 H 0.3929 0.16856 0.64763 0.0
H1697 H 0.39387 0.16296 0.61695 0.0
H1698 H 0.41701 0.1416 0.63642 0.0
H1699 H 0.34534 0.05644 0.62767 0.0
H1700 H 0.34629 0.05722 0.585 0.0
H1701 H 0.35519 0.13687 0.58637 0.0
C1702 C 0.35023 0.13533 0.68109 0.0
C1703 C 0.34827 0.11908 0.70012 0.0
C1704 C 0.34754 0.09338 0.69617 0.0
C1705 C 0.34794 0.08398 0.67357 0.0
C1706 C 0.34951 0.10055 0.6552 0.0
C1707 C 0.35108 0.12566 0.65873 0.0
C1708 C 0.35319 0.13953 0.63607 0.0
C1709 C 0.31765 0.15648 0.63305 0.0
C1710 C 0.39153 0.15401 0.63416 0.0
C1711 C 0.35218 0.11829 0.61919 0.0
C1712 C 0.34981 0.09597 0.63055 0.0
C1713 C 0.34747 0.0738 0.61859 0.0
C1714 C 0.34787 0.07444 0.59436 0.0
C1715 C 0.35094 0.0971 0.58238 0.0
C1716 C 0.35311 0.11926 0.59504 0.0
H1717 H 0.43219 0.64954 0.6859 0.0
H1718 H 0.40409 0.5717 0.68837 0.0
H1719 H 0.3967 0.57116 0.64607 0.0
H1720 H 0.36697 0.66607 0.63957 0.0
H1721 H 0.40043 0.68722 0.6261 0.0
H1722 H 0.40269 0.68197 0.65682 0.0
H1723 H 0.47549 0.66994 0.65322 0.0
H1724 H 0.47348 0.67521 0.6225 0.0
H1725 H 0.48956 0.64587 0.63346 0.0
H1726 H 0.39 0.57886 0.60444 0.0
H1727 H 0.38972 0.59358 0.56429 0.0
H1728 H 0.42631 0.666 0.58739 0.0
C1729 C 0.42439 0.63246 0.67747 0.0
C1730 C 0.41858 0.61067 0.69034 0.0
C1731 C 0.40885 0.58856 0.67879 0.0
C1732 C 0.40441 0.58808 0.6548 0.0
C1733 C 0.41032 0.60979 0.6426 0.0
C1734 C 0.42055 0.63152 0.65338 0.0
C1735 C 0.42651 0.65195 0.63585 0.0
C1736 C 0.39741 0.67305 0.63983 0.0
C1737 C 0.46878 0.66128 0.63629 0.0
C1738 C 0.41776 0.63824 0.61362 0.0
C1739 C 0.40808 0.61403 0.61808 0.0
C1740 C 0.39774 0.59773 0.60065 0.0
C1741 C 0.39752 0.60632 0.57791 0.0
C1742 C 0.40806 0.6309 0.57276 0.0
C1743 C 0.4184 0.64707 0.59086 0.0
H1744 H 0.30894 0.34377 0.26088 0.0
H1745 H 0.24273 0.41098 0.25026 0.0
H1746 H 0.30378 0.43438 0.24713 0.0
H1747 H 0.38328 0.3707 0.296 0.0
H1748 H 0.42242 0.35253 0.28412 0.0
H1749 H 0.37358 0.34048 0.28454 0.0
H1750 H 0.37675 0.33341 0.2403 0.0
H1751 H 0.42565 0.34544 0.23975 0.0
H1752 H 0.3887 0.35877 0.22151 0.0
H1753 H 0.37062 0.4509 0.2463 0.0
H1754 H 0.4405 0.46008 0.2481 0.0
H1755 H 0.4656 0.38262 0.25934 0.0
C1756 C 0.30732 0.36337 0.25771 0.0
C1757 C 0.27091 0.37551 0.25578 0.0
C1758 C 0.27012 0.40123 0.25183 0.0
C1759 C 0.30468 0.41471 0.24997 0.0
C1760 C 0.33995 0.40228 0.2521 0.0
C1761 C 0.34171 0.37722 0.25587 0.0
C1762 C 0.38372 0.36868 0.25814 0.0
C1763 C 0.39118 0.35744 0.28213 0.0
C1764 C 0.39432 0.3505 0.23877 0.0
C1765 C 0.40514 0.39292 0.25523 0.0
C1766 C 0.37912 0.41196 0.25168 0.0
C1767 C 0.39134 0.43616 0.24899 0.0
C1768 C 0.43122 0.44117 0.25009 0.0
C1769 C 0.45872 0.4221 0.25387 0.0
C1770 C 0.4454 0.39758 0.2563 0.0
H1771 H 0.7863 0.88543 0.25853 0.0
H1772 H 0.81128 0.80763 0.2674 0.0
H1773 H 0.88148 0.8169 0.26903 0.0
H1774 H 0.86883 0.8993 0.2223 0.0
H1775 H 0.87748 0.92906 0.23504 0.0
H1776 H 0.82895 0.9165 0.23461 0.0
H1777 H 0.82437 0.92148 0.27905 0.0
H1778 H 0.87292 0.93402 0.27963 0.0
H1779 H 0.86106 0.90765 0.29716 0.0
H1780 H 0.94835 0.83405 0.26929 0.0
H1781 H 1.00884 0.85804 0.26837 0.0
H1782 H 0.94195 0.92534 0.25986 0.0
C1783 C 0.80653 0.87033 0.26079 0.0
C1784 C 0.79319 0.84575 0.26281 0.0
C1785 C 0.82068 0.82657 0.26582 0.0
C1786 C 0.86065 0.83165 0.26677 0.0
C1787 C 0.87276 0.85601 0.26477 0.0
C1788 C 0.84664 0.87508 0.26187 0.0
C1789 C 0.86763 0.89962 0.26021 0.0
C1790 C 0.86028 0.91183 0.23663 0.0
C1791 C 0.85579 0.9167 0.28021 0.0
C1792 C 0.90967 0.89131 0.26254 0.0
C1793 C 0.91175 0.86606 0.26513 0.0
C1794 C 0.94712 0.85383 0.26731 0.0
C1795 C 0.98139 0.86771 0.26672 0.0
C1796 C 0.9803 0.89365 0.26403 0.0
C1797 C 0.9438 0.90559 0.26204 0.0
H1798 H 0.29122 0.86265 0.99711 0.0
H1799 H 0.30761 0.93674 0.02333 0.0
H1800 H 0.37753 0.92867 0.02835 0.0
H1801 H 0.36541 0.83231 0.0338 0.0
H1802 H 0.38214 0.81226 0.01105 0.0
H1803 H 0.33224 0.8226 0.01146 0.0
H1804 H 0.34017 0.83984 0.97001 0.0
H1805 H 0.39006 0.82959 0.96948 0.0
H1806 H 0.37869 0.86144 0.96401 0.0
H1807 H 0.44468 0.91431 0.02901 0.0
H1808 H 0.5083 0.89481 0.02388 0.0
H1809 H 0.45235 0.82963 0.99572 0.0
C1810 C 0.30958 0.87693 1.00427 0.0
C1811 C 0.29404 0.9003 0.00998 0.0
C1812 C 0.31895 0.91876 0.01882 0.0
C1813 C 0.35867 0.91432 0.02185 0.0
C1814 C 0.3733 0.89135 0.01576 0.0
C1815 C 0.34983 0.87292 1.00705 0.0
C1816 C 0.37418 0.85057 1.00041 0.0
C1817 C 0.36281 0.8281 0.01506 0.0
C1818 C 0.37055 0.84504 0.97443 0.0
C1819 C 0.41486 0.85959 1.00649 0.0
C1820 C 0.41322 0.88308 0.01556 0.0
C1821 C 0.44645 0.89588 0.02201 0.0
C1822 C 0.48257 0.88458 0.01893 0.0
C1823 C 0.48557 0.86064 0.00931 0.0
C1824 C 0.45107 0.84786 1.00323 0.0
H1825 H 0.96388 0.34169 0.01008 0.0
H1826 H 0.01547 0.41426 1.00255 0.0
H1827 H 0.95043 0.43271 1.00102 0.0
H1828 H 0.88167 0.35246 0.97178 0.0
H1829 H 0.84743 0.33549 0.98922 0.0
H1830 H 0.89831 0.32731 0.98955 0.0
H1831 H 0.89955 0.3324 0.03404 0.0
H1832 H 0.84871 0.34064 0.03384 0.0
H1833 H 0.88388 0.36105 0.04672 0.0
H1834 H 0.88113 0.44396 1.00011 0.0
H1835 H 0.80977 0.44745 1.00014 0.0
H1836 H 0.80015 0.36827 0.00883 0.0
C1837 C 0.96141 0.36143 0.00804 0.0
C1838 C 0.99505 0.37645 1.00648 0.0
C1839 C 0.99042 0.40225 1.00391 0.0
C1840 C 0.95348 0.413 1.00297 0.0
C1841 C 0.92107 0.39783 1.00469 0.0
C1842 C 0.92439 0.37263 1.00719 0.0
C1843 C 0.88427 0.36086 0.00882 0.0
C1844 C 0.87753 0.34297 0.98864 0.0
C1845 C 0.87879 0.34797 0.03225 0.0
C1846 C 0.85822 0.38343 1.00682 0.0
C1847 C 0.88031 0.40449 1.0044 0.0
C1848 C 0.86342 0.42763 1.00202 0.0
C1849 C 0.82276 0.4294 1.00205 0.0
C1850 C 0.79917 0.40818 1.00452 0.0
C1851 C 0.81731 0.38487 1.00702 0.0
H1852 H 0.70768 0.66226 0.75265 0.0
H1853 H 0.76329 0.59378 0.77312 0.0
H1854 H 0.69933 0.57408 0.77649 0.0
H1855 H 0.62322 0.65616 0.79089 0.0
H1856 H 0.58961 0.66898 0.77021 0.0
H1857 H 0.63993 0.67837 0.76997 0.0
H1858 H 0.64534 0.6658 0.72689 0.0
H1859 H 0.59511 0.65628 0.72703 0.0
H1860 H 0.63259 0.63493 0.71838 0.0
H1861 H 0.63044 0.56079 0.77615 0.0
H1862 H 0.55935 0.55527 0.77353 0.0
H1863 H 0.54659 0.63204 0.75405 0.0
C1864 C 0.70633 0.6432 0.75804 0.0
C1865 C 0.74071 0.62964 0.76258 0.0
C1866 C 0.73758 0.60466 0.76948 0.0
C1867 C 0.70129 0.59321 0.77147 0.0
C1868 C 0.66812 0.60692 0.76662 0.0
C1869 C 0.67008 0.63138 0.76019 0.0
C1870 C 0.6296 0.64161 0.75573 0.0
C1871 C 0.62003 0.66252 0.77271 0.0
C1872 C 0.62543 0.65016 0.73051 0.0
C1873 C 0.60488 0.619 0.76048 0.0
C1874 C 0.62783 0.59922 0.76671 0.0
C1875 C 0.61205 0.57616 0.77143 0.0
C1876 C 0.57161 0.5732 0.76983 0.0
C1877 C 0.5473 0.5932 0.76365 0.0
C1878 C 0.56432 0.61641 0.75896 0.0
H1879 H 0.06054 0.08562 0.75569 0.0
H1880 H 0.99953 0.15564 0.75866 0.0
H1881 H 0.06207 0.17744 0.75971 0.0
H1882 H 0.13901 0.10321 0.79467 0.0
H1883 H 0.17583 0.08654 0.77888 0.0
H1884 H 0.12607 0.07604 0.77855 0.0
H1885 H 0.12616 0.07752 0.73379 0.0
H1886 H 0.17585 0.0881 0.73399 0.0
H1887 H 0.13894 0.10575 0.7193 0.0
H1888 H 0.13052 0.19214 0.75886 0.0
H1889 H 0.20166 0.19858 0.75831 0.0
H1890 H 0.21942 0.11947 0.75722 0.0
C1891 C 0.06039 0.10551 0.75667 0.0
C1892 C 0.02497 0.11884 0.75708 0.0
C1893 C 0.02612 0.14491 0.75839 0.0
C1894 C 0.06156 0.15755 0.75895 0.0
C1895 C 0.09583 0.14395 0.75836 0.0
C1896 C 0.0957 0.11853 0.75745 0.0
C1897 C 0.13698 0.10853 0.75711 0.0
C1898 C 0.14493 0.09264 0.77858 0.0
C1899 C 0.14494 0.09412 0.73471 0.0
C1900 C 0.16008 0.13232 0.75781 0.0
C1901 C 0.13569 0.1525 0.75841 0.0
C1902 C 0.15001 0.17648 0.75854 0.0
C1903 C 0.19045 0.17996 0.75816 0.0
C1904 C 0.21612 0.15957 0.75784 0.0
C1905 C 0.20057 0.13545 0.75767 0.0
H1906 H 0.57207 0.16979 0.00994 0.0
H1907 H 0.50202 0.10365 0.01625 0.0
H1908 H 0.5618 0.07847 0.01693 0.0
H1909 H 0.64517 0.14374 0.97233 0.0
H1910 H 0.68478 0.1604 0.98546 0.0
H1911 H 0.63642 0.17327 0.98556 0.0
H1912 H 0.63917 0.17729 0.03017 0.0
H1913 H 0.68751 0.16439 0.0302 0.0
H1914 H 0.6497 0.15049 0.04744 0.0
H1915 H 0.62946 0.06038 0.01751 0.0
H1916 H 0.69985 0.05081 0.01684 0.0
H1917 H 0.72567 0.12861 0.00953 0.0
C1918 C 0.56926 0.15002 0.01145 0.0
C1919 C 0.53223 0.13875 0.01306 0.0
C1920 C 0.52996 0.11277 0.01496 0.0
C1921 C 0.56379 0.09827 0.01539 0.0
C1922 C 0.59978 0.10996 0.01383 0.0
C1923 C 0.60275 0.13523 0.01181 0.0
C1924 C 0.64498 0.14318 0.01025 0.0
C1925 C 0.65332 0.15589 0.98702 0.0
C1926 C 0.65598 0.15982 0.03073 0.0
C1927 C 0.66525 0.11845 0.01177 0.0
C1928 C 0.63869 0.09952 0.0139 0.0
C1929 C 0.65053 0.07506 0.01579 0.0
C1930 C 0.6906 0.0698 0.01543 0.0
C1931 C 0.71837 0.08891 0.01308 0.0
C1932 C 0.70528 0.11353 0.01126 0.0
H1933 H 0.19998 0.58013 1.00157 0.0
H1934 H 0.26763 0.64658 0.01295 0.0
H1935 H 0.20719 0.67054 0.01628 0.0
H1936 H 0.12435 0.60879 0.96719 0.0
H1937 H 0.08553 0.59058 0.97932 0.0
H1938 H 0.13417 0.57821 0.97777 0.0
H1939 H 0.13296 0.56995 0.02186 0.0
H1940 H 0.08434 0.58234 0.02355 0.0
H1941 H 0.12241 0.5949 0.04144 0.0
H1942 H 0.14073 0.6875 0.01877 0.0
H1943 H 0.07086 0.697 0.01965 0.0
H1944 H 0.0441 0.62012 1.00646 0.0
C1945 C 0.20204 0.59972 1.00473 0.0
C1946 C 0.23871 0.61143 1.00699 0.0
C1947 C 0.24006 0.63712 0.01113 0.0
C1948 C 0.20584 0.65094 0.01307 0.0
C1949 C 0.17032 0.6389 0.01083 0.0
C1950 C 0.16798 0.61392 1.0067 0.0
C1951 C 0.12575 0.60575 1.00498 0.0
C1952 C 0.11694 0.59521 0.98088 0.0
C1953 C 0.11579 0.58713 0.0241 0.0
C1954 C 0.10489 0.63007 0.00881 0.0
C1955 C 0.13136 0.64886 0.01218 0.0
C1956 C 0.11966 0.67298 0.01613 0.0
C1957 C 0.07977 0.67815 0.01661 0.0
C1958 C 0.05179 0.65933 0.01312 0.0
C1959 C 0.06467 0.63492 0.00919 0.0
H1960 H 0.47525 0.8699 0.75422 0.0
H1961 H 0.4478 0.94795 0.75486 0.0
H1962 H 0.37798 0.93826 0.75595 0.0
H1963 H 0.39557 0.8518 0.7174 0.0
H1964 H 0.38615 0.82338 0.73244 0.0
H1965 H 0.43456 0.83613 0.7322 0.0
H1966 H 0.43568 0.83564 0.77696 0.0
H1967 H 0.38728 0.82285 0.77734 0.0
H1968 H 0.3974 0.85093 0.79279 0.0
H1969 H 0.31158 0.92086 0.75687 0.0
H1970 H 0.25139 0.89641 0.75718 0.0
H1971 H 0.31988 0.82916 0.75542 0.0
C1972 C 0.45453 0.88491 0.75468 0.0
C1973 C 0.46717 0.90971 0.75447 0.0
C1974 C 0.43903 0.92882 0.75496 0.0
C1975 C 0.39919 0.92353 0.75561 0.0
C1976 C 0.3877 0.89901 0.75571 0.0
C1977 C 0.41436 0.87996 0.75523 0.0
C1978 C 0.39373 0.85523 0.75516 0.0
C1979 C 0.40306 0.84079 0.73298 0.0
C1980 C 0.40415 0.84029 0.77686 0.0
C1981 C 0.35145 0.86348 0.75564 0.0
C1982 C 0.34884 0.88883 0.75602 0.0
C1983 C 0.31316 0.90098 0.75657 0.0
C1984 C 0.27909 0.88688 0.75675 0.0
C1985 C 0.28076 0.86082 0.75631 0.0
C1986 C 0.31756 0.84902 0.75572 0.0
H1987 H 0.79317 0.37423 0.75782 0.0
H1988 H 0.8259 0.29701 0.7553 0.0
H1989 H 0.89496 0.30861 0.75474 0.0
H1990 H 0.86943 0.3959 0.71956 0.0
H1991 H 0.87784 0.42397 0.73537 0.0
H1992 H 0.83032 0.40994 0.73569 0.0
H1993 H 0.83178 0.40874 0.78043 0.0
H1994 H 0.87929 0.42279 0.78025 0.0
H1995 H 0.87191 0.39391 0.79491 0.0
H1996 H 0.95988 0.32766 0.75486 0.0
H1997 H 0.01843 0.35352 0.75518 0.0
H1998 H 0.94597 0.41911 0.75708 0.0
C1999 C 0.81489 0.3598 0.75716 0.0
C2000 C 0.80394 0.33468 0.75661 0.0
C2001 C 0.83334 0.31637 0.75571 0.0
C2002 C 0.87277 0.32275 0.75539 0.0
C2003 C 0.88257 0.34755 0.75593 0.0
C2004 C 0.85468 0.36586 0.75675 0.0
C2005 C 0.87367 0.39111 0.75711 0.0
C2006 C 0.86212 0.40611 0.73565 0.0
C2007 C 0.86356 0.40495 0.77951 0.0
C2008 C 0.91648 0.384 0.75642 0.0
C2009 C 0.92069 0.35874 0.75579 0.0
C2010 C 0.95705 0.34748 0.75532 0.0
C2011 C 0.99019 0.3624 0.75554 0.0
C2012 C 0.98695 0.3884 0.75616 0.0
C2013 C 0.94945 0.39931 0.75653 0.0
H2014 H 0.30959 0.37083 0.50488 0.0
H2015 H 0.32695 0.44092 0.53944 0.0
H2016 H 0.39638 0.43144 0.54427 0.0
H2017 H 0.38088 0.33541 0.53932 0.0
H2018 H 0.3979 0.31785 0.51488 0.0
H2019 H 0.34836 0.32884 0.51566 0.0
H2020 H 0.35862 0.35065 0.47633 0.0
H2021 H 0.40814 0.33974 0.47543 0.0
H2022 H 0.39814 0.3722 0.4731 0.0
H2023 H 0.46334 0.41647 0.5436 0.0
H2024 H 0.52663 0.39686 0.53666 0.0
H2025 H 0.46912 0.33594 0.5021 0.0
C2026 C 0.328 0.38395 0.51375 0.0
C2027 C 0.31283 0.40661 0.52183 0.0
C2028 C 0.33789 0.42351 0.53302 0.0
C2029 C 0.37738 0.41825 0.53597 0.0
C2030 C 0.39157 0.39601 0.5276 0.0
C2031 C 0.36792 0.37908 0.51667 0.0
C2032 C 0.3917 0.35727 0.50812 0.0
C2033 C 0.37894 0.33343 0.52022 0.0
C2034 C 0.38898 0.35483 0.48168 0.0
C2035 C 0.43234 0.36492 0.51564 0.0
C2036 C 0.4312 0.38726 0.52702 0.0
C2037 C 0.4647 0.39889 0.53486 0.0
C2038 C 0.50055 0.38761 0.53073 0.0
C2039 C 0.50288 0.36487 0.51882 0.0
C2040 C 0.46819 0.35318 0.51147 0.0
H2041 H 0.9886 0.88311 0.509 0.0
H2042 H 0.97401 0.80437 0.49967 0.0
H2043 H 0.90269 0.80971 0.49988 0.0
H2044 H 0.90765 0.89169 0.5476 0.0
H2045 H 0.89389 0.92108 0.53569 0.0
H2046 H 0.94396 0.91122 0.53456 0.0
H2047 H 0.94434 0.91713 0.49011 0.0
H2048 H 0.8943 0.92707 0.49111 0.0
H2049 H 0.90821 0.90172 0.47278 0.0
H2050 H 0.83305 0.82337 0.50134 0.0
H2051 H 0.76961 0.84452 0.50353 0.0
H2052 H 0.82897 0.91449 0.51197 0.0
C2053 C 0.97044 0.86699 0.50693 0.0
C2054 C 0.98702 0.84331 0.5043 0.0
C2055 C 0.96211 0.82271 0.5017 0.0
C2056 C 0.92151 0.82554 0.50181 0.0
C2057 C 0.90616 0.84909 0.50453 0.0
C2058 C 0.92979 0.86947 0.50701 0.0
C2059 C 0.90575 0.89272 0.50972 0.0
C2060 C 0.91326 0.90489 0.53329 0.0
C2061 C 0.91362 0.91072 0.48974 0.0
C2062 C 0.86492 0.88219 0.50838 0.0
C2063 C 0.86588 0.85698 0.50539 0.0
C2064 C 0.83192 0.84311 0.50367 0.0
C2065 C 0.79599 0.85532 0.50495 0.0
C2066 C 0.79418 0.88119 0.50793 0.0
C2067 C 0.82927 0.89471 0.50971 0.0
H2068 H 0.53436 0.14563 0.26603 0.0
H2069 H 0.5492 0.06787 0.25064 0.0
H2070 H 0.61967 0.07371 0.24775 0.0
H2071 H 0.611 0.16761 0.22757 0.0
H2072 H 0.62772 0.19129 0.24698 0.0
H2073 H 0.57751 0.18167 0.24765 0.0
H2074 H 0.58355 0.17204 0.29132 0.0
H2075 H 0.63377 0.18165 0.29079 0.0
H2076 H 0.62119 0.1514 0.30114 0.0
H2077 H 0.6873 0.08662 0.24666 0.0
H2078 H 0.75126 0.10621 0.24787 0.0
H2079 H 0.69686 0.17641 0.26419 0.0
C2080 C 0.5525 0.1299 0.262 0.0
C2081 C 0.53598 0.10626 0.25859 0.0
C2082 C 0.56084 0.08615 0.25342 0.0
C2083 C 0.60107 0.08925 0.25167 0.0
C2084 C 0.6164 0.11259 0.25516 0.0
C2085 C 0.59322 0.13264 0.26025 0.0
C2086 C 0.61814 0.15557 0.26349 0.0
C2087 C 0.60798 0.1752 0.24534 0.0
C2088 C 0.61391 0.16576 0.28815 0.0
C2089 C 0.65873 0.14507 0.25944 0.0
C2090 C 0.65659 0.12023 0.25463 0.0
C2091 C 0.68949 0.10607 0.2504 0.0
C2092 C 0.72583 0.11748 0.25118 0.0
C2093 C 0.72939 0.14294 0.25618 0.0
C2094 C 0.69519 0.15696 0.26028 0.0
H2095 H 0.05111 0.6275 0.2574 0.0
H2096 H 0.06657 0.54854 0.26425 0.0
H2097 H 0.138 0.55419 0.26398 0.0
H2098 H 0.13113 0.63773 0.21877 0.0
H2099 H 0.14435 0.66682 0.23149 0.0
H2100 H 0.09453 0.65653 0.23251 0.0
H2101 H 0.09454 0.661 0.27711 0.0
H2102 H 0.14436 0.67131 0.27623 0.0
H2103 H 0.13117 0.64528 0.29386 0.0
H2104 H 0.20797 0.56856 0.26272 0.0
H2105 H 0.27086 0.59046 0.26057 0.0
H2106 H 0.20931 0.65998 0.25447 0.0
C2107 C 0.06943 0.61135 0.25889 0.0
C2108 C 0.05314 0.58755 0.26086 0.0
C2109 C 0.0783 0.56696 0.26273 0.0
C2110 C 0.11893 0.56998 0.26259 0.0
C2111 C 0.13397 0.59371 0.26058 0.0
C2112 C 0.10997 0.61403 0.25877 0.0
C2113 C 0.13342 0.63752 0.25666 0.0
C2114 C 0.12538 0.6504 0.23348 0.0
C2115 C 0.12539 0.65479 0.27719 0.0
C2116 C 0.17441 0.62726 0.25754 0.0
C2117 C 0.17412 0.60195 0.25982 0.0
C2118 C 0.20852 0.58838 0.26095 0.0
C2119 C 0.24413 0.601 0.25971 0.0
C2120 C 0.24513 0.62695 0.25735 0.0
C2121 C 0.20965 0.64014 0.25628 0.0
H2122 H 0.73047 0.62225 0.50532 0.0
H2123 H 0.70769 0.54424 0.49658 0.0
H2124 H 0.63692 0.55274 0.49621 0.0
H2125 H 0.65057 0.63488 0.54323 0.0
H2126 H 0.64054 0.6647 0.53097 0.0
H2127 H 0.68929 0.65247 0.53019 0.0
H2128 H 0.69095 0.65785 0.48569 0.0
H2129 H 0.64221 0.67012 0.48633 0.0
H2130 H 0.65334 0.64399 0.46832 0.0
H2131 H 0.56845 0.56983 0.49746 0.0
H2132 H 0.50775 0.59406 0.49973 0.0
H2133 H 0.57559 0.66095 0.50739 0.0
C2134 C 0.71068 0.6069 0.50327 0.0
C2135 C 0.72473 0.58254 0.50098 0.0
C2136 C 0.6977 0.56305 0.49835 0.0
C2137 C 0.65744 0.5677 0.49812 0.0
C2138 C 0.64465 0.59193 0.5005 0.0
C2139 C 0.67049 0.61121 0.50297 0.0
C2140 C 0.6493 0.63556 0.50532 0.0
C2141 C 0.65794 0.6476 0.52883 0.0
C2142 C 0.65956 0.6529 0.48521 0.0
C2143 C 0.60742 0.62699 0.50387 0.0
C2144 C 0.60535 0.60176 0.5011 0.0
C2145 C 0.56975 0.58959 0.49957 0.0
C2146 C 0.5354 0.60355 0.50091 0.0
C2147 C 0.5368 0.62945 0.50372 0.0
C2148 C 0.57343 0.64122 0.50517 0.0
H2149 H 0.04562 0.1116 0.51439 0.0
H2150 H 0.0681 0.17703 0.47342 0.0
H2151 H 0.13562 0.16367 0.46738 0.0
H2152 H 0.13647 0.11194 0.54344 0.0
H2153 H 0.14279 0.07902 0.54389 0.0
H2154 H 0.09454 0.09199 0.54316 0.0
H2155 H 0.07909 0.06677 0.50633 0.0
H2156 H 0.12741 0.05375 0.50691 0.0
H2157 H 0.11037 0.06946 0.48141 0.0
H2158 H 0.20067 0.14599 0.4678 0.0
H2159 H 0.26265 0.12519 0.47605 0.0
H2160 H 0.20178 0.07047 0.51703 0.0
C2161 C 0.0647 0.12283 0.50387 0.0
C2162 C 0.05155 0.14535 0.49432 0.0
C2163 C 0.07751 0.15979 0.48099 0.0
C2164 C 0.1159 0.15228 0.47731 0.0
C2165 C 0.12819 0.13027 0.48712 0.0
C2166 C 0.10367 0.1157 0.50021 0.0
C2167 C 0.12581 0.09385 0.51016 0.0
C2168 C 0.12484 0.09424 0.53674 0.0
C2169 C 0.1097 0.06951 0.50063 0.0
C2170 C 0.1666 0.09886 0.50098 0.0
C2171 C 0.16683 0.11986 0.4875 0.0
C2172 C 0.2009 0.12937 0.47809 0.0
C2173 C 0.23596 0.11745 0.48293 0.0
C2174 C 0.23691 0.09619 0.49703 0.0
C2175 C 0.20168 0.08642 0.50582 0.0
loop_
_geom_bond_atom_site_label_1
_geom_bond_atom_site_label_2
_geom_bond_distance
_geom_bond_site_symmetry_2
_ccdc_geom_bond_type
C0 O2 1.247 . S
C0 O4 1.258 . S
C1 O8 1.247 . S
C1 O9 1.258 . S
O2 C0 1.247 . S
O2 Zn3 2.028 . S
Zn3 O2 2.028 . S
Zn3 O7 2.035 . S
Zn3 O9 2.035 . S
Zn3 O10 2.028 . S
O4 C0 1.258 . S
O4 Zn5 2.035 . S
Zn5 O4 2.035 . S
Zn5 O6 2.028 . S
Zn5 O8 2.028 . S
Zn5 O11 2.035 . S
O6 Zn5 2.028 . S
O6 C12 1.247 . S
O7 Zn3 2.035 . S
O7 C12 1.258 . S
O8 C1 1.247 . S
O8 Zn5 2.028 . S
O9 C1 1.258 . S
O9 Zn3 2.035 . S
O10 Zn3 2.028 . S
O10 C13 1.247 . S
O11 Zn5 2.035 . S
O11 C13 1.258 . S
C12 O6 1.247 . S
C12 O7 1.258 . S
C13 O10 1.247 . S
C13 O11 1.258 . S
C14 O16 1.247 . S
C14 O18 1.258 . S
C15 O22 1.247 . S
C15 O23 1.258 . S
O16 C14 1.247 . S
O16 Zn17 2.028 . S
Zn17 O16 2.028 . S
Zn17 O21 2.035 . S
Zn17 O23 2.035 . S
Zn17 O24 2.028 . S
O18 C14 1.258 . S
O18 Zn19 2.035 . S
Zn19 O18 2.035 . S
Zn19 O20 2.028 . S
Zn19 O22 2.028 . S
Zn19 O25 2.035 . S
O20 Zn19 2.028 . S
O20 C26 1.247 . S
O21 Zn17 2.035 . S
O21 C26 1.258 . S
O22 C15 1.247 . S
O22 Zn19 2.028 . S
O23 C15 1.258 . S
O23 Zn17 2.035 . S
O24 Zn17 2.028 . S
O24 C27 1.247 . S
O25 Zn19 2.035 . S
O25 C27 1.258 . S
C26 O20 1.247 . S
C26 O21 1.258 . S
C27 O24 1.247 . S
C27 O25 1.258 . S
C28 O30 1.247 . S
C28 O32 1.258 . S
C29 O36 1.247 . S
C29 O37 1.258 . S
O30 C28 1.247 . S
O30 Zn31 2.028 . S
Zn31 O30 2.028 . S
Zn31 O35 2.035 . S
Zn31 O37 2.035 1_556 S
Zn31 O38 2.026 1_556 S
O32 C28 1.258 . S
O32 Zn33 2.035 1_556 S
Zn33 O32 2.035 1_554 S
Zn33 O34 2.028 1_554 S
Zn33 O36 2.028 . S
Zn33 O39 2.035 . S
O34 Zn33 2.028 1_556 S
O34 C40 1.247 . S
O35 Zn31 2.035 . S
O35 C40 1.258 . S
O36 C29 1.247 . S
O36 Zn33 2.028 . S
O37 C29 1.258 . S
O37 Zn31 2.035 1_554 S
O38 Zn31 2.026 1_554 S
O38 C41 1.248 . S
O39 Zn33 2.035 . S
O39 C41 1.258 . S
C40 O34 1.247 . S
C40 O35 1.258 . S
C41 O38 1.248 . S
C41 O39 1.258 . S
C42 O44 1.247 . S
C42 O46 1.258 . S
C43 O50 1.248 . S
C43 O51 1.258 . S
O44 C42 1.247 . S
O44 Zn45 2.028 1_556 S
Zn45 O44 2.028 1_554 S
Zn45 O49 2.035 1_554 S
Zn45 O51 2.035 . S
Zn45 O52 2.028 . S
O46 C42 1.258 . S
O46 Zn47 2.035 . S
Zn47 O46 2.035 . S
Zn47 O48 2.028 . S
Zn47 O50 2.026 1_556 S
Zn47 O53 2.035 1_556 S
O48 Zn47 2.028 . S
O48 C54 1.247 . S
O49 Zn45 2.035 1_556 S
O49 C54 1.258 . S
O50 C43 1.248 . S
O50 Zn47 2.026 1_554 S
O51 C43 1.258 . S
O51 Zn45 2.035 . S
O52 Zn45 2.028 . S
O52 C55 1.247 . S
O53 Zn47 2.035 1_554 S
O53 C55 1.258 . S
C54 O48 1.247 . S
C54 O49 1.258 . S
C55 O52 1.247 . S
C55 O53 1.258 . S
C56 O58 1.247 . S
C56 O60 1.258 . S
C57 O64 1.247 . S
C57 O65 1.258 . S
O58 C56 1.247 . S
O58 Zn59 2.028 . S
Zn59 O58 2.028 . S
Zn59 O63 2.035 . S
Zn59 O65 2.035 . S
Zn59 O66 2.028 . S
O60 C56 1.258 . S
O60 Zn61 2.035 . S
Zn61 O60 2.035 . S
Zn61 O62 2.028 . S
Zn61 O64 2.028 . S
Zn61 O67 2.035 . S
O62 Zn61 2.028 . S
O62 C68 1.247 . S
O63 Zn59 2.035 . S
O63 C68 1.258 . S
O64 C57 1.247 . S
O64 Zn61 2.028 . S
O65 C57 1.258 . S
O65 Zn59 2.035 . S
O66 Zn59 2.028 . S
O66 C69 1.247 . S
O67 Zn61 2.035 . S
O67 C69 1.258 . S
C68 O62 1.247 . S
C68 O63 1.258 . S
C69 O66 1.247 . S
C69 O67 1.258 . S
C70 O72 1.247 . S
C70 O74 1.258 . S
C71 O78 1.247 . S
C71 O79 1.258 . S
O72 C70 1.247 . S
O72 Zn73 2.028 . S
Zn73 O72 2.028 . S
Zn73 O77 2.035 . S
Zn73 O79 2.035 . S
Zn73 O80 2.028 . S
O74 C70 1.258 . S
O74 Zn75 2.035 . S
Zn75 O74 2.035 . S
Zn75 O76 2.028 . S
Zn75 O78 2.028 . S
Zn75 O81 2.035 . S
O76 Zn75 2.028 . S
O76 C82 1.247 . S
O77 Zn73 2.035 . S
O77 C82 1.258 . S
O78 C71 1.247 . S
O78 Zn75 2.028 . S
O79 C71 1.258 . S
O79 Zn73 2.035 . S
O80 Zn73 2.028 . S
O80 C83 1.247 . S
O81 Zn75 2.035 . S
O81 C83 1.258 . S
C82 O76 1.247 . S
C82 O77 1.258 . S
C83 O80 1.247 . S
C83 O81 1.258 . S
C84 O86 1.247 . S
C84 O88 1.258 . S
C85 O92 1.247 . S
C85 O93 1.258 . S
O86 C84 1.247 . S
O86 Zn87 2.028 1_554 S
Zn87 O86 2.028 1_556 S
Zn87 O91 2.032 1_556 S
Zn87 O93 2.035 . S
Zn87 O94 2.028 . S
O88 C84 1.258 . S
O88 Zn89 2.035 . S
Zn89 O88 2.035 . S
Zn89 O90 2.028 . S
Zn89 O92 2.028 1_554 S
Zn89 O95 2.034 1_554 S
O90 Zn89 2.028 . S
O90 C96 1.247 . S
O91 Zn87 2.032 1_554 S
O91 C96 1.261 . S
O92 C85 1.247 . S
O92 Zn89 2.028 1_556 S
O93 C85 1.258 . S
O93 Zn87 2.035 . S
O94 Zn87 2.028 . S
O94 C97 1.247 . S
O95 Zn89 2.034 1_556 S
O95 C97 1.259 . S
C96 O90 1.247 . S
C96 O91 1.261 . S
C97 O94 1.247 . S
C97 O95 1.259 . S
C98 O100 1.247 . S
C98 O102 1.258 . S
C99 O106 1.247 . S
C99 O107 1.258 . S
O100 C98 1.247 . S
O100 Zn101 2.028 . S
Zn101 O100 2.028 . S
Zn101 O105 2.035 . S
Zn101 O107 2.035 1_556 S
Zn101 O108 2.028 1_556 S
O102 C98 1.258 . S
O102 Zn103 2.035 1_556 S
Zn103 O102 2.035 1_554 S
Zn103 O104 2.026 1_554 S
Zn103 O106 2.028 . S
Zn103 O109 2.035 . S
O104 Zn103 2.026 1_556 S
O104 C110 1.248 . S
O105 Zn101 2.035 . S
O105 C110 1.258 . S
O106 C99 1.247 . S
O106 Zn103 2.028 . S
O107 C99 1.258 . S
O107 Zn101 2.035 1_554 S
O108 Zn101 2.028 1_554 S
O108 C111 1.247 . S
O109 Zn103 2.035 . S
O109 C111 1.258 . S
C110 O104 1.248 . S
C110 O105 1.258 . S
C111 O108 1.247 . S
C111 O109 1.258 . S
C112 O114 1.247 . S
C112 O116 1.258 . S
C113 O120 1.247 . S
C113 O121 1.258 . S
O114 C112 1.247 . S
O114 Zn115 2.028 . S
Zn115 O114 2.028 . S
Zn115 O119 2.035 . S
Zn115 O121 2.035 . S
Zn115 O122 2.028 . S
O116 C112 1.258 . S
O116 Zn117 2.035 . S
Zn117 O116 2.035 . S
Zn117 O118 2.028 . S
Zn117 O120 2.028 . S
Zn117 O123 2.035 . S
O118 Zn117 2.028 . S
O118 C124 1.247 . S
O119 Zn115 2.035 . S
O119 C124 1.258 . S
O120 C113 1.247 . S
O120 Zn117 2.028 . S
O121 C113 1.258 . S
O121 Zn115 2.035 . S
O122 Zn115 2.028 . S
O122 C125 1.247 . S
O123 Zn117 2.035 . S
O123 C125 1.258 . S
C124 O118 1.247 . S
C124 O119 1.258 . S
C125 O122 1.247 . S
C125 O123 1.258 . S
C126 O128 1.247 . S
C126 O130 1.258 . S
C127 O134 1.247 . S
C127 O135 1.258 . S
O128 C126 1.247 . S
O128 Zn129 2.028 . S
Zn129 O128 2.028 . S
Zn129 O133 2.035 . S
Zn129 O135 2.035 . S
Zn129 O136 2.028 . S
O130 C126 1.258 . S
O130 Zn131 2.035 . S
Zn131 O130 2.035 . S
Zn131 O132 2.028 . S
Zn131 O134 2.028 . S
Zn131 O137 2.035 . S
O132 Zn131 2.028 . S
O132 C138 1.247 . S
O133 Zn129 2.035 . S
O133 C138 1.258 . S
O134 C127 1.247 . S
O134 Zn131 2.028 . S
O135 C127 1.258 . S
O135 Zn129 2.035 . S
O136 Zn129 2.028 . S
O136 C139 1.247 . S
O137 Zn131 2.035 . S
O137 C139 1.258 . S
C138 O132 1.247 . S
C138 O133 1.258 . S
C139 O136 1.247 . S
C139 O137 1.258 . S
C140 O142 1.247 . S
C140 O144 1.258 . S
C141 O148 1.247 . S
C141 O149 1.258 . S
O142 C140 1.247 . S
O142 Zn143 2.028 . S
Zn143 O142 2.028 . S
Zn143 O147 2.035 . S
Zn143 O149 2.035 . S
Zn143 O150 2.028 . S
O144 C140 1.258 . S
O144 Zn145 2.035 . S
Zn145 O144 2.035 . S
Zn145 O146 2.028 . S
Zn145 O148 2.028 . S
Zn145 O151 2.035 . S
O146 Zn145 2.028 . S
O146 C152 1.247 . S
O147 Zn143 2.035 . S
O147 C152 1.258 . S
O148 C141 1.247 . S
O148 Zn145 2.028 . S
O149 C141 1.258 . S
O149 Zn143 2.035 . S
O150 Zn143 2.028 . S
O150 C153 1.247 . S
O151 Zn145 2.035 . S
O151 C153 1.258 . S
C152 O146 1.247 . S
C152 O147 1.258 . S
C153 O150 1.247 . S
C153 O151 1.258 . S
C154 O156 1.247 . S
C154 O158 1.258 . S
C155 O162 1.247 . S
C155 O163 1.258 . S
O156 C154 1.247 . S
O156 Zn157 2.028 . S
Zn157 O156 2.028 . S
Zn157 O161 2.035 . S
Zn157 O163 2.035 . S
Zn157 O164 2.028 . S
O158 C154 1.258 . S
O158 Zn159 2.035 . S
Zn159 O158 2.035 . S
Zn159 O160 2.028 . S
Zn159 O162 2.028 . S
Zn159 O165 2.035 . S
O160 Zn159 2.028 . S
O160 C166 1.247 . S
O161 Zn157 2.035 . S
O161 C166 1.258 . S
O162 C155 1.247 . S
O162 Zn159 2.028 . S
O163 C155 1.258 . S
O163 Zn157 2.035 . S
O164 Zn157 2.028 . S
O164 C167 1.247 . S
O165 Zn159 2.035 . S
O165 C167 1.258 . S
C166 O160 1.247 . S
C166 O161 1.258 . S
C167 O164 1.247 . S
C167 O165 1.258 . S
C168 O170 1.247 . S
C168 O172 1.258 . S
C169 O176 1.247 . S
C169 O177 1.258 . S
O170 C168 1.247 . S
O170 Zn171 2.028 . S
Zn171 O170 2.028 . S
Zn171 O175 2.035 . S
Zn171 O177 2.035 . S
Zn171 O178 2.028 . S
O172 C168 1.258 . S
O172 Zn173 2.035 . S
Zn173 O172 2.035 . S
Zn173 O174 2.028 . S
Zn173 O176 2.028 . S
Zn173 O179 2.035 . S
O174 Zn173 2.028 . S
O174 C180 1.247 . S
O175 Zn171 2.035 . S
O175 C180 1.258 . S
O176 C169 1.247 . S
O176 Zn173 2.028 . S
O177 C169 1.258 . S
O177 Zn171 2.035 . S
O178 Zn171 2.028 . S
O178 C181 1.247 . S
O179 Zn173 2.035 . S
O179 C181 1.258 . S
C180 O174 1.247 . S
C180 O175 1.258 . S
C181 O178 1.247 . S
C181 O179 1.258 . S
C182 O184 1.247 . S
C182 O186 1.258 . S
C183 O190 1.247 . S
C183 O191 1.258 . S
O184 C182 1.247 . S
O184 Zn185 2.028 . S
Zn185 O184 2.028 . S
Zn185 O189 2.035 . S
Zn185 O191 2.035 . S
Zn185 O192 2.028 . S
O186 C182 1.258 . S
O186 Zn187 2.035 . S
Zn187 O186 2.035 . S
Zn187 O188 2.028 . S
Zn187 O190 2.028 . S
Zn187 O193 2.035 . S
O188 Zn187 2.028 . S
O188 C194 1.247 . S
O189 Zn185 2.035 . S
O189 C194 1.258 . S
O190 C183 1.247 . S
O190 Zn187 2.028 . S
O191 C183 1.258 . S
O191 Zn185 2.035 . S
O192 Zn185 2.028 . S
O192 C195 1.247 . S
O193 Zn187 2.035 . S
O193 C195 1.258 . S
C194 O188 1.247 . S
C194 O189 1.258 . S
C195 O192 1.247 . S
C195 O193 1.258 . S
C196 O198 1.247 . S
C196 O200 1.258 . S
C197 O204 1.247 . S
C197 O205 1.258 . S
O198 C196 1.247 . S
O198 Zn199 2.028 . S
Zn199 O198 2.028 . S
Zn199 O203 2.035 . S
Zn199 O205 2.035 . S
Zn199 O206 2.028 . S
O200 C196 1.258 . S
O200 Zn201 2.035 . S
Zn201 O200 2.035 . S
Zn201 O202 2.028 . S
Zn201 O204 2.028 . S
Zn201 O207 2.035 . S
O202 Zn201 2.028 . S
O202 C208 1.247 . S
O203 Zn199 2.035 . S
O203 C208 1.258 . S
O204 C197 1.247 . S
O204 Zn201 2.028 . S
O205 C197 1.258 . S
O205 Zn199 2.035 . S
O206 Zn199 2.028 . S
O206 C209 1.247 . S
O207 Zn201 2.035 . S
O207 C209 1.258 . S
C208 O202 1.247 . S
C208 O203 1.258 . S
C209 O206 1.247 . S
C209 O207 1.258 . S
C210 O212 1.247 . S
C210 O214 1.258 . S
C211 O218 1.247 . S
C211 O219 1.258 . S
O212 C210 1.247 . S
O212 Zn213 2.028 . S
Zn213 O212 2.028 . S
Zn213 O217 2.035 . S
Zn213 O219 2.035 . S
Zn213 O220 2.028 . S
O214 C210 1.258 . S
O214 Zn215 2.035 . S
Zn215 O214 2.035 . S
Zn215 O216 2.028 . S
Zn215 O218 2.028 . S
Zn215 O221 2.035 . S
O216 Zn215 2.028 . S
O216 C222 1.247 . S
O217 Zn213 2.035 . S
O217 C222 1.258 . S
O218 C211 1.247 . S
O218 Zn215 2.028 . S
O219 C211 1.258 . S
O219 Zn213 2.035 . S
O220 Zn213 2.028 . S
O220 C223 1.247 . S
O221 Zn215 2.035 . S
O221 C223 1.258 . S
C222 O216 1.247 . S
C222 O217 1.258 . S
C223 O220 1.247 . S
C223 O221 1.258 . S
C224 O226 1.247 . S
C224 O228 1.258 . S
C225 O232 1.247 . S
C225 O233 1.258 . S
O226 C224 1.247 . S
O226 Zn227 2.028 . S
Zn227 O226 2.028 . S
Zn227 O231 2.035 . S
Zn227 O233 2.035 . S
Zn227 O234 2.028 . S
O228 C224 1.258 . S
O228 Zn229 2.035 . S
Zn229 O228 2.035 . S
Zn229 O230 2.028 . S
Zn229 O232 2.028 . S
Zn229 O235 2.035 . S
O230 Zn229 2.028 . S
O230 C236 1.247 . S
O231 Zn227 2.035 . S
O231 C236 1.258 . S
O232 C225 1.247 . S
O232 Zn229 2.028 . S
O233 C225 1.258 . S
O233 Zn227 2.035 . S
O234 Zn227 2.028 . S
O234 C237 1.247 . S
O235 Zn229 2.035 . S
O235 C237 1.258 . S
C236 O230 1.247 . S
C236 O231 1.258 . S
C237 O234 1.247 . S
C237 O235 1.258 . S
C238 O240 1.247 . S
C238 O242 1.258 . S
C239 O246 1.247 . S
C239 O247 1.258 . S
O240 C238 1.247 . S
O240 Zn241 2.028 . S
Zn241 O240 2.028 . S
Zn241 O245 2.035 . S
Zn241 O247 2.035 . S
Zn241 O248 2.028 . S
O242 C238 1.258 . S
O242 Zn243 2.035 . S
Zn243 O242 2.035 . S
Zn243 O244 2.028 . S
Zn243 O246 2.028 . S
Zn243 O249 2.035 . S
O244 Zn243 2.028 . S
O244 C250 1.247 . S
O245 Zn241 2.035 . S
O245 C250 1.258 . S
O246 C239 1.247 . S
O246 Zn243 2.028 . S
O247 C239 1.258 . S
O247 Zn241 2.035 . S
O248 Zn241 2.028 . S
O248 C251 1.247 . S
O249 Zn243 2.035 . S
O249 C251 1.258 . S
C250 O244 1.247 . S
C250 O245 1.258 . S
C251 O248 1.247 . S
C251 O249 1.258 . S
C252 O254 1.247 . S
C252 O256 1.258 . S
C253 O260 1.247 . S
C253 O261 1.258 . S
O254 C252 1.247 . S
O254 Zn255 2.028 . S
Zn255 O254 2.028 . S
Zn255 O259 2.035 . S
Zn255 O261 2.035 . S
Zn255 O262 2.028 . S
O256 C252 1.258 . S
O256 Zn257 2.035 . S
Zn257 O256 2.035 . S
Zn257 O258 2.028 . S
Zn257 O260 2.028 . S
Zn257 O263 2.035 . S
O258 Zn257 2.028 . S
O258 C264 1.247 . S
O259 Zn255 2.035 . S
O259 C264 1.258 . S
O260 C253 1.247 . S
O260 Zn257 2.028 . S
O261 C253 1.258 . S
O261 Zn255 2.035 . S
O262 Zn255 2.028 . S
O262 C265 1.247 . S
O263 Zn257 2.035 . S
O263 C265 1.258 . S
C264 O258 1.247 . S
C264 O259 1.258 . S
C265 O262 1.247 . S
C265 O263 1.258 . S
C266 O268 1.247 . S
C266 O270 1.258 . S
C267 O274 1.247 . S
C267 O275 1.258 . S
O268 C266 1.247 . S
O268 Zn269 2.028 . S
Zn269 O268 2.028 . S
Zn269 O273 2.035 . S
Zn269 O275 2.035 . S
Zn269 O276 2.028 . S
O270 C266 1.258 . S
O270 Zn271 2.035 . S
Zn271 O270 2.035 . S
Zn271 O272 2.028 . S
Zn271 O274 2.028 . S
Zn271 O277 2.035 . S
O272 Zn271 2.028 . S
O272 C278 1.247 . S
O273 Zn269 2.035 . S
O273 C278 1.258 . S
O274 C267 1.247 . S
O274 Zn271 2.028 . S
O275 C267 1.258 . S
O275 Zn269 2.035 . S
O276 Zn269 2.028 . S
O276 C279 1.247 . S
O277 Zn271 2.035 . S
O277 C279 1.258 . S
C278 O272 1.247 . S
C278 O273 1.258 . S
C279 O276 1.247 . S
C279 O277 1.258 . S
C280 O282 1.247 . S
C280 O284 1.258 . S
C281 O288 1.247 . S
C281 O289 1.258 . S
O282 C280 1.247 . S
O282 Zn283 2.028 . S
Zn283 O282 2.028 . S
Zn283 O287 2.035 . S
Zn283 O289 2.035 . S
Zn283 O290 2.028 . S
O284 C280 1.258 . S
O284 Zn285 2.035 . S
Zn285 O284 2.035 . S
Zn285 O286 2.028 . S
Zn285 O288 2.028 . S
Zn285 O291 2.035 . S
O286 Zn285 2.028 . S
O286 C292 1.247 . S
O287 Zn283 2.035 . S
O287 C292 1.258 . S
O288 C281 1.247 . S
O288 Zn285 2.028 . S
O289 C281 1.258 . S
O289 Zn283 2.035 . S
O290 Zn283 2.028 . S
O290 C293 1.247 . S
O291 Zn285 2.035 . S
O291 C293 1.258 . S
C292 O286 1.247 . S
C292 O287 1.258 . S
C293 O290 1.247 . S
C293 O291 1.258 . S
C294 O296 1.247 . S
C294 O298 1.258 . S
C295 O302 1.247 . S
C295 O303 1.258 . S
O296 C294 1.247 . S
O296 Zn297 2.028 . S
Zn297 O296 2.028 . S
Zn297 O301 2.035 . S
Zn297 O303 2.035 . S
Zn297 O304 2.028 . S
O298 C294 1.258 . S
O298 Zn299 2.035 . S
Zn299 O298 2.035 . S
Zn299 O300 2.028 . S
Zn299 O302 2.028 . S
Zn299 O305 2.035 . S
O300 Zn299 2.028 . S
O300 C306 1.247 . S
O301 Zn297 2.035 . S
O301 C306 1.258 . S
O302 C295 1.247 . S
O302 Zn299 2.028 . S
O303 C295 1.258 . S
O303 Zn297 2.035 . S
O304 Zn297 2.028 . S
O304 C307 1.247 . S
O305 Zn299 2.035 . S
O305 C307 1.258 . S
C306 O300 1.247 . S
C306 O301 1.258 . S
C307 O304 1.247 . S
C307 O305 1.258 . S
C308 O310 1.247 . S
C308 O312 1.258 . S
C309 O316 1.247 . S
C309 O317 1.258 . S
O310 C308 1.247 . S
O310 Zn311 2.028 . S
Zn311 O310 2.028 . S
Zn311 O315 2.035 . S
Zn311 O317 2.035 . S
Zn311 O318 2.028 . S
O312 C308 1.258 . S
O312 Zn313 2.035 . S
Zn313 O312 2.035 . S
Zn313 O314 2.028 . S
Zn313 O316 2.028 . S
Zn313 O319 2.035 . S
O314 Zn313 2.028 . S
O314 C320 1.247 . S
O315 Zn311 2.035 . S
O315 C320 1.258 . S
O316 C309 1.247 . S
O316 Zn313 2.028 . S
O317 C309 1.258 . S
O317 Zn311 2.035 . S
O318 Zn311 2.028 . S
O318 C321 1.247 . S
O319 Zn313 2.035 . S
O319 C321 1.258 . S
C320 O314 1.247 . S
C320 O315 1.258 . S
C321 O318 1.247 . S
C321 O319 1.258 . S
C322 O324 1.247 . S
C322 O326 1.258 . S
C323 O330 1.247 . S
C323 O331 1.258 . S
O324 C322 1.247 . S
O324 Zn325 2.028 . S
Zn325 O324 2.028 . S
Zn325 O329 2.035 . S
Zn325 O331 2.035 . S
Zn325 O332 2.028 . S
O326 C322 1.258 . S
O326 Zn327 2.035 . S
Zn327 O326 2.035 . S
Zn327 O328 2.028 . S
Zn327 O330 2.028 . S
Zn327 O333 2.035 . S
O328 Zn327 2.028 . S
O328 C334 1.247 . S
O329 Zn325 2.035 . S
O329 C334 1.258 . S
O330 C323 1.247 . S
O330 Zn327 2.028 . S
O331 C323 1.258 . S
O331 Zn325 2.035 . S
O332 Zn325 2.028 . S
O332 C335 1.247 . S
O333 Zn327 2.035 . S
O333 C335 1.258 . S
C334 O328 1.247 . S
C334 O329 1.258 . S
C335 O332 1.247 . S
C335 O333 1.258 . S
C336 O338 1.247 . S
C336 O340 1.258 . S
C337 O344 1.247 . S
C337 O345 1.258 . S
O338 C336 1.247 . S
O338 Zn339 2.028 . S
Zn339 O338 2.028 . S
Zn339 O343 2.035 . S
Zn339 O345 2.035 . S
Zn339 O346 2.028 . S
O340 C336 1.258 . S
O340 Zn341 2.035 . S
Zn341 O340 2.035 . S
Zn341 O342 2.028 . S
Zn341 O344 2.028 . S
Zn341 O347 2.035 . S
O342 Zn341 2.028 . S
O342 C348 1.247 . S
O343 Zn339 2.035 . S
O343 C348 1.258 . S
O344 C337 1.247 . S
O344 Zn341 2.028 . S
O345 C337 1.258 . S
O345 Zn339 2.035 . S
O346 Zn339 2.028 . S
O346 C349 1.247 . S
O347 Zn341 2.035 . S
O347 C349 1.258 . S
C348 O342 1.247 . S
C348 O343 1.258 . S
C349 O346 1.247 . S
C349 O347 1.258 . S
C350 O352 1.247 . S
C350 O354 1.258 . S
C351 O358 1.247 . S
C351 O359 1.258 . S
O352 C350 1.247 . S
O352 Zn353 2.028 . S
Zn353 O352 2.028 . S
Zn353 O357 2.035 . S
Zn353 O359 2.035 . S
Zn353 O360 2.028 . S
O354 C350 1.258 . S
O354 Zn355 2.035 . S
Zn355 O354 2.035 . S
Zn355 O356 2.028 . S
Zn355 O358 2.028 . S
Zn355 O361 2.035 . S
O356 Zn355 2.028 . S
O356 C362 1.247 . S
O357 Zn353 2.035 . S
O357 C362 1.258 . S
O358 C351 1.247 . S
O358 Zn355 2.028 . S
O359 C351 1.258 . S
O359 Zn353 2.035 . S
O360 Zn353 2.028 . S
O360 C363 1.247 . S
O361 Zn355 2.035 . S
O361 C363 1.258 . S
C362 O356 1.247 . S
C362 O357 1.258 . S
C363 O360 1.247 . S
C363 O361 1.258 . S
C364 O366 1.247 . S
C364 O368 1.258 . S
C365 O372 1.247 . S
C365 O373 1.258 . S
O366 C364 1.247 . S
O366 Zn367 2.028 1_554 S
Zn367 O366 2.028 1_556 S
Zn367 O371 2.034 1_556 S
Zn367 O373 2.035 . S
Zn367 O374 2.028 . S
O368 C364 1.258 . S
O368 Zn369 2.035 . S
Zn369 O368 2.035 . S
Zn369 O370 2.028 . S
Zn369 O372 2.028 1_554 S
Zn369 O375 2.032 1_554 S
O370 Zn369 2.028 . S
O370 C376 1.247 . S
O371 Zn367 2.034 1_554 S
O371 C376 1.259 . S
O372 C365 1.247 . S
O372 Zn369 2.028 1_556 S
O373 C365 1.258 . S
O373 Zn367 2.035 . S
O374 Zn367 2.028 . S
O374 C377 1.247 . S
O375 Zn369 2.032 1_556 S
O375 C377 1.261 . S
C376 O370 1.247 . S
C376 O371 1.259 . S
C377 O374 1.247 . S
C377 O375 1.261 . S
C378 O380 1.247 . S
C378 O382 1.258 . S
C379 O386 1.247 . S
C379 O387 1.258 . S
O380 C378 1.247 . S
O380 Zn381 2.028 1_554 S
Zn381 O380 2.028 1_556 S
Zn381 O385 2.034 1_556 S
Zn381 O387 2.035 . S
Zn381 O388 2.028 . S
O382 C378 1.258 . S
O382 Zn383 2.035 . S
Zn383 O382 2.035 . S
Zn383 O384 2.028 . S
Zn383 O386 2.028 1_554 S
Zn383 O389 2.032 1_554 S
O384 Zn383 2.028 . S
O384 C390 1.247 . S
O385 Zn381 2.034 1_554 S
O385 C390 1.259 . S
O386 C379 1.247 . S
O386 Zn383 2.028 1_556 S
O387 C379 1.258 . S
O387 Zn381 2.035 . S
O388 Zn381 2.028 . S
O388 C391 1.247 . S
O389 Zn383 2.032 1_556 S
O389 C391 1.261 . S
C390 O384 1.247 . S
C390 O385 1.259 . S
C391 O388 1.247 . S
C391 O389 1.261 . S
C392 O394 1.247 . S
C392 O396 1.258 . S
C393 O400 1.247 . S
C393 O401 1.258 . S
O394 C392 1.247 . S
O394 Zn395 2.028 . S
Zn395 O394 2.028 . S
Zn395 O399 2.035 . S
Zn395 O401 2.035 . S
Zn395 O402 2.028 . S
O396 C392 1.258 . S
O396 Zn397 2.035 . S
Zn397 O396 2.035 . S
Zn397 O398 2.028 . S
Zn397 O400 2.028 . S
Zn397 O403 2.035 . S
O398 Zn397 2.028 . S
O398 C404 1.247 . S
O399 Zn395 2.035 . S
O399 C404 1.258 . S
O400 C393 1.247 . S
O400 Zn397 2.028 . S
O401 C393 1.258 . S
O401 Zn395 2.035 . S
O402 Zn395 2.028 . S
O402 C405 1.247 . S
O403 Zn397 2.035 . S
O403 C405 1.258 . S
C404 O398 1.247 . S
C404 O399 1.258 . S
C405 O402 1.247 . S
C405 O403 1.258 . S
C406 O408 1.247 . S
C406 O410 1.258 . S
C407 O414 1.247 . S
C407 O415 1.258 . S
O408 C406 1.247 . S
O408 Zn409 2.028 . S
Zn409 O408 2.028 . S
Zn409 O413 2.035 . S
Zn409 O415 2.035 . S
Zn409 O416 2.028 . S
O410 C406 1.258 . S
O410 Zn411 2.035 . S
Zn411 O410 2.035 . S
Zn411 O412 2.028 . S
Zn411 O414 2.028 . S
Zn411 O417 2.035 . S
O412 Zn411 2.028 . S
O412 C418 1.247 . S
O413 Zn409 2.035 . S
O413 C418 1.258 . S
O414 C407 1.247 . S
O414 Zn411 2.028 . S
O415 C407 1.258 . S
O415 Zn409 2.035 . S
O416 Zn409 2.028 . S
O416 C419 1.247 . S
O417 Zn411 2.035 . S
O417 C419 1.258 . S
C418 O412 1.247 . S
C418 O413 1.258 . S
C419 O416 1.247 . S
C419 O417 1.258 . S
C420 O422 1.247 . S
C420 O424 1.258 . S
C421 O428 1.247 . S
C421 O429 1.258 . S
O422 C420 1.247 . S
O422 Zn423 2.028 1_554 S
Zn423 O422 2.028 1_556 S
Zn423 O427 2.032 1_556 S
Zn423 O429 2.035 . S
Zn423 O430 2.028 . S
O424 C420 1.258 . S
O424 Zn425 2.035 . S
Zn425 O424 2.035 . S
Zn425 O426 2.028 . S
Zn425 O428 2.028 1_554 S
Zn425 O431 2.034 1_554 S
O426 Zn425 2.028 . S
O426 C432 1.247 . S
O427 Zn423 2.032 1_554 S
O427 C432 1.261 . S
O428 C421 1.247 . S
O428 Zn425 2.028 1_556 S
O429 C421 1.258 . S
O429 Zn423 2.035 . S
O430 Zn423 2.028 . S
O430 C433 1.247 . S
O431 Zn425 2.034 1_556 S
O431 C433 1.259 . S
C432 O426 1.247 . S
C432 O427 1.261 . S
C433 O430 1.247 . S
C433 O431 1.259 . S
C434 O436 1.247 . S
C434 O438 1.258 . S
C435 O442 1.247 . S
C435 O443 1.258 . S
O436 C434 1.247 . S
O436 Zn437 2.028 1_554 S
Zn437 O436 2.028 1_556 S
Zn437 O441 2.032 1_556 S
Zn437 O443 2.035 . S
Zn437 O444 2.028 . S
O438 C434 1.258 . S
O438 Zn439 2.035 . S
Zn439 O438 2.035 . S
Zn439 O440 2.028 . S
Zn439 O442 2.028 1_554 S
Zn439 O445 2.034 1_554 S
O440 Zn439 2.028 . S
O440 C446 1.247 . S
O441 Zn437 2.032 1_554 S
O441 C446 1.261 . S
O442 C435 1.247 . S
O442 Zn439 2.028 1_556 S
O443 C435 1.258 . S
O443 Zn437 2.035 . S
O444 Zn437 2.028 . S
O444 C447 1.247 . S
O445 Zn439 2.034 1_556 S
O445 C447 1.259 . S
C446 O440 1.247 . S
C446 O441 1.261 . S
C447 O444 1.247 . S
C447 O445 1.259 . S
H448 C460 0.930 . S
H449 C462 0.930 . S
H450 C463 0.930 . S
H451 C467 0.959 . S
H452 C467 0.959 . S
H453 C467 0.961 . S
H454 C468 0.960 . S
H455 C468 0.961 . S
H456 C468 0.959 . S
H457 C471 0.929 . S
H458 C472 0.931 . S
H459 C474 0.930 . S
C460 H448 0.930 . S
C460 C461 1.399 . S
C460 C465 1.399 . S
C461 C460 1.399 . S
C461 C462 1.376 . S
C462 H449 0.930 . S
C462 C461 1.376 . S
C462 C463 1.388 . S
C463 H450 0.930 . S
C463 C462 1.388 . S
C463 C464 1.390 . S
C464 C463 1.390 . S
C464 C465 1.394 . S
C464 C470 1.465 . S
C465 C460 1.399 . S
C465 C464 1.394 . S
C465 C466 1.516 . S
C466 C465 1.516 . S
C466 C467 1.502 . S
C466 C468 1.561 . S
C466 C469 1.526 . S
C467 H451 0.959 . S
C467 H452 0.959 . S
C467 H453 0.961 . S
C467 C466 1.502 . S
C468 H454 0.960 . S
C468 H455 0.961 . S
C468 H456 0.959 . S
C468 C466 1.561 . S
C469 C466 1.526 . S
C469 C470 1.396 . S
C469 C474 1.390 . S
C470 C464 1.465 . S
C470 C469 1.396 . S
C470 C471 1.399 . S
C471 H457 0.929 . S
C471 C470 1.399 . S
C471 C472 1.385 . S
C472 H458 0.931 . S
C472 C471 1.385 . S
C472 C473 1.389 . S
C473 C472 1.389 . S
C473 C474 1.387 . S
C474 H459 0.930 . S
C474 C469 1.390 . S
C474 C473 1.387 . S
H475 C487 0.930 . S
H476 C489 0.930 . S
H477 C490 0.930 . S
H478 C494 0.959 . S
H479 C494 0.959 . S
H480 C494 0.961 . S
H481 C495 0.960 . S
H482 C495 0.961 . S
H483 C495 0.959 . S
H484 C498 0.929 . S
H485 C499 0.931 . S
H486 C501 0.930 . S
C487 H475 0.930 . S
C487 C488 1.399 . S
C487 C492 1.399 . S
C488 C487 1.399 . S
C488 C489 1.376 . S
C489 H476 0.930 . S
C489 C488 1.376 . S
C489 C490 1.388 . S
C490 H477 0.930 . S
C490 C489 1.388 . S
C490 C491 1.390 . S
C491 C490 1.390 . S
C491 C492 1.394 . S
C491 C497 1.465 . S
C492 C487 1.399 . S
C492 C491 1.394 . S
C492 C493 1.516 . S
C493 C492 1.516 . S
C493 C494 1.502 . S
C493 C495 1.561 . S
C493 C496 1.526 . S
C494 H478 0.959 . S
C494 H479 0.959 . S
C494 H480 0.961 . S
C494 C493 1.502 . S
C495 H481 0.960 . S
C495 H482 0.961 . S
C495 H483 0.959 . S
C495 C493 1.561 . S
C496 C493 1.526 . S
C496 C497 1.396 . S
C496 C501 1.390 . S
C497 C491 1.465 . S
C497 C496 1.396 . S
C497 C498 1.399 . S
C498 H484 0.929 . S
C498 C497 1.399 . S
C498 C499 1.385 . S
C499 H485 0.931 . S
C499 C498 1.385 . S
C499 C500 1.389 . S
C500 C499 1.389 . S
C500 C501 1.387 . S
C501 H486 0.930 . S
C501 C496 1.390 . S
C501 C500 1.387 . S
H502 C514 0.930 . S
H503 C516 0.930 . S
H504 C517 0.930 . S
H505 C521 0.959 . S
H506 C521 0.959 . S
H507 C521 0.961 . S
H508 C522 0.960 . S
H509 C522 0.961 . S
H510 C522 0.959 . S
H511 C525 0.929 . S
H512 C526 0.931 . S
H513 C528 0.930 . S
C514 H502 0.930 . S
C514 C515 1.399 . S
C514 C519 1.399 . S
C515 C514 1.399 . S
C515 C516 1.376 . S
C516 H503 0.930 . S
C516 C515 1.376 . S
C516 C517 1.388 . S
C517 H504 0.930 . S
C517 C516 1.388 . S
C517 C518 1.390 . S
C518 C517 1.390 . S
C518 C519 1.394 . S
C518 C524 1.465 . S
C519 C514 1.399 . S
C519 C518 1.394 . S
C519 C520 1.516 . S
C520 C519 1.516 . S
C520 C521 1.502 . S
C520 C522 1.561 . S
C520 C523 1.526 . S
C521 H505 0.959 . S
C521 H506 0.959 . S
C521 H507 0.961 . S
C521 C520 1.502 . S
C522 H508 0.960 . S
C522 H509 0.961 . S
C522 H510 0.959 . S
C522 C520 1.561 . S
C523 C520 1.526 . S
C523 C524 1.396 . S
C523 C528 1.390 . S
C524 C518 1.465 . S
C524 C523 1.396 . S
C524 C525 1.399 . S
C525 H511 0.929 . S
C525 C524 1.399 . S
C525 C526 1.385 . S
C526 H512 0.931 . S
C526 C525 1.385 . S
C526 C527 1.389 . S
C527 C526 1.389 . S
C527 C528 1.387 . S
C528 H513 0.930 . S
C528 C523 1.390 . S
C528 C527 1.387 . S
H529 C541 0.930 . S
H530 C543 0.930 . S
H531 C544 0.930 . S
H532 C548 0.959 . S
H533 C548 0.959 . S
H534 C548 0.961 . S
H535 C549 0.960 . S
H536 C549 0.961 . S
H537 C549 0.959 . S
H538 C552 0.929 . S
H539 C553 0.931 . S
H540 C555 0.930 . S
C541 H529 0.930 . S
C541 C542 1.399 . S
C541 C546 1.399 . S
C542 C541 1.399 . S
C542 C543 1.376 . S
C543 H530 0.930 . S
C543 C542 1.376 . S
C543 C544 1.388 . S
C544 H531 0.930 . S
C544 C543 1.388 . S
C544 C545 1.390 . S
C545 C544 1.390 . S
C545 C546 1.394 . S
C545 C551 1.465 . S
C546 C541 1.399 . S
C546 C545 1.394 . S
C546 C547 1.516 . S
C547 C546 1.516 . S
C547 C548 1.502 . S
C547 C549 1.561 . S
C547 C550 1.526 . S
C548 H532 0.959 . S
C548 H533 0.959 . S
C548 H534 0.961 . S
C548 C547 1.502 . S
C549 H535 0.960 . S
C549 H536 0.961 . S
C549 H537 0.959 . S
C549 C547 1.561 . S
C550 C547 1.526 . S
C550 C551 1.396 . S
C550 C555 1.390 . S
C551 C545 1.465 . S
C551 C550 1.396 . S
C551 C552 1.399 . S
C552 H538 0.929 . S
C552 C551 1.399 . S
C552 C553 1.385 . S
C553 H539 0.931 . S
C553 C552 1.385 . S
C553 C554 1.389 . S
C554 C553 1.389 . S
C554 C555 1.387 . S
C555 H540 0.930 . S
C555 C550 1.390 . S
C555 C554 1.387 . S
H556 C568 0.930 . S
H557 C570 0.930 . S
H558 C571 0.930 . S
H559 C575 0.959 . S
H560 C575 0.959 . S
H561 C575 0.961 . S
H562 C576 0.960 . S
H563 C576 0.961 . S
H564 C576 0.959 . S
H565 C579 0.929 . S
H566 C580 0.931 . S
H567 C582 0.930 . S
C568 H556 0.930 . S
C568 C569 1.399 . S
C568 C573 1.399 . S
C569 C568 1.399 . S
C569 C570 1.376 . S
C570 H557 0.930 . S
C570 C569 1.376 . S
C570 C571 1.388 . S
C571 H558 0.930 . S
C571 C570 1.388 . S
C571 C572 1.390 . S
C572 C571 1.390 . S
C572 C573 1.394 . S
C572 C578 1.465 . S
C573 C568 1.399 . S
C573 C572 1.394 . S
C573 C574 1.516 . S
C574 C573 1.516 . S
C574 C575 1.502 . S
C574 C576 1.561 . S
C574 C577 1.526 . S
C575 H559 0.959 . S
C575 H560 0.959 . S
C575 H561 0.961 . S
C575 C574 1.502 . S
C576 H562 0.960 . S
C576 H563 0.961 . S
C576 H564 0.959 . S
C576 C574 1.561 . S
C577 C574 1.526 . S
C577 C578 1.396 . S
C577 C582 1.390 . S
C578 C572 1.465 . S
C578 C577 1.396 . S
C578 C579 1.399 . S
C579 H565 0.929 . S
C579 C578 1.399 . S
C579 C580 1.385 . S
C580 H566 0.931 . S
C580 C579 1.385 . S
C580 C581 1.389 . S
C581 C580 1.389 . S
C581 C582 1.387 . S
C582 H567 0.930 . S
C582 C577 1.390 . S
C582 C581 1.387 . S
H583 C595 0.930 . S
H584 C597 0.930 . S
H585 C598 0.930 . S
H586 C602 0.959 . S
H587 C602 0.959 . S
H588 C602 0.961 . S
H589 C603 0.960 . S
H590 C603 0.961 . S
H591 C603 0.959 . S
H592 C606 0.929 . S
H593 C607 0.931 . S
H594 C609 0.930 . S
C595 H583 0.930 . S
C595 C596 1.399 . S
C595 C600 1.399 . S
C596 C595 1.399 . S
C596 C597 1.376 . S
C597 H584 0.930 . S
C597 C596 1.376 . S
C597 C598 1.388 . S
C598 H585 0.930 . S
C598 C597 1.388 . S
C598 C599 1.390 . S
C599 C598 1.390 . S
C599 C600 1.394 . S
C599 C605 1.465 . S
C600 C595 1.399 . S
C600 C599 1.394 . S
C600 C601 1.516 . S
C601 C600 1.516 . S
C601 C602 1.502 . S
C601 C603 1.561 . S
C601 C604 1.526 . S
C602 H586 0.959 . S
C602 H587 0.959 . S
C602 H588 0.961 . S
C602 C601 1.502 . S
C603 H589 0.960 . S
C603 H590 0.961 . S
C603 H591 0.959 . S
C603 C601 1.561 . S
C604 C601 1.526 . S
C604 C605 1.396 . S
C604 C609 1.390 . S
C605 C599 1.465 . S
C605 C604 1.396 . S
C605 C606 1.399 . S
C606 H592 0.929 . S
C606 C605 1.399 . S
C606 C607 1.385 . S
C607 H593 0.931 . S
C607 C606 1.385 . S
C607 C608 1.389 . S
C608 C607 1.389 . S
C608 C609 1.387 . S
C609 H594 0.930 . S
C609 C604 1.390 . S
C609 C608 1.387 . S
H610 C622 0.930 . S
H611 C624 0.930 . S
H612 C625 0.930 . S
H613 C629 0.959 . S
H614 C629 0.959 . S
H615 C629 0.961 . S
H616 C630 0.960 . S
H617 C630 0.961 . S
H618 C630 0.959 . S
H619 C633 0.929 . S
H620 C634 0.931 . S
H621 C636 0.930 . S
C622 H610 0.930 . S
C622 C623 1.399 . S
C622 C627 1.399 . S
C623 C622 1.399 . S
C623 C624 1.376 . S
C624 H611 0.930 . S
C624 C623 1.376 . S
C624 C625 1.388 . S
C625 H612 0.930 . S
C625 C624 1.388 . S
C625 C626 1.390 . S
C626 C625 1.390 . S
C626 C627 1.394 . S
C626 C632 1.465 . S
C627 C622 1.399 . S
C627 C626 1.394 . S
C627 C628 1.516 . S
C628 C627 1.516 . S
C628 C629 1.502 . S
C628 C630 1.561 . S
C628 C631 1.526 . S
C629 H613 0.959 . S
C629 H614 0.959 . S
C629 H615 0.961 . S
C629 C628 1.502 . S
C630 H616 0.960 . S
C630 H617 0.961 . S
C630 H618 0.959 . S
C630 C628 1.561 . S
C631 C628 1.526 . S
C631 C632 1.396 . S
C631 C636 1.390 . S
C632 C626 1.465 . S
C632 C631 1.396 . S
C632 C633 1.399 . S
C633 H619 0.929 . S
C633 C632 1.399 . S
C633 C634 1.385 . S
C634 H620 0.931 . S
C634 C633 1.385 . S
C634 C635 1.389 . S
C635 C634 1.389 . S
C635 C636 1.387 . S
C636 H621 0.930 . S
C636 C631 1.390 . S
C636 C635 1.387 . S
H637 C649 0.930 . S
H638 C651 0.930 . S
H639 C652 0.930 . S
H640 C656 0.959 . S
H641 C656 0.959 . S
H642 C656 0.961 . S
H643 C657 0.960 . S
H644 C657 0.961 . S
H645 C657 0.959 . S
H646 C660 0.929 . S
H647 C661 0.931 . S
H648 C663 0.930 . S
C649 H637 0.930 . S
C649 C650 1.399 . S
C649 C654 1.399 . S
C650 C649 1.399 . S
C650 C651 1.376 . S
C651 H638 0.930 . S
C651 C650 1.376 . S
C651 C652 1.388 . S
C652 H639 0.930 . S
C652 C651 1.388 . S
C652 C653 1.390 . S
C653 C652 1.390 . S
C653 C654 1.394 . S
C653 C659 1.465 . S
C654 C649 1.399 . S
C654 C653 1.394 . S
C654 C655 1.516 . S
C655 C654 1.516 . S
C655 C656 1.502 . S
C655 C657 1.561 . S
C655 C658 1.526 . S
C656 H640 0.959 . S
C656 H641 0.959 . S
C656 H642 0.961 . S
C656 C655 1.502 . S
C657 H643 0.960 . S
C657 H644 0.961 . S
C657 H645 0.959 . S
C657 C655 1.561 . S
C658 C655 1.526 . S
C658 C659 1.396 . S
C658 C663 1.390 . S
C659 C653 1.465 . S
C659 C658 1.396 . S
C659 C660 1.399 . S
C660 H646 0.929 . S
C660 C659 1.399 . S
C660 C661 1.385 . S
C661 H647 0.931 . S
C661 C660 1.385 . S
C661 C662 1.389 . S
C662 C661 1.389 . S
C662 C663 1.387 . S
C663 H648 0.930 . S
C663 C658 1.390 . S
C663 C662 1.387 . S
H664 C676 0.930 . S
H665 C678 0.930 . S
H666 C679 0.930 . S
H667 C683 0.959 . S
H668 C683 0.959 . S
H669 C683 0.961 . S
H670 C684 0.960 . S
H671 C684 0.961 . S
H672 C684 0.959 . S
H673 C687 0.929 . S
H674 C688 0.931 . S
H675 C690 0.930 . S
C676 H664 0.930 . S
C676 C677 1.399 . S
C676 C681 1.399 . S
C677 C676 1.399 . S
C677 C678 1.376 . S
C678 H665 0.930 . S
C678 C677 1.376 . S
C678 C679 1.388 . S
C679 H666 0.930 . S
C679 C678 1.388 . S
C679 C680 1.390 . S
C680 C679 1.390 . S
C680 C681 1.394 . S
C680 C686 1.465 . S
C681 C676 1.399 . S
C681 C680 1.394 . S
C681 C682 1.516 . S
C682 C681 1.516 . S
C682 C683 1.502 . S
C682 C684 1.561 . S
C682 C685 1.526 . S
C683 H667 0.959 . S
C683 H668 0.959 . S
C683 H669 0.961 . S
C683 C682 1.502 . S
C684 H670 0.960 . S
C684 H671 0.961 . S
C684 H672 0.959 . S
C684 C682 1.561 . S
C685 C682 1.526 . S
C685 C686 1.396 . S
C685 C690 1.390 . S
C686 C680 1.465 . S
C686 C685 1.396 . S
C686 C687 1.399 . S
C687 H673 0.929 . S
C687 C686 1.399 . S
C687 C688 1.385 . S
C688 H674 0.931 . S
C688 C687 1.385 . S
C688 C689 1.389 . S
C689 C688 1.389 . S
C689 C690 1.387 . S
C690 H675 0.930 . S
C690 C685 1.390 . S
C690 C689 1.387 . S
H691 C703 0.930 . S
H692 C705 0.930 . S
H693 C706 0.930 . S
H694 C710 0.959 . S
H695 C710 0.959 . S
H696 C710 0.961 . S
H697 C711 0.960 . S
H698 C711 0.961 . S
H699 C711 0.959 . S
H700 C714 0.929 . S
H701 C715 0.931 . S
H702 C717 0.930 . S
C703 H691 0.930 . S
C703 C704 1.399 . S
C703 C708 1.399 . S
C704 C703 1.399 . S
C704 C705 1.376 . S
C705 H692 0.930 . S
C705 C704 1.376 . S
C705 C706 1.388 . S
C706 H693 0.930 . S
C706 C705 1.388 . S
C706 C707 1.390 . S
C707 C706 1.390 . S
C707 C708 1.394 . S
C707 C713 1.465 . S
C708 C703 1.399 . S
C708 C707 1.394 . S
C708 C709 1.516 . S
C709 C708 1.516 . S
C709 C710 1.502 . S
C709 C711 1.561 . S
C709 C712 1.526 . S
C710 H694 0.959 . S
C710 H695 0.959 . S
C710 H696 0.961 . S
C710 C709 1.502 . S
C711 H697 0.960 . S
C711 H698 0.961 . S
C711 H699 0.959 . S
C711 C709 1.561 . S
C712 C709 1.526 . S
C712 C713 1.396 . S
C712 C717 1.390 . S
C713 C707 1.465 . S
C713 C712 1.396 . S
C713 C714 1.399 . S
C714 H700 0.929 . S
C714 C713 1.399 . S
C714 C715 1.385 . S
C715 H701 0.931 . S
C715 C714 1.385 . S
C715 C716 1.389 . S
C716 C715 1.389 . S
C716 C717 1.387 . S
C717 H702 0.930 . S
C717 C712 1.390 . S
C717 C716 1.387 . S
H718 C730 0.930 . S
H719 C732 0.930 . S
H720 C733 0.930 . S
H721 C737 0.959 . S
H722 C737 0.959 . S
H723 C737 0.961 . S
H724 C738 0.960 . S
H725 C738 0.961 . S
H726 C738 0.959 . S
H727 C741 0.929 . S
H728 C742 0.931 . S
H729 C744 0.930 . S
C730 H718 0.930 . S
C730 C731 1.399 . S
C730 C735 1.399 . S
C731 C730 1.399 . S
C731 C732 1.376 . S
C732 H719 0.930 . S
C732 C731 1.376 . S
C732 C733 1.388 . S
C733 H720 0.930 . S
C733 C732 1.388 . S
C733 C734 1.390 . S
C734 C733 1.390 . S
C734 C735 1.394 . S
C734 C740 1.465 . S
C735 C730 1.399 . S
C735 C734 1.394 . S
C735 C736 1.516 . S
C736 C735 1.516 . S
C736 C737 1.502 . S
C736 C738 1.561 . S
C736 C739 1.526 . S
C737 H721 0.959 . S
C737 H722 0.959 . S
C737 H723 0.961 . S
C737 C736 1.502 . S
C738 H724 0.960 . S
C738 H725 0.961 . S
C738 H726 0.959 . S
C738 C736 1.561 . S
C739 C736 1.526 . S
C739 C740 1.396 . S
C739 C744 1.390 . S
C740 C734 1.465 . S
C740 C739 1.396 . S
C740 C741 1.399 . S
C741 H727 0.929 . S
C741 C740 1.399 . S
C741 C742 1.385 . S
C742 H728 0.931 . S
C742 C741 1.385 . S
C742 C743 1.389 . S
C743 C742 1.389 . S
C743 C744 1.387 . S
C744 H729 0.930 . S
C744 C739 1.390 . S
C744 C743 1.387 . S
H745 C757 0.930 . S
H746 C759 0.930 . S
H747 C760 0.930 . S
H748 C764 0.959 . S
H749 C764 0.959 . S
H750 C764 0.961 . S
H751 C765 0.960 . S
H752 C765 0.961 . S
H753 C765 0.959 . S
H754 C768 0.929 . S
H755 C769 0.931 . S
H756 C771 0.930 . S
C757 H745 0.930 . S
C757 C758 1.399 . S
C757 C762 1.399 . S
C758 C757 1.399 . S
C758 C759 1.376 . S
C759 H746 0.930 . S
C759 C758 1.376 . S
C759 C760 1.388 . S
C760 H747 0.930 . S
C760 C759 1.388 . S
C760 C761 1.390 . S
C761 C760 1.390 . S
C761 C762 1.394 . S
C761 C767 1.465 . S
C762 C757 1.399 . S
C762 C761 1.394 . S
C762 C763 1.516 . S
C763 C762 1.516 . S
C763 C764 1.502 . S
C763 C765 1.561 . S
C763 C766 1.526 . S
C764 H748 0.959 . S
C764 H749 0.959 . S
C764 H750 0.961 . S
C764 C763 1.502 . S
C765 H751 0.960 . S
C765 H752 0.961 . S
C765 H753 0.959 . S
C765 C763 1.561 . S
C766 C763 1.526 . S
C766 C767 1.396 . S
C766 C771 1.390 . S
C767 C761 1.465 . S
C767 C766 1.396 . S
C767 C768 1.399 . S
C768 H754 0.929 . S
C768 C767 1.399 . S
C768 C769 1.385 . S
C769 H755 0.931 . S
C769 C768 1.385 . S
C769 C770 1.389 . S
C770 C769 1.389 . S
C770 C771 1.387 . S
C771 H756 0.930 . S
C771 C766 1.390 . S
C771 C770 1.387 . S
H772 C784 0.930 . S
H773 C786 0.930 . S
H774 C787 0.930 . S
H775 C791 0.959 . S
H776 C791 0.959 . S
H777 C791 0.961 . S
H778 C792 0.960 . S
H779 C792 0.961 . S
H780 C792 0.959 . S
H781 C795 0.929 . S
H782 C796 0.931 . S
H783 C798 0.930 . S
C784 H772 0.930 . S
C784 C785 1.399 . S
C784 C789 1.399 . S
C785 C784 1.399 . S
C785 C786 1.376 . S
C786 H773 0.930 . S
C786 C785 1.376 . S
C786 C787 1.388 . S
C787 H774 0.930 . S
C787 C786 1.388 . S
C787 C788 1.390 . S
C788 C787 1.390 . S
C788 C789 1.394 . S
C788 C794 1.465 . S
C789 C784 1.399 . S
C789 C788 1.394 . S
C789 C790 1.516 . S
C790 C789 1.516 . S
C790 C791 1.502 . S
C790 C792 1.561 . S
C790 C793 1.526 . S
C791 H775 0.959 . S
C791 H776 0.959 . S
C791 H777 0.961 . S
C791 C790 1.502 . S
C792 H778 0.960 . S
C792 H779 0.961 . S
C792 H780 0.959 . S
C792 C790 1.561 . S
C793 C790 1.526 . S
C793 C794 1.396 . S
C793 C798 1.390 . S
C794 C788 1.465 . S
C794 C793 1.396 . S
C794 C795 1.399 . S
C795 H781 0.929 . S
C795 C794 1.399 . S
C795 C796 1.385 . S
C796 H782 0.931 . S
C796 C795 1.385 . S
C796 C797 1.389 . S
C797 C796 1.389 . S
C797 C798 1.387 . S
C798 H783 0.930 . S
C798 C793 1.390 . S
C798 C797 1.387 . S
H799 C811 0.930 . S
H800 C813 0.930 . S
H801 C814 0.930 . S
H802 C818 0.959 . S
H803 C818 0.959 . S
H804 C818 0.961 . S
H805 C819 0.960 . S
H806 C819 0.961 . S
H807 C819 0.959 . S
H808 C822 0.929 . S
H809 C823 0.931 . S
H810 C825 0.930 . S
C811 H799 0.930 . S
C811 C812 1.399 . S
C811 C816 1.399 . S
C812 C811 1.399 . S
C812 C813 1.376 . S
C813 H800 0.930 . S
C813 C812 1.376 . S
C813 C814 1.388 . S
C814 H801 0.930 . S
C814 C813 1.388 . S
C814 C815 1.390 . S
C815 C814 1.390 . S
C815 C816 1.394 . S
C815 C821 1.465 . S
C816 C811 1.399 . S
C816 C815 1.394 . S
C816 C817 1.516 . S
C817 C816 1.516 . S
C817 C818 1.502 . S
C817 C819 1.561 . S
C817 C820 1.526 . S
C818 H802 0.959 . S
C818 H803 0.959 . S
C818 H804 0.961 . S
C818 C817 1.502 . S
C819 H805 0.960 . S
C819 H806 0.961 . S
C819 H807 0.959 . S
C819 C817 1.561 . S
C820 C817 1.526 . S
C820 C821 1.396 . S
C820 C825 1.390 . S
C821 C815 1.465 . S
C821 C820 1.396 . S
C821 C822 1.399 . S
C822 H808 0.929 . S
C822 C821 1.399 . S
C822 C823 1.385 . S
C823 H809 0.931 . S
C823 C822 1.385 . S
C823 C824 1.389 . S
C824 C823 1.389 . S
C824 C825 1.387 . S
C825 H810 0.930 . S
C825 C820 1.390 . S
C825 C824 1.387 . S
H826 C838 0.930 . S
H827 C840 0.930 . S
H828 C841 0.930 . S
H829 C845 0.959 . S
H830 C845 0.959 . S
H831 C845 0.961 . S
H832 C846 0.960 . S
H833 C846 0.961 . S
H834 C846 0.959 . S
H835 C849 0.929 . S
H836 C850 0.931 . S
H837 C852 0.930 . S
C838 H826 0.930 . S
C838 C839 1.399 . S
C838 C843 1.399 . S
C839 C838 1.399 . S
C839 C840 1.376 . S
C840 H827 0.930 . S
C840 C839 1.376 . S
C840 C841 1.388 . S
C841 H828 0.930 . S
C841 C840 1.388 . S
C841 C842 1.390 . S
C842 C841 1.390 . S
C842 C843 1.394 . S
C842 C848 1.465 . S
C843 C838 1.399 . S
C843 C842 1.394 . S
C843 C844 1.516 . S
C844 C843 1.516 . S
C844 C845 1.502 . S
C844 C846 1.561 . S
C844 C847 1.526 . S
C845 H829 0.959 . S
C845 H830 0.959 . S
C845 H831 0.961 . S
C845 C844 1.502 . S
C846 H832 0.960 . S
C846 H833 0.961 . S
C846 H834 0.959 . S
C846 C844 1.561 . S
C847 C844 1.526 . S
C847 C848 1.396 . S
C847 C852 1.390 . S
C848 C842 1.465 . S
C848 C847 1.396 . S
C848 C849 1.399 . S
C849 H835 0.929 . S
C849 C848 1.399 . S
C849 C850 1.385 . S
C850 H836 0.931 . S
C850 C849 1.385 . S
C850 C851 1.389 . S
C851 C850 1.389 . S
C851 C852 1.387 . S
C852 H837 0.930 . S
C852 C847 1.390 . S
C852 C851 1.387 . S
H853 C865 0.930 . S
H854 C867 0.930 . S
H855 C868 0.930 . S
H856 C872 0.959 . S
H857 C872 0.959 . S
H858 C872 0.961 . S
H859 C873 0.960 . S
H860 C873 0.961 . S
H861 C873 0.959 . S
H862 C876 0.929 . S
H863 C877 0.931 . S
H864 C879 0.930 . S
C865 H853 0.930 . S
C865 C866 1.399 . S
C865 C870 1.399 . S
C866 C865 1.399 . S
C866 C867 1.376 . S
C867 H854 0.930 . S
C867 C866 1.376 . S
C867 C868 1.388 . S
C868 H855 0.930 . S
C868 C867 1.388 . S
C868 C869 1.390 . S
C869 C868 1.390 . S
C869 C870 1.394 . S
C869 C875 1.465 . S
C870 C865 1.399 . S
C870 C869 1.394 . S
C870 C871 1.516 . S
C871 C870 1.516 . S
C871 C872 1.502 . S
C871 C873 1.561 . S
C871 C874 1.526 . S
C872 H856 0.959 . S
C872 H857 0.959 . S
C872 H858 0.961 . S
C872 C871 1.502 . S
C873 H859 0.960 . S
C873 H860 0.961 . S
C873 H861 0.959 . S
C873 C871 1.561 . S
C874 C871 1.526 . S
C874 C875 1.396 . S
C874 C879 1.390 . S
C875 C869 1.465 . S
C875 C874 1.396 . S
C875 C876 1.399 . S
C876 H862 0.929 . S
C876 C875 1.399 . S
C876 C877 1.385 . S
C877 H863 0.931 . S
C877 C876 1.385 . S
C877 C878 1.389 . S
C878 C877 1.389 . S
C878 C879 1.387 . S
C879 H864 0.930 . S
C879 C874 1.390 . S
C879 C878 1.387 . S
H880 C892 0.930 . S
H881 C894 0.930 . S
H882 C895 0.930 1_455 S
H883 C899 0.959 . S
H884 C899 0.959 . S
H885 C899 0.961 . S
H886 C900 0.960 . S
H887 C900 0.961 . S
H888 C900 0.959 1_455 S
H889 C903 0.929 . S
H890 C904 0.931 . S
H891 C906 0.930 . S
C892 H880 0.930 . S
C892 C893 1.399 . S
C892 C897 1.399 . S
C893 C892 1.399 . S
C893 C894 1.376 . S
C894 H881 0.930 . S
C894 C893 1.376 . S
C894 C895 1.388 . S
C895 H882 0.930 1_655 S
C895 C894 1.388 . S
C895 C896 1.390 . S
C896 C895 1.390 . S
C896 C897 1.394 . S
C896 C902 1.465 1_655 S
C897 C892 1.399 . S
C897 C896 1.394 . S
C897 C898 1.516 . S
C898 C897 1.516 . S
C898 C899 1.502 . S
C898 C900 1.561 . S
C898 C901 1.526 1_655 S
C899 H883 0.959 . S
C899 H884 0.959 . S
C899 H885 0.961 . S
C899 C898 1.502 . S
C900 H886 0.960 . S
C900 H887 0.961 . S
C900 H888 0.959 1_655 S
C900 C898 1.561 . S
C901 C898 1.526 1_455 S
C901 C902 1.396 . S
C901 C906 1.390 . S
C902 C896 1.465 1_455 S
C902 C901 1.396 . S
C902 C903 1.399 . S
C903 H889 0.929 . S
C903 C902 1.399 . S
C903 C904 1.385 . S
C904 H890 0.931 . S
C904 C903 1.385 . S
C904 C905 1.389 . S
C905 C904 1.389 . S
C905 C906 1.387 . S
C906 H891 0.930 . S
C906 C901 1.390 . S
C906 C905 1.387 . S
H907 C919 0.930 . S
H908 C921 0.930 . S
H909 C922 0.930 . S
H910 C926 0.959 . S
H911 C926 0.959 . S
H912 C926 0.961 . S
H913 C927 0.960 . S
H914 C927 0.961 1_545 S
H915 C927 0.959 . S
H916 C930 0.929 . S
H917 C931 0.931 . S
H918 C933 0.930 . S
C919 H907 0.930 . S
C919 C920 1.399 . S
C919 C924 1.399 . S
C920 C919 1.399 . S
C920 C921 1.376 . S
C921 H908 0.930 . S
C921 C920 1.376 . S
C921 C922 1.388 . S
C922 H909 0.930 . S
C922 C921 1.388 . S
C922 C923 1.390 . S
C923 C922 1.390 . S
C923 C924 1.394 . S
C923 C929 1.465 1_565 S
C924 C919 1.399 . S
C924 C923 1.394 . S
C924 C925 1.516 1_565 S
C925 C924 1.516 1_545 S
C925 C926 1.502 . S
C925 C927 1.561 1_545 S
C925 C928 1.526 . S
C926 H910 0.959 . S
C926 H911 0.959 . S
C926 H912 0.961 . S
C926 C925 1.502 . S
C927 H913 0.960 . S
C927 H914 0.961 1_565 S
C927 H915 0.959 . S
C927 C925 1.561 1_565 S
C928 C925 1.526 . S
C928 C929 1.396 . S
C928 C933 1.390 . S
C929 C923 1.465 1_545 S
C929 C928 1.396 . S
C929 C930 1.399 . S
C930 H916 0.929 . S
C930 C929 1.399 . S
C930 C931 1.385 . S
C931 H917 0.931 . S
C931 C930 1.385 . S
C931 C932 1.389 . S
C932 C931 1.389 . S
C932 C933 1.387 . S
C933 H918 0.930 . S
C933 C928 1.390 . S
C933 C932 1.387 . S
H934 C946 0.930 . S
H935 C948 0.930 . S
H936 C949 0.930 1_545 S
H937 C953 0.959 . S
H938 C953 0.959 . S
H939 C953 0.961 . S
H940 C954 0.960 1_455 S
H941 C954 0.961 1_545 S
H942 C954 0.959 1_445 S
H943 C957 0.929 1_455 S
H944 C958 0.931 . S
H945 C960 0.930 . S
C946 H934 0.930 . S
C946 C947 1.399 1_554 S
C946 C951 1.399 . S
C947 C946 1.399 1_556 S
C947 C948 1.376 . S
C948 H935 0.930 . S
C948 C947 1.376 . S
C948 C949 1.388 . S
C949 H936 0.930 1_565 S
C949 C948 1.388 . S
C949 C950 1.390 . S
C950 C949 1.390 . S
C950 C951 1.394 1_556 S
C950 C956 1.465 1_465 S
C951 C946 1.399 . S
C951 C950 1.394 1_554 S
C951 C952 1.516 1_455 S
C952 C951 1.516 1_655 S
C952 C953 1.502 . S
C952 C954 1.561 . S
C952 C955 1.526 1_565 S
C953 H937 0.959 . S
C953 H938 0.959 . S
C953 H939 0.961 . S
C953 C952 1.502 . S
C954 H940 0.960 1_655 S
C954 H941 0.961 1_565 S
C954 H942 0.959 1_665 S
C954 C952 1.561 . S
C955 C952 1.526 1_545 S
C955 C956 1.396 1_554 S
C955 C960 1.390 . S
C956 C950 1.465 1_645 S
C956 C955 1.396 1_556 S
C956 C957 1.399 . S
C957 H943 0.929 1_655 S
C957 C956 1.399 . S
C957 C958 1.385 . S
C958 H944 0.931 . S
C958 C957 1.385 . S
C958 C959 1.389 . S
C959 C958 1.389 . S
C959 C960 1.387 1_556 S
C960 H945 0.930 . S
C960 C955 1.390 . S
C960 C959 1.387 1_554 S
H961 C973 0.930 . S
H962 C975 0.930 . S
H963 C976 0.930 . S
H964 C980 0.959 . S
H965 C980 0.959 . S
H966 C980 0.961 . S
H967 C981 0.960 . S
H968 C981 0.961 . S
H969 C981 0.959 . S
H970 C984 0.929 . S
H971 C985 0.931 . S
H972 C987 0.930 . S
C973 H961 0.930 . S
C973 C974 1.399 1_554 S
C973 C978 1.399 . S
C974 C973 1.399 1_556 S
C974 C975 1.376 . S
C975 H962 0.930 . S
C975 C974 1.376 . S
C975 C976 1.388 . S
C976 H963 0.930 . S
C976 C975 1.388 . S
C976 C977 1.390 . S
C977 C976 1.390 . S
C977 C978 1.394 1_556 S
C977 C983 1.465 . S
C978 C973 1.399 . S
C978 C977 1.394 1_554 S
C978 C979 1.516 . S
C979 C978 1.516 . S
C979 C980 1.502 . S
C979 C981 1.561 . S
C979 C982 1.526 . S
C980 H964 0.959 . S
C980 H965 0.959 . S
C980 H966 0.961 . S
C980 C979 1.502 . S
C981 H967 0.960 . S
C981 H968 0.961 . S
C981 H969 0.959 . S
C981 C979 1.561 . S
C982 C979 1.526 . S
C982 C983 1.396 1_554 S
C982 C987 1.390 . S
C983 C977 1.465 . S
C983 C982 1.396 1_556 S
C983 C984 1.399 . S
C984 H970 0.929 . S
C984 C983 1.399 . S
C984 C985 1.385 . S
C985 H971 0.931 . S
C985 C984 1.385 . S
C985 C986 1.389 . S
C986 C985 1.389 . S
C986 C987 1.387 1_556 S
C987 H972 0.930 . S
C987 C982 1.390 . S
C987 C986 1.387 1_554 S
H988 C1000 0.930 . S
H989 C1002 0.930 . S
H990 C1003 0.930 . S
H991 C1007 0.959 . S
H992 C1007 0.959 . S
H993 C1007 0.961 1_655 S
H994 C1008 0.960 . S
H995 C1008 0.961 . S
H996 C1008 0.959 . S
H997 C1011 0.929 . S
H998 C1012 0.931 . S
H999 C1014 0.930 . S
C1000 H988 0.930 . S
C1000 C1001 1.399 . S
C1000 C1005 1.399 . S
C1001 C1000 1.399 . S
C1001 C1002 1.376 . S
C1002 H989 0.930 . S
C1002 C1001 1.376 . S
C1002 C1003 1.388 . S
C1003 H990 0.930 . S
C1003 C1002 1.388 . S
C1003 C1004 1.390 . S
C1004 C1003 1.390 . S
C1004 C1005 1.394 . S
C1004 C1010 1.465 1_655 S
C1005 C1000 1.399 . S
C1005 C1004 1.394 . S
C1005 C1006 1.516 . S
C1006 C1005 1.516 . S
C1006 C1007 1.502 1_655 S
C1006 C1008 1.561 . S
C1006 C1009 1.526 1_655 S
C1007 H991 0.959 . S
C1007 H992 0.959 . S
C1007 H993 0.961 1_455 S
C1007 C1006 1.502 1_455 S
C1008 H994 0.960 . S
C1008 H995 0.961 . S
C1008 H996 0.959 . S
C1008 C1006 1.561 . S
C1009 C1006 1.526 1_455 S
C1009 C1010 1.396 . S
C1009 C1014 1.390 . S
C1010 C1004 1.465 1_455 S
C1010 C1009 1.396 . S
C1010 C1011 1.399 . S
C1011 H997 0.929 . S
C1011 C1010 1.399 . S
C1011 C1012 1.385 . S
C1012 H998 0.931 . S
C1012 C1011 1.385 . S
C1012 C1013 1.389 . S
C1013 C1012 1.389 . S
C1013 C1014 1.387 . S
C1014 H999 0.930 . S
C1014 C1009 1.390 . S
C1014 C1013 1.387 . S
H1015 C1027 0.930 . S
H1016 C1029 0.930 . S
H1017 C1030 0.930 . S
H1018 C1034 0.959 . S
H1019 C1034 0.959 . S
H1020 C1034 0.961 . S
H1021 C1035 0.960 1_565 S
H1022 C1035 0.961 . S
H1023 C1035 0.959 . S
H1024 C1038 0.929 . S
H1025 C1039 0.931 . S
H1026 C1041 0.930 . S
C1027 H1015 0.930 . S
C1027 C1028 1.399 . S
C1027 C1032 1.399 . S
C1028 C1027 1.399 . S
C1028 C1029 1.376 . S
C1029 H1016 0.930 . S
C1029 C1028 1.376 . S
C1029 C1030 1.388 . S
C1030 H1017 0.930 . S
C1030 C1029 1.388 . S
C1030 C1031 1.390 . S
C1031 C1030 1.390 . S
C1031 C1032 1.394 . S
C1031 C1037 1.465 1_565 S
C1032 C1027 1.399 . S
C1032 C1031 1.394 . S
C1032 C1033 1.516 . S
C1033 C1032 1.516 . S
C1033 C1034 1.502 . S
C1033 C1035 1.561 1_565 S
C1033 C1036 1.526 1_565 S
C1034 H1018 0.959 . S
C1034 H1019 0.959 . S
C1034 H1020 0.961 . S
C1034 C1033 1.502 . S
C1035 H1021 0.960 1_545 S
C1035 H1022 0.961 . S
C1035 H1023 0.959 . S
C1035 C1033 1.561 1_545 S
C1036 C1033 1.526 1_545 S
C1036 C1037 1.396 . S
C1036 C1041 1.390 . S
C1037 C1031 1.465 1_545 S
C1037 C1036 1.396 . S
C1037 C1038 1.399 . S
C1038 H1024 0.929 . S
C1038 C1037 1.399 . S
C1038 C1039 1.385 . S
C1039 H1025 0.931 . S
C1039 C1038 1.385 . S
C1039 C1040 1.389 . S
C1040 C1039 1.389 . S
C1040 C1041 1.387 . S
C1041 H1026 0.930 . S
C1041 C1036 1.390 . S
C1041 C1040 1.387 . S
H1042 C1054 0.930 . S
H1043 C1056 0.930 . S
H1044 C1057 0.930 . S
H1045 C1061 0.959 . S
H1046 C1061 0.959 . S
H1047 C1061 0.961 . S
H1048 C1062 0.960 . S
H1049 C1062 0.961 . S
H1050 C1062 0.959 . S
H1051 C1065 0.929 . S
H1052 C1066 0.931 . S
H1053 C1068 0.930 . S
C1054 H1042 0.930 . S
C1054 C1055 1.399 1_554 S
C1054 C1059 1.399 . S
C1055 C1054 1.399 1_556 S
C1055 C1056 1.376 . S
C1056 H1043 0.930 . S
C1056 C1055 1.376 . S
C1056 C1057 1.388 . S
C1057 H1044 0.930 . S
C1057 C1056 1.388 . S
C1057 C1058 1.390 . S
C1058 C1057 1.390 . S
C1058 C1059 1.394 1_556 S
C1058 C1064 1.465 . S
C1059 C1054 1.399 . S
C1059 C1058 1.394 1_554 S
C1059 C1060 1.516 . S
C1060 C1059 1.516 . S
C1060 C1061 1.502 . S
C1060 C1062 1.561 . S
C1060 C1063 1.526 . S
C1061 H1045 0.959 . S
C1061 H1046 0.959 . S
C1061 H1047 0.961 . S
C1061 C1060 1.502 . S
C1062 H1048 0.960 . S
C1062 H1049 0.961 . S
C1062 H1050 0.959 . S
C1062 C1060 1.561 . S
C1063 C1060 1.526 . S
C1063 C1064 1.396 1_554 S
C1063 C1068 1.390 . S
C1064 C1058 1.465 . S
C1064 C1063 1.396 1_556 S
C1064 C1065 1.399 . S
C1065 H1051 0.929 . S
C1065 C1064 1.399 . S
C1065 C1066 1.385 . S
C1066 H1052 0.931 . S
C1066 C1065 1.385 . S
C1066 C1067 1.389 . S
C1067 C1066 1.389 . S
C1067 C1068 1.387 1_556 S
C1068 H1053 0.930 . S
C1068 C1063 1.390 . S
C1068 C1067 1.387 1_554 S
H1069 C1081 0.930 . S
H1070 C1083 0.930 . S
H1071 C1084 0.930 . S
H1072 C1088 0.959 . S
H1073 C1088 0.959 . S
H1074 C1088 0.961 . S
H1075 C1089 0.960 . S
H1076 C1089 0.961 . S
H1077 C1089 0.959 . S
H1078 C1092 0.929 . S
H1079 C1093 0.931 . S
H1080 C1095 0.930 . S
C1081 H1069 0.930 . S
C1081 C1082 1.399 . S
C1081 C1086 1.399 . S
C1082 C1081 1.399 . S
C1082 C1083 1.376 . S
C1083 H1070 0.930 . S
C1083 C1082 1.376 . S
C1083 C1084 1.388 . S
C1084 H1071 0.930 . S
C1084 C1083 1.388 . S
C1084 C1085 1.390 . S
C1085 C1084 1.390 . S
C1085 C1086 1.394 . S
C1085 C1091 1.465 . S
C1086 C1081 1.399 . S
C1086 C1085 1.394 . S
C1086 C1087 1.516 . S
C1087 C1086 1.516 . S
C1087 C1088 1.502 . S
C1087 C1089 1.561 . S
C1087 C1090 1.526 . S
C1088 H1072 0.959 . S
C1088 H1073 0.959 . S
C1088 H1074 0.961 . S
C1088 C1087 1.502 . S
C1089 H1075 0.960 . S
C1089 H1076 0.961 . S
C1089 H1077 0.959 . S
C1089 C1087 1.561 . S
C1090 C1087 1.526 . S
C1090 C1091 1.396 . S
C1090 C1095 1.390 . S
C1091 C1085 1.465 . S
C1091 C1090 1.396 . S
C1091 C1092 1.399 . S
C1092 H1078 0.929 . S
C1092 C1091 1.399 . S
C1092 C1093 1.385 . S
C1093 H1079 0.931 . S
C1093 C1092 1.385 . S
C1093 C1094 1.389 . S
C1094 C1093 1.389 . S
C1094 C1095 1.387 . S
C1095 H1080 0.930 . S
C1095 C1090 1.390 . S
C1095 C1094 1.387 . S
H1096 C1108 0.930 . S
H1097 C1110 0.930 . S
H1098 C1111 0.930 1_455 S
H1099 C1115 0.959 . S
H1100 C1115 0.959 . S
H1101 C1115 0.961 . S
H1102 C1116 0.960 . S
H1103 C1116 0.961 1_455 S
H1104 C1116 0.959 1_455 S
H1105 C1119 0.929 . S
H1106 C1120 0.931 . S
H1107 C1122 0.930 . S
C1108 H1096 0.930 . S
C1108 C1109 1.399 . S
C1108 C1113 1.399 . S
C1109 C1108 1.399 . S
C1109 C1110 1.376 . S
C1110 H1097 0.930 . S
C1110 C1109 1.376 . S
C1110 C1111 1.388 . S
C1111 H1098 0.930 1_655 S
C1111 C1110 1.388 . S
C1111 C1112 1.390 . S
C1112 C1111 1.390 . S
C1112 C1113 1.394 . S
C1112 C1118 1.465 1_655 S
C1113 C1108 1.399 . S
C1113 C1112 1.394 . S
C1113 C1114 1.516 . S
C1114 C1113 1.516 . S
C1114 C1115 1.502 . S
C1114 C1116 1.561 . S
C1114 C1117 1.526 1_655 S
C1115 H1099 0.959 . S
C1115 H1100 0.959 . S
C1115 H1101 0.961 . S
C1115 C1114 1.502 . S
C1116 H1102 0.960 . S
C1116 H1103 0.961 1_655 S
C1116 H1104 0.959 1_655 S
C1116 C1114 1.561 . S
C1117 C1114 1.526 1_455 S
C1117 C1118 1.396 . S
C1117 C1122 1.390 . S
C1118 C1112 1.465 1_455 S
C1118 C1117 1.396 . S
C1118 C1119 1.399 . S
C1119 H1105 0.929 . S
C1119 C1118 1.399 . S
C1119 C1120 1.385 . S
C1120 H1106 0.931 . S
C1120 C1119 1.385 . S
C1120 C1121 1.389 . S
C1121 C1120 1.389 . S
C1121 C1122 1.387 . S
C1122 H1107 0.930 . S
C1122 C1117 1.390 . S
C1122 C1121 1.387 . S
H1123 C1135 0.930 . S
H1124 C1137 0.930 . S
H1125 C1138 0.930 . S
H1126 C1142 0.959 . S
H1127 C1142 0.959 . S
H1128 C1142 0.961 . S
H1129 C1143 0.960 . S
H1130 C1143 0.961 . S
H1131 C1143 0.959 . S
H1132 C1146 0.929 . S
H1133 C1147 0.931 . S
H1134 C1149 0.930 . S
C1135 H1123 0.930 . S
C1135 C1136 1.399 . S
C1135 C1140 1.399 . S
C1136 C1135 1.399 . S
C1136 C1137 1.376 . S
C1137 H1124 0.930 . S
C1137 C1136 1.376 . S
C1137 C1138 1.388 . S
C1138 H1125 0.930 . S
C1138 C1137 1.388 . S
C1138 C1139 1.390 . S
C1139 C1138 1.390 . S
C1139 C1140 1.394 . S
C1139 C1145 1.465 . S
C1140 C1135 1.399 . S
C1140 C1139 1.394 . S
C1140 C1141 1.516 . S
C1141 C1140 1.516 . S
C1141 C1142 1.502 . S
C1141 C1143 1.561 . S
C1141 C1144 1.526 . S
C1142 H1126 0.959 . S
C1142 H1127 0.959 . S
C1142 H1128 0.961 . S
C1142 C1141 1.502 . S
C1143 H1129 0.960 . S
C1143 H1130 0.961 . S
C1143 H1131 0.959 . S
C1143 C1141 1.561 . S
C1144 C1141 1.526 . S
C1144 C1145 1.396 . S
C1144 C1149 1.390 . S
C1145 C1139 1.465 . S
C1145 C1144 1.396 . S
C1145 C1146 1.399 . S
C1146 H1132 0.929 . S
C1146 C1145 1.399 . S
C1146 C1147 1.385 . S
C1147 H1133 0.931 . S
C1147 C1146 1.385 . S
C1147 C1148 1.389 . S
C1148 C1147 1.389 . S
C1148 C1149 1.387 . S
C1149 H1134 0.930 . S
C1149 C1144 1.390 . S
C1149 C1148 1.387 . S
H1150 C1162 0.930 . S
H1151 C1164 0.930 . S
H1152 C1165 0.930 . S
H1153 C1169 0.959 . S
H1154 C1169 0.959 . S
H1155 C1169 0.961 . S
H1156 C1170 0.960 . S
H1157 C1170 0.961 . S
H1158 C1170 0.959 . S
H1159 C1173 0.929 . S
H1160 C1174 0.931 . S
H1161 C1176 0.930 . S
C1162 H1150 0.930 . S
C1162 C1163 1.399 . S
C1162 C1167 1.399 . S
C1163 C1162 1.399 . S
C1163 C1164 1.376 . S
C1164 H1151 0.930 . S
C1164 C1163 1.376 . S
C1164 C1165 1.388 . S
C1165 H1152 0.930 . S
C1165 C1164 1.388 . S
C1165 C1166 1.390 . S
C1166 C1165 1.390 . S
C1166 C1167 1.394 . S
C1166 C1172 1.465 . S
C1167 C1162 1.399 . S
C1167 C1166 1.394 . S
C1167 C1168 1.516 . S
C1168 C1167 1.516 . S
C1168 C1169 1.502 . S
C1168 C1170 1.561 . S
C1168 C1171 1.526 . S
C1169 H1153 0.959 . S
C1169 H1154 0.959 . S
C1169 H1155 0.961 . S
C1169 C1168 1.502 . S
C1170 H1156 0.960 . S
C1170 H1157 0.961 . S
C1170 H1158 0.959 . S
C1170 C1168 1.561 . S
C1171 C1168 1.526 . S
C1171 C1172 1.396 . S
C1171 C1176 1.390 . S
C1172 C1166 1.465 . S
C1172 C1171 1.396 . S
C1172 C1173 1.399 . S
C1173 H1159 0.929 . S
C1173 C1172 1.399 . S
C1173 C1174 1.385 . S
C1174 H1160 0.931 . S
C1174 C1173 1.385 . S
C1174 C1175 1.389 . S
C1175 C1174 1.389 . S
C1175 C1176 1.387 . S
C1176 H1161 0.930 . S
C1176 C1171 1.390 . S
C1176 C1175 1.387 . S
H1177 C1189 0.930 . S
H1178 C1191 0.930 . S
H1179 C1192 0.930 . S
H1180 C1196 0.959 . S
H1181 C1196 0.959 . S
H1182 C1196 0.961 . S
H1183 C1197 0.960 . S
H1184 C1197 0.961 . S
H1185 C1197 0.959 . S
H1186 C1200 0.929 . S
H1187 C1201 0.931 . S
H1188 C1203 0.930 . S
C1189 H1177 0.930 . S
C1189 C1190 1.399 . S
C1189 C1194 1.399 . S
C1190 C1189 1.399 . S
C1190 C1191 1.376 . S
C1191 H1178 0.930 . S
C1191 C1190 1.376 . S
C1191 C1192 1.388 . S
C1192 H1179 0.930 . S
C1192 C1191 1.388 . S
C1192 C1193 1.390 . S
C1193 C1192 1.390 . S
C1193 C1194 1.394 . S
C1193 C1199 1.465 . S
C1194 C1189 1.399 . S
C1194 C1193 1.394 . S
C1194 C1195 1.516 . S
C1195 C1194 1.516 . S
C1195 C1196 1.502 . S
C1195 C1197 1.561 . S
C1195 C1198 1.526 . S
C1196 H1180 0.959 . S
C1196 H1181 0.959 . S
C1196 H1182 0.961 . S
C1196 C1195 1.502 . S
C1197 H1183 0.960 . S
C1197 H1184 0.961 . S
C1197 H1185 0.959 . S
C1197 C1195 1.561 . S
C1198 C1195 1.526 . S
C1198 C1199 1.396 . S
C1198 C1203 1.390 . S
C1199 C1193 1.465 . S
C1199 C1198 1.396 . S
C1199 C1200 1.399 . S
C1200 H1186 0.929 . S
C1200 C1199 1.399 . S
C1200 C1201 1.385 . S
C1201 H1187 0.931 . S
C1201 C1200 1.385 . S
C1201 C1202 1.389 . S
C1202 C1201 1.389 . S
C1202 C1203 1.387 . S
C1203 H1188 0.930 . S
C1203 C1198 1.390 . S
C1203 C1202 1.387 . S
H1204 C1216 0.930 . S
H1205 C1218 0.930 . S
H1206 C1219 0.930 . S
H1207 C1223 0.959 . S
H1208 C1223 0.959 . S
H1209 C1223 0.961 . S
H1210 C1224 0.960 . S
H1211 C1224 0.961 . S
H1212 C1224 0.959 . S
H1213 C1227 0.929 . S
H1214 C1228 0.931 . S
H1215 C1230 0.930 . S
C1216 H1204 0.930 . S
C1216 C1217 1.399 . S
C1216 C1221 1.399 . S
C1217 C1216 1.399 . S
C1217 C1218 1.376 . S
C1218 H1205 0.930 . S
C1218 C1217 1.376 . S
C1218 C1219 1.388 . S
C1219 H1206 0.930 . S
C1219 C1218 1.388 . S
C1219 C1220 1.390 . S
C1220 C1219 1.390 . S
C1220 C1221 1.394 . S
C1220 C1226 1.465 . S
C1221 C1216 1.399 . S
C1221 C1220 1.394 . S
C1221 C1222 1.516 . S
C1222 C1221 1.516 . S
C1222 C1223 1.502 . S
C1222 C1224 1.561 . S
C1222 C1225 1.526 . S
C1223 H1207 0.959 . S
C1223 H1208 0.959 . S
C1223 H1209 0.961 . S
C1223 C1222 1.502 . S
C1224 H1210 0.960 . S
C1224 H1211 0.961 . S
C1224 H1212 0.959 . S
C1224 C1222 1.561 . S
C1225 C1222 1.526 . S
C1225 C1226 1.396 . S
C1225 C1230 1.390 . S
C1226 C1220 1.465 . S
C1226 C1225 1.396 . S
C1226 C1227 1.399 . S
C1227 H1213 0.929 . S
C1227 C1226 1.399 . S
C1227 C1228 1.385 . S
C1228 H1214 0.931 . S
C1228 C1227 1.385 . S
C1228 C1229 1.389 . S
C1229 C1228 1.389 . S
C1229 C1230 1.387 . S
C1230 H1215 0.930 . S
C1230 C1225 1.390 . S
C1230 C1229 1.387 . S
H1231 C1243 0.930 . S
H1232 C1245 0.930 . S
H1233 C1246 0.930 . S
H1234 C1250 0.959 . S
H1235 C1250 0.959 . S
H1236 C1250 0.961 . S
H1237 C1251 0.960 . S
H1238 C1251 0.961 1_565 S
H1239 C1251 0.959 . S
H1240 C1254 0.929 . S
H1241 C1255 0.931 . S
H1242 C1257 0.930 . S
C1243 H1231 0.930 . S
C1243 C1244 1.399 . S
C1243 C1248 1.399 . S
C1244 C1243 1.399 . S
C1244 C1245 1.376 . S
C1245 H1232 0.930 . S
C1245 C1244 1.376 . S
C1245 C1246 1.388 . S
C1246 H1233 0.930 . S
C1246 C1245 1.388 . S
C1246 C1247 1.390 . S
C1247 C1246 1.390 . S
C1247 C1248 1.394 . S
C1247 C1253 1.465 1_545 S
C1248 C1243 1.399 . S
C1248 C1247 1.394 . S
C1248 C1249 1.516 1_545 S
C1249 C1248 1.516 1_565 S
C1249 C1250 1.502 . S
C1249 C1251 1.561 1_565 S
C1249 C1252 1.526 . S
C1250 H1234 0.959 . S
C1250 H1235 0.959 . S
C1250 H1236 0.961 . S
C1250 C1249 1.502 . S
C1251 H1237 0.960 . S
C1251 H1238 0.961 1_545 S
C1251 H1239 0.959 . S
C1251 C1249 1.561 1_545 S
C1252 C1249 1.526 . S
C1252 C1253 1.396 . S
C1252 C1257 1.390 . S
C1253 C1247 1.465 1_565 S
C1253 C1252 1.396 . S
C1253 C1254 1.399 . S
C1254 H1240 0.929 . S
C1254 C1253 1.399 . S
C1254 C1255 1.385 . S
C1255 H1241 0.931 . S
C1255 C1254 1.385 . S
C1255 C1256 1.389 . S
C1256 C1255 1.389 . S
C1256 C1257 1.387 . S
C1257 H1242 0.930 . S
C1257 C1252 1.390 . S
C1257 C1256 1.387 . S
H1258 C1270 0.930 . S
H1259 C1272 0.930 . S
H1260 C1273 0.930 . S
H1261 C1277 0.959 . S
H1262 C1277 0.959 . S
H1263 C1277 0.961 . S
H1264 C1278 0.960 . S
H1265 C1278 0.961 . S
H1266 C1278 0.959 . S
H1267 C1281 0.929 . S
H1268 C1282 0.931 . S
H1269 C1284 0.930 . S
C1270 H1258 0.930 . S
C1270 C1271 1.399 . S
C1270 C1275 1.399 . S
C1271 C1270 1.399 . S
C1271 C1272 1.376 . S
C1272 H1259 0.930 . S
C1272 C1271 1.376 . S
C1272 C1273 1.388 . S
C1273 H1260 0.930 . S
C1273 C1272 1.388 . S
C1273 C1274 1.390 . S
C1274 C1273 1.390 . S
C1274 C1275 1.394 . S
C1274 C1280 1.465 . S
C1275 C1270 1.399 . S
C1275 C1274 1.394 . S
C1275 C1276 1.516 . S
C1276 C1275 1.516 . S
C1276 C1277 1.502 . S
C1276 C1278 1.561 . S
C1276 C1279 1.526 . S
C1277 H1261 0.959 . S
C1277 H1262 0.959 . S
C1277 H1263 0.961 . S
C1277 C1276 1.502 . S
C1278 H1264 0.960 . S
C1278 H1265 0.961 . S
C1278 H1266 0.959 . S
C1278 C1276 1.561 . S
C1279 C1276 1.526 . S
C1279 C1280 1.396 . S
C1279 C1284 1.390 . S
C1280 C1274 1.465 . S
C1280 C1279 1.396 . S
C1280 C1281 1.399 . S
C1281 H1267 0.929 . S
C1281 C1280 1.399 . S
C1281 C1282 1.385 . S
C1282 H1268 0.931 . S
C1282 C1281 1.385 . S
C1282 C1283 1.389 . S
C1283 C1282 1.389 . S
C1283 C1284 1.387 . S
C1284 H1269 0.930 . S
C1284 C1279 1.390 . S
C1284 C1283 1.387 . S
H1285 C1297 0.930 . S
H1286 C1299 0.930 . S
H1287 C1300 0.930 . S
H1288 C1304 0.959 . S
H1289 C1304 0.959 . S
H1290 C1304 0.961 . S
H1291 C1305 0.960 . S
H1292 C1305 0.961 . S
H1293 C1305 0.959 . S
H1294 C1308 0.929 . S
H1295 C1309 0.931 . S
H1296 C1311 0.930 . S
C1297 H1285 0.930 . S
C1297 C1298 1.379 1_556 S
C1297 C1302 1.399 . S
C1298 C1297 1.379 1_554 S
C1298 C1299 1.401 . S
C1299 H1286 0.930 . S
C1299 C1298 1.401 . S
C1299 C1300 1.388 . S
C1300 H1287 0.930 . S
C1300 C1299 1.388 . S
C1300 C1301 1.390 . S
C1301 C1300 1.390 . S
C1301 C1302 1.394 1_554 S
C1301 C1307 1.465 . S
C1302 C1297 1.399 . S
C1302 C1301 1.394 1_556 S
C1302 C1303 1.516 . S
C1303 C1302 1.516 . S
C1303 C1304 1.502 . S
C1303 C1305 1.561 . S
C1303 C1306 1.526 . S
C1304 H1288 0.959 . S
C1304 H1289 0.959 . S
C1304 H1290 0.961 . S
C1304 C1303 1.502 . S
C1305 H1291 0.960 . S
C1305 H1292 0.961 . S
C1305 H1293 0.959 . S
C1305 C1303 1.561 . S
C1306 C1303 1.526 . S
C1306 C1307 1.396 1_556 S
C1306 C1311 1.390 . S
C1307 C1301 1.465 . S
C1307 C1306 1.396 1_554 S
C1307 C1308 1.399 . S
C1308 H1294 0.929 . S
C1308 C1307 1.399 . S
C1308 C1309 1.385 . S
C1309 H1295 0.931 . S
C1309 C1308 1.385 . S
C1309 C1310 1.389 . S
C1310 C1309 1.389 . S
C1310 C1311 1.387 1_554 S
C1311 H1296 0.930 . S
C1311 C1306 1.390 . S
C1311 C1310 1.387 1_556 S
H1312 C1324 0.930 . S
H1313 C1326 0.930 . S
H1314 C1327 0.930 . S
H1315 C1331 0.959 . S
H1316 C1331 0.959 . S
H1317 C1331 0.961 . S
H1318 C1332 0.960 . S
H1319 C1332 0.961 . S
H1320 C1332 0.959 . S
H1321 C1335 0.929 . S
H1322 C1336 0.931 . S
H1323 C1338 0.930 . S
C1324 H1312 0.930 . S
C1324 C1325 1.399 . S
C1324 C1329 1.399 . S
C1325 C1324 1.399 . S
C1325 C1326 1.376 . S
C1326 H1313 0.930 . S
C1326 C1325 1.376 . S
C1326 C1327 1.388 . S
C1327 H1314 0.930 . S
C1327 C1326 1.388 . S
C1327 C1328 1.390 . S
C1328 C1327 1.390 . S
C1328 C1329 1.394 . S
C1328 C1334 1.465 . S
C1329 C1324 1.399 . S
C1329 C1328 1.394 . S
C1329 C1330 1.516 . S
C1330 C1329 1.516 . S
C1330 C1331 1.502 . S
C1330 C1332 1.561 . S
C1330 C1333 1.526 . S
C1331 H1315 0.959 . S
C1331 H1316 0.959 . S
C1331 H1317 0.961 . S
C1331 C1330 1.502 . S
C1332 H1318 0.960 . S
C1332 H1319 0.961 . S
C1332 H1320 0.959 . S
C1332 C1330 1.561 . S
C1333 C1330 1.526 . S
C1333 C1334 1.396 . S
C1333 C1338 1.390 . S
C1334 C1328 1.465 . S
C1334 C1333 1.396 . S
C1334 C1335 1.399 . S
C1335 H1321 0.929 . S
C1335 C1334 1.399 . S
C1335 C1336 1.385 . S
C1336 H1322 0.931 . S
C1336 C1335 1.385 . S
C1336 C1337 1.389 . S
C1337 C1336 1.389 . S
C1337 C1338 1.387 . S
C1338 H1323 0.930 . S
C1338 C1333 1.390 . S
C1338 C1337 1.387 . S
H1339 C1351 0.930 . S
H1340 C1353 0.930 . S
H1341 C1354 0.930 . S
H1342 C1358 0.959 . S
H1343 C1358 0.959 . S
H1344 C1358 0.961 . S
H1345 C1359 0.960 . S
H1346 C1359 0.961 . S
H1347 C1359 0.959 . S
H1348 C1362 0.929 . S
H1349 C1363 0.931 . S
H1350 C1365 0.930 . S
C1351 H1339 0.930 . S
C1351 C1352 1.399 . S
C1351 C1356 1.399 . S
C1352 C1351 1.399 . S
C1352 C1353 1.376 . S
C1353 H1340 0.930 . S
C1353 C1352 1.376 . S
C1353 C1354 1.388 . S
C1354 H1341 0.930 . S
C1354 C1353 1.388 . S
C1354 C1355 1.390 . S
C1355 C1354 1.390 . S
C1355 C1356 1.394 . S
C1355 C1361 1.465 . S
C1356 C1351 1.399 . S
C1356 C1355 1.394 . S
C1356 C1357 1.516 . S
C1357 C1356 1.516 . S
C1357 C1358 1.502 . S
C1357 C1359 1.561 . S
C1357 C1360 1.526 . S
C1358 H1342 0.959 . S
C1358 H1343 0.959 . S
C1358 H1344 0.961 . S
C1358 C1357 1.502 . S
C1359 H1345 0.960 . S
C1359 H1346 0.961 . S
C1359 H1347 0.959 . S
C1359 C1357 1.561 . S
C1360 C1357 1.526 . S
C1360 C1361 1.396 . S
C1360 C1365 1.390 . S
C1361 C1355 1.465 . S
C1361 C1360 1.396 . S
C1361 C1362 1.399 . S
C1362 H1348 0.929 . S
C1362 C1361 1.399 . S
C1362 C1363 1.385 . S
C1363 H1349 0.931 . S
C1363 C1362 1.385 . S
C1363 C1364 1.389 . S
C1364 C1363 1.389 . S
C1364 C1365 1.387 . S
C1365 H1350 0.930 . S
C1365 C1360 1.390 . S
C1365 C1364 1.387 . S
H1366 C1378 0.930 . S
H1367 C1380 0.930 . S
H1368 C1381 0.930 . S
H1369 C1385 0.959 . S
H1370 C1385 0.959 . S
H1371 C1385 0.961 . S
H1372 C1386 0.960 . S
H1373 C1386 0.961 . S
H1374 C1386 0.959 . S
H1375 C1389 0.929 . S
H1376 C1390 0.931 . S
H1377 C1392 0.930 . S
C1378 H1366 0.930 . S
C1378 C1379 1.399 . S
C1378 C1383 1.399 . S
C1379 C1378 1.399 . S
C1379 C1380 1.376 . S
C1380 H1367 0.930 . S
C1380 C1379 1.376 . S
C1380 C1381 1.388 . S
C1381 H1368 0.930 . S
C1381 C1380 1.388 . S
C1381 C1382 1.390 . S
C1382 C1381 1.390 . S
C1382 C1383 1.394 . S
C1382 C1388 1.465 . S
C1383 C1378 1.399 . S
C1383 C1382 1.394 . S
C1383 C1384 1.516 . S
C1384 C1383 1.516 . S
C1384 C1385 1.502 . S
C1384 C1386 1.561 . S
C1384 C1387 1.526 . S
C1385 H1369 0.959 . S
C1385 H1370 0.959 . S
C1385 H1371 0.961 . S
C1385 C1384 1.502 . S
C1386 H1372 0.960 . S
C1386 H1373 0.961 . S
C1386 H1374 0.959 . S
C1386 C1384 1.561 . S
C1387 C1384 1.526 . S
C1387 C1388 1.396 . S
C1387 C1392 1.390 . S
C1388 C1382 1.465 . S
C1388 C1387 1.396 . S
C1388 C1389 1.399 . S
C1389 H1375 0.929 . S
C1389 C1388 1.399 . S
C1389 C1390 1.385 . S
C1390 H1376 0.931 . S
C1390 C1389 1.385 . S
C1390 C1391 1.389 . S
C1391 C1390 1.389 . S
C1391 C1392 1.387 . S
C1392 H1377 0.930 . S
C1392 C1387 1.390 . S
C1392 C1391 1.387 . S
H1393 C1405 0.930 . S
H1394 C1407 0.930 . S
H1395 C1408 0.930 . S
H1396 C1412 0.959 . S
H1397 C1412 0.959 . S
H1398 C1412 0.961 . S
H1399 C1413 0.960 . S
H1400 C1413 0.961 . S
H1401 C1413 0.959 . S
H1402 C1416 0.929 . S
H1403 C1417 0.931 . S
H1404 C1419 0.930 . S
C1405 H1393 0.930 . S
C1405 C1406 1.399 . S
C1405 C1410 1.399 . S
C1406 C1405 1.399 . S
C1406 C1407 1.376 . S
C1407 H1394 0.930 . S
C1407 C1406 1.376 . S
C1407 C1408 1.388 . S
C1408 H1395 0.930 . S
C1408 C1407 1.388 . S
C1408 C1409 1.390 . S
C1409 C1408 1.390 . S
C1409 C1410 1.394 . S
C1409 C1415 1.465 . S
C1410 C1405 1.399 . S
C1410 C1409 1.394 . S
C1410 C1411 1.516 . S
C1411 C1410 1.516 . S
C1411 C1412 1.502 . S
C1411 C1413 1.561 . S
C1411 C1414 1.526 . S
C1412 H1396 0.959 . S
C1412 H1397 0.959 . S
C1412 H1398 0.961 . S
C1412 C1411 1.502 . S
C1413 H1399 0.960 . S
C1413 H1400 0.961 . S
C1413 H1401 0.959 . S
C1413 C1411 1.561 . S
C1414 C1411 1.526 . S
C1414 C1415 1.396 . S
C1414 C1419 1.390 . S
C1415 C1409 1.465 . S
C1415 C1414 1.396 . S
C1415 C1416 1.399 . S
C1416 H1402 0.929 . S
C1416 C1415 1.399 . S
C1416 C1417 1.385 . S
C1417 H1403 0.931 . S
C1417 C1416 1.385 . S
C1417 C1418 1.389 . S
C1418 C1417 1.389 . S
C1418 C1419 1.387 . S
C1419 H1404 0.930 . S
C1419 C1414 1.390 . S
C1419 C1418 1.387 . S
H1420 C1432 0.930 . S
H1421 C1434 0.930 . S
H1422 C1435 0.930 . S
H1423 C1439 0.959 . S
H1424 C1439 0.959 . S
H1425 C1439 0.961 . S
H1426 C1440 0.960 . S
H1427 C1440 0.961 . S
H1428 C1440 0.959 . S
H1429 C1443 0.929 . S
H1430 C1444 0.931 . S
H1431 C1446 0.930 . S
C1432 H1420 0.930 . S
C1432 C1433 1.399 . S
C1432 C1437 1.399 . S
C1433 C1432 1.399 . S
C1433 C1434 1.376 . S
C1434 H1421 0.930 . S
C1434 C1433 1.376 . S
C1434 C1435 1.388 . S
C1435 H1422 0.930 . S
C1435 C1434 1.388 . S
C1435 C1436 1.390 . S
C1436 C1435 1.390 . S
C1436 C1437 1.394 . S
C1436 C1442 1.465 . S
C1437 C1432 1.399 . S
C1437 C1436 1.394 . S
C1437 C1438 1.516 . S
C1438 C1437 1.516 . S
C1438 C1439 1.502 . S
C1438 C1440 1.561 . S
C1438 C1441 1.526 . S
C1439 H1423 0.959 . S
C1439 H1424 0.959 . S
C1439 H1425 0.961 . S
C1439 C1438 1.502 . S
C1440 H1426 0.960 . S
C1440 H1427 0.961 . S
C1440 H1428 0.959 . S
C1440 C1438 1.561 . S
C1441 C1438 1.526 . S
C1441 C1442 1.396 . S
C1441 C1446 1.390 . S
C1442 C1436 1.465 . S
C1442 C1441 1.396 . S
C1442 C1443 1.399 . S
C1443 H1429 0.929 . S
C1443 C1442 1.399 . S
C1443 C1444 1.385 . S
C1444 H1430 0.931 . S
C1444 C1443 1.385 . S
C1444 C1445 1.389 . S
C1445 C1444 1.389 . S
C1445 C1446 1.387 . S
C1446 H1431 0.930 . S
C1446 C1441 1.390 . S
C1446 C1445 1.387 . S
H1447 C1459 0.930 . S
H1448 C1461 0.930 . S
H1449 C1462 0.930 . S
H1450 C1466 0.959 1_455 S
H1451 C1466 0.959 1_455 S
H1452 C1466 0.961 1_455 S
H1453 C1467 0.960 . S
H1454 C1467 0.961 . S
H1455 C1467 0.959 . S
H1456 C1470 0.929 . S
H1457 C1471 0.931 . S
H1458 C1473 0.930 . S
C1459 H1447 0.930 . S
C1459 C1460 1.399 . S
C1459 C1464 1.399 . S
C1460 C1459 1.399 . S
C1460 C1461 1.376 . S
C1461 H1448 0.930 . S
C1461 C1460 1.376 . S
C1461 C1462 1.388 . S
C1462 H1449 0.930 . S
C1462 C1461 1.388 . S
C1462 C1463 1.390 . S
C1463 C1462 1.390 . S
C1463 C1464 1.394 . S
C1463 C1469 1.465 . S
C1464 C1459 1.399 . S
C1464 C1463 1.394 . S
C1464 C1465 1.516 . S
C1465 C1464 1.516 . S
C1465 C1466 1.502 . S
C1465 C1467 1.561 . S
C1465 C1468 1.526 . S
C1466 H1450 0.959 1_655 S
C1466 H1451 0.959 1_655 S
C1466 H1452 0.961 1_655 S
C1466 C1465 1.502 . S
C1467 H1453 0.960 . S
C1467 H1454 0.961 . S
C1467 H1455 0.959 . S
C1467 C1465 1.561 . S
C1468 C1465 1.526 . S
C1468 C1469 1.396 . S
C1468 C1473 1.390 . S
C1469 C1463 1.465 . S
C1469 C1468 1.396 . S
C1469 C1470 1.399 . S
C1470 H1456 0.929 . S
C1470 C1469 1.399 . S
C1470 C1471 1.385 . S
C1471 H1457 0.931 . S
C1471 C1470 1.385 . S
C1471 C1472 1.389 . S
C1472 C1471 1.389 . S
C1472 C1473 1.387 . S
C1473 H1458 0.930 . S
C1473 C1468 1.390 . S
C1473 C1472 1.387 . S
H1474 C1486 0.930 . S
H1475 C1488 0.930 . S
H1476 C1489 0.930 . S
H1477 C1493 0.959 . S
H1478 C1493 0.959 . S
H1479 C1493 0.961 . S
H1480 C1494 0.960 . S
H1481 C1494 0.961 . S
H1482 C1494 0.959 . S
H1483 C1497 0.929 . S
H1484 C1498 0.931 . S
H1485 C1500 0.930 . S
C1486 H1474 0.930 . S
C1486 C1487 1.399 . S
C1486 C1491 1.399 . S
C1487 C1486 1.399 . S
C1487 C1488 1.376 . S
C1488 H1475 0.930 . S
C1488 C1487 1.376 . S
C1488 C1489 1.388 . S
C1489 H1476 0.930 . S
C1489 C1488 1.388 . S
C1489 C1490 1.390 . S
C1490 C1489 1.390 . S
C1490 C1491 1.394 . S
C1490 C1496 1.465 . S
C1491 C1486 1.399 . S
C1491 C1490 1.394 . S
C1491 C1492 1.516 . S
C1492 C1491 1.516 . S
C1492 C1493 1.502 . S
C1492 C1494 1.561 . S
C1492 C1495 1.526 . S
C1493 H1477 0.959 . S
C1493 H1478 0.959 . S
C1493 H1479 0.961 . S
C1493 C1492 1.502 . S
C1494 H1480 0.960 . S
C1494 H1481 0.961 . S
C1494 H1482 0.959 . S
C1494 C1492 1.561 . S
C1495 C1492 1.526 . S
C1495 C1496 1.396 . S
C1495 C1500 1.390 . S
C1496 C1490 1.465 . S
C1496 C1495 1.396 . S
C1496 C1497 1.399 . S
C1497 H1483 0.929 . S
C1497 C1496 1.399 . S
C1497 C1498 1.385 . S
C1498 H1484 0.931 . S
C1498 C1497 1.385 . S
C1498 C1499 1.389 . S
C1499 C1498 1.389 . S
C1499 C1500 1.387 . S
C1500 H1485 0.930 . S
C1500 C1495 1.390 . S
C1500 C1499 1.387 . S
H1501 C1513 0.930 . S
H1502 C1515 0.930 . S
H1503 C1516 0.930 . S
H1504 C1520 0.959 . S
H1505 C1520 0.959 1_455 S
H1506 C1520 0.961 1_455 S
H1507 C1521 0.972 . S
H1508 C1521 0.975 . S
H1509 C1521 0.948 1_655 S
H1510 C1524 0.929 . S
H1511 C1525 0.931 . S
H1512 C1527 0.930 . S
C1513 H1501 0.930 . S
C1513 C1514 1.399 . S
C1513 C1518 1.399 . S
C1514 C1513 1.399 . S
C1514 C1515 1.376 . S
C1515 H1502 0.930 . S
C1515 C1514 1.376 . S
C1515 C1516 1.388 . S
C1516 H1503 0.930 . S
C1516 C1515 1.388 . S
C1516 C1517 1.390 . S
C1517 C1516 1.390 . S
C1517 C1518 1.394 . S
C1517 C1523 1.465 . S
C1518 C1513 1.399 . S
C1518 C1517 1.394 . S
C1518 C1519 1.516 . S
C1519 C1518 1.516 . S
C1519 C1520 1.502 . S
C1519 C1521 1.546 1_655 S
C1519 C1522 1.526 . S
C1520 H1504 0.959 . S
C1520 H1505 0.959 1_655 S
C1520 H1506 0.961 1_655 S
C1520 C1519 1.502 . S
C1521 H1507 0.972 . S
C1521 H1508 0.975 . S
C1521 H1509 0.948 1_455 S
C1521 C1519 1.546 1_455 S
C1522 C1519 1.526 . S
C1522 C1523 1.396 . S
C1522 C1527 1.390 . S
C1523 C1517 1.465 . S
C1523 C1522 1.396 . S
C1523 C1524 1.399 . S
C1524 H1510 0.929 . S
C1524 C1523 1.399 . S
C1524 C1525 1.385 . S
C1525 H1511 0.931 . S
C1525 C1524 1.385 . S
C1525 C1526 1.389 . S
C1526 C1525 1.389 . S
C1526 C1527 1.387 . S
C1527 H1512 0.930 . S
C1527 C1522 1.390 . S
C1527 C1526 1.387 . S
H1528 C1540 0.930 . S
H1529 C1542 0.930 . S
H1530 C1543 0.930 . S
H1531 C1547 0.959 . S
H1532 C1547 0.959 . S
H1533 C1547 0.961 . S
H1534 C1548 0.960 . S
H1535 C1548 0.961 . S
H1536 C1548 0.959 . S
H1537 C1551 0.929 . S
H1538 C1552 0.931 . S
H1539 C1554 0.930 . S
C1540 H1528 0.930 . S
C1540 C1541 1.399 . S
C1540 C1545 1.399 . S
C1541 C1540 1.399 . S
C1541 C1542 1.376 . S
C1542 H1529 0.930 . S
C1542 C1541 1.376 . S
C1542 C1543 1.388 . S
C1543 H1530 0.930 . S
C1543 C1542 1.388 . S
C1543 C1544 1.390 . S
C1544 C1543 1.390 . S
C1544 C1545 1.394 . S
C1544 C1550 1.465 . S
C1545 C1540 1.399 . S
C1545 C1544 1.394 . S
C1545 C1546 1.516 . S
C1546 C1545 1.516 . S
C1546 C1547 1.502 . S
C1546 C1548 1.561 . S
C1546 C1549 1.526 . S
C1547 H1531 0.959 . S
C1547 H1532 0.959 . S
C1547 H1533 0.961 . S
C1547 C1546 1.502 . S
C1548 H1534 0.960 . S
C1548 H1535 0.961 . S
C1548 H1536 0.959 . S
C1548 C1546 1.561 . S
C1549 C1546 1.526 . S
C1549 C1550 1.396 . S
C1549 C1554 1.390 . S
C1550 C1544 1.465 . S
C1550 C1549 1.396 . S
C1550 C1551 1.399 . S
C1551 H1537 0.929 . S
C1551 C1550 1.399 . S
C1551 C1552 1.385 . S
C1552 H1538 0.931 . S
C1552 C1551 1.385 . S
C1552 C1553 1.389 . S
C1553 C1552 1.389 . S
C1553 C1554 1.387 . S
C1554 H1539 0.930 . S
C1554 C1549 1.390 . S
C1554 C1553 1.387 . S
H1555 C1567 0.930 . S
H1556 C1569 0.930 . S
H1557 C1570 0.930 . S
H1558 C1574 0.959 . S
H1559 C1574 0.959 . S
H1560 C1574 0.961 . S
H1561 C1575 0.960 . S
H1562 C1575 0.961 . S
H1563 C1575 0.959 . S
H1564 C1578 0.929 . S
H1565 C1579 0.931 . S
H1566 C1581 0.930 . S
C1567 H1555 0.930 . S
C1567 C1568 1.399 . S
C1567 C1572 1.399 . S
C1568 C1567 1.399 . S
C1568 C1569 1.376 . S
C1569 H1556 0.930 . S
C1569 C1568 1.376 . S
C1569 C1570 1.388 . S
C1570 H1557 0.930 . S
C1570 C1569 1.388 . S
C1570 C1571 1.390 . S
C1571 C1570 1.390 . S
C1571 C1572 1.394 . S
C1571 C1577 1.465 . S
C1572 C1567 1.399 . S
C1572 C1571 1.394 . S
C1572 C1573 1.516 . S
C1573 C1572 1.516 . S
C1573 C1574 1.502 . S
C1573 C1575 1.561 . S
C1573 C1576 1.526 . S
C1574 H1558 0.959 . S
C1574 H1559 0.959 . S
C1574 H1560 0.961 . S
C1574 C1573 1.502 . S
C1575 H1561 0.960 . S
C1575 H1562 0.961 . S
C1575 H1563 0.959 . S
C1575 C1573 1.561 . S
C1576 C1573 1.526 . S
C1576 C1577 1.396 . S
C1576 C1581 1.390 . S
C1577 C1571 1.465 . S
C1577 C1576 1.396 . S
C1577 C1578 1.399 . S
C1578 H1564 0.929 . S
C1578 C1577 1.399 . S
C1578 C1579 1.385 . S
C1579 H1565 0.931 . S
C1579 C1578 1.385 . S
C1579 C1580 1.389 . S
C1580 C1579 1.389 . S
C1580 C1581 1.387 . S
C1581 H1566 0.930 . S
C1581 C1576 1.390 . S
C1581 C1580 1.387 . S
H1582 C1594 0.930 . S
H1583 C1596 0.930 . S
H1584 C1597 0.930 . S
H1585 C1601 0.959 . S
H1586 C1601 0.959 . S
H1587 C1601 0.961 . S
H1588 C1602 0.960 . S
H1589 C1602 0.961 . S
H1590 C1602 0.959 . S
H1591 C1605 0.929 . S
H1592 C1606 0.931 . S
H1593 C1608 0.930 . S
C1594 H1582 0.930 . S
C1594 C1595 1.399 . S
C1594 C1599 1.399 . S
C1595 C1594 1.399 . S
C1595 C1596 1.376 . S
C1596 H1583 0.930 . S
C1596 C1595 1.376 . S
C1596 C1597 1.388 . S
C1597 H1584 0.930 . S
C1597 C1596 1.388 . S
C1597 C1598 1.390 . S
C1598 C1597 1.390 . S
C1598 C1599 1.394 . S
C1598 C1604 1.465 . S
C1599 C1594 1.399 . S
C1599 C1598 1.394 . S
C1599 C1600 1.516 . S
C1600 C1599 1.516 . S
C1600 C1601 1.502 . S
C1600 C1602 1.561 . S
C1600 C1603 1.526 . S
C1601 H1585 0.959 . S
C1601 H1586 0.959 . S
C1601 H1587 0.961 . S
C1601 C1600 1.502 . S
C1602 H1588 0.960 . S
C1602 H1589 0.961 . S
C1602 H1590 0.959 . S
C1602 C1600 1.561 . S
C1603 C1600 1.526 . S
C1603 C1604 1.396 . S
C1603 C1608 1.390 . S
C1604 C1598 1.465 . S
C1604 C1603 1.396 . S
C1604 C1605 1.399 . S
C1605 H1591 0.929 . S
C1605 C1604 1.399 . S
C1605 C1606 1.385 . S
C1606 H1592 0.931 . S
C1606 C1605 1.385 . S
C1606 C1607 1.389 . S
C1607 C1606 1.389 . S
C1607 C1608 1.387 . S
C1608 H1593 0.930 . S
C1608 C1603 1.390 . S
C1608 C1607 1.387 . S
H1609 C1621 0.930 . S
H1610 C1623 0.930 . S
H1611 C1624 0.930 . S
H1612 C1628 0.959 . S
H1613 C1628 0.959 . S
H1614 C1628 0.961 . S
H1615 C1629 0.960 . S
H1616 C1629 0.961 . S
H1617 C1629 0.959 . S
H1618 C1632 0.929 . S
H1619 C1633 0.931 . S
H1620 C1635 0.930 . S
C1621 H1609 0.930 . S
C1621 C1622 1.399 . S
C1621 C1626 1.399 . S
C1622 C1621 1.399 . S
C1622 C1623 1.376 . S
C1623 H1610 0.930 . S
C1623 C1622 1.376 . S
C1623 C1624 1.388 . S
C1624 H1611 0.930 . S
C1624 C1623 1.388 . S
C1624 C1625 1.390 . S
C1625 C1624 1.390 . S
C1625 C1626 1.394 . S
C1625 C1631 1.465 . S
C1626 C1621 1.399 . S
C1626 C1625 1.394 . S
C1626 C1627 1.516 . S
C1627 C1626 1.516 . S
C1627 C1628 1.502 . S
C1627 C1629 1.561 . S
C1627 C1630 1.526 . S
C1628 H1612 0.959 . S
C1628 H1613 0.959 . S
C1628 H1614 0.961 . S
C1628 C1627 1.502 . S
C1629 H1615 0.960 . S
C1629 H1616 0.961 . S
C1629 H1617 0.959 . S
C1629 C1627 1.561 . S
C1630 C1627 1.526 . S
C1630 C1631 1.396 . S
C1630 C1635 1.390 . S
C1631 C1625 1.465 . S
C1631 C1630 1.396 . S
C1631 C1632 1.399 . S
C1632 H1618 0.929 . S
C1632 C1631 1.399 . S
C1632 C1633 1.385 . S
C1633 H1619 0.931 . S
C1633 C1632 1.385 . S
C1633 C1634 1.389 . S
C1634 C1633 1.389 . S
C1634 C1635 1.387 . S
C1635 H1620 0.930 . S
C1635 C1630 1.390 . S
C1635 C1634 1.387 . S
H1636 C1648 0.930 . S
H1637 C1650 0.930 . S
H1638 C1651 0.930 . S
H1639 C1655 0.959 . S
H1640 C1655 0.959 . S
H1641 C1655 0.961 . S
H1642 C1656 0.960 . S
H1643 C1656 0.961 . S
H1644 C1656 0.959 . S
H1645 C1659 0.929 . S
H1646 C1660 0.931 . S
H1647 C1662 0.930 . S
C1648 H1636 0.930 . S
C1648 C1649 1.399 . S
C1648 C1653 1.399 . S
C1649 C1648 1.399 . S
C1649 C1650 1.376 . S
C1650 H1637 0.930 . S
C1650 C1649 1.376 . S
C1650 C1651 1.388 . S
C1651 H1638 0.930 . S
C1651 C1650 1.388 . S
C1651 C1652 1.390 . S
C1652 C1651 1.390 . S
C1652 C1653 1.394 . S
C1652 C1658 1.465 . S
C1653 C1648 1.399 . S
C1653 C1652 1.394 . S
C1653 C1654 1.516 . S
C1654 C1653 1.516 . S
C1654 C1655 1.502 . S
C1654 C1656 1.561 . S
C1654 C1657 1.526 . S
C1655 H1639 0.959 . S
C1655 H1640 0.959 . S
C1655 H1641 0.961 . S
C1655 C1654 1.502 . S
C1656 H1642 0.960 . S
C1656 H1643 0.961 . S
C1656 H1644 0.959 . S
C1656 C1654 1.561 . S
C1657 C1654 1.526 . S
C1657 C1658 1.396 . S
C1657 C1662 1.390 . S
C1658 C1652 1.465 . S
C1658 C1657 1.396 . S
C1658 C1659 1.399 . S
C1659 H1645 0.929 . S
C1659 C1658 1.399 . S
C1659 C1660 1.385 . S
C1660 H1646 0.931 . S
C1660 C1659 1.385 . S
C1660 C1661 1.389 . S
C1661 C1660 1.389 . S
C1661 C1662 1.387 . S
C1662 H1647 0.930 . S
C1662 C1657 1.390 . S
C1662 C1661 1.387 . S
H1663 C1675 0.930 . S
H1664 C1677 0.930 . S
H1665 C1678 0.930 . S
H1666 C1682 0.959 . S
H1667 C1682 0.959 . S
H1668 C1682 0.961 . S
H1669 C1683 0.960 . S
H1670 C1683 0.961 . S
H1671 C1683 0.959 . S
H1672 C1686 0.929 . S
H1673 C1687 0.931 . S
H1674 C1689 0.930 . S
C1675 H1663 0.930 . S
C1675 C1676 1.399 . S
C1675 C1680 1.399 . S
C1676 C1675 1.399 . S
C1676 C1677 1.376 . S
C1677 H1664 0.930 . S
C1677 C1676 1.376 . S
C1677 C1678 1.388 . S
C1678 H1665 0.930 . S
C1678 C1677 1.388 . S
C1678 C1679 1.390 . S
C1679 C1678 1.390 . S
C1679 C1680 1.394 . S
C1679 C1685 1.465 . S
C1680 C1675 1.399 . S
C1680 C1679 1.394 . S
C1680 C1681 1.516 . S
C1681 C1680 1.516 . S
C1681 C1682 1.502 . S
C1681 C1683 1.561 . S
C1681 C1684 1.526 . S
C1682 H1666 0.959 . S
C1682 H1667 0.959 . S
C1682 H1668 0.961 . S
C1682 C1681 1.502 . S
C1683 H1669 0.960 . S
C1683 H1670 0.961 . S
C1683 H1671 0.959 . S
C1683 C1681 1.561 . S
C1684 C1681 1.526 . S
C1684 C1685 1.396 . S
C1684 C1689 1.390 . S
C1685 C1679 1.465 . S
C1685 C1684 1.396 . S
C1685 C1686 1.399 . S
C1686 H1672 0.929 . S
C1686 C1685 1.399 . S
C1686 C1687 1.385 . S
C1687 H1673 0.931 . S
C1687 C1686 1.385 . S
C1687 C1688 1.389 . S
C1688 C1687 1.389 . S
C1688 C1689 1.387 . S
C1689 H1674 0.930 . S
C1689 C1684 1.390 . S
C1689 C1688 1.387 . S
H1690 C1702 0.930 . S
H1691 C1704 0.930 . S
H1692 C1705 0.930 . S
H1693 C1709 0.959 . S
H1694 C1709 0.959 . S
H1695 C1709 0.961 . S
H1696 C1710 0.960 . S
H1697 C1710 0.961 . S
H1698 C1710 0.959 . S
H1699 C1713 0.929 . S
H1700 C1714 0.931 . S
H1701 C1716 0.930 . S
C1702 H1690 0.930 . S
C1702 C1703 1.399 . S
C1702 C1707 1.399 . S
C1703 C1702 1.399 . S
C1703 C1704 1.376 . S
C1704 H1691 0.930 . S
C1704 C1703 1.376 . S
C1704 C1705 1.388 . S
C1705 H1692 0.930 . S
C1705 C1704 1.388 . S
C1705 C1706 1.390 . S
C1706 C1705 1.390 . S
C1706 C1707 1.394 . S
C1706 C1712 1.465 . S
C1707 C1702 1.399 . S
C1707 C1706 1.394 . S
C1707 C1708 1.516 . S
C1708 C1707 1.516 . S
C1708 C1709 1.502 . S
C1708 C1710 1.561 . S
C1708 C1711 1.526 . S
C1709 H1693 0.959 . S
C1709 H1694 0.959 . S
C1709 H1695 0.961 . S
C1709 C1708 1.502 . S
C1710 H1696 0.960 . S
C1710 H1697 0.961 . S
C1710 H1698 0.959 . S
C1710 C1708 1.561 . S
C1711 C1708 1.526 . S
C1711 C1712 1.396 . S
C1711 C1716 1.390 . S
C1712 C1706 1.465 . S
C1712 C1711 1.396 . S
C1712 C1713 1.399 . S
C1713 H1699 0.929 . S
C1713 C1712 1.399 . S
C1713 C1714 1.385 . S
C1714 H1700 0.931 . S
C1714 C1713 1.385 . S
C1714 C1715 1.389 . S
C1715 C1714 1.389 . S
C1715 C1716 1.387 . S
C1716 H1701 0.930 . S
C1716 C1711 1.390 . S
C1716 C1715 1.387 . S
H1717 C1729 0.930 . S
H1718 C1731 0.930 . S
H1719 C1732 0.930 . S
H1720 C1736 0.959 . S
H1721 C1736 0.959 . S
H1722 C1736 0.961 . S
H1723 C1737 0.960 . S
H1724 C1737 0.961 . S
H1725 C1737 0.959 . S
H1726 C1740 0.929 . S
H1727 C1741 0.931 . S
H1728 C1743 0.930 . S
C1729 H1717 0.930 . S
C1729 C1730 1.399 . S
C1729 C1734 1.399 . S
C1730 C1729 1.399 . S
C1730 C1731 1.376 . S
C1731 H1718 0.930 . S
C1731 C1730 1.376 . S
C1731 C1732 1.388 . S
C1732 H1719 0.930 . S
C1732 C1731 1.388 . S
C1732 C1733 1.390 . S
C1733 C1732 1.390 . S
C1733 C1734 1.394 . S
C1733 C1739 1.465 . S
C1734 C1729 1.399 . S
C1734 C1733 1.394 . S
C1734 C1735 1.516 . S
C1735 C1734 1.516 . S
C1735 C1736 1.502 . S
C1735 C1737 1.561 . S
C1735 C1738 1.526 . S
C1736 H1720 0.959 . S
C1736 H1721 0.959 . S
C1736 H1722 0.961 . S
C1736 C1735 1.502 . S
C1737 H1723 0.960 . S
C1737 H1724 0.961 . S
C1737 H1725 0.959 . S
C1737 C1735 1.561 . S
C1738 C1735 1.526 . S
C1738 C1739 1.396 . S
C1738 C1743 1.390 . S
C1739 C1733 1.465 . S
C1739 C1738 1.396 . S
C1739 C1740 1.399 . S
C1740 H1726 0.929 . S
C1740 C1739 1.399 . S
C1740 C1741 1.385 . S
C1741 H1727 0.931 . S
C1741 C1740 1.385 . S
C1741 C1742 1.389 . S
C1742 C1741 1.389 . S
C1742 C1743 1.387 . S
C1743 H1728 0.930 . S
C1743 C1738 1.390 . S
C1743 C1742 1.387 . S
H1744 C1756 0.930 . S
H1745 C1758 0.930 . S
H1746 C1759 0.930 . S
H1747 C1763 0.959 . S
H1748 C1763 0.959 . S
H1749 C1763 0.961 . S
H1750 C1764 0.960 . S
H1751 C1764 0.961 . S
H1752 C1764 0.959 . S
H1753 C1767 0.929 . S
H1754 C1768 0.931 . S
H1755 C1770 0.930 . S
C1756 H1744 0.930 . S
C1756 C1757 1.399 . S
C1756 C1761 1.399 . S
C1757 C1756 1.399 . S
C1757 C1758 1.376 . S
C1758 H1745 0.930 . S
C1758 C1757 1.376 . S
C1758 C1759 1.388 . S
C1759 H1746 0.930 . S
C1759 C1758 1.388 . S
C1759 C1760 1.390 . S
C1760 C1759 1.390 . S
C1760 C1761 1.394 . S
C1760 C1766 1.465 . S
C1761 C1756 1.399 . S
C1761 C1760 1.394 . S
C1761 C1762 1.516 . S
C1762 C1761 1.516 . S
C1762 C1763 1.502 . S
C1762 C1764 1.561 . S
C1762 C1765 1.526 . S
C1763 H1747 0.959 . S
C1763 H1748 0.959 . S
C1763 H1749 0.961 . S
C1763 C1762 1.502 . S
C1764 H1750 0.960 . S
C1764 H1751 0.961 . S
C1764 H1752 0.959 . S
C1764 C1762 1.561 . S
C1765 C1762 1.526 . S
C1765 C1766 1.396 . S
C1765 C1770 1.390 . S
C1766 C1760 1.465 . S
C1766 C1765 1.396 . S
C1766 C1767 1.399 . S
C1767 H1753 0.929 . S
C1767 C1766 1.399 . S
C1767 C1768 1.385 . S
C1768 H1754 0.931 . S
C1768 C1767 1.385 . S
C1768 C1769 1.389 . S
C1769 C1768 1.389 . S
C1769 C1770 1.387 . S
C1770 H1755 0.930 . S
C1770 C1765 1.390 . S
C1770 C1769 1.387 . S
H1771 C1783 0.930 . S
H1772 C1785 0.930 . S
H1773 C1786 0.930 . S
H1774 C1790 0.959 . S
H1775 C1790 0.959 . S
H1776 C1790 0.961 . S
H1777 C1791 0.960 . S
H1778 C1791 0.961 . S
H1779 C1791 0.959 . S
H1780 C1794 0.929 . S
H1781 C1795 0.931 . S
H1782 C1797 0.930 . S
C1783 H1771 0.930 . S
C1783 C1784 1.399 . S
C1783 C1788 1.399 . S
C1784 C1783 1.399 . S
C1784 C1785 1.376 . S
C1785 H1772 0.930 . S
C1785 C1784 1.376 . S
C1785 C1786 1.388 . S
C1786 H1773 0.930 . S
C1786 C1785 1.388 . S
C1786 C1787 1.390 . S
C1787 C1786 1.390 . S
C1787 C1788 1.394 . S
C1787 C1793 1.465 . S
C1788 C1783 1.399 . S
C1788 C1787 1.394 . S
C1788 C1789 1.516 . S
C1789 C1788 1.516 . S
C1789 C1790 1.502 . S
C1789 C1791 1.561 . S
C1789 C1792 1.526 . S
C1790 H1774 0.959 . S
C1790 H1775 0.959 . S
C1790 H1776 0.961 . S
C1790 C1789 1.502 . S
C1791 H1777 0.960 . S
C1791 H1778 0.961 . S
C1791 H1779 0.959 . S
C1791 C1789 1.561 . S
C1792 C1789 1.526 . S
C1792 C1793 1.396 . S
C1792 C1797 1.390 . S
C1793 C1787 1.465 . S
C1793 C1792 1.396 . S
C1793 C1794 1.399 . S
C1794 H1780 0.929 . S
C1794 C1793 1.399 . S
C1794 C1795 1.385 . S
C1795 H1781 0.931 . S
C1795 C1794 1.385 . S
C1795 C1796 1.389 . S
C1796 C1795 1.389 . S
C1796 C1797 1.387 . S
C1797 H1782 0.930 . S
C1797 C1792 1.390 . S
C1797 C1796 1.387 . S
H1798 C1810 0.930 . S
H1799 C1812 0.930 . S
H1800 C1813 0.930 . S
H1801 C1817 0.959 . S
H1802 C1817 0.959 . S
H1803 C1817 0.961 . S
H1804 C1818 0.960 . S
H1805 C1818 0.961 . S
H1806 C1818 0.959 . S
H1807 C1821 0.929 . S
H1808 C1822 0.931 . S
H1809 C1824 0.930 . S
C1810 H1798 0.930 . S
C1810 C1811 1.399 1_556 S
C1810 C1815 1.399 . S
C1811 C1810 1.399 1_554 S
C1811 C1812 1.376 . S
C1812 H1799 0.930 . S
C1812 C1811 1.376 . S
C1812 C1813 1.388 . S
C1813 H1800 0.930 . S
C1813 C1812 1.388 . S
C1813 C1814 1.390 . S
C1814 C1813 1.390 . S
C1814 C1815 1.394 1_554 S
C1814 C1820 1.465 . S
C1815 C1810 1.399 . S
C1815 C1814 1.394 1_556 S
C1815 C1816 1.516 . S
C1816 C1815 1.516 . S
C1816 C1817 1.502 . S
C1816 C1818 1.561 . S
C1816 C1819 1.526 . S
C1817 H1801 0.959 . S
C1817 H1802 0.959 . S
C1817 H1803 0.961 . S
C1817 C1816 1.502 . S
C1818 H1804 0.960 . S
C1818 H1805 0.961 . S
C1818 H1806 0.959 . S
C1818 C1816 1.561 . S
C1819 C1816 1.526 . S
C1819 C1820 1.396 1_556 S
C1819 C1824 1.390 . S
C1820 C1814 1.465 . S
C1820 C1819 1.396 1_554 S
C1820 C1821 1.399 . S
C1821 H1807 0.929 . S
C1821 C1820 1.399 . S
C1821 C1822 1.385 . S
C1822 H1808 0.931 . S
C1822 C1821 1.385 . S
C1822 C1823 1.389 . S
C1823 C1822 1.389 . S
C1823 C1824 1.387 1_554 S
C1824 H1809 0.930 . S
C1824 C1819 1.390 . S
C1824 C1823 1.387 1_556 S
H1825 C1837 0.930 . S
H1826 C1839 0.930 . S
H1827 C1840 0.930 . S
H1828 C1844 0.959 . S
H1829 C1844 0.959 . S
H1830 C1844 0.961 . S
H1831 C1845 0.960 . S
H1832 C1845 0.961 . S
H1833 C1845 0.959 . S
H1834 C1848 0.929 . S
H1835 C1849 0.931 . S
H1836 C1851 0.930 . S
C1837 H1825 0.930 . S
C1837 C1838 1.399 1_554 S
C1837 C1842 1.399 . S
C1838 C1837 1.399 1_556 S
C1838 C1839 1.376 . S
C1839 H1826 0.930 . S
C1839 C1838 1.376 . S
C1839 C1840 1.388 . S
C1840 H1827 0.930 . S
C1840 C1839 1.388 . S
C1840 C1841 1.390 . S
C1841 C1840 1.390 . S
C1841 C1842 1.394 1_556 S
C1841 C1847 1.465 . S
C1842 C1837 1.399 . S
C1842 C1841 1.394 1_554 S
C1842 C1843 1.516 . S
C1843 C1842 1.516 . S
C1843 C1844 1.502 . S
C1843 C1845 1.561 . S
C1843 C1846 1.526 . S
C1844 H1828 0.959 . S
C1844 H1829 0.959 . S
C1844 H1830 0.961 . S
C1844 C1843 1.502 . S
C1845 H1831 0.960 . S
C1845 H1832 0.961 . S
C1845 H1833 0.959 . S
C1845 C1843 1.561 . S
C1846 C1843 1.526 . S
C1846 C1847 1.396 1_554 S
C1846 C1851 1.390 . S
C1847 C1841 1.465 . S
C1847 C1846 1.396 1_556 S
C1847 C1848 1.399 . S
C1848 H1834 0.929 . S
C1848 C1847 1.399 . S
C1848 C1849 1.385 . S
C1849 H1835 0.931 . S
C1849 C1848 1.385 . S
C1849 C1850 1.389 . S
C1850 C1849 1.389 . S
C1850 C1851 1.387 1_556 S
C1851 H1836 0.930 . S
C1851 C1846 1.390 . S
C1851 C1850 1.387 1_554 S
H1852 C1864 0.930 . S
H1853 C1866 0.930 . S
H1854 C1867 0.930 . S
H1855 C1871 0.959 . S
H1856 C1871 0.959 . S
H1857 C1871 0.961 . S
H1858 C1872 0.960 . S
H1859 C1872 0.961 . S
H1860 C1872 0.959 . S
H1861 C1875 0.929 . S
H1862 C1876 0.931 . S
H1863 C1878 0.930 . S
C1864 H1852 0.930 . S
C1864 C1865 1.399 . S
C1864 C1869 1.399 . S
C1865 C1864 1.399 . S
C1865 C1866 1.376 . S
C1866 H1853 0.930 . S
C1866 C1865 1.376 . S
C1866 C1867 1.388 . S
C1867 H1854 0.930 . S
C1867 C1866 1.388 . S
C1867 C1868 1.390 . S
C1868 C1867 1.390 . S
C1868 C1869 1.394 . S
C1868 C1874 1.465 . S
C1869 C1864 1.399 . S
C1869 C1868 1.394 . S
C1869 C1870 1.516 . S
C1870 C1869 1.516 . S
C1870 C1871 1.502 . S
C1870 C1872 1.561 . S
C1870 C1873 1.526 . S
C1871 H1855 0.959 . S
C1871 H1856 0.959 . S
C1871 H1857 0.961 . S
C1871 C1870 1.502 . S
C1872 H1858 0.960 . S
C1872 H1859 0.961 . S
C1872 H1860 0.959 . S
C1872 C1870 1.561 . S
C1873 C1870 1.526 . S
C1873 C1874 1.396 . S
C1873 C1878 1.390 . S
C1874 C1868 1.465 . S
C1874 C1873 1.396 . S
C1874 C1875 1.399 . S
C1875 H1861 0.929 . S
C1875 C1874 1.399 . S
C1875 C1876 1.385 . S
C1876 H1862 0.931 . S
C1876 C1875 1.385 . S
C1876 C1877 1.389 . S
C1877 C1876 1.389 . S
C1877 C1878 1.387 . S
C1878 H1863 0.930 . S
C1878 C1873 1.390 . S
C1878 C1877 1.387 . S
H1879 C1891 0.930 . S
H1880 C1893 0.930 . S
H1881 C1894 0.930 . S
H1882 C1898 0.959 . S
H1883 C1898 0.959 . S
H1884 C1898 0.961 . S
H1885 C1899 0.960 . S
H1886 C1899 0.961 . S
H1887 C1899 0.959 . S
H1888 C1902 0.929 . S
H1889 C1903 0.931 . S
H1890 C1905 0.930 . S
C1891 H1879 0.930 . S
C1891 C1892 1.399 . S
C1891 C1896 1.399 . S
C1892 C1891 1.399 . S
C1892 C1893 1.376 . S
C1893 H1880 0.930 . S
C1893 C1892 1.376 . S
C1893 C1894 1.388 . S
C1894 H1881 0.930 . S
C1894 C1893 1.388 . S
C1894 C1895 1.390 . S
C1895 C1894 1.390 . S
C1895 C1896 1.394 . S
C1895 C1901 1.465 . S
C1896 C1891 1.399 . S
C1896 C1895 1.394 . S
C1896 C1897 1.516 . S
C1897 C1896 1.516 . S
C1897 C1898 1.502 . S
C1897 C1899 1.561 . S
C1897 C1900 1.526 . S
C1898 H1882 0.959 . S
C1898 H1883 0.959 . S
C1898 H1884 0.961 . S
C1898 C1897 1.502 . S
C1899 H1885 0.960 . S
C1899 H1886 0.961 . S
C1899 H1887 0.959 . S
C1899 C1897 1.561 . S
C1900 C1897 1.526 . S
C1900 C1901 1.396 . S
C1900 C1905 1.390 . S
C1901 C1895 1.465 . S
C1901 C1900 1.396 . S
C1901 C1902 1.399 . S
C1902 H1888 0.929 . S
C1902 C1901 1.399 . S
C1902 C1903 1.385 . S
C1903 H1889 0.931 . S
C1903 C1902 1.385 . S
C1903 C1904 1.389 . S
C1904 C1903 1.389 . S
C1904 C1905 1.387 . S
C1905 H1890 0.930 . S
C1905 C1900 1.390 . S
C1905 C1904 1.387 . S
H1906 C1918 0.930 . S
H1907 C1920 0.930 . S
H1908 C1921 0.930 . S
H1909 C1925 0.959 . S
H1910 C1925 0.959 . S
H1911 C1925 0.961 . S
H1912 C1926 0.960 . S
H1913 C1926 0.961 . S
H1914 C1926 0.959 . S
H1915 C1929 0.929 . S
H1916 C1930 0.931 . S
H1917 C1932 0.930 . S
C1918 H1906 0.930 . S
C1918 C1919 1.399 1_554 S
C1918 C1923 1.399 . S
C1919 C1918 1.399 1_556 S
C1919 C1920 1.376 . S
C1920 H1907 0.930 . S
C1920 C1919 1.376 . S
C1920 C1921 1.388 . S
C1921 H1908 0.930 . S
C1921 C1920 1.388 . S
C1921 C1922 1.390 . S
C1922 C1921 1.390 . S
C1922 C1923 1.394 1_556 S
C1922 C1928 1.465 . S
C1923 C1918 1.399 . S
C1923 C1922 1.394 1_554 S
C1923 C1924 1.516 . S
C1924 C1923 1.516 . S
C1924 C1925 1.502 . S
C1924 C1926 1.561 . S
C1924 C1927 1.526 . S
C1925 H1909 0.959 . S
C1925 H1910 0.959 . S
C1925 H1911 0.961 . S
C1925 C1924 1.502 . S
C1926 H1912 0.960 . S
C1926 H1913 0.961 . S
C1926 H1914 0.959 . S
C1926 C1924 1.561 . S
C1927 C1924 1.526 . S
C1927 C1928 1.396 1_554 S
C1927 C1932 1.390 . S
C1928 C1922 1.465 . S
C1928 C1927 1.396 1_556 S
C1928 C1929 1.399 . S
C1929 H1915 0.929 . S
C1929 C1928 1.399 . S
C1929 C1930 1.385 . S
C1930 H1916 0.931 . S
C1930 C1929 1.385 . S
C1930 C1931 1.389 . S
C1931 C1930 1.389 . S
C1931 C1932 1.387 1_556 S
C1932 H1917 0.930 . S
C1932 C1927 1.390 . S
C1932 C1931 1.387 1_554 S
H1933 C1945 0.930 . S
H1934 C1947 0.930 . S
H1935 C1948 0.930 . S
H1936 C1952 0.959 . S
H1937 C1952 0.959 . S
H1938 C1952 0.961 . S
H1939 C1953 0.960 . S
H1940 C1953 0.961 . S
H1941 C1953 0.959 . S
H1942 C1956 0.929 . S
H1943 C1957 0.931 . S
H1944 C1959 0.930 . S
C1945 H1933 0.930 . S
C1945 C1946 1.399 1_556 S
C1945 C1950 1.399 . S
C1946 C1945 1.399 1_554 S
C1946 C1947 1.376 . S
C1947 H1934 0.930 . S
C1947 C1946 1.376 . S
C1947 C1948 1.388 . S
C1948 H1935 0.930 . S
C1948 C1947 1.388 . S
C1948 C1949 1.390 . S
C1949 C1948 1.390 . S
C1949 C1950 1.394 1_554 S
C1949 C1955 1.465 . S
C1950 C1945 1.399 . S
C1950 C1949 1.394 1_556 S
C1950 C1951 1.516 . S
C1951 C1950 1.516 . S
C1951 C1952 1.502 . S
C1951 C1953 1.561 . S
C1951 C1954 1.526 . S
C1952 H1936 0.959 . S
C1952 H1937 0.959 . S
C1952 H1938 0.961 . S
C1952 C1951 1.502 . S
C1953 H1939 0.960 . S
C1953 H1940 0.961 . S
C1953 H1941 0.959 . S
C1953 C1951 1.561 . S
C1954 C1951 1.526 . S
C1954 C1955 1.396 1_556 S
C1954 C1959 1.390 . S
C1955 C1949 1.465 . S
C1955 C1954 1.396 1_554 S
C1955 C1956 1.399 . S
C1956 H1942 0.929 . S
C1956 C1955 1.399 . S
C1956 C1957 1.385 . S
C1957 H1943 0.931 . S
C1957 C1956 1.385 . S
C1957 C1958 1.389 . S
C1958 C1957 1.389 . S
C1958 C1959 1.387 1_554 S
C1959 H1944 0.930 . S
C1959 C1954 1.390 . S
C1959 C1958 1.387 1_556 S
H1960 C1972 0.930 . S
H1961 C1974 0.930 . S
H1962 C1975 0.930 . S
H1963 C1979 0.959 . S
H1964 C1979 0.959 . S
H1965 C1979 0.961 . S
H1966 C1980 0.960 . S
H1967 C1980 0.961 . S
H1968 C1980 0.959 . S
H1969 C1983 0.929 . S
H1970 C1984 0.931 . S
H1971 C1986 0.930 . S
C1972 H1960 0.930 . S
C1972 C1973 1.399 . S
C1972 C1977 1.399 . S
C1973 C1972 1.399 . S
C1973 C1974 1.376 . S
C1974 H1961 0.930 . S
C1974 C1973 1.376 . S
C1974 C1975 1.388 . S
C1975 H1962 0.930 . S
C1975 C1974 1.388 . S
C1975 C1976 1.390 . S
C1976 C1975 1.390 . S
C1976 C1977 1.394 . S
C1976 C1982 1.465 . S
C1977 C1972 1.399 . S
C1977 C1976 1.394 . S
C1977 C1978 1.516 . S
C1978 C1977 1.516 . S
C1978 C1979 1.502 . S
C1978 C1980 1.561 . S
C1978 C1981 1.526 . S
C1979 H1963 0.959 . S
C1979 H1964 0.959 . S
C1979 H1965 0.961 . S
C1979 C1978 1.502 . S
C1980 H1966 0.960 . S
C1980 H1967 0.961 . S
C1980 H1968 0.959 . S
C1980 C1978 1.561 . S
C1981 C1978 1.526 . S
C1981 C1982 1.396 . S
C1981 C1986 1.390 . S
C1982 C1976 1.465 . S
C1982 C1981 1.396 . S
C1982 C1983 1.399 . S
C1983 H1969 0.929 . S
C1983 C1982 1.399 . S
C1983 C1984 1.385 . S
C1984 H1970 0.931 . S
C1984 C1983 1.385 . S
C1984 C1985 1.389 . S
C1985 C1984 1.389 . S
C1985 C1986 1.387 . S
C1986 H1971 0.930 . S
C1986 C1981 1.390 . S
C1986 C1985 1.387 . S
H1987 C1999 0.930 . S
H1988 C2001 0.930 . S
H1989 C2002 0.930 . S
H1990 C2006 0.959 . S
H1991 C2006 0.959 . S
H1992 C2006 0.961 . S
H1993 C2007 0.960 . S
H1994 C2007 0.961 . S
H1995 C2007 0.959 . S
H1996 C2010 0.929 . S
H1997 C2011 0.931 . S
H1998 C2013 0.930 . S
C1999 H1987 0.930 . S
C1999 C2000 1.399 . S
C1999 C2004 1.399 . S
C2000 C1999 1.399 . S
C2000 C2001 1.376 . S
C2001 H1988 0.930 . S
C2001 C2000 1.376 . S
C2001 C2002 1.388 . S
C2002 H1989 0.930 . S
C2002 C2001 1.388 . S
C2002 C2003 1.390 . S
C2003 C2002 1.390 . S
C2003 C2004 1.394 . S
C2003 C2009 1.465 . S
C2004 C1999 1.399 . S
C2004 C2003 1.394 . S
C2004 C2005 1.516 . S
C2005 C2004 1.516 . S
C2005 C2006 1.502 . S
C2005 C2007 1.561 . S
C2005 C2008 1.526 . S
C2006 H1990 0.959 . S
C2006 H1991 0.959 . S
C2006 H1992 0.961 . S
C2006 C2005 1.502 . S
C2007 H1993 0.960 . S
C2007 H1994 0.961 . S
C2007 H1995 0.959 . S
C2007 C2005 1.561 . S
C2008 C2005 1.526 . S
C2008 C2009 1.396 . S
C2008 C2013 1.390 . S
C2009 C2003 1.465 . S
C2009 C2008 1.396 . S
C2009 C2010 1.399 . S
C2010 H1996 0.929 . S
C2010 C2009 1.399 . S
C2010 C2011 1.385 . S
C2011 H1997 0.931 . S
C2011 C2010 1.385 . S
C2011 C2012 1.389 . S
C2012 C2011 1.389 . S
C2012 C2013 1.387 . S
C2013 H1998 0.930 . S
C2013 C2008 1.390 . S
C2013 C2012 1.387 . S
H2014 C2026 0.930 . S
H2015 C2028 0.930 . S
H2016 C2029 0.930 . S
H2017 C2033 0.959 . S
H2018 C2033 0.959 . S
H2019 C2033 0.961 . S
H2020 C2034 0.960 . S
H2021 C2034 0.961 . S
H2022 C2034 0.959 . S
H2023 C2037 0.929 . S
H2024 C2038 0.931 . S
H2025 C2040 0.930 . S
C2026 H2014 0.930 . S
C2026 C2027 1.399 . S
C2026 C2031 1.399 . S
C2027 C2026 1.399 . S
C2027 C2028 1.376 . S
C2028 H2015 0.930 . S
C2028 C2027 1.376 . S
C2028 C2029 1.388 . S
C2029 H2016 0.930 . S
C2029 C2028 1.388 . S
C2029 C2030 1.390 . S
C2030 C2029 1.390 . S
C2030 C2031 1.394 . S
C2030 C2036 1.465 . S
C2031 C2026 1.399 . S
C2031 C2030 1.394 . S
C2031 C2032 1.516 . S
C2032 C2031 1.516 . S
C2032 C2033 1.502 . S
C2032 C2034 1.561 . S
C2032 C2035 1.526 . S
C2033 H2017 0.959 . S
C2033 H2018 0.959 . S
C2033 H2019 0.961 . S
C2033 C2032 1.502 . S
C2034 H2020 0.960 . S
C2034 H2021 0.961 . S
C2034 H2022 0.959 . S
C2034 C2032 1.561 . S
C2035 C2032 1.526 . S
C2035 C2036 1.396 . S
C2035 C2040 1.390 . S
C2036 C2030 1.465 . S
C2036 C2035 1.396 . S
C2036 C2037 1.399 . S
C2037 H2023 0.929 . S
C2037 C2036 1.399 . S
C2037 C2038 1.385 . S
C2038 H2024 0.931 . S
C2038 C2037 1.385 . S
C2038 C2039 1.389 . S
C2039 C2038 1.389 . S
C2039 C2040 1.387 . S
C2040 H2025 0.930 . S
C2040 C2035 1.390 . S
C2040 C2039 1.387 . S
H2041 C2053 0.930 . S
H2042 C2055 0.930 . S
H2043 C2056 0.930 . S
H2044 C2060 0.959 . S
H2045 C2060 0.959 . S
H2046 C2060 0.961 . S
H2047 C2061 0.960 . S
H2048 C2061 0.961 . S
H2049 C2061 0.959 . S
H2050 C2064 0.929 . S
H2051 C2065 0.931 . S
H2052 C2067 0.930 . S
C2053 H2041 0.930 . S
C2053 C2054 1.399 . S
C2053 C2058 1.399 . S
C2054 C2053 1.399 . S
C2054 C2055 1.376 . S
C2055 H2042 0.930 . S
C2055 C2054 1.376 . S
C2055 C2056 1.388 . S
C2056 H2043 0.930 . S
C2056 C2055 1.388 . S
C2056 C2057 1.390 . S
C2057 C2056 1.390 . S
C2057 C2058 1.394 . S
C2057 C2063 1.465 . S
C2058 C2053 1.399 . S
C2058 C2057 1.394 . S
C2058 C2059 1.516 . S
C2059 C2058 1.516 . S
C2059 C2060 1.502 . S
C2059 C2061 1.561 . S
C2059 C2062 1.526 . S
C2060 H2044 0.959 . S
C2060 H2045 0.959 . S
C2060 H2046 0.961 . S
C2060 C2059 1.502 . S
C2061 H2047 0.960 . S
C2061 H2048 0.961 . S
C2061 H2049 0.959 . S
C2061 C2059 1.561 . S
C2062 C2059 1.526 . S
C2062 C2063 1.396 . S
C2062 C2067 1.390 . S
C2063 C2057 1.465 . S
C2063 C2062 1.396 . S
C2063 C2064 1.399 . S
C2064 H2050 0.929 . S
C2064 C2063 1.399 . S
C2064 C2065 1.385 . S
C2065 H2051 0.931 . S
C2065 C2064 1.385 . S
C2065 C2066 1.389 . S
C2066 C2065 1.389 . S
C2066 C2067 1.387 . S
C2067 H2052 0.930 . S
C2067 C2062 1.390 . S
C2067 C2066 1.387 . S
H2068 C2080 0.930 . S
H2069 C2082 0.930 . S
H2070 C2083 0.930 . S
H2071 C2087 0.959 . S
H2072 C2087 0.959 . S
H2073 C2087 0.961 . S
H2074 C2088 0.960 . S
H2075 C2088 0.961 . S
H2076 C2088 0.959 . S
H2077 C2091 0.929 . S
H2078 C2092 0.931 . S
H2079 C2094 0.930 . S
C2080 H2068 0.930 . S
C2080 C2081 1.399 . S
C2080 C2085 1.399 . S
C2081 C2080 1.399 . S
C2081 C2082 1.376 . S
C2082 H2069 0.930 . S
C2082 C2081 1.376 . S
C2082 C2083 1.388 . S
C2083 H2070 0.930 . S
C2083 C2082 1.388 . S
C2083 C2084 1.390 . S
C2084 C2083 1.390 . S
C2084 C2085 1.394 . S
C2084 C2090 1.465 . S
C2085 C2080 1.399 . S
C2085 C2084 1.394 . S
C2085 C2086 1.516 . S
C2086 C2085 1.516 . S
C2086 C2087 1.502 . S
C2086 C2088 1.561 . S
C2086 C2089 1.526 . S
C2087 H2071 0.959 . S
C2087 H2072 0.959 . S
C2087 H2073 0.961 . S
C2087 C2086 1.502 . S
C2088 H2074 0.960 . S
C2088 H2075 0.961 . S
C2088 H2076 0.959 . S
C2088 C2086 1.561 . S
C2089 C2086 1.526 . S
C2089 C2090 1.396 . S
C2089 C2094 1.390 . S
C2090 C2084 1.465 . S
C2090 C2089 1.396 . S
C2090 C2091 1.399 . S
C2091 H2077 0.929 . S
C2091 C2090 1.399 . S
C2091 C2092 1.385 . S
C2092 H2078 0.931 . S
C2092 C2091 1.385 . S
C2092 C2093 1.389 . S
C2093 C2092 1.389 . S
C2093 C2094 1.387 . S
C2094 H2079 0.930 . S
C2094 C2089 1.390 . S
C2094 C2093 1.387 . S
H2095 C2107 0.930 . S
H2096 C2109 0.930 . S
H2097 C2110 0.930 . S
H2098 C2114 0.959 . S
H2099 C2114 0.959 . S
H2100 C2114 0.961 . S
H2101 C2115 0.960 . S
H2102 C2115 0.961 . S
H2103 C2115 0.959 . S
H2104 C2118 0.929 . S
H2105 C2119 0.931 . S
H2106 C2121 0.930 . S
C2107 H2095 0.930 . S
C2107 C2108 1.399 . S
C2107 C2112 1.399 . S
C2108 C2107 1.399 . S
C2108 C2109 1.376 . S
C2109 H2096 0.930 . S
C2109 C2108 1.376 . S
C2109 C2110 1.388 . S
C2110 H2097 0.930 . S
C2110 C2109 1.388 . S
C2110 C2111 1.390 . S
C2111 C2110 1.390 . S
C2111 C2112 1.394 . S
C2111 C2117 1.465 . S
C2112 C2107 1.399 . S
C2112 C2111 1.394 . S
C2112 C2113 1.516 . S
C2113 C2112 1.516 . S
C2113 C2114 1.502 . S
C2113 C2115 1.561 . S
C2113 C2116 1.526 . S
C2114 H2098 0.959 . S
C2114 H2099 0.959 . S
C2114 H2100 0.961 . S
C2114 C2113 1.502 . S
C2115 H2101 0.960 . S
C2115 H2102 0.961 . S
C2115 H2103 0.959 . S
C2115 C2113 1.561 . S
C2116 C2113 1.526 . S
C2116 C2117 1.396 . S
C2116 C2121 1.390 . S
C2117 C2111 1.465 . S
C2117 C2116 1.396 . S
C2117 C2118 1.399 . S
C2118 H2104 0.929 . S
C2118 C2117 1.399 . S
C2118 C2119 1.385 . S
C2119 H2105 0.931 . S
C2119 C2118 1.385 . S
C2119 C2120 1.389 . S
C2120 C2119 1.389 . S
C2120 C2121 1.387 . S
C2121 H2106 0.930 . S
C2121 C2116 1.390 . S
C2121 C2120 1.387 . S
H2122 C2134 0.930 . S
H2123 C2136 0.930 . S
H2124 C2137 0.930 . S
H2125 C2141 0.959 . S
H2126 C2141 0.959 . S
H2127 C2141 0.961 . S
H2128 C2142 0.960 . S
H2129 C2142 0.961 . S
H2130 C2142 0.959 . S
H2131 C2145 0.929 . S
H2132 C2146 0.931 . S
H2133 C2148 0.930 . S
C2134 H2122 0.930 . S
C2134 C2135 1.399 . S
C2134 C2139 1.399 . S
C2135 C2134 1.399 . S
C2135 C2136 1.376 . S
C2136 H2123 0.930 . S
C2136 C2135 1.376 . S
C2136 C2137 1.388 . S
C2137 H2124 0.930 . S
C2137 C2136 1.388 . S
C2137 C2138 1.390 . S
C2138 C2137 1.390 . S
C2138 C2139 1.394 . S
C2138 C2144 1.465 . S
C2139 C2134 1.399 . S
C2139 C2138 1.394 . S
C2139 C2140 1.516 . S
C2140 C2139 1.516 . S
C2140 C2141 1.502 . S
C2140 C2142 1.561 . S
C2140 C2143 1.526 . S
C2141 H2125 0.959 . S
C2141 H2126 0.959 . S
C2141 H2127 0.961 . S
C2141 C2140 1.502 . S
C2142 H2128 0.960 . S
C2142 H2129 0.961 . S
C2142 H2130 0.959 . S
C2142 C2140 1.561 . S
C2143 C2140 1.526 . S
C2143 C2144 1.396 . S
C2143 C2148 1.390 . S
C2144 C2138 1.465 . S
C2144 C2143 1.396 . S
C2144 C2145 1.399 . S
C2145 H2131 0.929 . S
C2145 C2144 1.399 . S
C2145 C2146 1.385 . S
C2146 H2132 0.931 . S
C2146 C2145 1.385 . S
C2146 C2147 1.389 . S
C2147 C2146 1.389 . S
C2147 C2148 1.387 . S
C2148 H2133 0.930 . S
C2148 C2143 1.390 . S
C2148 C2147 1.387 . S
H2149 C2161 0.930 . S
H2150 C2163 0.930 . S
H2151 C2164 0.930 . S
H2152 C2168 0.959 . S
H2153 C2168 0.959 . S
H2154 C2168 0.961 . S
H2155 C2169 0.960 . S
H2156 C2169 0.961 . S
H2157 C2169 0.959 . S
H2158 C2172 0.929 . S
H2159 C2173 0.931 . S
H2160 C2175 0.930 . S
C2161 H2149 0.930 . S
C2161 C2162 1.399 . S
C2161 C2166 1.399 . S
C2162 C2161 1.399 . S
C2162 C2163 1.376 . S
C2163 H2150 0.930 . S
C2163 C2162 1.376 . S
C2163 C2164 1.388 . S
C2164 H2151 0.930 . S
C2164 C2163 1.388 . S
C2164 C2165 1.390 . S
C2165 C2164 1.390 . S
C2165 C2166 1.394 . S
C2165 C2171 1.465 . S
C2166 C2161 1.399 . S
C2166 C2165 1.394 . S
C2166 C2167 1.516 . S
C2167 C2166 1.516 . S
C2167 C2168 1.502 . S
C2167 C2169 1.561 . S
C2167 C2170 1.526 . S
C2168 H2152 0.959 . S
C2168 H2153 0.959 . S
C2168 H2154 0.961 . S
C2168 C2167 1.502 . S
C2169 H2155 0.960 . S
C2169 H2156 0.961 . S
C2169 H2157 0.959 . S
C2169 C2167 1.561 . S
C2170 C2167 1.526 . S
C2170 C2171 1.396 . S
C2170 C2175 1.390 . S
C2171 C2165 1.465 . S
C2171 C2170 1.396 . S
C2171 C2172 1.399 . S
C2172 H2158 0.929 . S
C2172 C2171 1.399 . S
C2172 C2173 1.385 . S
C2173 H2159 0.931 . S
C2173 C2172 1.385 . S
C2173 C2174 1.389 . S
C2174 C2173 1.389 . S
C2174 C2175 1.387 . S
C2175 H2160 0.930 . S
C2175 C2170 1.390 . S
C2175 C2174 1.387 . S
C461 C1 1.542 . S
C473 C55 1.548 . S
C488 C29 1.571 . S
C500 C15 1.564 . S
C515 C56 1.560 . S
C527 C98 1.572 . S
C542 C85 1.571 . S
C554 C83 1.557 . S
C569 C125 1.543 . S
C581 C155 1.550 . S
C596 C140 1.544 . S
C608 C126 1.550 . S
C623 C169 1.555 . S
C635 C222 1.543 . S
C650 C183 1.544 . S
C662 C209 1.552 . S
C677 C266 1.546 . S
C689 C225 1.553 . S
C704 C238 1.548 . S
C716 C252 1.545 . S
C731 C280 1.554 . S
C743 C323 1.545 . S
C758 C309 1.548 . S
C770 C307 1.547 . S
C785 C337 1.571 . S
C797 C378 1.566 . S
C812 C364 1.570 . S
C824 C351 1.562 . S
C839 C404 1.560 . S
C851 C435 1.572 . S
C866 C406 1.555 . S
C878 C421 1.545 . S
C893 C180 1.612 . S
C905 C12 1.579 . S
C920 C26 1.612 . S
C932 C294 1.577 . S
C947 C40 1.571 . S
C959 C96 1.612 1_556 S
C974 C446 1.580 1_556 S
C986 C42 1.597 . S
C1001 C69 1.591 . S
C1013 C112 1.589 . S
C1028 C251 1.572 . S
C1040 C70 1.605 . S
C1055 C391 1.583 . S
C1067 C111 1.595 1_556 S
C1082 C419 1.605 . S
C1094 C139 1.587 . S
C1109 C196 1.610 . S
C1121 C153 1.579 . S
C1136 C334 1.577 . S
C1148 C166 1.601 . S
C1163 C194 1.585 . S
C1175 C362 1.593 . S
C1190 C279 1.613 . S
C1202 C211 1.577 . S
C1217 C393 1.587 . S
C1229 C236 1.593 . S
C1244 C320 1.605 . S
C1256 C265 1.585 . S
C1271 C348 1.616 . S
C1283 C293 1.573 . S
C1298 C377 1.611 1_554 S
C1310 C432 1.573 . S
C1325 C141 1.689 . S
C1337 C0 1.673 . S
C1352 C14 1.690 . S
C1364 C154 1.672 . S
C1379 C124 1.694 . S
C1391 C28 1.674 . S
C1406 C127 1.694 . S
C1418 C54 1.675 . S
C1433 C57 1.672 . S
C1445 C208 1.699 . S
C1460 C82 1.671 . S
C1472 C223 1.690 . S
C1487 C168 1.705 . S
C1499 C84 1.676 . S
C1514 C99 1.689 . S
C1526 C182 1.672 . S
C1541 C365 1.688 . S
C1553 C224 1.706 . S
C1568 C379 1.684 . S
C1580 C239 1.704 . S
C1595 C253 1.671 . S
C1607 C336 1.680 . S
C1622 C267 1.684 . S
C1634 C350 1.705 . S
C1649 C281 1.672 . S
C1661 C420 1.696 . S
C1676 C306 1.670 . S
C1688 C434 1.699 . S
C1703 C405 1.672 . S
C1715 C308 1.697 . S
C1730 C407 1.704 . S
C1742 C322 1.686 . S
C1757 C13 1.712 . S
C1769 C363 1.683 . S
C1784 C349 1.670 . S
C1796 C27 1.701 1_655 S
C1811 C41 1.669 . S
C1823 C390 1.702 . S
C1838 C43 1.712 1_656 S
C1850 C376 1.685 1_556 S
C1865 C68 1.703 . S
C1877 C418 1.677 . S
C1892 C71 1.711 1_455 S
C1904 C392 1.672 . S
C1919 C447 1.705 . S
C1931 C97 1.679 . S
C1946 C433 1.687 1_554 S
C1958 C110 1.701 1_454 S
C1973 C250 1.671 . S
C1985 C113 1.706 . S
C2000 C237 1.670 . S
C2012 C138 1.702 1_655 S
C2027 C152 1.677 . S
C2039 C278 1.694 . S
C2054 C167 1.669 1_655 S
C2066 C264 1.703 . S
C2081 C295 1.682 . S
C2093 C181 1.707 . S
C2108 C195 1.690 1_455 S
C2120 C292 1.691 . S
C2135 C197 1.684 . S
C2147 C335 1.706 . S
C2162 C210 1.690 1_455 S
C2174 C321 1.691 . S
