# Generated by pormake.
# Topology ula, (4)-cn, num edge types: 1
# Building blocks:
#     Node 0, Type 0, BuildingBlock: MUDLON_clean_sbu_0, # of connection points: 4
#     Node 1, Type 0, BuildingBlock: MUDLON_clean_sbu_0, # of connection points: 4
#     Node 2, Type 0, BuildingBlock: MUDLON_clean_sbu_0, # of connection points: 4
#     Node 3, Type 0, BuildingBlock: MUDLON_clean_sbu_0, # of connection points: 4
#     Node 4, Type 0, BuildingBlock: MUDLON_clean_sbu_0, # of connection points: 4
#     Node 5, Type 0, BuildingBlock: MUDLON_clean_sbu_0, # of connection points: 4
#     Node 6, Type 0, BuildingBlock: MUDLON_clean_sbu_0, # of connection points: 4
#     Node 7, Type 0, BuildingBlock: MUDLON_clean_sbu_0, # of connection points: 4
#     Node 8, Type 0, BuildingBlock: MUDLON_clean_sbu_0, # of connection points: 4
#     Node 9, Type 0, BuildingBlock: MUDLON_clean_sbu_0, # of connection points: 4
#     Node 10, Type 0, BuildingBlock: MUDLON_clean_sbu_0, # of connection points: 4
#     Node 11, Type 0, BuildingBlock: MUDLON_clean_sbu_0, # of connection points: 4
#     Node 12, Type 0, BuildingBlock: MUDLON_clean_sbu_0, # of connection points: 4
#     Node 13, Type 0, BuildingBlock: MUDLON_clean_sbu_0, # of connection points: 4
#     Node 14, Type 0, BuildingBlock: MUDLON_clean_sbu_0, # of connection points: 4
#     Node 15, Type 0, BuildingBlock: MUDLON_clean_sbu_0, # of connection points: 4
#     Node 16, Type 0, BuildingBlock: MUDLON_clean_sbu_0, # of connection points: 4
#     Node 17, Type 0, BuildingBlock: MUDLON_clean_sbu_0, # of connection points: 4
#     Node 18, Type 0, BuildingBlock: MUDLON_clean_sbu_0, # of connection points: 4
#     Node 19, Type 0, BuildingBlock: MUDLON_clean_sbu_0, # of connection points: 4
#     Node 20, Type 0, BuildingBlock: MUDLON_clean_sbu_0, # of connection points: 4
#     Node 21, Type 0, BuildingBlock: MUDLON_clean_sbu_0, # of connection points: 4
#     Node 22, Type 0, BuildingBlock: MUDLON_clean_sbu_0, # of connection points: 4
#     Node 23, Type 0, BuildingBlock: MUDLON_clean_sbu_0, # of connection points: 4
#     Node 24, Type 0, BuildingBlock: MUDLON_clean_sbu_0, # of connection points: 4
#     Node 25, Type 0, BuildingBlock: MUDLON_clean_sbu_0, # of connection points: 4
#     Node 26, Type 0, BuildingBlock: MUDLON_clean_sbu_0, # of connection points: 4
#     Node 27, Type 0, BuildingBlock: MUDLON_clean_sbu_0, # of connection points: 4
#     Node 28, Type 0, BuildingBlock: MUDLON_clean_sbu_0, # of connection points: 4
#     Node 29, Type 0, BuildingBlock: MUDLON_clean_sbu_0, # of connection points: 4
#     Node 30, Type 0, BuildingBlock: MUDLON_clean_sbu_0, # of connection points: 4
#     Node 31, Type 0, BuildingBlock: MUDLON_clean_sbu_0, # of connection points: 4
#     Node 32, Type 0, BuildingBlock: MUDLON_clean_sbu_0, # of connection points: 4
#     Node 33, Type 0, BuildingBlock: MUDLON_clean_sbu_0, # of connection points: 4
#     Node 34, Type 0, BuildingBlock: MUDLON_clean_sbu_0, # of connection points: 4
#     Node 35, Type 0, BuildingBlock: MUDLON_clean_sbu_0, # of connection points: 4
#     Node 36, Type 0, BuildingBlock: MUDLON_clean_sbu_0, # of connection points: 4
#     Node 37, Type 0, BuildingBlock: MUDLON_clean_sbu_0, # of connection points: 4
#     Node 38, Type 0, BuildingBlock: MUDLON_clean_sbu_0, # of connection points: 4
#     Node 39, Type 0, BuildingBlock: MUDLON_clean_sbu_0, # of connection points: 4
#     Node 40, Type 0, BuildingBlock: MUDLON_clean_sbu_0, # of connection points: 4
#     Node 41, Type 0, BuildingBlock: MUDLON_clean_sbu_0, # of connection points: 4
#     Node 42, Type 0, BuildingBlock: MUDLON_clean_sbu_0, # of connection points: 4
#     Node 43, Type 0, BuildingBlock: MUDLON_clean_sbu_0, # of connection points: 4
#     Node 44, Type 0, BuildingBlock: MUDLON_clean_sbu_0, # of connection points: 4
#     Node 45, Type 0, BuildingBlock: MUDLON_clean_sbu_0, # of connection points: 4
#     Node 46, Type 0, BuildingBlock: MUDLON_clean_sbu_0, # of connection points: 4
#     Node 47, Type 0, BuildingBlock: MUDLON_clean_sbu_0, # of connection points: 4
#     Node 48, Type 0, BuildingBlock: MUDLON_clean_sbu_0, # of connection points: 4
#     Node 49, Type 0, BuildingBlock: MUDLON_clean_sbu_0, # of connection points: 4
#     Node 50, Type 0, BuildingBlock: MUDLON_clean_sbu_0, # of connection points: 4
#     Node 51, Type 0, BuildingBlock: MUDLON_clean_sbu_0, # of connection points: 4
#     Node 52, Type 0, BuildingBlock: MUDLON_clean_sbu_0, # of connection points: 4
#     Node 53, Type 0, BuildingBlock: MUDLON_clean_sbu_0, # of connection points: 4
#     Node 54, Type 0, BuildingBlock: MUDLON_clean_sbu_0, # of connection points: 4
#     Node 55, Type 0, BuildingBlock: MUDLON_clean_sbu_0, # of connection points: 4
#     Node 56, Type 0, BuildingBlock: MUDLON_clean_sbu_0, # of connection points: 4
#     Node 57, Type 0, BuildingBlock: MUDLON_clean_sbu_0, # of connection points: 4
#     Node 58, Type 0, BuildingBlock: MUDLON_clean_sbu_0, # of connection points: 4
#     Node 59, Type 0, BuildingBlock: MUDLON_clean_sbu_0, # of connection points: 4
#     Node 60, Type 0, BuildingBlock: MUDLON_clean_sbu_0, # of connection points: 4
#     Node 61, Type 0, BuildingBlock: MUDLON_clean_sbu_0, # of connection points: 4
#     Node 62, Type 0, BuildingBlock: MUDLON_clean_sbu_0, # of connection points: 4
#     Node 63, Type 0, BuildingBlock: MUDLON_clean_sbu_0, # of connection points: 4
#     Node 64, Type 0, BuildingBlock: MUDLON_clean_sbu_0, # of connection points: 4
#     Node 65, Type 0, BuildingBlock: MUDLON_clean_sbu_0, # of connection points: 4
#     Node 66, Type 0, BuildingBlock: MUDLON_clean_sbu_0, # of connection points: 4
#     Node 67, Type 0, BuildingBlock: MUDLON_clean_sbu_0, # of connection points: 4
#     Node 68, Type 0, BuildingBlock: MUDLON_clean_sbu_0, # of connection points: 4
#     Node 69, Type 0, BuildingBlock: MUDLON_clean_sbu_0, # of connection points: 4
#     Node 70, Type 0, BuildingBlock: MUDLON_clean_sbu_0, # of connection points: 4
#     Node 71, Type 0, BuildingBlock: MUDLON_clean_sbu_0, # of connection points: 4
#     Node 72, Type 0, BuildingBlock: MUDLON_clean_sbu_0, # of connection points: 4
#     Node 73, Type 0, BuildingBlock: MUDLON_clean_sbu_0, # of connection points: 4
#     Node 74, Type 0, BuildingBlock: MUDLON_clean_sbu_0, # of connection points: 4
#     Node 75, Type 0, BuildingBlock: MUDLON_clean_sbu_0, # of connection points: 4
#     Node 76, Type 0, BuildingBlock: MUDLON_clean_sbu_0, # of connection points: 4
#     Node 77, Type 0, BuildingBlock: MUDLON_clean_sbu_0, # of connection points: 4
#     Node 78, Type 0, BuildingBlock: MUDLON_clean_sbu_0, # of connection points: 4
#     Node 79, Type 0, BuildingBlock: MUDLON_clean_sbu_0, # of connection points: 4
#     Node 80, Type 0, BuildingBlock: MUDLON_clean_sbu_0, # of connection points: 4
#     Node 81, Type 0, BuildingBlock: MUDLON_clean_sbu_0, # of connection points: 4
#     Node 82, Type 0, BuildingBlock: MUDLON_clean_sbu_0, # of connection points: 4
#     Node 83, Type 0, BuildingBlock: MUDLON_clean_sbu_0, # of connection points: 4
#     Node 84, Type 0, BuildingBlock: MUDLON_clean_sbu_0, # of connection points: 4
#     Node 85, Type 0, BuildingBlock: MUDLON_clean_sbu_0, # of connection points: 4
#     Node 86, Type 0, BuildingBlock: MUDLON_clean_sbu_0, # of connection points: 4
#     Node 87, Type 0, BuildingBlock: MUDLON_clean_sbu_0, # of connection points: 4
#     Node 88, Type 0, BuildingBlock: MUDLON_clean_sbu_0, # of connection points: 4
#     Node 89, Type 0, BuildingBlock: MUDLON_clean_sbu_0, # of connection points: 4
#     Node 90, Type 0, BuildingBlock: MUDLON_clean_sbu_0, # of connection points: 4
#     Node 91, Type 0, BuildingBlock: MUDLON_clean_sbu_0, # of connection points: 4
#     Node 92, Type 0, BuildingBlock: MUDLON_clean_sbu_0, # of connection points: 4
#     Node 93, Type 0, BuildingBlock: MUDLON_clean_sbu_0, # of connection points: 4
#     Node 94, Type 0, BuildingBlock: MUDLON_clean_sbu_0, # of connection points: 4
#     Node 95, Type 0, BuildingBlock: MUDLON_clean_sbu_0, # of connection points: 4
#     Edge 96, Type (0, 0), BuildingBlock: XIVTED_clean_linker_0, # of connection points: 2
#     Edge 97, Type (0, 0), BuildingBlock: XIVTED_clean_linker_0, # of connection points: 2
#     Edge 98, Type (0, 0), BuildingBlock: XIVTED_clean_linker_0, # of connection points: 2
#     Edge 99, Type (0, 0), BuildingBlock: XIVTED_clean_linker_0, # of connection points: 2
#     Edge 100, Type (0, 0), BuildingBlock: XIVTED_clean_linker_0, # of connection points: 2
#     Edge 101, Type (0, 0), BuildingBlock: XIVTED_clean_linker_0, # of connection points: 2
#     Edge 102, Type (0, 0), BuildingBlock: XIVTED_clean_linker_0, # of connection points: 2
#     Edge 103, Type (0, 0), BuildingBlock: XIVTED_clean_linker_0, # of connection points: 2
#     Edge 104, Type (0, 0), BuildingBlock: XIVTED_clean_linker_0, # of connection points: 2
#     Edge 105, Type (0, 0), BuildingBlock: XIVTED_clean_linker_0, # of connection points: 2
#     Edge 106, Type (0, 0), BuildingBlock: XIVTED_clean_linker_0, # of connection points: 2
#     Edge 107, Type (0, 0), BuildingBlock: XIVTED_clean_linker_0, # of connection points: 2
#     Edge 108, Type (0, 0), BuildingBlock: XIVTED_clean_linker_0, # of connection points: 2
#     Edge 109, Type (0, 0), BuildingBlock: XIVTED_clean_linker_0, # of connection points: 2
#     Edge 110, Type (0, 0), BuildingBlock: XIVTED_clean_linker_0, # of connection points: 2
#     Edge 111, Type (0, 0), BuildingBlock: XIVTED_clean_linker_0, # of connection points: 2
#     Edge 112, Type (0, 0), BuildingBlock: XIVTED_clean_linker_0, # of connection points: 2
#     Edge 113, Type (0, 0), BuildingBlock: XIVTED_clean_linker_0, # of connection points: 2
#     Edge 114, Type (0, 0), BuildingBlock: XIVTED_clean_linker_0, # of connection points: 2
#     Edge 115, Type (0, 0), BuildingBlock: XIVTED_clean_linker_0, # of connection points: 2
#     Edge 116, Type (0, 0), BuildingBlock: XIVTED_clean_linker_0, # of connection points: 2
#     Edge 117, Type (0, 0), BuildingBlock: XIVTED_clean_linker_0, # of connection points: 2
#     Edge 118, Type (0, 0), BuildingBlock: XIVTED_clean_linker_0, # of connection points: 2
#     Edge 119, Type (0, 0), BuildingBlock: XIVTED_clean_linker_0, # of connection points: 2
#     Edge 120, Type (0, 0), BuildingBlock: XIVTED_clean_linker_0, # of connection points: 2
#     Edge 121, Type (0, 0), BuildingBlock: XIVTED_clean_linker_0, # of connection points: 2
#     Edge 122, Type (0, 0), BuildingBlock: XIVTED_clean_linker_0, # of connection points: 2
#     Edge 123, Type (0, 0), BuildingBlock: XIVTED_clean_linker_0, # of connection points: 2
#     Edge 124, Type (0, 0), BuildingBlock: XIVTED_clean_linker_0, # of connection points: 2
#     Edge 125, Type (0, 0), BuildingBlock: XIVTED_clean_linker_0, # of connection points: 2
#     Edge 126, Type (0, 0), BuildingBlock: XIVTED_clean_linker_0, # of connection points: 2
#     Edge 127, Type (0, 0), BuildingBlock: XIVTED_clean_linker_0, # of connection points: 2
#     Edge 128, Type (0, 0), BuildingBlock: XIVTED_clean_linker_0, # of connection points: 2
#     Edge 129, Type (0, 0), BuildingBlock: XIVTED_clean_linker_0, # of connection points: 2
#     Edge 130, Type (0, 0), BuildingBlock: XIVTED_clean_linker_0, # of connection points: 2
#     Edge 131, Type (0, 0), BuildingBlock: XIVTED_clean_linker_0, # of connection points: 2
#     Edge 132, Type (0, 0), BuildingBlock: XIVTED_clean_linker_0, # of connection points: 2
#     Edge 133, Type (0, 0), BuildingBlock: XIVTED_clean_linker_0, # of connection points: 2
#     Edge 134, Type (0, 0), BuildingBlock: XIVTED_clean_linker_0, # of connection points: 2
#     Edge 135, Type (0, 0), BuildingBlock: XIVTED_clean_linker_0, # of connection points: 2
#     Edge 136, Type (0, 0), BuildingBlock: XIVTED_clean_linker_0, # of connection points: 2
#     Edge 137, Type (0, 0), BuildingBlock: XIVTED_clean_linker_0, # of connection points: 2
#     Edge 138, Type (0, 0), BuildingBlock: XIVTED_clean_linker_0, # of connection points: 2
#     Edge 139, Type (0, 0), BuildingBlock: XIVTED_clean_linker_0, # of connection points: 2
#     Edge 140, Type (0, 0), BuildingBlock: XIVTED_clean_linker_0, # of connection points: 2
#     Edge 141, Type (0, 0), BuildingBlock: XIVTED_clean_linker_0, # of connection points: 2
#     Edge 142, Type (0, 0), BuildingBlock: XIVTED_clean_linker_0, # of connection points: 2
#     Edge 143, Type (0, 0), BuildingBlock: XIVTED_clean_linker_0, # of connection points: 2
#     Edge 144, Type (0, 0), BuildingBlock: XIVTED_clean_linker_0, # of connection points: 2
#     Edge 145, Type (0, 0), BuildingBlock: XIVTED_clean_linker_0, # of connection points: 2
#     Edge 146, Type (0, 0), BuildingBlock: XIVTED_clean_linker_0, # of connection points: 2
#     Edge 147, Type (0, 0), BuildingBlock: XIVTED_clean_linker_0, # of connection points: 2
#     Edge 148, Type (0, 0), BuildingBlock: XIVTED_clean_linker_0, # of connection points: 2
#     Edge 149, Type (0, 0), BuildingBlock: XIVTED_clean_linker_0, # of connection points: 2
#     Edge 150, Type (0, 0), BuildingBlock: XIVTED_clean_linker_0, # of connection points: 2
#     Edge 151, Type (0, 0), BuildingBlock: XIVTED_clean_linker_0, # of connection points: 2
#     Edge 152, Type (0, 0), BuildingBlock: XIVTED_clean_linker_0, # of connection points: 2
#     Edge 153, Type (0, 0), BuildingBlock: XIVTED_clean_linker_0, # of connection points: 2
#     Edge 154, Type (0, 0), BuildingBlock: XIVTED_clean_linker_0, # of connection points: 2
#     Edge 155, Type (0, 0), BuildingBlock: XIVTED_clean_linker_0, # of connection points: 2
#     Edge 156, Type (0, 0), BuildingBlock: XIVTED_clean_linker_0, # of connection points: 2
#     Edge 157, Type (0, 0), BuildingBlock: XIVTED_clean_linker_0, # of connection points: 2
#     Edge 158, Type (0, 0), BuildingBlock: XIVTED_clean_linker_0, # of connection points: 2
#     Edge 159, Type (0, 0), BuildingBlock: XIVTED_clean_linker_0, # of connection points: 2
#     Edge 160, Type (0, 0), BuildingBlock: XIVTED_clean_linker_0, # of connection points: 2
#     Edge 161, Type (0, 0), BuildingBlock: XIVTED_clean_linker_0, # of connection points: 2
#     Edge 162, Type (0, 0), BuildingBlock: XIVTED_clean_linker_0, # of connection points: 2
#     Edge 163, Type (0, 0), BuildingBlock: XIVTED_clean_linker_0, # of connection points: 2
#     Edge 164, Type (0, 0), BuildingBlock: XIVTED_clean_linker_0, # of connection points: 2
#     Edge 165, Type (0, 0), BuildingBlock: XIVTED_clean_linker_0, # of connection points: 2
#     Edge 166, Type (0, 0), BuildingBlock: XIVTED_clean_linker_0, # of connection points: 2
#     Edge 167, Type (0, 0), BuildingBlock: XIVTED_clean_linker_0, # of connection points: 2
#     Edge 168, Type (0, 0), BuildingBlock: XIVTED_clean_linker_0, # of connection points: 2
#     Edge 169, Type (0, 0), BuildingBlock: XIVTED_clean_linker_0, # of connection points: 2
#     Edge 170, Type (0, 0), BuildingBlock: XIVTED_clean_linker_0, # of connection points: 2
#     Edge 171, Type (0, 0), BuildingBlock: XIVTED_clean_linker_0, # of connection points: 2
#     Edge 172, Type (0, 0), BuildingBlock: XIVTED_clean_linker_0, # of connection points: 2
#     Edge 173, Type (0, 0), BuildingBlock: XIVTED_clean_linker_0, # of connection points: 2
#     Edge 174, Type (0, 0), BuildingBlock: XIVTED_clean_linker_0, # of connection points: 2
#     Edge 175, Type (0, 0), BuildingBlock: XIVTED_clean_linker_0, # of connection points: 2
#     Edge 176, Type (0, 0), BuildingBlock: XIVTED_clean_linker_0, # of connection points: 2
#     Edge 177, Type (0, 0), BuildingBlock: XIVTED_clean_linker_0, # of connection points: 2
#     Edge 178, Type (0, 0), BuildingBlock: XIVTED_clean_linker_0, # of connection points: 2
#     Edge 179, Type (0, 0), BuildingBlock: XIVTED_clean_linker_0, # of connection points: 2
#     Edge 180, Type (0, 0), BuildingBlock: XIVTED_clean_linker_0, # of connection points: 2
#     Edge 181, Type (0, 0), BuildingBlock: XIVTED_clean_linker_0, # of connection points: 2
#     Edge 182, Type (0, 0), BuildingBlock: XIVTED_clean_linker_0, # of connection points: 2
#     Edge 183, Type (0, 0), BuildingBlock: XIVTED_clean_linker_0, # of connection points: 2
#     Edge 184, Type (0, 0), BuildingBlock: XIVTED_clean_linker_0, # of connection points: 2
#     Edge 185, Type (0, 0), BuildingBlock: XIVTED_clean_linker_0, # of connection points: 2
#     Edge 186, Type (0, 0), BuildingBlock: XIVTED_clean_linker_0, # of connection points: 2
#     Edge 187, Type (0, 0), BuildingBlock: XIVTED_clean_linker_0, # of connection points: 2
#     Edge 188, Type (0, 0), BuildingBlock: XIVTED_clean_linker_0, # of connection points: 2
#     Edge 189, Type (0, 0), BuildingBlock: XIVTED_clean_linker_0, # of connection points: 2
#     Edge 190, Type (0, 0), BuildingBlock: XIVTED_clean_linker_0, # of connection points: 2
#     Edge 191, Type (0, 0), BuildingBlock: XIVTED_clean_linker_0, # of connection points: 2
#     Edge 192, Type (0, 0), BuildingBlock: XIVTED_clean_linker_0, # of connection points: 2
#     Edge 193, Type (0, 0), BuildingBlock: XIVTED_clean_linker_0, # of connection points: 2
#     Edge 194, Type (0, 0), BuildingBlock: XIVTED_clean_linker_0, # of connection points: 2
#     Edge 195, Type (0, 0), BuildingBlock: XIVTED_clean_linker_0, # of connection points: 2
#     Edge 196, Type (0, 0), BuildingBlock: XIVTED_clean_linker_0, # of connection points: 2
#     Edge 197, Type (0, 0), BuildingBlock: XIVTED_clean_linker_0, # of connection points: 2
#     Edge 198, Type (0, 0), BuildingBlock: XIVTED_clean_linker_0, # of connection points: 2
#     Edge 199, Type (0, 0), BuildingBlock: XIVTED_clean_linker_0, # of connection points: 2
#     Edge 200, Type (0, 0), BuildingBlock: XIVTED_clean_linker_0, # of connection points: 2
#     Edge 201, Type (0, 0), BuildingBlock: XIVTED_clean_linker_0, # of connection points: 2
#     Edge 202, Type (0, 0), BuildingBlock: XIVTED_clean_linker_0, # of connection points: 2
#     Edge 203, Type (0, 0), BuildingBlock: XIVTED_clean_linker_0, # of connection points: 2
#     Edge 204, Type (0, 0), BuildingBlock: XIVTED_clean_linker_0, # of connection points: 2
#     Edge 205, Type (0, 0), BuildingBlock: XIVTED_clean_linker_0, # of connection points: 2
#     Edge 206, Type (0, 0), BuildingBlock: XIVTED_clean_linker_0, # of connection points: 2
#     Edge 207, Type (0, 0), BuildingBlock: XIVTED_clean_linker_0, # of connection points: 2
#     Edge 208, Type (0, 0), BuildingBlock: XIVTED_clean_linker_0, # of connection points: 2
#     Edge 209, Type (0, 0), BuildingBlock: XIVTED_clean_linker_0, # of connection points: 2
#     Edge 210, Type (0, 0), BuildingBlock: XIVTED_clean_linker_0, # of connection points: 2
#     Edge 211, Type (0, 0), BuildingBlock: XIVTED_clean_linker_0, # of connection points: 2
#     Edge 212, Type (0, 0), BuildingBlock: XIVTED_clean_linker_0, # of connection points: 2
#     Edge 213, Type (0, 0), BuildingBlock: XIVTED_clean_linker_0, # of connection points: 2
#     Edge 214, Type (0, 0), BuildingBlock: XIVTED_clean_linker_0, # of connection points: 2
#     Edge 215, Type (0, 0), BuildingBlock: XIVTED_clean_linker_0, # of connection points: 2
#     Edge 216, Type (0, 0), BuildingBlock: XIVTED_clean_linker_0, # of connection points: 2
#     Edge 217, Type (0, 0), BuildingBlock: XIVTED_clean_linker_0, # of connection points: 2
#     Edge 218, Type (0, 0), BuildingBlock: XIVTED_clean_linker_0, # of connection points: 2
#     Edge 219, Type (0, 0), BuildingBlock: XIVTED_clean_linker_0, # of connection points: 2
#     Edge 220, Type (0, 0), BuildingBlock: XIVTED_clean_linker_0, # of connection points: 2
#     Edge 221, Type (0, 0), BuildingBlock: XIVTED_clean_linker_0, # of connection points: 2
#     Edge 222, Type (0, 0), BuildingBlock: XIVTED_clean_linker_0, # of connection points: 2
#     Edge 223, Type (0, 0), BuildingBlock: XIVTED_clean_linker_0, # of connection points: 2
#     Edge 224, Type (0, 0), BuildingBlock: XIVTED_clean_linker_0, # of connection points: 2
#     Edge 225, Type (0, 0), BuildingBlock: XIVTED_clean_linker_0, # of connection points: 2
#     Edge 226, Type (0, 0), BuildingBlock: XIVTED_clean_linker_0, # of connection points: 2
#     Edge 227, Type (0, 0), BuildingBlock: XIVTED_clean_linker_0, # of connection points: 2
#     Edge 228, Type (0, 0), BuildingBlock: XIVTED_clean_linker_0, # of connection points: 2
#     Edge 229, Type (0, 0), BuildingBlock: XIVTED_clean_linker_0, # of connection points: 2
#     Edge 230, Type (0, 0), BuildingBlock: XIVTED_clean_linker_0, # of connection points: 2
#     Edge 231, Type (0, 0), BuildingBlock: XIVTED_clean_linker_0, # of connection points: 2
#     Edge 232, Type (0, 0), BuildingBlock: XIVTED_clean_linker_0, # of connection points: 2
#     Edge 233, Type (0, 0), BuildingBlock: XIVTED_clean_linker_0, # of connection points: 2
#     Edge 234, Type (0, 0), BuildingBlock: XIVTED_clean_linker_0, # of connection points: 2
#     Edge 235, Type (0, 0), BuildingBlock: XIVTED_clean_linker_0, # of connection points: 2
#     Edge 236, Type (0, 0), BuildingBlock: XIVTED_clean_linker_0, # of connection points: 2
#     Edge 237, Type (0, 0), BuildingBlock: XIVTED_clean_linker_0, # of connection points: 2
#     Edge 238, Type (0, 0), BuildingBlock: XIVTED_clean_linker_0, # of connection points: 2
#     Edge 239, Type (0, 0), BuildingBlock: XIVTED_clean_linker_0, # of connection points: 2
#     Edge 240, Type (0, 0), BuildingBlock: XIVTED_clean_linker_0, # of connection points: 2
#     Edge 241, Type (0, 0), BuildingBlock: XIVTED_clean_linker_0, # of connection points: 2
#     Edge 242, Type (0, 0), BuildingBlock: XIVTED_clean_linker_0, # of connection points: 2
#     Edge 243, Type (0, 0), BuildingBlock: XIVTED_clean_linker_0, # of connection points: 2
#     Edge 244, Type (0, 0), BuildingBlock: XIVTED_clean_linker_0, # of connection points: 2
#     Edge 245, Type (0, 0), BuildingBlock: XIVTED_clean_linker_0, # of connection points: 2
#     Edge 246, Type (0, 0), BuildingBlock: XIVTED_clean_linker_0, # of connection points: 2
#     Edge 247, Type (0, 0), BuildingBlock: XIVTED_clean_linker_0, # of connection points: 2
#     Edge 248, Type (0, 0), BuildingBlock: XIVTED_clean_linker_0, # of connection points: 2
#     Edge 249, Type (0, 0), BuildingBlock: XIVTED_clean_linker_0, # of connection points: 2
#     Edge 250, Type (0, 0), BuildingBlock: XIVTED_clean_linker_0, # of connection points: 2
#     Edge 251, Type (0, 0), BuildingBlock: XIVTED_clean_linker_0, # of connection points: 2
#     Edge 252, Type (0, 0), BuildingBlock: XIVTED_clean_linker_0, # of connection points: 2
#     Edge 253, Type (0, 0), BuildingBlock: XIVTED_clean_linker_0, # of connection points: 2
#     Edge 254, Type (0, 0), BuildingBlock: XIVTED_clean_linker_0, # of connection points: 2
#     Edge 255, Type (0, 0), BuildingBlock: XIVTED_clean_linker_0, # of connection points: 2
#     Edge 256, Type (0, 0), BuildingBlock: XIVTED_clean_linker_0, # of connection points: 2
#     Edge 257, Type (0, 0), BuildingBlock: XIVTED_clean_linker_0, # of connection points: 2
#     Edge 258, Type (0, 0), BuildingBlock: XIVTED_clean_linker_0, # of connection points: 2
#     Edge 259, Type (0, 0), BuildingBlock: XIVTED_clean_linker_0, # of connection points: 2
#     Edge 260, Type (0, 0), BuildingBlock: XIVTED_clean_linker_0, # of connection points: 2
#     Edge 261, Type (0, 0), BuildingBlock: XIVTED_clean_linker_0, # of connection points: 2
#     Edge 262, Type (0, 0), BuildingBlock: XIVTED_clean_linker_0, # of connection points: 2
#     Edge 263, Type (0, 0), BuildingBlock: XIVTED_clean_linker_0, # of connection points: 2
#     Edge 264, Type (0, 0), BuildingBlock: XIVTED_clean_linker_0, # of connection points: 2
#     Edge 265, Type (0, 0), BuildingBlock: XIVTED_clean_linker_0, # of connection points: 2
#     Edge 266, Type (0, 0), BuildingBlock: XIVTED_clean_linker_0, # of connection points: 2
#     Edge 267, Type (0, 0), BuildingBlock: XIVTED_clean_linker_0, # of connection points: 2
#     Edge 268, Type (0, 0), BuildingBlock: XIVTED_clean_linker_0, # of connection points: 2
#     Edge 269, Type (0, 0), BuildingBlock: XIVTED_clean_linker_0, # of connection points: 2
#     Edge 270, Type (0, 0), BuildingBlock: XIVTED_clean_linker_0, # of connection points: 2
#     Edge 271, Type (0, 0), BuildingBlock: XIVTED_clean_linker_0, # of connection points: 2
#     Edge 272, Type (0, 0), BuildingBlock: XIVTED_clean_linker_0, # of connection points: 2
#     Edge 273, Type (0, 0), BuildingBlock: XIVTED_clean_linker_0, # of connection points: 2
#     Edge 274, Type (0, 0), BuildingBlock: XIVTED_clean_linker_0, # of connection points: 2
#     Edge 275, Type (0, 0), BuildingBlock: XIVTED_clean_linker_0, # of connection points: 2
#     Edge 276, Type (0, 0), BuildingBlock: XIVTED_clean_linker_0, # of connection points: 2
#     Edge 277, Type (0, 0), BuildingBlock: XIVTED_clean_linker_0, # of connection points: 2
#     Edge 278, Type (0, 0), BuildingBlock: XIVTED_clean_linker_0, # of connection points: 2
#     Edge 279, Type (0, 0), BuildingBlock: XIVTED_clean_linker_0, # of connection points: 2
#     Edge 280, Type (0, 0), BuildingBlock: XIVTED_clean_linker_0, # of connection points: 2
#     Edge 281, Type (0, 0), BuildingBlock: XIVTED_clean_linker_0, # of connection points: 2
#     Edge 282, Type (0, 0), BuildingBlock: XIVTED_clean_linker_0, # of connection points: 2
#     Edge 283, Type (0, 0), BuildingBlock: XIVTED_clean_linker_0, # of connection points: 2
#     Edge 284, Type (0, 0), BuildingBlock: XIVTED_clean_linker_0, # of connection points: 2
#     Edge 285, Type (0, 0), BuildingBlock: XIVTED_clean_linker_0, # of connection points: 2
#     Edge 286, Type (0, 0), BuildingBlock: XIVTED_clean_linker_0, # of connection points: 2
#     Edge 287, Type (0, 0), BuildingBlock: XIVTED_clean_linker_0, # of connection points: 2
# Relax obj value: 0.033
# Max RMSD: 0.045
# Mean RMSD: 0.045
data_MOF--net-ula--node1-MUDLON_clean_sbu_0--edge1-XIVTED_clean_linker_0
_symmetry_space_group_name_H-M    P1
_symmetry_Int_Tables_number       1
_symmetry_cell_setting            triclinic
loop_
_symmetry_equiv_pos_as_xyz
'x, y, z'
_cell_length_a     72.893706
_cell_length_b     72.799634
_cell_length_c     72.88928
_cell_angle_alpha  89.970392
_cell_angle_beta   90.012206
_cell_angle_gamma 89.969217
loop_
_atom_site_label
_atom_site_type_symbol
_atom_site_fract_x
_atom_site_fract_y
_atom_site_fract_z
_atom_type_partial_charge
Mg0 Mg 0.02911 0.05342 0.3507 0.0
C1 C 0.06712 0.04637 0.33496 0.0
O2 O 0.05715 0.0383 0.32233 0.0
C3 C 0.99421 0.03879 0.3612 0.0
O4 O 0.99149 0.05151 0.3487 0.0
C5 C 0.01754 0.03276 0.31889 0.0
O6 O 0.02028 0.02083 0.33213 0.0
O7 O 0.01986 0.04979 0.32237 0.0
O8 O 0.0593 0.05209 0.34951 0.0
O9 O 0.02407 0.07761 0.3676 0.0
C10 C 0.02781 0.07274 0.38401 0.0
O11 O 0.03431 0.05611 0.38672 0.0
O12 O 0.0107 0.03485 0.36562 0.0
Mg13 Mg 0.20768 0.78063 0.60431 0.0
C14 C 0.20489 0.81576 0.58383 0.0
O15 O 0.20024 0.80327 0.57171 0.0
C16 C 0.22249 0.76155 0.63889 0.0
O17 O 0.21108 0.77261 0.64736 0.0
C18 C 0.2295 0.76793 0.57327 0.0
O19 O 0.24144 0.77242 0.58601 0.0
O20 O 0.21247 0.76877 0.57717 0.0
O21 O 0.21009 0.81053 0.59971 0.0
O22 O 0.18169 0.7767 0.61866 0.0
C23 C 0.1788 0.78948 0.63024 0.0
O24 O 0.18918 0.8042 0.62944 0.0
O25 O 0.22588 0.76426 0.62194 0.0
Mg26 Mg 0.47992 0.95688 0.84923 0.0
C27 C 0.44417 0.94781 0.83484 0.0
O28 O 0.45634 0.93847 0.82536 0.0
C29 C 0.51464 0.97329 0.85854 0.0
O30 O 0.51766 0.96165 0.84511 0.0
C31 C 0.48616 0.9785 0.81735 0.0
O32 O 0.48037 0.98927 0.83061 0.0
O33 O 0.48806 0.96141 0.82076 0.0
O34 O 0.44994 0.9585 0.84747 0.0
O35 O 0.48485 0.93242 0.86594 0.0
C36 C 0.48239 0.93713 0.88264 0.0
O37 O 0.47724 0.95408 0.88606 0.0
O38 O 0.49811 0.97597 0.86366 0.0
Mg39 Mg 0.30184 0.23172 0.09944 0.0
C40 C 0.30851 0.19555 0.08307 0.0
O41 O 0.31676 0.20736 0.07223 0.0
C42 C 0.28334 0.25529 0.12943 0.0
O43 O 0.29439 0.24651 0.14062 0.0
C44 C 0.28119 0.23965 0.06751 0.0
O45 O 0.26999 0.23383 0.08038 0.0
O46 O 0.29822 0.24099 0.07129 0.0
O47 O 0.29945 0.20172 0.09674 0.0
O48 O 0.32667 0.2362 0.11563 0.0
C49 C 0.32648 0.22546 0.12945 0.0
O50 O 0.3137 0.21276 0.13019 0.0
O51 O 0.28189 0.24984 0.11291 0.0
Mg52 Mg 0.02514 0.95774 0.16105 0.0
C53 C 0.06146 0.94922 0.17341 0.0
O54 O 0.04979 0.93853 0.18206 0.0
C55 C 1.0034 0.98622 0.13494 0.0
O56 O 0.01838 0.9905 0.12589 0.0
C57 C 0.01933 0.97825 0.19316 0.0
O58 O 0.02457 0.98925 0.17985 0.0
O59 O 0.01764 0.96118 0.18965 0.0
O60 O 0.05506 0.96087 0.16196 0.0
O61 O 0.02111 0.93316 0.14453 0.0
C62 C 0.02544 0.93779 0.12822 0.0
O63 O 0.03219 0.95429 0.12552 0.0
O64 O 0.00428 0.97526 0.14847 0.0
Mg65 Mg 0.299 0.77075 0.4115 0.0
C66 C 0.31131 0.80674 0.42149 0.0
O67 O 0.32316 0.79478 0.428 0.0
C68 C 0.27459 0.73837 0.40366 0.0
O69 O 0.27903 0.73485 0.42075 0.0
C70 C 0.27944 0.76815 0.44534 0.0
O71 O 0.26854 0.77547 0.43297 0.0
O72 O 0.29565 0.76367 0.44046 0.0
O73 O 0.29764 0.8007 0.41238 0.0
O74 O 0.32329 0.76571 0.39459 0.0
C75 C 0.31856 0.76849 0.37794 0.0
O76 O 0.30168 0.77389 0.37463 0.0
O77 O 0.27917 0.75374 0.39665 0.0
Mg78 Mg 0.48314 0.0529 0.65886 0.0
C79 C 0.44714 0.06316 0.66994 0.0
O80 O 0.45904 0.07496 0.67663 0.0
C81 C 0.50423 0.02313 0.63361 0.0
O82 O 0.48898 0.01805 0.62546 0.0
C83 C 0.4899 0.03242 0.69114 0.0
O84 O 0.48582 0.02107 0.67773 0.0
O85 O 0.49047 0.04958 0.68763 0.0
O86 O 0.45325 0.05 0.66009 0.0
O87 O 0.48705 0.07748 0.64208 0.0
C88 C 0.4839 0.07272 0.62554 0.0
O89 O 0.47844 0.05583 0.62241 0.0
O90 O 0.50373 0.03507 0.64629 0.0
Mg91 Mg 0.20625 0.235 0.90934 0.0
C92 C 0.19543 0.19887 0.92069 0.0
O93 O 0.18399 0.21086 0.9278 0.0
C94 C 0.2212 0.27104 0.90393 0.0
O95 O 0.20792 0.27214 0.91607 0.0
C96 C 0.22611 0.23953 0.94212 0.0
O97 O 0.23722 0.23424 0.92894 0.0
O98 O 0.20914 0.24155 0.93836 0.0
O99 O 0.20831 0.20491 0.91043 0.0
O100 O 0.18255 0.24039 0.89179 0.0
C101 C 0.18846 0.24015 0.87532 0.0
O102 O 0.20584 0.23632 0.87248 0.0
O103 O 0.22546 0.25523 0.89768 0.0
Mg104 Mg 0.3479 0.02521 0.05708 0.0
C105 C 0.34026 0.06193 0.06692 0.0
O106 O 0.33488 0.05067 0.07995 0.0
C107 C 0.36979 0.99749 0.02844 0.0
O108 O 0.37511 0.00984 0.01643 0.0
C109 C 0.31597 0.01914 0.03533 0.0
O110 O 0.33001 0.02173 0.02431 0.0
O111 O 0.31888 0.01928 0.0526 0.0
O112 O 0.34805 0.05502 0.05281 0.0
O113 O 0.3631 0.0228 0.08292 0.0
C114 C 0.38021 0.02265 0.07918 0.0
O115 O 0.38518 0.02364 0.06189 0.0
O116 O 0.36047 1.00228 0.04237 0.0
Mg117 Mg 0.23078 0.10192 0.30027 0.0
C118 C 0.19257 0.08654 0.29394 0.0
O119 O 0.20241 0.07327 0.28678 0.0
C120 C 0.26596 0.11254 0.28634 0.0
O121 O 0.26846 0.09983 0.2989 0.0
C122 C 0.24193 0.07016 0.279 0.0
O123 O 0.23968 0.0837 0.2673 0.0
O124 O 0.23957 0.07343 0.29605 0.0
O125 O 0.20058 0.10134 0.29876 0.0
O126 O 0.23566 0.11811 0.325 0.0
C127 C 0.23297 0.13487 0.32057 0.0
O128 O 0.22759 0.13852 0.30375 0.0
O129 O 0.24954 0.11698 0.28216 0.0
Mg130 Mg 0.15871 0.98291 0.55011 0.0
C131 C 0.17185 0.94349 0.54365 0.0
O132 O 0.18455 0.95206 0.5342 0.0
C133 C 0.14887 0.01729 0.53121 0.0
O134 O 0.16415 0.02127 0.53987 0.0
C135 C 0.19055 0.99136 0.52754 0.0
O136 O 0.17683 0.98874 0.51615 0.0
O137 O 0.18741 0.99032 0.54475 0.0
O138 O 0.15834 0.95265 0.54996 0.0
O139 O 0.14325 0.98888 0.57512 0.0
C140 C 0.12643 0.98583 0.57126 0.0
O141 O 0.12244 0.97964 0.55481 0.0
O142 O 0.14292 1.00081 0.53163 0.0
Mg143 Mg 0.27507 0.90901 0.80051 0.0
C144 C 0.31118 0.91874 0.81071 0.0
O145 O 0.29939 0.92473 0.82297 0.0
C146 C 0.24833 0.8849 0.7734 0.0
O147 O 0.26119 0.87379 0.76738 0.0
C148 C 0.26922 0.94143 0.78029 0.0
O149 O 0.27272 0.92777 0.76903 0.0
O150 O 0.26874 0.93807 0.79747 0.0
O151 O 0.30493 0.90974 0.79702 0.0
O152 O 0.27191 0.89199 0.82495 0.0
C153 C 0.27488 0.87555 0.81966 0.0
O154 O 0.27967 0.87287 0.8025 0.0
O155 O 0.25237 0.89782 0.7844 0.0
Mg156 Mg 0.34686 0.97752 0.44791 0.0
C157 C 0.33265 0.94144 0.4433 0.0
O158 O 0.32292 0.95291 0.43333 0.0
C159 C 0.35793 0.0127 0.46527 0.0
O160 O 0.34122 0.01603 0.4594 0.0
C161 C 0.31579 0.98331 0.47152 0.0
O162 O 0.32937 0.97733 0.48178 0.0
O163 O 0.31871 0.98559 0.45442 0.0
O164 O 0.34565 0.94797 0.45306 0.0
O165 O 0.358 0.97709 0.42005 0.0
C166 C 0.37114 0.98778 0.41579 0.0
O167 O 0.37497 1.00164 0.42666 0.0
O168 O 0.36439 0.99649 0.46348 0.0
Mg169 Mg 0.27784 0.10022 0.70591 0.0
C170 C 0.31384 0.0871 0.69742 0.0
O171 O 0.30197 0.07872 0.68675 0.0
C172 C 0.25562 0.12676 0.73323 0.0
O173 O 0.26981 0.13773 0.73494 0.0
C174 C 0.27196 0.06793 0.7263 0.0
O175 O 0.27721 0.08124 0.73728 0.0
O176 O 0.27031 0.07146 0.70922 0.0
O177 O 0.30773 0.09871 0.70905 0.0
O178 O 0.27402 0.11764 0.68176 0.0
C179 C 0.28014 0.13348 0.68603 0.0
O180 O 0.28837 0.13541 0.70194 0.0
O181 O 0.2571 0.11203 0.72403 0.0
Mg182 Mg 0.15781 0.02939 0.95899 0.0
C183 C 0.1718 0.06541 0.94956 0.0
O184 O 0.17981 0.05336 0.93878 0.0
C185 C 0.12951 1.0037 0.97817 0.0
O186 O 0.11704 0.01264 0.96873 0.0
C187 C 0.19026 0.02396 0.97934 0.0
O188 O 0.17715 0.03018 0.99005 0.0
O189 O 0.18656 0.02142 0.9624 0.0
O190 O 0.16045 0.05946 0.96153 0.0
O191 O 0.14019 0.02556 0.93486 0.0
C192 C 0.12636 0.03622 0.93631 0.0
O193 O 0.12618 0.04803 0.94993 0.0
O194 O 0.1459 0.00973 0.97855 0.0
Mg195 Mg 0.23183 0.91178 0.20427 0.0
C196 C 0.19555 0.92302 0.19478 0.0
O197 O 0.20719 0.93023 0.18305 0.0
C198 C 0.25322 0.88581 0.23305 0.0
O199 O 0.23811 0.87701 0.2374 0.0
C200 C 0.23698 0.94387 0.22507 0.0
O201 O 0.23139 0.93045 0.23577 0.0
O202 O 0.23915 0.9405 0.20803 0.0
O203 O 0.20195 0.9128 0.20752 0.0
O204 O 0.23571 0.89517 0.17964 0.0
C205 C 0.23134 0.8788 0.18409 0.0
O206 O 0.2248 0.87594 0.20064 0.0
O207 O 0.25257 0.89918 0.22187 0.0
Mg208 Mg 0.05332 0.34808 0.02613 0.0
C209 C 0.06073 0.33317 0.06241 0.0
O210 O 0.06926 0.3225 0.05064 0.0
C211 C 0.03874 0.35813 0.99097 0.0
O212 O 0.05154 0.34568 0.98837 0.0
C213 C 0.03287 0.3157 0.01714 0.0
O214 O 0.02098 0.3288 0.02062 0.0
O215 O 0.04992 0.31956 0.01769 0.0
O216 O 0.05127 0.34656 0.05617 0.0
O217 O 0.07745 0.36505 0.02121 0.0
C218 C 0.07236 0.38156 0.02418 0.0
O219 O 0.05558 0.38438 0.03015 0.0
O220 O 0.03456 0.3624 0.00743 0.0
Mg221 Mg 0.55249 0.15996 0.98146 0.0
C222 C 0.56469 0.16905 0.9451 0.0
O223 O 0.57746 0.17413 0.95676 0.0
C224 C 0.53734 0.15216 0.01703 0.0
O225 O 0.5501 0.16474 0.01908 0.0
C226 C 0.53187 0.19226 0.98741 0.0
O227 O 0.52074 0.17893 0.98253 0.0
O228 O 0.54897 0.18875 0.98864 0.0
O229 O 0.55044 0.16106 0.95146 0.0
O230 O 0.57684 0.14333 0.98659 0.0
C231 C 0.57196 0.12655 0.9853 0.0
O232 O 0.55482 0.12293 0.98106 0.0
O233 O 0.53352 0.14679 1.0008 0.0
Mg234 Mg 0.09774 0.30424 0.23293 0.0
C235 C 0.08977 0.31501 0.19638 0.0
O236 O 0.0846 0.32795 0.20784 0.0
C237 C 0.12042 0.27532 0.25958 0.0
O238 O 0.12903 0.26629 0.24659 0.0
C239 C 0.06518 0.28433 0.24028 0.0
O240 O 0.07875 0.27263 0.23814 0.0
O241 O 0.0687 0.30146 0.23922 0.0
O242 O 0.0975 0.30073 0.20304 0.0
O243 O 0.11422 0.32895 0.23663 0.0
C244 C 0.13097 0.32394 0.23566 0.0
O245 O 0.13453 0.30658 0.23224 0.0
O246 O 0.10938 0.2882 0.25547 0.0
Mg247 Mg 0.95657 0.85039 0.4817 0.0
C248 C 0.94289 0.84094 0.44578 0.0
O249 O 0.93083 0.83519 0.45789 0.0
C250 C 0.97744 0.85911 0.51539 0.0
O251 O 0.96968 0.84331 0.51927 0.0
C252 C 0.97836 0.81824 0.48556 0.0
O253 O 0.98875 0.83158 0.47925 0.0
O254 O 0.9615 0.8217 0.48875 0.0
O255 O 0.95703 0.84947 0.45164 0.0
O256 O 0.93206 0.86647 0.48821 0.0
C257 C 0.9365 0.88329 0.48605 0.0
O258 O 0.95301 0.8871 0.4799 0.0
O259 O 0.97621 0.86529 0.49904 0.0
Mg260 Mg 0.90738 0.20774 0.23037 0.0
C261 C 0.92077 0.19727 0.19447 0.0
O262 O 0.93046 0.18823 0.20671 0.0
C263 C 0.89887 0.23028 0.26359 0.0
O264 O 0.91573 0.22495 0.26697 0.0
C265 C 0.93954 0.22958 0.23313 0.0
O266 O 0.92647 0.23951 0.22562 0.0
O267 O 0.93591 0.21303 0.23755 0.0
O268 O 0.90833 0.20822 0.20021 0.0
O269 O 0.89194 0.18282 0.23646 0.0
C270 C 0.87514 0.18684 0.23357 0.0
O271 O 0.87124 0.20328 0.22721 0.0
O272 O 0.89184 0.2268 0.24794 0.0
Mg273 Mg 0.46029 0.66361 0.52084 0.0
C274 C 0.44674 0.67201 0.55695 0.0
O275 O 0.43433 0.67747 0.54505 0.0
C276 C 0.48483 0.65605 0.48846 0.0
O277 O 0.4803 0.67316 0.48506 0.0
C278 C 0.48023 0.69731 0.51871 0.0
O279 O 0.49095 0.68466 0.52585 0.0
O280 O 0.46395 0.69271 0.51417 0.0
O281 O 0.46117 0.66417 0.55083 0.0
O282 O 0.43621 0.64652 0.51513 0.0
C283 C 0.44102 0.6299 0.51808 0.0
O284 O 0.45773 0.62679 0.5241 0.0
O285 O 0.48026 0.64891 0.50377 0.0
Mg286 Mg 0.09981 0.70955 0.27293 0.0
C287 C 0.08667 0.69968 0.30902 0.0
O288 O 0.07721 0.69018 0.29697 0.0
C289 C 0.10806 0.73176 0.23929 0.0
O290 O 0.09117 0.72649 0.23602 0.0
C291 C 0.06706 0.73071 0.26967 0.0
O292 O 0.08001 0.7412 0.27658 0.0
O293 O 0.07107 0.71411 0.26574 0.0
O294 O 0.09882 0.71082 0.30304 0.0
O295 O 0.11601 0.68478 0.26812 0.0
C296 C 0.13255 0.68924 0.2718 0.0
O297 O 0.13572 0.70595 0.27784 0.0
O298 O 0.11514 0.72836 0.25494 0.0
Mg299 Mg 0.40974 0.30994 0.77633 0.0
C300 C 0.42202 0.31686 0.81258 0.0
O301 O 0.43023 0.32809 0.8011 0.0
C302 C 0.38867 0.2805 0.74833 0.0
O303 O 0.3843 0.26747 0.76 0.0
C304 C 0.44174 0.2888 0.76912 0.0
O305 O 0.42799 0.27761 0.7724 0.0
O306 O 0.4386 0.30605 0.76925 0.0
O307 O 0.4106 0.30527 0.80602 0.0
O308 O 0.39356 0.3352 0.77425 0.0
C309 C 0.37666 0.33062 0.77482 0.0
O310 O 0.37263 0.31312 0.77661 0.0
O311 O 0.39715 0.29473 0.7538 0.0
Mg312 Mg 0.98408 0.95482 0.66212 0.0
C313 C 0.94821 0.94295 0.67388 0.0
O314 O 0.96033 0.9318 0.68126 0.0
C315 C 0.01789 0.97306 0.65249 0.0
O316 O 0.0216 0.96241 0.66657 0.0
C317 C 0.98378 0.97371 0.6963 0.0
O318 O 0.97259 0.98206 0.68486 0.0
O319 O 0.99204 0.95928 0.69078 0.0
O320 O 0.95404 0.95583 0.66353 0.0
O321 O 0.98893 0.93087 0.64468 0.0
C322 C 0.98254 0.93532 0.62898 0.0
O323 O 0.97448 0.95139 0.62736 0.0
O324 O 1.00123 0.97445 0.64729 0.0
Mg325 Mg 0.80425 0.23155 0.40885 0.0
C326 C 0.81567 0.19466 0.41486 0.0
O327 O 0.82953 0.2057 0.41815 0.0
C328 C 0.78982 0.26794 0.40297 0.0
O329 O 0.80085 0.26855 0.41722 0.0
C330 C 0.78419 0.23819 0.44206 0.0
O331 O 0.77232 0.23584 0.4287 0.0
O332 O 0.80126 0.23751 0.4382 0.0
O333 O 0.80049 0.20166 0.40956 0.0
O334 O 0.82913 0.23338 0.39194 0.0
C335 C 0.83469 0.24764 0.38349 0.0
O336 O 0.82791 0.26377 0.38781 0.0
O337 O 0.7868 0.25234 0.39558 0.0
Mg338 Mg 0.52254 0.06482 0.16761 0.0
C339 C 0.5606 0.07665 0.1677 0.0
O340 O 0.55065 0.09169 0.16854 0.0
C341 C 0.48696 0.04855 0.16032 0.0
O342 O 0.48401 0.06207 0.17189 0.0
C343 C 0.52885 0.06405 0.20895 0.0
O344 O 0.54586 0.06624 0.20354 0.0
O345 O 0.516 0.06502 0.1971 0.0
O346 O 0.55232 0.0613 0.16606 0.0
O347 O 0.51732 0.08783 0.14889 0.0
C348 C 0.51799 0.08197 0.1324 0.0
O349 O 0.52123 0.06443 0.12967 0.0
O350 O 0.50351 0.0446 0.15623 0.0
Mg351 Mg 0.70247 0.77462 0.91117 0.0
C352 C 0.69759 0.81076 0.92767 0.0
O353 O 0.6909 0.79898 0.93955 0.0
C354 C 0.72367 0.74164 0.90153 0.0
O355 O 0.71605 0.73764 0.91735 0.0
C356 C 0.72537 0.76963 0.9427 0.0
O357 O 0.73546 0.77652 0.92943 0.0
O358 O 0.70848 0.76642 0.93944 0.0
O359 O 0.7045 0.80469 0.91277 0.0
O360 O 0.67615 0.77036 0.89718 0.0
C361 C 0.67501 0.75822 0.88462 0.0
O362 O 0.68792 0.74574 0.88339 0.0
O363 O 0.72166 0.75785 0.89513 0.0
Mg364 Mg 0.98013 0.05443 0.85111 0.0
C365 C 0.94425 0.06479 0.83828 0.0
O366 O 0.95639 0.07445 0.82908 0.0
C367 C 0.00874 0.02628 0.86526 0.0
O368 O 0.00899 0.02016 0.84834 0.0
C369 C 1.0009 0.0439 0.81372 0.0
O370 O 0.01692 0.04557 0.82179 0.0
O371 O 0.98631 0.04791 0.82243 0.0
O372 O 0.9501 0.05345 0.85031 0.0
O373 O 0.98424 0.08135 0.86355 0.0
C374 C 0.99828 0.08433 0.87353 0.0
O375 O 0.01263 0.07355 0.87185 0.0
O376 O 0.99622 0.0375 0.87008 0.0
Mg377 Mg 0.70353 0.2316 0.59871 0.0
C378 C 0.69154 0.19753 0.58301 0.0
O379 O 0.6841 0.21106 0.57366 0.0
C380 C 0.72324 0.26373 0.60925 0.0
O381 O 0.71326 0.26783 0.59481 0.0
C382 C 0.72693 0.23491 0.56701 0.0
O383 O 0.73649 0.22689 0.58005 0.0
O384 O 0.71042 0.23954 0.57051 0.0
O385 O 0.70189 0.20159 0.59654 0.0
O386 O 0.67947 0.24108 0.61397 0.0
C387 C 0.66931 0.22961 0.62239 0.0
O388 O 0.67037 0.21214 0.61806 0.0
O389 O 0.72358 0.24706 0.61469 0.0
Mg390 Mg 0.52592 0.95896 0.34912 0.0
C391 C 0.55742 0.93264 0.34376 0.0
O392 O 0.55808 0.93555 0.36151 0.0
C393 C 0.48335 0.9455 0.35056 0.0
O394 O 0.48769 0.92803 0.34933 0.0
C395 C 0.51927 0.98513 0.31996 0.0
O396 O 0.50836 0.97108 0.31699 0.0
O397 O 0.52972 0.9847 0.334 0.0
O398 O 0.54423 0.9396 0.33458 0.0
O399 O 0.53164 0.95707 0.37872 0.0
C400 C 0.52516 0.94206 0.385 0.0
O401 O 0.5176 0.93057 0.37336 0.0
O402 O 0.49585 0.95768 0.34983 0.0
Mg403 Mg 0.80578 0.77529 0.09826 0.0
C404 C 0.81132 0.81098 0.08114 0.0
O405 O 0.81752 0.79875 0.06944 0.0
C406 C 0.78936 0.74181 0.10985 0.0
O407 O 0.80063 0.7382 0.09626 0.0
C408 C 0.78223 0.76689 0.06744 0.0
O409 O 0.77143 0.7719 0.08097 0.0
O410 O 0.79946 0.76615 0.07036 0.0
O411 O 0.80432 0.80536 0.09617 0.0
O412 O 0.83113 0.76835 0.11268 0.0
C413 C 0.83952 0.78126 0.12094 0.0
O414 O 0.83521 0.79833 0.11704 0.0
O415 O 0.7872 0.75853 0.11466 0.0
Mg416 Mg 0.65841 0.98016 0.95667 0.0
C417 C 0.62544 0.98404 0.93659 0.0
O418 O 0.62167 0.97845 0.95331 0.0
C419 C 0.69076 0.98914 0.97794 0.0
O420 O 0.67735 0.98667 0.98971 0.0
C421 C 0.64904 0.01515 0.97217 0.0
O422 O 0.66214 0.01788 0.9601 0.0
O423 O 0.64406 0.99868 0.97547 0.0
O424 O 0.64224 0.9862 0.93214 0.0
O425 O 0.65751 0.95004 0.95778 0.0
C426 C 0.67105 0.94085 0.96395 0.0
O427 O 0.68425 0.94946 0.97262 0.0
O428 O 0.6872 0.98766 0.96085 0.0
Mg429 Mg 0.77794 0.90908 0.70733 0.0
C430 C 0.81396 0.92208 0.69893 0.0
O431 O 0.80209 0.93096 0.68863 0.0
C432 C 0.74339 0.90048 0.72608 0.0
O433 O 0.74037 0.91628 0.71791 0.0
C434 C 0.77319 0.94148 0.72916 0.0
O435 O 0.77883 0.92814 0.73993 0.0
O436 O 0.77075 0.93791 0.71219 0.0
O437 O 0.80781 0.91021 0.71026 0.0
O438 O 0.77533 0.89399 0.6815 0.0
C439 C 0.76124 0.88445 0.67752 0.0
O440 O 0.74596 0.88709 0.68668 0.0
O441 O 0.75953 0.89368 0.72541 0.0
Mg442 Mg 0.84721 0.02507 0.45415 0.0
C443 C 0.88111 0.02394 0.43512 0.0
O444 O 0.88393 0.02968 0.45196 0.0
C445 C 0.81422 0.0168 0.47335 0.0
O446 O 0.82745 0.01857 0.48546 0.0
C447 C 0.87177 1.0028 0.48356 0.0
O448 O 0.88003 0.01787 0.48904 0.0
O449 O 0.85914 1.00372 0.4716 0.0
O450 O 0.86466 0.02069 0.43011 0.0
O451 O 0.84691 0.055 0.45808 0.0
C452 C 0.84584 0.0633 0.44269 0.0
O453 O 0.84652 0.05352 0.42757 0.0
O454 O 0.81817 0.01841 0.45637 0.0
Mg455 Mg 0.73193 0.09866 0.20504 0.0
C456 C 0.69477 0.08558 0.19819 0.0
O457 O 0.70569 0.07304 0.19122 0.0
C458 C 0.76553 0.1074 0.22374 0.0
O459 O 0.76893 0.09304 0.21338 0.0
C460 C 0.73603 0.06557 0.22688 0.0
O461 O 0.73115 0.07872 0.23823 0.0
O462 O 0.73844 0.06966 0.21003 0.0
O463 O 0.70194 0.09943 0.20614 0.0
O464 O 0.74029 0.11413 0.18066 0.0
C465 C 0.72843 0.12209 0.17057 0.0
O466 O 0.71111 0.11738 0.17207 0.0
O467 O 0.74905 0.11324 0.2247 0.0
Mg468 Mg 0.65565 0.0275 0.5489 0.0
C469 C 0.62297 0.02104 0.56874 0.0
O470 O 0.61895 0.02907 0.5531 0.0
C471 C 0.6884 0.02629 0.52721 0.0
O472 O 0.67563 0.03454 0.51751 0.0
C473 C 0.64698 0.99783 0.5217 0.0
O474 O 0.66415 0.99398 0.52546 0.0
O475 O 0.64014 0.01283 0.52762 0.0
O476 O 0.63981 0.01818 0.57262 0.0
O477 O 0.65635 0.05727 0.55287 0.0
C478 C 0.65653 0.0704 0.54138 0.0
O479 O 0.65433 0.06692 0.52384 0.0
O480 O 0.6843 0.02073 0.54329 0.0
Mg481 Mg 0.72356 0.90343 0.29725 0.0
C482 C 0.68477 0.90118 0.3085 0.0
O483 O 0.69412 0.9017 0.32388 0.0
C484 C 0.75879 0.89716 0.27783 0.0
O485 O 0.76104 0.91336 0.28543 0.0
C486 C 0.72747 0.9372 0.27658 0.0
O487 O 0.72311 0.92428 0.26476 0.0
O488 O 0.72895 0.93279 0.29346 0.0
O489 O 0.69359 0.90113 0.29337 0.0
O490 O 0.72871 0.88897 0.3233 0.0
C491 C 0.743 0.8792 0.32582 0.0
O492 O 0.75689 0.88101 0.31452 0.0
O493 O 0.74304 0.88956 0.27889 0.0
Mg494 Mg 0.85031 0.98034 0.05198 0.0
C495 C 0.88346 0.98595 0.07128 0.0
O496 O 0.88708 0.97955 0.05483 0.0
C497 C 0.81781 0.98837 0.03045 0.0
O498 O 0.83123 0.98567 0.01872 0.0
C499 C 0.85904 0.01476 0.03475 0.0
O500 O 0.84577 0.01788 0.04654 0.0
O501 O 0.8643 0.99822 0.0323 0.0
O502 O 0.86669 0.98776 0.07604 0.0
O503 O 0.85145 0.95025 0.05191 0.0
C504 C 0.83957 0.94052 0.04359 0.0
O505 O 0.82808 0.94849 0.03224 0.0
O506 O 0.8214 0.98737 0.04757 0.0
Mg507 Mg 0.77464 0.10135 0.80351 0.0
C508 C 0.81073 0.09037 0.81285 0.0
O509 O 0.7989 0.08301 0.82431 0.0
C510 C 0.73848 0.10754 0.78846 0.0
O511 O 0.73775 0.09271 0.7987 0.0
C512 C 0.76945 0.06854 0.78232 0.0
O513 O 0.77277 0.08215 0.77094 0.0
O514 O 0.76878 0.07207 0.79945 0.0
O515 O 0.80449 0.10068 0.80008 0.0
O516 O 0.7729 0.11674 0.82926 0.0
C517 C 0.75889 0.12599 0.83413 0.0
O518 O 0.74309 0.12301 0.82604 0.0
O519 O 0.75406 0.11526 0.78628 0.0
Mg520 Mg 0.95524 0.66021 0.98149 0.0
C521 C 0.95183 0.67695 0.94484 0.0
O522 O 0.94772 0.69024 0.95628 0.0
C523 C 0.97218 0.64934 0.01506 0.0
O524 O 0.96097 0.66302 0.0186 0.0
C525 C 0.97806 0.69194 0.98938 0.0
O526 O 0.98915 0.67879 0.98395 0.0
O527 O 0.96095 0.68842 0.99053 0.0
O528 O 0.95654 0.66137 0.95134 0.0
O529 O 0.9307 0.64463 0.98887 0.0
C530 C 0.92085 0.63711 0.97654 0.0
O531 O 0.92262 0.64251 0.95945 0.0
O532 O 0.97425 0.64439 0.99839 0.0
Mg533 Mg 0.45287 0.84703 0.02731 0.0
C534 C 0.44897 0.82979 0.06359 0.0
O535 O 0.4439 0.81715 0.05181 0.0
C536 C 0.46875 0.85858 0.99331 0.0
O537 O 0.45784 0.84463 0.98991 0.0
C538 C 0.47634 0.81592 0.01926 0.0
O539 O 0.4872 0.82939 0.02434 0.0
O540 O 0.45915 0.81905 0.01823 0.0
O541 O 0.45462 0.84523 0.05748 0.0
O542 O 0.42734 0.86137 0.02075 0.0
C543 C 0.41895 0.86943 0.03379 0.0
O544 O 0.42334 0.86531 0.05076 0.0
O545 O 0.47099 0.86351 0.00997 0.0
Mg546 Mg 0.91016 0.70361 0.77559 0.0
C547 C 0.88809 0.6688 0.7791 0.0
O548 O 0.89296 0.67089 0.79632 0.0
C549 C 0.94237 0.72467 0.76322 0.0
O550 O 0.92895 0.73668 0.76285 0.0
C551 C 0.87786 0.72151 0.75678 0.0
O552 O 0.86884 0.7093 0.76649 0.0
O553 O 0.8948 0.72396 0.75998 0.0
O554 O 0.89548 0.67895 0.76696 0.0
O555 O 0.91024 0.70369 0.80567 0.0
C556 C 0.92347 0.71096 0.81444 0.0
O557 O 0.93556 0.72082 0.80542 0.0
O558 O 0.93869 0.70805 0.76738 0.0
Mg559 Mg 0.05339 0.16049 0.52998 0.0
C560 C 0.05734 0.17717 0.5661 0.0
O561 O 0.06428 0.18901 0.55442 0.0
C562 C 0.03448 0.15047 0.49588 0.0
O563 O 0.04238 0.16626 0.49225 0.0
C564 C 0.03097 0.19227 0.5234 0.0
O565 O 0.02023 0.17905 0.52936 0.0
O566 O 0.04799 0.1888 0.52132 0.0
O567 O 0.05038 0.16232 0.55992 0.0
O568 O 0.07937 0.14576 0.52745 0.0
C569 C 0.08341 0.13616 0.51341 0.0
O570 O 0.07432 0.13873 0.49808 0.0
O571 O 0.03547 0.14416 0.5122 0.0
Mg572 Mg 0.09924 0.80332 0.77788 0.0
C573 C 0.12045 0.83856 0.78015 0.0
O574 O 0.11699 0.83604 0.79765 0.0
C575 C 0.06757 0.77946 0.7753 0.0
O576 O 0.08009 0.77037 0.78459 0.0
C577 C 0.11138 0.77819 0.74802 0.0
O578 O 0.09382 0.7796 0.74435 0.0
O579 O 0.11738 0.7846 0.76315 0.0
O580 O 0.11217 0.82861 0.76842 0.0
O581 O 0.09892 0.80394 0.80799 0.0
C582 C 0.08343 0.80815 0.81492 0.0
O583 O 0.0694 0.81088 0.80396 0.0
O584 O 0.07144 0.79559 0.76969 0.0
Mg585 Mg 0.55192 0.35018 0.48168 0.0
C586 C 0.55486 0.33566 0.44496 0.0
O587 O 0.56363 0.3242 0.45574 0.0
C588 C 0.5373 0.35682 0.51776 0.0
O589 O 0.54743 0.34191 0.51852 0.0
C590 C 0.52948 0.31821 0.48637 0.0
O591 O 0.51897 0.33199 0.48133 0.0
O592 O 0.54661 0.32121 0.4884 0.0
O593 O 0.54706 0.3497 0.45199 0.0
O594 O 0.57795 0.36517 0.48298 0.0
C595 C 0.5837 0.37354 0.49721 0.0
O596 O 0.57636 0.36984 0.51322 0.0
O597 O 0.53519 0.36459 0.5022 0.0
Mg598 Mg 0.90841 0.29855 0.733 0.0
C599 C 0.87561 0.31885 0.73668 0.0
O600 O 0.87176 0.30219 0.73093 0.0
C601 C 0.94063 0.27714 0.73679 0.0
O602 O 0.92764 0.26689 0.72963 0.0
C603 C 0.89933 0.28054 0.76715 0.0
O604 O 0.91356 0.29105 0.77057 0.0
O605 O 0.89386 0.27907 0.75059 0.0
O606 O 0.89242 0.32316 0.739 0.0
O607 O 0.90944 0.29759 0.70303 0.0
C608 C 0.92102 0.30941 0.69728 0.0
O609 O 0.92977 0.31939 0.70948 0.0
O610 O 0.93691 0.29383 0.74053 0.0
Mg611 Mg 0.59695 0.70571 0.2332 0.0
C612 C 0.63018 0.68573 0.23649 0.0
O613 O 0.63387 0.70271 0.23161 0.0
C614 C 0.56471 0.72708 0.23772 0.0
O615 O 0.57801 0.73772 0.23178 0.0
C616 C 0.60524 0.72266 0.26793 0.0
O617 O 0.59144 0.71141 0.27078 0.0
O618 O 0.61088 0.72491 0.25152 0.0
O619 O 0.61339 0.68114 0.23846 0.0
O620 O 0.59626 0.70766 0.20331 0.0
C621 C 0.58476 0.69598 0.19716 0.0
O622 O 0.57594 0.68565 0.20902 0.0
O623 O 0.56822 0.71011 0.24036 0.0
Mg624 Mg 0.52684 0.5549 0.84664 0.0
C625 C 0.56295 0.56558 0.83508 0.0
O626 O 0.55116 0.57731 0.82807 0.0
C627 C 0.49178 0.53833 0.8548 0.0
O628 O 0.48898 0.55025 0.84156 0.0
C629 C 0.52033 0.53497 0.81402 0.0
O630 O 0.52542 0.52349 0.82698 0.0
O631 O 0.5191 0.55198 0.81797 0.0
O632 O 0.55675 0.55264 0.84515 0.0
O633 O 0.52208 0.57889 0.86385 0.0
C634 C 0.5248 0.57363 0.88033 0.0
O635 O 0.53018 0.55662 0.8831 0.0
O636 O 0.5082 0.53561 0.86023 0.0
Mg637 Mg 0.70733 0.27615 0.10145 0.0
C638 C 0.71339 0.32089 0.10116 0.0
O639 O 0.72261 0.32107 0.11664 0.0
C640 C 0.72916 0.25184 0.12955 0.0
O641 O 0.72139 0.26166 0.14248 0.0
C642 C 0.72531 0.26728 0.06846 0.0
O643 O 0.73727 0.27326 0.08056 0.0
O644 O 0.70851 0.26608 0.07327 0.0
O645 O 0.70797 0.30571 0.09438 0.0
O646 O 0.68464 0.27282 0.12105 0.0
C647 C 0.68816 0.28349 0.13445 0.0
O648 O 0.70215 0.29467 0.13276 0.0
O649 O 0.7279 0.25705 0.1129 0.0
Mg650 Mg 0.9821 0.45543 0.34903 0.0
C651 C 0.94602 0.44262 0.34054 0.0
O652 O 0.95787 0.42979 0.33597 0.0
C653 C 0.01729 0.47095 0.35733 0.0
O654 O 0.01967 0.4585 0.34451 0.0
C655 C 0.98815 0.47601 0.31667 0.0
O656 O 0.98333 0.48723 0.32995 0.0
O657 O 0.98939 0.45891 0.32027 0.0
O658 O 0.95216 0.45726 0.34796 0.0
O659 O 0.98715 0.43135 0.36614 0.0
C660 C 0.98461 0.43659 0.38266 0.0
O661 O 0.97934 0.45361 0.38551 0.0
O662 O 1.00096 0.47453 0.36251 0.0
Mg663 Mg 0.79949 0.73282 0.60209 0.0
C664 C 0.81005 0.69689 0.58861 0.0
O665 O 0.81956 0.70912 0.57936 0.0
C666 C 0.776 0.7658 0.61028 0.0
O667 O 0.78101 0.76935 0.59336 0.0
C668 C 0.77877 0.73589 0.56942 0.0
O669 O 0.76871 0.72812 0.58222 0.0
O670 O 0.79518 0.74047 0.57345 0.0
O671 O 0.79869 0.70267 0.60063 0.0
O672 O 0.82302 0.73801 0.61992 0.0
C673 C 0.81725 0.73282 0.63563 0.0
O674 O 0.80107 0.7249 0.63657 0.0
O675 O 0.77994 0.7502 0.61723 0.0
Mg676 Mg 0.52761 0.45862 0.65691 0.0
C677 C 0.56319 0.44931 0.67296 0.0
O678 O 0.55084 0.44195 0.68384 0.0
C679 C 0.50932 0.47655 0.62452 0.0
O680 O 0.519 0.46417 0.61569 0.0
C681 C 0.52006 0.4811 0.68823 0.0
O682 O 0.5263 0.49199 0.67528 0.0
O683 O 0.51824 0.46407 0.68466 0.0
O684 O 0.55763 0.45851 0.65912 0.0
O685 O 0.51917 0.4339 0.64232 0.0
C686 C 0.53117 0.42259 0.6366 0.0
O687 O 0.54807 0.4239 0.6427 0.0
O688 O 0.51253 0.47923 0.64143 0.0
Mg689 Mg 0.79854 0.27757 0.90938 0.0
C690 C 0.81202 0.31361 0.91916 0.0
O691 O 0.82388 0.30149 0.92533 0.0
C692 C 0.77556 0.24466 0.90074 0.0
O693 O 0.78082 0.24106 0.91757 0.0
C694 C 0.77705 0.27414 0.94195 0.0
O695 O 0.76673 0.28155 0.92914 0.0
O696 O 0.79364 0.2702 0.93798 0.0
O697 O 0.79807 0.30771 0.91034 0.0
O698 O 0.82325 0.27135 0.89361 0.0
C699 C 0.81925 0.2746 0.87687 0.0
O700 O 0.80294 0.28135 0.87314 0.0
O701 O 0.77929 0.26031 0.8938 0.0
Mg702 Mg 0.98065 0.55059 0.1583 0.0
C703 C 0.94491 0.56005 0.17222 0.0
O704 O 0.95712 0.56943 0.18161 0.0
C705 C 0.0154 0.53414 0.14904 0.0
O706 O 0.01839 0.5456 0.16264 0.0
C707 C 0.98716 0.52908 0.19022 0.0
O708 O 0.98186 0.51809 0.17694 0.0
O709 O 0.98862 0.54619 0.18678 0.0
O710 O 0.95065 0.54917 0.15975 0.0
O711 O 0.98602 0.57514 0.142 0.0
C712 C 0.98359 0.57059 0.12526 0.0
O713 O 0.97807 0.55379 0.12169 0.0
O714 O 0.9989 0.53157 0.14381 0.0
Mg715 Mg 0.70321 0.73243 0.41183 0.0
C716 C 0.69591 0.6963 0.42549 0.0
O717 O 0.6859 0.70815 0.43468 0.0
C718 C 0.73396 0.75746 0.38992 0.0
O719 O 0.74752 0.7456 0.39066 0.0
C720 C 0.72446 0.7416 0.44354 0.0
O721 O 0.73594 0.73846 0.43 0.0
O722 O 0.70731 0.74078 0.44024 0.0
O723 O 0.70668 0.70249 0.41312 0.0
O724 O 0.678 0.73543 0.39605 0.0
C725 C 0.68266 0.73264 0.3794 0.0
O726 O 0.69967 0.72771 0.376 0.0
O727 O 0.71849 0.7535 0.3969 0.0
Mg728 Mg 0.85286 0.52781 0.55468 0.0
C729 C 0.84093 0.56374 0.56607 0.0
O730 O 0.83366 0.5516 0.57727 0.0
C731 C 0.86157 0.49626 0.52934 0.0
O732 O 0.84403 0.49353 0.53229 0.0
C733 C 0.81967 0.52571 0.5336 0.0
O734 O 0.83224 0.53369 0.52341 0.0
O735 O 0.8241 0.52069 0.54978 0.0
O736 O 0.85137 0.55789 0.55328 0.0
O737 O 0.86724 0.52336 0.58073 0.0
C738 C 0.87868 0.51017 0.58196 0.0
O739 O 0.87799 0.49695 0.56976 0.0
O740 O 0.86903 0.51088 0.53549 0.0
Mg741 Mg 0.73341 0.59854 0.80147 0.0
C742 C 0.69696 0.58671 0.8089 0.0
O743 O 0.70838 0.57827 0.82003 0.0
C744 C 0.7597 0.62264 0.77389 0.0
O745 O 0.74655 0.63281 0.76691 0.0
C746 C 0.74092 0.5659 0.78174 0.0
O747 O 0.73816 0.57934 0.77001 0.0
O748 O 0.7403 0.56957 0.79884 0.0
O749 O 0.70363 0.59797 0.79722 0.0
O750 O 0.73632 0.61553 0.82589 0.0
C751 C 0.73315 0.63194 0.82064 0.0
O752 O 0.72825 0.63459 0.80349 0.0
O753 O 0.75592 0.6102 0.78552 0.0
Mg754 Mg 0.65811 0.48099 0.05215 0.0
C755 C 0.66852 0.43968 0.04632 0.0
O756 O 0.67733 0.44538 0.03169 0.0
C757 C 0.64842 0.51363 0.03014 0.0
O758 O 0.66395 0.51821 0.03799 0.0
C759 C 0.69022 0.48717 0.02976 0.0
O760 O 0.67691 0.48239 0.01858 0.0
O761 O 0.68667 0.48843 0.04686 0.0
O762 O 0.65851 0.45092 0.05524 0.0
O763 O 0.64221 0.4891 0.07623 0.0
C764 C 0.6255 0.48565 0.07225 0.0
O765 O 0.62191 0.4779 0.05637 0.0
O766 O 0.64243 0.49727 0.0321 0.0
Mg767 Mg 0.77708 0.40673 0.30117 0.0
C768 C 0.81309 0.42333 0.30806 0.0
O769 O 0.80106 0.435 0.3147 0.0
C770 C 0.75649 0.37441 0.28652 0.0
O771 O 0.76636 0.3663 0.29923 0.0
C772 C 0.76777 0.43808 0.27864 0.0
O773 O 0.77228 0.42486 0.26724 0.0
O774 O 0.76765 0.43461 0.29578 0.0
O775 O 0.80716 0.40884 0.30017 0.0
O776 O 0.76995 0.39296 0.32688 0.0
C777 C 0.78257 0.38753 0.33766 0.0
O778 O 0.79935 0.3936 0.3352 0.0
O779 O 0.76086 0.39062 0.28174 0.0
Mg780 Mg 0.84832 0.48409 0.95424 0.0
C781 C 0.83274 0.44773 0.94716 0.0
O782 O 0.82181 0.45965 0.93918 0.0
C783 C 0.87862 0.50778 0.97112 0.0
O784 O 0.88905 0.49919 0.9592 0.0
C785 C 0.81626 0.49181 0.97573 0.0
O786 O 0.82941 0.48721 0.98718 0.0
O787 O 0.81997 0.49256 0.95866 0.0
O788 O 0.84658 0.45386 0.95602 0.0
O789 O 0.86301 0.4908 0.92902 0.0
C790 C 0.86831 0.47808 0.91831 0.0
O791 O 0.86184 0.46141 0.92059 0.0
O792 O 0.86233 0.50211 0.97376 0.0
Mg793 Mg 0.77558 0.59814 0.20727 0.0
C794 C 0.81131 0.58743 0.19503 0.0
O795 O 0.79912 0.58112 0.18333 0.0
C796 C 0.74076 0.60704 0.22396 0.0
O797 O 0.7377 0.59358 0.21235 0.0
C798 C 0.76982 0.56562 0.22779 0.0
O799 O 0.77533 0.57869 0.23893 0.0
O800 O 0.76795 0.56945 0.21083 0.0
O801 O 0.80555 0.59677 0.20868 0.0
O802 O 0.77048 0.61485 0.18297 0.0
C803 C 0.77271 0.63155 0.18776 0.0
O804 O 0.77766 0.63498 0.20476 0.0
O805 O 0.75729 0.61218 0.22656 0.0
Mg806 Mg 0.66006 0.52606 0.46024 0.0
C807 C 0.67066 0.56203 0.44812 0.0
O808 O 0.67715 0.54991 0.43644 0.0
C809 C 0.65143 0.49177 0.48082 0.0
O810 O 0.66778 0.4882 0.47418 0.0
C811 C 0.6928 0.52087 0.48122 0.0
O812 O 0.67965 0.52593 0.49248 0.0
O813 O 0.68889 0.51887 0.46428 0.0
O814 O 0.66128 0.55613 0.4617 0.0
O815 O 0.64322 0.52164 0.43585 0.0
C816 C 0.627 0.52609 0.44075 0.0
O817 O 0.62463 0.53261 0.4574 0.0
O818 O 0.64479 0.50787 0.47886 0.0
Mg819 Mg 0.73117 0.40644 0.70893 0.0
C820 C 0.69551 0.41696 0.6964 0.0
O821 O 0.7077 0.4231 0.6846 0.0
C822 C 0.76554 0.39781 0.72641 0.0
O823 O 0.76872 0.41136 0.71493 0.0
C824 C 0.73613 0.43883 0.72977 0.0
O825 O 0.73002 0.4257 0.74055 0.0
O826 O 0.73869 0.43512 0.71286 0.0
O827 O 0.70125 0.40775 0.71015 0.0
O828 O 0.73679 0.38948 0.68488 0.0
C829 C 0.73412 0.37286 0.68979 0.0
O830 O 0.72836 0.36974 0.70658 0.0
O831 O 0.74902 0.39249 0.72861 0.0
Mg832 Mg 0.55276 0.85694 0.52965 0.0
C833 C 0.56481 0.84348 0.56483 0.0
O834 O 0.57606 0.83686 0.55239 0.0
C835 C 0.53856 0.89227 0.51253 0.0
O836 O 0.55081 0.89959 0.52353 0.0
C837 C 0.52976 0.82581 0.51873 0.0
O838 O 0.51813 0.83913 0.5223 0.0
O839 O 0.54688 0.82924 0.5197 0.0
O840 O 0.55177 0.85389 0.55948 0.0
O841 O 0.57934 0.86972 0.525 0.0
C842 C 0.58347 0.87748 0.50991 0.0
O843 O 0.57394 0.8735 0.49513 0.0
O844 O 0.53451 0.87536 0.51451 0.0
Mg845 Mg 0.05395 0.65991 0.47919 0.0
C846 C 0.06694 0.67163 0.44316 0.0
O847 O 0.07846 0.67844 0.45524 0.0
C848 C 0.01912 0.63761 0.50266 0.0
O849 O 1.00274 0.63708 0.49518 0.0
C850 C 0.03268 0.69211 0.48619 0.0
O851 O 0.02152 0.67921 0.48036 0.0
O852 O 0.04969 0.68828 0.4878 0.0
O853 O 0.05366 0.66186 0.44907 0.0
O854 O 0.07785 0.64334 0.48629 0.0
C855 C 0.07335 0.62653 0.48439 0.0
O856 O 0.05683 0.62266 0.47832 0.0
O857 O 0.03193 0.6458 0.49407 0.0
Mg858 Mg 0.59869 0.80259 0.73348 0.0
C859 C 0.58552 0.81192 0.69775 0.0
O860 O 0.57647 0.82165 0.70993 0.0
C861 C 0.60836 0.7906 0.76902 0.0
O862 O 0.59754 0.80502 0.77001 0.0
C863 C 0.56655 0.78153 0.7406 0.0
O864 O 0.58009 0.77021 0.73686 0.0
O865 O 0.56993 0.79872 0.74095 0.0
O866 O 0.5976 0.80059 0.70353 0.0
O867 O 0.61571 0.82686 0.73802 0.0
C868 C 0.63222 0.82162 0.73543 0.0
O869 O 0.63505 0.80454 0.73031 0.0
O870 O 0.6121 0.7842 0.75315 0.0
Mg871 Mg 0.4574 0.35064 0.98263 0.0
C872 C 0.44719 0.33962 0.94654 0.0
O873 O 0.43588 0.33209 0.9584 0.0
C874 C 0.48962 0.36937 0.00992 0.0
O875 O 0.50493 0.36641 1.0009 0.0
C876 C 0.47829 0.31861 0.98863 0.0
O877 O 0.48925 0.33199 0.98352 0.0
O878 O 0.4612 0.32201 0.9901 0.0
O879 O 0.45995 0.34992 0.95272 0.0
O880 O 0.43274 0.367 0.98713 0.0
C881 C 0.4379 0.38369 0.98574 0.0
O882 O 0.455 0.38704 0.98114 0.0
O883 O 0.47437 0.36408 1.00334 0.0
Mg884 Mg 0.41152 0.69882 0.72766 0.0
C885 C 0.42583 0.69546 0.69136 0.0
O886 O 0.43624 0.68595 0.70261 0.0
C887 C 0.40031 0.7192 0.76202 0.0
O888 O 0.41818 0.71872 0.76404 0.0
C889 C 0.44296 0.72252 0.73197 0.0
O890 O 0.42975 0.73253 0.72481 0.0
O891 O 0.43964 0.70569 0.73555 0.0
O892 O 0.41236 0.70441 0.69811 0.0
O893 O 0.40147 0.67063 0.72626 0.0
C894 C 0.38829 0.66542 0.73645 0.0
O895 O 0.38399 0.67534 0.75087 0.0
O896 O 0.39325 0.71301 0.74723 0.0
Mg897 Mg 0.95856 0.15678 0.02568 0.0
C898 C 0.94562 0.16753 0.06155 0.0
O899 O 0.93426 0.17436 0.04932 0.0
C900 C 0.98416 0.14909 0.99363 0.0
O901 O 0.98183 0.16679 0.99119 0.0
C902 C 0.97844 0.19015 0.02425 0.0
O903 O 0.98832 0.17781 0.03296 0.0
O904 O 0.96259 0.18549 0.0185 0.0
O905 O 0.95907 0.15785 0.05581 0.0
O906 O 0.93398 0.14081 0.01975 0.0
C907 C 0.93835 0.12404 0.02241 0.0
O908 O 0.95492 0.12035 0.02849 0.0
O909 O 0.978 0.14158 0.00819 0.0
Mg910 Mg 0.59914 0.21036 0.77576 0.0
C911 C 0.5841 0.20263 0.81225 0.0
O912 O 0.57258 0.19535 0.80046 0.0
C913 C 0.62896 0.2278 0.75192 0.0
O914 O 0.63966 0.21591 0.76023 0.0
C915 C 0.56741 0.23277 0.77061 0.0
O916 O 0.58076 0.24315 0.77687 0.0
O917 O 0.5707 0.21578 0.76787 0.0
O918 O 0.598 0.21129 0.80598 0.0
O919 O 0.61412 0.18541 0.76826 0.0
C920 C 0.61977 0.17444 0.78063 0.0
O921 O 0.6134 0.17611 0.79739 0.0
O922 O 0.6128 0.23037 0.75802 0.0
Mg923 Mg 0.90845 0.80537 0.27587 0.0
C924 C 0.92236 0.81217 0.31215 0.0
O925 O 0.932 0.82195 0.30047 0.0
C926 C 0.88677 0.77478 0.24934 0.0
O927 O 0.88115 0.76277 0.26156 0.0
C928 C 0.94098 0.78528 0.26761 0.0
O929 O 0.92778 0.77352 0.27117 0.0
O930 O 0.93717 0.80239 0.26789 0.0
O931 O 0.90971 0.80182 0.3058 0.0
O932 O 0.89082 0.8294 0.2724 0.0
C933 C 0.87446 0.82371 0.27506 0.0
O934 O 0.87216 0.80649 0.27995 0.0
O935 O 0.89584 0.78881 0.25434 0.0
Mg936 Mg 0.48374 0.45561 0.16192 0.0
C937 C 0.44744 0.44138 0.17032 0.0
O938 O 0.45931 0.42903 0.17601 0.0
C939 C 0.51682 0.47542 0.15263 0.0
O940 O 0.52058 0.46595 0.16751 0.0
C941 C 0.4802 0.46847 0.20034 0.0
O942 O 0.46407 0.47223 0.19329 0.0
O943 O 0.49192 0.4599 0.1906 0.0
O944 O 0.45358 0.45576 0.16241 0.0
O945 O 0.4904 0.4309 0.14623 0.0
C946 C 0.48009 0.43034 0.13212 0.0
O947 O 0.46747 0.44306 0.13012 0.0
O948 O 0.50036 0.47531 0.14665 0.0
Mg949 Mg 0.30461 0.72844 0.90683 0.0
C950 C 0.3067 0.69236 0.92378 0.0
O951 O 0.3147 0.70372 0.93524 0.0
C952 C 0.28851 0.76396 0.89744 0.0
O953 O 0.2983 0.76685 0.91229 0.0
C954 C 0.28325 0.73739 0.93899 0.0
O955 O 0.27168 0.73334 0.92577 0.0
O956 O 0.30038 0.73735 0.93534 0.0
O957 O 0.29966 0.69878 0.90907 0.0
O958 O 0.33021 0.72862 0.89105 0.0
C959 C 0.33495 0.74203 0.88087 0.0
O960 O 0.32686 0.758 0.88294 0.0
O961 O 0.28738 0.74759 0.89125 0.0
Mg962 Mg 0.03557 0.54644 0.65185 0.0
C963 C 0.07448 0.55628 0.6537 0.0
O964 O 0.06538 0.57165 0.65624 0.0
C965 C 0.99897 0.53642 0.64349 0.0
O966 O 0.99903 0.55051 0.65477 0.0
C967 C 0.03394 0.52695 0.68611 0.0
O968 O 0.0417 0.51611 0.67396 0.0
O969 O 0.02927 0.54307 0.68103 0.0
O970 O 0.0654 0.54159 0.65072 0.0
O971 O 0.03115 0.57181 0.63618 0.0
C972 C 0.03995 0.57127 0.62106 0.0
O973 O 0.05064 0.55711 0.61781 0.0
O974 O 0.0144 0.52947 0.63895 0.0
Mg975 Mg 0.20168 0.27797 0.41158 0.0
C976 C 0.18823 0.31297 0.42368 0.0
O977 O 0.1769 0.30018 0.42948 0.0
C978 C 0.2184 0.24447 0.40009 0.0
O979 O 0.20735 0.2408 0.41385 0.0
C980 C 0.2246 0.27007 0.44272 0.0
O981 O 0.23546 0.27499 0.4292 0.0
O982 O 0.20739 0.2693 0.43968 0.0
O983 O 0.20215 0.308 0.41429 0.0
O984 O 0.17646 0.2709 0.39688 0.0
C985 C 0.17101 0.28301 0.38548 0.0
O986 O 0.17894 0.29918 0.38546 0.0
O987 O 0.22045 0.26122 0.39531 0.0
Mg988 Mg 0.48309 0.55603 0.35053 0.0
C989 C 0.44688 0.56608 0.33931 0.0
O990 O 0.45871 0.57592 0.3299 0.0
C991 C 0.51592 0.53427 0.36097 0.0
O992 O 0.51894 0.53813 0.34366 0.0
C993 C 0.49923 0.5494 0.3094 0.0
O994 O 0.51357 0.56006 0.31177 0.0
O995 O 0.48748 0.54755 0.32216 0.0
O996 O 0.45312 0.55471 0.35111 0.0
O997 O 0.48759 0.58331 0.36196 0.0
C998 C 0.50178 0.58692 0.37148 0.0
O999 O 0.51622 0.57623 0.37012 0.0
O1000 O 0.50043 0.53858 0.36789 0.0
Mg1001 Mg 0.20444 0.73266 0.0964 0.0
C1002 C 0.19551 0.69693 0.08331 0.0
O1003 O 0.1852 0.70905 0.07479 0.0
C1004 C 0.22307 0.76703 0.10575 0.0
O1005 O 0.2152 0.77026 0.08986 0.0
C1006 C 0.22667 0.73676 0.06428 0.0
O1007 O 0.23704 0.73047 0.07764 0.0
O1008 O 0.20981 0.73998 0.06774 0.0
O1009 O 0.20711 0.70278 0.09505 0.0
O1010 O 0.17846 0.73516 0.11118 0.0
C1011 C 0.174 0.74936 0.12035 0.0
O1012 O 0.18273 0.76485 0.11748 0.0
O1013 O 0.22233 0.75078 0.11229 0.0
Mg1014 Mg 0.02454 0.45715 0.84746 0.0
C1015 C 0.06176 0.45108 0.83689 0.0
O1016 O 0.05117 0.44084 0.8265 0.0
C1017 C 0.98775 0.46767 0.85382 0.0
O1018 O 0.98829 0.454 0.84206 0.0
C1019 C 0.01677 0.47627 0.81313 0.0
O1020 O 0.01601 0.48888 0.82599 0.0
O1021 O 0.01937 0.4596 0.8179 0.0
O1022 O 0.05419 0.46144 0.84882 0.0
O1023 O 0.021 0.43216 0.86382 0.0
C1024 C 0.02064 0.43675 0.88072 0.0
O1025 O 0.02236 0.45423 0.88486 0.0
O1026 O 1.00293 0.47425 0.8595 0.0
Mg1027 Mg 0.30791 0.27881 0.59682 0.0
C1028 C 0.31305 0.31446 0.57891 0.0
O1029 O 0.31892 0.30214 0.56715 0.0
C1030 C 0.29119 0.24506 0.60837 0.0
O1031 O 0.30151 0.24142 0.59406 0.0
C1032 C 0.28409 0.27139 0.56622 0.0
O1033 O 0.27382 0.27763 0.57966 0.0
O1034 O 0.30124 0.26945 0.56909 0.0
O1035 O 0.30644 0.30897 0.59419 0.0
O1036 O 0.33342 0.27224 0.61113 0.0
C1037 C 0.34102 0.28528 0.61994 0.0
O1038 O 0.33583 0.30222 0.61653 0.0
O1039 O 0.28972 0.26175 0.61357 0.0
Mg1040 Mg 0.16115 0.48387 0.45532 0.0
C1041 C 0.12748 0.48855 0.4355 0.0
O1042 O 0.12353 0.48647 0.45294 0.0
C1043 C 0.19412 0.48937 0.47476 0.0
O1044 O 0.18088 0.48541 0.48634 0.0
C1045 C 0.13844 0.50731 0.48518 0.0
O1046 O 0.13058 0.49242 0.49166 0.0
O1047 O 0.15028 0.50599 0.47246 0.0
O1048 O 0.14429 0.48776 0.43066 0.0
O1049 O 0.16132 0.4543 0.46142 0.0
C1050 C 0.15235 0.44322 0.4513 0.0
O1051 O 0.14042 0.44982 0.43954 0.0
O1052 O 0.19024 0.49015 0.4577 0.0
Mg1053 Mg 0.27734 0.40897 0.20596 0.0
C1054 C 0.31333 0.42269 0.1972 0.0
O1055 O 0.30146 0.43227 0.18757 0.0
C1056 C 0.2427 0.40013 0.2218 0.0
O1057 O 0.24006 0.4128 0.20923 0.0
C1058 C 0.26991 0.44152 0.22623 0.0
O1059 O 0.27465 0.42844 0.23773 0.0
O1060 O 0.26916 0.4377 0.20917 0.0
O1061 O 0.30722 0.41031 0.20799 0.0
O1062 O 0.27241 0.39002 0.1835 0.0
C1063 C 0.2699 0.38669 0.16658 0.0
O1064 O 0.26975 0.40017 0.1546 0.0
O1065 O 0.25913 0.39518 0.22531 0.0
Mg1066 Mg 0.34749 0.52469 0.95169 0.0
C1067 C 0.38055 0.5241 0.93179 0.0
O1068 O 0.38357 0.52986 0.9486 0.0
C1069 C 0.31494 0.51331 0.97149 0.0
O1070 O 0.32846 0.51302 0.98338 0.0
C1071 C 0.37319 0.50323 0.98082 0.0
O1072 O 0.38081 0.51848 0.98668 0.0
O1073 O 0.36078 0.50384 0.96863 0.0
O1074 O 0.36404 0.52074 0.92701 0.0
O1075 O 0.34838 0.55458 0.95504 0.0
C1076 C 0.33483 0.56327 0.96185 0.0
O1077 O 0.32196 0.55405 0.97043 0.0
O1078 O 0.31855 0.5174 0.95483 0.0
Mg1079 Mg 0.23416 0.59841 0.70662 0.0
C1080 C 0.20461 0.57177 0.69284 0.0
O1081 O 0.20855 0.56355 0.70838 0.0
C1082 C 0.27346 0.60843 0.69273 0.0
O1083 O 0.26518 0.61984 0.68152 0.0
C1084 C 0.24236 0.56999 0.73384 0.0
O1085 O 0.2533 0.56674 0.71989 0.0
O1086 O 0.23155 0.58376 0.73292 0.0
O1087 O 0.21426 0.58549 0.68782 0.0
O1088 O 0.22863 0.62802 0.70458 0.0
C1089 C 0.22658 0.633 0.68792 0.0
O1090 O 0.22614 0.62019 0.67524 0.0
O1091 O 0.26394 0.59722 0.70215 0.0
Mg1092 Mg 0.15809 0.52736 0.04918 0.0
C1093 C 0.12492 0.52364 0.06898 0.0
O1094 O 0.12131 0.52912 0.05219 0.0
C1095 C 0.19014 0.52432 0.02763 0.0
O1096 O 0.17692 0.53162 0.01777 0.0
C1097 C 0.15005 0.49305 0.03105 0.0
O1098 O 0.16436 0.49001 0.04159 0.0
O1099 O 0.14402 0.50944 0.02967 0.0
O1100 O 0.14169 0.52149 0.07359 0.0
O1101 O 0.15908 0.55732 0.04803 0.0
C1102 C 0.16992 0.56299 0.06056 0.0
O1103 O 0.17772 0.55071 0.07124 0.0
O1104 O 0.18673 0.52023 0.04431 0.0
Mg1105 Mg 0.23392 0.41873 0.81433 0.0
C1106 C 0.19572 0.42078 0.82617 0.0
O1107 O 0.20561 0.42194 0.84118 0.0
C1108 C 0.26899 0.41198 0.79693 0.0
O1109 O 0.27201 0.42439 0.80966 0.0
C1110 C 0.22902 0.46042 0.81433 0.0
O1111 O 0.21188 0.45556 0.81676 0.0
O1112 O 0.24148 0.4481 0.81502 0.0
O1113 O 0.20403 0.41823 0.81097 0.0
O1114 O 0.23917 0.3979 0.83531 0.0
C1115 C 0.23977 0.39664 0.85269 0.0
O1116 O 0.23754 0.41137 0.86284 0.0
O1117 O 0.25245 0.40713 0.79384 0.0
Mg1118 Mg 0.35453 0.48321 0.54587 0.0
C1119 C 0.3883 0.48509 0.56336 0.0
O1120 O 0.38964 0.4775 0.54705 0.0
C1121 C 0.32215 0.49187 0.52479 0.0
O1122 O 0.33553 0.48897 0.51308 0.0
C1123 C 0.36359 0.51833 0.5299 0.0
O1124 O 0.35035 0.52109 0.54182 0.0
O1125 O 0.36868 0.50184 0.5268 0.0
O1126 O 0.37235 0.48928 0.56926 0.0
O1127 O 0.35494 0.45293 0.54551 0.0
C1128 C 0.34128 0.44365 0.53975 0.0
O1129 O 0.32803 0.45211 0.53096 0.0
O1130 O 0.32573 0.49086 0.54191 0.0
Mg1131 Mg 0.27672 0.59928 0.30325 0.0
C1132 C 0.31279 0.58747 0.31331 0.0
O1133 O 0.30091 0.57889 0.32382 0.0
C1134 C 0.2428 0.60926 0.28387 0.0
O1135 O 0.23922 0.5932 0.29126 0.0
C1136 C 0.27206 0.56767 0.28036 0.0
O1137 O 0.27792 0.58121 0.26997 0.0
O1138 O 0.2695 0.5708 0.29738 0.0
O1139 O 0.30663 0.59857 0.30122 0.0
O1140 O 0.27314 0.61266 0.32974 0.0
C1141 C 0.25871 0.62148 0.33408 0.0
O1142 O 0.2436 0.61891 0.32463 0.0
O1143 O 0.25902 0.61569 0.28534 0.0
Mg1144 Mg 0.453 0.16014 0.48009 0.0
C1145 C 0.43862 0.16908 0.4452 0.0
O1146 O 0.42622 0.17217 0.45792 0.0
C1147 C 0.46878 0.1507 0.51485 0.0
O1148 O 0.45674 0.16385 0.51763 0.0
C1149 C 0.47389 0.19236 0.48782 0.0
O1150 O 0.48525 0.17903 0.48347 0.0
O1151 O 0.45674 0.18883 0.48824 0.0
O1152 O 0.45412 0.16264 0.45018 0.0
O1153 O 0.42926 0.14205 0.48384 0.0
C1154 C 0.43437 0.1263 0.47804 0.0
O1155 O 0.45103 0.12478 0.47131 0.0
O1156 O 0.47192 0.14566 0.49838 0.0
Mg1157 Mg 0.954 0.35026 0.52836 0.0
C1158 C 0.94469 0.33753 0.5641 0.0
O1159 O 0.9334 0.33014 0.55213 0.0
C1160 C 0.9726 0.35849 0.49377 0.0
O1161 O 0.9635 0.34324 0.49068 0.0
C1162 C 0.97492 0.31769 0.52253 0.0
O1163 O 0.98611 0.3309 0.52761 0.0
O1164 O 0.9579 0.32143 0.5209 0.0
O1165 O 0.95708 0.3484 0.55814 0.0
O1166 O 0.92868 0.36616 0.5261 0.0
C1167 C 0.9248 0.37582 0.51205 0.0
O1168 O 0.9336 0.37288 0.49663 0.0
O1169 O 0.97249 0.36516 0.50996 0.0
Mg1170 Mg 0.40907 0.2116 0.27647 0.0
C1171 C 0.37534 0.19198 0.27047 0.0
O1172 O 0.37116 0.20916 0.27403 0.0
C1173 C 0.4423 0.23132 0.27277 0.0
O1174 O 0.42968 0.24223 0.27965 0.0
C1175 C 0.40197 0.23254 0.24237 0.0
O1176 O 0.41769 0.22444 0.23889 0.0
O1177 O 0.39547 0.23161 0.25858 0.0
O1178 O 0.39223 0.18731 0.27056 0.0
O1179 O 0.41029 0.21449 0.3064 0.0
C1180 C 0.40234 0.20274 0.31661 0.0
O1181 O 0.39105 0.19086 0.30914 0.0
O1182 O 0.4379 0.21473 0.26925 0.0
Mg1183 Mg 0.55383 0.658 0.02732 0.0
C1184 C 0.56286 0.67033 0.06328 0.0
O1185 O 0.57425 0.67793 0.05154 0.0
C1186 C 0.53487 0.64975 0.99291 0.0
O1187 O 0.54367 0.66516 0.98975 0.0
C1188 C 0.53281 0.6906 0.02202 0.0
O1189 O 0.52181 0.67743 0.02758 0.0
O1190 O 0.54978 0.68685 0.01991 0.0
O1191 O 0.55056 0.65953 0.05705 0.0
O1192 O 0.57927 0.64226 0.02499 0.0
C1193 C 0.58288 0.63226 0.01112 0.0
O1194 O 0.5736 0.63469 0.99587 0.0
O1195 O 0.53529 0.64304 0.00908 0.0
Mg1196 Mg 0.60107 0.30305 0.2788 0.0
C1197 C 0.62543 0.335 0.28687 0.0
O1198 O 0.61968 0.33059 0.30335 0.0
C1199 C 0.56915 0.2829 0.26555 0.0
O1200 O 0.5821 0.27052 0.26755 0.0
C1201 C 0.63351 0.28572 0.2599 0.0
O1202 O 0.64228 0.29738 0.27048 0.0
O1203 O 0.61652 0.28306 0.26272 0.0
O1204 O 0.61744 0.32775 0.27311 0.0
O1205 O 0.59877 0.3011 0.30884 0.0
C1206 C 0.5835 0.29735 0.31648 0.0
O1207 O 0.56985 0.29145 0.30634 0.0
O1208 O 0.57311 0.29972 0.26849 0.0
Mg1209 Mg 0.05644 0.84963 0.98483 0.0
C1210 C 0.05674 0.83389 0.94704 0.0
O1211 O 0.05722 0.81913 0.95735 0.0
C1212 C 0.03826 0.85966 0.01808 0.0
O1213 O 0.04912 0.84573 0.02176 0.0
C1214 C 0.03346 0.8178 0.99187 0.0
O1215 O 0.02249 0.83112 0.98659 0.0
O1216 O 0.05058 0.82123 0.99324 0.0
O1217 O 0.05548 0.8496 0.95466 0.0
O1218 O 0.08074 0.86521 0.99303 0.0
C1219 C 0.09031 0.87352 0.98099 0.0
O1220 O 0.08851 0.86886 0.96369 0.0
O1221 O 0.037 0.86511 1.00149 0.0
Mg1222 Mg 0.40591 0.80172 0.23261 0.0
C1223 C 0.37281 0.82138 0.23705 0.0
O1224 O 0.36922 0.80469 0.23121 0.0
C1225 C 0.43814 0.78032 0.24204 0.0
O1226 O 0.42467 0.76857 0.2397 0.0
C1227 C 0.39645 0.7859 0.26763 0.0
O1228 O 0.40944 0.79806 0.27052 0.0
O1229 O 0.39157 0.78271 0.25112 0.0
O1230 O 0.38956 0.82613 0.23895 0.0
O1231 O 0.40543 0.80099 0.20241 0.0
C1232 C 0.41907 0.79474 0.19341 0.0
O1233 O 0.43203 0.78586 0.20221 0.0
O1234 O 0.43468 0.79743 0.24027 0.0
Mg1235 Mg 0.09917 0.20308 0.73429 0.0
C1236 C 0.13267 0.18434 0.73522 0.0
O1237 O 0.13475 0.20056 0.7276 0.0
C1238 C 0.06615 0.22219 0.74518 0.0
O1239 O 0.07932 0.23449 0.74488 0.0
C1240 C 0.12478 0.23261 0.75545 0.0
O1241 O 0.13352 0.23729 0.7404 0.0
O1242 O 0.11183 0.22099 0.75475 0.0
O1243 O 0.1165 0.17913 0.73943 0.0
O1244 O 0.09991 0.20582 0.70432 0.0
C1245 C 0.08671 0.2132 0.69554 0.0
O1246 O 0.07424 0.22248 0.70463 0.0
O1247 O 0.0702 0.20551 0.74161 0.0
H1248 H 0.02204 0.1103 0.38508 0.0
H1249 H 0.02806 0.11323 0.49503 0.0
H1250 H 0.02716 0.0625 0.41976 0.0
H1251 H 0.02725 0.16174 0.46098 0.0
H1252 H 0.0232 0.09443 0.46763 0.0
H1253 H 0.01986 0.12951 0.41275 0.0
C1254 C 0.02254 0.10385 0.39846 0.0
C1255 C 0.02501 0.08482 0.4001 0.0
C1256 C 0.02384 0.10922 0.46618 0.0
C1257 C 0.02245 0.10656 0.43172 0.0
C1258 C 0.02648 0.11995 0.48187 0.0
C1259 C 0.02817 0.13906 0.4803 0.0
C1260 C 0.02291 0.11766 0.44881 0.0
C1261 C 0.02617 0.14703 0.46282 0.0
C1262 C 0.02132 0.11479 0.41425 0.0
C1263 C 0.02553 0.07715 0.4178 0.0
N1264 N 0.02382 0.1363 0.44776 0.0
N1265 N 0.02436 0.08802 0.43285 0.0
H1266 H 0.14626 0.79124 0.74336 0.0
H1267 H 0.15567 0.76048 0.63849 0.0
H1268 H 0.10467 0.75839 0.71695 0.0
H1269 H 0.17806 0.81058 0.66097 0.0
H1270 H 0.14086 0.75441 0.66828 0.0
H1271 H 0.16331 0.79214 0.71448 0.0
C1272 C 0.141 0.78372 0.73166 0.0
C1273 C 0.124 0.77476 0.73253 0.0
C1274 C 0.14902 0.76672 0.66655 0.0
C1275 C 0.14326 0.77602 0.69941 0.0
C1276 C 0.15734 0.77025 0.64957 0.0
C1277 C 0.168 0.78614 0.64714 0.0
C1278 C 0.15177 0.77894 0.68121 0.0
C1279 C 0.16988 0.79822 0.66206 0.0
C1280 C 0.1506 0.78446 0.71512 0.0
C1281 C 0.11771 0.76551 0.71682 0.0
N1282 N 0.16199 0.7943 0.67843 0.0
N1283 N 0.12727 0.76648 0.70083 0.0
H1284 H 0.48244 0.89913 0.88274 0.0
H1285 H 0.48199 0.89404 0.99287 0.0
H1286 H 0.48742 0.94619 0.91835 0.0
H1287 H 0.47132 0.84756 0.95776 0.0
H1288 H 0.48883 0.91253 0.96557 0.0
H1289 H 0.48288 0.87911 0.90993 0.0
C1290 C 0.48387 0.90521 0.89622 0.0
C1291 C 0.48468 0.92434 0.89829 0.0
C1292 C 0.48521 0.89821 0.96387 0.0
C1293 C 0.48521 0.90166 0.92938 0.0
C1294 C 0.48143 0.88764 0.97947 0.0
C1295 C 0.47593 0.86929 0.97759 0.0
C1296 C 0.48353 0.89033 0.94629 0.0
C1297 C 0.47532 0.86172 0.95985 0.0
C1298 C 0.48406 0.89383 0.91174 0.0
C1299 C 0.4865 0.93152 0.9161 0.0
N1300 N 0.4789 0.87229 0.94491 0.0
N1301 N 0.48659 0.92022 0.93091 0.0
H1302 H 0.41301 0.24349 0.20835 0.0
H1303 H 0.31911 0.21405 0.16405 0.0
H1304 H 0.36444 0.23247 0.24032 0.0
H1305 H 0.35854 0.24558 0.13306 0.0
H1306 H 0.33639 0.22009 0.19187 0.0
H1307 H 0.39409 0.24477 0.1806 0.0
C1308 C 0.39829 0.24181 0.20958 0.0
C1309 C 0.39028 0.23785 0.22666 0.0
C1310 C 0.34126 0.2258 0.17904 0.0
C1311 C 0.3687 0.23879 0.19494 0.0
C1312 C 0.33151 0.22219 0.16305 0.0
C1313 C 0.33751 0.22915 0.14611 0.0
C1314 C 0.35741 0.2362 0.17819 0.0
C1315 C 0.3535 0.23986 0.14582 0.0
C1316 C 0.38753 0.24249 0.19373 0.0
C1317 C 0.37119 0.23568 0.22748 0.0
N1318 N 0.36307 0.24289 0.16163 0.0
N1319 N 0.36109 0.23584 0.21178 0.0
H1320 H 0.03241 0.84735 0.05278 0.0
H1321 H 0.0221 0.9483 0.09276 0.0
H1322 H 0.02692 0.8957 0.01897 0.0
H1323 H 0.02267 0.89994 0.12699 0.0
H1324 H 0.02068 0.9289 0.06567 0.0
H1325 H 0.02543 0.86576 0.07983 0.0
C1326 C 0.0294 0.86182 0.05101 0.0
C1327 C 0.03039 0.87006 0.0336 0.0
C1328 C 0.02095 0.92246 0.07906 0.0
C1329 C 0.02262 0.89128 0.06462 0.0
C1330 C 0.02184 0.93353 0.09459 0.0
C1331 C 0.02275 0.92569 0.11217 0.0
C1332 C 0.02118 0.90331 0.08102 0.0
C1333 C 0.02206 0.90652 0.11368 0.0
C1334 C 0.02545 0.87232 0.06649 0.0
C1335 C 0.02628 0.8888 0.03211 0.0
N1336 N 0.02156 0.89594 0.09826 0.0
N1337 N 0.02283 0.89884 0.04748 0.0
H1338 H 0.4084 0.78431 0.30295 0.0
H1339 H 0.30926 0.76169 0.34265 0.0
H1340 H 0.36189 0.77067 0.269 0.0
H1341 H 0.35646 0.77068 0.3772 0.0
H1342 H 0.32904 0.76207 0.31578 0.0
H1343 H 0.39056 0.7765 0.33018 0.0
C1344 C 0.39448 0.7794 0.3012 0.0
C1345 C 0.38658 0.77823 0.28365 0.0
C1346 C 0.33518 0.76377 0.3292 0.0
C1347 C 0.36597 0.76945 0.3149 0.0
C1348 C 0.32388 0.76359 0.3446 0.0
C1349 C 0.33121 0.76633 0.36221 0.0
C1350 C 0.35403 0.76693 0.33128 0.0
C1351 C 0.35025 0.76851 0.36389 0.0
C1352 C 0.3843 0.77496 0.31679 0.0
C1353 C 0.36854 0.77172 0.28224 0.0
N1354 N 0.36099 0.769 0.34857 0.0
N1355 N 0.35877 0.76779 0.29768 0.0
H1356 H 0.47007 0.16268 0.55016 0.0
H1357 H 0.49018 0.06309 0.59024 0.0
H1358 H 0.48366 0.11594 0.51642 0.0
H1359 H 0.48248 0.11068 0.62462 0.0
H1360 H 0.49042 0.08282 0.5633 0.0
H1361 H 0.47722 0.14472 0.57749 0.0
C1362 C 0.47484 0.14869 0.54848 0.0
C1363 C 0.47617 0.14076 0.53095 0.0
C1364 C 0.48885 0.08905 0.5767 0.0
C1365 C 0.48419 0.12001 0.56232 0.0
C1366 C 0.48866 0.07777 0.59213 0.0
C1367 C 0.48612 0.08525 0.60971 0.0
C1368 C 0.48626 0.10802 0.57873 0.0
C1369 C 0.48446 0.10436 0.61133 0.0
C1370 C 0.47891 0.13844 0.56413 0.0
C1371 C 0.48249 0.12262 0.52963 0.0
N1372 N 0.48432 0.11509 0.59598 0.0
N1373 N 0.48604 0.11278 0.54513 0.0
H1374 H 0.10933 0.22557 0.78898 0.0
H1375 H 0.19894 0.25589 0.84352 0.0
H1376 H 0.15607 0.25194 0.76391 0.0
H1377 H 0.15169 0.23238 0.87022 0.0
H1378 H 0.18177 0.25768 0.81496 0.0
H1379 H 0.12287 0.23083 0.81915 0.0
C1380 C 0.12234 0.2327 0.7898 0.0
C1381 C 0.13166 0.23819 0.77379 0.0
C1382 C 0.175 0.25231 0.82705 0.0
C1383 C 0.14726 0.24418 0.80844 0.0
C1384 C 0.18481 0.25129 0.84339 0.0
C1385 C 0.17675 0.24384 0.8592 0.0
C1386 C 0.15699 0.24557 0.82633 0.0
C1387 C 0.15837 0.23825 0.85833 0.0
C1388 C 0.13005 0.23569 0.80708 0.0
C1389 C 0.14841 0.24742 0.7758 0.0
N1390 N 0.14916 0.23897 0.84204 0.0
N1391 N 0.15574 0.24995 0.79278 0.0
H1392 H 0.37799 0.03301 0.11559 0.0
H1393 H 0.48719 0.02686 0.12937 0.0
H1394 H 0.41568 0.01229 0.07493 0.0
H1395 H 0.45059 0.05221 0.16842 0.0
H1396 H 0.46054 0.01746 0.11118 0.0
H1397 H 0.40379 0.03629 0.1371 0.0
C1398 C 0.3916 0.02887 0.11131 0.0
C1399 C 0.39471 0.02251 0.09342 0.0
C1400 C 0.45833 0.0249 0.12384 0.0
C1401 C 0.42425 0.02627 0.1178 0.0
C1402 C 0.47356 0.03018 0.13428 0.0
C1403 C 0.47115 0.04041 0.1504 0.0
C1404 C 0.44055 0.02988 0.12956 0.0
C1405 C 0.45313 0.04444 0.15602 0.0
C1406 C 0.40635 0.03083 0.12353 0.0
C1407 C 0.41267 0.01745 0.08853 0.0
N1408 N 0.43856 0.03929 0.14557 0.0
N1409 N 0.42672 0.01953 0.10058 0.0
H1410 H 0.23189 0.24459 0.36478 0.0
H1411 H 0.23312 0.13444 0.35851 0.0
H1412 H 0.22136 0.20881 0.4108 0.0
H1413 H 0.23795 0.17072 0.31192 0.0
H1414 H 0.23349 0.16141 0.37882 0.0
H1415 H 0.23912 0.21754 0.34608 0.0
C1416 C 0.23145 0.2311 0.37104 0.0
C1417 C 0.22588 0.22895 0.38931 0.0
C1418 C 0.23466 0.16341 0.36415 0.0
C1419 C 0.2339 0.19794 0.36802 0.0
C1420 C 0.23451 0.14802 0.35259 0.0
C1421 C 0.23528 0.15035 0.33352 0.0
C1422 C 0.23572 0.18118 0.35652 0.0
C1423 C 0.23705 0.16828 0.32655 0.0
C1424 C 0.23545 0.21564 0.36035 0.0
C1425 C 0.22542 0.2111 0.39669 0.0
N1426 N 0.2371 0.18295 0.33801 0.0
N1427 N 0.2292 0.1963 0.38601 0.0
H1428 H 0.01753 0.98588 0.61693 0.0
H1429 H 0.12746 0.98659 0.60921 0.0
H1430 H 0.05368 0.97613 0.6628 0.0
H1431 H 0.09059 0.99112 0.56313 0.0
H1432 H 0.10081 0.98734 0.62993 0.0
H1433 H 0.04433 0.99268 0.59783 0.0
C1434 C 0.03105 0.98553 0.62308 0.0
C1435 C 0.03335 0.98033 0.64146 0.0
C1436 C 0.09861 0.98837 0.61528 0.0
C1437 C 0.06414 0.98784 0.61965 0.0
C1438 C 0.11382 0.98802 0.60349 0.0
C1439 C 0.11122 0.98858 0.58445 0.0
C1440 C 0.08076 0.98944 0.60791 0.0
C1441 C 0.09323 0.99038 0.57773 0.0
C1442 C 0.04639 0.98928 0.61215 0.0
C1443 C 0.05126 0.97995 0.64865 0.0
N1444 N 0.07874 0.99063 0.5894 0.0
N1445 N 0.06595 0.98348 0.63772 0.0
H1446 H 0.28508 0.79912 0.90966 0.0
H1447 H 0.27048 0.84009 0.80935 0.0
H1448 H 0.27727 0.76572 0.8614 0.0
H1449 H 0.27532 0.87406 0.85759 0.0
H1450 H 0.27032 0.81287 0.82867 0.0
H1451 H 0.27881 0.82653 0.89147 0.0
C1452 C 0.28178 0.79752 0.89525 0.0
C1453 C 0.2818 0.78006 0.887 0.0
C1454 C 0.27129 0.82624 0.83511 0.0
C1455 C 0.27475 0.81154 0.86604 0.0
C1456 C 0.27144 0.84184 0.82407 0.0
C1457 C 0.27311 0.8594 0.83187 0.0
C1458 C 0.273 0.82808 0.85417 0.0
C1459 C 0.27404 0.86079 0.85103 0.0
C1460 C 0.27823 0.81322 0.88488 0.0
C1461 C 0.27737 0.77886 0.86833 0.0
N1462 N 0.27417 0.84529 0.86154 0.0
N1463 N 0.27422 0.79441 0.85844 0.0
H1464 H 0.39757 0.0091 0.40001 0.0
H1465 H 0.45354 0.92393 0.35964 0.0
H1466 H 0.37613 0.95387 0.39983 0.0
H1467 H 0.47029 0.98053 0.35407 0.0
H1468 H 0.42413 0.9344 0.37228 0.0
H1469 H 0.42315 0.99887 0.38103 0.0
C1470 C 0.39807 0.99487 0.39571 0.0
C1471 C 0.38466 0.98235 0.40155 0.0
C1472 C 0.43418 0.94451 0.36807 0.0
C1473 C 0.41426 0.97037 0.38004 0.0
C1474 C 0.45097 0.93853 0.3608 0.0
C1475 C 0.46452 0.95133 0.35587 0.0
C1476 C 0.43096 0.96341 0.3705 0.0
C1477 C 0.46038 0.9701 0.35777 0.0
C1478 C 0.41274 0.98899 0.38489 0.0
C1479 C 0.38609 0.96404 0.39556 0.0
N1480 N 0.44411 0.97552 0.36506 0.0
N1481 N 0.40076 0.95854 0.38535 0.0
H1482 H 0.2801 0.169 0.69707 0.0
H1483 H 0.28458 0.2104 0.59629 0.0
H1484 H 0.27459 0.13559 0.64852 0.0
H1485 H 0.28216 0.24382 0.64507 0.0
H1486 H 0.27847 0.18318 0.61483 0.0
H1487 H 0.27869 0.19651 0.67817 0.0
C1488 C 0.27853 0.16744 0.68237 0.0
C1489 C 0.27768 0.14993 0.67432 0.0
C1490 C 0.27898 0.19647 0.62149 0.0
C1491 C 0.27611 0.18159 0.65249 0.0
C1492 C 0.28244 0.21206 0.61091 0.0
C1493 C 0.28398 0.22942 0.61918 0.0
C1494 C 0.27723 0.19816 0.64057 0.0
C1495 C 0.28103 0.23073 0.63813 0.0
C1496 C 0.27764 0.18321 0.67159 0.0
C1497 C 0.27535 0.14881 0.65526 0.0
N1498 N 0.27805 0.21526 0.64822 0.0
N1499 N 0.27488 0.16445 0.64495 0.0
H1500 H 0.09491 0.05598 0.93913 0.0
H1501 H 0.04029 0.00664 0.8582 0.0
H1502 H 0.11891 0.01144 0.90825 0.0
H1503 H 0.01545 0.04196 0.89878 0.0
H1504 H 0.06924 0.008 0.87532 0.0
H1505 H 0.06625 0.05156 0.92294 0.0
C1506 C 0.09423 0.04528 0.92883 0.0
C1507 C 0.10947 0.03406 0.92508 0.0
C1508 C 0.05737 0.01525 0.88056 0.0
C1509 C 0.07623 0.02886 0.90635 0.0
C1510 C 0.04079 0.01442 0.87085 0.0
C1511 C 0.02533 0.02423 0.877 0.0
C1512 C 0.05857 0.02612 0.89642 0.0
C1513 C 0.02691 0.03415 0.89344 0.0
C1514 C 0.07772 0.0427 0.91963 0.0
C1515 C 0.10756 0.02044 0.91155 0.0
N1516 N 0.04322 0.03497 0.90242 0.0
N1517 N 0.09122 0.01823 0.90262 0.0
H1518 H 0.23507 0.87817 0.14631 0.0
H1519 H 0.23132 0.76794 0.14259 0.0
H1520 H 0.23299 0.84294 0.19389 0.0
H1521 H 0.22802 0.80243 0.09452 0.0
H1522 H 0.23636 0.79537 0.16132 0.0
H1523 H 0.23649 0.85067 0.12673 0.0
C1524 C 0.2351 0.8647 0.15262 0.0
C1525 C 0.2337 0.86284 0.17172 0.0
C1526 C 0.23474 0.79692 0.14664 0.0
C1527 C 0.2354 0.83143 0.14956 0.0
C1528 C 0.23199 0.78122 0.13593 0.0
C1529 C 0.22915 0.78287 0.11698 0.0
C1530 C 0.23463 0.81439 0.13834 0.0
C1531 C 0.23003 0.8005 0.10911 0.0
C1532 C 0.23587 0.84901 0.14148 0.0
C1533 C 0.23379 0.84505 0.17921 0.0
N1534 N 0.23254 0.81557 0.11983 0.0
N1535 N 0.23454 0.8301 0.16815 0.0
H1536 H 0.16249 0.45814 0.02626 0.0
H1537 H 0.06163 0.41694 0.02006 0.0
H1538 H 0.11368 0.4913 0.0212 0.0
H1539 H 0.11018 0.383 0.02105 0.0
H1540 H 0.08079 0.44411 0.01752 0.0
H1541 H 0.1441 0.43061 0.02111 0.0
C1542 C 0.14792 0.45966 0.02372 0.0
C1543 C 0.13958 0.47705 0.02424 0.0
C1544 C 0.08733 0.43076 0.01814 0.0
C1545 C 0.11839 0.4455 0.01861 0.0
C1546 C 0.07639 0.41518 0.01967 0.0
C1547 C 0.08434 0.39765 0.021 0.0
C1548 C 0.10647 0.42894 0.01811 0.0
C1549 C 0.1035 0.39626 0.02013 0.0
C1550 C 0.13743 0.4439 0.02083 0.0
C1551 C 0.12069 0.47819 0.02083 0.0
N1552 N 0.11395 0.41174 0.01896 0.0
N1553 N 0.11069 0.4626 0.0184 0.0
H1554 H 0.6098 0.12641 0.98335 0.0
H1555 H 0.61469 0.01633 0.98778 0.0
H1556 H 0.56316 0.09117 0.99278 0.0
H1557 H 0.66038 0.05074 0.97244 0.0
H1558 H 0.59682 0.044 0.99468 0.0
H1559 H 0.62979 0.0992 0.98406 0.0
C1560 C 0.60382 0.11302 0.98583 0.0
C1561 C 0.5848 0.11101 0.9878 0.0
C1562 C 0.61084 0.04548 0.99003 0.0
C1563 C 0.60744 0.07994 0.98863 0.0
C1564 C 0.62107 0.02967 0.98622 0.0
C1565 C 0.63898 0.03124 0.97941 0.0
C1566 C 0.61861 0.06294 0.98704 0.0
C1567 C 0.64654 0.0489 0.97751 0.0
C1568 C 0.61519 0.09749 0.98617 0.0
C1569 C 0.57774 0.09333 0.99094 0.0
N1570 N 0.63628 0.06405 0.98114 0.0
N1571 N 0.58901 0.07851 0.99114 0.0
H1572 H 0.13132 0.36174 0.23246 0.0
H1573 H 0.24119 0.36627 0.23859 0.0
H1574 H 0.16617 0.31518 0.24384 0.0
H1575 H 0.20724 0.41173 0.22143 0.0
H1576 H 0.21337 0.34872 0.24562 0.0
H1577 H 0.15855 0.38166 0.23306 0.0
C1578 C 0.14463 0.35577 0.23532 0.0
C1579 C 0.14652 0.33678 0.23788 0.0
C1580 C 0.21202 0.36264 0.24054 0.0
C1581 C 0.17763 0.35933 0.23862 0.0
C1582 C 0.22791 0.37269 0.23666 0.0
C1583 C 0.22653 0.39041 0.22927 0.0
C1584 C 0.19467 0.3704 0.23704 0.0
C1585 C 0.20895 0.39801 0.22693 0.0
C1586 C 0.16017 0.36709 0.23561 0.0
C1587 C 0.1641 0.32972 0.24152 0.0
N1588 N 0.19373 0.38793 0.23063 0.0
N1589 N 0.17894 0.34095 0.24168 0.0
H1590 H 0.90222 0.99441 0.50419 0.0
H1591 H 0.89923 0.88682 0.48008 0.0
H1592 H 0.85794 0.96909 0.47408 0.0
H1593 H 0.94635 0.91527 0.50171 0.0
H1594 H 0.88131 0.91543 0.48287 0.0
H1595 H 0.91597 0.9641 0.50857 0.0
C1596 C 0.89524 0.98248 0.49872 0.0
C1597 C 0.87898 0.98439 0.48862 0.0
C1598 C 0.8955 0.91529 0.48728 0.0
C1599 C 0.89475 0.94955 0.49343 0.0
C1600 C 0.90563 0.89895 0.48581 0.0
C1601 C 0.92426 0.89879 0.49058 0.0
C1602 C 0.90409 0.93138 0.49373 0.0
C1603 C 0.93203 0.91489 0.49773 0.0
C1604 C 0.90313 0.96515 0.50116 0.0
C1605 C 0.87057 0.96834 0.48186 0.0
N1606 N 0.92197 0.93051 0.49899 0.0
N1607 N 0.87863 0.95164 0.48423 0.0
H1608 H 0.76585 0.14295 0.23652 0.0
H1609 H 0.87575 0.14889 0.23508 0.0
H1610 H 0.80108 0.09627 0.2269 0.0
H1611 H 0.83959 0.1956 0.23959 0.0
H1612 H 0.84888 0.12852 0.23699 0.0
H1613 H 0.79303 0.16161 0.24294 0.0
C1614 C 0.77926 0.13653 0.23612 0.0
C1615 C 0.7812 0.11808 0.23101 0.0
C1616 C 0.8469 0.14324 0.23776 0.0
C1617 C 0.8124 0.13937 0.23806 0.0
C1618 C 0.86223 0.15482 0.23674 0.0
C1619 C 0.85986 0.17393 0.23694 0.0
C1620 C 0.82918 0.15089 0.23913 0.0
C1621 C 0.84203 0.18094 0.23908 0.0
C1622 C 0.7948 0.14721 0.23966 0.0
C1623 C 0.79895 0.11051 0.23061 0.0
N1624 N 0.82742 0.16946 0.23997 0.0
N1625 N 0.81386 0.12121 0.23389 0.0
H1626 H 0.35123 0.5535 0.52754 0.0
H1627 H 0.45116 0.59465 0.51199 0.0
H1628 H 0.39898 0.5202 0.51674 0.0
H1629 H 0.40303 0.62863 0.51793 0.0
H1630 H 0.43175 0.56751 0.51092 0.0
H1631 H 0.3692 0.58105 0.52116 0.0
C1632 C 0.36546 0.55196 0.52352 0.0
C1633 C 0.37364 0.5345 0.52274 0.0
C1634 C 0.42534 0.58086 0.51227 0.0
C1635 C 0.3944 0.56612 0.51565 0.0
C1636 C 0.43643 0.59643 0.51293 0.0
C1637 C 0.42871 0.61396 0.51523 0.0
C1638 C 0.40629 0.5827 0.51413 0.0
C1639 C 0.40955 0.61539 0.51615 0.0
C1640 C 0.37571 0.56774 0.51991 0.0
C1641 C 0.39209 0.53336 0.51742 0.0
N1642 N 0.39899 0.59992 0.51583 0.0
N1643 N 0.4019 0.54898 0.5143 0.0
H1644 H 0.13266 0.6513 0.26892 0.0
H1645 H 0.24252 0.64618 0.27577 0.0
H1646 H 0.16849 0.69846 0.27002 0.0
H1647 H 0.20751 0.59842 0.27766 0.0
H1648 H 0.21553 0.66523 0.2697 0.0
H1649 H 0.15988 0.63126 0.26846 0.0
C1650 C 0.1462 0.65742 0.26886 0.0
C1651 C 0.1483 0.67654 0.26972 0.0
C1652 C 0.21377 0.65054 0.27124 0.0
C1653 C 0.17939 0.65386 0.26918 0.0
C1654 C 0.22922 0.63966 0.27459 0.0
C1655 C 0.22729 0.6207 0.27733 0.0
C1656 C 0.19624 0.64243 0.27064 0.0
C1657 C 0.20965 0.61301 0.27577 0.0
C1658 C 0.16172 0.64602 0.26864 0.0
C1659 C 0.16618 0.68377 0.26962 0.0
N1660 N 0.19481 0.6239 0.27269 0.0
N1661 N 0.18096 0.67247 0.26946 0.0
H1662 H 0.30493 0.42233 0.7975 0.0
H1663 H 0.34105 0.32372 0.76654 0.0
H1664 H 0.26949 0.37861 0.77909 0.0
H1665 H 0.37728 0.36801 0.78178 0.0
H1666 H 0.31505 0.34457 0.76854 0.0
H1667 H 0.3316 0.40383 0.78922 0.0
C1668 C 0.30273 0.40892 0.79145 0.0
C1669 C 0.28489 0.40199 0.78905 0.0
C1670 C 0.32866 0.34984 0.7713 0.0
C1671 C 0.31552 0.3806 0.77972 0.0
C1672 C 0.34358 0.33792 0.7702 0.0
C1673 C 0.36141 0.34409 0.77415 0.0
C1674 C 0.33145 0.36815 0.77658 0.0
C1675 C 0.36379 0.36267 0.77862 0.0
C1676 C 0.31801 0.39835 0.78676 0.0
C1677 C 0.28294 0.38455 0.78112 0.0
N1678 N 0.34894 0.37402 0.77991 0.0
N1679 N 0.29807 0.37438 0.77694 0.0
H1680 H 0.9776 0.89673 0.5171 0.0
H1681 H 0.99721 0.90026 0.62559 0.0
H1682 H 0.9897 0.84834 0.54908 0.0
H1683 H 0.97202 0.94388 0.59429 0.0
H1684 H 0.9994 0.88195 0.59723 0.0
H1685 H 0.98116 0.91544 0.54476 0.0
C1686 C 0.98151 0.8901 0.52983 0.0
C1687 C 0.98337 0.87096 0.53079 0.0
C1688 C 0.99345 0.89557 0.59666 0.0
C1689 C 0.98716 0.89223 0.5626 0.0
C1690 C 0.99218 0.90599 0.61283 0.0
C1691 C 0.98435 0.9236 0.61239 0.0
C1692 C 0.98699 0.90293 0.57999 0.0
C1693 C 0.97812 0.93036 0.59541 0.0
C1694 C 0.98333 0.90075 0.54568 0.0
C1695 C 0.98809 0.86307 0.54776 0.0
N1696 N 0.97957 0.92006 0.57999 0.0
N1697 N 0.98973 0.8737 0.56302 0.0
H1698 H 0.85765 0.27265 0.36732 0.0
H1699 H 0.86382 0.21977 0.27195 0.0
H1700 H 0.8351 0.21837 0.36001 0.0
H1701 H 0.90871 0.25292 0.29155 0.0
H1702 H 0.84812 0.22431 0.3015 0.0
H1703 H 0.87237 0.27014 0.33706 0.0
C1704 C 0.85595 0.26016 0.35943 0.0
C1705 C 0.84535 0.24562 0.36629 0.0
C1706 C 0.86128 0.23082 0.29916 0.0
C1707 C 0.86145 0.243 0.33148 0.0
C1708 C 0.87009 0.22847 0.28225 0.0
C1709 C 0.88748 0.23617 0.27929 0.0
C1710 C 0.86977 0.24124 0.31299 0.0
C1711 C 0.89524 0.2469 0.29328 0.0
C1712 C 0.86426 0.25879 0.34218 0.0
C1713 C 0.8434 0.22981 0.35538 0.0
N1714 N 0.88632 0.24917 0.30951 0.0
N1715 N 0.85119 0.229 0.33844 0.0
H1716 H 0.52345 0.11945 0.13016 0.0
H1717 H 0.51921 0.11906 0.02 0.0
H1718 H 0.50934 0.07206 0.09759 0.0
H1719 H 0.53851 0.16495 0.05208 0.0
H1720 H 0.51101 0.10315 0.04852 0.0
H1721 H 0.52466 0.13791 0.10193 0.0
C1722 C 0.52031 0.11302 0.11714 0.0
C1723 C 0.51644 0.09418 0.11621 0.0
C1724 C 0.51685 0.1168 0.0493 0.0
C1725 C 0.51788 0.11508 0.08391 0.0
C1726 C 0.52141 0.12591 0.033 0.0
C1727 C 0.52966 0.14329 0.03365 0.0
C1728 C 0.52052 0.12515 0.06634 0.0
C1729 C 0.53233 0.15148 0.05092 0.0
C1730 C 0.52109 0.12351 0.10102 0.0
C1731 C 0.51259 0.0865 0.09894 0.0
N1732 N 0.52792 0.14231 0.06654 0.0
N1733 N 0.51351 0.09692 0.08352 0.0
H1734 H 0.64816 0.78444 0.88013 0.0
H1735 H 0.6337 0.76259 0.77346 0.0
H1736 H 0.673 0.73787 0.85312 0.0
H1737 H 0.60185 0.80231 0.8038 0.0
H1738 H 0.64815 0.75288 0.80239 0.0
H1739 H 0.63061 0.79072 0.85223 0.0
C1740 C 0.64971 0.77535 0.86846 0.0
C1741 C 0.6621 0.76061 0.86903 0.0
C1742 C 0.63788 0.76362 0.80267 0.0
C1743 C 0.64229 0.76793 0.83685 0.0
C1744 C 0.62964 0.76915 0.78617 0.0
C1745 C 0.6166 0.78332 0.78615 0.0
C1746 C 0.63308 0.77241 0.81919 0.0
C1747 C 0.61189 0.79138 0.80305 0.0
C1748 C 0.63974 0.77899 0.85248 0.0
C1749 C 0.66361 0.7494 0.85338 0.0
N1750 N 0.62018 0.7859 0.81879 0.0
N1751 N 0.65399 0.75339 0.83789 0.0
H1752 H 0.01041 0.15646 0.96804 0.0
H1753 H 0.96705 0.09229 0.89274 0.0
H1754 H 0.96844 0.11715 0.98191 0.0
H1755 H 0.02552 0.10149 0.89299 0.0
H1756 H 0.965 0.10687 0.92298 0.0
H1757 H 0.01456 0.14101 0.93833 0.0
C1758 C 1.00236 0.14435 0.96497 0.0
C1759 C 0.98929 0.13787 0.97753 0.0
C1760 C 0.97823 0.10581 0.91631 0.0
C1761 C 0.99331 0.1208 0.94337 0.0
C1762 C 0.97941 0.09774 0.89895 0.0
C1763 C 0.9965 0.09581 0.89025 0.0
C1764 C 0.99417 0.1124 0.92485 0.0
C1765 C 0.01208 0.1028 0.89917 0.0
C1766 C 0.00466 0.13564 0.94802 0.0
C1767 C 0.97892 0.12235 0.97275 0.0
N1768 N 0.01054 0.11092 0.91594 0.0
N1769 N 0.98092 0.11452 0.9559 0.0
H1770 H 0.68237 0.25355 0.64813 0.0
H1771 H 0.60551 0.23304 0.7231 0.0
H1772 H 0.63773 0.21618 0.63755 0.0
H1773 H 0.66292 0.23485 0.73736 0.0
H1774 H 0.61379 0.23689 0.69069 0.0
H1775 H 0.67167 0.25674 0.67995 0.0
C1776 C 0.66998 0.24649 0.65232 0.0
C1777 C 0.66081 0.23467 0.64015 0.0
C1778 C 0.62451 0.23681 0.701 0.0
C1779 C 0.64856 0.23836 0.6764 0.0
C1780 C 0.61982 0.23479 0.7195 0.0
C1781 C 0.63358 0.2337 0.73298 0.0
C1782 C 0.64302 0.23824 0.69598 0.0
C1783 C 0.65191 0.23567 0.72742 0.0
C1784 C 0.66404 0.24817 0.67051 0.0
C1785 C 0.64511 0.22549 0.64647 0.0
N1786 N 0.65611 0.23788 0.70934 0.0
N1787 N 0.63944 0.22756 0.66415 0.0
H1788 H 0.51474 0.88086 0.48574 0.0
H1789 H 0.54416 0.95877 0.41344 0.0
H1790 H 0.55162 0.92516 0.49945 0.0
H1791 H 0.50804 0.91336 0.40147 0.0
H1792 H 0.54574 0.9483 0.44554 0.0
H1793 H 0.51041 0.89438 0.45543 0.0
C1794 C 0.5217 0.8936 0.48251 0.0
C1795 C 0.53352 0.90188 0.49525 0.0
C1796 C 0.53741 0.94073 0.43586 0.0
C1797 C 0.52887 0.91736 0.46027 0.0
C1798 C 0.53651 0.9467 0.41755 0.0
C1799 C 0.52606 0.93689 0.40469 0.0
C1800 C 0.52772 0.92489 0.44128 0.0
C1801 C 0.51642 0.92132 0.4108 0.0
C1802 C 0.5193 0.90129 0.46511 0.0
C1803 C 0.54227 0.91834 0.49014 0.0
N1804 N 0.51752 0.91583 0.42855 0.0
N1805 N 0.53989 0.92545 0.47301 0.0
H1806 H 0.86536 0.74848 0.23211 0.0
H1807 H 0.86458 0.80363 0.13719 0.0
H1808 H 0.8969 0.79752 0.22139 0.0
H1809 H 0.83836 0.7509 0.14346 0.0
H1810 H 0.8779 0.80029 0.16768 0.0
H1811 H 0.85627 0.74789 0.19961 0.0
C1812 C 0.87047 0.75902 0.22296 0.0
C1813 C 0.88181 0.77312 0.22961 0.0
C1814 C 0.86945 0.78928 0.16236 0.0
C1815 C 0.87147 0.77255 0.19246 0.0
C1816 C 0.86191 0.79117 0.14487 0.0
C1817 C 0.85038 0.77752 0.13773 0.0
C1818 C 0.86525 0.77375 0.17302 0.0
C1819 C 0.84732 0.76169 0.14837 0.0
C1820 C 0.8653 0.75866 0.20441 0.0
C1821 C 0.88804 0.7864 0.21704 0.0
N1822 N 0.8545 0.76034 0.16559 0.0
N1823 N 0.88271 0.78583 0.19922 0.0
H1824 H 0.62554 0.98412 0.89865 0.0
H1825 H 0.51552 0.98745 0.89355 0.0
H1826 H 0.59003 0.99088 0.94552 0.0
H1827 H 0.5502 0.97478 0.84728 0.0
H1828 H 0.54302 0.99392 0.9118 0.0
H1829 H 0.59843 0.98558 0.87857 0.0
C1830 C 0.61211 0.98619 0.90467 0.0
C1831 C 0.61 0.98716 0.92376 0.0
C1832 C 0.5446 0.98997 0.89757 0.0
C1833 C 0.57904 0.98883 0.90103 0.0
C1834 C 0.52888 0.98641 0.88713 0.0
C1835 C 0.53057 0.98045 0.86892 0.0
C1836 C 0.5621 0.98758 0.88972 0.0
C1837 C 0.54826 0.97918 0.86133 0.0
C1838 C 0.59664 0.98694 0.89325 0.0
C1839 C 0.59228 0.98979 0.93088 0.0
N1840 N 0.56332 0.98254 0.87179 0.0
N1841 N 0.57752 0.99042 0.91955 0.0
H1842 H 0.75142 0.79266 0.60197 0.0
H1843 H 0.79199 0.8635 0.67258 0.0
H1844 H 0.7891 0.77519 0.64409 0.0
H1845 H 0.73481 0.86657 0.65763 0.0
H1846 H 0.79396 0.83342 0.65755 0.0
H1847 H 0.74709 0.82185 0.61834 0.0
C1848 C 0.75843 0.79483 0.6149 0.0
C1849 C 0.77034 0.78141 0.6219 0.0
C1850 C 0.78103 0.84077 0.65749 0.0
C1851 C 0.76621 0.815 0.64009 0.0
C1852 C 0.77994 0.85803 0.66582 0.0
C1853 C 0.76322 0.86764 0.66622 0.0
C1854 C 0.76542 0.83325 0.64911 0.0
C1855 C 0.74797 0.85967 0.65755 0.0
C1856 C 0.75605 0.81148 0.62413 0.0
C1857 C 0.77947 0.78504 0.63846 0.0
N1858 N 0.74946 0.843 0.6492 0.0
N1859 N 0.77747 0.80164 0.64685 0.0
H1860 H 0.88234 0.02422 0.39725 0.0
H1861 H 0.99256 0.023 0.3955 0.0
H1862 H 0.91646 0.01863 0.4453 0.0
H1863 H 0.95902 0.03781 0.34901 0.0
H1864 H 0.96458 0.0156 0.41272 0.0
H1865 H 0.91013 0.0238 0.3781 0.0
C1866 C 0.89562 0.02264 0.40372 0.0
C1867 C 0.89712 0.02167 0.42286 0.0
C1868 C 0.96338 0.02024 0.39866 0.0
C1869 C 0.92885 0.02112 0.40121 0.0
C1870 C 0.97935 0.02432 0.38881 0.0
C1871 C 0.97809 0.03116 0.37088 0.0
C1872 C 0.94608 0.02293 0.39046 0.0
C1873 C 0.9606 0.03276 0.36289 0.0
C1874 C 0.91147 0.02247 0.39284 0.0
C1875 C 0.91468 0.01968 0.43059 0.0
N1876 N 0.9453 0.02883 0.37276 0.0
N1877 N 0.92982 0.01957 0.41977 0.0
H1878 H 0.74189 0.23774 0.16201 0.0
H1879 H 0.71228 0.1369 0.14011 0.0
H1880 H 0.72767 0.22194 0.10679 0.0
H1881 H 0.75424 0.14756 0.18042 0.0
H1882 H 0.71625 0.1682 0.12823 0.0
H1883 H 0.74533 0.20515 0.17001 0.0
C1884 C 0.73986 0.22745 0.15149 0.0
C1885 C 0.7346 0.23261 0.13369 0.0
C1886 C 0.72483 0.16356 0.13944 0.0
C1887 C 0.73791 0.19532 0.1429 0.0
C1888 C 0.72258 0.14571 0.1462 0.0
C1889 C 0.73305 0.13956 0.16115 0.0
C1890 C 0.7372 0.17556 0.14808 0.0
C1891 C 0.74605 0.15165 0.1687 0.0
C1892 C 0.74179 0.20886 0.15606 0.0
C1893 C 0.73194 0.21864 0.12063 0.0
N1894 N 0.74751 0.16918 0.16233 0.0
N1895 N 0.73326 0.20064 0.12559 0.0
H1896 H 0.61993 0.02445 0.60632 0.0
H1897 H 0.51193 1.00326 0.60247 0.0
H1898 H 0.59085 0.00619 0.55819 0.0
H1899 H 0.53817 0.03086 0.64785 0.0
H1900 H 0.54207 0.99842 0.58857 0.0
H1901 H 0.59143 0.0211 0.62422 0.0
C1902 C 0.6077 0.01926 0.59968 0.0
C1903 C 0.60765 0.01563 0.5808 0.0
C1904 C 0.54125 0.00536 0.60168 0.0
C1905 C 0.57516 0.01192 0.60095 0.0
C1906 C 0.52401 0.00806 0.60966 0.0
C1907 C 0.52243 0.01763 0.62627 0.0
C1908 C 0.55706 0.01227 0.61034 0.0
C1909 C 0.53867 0.02353 0.63494 0.0
C1910 C 0.59142 0.0175 0.60981 0.0
C1911 C 0.59139 0.00922 0.57272 0.0
N1912 N 0.55526 0.02092 0.6268 0.0
N1913 N 0.57582 0.00768 0.58278 0.0
H1914 H 0.71404 0.86652 0.34646 0.0
H1915 H 0.76494 0.77267 0.37429 0.0
H1916 H 0.77061 0.85484 0.33338 0.0
H1917 H 0.70816 0.7845 0.38637 0.0
H1918 H 0.76788 0.80335 0.36066 0.0
H1919 H 0.71234 0.83741 0.36314 0.0
C1920 C 0.7262 0.85801 0.34735 0.0
C1921 C 0.74249 0.86318 0.33845 0.0
C1922 C 0.75479 0.79922 0.36635 0.0
C1923 C 0.74056 0.82961 0.35733 0.0
C1924 C 0.75311 0.78167 0.37409 0.0
C1925 C 0.73629 0.77591 0.38147 0.0
C1926 C 0.73955 0.8111 0.36598 0.0
C1927 C 0.72143 0.78826 0.38086 0.0
C1928 C 0.72519 0.8413 0.35678 0.0
C1929 C 0.75775 0.85145 0.33998 0.0
N1930 N 0.72341 0.80518 0.37325 0.0
N1931 N 0.75638 0.8352 0.3491 0.0
H1932 H 0.99491 0.005 0.10333 0.0
H1933 H 0.88738 0.98173 0.10878 0.0
H1934 H 0.96976 0.97825 0.14983 0.0
H1935 H 0.91532 1.00116 0.06041 0.0
H1936 H 0.91611 0.98542 0.12627 0.0
H1937 H 0.96454 0.00885 0.08966 0.0
C1938 C 0.98301 1.00017 0.1108 0.0
C1939 C 0.98499 0.99115 0.12769 0.0
C1940 C 0.91583 0.98914 0.11189 0.0
C1941 C 0.95007 0.99533 0.112 0.0
C1942 C 0.89942 0.98716 0.10199 0.0
C1943 C 0.89908 0.99102 0.08315 0.0
C1944 C 0.93182 0.99519 0.10284 0.0
C1945 C 0.91508 0.99783 0.07489 0.0
C1946 C 0.96564 1.00231 0.10296 0.0
C1947 C 0.96897 0.98519 0.13672 0.0
N1948 N 0.93077 0.99959 0.08473 0.0
N1949 N 0.95223 0.98721 0.12869 0.0
H1950 H 0.75105 0.21796 0.90951 0.0
H1951 H 0.78965 0.1472 0.83751 0.0
H1952 H 0.78795 0.23524 0.86666 0.0
H1953 H 0.73329 0.14369 0.85521 0.0
H1954 H 0.79206 0.17733 0.85236 0.0
H1955 H 0.7463 0.1888 0.89326 0.0
C1956 C 0.75779 0.21575 0.89645 0.0
C1957 C 0.76962 0.2291 0.88921 0.0
C1958 C 0.77922 0.16988 0.85305 0.0
C1959 C 0.765 0.19554 0.87112 0.0
C1960 C 0.77789 0.15259 0.84482 0.0
C1961 C 0.76126 0.14285 0.84526 0.0
C1962 C 0.76396 0.1773 0.86215 0.0
C1963 C 0.74637 0.1507 0.85463 0.0
C1964 C 0.75518 0.19911 0.88728 0.0
C1965 C 0.7784 0.22544 0.87247 0.0
N1966 N 0.7481 0.16741 0.86285 0.0
N1967 N 0.77617 0.20885 0.86413 0.0
H1968 H 0.91297 0.52084 0.97896 0.0
H1969 H 0.88963 0.6234 0.96091 0.0
H1970 H 0.85629 0.53756 0.97589 0.0
H1971 H 0.93218 0.60987 0.99973 0.0
H1972 H 0.87798 0.5918 0.96333 0.0
H1973 H 0.92173 0.55307 0.98397 0.0
C1974 C 0.90237 0.53124 0.97969 0.0
C1975 C 0.88388 0.52649 0.97719 0.0
C1976 C 0.88966 0.59589 0.97156 0.0
C1977 C 0.89384 0.56334 0.98219 0.0
C1978 C 0.89627 0.61388 0.97021 0.0
C1979 C 0.91173 0.61931 0.9803 0.0
C1980 C 0.89899 0.58307 0.98255 0.0
C1981 C 0.92004 0.60634 0.99194 0.0
C1982 C 0.90736 0.54959 0.98252 0.0
C1983 C 0.87069 0.54057 0.978 0.0
N1984 N 0.9138 0.58871 0.99246 0.0
N1985 N 0.87594 0.5584 0.98005 0.0
H1986 H 0.39121 0.98066 1.0019 0.0
H1987 H 0.39402 0.88534 0.05655 0.0
H1988 H 0.36079 0.96937 0.05147 0.0
H1989 H 0.41966 0.89231 1.00368 0.0
H1990 H 0.38041 0.91577 0.05363 0.0
H1991 H 0.40089 0.94829 1.00114 0.0
C1992 C 0.38647 0.97141 0.01253 0.0
C1993 C 0.37523 0.97785 0.02681 0.0
C1994 C 0.3888 0.91062 0.04251 0.0
C1995 C 0.38625 0.94086 0.02603 0.0
C1996 C 0.39651 0.89316 0.04415 0.0
C1997 C 0.40795 0.88622 0.03034 0.0
C1998 C 0.39273 0.92146 0.02703 0.0
C1999 C 0.41078 0.89704 0.0146 0.0
C2000 C 0.39198 0.95293 0.01208 0.0
C2001 C 0.36952 0.96518 0.04021 0.0
N2002 N 0.40342 0.91424 0.01347 0.0
N2003 N 0.37515 0.94743 0.03953 0.0
H2004 H 0.77486 0.64962 0.75184 0.0
H2005 H 0.87282 0.64101 0.79897 0.0
H2006 H 0.78955 0.60617 0.78944 0.0
H2007 H 0.86432 0.67348 0.75017 0.0
H2008 H 0.84227 0.62785 0.79515 0.0
H2009 H 0.80734 0.65859 0.75036 0.0
C2010 C 0.78488 0.64184 0.7596 0.0
C2011 C 0.77936 0.6272 0.77088 0.0
C2012 C 0.84715 0.63765 0.78509 0.0
C2013 C 0.81645 0.63751 0.76941 0.0
C2014 C 0.86464 0.64513 0.78725 0.0
C2015 C 0.87117 0.65835 0.77487 0.0
C2016 C 0.83587 0.64368 0.77064 0.0
C2017 C 0.85989 0.66324 0.75998 0.0
C2018 C 0.80341 0.64696 0.75875 0.0
C2019 C 0.79302 0.61762 0.78062 0.0
N2020 N 0.84268 0.65612 0.75843 0.0
N2021 N 0.8108 0.62306 0.77982 0.0
H2022 H 0.08762 0.11538 0.54433 0.0
H2023 H 0.15839 0.04359 0.50658 0.0
H2024 H 0.10342 0.11785 0.48735 0.0
H2025 H 0.11458 0.02669 0.54244 0.0
H2026 H 0.14235 0.07285 0.50122 0.0
H2027 H 0.10217 0.0851 0.54671 0.0
C2028 C 0.09447 0.10973 0.53242 0.0
C2029 C 0.09447 0.11922 0.51563 0.0
C2030 C 0.1361 0.06257 0.50996 0.0
C2031 C 0.11102 0.08461 0.51831 0.0
C2032 C 0.14514 0.04589 0.5129 0.0
C2033 C 0.13752 0.03264 0.5246 0.0
C2034 C 0.11976 0.06627 0.51942 0.0
C2035 C 0.12062 0.03642 0.53296 0.0
C2036 C 0.10252 0.09236 0.53374 0.0
C2037 C 0.10323 0.11103 0.50055 0.0
N2038 N 0.11243 0.05306 0.53048 0.0
N2039 N 0.11132 0.09425 0.50227 0.0
H2040 H 0.14323 0.83264 0.75074 0.0
H2041 H 0.21879 0.90345 0.78717 0.0
H2042 H 0.13629 0.86717 0.79831 0.0
H2043 H 0.23257 0.85684 0.75322 0.0
H2044 H 0.18667 0.89456 0.78588 0.0
H2045 H 0.17393 0.84575 0.74617 0.0
C2046 C 0.14794 0.84334 0.75992 0.0
C2047 C 0.13715 0.84889 0.77492 0.0
C2048 C 0.19667 0.88637 0.77855 0.0
C2049 C 0.17226 0.86377 0.76983 0.0
C2050 C 0.21509 0.89145 0.77921 0.0
C2051 C 0.22856 0.88077 0.77041 0.0
C2052 C 0.19148 0.87055 0.7689 0.0
C2053 C 0.22272 0.86543 0.76028 0.0
C2054 C 0.16554 0.85065 0.75741 0.0
C2055 C 0.14413 0.86252 0.78657 0.0
N2056 N 0.20462 0.8607 0.75989 0.0
N2057 N 0.16122 0.86945 0.78382 0.0
H2058 H 0.60768 0.3884 0.52203 0.0
H2059 H 0.61577 0.4848 0.47158 0.0
H2060 H 0.58477 0.39732 0.4682 0.0
H2061 H 0.6615 0.46256 0.50181 0.0
H2062 H 0.59937 0.45554 0.47575 0.0
H2063 H 0.62356 0.41813 0.51971 0.0
C2064 C 0.60616 0.39652 0.50967 0.0
C2065 C 0.59512 0.39026 0.49518 0.0
C2066 C 0.61288 0.45723 0.48171 0.0
C2067 C 0.6125 0.42451 0.49282 0.0
C2068 C 0.6221 0.47396 0.47957 0.0
C2069 C 0.6399 0.47611 0.48657 0.0
C2070 C 0.62138 0.44276 0.49125 0.0
C2071 C 0.64772 0.46146 0.49637 0.0
C2072 C 0.61512 0.41347 0.5084 0.0
C2073 C 0.5934 0.40146 0.47956 0.0
N2074 N 0.63839 0.44542 0.4985 0.0
N2075 N 0.60181 0.41814 0.47887 0.0
H2076 H 0.87604 0.35681 0.73729 0.0
H2077 H 0.76612 0.36266 0.74025 0.0
H2078 H 0.84012 0.31009 0.74321 0.0
H2079 H 0.80111 0.40897 0.72844 0.0
H2080 H 0.79346 0.34416 0.74668 0.0
H2081 H 0.84911 0.37713 0.73901 0.0
C2082 C 0.86256 0.35087 0.73922 0.0
C2083 C 0.86028 0.33177 0.73988 0.0
C2084 C 0.79515 0.35846 0.74293 0.0
C2085 C 0.82953 0.35476 0.74186 0.0
C2086 C 0.77952 0.36904 0.7394 0.0
C2087 C 0.78135 0.38733 0.73368 0.0
C2088 C 0.8127 0.36624 0.74075 0.0
C2089 C 0.79908 0.39486 0.73265 0.0
C2090 C 0.84719 0.36243 0.74013 0.0
C2091 C 0.84249 0.32475 0.74236 0.0
N2092 N 0.81405 0.38425 0.73597 0.0
N2093 N 0.82784 0.3362 0.74314 0.0
H2094 H 0.63 0.64774 0.23581 0.0
H2095 H 0.74004 0.64204 0.23821 0.0
H2096 H 0.66578 0.69442 0.24274 0.0
H2097 H 0.70511 0.59598 0.22537 0.0
H2098 H 0.71266 0.66043 0.24483 0.0
H2099 H 0.65705 0.62751 0.23658 0.0
C2100 C 0.64348 0.65369 0.23774 0.0
C2101 C 0.64566 0.67278 0.239 0.0
C2102 C 0.71099 0.64621 0.2408 0.0
C2103 C 0.67657 0.64987 0.2399 0.0
C2104 C 0.72665 0.63569 0.23716 0.0
C2105 C 0.72486 0.61749 0.23113 0.0
C2106 C 0.69345 0.63847 0.23843 0.0
C2107 C 0.70713 0.61002 0.22983 0.0
C2108 C 0.65891 0.64219 0.23812 0.0
C2109 C 0.66346 0.67979 0.24146 0.0
N2110 N 0.69213 0.62055 0.23329 0.0
N2111 N 0.67818 0.66838 0.24172 0.0
H2112 H 0.52536 0.61321 0.99155 0.0
H2113 H 0.52228 0.61152 0.88151 0.0
H2114 H 0.52959 0.66184 0.95791 0.0
H2115 H 0.52167 0.56323 0.9159 0.0
H2116 H 0.5209 0.63068 0.90926 0.0
H2117 H 0.51952 0.5951 0.96389 0.0
C2118 C 0.5247 0.62013 0.97841 0.0
C2119 C 0.52809 0.63903 0.97704 0.0
C2120 C 0.52091 0.61587 0.91067 0.0
C2121 C 0.52171 0.61839 0.94527 0.0
C2122 C 0.52166 0.60497 0.89484 0.0
C2123 C 0.52231 0.58578 0.8964 0.0
C2124 C 0.5207 0.60748 0.92809 0.0
C2125 C 0.52146 0.57799 0.91402 0.0
C2126 C 0.5215 0.60978 0.96258 0.0
C2127 C 0.5272 0.64726 0.9596 0.0
N2128 N 0.5208 0.58883 0.92912 0.0
N2129 N 0.52428 0.63687 0.9444 0.0
H2130 H 0.61673 0.27012 0.22969 0.0
H2131 H 0.70011 0.29861 0.16609 0.0
H2132 H 0.6692 0.28923 0.24943 0.0
H2133 H 0.65673 0.26425 0.14489 0.0
H2134 H 0.68743 0.29573 0.19647 0.0
H2135 H 0.62986 0.26726 0.19877 0.0
C2136 C 0.6311 0.2733 0.22766 0.0
C2137 C 0.64186 0.28008 0.24221 0.0
C2138 C 0.68061 0.28871 0.18529 0.0
C2139 C 0.65675 0.27712 0.20687 0.0
C2140 C 0.68779 0.29047 0.16776 0.0
C2141 C 0.67944 0.28173 0.15276 0.0
C2142 C 0.66471 0.27829 0.18811 0.0
C2143 C 0.66358 0.27126 0.15605 0.0
C2144 C 0.63852 0.27175 0.20997 0.0
C2145 C 0.66032 0.28409 0.23869 0.0
N2146 N 0.65659 0.26993 0.17342 0.0
N2147 N 0.66707 0.28275 0.2214 0.0
H2148 H 0.97773 0.34611 0.45887 0.0
H2149 H 0.98948 0.44695 0.418 0.0
H2150 H 0.98261 0.39491 0.4921 0.0
H2151 H 0.98524 0.39861 0.38404 0.0
H2152 H 0.99035 0.42758 0.44513 0.0
H2153 H 0.98393 0.36442 0.43154 0.0
C2154 C 0.9804 0.36066 0.46047 0.0
C2155 C 0.97954 0.36901 0.47783 0.0
C2156 C 0.98937 0.42112 0.43179 0.0
C2157 C 0.98649 0.39011 0.44646 0.0
C2158 C 0.98884 0.43219 0.41623 0.0
C2159 C 0.98708 0.42438 0.3987 0.0
C2160 C 0.988 0.40201 0.42994 0.0
C2161 C 0.98656 0.40518 0.39729 0.0
C2162 C 0.9839 0.37111 0.44481 0.0
C2163 C 0.98317 0.38788 0.47903 0.0
N2164 N 0.98681 0.39463 0.41275 0.0
N2165 N 0.98629 0.39782 0.46352 0.0
H2166 H 0.80201 0.73798 0.66881 0.0
H2167 H 0.89553 0.73416 0.7259 0.0
H2168 H 0.85478 0.73531 0.64217 0.0
H2169 H 0.84159 0.72423 0.74816 0.0
H2170 H 0.88159 0.74054 0.69589 0.0
H2171 H 0.81712 0.73934 0.69839 0.0
C2172 C 0.81687 0.73778 0.66919 0.0
C2173 C 0.82716 0.73622 0.653 0.0
C2174 C 0.87283 0.73724 0.70743 0.0
C2175 C 0.84468 0.73763 0.68713 0.0
C2176 C 0.88073 0.73374 0.7246 0.0
C2177 C 0.86967 0.72865 0.73959 0.0
C2178 C 0.85375 0.73584 0.70532 0.0
C2179 C 0.85064 0.72807 0.73703 0.0
C2180 C 0.8255 0.73855 0.68615 0.0
C2181 C 0.84637 0.73642 0.65435 0.0
N2182 N 0.84333 0.73154 0.72025 0.0
N2183 N 0.85456 0.73685 0.67121 0.0
H2184 H 0.50657 0.42881 0.60874 0.0
H2185 H 0.53895 0.34144 0.55157 0.0
H2186 H 0.54798 0.39062 0.62707 0.0
H2187 H 0.52252 0.39141 0.52416 0.0
H2188 H 0.53421 0.35629 0.581 0.0
H2189 H 0.5048 0.41221 0.57941 0.0
C2190 C 0.51498 0.4167 0.60677 0.0
C2191 C 0.52746 0.41103 0.62036 0.0
C2192 C 0.53145 0.36396 0.56857 0.0
C2193 C 0.52535 0.39206 0.58705 0.0
C2194 C 0.5341 0.3555 0.55169 0.0
C2195 C 0.53137 0.36527 0.53528 0.0
C2196 C 0.52583 0.38233 0.56922 0.0
C2197 C 0.52486 0.3834 0.53645 0.0
C2198 C 0.51406 0.40739 0.58999 0.0
C2199 C 0.53818 0.39543 0.61698 0.0
N2200 N 0.52242 0.39145 0.5532 0.0
N2201 N 0.53685 0.38648 0.6007 0.0
H2202 H 0.85704 0.27097 0.8774 0.0
H2203 H 0.8632 0.26967 0.76741 0.0
H2204 H 0.81028 0.27018 0.8411 0.0
H2205 H 0.91014 0.27695 0.80274 0.0
H2206 H 0.84412 0.26449 0.79458 0.0
H2207 H 0.87728 0.26823 0.85051 0.0
C2208 C 0.85105 0.26999 0.86384 0.0
C2209 C 0.83199 0.27104 0.86147 0.0
C2210 C 0.85866 0.26696 0.79638 0.0
C2211 C 0.8549 0.26786 0.83076 0.0
C2212 C 0.86957 0.26976 0.78084 0.0
C2213 C 0.88825 0.27385 0.78281 0.0
C2214 C 0.8665 0.26824 0.81399 0.0
C2215 C 0.89575 0.27398 0.80059 0.0
C2216 C 0.86257 0.26848 0.8485 0.0
C2217 C 0.82492 0.26971 0.84358 0.0
N2218 N 0.88484 0.27141 0.81549 0.0
N2219 N 0.83634 0.26829 0.82896 0.0
H2220 H 0.98526 0.61384 0.01537 0.0
H2221 H 0.98465 0.60855 0.12538 0.0
H2222 H 0.97537 0.66051 0.05049 0.0
H2223 H 0.98902 0.56151 0.08964 0.0
H2224 H 0.9861 0.62866 0.09829 0.0
H2225 H 0.99191 0.59527 0.04264 0.0
C2226 C 0.98488 0.62027 0.02876 0.0
C2227 C 0.97961 0.63868 0.03067 0.0
C2228 C 0.98694 0.61392 0.09644 0.0
C2229 C 0.98692 0.61754 0.06193 0.0
C2230 C 0.98616 0.60248 0.1119 0.0
C2231 C 0.98648 0.58336 0.10973 0.0
C2232 C 0.98817 0.60612 0.07879 0.0
C2233 C 0.98844 0.57619 0.09194 0.0
C2234 C 0.98853 0.60965 0.04435 0.0
C2235 C 0.97919 0.64629 0.0484 0.0
N2236 N 0.98909 0.58754 0.07719 0.0
N2237 N 0.98261 0.63566 0.06333 0.0
H2238 H 0.64049 0.73602 0.26912 0.0
H2239 H 0.64471 0.73326 0.37917 0.0
H2240 H 0.59363 0.72442 0.30338 0.0
H2241 H 0.69197 0.73778 0.34381 0.0
H2242 H 0.62484 0.73481 0.35191 0.0
H2243 H 0.65865 0.74198 0.29675 0.0
C2244 C 0.63393 0.73511 0.28242 0.0
C2245 C 0.61557 0.7296 0.28395 0.0
C2246 C 0.63957 0.73562 0.35019 0.0
C2247 C 0.63628 0.73611 0.31564 0.0
C2248 C 0.65087 0.73477 0.36574 0.0
C2249 C 0.66999 0.73514 0.36373 0.0
C2250 C 0.64751 0.73702 0.33262 0.0
C2251 C 0.6773 0.73714 0.346 0.0
C2252 C 0.64432 0.73836 0.29821 0.0
C2253 C 0.6078 0.72848 0.30157 0.0
N2254 N 0.66608 0.73792 0.33118 0.0
N2255 N 0.61822 0.73153 0.31672 0.0
H2256 H 0.88606 0.53637 0.60812 0.0
H2257 H 0.99209 0.50898 0.61799 0.0
H2258 H 0.90932 0.48833 0.58234 0.0
H2259 H 0.96506 0.5499 0.65126 0.0
H2260 H 0.96215 0.50095 0.60457 0.0
H2261 H 0.9151 0.5413 0.62415 0.0
C2262 C 0.89715 0.52669 0.60603 0.0
C2263 C 0.89515 0.51189 0.59387 0.0
C2264 C 0.96283 0.51159 0.61492 0.0
C2265 C 0.92869 0.51765 0.61195 0.0
C2266 C 0.97991 0.51617 0.62257 0.0
C2267 C 0.98117 0.53018 0.63574 0.0
C2268 C 0.94696 0.52118 0.62041 0.0
C2269 C 0.96488 0.53905 0.64112 0.0
C2270 C 0.9138 0.52955 0.61514 0.0
C2271 C 0.91015 0.49989 0.59164 0.0
N2272 N 0.94857 0.5345 0.63338 0.0
N2273 N 0.9263 0.50313 0.60043 0.0
H2274 H 0.73251 0.70701 0.9126 0.0
H2275 H 0.7337 0.6678 0.81048 0.0
H2276 H 0.72919 0.74098 0.86417 0.0
H2277 H 0.73693 0.6331 0.85841 0.0
H2278 H 0.73503 0.69475 0.83004 0.0
H2279 H 0.73752 0.68018 0.8932 0.0
C2280 C 0.73316 0.70889 0.89787 0.0
C2281 C 0.73034 0.7263 0.88999 0.0
C2282 C 0.73555 0.68129 0.83635 0.0
C2283 C 0.73585 0.69548 0.86767 0.0
C2284 C 0.73473 0.66581 0.82518 0.0
C2285 C 0.73501 0.6481 0.83283 0.0
C2286 C 0.73657 0.67917 0.85543 0.0
C2287 C 0.7366 0.64648 0.85194 0.0
C2288 C 0.73595 0.69351 0.8868 0.0
C2289 C 0.73137 0.72787 0.87085 0.0
N2290 N 0.73716 0.66184 0.86262 0.0
N2291 N 0.73383 0.71262 0.86034 0.0
H2292 H 0.59023 0.4917 0.06252 0.0
H2293 H 0.55175 0.4817 0.16424 0.0
H2294 H 0.62523 0.48829 0.11012 0.0
H2295 H 0.51737 0.48548 0.11619 0.0
H2296 H 0.57854 0.48835 0.14533 0.0
H2297 H 0.56354 0.49368 0.08244 0.0
C2298 C 0.59231 0.49154 0.07724 0.0
C2299 C 0.60997 0.4896 0.08469 0.0
C2300 C 0.56513 0.488 0.13893 0.0
C2301 C 0.57929 0.49173 0.10769 0.0
C2302 C 0.54978 0.48424 0.14973 0.0
C2303 C 0.53227 0.4829 0.14176 0.0
C2304 C 0.56303 0.49034 0.11995 0.0
C2305 C 0.53058 0.4864 0.12292 0.0
C2306 C 0.57702 0.4927 0.08862 0.0
C2307 C 0.61185 0.48975 0.10383 0.0
N2308 N 0.5458 0.48974 0.11263 0.0
N2309 N 0.59664 0.49052 0.1147 0.0
H2310 H 0.77226 0.27422 0.36972 0.0
H2311 H 0.80204 0.37826 0.36812 0.0
H2312 H 0.79446 0.30208 0.41706 0.0
H2313 H 0.75694 0.35997 0.33445 0.0
H2314 H 0.80065 0.34935 0.38506 0.0
H2315 H 0.76727 0.30439 0.35509 0.0
C2316 C 0.77579 0.28661 0.37714 0.0
C2317 C 0.78394 0.28557 0.39458 0.0
C2318 C 0.79088 0.35174 0.37412 0.0
C2319 C 0.77859 0.31987 0.3779 0.0
C2320 C 0.79165 0.36826 0.36448 0.0
C2321 C 0.77959 0.37156 0.34988 0.0
C2322 C 0.77826 0.33814 0.36886 0.0
C2323 C 0.76647 0.35802 0.34566 0.0
C2324 C 0.77297 0.30378 0.3688 0.0
C2325 C 0.78832 0.3021 0.40353 0.0
N2326 N 0.76634 0.34174 0.3549 0.0
N2327 N 0.78584 0.31846 0.39501 0.0
H2328 H 0.8957 0.50388 0.92126 0.0
H2329 H 0.95429 0.45873 0.84036 0.0
H2330 H 0.87792 0.45798 0.88835 0.0
H2331 H 0.9799 0.48954 0.88399 0.0
H2332 H 0.92451 0.46434 0.85415 0.0
H2333 H 0.92478 0.50436 0.9042 0.0
C2334 C 0.89773 0.49418 0.91019 0.0
C2335 C 0.88437 0.48084 0.9062 0.0
C2336 C 0.93659 0.47001 0.86067 0.0
C2337 C 0.91748 0.48137 0.88673 0.0
C2338 C 0.95367 0.46686 0.85279 0.0
C2339 C 0.9697 0.4735 0.86114 0.0
C2340 C 0.93536 0.47994 0.87709 0.0
C2341 C 0.9679 0.48413 0.87713 0.0
C2342 C 0.91438 0.49438 0.9006 0.0
C2343 C 0.88783 0.46847 0.89189 0.0
N2344 N 0.951 0.48691 0.88471 0.0
N2345 N 0.90402 0.46903 0.88271 0.0
H2346 H 0.77507 0.74169 0.14483 0.0
H2347 H 0.77341 0.63156 0.14988 0.0
H2348 H 0.78638 0.70634 0.0987 0.0
H2349 H 0.76731 0.66727 0.19672 0.0
H2350 H 0.77345 0.65875 0.12986 0.0
H2351 H 0.76719 0.7145 0.16307 0.0
C2352 C 0.77555 0.72827 0.13845 0.0
C2353 C 0.78155 0.72626 0.1203 0.0
C2354 C 0.7719 0.66058 0.14452 0.0
C2355 C 0.77278 0.69511 0.14105 0.0
C2356 C 0.77181 0.64507 0.15591 0.0
C2357 C 0.77057 0.64718 0.17497 0.0
C2358 C 0.77062 0.67825 0.15231 0.0
C2359 C 0.76857 0.66501 0.1821 0.0
C2360 C 0.77118 0.71273 0.14888 0.0
C2361 C 0.78203 0.70851 0.11273 0.0
N2362 N 0.76878 0.67981 0.1708 0.0
N2363 N 0.77788 0.69363 0.12316 0.0
H2364 H 0.59138 0.52667 0.45129 0.0
H2365 H 0.55029 0.52433 0.34981 0.0
H2366 H 0.62526 0.52086 0.40309 0.0
H2367 H 0.51771 0.53215 0.39864 0.0
H2368 H 0.57742 0.51985 0.36894 0.0
H2369 H 0.56418 0.52563 0.43215 0.0
C2370 C 0.59313 0.52513 0.43662 0.0
C2371 C 0.6107 0.52405 0.42877 0.0
C2372 C 0.56431 0.52233 0.37548 0.0
C2373 C 0.57931 0.52285 0.40661 0.0
C2374 C 0.54876 0.52483 0.36458 0.0
C2375 C 0.53164 0.52868 0.37262 0.0
C2376 C 0.56281 0.5237 0.39461 0.0
C2377 C 0.53057 0.52917 0.39182 0.0
C2378 C 0.57751 0.5245 0.42568 0.0
C2379 C 0.612 0.52179 0.4097 0.0
N2380 N 0.54596 0.52686 0.40213 0.0
N2381 N 0.59648 0.52143 0.39923 0.0
H2382 H 0.73821 0.3372 0.6997 0.0
H2383 H 0.73023 0.29855 0.5978 0.0
H2384 H 0.7364 0.37214 0.65189 0.0
H2385 H 0.73246 0.2641 0.64592 0.0
H2386 H 0.73639 0.32534 0.61689 0.0
H2387 H 0.73977 0.31038 0.67991 0.0
C2388 C 0.73825 0.33926 0.68498 0.0
C2389 C 0.73696 0.35697 0.67743 0.0
C2390 C 0.73582 0.31192 0.62327 0.0
C2391 C 0.73871 0.3261 0.65458 0.0
C2392 C 0.73236 0.29657 0.61238 0.0
C2393 C 0.73073 0.27904 0.6203 0.0
C2394 C 0.73756 0.30981 0.64231 0.0
C2395 C 0.73368 0.27732 0.63922 0.0
C2396 C 0.73919 0.32388 0.67368 0.0
C2397 C 0.73733 0.35874 0.65828 0.0
N2398 N 0.73672 0.29255 0.64962 0.0
N2399 N 0.73796 0.34346 0.64749 0.0
H2400 H 0.60107 0.8948 0.48142 0.0
H2401 H 0.61334 0.98873 0.53529 0.0
H2402 H 0.58957 0.89992 0.53928 0.0
H2403 H 0.65435 0.97136 0.49636 0.0
H2404 H 0.59778 0.95906 0.5315 0.0
H2405 H 0.61528 0.92549 0.48204 0.0
C2406 C 0.60173 0.90226 0.49426 0.0
C2407 C 0.59434 0.89468 0.51036 0.0
C2408 C 0.60998 0.96195 0.52352 0.0
C2409 C 0.60968 0.92992 0.51091 0.0
C2410 C 0.61869 0.97894 0.52545 0.0
C2411 C 0.63504 0.98251 0.51597 0.0
C2412 C 0.61748 0.94865 0.51175 0.0
C2413 C 0.64168 0.96913 0.50379 0.0
C2414 C 0.6097 0.91975 0.49456 0.0
C2415 C 0.59533 0.90506 0.52659 0.0
N2416 N 0.63287 0.95276 0.502 0.0
N2417 N 0.60262 0.92223 0.5264 0.0
H2418 H 0.10844 0.5163 0.50616 0.0
H2419 H 0.11056 0.62303 0.4784 0.0
H2420 H 0.15201 0.5407 0.4743 0.0
H2421 H 0.06361 0.59487 0.50076 0.0
H2422 H 0.12867 0.59462 0.48198 0.0
H2423 H 0.09461 0.54669 0.50964 0.0
C2424 C 0.11526 0.52806 0.50014 0.0
C2425 C 0.13133 0.52586 0.4898 0.0
C2426 C 0.11447 0.59479 0.48636 0.0
C2427 C 0.11546 0.56075 0.49357 0.0
C2428 C 0.10423 0.61101 0.48445 0.0
C2429 C 0.0856 0.61116 0.4892 0.0
C2430 C 0.10599 0.57884 0.49329 0.0
C2431 C 0.07792 0.59522 0.49677 0.0
C2432 C 0.10731 0.54542 0.50205 0.0
C2433 C 0.13953 0.54168 0.48229 0.0
N2434 N 0.08809 0.57972 0.49849 0.0
N2435 N 0.13142 0.55841 0.48417 0.0
H2436 H 0.66772 0.81121 0.73918 0.0
H2437 H 0.70842 0.91257 0.73161 0.0
H2438 H 0.63358 0.85962 0.73716 0.0
H2439 H 0.7417 0.86359 0.73425 0.0
H2440 H 0.68109 0.89395 0.73684 0.0
H2441 H 0.6948 0.83057 0.74044 0.0
C2442 C 0.66589 0.82598 0.73908 0.0
C2443 C 0.64831 0.8338 0.73786 0.0
C2444 C 0.69437 0.88728 0.73652 0.0
C2445 C 0.67953 0.85619 0.73926 0.0
C2446 C 0.71003 0.8979 0.73358 0.0
C2447 C 0.72742 0.88961 0.7324 0.0
C2448 C 0.69603 0.86817 0.73822 0.0
C2449 C 0.72862 0.87058 0.7351 0.0
C2450 C 0.68143 0.83704 0.73984 0.0
C2451 C 0.64686 0.85302 0.73804 0.0
N2452 N 0.71311 0.86049 0.73769 0.0
N2453 N 0.66231 0.86358 0.73853 0.0
H2454 H 0.40075 0.38738 0.97915 0.0
H2455 H 0.40385 0.49535 1.00137 0.0
H2456 H 0.44784 0.41608 1.00056 0.0
H2457 H 0.35946 0.46938 0.97197 0.0
H2458 H 0.41767 0.46513 0.00622 0.0
H2459 H 0.38292 0.41608 0.98135 0.0
C2460 C 0.40718 0.3996 0.98464 0.0
C2461 C 0.42578 0.39948 0.98951 0.0
C2462 C 0.4048 0.46603 0.99886 0.0
C2463 C 0.4057 0.43214 0.99204 0.0
C2464 C 0.39687 0.48331 0.99615 0.0
C2465 C 0.38057 0.48498 0.98609 0.0
C2466 C 0.39639 0.45029 0.99145 0.0
C2467 C 0.37215 0.46881 0.97966 0.0
C2468 C 0.39709 0.41598 0.98579 0.0
C2469 C 0.43357 0.41568 0.99643 0.0
N2470 N 0.38022 0.45218 0.98231 0.0
N2471 N 0.42355 0.43133 0.99739 0.0
H2472 H 0.3828 0.65428 0.70094 0.0
H2473 H 0.29147 0.59791 0.72405 0.0
H2474 H 0.36265 0.64619 0.75602 0.0
H2475 H 0.2997 0.62681 0.67299 0.0
H2476 H 0.32178 0.6081 0.73429 0.0
H2477 H 0.35666 0.6367 0.68919 0.0
C2478 C 0.37317 0.64839 0.71062 0.0
C2479 C 0.37491 0.65174 0.72953 0.0
C2480 C 0.31705 0.61194 0.72073 0.0
C2481 C 0.34497 0.63167 0.7161 0.0
C2482 C 0.2998 0.60604 0.7148 0.0
C2483 C 0.29297 0.61159 0.69763 0.0
C2484 C 0.3277 0.62324 0.70934 0.0
C2485 C 0.30437 0.62228 0.68635 0.0
C2486 C 0.35817 0.63851 0.70386 0.0
C2487 C 0.36182 0.64398 0.74135 0.0
N2488 N 0.32114 0.62781 0.69242 0.0
N2489 N 0.34738 0.63437 0.73445 0.0
H2490 H 0.8471 0.05005 0.03197 0.0
H2491 H 0.94758 0.08885 0.01498 0.0
H2492 H 0.89412 0.01578 0.0209 0.0
H2493 H 0.90043 0.12384 0.02265 0.0
H2494 H 0.92749 0.06225 0.01354 0.0
H2495 H 0.86543 0.07718 0.02495 0.0
C2496 C 0.86123 0.04821 0.02775 0.0
C2497 C 0.86914 0.03062 0.02713 0.0
C2498 C 0.92144 0.07572 0.01534 0.0
C2499 C 0.89029 0.06172 0.01929 0.0
C2500 C 0.93292 0.09095 0.01621 0.0
C2501 C 0.92566 0.10857 0.01915 0.0
C2502 C 0.90248 0.07799 0.01764 0.0
C2503 C 0.90657 0.11049 0.02039 0.0
C2504 C 0.87169 0.06374 0.02377 0.0
C2505 C 0.88746 0.02906 0.0215 0.0
N2506 N 0.89563 0.09532 0.01989 0.0
N2507 N 0.89748 0.04444 0.01803 0.0
H2508 H 0.70441 0.09289 0.79145 0.0
H2509 H 0.64783 0.17957 0.75593 0.0
H2510 H 0.73224 0.14175 0.77263 0.0
H2511 H 0.62923 0.14309 0.79869 0.0
H2512 H 0.67711 0.16276 0.7549 0.0
H2513 H 0.67512 0.10801 0.7866 0.0
C2514 C 0.70442 0.10676 0.78606 0.0
C2515 C 0.72092 0.11612 0.78264 0.0
C2516 C 0.66648 0.15836 0.76431 0.0
C2517 C 0.6871 0.13352 0.77698 0.0
C2518 C 0.64973 0.16781 0.76482 0.0
C2519 C 0.63606 0.16269 0.77743 0.0
C2520 C 0.66933 0.14344 0.77617 0.0
C2521 C 0.63936 0.14749 0.78876 0.0
C2522 C 0.68761 0.11539 0.78336 0.0
C2523 C 0.71988 0.13403 0.7755 0.0
N2524 N 0.65562 0.13839 0.78783 0.0
N2525 N 0.7032 0.14223 0.77299 0.0
H2526 H 0.87211 0.86153 0.27122 0.0
H2527 H 0.76187 0.86008 0.27117 0.0
H2528 H 0.8391 0.81235 0.27289 0.0
H2529 H 0.79369 0.91002 0.27319 0.0
H2530 H 0.79031 0.84255 0.26793 0.0
H2531 H 0.84381 0.87982 0.26861 0.0
C2532 C 0.85898 0.85459 0.27091 0.0
C2533 C 0.85799 0.83541 0.27246 0.0
C2534 C 0.79107 0.85738 0.26886 0.0
C2535 C 0.82565 0.85612 0.26938 0.0
C2536 C 0.77479 0.8674 0.27056 0.0
C2537 C 0.77535 0.88655 0.27251 0.0
C2538 C 0.80808 0.86655 0.26914 0.0
C2539 C 0.79257 0.89526 0.27181 0.0
C2540 C 0.84283 0.86501 0.26944 0.0
C2541 C 0.84058 0.82712 0.27196 0.0
N2542 N 0.80823 0.8852 0.27034 0.0
N2543 N 0.82518 0.83749 0.27053 0.0
H2544 H 0.45341 0.41343 0.11303 0.0
H2545 H 0.51909 0.38056 0.03127 0.0
H2546 H 0.51224 0.41814 0.11635 0.0
H2547 H 0.46001 0.37605 0.03169 0.0
H2548 H 0.51783 0.39273 0.06277 0.0
H2549 H 0.4565 0.39707 0.08413 0.0
C2550 C 0.46705 0.41065 0.10779 0.0
C2551 C 0.48259 0.41702 0.11709 0.0
C2552 C 0.5052 0.38898 0.05592 0.0
C2553 C 0.48633 0.3988 0.08351 0.0
C2554 C 0.5059 0.38213 0.03792 0.0
C2555 C 0.48965 0.37729 0.02872 0.0
C2556 C 0.48814 0.39095 0.06473 0.0
C2557 C 0.47295 0.37956 0.03809 0.0
C2558 C 0.46884 0.40142 0.09119 0.0
C2559 C 0.49994 0.41319 0.10966 0.0
N2560 N 0.47267 0.38619 0.05545 0.0
N2561 N 0.50136 0.40452 0.09312 0.0
H2562 H 0.35652 0.76649 0.86229 0.0
H2563 H 0.36725 0.70468 0.77288 0.0
H2564 H 0.33783 0.71031 0.86088 0.0
H2565 H 0.40812 0.74465 0.78814 0.0
H2566 H 0.35165 0.71003 0.80236 0.0
H2567 H 0.37169 0.76177 0.83258 0.0
C2568 C 0.3558 0.75311 0.85583 0.0
C2569 C 0.34612 0.73871 0.86419 0.0
C2570 C 0.36394 0.71773 0.79911 0.0
C2571 C 0.36279 0.73345 0.82992 0.0
C2572 C 0.37269 0.71486 0.78223 0.0
C2573 C 0.38894 0.72432 0.77805 0.0
C2574 C 0.37127 0.73044 0.81165 0.0
C2575 C 0.3956 0.73712 0.79083 0.0
C2576 C 0.36437 0.75046 0.83887 0.0
C2577 C 0.34541 0.7217 0.85508 0.0
N2578 N 0.38671 0.73987 0.80699 0.0
N2579 N 0.35344 0.7196 0.83834 0.0
H2580 H 0.06574 0.58377 0.59748 0.0
H2581 H 0.99323 0.62578 0.52724 0.0
H2582 H 0.00834 0.58912 0.61057 0.0
H2583 H 0.05178 0.63164 0.52075 0.0
H2584 H 0.99826 0.61247 0.55766 0.0
H2585 H 0.06086 0.60186 0.56968 0.0
C2586 C 0.05213 0.58906 0.59462 0.0
C2587 C 0.03743 0.58503 0.60635 0.0
C2588 C 0.01 0.61677 0.54964 0.0
C2589 C 0.03159 0.60535 0.5742 0.0
C2590 C 0.00717 0.62429 0.5322 0.0
C2591 C 0.02212 0.6298 0.52132 0.0
C2592 C 0.02795 0.61449 0.55625 0.0
C2593 C 0.03983 0.6276 0.52858 0.0
C2594 C 0.04934 0.59934 0.57871 0.0
C2595 C 0.02007 0.59212 0.60198 0.0
N2596 N 0.04224 0.62 0.5455 0.0
N2597 N 0.01757 0.60172 0.58609 0.0
H2598 H 0.14547 0.25139 0.2753 0.0
H2599 H 0.14489 0.3045 0.37013 0.0
H2600 H 0.10623 0.29369 0.28895 0.0
H2601 H 0.17096 0.25165 0.36462 0.0
H2602 H 0.13011 0.30006 0.34042 0.0
H2603 H 0.15489 0.25041 0.3077 0.0
C2604 C 0.13869 0.26029 0.28508 0.0
C2605 C 0.12514 0.27275 0.27928 0.0
C2606 C 0.13876 0.28922 0.3458 0.0
C2607 C 0.13594 0.2718 0.31625 0.0
C2608 C 0.14711 0.29174 0.36282 0.0
C2609 C 0.15896 0.27835 0.36989 0.0
C2610 C 0.14268 0.2734 0.33546 0.0
C2611 C 0.16164 0.26217 0.35974 0.0
C2612 C 0.14405 0.25971 0.30357 0.0
C2613 C 0.11683 0.28395 0.29263 0.0
N2614 N 0.15382 0.26027 0.34285 0.0
N2615 N 0.1225 0.28334 0.31035 0.0
H2616 H 0.47328 0.62134 0.48036 0.0
H2617 H 0.52861 0.60728 0.38821 0.0
H2618 H 0.50821 0.66486 0.46061 0.0
H2619 H 0.4713 0.59314 0.39224 0.0
H2620 H 0.52614 0.62378 0.41764 0.0
H2621 H 0.47783 0.60499 0.45122 0.0
C2622 C 0.48234 0.62718 0.47011 0.0
C2623 C 0.49054 0.64439 0.4729 0.0
C2624 C 0.51413 0.61716 0.41192 0.0
C2625 C 0.49569 0.62585 0.43971 0.0
C2626 C 0.51549 0.60787 0.39516 0.0
C2627 C 0.50008 0.59909 0.38766 0.0
C2628 C 0.49744 0.61702 0.42152 0.0
C2629 C 0.48344 0.6 0.39736 0.0
C2630 C 0.48471 0.61798 0.45345 0.0
C2631 C 0.50177 0.65156 0.45899 0.0
N2632 N 0.48262 0.60856 0.41391 0.0
N2633 N 0.5041 0.64222 0.44298 0.0
H2634 H 0.15151 0.77481 0.1365 0.0
H2635 H 0.14329 0.72161 0.23124 0.0
H2636 H 0.17197 0.7196 0.14306 0.0
H2637 H 0.09806 0.75394 0.21093 0.0
H2638 H 0.1592 0.72619 0.20181 0.0
H2639 H 0.13606 0.77216 0.16643 0.0
C2640 C 0.15258 0.76209 0.14415 0.0
C2641 C 0.16278 0.74732 0.13718 0.0
C2642 C 0.14591 0.7325 0.20397 0.0
C2643 C 0.14596 0.74454 0.17162 0.0
C2644 C 0.13697 0.73013 0.2208 0.0
C2645 C 0.11943 0.73758 0.22353 0.0
C2646 C 0.13742 0.74273 0.18999 0.0
C2647 C 0.11163 0.74809 0.20937 0.0
C2648 C 0.14387 0.76063 0.1612 0.0
C2649 C 0.16396 0.73121 0.14776 0.0
N2650 N 0.1207 0.75043 0.19322 0.0
N2651 N 0.15586 0.73033 0.16456 0.0
H2652 H 0.0201 0.39108 0.98996 0.0
H2653 H 0.02772 0.39943 0.88029 0.0
H2654 H 0.0413 0.34815 0.95509 0.0
H2655 H 0.01073 0.44357 0.91594 0.0
H2656 H 0.02882 0.37887 0.90705 0.0
H2657 H 0.01247 0.40901 0.9625 0.0
C2658 C 0.02285 0.38529 0.97655 0.0
C2659 C 0.03145 0.36815 0.97484 0.0
C2660 C 0.02467 0.39303 0.90895 0.0
C2661 C 0.02297 0.38862 0.94336 0.0
C2662 C 0.02397 0.40471 0.89366 0.0
C2663 C 0.0193 0.42326 0.8959 0.0
C2664 C 0.02057 0.39996 0.92653 0.0
C2665 C 0.01463 0.42941 0.91358 0.0
C2666 C 0.01861 0.39556 0.96086 0.0
C2667 C 0.03482 0.36138 0.95708 0.0
N2668 N 0.01549 0.41786 0.92817 0.0
N2669 N 0.03071 0.37166 0.94208 0.0
H2670 H 0.3971 0.305 0.72134 0.0
H2671 H 0.34142 0.25414 0.64145 0.0
H2672 H 0.3689 0.25357 0.73007 0.0
H2673 H 0.3644 0.30858 0.63732 0.0
H2674 H 0.35465 0.25131 0.67235 0.0
H2675 H 0.38821 0.30423 0.68932 0.0
C2676 C 0.38905 0.29345 0.71655 0.0
C2677 C 0.38365 0.27936 0.72858 0.0
C2678 C 0.357 0.26375 0.66454 0.0
C2679 C 0.37334 0.27844 0.69148 0.0
C2680 C 0.34963 0.2653 0.64683 0.0
C2681 C 0.35184 0.28164 0.63677 0.0
C2682 C 0.36672 0.27859 0.67214 0.0
C2683 C 0.36233 0.29576 0.64457 0.0
C2684 C 0.38398 0.29304 0.69815 0.0
C2685 C 0.37331 0.26477 0.72135 0.0
N2686 N 0.36926 0.29394 0.66176 0.0
N2687 N 0.3684 0.26472 0.70327 0.0
H2688 H 0.09285 0.49971 0.443 0.0
H2689 H 0.05277 0.46972 0.34578 0.0
H2690 H 0.1269 0.48113 0.39829 0.0
H2691 H 0.01922 0.48829 0.39087 0.0
H2692 H 0.08021 0.4772 0.36339 0.0
H2693 H 0.06626 0.49897 0.42286 0.0
C2694 C 0.09477 0.49562 0.42884 0.0
C2695 C 0.11213 0.49032 0.42234 0.0
C2696 C 0.06688 0.47986 0.36938 0.0
C2697 C 0.08152 0.48932 0.39914 0.0
C2698 C 0.05116 0.47562 0.35932 0.0
C2699 C 0.03363 0.47828 0.36691 0.0
C2700 C 0.06513 0.48674 0.38725 0.0
C2701 C 0.03243 0.48605 0.38447 0.0
C2702 C 0.07953 0.49522 0.41733 0.0
C2703 C 0.11378 0.48534 0.40384 0.0
N2704 N 0.04797 0.48982 0.39412 0.0
N2705 N 0.0986 0.48476 0.39292 0.0
H2706 H 0.27066 0.28294 0.10697 0.0
H2707 H 0.26946 0.3564 0.18862 0.0
H2708 H 0.28131 0.27008 0.1638 0.0
H2709 H 0.26744 0.37215 0.13152 0.0
H2710 H 0.26949 0.32433 0.17959 0.0
H2711 H 0.2649 0.31497 0.11565 0.0
C2712 C 0.2714 0.28673 0.12132 0.0
C2713 C 0.27651 0.27376 0.13469 0.0
C2714 C 0.26895 0.33474 0.16899 0.0
C2715 C 0.27013 0.31045 0.14463 0.0
C2716 C 0.26892 0.35316 0.17412 0.0
C2717 C 0.26859 0.36713 0.1608 0.0
C2718 C 0.26862 0.33003 0.15034 0.0
C2719 C 0.26778 0.36189 0.14226 0.0
C2720 C 0.26827 0.30507 0.12622 0.0
C2721 C 0.27746 0.27957 0.15301 0.0
N2722 N 0.26792 0.34374 0.13757 0.0
N2723 N 0.27441 0.29745 0.15741 0.0
H2724 H 0.4158 0.51827 0.94187 0.0
H2725 H 0.45667 0.53608 0.84233 0.0
H2726 H 0.38177 0.52451 0.89384 0.0
H2727 H 0.49 0.52419 0.88979 0.0
H2728 H 0.42921 0.52901 0.86012 0.0
H2729 H 0.44289 0.51764 0.92243 0.0
C2730 C 0.41401 0.51939 0.92716 0.0
C2731 C 0.39649 0.52165 0.91946 0.0
C2732 C 0.44252 0.52766 0.86659 0.0
C2733 C 0.42766 0.52105 0.89702 0.0
C2734 C 0.45824 0.53168 0.85645 0.0
C2735 C 0.47567 0.53082 0.86463 0.0
C2736 C 0.44417 0.52292 0.88517 0.0
C2737 C 0.47686 0.52498 0.88292 0.0
C2738 C 0.42954 0.51897 0.91605 0.0
C2739 C 0.39502 0.52278 0.90032 0.0
N2740 N 0.46129 0.52148 0.89264 0.0
N2741 N 0.41046 0.52271 0.88975 0.0
H2742 H 0.23828 0.73134 0.62277 0.0
H2743 H 0.22382 0.66445 0.70922 0.0
H2744 H 0.21677 0.75057 0.67449 0.0
H2745 H 0.23098 0.64622 0.65333 0.0
H2746 H 0.22536 0.69649 0.69839 0.0
H2747 H 0.24071 0.70049 0.63567 0.0
C2748 C 0.2344 0.72919 0.63695 0.0
C2749 C 0.22725 0.74364 0.64751 0.0
C2750 C 0.2266 0.68541 0.68856 0.0
C2751 C 0.22978 0.70813 0.66235 0.0
C2752 C 0.22569 0.66715 0.69473 0.0
C2753 C 0.22709 0.65259 0.68218 0.0
C2754 C 0.22921 0.68907 0.66977 0.0
C2755 C 0.22963 0.65692 0.66355 0.0
C2756 C 0.23564 0.71149 0.64428 0.0
C2757 C 0.22233 0.73987 0.66581 0.0
N2758 N 0.23064 0.67468 0.65797 0.0
N2759 N 0.22357 0.72248 0.67261 0.0
H2760 H 0.0508 0.53186 0.16065 0.0
H2761 H 0.08964 0.5166 0.05974 0.0
H2762 H 0.01657 0.52122 0.11355 0.0
H2763 H 0.12458 0.52389 0.10695 0.0
H2764 H 0.06306 0.51513 0.07983 0.0
H2765 H 0.07794 0.52573 0.14204 0.0
C2766 C 0.04897 0.52793 0.14643 0.0
C2767 C 0.03137 0.52714 0.13861 0.0
C2768 C 0.07651 0.51687 0.08589 0.0
C2769 C 0.0625 0.52032 0.11713 0.0
C2770 C 0.09175 0.51776 0.07441 0.0
C2771 C 0.10937 0.52057 0.08168 0.0
C2772 C 0.07877 0.51899 0.10487 0.0
C2773 C 0.11125 0.52174 0.10078 0.0
C2774 C 0.06451 0.52447 0.13581 0.0
C2775 C 0.02985 0.52192 0.12016 0.0
N2776 N 0.09608 0.52117 0.11173 0.0
N2777 N 0.04523 0.51894 0.10999 0.0
H2778 H 0.23546 0.27848 0.8696 0.0
H2779 H 0.23747 0.38709 0.88917 0.0
H2780 H 0.22417 0.30329 0.92211 0.0
H2781 H 0.24432 0.36357 0.83524 0.0
H2782 H 0.23656 0.35608 0.90206 0.0
H2783 H 0.243 0.30908 0.85734 0.0
C2784 C 0.235 0.29028 0.87864 0.0
C2785 C 0.22915 0.28837 0.89687 0.0
C2786 C 0.23841 0.3577 0.88741 0.0
C2787 C 0.23748 0.32333 0.88298 0.0
C2788 C 0.23897 0.37545 0.88005 0.0
C2789 C 0.24088 0.37803 0.86108 0.0
C2790 C 0.23974 0.34235 0.87575 0.0
C2791 C 0.24273 0.36231 0.84995 0.0
C2792 C 0.23913 0.30776 0.87162 0.0
C2793 C 0.2285 0.30416 0.90793 0.0
N2794 N 0.242 0.34519 0.85742 0.0
N2795 N 0.23248 0.32091 0.90081 0.0
H2796 H 0.42132 0.49195 0.54839 0.0
H2797 H 0.47812 0.48844 0.64212 0.0
H2798 H 0.39459 0.48709 0.60096 0.0
H2799 H 0.50081 0.47931 0.58823 0.0
H2800 H 0.44801 0.49419 0.62809 0.0
H2801 H 0.45078 0.49404 0.56369 0.0
C2802 C 0.42165 0.49144 0.56325 0.0
C2803 C 0.40549 0.48904 0.57342 0.0
C2804 C 0.45967 0.49121 0.61937 0.0
C2805 C 0.43948 0.49128 0.59114 0.0
C2806 C 0.47689 0.48809 0.62732 0.0
C2807 C 0.49204 0.48341 0.61629 0.0
C2808 C 0.45767 0.48988 0.60026 0.0
C2809 C 0.48956 0.48286 0.59725 0.0
C2810 C 0.43854 0.49262 0.57198 0.0
C2811 C 0.40675 0.48886 0.59263 0.0
N2812 N 0.47273 0.48599 0.58988 0.0
N2813 N 0.42355 0.48971 0.60092 0.0
H2814 H 0.28591 0.73087 0.36878 0.0
H2815 H 0.23203 0.63749 0.35523 0.0
H2816 H 0.25164 0.71011 0.41232 0.0
H2817 H 0.28865 0.64335 0.33904 0.0
H2818 H 0.23416 0.66695 0.37171 0.0
H2819 H 0.28155 0.70188 0.3521 0.0
C2820 C 0.27703 0.72043 0.37456 0.0
C2821 C 0.26897 0.72289 0.39187 0.0
C2822 C 0.2461 0.66164 0.36462 0.0
C2823 C 0.26405 0.68986 0.37297 0.0
C2824 C 0.24493 0.64486 0.35533 0.0
C2825 C 0.26025 0.63786 0.346 0.0
C2826 C 0.26248 0.67173 0.36397 0.0
C2827 C 0.27659 0.64808 0.34632 0.0
C2828 C 0.27477 0.70385 0.36518 0.0
C2829 C 0.25797 0.70874 0.39896 0.0
N2830 N 0.27721 0.66462 0.35494 0.0
N2831 N 0.25576 0.69282 0.38944 0.0
H2832 H 0.39557 0.01462 0.46688 0.0
H2833 H 0.39756 0.1232 0.48735 0.0
H2834 H 0.34671 0.04679 0.47609 0.0
H2835 H 0.4444 0.09128 0.47005 0.0
H2836 H 0.37895 0.09497 0.48688 0.0
H2837 H 0.41411 0.04217 0.47204 0.0
C2838 C 0.38876 0.02739 0.47032 0.0
C2839 C 0.36956 0.02839 0.471 0.0
C2840 C 0.39333 0.09422 0.48326 0.0
C2841 C 0.39067 0.06009 0.47674 0.0
C2842 C 0.40394 0.11032 0.48355 0.0
C2843 C 0.42255 0.10968 0.47865 0.0
C2844 C 0.40146 0.07741 0.47816 0.0
C2845 C 0.4301 0.09255 0.47384 0.0
C2846 C 0.39933 0.04318 0.47312 0.0
C2847 C 0.36148 0.0454 0.47532 0.0
N2848 N 0.41956 0.0772 0.4737 0.0
N2849 N 0.37204 0.06058 0.47793 0.0
H2850 H 0.92173 0.39706 0.54278 0.0
H2851 H 0.85153 0.46954 0.50529 0.0
H2852 H 0.90473 0.39432 0.48616 0.0
H2853 H 0.89638 0.48639 0.54001 0.0
H2854 H 0.86702 0.44004 0.50018 0.0
H2855 H 0.90786 0.42767 0.54508 0.0
C2856 C 0.91476 0.40274 0.53094 0.0
C2857 C 0.91422 0.39306 0.51427 0.0
C2858 C 0.87355 0.45032 0.5087 0.0
C2859 C 0.89844 0.42804 0.51686 0.0
C2860 C 0.8648 0.46716 0.51155 0.0
C2861 C 0.87269 0.48045 0.52306 0.0
C2862 C 0.88999 0.44651 0.51792 0.0
C2863 C 0.88982 0.47658 0.53099 0.0
C2864 C 0.9071 0.42029 0.53221 0.0
C2865 C 0.90535 0.40127 0.49927 0.0
N2866 N 0.89774 0.45979 0.52859 0.0
N2867 N 0.89763 0.41823 0.50095 0.0
H2868 H 0.34068 0.1996 0.25946 0.0
H2869 H 0.30155 0.10141 0.2876 0.0
H2870 H 0.37518 0.15445 0.27625 0.0
H2871 H 0.2675 0.14629 0.26921 0.0
H2872 H 0.32879 0.11935 0.28022 0.0
H2873 H 0.31424 0.1792 0.25961 0.0
C2874 C 0.34273 0.18528 0.263 0.0
C2875 C 0.36016 0.17874 0.268 0.0
C2876 C 0.31539 0.12523 0.27757 0.0
C2877 C 0.32974 0.15524 0.26836 0.0
C2878 C 0.29979 0.11499 0.28177 0.0
C2879 C 0.28218 0.12243 0.27914 0.0
C2880 C 0.31346 0.14315 0.27078 0.0
C2881 C 0.28078 0.14002 0.27144 0.0
C2882 C 0.32758 0.17363 0.26307 0.0
C2883 C 0.362 0.16005 0.27228 0.0
N2884 N 0.29623 0.14987 0.26773 0.0
N2885 N 0.34691 0.14899 0.27258 0.0
H2886 H 0.5879 0.61225 0.04247 0.0
H2887 H 0.65656 0.53872 1.00379 0.0
H2888 H 0.6018 0.61299 0.98494 0.0
H2889 H 0.61471 0.52354 0.04265 0.0
H2890 H 0.64038 0.56784 0.99817 0.0
H2891 H 0.60225 0.58191 0.04519 0.0
C2892 C 0.59428 0.6062 0.03048 0.0
C2893 C 0.5938 0.61524 0.01346 0.0
C2894 C 0.63456 0.55795 0.00763 0.0
C2895 C 0.61013 0.58053 0.01653 0.0
C2896 C 0.64366 0.54133 0.01071 0.0
C2897 C 0.63665 0.5286 0.02333 0.0
C2898 C 0.61879 0.56215 0.01784 0.0
C2899 C 0.62025 0.53282 0.03244 0.0
C2900 C 0.60222 0.58879 0.03202 0.0
C2901 C 0.60197 0.60654 0.99833 0.0
N2902 N 0.61202 0.54941 0.02978 0.0
N2903 N 0.60996 0.58973 1.00024 0.0
H2904 H 0.73149 0.38665 0.26065 0.0
H2905 H 0.64828 0.34582 0.31432 0.0
H2906 H 0.73832 0.34684 0.30407 0.0
H2907 H 0.64475 0.34367 0.25519 0.0
H2908 H 0.68028 0.35494 0.31177 0.0
H2909 H 0.69877 0.37812 0.25872 0.0
C2910 C 0.72625 0.37592 0.26952 0.0
C2911 C 0.73773 0.36745 0.28255 0.0
C2912 C 0.67242 0.35266 0.29936 0.0
C2913 C 0.70044 0.35824 0.28077 0.0
C2914 C 0.65407 0.34757 0.30075 0.0
C2915 C 0.64372 0.34383 0.28493 0.0
C2916 C 0.68054 0.35441 0.28205 0.0
C2917 C 0.65219 0.34641 0.26775 0.0
C2918 C 0.70762 0.37114 0.26841 0.0
C2919 C 0.73012 0.35375 0.29378 0.0
N2920 N 0.67018 0.35156 0.26673 0.0
N2921 N 0.71194 0.34984 0.29287 0.0
H2922 H 0.07937 0.89889 0.00642 0.0
H2923 H 0.15343 0.97476 0.97908 0.0
H2924 H 0.12037 0.88919 0.96488 0.0
H2925 H 0.09682 0.98871 0.98926 0.0
H2926 H 0.14576 0.94217 0.98291 0.0
H2927 H 0.09022 0.93073 0.00918 0.0
C2928 C 0.09101 0.90328 0.99828 0.0
C2929 C 0.09908 0.89134 0.98545 0.0
C2930 C 0.13513 0.95243 0.98464 0.0
C2931 C 0.11151 0.92764 0.98864 0.0
C2932 C 0.13949 0.97103 0.98262 0.0
C2933 C 0.12573 0.98451 0.9839 0.0
C2934 C 0.11698 0.94727 0.9884 0.0
C2935 C 0.10784 0.97879 0.98818 0.0
C2936 C 0.09704 0.92148 0.99974 0.0
C2937 C 0.11383 0.89792 0.97497 0.0
N2938 N 0.10397 0.9606 0.9903 0.0
N2939 N 0.11961 0.91562 0.97681 0.0
H2940 H 0.26121 0.85472 0.25293 0.0
H2941 H 0.36917 0.85875 0.23138 0.0
H2942 H 0.28708 0.90014 0.22498 0.0
H2943 H 0.34062 0.81121 0.25204 0.0
H2944 H 0.34046 0.87652 0.23388 0.0
H2945 H 0.29143 0.84099 0.25773 0.0
C2946 C 0.27323 0.86194 0.24802 0.0
C2947 C 0.27151 0.87853 0.2384 0.0
C2948 C 0.3406 0.86227 0.23812 0.0
C2949 C 0.30626 0.86278 0.24368 0.0
C2950 C 0.35699 0.85221 0.23683 0.0
C2951 C 0.35716 0.83351 0.24139 0.0
C2952 C 0.32445 0.85352 0.2442 0.0
C2953 C 0.34099 0.82558 0.24819 0.0
C2954 C 0.29052 0.85406 0.2507 0.0
C2955 C 0.28768 0.88726 0.23237 0.0
N2956 N 0.32532 0.83556 0.24929 0.0
N2957 N 0.30433 0.8792 0.23495 0.0
H2958 H 0.16404 0.19834 0.74862 0.0
H2959 H 0.22296 0.10849 0.7289 0.0
H2960 H 0.13938 0.14703 0.73246 0.0
H2961 H 0.24553 0.15935 0.74931 0.0
H2962 H 0.1921 0.12085 0.73316 0.0
H2963 H 0.19342 0.18291 0.75221 0.0
C2964 C 0.16482 0.18369 0.74603 0.0
C2965 C 0.14933 0.17393 0.74011 0.0
C2966 C 0.20379 0.1292 0.73697 0.0
C2967 C 0.18315 0.15614 0.74387 0.0
C2968 C 0.22147 0.12216 0.73458 0.0
C2969 C 0.23697 0.13296 0.73861 0.0
C2970 C 0.20152 0.14721 0.74342 0.0
C2971 C 0.23407 0.15054 0.74593 0.0
C2972 C 0.18162 0.17488 0.74808 0.0
C2973 C 0.15103 0.155 0.7371 0.0
N2974 N 0.21673 0.15715 0.74791 0.0
N2975 N 0.16776 0.14673 0.73873 0.0
H2976 H 0.01221 0.96002 0.22556 0.0
H2977 H 0.01884 0.05174 0.28619 0.0
H2978 H 0.01984 0.0143 0.20293 0.0
H2979 H 0.00946 0.99774 0.30881 0.0
H2980 H 0.01713 0.03854 0.2553 0.0
H2981 H 0.00928 0.97376 0.25614 0.0
C2982 C 0.01313 0.97479 0.22699 0.0
C2983 C 0.01637 0.98599 0.21169 0.0
C2984 C 0.01529 0.02962 0.26705 0.0
C2985 C 0.01309 1.00181 0.24653 0.0
C2986 C 0.01618 0.03718 0.28466 0.0
C2987 C 0.0144 0.02583 0.30009 0.0
C2988 C 0.01262 0.01059 0.26489 0.0
C2989 C 0.01106 0.00701 0.29731 0.0
C2990 C 0.01148 0.98265 0.24443 0.0
C2991 C 0.01747 0.00509 0.21434 0.0
N2992 N 0.0104 0.99998 0.28009 0.0
N2993 N 0.01592 0.01236 0.2314 0.0
H2994 H 0.20951 0.76686 0.54124 0.0
H2995 H 0.29865 0.75913 0.47677 0.0
H2996 H 0.26466 0.76149 0.56214 0.0
H2997 H 0.24407 0.77074 0.45692 0.0
H2998 H 0.28619 0.75652 0.508 0.0
H2999 H 0.22162 0.76466 0.50997 0.0
C3000 C 0.22412 0.76495 0.53927 0.0
C3001 C 0.23607 0.76442 0.55434 0.0
C3002 C 0.27696 0.75954 0.49676 0.0
C3003 C 0.25009 0.76205 0.51859 0.0
C3004 C 0.28407 0.76099 0.47895 0.0
C3005 C 0.27244 0.7653 0.46423 0.0
C3006 C 0.25807 0.7623 0.4998 0.0
C3007 C 0.25362 0.76757 0.46785 0.0
C3008 C 0.23106 0.7638 0.52141 0.0
C3009 C 0.25492 0.76206 0.55094 0.0
N3010 N 0.24707 0.7661 0.48521 0.0
N3011 N 0.26134 0.76106 0.53346 0.0
H3012 H 0.48717 0.01473 0.80825 0.0
H3013 H 0.49486 0.99663 0.70058 0.0
H3014 H 0.49262 0.96067 0.78457 0.0
H3015 H 0.49055 0.05079 0.72426 0.0
H3016 H 0.49614 0.98348 0.73124 0.0
H3017 H 0.49038 0.02821 0.77787 0.0
C3018 C 0.48914 0.00565 0.79665 0.0
C3019 C 0.4895 0.98649 0.79897 0.0
C3020 C 0.49504 0.99824 0.72979 0.0
C3021 C 0.49316 1.00196 0.76397 0.0
C3022 C 0.4943 0.00581 0.71225 0.0
C3023 C 0.49248 0.02488 0.70983 0.0
C3024 C 0.49385 0.00977 0.74514 0.0
C3025 C 0.49196 0.03604 0.72549 0.0
C3026 C 0.49099 0.01341 0.77927 0.0
C3027 C 0.49223 0.97549 0.78342 0.0
N3028 N 0.4925 0.02829 0.7425 0.0
N3029 N 0.49383 0.98339 0.76655 0.0
H3030 H 0.20763 0.2452 0.97466 0.0
H3031 H 0.29992 0.24313 0.03486 0.0
H3032 H 0.26208 0.24065 0.95183 0.0
H3033 H 0.2454 0.24376 0.05795 0.0
H3034 H 0.28639 0.2456 1.00413 0.0
H3035 H 0.22128 0.24794 0.00532 0.0
C3036 C 0.22242 0.24492 0.97608 0.0
C3037 C 0.2337 0.24253 0.9607 0.0
C3038 C 0.27741 0.24535 0.01596 0.0
C3039 C 0.24942 0.24564 0.9956 0.0
C3040 C 0.28515 0.24403 0.03348 0.0
C3041 C 0.27378 0.24311 0.04895 0.0
C3042 C 0.2582 0.24581 0.01397 0.0
C3043 C 0.2547 0.24424 0.04638 0.0
C3044 C 0.23022 0.24645 0.99356 0.0
C3045 C 0.25281 0.24228 0.96331 0.0
N3046 N 0.24752 0.24543 0.02925 0.0
N3047 N 0.26004 0.24372 0.98039 0.0
H3048 H 0.19912 0.02297 0.01552 0.0
H3049 H 0.30716 0.01508 0.99923 0.0
H3050 H 0.22341 0.01784 0.96177 0.0
H3051 H 0.28236 0.01928 0.05283 0.0
H3052 H 0.27674 0.01442 0.98542 0.0
H3053 H 0.22934 0.01999 0.02929 0.0
C3054 C 0.21083 0.02113 0.00656 0.0
C3055 C 0.20869 0.02075 0.98739 0.0
C3056 C 0.2779 0.01538 1.0002 0.0
C3057 C 0.24359 0.01737 1.00325 0.0
C3058 C 0.2953 0.01576 0.00815 0.0
C3059 C 0.29736 0.01732 0.02728 0.0
C3060 C 0.26232 0.01663 0.01138 0.0
C3061 C 0.28145 0.01806 0.03806 0.0
C3062 C 0.22813 0.01942 0.01449 0.0
C3063 C 0.2244 0.0182 0.97658 0.0
N3064 N 0.2646 0.01781 0.02995 0.0
N3065 N 0.24122 0.01673 0.98467 0.0
H3066 H 0.25078 0.06041 0.24408 0.0
H3067 H 0.23534 0.95319 0.26117 0.0
H3068 H 0.23856 0.03708 0.29714 0.0
H3069 H 0.2454 0.97652 0.20764 0.0
H3070 H 0.23876 0.98347 0.27476 0.0
H3071 H 0.25138 0.02965 0.23097 0.0
C3072 C 0.24839 0.04878 0.25305 0.0
C3073 C 0.24453 0.05135 0.27176 0.0
C3074 C 0.2403 0.98202 0.26006 0.0
C3075 C 0.24509 0.01598 0.2567 0.0
C3076 C 0.23834 0.96469 0.25222 0.0
C3077 C 0.24 0.96229 0.23316 0.0
C3078 C 0.24395 0.99719 0.24881 0.0
C3079 C 0.24399 0.97773 0.22237 0.0
C3080 C 0.24871 0.0312 0.2455 0.0
C3081 C 0.24164 0.03575 0.28267 0.0
N3082 N 0.24574 0.99456 0.23035 0.0
N3083 N 0.24185 0.01873 0.27494 0.0
H3084 H 0.19995 0.99881 0.49221 0.0
H3085 H 0.30702 0.98141 0.50782 0.0
H3086 H 0.22382 0.988 0.54531 0.0
H3087 H 0.28317 0.99286 0.45482 0.0
H3088 H 0.27704 0.9855 0.52194 0.0
H3089 H 0.23049 0.99865 0.47868 0.0
C3090 C 0.21165 0.99655 0.50109 0.0
C3091 C 0.2093 0.99333 0.51995 0.0
C3092 C 0.27833 0.98722 0.50724 0.0
C3093 C 0.24445 0.993 0.50441 0.0
C3094 C 0.29548 0.98486 0.49911 0.0
C3095 C 0.29764 0.98672 0.48004 0.0
C3096 C 0.2631 0.99142 0.49627 0.0
C3097 C 0.28216 0.99128 0.46955 0.0
C3098 C 0.22912 0.99644 0.49331 0.0
C3099 C 0.22499 0.99058 0.53073 0.0
N3100 N 0.26552 0.99339 0.4778 0.0
N3101 N 0.2419 0.99034 0.52278 0.0
H3102 H 0.27003 0.05876 0.7624 0.0
H3103 H 0.26548 0.95076 0.74435 0.0
H3104 H 0.26724 0.03489 0.70828 0.0
H3105 H 0.26802 0.9747 0.79846 0.0
H3106 H 0.2642 0.98139 0.73108 0.0
H3107 H 0.26741 0.02827 0.77577 0.0
C3108 C 0.26878 0.04709 0.75328 0.0
C3109 C 0.26896 0.0494 0.73413 0.0
C3110 C 0.26493 0.98 0.74585 0.0
C3111 C 0.26599 0.01427 0.74951 0.0
C3112 C 0.26567 0.96248 0.7535 0.0
C3113 C 0.26696 0.96013 0.7726 0.0
C3114 C 0.26555 0.99542 0.75734 0.0
C3115 C 0.26703 0.97586 0.78369 0.0
C3116 C 0.26727 0.02965 0.76098 0.0
C3117 C 0.26716 0.03375 0.72308 0.0
N3118 N 0.26646 0.99285 0.77588 0.0
N3119 N 0.26586 0.01682 0.73094 0.0
H3120 H 0.96154 0.22104 0.01027 0.0
H3121 H 0.05197 0.28324 0.02017 0.0
H3122 H 0.01368 0.20095 0.03 0.0
H3123 H 0.99816 0.30512 0.00854 0.0
H3124 H 0.03899 0.25217 0.01964 0.0
H3125 H 0.97548 0.25139 0.00573 0.0
C3126 C 0.97589 0.22298 0.01357 0.0
C3127 C 0.98639 0.20849 0.02068 0.0
C3128 C 0.03006 0.26378 0.01704 0.0
C3129 C 1.00245 0.24302 0.01542 0.0
C3130 C 0.03751 0.28149 0.01723 0.0
C3131 C 0.02611 0.29676 0.01453 0.0
C3132 C 0.01114 0.26139 0.01403 0.0
C3133 C 0.00743 0.29372 0.01087 0.0
C3134 C 0.98385 0.24028 0.01098 0.0
C3135 C 0.00498 0.21175 0.02465 0.0
N3136 N 1.00051 0.27641 0.01082 0.0
N3137 N 0.01238 0.22864 0.02202 0.0
H3138 H 0.49589 0.20148 0.99074 0.0
H3139 H 0.51437 0.30942 0.99114 0.0
H3140 H 0.55014 0.22523 0.99115 0.0
H3141 H 0.46017 0.28558 0.99239 0.0
H3142 H 0.52764 0.27882 0.99318 0.0
H3143 H 0.48271 0.23205 0.99339 0.0
C3144 C 0.50508 0.21314 0.99149 0.0
C3145 C 0.52419 0.21079 0.99057 0.0
C3146 C 0.51286 0.28023 0.99314 0.0
C3147 C 0.50906 0.24599 0.99357 0.0
C3148 C 0.50522 0.29773 0.99195 0.0
C3149 C 0.48609 0.30007 0.99147 0.0
C3150 C 0.50132 0.26485 0.99376 0.0
C3151 C 0.47497 0.28441 0.99271 0.0
C3152 C 0.49749 0.23063 0.99302 0.0
C3153 C 0.53535 0.22642 0.99177 0.0
N3154 N 0.48277 0.26744 0.99366 0.0
N3155 N 0.5276 0.24339 0.99307 0.0
H3156 H 0.94892 0.26552 0.22883 0.0
H3157 H 0.05527 0.24943 0.24903 0.0
H3158 H 0.97156 0.21308 0.2448 0.0
H3159 H 0.03222 0.30248 0.23602 0.0
H3160 H 0.02457 0.23633 0.24922 0.0
H3161 H 0.97897 0.2795 0.23284 0.0
C3162 C 0.96022 0.25691 0.23323 0.0
C3163 C 0.95772 0.23802 0.23637 0.0
C3164 C 0.02615 0.25086 0.24646 0.0
C3165 C 0.99231 0.25408 0.24099 0.0
C3166 C 0.04371 0.25839 0.24634 0.0
C3167 C 0.04634 0.2771 0.24238 0.0
C3168 C 0.01101 0.26205 0.24247 0.0
C3169 C 0.03082 0.28802 0.23915 0.0
C3170 C 0.9774 0.26496 0.23556 0.0
C3171 C 0.97287 0.22766 0.24218 0.0
N3172 N 0.01381 0.28028 0.23911 0.0
N3173 N 0.98955 0.23581 0.2442 0.0
H3174 H 0.99702 0.70131 0.49179 0.0
H3175 H 0.01455 0.80913 0.48435 0.0
H3176 H 0.05104 0.72521 0.48784 0.0
H3177 H 0.961 0.78542 0.49312 0.0
H3178 H 0.0282 0.77873 0.48699 0.0
H3179 H 0.98384 0.73197 0.49388 0.0
C3180 C 0.00616 0.71304 0.49151 0.0
C3181 C 0.02519 0.7107 0.48953 0.0
C3182 C 0.01349 0.78014 0.48846 0.0
C3183 C 0.01006 0.74598 0.49178 0.0
C3184 C 0.00563 0.79752 0.48692 0.0
C3185 C 0.98654 0.79983 0.4884 0.0
C3186 C 1.00222 0.76483 0.49141 0.0
C3187 C 0.97576 0.78427 0.49186 0.0
C3188 C 0.99858 0.73057 0.49271 0.0
C3189 C 0.03632 0.72639 0.48939 0.0
N3190 N 0.98374 0.7674 0.49311 0.0
N3191 N 0.02856 0.7434 0.49031 0.0
H3192 H 0.49428 0.81538 0.5127 0.0
H3193 H 0.51583 0.70817 0.52099 0.0
H3194 H 0.54893 0.79318 0.51803 0.0
H3195 H 0.46151 0.7294 0.51067 0.0
H3196 H 0.52811 0.73913 0.51877 0.0
H3197 H 0.48214 0.78422 0.51064 0.0
C3198 C 0.50378 0.80395 0.51328 0.0
C3199 C 0.52269 0.80694 0.51561 0.0
C3200 C 0.51352 0.73709 0.51688 0.0
C3201 C 0.50876 0.77109 0.51339 0.0
C3202 C 0.50644 0.71936 0.51819 0.0
C3203 C 0.48754 0.71615 0.51613 0.0
C3204 C 0.50166 0.7519 0.51361 0.0
C3205 C 0.47615 0.73123 0.51236 0.0
C3206 C 0.49679 0.78613 0.51211 0.0
C3207 C 0.53428 0.79156 0.51621 0.0
N3208 N 0.48337 0.74849 0.51136 0.0
N3209 N 0.52711 0.77431 0.51526 0.0
H3210 H 0.03497 0.71283 0.26051 0.0
H3211 H 0.97368 0.80435 0.26816 0.0
H3212 H 0.05694 0.76659 0.27231 0.0
H3213 H 0.95123 0.74996 0.26107 0.0
H3214 H 0.00464 0.79119 0.26658 0.0
H3215 H 0.00434 0.72656 0.25768 0.0
C3216 C 0.03338 0.7275 0.26238 0.0
C3217 C 0.04852 0.73853 0.26678 0.0
C3218 C 0.99291 0.78217 0.26524 0.0
C3219 C 0.0136 0.75436 0.26356 0.0
C3220 C 0.97525 0.7897 0.26605 0.0
C3221 C 0.95985 0.77825 0.26485 0.0
C3222 C 0.99515 0.76306 0.26314 0.0
C3223 C 0.96271 0.75932 0.26221 0.0
C3224 C 0.01591 0.73535 0.2608 0.0
C3225 C 0.04566 0.7575 0.26906 0.0
N3226 N 0.97996 0.75234 0.26153 0.0
N3227 N 0.02858 0.76478 0.26748 0.0
H3228 H 0.55869 0.26911 0.77091 0.0
H3229 H 0.45061 0.25291 0.76363 0.0
H3230 H 0.53423 0.21556 0.76415 0.0
H3231 H 0.47524 0.30654 0.76905 0.0
H3232 H 0.48106 0.23925 0.76207 0.0
H3233 H 0.52845 0.28306 0.76856 0.0
C3234 C 0.54695 0.26024 0.76884 0.0
C3235 C 0.54903 0.24107 0.76781 0.0
C3236 C 0.47986 0.25401 0.76348 0.0
C3237 C 0.51416 0.25711 0.76516 0.0
C3238 C 0.46244 0.26188 0.76438 0.0
C3239 C 0.46033 0.28095 0.76657 0.0
C3240 C 0.49542 0.26524 0.76484 0.0
C3241 C 0.4762 0.2918 0.76734 0.0
C3242 C 0.52964 0.26828 0.76748 0.0
C3243 C 0.53328 0.23037 0.76501 0.0
N3244 N 0.49308 0.28377 0.76661 0.0
N3245 N 0.51649 0.23854 0.7639 0.0
H3246 H 0.01402 0.97112 0.71919 0.0
H3247 H 0.97029 0.04085 0.79241 0.0
H3248 H 0.96026 0.99553 0.71487 0.0
H3249 H 0.02726 0.02473 0.79435 0.0
H3250 H 0.96637 0.02264 0.76476 0.0
H3251 H 0.01899 0.98844 0.74787 0.0
C3252 C 1.0032 0.97989 0.72441 0.0
C3253 C 0.98672 0.98193 0.71464 0.0
C3254 C 0.97979 0.02313 0.77111 0.0
C3255 C 0.99231 1.00178 0.74714 0.0
C3256 C 0.98207 0.03362 0.78693 0.0
C3257 C 0.99917 0.03443 0.79574 0.0
C3258 C 0.99468 0.01319 0.76393 0.0
C3259 C 0.01386 0.02463 0.78794 0.0
C3260 C 0.00609 0.98988 0.74065 0.0
C3261 C 0.97323 0.99361 0.72187 0.0
N3262 N 0.01127 0.01434 0.77252 0.0
N3263 N 0.97632 1.00305 0.73759 0.0
H3264 H 0.71123 0.24838 0.53527 0.0
H3265 H 0.80242 0.23346 0.47494 0.0
H3266 H 0.76234 0.22794 0.55718 0.0
H3267 H 0.74981 0.24841 0.45224 0.0
H3268 H 0.78887 0.23456 0.50578 0.0
H3269 H 0.72595 0.25148 0.50515 0.0
C3270 C 0.72553 0.24464 0.53378 0.0
C3271 C 0.7355 0.2378 0.54877 0.0
C3272 C 0.78034 0.23774 0.49403 0.0
C3273 C 0.75246 0.2413 0.51438 0.0
C3274 C 0.78812 0.2372 0.47645 0.0
C3275 C 0.77721 0.2407 0.46099 0.0
C3276 C 0.76159 0.24192 0.49613 0.0
C3277 C 0.7587 0.2454 0.46375 0.0
C3278 C 0.73394 0.24638 0.51659 0.0
C3279 C 0.75404 0.23318 0.54602 0.0
N3280 N 0.75148 0.24581 0.48092 0.0
N3281 N 0.76188 0.23496 0.52921 0.0
H3282 H 0.54622 0.01113 0.31394 0.0
H3283 H 0.49716 0.04883 0.22272 0.0
H3284 H 0.49312 0.99338 0.29472 0.0
H3285 H 0.55291 0.06205 0.23768 0.0
H3286 H 0.49375 0.03228 0.25174 0.0
H3287 H 0.54734 0.03348 0.28866 0.0
C3288 C 0.53471 0.01212 0.3046 0.0
C3289 C 0.51964 1.00027 0.30636 0.0
C3290 C 0.50667 0.039 0.24878 0.0
C3291 C 0.52079 0.02572 0.27747 0.0
C3292 C 0.50857 0.04858 0.23224 0.0
C3293 C 0.52537 0.05679 0.22767 0.0
C3294 C 0.52166 0.03763 0.26088 0.0
C3295 C 0.53972 0.05585 0.24055 0.0
C3296 C 0.53537 0.02481 0.29013 0.0
C3297 C 0.50512 1.00209 0.29379 0.0
N3298 N 0.53759 0.04632 0.25646 0.0
N3299 N 0.5061 0.01445 0.27988 0.0
H3300 H 0.74624 0.76151 0.05905 0.0
H3301 H 0.76172 0.77018 0.9511 0.0
H3302 H 0.79972 0.76554 0.03397 0.0
H3303 H 0.70852 0.7616 0.97563 0.0
H3304 H 0.77589 0.7669 0.98115 0.0
H3305 H 0.73237 0.75976 0.02867 0.0
C3306 C 0.75511 0.76187 0.04713 0.0
C3307 C 0.77419 0.76378 0.04906 0.0
C3308 C 0.76113 0.7656 0.98001 0.0
C3309 C 0.7583 0.76192 0.01413 0.0
C3310 C 0.75298 0.76751 0.96282 0.0
C3311 C 0.73385 0.76628 0.96085 0.0
C3312 C 0.75011 0.76256 0.99547 0.0
C3313 C 0.72331 0.76267 0.97653 0.0
C3314 C 0.74715 0.76086 0.02977 0.0
C3315 C 0.78496 0.76405 0.03313 0.0
N3316 N 0.73157 0.76108 0.99322 0.0
N3317 N 0.77685 0.76331 0.01632 0.0
H3318 H 0.72332 0.98992 0.95865 0.0
H3319 H 0.7853 0.99067 0.04971 0.0
H3320 H 0.70127 0.99351 0.01351 0.0
H3321 H 0.80737 0.99168 0.99475 0.0
H3322 H 0.7543 0.99262 0.03673 0.0
H3323 H 0.75435 0.99143 0.97158 0.0
C3324 C 0.72498 0.9912 0.97336 0.0
C3325 C 0.70967 0.99153 0.98499 0.0
C3326 C 0.76596 0.99252 0.02754 0.0
C3327 C 0.74506 0.99314 0.9999 0.0
C3328 C 0.78365 0.99144 0.03496 0.0
C3329 C 0.79895 0.99091 0.02333 0.0
C3330 C 0.7636 0.99302 0.00836 0.0
C3331 C 0.79599 0.99193 0.00429 0.0
C3332 C 0.74269 0.99201 0.98076 0.0
C3333 C 0.71265 0.99312 1.00398 0.0
N3334 N 0.77871 0.99283 0.99742 0.0
N3335 N 0.72996 0.99377 0.01083 0.0
H3336 H 0.765 0.05878 0.74655 0.0
H3337 H 0.77363 0.95105 0.76527 0.0
H3338 H 0.76934 0.03539 0.8008 0.0
H3339 H 0.76631 0.97424 0.71125 0.0
H3340 H 0.77079 0.9816 0.77851 0.0
H3341 H 0.76406 0.02798 0.7336 0.0
C3342 C 0.76566 0.04715 0.7558 0.0
C3343 C 0.76737 0.04971 0.77484 0.0
C3344 C 0.7697 0.98005 0.76378 0.0
C3345 C 0.76637 0.01421 0.75995 0.0
C3346 C 0.77135 0.96257 0.75615 0.0
C3347 C 0.77031 0.96004 0.73705 0.0
C3348 C 0.76706 0.99527 0.75228 0.0
C3349 C 0.76722 0.97553 0.72602 0.0
C3350 C 0.76511 0.02952 0.74834 0.0
C3351 C 0.76802 0.03407 0.78606 0.0
N3352 N 0.76582 0.9925 0.73379 0.0
N3353 N 0.76766 0.01699 0.77844 0.0
H3354 H 0.69888 0.0341 0.49221 0.0
H3355 H 0.80335 0.00519 0.50704 0.0
H3356 H 0.71937 0.01098 0.54278 0.0
H3357 H 0.78183 0.02418 0.45524 0.0
H3358 H 0.77248 0.00568 0.51982 0.0
H3359 H 0.72879 0.02944 0.4782 0.0
C3360 C 0.70967 0.028 0.50041 0.0
C3361 C 0.7066 0.02302 0.51879 0.0
C3362 C 0.77443 0.00958 0.50561 0.0
C3363 C 0.74106 0.0176 0.50267 0.0
C3364 C 0.79207 0.0093 0.49827 0.0
C3365 C 0.79518 0.01476 0.48005 0.0
C3366 C 0.75972 0.01553 0.49473 0.0
C3367 C 0.78004 0.01982 0.46932 0.0
C3368 C 0.72677 0.02529 0.49233 0.0
C3369 C 0.72113 0.01509 0.52861 0.0
N3370 N 0.76296 0.02027 0.47689 0.0
N3371 N 0.73777 0.01271 0.52045 0.0
H3372 H 0.73264 0.96895 0.29662 0.0
H3373 H 0.73889 0.03337 0.20716 0.0
H3374 H 0.72964 0.94869 0.24106 0.0
H3375 H 0.73585 0.05418 0.26251 0.0
H3376 H 0.73843 1.00199 0.21943 0.0
H3377 H 0.7366 1.00017 0.28451 0.0
C3378 C 0.7329 0.97104 0.28191 0.0
C3379 C 0.73067 0.95618 0.26987 0.0
C3380 C 0.73797 0.01344 0.22889 0.0
C3381 C 0.73525 0.99181 0.25589 0.0
C3382 C 0.73831 0.03136 0.22187 0.0
C3383 C 0.73733 0.04644 0.23379 0.0
C3384 C 0.73672 0.0106 0.24796 0.0
C3385 C 0.73652 0.04299 0.25276 0.0
C3386 C 0.73514 0.98886 0.27498 0.0
C3387 C 0.73115 0.95971 0.2509 0.0
N3388 N 0.73618 0.02548 0.25923 0.0
N3389 N 0.73335 0.97711 0.24452 0.0
H3390 H 0.05187 0.78495 0.99613 0.0
H3391 H 0.95952 0.72469 0.99371 0.0
H3392 H 0.99742 0.8081 0.99343 0.0
H3393 H 0.01403 0.70155 0.99252 0.0
H3394 H 0.97309 0.75539 0.99658 0.0
H3395 H 0.03823 0.75419 0.9978 0.0
C3396 C 0.03708 0.78359 0.99608 0.0
C3397 C 0.0258 0.79913 0.99455 0.0
C3398 C 0.98206 0.74357 0.99582 0.0
C3399 C 0.01007 0.76402 0.99636 0.0
C3400 C 0.9743 0.72604 0.99425 0.0
C3401 C 0.98563 0.71053 0.99277 0.0
C3402 C 1.00128 0.74558 0.99599 0.0
C3403 C 0.00473 0.71312 0.99348 0.0
C3404 C 0.02928 0.76603 0.99696 0.0
C3405 C 0.00668 0.79652 0.99448 0.0
N3406 N 0.01193 0.73026 0.99496 0.0
N3407 N 0.99945 0.77935 0.99528 0.0
H3408 H 0.45825 0.78289 0.01589 0.0
H3409 H 0.55112 0.72332 0.01631 0.0
H3410 H 0.51247 0.80667 0.01653 0.0
H3411 H 0.49678 0.70015 0.02042 0.0
H3412 H 0.53729 0.75395 0.01321 0.0
H3413 H 0.47218 0.75228 0.01428 0.0
C3414 C 0.47305 0.78169 0.01548 0.0
C3415 C 0.48419 0.79736 0.01644 0.0
C3416 C 0.52842 0.74211 0.01469 0.0
C3417 C 0.50026 0.76241 0.01471 0.0
C3418 C 0.53632 0.72465 0.01641 0.0
C3419 C 0.52512 0.70917 0.01877 0.0
C3420 C 0.5092 0.74406 0.01525 0.0
C3421 C 0.50599 0.7117 0.01881 0.0
C3422 C 0.48102 0.76422 0.01464 0.0
C3423 C 0.50333 0.79497 0.01594 0.0
N3424 N 0.49867 0.72876 0.01715 0.0
N3425 N 0.51074 0.77786 0.0152 0.0
H3426 H 0.05725 0.74438 0.78331 0.0
H3427 H 0.95374 0.75773 0.75003 0.0
H3428 H 0.03702 0.79442 0.75875 0.0
H3429 H 0.97441 0.70721 0.77315 0.0
H3430 H 0.98456 0.77062 0.75118 0.0
H3431 H 0.02753 0.73005 0.7781 0.0
C3432 C 0.04656 0.75238 0.77677 0.0
C3433 C 0.04963 0.7707 0.77154 0.0
C3434 C 0.98243 0.75666 0.75585 0.0
C3435 C 0.01543 0.75426 0.76551 0.0
C3436 C 0.96482 0.74925 0.75516 0.0
C3437 C 0.96146 0.73136 0.76157 0.0
C3438 C 0.99686 0.74618 0.7631 0.0
C3439 C 0.97638 0.72102 0.76801 0.0
C3440 C 0.02957 0.74414 0.77376 0.0
C3441 C 0.03526 0.78029 0.76304 0.0
N3442 N 0.99341 0.72865 0.76876 0.0
N3443 N 0.01874 0.77198 0.76037 0.0
H3444 H 0.04901 0.22496 0.51724 0.0
H3445 H 0.95636 0.28484 0.51917 0.0
H3446 H 0.99482 0.20165 0.52241 0.0
H3447 H 0.01082 0.30808 0.5192 0.0
H3448 H 0.97002 0.25408 0.51694 0.0
H3449 H 0.03509 0.25553 0.51453 0.0
C3450 C 0.03421 0.22625 0.51763 0.0
C3451 C 0.02309 0.21075 0.52018 0.0
C3452 C 0.97895 0.26595 0.51731 0.0
C3453 C 0.00705 0.24561 0.51715 0.0
C3454 C 0.97114 0.28349 0.51852 0.0
C3455 C 0.98245 0.29903 0.51953 0.0
C3456 C 0.99817 0.26399 0.51702 0.0
C3457 C 1.00155 0.29649 0.51866 0.0
C3458 C 0.02625 0.24369 0.51614 0.0
C3459 C 1.00396 0.21323 0.52061 0.0
N3460 N 0.00879 0.27934 0.51753 0.0
N3461 N 0.99657 0.2303 0.5192 0.0
H3462 H 0.49321 0.30938 0.48469 0.0
H3463 H 0.50934 0.20139 0.495 0.0
H3464 H 0.54647 0.28507 0.4938 0.0
H3465 H 0.45592 0.22578 0.48731 0.0
H3466 H 0.52281 0.23194 0.49659 0.0
H3467 H 0.47923 0.27916 0.48732 0.0
C3468 C 0.50202 0.29768 0.48733 0.0
C3469 C 0.52112 0.29981 0.48894 0.0
C3470 C 0.50813 0.23068 0.49468 0.0
C3471 C 0.50503 0.26495 0.49197 0.0
C3472 C 0.50038 0.21321 0.49377 0.0
C3473 C 0.48144 0.211 0.49089 0.0
C3474 C 0.49693 0.24619 0.49257 0.0
C3475 C 0.47056 0.22683 0.48957 0.0
C3476 C 0.49396 0.28039 0.48885 0.0
C3477 C 0.53172 0.2841 0.49243 0.0
N3478 N 0.47849 0.24377 0.49026 0.0
N3479 N 0.52353 0.26732 0.49374 0.0
H3480 H 0.03411 0.20377 0.73711 0.0
H3481 H 0.97181 0.2938 0.75025 0.0
H3482 H 0.05466 0.25565 0.75705 0.0
H3483 H 0.95115 0.24176 0.73081 0.0
H3484 H 1.00203 0.2796 0.7545 0.0
H3485 H 1.00308 0.21681 0.73672 0.0
C3486 C 0.03207 0.21778 0.74166 0.0
C3487 C 0.047 0.22864 0.74704 0.0
C3488 C 0.99083 0.27129 0.74938 0.0
C3489 C 0.01167 0.24374 0.74643 0.0
C3490 C 0.9736 0.27941 0.74694 0.0
C3491 C 0.95895 0.26901 0.74008 0.0
C3492 C 0.9934 0.25264 0.74492 0.0
C3493 C 0.96205 0.25037 0.73605 0.0
C3494 C 0.01438 0.22528 0.74134 0.0
C3495 C 0.04357 0.24679 0.75267 0.0
N3496 N 0.9789 0.24283 0.73847 0.0
N3497 N 0.02633 0.25379 0.75211 0.0
H3498 H 0.55519 0.76318 0.23595 0.0
H3499 H 0.44809 0.74522 0.25009 0.0
H3500 H 0.53223 0.7095 0.24617 0.0
H3501 H 0.47108 0.79877 0.23928 0.0
H3502 H 0.4789 0.73233 0.25089 0.0
H3503 H 0.52482 0.77663 0.23915 0.0
C3504 C 0.54376 0.75418 0.23894 0.0
C3505 C 0.54628 0.73511 0.24069 0.0
C3506 C 0.47727 0.74692 0.24848 0.0
C3507 C 0.51128 0.75057 0.24437 0.0
C3508 C 0.45965 0.75434 0.24803 0.0
C3509 C 0.45698 0.77314 0.24452 0.0
C3510 C 0.49243 0.75832 0.24533 0.0
C3511 C 0.4725 0.78423 0.24206 0.0
C3512 C 0.52638 0.76192 0.24078 0.0
C3513 C 0.53092 0.72423 0.24468 0.0
N3514 N 0.48957 0.77662 0.24238 0.0
N3515 N 0.51404 0.73211 0.24629 0.0
H3516 H 0.51659 0.55418 0.78163 0.0
H3517 H 0.51407 0.46249 0.72055 0.0
H3518 H 0.51657 0.49924 0.80396 0.0
H3519 H 0.5186 0.51714 0.698 0.0
H3520 H 0.51145 0.47591 0.75126 0.0
H3521 H 0.51382 0.54107 0.75074 0.0
C3522 C 0.51581 0.53941 0.78006 0.0
C3523 C 0.51698 0.5278 0.79536 0.0
C3524 C 0.51287 0.48496 0.73956 0.0
C3525 C 0.51385 0.51271 0.7602 0.0
C3526 C 0.5143 0.47729 0.72203 0.0
C3527 C 0.51668 0.4887 0.70672 0.0
C3528 C 0.51377 0.50415 0.74174 0.0
C3529 C 0.51694 0.50781 0.70944 0.0
C3530 C 0.51429 0.53191 0.76245 0.0
C3531 C 0.51592 0.50873 0.79254 0.0
N3532 N 0.51561 0.51492 0.72659 0.0
N3533 N 0.51451 0.5018 0.77533 0.0
H3534 H 0.75986 0.25852 0.05799 0.0
H3535 H 0.7411 0.27676 0.95182 0.0
H3536 H 0.70589 0.26871 0.03595 0.0
H3537 H 0.79436 0.26279 0.97366 0.0
H3538 H 0.72769 0.27195 0.98204 0.0
H3539 H 0.7722 0.25769 0.02698 0.0
C3540 C 0.75053 0.26035 0.04656 0.0
C3541 C 0.73181 0.26379 0.04956 0.0
C3542 C 0.74228 0.26982 0.98024 0.0
C3543 C 0.74598 0.2631 0.01387 0.0
C3544 C 0.75001 0.27263 0.96298 0.0
C3545 C 0.76896 0.27033 0.96021 0.0
C3546 C 0.75355 0.26476 0.99499 0.0
C3547 C 0.77972 0.26479 0.97517 0.0
C3548 C 0.75763 0.2599 0.02883 0.0
C3549 C 0.72038 0.26595 0.03424 0.0
N3550 N 0.77188 0.26233 0.99195 0.0
N3551 N 0.7277 0.2658 0.01703 0.0
H3552 H 0.98967 0.49296 0.19949 0.0
H3553 H 0.9915 0.51197 0.30722 0.0
H3554 H 0.99172 0.54732 0.22304 0.0
H3555 H 0.99136 0.45753 0.28378 0.0
H3556 H 0.99364 0.52501 0.27657 0.0
H3557 H 0.99232 0.47979 0.23008 0.0
C3558 C 0.99078 0.50217 0.21111 0.0
C3559 C 0.99034 0.52132 0.2087 0.0
C3560 C 0.99327 0.51021 0.27807 0.0
C3561 C 0.99332 0.50621 0.24389 0.0
C3562 C 0.99202 0.50271 0.2956 0.0
C3563 C 0.9911 0.48359 0.29808 0.0
C3564 C 0.9935 0.49855 0.26278 0.0
C3565 C 0.99201 0.47233 0.28251 0.0
C3566 C 0.99231 0.49459 0.2286 0.0
C3567 C 0.99198 0.5325 0.22426 0.0
N3568 N 0.99301 0.48 0.26549 0.0
N3569 N 0.99326 0.52477 0.24123 0.0
H3570 H 0.74284 0.73283 0.55993 0.0
H3571 H 0.75973 0.74929 0.45309 0.0
H3572 H 0.79579 0.74662 0.5373 0.0
H3573 H 0.70631 0.73939 0.47661 0.0
H3574 H 0.77288 0.75006 0.48383 0.0
H3575 H 0.72914 0.73668 0.52976 0.0
C3576 C 0.75163 0.73672 0.5486 0.0
C3577 C 0.77057 0.73927 0.55114 0.0
C3578 C 0.75826 0.74789 0.48232 0.0
C3579 C 0.75482 0.74371 0.51637 0.0
C3580 C 0.7507 0.74744 0.46475 0.0
C3581 C 0.73187 0.74418 0.46226 0.0
C3582 C 0.74695 0.74491 0.49759 0.0
C3583 C 0.72088 0.74198 0.47789 0.0
C3584 C 0.74373 0.73897 0.53134 0.0
C3585 C 0.78115 0.74448 0.53595 0.0
N3586 N 0.72862 0.74222 0.49489 0.0
N3587 N 0.77315 0.7464 0.51916 0.0
H3588 H 0.70273 0.51649 0.51693 0.0
H3589 H 0.80966 0.52802 0.49771 0.0
H3590 H 0.72563 0.51977 0.46244 0.0
H3591 H 0.78767 0.51585 0.55132 0.0
H3592 H 0.77917 0.52437 0.48458 0.0
H3593 H 0.73363 0.51541 0.52964 0.0
C3594 C 0.71429 0.51686 0.50759 0.0
C3595 C 0.71158 0.51834 0.48856 0.0
C3596 C 0.78097 0.52238 0.49919 0.0
C3597 C 0.74713 0.51724 0.50314 0.0
C3598 C 0.7984 0.52452 0.50676 0.0
C3599 C 0.80123 0.52238 0.52571 0.0
C3600 C 0.76609 0.51821 0.51064 0.0
C3601 C 0.78612 0.51767 0.53666 0.0
C3602 C 0.73195 0.51621 0.5149 0.0
C3603 C 0.72708 0.51861 0.47718 0.0
N3604 N 0.76916 0.5159 0.52898 0.0
N3605 N 0.74421 0.51826 0.48466 0.0
H3606 H 0.73499 0.44861 0.76577 0.0
H3607 H 0.74785 0.55574 0.74653 0.0
H3608 H 0.74445 0.47116 0.7118 0.0
H3609 H 0.73904 0.53306 0.80053 0.0
H3610 H 0.74869 0.5248 0.73392 0.0
H3611 H 0.73835 0.47914 0.77886 0.0
C3612 C 0.73785 0.45999 0.75663 0.0
C3613 C 0.73932 0.45731 0.73759 0.0
C3614 C 0.7467 0.52653 0.74854 0.0
C3615 C 0.74318 0.49248 0.75263 0.0
C3616 C 0.74622 0.54422 0.75579 0.0
C3617 C 0.74326 0.54701 0.77464 0.0
C3618 C 0.74413 0.51141 0.76017 0.0
C3619 C 0.74137 0.53154 0.78594 0.0
C3620 C 0.73979 0.47745 0.76417 0.0
C3621 C 0.74317 0.47259 0.72652 0.0
N3622 N 0.7417 0.51439 0.7785 0.0
N3623 N 0.74487 0.48955 0.73421 0.0
H3624 H 0.7224 0.49446 0.04829 0.0
H3625 H 0.78362 0.49258 0.95667 0.0
H3626 H 0.70031 0.48722 0.99381 0.0
H3627 H 0.80608 0.49648 0.01133 0.0
H3628 H 0.75267 0.49356 0.96983 0.0
H3629 H 0.75304 0.49802 0.03484 0.0
C3630 C 0.72397 0.49373 0.03353 0.0
C3631 C 0.70878 0.49043 0.02219 0.0
C3632 C 0.76439 0.49435 0.97892 0.0
C3633 C 0.74372 0.49446 0.0067 0.0
C3634 C 0.78205 0.49388 0.97139 0.0
C3635 C 0.79744 0.49435 0.98291 0.0
C3636 C 0.76216 0.49535 0.99809 0.0
C3637 C 0.7946 0.49593 1.00192 0.0
C3638 C 0.74145 0.49574 0.02585 0.0
C3639 C 0.71161 0.48964 1.00313 0.0
N3640 N 0.77734 0.49628 0.0089 0.0
N3641 N 0.72871 0.49156 0.99601 0.0
H3642 H 0.76263 0.44809 0.243 0.0
H3643 H 0.76908 0.55551 0.2637 0.0
H3644 H 0.76641 0.47079 0.29756 0.0
H3645 H 0.76357 0.53326 0.20909 0.0
H3646 H 0.76616 0.52473 0.27632 0.0
H3647 H 0.76088 0.4791 0.23049 0.0
C3648 C 0.76294 0.45961 0.25239 0.0
C3649 C 0.76476 0.45683 0.27138 0.0
C3650 C 0.76547 0.52653 0.26158 0.0
C3651 C 0.76288 0.49247 0.25706 0.0
C3652 C 0.76716 0.54414 0.25432 0.0
C3653 C 0.76669 0.54698 0.23526 0.0
C3654 C 0.76337 0.51151 0.24974 0.0
C3655 C 0.76405 0.5317 0.22385 0.0
C3656 C 0.76195 0.47733 0.24521 0.0
C3657 C 0.76499 0.47228 0.28285 0.0
N3658 N 0.76261 0.51458 0.23128 0.0
N3659 N 0.76422 0.48945 0.27549 0.0
H3660 H 0.47516 0.70593 0.74284 0.0
H3661 H 0.53331 0.79962 0.73884 0.0
H3662 H 0.45179 0.75882 0.7297 0.0
H3663 H 0.55722 0.74595 0.74682 0.0
H3664 H 0.50275 0.78543 0.73883 0.0
H3665 H 0.50497 0.72082 0.74749 0.0
C3666 C 0.47627 0.72066 0.74104 0.0
C3667 C 0.46099 0.7311 0.73576 0.0
C3668 C 0.51471 0.7768 0.74073 0.0
C3669 C 0.49498 0.74826 0.74107 0.0
C3670 C 0.53212 0.78492 0.74084 0.0
C3671 C 0.54783 0.77395 0.74271 0.0
C3672 C 0.51304 0.75761 0.74259 0.0
C3673 C 0.5455 0.75494 0.74516 0.0
C3674 C 0.49328 0.72917 0.74367 0.0
C3675 C 0.46322 0.75017 0.73363 0.0
N3676 N 0.52848 0.74739 0.74494 0.0
N3677 N 0.47987 0.75811 0.73623 0.0
H3678 H 0.52418 0.54354 0.28138 0.0
H3679 H 0.4576 0.47348 0.22922 0.0
H3680 H 0.47045 0.52736 0.30038 0.0
H3681 H 0.51314 0.48323 0.21144 0.0
H3682 H 0.46308 0.49248 0.25611 0.0
H3683 H 0.52112 0.52172 0.2558 0.0
C3684 C 0.51173 0.53553 0.28013 0.0
C3685 C 0.49754 0.53738 0.29305 0.0
C3686 C 0.47421 0.49036 0.24651 0.0
C3687 C 0.49408 0.51228 0.26405 0.0
C3688 C 0.47109 0.4794 0.2312 0.0
C3689 C 0.48495 0.47674 0.21818 0.0
C3690 C 0.49125 0.49909 0.24873 0.0
C3691 C 0.50217 0.48479 0.22132 0.0
C3692 C 0.51006 0.52298 0.26563 0.0
C3693 C 0.48178 0.5265 0.29082 0.0
N3694 N 0.50479 0.49584 0.23621 0.0
N3695 N 0.48051 0.5145 0.27666 0.0
H3696 H 0.3017 0.73615 0.972 0.0
H3697 H 0.2096 0.74654 0.03186 0.0
H3698 H 0.24809 0.74538 0.94864 0.0
H3699 H 0.26255 0.73284 0.05461 0.0
H3700 H 0.22388 0.74906 1.00145 0.0
H3701 H 0.2881 0.73799 1.00275 0.0
C3702 C 0.28715 0.73882 0.97334 0.0
C3703 C 0.27602 0.74051 0.95774 0.0
C3704 C 0.23237 0.74559 0.01315 0.0
C3705 C 0.26031 0.74252 0.9928 0.0
C3706 C 0.2242 0.74417 0.0305 0.0
C3707 C 0.23483 0.73938 0.04581 0.0
C3708 C 0.25129 0.74223 0.01112 0.0
C3709 C 0.25374 0.73647 0.04322 0.0
C3710 C 0.27935 0.73976 0.99088 0.0
C3711 C 0.25718 0.74383 0.96028 0.0
N3712 N 0.26132 0.73788 0.02625 0.0
N3713 N 0.24993 0.74464 0.97743 0.0
H3714 H 0.01489 0.54324 0.7146 0.0
H3715 H 0.02988 0.45772 0.78294 0.0
H3716 H 0.04494 0.49416 0.7004 0.0
H3717 H 1.00416 0.50857 0.79913 0.0
H3718 H 0.03322 0.46991 0.75174 0.0
H3719 H 0.00898 0.53013 0.74509 0.0
C3720 C 0.02029 0.52977 0.71789 0.0
C3721 C 0.03044 0.51983 0.70489 0.0
C3722 C 0.0267 0.47835 0.76209 0.0
C3723 C 0.02367 0.50468 0.73967 0.0
C3724 C 0.02466 0.47131 0.77986 0.0
C3725 C 0.01677 0.48215 0.79366 0.0
C3726 C 0.0207 0.4963 0.75808 0.0
C3727 C 0.01044 0.49977 0.78894 0.0
C3728 C 0.01688 0.52225 0.73527 0.0
C3729 C 0.03701 0.50236 0.70991 0.0
N3730 N 0.01259 0.50631 0.77161 0.0
N3731 N 0.03353 0.49538 0.72684 0.0
H3732 H 0.20693 0.26762 0.47606 0.0
H3733 H 0.3011 0.26424 0.53322 0.0
H3734 H 0.26064 0.26537 0.45124 0.0
H3735 H 0.24767 0.27092 0.55788 0.0
H3736 H 0.28631 0.26125 0.50315 0.0
H3737 H 0.22138 0.2654 0.50638 0.0
C3738 C 0.22172 0.26644 0.47697 0.0
C3739 C 0.23259 0.26683 0.46111 0.0
C3740 C 0.27783 0.26324 0.51518 0.0
C3741 C 0.24923 0.26436 0.49567 0.0
C3742 C 0.28628 0.2649 0.53234 0.0
C3743 C 0.27564 0.26795 0.54807 0.0
C3744 C 0.25861 0.26461 0.51377 0.0
C3745 C 0.25646 0.26872 0.54611 0.0
C3746 C 0.22998 0.26525 0.49427 0.0
C3747 C 0.25171 0.26531 0.4631 0.0
N3748 N 0.24859 0.26715 0.52931 0.0
N3749 N 0.25941 0.26423 0.48003 0.0
H3750 H 0.20445 0.49176 0.51054 0.0
H3751 H 0.31178 0.49625 0.48918 0.0
H3752 H 0.22667 0.49304 0.45565 0.0
H3753 H 0.28946 0.49254 0.54391 0.0
H3754 H 0.28079 0.49736 0.47682 0.0
H3755 H 0.23531 0.49427 0.5229 0.0
C3756 C 0.21583 0.49264 0.50103 0.0
C3757 C 0.21293 0.49208 0.48197 0.0
C3758 C 0.28262 0.49642 0.49153 0.0
C3759 C 0.24852 0.49494 0.4962 0.0
C3760 C 0.30035 0.4958 0.49866 0.0
C3761 C 0.30326 0.49423 0.51766 0.0
C3762 C 0.26757 0.49544 0.50345 0.0
C3763 C 0.28788 0.49377 0.52919 0.0
C3764 C 0.2335 0.49408 0.50816 0.0
C3765 C 0.22825 0.4934 0.47041 0.0
N3766 N 0.27068 0.49428 0.52189 0.0
N3767 N 0.24541 0.49468 0.47772 0.0
H3768 H 0.26287 0.45099 0.26155 0.0
H3769 H 0.27364 0.55863 0.24412 0.0
H3770 H 0.27003 0.47461 0.20772 0.0
H3771 H 0.26379 0.53493 0.29752 0.0
H3772 H 0.27059 0.5283 0.23038 0.0
H3773 H 0.26116 0.48171 0.27457 0.0
C3774 C 0.26395 0.46268 0.25241 0.0
C3775 C 0.26674 0.46022 0.2335 0.0
C3776 C 0.26898 0.52971 0.24509 0.0
C3777 C 0.26492 0.4956 0.24845 0.0
C3778 C 0.27075 0.54705 0.25299 0.0
C3779 C 0.26909 0.54934 0.27207 0.0
C3780 C 0.26558 0.51443 0.2563 0.0
C3781 C 0.26522 0.53381 0.28278 0.0
C3782 C 0.26296 0.48025 0.2599 0.0
C3783 C 0.26786 0.47588 0.22236 0.0
N3784 N 0.26372 0.517 0.27475 0.0
N3785 N 0.26713 0.49293 0.23003 0.0
H3786 H 0.30412 0.50003 0.00463 0.0
H3787 H 0.19979 0.53111 0.99221 0.0
H3788 H 0.28258 0.52324 0.95457 0.0
H3789 H 0.22167 0.50999 0.04307 0.0
H3790 H 0.22942 0.52629 0.9777 0.0
H3791 H 0.27353 0.50109 0.01804 0.0
C3792 C 0.2929 0.50518 0.99636 0.0
C3793 C 0.29594 0.51163 0.97844 0.0
C3794 C 0.22778 0.52264 0.99201 0.0
C3795 C 0.26081 0.51309 0.99389 0.0
C3796 C 0.21083 0.52541 1.00038 0.0
C3797 C 0.20822 0.52101 0.01897 0.0
C3798 C 0.24236 0.5154 1.00225 0.0
C3799 C 0.22307 0.51362 0.02874 0.0
C3800 C 0.27542 0.50583 1.00408 0.0
C3801 C 0.28085 0.51807 0.96839 0.0
N3802 N 0.23954 0.51109 0.02027 0.0
N3803 N 0.26395 0.51878 0.97632 0.0
H3804 H 0.2688 0.54531 0.74285 0.0
H3805 H 0.20601 0.49004 0.81346 0.0
H3806 H 0.21507 0.56377 0.75946 0.0
H3807 H 0.26051 0.4731 0.79768 0.0
H3808 H 0.21024 0.51865 0.79651 0.0
H3809 H 0.26709 0.5206 0.76528 0.0
C3810 C 0.25667 0.54428 0.75137 0.0
C3811 C 0.242 0.5566 0.74918 0.0
C3812 C 0.22138 0.50881 0.79695 0.0
C3813 C 0.23989 0.52804 0.77495 0.0
C3814 C 0.21901 0.49245 0.80669 0.0
C3815 C 0.23291 0.47905 0.80697 0.0
C3816 C 0.23774 0.51184 0.78727 0.0
C3817 C 0.24944 0.48301 0.79793 0.0
C3818 C 0.25572 0.53012 0.76421 0.0
C3819 C 0.22672 0.55462 0.76072 0.0
N3820 N 0.2513 0.49894 0.78829 0.0
N3821 N 0.22597 0.54047 0.77297 0.0
H3822 H 0.53712 0.30251 0.26985 0.0
H3823 H 0.47335 0.21303 0.26106 0.0
H3824 H 0.55763 0.24868 0.25589 0.0
H3825 H 0.45352 0.26675 0.27642 0.0
H3826 H 0.50404 0.22621 0.25667 0.0
H3827 H 0.50587 0.29016 0.26955 0.0
C3828 C 0.53504 0.28819 0.26644 0.0
C3829 C 0.55001 0.27661 0.26297 0.0
C3830 C 0.49291 0.2351 0.26092 0.0
C3831 C 0.51436 0.26229 0.26282 0.0
C3832 C 0.47542 0.22757 0.26343 0.0
C3833 C 0.46088 0.23875 0.26925 0.0
C3834 C 0.49583 0.25393 0.26423 0.0
C3835 C 0.46432 0.25754 0.27206 0.0
C3836 C 0.51721 0.28109 0.26638 0.0
C3837 C 0.5465 0.2581 0.25876 0.0
N3838 N 0.48141 0.2645 0.2696 0.0
N3839 N 0.52909 0.2515 0.25893 0.0
H3840 H 0.17058 0.10464 0.31903 0.0
H3841 H 0.08871 0.0318 0.30824 0.0
H3842 H 0.17077 0.05901 0.28128 0.0
H3843 H 0.08916 0.07282 0.35095 0.0
H3844 H 0.1186 0.04251 0.298 0.0
H3845 H 0.14026 0.09474 0.33011 0.0
C3846 C 0.16414 0.09275 0.31286 0.0
C3847 C 0.17324 0.08267 0.29914 0.0
C3848 C 0.11229 0.04914 0.3097 0.0
C3849 C 0.13875 0.07113 0.31194 0.0
C3850 C 0.0952 0.04296 0.31563 0.0
C3851 C 0.08639 0.05135 0.33054 0.0
C3852 C 0.12075 0.06401 0.31859 0.0
C3853 C 0.09552 0.06582 0.3395 0.0
C3854 C 0.14693 0.087 0.31932 0.0
C3855 C 0.16433 0.06722 0.29185 0.0
N3856 N 0.11216 0.07178 0.33331 0.0
N3857 N 0.14769 0.06195 0.29835 0.0
H3858 H 0.15817 0.92506 0.57374 0.0
H3859 H 0.21006 0.83139 0.55059 0.0
H3860 H 0.19379 0.91824 0.52698 0.0
H3861 H 0.19275 0.84427 0.60564 0.0
H3862 H 0.2015 0.86231 0.54089 0.0
H3863 H 0.1673 0.89438 0.58463 0.0
C3864 C 0.16766 0.91701 0.56561 0.0
C3865 C 0.17514 0.92419 0.54934 0.0
C3866 C 0.19972 0.85851 0.55515 0.0
C3867 C 0.18574 0.88925 0.5618 0.0
C3868 C 0.20467 0.84087 0.56071 0.0
C3869 C 0.20228 0.83534 0.57897 0.0
C3870 C 0.19189 0.8707 0.56784 0.0
C3871 C 0.19508 0.84812 0.59148 0.0
C3872 C 0.17302 0.89962 0.57195 0.0
C3873 C 0.18762 0.91327 0.53955 0.0
N3874 N 0.18992 0.86519 0.58564 0.0
N3875 N 0.19246 0.89639 0.54588 0.0
H3876 H 0.34085 0.90959 0.78869 0.0
H3877 H 0.41407 0.95979 0.85453 0.0
H3878 H 0.32669 0.93782 0.8388 0.0
H3879 H 0.42909 0.92908 0.80617 0.0
H3880 H 0.38171 0.95302 0.84815 0.0
H3881 H 0.37322 0.91748 0.79408 0.0
C3882 C 0.34451 0.91741 0.80079 0.0
C3883 C 0.33098 0.923 0.81329 0.0
C3884 C 0.39211 0.94782 0.83891 0.0
C3885 C 0.36792 0.93214 0.81954 0.0
C3886 C 0.41058 0.95175 0.84253 0.0
C3887 C 0.42436 0.94497 0.83094 0.0
C3888 C 0.38736 0.93708 0.82353 0.0
C3889 C 0.41899 0.93454 0.81559 0.0
C3890 C 0.36297 0.92193 0.80387 0.0
C3891 C 0.33656 0.93316 0.82874 0.0
N3892 N 0.40098 0.93091 0.81236 0.0
N3893 N 0.35451 0.93737 0.83141 0.0
H3894 H 0.32104 0.17899 0.05196 0.0
H3895 H 0.32846 0.0794 0.09765 0.0
H3896 H 0.30317 0.16669 0.10703 0.0
H3897 H 0.34264 0.0899 0.04112 0.0
H3898 H 0.31979 0.11141 0.10123 0.0
H3899 H 0.32891 0.14669 0.04757 0.0
C3900 C 0.31865 0.16946 0.06313 0.0
C3901 C 0.31144 0.17561 0.07993 0.0
C3902 C 0.32478 0.1068 0.08802 0.0
C3903 C 0.32068 0.13849 0.075 0.0
C3904 C 0.3298 0.08845 0.08592 0.0
C3905 C 0.33627 0.08184 0.06899 0.0
C3906 C 0.32617 0.11885 0.07308 0.0
C3907 C 0.33779 0.09437 0.05442 0.0
C3908 C 0.32319 0.151 0.06059 0.0
C3909 C 0.30859 0.16259 0.09383 0.0
N3910 N 0.33273 0.11227 0.05679 0.0
N3911 N 0.31333 0.14469 0.09109 0.0
H3912 H 0.16619 0.91023 0.21524 0.0
H3913 H 0.09097 0.96476 0.15524 0.0
H3914 H 0.17951 0.94523 0.16932 0.0
H3915 H 0.07747 0.92798 0.19968 0.0
H3916 H 0.12365 0.95881 0.16099 0.0
H3917 H 0.13359 0.91743 0.21054 0.0
C3918 C 0.1623 0.91942 0.20422 0.0
C3919 C 0.17566 0.92708 0.19267 0.0
C3920 C 0.11351 0.95209 0.16951 0.0
C3921 C 0.1384 0.93542 0.18718 0.0
C3922 C 0.09485 0.95554 0.16624 0.0
C3923 C 0.08141 0.94684 0.17692 0.0
C3924 C 0.11876 0.93989 0.18359 0.0
C3925 C 0.08729 0.93496 0.191 0.0
C3926 C 0.14369 0.92354 0.20152 0.0
C3927 C 0.16976 0.93894 0.17858 0.0
N3928 N 0.10544 0.93184 0.19389 0.0
N3929 N 0.15165 0.94271 0.17624 0.0
H3930 H 0.30306 0.92531 0.42733 0.0
H3931 H 0.33974 0.8226 0.43994 0.0
H3932 H 0.35335 0.91206 0.45568 0.0
H3933 H 0.28947 0.83618 0.4117 0.0
H3934 H 0.34456 0.85505 0.44643 0.0
H3935 H 0.29745 0.89275 0.4225 0.0
C3936 C 0.31293 0.91554 0.43265 0.0
C3937 C 0.32878 0.92149 0.44188 0.0
C3938 C 0.33246 0.85097 0.43884 0.0
C3939 C 0.32239 0.88393 0.43625 0.0
C3940 C 0.32966 0.8324 0.43508 0.0
C3941 C 0.31414 0.82659 0.4252 0.0
C3942 C 0.31965 0.86398 0.43271 0.0
C3943 C 0.30163 0.84 0.41931 0.0
C3944 C 0.30969 0.89689 0.42984 0.0
C3945 C 0.34095 0.90812 0.44852 0.0
N3946 N 0.30467 0.85806 0.42314 0.0
N3947 N 0.33755 0.88995 0.44548 0.0
H3948 H 0.41738 0.04247 0.65853 0.0
H3949 H 0.3438 0.10526 0.71206 0.0
H3950 H 0.43175 0.08968 0.69132 0.0
H3951 H 0.32915 0.05981 0.67701 0.0
H3952 H 0.3763 0.09886 0.70585 0.0
H3953 H 0.38497 0.04774 0.66616 0.0
C3954 C 0.41376 0.0539 0.66732 0.0
C3955 C 0.42735 0.06564 0.67423 0.0
C3956 C 0.36594 0.09025 0.69958 0.0
C3957 C 0.39033 0.07177 0.68308 0.0
C3958 C 0.34739 0.09389 0.70319 0.0
C3959 C 0.33369 0.08313 0.69501 0.0
C3960 C 0.37082 0.07572 0.68777 0.0
C3961 C 0.33919 0.06857 0.68355 0.0
C3962 C 0.39526 0.05692 0.67169 0.0
C3963 C 0.42181 0.08025 0.68561 0.0
N3964 N 0.35725 0.06533 0.68026 0.0
N3965 N 0.40381 0.08289 0.68964 0.0
H3966 H 0.21537 0.16884 0.90846 0.0
H3967 H 0.15443 0.09564 0.96472 0.0
H3968 H 0.16969 0.18362 0.94313 0.0
H3969 H 0.19823 0.08054 0.92785 0.0
H3970 H 0.16072 0.12812 0.95809 0.0
H3971 H 0.21016 0.13642 0.91631 0.0
C3972 C 0.20429 0.16531 0.9177 0.0
C3973 C 0.19296 0.17903 0.92507 0.0
C3974 C 0.16899 0.11767 0.95151 0.0
C3975 C 0.18691 0.14197 0.93418 0.0
C3976 C 0.16542 0.09912 0.95535 0.0
C3977 C 0.17575 0.08528 0.94682 0.0
C3978 C 0.18303 0.12243 0.93909 0.0
C3979 C 0.18981 0.09068 0.93472 0.0
C3980 C 0.2013 0.14679 0.9222 0.0
C3981 C 0.17879 0.17358 0.93703 0.0
N3982 N 0.193 0.10874 0.93121 0.0
N3983 N 0.17619 0.15557 0.94118 0.0
H3984 H 0.07466 0.30247 0.07867 0.0
H3985 H 0.07575 0.34534 0.17963 0.0
H3986 H 0.05328 0.3562 0.09163 0.0
H3987 H 0.0943 0.2903 0.16774 0.0
H3988 H 0.06774 0.34943 0.14753 0.0
H3989 H 0.08163 0.29762 0.11103 0.0
C3990 C 0.07133 0.31326 0.08834 0.0
C3991 C 0.0634 0.32983 0.08235 0.0
C3992 C 0.07354 0.33644 0.15187 0.0
C3993 C 0.07156 0.32434 0.11962 0.0
C3994 C 0.07819 0.33405 0.17027 0.0
C3995 C 0.08573 0.31738 0.17651 0.0
C3996 C 0.07641 0.32208 0.13939 0.0
C3997 C 0.08857 0.30337 0.16359 0.0
C3998 C 0.07536 0.31045 0.10686 0.0
C3999 C 0.05933 0.34321 0.09559 0.0
N4000 N 0.08389 0.30604 0.14565 0.0
N4001 N 0.06356 0.34021 0.11358 0.0
H4002 H 0.54016 0.16445 0.91646 0.0
H4003 H 0.60785 0.20886 0.8412 0.0
H4004 H 0.59468 0.18411 0.92859 0.0
H4005 H 0.55383 0.1881 0.82872 0.0
H4006 H 0.60298 0.20066 0.87352 0.0
H4007 H 0.54468 0.17337 0.88427 0.0
C4008 C 0.55308 0.17055 0.91237 0.0
C4009 C 0.56703 0.17351 0.92531 0.0
C4010 C 0.59217 0.19797 0.8637 0.0
C4011 C 0.5723 0.18386 0.88851 0.0
C4012 C 0.59493 0.20274 0.84525 0.0
C4013 C 0.58127 0.19917 0.83217 0.0
C4014 C 0.5756 0.18959 0.86912 0.0
C4015 C 0.56482 0.19107 0.83825 0.0
C4016 C 0.55566 0.1757 0.894 0.0
C4017 C 0.58348 0.18156 0.91918 0.0
N4018 N 0.56248 0.18655 0.8562 0.0
N4019 N 0.58564 0.18644 0.90131 0.0
H4020 H 0.91296 0.82476 0.4302 0.0
H4021 H 0.95269 0.82703 0.32794 0.0
H4022 H 0.96602 0.84705 0.4163 0.0
H4023 H 0.90042 0.80297 0.34181 0.0
H4024 H 0.95797 0.83375 0.36022 0.0
H4025 H 0.90823 0.81657 0.39814 0.0
C4026 C 0.92366 0.82798 0.42041 0.0
C4027 C 0.93996 0.83665 0.42604 0.0
C4028 C 0.94537 0.82693 0.35629 0.0
C4029 C 0.93456 0.82713 0.38907 0.0
C4030 C 0.94231 0.82305 0.3378 0.0
C4031 C 0.92601 0.81445 0.33208 0.0
C4032 C 0.93201 0.82233 0.36933 0.0
C4033 C 0.91319 0.80954 0.34557 0.0
C4034 C 0.92092 0.82323 0.40205 0.0
C4035 C 0.95324 0.84045 0.41263 0.0
N4036 N 0.91641 0.81366 0.36356 0.0
N4037 N 0.95025 0.83565 0.39479 0.0
H4038 H 0.96649 0.15741 0.09165 0.0
H4039 H 0.90119 0.20933 0.16421 0.0
H4040 H 0.91761 0.18731 0.07657 0.0
H4041 H 0.94882 0.17756 0.17948 0.0
H4042 H 0.90747 0.20221 0.13186 0.0
H4043 H 0.96069 0.16522 0.12391 0.0
C4044 C 0.95455 0.16556 0.09509 0.0
C4045 C 0.94255 0.17166 0.08132 0.0
C4046 C 0.91656 0.19684 0.14232 0.0
C4047 C 0.9358 0.18074 0.11822 0.0
C4048 C 0.91299 0.20096 0.16079 0.0
C4049 C 0.92443 0.19402 0.17464 0.0
C4050 C 0.93171 0.18575 0.13765 0.0
C4051 C 0.93952 0.18317 0.16933 0.0
C4052 C 0.95123 0.17006 0.11352 0.0
C4053 C 0.92729 0.18227 0.08665 0.0
N4054 N 0.94269 0.17938 0.15135 0.0
N4055 N 0.92438 0.18644 0.10459 0.0
H4056 H 0.41632 0.68668 0.57308 0.0
H4057 H 0.45698 0.68325 0.67492 0.0
H4058 H 0.47032 0.66606 0.58607 0.0
H4059 H 0.40316 0.70444 0.66221 0.0
H4060 H 0.46238 0.67796 0.64241 0.0
H4061 H 0.41149 0.69377 0.60538 0.0
C4062 C 0.42721 0.68361 0.58272 0.0
C4063 C 0.4438 0.67572 0.57678 0.0
C4064 C 0.44941 0.68385 0.64665 0.0
C4065 C 0.43828 0.68396 0.614 0.0
C4066 C 0.44629 0.68692 0.66526 0.0
C4067 C 0.42952 0.69425 0.67137 0.0
C4068 C 0.43565 0.68803 0.63387 0.0
C4069 C 0.41629 0.69883 0.65814 0.0
C4070 C 0.42441 0.68772 0.60121 0.0
C4071 C 0.45731 0.67207 0.58999 0.0
N4072 N 0.4196 0.69552 0.64002 0.0
N4073 N 0.45425 0.67623 0.60797 0.0
H4074 H 0.05886 0.68003 0.32447 0.0
H4075 H 0.09451 0.69165 0.42765 0.0
H4076 H 0.10652 0.71202 0.33898 0.0
H4077 H 0.04562 0.66143 0.41338 0.0
H4078 H 0.09904 0.69915 0.39541 0.0
H4079 H 0.05372 0.67336 0.3568 0.0
C4080 C 0.06827 0.68572 0.33446 0.0
C4081 C 0.08322 0.6966 0.32891 0.0
C4082 C 0.0873 0.69089 0.39927 0.0
C4083 C 0.07735 0.68885 0.36623 0.0
C4084 C 0.08468 0.68655 0.41774 0.0
C4085 C 0.06962 0.67585 0.42334 0.0
C4086 C 0.07481 0.68452 0.3861 0.0
C4087 C 0.05742 0.66969 0.40976 0.0
C4088 C 0.06528 0.68187 0.35298 0.0
C4089 C 0.09482 0.70361 0.34258 0.0
N4090 N 0.06029 0.67411 0.39179 0.0
N4091 N 0.09168 0.69955 0.36059 0.0
H4092 H 0.4047 0.30035 0.84214 0.0
H4093 H 0.46667 0.35314 0.91689 0.0
H4094 H 0.44876 0.3375 0.82844 0.0
H4095 H 0.42148 0.31747 0.93083 0.0
H4096 H 0.46105 0.34665 0.88432 0.0
H4097 H 0.4114 0.30534 0.87482 0.0
C4098 C 0.41582 0.30944 0.84597 0.0
C4099 C 0.4261 0.31855 0.83249 0.0
C4100 C 0.45239 0.34023 0.89454 0.0
C4101 C 0.43384 0.32439 0.8698 0.0
C4102 C 0.45562 0.34394 0.91314 0.0
C4103 C 0.44454 0.3359 0.92666 0.0
C4104 C 0.43799 0.32837 0.88943 0.0
C4105 C 0.43039 0.32405 0.92094 0.0
C4106 C 0.41962 0.31234 0.86462 0.0
C4107 C 0.44035 0.33023 0.83829 0.0
N4108 N 0.42752 0.32068 0.90283 0.0
N4109 N 0.44375 0.33283 0.85643 0.0
H4110 H 0.93288 0.91675 0.6958 0.0
H4111 H 0.8295 0.94909 0.67831 0.0
H4112 H 0.91838 0.96289 0.66152 0.0
H4113 H 0.8438 0.90365 0.7136 0.0
H4114 H 0.86191 0.95459 0.67258 0.0
H4115 H 0.90055 0.91202 0.70275 0.0
C4116 C 0.9229 0.92593 0.6897 0.0
C4117 C 0.92843 0.94026 0.67799 0.0
C4118 C 0.85803 0.94344 0.68162 0.0
C4119 C 0.89115 0.93484 0.686 0.0
C4120 C 0.83946 0.94025 0.68493 0.0
C4121 C 0.83384 0.9258 0.69644 0.0
C4122 C 0.87124 0.93209 0.6898 0.0
C4123 C 0.84747 0.91494 0.70465 0.0
C4124 C 0.90439 0.9232 0.69373 0.0
C4125 C 0.91479 0.95167 0.67058 0.0
N4126 N 0.86554 0.91826 0.70111 0.0
N4127 N 0.89679 0.94869 0.67469 0.0
H4128 H 0.8455 0.17532 0.40488 0.0
H4129 H 0.82286 0.0854 0.46316 0.0
H4130 H 0.79315 0.16909 0.43165 0.0
H4131 H 0.86039 0.08621 0.41749 0.0
H4132 H 0.81408 0.1174 0.4559 0.0
H4133 H 0.85315 0.14372 0.41288 0.0
C4134 C 0.83549 0.16714 0.41224 0.0
C4135 C 0.81858 0.17472 0.41739 0.0
C4136 C 0.82433 0.11055 0.44762 0.0
C4137 C 0.8275 0.13858 0.42717 0.0
C4138 C 0.82953 0.09245 0.45191 0.0
C4139 C 0.8425 0.08327 0.44101 0.0
C4140 C 0.83245 0.11949 0.43255 0.0
C4141 C 0.85042 0.09283 0.4263 0.0
C4142 C 0.8399 0.14913 0.41688 0.0
C4143 C 0.8062 0.1636 0.42713 0.0
N4144 N 0.84534 0.11037 0.42257 0.0
N4145 N 0.81098 0.14608 0.4319 0.0
H4146 H 0.58064 0.10749 0.17458 0.0
H4147 H 0.67594 0.05504 0.18775 0.0
H4148 H 0.58604 0.04861 0.17006 0.0
H4149 H 0.66796 0.11209 0.20167 0.0
H4150 H 0.64341 0.05254 0.18035 0.0
H4151 H 0.61287 0.10955 0.18307 0.0
C4152 C 0.58862 0.09495 0.17525 0.0
C4153 C 0.58056 0.07781 0.17153 0.0
C4154 C 0.64872 0.06558 0.18512 0.0
C4155 C 0.61766 0.08015 0.18141 0.0
C4156 C 0.66731 0.06705 0.18936 0.0
C4157 C 0.67472 0.08384 0.19531 0.0
C4158 C 0.63737 0.08106 0.18665 0.0
C4159 C 0.66284 0.09888 0.19719 0.0
C4160 C 0.60705 0.09617 0.18021 0.0
C4161 C 0.59166 0.0621 0.17272 0.0
N4162 N 0.64477 0.09717 0.19275 0.0
N4163 N 0.60966 0.06366 0.17753 0.0
H4164 H 0.7028 0.82668 0.96067 0.0
H4165 H 0.65636 0.92207 0.93466 0.0
H4166 H 0.68821 0.83946 0.9048 0.0
H4167 H 0.69244 0.91543 0.98113 0.0
H4168 H 0.66418 0.89075 0.92468 0.0
H4169 H 0.69608 0.85834 0.96942 0.0
C4170 C 0.69841 0.83628 0.95019 0.0
C4171 C 0.69621 0.83054 0.93196 0.0
C4172 C 0.67031 0.89619 0.93708 0.0
C4173 C 0.68792 0.8667 0.94199 0.0
C4174 C 0.66568 0.91394 0.94292 0.0
C4175 C 0.67367 0.92132 0.95884 0.0
C4176 C 0.68274 0.88568 0.94743 0.0
C4177 C 0.68591 0.91028 0.96882 0.0
C4178 C 0.69452 0.85433 0.95519 0.0
C4179 C 0.69032 0.84347 0.91894 0.0
N4180 N 0.68999 0.89303 0.963 0.0
N4181 N 0.68614 0.86095 0.92425 0.0
H4182 H 0.91419 0.04948 0.85562 0.0
H4183 H 0.8406 0.10398 0.79363 0.0
H4184 H 0.92905 0.08672 0.81199 0.0
H4185 H 0.82618 0.06779 0.83829 0.0
H4186 H 0.87314 0.09727 0.79948 0.0
H4187 H 0.88173 0.0554 0.84888 0.0
C4188 C 0.91065 0.05884 0.84462 0.0
C4189 C 0.92441 0.06762 0.83442 0.0
C4190 C 0.86281 0.09079 0.80796 0.0
C4191 C 0.88729 0.0745 0.82658 0.0
C4192 C 0.84424 0.09463 0.8046 0.0
C4193 C 0.83059 0.08651 0.81548 0.0
C4194 C 0.86775 0.07874 0.82228 0.0
C4195 C 0.83616 0.07446 0.82954 0.0
C4196 C 0.89212 0.06225 0.84076 0.0
C4197 C 0.91897 0.07965 0.8203 0.0
N4198 N 0.85422 0.07098 0.83252 0.0
N4199 N 0.90091 0.08273 0.81682 0.0
H4200 H 0.65541 0.10257 0.52179 0.0
H4201 H 0.69821 0.16509 0.60186 0.0
H4202 H 0.66847 0.08118 0.57547 0.0
H4203 H 0.67515 0.18624 0.55155 0.0
H4204 H 0.68955 0.13387 0.5921 0.0
H4205 H 0.66447 0.13315 0.53218 0.0
C4206 C 0.6601 0.1043 0.53578 0.0
C4207 C 0.66108 0.08925 0.54776 0.0
C4208 C 0.68643 0.1454 0.58325 0.0
C4209 C 0.67173 0.1243 0.55976 0.0
C4210 C 0.69144 0.16318 0.58878 0.0
C4211 C 0.68737 0.17833 0.57755 0.0
C4212 C 0.67746 0.1428 0.56632 0.0
C4213 C 0.67851 0.17505 0.56074 0.0
C4214 C 0.6653 0.12178 0.54173 0.0
C4215 C 0.66736 0.09238 0.56577 0.0
N4216 N 0.6739 0.15773 0.55567 0.0
N4217 N 0.67251 0.10952 0.57119 0.0
H4218 H 0.57903 0.90616 0.35828 0.0
H4219 H 0.65982 0.91707 0.2845 0.0
H4220 H 0.57267 0.9392 0.3096 0.0
H4221 H 0.66355 0.88722 0.33546 0.0
H4222 H 0.6268 0.922 0.29034 0.0
H4223 H 0.60852 0.89544 0.34695 0.0
C4224 C 0.58374 0.91092 0.345 0.0
C4225 C 0.57337 0.92359 0.3349 0.0
C4226 C 0.63483 0.91412 0.30006 0.0
C4227 C 0.60764 0.91172 0.32191 0.0
C4228 C 0.65362 0.9112 0.29666 0.0
C4229 C 0.66445 0.90178 0.30956 0.0
C4230 C 0.6269 0.9074 0.31636 0.0
C4231 C 0.65579 0.89468 0.3252 0.0
C4232 C 0.60068 0.90486 0.33854 0.0
C4233 C 0.58018 0.9293 0.31776 0.0
N4234 N 0.63767 0.89771 0.32817 0.0
N4235 N 0.59705 0.92354 0.31191 0.0
H4236 H 0.81679 0.84023 0.10464 0.0
H4237 H 0.8227 0.9139 0.02347 0.0
H4238 H 0.81178 0.82631 0.04736 0.0
H4239 H 0.84887 0.92309 0.07576 0.0
H4240 H 0.81485 0.88278 0.03326 0.0
H4241 H 0.82435 0.87206 0.09573 0.0
C4242 C 0.81699 0.84395 0.09025 0.0
C4243 C 0.81363 0.83067 0.0767 0.0
C4244 C 0.82241 0.89155 0.04257 0.0
C4245 C 0.82226 0.86675 0.06647 0.0
C4246 C 0.82695 0.9093 0.03696 0.0
C4247 C 0.8366 0.92105 0.04874 0.0
C4248 C 0.82723 0.88554 0.06024 0.0
C4249 C 0.84162 0.91438 0.06615 0.0
C4250 C 0.82148 0.862 0.08517 0.0
C4251 C 0.81432 0.8361 0.05824 0.0
N4252 N 0.83674 0.89711 0.07145 0.0
N4253 N 0.81849 0.85368 0.05369 0.0
H4254 H 0.94101 0.65291 0.91763 0.0
H4255 H 0.94506 0.72935 0.83881 0.0
H4256 H 0.95701 0.70914 0.92706 0.0
H4257 H 0.91029 0.68162 0.83432 0.0
H4258 H 0.95305 0.72016 0.87003 0.0
H4259 H 0.93359 0.66095 0.88558 0.0
C4260 C 0.94328 0.66682 0.91286 0.0
C4261 C 0.94967 0.68038 0.92495 0.0
C4262 C 0.94359 0.71173 0.86227 0.0
C4263 C 0.94119 0.68964 0.8886 0.0
C4264 C 0.93899 0.717 0.84445 0.0
C4265 C 0.92688 0.70633 0.83397 0.0
C4266 C 0.93631 0.69547 0.86966 0.0
C4267 C 0.91952 0.69037 0.84199 0.0
C4268 C 0.93886 0.67144 0.89469 0.0
C4269 C 0.95208 0.69827 0.9182 0.0
N4270 N 0.92446 0.68533 0.85932 0.0
N4271 N 0.9479 0.70235 0.90052 0.0
H4272 H 0.45467 0.79729 0.08049 0.0
H4273 H 0.40467 0.82393 0.17404 0.0
H4274 H 0.43739 0.85286 0.09137 0.0
H4275 H 0.44098 0.77745 0.16857 0.0
H4276 H 0.41308 0.83367 0.1428 0.0
H4277 H 0.44696 0.78891 0.11196 0.0
C4278 C 0.44946 0.8078 0.08964 0.0
C4279 C 0.44683 0.82583 0.08339 0.0
C4280 C 0.41912 0.82132 0.14847 0.0
C4281 C 0.43743 0.81619 0.11941 0.0
C4282 C 0.41417 0.81562 0.16618 0.0
C4283 C 0.42205 0.79976 0.17389 0.0
C4284 C 0.4318 0.81091 0.13832 0.0
C4285 C 0.43452 0.78972 0.1632 0.0
C4286 C 0.44501 0.80299 0.1076 0.0
C4287 C 0.43989 0.83887 0.09577 0.0
N4288 N 0.43893 0.7954 0.146 0.0
N4289 N 0.43521 0.83375 0.11318 0.0
H4290 H 0.06625 0.23231 0.6707 0.0
H4291 H 0.06505 0.15337 0.59451 0.0
H4292 H 0.09871 0.18306 0.67623 0.0
H4293 H 0.05447 0.21037 0.58241 0.0
H4294 H 0.07276 0.16206 0.62632 0.0
H4295 H 0.05772 0.22279 0.63967 0.0
C4296 C 0.07174 0.21958 0.66531 0.0
C4297 C 0.08336 0.20858 0.67601 0.0
C4298 C 0.06858 0.17259 0.61669 0.0
C4299 C 0.07321 0.19731 0.64066 0.0
C4300 C 0.06396 0.16761 0.59867 0.0
C4301 C 0.05905 0.18118 0.5859 0.0
C4302 C 0.0679 0.19118 0.62195 0.0
C4303 C 0.05819 0.19949 0.59185 0.0
C4304 C 0.06681 0.21412 0.64763 0.0
C4305 C 0.08993 0.1921 0.66836 0.0
N4306 N 0.06251 0.20394 0.60941 0.0
N4307 N 0.08463 0.18687 0.6512 0.0
H4308 H 0.04268 0.80697 0.92579 0.0
H4309 H 0.10703 0.82405 0.83974 0.0
H4310 H 0.07713 0.85502 0.92329 0.0
H4311 H 0.05353 0.79928 0.83497 0.0
H4312 H 0.10009 0.83174 0.872 0.0
H4313 H 0.04988 0.80043 0.89371 0.0
C4314 C 0.05158 0.81628 0.91836 0.0
C4315 C 0.05913 0.83168 0.92707 0.0
C4316 C 0.08997 0.82455 0.86384 0.0
C4317 C 0.06795 0.82392 0.89057 0.0
C4318 C 0.094 0.81997 0.84559 0.0
C4319 C 0.08085 0.81095 0.8348 0.0
C4320 C 0.07289 0.81964 0.87132 0.0
C4321 C 0.06403 0.80623 0.84286 0.0
C4322 C 0.05574 0.81251 0.90011 0.0
C4323 C 0.07079 0.84319 0.91692 0.0
N4324 N 0.06059 0.81051 0.86065 0.0
N4325 N 0.07505 0.83896 0.89919 0.0
H4326 H 0.60163 0.32282 0.33764 0.0
H4327 H 0.54298 0.30512 0.42775 0.0
H4328 H 0.5567 0.2843 0.3391 0.0
H4329 H 0.56935 0.35708 0.4177 0.0
H4330 H 0.54981 0.29578 0.39621 0.0
H4331 H 0.59281 0.33368 0.36829 0.0
C4332 C 0.5901 0.31645 0.3445 0.0
C4333 C 0.57994 0.30254 0.33583 0.0
C4334 C 0.55382 0.30936 0.40075 0.0
C4335 C 0.56973 0.31501 0.37077 0.0
C4336 C 0.54979 0.31474 0.41867 0.0
C4337 C 0.55523 0.33203 0.42509 0.0
C4338 C 0.56392 0.32114 0.38933 0.0
C4339 C 0.56452 0.34381 0.41304 0.0
C4340 C 0.58494 0.32282 0.36188 0.0
C4341 C 0.56494 0.29501 0.34528 0.0
N4342 N 0.56881 0.33806 0.39576 0.0
N4343 N 0.56036 0.30126 0.36225 0.0
H4344 H 0.96355 0.35131 0.59402 0.0
H4345 H 0.90426 0.29356 0.66719 0.0
H4346 H 0.92029 0.31363 0.57926 0.0
H4347 H 0.94639 0.33241 0.6822 0.0
H4348 H 0.91064 0.29998 0.63475 0.0
H4349 H 0.95822 0.34386 0.62646 0.0
C4350 C 0.953 0.34146 0.59757 0.0
C4351 C 0.94235 0.33315 0.58387 0.0
C4352 C 0.9185 0.30707 0.64517 0.0
C4353 C 0.93614 0.32454 0.6209 0.0
C4354 C 0.91487 0.30337 0.66369 0.0
C4355 C 0.92474 0.31247 0.67747 0.0
C4356 C 0.93214 0.31992 0.64041 0.0
C4357 C 0.93835 0.32508 0.67209 0.0
C4358 C 0.94993 0.33721 0.61608 0.0
C4359 C 0.92883 0.32046 0.5893 0.0
N4360 N 0.94161 0.32843 0.65405 0.0
N4361 N 0.92612 0.31658 0.60732 0.0
H4362 H 0.6021 0.71225 0.16763 0.0
H4363 H 0.54341 0.65633 0.09268 0.0
H4364 H 0.5593 0.67365 0.18132 0.0
H4365 H 0.5873 0.69374 0.07914 0.0
H4366 H 0.54827 0.66325 0.12528 0.0
H4367 H 0.59617 0.70647 0.135 0.0
C4368 C 0.59144 0.70263 0.1638 0.0
C4369 C 0.58125 0.6934 0.17726 0.0
C4370 C 0.55681 0.66996 0.11514 0.0
C4371 C 0.57436 0.68668 0.13998 0.0
C4372 C 0.55401 0.66601 0.09653 0.0
C4373 C 0.56497 0.6744 0.08313 0.0
C4374 C 0.57065 0.68241 0.12036 0.0
C4375 C 0.57852 0.68687 0.08895 0.0
C4376 C 0.58806 0.69931 0.14517 0.0
C4377 C 0.56758 0.68105 0.17146 0.0
N4378 N 0.58098 0.69045 0.10706 0.0
N4379 N 0.56457 0.67805 0.15332 0.0
H4380 H 0.59227 0.54454 0.84684 0.0
H4381 H 0.6676 0.60559 0.79378 0.0
H4382 H 0.5789 0.5918 0.81362 0.0
H4383 H 0.68076 0.55973 0.82897 0.0
H4384 H 0.63485 0.59996 0.79962 0.0
H4385 H 0.62478 0.54916 0.83942 0.0
C4386 C 0.59614 0.55586 0.838 0.0
C4387 C 0.58279 0.56779 0.8309 0.0
C4388 C 0.64494 0.5911 0.80599 0.0
C4389 C 0.61997 0.57319 0.82229 0.0
C4390 C 0.66363 0.59428 0.80259 0.0
C4391 C 0.67698 0.58319 0.81094 0.0
C4392 C 0.6396 0.57668 0.81775 0.0
C4393 C 0.671 0.56876 0.82231 0.0
C4394 C 0.6147 0.55851 0.83375 0.0
C4395 C 0.58866 0.58223 0.81947 0.0
N4396 N 0.65285 0.56596 0.82539 0.0
N4397 N 0.60674 0.58452 0.81555 0.0
H4398 H 0.70063 0.32617 0.06616 0.0
H4399 H 0.66772 0.4294 0.08246 0.0
H4400 H 0.71153 0.35537 0.11649 0.0
H4401 H 0.68029 0.40865 0.0285 0.0
H4402 H 0.67877 0.4005 0.09576 0.0
H4403 H 0.68866 0.3546 0.05269 0.0
C4404 C 0.70061 0.33857 0.07436 0.0
C4405 C 0.70725 0.33837 0.09247 0.0
C4406 C 0.67897 0.40223 0.08101 0.0
C4407 C 0.69318 0.3709 0.07719 0.0
C4408 C 0.67249 0.41865 0.07338 0.0
C4409 C 0.673 0.42143 0.0543 0.0
C4410 C 0.6857 0.38832 0.06949 0.0
C4411 C 0.67963 0.40709 0.04325 0.0
C4412 C 0.69377 0.35479 0.06664 0.0
C4413 C 0.70675 0.35488 0.10244 0.0
N4414 N 0.68563 0.39113 0.05099 0.0
N4415 N 0.69971 0.37043 0.09473 0.0
H4416 H 0.92991 0.41167 0.3271 0.0
H4417 H 0.82909 0.45465 0.32084 0.0
H4418 H 0.91715 0.46713 0.34367 0.0
H4419 H 0.84231 0.39957 0.30344 0.0
H4420 H 0.86118 0.4596 0.32881 0.0
H4421 H 0.898 0.40712 0.31844 0.0
C4422 C 0.92039 0.42294 0.32897 0.0
C4423 C 0.92631 0.43986 0.33614 0.0
C4424 C 0.85712 0.44645 0.32319 0.0
C4425 C 0.88948 0.43467 0.32608 0.0
C4426 C 0.83876 0.44358 0.31859 0.0
C4427 C 0.83292 0.42662 0.31145 0.0
C4428 C 0.86988 0.43224 0.32074 0.0
C4429 C 0.84616 0.41287 0.30882 0.0
C4430 C 0.90212 0.42029 0.32397 0.0
C4431 C 0.91323 0.45386 0.33825 0.0
N4432 N 0.86399 0.41596 0.31354 0.0
N4433 N 0.89544 0.45096 0.33321 0.0
H4434 H 0.85201 0.5937 0.54546 0.0
H4435 H 0.797 0.66672 0.60764 0.0
H4436 H 0.81954 0.57894 0.59273 0.0
H4437 H 0.83089 0.68176 0.56148 0.0
H4438 H 0.80431 0.63431 0.60182 0.0
H4439 H 0.84385 0.62604 0.55058 0.0
C4440 C 0.84321 0.59723 0.5569 0.0
C4441 C 0.8365 0.58353 0.56866 0.0
C4442 C 0.8101 0.64472 0.59294 0.0
C4443 C 0.82704 0.6205 0.57462 0.0
C4444 C 0.80587 0.66323 0.59625 0.0
C4445 C 0.81336 0.67703 0.58509 0.0
C4446 C 0.82185 0.63997 0.57834 0.0
C4447 C 0.82484 0.67165 0.57053 0.0
C4448 C 0.83853 0.61569 0.55982 0.0
C4449 C 0.82508 0.58896 0.58326 0.0
N4450 N 0.82874 0.65362 0.56761 0.0
N4451 N 0.82074 0.60694 0.58581 0.0
H4452 H 0.59315 0.45859 0.65172 0.0
H4453 H 0.66572 0.40852 0.7183 0.0
H4454 H 0.57823 0.43131 0.70215 0.0
H4455 H 0.68041 0.43568 0.66774 0.0
H4456 H 0.63355 0.41689 0.71281 0.0
H4457 H 0.62535 0.45073 0.65761 0.0
C4458 C 0.59664 0.45105 0.66406 0.0
C4459 C 0.58293 0.44562 0.67643 0.0
C4460 C 0.64384 0.421 0.70293 0.0
C4461 C 0.61974 0.43646 0.68324 0.0
C4462 C 0.6622 0.41618 0.70606 0.0
C4463 C 0.67582 0.42137 0.69349 0.0
C4464 C 0.63907 0.43107 0.68712 0.0
C4465 C 0.67043 0.43136 0.67785 0.0
C4466 C 0.61502 0.44651 0.6674 0.0
C4467 C 0.58828 0.43579 0.69217 0.0
N4468 N 0.65255 0.43586 0.67513 0.0
N4469 N 0.6062 0.43152 0.6951 0.0
H4470 H 0.84149 0.32916 0.93621 0.0
H4471 H 0.80268 0.4319 0.9316 0.0
H4472 H 0.78957 0.34334 0.9115 0.0
H4473 H 0.85491 0.418 0.95579 0.0
H4474 H 0.79747 0.39959 0.92482 0.0
H4475 H 0.84644 0.36137 0.94373 0.0
C4476 C 0.83109 0.33904 0.93231 0.0
C4477 C 0.81504 0.33343 0.92317 0.0
C4478 C 0.81006 0.40353 0.93165 0.0
C4479 C 0.8207 0.37062 0.9319 0.0
C4480 C 0.81308 0.42204 0.93558 0.0
C4481 C 0.82932 0.42778 0.94429 0.0
C4482 C 0.82337 0.39045 0.93639 0.0
C4483 C 0.84219 0.41426 0.94912 0.0
C4484 C 0.83396 0.3575 0.93666 0.0
C4485 C 0.80215 0.34698 0.91851 0.0
N4486 N 0.83896 0.39624 0.94505 0.0
N4487 N 0.80525 0.36492 0.92294 0.0
H4488 H 0.82629 0.568 0.16679 0.0
H4489 H 0.93 0.57901 0.20078 0.0
H4490 H 0.84138 0.59703 0.21616 0.0
H4491 H 0.91463 0.54802 0.15272 0.0
H4492 H 0.89776 0.58544 0.20672 0.0
H4493 H 0.85841 0.56061 0.16154 0.0
C4494 C 0.83635 0.57286 0.17659 0.0
C4495 C 0.83103 0.58321 0.19199 0.0
C4496 C 0.90138 0.57719 0.1949 0.0
C4497 C 0.86813 0.57465 0.18596 0.0
C4498 C 0.91984 0.57349 0.19145 0.0
C4499 C 0.92511 0.56297 0.17615 0.0
C4500 C 0.88792 0.57043 0.18294 0.0
C4501 C 0.91124 0.55616 0.16468 0.0
C4502 C 0.85476 0.56857 0.17354 0.0
C4503 C 0.8448 0.58905 0.20411 0.0
N4504 N 0.89329 0.56007 0.16826 0.0
N4505 N 0.86271 0.5847 0.20082 0.0
H4506 H 0.69002 0.5773 0.41997 0.0
H4507 H 0.67787 0.68089 0.45432 0.0
H4508 H 0.66072 0.59203 0.46927 0.0
H4509 H 0.70844 0.66623 0.40579 0.0
H4510 H 0.67206 0.64852 0.46021 0.0
H4511 H 0.69709 0.60956 0.41479 0.0
C4512 C 0.68504 0.58731 0.42977 0.0
C4513 C 0.67471 0.58184 0.44513 0.0
C4514 C 0.68009 0.65231 0.4483 0.0
C4515 C 0.6829 0.6191 0.43917 0.0
C4516 C 0.68345 0.67086 0.44488 0.0
C4517 C 0.69365 0.67638 0.42945 0.0
C4518 C 0.68687 0.63899 0.43619 0.0
C4519 C 0.70056 0.66264 0.41785 0.0
C4520 C 0.68914 0.60579 0.42676 0.0
C4521 C 0.66869 0.59555 0.45725 0.0
N4522 N 0.69696 0.64459 0.42141 0.0
N4523 N 0.67287 0.61353 0.454 0.0
H4524 H 0.55712 0.83107 0.68289 0.0
H4525 H 0.59233 0.82264 0.57935 0.0
H4526 H 0.60537 0.80037 0.66748 0.0
H4527 H 0.54379 0.85278 0.59499 0.0
H4528 H 0.59705 0.81403 0.61129 0.0
H4529 H 0.55172 0.83841 0.65078 0.0
C4530 C 0.5666 0.82579 0.67274 0.0
C4531 C 0.58181 0.81511 0.67797 0.0
C4532 C 0.58535 0.8225 0.60779 0.0
C4533 C 0.57565 0.82363 0.64091 0.0
C4534 C 0.58261 0.82747 0.5895 0.0
C4535 C 0.5676 0.83849 0.5844 0.0
C4536 C 0.573 0.82854 0.62123 0.0
C4537 C 0.55555 0.8443 0.59825 0.0
C4538 C 0.56347 0.83003 0.65435 0.0
C4539 C 0.59347 0.8086 0.66411 0.0
N4540 N 0.55852 0.83926 0.61602 0.0
N4541 N 0.5902 0.81305 0.64622 0.0
H4542 H 0.3292 0.45129 0.17908 0.0
H4543 H 0.43139 0.41234 0.18768 0.0
H4544 H 0.34282 0.40187 0.20887 0.0
H4545 H 0.41831 0.46426 0.16221 0.0
H4546 H 0.39909 0.4081 0.19509 0.0
H4547 H 0.36163 0.45614 0.17272 0.0
C4548 C 0.33902 0.44145 0.18437 0.0
C4549 C 0.33322 0.42608 0.1945 0.0
C4550 C 0.40324 0.42043 0.1879 0.0
C4551 C 0.37058 0.43158 0.18711 0.0
C4552 C 0.42173 0.42288 0.18359 0.0
C4553 C 0.42764 0.43871 0.17426 0.0
C4554 C 0.39043 0.43388 0.18283 0.0
C4555 C 0.41441 0.45184 0.16937 0.0
C4556 C 0.35759 0.44427 0.18071 0.0
C4557 C 0.34665 0.41391 0.20104 0.0
N4558 N 0.39642 0.44912 0.1737 0.0
N4559 N 0.3647 0.41687 0.19714 0.0
H4560 H 0.31472 0.66373 0.90048 0.0
H4561 H 0.31333 0.588 0.97993 0.0
H4562 H 0.30193 0.67629 0.95682 0.0
H4563 H 0.34786 0.58258 0.93218 0.0
H4564 H 0.30476 0.61888 0.9698 0.0
H4565 H 0.32198 0.63192 0.90969 0.0
C4566 C 0.31299 0.65965 0.91466 0.0
C4567 C 0.3076 0.67253 0.92791 0.0
C4568 C 0.31431 0.61098 0.9616 0.0
C4569 C 0.316 0.63652 0.93853 0.0
C4570 C 0.31927 0.59339 0.96742 0.0
C4571 C 0.33149 0.58277 0.95701 0.0
C4572 C 0.32128 0.61791 0.94502 0.0
C4573 C 0.33861 0.5904 0.94077 0.0
C4574 C 0.31737 0.64164 0.91995 0.0
C4575 C 0.30597 0.66672 0.94619 0.0
N4576 N 0.33328 0.60746 0.93518 0.0
N4577 N 0.31011 0.64917 0.95095 0.0
H4578 H 0.18336 0.54105 0.69715 0.0
H4579 H 0.09713 0.58505 0.64691 0.0
H4580 H 0.18584 0.59205 0.66707 0.0
H4581 H 0.09793 0.52856 0.6647 0.0
H4582 H 0.12987 0.58734 0.6534 0.0
H4583 H 0.15266 0.53559 0.68472 0.0
C4584 C 0.17757 0.55099 0.68771 0.0
C4585 C 0.18724 0.56707 0.6832 0.0
C4586 C 0.12301 0.57435 0.65569 0.0
C4587 C 0.15187 0.561 0.66911 0.0
C4588 C 0.10427 0.57303 0.652 0.0
C4589 C 0.09476 0.55659 0.65531 0.0
C4590 C 0.13238 0.55921 0.66309 0.0
C4591 C 0.10475 0.54146 0.66186 0.0
C4592 C 0.16001 0.54785 0.68063 0.0
C4593 C 0.17898 0.57944 0.67091 0.0
N4594 N 0.12298 0.54321 0.66579 0.0
N4595 N 0.16172 0.57625 0.6645 0.0
H4596 H 0.13046 0.41464 0.4416 0.0
H4597 H 0.21146 0.3431 0.42428 0.0
H4598 H 0.18615 0.42734 0.45696 0.0
H4599 H 0.15503 0.32721 0.43242 0.0
H4600 H 0.20316 0.3749 0.43267 0.0
H4601 H 0.13978 0.38308 0.43504 0.0
C4602 C 0.14461 0.41069 0.44384 0.0
C4603 C 0.15748 0.42356 0.45003 0.0
C4604 C 0.19267 0.36437 0.43263 0.0
C4605 C 0.16843 0.38754 0.44199 0.0
C4606 C 0.19737 0.34631 0.42771 0.0
C4607 C 0.18394 0.33248 0.42768 0.0
C4608 C 0.17438 0.3686 0.43717 0.0
C4609 C 0.16588 0.33736 0.43235 0.0
C4610 C 0.14996 0.39269 0.44003 0.0
C4611 C 0.17573 0.41774 0.45249 0.0
N4612 N 0.16165 0.35496 0.43678 0.0
N4613 N 0.18073 0.40018 0.44825 0.0
H4614 H 0.34236 0.60352 0.29578 0.0
H4615 H 0.41735 0.54898 0.35593 0.0
H4616 H 0.32866 0.564 0.33777 0.0
H4617 H 0.43096 0.58892 0.31431 0.0
H4618 H 0.3847 0.55393 0.34922 0.0
H4619 H 0.375 0.59798 0.302 0.0
C4620 C 0.34619 0.59367 0.30625 0.0
C4621 C 0.33271 0.58426 0.31626 0.0
C4622 C 0.39487 0.56159 0.34156 0.0
C4623 C 0.37001 0.57785 0.3235 0.0
C4624 C 0.4135 0.55876 0.34541 0.0
C4625 C 0.42696 0.56854 0.33572 0.0
C4626 C 0.38965 0.57429 0.32792 0.0
C4627 C 0.42113 0.58106 0.32219 0.0
C4628 C 0.36482 0.59051 0.30983 0.0
C4629 C 0.33852 0.57164 0.3297 0.0
N4630 N 0.40299 0.58356 0.31872 0.0
N4631 N 0.35666 0.56883 0.33292 0.0
H4632 H 0.17361 0.68196 0.057 0.0
H4633 H 0.1931 0.57783 0.08587 0.0
H4634 H 0.21091 0.66668 0.10043 0.0
H4635 H 0.15644 0.59324 0.04196 0.0
H4636 H 0.20008 0.61011 0.09104 0.0
H4637 H 0.16771 0.64965 0.05101 0.0
C4638 C 0.18064 0.67181 0.0653 0.0
C4639 C 0.19277 0.67712 0.07933 0.0
C4640 C 0.19052 0.60648 0.08026 0.0
C4641 C 0.18595 0.63983 0.07245 0.0
C4642 C 0.18648 0.588 0.07727 0.0
C4643 C 0.17409 0.58274 0.06344 0.0
C4644 C 0.18214 0.61996 0.06938 0.0
C4645 C 0.16603 0.59662 0.05277 0.0
C4646 C 0.17722 0.6533 0.06182 0.0
C4647 C 0.20147 0.66325 0.08949 0.0
N4648 N 0.17018 0.61459 0.05599 0.0
N4649 N 0.19783 0.64524 0.08589 0.0
H4650 H 0.17006 0.42039 0.79832 0.0
H4651 H 0.08894 0.45999 0.86174 0.0
H4652 H 0.17625 0.43207 0.85605 0.0
H4653 H 0.08041 0.43756 0.80763 0.0
H4654 H 0.12187 0.45326 0.85878 0.0
H4655 H 0.13771 0.42949 0.80047 0.0
C4656 C 0.16462 0.42477 0.81144 0.0
C4657 C 0.17589 0.42533 0.82703 0.0
C4658 C 0.11276 0.44992 0.84752 0.0
C4659 C 0.13899 0.43603 0.82956 0.0
C4660 C 0.09402 0.45389 0.84918 0.0
C4661 C 0.08191 0.44925 0.83497 0.0
C4662 C 0.11941 0.44143 0.83148 0.0
C4663 C 0.08921 0.44124 0.81901 0.0
C4664 C 0.14618 0.43002 0.81266 0.0
C4665 C 0.1681 0.43128 0.84367 0.0
N4666 N 0.10743 0.43756 0.81772 0.0
N4667 N 0.1502 0.43643 0.84447 0.0
H4668 H 0.35538 0.42562 0.56985 0.0
H4669 H 0.3092 0.32963 0.54533 0.0
H4670 H 0.32037 0.41772 0.52281 0.0
H4671 H 0.32255 0.34366 0.6012 0.0
H4672 H 0.31656 0.36094 0.53592 0.0
H4673 H 0.34742 0.39452 0.5805 0.0
C4674 C 0.34628 0.41725 0.56161 0.0
C4675 C 0.33862 0.42422 0.54533 0.0
C4676 C 0.31772 0.35728 0.55027 0.0
C4677 C 0.3294 0.38881 0.55748 0.0
C4678 C 0.31348 0.33942 0.55567 0.0
C4679 C 0.3151 0.33411 0.57409 0.0
C4680 C 0.32408 0.36995 0.5633 0.0
C4681 C 0.32086 0.34731 0.5869 0.0
C4682 C 0.34157 0.39962 0.56782 0.0
C4683 C 0.32664 0.4129 0.53539 0.0
N4684 N 0.32537 0.36462 0.58123 0.0
N4685 N 0.32249 0.39578 0.54156 0.0
H4686 H 0.43516 0.21158 0.33314 0.0
H4687 H 0.40464 0.17222 0.43066 0.0
H4688 H 0.38227 0.18737 0.34402 0.0
H4689 H 0.4618 0.17654 0.41589 0.0
H4690 H 0.39614 0.18174 0.39989 0.0
H4691 H 0.44496 0.20318 0.36438 0.0
C4692 C 0.42551 0.20481 0.3422 0.0
C4693 C 0.40782 0.20024 0.33602 0.0
C4694 C 0.41056 0.18054 0.40326 0.0
C4695 C 0.41897 0.19053 0.37156 0.0
C4696 C 0.41546 0.1751 0.42088 0.0
C4697 C 0.43399 0.17351 0.42588 0.0
C4698 C 0.42423 0.1847 0.3904 0.0
C4699 C 0.44736 0.17744 0.41256 0.0
C4700 C 0.4312 0.19984 0.35991 0.0
C4701 C 0.39601 0.19118 0.3482 0.0
N4702 N 0.44221 0.18299 0.39539 0.0
N4703 N 0.40177 0.18669 0.36534 0.0
loop_
_geom_bond_atom_site_label_1
_geom_bond_atom_site_label_2
_geom_bond_distance
_geom_bond_site_symmetry_2
_ccdc_geom_bond_type
Mg0 O7 2.141 . S
Mg0 O8 2.048 . S
Mg0 O9 2.048 . S
Mg0 O12 2.141 1_455 S
C1 O2 1.313 . S
C1 O8 1.195 . S
O2 C1 1.313 . S
C3 O4 1.245 . S
C3 O12 1.289 . S
O4 C3 1.245 . S
C5 O6 1.245 . S
C5 O7 1.289 . S
O6 C5 1.245 . S
O7 Mg0 2.141 . S
O7 C5 1.289 . S
O8 Mg0 2.048 . S
O8 C1 1.195 . S
O9 Mg0 2.048 . S
O9 C10 1.195 . S
C10 O9 1.195 . S
C10 O11 1.313 . S
O11 C10 1.313 . S
O12 Mg0 2.141 1_655 S
O12 C3 1.289 . S
Mg13 O20 2.141 . S
Mg13 O21 2.048 . S
Mg13 O22 2.048 . S
Mg13 O25 2.141 . S
C14 O15 1.313 . S
C14 O21 1.195 . S
O15 C14 1.313 . S
C16 O17 1.245 . S
C16 O25 1.289 . S
O17 C16 1.245 . S
C18 O19 1.245 . S
C18 O20 1.289 . S
O19 C18 1.245 . S
O20 Mg13 2.141 . S
O20 C18 1.289 . S
O21 Mg13 2.048 . S
O21 C14 1.195 . S
O22 Mg13 2.048 . S
O22 C23 1.195 . S
C23 O22 1.195 . S
C23 O24 1.313 . S
O24 C23 1.313 . S
O25 Mg13 2.141 . S
O25 C16 1.289 . S
Mg26 O33 2.141 . S
Mg26 O34 2.048 . S
Mg26 O35 2.048 . S
Mg26 O38 2.141 . S
C27 O28 1.313 . S
C27 O34 1.195 . S
O28 C27 1.313 . S
C29 O30 1.245 . S
C29 O38 1.289 . S
O30 C29 1.245 . S
C31 O32 1.245 . S
C31 O33 1.289 . S
O32 C31 1.245 . S
O33 Mg26 2.141 . S
O33 C31 1.289 . S
O34 Mg26 2.048 . S
O34 C27 1.195 . S
O35 Mg26 2.048 . S
O35 C36 1.195 . S
C36 O35 1.195 . S
C36 O37 1.313 . S
O37 C36 1.313 . S
O38 Mg26 2.141 . S
O38 C29 1.289 . S
Mg39 O46 2.141 . S
Mg39 O47 2.048 . S
Mg39 O48 2.048 . S
Mg39 O51 2.141 . S
C40 O41 1.313 . S
C40 O47 1.195 . S
O41 C40 1.313 . S
C42 O43 1.245 . S
C42 O51 1.289 . S
O43 C42 1.245 . S
C44 O45 1.245 . S
C44 O46 1.289 . S
O45 C44 1.245 . S
O46 Mg39 2.141 . S
O46 C44 1.289 . S
O47 Mg39 2.048 . S
O47 C40 1.195 . S
O48 Mg39 2.048 . S
O48 C49 1.195 . S
C49 O48 1.195 . S
C49 O50 1.313 . S
O50 C49 1.313 . S
O51 Mg39 2.141 . S
O51 C42 1.289 . S
Mg52 O59 2.141 . S
Mg52 O60 2.048 . S
Mg52 O61 2.048 . S
Mg52 O64 2.141 1_455 S
C53 O54 1.313 . S
C53 O60 1.195 . S
O54 C53 1.313 . S
C55 O56 1.245 . S
C55 O64 1.289 . S
O56 C55 1.245 . S
C57 O58 1.245 . S
C57 O59 1.289 . S
O58 C57 1.245 . S
O59 Mg52 2.141 . S
O59 C57 1.289 . S
O60 Mg52 2.048 . S
O60 C53 1.195 . S
O61 Mg52 2.048 . S
O61 C62 1.195 . S
C62 O61 1.195 . S
C62 O63 1.313 . S
O63 C62 1.313 . S
O64 Mg52 2.141 1_655 S
O64 C55 1.289 . S
Mg65 O72 2.141 . S
Mg65 O73 2.048 . S
Mg65 O74 2.048 . S
Mg65 O77 2.141 . S
C66 O67 1.313 . S
C66 O73 1.195 . S
O67 C66 1.313 . S
C68 O69 1.245 . S
C68 O77 1.289 . S
O69 C68 1.245 . S
C70 O71 1.245 . S
C70 O72 1.289 . S
O71 C70 1.245 . S
O72 Mg65 2.141 . S
O72 C70 1.289 . S
O73 Mg65 2.048 . S
O73 C66 1.195 . S
O74 Mg65 2.048 . S
O74 C75 1.195 . S
C75 O74 1.195 . S
C75 O76 1.313 . S
O76 C75 1.313 . S
O77 Mg65 2.141 . S
O77 C68 1.289 . S
Mg78 O85 2.141 . S
Mg78 O86 2.048 . S
Mg78 O87 2.048 . S
Mg78 O90 2.141 . S
C79 O80 1.313 . S
C79 O86 1.195 . S
O80 C79 1.313 . S
C81 O82 1.245 . S
C81 O90 1.289 . S
O82 C81 1.245 . S
C83 O84 1.245 . S
C83 O85 1.289 . S
O84 C83 1.245 . S
O85 Mg78 2.141 . S
O85 C83 1.289 . S
O86 Mg78 2.048 . S
O86 C79 1.195 . S
O87 Mg78 2.048 . S
O87 C88 1.195 . S
C88 O87 1.195 . S
C88 O89 1.313 . S
O89 C88 1.313 . S
O90 Mg78 2.141 . S
O90 C81 1.289 . S
Mg91 O98 2.141 . S
Mg91 O99 2.048 . S
Mg91 O100 2.048 . S
Mg91 O103 2.141 . S
C92 O93 1.313 . S
C92 O99 1.195 . S
O93 C92 1.313 . S
C94 O95 1.245 . S
C94 O103 1.289 . S
O95 C94 1.245 . S
C96 O97 1.245 . S
C96 O98 1.289 . S
O97 C96 1.245 . S
O98 Mg91 2.141 . S
O98 C96 1.289 . S
O99 Mg91 2.048 . S
O99 C92 1.195 . S
O100 Mg91 2.048 . S
O100 C101 1.195 . S
C101 O100 1.195 . S
C101 O102 1.313 . S
O102 C101 1.313 . S
O103 Mg91 2.141 . S
O103 C94 1.289 . S
Mg104 O111 2.141 . S
Mg104 O112 2.048 . S
Mg104 O113 2.048 . S
Mg104 O116 2.141 1_545 S
C105 O106 1.313 . S
C105 O112 1.195 . S
O106 C105 1.313 . S
C107 O108 1.245 . S
C107 O116 1.289 . S
O108 C107 1.245 . S
C109 O110 1.245 . S
C109 O111 1.289 . S
O110 C109 1.245 . S
O111 Mg104 2.141 . S
O111 C109 1.289 . S
O112 Mg104 2.048 . S
O112 C105 1.195 . S
O113 Mg104 2.048 . S
O113 C114 1.195 . S
C114 O113 1.195 . S
C114 O115 1.313 . S
O115 C114 1.313 . S
O116 Mg104 2.141 1_565 S
O116 C107 1.289 . S
Mg117 O124 2.141 . S
Mg117 O125 2.048 . S
Mg117 O126 2.048 . S
Mg117 O129 2.141 . S
C118 O119 1.313 . S
C118 O125 1.195 . S
O119 C118 1.313 . S
C120 O121 1.245 . S
C120 O129 1.289 . S
O121 C120 1.245 . S
C122 O123 1.245 . S
C122 O124 1.289 . S
O123 C122 1.245 . S
O124 Mg117 2.141 . S
O124 C122 1.289 . S
O125 Mg117 2.048 . S
O125 C118 1.195 . S
O126 Mg117 2.048 . S
O126 C127 1.195 . S
C127 O126 1.195 . S
C127 O128 1.313 . S
O128 C127 1.313 . S
O129 Mg117 2.141 . S
O129 C120 1.289 . S
Mg130 O137 2.141 . S
Mg130 O138 2.048 . S
Mg130 O139 2.048 . S
Mg130 O142 2.141 1_565 S
C131 O132 1.313 . S
C131 O138 1.195 . S
O132 C131 1.313 . S
C133 O134 1.245 . S
C133 O142 1.289 . S
O134 C133 1.245 . S
C135 O136 1.245 . S
C135 O137 1.289 . S
O136 C135 1.245 . S
O137 Mg130 2.141 . S
O137 C135 1.289 . S
O138 Mg130 2.048 . S
O138 C131 1.195 . S
O139 Mg130 2.048 . S
O139 C140 1.195 . S
C140 O139 1.195 . S
C140 O141 1.313 . S
O141 C140 1.313 . S
O142 Mg130 2.141 1_545 S
O142 C133 1.289 . S
Mg143 O150 2.141 . S
Mg143 O151 2.048 . S
Mg143 O152 2.048 . S
Mg143 O155 2.141 . S
C144 O145 1.313 . S
C144 O151 1.195 . S
O145 C144 1.313 . S
C146 O147 1.245 . S
C146 O155 1.289 . S
O147 C146 1.245 . S
C148 O149 1.245 . S
C148 O150 1.289 . S
O149 C148 1.245 . S
O150 Mg143 2.141 . S
O150 C148 1.289 . S
O151 Mg143 2.048 . S
O151 C144 1.195 . S
O152 Mg143 2.048 . S
O152 C153 1.195 . S
C153 O152 1.195 . S
C153 O154 1.313 . S
O154 C153 1.313 . S
O155 Mg143 2.141 . S
O155 C146 1.289 . S
Mg156 O163 2.141 . S
Mg156 O164 2.048 . S
Mg156 O165 2.048 . S
Mg156 O168 2.141 1_565 S
C157 O158 1.313 . S
C157 O164 1.195 . S
O158 C157 1.313 . S
C159 O160 1.245 . S
C159 O168 1.289 . S
O160 C159 1.245 . S
C161 O162 1.245 . S
C161 O163 1.289 . S
O162 C161 1.245 . S
O163 Mg156 2.141 . S
O163 C161 1.289 . S
O164 Mg156 2.048 . S
O164 C157 1.195 . S
O165 Mg156 2.048 . S
O165 C166 1.195 . S
C166 O165 1.195 . S
C166 O167 1.313 . S
O167 C166 1.313 . S
O168 Mg156 2.141 1_545 S
O168 C159 1.289 . S
Mg169 O176 2.141 . S
Mg169 O177 2.048 . S
Mg169 O178 2.048 . S
Mg169 O181 2.141 . S
C170 O171 1.313 . S
C170 O177 1.195 . S
O171 C170 1.313 . S
C172 O173 1.245 . S
C172 O181 1.289 . S
O173 C172 1.245 . S
C174 O175 1.245 . S
C174 O176 1.289 . S
O175 C174 1.245 . S
O176 Mg169 2.141 . S
O176 C174 1.289 . S
O177 Mg169 2.048 . S
O177 C170 1.195 . S
O178 Mg169 2.048 . S
O178 C179 1.195 . S
C179 O178 1.195 . S
C179 O180 1.313 . S
O180 C179 1.313 . S
O181 Mg169 2.141 . S
O181 C172 1.289 . S
Mg182 O189 2.141 . S
Mg182 O190 2.048 . S
Mg182 O191 2.048 . S
Mg182 O194 2.141 1_545 S
C183 O184 1.313 . S
C183 O190 1.195 . S
O184 C183 1.313 . S
C185 O186 1.245 . S
C185 O194 1.289 . S
O186 C185 1.245 . S
C187 O188 1.245 . S
C187 O189 1.289 . S
O188 C187 1.245 . S
O189 Mg182 2.141 . S
O189 C187 1.289 . S
O190 Mg182 2.048 . S
O190 C183 1.195 . S
O191 Mg182 2.048 . S
O191 C192 1.195 . S
C192 O191 1.195 . S
C192 O193 1.313 . S
O193 C192 1.313 . S
O194 Mg182 2.141 1_565 S
O194 C185 1.289 . S
Mg195 O202 2.141 . S
Mg195 O203 2.048 . S
Mg195 O204 2.048 . S
Mg195 O207 2.141 . S
C196 O197 1.313 . S
C196 O203 1.195 . S
O197 C196 1.313 . S
C198 O199 1.245 . S
C198 O207 1.289 . S
O199 C198 1.245 . S
C200 O201 1.245 . S
C200 O202 1.289 . S
O201 C200 1.245 . S
O202 Mg195 2.141 . S
O202 C200 1.289 . S
O203 Mg195 2.048 . S
O203 C196 1.195 . S
O204 Mg195 2.048 . S
O204 C205 1.195 . S
C205 O204 1.195 . S
C205 O206 1.313 . S
O206 C205 1.313 . S
O207 Mg195 2.141 . S
O207 C198 1.289 . S
Mg208 O215 2.141 . S
Mg208 O216 2.048 . S
Mg208 O217 2.048 . S
Mg208 O220 2.141 1_554 S
C209 O210 1.313 . S
C209 O216 1.195 . S
O210 C209 1.313 . S
C211 O212 1.245 . S
C211 O220 1.289 . S
O212 C211 1.245 . S
C213 O214 1.245 . S
C213 O215 1.289 . S
O214 C213 1.245 . S
O215 Mg208 2.141 . S
O215 C213 1.289 . S
O216 Mg208 2.048 . S
O216 C209 1.195 . S
O217 Mg208 2.048 . S
O217 C218 1.195 . S
C218 O217 1.195 . S
C218 O219 1.313 . S
O219 C218 1.313 . S
O220 Mg208 2.141 1_556 S
O220 C211 1.289 . S
Mg221 O228 2.141 . S
Mg221 O229 2.048 . S
Mg221 O230 2.048 . S
Mg221 O233 2.141 1_556 S
C222 O223 1.313 . S
C222 O229 1.195 . S
O223 C222 1.313 . S
C224 O225 1.245 . S
C224 O233 1.289 . S
O225 C224 1.245 . S
C226 O227 1.245 . S
C226 O228 1.289 . S
O227 C226 1.245 . S
O228 Mg221 2.141 . S
O228 C226 1.289 . S
O229 Mg221 2.048 . S
O229 C222 1.195 . S
O230 Mg221 2.048 . S
O230 C231 1.195 . S
C231 O230 1.195 . S
C231 O232 1.313 . S
O232 C231 1.313 . S
O233 Mg221 2.141 1_554 S
O233 C224 1.289 . S
Mg234 O241 2.141 . S
Mg234 O242 2.048 . S
Mg234 O243 2.048 . S
Mg234 O246 2.141 . S
C235 O236 1.313 . S
C235 O242 1.195 . S
O236 C235 1.313 . S
C237 O238 1.245 . S
C237 O246 1.289 . S
O238 C237 1.245 . S
C239 O240 1.245 . S
C239 O241 1.289 . S
O240 C239 1.245 . S
O241 Mg234 2.141 . S
O241 C239 1.289 . S
O242 Mg234 2.048 . S
O242 C235 1.195 . S
O243 Mg234 2.048 . S
O243 C244 1.195 . S
C244 O243 1.195 . S
C244 O245 1.313 . S
O245 C244 1.313 . S
O246 Mg234 2.141 . S
O246 C237 1.289 . S
Mg247 O254 2.141 . S
Mg247 O255 2.048 . S
Mg247 O256 2.048 . S
Mg247 O259 2.141 . S
C248 O249 1.313 . S
C248 O255 1.195 . S
O249 C248 1.313 . S
C250 O251 1.245 . S
C250 O259 1.289 . S
O251 C250 1.245 . S
C252 O253 1.245 . S
C252 O254 1.289 . S
O253 C252 1.245 . S
O254 Mg247 2.141 . S
O254 C252 1.289 . S
O255 Mg247 2.048 . S
O255 C248 1.195 . S
O256 Mg247 2.048 . S
O256 C257 1.195 . S
C257 O256 1.195 . S
C257 O258 1.313 . S
O258 C257 1.313 . S
O259 Mg247 2.141 . S
O259 C250 1.289 . S
Mg260 O267 2.141 . S
Mg260 O268 2.048 . S
Mg260 O269 2.048 . S
Mg260 O272 2.141 . S
C261 O262 1.313 . S
C261 O268 1.195 . S
O262 C261 1.313 . S
C263 O264 1.245 . S
C263 O272 1.289 . S
O264 C263 1.245 . S
C265 O266 1.245 . S
C265 O267 1.289 . S
O266 C265 1.245 . S
O267 Mg260 2.141 . S
O267 C265 1.289 . S
O268 Mg260 2.048 . S
O268 C261 1.195 . S
O269 Mg260 2.048 . S
O269 C270 1.195 . S
C270 O269 1.195 . S
C270 O271 1.313 . S
O271 C270 1.313 . S
O272 Mg260 2.141 . S
O272 C263 1.289 . S
Mg273 O280 2.141 . S
Mg273 O281 2.048 . S
Mg273 O282 2.048 . S
Mg273 O285 2.141 . S
C274 O275 1.313 . S
C274 O281 1.195 . S
O275 C274 1.313 . S
C276 O277 1.245 . S
C276 O285 1.289 . S
O277 C276 1.245 . S
C278 O279 1.245 . S
C278 O280 1.289 . S
O279 C278 1.245 . S
O280 Mg273 2.141 . S
O280 C278 1.289 . S
O281 Mg273 2.048 . S
O281 C274 1.195 . S
O282 Mg273 2.048 . S
O282 C283 1.195 . S
C283 O282 1.195 . S
C283 O284 1.313 . S
O284 C283 1.313 . S
O285 Mg273 2.141 . S
O285 C276 1.289 . S
Mg286 O293 2.141 . S
Mg286 O294 2.048 . S
Mg286 O295 2.048 . S
Mg286 O298 2.141 . S
C287 O288 1.313 . S
C287 O294 1.195 . S
O288 C287 1.313 . S
C289 O290 1.245 . S
C289 O298 1.289 . S
O290 C289 1.245 . S
C291 O292 1.245 . S
C291 O293 1.289 . S
O292 C291 1.245 . S
O293 Mg286 2.141 . S
O293 C291 1.289 . S
O294 Mg286 2.048 . S
O294 C287 1.195 . S
O295 Mg286 2.048 . S
O295 C296 1.195 . S
C296 O295 1.195 . S
C296 O297 1.313 . S
O297 C296 1.313 . S
O298 Mg286 2.141 . S
O298 C289 1.289 . S
Mg299 O306 2.141 . S
Mg299 O307 2.048 . S
Mg299 O308 2.048 . S
Mg299 O311 2.141 . S
C300 O301 1.313 . S
C300 O307 1.195 . S
O301 C300 1.313 . S
C302 O303 1.245 . S
C302 O311 1.289 . S
O303 C302 1.245 . S
C304 O305 1.245 . S
C304 O306 1.289 . S
O305 C304 1.245 . S
O306 Mg299 2.141 . S
O306 C304 1.289 . S
O307 Mg299 2.048 . S
O307 C300 1.195 . S
O308 Mg299 2.048 . S
O308 C309 1.195 . S
C309 O308 1.195 . S
C309 O310 1.313 . S
O310 C309 1.313 . S
O311 Mg299 2.141 . S
O311 C302 1.289 . S
Mg312 O319 2.141 . S
Mg312 O320 2.048 . S
Mg312 O321 2.048 . S
Mg312 O324 2.141 1_655 S
C313 O314 1.313 . S
C313 O320 1.195 . S
O314 C313 1.313 . S
C315 O316 1.245 . S
C315 O324 1.289 . S
O316 C315 1.245 . S
C317 O318 1.245 . S
C317 O319 1.289 . S
O318 C317 1.245 . S
O319 Mg312 2.141 . S
O319 C317 1.289 . S
O320 Mg312 2.048 . S
O320 C313 1.195 . S
O321 Mg312 2.048 . S
O321 C322 1.195 . S
C322 O321 1.195 . S
C322 O323 1.313 . S
O323 C322 1.313 . S
O324 Mg312 2.141 1_455 S
O324 C315 1.289 . S
Mg325 O332 2.141 . S
Mg325 O333 2.048 . S
Mg325 O334 2.048 . S
Mg325 O337 2.141 . S
C326 O327 1.313 . S
C326 O333 1.195 . S
O327 C326 1.313 . S
C328 O329 1.245 . S
C328 O337 1.289 . S
O329 C328 1.245 . S
C330 O331 1.245 . S
C330 O332 1.289 . S
O331 C330 1.245 . S
O332 Mg325 2.141 . S
O332 C330 1.289 . S
O333 Mg325 2.048 . S
O333 C326 1.195 . S
O334 Mg325 2.048 . S
O334 C335 1.195 . S
C335 O334 1.195 . S
C335 O336 1.313 . S
O336 C335 1.313 . S
O337 Mg325 2.141 . S
O337 C328 1.289 . S
Mg338 O345 2.141 . S
Mg338 O346 2.048 . S
Mg338 O347 2.048 . S
Mg338 O350 2.141 . S
C339 O340 1.313 . S
C339 O346 1.195 . S
O340 C339 1.313 . S
C341 O342 1.245 . S
C341 O350 1.289 . S
O342 C341 1.245 . S
C343 O344 1.245 . S
C343 O345 1.289 . S
O344 C343 1.245 . S
O345 Mg338 2.141 . S
O345 C343 1.289 . S
O346 Mg338 2.048 . S
O346 C339 1.195 . S
O347 Mg338 2.048 . S
O347 C348 1.195 . S
C348 O347 1.195 . S
C348 O349 1.313 . S
O349 C348 1.313 . S
O350 Mg338 2.141 . S
O350 C341 1.289 . S
Mg351 O358 2.141 . S
Mg351 O359 2.048 . S
Mg351 O360 2.048 . S
Mg351 O363 2.141 . S
C352 O353 1.313 . S
C352 O359 1.195 . S
O353 C352 1.313 . S
C354 O355 1.245 . S
C354 O363 1.289 . S
O355 C354 1.245 . S
C356 O357 1.245 . S
C356 O358 1.289 . S
O357 C356 1.245 . S
O358 Mg351 2.141 . S
O358 C356 1.289 . S
O359 Mg351 2.048 . S
O359 C352 1.195 . S
O360 Mg351 2.048 . S
O360 C361 1.195 . S
C361 O360 1.195 . S
C361 O362 1.313 . S
O362 C361 1.313 . S
O363 Mg351 2.141 . S
O363 C354 1.289 . S
Mg364 O371 2.141 . S
Mg364 O372 2.048 . S
Mg364 O373 2.048 . S
Mg364 O376 2.141 1_655 S
C365 O366 1.313 . S
C365 O372 1.195 . S
O366 C365 1.313 . S
C367 O368 1.245 . S
C367 O376 1.289 . S
O368 C367 1.245 . S
C369 O370 1.245 . S
C369 O371 1.289 . S
O370 C369 1.245 . S
O371 Mg364 2.141 . S
O371 C369 1.289 . S
O372 Mg364 2.048 . S
O372 C365 1.195 . S
O373 Mg364 2.048 . S
O373 C374 1.195 . S
C374 O373 1.195 . S
C374 O375 1.313 . S
O375 C374 1.313 . S
O376 Mg364 2.141 1_455 S
O376 C367 1.289 . S
Mg377 O384 2.141 . S
Mg377 O385 2.048 . S
Mg377 O386 2.048 . S
Mg377 O389 2.141 . S
C378 O379 1.313 . S
C378 O385 1.195 . S
O379 C378 1.313 . S
C380 O381 1.245 . S
C380 O389 1.289 . S
O381 C380 1.245 . S
C382 O383 1.245 . S
C382 O384 1.289 . S
O383 C382 1.245 . S
O384 Mg377 2.141 . S
O384 C382 1.289 . S
O385 Mg377 2.048 . S
O385 C378 1.195 . S
O386 Mg377 2.048 . S
O386 C387 1.195 . S
C387 O386 1.195 . S
C387 O388 1.313 . S
O388 C387 1.313 . S
O389 Mg377 2.141 . S
O389 C380 1.289 . S
Mg390 O397 2.141 . S
Mg390 O398 2.048 . S
Mg390 O399 2.048 . S
Mg390 O402 2.141 . S
C391 O392 1.313 . S
C391 O398 1.195 . S
O392 C391 1.313 . S
C393 O394 1.245 . S
C393 O402 1.289 . S
O394 C393 1.245 . S
C395 O396 1.245 . S
C395 O397 1.289 . S
O396 C395 1.245 . S
O397 Mg390 2.141 . S
O397 C395 1.289 . S
O398 Mg390 2.048 . S
O398 C391 1.195 . S
O399 Mg390 2.048 . S
O399 C400 1.195 . S
C400 O399 1.195 . S
C400 O401 1.313 . S
O401 C400 1.313 . S
O402 Mg390 2.141 . S
O402 C393 1.289 . S
Mg403 O410 2.141 . S
Mg403 O411 2.048 . S
Mg403 O412 2.048 . S
Mg403 O415 2.141 . S
C404 O405 1.313 . S
C404 O411 1.195 . S
O405 C404 1.313 . S
C406 O407 1.245 . S
C406 O415 1.289 . S
O407 C406 1.245 . S
C408 O409 1.245 . S
C408 O410 1.289 . S
O409 C408 1.245 . S
O410 Mg403 2.141 . S
O410 C408 1.289 . S
O411 Mg403 2.048 . S
O411 C404 1.195 . S
O412 Mg403 2.048 . S
O412 C413 1.195 . S
C413 O412 1.195 . S
C413 O414 1.313 . S
O414 C413 1.313 . S
O415 Mg403 2.141 . S
O415 C406 1.289 . S
Mg416 O423 2.141 1_565 S
Mg416 O424 2.048 . S
Mg416 O425 2.048 . S
Mg416 O428 2.141 . S
C417 O418 1.313 . S
C417 O424 1.195 . S
O418 C417 1.313 . S
C419 O420 1.245 . S
C419 O428 1.289 . S
O420 C419 1.245 . S
C421 O422 1.245 . S
C421 O423 1.289 . S
O422 C421 1.245 . S
O423 Mg416 2.141 1_545 S
O423 C421 1.289 . S
O424 Mg416 2.048 . S
O424 C417 1.195 . S
O425 Mg416 2.048 . S
O425 C426 1.195 . S
C426 O425 1.195 . S
C426 O427 1.313 . S
O427 C426 1.313 . S
O428 Mg416 2.141 . S
O428 C419 1.289 . S
Mg429 O436 2.141 . S
Mg429 O437 2.048 . S
Mg429 O438 2.048 . S
Mg429 O441 2.141 . S
C430 O431 1.313 . S
C430 O437 1.195 . S
O431 C430 1.313 . S
C432 O433 1.245 . S
C432 O441 1.289 . S
O433 C432 1.245 . S
C434 O435 1.245 . S
C434 O436 1.289 . S
O435 C434 1.245 . S
O436 Mg429 2.141 . S
O436 C434 1.289 . S
O437 Mg429 2.048 . S
O437 C430 1.195 . S
O438 Mg429 2.048 . S
O438 C439 1.195 . S
C439 O438 1.195 . S
C439 O440 1.313 . S
O440 C439 1.313 . S
O441 Mg429 2.141 . S
O441 C432 1.289 . S
Mg442 O449 2.141 1_545 S
Mg442 O450 2.048 . S
Mg442 O451 2.048 . S
Mg442 O454 2.141 . S
C443 O444 1.313 . S
C443 O450 1.195 . S
O444 C443 1.313 . S
C445 O446 1.245 . S
C445 O454 1.289 . S
O446 C445 1.245 . S
C447 O448 1.245 . S
C447 O449 1.289 . S
O448 C447 1.245 . S
O449 Mg442 2.141 1_565 S
O449 C447 1.289 . S
O450 Mg442 2.048 . S
O450 C443 1.195 . S
O451 Mg442 2.048 . S
O451 C452 1.195 . S
C452 O451 1.195 . S
C452 O453 1.313 . S
O453 C452 1.313 . S
O454 Mg442 2.141 . S
O454 C445 1.289 . S
Mg455 O462 2.141 . S
Mg455 O463 2.048 . S
Mg455 O464 2.048 . S
Mg455 O467 2.141 . S
C456 O457 1.313 . S
C456 O463 1.195 . S
O457 C456 1.313 . S
C458 O459 1.245 . S
C458 O467 1.289 . S
O459 C458 1.245 . S
C460 O461 1.245 . S
C460 O462 1.289 . S
O461 C460 1.245 . S
O462 Mg455 2.141 . S
O462 C460 1.289 . S
O463 Mg455 2.048 . S
O463 C456 1.195 . S
O464 Mg455 2.048 . S
O464 C465 1.195 . S
C465 O464 1.195 . S
C465 O466 1.313 . S
O466 C465 1.313 . S
O467 Mg455 2.141 . S
O467 C458 1.289 . S
Mg468 O475 2.141 1_545 S
Mg468 O476 2.048 . S
Mg468 O477 2.048 . S
Mg468 O480 2.141 . S
C469 O470 1.313 . S
C469 O476 1.195 . S
O470 C469 1.313 . S
C471 O472 1.245 . S
C471 O480 1.289 . S
O472 C471 1.245 . S
C473 O474 1.245 . S
C473 O475 1.289 . S
O474 C473 1.245 . S
O475 Mg468 2.141 1_565 S
O475 C473 1.289 . S
O476 Mg468 2.048 . S
O476 C469 1.195 . S
O477 Mg468 2.048 . S
O477 C478 1.195 . S
C478 O477 1.195 . S
C478 O479 1.313 . S
O479 C478 1.313 . S
O480 Mg468 2.141 . S
O480 C471 1.289 . S
Mg481 O488 2.141 . S
Mg481 O489 2.048 . S
Mg481 O490 2.048 . S
Mg481 O493 2.141 . S
C482 O483 1.313 . S
C482 O489 1.195 . S
O483 C482 1.313 . S
C484 O485 1.245 . S
C484 O493 1.289 . S
O485 C484 1.245 . S
C486 O487 1.245 . S
C486 O488 1.289 . S
O487 C486 1.245 . S
O488 Mg481 2.141 . S
O488 C486 1.289 . S
O489 Mg481 2.048 . S
O489 C482 1.195 . S
O490 Mg481 2.048 . S
O490 C491 1.195 . S
C491 O490 1.195 . S
C491 O492 1.313 . S
O492 C491 1.313 . S
O493 Mg481 2.141 . S
O493 C484 1.289 . S
Mg494 O501 2.141 1_565 S
Mg494 O502 2.048 . S
Mg494 O503 2.048 . S
Mg494 O506 2.141 . S
C495 O496 1.313 . S
C495 O502 1.195 . S
O496 C495 1.313 . S
C497 O498 1.245 . S
C497 O506 1.289 . S
O498 C497 1.245 . S
C499 O500 1.245 . S
C499 O501 1.289 . S
O500 C499 1.245 . S
O501 Mg494 2.141 1_545 S
O501 C499 1.289 . S
O502 Mg494 2.048 . S
O502 C495 1.195 . S
O503 Mg494 2.048 . S
O503 C504 1.195 . S
C504 O503 1.195 . S
C504 O505 1.313 . S
O505 C504 1.313 . S
O506 Mg494 2.141 . S
O506 C497 1.289 . S
Mg507 O514 2.141 . S
Mg507 O515 2.048 . S
Mg507 O516 2.048 . S
Mg507 O519 2.141 . S
C508 O509 1.313 . S
C508 O515 1.195 . S
O509 C508 1.313 . S
C510 O511 1.245 . S
C510 O519 1.289 . S
O511 C510 1.245 . S
C512 O513 1.245 . S
C512 O514 1.289 . S
O513 C512 1.245 . S
O514 Mg507 2.141 . S
O514 C512 1.289 . S
O515 Mg507 2.048 . S
O515 C508 1.195 . S
O516 Mg507 2.048 . S
O516 C517 1.195 . S
C517 O516 1.195 . S
C517 O518 1.313 . S
O518 C517 1.313 . S
O519 Mg507 2.141 . S
O519 C510 1.289 . S
Mg520 O527 2.141 . S
Mg520 O528 2.048 . S
Mg520 O529 2.048 . S
Mg520 O532 2.141 1_556 S
C521 O522 1.313 . S
C521 O528 1.195 . S
O522 C521 1.313 . S
C523 O524 1.245 . S
C523 O532 1.289 . S
O524 C523 1.245 . S
C525 O526 1.245 . S
C525 O527 1.289 . S
O526 C525 1.245 . S
O527 Mg520 2.141 . S
O527 C525 1.289 . S
O528 Mg520 2.048 . S
O528 C521 1.195 . S
O529 Mg520 2.048 . S
O529 C530 1.195 . S
C530 O529 1.195 . S
C530 O531 1.313 . S
O531 C530 1.313 . S
O532 Mg520 2.141 1_554 S
O532 C523 1.289 . S
Mg533 O540 2.141 . S
Mg533 O541 2.048 . S
Mg533 O542 2.048 . S
Mg533 O545 2.141 1_554 S
C534 O535 1.313 . S
C534 O541 1.195 . S
O535 C534 1.313 . S
C536 O537 1.245 . S
C536 O545 1.289 . S
O537 C536 1.245 . S
C538 O539 1.245 . S
C538 O540 1.289 . S
O539 C538 1.245 . S
O540 Mg533 2.141 . S
O540 C538 1.289 . S
O541 Mg533 2.048 . S
O541 C534 1.195 . S
O542 Mg533 2.048 . S
O542 C543 1.195 . S
C543 O542 1.195 . S
C543 O544 1.313 . S
O544 C543 1.313 . S
O545 Mg533 2.141 1_556 S
O545 C536 1.289 . S
Mg546 O553 2.141 . S
Mg546 O554 2.048 . S
Mg546 O555 2.048 . S
Mg546 O558 2.141 . S
C547 O548 1.313 . S
C547 O554 1.195 . S
O548 C547 1.313 . S
C549 O550 1.245 . S
C549 O558 1.289 . S
O550 C549 1.245 . S
C551 O552 1.245 . S
C551 O553 1.289 . S
O552 C551 1.245 . S
O553 Mg546 2.141 . S
O553 C551 1.289 . S
O554 Mg546 2.048 . S
O554 C547 1.195 . S
O555 Mg546 2.048 . S
O555 C556 1.195 . S
C556 O555 1.195 . S
C556 O557 1.313 . S
O557 C556 1.313 . S
O558 Mg546 2.141 . S
O558 C549 1.289 . S
Mg559 O566 2.141 . S
Mg559 O567 2.048 . S
Mg559 O568 2.048 . S
Mg559 O571 2.141 . S
C560 O561 1.313 . S
C560 O567 1.195 . S
O561 C560 1.313 . S
C562 O563 1.245 . S
C562 O571 1.289 . S
O563 C562 1.245 . S
C564 O565 1.245 . S
C564 O566 1.289 . S
O565 C564 1.245 . S
O566 Mg559 2.141 . S
O566 C564 1.289 . S
O567 Mg559 2.048 . S
O567 C560 1.195 . S
O568 Mg559 2.048 . S
O568 C569 1.195 . S
C569 O568 1.195 . S
C569 O570 1.313 . S
O570 C569 1.313 . S
O571 Mg559 2.141 . S
O571 C562 1.289 . S
Mg572 O579 2.141 . S
Mg572 O580 2.048 . S
Mg572 O581 2.048 . S
Mg572 O584 2.141 . S
C573 O574 1.313 . S
C573 O580 1.195 . S
O574 C573 1.313 . S
C575 O576 1.245 . S
C575 O584 1.289 . S
O576 C575 1.245 . S
C577 O578 1.245 . S
C577 O579 1.289 . S
O578 C577 1.245 . S
O579 Mg572 2.141 . S
O579 C577 1.289 . S
O580 Mg572 2.048 . S
O580 C573 1.195 . S
O581 Mg572 2.048 . S
O581 C582 1.195 . S
C582 O581 1.195 . S
C582 O583 1.313 . S
O583 C582 1.313 . S
O584 Mg572 2.141 . S
O584 C575 1.289 . S
Mg585 O592 2.141 . S
Mg585 O593 2.048 . S
Mg585 O594 2.048 . S
Mg585 O597 2.141 . S
C586 O587 1.313 . S
C586 O593 1.195 . S
O587 C586 1.313 . S
C588 O589 1.245 . S
C588 O597 1.289 . S
O589 C588 1.245 . S
C590 O591 1.245 . S
C590 O592 1.289 . S
O591 C590 1.245 . S
O592 Mg585 2.141 . S
O592 C590 1.289 . S
O593 Mg585 2.048 . S
O593 C586 1.195 . S
O594 Mg585 2.048 . S
O594 C595 1.195 . S
C595 O594 1.195 . S
C595 O596 1.313 . S
O596 C595 1.313 . S
O597 Mg585 2.141 . S
O597 C588 1.289 . S
Mg598 O605 2.141 . S
Mg598 O606 2.048 . S
Mg598 O607 2.048 . S
Mg598 O610 2.141 . S
C599 O600 1.313 . S
C599 O606 1.195 . S
O600 C599 1.313 . S
C601 O602 1.245 . S
C601 O610 1.289 . S
O602 C601 1.245 . S
C603 O604 1.245 . S
C603 O605 1.289 . S
O604 C603 1.245 . S
O605 Mg598 2.141 . S
O605 C603 1.289 . S
O606 Mg598 2.048 . S
O606 C599 1.195 . S
O607 Mg598 2.048 . S
O607 C608 1.195 . S
C608 O607 1.195 . S
C608 O609 1.313 . S
O609 C608 1.313 . S
O610 Mg598 2.141 . S
O610 C601 1.289 . S
Mg611 O618 2.141 . S
Mg611 O619 2.048 . S
Mg611 O620 2.048 . S
Mg611 O623 2.141 . S
C612 O613 1.313 . S
C612 O619 1.195 . S
O613 C612 1.313 . S
C614 O615 1.245 . S
C614 O623 1.289 . S
O615 C614 1.245 . S
C616 O617 1.245 . S
C616 O618 1.289 . S
O617 C616 1.245 . S
O618 Mg611 2.141 . S
O618 C616 1.289 . S
O619 Mg611 2.048 . S
O619 C612 1.195 . S
O620 Mg611 2.048 . S
O620 C621 1.195 . S
C621 O620 1.195 . S
C621 O622 1.313 . S
O622 C621 1.313 . S
O623 Mg611 2.141 . S
O623 C614 1.289 . S
Mg624 O631 2.141 . S
Mg624 O632 2.048 . S
Mg624 O633 2.048 . S
Mg624 O636 2.141 . S
C625 O626 1.313 . S
C625 O632 1.195 . S
O626 C625 1.313 . S
C627 O628 1.245 . S
C627 O636 1.289 . S
O628 C627 1.245 . S
C629 O630 1.245 . S
C629 O631 1.289 . S
O630 C629 1.245 . S
O631 Mg624 2.141 . S
O631 C629 1.289 . S
O632 Mg624 2.048 . S
O632 C625 1.195 . S
O633 Mg624 2.048 . S
O633 C634 1.195 . S
C634 O633 1.195 . S
C634 O635 1.313 . S
O635 C634 1.313 . S
O636 Mg624 2.141 . S
O636 C627 1.289 . S
Mg637 O644 2.141 . S
Mg637 O645 2.048 . S
Mg637 O646 2.048 . S
Mg637 O649 2.141 . S
C638 O639 1.313 . S
C638 O645 1.195 . S
O639 C638 1.313 . S
C640 O641 1.245 . S
C640 O649 1.289 . S
O641 C640 1.245 . S
C642 O643 1.245 . S
C642 O644 1.289 . S
O643 C642 1.245 . S
O644 Mg637 2.141 . S
O644 C642 1.289 . S
O645 Mg637 2.048 . S
O645 C638 1.195 . S
O646 Mg637 2.048 . S
O646 C647 1.195 . S
C647 O646 1.195 . S
C647 O648 1.313 . S
O648 C647 1.313 . S
O649 Mg637 2.141 . S
O649 C640 1.289 . S
Mg650 O657 2.141 . S
Mg650 O658 2.048 . S
Mg650 O659 2.048 . S
Mg650 O662 2.141 1_655 S
C651 O652 1.313 . S
C651 O658 1.195 . S
O652 C651 1.313 . S
C653 O654 1.245 . S
C653 O662 1.289 . S
O654 C653 1.245 . S
C655 O656 1.245 . S
C655 O657 1.289 . S
O656 C655 1.245 . S
O657 Mg650 2.141 . S
O657 C655 1.289 . S
O658 Mg650 2.048 . S
O658 C651 1.195 . S
O659 Mg650 2.048 . S
O659 C660 1.195 . S
C660 O659 1.195 . S
C660 O661 1.313 . S
O661 C660 1.313 . S
O662 Mg650 2.141 1_455 S
O662 C653 1.289 . S
Mg663 O670 2.141 . S
Mg663 O671 2.048 . S
Mg663 O672 2.048 . S
Mg663 O675 2.141 . S
C664 O665 1.313 . S
C664 O671 1.195 . S
O665 C664 1.313 . S
C666 O667 1.245 . S
C666 O675 1.289 . S
O667 C666 1.245 . S
C668 O669 1.245 . S
C668 O670 1.289 . S
O669 C668 1.245 . S
O670 Mg663 2.141 . S
O670 C668 1.289 . S
O671 Mg663 2.048 . S
O671 C664 1.195 . S
O672 Mg663 2.048 . S
O672 C673 1.195 . S
C673 O672 1.195 . S
C673 O674 1.313 . S
O674 C673 1.313 . S
O675 Mg663 2.141 . S
O675 C666 1.289 . S
Mg676 O683 2.141 . S
Mg676 O684 2.048 . S
Mg676 O685 2.048 . S
Mg676 O688 2.141 . S
C677 O678 1.313 . S
C677 O684 1.195 . S
O678 C677 1.313 . S
C679 O680 1.245 . S
C679 O688 1.289 . S
O680 C679 1.245 . S
C681 O682 1.245 . S
C681 O683 1.289 . S
O682 C681 1.245 . S
O683 Mg676 2.141 . S
O683 C681 1.289 . S
O684 Mg676 2.048 . S
O684 C677 1.195 . S
O685 Mg676 2.048 . S
O685 C686 1.195 . S
C686 O685 1.195 . S
C686 O687 1.313 . S
O687 C686 1.313 . S
O688 Mg676 2.141 . S
O688 C679 1.289 . S
Mg689 O696 2.141 . S
Mg689 O697 2.048 . S
Mg689 O698 2.048 . S
Mg689 O701 2.141 . S
C690 O691 1.313 . S
C690 O697 1.195 . S
O691 C690 1.313 . S
C692 O693 1.245 . S
C692 O701 1.289 . S
O693 C692 1.245 . S
C694 O695 1.245 . S
C694 O696 1.289 . S
O695 C694 1.245 . S
O696 Mg689 2.141 . S
O696 C694 1.289 . S
O697 Mg689 2.048 . S
O697 C690 1.195 . S
O698 Mg689 2.048 . S
O698 C699 1.195 . S
C699 O698 1.195 . S
C699 O700 1.313 . S
O700 C699 1.313 . S
O701 Mg689 2.141 . S
O701 C692 1.289 . S
Mg702 O709 2.141 . S
Mg702 O710 2.048 . S
Mg702 O711 2.048 . S
Mg702 O714 2.141 1_655 S
C703 O704 1.313 . S
C703 O710 1.195 . S
O704 C703 1.313 . S
C705 O706 1.245 . S
C705 O714 1.289 . S
O706 C705 1.245 . S
C707 O708 1.245 . S
C707 O709 1.289 . S
O708 C707 1.245 . S
O709 Mg702 2.141 . S
O709 C707 1.289 . S
O710 Mg702 2.048 . S
O710 C703 1.195 . S
O711 Mg702 2.048 . S
O711 C712 1.195 . S
C712 O711 1.195 . S
C712 O713 1.313 . S
O713 C712 1.313 . S
O714 Mg702 2.141 1_455 S
O714 C705 1.289 . S
Mg715 O722 2.141 . S
Mg715 O723 2.048 . S
Mg715 O724 2.048 . S
Mg715 O727 2.141 . S
C716 O717 1.313 . S
C716 O723 1.195 . S
O717 C716 1.313 . S
C718 O719 1.245 . S
C718 O727 1.289 . S
O719 C718 1.245 . S
C720 O721 1.245 . S
C720 O722 1.289 . S
O721 C720 1.245 . S
O722 Mg715 2.141 . S
O722 C720 1.289 . S
O723 Mg715 2.048 . S
O723 C716 1.195 . S
O724 Mg715 2.048 . S
O724 C725 1.195 . S
C725 O724 1.195 . S
C725 O726 1.313 . S
O726 C725 1.313 . S
O727 Mg715 2.141 . S
O727 C718 1.289 . S
Mg728 O735 2.141 . S
Mg728 O736 2.048 . S
Mg728 O737 2.048 . S
Mg728 O740 2.141 . S
C729 O730 1.313 . S
C729 O736 1.195 . S
O730 C729 1.313 . S
C731 O732 1.245 . S
C731 O740 1.289 . S
O732 C731 1.245 . S
C733 O734 1.245 . S
C733 O735 1.289 . S
O734 C733 1.245 . S
O735 Mg728 2.141 . S
O735 C733 1.289 . S
O736 Mg728 2.048 . S
O736 C729 1.195 . S
O737 Mg728 2.048 . S
O737 C738 1.195 . S
C738 O737 1.195 . S
C738 O739 1.313 . S
O739 C738 1.313 . S
O740 Mg728 2.141 . S
O740 C731 1.289 . S
Mg741 O748 2.141 . S
Mg741 O749 2.048 . S
Mg741 O750 2.048 . S
Mg741 O753 2.141 . S
C742 O743 1.313 . S
C742 O749 1.195 . S
O743 C742 1.313 . S
C744 O745 1.245 . S
C744 O753 1.289 . S
O745 C744 1.245 . S
C746 O747 1.245 . S
C746 O748 1.289 . S
O747 C746 1.245 . S
O748 Mg741 2.141 . S
O748 C746 1.289 . S
O749 Mg741 2.048 . S
O749 C742 1.195 . S
O750 Mg741 2.048 . S
O750 C751 1.195 . S
C751 O750 1.195 . S
C751 O752 1.313 . S
O752 C751 1.313 . S
O753 Mg741 2.141 . S
O753 C744 1.289 . S
Mg754 O761 2.141 . S
Mg754 O762 2.048 . S
Mg754 O763 2.048 . S
Mg754 O766 2.141 . S
C755 O756 1.313 . S
C755 O762 1.195 . S
O756 C755 1.313 . S
C757 O758 1.245 . S
C757 O766 1.289 . S
O758 C757 1.245 . S
C759 O760 1.245 . S
C759 O761 1.289 . S
O760 C759 1.245 . S
O761 Mg754 2.141 . S
O761 C759 1.289 . S
O762 Mg754 2.048 . S
O762 C755 1.195 . S
O763 Mg754 2.048 . S
O763 C764 1.195 . S
C764 O763 1.195 . S
C764 O765 1.313 . S
O765 C764 1.313 . S
O766 Mg754 2.141 . S
O766 C757 1.289 . S
Mg767 O774 2.141 . S
Mg767 O775 2.048 . S
Mg767 O776 2.048 . S
Mg767 O779 2.141 . S
C768 O769 1.313 . S
C768 O775 1.195 . S
O769 C768 1.313 . S
C770 O771 1.245 . S
C770 O779 1.289 . S
O771 C770 1.245 . S
C772 O773 1.245 . S
C772 O774 1.289 . S
O773 C772 1.245 . S
O774 Mg767 2.141 . S
O774 C772 1.289 . S
O775 Mg767 2.048 . S
O775 C768 1.195 . S
O776 Mg767 2.048 . S
O776 C777 1.195 . S
C777 O776 1.195 . S
C777 O778 1.313 . S
O778 C777 1.313 . S
O779 Mg767 2.141 . S
O779 C770 1.289 . S
Mg780 O787 2.141 . S
Mg780 O788 2.048 . S
Mg780 O789 2.048 . S
Mg780 O792 2.141 . S
C781 O782 1.313 . S
C781 O788 1.195 . S
O782 C781 1.313 . S
C783 O784 1.245 . S
C783 O792 1.289 . S
O784 C783 1.245 . S
C785 O786 1.245 . S
C785 O787 1.289 . S
O786 C785 1.245 . S
O787 Mg780 2.141 . S
O787 C785 1.289 . S
O788 Mg780 2.048 . S
O788 C781 1.195 . S
O789 Mg780 2.048 . S
O789 C790 1.195 . S
C790 O789 1.195 . S
C790 O791 1.313 . S
O791 C790 1.313 . S
O792 Mg780 2.141 . S
O792 C783 1.289 . S
Mg793 O800 2.141 . S
Mg793 O801 2.048 . S
Mg793 O802 2.048 . S
Mg793 O805 2.141 . S
C794 O795 1.313 . S
C794 O801 1.195 . S
O795 C794 1.313 . S
C796 O797 1.245 . S
C796 O805 1.289 . S
O797 C796 1.245 . S
C798 O799 1.245 . S
C798 O800 1.289 . S
O799 C798 1.245 . S
O800 Mg793 2.141 . S
O800 C798 1.289 . S
O801 Mg793 2.048 . S
O801 C794 1.195 . S
O802 Mg793 2.048 . S
O802 C803 1.195 . S
C803 O802 1.195 . S
C803 O804 1.313 . S
O804 C803 1.313 . S
O805 Mg793 2.141 . S
O805 C796 1.289 . S
Mg806 O813 2.141 . S
Mg806 O814 2.048 . S
Mg806 O815 2.048 . S
Mg806 O818 2.141 . S
C807 O808 1.313 . S
C807 O814 1.195 . S
O808 C807 1.313 . S
C809 O810 1.245 . S
C809 O818 1.289 . S
O810 C809 1.245 . S
C811 O812 1.245 . S
C811 O813 1.289 . S
O812 C811 1.245 . S
O813 Mg806 2.141 . S
O813 C811 1.289 . S
O814 Mg806 2.048 . S
O814 C807 1.195 . S
O815 Mg806 2.048 . S
O815 C816 1.195 . S
C816 O815 1.195 . S
C816 O817 1.313 . S
O817 C816 1.313 . S
O818 Mg806 2.141 . S
O818 C809 1.289 . S
Mg819 O826 2.141 . S
Mg819 O827 2.048 . S
Mg819 O828 2.048 . S
Mg819 O831 2.141 . S
C820 O821 1.313 . S
C820 O827 1.195 . S
O821 C820 1.313 . S
C822 O823 1.245 . S
C822 O831 1.289 . S
O823 C822 1.245 . S
C824 O825 1.245 . S
C824 O826 1.289 . S
O825 C824 1.245 . S
O826 Mg819 2.141 . S
O826 C824 1.289 . S
O827 Mg819 2.048 . S
O827 C820 1.195 . S
O828 Mg819 2.048 . S
O828 C829 1.195 . S
C829 O828 1.195 . S
C829 O830 1.313 . S
O830 C829 1.313 . S
O831 Mg819 2.141 . S
O831 C822 1.289 . S
Mg832 O839 2.141 . S
Mg832 O840 2.048 . S
Mg832 O841 2.048 . S
Mg832 O844 2.141 . S
C833 O834 1.313 . S
C833 O840 1.195 . S
O834 C833 1.313 . S
C835 O836 1.245 . S
C835 O844 1.289 . S
O836 C835 1.245 . S
C837 O838 1.245 . S
C837 O839 1.289 . S
O838 C837 1.245 . S
O839 Mg832 2.141 . S
O839 C837 1.289 . S
O840 Mg832 2.048 . S
O840 C833 1.195 . S
O841 Mg832 2.048 . S
O841 C842 1.195 . S
C842 O841 1.195 . S
C842 O843 1.313 . S
O843 C842 1.313 . S
O844 Mg832 2.141 . S
O844 C835 1.289 . S
Mg845 O852 2.141 . S
Mg845 O853 2.048 . S
Mg845 O854 2.048 . S
Mg845 O857 2.141 . S
C846 O847 1.313 . S
C846 O853 1.195 . S
O847 C846 1.313 . S
C848 O849 1.245 . S
C848 O857 1.289 . S
O849 C848 1.245 . S
C850 O851 1.245 . S
C850 O852 1.289 . S
O851 C850 1.245 . S
O852 Mg845 2.141 . S
O852 C850 1.289 . S
O853 Mg845 2.048 . S
O853 C846 1.195 . S
O854 Mg845 2.048 . S
O854 C855 1.195 . S
C855 O854 1.195 . S
C855 O856 1.313 . S
O856 C855 1.313 . S
O857 Mg845 2.141 . S
O857 C848 1.289 . S
Mg858 O865 2.141 . S
Mg858 O866 2.048 . S
Mg858 O867 2.048 . S
Mg858 O870 2.141 . S
C859 O860 1.313 . S
C859 O866 1.195 . S
O860 C859 1.313 . S
C861 O862 1.245 . S
C861 O870 1.289 . S
O862 C861 1.245 . S
C863 O864 1.245 . S
C863 O865 1.289 . S
O864 C863 1.245 . S
O865 Mg858 2.141 . S
O865 C863 1.289 . S
O866 Mg858 2.048 . S
O866 C859 1.195 . S
O867 Mg858 2.048 . S
O867 C868 1.195 . S
C868 O867 1.195 . S
C868 O869 1.313 . S
O869 C868 1.313 . S
O870 Mg858 2.141 . S
O870 C861 1.289 . S
Mg871 O878 2.141 . S
Mg871 O879 2.048 . S
Mg871 O880 2.048 . S
Mg871 O883 2.141 1_556 S
C872 O873 1.313 . S
C872 O879 1.195 . S
O873 C872 1.313 . S
C874 O875 1.245 . S
C874 O883 1.289 . S
O875 C874 1.245 . S
C876 O877 1.245 . S
C876 O878 1.289 . S
O877 C876 1.245 . S
O878 Mg871 2.141 . S
O878 C876 1.289 . S
O879 Mg871 2.048 . S
O879 C872 1.195 . S
O880 Mg871 2.048 . S
O880 C881 1.195 . S
C881 O880 1.195 . S
C881 O882 1.313 . S
O882 C881 1.313 . S
O883 Mg871 2.141 1_554 S
O883 C874 1.289 . S
Mg884 O891 2.141 . S
Mg884 O892 2.048 . S
Mg884 O893 2.048 . S
Mg884 O896 2.141 . S
C885 O886 1.313 . S
C885 O892 1.195 . S
O886 C885 1.313 . S
C887 O888 1.245 . S
C887 O896 1.289 . S
O888 C887 1.245 . S
C889 O890 1.245 . S
C889 O891 1.289 . S
O890 C889 1.245 . S
O891 Mg884 2.141 . S
O891 C889 1.289 . S
O892 Mg884 2.048 . S
O892 C885 1.195 . S
O893 Mg884 2.048 . S
O893 C894 1.195 . S
C894 O893 1.195 . S
C894 O895 1.313 . S
O895 C894 1.313 . S
O896 Mg884 2.141 . S
O896 C887 1.289 . S
Mg897 O904 2.141 . S
Mg897 O905 2.048 . S
Mg897 O906 2.048 . S
Mg897 O909 2.141 1_554 S
C898 O899 1.313 . S
C898 O905 1.195 . S
O899 C898 1.313 . S
C900 O901 1.245 . S
C900 O909 1.289 . S
O901 C900 1.245 . S
C902 O903 1.245 . S
C902 O904 1.289 . S
O903 C902 1.245 . S
O904 Mg897 2.141 . S
O904 C902 1.289 . S
O905 Mg897 2.048 . S
O905 C898 1.195 . S
O906 Mg897 2.048 . S
O906 C907 1.195 . S
C907 O906 1.195 . S
C907 O908 1.313 . S
O908 C907 1.313 . S
O909 Mg897 2.141 1_556 S
O909 C900 1.289 . S
Mg910 O917 2.141 . S
Mg910 O918 2.048 . S
Mg910 O919 2.048 . S
Mg910 O922 2.141 . S
C911 O912 1.313 . S
C911 O918 1.195 . S
O912 C911 1.313 . S
C913 O914 1.245 . S
C913 O922 1.289 . S
O914 C913 1.245 . S
C915 O916 1.245 . S
C915 O917 1.289 . S
O916 C915 1.245 . S
O917 Mg910 2.141 . S
O917 C915 1.289 . S
O918 Mg910 2.048 . S
O918 C911 1.195 . S
O919 Mg910 2.048 . S
O919 C920 1.195 . S
C920 O919 1.195 . S
C920 O921 1.313 . S
O921 C920 1.313 . S
O922 Mg910 2.141 . S
O922 C913 1.289 . S
Mg923 O930 2.141 . S
Mg923 O931 2.048 . S
Mg923 O932 2.048 . S
Mg923 O935 2.141 . S
C924 O925 1.313 . S
C924 O931 1.195 . S
O925 C924 1.313 . S
C926 O927 1.245 . S
C926 O935 1.289 . S
O927 C926 1.245 . S
C928 O929 1.245 . S
C928 O930 1.289 . S
O929 C928 1.245 . S
O930 Mg923 2.141 . S
O930 C928 1.289 . S
O931 Mg923 2.048 . S
O931 C924 1.195 . S
O932 Mg923 2.048 . S
O932 C933 1.195 . S
C933 O932 1.195 . S
C933 O934 1.313 . S
O934 C933 1.313 . S
O935 Mg923 2.141 . S
O935 C926 1.289 . S
Mg936 O943 2.141 . S
Mg936 O944 2.048 . S
Mg936 O945 2.048 . S
Mg936 O948 2.141 . S
C937 O938 1.313 . S
C937 O944 1.195 . S
O938 C937 1.313 . S
C939 O940 1.245 . S
C939 O948 1.289 . S
O940 C939 1.245 . S
C941 O942 1.245 . S
C941 O943 1.289 . S
O942 C941 1.245 . S
O943 Mg936 2.141 . S
O943 C941 1.289 . S
O944 Mg936 2.048 . S
O944 C937 1.195 . S
O945 Mg936 2.048 . S
O945 C946 1.195 . S
C946 O945 1.195 . S
C946 O947 1.313 . S
O947 C946 1.313 . S
O948 Mg936 2.141 . S
O948 C939 1.289 . S
Mg949 O956 2.141 . S
Mg949 O957 2.048 . S
Mg949 O958 2.048 . S
Mg949 O961 2.141 . S
C950 O951 1.313 . S
C950 O957 1.195 . S
O951 C950 1.313 . S
C952 O953 1.245 . S
C952 O961 1.289 . S
O953 C952 1.245 . S
C954 O955 1.245 . S
C954 O956 1.289 . S
O955 C954 1.245 . S
O956 Mg949 2.141 . S
O956 C954 1.289 . S
O957 Mg949 2.048 . S
O957 C950 1.195 . S
O958 Mg949 2.048 . S
O958 C959 1.195 . S
C959 O958 1.195 . S
C959 O960 1.313 . S
O960 C959 1.313 . S
O961 Mg949 2.141 . S
O961 C952 1.289 . S
Mg962 O969 2.141 . S
Mg962 O970 2.048 . S
Mg962 O971 2.048 . S
Mg962 O974 2.141 1_455 S
C963 O964 1.313 . S
C963 O970 1.195 . S
O964 C963 1.313 . S
C965 O966 1.245 . S
C965 O974 1.289 . S
O966 C965 1.245 . S
C967 O968 1.245 . S
C967 O969 1.289 . S
O968 C967 1.245 . S
O969 Mg962 2.141 . S
O969 C967 1.289 . S
O970 Mg962 2.048 . S
O970 C963 1.195 . S
O971 Mg962 2.048 . S
O971 C972 1.195 . S
C972 O971 1.195 . S
C972 O973 1.313 . S
O973 C972 1.313 . S
O974 Mg962 2.141 1_655 S
O974 C965 1.289 . S
Mg975 O982 2.141 . S
Mg975 O983 2.048 . S
Mg975 O984 2.048 . S
Mg975 O987 2.141 . S
C976 O977 1.313 . S
C976 O983 1.195 . S
O977 C976 1.313 . S
C978 O979 1.245 . S
C978 O987 1.289 . S
O979 C978 1.245 . S
C980 O981 1.245 . S
C980 O982 1.289 . S
O981 C980 1.245 . S
O982 Mg975 2.141 . S
O982 C980 1.289 . S
O983 Mg975 2.048 . S
O983 C976 1.195 . S
O984 Mg975 2.048 . S
O984 C985 1.195 . S
C985 O984 1.195 . S
C985 O986 1.313 . S
O986 C985 1.313 . S
O987 Mg975 2.141 . S
O987 C978 1.289 . S
Mg988 O995 2.141 . S
Mg988 O996 2.048 . S
Mg988 O997 2.048 . S
Mg988 O1000 2.141 . S
C989 O990 1.313 . S
C989 O996 1.195 . S
O990 C989 1.313 . S
C991 O992 1.245 . S
C991 O1000 1.289 . S
O992 C991 1.245 . S
C993 O994 1.245 . S
C993 O995 1.289 . S
O994 C993 1.245 . S
O995 Mg988 2.141 . S
O995 C993 1.289 . S
O996 Mg988 2.048 . S
O996 C989 1.195 . S
O997 Mg988 2.048 . S
O997 C998 1.195 . S
C998 O997 1.195 . S
C998 O999 1.313 . S
O999 C998 1.313 . S
O1000 Mg988 2.141 . S
O1000 C991 1.289 . S
Mg1001 O1008 2.141 . S
Mg1001 O1009 2.048 . S
Mg1001 O1010 2.048 . S
Mg1001 O1013 2.141 . S
C1002 O1003 1.313 . S
C1002 O1009 1.195 . S
O1003 C1002 1.313 . S
C1004 O1005 1.245 . S
C1004 O1013 1.289 . S
O1005 C1004 1.245 . S
C1006 O1007 1.245 . S
C1006 O1008 1.289 . S
O1007 C1006 1.245 . S
O1008 Mg1001 2.141 . S
O1008 C1006 1.289 . S
O1009 Mg1001 2.048 . S
O1009 C1002 1.195 . S
O1010 Mg1001 2.048 . S
O1010 C1011 1.195 . S
C1011 O1010 1.195 . S
C1011 O1012 1.313 . S
O1012 C1011 1.313 . S
O1013 Mg1001 2.141 . S
O1013 C1004 1.289 . S
Mg1014 O1021 2.141 . S
Mg1014 O1022 2.048 . S
Mg1014 O1023 2.048 . S
Mg1014 O1026 2.141 1_455 S
C1015 O1016 1.313 . S
C1015 O1022 1.195 . S
O1016 C1015 1.313 . S
C1017 O1018 1.245 . S
C1017 O1026 1.289 . S
O1018 C1017 1.245 . S
C1019 O1020 1.245 . S
C1019 O1021 1.289 . S
O1020 C1019 1.245 . S
O1021 Mg1014 2.141 . S
O1021 C1019 1.289 . S
O1022 Mg1014 2.048 . S
O1022 C1015 1.195 . S
O1023 Mg1014 2.048 . S
O1023 C1024 1.195 . S
C1024 O1023 1.195 . S
C1024 O1025 1.313 . S
O1025 C1024 1.313 . S
O1026 Mg1014 2.141 1_655 S
O1026 C1017 1.289 . S
Mg1027 O1034 2.141 . S
Mg1027 O1035 2.048 . S
Mg1027 O1036 2.048 . S
Mg1027 O1039 2.141 . S
C1028 O1029 1.313 . S
C1028 O1035 1.195 . S
O1029 C1028 1.313 . S
C1030 O1031 1.245 . S
C1030 O1039 1.289 . S
O1031 C1030 1.245 . S
C1032 O1033 1.245 . S
C1032 O1034 1.289 . S
O1033 C1032 1.245 . S
O1034 Mg1027 2.141 . S
O1034 C1032 1.289 . S
O1035 Mg1027 2.048 . S
O1035 C1028 1.195 . S
O1036 Mg1027 2.048 . S
O1036 C1037 1.195 . S
C1037 O1036 1.195 . S
C1037 O1038 1.313 . S
O1038 C1037 1.313 . S
O1039 Mg1027 2.141 . S
O1039 C1030 1.289 . S
Mg1040 O1047 2.141 . S
Mg1040 O1048 2.048 . S
Mg1040 O1049 2.048 . S
Mg1040 O1052 2.141 . S
C1041 O1042 1.313 . S
C1041 O1048 1.195 . S
O1042 C1041 1.313 . S
C1043 O1044 1.245 . S
C1043 O1052 1.289 . S
O1044 C1043 1.245 . S
C1045 O1046 1.245 . S
C1045 O1047 1.289 . S
O1046 C1045 1.245 . S
O1047 Mg1040 2.141 . S
O1047 C1045 1.289 . S
O1048 Mg1040 2.048 . S
O1048 C1041 1.195 . S
O1049 Mg1040 2.048 . S
O1049 C1050 1.195 . S
C1050 O1049 1.195 . S
C1050 O1051 1.313 . S
O1051 C1050 1.313 . S
O1052 Mg1040 2.141 . S
O1052 C1043 1.289 . S
Mg1053 O1060 2.141 . S
Mg1053 O1061 2.048 . S
Mg1053 O1062 2.048 . S
Mg1053 O1065 2.141 . S
C1054 O1055 1.313 . S
C1054 O1061 1.195 . S
O1055 C1054 1.313 . S
C1056 O1057 1.245 . S
C1056 O1065 1.289 . S
O1057 C1056 1.245 . S
C1058 O1059 1.245 . S
C1058 O1060 1.289 . S
O1059 C1058 1.245 . S
O1060 Mg1053 2.141 . S
O1060 C1058 1.289 . S
O1061 Mg1053 2.048 . S
O1061 C1054 1.195 . S
O1062 Mg1053 2.048 . S
O1062 C1063 1.195 . S
C1063 O1062 1.195 . S
C1063 O1064 1.313 . S
O1064 C1063 1.313 . S
O1065 Mg1053 2.141 . S
O1065 C1056 1.289 . S
Mg1066 O1073 2.141 . S
Mg1066 O1074 2.048 . S
Mg1066 O1075 2.048 . S
Mg1066 O1078 2.141 . S
C1067 O1068 1.313 . S
C1067 O1074 1.195 . S
O1068 C1067 1.313 . S
C1069 O1070 1.245 . S
C1069 O1078 1.289 . S
O1070 C1069 1.245 . S
C1071 O1072 1.245 . S
C1071 O1073 1.289 . S
O1072 C1071 1.245 . S
O1073 Mg1066 2.141 . S
O1073 C1071 1.289 . S
O1074 Mg1066 2.048 . S
O1074 C1067 1.195 . S
O1075 Mg1066 2.048 . S
O1075 C1076 1.195 . S
C1076 O1075 1.195 . S
C1076 O1077 1.313 . S
O1077 C1076 1.313 . S
O1078 Mg1066 2.141 . S
O1078 C1069 1.289 . S
Mg1079 O1086 2.141 . S
Mg1079 O1087 2.048 . S
Mg1079 O1088 2.048 . S
Mg1079 O1091 2.141 . S
C1080 O1081 1.313 . S
C1080 O1087 1.195 . S
O1081 C1080 1.313 . S
C1082 O1083 1.245 . S
C1082 O1091 1.289 . S
O1083 C1082 1.245 . S
C1084 O1085 1.245 . S
C1084 O1086 1.289 . S
O1085 C1084 1.245 . S
O1086 Mg1079 2.141 . S
O1086 C1084 1.289 . S
O1087 Mg1079 2.048 . S
O1087 C1080 1.195 . S
O1088 Mg1079 2.048 . S
O1088 C1089 1.195 . S
C1089 O1088 1.195 . S
C1089 O1090 1.313 . S
O1090 C1089 1.313 . S
O1091 Mg1079 2.141 . S
O1091 C1082 1.289 . S
Mg1092 O1099 2.141 . S
Mg1092 O1100 2.048 . S
Mg1092 O1101 2.048 . S
Mg1092 O1104 2.141 . S
C1093 O1094 1.313 . S
C1093 O1100 1.195 . S
O1094 C1093 1.313 . S
C1095 O1096 1.245 . S
C1095 O1104 1.289 . S
O1096 C1095 1.245 . S
C1097 O1098 1.245 . S
C1097 O1099 1.289 . S
O1098 C1097 1.245 . S
O1099 Mg1092 2.141 . S
O1099 C1097 1.289 . S
O1100 Mg1092 2.048 . S
O1100 C1093 1.195 . S
O1101 Mg1092 2.048 . S
O1101 C1102 1.195 . S
C1102 O1101 1.195 . S
C1102 O1103 1.313 . S
O1103 C1102 1.313 . S
O1104 Mg1092 2.141 . S
O1104 C1095 1.289 . S
Mg1105 O1112 2.141 . S
Mg1105 O1113 2.048 . S
Mg1105 O1114 2.048 . S
Mg1105 O1117 2.141 . S
C1106 O1107 1.313 . S
C1106 O1113 1.195 . S
O1107 C1106 1.313 . S
C1108 O1109 1.245 . S
C1108 O1117 1.289 . S
O1109 C1108 1.245 . S
C1110 O1111 1.245 . S
C1110 O1112 1.289 . S
O1111 C1110 1.245 . S
O1112 Mg1105 2.141 . S
O1112 C1110 1.289 . S
O1113 Mg1105 2.048 . S
O1113 C1106 1.195 . S
O1114 Mg1105 2.048 . S
O1114 C1115 1.195 . S
C1115 O1114 1.195 . S
C1115 O1116 1.313 . S
O1116 C1115 1.313 . S
O1117 Mg1105 2.141 . S
O1117 C1108 1.289 . S
Mg1118 O1125 2.141 . S
Mg1118 O1126 2.048 . S
Mg1118 O1127 2.048 . S
Mg1118 O1130 2.141 . S
C1119 O1120 1.313 . S
C1119 O1126 1.195 . S
O1120 C1119 1.313 . S
C1121 O1122 1.245 . S
C1121 O1130 1.289 . S
O1122 C1121 1.245 . S
C1123 O1124 1.245 . S
C1123 O1125 1.289 . S
O1124 C1123 1.245 . S
O1125 Mg1118 2.141 . S
O1125 C1123 1.289 . S
O1126 Mg1118 2.048 . S
O1126 C1119 1.195 . S
O1127 Mg1118 2.048 . S
O1127 C1128 1.195 . S
C1128 O1127 1.195 . S
C1128 O1129 1.313 . S
O1129 C1128 1.313 . S
O1130 Mg1118 2.141 . S
O1130 C1121 1.289 . S
Mg1131 O1138 2.141 . S
Mg1131 O1139 2.048 . S
Mg1131 O1140 2.048 . S
Mg1131 O1143 2.141 . S
C1132 O1133 1.313 . S
C1132 O1139 1.195 . S
O1133 C1132 1.313 . S
C1134 O1135 1.245 . S
C1134 O1143 1.289 . S
O1135 C1134 1.245 . S
C1136 O1137 1.245 . S
C1136 O1138 1.289 . S
O1137 C1136 1.245 . S
O1138 Mg1131 2.141 . S
O1138 C1136 1.289 . S
O1139 Mg1131 2.048 . S
O1139 C1132 1.195 . S
O1140 Mg1131 2.048 . S
O1140 C1141 1.195 . S
C1141 O1140 1.195 . S
C1141 O1142 1.313 . S
O1142 C1141 1.313 . S
O1143 Mg1131 2.141 . S
O1143 C1134 1.289 . S
Mg1144 O1151 2.141 . S
Mg1144 O1152 2.048 . S
Mg1144 O1153 2.048 . S
Mg1144 O1156 2.141 . S
C1145 O1146 1.313 . S
C1145 O1152 1.195 . S
O1146 C1145 1.313 . S
C1147 O1148 1.245 . S
C1147 O1156 1.289 . S
O1148 C1147 1.245 . S
C1149 O1150 1.245 . S
C1149 O1151 1.289 . S
O1150 C1149 1.245 . S
O1151 Mg1144 2.141 . S
O1151 C1149 1.289 . S
O1152 Mg1144 2.048 . S
O1152 C1145 1.195 . S
O1153 Mg1144 2.048 . S
O1153 C1154 1.195 . S
C1154 O1153 1.195 . S
C1154 O1155 1.313 . S
O1155 C1154 1.313 . S
O1156 Mg1144 2.141 . S
O1156 C1147 1.289 . S
Mg1157 O1164 2.141 . S
Mg1157 O1165 2.048 . S
Mg1157 O1166 2.048 . S
Mg1157 O1169 2.141 . S
C1158 O1159 1.313 . S
C1158 O1165 1.195 . S
O1159 C1158 1.313 . S
C1160 O1161 1.245 . S
C1160 O1169 1.289 . S
O1161 C1160 1.245 . S
C1162 O1163 1.245 . S
C1162 O1164 1.289 . S
O1163 C1162 1.245 . S
O1164 Mg1157 2.141 . S
O1164 C1162 1.289 . S
O1165 Mg1157 2.048 . S
O1165 C1158 1.195 . S
O1166 Mg1157 2.048 . S
O1166 C1167 1.195 . S
C1167 O1166 1.195 . S
C1167 O1168 1.313 . S
O1168 C1167 1.313 . S
O1169 Mg1157 2.141 . S
O1169 C1160 1.289 . S
Mg1170 O1177 2.141 . S
Mg1170 O1178 2.048 . S
Mg1170 O1179 2.048 . S
Mg1170 O1182 2.141 . S
C1171 O1172 1.313 . S
C1171 O1178 1.195 . S
O1172 C1171 1.313 . S
C1173 O1174 1.245 . S
C1173 O1182 1.289 . S
O1174 C1173 1.245 . S
C1175 O1176 1.245 . S
C1175 O1177 1.289 . S
O1176 C1175 1.245 . S
O1177 Mg1170 2.141 . S
O1177 C1175 1.289 . S
O1178 Mg1170 2.048 . S
O1178 C1171 1.195 . S
O1179 Mg1170 2.048 . S
O1179 C1180 1.195 . S
C1180 O1179 1.195 . S
C1180 O1181 1.313 . S
O1181 C1180 1.313 . S
O1182 Mg1170 2.141 . S
O1182 C1173 1.289 . S
Mg1183 O1190 2.141 . S
Mg1183 O1191 2.048 . S
Mg1183 O1192 2.048 . S
Mg1183 O1195 2.141 1_554 S
C1184 O1185 1.313 . S
C1184 O1191 1.195 . S
O1185 C1184 1.313 . S
C1186 O1187 1.245 . S
C1186 O1195 1.289 . S
O1187 C1186 1.245 . S
C1188 O1189 1.245 . S
C1188 O1190 1.289 . S
O1189 C1188 1.245 . S
O1190 Mg1183 2.141 . S
O1190 C1188 1.289 . S
O1191 Mg1183 2.048 . S
O1191 C1184 1.195 . S
O1192 Mg1183 2.048 . S
O1192 C1193 1.195 . S
C1193 O1192 1.195 . S
C1193 O1194 1.313 . S
O1194 C1193 1.313 . S
O1195 Mg1183 2.141 1_556 S
O1195 C1186 1.289 . S
Mg1196 O1203 2.141 . S
Mg1196 O1204 2.048 . S
Mg1196 O1205 2.048 . S
Mg1196 O1208 2.141 . S
C1197 O1198 1.313 . S
C1197 O1204 1.195 . S
O1198 C1197 1.313 . S
C1199 O1200 1.245 . S
C1199 O1208 1.289 . S
O1200 C1199 1.245 . S
C1201 O1202 1.245 . S
C1201 O1203 1.289 . S
O1202 C1201 1.245 . S
O1203 Mg1196 2.141 . S
O1203 C1201 1.289 . S
O1204 Mg1196 2.048 . S
O1204 C1197 1.195 . S
O1205 Mg1196 2.048 . S
O1205 C1206 1.195 . S
C1206 O1205 1.195 . S
C1206 O1207 1.313 . S
O1207 C1206 1.313 . S
O1208 Mg1196 2.141 . S
O1208 C1199 1.289 . S
Mg1209 O1216 2.141 . S
Mg1209 O1217 2.048 . S
Mg1209 O1218 2.048 . S
Mg1209 O1221 2.141 1_556 S
C1210 O1211 1.313 . S
C1210 O1217 1.195 . S
O1211 C1210 1.313 . S
C1212 O1213 1.245 . S
C1212 O1221 1.289 . S
O1213 C1212 1.245 . S
C1214 O1215 1.245 . S
C1214 O1216 1.289 . S
O1215 C1214 1.245 . S
O1216 Mg1209 2.141 . S
O1216 C1214 1.289 . S
O1217 Mg1209 2.048 . S
O1217 C1210 1.195 . S
O1218 Mg1209 2.048 . S
O1218 C1219 1.195 . S
C1219 O1218 1.195 . S
C1219 O1220 1.313 . S
O1220 C1219 1.313 . S
O1221 Mg1209 2.141 1_554 S
O1221 C1212 1.289 . S
Mg1222 O1229 2.141 . S
Mg1222 O1230 2.048 . S
Mg1222 O1231 2.048 . S
Mg1222 O1234 2.141 . S
C1223 O1224 1.313 . S
C1223 O1230 1.195 . S
O1224 C1223 1.313 . S
C1225 O1226 1.245 . S
C1225 O1234 1.289 . S
O1226 C1225 1.245 . S
C1227 O1228 1.245 . S
C1227 O1229 1.289 . S
O1228 C1227 1.245 . S
O1229 Mg1222 2.141 . S
O1229 C1227 1.289 . S
O1230 Mg1222 2.048 . S
O1230 C1223 1.195 . S
O1231 Mg1222 2.048 . S
O1231 C1232 1.195 . S
C1232 O1231 1.195 . S
C1232 O1233 1.313 . S
O1233 C1232 1.313 . S
O1234 Mg1222 2.141 . S
O1234 C1225 1.289 . S
Mg1235 O1242 2.141 . S
Mg1235 O1243 2.048 . S
Mg1235 O1244 2.048 . S
Mg1235 O1247 2.141 . S
C1236 O1237 1.313 . S
C1236 O1243 1.195 . S
O1237 C1236 1.313 . S
C1238 O1239 1.245 . S
C1238 O1247 1.289 . S
O1239 C1238 1.245 . S
C1240 O1241 1.245 . S
C1240 O1242 1.289 . S
O1241 C1240 1.245 . S
O1242 Mg1235 2.141 . S
O1242 C1240 1.289 . S
O1243 Mg1235 2.048 . S
O1243 C1236 1.195 . S
O1244 Mg1235 2.048 . S
O1244 C1245 1.195 . S
C1245 O1244 1.195 . S
C1245 O1246 1.313 . S
O1246 C1245 1.313 . S
O1247 Mg1235 2.141 . S
O1247 C1238 1.289 . S
H1248 C1254 0.930 . S
H1249 C1258 0.930 . S
H1250 C1263 0.929 . S
H1251 C1261 0.929 . S
H1252 C1256 0.929 . S
H1253 C1262 0.929 . S
C1254 H1248 0.930 . S
C1254 C1255 1.367 . S
C1254 C1262 1.378 . S
C1255 C1254 1.367 . S
C1255 C1263 1.433 . S
C1256 H1252 0.929 . S
C1256 C1258 1.378 . S
C1256 C1260 1.350 . S
C1257 C1260 1.463 . S
C1257 C1262 1.350 . S
C1257 N1265 1.427 . S
C1258 H1249 0.930 . S
C1258 C1256 1.378 . S
C1258 C1259 1.367 . S
C1259 C1258 1.367 . S
C1259 C1261 1.433 . S
C1260 C1256 1.350 . S
C1260 C1257 1.463 . S
C1260 N1264 1.427 . S
C1261 H1251 0.929 . S
C1261 C1259 1.433 . S
C1261 N1264 1.384 . S
C1262 H1253 0.929 . S
C1262 C1254 1.378 . S
C1262 C1257 1.350 . S
C1263 H1250 0.929 . S
C1263 C1255 1.433 . S
C1263 N1265 1.384 . S
N1264 C1260 1.427 . S
N1264 C1261 1.384 . S
N1265 C1257 1.427 . S
N1265 C1263 1.384 . S
H1266 C1272 0.930 . S
H1267 C1276 0.930 . S
H1268 C1281 0.929 . S
H1269 C1279 0.929 . S
H1270 C1274 0.929 . S
H1271 C1280 0.929 . S
C1272 H1266 0.930 . S
C1272 C1273 1.367 . S
C1272 C1280 1.378 . S
C1273 C1272 1.367 . S
C1273 C1281 1.433 . S
C1274 H1270 0.929 . S
C1274 C1276 1.378 . S
C1274 C1278 1.350 . S
C1275 C1278 1.463 . S
C1275 C1280 1.350 . S
C1275 N1283 1.427 . S
C1276 H1267 0.930 . S
C1276 C1274 1.378 . S
C1276 C1277 1.367 . S
C1277 C1276 1.367 . S
C1277 C1279 1.433 . S
C1278 C1274 1.350 . S
C1278 C1275 1.463 . S
C1278 N1282 1.427 . S
C1279 H1269 0.929 . S
C1279 C1277 1.433 . S
C1279 N1282 1.384 . S
C1280 H1271 0.929 . S
C1280 C1272 1.378 . S
C1280 C1275 1.350 . S
C1281 H1268 0.929 . S
C1281 C1273 1.433 . S
C1281 N1283 1.384 . S
N1282 C1278 1.427 . S
N1282 C1279 1.384 . S
N1283 C1275 1.427 . S
N1283 C1281 1.384 . S
H1284 C1290 0.930 . S
H1285 C1294 0.930 . S
H1286 C1299 0.929 . S
H1287 C1297 0.929 . S
H1288 C1292 0.929 . S
H1289 C1298 0.929 . S
C1290 H1284 0.930 . S
C1290 C1291 1.367 . S
C1290 C1298 1.378 . S
C1291 C1290 1.367 . S
C1291 C1299 1.433 . S
C1292 H1288 0.929 . S
C1292 C1294 1.378 . S
C1292 C1296 1.350 . S
C1293 C1296 1.463 . S
C1293 C1298 1.350 . S
C1293 N1301 1.427 . S
C1294 H1285 0.930 . S
C1294 C1292 1.378 . S
C1294 C1295 1.367 . S
C1295 C1294 1.367 . S
C1295 C1297 1.433 . S
C1296 C1292 1.350 . S
C1296 C1293 1.463 . S
C1296 N1300 1.427 . S
C1297 H1287 0.929 . S
C1297 C1295 1.433 . S
C1297 N1300 1.384 . S
C1298 H1289 0.929 . S
C1298 C1290 1.378 . S
C1298 C1293 1.350 . S
C1299 H1286 0.929 . S
C1299 C1291 1.433 . S
C1299 N1301 1.384 . S
N1300 C1296 1.427 . S
N1300 C1297 1.384 . S
N1301 C1293 1.427 . S
N1301 C1299 1.384 . S
H1302 C1308 0.930 . S
H1303 C1312 0.930 . S
H1304 C1317 0.929 . S
H1305 C1315 0.929 . S
H1306 C1310 0.929 . S
H1307 C1316 0.929 . S
C1308 H1302 0.930 . S
C1308 C1309 1.367 . S
C1308 C1316 1.378 . S
C1309 C1308 1.367 . S
C1309 C1317 1.433 . S
C1310 H1306 0.929 . S
C1310 C1312 1.378 . S
C1310 C1314 1.350 . S
C1311 C1314 1.463 . S
C1311 C1316 1.350 . S
C1311 N1319 1.427 . S
C1312 H1303 0.930 . S
C1312 C1310 1.378 . S
C1312 C1313 1.367 . S
C1313 C1312 1.367 . S
C1313 C1315 1.433 . S
C1314 C1310 1.350 . S
C1314 C1311 1.463 . S
C1314 N1318 1.427 . S
C1315 H1305 0.929 . S
C1315 C1313 1.433 . S
C1315 N1318 1.384 . S
C1316 H1307 0.929 . S
C1316 C1308 1.378 . S
C1316 C1311 1.350 . S
C1317 H1304 0.929 . S
C1317 C1309 1.433 . S
C1317 N1319 1.384 . S
N1318 C1314 1.427 . S
N1318 C1315 1.384 . S
N1319 C1311 1.427 . S
N1319 C1317 1.384 . S
H1320 C1326 0.930 . S
H1321 C1330 0.930 . S
H1322 C1335 0.929 . S
H1323 C1333 0.929 . S
H1324 C1328 0.929 . S
H1325 C1334 0.929 . S
C1326 H1320 0.930 . S
C1326 C1327 1.367 . S
C1326 C1334 1.378 . S
C1327 C1326 1.367 . S
C1327 C1335 1.433 . S
C1328 H1324 0.929 . S
C1328 C1330 1.378 . S
C1328 C1332 1.350 . S
C1329 C1332 1.463 . S
C1329 C1334 1.350 . S
C1329 N1337 1.427 . S
C1330 H1321 0.930 . S
C1330 C1328 1.378 . S
C1330 C1331 1.367 . S
C1331 C1330 1.367 . S
C1331 C1333 1.433 . S
C1332 C1328 1.350 . S
C1332 C1329 1.463 . S
C1332 N1336 1.427 . S
C1333 H1323 0.929 . S
C1333 C1331 1.433 . S
C1333 N1336 1.384 . S
C1334 H1325 0.929 . S
C1334 C1326 1.378 . S
C1334 C1329 1.350 . S
C1335 H1322 0.929 . S
C1335 C1327 1.433 . S
C1335 N1337 1.384 . S
N1336 C1332 1.427 . S
N1336 C1333 1.384 . S
N1337 C1329 1.427 . S
N1337 C1335 1.384 . S
H1338 C1344 0.930 . S
H1339 C1348 0.930 . S
H1340 C1353 0.929 . S
H1341 C1351 0.929 . S
H1342 C1346 0.929 . S
H1343 C1352 0.929 . S
C1344 H1338 0.930 . S
C1344 C1345 1.367 . S
C1344 C1352 1.378 . S
C1345 C1344 1.367 . S
C1345 C1353 1.433 . S
C1346 H1342 0.929 . S
C1346 C1348 1.378 . S
C1346 C1350 1.350 . S
C1347 C1350 1.463 . S
C1347 C1352 1.350 . S
C1347 N1355 1.427 . S
C1348 H1339 0.930 . S
C1348 C1346 1.378 . S
C1348 C1349 1.367 . S
C1349 C1348 1.367 . S
C1349 C1351 1.433 . S
C1350 C1346 1.350 . S
C1350 C1347 1.463 . S
C1350 N1354 1.427 . S
C1351 H1341 0.929 . S
C1351 C1349 1.433 . S
C1351 N1354 1.384 . S
C1352 H1343 0.929 . S
C1352 C1344 1.378 . S
C1352 C1347 1.350 . S
C1353 H1340 0.929 . S
C1353 C1345 1.433 . S
C1353 N1355 1.384 . S
N1354 C1350 1.427 . S
N1354 C1351 1.384 . S
N1355 C1347 1.427 . S
N1355 C1353 1.384 . S
H1356 C1362 0.930 . S
H1357 C1366 0.930 . S
H1358 C1371 0.929 . S
H1359 C1369 0.929 . S
H1360 C1364 0.929 . S
H1361 C1370 0.929 . S
C1362 H1356 0.930 . S
C1362 C1363 1.367 . S
C1362 C1370 1.378 . S
C1363 C1362 1.367 . S
C1363 C1371 1.433 . S
C1364 H1360 0.929 . S
C1364 C1366 1.378 . S
C1364 C1368 1.350 . S
C1365 C1368 1.463 . S
C1365 C1370 1.350 . S
C1365 N1373 1.427 . S
C1366 H1357 0.930 . S
C1366 C1364 1.378 . S
C1366 C1367 1.367 . S
C1367 C1366 1.367 . S
C1367 C1369 1.433 . S
C1368 C1364 1.350 . S
C1368 C1365 1.463 . S
C1368 N1372 1.427 . S
C1369 H1359 0.929 . S
C1369 C1367 1.433 . S
C1369 N1372 1.384 . S
C1370 H1361 0.929 . S
C1370 C1362 1.378 . S
C1370 C1365 1.350 . S
C1371 H1358 0.929 . S
C1371 C1363 1.433 . S
C1371 N1373 1.384 . S
N1372 C1368 1.427 . S
N1372 C1369 1.384 . S
N1373 C1365 1.427 . S
N1373 C1371 1.384 . S
H1374 C1380 0.930 . S
H1375 C1384 0.930 . S
H1376 C1389 0.929 . S
H1377 C1387 0.929 . S
H1378 C1382 0.929 . S
H1379 C1388 0.929 . S
C1380 H1374 0.930 . S
C1380 C1381 1.367 . S
C1380 C1388 1.378 . S
C1381 C1380 1.367 . S
C1381 C1389 1.433 . S
C1382 H1378 0.929 . S
C1382 C1384 1.378 . S
C1382 C1386 1.350 . S
C1383 C1386 1.463 . S
C1383 C1388 1.350 . S
C1383 N1391 1.427 . S
C1384 H1375 0.930 . S
C1384 C1382 1.378 . S
C1384 C1385 1.367 . S
C1385 C1384 1.367 . S
C1385 C1387 1.433 . S
C1386 C1382 1.350 . S
C1386 C1383 1.463 . S
C1386 N1390 1.427 . S
C1387 H1377 0.929 . S
C1387 C1385 1.433 . S
C1387 N1390 1.384 . S
C1388 H1379 0.929 . S
C1388 C1380 1.378 . S
C1388 C1383 1.350 . S
C1389 H1376 0.929 . S
C1389 C1381 1.433 . S
C1389 N1391 1.384 . S
N1390 C1386 1.427 . S
N1390 C1387 1.384 . S
N1391 C1383 1.427 . S
N1391 C1389 1.384 . S
H1392 C1398 0.930 . S
H1393 C1402 0.930 . S
H1394 C1407 0.929 . S
H1395 C1405 0.929 . S
H1396 C1400 0.929 . S
H1397 C1406 0.929 . S
C1398 H1392 0.930 . S
C1398 C1399 1.367 . S
C1398 C1406 1.378 . S
C1399 C1398 1.367 . S
C1399 C1407 1.433 . S
C1400 H1396 0.929 . S
C1400 C1402 1.378 . S
C1400 C1404 1.350 . S
C1401 C1404 1.463 . S
C1401 C1406 1.350 . S
C1401 N1409 1.427 . S
C1402 H1393 0.930 . S
C1402 C1400 1.378 . S
C1402 C1403 1.367 . S
C1403 C1402 1.367 . S
C1403 C1405 1.433 . S
C1404 C1400 1.350 . S
C1404 C1401 1.463 . S
C1404 N1408 1.427 . S
C1405 H1395 0.929 . S
C1405 C1403 1.433 . S
C1405 N1408 1.384 . S
C1406 H1397 0.929 . S
C1406 C1398 1.378 . S
C1406 C1401 1.350 . S
C1407 H1394 0.929 . S
C1407 C1399 1.433 . S
C1407 N1409 1.384 . S
N1408 C1404 1.427 . S
N1408 C1405 1.384 . S
N1409 C1401 1.427 . S
N1409 C1407 1.384 . S
H1410 C1416 0.930 . S
H1411 C1420 0.930 . S
H1412 C1425 0.929 . S
H1413 C1423 0.929 . S
H1414 C1418 0.929 . S
H1415 C1424 0.929 . S
C1416 H1410 0.930 . S
C1416 C1417 1.367 . S
C1416 C1424 1.378 . S
C1417 C1416 1.367 . S
C1417 C1425 1.433 . S
C1418 H1414 0.929 . S
C1418 C1420 1.378 . S
C1418 C1422 1.350 . S
C1419 C1422 1.463 . S
C1419 C1424 1.350 . S
C1419 N1427 1.427 . S
C1420 H1411 0.930 . S
C1420 C1418 1.378 . S
C1420 C1421 1.367 . S
C1421 C1420 1.367 . S
C1421 C1423 1.433 . S
C1422 C1418 1.350 . S
C1422 C1419 1.463 . S
C1422 N1426 1.427 . S
C1423 H1413 0.929 . S
C1423 C1421 1.433 . S
C1423 N1426 1.384 . S
C1424 H1415 0.929 . S
C1424 C1416 1.378 . S
C1424 C1419 1.350 . S
C1425 H1412 0.929 . S
C1425 C1417 1.433 . S
C1425 N1427 1.384 . S
N1426 C1422 1.427 . S
N1426 C1423 1.384 . S
N1427 C1419 1.427 . S
N1427 C1425 1.384 . S
H1428 C1434 0.930 . S
H1429 C1438 0.930 . S
H1430 C1443 0.929 . S
H1431 C1441 0.929 . S
H1432 C1436 0.929 . S
H1433 C1442 0.929 . S
C1434 H1428 0.930 . S
C1434 C1435 1.367 . S
C1434 C1442 1.378 . S
C1435 C1434 1.367 . S
C1435 C1443 1.433 . S
C1436 H1432 0.929 . S
C1436 C1438 1.378 . S
C1436 C1440 1.350 . S
C1437 C1440 1.463 . S
C1437 C1442 1.350 . S
C1437 N1445 1.427 . S
C1438 H1429 0.930 . S
C1438 C1436 1.378 . S
C1438 C1439 1.367 . S
C1439 C1438 1.367 . S
C1439 C1441 1.433 . S
C1440 C1436 1.350 . S
C1440 C1437 1.463 . S
C1440 N1444 1.427 . S
C1441 H1431 0.929 . S
C1441 C1439 1.433 . S
C1441 N1444 1.384 . S
C1442 H1433 0.929 . S
C1442 C1434 1.378 . S
C1442 C1437 1.350 . S
C1443 H1430 0.929 . S
C1443 C1435 1.433 . S
C1443 N1445 1.384 . S
N1444 C1440 1.427 . S
N1444 C1441 1.384 . S
N1445 C1437 1.427 . S
N1445 C1443 1.384 . S
H1446 C1452 0.930 . S
H1447 C1456 0.930 . S
H1448 C1461 0.929 . S
H1449 C1459 0.929 . S
H1450 C1454 0.929 . S
H1451 C1460 0.929 . S
C1452 H1446 0.930 . S
C1452 C1453 1.367 . S
C1452 C1460 1.378 . S
C1453 C1452 1.367 . S
C1453 C1461 1.433 . S
C1454 H1450 0.929 . S
C1454 C1456 1.378 . S
C1454 C1458 1.350 . S
C1455 C1458 1.463 . S
C1455 C1460 1.350 . S
C1455 N1463 1.427 . S
C1456 H1447 0.930 . S
C1456 C1454 1.378 . S
C1456 C1457 1.367 . S
C1457 C1456 1.367 . S
C1457 C1459 1.433 . S
C1458 C1454 1.350 . S
C1458 C1455 1.463 . S
C1458 N1462 1.427 . S
C1459 H1449 0.929 . S
C1459 C1457 1.433 . S
C1459 N1462 1.384 . S
C1460 H1451 0.929 . S
C1460 C1452 1.378 . S
C1460 C1455 1.350 . S
C1461 H1448 0.929 . S
C1461 C1453 1.433 . S
C1461 N1463 1.384 . S
N1462 C1458 1.427 . S
N1462 C1459 1.384 . S
N1463 C1455 1.427 . S
N1463 C1461 1.384 . S
H1464 C1470 0.930 . S
H1465 C1474 0.930 . S
H1466 C1479 0.929 . S
H1467 C1477 0.929 . S
H1468 C1472 0.929 . S
H1469 C1478 0.929 . S
C1470 H1464 0.930 . S
C1470 C1471 1.367 . S
C1470 C1478 1.378 . S
C1471 C1470 1.367 . S
C1471 C1479 1.433 . S
C1472 H1468 0.929 . S
C1472 C1474 1.378 . S
C1472 C1476 1.350 . S
C1473 C1476 1.463 . S
C1473 C1478 1.350 . S
C1473 N1481 1.427 . S
C1474 H1465 0.930 . S
C1474 C1472 1.378 . S
C1474 C1475 1.367 . S
C1475 C1474 1.367 . S
C1475 C1477 1.433 . S
C1476 C1472 1.350 . S
C1476 C1473 1.463 . S
C1476 N1480 1.427 . S
C1477 H1467 0.929 . S
C1477 C1475 1.433 . S
C1477 N1480 1.384 . S
C1478 H1469 0.929 . S
C1478 C1470 1.378 . S
C1478 C1473 1.350 . S
C1479 H1466 0.929 . S
C1479 C1471 1.433 . S
C1479 N1481 1.384 . S
N1480 C1476 1.427 . S
N1480 C1477 1.384 . S
N1481 C1473 1.427 . S
N1481 C1479 1.384 . S
H1482 C1488 0.930 . S
H1483 C1492 0.930 . S
H1484 C1497 0.929 . S
H1485 C1495 0.929 . S
H1486 C1490 0.929 . S
H1487 C1496 0.929 . S
C1488 H1482 0.930 . S
C1488 C1489 1.367 . S
C1488 C1496 1.378 . S
C1489 C1488 1.367 . S
C1489 C1497 1.433 . S
C1490 H1486 0.929 . S
C1490 C1492 1.378 . S
C1490 C1494 1.350 . S
C1491 C1494 1.463 . S
C1491 C1496 1.350 . S
C1491 N1499 1.427 . S
C1492 H1483 0.930 . S
C1492 C1490 1.378 . S
C1492 C1493 1.367 . S
C1493 C1492 1.367 . S
C1493 C1495 1.433 . S
C1494 C1490 1.350 . S
C1494 C1491 1.463 . S
C1494 N1498 1.427 . S
C1495 H1485 0.929 . S
C1495 C1493 1.433 . S
C1495 N1498 1.384 . S
C1496 H1487 0.929 . S
C1496 C1488 1.378 . S
C1496 C1491 1.350 . S
C1497 H1484 0.929 . S
C1497 C1489 1.433 . S
C1497 N1499 1.384 . S
N1498 C1494 1.427 . S
N1498 C1495 1.384 . S
N1499 C1491 1.427 . S
N1499 C1497 1.384 . S
H1500 C1506 0.930 . S
H1501 C1510 0.930 . S
H1502 C1515 0.929 . S
H1503 C1513 0.929 . S
H1504 C1508 0.929 . S
H1505 C1514 0.929 . S
C1506 H1500 0.930 . S
C1506 C1507 1.367 . S
C1506 C1514 1.378 . S
C1507 C1506 1.367 . S
C1507 C1515 1.433 . S
C1508 H1504 0.929 . S
C1508 C1510 1.378 . S
C1508 C1512 1.350 . S
C1509 C1512 1.463 . S
C1509 C1514 1.350 . S
C1509 N1517 1.427 . S
C1510 H1501 0.930 . S
C1510 C1508 1.378 . S
C1510 C1511 1.367 . S
C1511 C1510 1.367 . S
C1511 C1513 1.433 . S
C1512 C1508 1.350 . S
C1512 C1509 1.463 . S
C1512 N1516 1.427 . S
C1513 H1503 0.929 . S
C1513 C1511 1.433 . S
C1513 N1516 1.384 . S
C1514 H1505 0.929 . S
C1514 C1506 1.378 . S
C1514 C1509 1.350 . S
C1515 H1502 0.929 . S
C1515 C1507 1.433 . S
C1515 N1517 1.384 . S
N1516 C1512 1.427 . S
N1516 C1513 1.384 . S
N1517 C1509 1.427 . S
N1517 C1515 1.384 . S
H1518 C1524 0.930 . S
H1519 C1528 0.930 . S
H1520 C1533 0.929 . S
H1521 C1531 0.929 . S
H1522 C1526 0.929 . S
H1523 C1532 0.929 . S
C1524 H1518 0.930 . S
C1524 C1525 1.367 . S
C1524 C1532 1.378 . S
C1525 C1524 1.367 . S
C1525 C1533 1.433 . S
C1526 H1522 0.929 . S
C1526 C1528 1.378 . S
C1526 C1530 1.350 . S
C1527 C1530 1.463 . S
C1527 C1532 1.350 . S
C1527 N1535 1.427 . S
C1528 H1519 0.930 . S
C1528 C1526 1.378 . S
C1528 C1529 1.367 . S
C1529 C1528 1.367 . S
C1529 C1531 1.433 . S
C1530 C1526 1.350 . S
C1530 C1527 1.463 . S
C1530 N1534 1.427 . S
C1531 H1521 0.929 . S
C1531 C1529 1.433 . S
C1531 N1534 1.384 . S
C1532 H1523 0.929 . S
C1532 C1524 1.378 . S
C1532 C1527 1.350 . S
C1533 H1520 0.929 . S
C1533 C1525 1.433 . S
C1533 N1535 1.384 . S
N1534 C1530 1.427 . S
N1534 C1531 1.384 . S
N1535 C1527 1.427 . S
N1535 C1533 1.384 . S
H1536 C1542 0.930 . S
H1537 C1546 0.930 . S
H1538 C1551 0.929 . S
H1539 C1549 0.929 . S
H1540 C1544 0.929 . S
H1541 C1550 0.929 . S
C1542 H1536 0.930 . S
C1542 C1543 1.367 . S
C1542 C1550 1.378 . S
C1543 C1542 1.367 . S
C1543 C1551 1.433 . S
C1544 H1540 0.929 . S
C1544 C1546 1.378 . S
C1544 C1548 1.350 . S
C1545 C1548 1.463 . S
C1545 C1550 1.350 . S
C1545 N1553 1.427 . S
C1546 H1537 0.930 . S
C1546 C1544 1.378 . S
C1546 C1547 1.367 . S
C1547 C1546 1.367 . S
C1547 C1549 1.433 . S
C1548 C1544 1.350 . S
C1548 C1545 1.463 . S
C1548 N1552 1.427 . S
C1549 H1539 0.929 . S
C1549 C1547 1.433 . S
C1549 N1552 1.384 . S
C1550 H1541 0.929 . S
C1550 C1542 1.378 . S
C1550 C1545 1.350 . S
C1551 H1538 0.929 . S
C1551 C1543 1.433 . S
C1551 N1553 1.384 . S
N1552 C1548 1.427 . S
N1552 C1549 1.384 . S
N1553 C1545 1.427 . S
N1553 C1551 1.384 . S
H1554 C1560 0.930 . S
H1555 C1564 0.930 . S
H1556 C1569 0.929 . S
H1557 C1567 0.929 . S
H1558 C1562 0.929 . S
H1559 C1568 0.929 . S
C1560 H1554 0.930 . S
C1560 C1561 1.367 . S
C1560 C1568 1.378 . S
C1561 C1560 1.367 . S
C1561 C1569 1.433 . S
C1562 H1558 0.929 . S
C1562 C1564 1.378 . S
C1562 C1566 1.350 . S
C1563 C1566 1.463 . S
C1563 C1568 1.350 . S
C1563 N1571 1.427 . S
C1564 H1555 0.930 . S
C1564 C1562 1.378 . S
C1564 C1565 1.367 . S
C1565 C1564 1.367 . S
C1565 C1567 1.433 . S
C1566 C1562 1.350 . S
C1566 C1563 1.463 . S
C1566 N1570 1.427 . S
C1567 H1557 0.929 . S
C1567 C1565 1.433 . S
C1567 N1570 1.384 . S
C1568 H1559 0.929 . S
C1568 C1560 1.378 . S
C1568 C1563 1.350 . S
C1569 H1556 0.929 . S
C1569 C1561 1.433 . S
C1569 N1571 1.384 . S
N1570 C1566 1.427 . S
N1570 C1567 1.384 . S
N1571 C1563 1.427 . S
N1571 C1569 1.384 . S
H1572 C1578 0.930 . S
H1573 C1582 0.930 . S
H1574 C1587 0.929 . S
H1575 C1585 0.929 . S
H1576 C1580 0.929 . S
H1577 C1586 0.929 . S
C1578 H1572 0.930 . S
C1578 C1579 1.367 . S
C1578 C1586 1.378 . S
C1579 C1578 1.367 . S
C1579 C1587 1.433 . S
C1580 H1576 0.929 . S
C1580 C1582 1.378 . S
C1580 C1584 1.350 . S
C1581 C1584 1.463 . S
C1581 C1586 1.350 . S
C1581 N1589 1.427 . S
C1582 H1573 0.930 . S
C1582 C1580 1.378 . S
C1582 C1583 1.367 . S
C1583 C1582 1.367 . S
C1583 C1585 1.433 . S
C1584 C1580 1.350 . S
C1584 C1581 1.463 . S
C1584 N1588 1.427 . S
C1585 H1575 0.929 . S
C1585 C1583 1.433 . S
C1585 N1588 1.384 . S
C1586 H1577 0.929 . S
C1586 C1578 1.378 . S
C1586 C1581 1.350 . S
C1587 H1574 0.929 . S
C1587 C1579 1.433 . S
C1587 N1589 1.384 . S
N1588 C1584 1.427 . S
N1588 C1585 1.384 . S
N1589 C1581 1.427 . S
N1589 C1587 1.384 . S
H1590 C1596 0.930 . S
H1591 C1600 0.930 . S
H1592 C1605 0.929 . S
H1593 C1603 0.929 . S
H1594 C1598 0.929 . S
H1595 C1604 0.929 . S
C1596 H1590 0.930 . S
C1596 C1597 1.367 . S
C1596 C1604 1.378 . S
C1597 C1596 1.367 . S
C1597 C1605 1.433 . S
C1598 H1594 0.929 . S
C1598 C1600 1.378 . S
C1598 C1602 1.350 . S
C1599 C1602 1.463 . S
C1599 C1604 1.350 . S
C1599 N1607 1.427 . S
C1600 H1591 0.930 . S
C1600 C1598 1.378 . S
C1600 C1601 1.367 . S
C1601 C1600 1.367 . S
C1601 C1603 1.433 . S
C1602 C1598 1.350 . S
C1602 C1599 1.463 . S
C1602 N1606 1.427 . S
C1603 H1593 0.929 . S
C1603 C1601 1.433 . S
C1603 N1606 1.384 . S
C1604 H1595 0.929 . S
C1604 C1596 1.378 . S
C1604 C1599 1.350 . S
C1605 H1592 0.929 . S
C1605 C1597 1.433 . S
C1605 N1607 1.384 . S
N1606 C1602 1.427 . S
N1606 C1603 1.384 . S
N1607 C1599 1.427 . S
N1607 C1605 1.384 . S
H1608 C1614 0.930 . S
H1609 C1618 0.930 . S
H1610 C1623 0.929 . S
H1611 C1621 0.929 . S
H1612 C1616 0.929 . S
H1613 C1622 0.929 . S
C1614 H1608 0.930 . S
C1614 C1615 1.367 . S
C1614 C1622 1.378 . S
C1615 C1614 1.367 . S
C1615 C1623 1.433 . S
C1616 H1612 0.929 . S
C1616 C1618 1.378 . S
C1616 C1620 1.350 . S
C1617 C1620 1.463 . S
C1617 C1622 1.350 . S
C1617 N1625 1.427 . S
C1618 H1609 0.930 . S
C1618 C1616 1.378 . S
C1618 C1619 1.367 . S
C1619 C1618 1.367 . S
C1619 C1621 1.433 . S
C1620 C1616 1.350 . S
C1620 C1617 1.463 . S
C1620 N1624 1.427 . S
C1621 H1611 0.929 . S
C1621 C1619 1.433 . S
C1621 N1624 1.384 . S
C1622 H1613 0.929 . S
C1622 C1614 1.378 . S
C1622 C1617 1.350 . S
C1623 H1610 0.929 . S
C1623 C1615 1.433 . S
C1623 N1625 1.384 . S
N1624 C1620 1.427 . S
N1624 C1621 1.384 . S
N1625 C1617 1.427 . S
N1625 C1623 1.384 . S
H1626 C1632 0.930 . S
H1627 C1636 0.930 . S
H1628 C1641 0.929 . S
H1629 C1639 0.929 . S
H1630 C1634 0.929 . S
H1631 C1640 0.929 . S
C1632 H1626 0.930 . S
C1632 C1633 1.367 . S
C1632 C1640 1.378 . S
C1633 C1632 1.367 . S
C1633 C1641 1.433 . S
C1634 H1630 0.929 . S
C1634 C1636 1.378 . S
C1634 C1638 1.350 . S
C1635 C1638 1.463 . S
C1635 C1640 1.350 . S
C1635 N1643 1.427 . S
C1636 H1627 0.930 . S
C1636 C1634 1.378 . S
C1636 C1637 1.367 . S
C1637 C1636 1.367 . S
C1637 C1639 1.433 . S
C1638 C1634 1.350 . S
C1638 C1635 1.463 . S
C1638 N1642 1.427 . S
C1639 H1629 0.929 . S
C1639 C1637 1.433 . S
C1639 N1642 1.384 . S
C1640 H1631 0.929 . S
C1640 C1632 1.378 . S
C1640 C1635 1.350 . S
C1641 H1628 0.929 . S
C1641 C1633 1.433 . S
C1641 N1643 1.384 . S
N1642 C1638 1.427 . S
N1642 C1639 1.384 . S
N1643 C1635 1.427 . S
N1643 C1641 1.384 . S
H1644 C1650 0.930 . S
H1645 C1654 0.930 . S
H1646 C1659 0.929 . S
H1647 C1657 0.929 . S
H1648 C1652 0.929 . S
H1649 C1658 0.929 . S
C1650 H1644 0.930 . S
C1650 C1651 1.367 . S
C1650 C1658 1.378 . S
C1651 C1650 1.367 . S
C1651 C1659 1.433 . S
C1652 H1648 0.929 . S
C1652 C1654 1.378 . S
C1652 C1656 1.350 . S
C1653 C1656 1.463 . S
C1653 C1658 1.350 . S
C1653 N1661 1.427 . S
C1654 H1645 0.930 . S
C1654 C1652 1.378 . S
C1654 C1655 1.367 . S
C1655 C1654 1.367 . S
C1655 C1657 1.433 . S
C1656 C1652 1.350 . S
C1656 C1653 1.463 . S
C1656 N1660 1.427 . S
C1657 H1647 0.929 . S
C1657 C1655 1.433 . S
C1657 N1660 1.384 . S
C1658 H1649 0.929 . S
C1658 C1650 1.378 . S
C1658 C1653 1.350 . S
C1659 H1646 0.929 . S
C1659 C1651 1.433 . S
C1659 N1661 1.384 . S
N1660 C1656 1.427 . S
N1660 C1657 1.384 . S
N1661 C1653 1.427 . S
N1661 C1659 1.384 . S
H1662 C1668 0.930 . S
H1663 C1672 0.930 . S
H1664 C1677 0.929 . S
H1665 C1675 0.929 . S
H1666 C1670 0.929 . S
H1667 C1676 0.929 . S
C1668 H1662 0.930 . S
C1668 C1669 1.367 . S
C1668 C1676 1.378 . S
C1669 C1668 1.367 . S
C1669 C1677 1.433 . S
C1670 H1666 0.929 . S
C1670 C1672 1.378 . S
C1670 C1674 1.350 . S
C1671 C1674 1.463 . S
C1671 C1676 1.350 . S
C1671 N1679 1.427 . S
C1672 H1663 0.930 . S
C1672 C1670 1.378 . S
C1672 C1673 1.367 . S
C1673 C1672 1.367 . S
C1673 C1675 1.433 . S
C1674 C1670 1.350 . S
C1674 C1671 1.463 . S
C1674 N1678 1.427 . S
C1675 H1665 0.929 . S
C1675 C1673 1.433 . S
C1675 N1678 1.384 . S
C1676 H1667 0.929 . S
C1676 C1668 1.378 . S
C1676 C1671 1.350 . S
C1677 H1664 0.929 . S
C1677 C1669 1.433 . S
C1677 N1679 1.384 . S
N1678 C1674 1.427 . S
N1678 C1675 1.384 . S
N1679 C1671 1.427 . S
N1679 C1677 1.384 . S
H1680 C1686 0.930 . S
H1681 C1690 0.930 . S
H1682 C1695 0.929 . S
H1683 C1693 0.929 . S
H1684 C1688 0.929 . S
H1685 C1694 0.929 . S
C1686 H1680 0.930 . S
C1686 C1687 1.367 . S
C1686 C1694 1.378 . S
C1687 C1686 1.367 . S
C1687 C1695 1.433 . S
C1688 H1684 0.929 . S
C1688 C1690 1.378 . S
C1688 C1692 1.350 . S
C1689 C1692 1.463 . S
C1689 C1694 1.350 . S
C1689 N1697 1.427 . S
C1690 H1681 0.930 . S
C1690 C1688 1.378 . S
C1690 C1691 1.367 . S
C1691 C1690 1.367 . S
C1691 C1693 1.433 . S
C1692 C1688 1.350 . S
C1692 C1689 1.463 . S
C1692 N1696 1.427 . S
C1693 H1683 0.929 . S
C1693 C1691 1.433 . S
C1693 N1696 1.384 . S
C1694 H1685 0.929 . S
C1694 C1686 1.378 . S
C1694 C1689 1.350 . S
C1695 H1682 0.929 . S
C1695 C1687 1.433 . S
C1695 N1697 1.384 . S
N1696 C1692 1.427 . S
N1696 C1693 1.384 . S
N1697 C1689 1.427 . S
N1697 C1695 1.384 . S
H1698 C1704 0.930 . S
H1699 C1708 0.930 . S
H1700 C1713 0.929 . S
H1701 C1711 0.929 . S
H1702 C1706 0.929 . S
H1703 C1712 0.929 . S
C1704 H1698 0.930 . S
C1704 C1705 1.367 . S
C1704 C1712 1.378 . S
C1705 C1704 1.367 . S
C1705 C1713 1.433 . S
C1706 H1702 0.929 . S
C1706 C1708 1.378 . S
C1706 C1710 1.350 . S
C1707 C1710 1.463 . S
C1707 C1712 1.350 . S
C1707 N1715 1.427 . S
C1708 H1699 0.930 . S
C1708 C1706 1.378 . S
C1708 C1709 1.367 . S
C1709 C1708 1.367 . S
C1709 C1711 1.433 . S
C1710 C1706 1.350 . S
C1710 C1707 1.463 . S
C1710 N1714 1.427 . S
C1711 H1701 0.929 . S
C1711 C1709 1.433 . S
C1711 N1714 1.384 . S
C1712 H1703 0.929 . S
C1712 C1704 1.378 . S
C1712 C1707 1.350 . S
C1713 H1700 0.929 . S
C1713 C1705 1.433 . S
C1713 N1715 1.384 . S
N1714 C1710 1.427 . S
N1714 C1711 1.384 . S
N1715 C1707 1.427 . S
N1715 C1713 1.384 . S
H1716 C1722 0.930 . S
H1717 C1726 0.930 . S
H1718 C1731 0.929 . S
H1719 C1729 0.929 . S
H1720 C1724 0.929 . S
H1721 C1730 0.929 . S
C1722 H1716 0.930 . S
C1722 C1723 1.367 . S
C1722 C1730 1.378 . S
C1723 C1722 1.367 . S
C1723 C1731 1.433 . S
C1724 H1720 0.929 . S
C1724 C1726 1.378 . S
C1724 C1728 1.350 . S
C1725 C1728 1.463 . S
C1725 C1730 1.350 . S
C1725 N1733 1.427 . S
C1726 H1717 0.930 . S
C1726 C1724 1.378 . S
C1726 C1727 1.367 . S
C1727 C1726 1.367 . S
C1727 C1729 1.433 . S
C1728 C1724 1.350 . S
C1728 C1725 1.463 . S
C1728 N1732 1.427 . S
C1729 H1719 0.929 . S
C1729 C1727 1.433 . S
C1729 N1732 1.384 . S
C1730 H1721 0.929 . S
C1730 C1722 1.378 . S
C1730 C1725 1.350 . S
C1731 H1718 0.929 . S
C1731 C1723 1.433 . S
C1731 N1733 1.384 . S
N1732 C1728 1.427 . S
N1732 C1729 1.384 . S
N1733 C1725 1.427 . S
N1733 C1731 1.384 . S
H1734 C1740 0.930 . S
H1735 C1744 0.930 . S
H1736 C1749 0.929 . S
H1737 C1747 0.929 . S
H1738 C1742 0.929 . S
H1739 C1748 0.929 . S
C1740 H1734 0.930 . S
C1740 C1741 1.367 . S
C1740 C1748 1.378 . S
C1741 C1740 1.367 . S
C1741 C1749 1.433 . S
C1742 H1738 0.929 . S
C1742 C1744 1.378 . S
C1742 C1746 1.350 . S
C1743 C1746 1.463 . S
C1743 C1748 1.350 . S
C1743 N1751 1.427 . S
C1744 H1735 0.930 . S
C1744 C1742 1.378 . S
C1744 C1745 1.367 . S
C1745 C1744 1.367 . S
C1745 C1747 1.433 . S
C1746 C1742 1.350 . S
C1746 C1743 1.463 . S
C1746 N1750 1.427 . S
C1747 H1737 0.929 . S
C1747 C1745 1.433 . S
C1747 N1750 1.384 . S
C1748 H1739 0.929 . S
C1748 C1740 1.378 . S
C1748 C1743 1.350 . S
C1749 H1736 0.929 . S
C1749 C1741 1.433 . S
C1749 N1751 1.384 . S
N1750 C1746 1.427 . S
N1750 C1747 1.384 . S
N1751 C1743 1.427 . S
N1751 C1749 1.384 . S
H1752 C1758 0.930 . S
H1753 C1762 0.930 . S
H1754 C1767 0.929 . S
H1755 C1765 0.929 . S
H1756 C1760 0.929 . S
H1757 C1766 0.929 . S
C1758 H1752 0.930 . S
C1758 C1759 1.367 . S
C1758 C1766 1.378 . S
C1759 C1758 1.367 . S
C1759 C1767 1.433 . S
C1760 H1756 0.929 . S
C1760 C1762 1.378 . S
C1760 C1764 1.350 . S
C1761 C1764 1.463 . S
C1761 C1766 1.350 . S
C1761 N1769 1.427 . S
C1762 H1753 0.930 . S
C1762 C1760 1.378 . S
C1762 C1763 1.367 . S
C1763 C1762 1.367 . S
C1763 C1765 1.433 . S
C1764 C1760 1.350 . S
C1764 C1761 1.463 . S
C1764 N1768 1.427 . S
C1765 H1755 0.929 . S
C1765 C1763 1.433 . S
C1765 N1768 1.384 . S
C1766 H1757 0.929 . S
C1766 C1758 1.378 . S
C1766 C1761 1.350 . S
C1767 H1754 0.929 . S
C1767 C1759 1.433 . S
C1767 N1769 1.384 . S
N1768 C1764 1.427 . S
N1768 C1765 1.384 . S
N1769 C1761 1.427 . S
N1769 C1767 1.384 . S
H1770 C1776 0.930 . S
H1771 C1780 0.930 . S
H1772 C1785 0.929 . S
H1773 C1783 0.929 . S
H1774 C1778 0.929 . S
H1775 C1784 0.929 . S
C1776 H1770 0.930 . S
C1776 C1777 1.367 . S
C1776 C1784 1.378 . S
C1777 C1776 1.367 . S
C1777 C1785 1.433 . S
C1778 H1774 0.929 . S
C1778 C1780 1.378 . S
C1778 C1782 1.350 . S
C1779 C1782 1.463 . S
C1779 C1784 1.350 . S
C1779 N1787 1.427 . S
C1780 H1771 0.930 . S
C1780 C1778 1.378 . S
C1780 C1781 1.367 . S
C1781 C1780 1.367 . S
C1781 C1783 1.433 . S
C1782 C1778 1.350 . S
C1782 C1779 1.463 . S
C1782 N1786 1.427 . S
C1783 H1773 0.929 . S
C1783 C1781 1.433 . S
C1783 N1786 1.384 . S
C1784 H1775 0.929 . S
C1784 C1776 1.378 . S
C1784 C1779 1.350 . S
C1785 H1772 0.929 . S
C1785 C1777 1.433 . S
C1785 N1787 1.384 . S
N1786 C1782 1.427 . S
N1786 C1783 1.384 . S
N1787 C1779 1.427 . S
N1787 C1785 1.384 . S
H1788 C1794 0.930 . S
H1789 C1798 0.930 . S
H1790 C1803 0.929 . S
H1791 C1801 0.929 . S
H1792 C1796 0.929 . S
H1793 C1802 0.929 . S
C1794 H1788 0.930 . S
C1794 C1795 1.367 . S
C1794 C1802 1.378 . S
C1795 C1794 1.367 . S
C1795 C1803 1.433 . S
C1796 H1792 0.929 . S
C1796 C1798 1.378 . S
C1796 C1800 1.350 . S
C1797 C1800 1.463 . S
C1797 C1802 1.350 . S
C1797 N1805 1.427 . S
C1798 H1789 0.930 . S
C1798 C1796 1.378 . S
C1798 C1799 1.367 . S
C1799 C1798 1.367 . S
C1799 C1801 1.433 . S
C1800 C1796 1.350 . S
C1800 C1797 1.463 . S
C1800 N1804 1.427 . S
C1801 H1791 0.929 . S
C1801 C1799 1.433 . S
C1801 N1804 1.384 . S
C1802 H1793 0.929 . S
C1802 C1794 1.378 . S
C1802 C1797 1.350 . S
C1803 H1790 0.929 . S
C1803 C1795 1.433 . S
C1803 N1805 1.384 . S
N1804 C1800 1.427 . S
N1804 C1801 1.384 . S
N1805 C1797 1.427 . S
N1805 C1803 1.384 . S
H1806 C1812 0.930 . S
H1807 C1816 0.930 . S
H1808 C1821 0.929 . S
H1809 C1819 0.929 . S
H1810 C1814 0.929 . S
H1811 C1820 0.929 . S
C1812 H1806 0.930 . S
C1812 C1813 1.367 . S
C1812 C1820 1.378 . S
C1813 C1812 1.367 . S
C1813 C1821 1.433 . S
C1814 H1810 0.929 . S
C1814 C1816 1.378 . S
C1814 C1818 1.350 . S
C1815 C1818 1.463 . S
C1815 C1820 1.350 . S
C1815 N1823 1.427 . S
C1816 H1807 0.930 . S
C1816 C1814 1.378 . S
C1816 C1817 1.367 . S
C1817 C1816 1.367 . S
C1817 C1819 1.433 . S
C1818 C1814 1.350 . S
C1818 C1815 1.463 . S
C1818 N1822 1.427 . S
C1819 H1809 0.929 . S
C1819 C1817 1.433 . S
C1819 N1822 1.384 . S
C1820 H1811 0.929 . S
C1820 C1812 1.378 . S
C1820 C1815 1.350 . S
C1821 H1808 0.929 . S
C1821 C1813 1.433 . S
C1821 N1823 1.384 . S
N1822 C1818 1.427 . S
N1822 C1819 1.384 . S
N1823 C1815 1.427 . S
N1823 C1821 1.384 . S
H1824 C1830 0.930 . S
H1825 C1834 0.930 . S
H1826 C1839 0.929 . S
H1827 C1837 0.929 . S
H1828 C1832 0.929 . S
H1829 C1838 0.929 . S
C1830 H1824 0.930 . S
C1830 C1831 1.367 . S
C1830 C1838 1.378 . S
C1831 C1830 1.367 . S
C1831 C1839 1.433 . S
C1832 H1828 0.929 . S
C1832 C1834 1.378 . S
C1832 C1836 1.350 . S
C1833 C1836 1.463 . S
C1833 C1838 1.350 . S
C1833 N1841 1.427 . S
C1834 H1825 0.930 . S
C1834 C1832 1.378 . S
C1834 C1835 1.367 . S
C1835 C1834 1.367 . S
C1835 C1837 1.433 . S
C1836 C1832 1.350 . S
C1836 C1833 1.463 . S
C1836 N1840 1.427 . S
C1837 H1827 0.929 . S
C1837 C1835 1.433 . S
C1837 N1840 1.384 . S
C1838 H1829 0.929 . S
C1838 C1830 1.378 . S
C1838 C1833 1.350 . S
C1839 H1826 0.929 . S
C1839 C1831 1.433 . S
C1839 N1841 1.384 . S
N1840 C1836 1.427 . S
N1840 C1837 1.384 . S
N1841 C1833 1.427 . S
N1841 C1839 1.384 . S
H1842 C1848 0.930 . S
H1843 C1852 0.930 . S
H1844 C1857 0.929 . S
H1845 C1855 0.929 . S
H1846 C1850 0.929 . S
H1847 C1856 0.929 . S
C1848 H1842 0.930 . S
C1848 C1849 1.367 . S
C1848 C1856 1.378 . S
C1849 C1848 1.367 . S
C1849 C1857 1.433 . S
C1850 H1846 0.929 . S
C1850 C1852 1.378 . S
C1850 C1854 1.350 . S
C1851 C1854 1.463 . S
C1851 C1856 1.350 . S
C1851 N1859 1.427 . S
C1852 H1843 0.930 . S
C1852 C1850 1.378 . S
C1852 C1853 1.367 . S
C1853 C1852 1.367 . S
C1853 C1855 1.433 . S
C1854 C1850 1.350 . S
C1854 C1851 1.463 . S
C1854 N1858 1.427 . S
C1855 H1845 0.929 . S
C1855 C1853 1.433 . S
C1855 N1858 1.384 . S
C1856 H1847 0.929 . S
C1856 C1848 1.378 . S
C1856 C1851 1.350 . S
C1857 H1844 0.929 . S
C1857 C1849 1.433 . S
C1857 N1859 1.384 . S
N1858 C1854 1.427 . S
N1858 C1855 1.384 . S
N1859 C1851 1.427 . S
N1859 C1857 1.384 . S
H1860 C1866 0.930 . S
H1861 C1870 0.930 . S
H1862 C1875 0.929 . S
H1863 C1873 0.929 . S
H1864 C1868 0.929 . S
H1865 C1874 0.929 . S
C1866 H1860 0.930 . S
C1866 C1867 1.367 . S
C1866 C1874 1.378 . S
C1867 C1866 1.367 . S
C1867 C1875 1.433 . S
C1868 H1864 0.929 . S
C1868 C1870 1.378 . S
C1868 C1872 1.350 . S
C1869 C1872 1.463 . S
C1869 C1874 1.350 . S
C1869 N1877 1.427 . S
C1870 H1861 0.930 . S
C1870 C1868 1.378 . S
C1870 C1871 1.367 . S
C1871 C1870 1.367 . S
C1871 C1873 1.433 . S
C1872 C1868 1.350 . S
C1872 C1869 1.463 . S
C1872 N1876 1.427 . S
C1873 H1863 0.929 . S
C1873 C1871 1.433 . S
C1873 N1876 1.384 . S
C1874 H1865 0.929 . S
C1874 C1866 1.378 . S
C1874 C1869 1.350 . S
C1875 H1862 0.929 . S
C1875 C1867 1.433 . S
C1875 N1877 1.384 . S
N1876 C1872 1.427 . S
N1876 C1873 1.384 . S
N1877 C1869 1.427 . S
N1877 C1875 1.384 . S
H1878 C1884 0.930 . S
H1879 C1888 0.930 . S
H1880 C1893 0.929 . S
H1881 C1891 0.929 . S
H1882 C1886 0.929 . S
H1883 C1892 0.929 . S
C1884 H1878 0.930 . S
C1884 C1885 1.367 . S
C1884 C1892 1.378 . S
C1885 C1884 1.367 . S
C1885 C1893 1.433 . S
C1886 H1882 0.929 . S
C1886 C1888 1.378 . S
C1886 C1890 1.350 . S
C1887 C1890 1.463 . S
C1887 C1892 1.350 . S
C1887 N1895 1.427 . S
C1888 H1879 0.930 . S
C1888 C1886 1.378 . S
C1888 C1889 1.367 . S
C1889 C1888 1.367 . S
C1889 C1891 1.433 . S
C1890 C1886 1.350 . S
C1890 C1887 1.463 . S
C1890 N1894 1.427 . S
C1891 H1881 0.929 . S
C1891 C1889 1.433 . S
C1891 N1894 1.384 . S
C1892 H1883 0.929 . S
C1892 C1884 1.378 . S
C1892 C1887 1.350 . S
C1893 H1880 0.929 . S
C1893 C1885 1.433 . S
C1893 N1895 1.384 . S
N1894 C1890 1.427 . S
N1894 C1891 1.384 . S
N1895 C1887 1.427 . S
N1895 C1893 1.384 . S
H1896 C1902 0.930 . S
H1897 C1906 0.930 . S
H1898 C1911 0.929 . S
H1899 C1909 0.929 . S
H1900 C1904 0.929 . S
H1901 C1910 0.929 . S
C1902 H1896 0.930 . S
C1902 C1903 1.367 . S
C1902 C1910 1.378 . S
C1903 C1902 1.367 . S
C1903 C1911 1.433 . S
C1904 H1900 0.929 . S
C1904 C1906 1.378 . S
C1904 C1908 1.350 . S
C1905 C1908 1.463 . S
C1905 C1910 1.350 . S
C1905 N1913 1.427 . S
C1906 H1897 0.930 . S
C1906 C1904 1.378 . S
C1906 C1907 1.367 . S
C1907 C1906 1.367 . S
C1907 C1909 1.433 . S
C1908 C1904 1.350 . S
C1908 C1905 1.463 . S
C1908 N1912 1.427 . S
C1909 H1899 0.929 . S
C1909 C1907 1.433 . S
C1909 N1912 1.384 . S
C1910 H1901 0.929 . S
C1910 C1902 1.378 . S
C1910 C1905 1.350 . S
C1911 H1898 0.929 . S
C1911 C1903 1.433 . S
C1911 N1913 1.384 . S
N1912 C1908 1.427 . S
N1912 C1909 1.384 . S
N1913 C1905 1.427 . S
N1913 C1911 1.384 . S
H1914 C1920 0.930 . S
H1915 C1924 0.930 . S
H1916 C1929 0.929 . S
H1917 C1927 0.929 . S
H1918 C1922 0.929 . S
H1919 C1928 0.929 . S
C1920 H1914 0.930 . S
C1920 C1921 1.367 . S
C1920 C1928 1.378 . S
C1921 C1920 1.367 . S
C1921 C1929 1.433 . S
C1922 H1918 0.929 . S
C1922 C1924 1.378 . S
C1922 C1926 1.350 . S
C1923 C1926 1.463 . S
C1923 C1928 1.350 . S
C1923 N1931 1.427 . S
C1924 H1915 0.930 . S
C1924 C1922 1.378 . S
C1924 C1925 1.367 . S
C1925 C1924 1.367 . S
C1925 C1927 1.433 . S
C1926 C1922 1.350 . S
C1926 C1923 1.463 . S
C1926 N1930 1.427 . S
C1927 H1917 0.929 . S
C1927 C1925 1.433 . S
C1927 N1930 1.384 . S
C1928 H1919 0.929 . S
C1928 C1920 1.378 . S
C1928 C1923 1.350 . S
C1929 H1916 0.929 . S
C1929 C1921 1.433 . S
C1929 N1931 1.384 . S
N1930 C1926 1.427 . S
N1930 C1927 1.384 . S
N1931 C1923 1.427 . S
N1931 C1929 1.384 . S
H1932 C1938 0.930 . S
H1933 C1942 0.930 . S
H1934 C1947 0.929 . S
H1935 C1945 0.929 . S
H1936 C1940 0.929 . S
H1937 C1946 0.929 . S
C1938 H1932 0.930 . S
C1938 C1939 1.367 . S
C1938 C1946 1.378 . S
C1939 C1938 1.367 . S
C1939 C1947 1.433 . S
C1940 H1936 0.929 . S
C1940 C1942 1.378 . S
C1940 C1944 1.350 . S
C1941 C1944 1.463 . S
C1941 C1946 1.350 . S
C1941 N1949 1.427 . S
C1942 H1933 0.930 . S
C1942 C1940 1.378 . S
C1942 C1943 1.367 . S
C1943 C1942 1.367 . S
C1943 C1945 1.433 . S
C1944 C1940 1.350 . S
C1944 C1941 1.463 . S
C1944 N1948 1.427 . S
C1945 H1935 0.929 . S
C1945 C1943 1.433 . S
C1945 N1948 1.384 . S
C1946 H1937 0.929 . S
C1946 C1938 1.378 . S
C1946 C1941 1.350 . S
C1947 H1934 0.929 . S
C1947 C1939 1.433 . S
C1947 N1949 1.384 . S
N1948 C1944 1.427 . S
N1948 C1945 1.384 . S
N1949 C1941 1.427 . S
N1949 C1947 1.384 . S
H1950 C1956 0.930 . S
H1951 C1960 0.930 . S
H1952 C1965 0.929 . S
H1953 C1963 0.929 . S
H1954 C1958 0.929 . S
H1955 C1964 0.929 . S
C1956 H1950 0.930 . S
C1956 C1957 1.367 . S
C1956 C1964 1.378 . S
C1957 C1956 1.367 . S
C1957 C1965 1.433 . S
C1958 H1954 0.929 . S
C1958 C1960 1.378 . S
C1958 C1962 1.350 . S
C1959 C1962 1.463 . S
C1959 C1964 1.350 . S
C1959 N1967 1.427 . S
C1960 H1951 0.930 . S
C1960 C1958 1.378 . S
C1960 C1961 1.367 . S
C1961 C1960 1.367 . S
C1961 C1963 1.433 . S
C1962 C1958 1.350 . S
C1962 C1959 1.463 . S
C1962 N1966 1.427 . S
C1963 H1953 0.929 . S
C1963 C1961 1.433 . S
C1963 N1966 1.384 . S
C1964 H1955 0.929 . S
C1964 C1956 1.378 . S
C1964 C1959 1.350 . S
C1965 H1952 0.929 . S
C1965 C1957 1.433 . S
C1965 N1967 1.384 . S
N1966 C1962 1.427 . S
N1966 C1963 1.384 . S
N1967 C1959 1.427 . S
N1967 C1965 1.384 . S
H1968 C1974 0.930 . S
H1969 C1978 0.930 . S
H1970 C1983 0.929 . S
H1971 C1981 0.929 . S
H1972 C1976 0.929 . S
H1973 C1982 0.929 . S
C1974 H1968 0.930 . S
C1974 C1975 1.367 . S
C1974 C1982 1.378 . S
C1975 C1974 1.367 . S
C1975 C1983 1.433 . S
C1976 H1972 0.929 . S
C1976 C1978 1.378 . S
C1976 C1980 1.350 . S
C1977 C1980 1.463 . S
C1977 C1982 1.350 . S
C1977 N1985 1.427 . S
C1978 H1969 0.930 . S
C1978 C1976 1.378 . S
C1978 C1979 1.367 . S
C1979 C1978 1.367 . S
C1979 C1981 1.433 . S
C1980 C1976 1.350 . S
C1980 C1977 1.463 . S
C1980 N1984 1.427 . S
C1981 H1971 0.929 . S
C1981 C1979 1.433 . S
C1981 N1984 1.384 . S
C1982 H1973 0.929 . S
C1982 C1974 1.378 . S
C1982 C1977 1.350 . S
C1983 H1970 0.929 . S
C1983 C1975 1.433 . S
C1983 N1985 1.384 . S
N1984 C1980 1.427 . S
N1984 C1981 1.384 . S
N1985 C1977 1.427 . S
N1985 C1983 1.384 . S
H1986 C1992 0.930 . S
H1987 C1996 0.930 . S
H1988 C2001 0.929 . S
H1989 C1999 0.929 . S
H1990 C1994 0.929 . S
H1991 C2000 0.929 . S
C1992 H1986 0.930 . S
C1992 C1993 1.367 . S
C1992 C2000 1.378 . S
C1993 C1992 1.367 . S
C1993 C2001 1.433 . S
C1994 H1990 0.929 . S
C1994 C1996 1.378 . S
C1994 C1998 1.350 . S
C1995 C1998 1.463 . S
C1995 C2000 1.350 . S
C1995 N2003 1.427 . S
C1996 H1987 0.930 . S
C1996 C1994 1.378 . S
C1996 C1997 1.367 . S
C1997 C1996 1.367 . S
C1997 C1999 1.433 . S
C1998 C1994 1.350 . S
C1998 C1995 1.463 . S
C1998 N2002 1.427 . S
C1999 H1989 0.929 . S
C1999 C1997 1.433 . S
C1999 N2002 1.384 . S
C2000 H1991 0.929 . S
C2000 C1992 1.378 . S
C2000 C1995 1.350 . S
C2001 H1988 0.929 . S
C2001 C1993 1.433 . S
C2001 N2003 1.384 . S
N2002 C1998 1.427 . S
N2002 C1999 1.384 . S
N2003 C1995 1.427 . S
N2003 C2001 1.384 . S
H2004 C2010 0.930 . S
H2005 C2014 0.930 . S
H2006 C2019 0.929 . S
H2007 C2017 0.929 . S
H2008 C2012 0.929 . S
H2009 C2018 0.929 . S
C2010 H2004 0.930 . S
C2010 C2011 1.367 . S
C2010 C2018 1.378 . S
C2011 C2010 1.367 . S
C2011 C2019 1.433 . S
C2012 H2008 0.929 . S
C2012 C2014 1.378 . S
C2012 C2016 1.350 . S
C2013 C2016 1.463 . S
C2013 C2018 1.350 . S
C2013 N2021 1.427 . S
C2014 H2005 0.930 . S
C2014 C2012 1.378 . S
C2014 C2015 1.367 . S
C2015 C2014 1.367 . S
C2015 C2017 1.433 . S
C2016 C2012 1.350 . S
C2016 C2013 1.463 . S
C2016 N2020 1.427 . S
C2017 H2007 0.929 . S
C2017 C2015 1.433 . S
C2017 N2020 1.384 . S
C2018 H2009 0.929 . S
C2018 C2010 1.378 . S
C2018 C2013 1.350 . S
C2019 H2006 0.929 . S
C2019 C2011 1.433 . S
C2019 N2021 1.384 . S
N2020 C2016 1.427 . S
N2020 C2017 1.384 . S
N2021 C2013 1.427 . S
N2021 C2019 1.384 . S
H2022 C2028 0.930 . S
H2023 C2032 0.930 . S
H2024 C2037 0.929 . S
H2025 C2035 0.929 . S
H2026 C2030 0.929 . S
H2027 C2036 0.929 . S
C2028 H2022 0.930 . S
C2028 C2029 1.367 . S
C2028 C2036 1.378 . S
C2029 C2028 1.367 . S
C2029 C2037 1.433 . S
C2030 H2026 0.929 . S
C2030 C2032 1.378 . S
C2030 C2034 1.350 . S
C2031 C2034 1.463 . S
C2031 C2036 1.350 . S
C2031 N2039 1.427 . S
C2032 H2023 0.930 . S
C2032 C2030 1.378 . S
C2032 C2033 1.367 . S
C2033 C2032 1.367 . S
C2033 C2035 1.433 . S
C2034 C2030 1.350 . S
C2034 C2031 1.463 . S
C2034 N2038 1.427 . S
C2035 H2025 0.929 . S
C2035 C2033 1.433 . S
C2035 N2038 1.384 . S
C2036 H2027 0.929 . S
C2036 C2028 1.378 . S
C2036 C2031 1.350 . S
C2037 H2024 0.929 . S
C2037 C2029 1.433 . S
C2037 N2039 1.384 . S
N2038 C2034 1.427 . S
N2038 C2035 1.384 . S
N2039 C2031 1.427 . S
N2039 C2037 1.384 . S
H2040 C2046 0.930 . S
H2041 C2050 0.930 . S
H2042 C2055 0.929 . S
H2043 C2053 0.929 . S
H2044 C2048 0.929 . S
H2045 C2054 0.929 . S
C2046 H2040 0.930 . S
C2046 C2047 1.367 . S
C2046 C2054 1.378 . S
C2047 C2046 1.367 . S
C2047 C2055 1.433 . S
C2048 H2044 0.929 . S
C2048 C2050 1.378 . S
C2048 C2052 1.350 . S
C2049 C2052 1.463 . S
C2049 C2054 1.350 . S
C2049 N2057 1.427 . S
C2050 H2041 0.930 . S
C2050 C2048 1.378 . S
C2050 C2051 1.367 . S
C2051 C2050 1.367 . S
C2051 C2053 1.433 . S
C2052 C2048 1.350 . S
C2052 C2049 1.463 . S
C2052 N2056 1.427 . S
C2053 H2043 0.929 . S
C2053 C2051 1.433 . S
C2053 N2056 1.384 . S
C2054 H2045 0.929 . S
C2054 C2046 1.378 . S
C2054 C2049 1.350 . S
C2055 H2042 0.929 . S
C2055 C2047 1.433 . S
C2055 N2057 1.384 . S
N2056 C2052 1.427 . S
N2056 C2053 1.384 . S
N2057 C2049 1.427 . S
N2057 C2055 1.384 . S
H2058 C2064 0.930 . S
H2059 C2068 0.930 . S
H2060 C2073 0.929 . S
H2061 C2071 0.929 . S
H2062 C2066 0.929 . S
H2063 C2072 0.929 . S
C2064 H2058 0.930 . S
C2064 C2065 1.367 . S
C2064 C2072 1.378 . S
C2065 C2064 1.367 . S
C2065 C2073 1.433 . S
C2066 H2062 0.929 . S
C2066 C2068 1.378 . S
C2066 C2070 1.350 . S
C2067 C2070 1.463 . S
C2067 C2072 1.350 . S
C2067 N2075 1.427 . S
C2068 H2059 0.930 . S
C2068 C2066 1.378 . S
C2068 C2069 1.367 . S
C2069 C2068 1.367 . S
C2069 C2071 1.433 . S
C2070 C2066 1.350 . S
C2070 C2067 1.463 . S
C2070 N2074 1.427 . S
C2071 H2061 0.929 . S
C2071 C2069 1.433 . S
C2071 N2074 1.384 . S
C2072 H2063 0.929 . S
C2072 C2064 1.378 . S
C2072 C2067 1.350 . S
C2073 H2060 0.929 . S
C2073 C2065 1.433 . S
C2073 N2075 1.384 . S
N2074 C2070 1.427 . S
N2074 C2071 1.384 . S
N2075 C2067 1.427 . S
N2075 C2073 1.384 . S
H2076 C2082 0.930 . S
H2077 C2086 0.930 . S
H2078 C2091 0.929 . S
H2079 C2089 0.929 . S
H2080 C2084 0.929 . S
H2081 C2090 0.929 . S
C2082 H2076 0.930 . S
C2082 C2083 1.367 . S
C2082 C2090 1.378 . S
C2083 C2082 1.367 . S
C2083 C2091 1.433 . S
C2084 H2080 0.929 . S
C2084 C2086 1.378 . S
C2084 C2088 1.350 . S
C2085 C2088 1.463 . S
C2085 C2090 1.350 . S
C2085 N2093 1.427 . S
C2086 H2077 0.930 . S
C2086 C2084 1.378 . S
C2086 C2087 1.367 . S
C2087 C2086 1.367 . S
C2087 C2089 1.433 . S
C2088 C2084 1.350 . S
C2088 C2085 1.463 . S
C2088 N2092 1.427 . S
C2089 H2079 0.929 . S
C2089 C2087 1.433 . S
C2089 N2092 1.384 . S
C2090 H2081 0.929 . S
C2090 C2082 1.378 . S
C2090 C2085 1.350 . S
C2091 H2078 0.929 . S
C2091 C2083 1.433 . S
C2091 N2093 1.384 . S
N2092 C2088 1.427 . S
N2092 C2089 1.384 . S
N2093 C2085 1.427 . S
N2093 C2091 1.384 . S
H2094 C2100 0.930 . S
H2095 C2104 0.930 . S
H2096 C2109 0.929 . S
H2097 C2107 0.929 . S
H2098 C2102 0.929 . S
H2099 C2108 0.929 . S
C2100 H2094 0.930 . S
C2100 C2101 1.367 . S
C2100 C2108 1.378 . S
C2101 C2100 1.367 . S
C2101 C2109 1.433 . S
C2102 H2098 0.929 . S
C2102 C2104 1.378 . S
C2102 C2106 1.350 . S
C2103 C2106 1.463 . S
C2103 C2108 1.350 . S
C2103 N2111 1.427 . S
C2104 H2095 0.930 . S
C2104 C2102 1.378 . S
C2104 C2105 1.367 . S
C2105 C2104 1.367 . S
C2105 C2107 1.433 . S
C2106 C2102 1.350 . S
C2106 C2103 1.463 . S
C2106 N2110 1.427 . S
C2107 H2097 0.929 . S
C2107 C2105 1.433 . S
C2107 N2110 1.384 . S
C2108 H2099 0.929 . S
C2108 C2100 1.378 . S
C2108 C2103 1.350 . S
C2109 H2096 0.929 . S
C2109 C2101 1.433 . S
C2109 N2111 1.384 . S
N2110 C2106 1.427 . S
N2110 C2107 1.384 . S
N2111 C2103 1.427 . S
N2111 C2109 1.384 . S
H2112 C2118 0.930 . S
H2113 C2122 0.930 . S
H2114 C2127 0.929 . S
H2115 C2125 0.929 . S
H2116 C2120 0.929 . S
H2117 C2126 0.929 . S
C2118 H2112 0.930 . S
C2118 C2119 1.367 . S
C2118 C2126 1.378 . S
C2119 C2118 1.367 . S
C2119 C2127 1.433 . S
C2120 H2116 0.929 . S
C2120 C2122 1.378 . S
C2120 C2124 1.350 . S
C2121 C2124 1.463 . S
C2121 C2126 1.350 . S
C2121 N2129 1.427 . S
C2122 H2113 0.930 . S
C2122 C2120 1.378 . S
C2122 C2123 1.367 . S
C2123 C2122 1.367 . S
C2123 C2125 1.433 . S
C2124 C2120 1.350 . S
C2124 C2121 1.463 . S
C2124 N2128 1.427 . S
C2125 H2115 0.929 . S
C2125 C2123 1.433 . S
C2125 N2128 1.384 . S
C2126 H2117 0.929 . S
C2126 C2118 1.378 . S
C2126 C2121 1.350 . S
C2127 H2114 0.929 . S
C2127 C2119 1.433 . S
C2127 N2129 1.384 . S
N2128 C2124 1.427 . S
N2128 C2125 1.384 . S
N2129 C2121 1.427 . S
N2129 C2127 1.384 . S
H2130 C2136 0.930 . S
H2131 C2140 0.930 . S
H2132 C2145 0.929 . S
H2133 C2143 0.929 . S
H2134 C2138 0.929 . S
H2135 C2144 0.929 . S
C2136 H2130 0.930 . S
C2136 C2137 1.367 . S
C2136 C2144 1.378 . S
C2137 C2136 1.367 . S
C2137 C2145 1.433 . S
C2138 H2134 0.929 . S
C2138 C2140 1.378 . S
C2138 C2142 1.350 . S
C2139 C2142 1.463 . S
C2139 C2144 1.350 . S
C2139 N2147 1.427 . S
C2140 H2131 0.930 . S
C2140 C2138 1.378 . S
C2140 C2141 1.367 . S
C2141 C2140 1.367 . S
C2141 C2143 1.433 . S
C2142 C2138 1.350 . S
C2142 C2139 1.463 . S
C2142 N2146 1.427 . S
C2143 H2133 0.929 . S
C2143 C2141 1.433 . S
C2143 N2146 1.384 . S
C2144 H2135 0.929 . S
C2144 C2136 1.378 . S
C2144 C2139 1.350 . S
C2145 H2132 0.929 . S
C2145 C2137 1.433 . S
C2145 N2147 1.384 . S
N2146 C2142 1.427 . S
N2146 C2143 1.384 . S
N2147 C2139 1.427 . S
N2147 C2145 1.384 . S
H2148 C2154 0.930 . S
H2149 C2158 0.930 . S
H2150 C2163 0.929 . S
H2151 C2161 0.929 . S
H2152 C2156 0.929 . S
H2153 C2162 0.929 . S
C2154 H2148 0.930 . S
C2154 C2155 1.367 . S
C2154 C2162 1.378 . S
C2155 C2154 1.367 . S
C2155 C2163 1.433 . S
C2156 H2152 0.929 . S
C2156 C2158 1.378 . S
C2156 C2160 1.350 . S
C2157 C2160 1.463 . S
C2157 C2162 1.350 . S
C2157 N2165 1.427 . S
C2158 H2149 0.930 . S
C2158 C2156 1.378 . S
C2158 C2159 1.367 . S
C2159 C2158 1.367 . S
C2159 C2161 1.433 . S
C2160 C2156 1.350 . S
C2160 C2157 1.463 . S
C2160 N2164 1.427 . S
C2161 H2151 0.929 . S
C2161 C2159 1.433 . S
C2161 N2164 1.384 . S
C2162 H2153 0.929 . S
C2162 C2154 1.378 . S
C2162 C2157 1.350 . S
C2163 H2150 0.929 . S
C2163 C2155 1.433 . S
C2163 N2165 1.384 . S
N2164 C2160 1.427 . S
N2164 C2161 1.384 . S
N2165 C2157 1.427 . S
N2165 C2163 1.384 . S
H2166 C2172 0.930 . S
H2167 C2176 0.930 . S
H2168 C2181 0.929 . S
H2169 C2179 0.929 . S
H2170 C2174 0.929 . S
H2171 C2180 0.929 . S
C2172 H2166 0.930 . S
C2172 C2173 1.367 . S
C2172 C2180 1.378 . S
C2173 C2172 1.367 . S
C2173 C2181 1.433 . S
C2174 H2170 0.929 . S
C2174 C2176 1.378 . S
C2174 C2178 1.350 . S
C2175 C2178 1.463 . S
C2175 C2180 1.350 . S
C2175 N2183 1.427 . S
C2176 H2167 0.930 . S
C2176 C2174 1.378 . S
C2176 C2177 1.367 . S
C2177 C2176 1.367 . S
C2177 C2179 1.433 . S
C2178 C2174 1.350 . S
C2178 C2175 1.463 . S
C2178 N2182 1.427 . S
C2179 H2169 0.929 . S
C2179 C2177 1.433 . S
C2179 N2182 1.384 . S
C2180 H2171 0.929 . S
C2180 C2172 1.378 . S
C2180 C2175 1.350 . S
C2181 H2168 0.929 . S
C2181 C2173 1.433 . S
C2181 N2183 1.384 . S
N2182 C2178 1.427 . S
N2182 C2179 1.384 . S
N2183 C2175 1.427 . S
N2183 C2181 1.384 . S
H2184 C2190 0.930 . S
H2185 C2194 0.930 . S
H2186 C2199 0.929 . S
H2187 C2197 0.929 . S
H2188 C2192 0.929 . S
H2189 C2198 0.929 . S
C2190 H2184 0.930 . S
C2190 C2191 1.367 . S
C2190 C2198 1.378 . S
C2191 C2190 1.367 . S
C2191 C2199 1.433 . S
C2192 H2188 0.929 . S
C2192 C2194 1.378 . S
C2192 C2196 1.350 . S
C2193 C2196 1.463 . S
C2193 C2198 1.350 . S
C2193 N2201 1.427 . S
C2194 H2185 0.930 . S
C2194 C2192 1.378 . S
C2194 C2195 1.367 . S
C2195 C2194 1.367 . S
C2195 C2197 1.433 . S
C2196 C2192 1.350 . S
C2196 C2193 1.463 . S
C2196 N2200 1.427 . S
C2197 H2187 0.929 . S
C2197 C2195 1.433 . S
C2197 N2200 1.384 . S
C2198 H2189 0.929 . S
C2198 C2190 1.378 . S
C2198 C2193 1.350 . S
C2199 H2186 0.929 . S
C2199 C2191 1.433 . S
C2199 N2201 1.384 . S
N2200 C2196 1.427 . S
N2200 C2197 1.384 . S
N2201 C2193 1.427 . S
N2201 C2199 1.384 . S
H2202 C2208 0.930 . S
H2203 C2212 0.930 . S
H2204 C2217 0.929 . S
H2205 C2215 0.929 . S
H2206 C2210 0.929 . S
H2207 C2216 0.929 . S
C2208 H2202 0.930 . S
C2208 C2209 1.367 . S
C2208 C2216 1.378 . S
C2209 C2208 1.367 . S
C2209 C2217 1.433 . S
C2210 H2206 0.929 . S
C2210 C2212 1.378 . S
C2210 C2214 1.350 . S
C2211 C2214 1.463 . S
C2211 C2216 1.350 . S
C2211 N2219 1.427 . S
C2212 H2203 0.930 . S
C2212 C2210 1.378 . S
C2212 C2213 1.367 . S
C2213 C2212 1.367 . S
C2213 C2215 1.433 . S
C2214 C2210 1.350 . S
C2214 C2211 1.463 . S
C2214 N2218 1.427 . S
C2215 H2205 0.929 . S
C2215 C2213 1.433 . S
C2215 N2218 1.384 . S
C2216 H2207 0.929 . S
C2216 C2208 1.378 . S
C2216 C2211 1.350 . S
C2217 H2204 0.929 . S
C2217 C2209 1.433 . S
C2217 N2219 1.384 . S
N2218 C2214 1.427 . S
N2218 C2215 1.384 . S
N2219 C2211 1.427 . S
N2219 C2217 1.384 . S
H2220 C2226 0.930 . S
H2221 C2230 0.930 . S
H2222 C2235 0.929 . S
H2223 C2233 0.929 . S
H2224 C2228 0.929 . S
H2225 C2234 0.929 . S
C2226 H2220 0.930 . S
C2226 C2227 1.367 . S
C2226 C2234 1.378 . S
C2227 C2226 1.367 . S
C2227 C2235 1.433 . S
C2228 H2224 0.929 . S
C2228 C2230 1.378 . S
C2228 C2232 1.350 . S
C2229 C2232 1.463 . S
C2229 C2234 1.350 . S
C2229 N2237 1.427 . S
C2230 H2221 0.930 . S
C2230 C2228 1.378 . S
C2230 C2231 1.367 . S
C2231 C2230 1.367 . S
C2231 C2233 1.433 . S
C2232 C2228 1.350 . S
C2232 C2229 1.463 . S
C2232 N2236 1.427 . S
C2233 H2223 0.929 . S
C2233 C2231 1.433 . S
C2233 N2236 1.384 . S
C2234 H2225 0.929 . S
C2234 C2226 1.378 . S
C2234 C2229 1.350 . S
C2235 H2222 0.929 . S
C2235 C2227 1.433 . S
C2235 N2237 1.384 . S
N2236 C2232 1.427 . S
N2236 C2233 1.384 . S
N2237 C2229 1.427 . S
N2237 C2235 1.384 . S
H2238 C2244 0.930 . S
H2239 C2248 0.930 . S
H2240 C2253 0.929 . S
H2241 C2251 0.929 . S
H2242 C2246 0.929 . S
H2243 C2252 0.929 . S
C2244 H2238 0.930 . S
C2244 C2245 1.367 . S
C2244 C2252 1.378 . S
C2245 C2244 1.367 . S
C2245 C2253 1.433 . S
C2246 H2242 0.929 . S
C2246 C2248 1.378 . S
C2246 C2250 1.350 . S
C2247 C2250 1.463 . S
C2247 C2252 1.350 . S
C2247 N2255 1.427 . S
C2248 H2239 0.930 . S
C2248 C2246 1.378 . S
C2248 C2249 1.367 . S
C2249 C2248 1.367 . S
C2249 C2251 1.433 . S
C2250 C2246 1.350 . S
C2250 C2247 1.463 . S
C2250 N2254 1.427 . S
C2251 H2241 0.929 . S
C2251 C2249 1.433 . S
C2251 N2254 1.384 . S
C2252 H2243 0.929 . S
C2252 C2244 1.378 . S
C2252 C2247 1.350 . S
C2253 H2240 0.929 . S
C2253 C2245 1.433 . S
C2253 N2255 1.384 . S
N2254 C2250 1.427 . S
N2254 C2251 1.384 . S
N2255 C2247 1.427 . S
N2255 C2253 1.384 . S
H2256 C2262 0.930 . S
H2257 C2266 0.930 . S
H2258 C2271 0.929 . S
H2259 C2269 0.929 . S
H2260 C2264 0.929 . S
H2261 C2270 0.929 . S
C2262 H2256 0.930 . S
C2262 C2263 1.367 . S
C2262 C2270 1.378 . S
C2263 C2262 1.367 . S
C2263 C2271 1.433 . S
C2264 H2260 0.929 . S
C2264 C2266 1.378 . S
C2264 C2268 1.350 . S
C2265 C2268 1.463 . S
C2265 C2270 1.350 . S
C2265 N2273 1.427 . S
C2266 H2257 0.930 . S
C2266 C2264 1.378 . S
C2266 C2267 1.367 . S
C2267 C2266 1.367 . S
C2267 C2269 1.433 . S
C2268 C2264 1.350 . S
C2268 C2265 1.463 . S
C2268 N2272 1.427 . S
C2269 H2259 0.929 . S
C2269 C2267 1.433 . S
C2269 N2272 1.384 . S
C2270 H2261 0.929 . S
C2270 C2262 1.378 . S
C2270 C2265 1.350 . S
C2271 H2258 0.929 . S
C2271 C2263 1.433 . S
C2271 N2273 1.384 . S
N2272 C2268 1.427 . S
N2272 C2269 1.384 . S
N2273 C2265 1.427 . S
N2273 C2271 1.384 . S
H2274 C2280 0.930 . S
H2275 C2284 0.930 . S
H2276 C2289 0.929 . S
H2277 C2287 0.929 . S
H2278 C2282 0.929 . S
H2279 C2288 0.929 . S
C2280 H2274 0.930 . S
C2280 C2281 1.367 . S
C2280 C2288 1.378 . S
C2281 C2280 1.367 . S
C2281 C2289 1.433 . S
C2282 H2278 0.929 . S
C2282 C2284 1.378 . S
C2282 C2286 1.350 . S
C2283 C2286 1.463 . S
C2283 C2288 1.350 . S
C2283 N2291 1.427 . S
C2284 H2275 0.930 . S
C2284 C2282 1.378 . S
C2284 C2285 1.367 . S
C2285 C2284 1.367 . S
C2285 C2287 1.433 . S
C2286 C2282 1.350 . S
C2286 C2283 1.463 . S
C2286 N2290 1.427 . S
C2287 H2277 0.929 . S
C2287 C2285 1.433 . S
C2287 N2290 1.384 . S
C2288 H2279 0.929 . S
C2288 C2280 1.378 . S
C2288 C2283 1.350 . S
C2289 H2276 0.929 . S
C2289 C2281 1.433 . S
C2289 N2291 1.384 . S
N2290 C2286 1.427 . S
N2290 C2287 1.384 . S
N2291 C2283 1.427 . S
N2291 C2289 1.384 . S
H2292 C2298 0.930 . S
H2293 C2302 0.930 . S
H2294 C2307 0.929 . S
H2295 C2305 0.929 . S
H2296 C2300 0.929 . S
H2297 C2306 0.929 . S
C2298 H2292 0.930 . S
C2298 C2299 1.367 . S
C2298 C2306 1.378 . S
C2299 C2298 1.367 . S
C2299 C2307 1.433 . S
C2300 H2296 0.929 . S
C2300 C2302 1.378 . S
C2300 C2304 1.350 . S
C2301 C2304 1.463 . S
C2301 C2306 1.350 . S
C2301 N2309 1.427 . S
C2302 H2293 0.930 . S
C2302 C2300 1.378 . S
C2302 C2303 1.367 . S
C2303 C2302 1.367 . S
C2303 C2305 1.433 . S
C2304 C2300 1.350 . S
C2304 C2301 1.463 . S
C2304 N2308 1.427 . S
C2305 H2295 0.929 . S
C2305 C2303 1.433 . S
C2305 N2308 1.384 . S
C2306 H2297 0.929 . S
C2306 C2298 1.378 . S
C2306 C2301 1.350 . S
C2307 H2294 0.929 . S
C2307 C2299 1.433 . S
C2307 N2309 1.384 . S
N2308 C2304 1.427 . S
N2308 C2305 1.384 . S
N2309 C2301 1.427 . S
N2309 C2307 1.384 . S
H2310 C2316 0.930 . S
H2311 C2320 0.930 . S
H2312 C2325 0.929 . S
H2313 C2323 0.929 . S
H2314 C2318 0.929 . S
H2315 C2324 0.929 . S
C2316 H2310 0.930 . S
C2316 C2317 1.367 . S
C2316 C2324 1.378 . S
C2317 C2316 1.367 . S
C2317 C2325 1.433 . S
C2318 H2314 0.929 . S
C2318 C2320 1.378 . S
C2318 C2322 1.350 . S
C2319 C2322 1.463 . S
C2319 C2324 1.350 . S
C2319 N2327 1.427 . S
C2320 H2311 0.930 . S
C2320 C2318 1.378 . S
C2320 C2321 1.367 . S
C2321 C2320 1.367 . S
C2321 C2323 1.433 . S
C2322 C2318 1.350 . S
C2322 C2319 1.463 . S
C2322 N2326 1.427 . S
C2323 H2313 0.929 . S
C2323 C2321 1.433 . S
C2323 N2326 1.384 . S
C2324 H2315 0.929 . S
C2324 C2316 1.378 . S
C2324 C2319 1.350 . S
C2325 H2312 0.929 . S
C2325 C2317 1.433 . S
C2325 N2327 1.384 . S
N2326 C2322 1.427 . S
N2326 C2323 1.384 . S
N2327 C2319 1.427 . S
N2327 C2325 1.384 . S
H2328 C2334 0.930 . S
H2329 C2338 0.930 . S
H2330 C2343 0.929 . S
H2331 C2341 0.929 . S
H2332 C2336 0.929 . S
H2333 C2342 0.929 . S
C2334 H2328 0.930 . S
C2334 C2335 1.367 . S
C2334 C2342 1.378 . S
C2335 C2334 1.367 . S
C2335 C2343 1.433 . S
C2336 H2332 0.929 . S
C2336 C2338 1.378 . S
C2336 C2340 1.350 . S
C2337 C2340 1.463 . S
C2337 C2342 1.350 . S
C2337 N2345 1.427 . S
C2338 H2329 0.930 . S
C2338 C2336 1.378 . S
C2338 C2339 1.367 . S
C2339 C2338 1.367 . S
C2339 C2341 1.433 . S
C2340 C2336 1.350 . S
C2340 C2337 1.463 . S
C2340 N2344 1.427 . S
C2341 H2331 0.929 . S
C2341 C2339 1.433 . S
C2341 N2344 1.384 . S
C2342 H2333 0.929 . S
C2342 C2334 1.378 . S
C2342 C2337 1.350 . S
C2343 H2330 0.929 . S
C2343 C2335 1.433 . S
C2343 N2345 1.384 . S
N2344 C2340 1.427 . S
N2344 C2341 1.384 . S
N2345 C2337 1.427 . S
N2345 C2343 1.384 . S
H2346 C2352 0.930 . S
H2347 C2356 0.930 . S
H2348 C2361 0.929 . S
H2349 C2359 0.929 . S
H2350 C2354 0.929 . S
H2351 C2360 0.929 . S
C2352 H2346 0.930 . S
C2352 C2353 1.367 . S
C2352 C2360 1.378 . S
C2353 C2352 1.367 . S
C2353 C2361 1.433 . S
C2354 H2350 0.929 . S
C2354 C2356 1.378 . S
C2354 C2358 1.350 . S
C2355 C2358 1.463 . S
C2355 C2360 1.350 . S
C2355 N2363 1.427 . S
C2356 H2347 0.930 . S
C2356 C2354 1.378 . S
C2356 C2357 1.367 . S
C2357 C2356 1.367 . S
C2357 C2359 1.433 . S
C2358 C2354 1.350 . S
C2358 C2355 1.463 . S
C2358 N2362 1.427 . S
C2359 H2349 0.929 . S
C2359 C2357 1.433 . S
C2359 N2362 1.384 . S
C2360 H2351 0.929 . S
C2360 C2352 1.378 . S
C2360 C2355 1.350 . S
C2361 H2348 0.929 . S
C2361 C2353 1.433 . S
C2361 N2363 1.384 . S
N2362 C2358 1.427 . S
N2362 C2359 1.384 . S
N2363 C2355 1.427 . S
N2363 C2361 1.384 . S
H2364 C2370 0.930 . S
H2365 C2374 0.930 . S
H2366 C2379 0.929 . S
H2367 C2377 0.929 . S
H2368 C2372 0.929 . S
H2369 C2378 0.929 . S
C2370 H2364 0.930 . S
C2370 C2371 1.367 . S
C2370 C2378 1.378 . S
C2371 C2370 1.367 . S
C2371 C2379 1.433 . S
C2372 H2368 0.929 . S
C2372 C2374 1.378 . S
C2372 C2376 1.350 . S
C2373 C2376 1.463 . S
C2373 C2378 1.350 . S
C2373 N2381 1.427 . S
C2374 H2365 0.930 . S
C2374 C2372 1.378 . S
C2374 C2375 1.367 . S
C2375 C2374 1.367 . S
C2375 C2377 1.433 . S
C2376 C2372 1.350 . S
C2376 C2373 1.463 . S
C2376 N2380 1.427 . S
C2377 H2367 0.929 . S
C2377 C2375 1.433 . S
C2377 N2380 1.384 . S
C2378 H2369 0.929 . S
C2378 C2370 1.378 . S
C2378 C2373 1.350 . S
C2379 H2366 0.929 . S
C2379 C2371 1.433 . S
C2379 N2381 1.384 . S
N2380 C2376 1.427 . S
N2380 C2377 1.384 . S
N2381 C2373 1.427 . S
N2381 C2379 1.384 . S
H2382 C2388 0.930 . S
H2383 C2392 0.930 . S
H2384 C2397 0.929 . S
H2385 C2395 0.929 . S
H2386 C2390 0.929 . S
H2387 C2396 0.929 . S
C2388 H2382 0.930 . S
C2388 C2389 1.367 . S
C2388 C2396 1.378 . S
C2389 C2388 1.367 . S
C2389 C2397 1.433 . S
C2390 H2386 0.929 . S
C2390 C2392 1.378 . S
C2390 C2394 1.350 . S
C2391 C2394 1.463 . S
C2391 C2396 1.350 . S
C2391 N2399 1.427 . S
C2392 H2383 0.930 . S
C2392 C2390 1.378 . S
C2392 C2393 1.367 . S
C2393 C2392 1.367 . S
C2393 C2395 1.433 . S
C2394 C2390 1.350 . S
C2394 C2391 1.463 . S
C2394 N2398 1.427 . S
C2395 H2385 0.929 . S
C2395 C2393 1.433 . S
C2395 N2398 1.384 . S
C2396 H2387 0.929 . S
C2396 C2388 1.378 . S
C2396 C2391 1.350 . S
C2397 H2384 0.929 . S
C2397 C2389 1.433 . S
C2397 N2399 1.384 . S
N2398 C2394 1.427 . S
N2398 C2395 1.384 . S
N2399 C2391 1.427 . S
N2399 C2397 1.384 . S
H2400 C2406 0.930 . S
H2401 C2410 0.930 . S
H2402 C2415 0.929 . S
H2403 C2413 0.929 . S
H2404 C2408 0.929 . S
H2405 C2414 0.929 . S
C2406 H2400 0.930 . S
C2406 C2407 1.367 . S
C2406 C2414 1.378 . S
C2407 C2406 1.367 . S
C2407 C2415 1.433 . S
C2408 H2404 0.929 . S
C2408 C2410 1.378 . S
C2408 C2412 1.350 . S
C2409 C2412 1.463 . S
C2409 C2414 1.350 . S
C2409 N2417 1.427 . S
C2410 H2401 0.930 . S
C2410 C2408 1.378 . S
C2410 C2411 1.367 . S
C2411 C2410 1.367 . S
C2411 C2413 1.433 . S
C2412 C2408 1.350 . S
C2412 C2409 1.463 . S
C2412 N2416 1.427 . S
C2413 H2403 0.929 . S
C2413 C2411 1.433 . S
C2413 N2416 1.384 . S
C2414 H2405 0.929 . S
C2414 C2406 1.378 . S
C2414 C2409 1.350 . S
C2415 H2402 0.929 . S
C2415 C2407 1.433 . S
C2415 N2417 1.384 . S
N2416 C2412 1.427 . S
N2416 C2413 1.384 . S
N2417 C2409 1.427 . S
N2417 C2415 1.384 . S
H2418 C2424 0.930 . S
H2419 C2428 0.930 . S
H2420 C2433 0.929 . S
H2421 C2431 0.929 . S
H2422 C2426 0.929 . S
H2423 C2432 0.929 . S
C2424 H2418 0.930 . S
C2424 C2425 1.367 . S
C2424 C2432 1.378 . S
C2425 C2424 1.367 . S
C2425 C2433 1.433 . S
C2426 H2422 0.929 . S
C2426 C2428 1.378 . S
C2426 C2430 1.350 . S
C2427 C2430 1.463 . S
C2427 C2432 1.350 . S
C2427 N2435 1.427 . S
C2428 H2419 0.930 . S
C2428 C2426 1.378 . S
C2428 C2429 1.367 . S
C2429 C2428 1.367 . S
C2429 C2431 1.433 . S
C2430 C2426 1.350 . S
C2430 C2427 1.463 . S
C2430 N2434 1.427 . S
C2431 H2421 0.929 . S
C2431 C2429 1.433 . S
C2431 N2434 1.384 . S
C2432 H2423 0.929 . S
C2432 C2424 1.378 . S
C2432 C2427 1.350 . S
C2433 H2420 0.929 . S
C2433 C2425 1.433 . S
C2433 N2435 1.384 . S
N2434 C2430 1.427 . S
N2434 C2431 1.384 . S
N2435 C2427 1.427 . S
N2435 C2433 1.384 . S
H2436 C2442 0.930 . S
H2437 C2446 0.930 . S
H2438 C2451 0.929 . S
H2439 C2449 0.929 . S
H2440 C2444 0.929 . S
H2441 C2450 0.929 . S
C2442 H2436 0.930 . S
C2442 C2443 1.367 . S
C2442 C2450 1.378 . S
C2443 C2442 1.367 . S
C2443 C2451 1.433 . S
C2444 H2440 0.929 . S
C2444 C2446 1.378 . S
C2444 C2448 1.350 . S
C2445 C2448 1.463 . S
C2445 C2450 1.350 . S
C2445 N2453 1.427 . S
C2446 H2437 0.930 . S
C2446 C2444 1.378 . S
C2446 C2447 1.367 . S
C2447 C2446 1.367 . S
C2447 C2449 1.433 . S
C2448 C2444 1.350 . S
C2448 C2445 1.463 . S
C2448 N2452 1.427 . S
C2449 H2439 0.929 . S
C2449 C2447 1.433 . S
C2449 N2452 1.384 . S
C2450 H2441 0.929 . S
C2450 C2442 1.378 . S
C2450 C2445 1.350 . S
C2451 H2438 0.929 . S
C2451 C2443 1.433 . S
C2451 N2453 1.384 . S
N2452 C2448 1.427 . S
N2452 C2449 1.384 . S
N2453 C2445 1.427 . S
N2453 C2451 1.384 . S
H2454 C2460 0.930 . S
H2455 C2464 0.930 . S
H2456 C2469 0.929 . S
H2457 C2467 0.929 . S
H2458 C2462 0.929 . S
H2459 C2468 0.929 . S
C2460 H2454 0.930 . S
C2460 C2461 1.367 . S
C2460 C2468 1.378 . S
C2461 C2460 1.367 . S
C2461 C2469 1.433 . S
C2462 H2458 0.929 . S
C2462 C2464 1.378 . S
C2462 C2466 1.350 . S
C2463 C2466 1.463 . S
C2463 C2468 1.350 . S
C2463 N2471 1.427 . S
C2464 H2455 0.930 . S
C2464 C2462 1.378 . S
C2464 C2465 1.367 . S
C2465 C2464 1.367 . S
C2465 C2467 1.433 . S
C2466 C2462 1.350 . S
C2466 C2463 1.463 . S
C2466 N2470 1.427 . S
C2467 H2457 0.929 . S
C2467 C2465 1.433 . S
C2467 N2470 1.384 . S
C2468 H2459 0.929 . S
C2468 C2460 1.378 . S
C2468 C2463 1.350 . S
C2469 H2456 0.929 . S
C2469 C2461 1.433 . S
C2469 N2471 1.384 . S
N2470 C2466 1.427 . S
N2470 C2467 1.384 . S
N2471 C2463 1.427 . S
N2471 C2469 1.384 . S
H2472 C2478 0.930 . S
H2473 C2482 0.930 . S
H2474 C2487 0.929 . S
H2475 C2485 0.929 . S
H2476 C2480 0.929 . S
H2477 C2486 0.929 . S
C2478 H2472 0.930 . S
C2478 C2479 1.367 . S
C2478 C2486 1.378 . S
C2479 C2478 1.367 . S
C2479 C2487 1.433 . S
C2480 H2476 0.929 . S
C2480 C2482 1.378 . S
C2480 C2484 1.350 . S
C2481 C2484 1.463 . S
C2481 C2486 1.350 . S
C2481 N2489 1.427 . S
C2482 H2473 0.930 . S
C2482 C2480 1.378 . S
C2482 C2483 1.367 . S
C2483 C2482 1.367 . S
C2483 C2485 1.433 . S
C2484 C2480 1.350 . S
C2484 C2481 1.463 . S
C2484 N2488 1.427 . S
C2485 H2475 0.929 . S
C2485 C2483 1.433 . S
C2485 N2488 1.384 . S
C2486 H2477 0.929 . S
C2486 C2478 1.378 . S
C2486 C2481 1.350 . S
C2487 H2474 0.929 . S
C2487 C2479 1.433 . S
C2487 N2489 1.384 . S
N2488 C2484 1.427 . S
N2488 C2485 1.384 . S
N2489 C2481 1.427 . S
N2489 C2487 1.384 . S
H2490 C2496 0.930 . S
H2491 C2500 0.930 . S
H2492 C2505 0.929 . S
H2493 C2503 0.929 . S
H2494 C2498 0.929 . S
H2495 C2504 0.929 . S
C2496 H2490 0.930 . S
C2496 C2497 1.367 . S
C2496 C2504 1.378 . S
C2497 C2496 1.367 . S
C2497 C2505 1.433 . S
C2498 H2494 0.929 . S
C2498 C2500 1.378 . S
C2498 C2502 1.350 . S
C2499 C2502 1.463 . S
C2499 C2504 1.350 . S
C2499 N2507 1.427 . S
C2500 H2491 0.930 . S
C2500 C2498 1.378 . S
C2500 C2501 1.367 . S
C2501 C2500 1.367 . S
C2501 C2503 1.433 . S
C2502 C2498 1.350 . S
C2502 C2499 1.463 . S
C2502 N2506 1.427 . S
C2503 H2493 0.929 . S
C2503 C2501 1.433 . S
C2503 N2506 1.384 . S
C2504 H2495 0.929 . S
C2504 C2496 1.378 . S
C2504 C2499 1.350 . S
C2505 H2492 0.929 . S
C2505 C2497 1.433 . S
C2505 N2507 1.384 . S
N2506 C2502 1.427 . S
N2506 C2503 1.384 . S
N2507 C2499 1.427 . S
N2507 C2505 1.384 . S
H2508 C2514 0.930 . S
H2509 C2518 0.930 . S
H2510 C2523 0.929 . S
H2511 C2521 0.929 . S
H2512 C2516 0.929 . S
H2513 C2522 0.929 . S
C2514 H2508 0.930 . S
C2514 C2515 1.367 . S
C2514 C2522 1.378 . S
C2515 C2514 1.367 . S
C2515 C2523 1.433 . S
C2516 H2512 0.929 . S
C2516 C2518 1.378 . S
C2516 C2520 1.350 . S
C2517 C2520 1.463 . S
C2517 C2522 1.350 . S
C2517 N2525 1.427 . S
C2518 H2509 0.930 . S
C2518 C2516 1.378 . S
C2518 C2519 1.367 . S
C2519 C2518 1.367 . S
C2519 C2521 1.433 . S
C2520 C2516 1.350 . S
C2520 C2517 1.463 . S
C2520 N2524 1.427 . S
C2521 H2511 0.929 . S
C2521 C2519 1.433 . S
C2521 N2524 1.384 . S
C2522 H2513 0.929 . S
C2522 C2514 1.378 . S
C2522 C2517 1.350 . S
C2523 H2510 0.929 . S
C2523 C2515 1.433 . S
C2523 N2525 1.384 . S
N2524 C2520 1.427 . S
N2524 C2521 1.384 . S
N2525 C2517 1.427 . S
N2525 C2523 1.384 . S
H2526 C2532 0.930 . S
H2527 C2536 0.930 . S
H2528 C2541 0.929 . S
H2529 C2539 0.929 . S
H2530 C2534 0.929 . S
H2531 C2540 0.929 . S
C2532 H2526 0.930 . S
C2532 C2533 1.367 . S
C2532 C2540 1.378 . S
C2533 C2532 1.367 . S
C2533 C2541 1.433 . S
C2534 H2530 0.929 . S
C2534 C2536 1.378 . S
C2534 C2538 1.350 . S
C2535 C2538 1.463 . S
C2535 C2540 1.350 . S
C2535 N2543 1.427 . S
C2536 H2527 0.930 . S
C2536 C2534 1.378 . S
C2536 C2537 1.367 . S
C2537 C2536 1.367 . S
C2537 C2539 1.433 . S
C2538 C2534 1.350 . S
C2538 C2535 1.463 . S
C2538 N2542 1.427 . S
C2539 H2529 0.929 . S
C2539 C2537 1.433 . S
C2539 N2542 1.384 . S
C2540 H2531 0.929 . S
C2540 C2532 1.378 . S
C2540 C2535 1.350 . S
C2541 H2528 0.929 . S
C2541 C2533 1.433 . S
C2541 N2543 1.384 . S
N2542 C2538 1.427 . S
N2542 C2539 1.384 . S
N2543 C2535 1.427 . S
N2543 C2541 1.384 . S
H2544 C2550 0.930 . S
H2545 C2554 0.930 . S
H2546 C2559 0.929 . S
H2547 C2557 0.929 . S
H2548 C2552 0.929 . S
H2549 C2558 0.929 . S
C2550 H2544 0.930 . S
C2550 C2551 1.367 . S
C2550 C2558 1.378 . S
C2551 C2550 1.367 . S
C2551 C2559 1.433 . S
C2552 H2548 0.929 . S
C2552 C2554 1.378 . S
C2552 C2556 1.350 . S
C2553 C2556 1.463 . S
C2553 C2558 1.350 . S
C2553 N2561 1.427 . S
C2554 H2545 0.930 . S
C2554 C2552 1.378 . S
C2554 C2555 1.367 . S
C2555 C2554 1.367 . S
C2555 C2557 1.433 . S
C2556 C2552 1.350 . S
C2556 C2553 1.463 . S
C2556 N2560 1.427 . S
C2557 H2547 0.929 . S
C2557 C2555 1.433 . S
C2557 N2560 1.384 . S
C2558 H2549 0.929 . S
C2558 C2550 1.378 . S
C2558 C2553 1.350 . S
C2559 H2546 0.929 . S
C2559 C2551 1.433 . S
C2559 N2561 1.384 . S
N2560 C2556 1.427 . S
N2560 C2557 1.384 . S
N2561 C2553 1.427 . S
N2561 C2559 1.384 . S
H2562 C2568 0.930 . S
H2563 C2572 0.930 . S
H2564 C2577 0.929 . S
H2565 C2575 0.929 . S
H2566 C2570 0.929 . S
H2567 C2576 0.929 . S
C2568 H2562 0.930 . S
C2568 C2569 1.367 . S
C2568 C2576 1.378 . S
C2569 C2568 1.367 . S
C2569 C2577 1.433 . S
C2570 H2566 0.929 . S
C2570 C2572 1.378 . S
C2570 C2574 1.350 . S
C2571 C2574 1.463 . S
C2571 C2576 1.350 . S
C2571 N2579 1.427 . S
C2572 H2563 0.930 . S
C2572 C2570 1.378 . S
C2572 C2573 1.367 . S
C2573 C2572 1.367 . S
C2573 C2575 1.433 . S
C2574 C2570 1.350 . S
C2574 C2571 1.463 . S
C2574 N2578 1.427 . S
C2575 H2565 0.929 . S
C2575 C2573 1.433 . S
C2575 N2578 1.384 . S
C2576 H2567 0.929 . S
C2576 C2568 1.378 . S
C2576 C2571 1.350 . S
C2577 H2564 0.929 . S
C2577 C2569 1.433 . S
C2577 N2579 1.384 . S
N2578 C2574 1.427 . S
N2578 C2575 1.384 . S
N2579 C2571 1.427 . S
N2579 C2577 1.384 . S
H2580 C2586 0.930 . S
H2581 C2590 0.930 . S
H2582 C2595 0.929 . S
H2583 C2593 0.929 . S
H2584 C2588 0.929 . S
H2585 C2594 0.929 . S
C2586 H2580 0.930 . S
C2586 C2587 1.367 . S
C2586 C2594 1.378 . S
C2587 C2586 1.367 . S
C2587 C2595 1.433 . S
C2588 H2584 0.929 . S
C2588 C2590 1.378 . S
C2588 C2592 1.350 . S
C2589 C2592 1.463 . S
C2589 C2594 1.350 . S
C2589 N2597 1.427 . S
C2590 H2581 0.930 . S
C2590 C2588 1.378 . S
C2590 C2591 1.367 . S
C2591 C2590 1.367 . S
C2591 C2593 1.433 . S
C2592 C2588 1.350 . S
C2592 C2589 1.463 . S
C2592 N2596 1.427 . S
C2593 H2583 0.929 . S
C2593 C2591 1.433 . S
C2593 N2596 1.384 . S
C2594 H2585 0.929 . S
C2594 C2586 1.378 . S
C2594 C2589 1.350 . S
C2595 H2582 0.929 . S
C2595 C2587 1.433 . S
C2595 N2597 1.384 . S
N2596 C2592 1.427 . S
N2596 C2593 1.384 . S
N2597 C2589 1.427 . S
N2597 C2595 1.384 . S
H2598 C2604 0.930 . S
H2599 C2608 0.930 . S
H2600 C2613 0.929 . S
H2601 C2611 0.929 . S
H2602 C2606 0.929 . S
H2603 C2612 0.929 . S
C2604 H2598 0.930 . S
C2604 C2605 1.367 . S
C2604 C2612 1.378 . S
C2605 C2604 1.367 . S
C2605 C2613 1.433 . S
C2606 H2602 0.929 . S
C2606 C2608 1.378 . S
C2606 C2610 1.350 . S
C2607 C2610 1.463 . S
C2607 C2612 1.350 . S
C2607 N2615 1.427 . S
C2608 H2599 0.930 . S
C2608 C2606 1.378 . S
C2608 C2609 1.367 . S
C2609 C2608 1.367 . S
C2609 C2611 1.433 . S
C2610 C2606 1.350 . S
C2610 C2607 1.463 . S
C2610 N2614 1.427 . S
C2611 H2601 0.929 . S
C2611 C2609 1.433 . S
C2611 N2614 1.384 . S
C2612 H2603 0.929 . S
C2612 C2604 1.378 . S
C2612 C2607 1.350 . S
C2613 H2600 0.929 . S
C2613 C2605 1.433 . S
C2613 N2615 1.384 . S
N2614 C2610 1.427 . S
N2614 C2611 1.384 . S
N2615 C2607 1.427 . S
N2615 C2613 1.384 . S
H2616 C2622 0.930 . S
H2617 C2626 0.930 . S
H2618 C2631 0.929 . S
H2619 C2629 0.929 . S
H2620 C2624 0.929 . S
H2621 C2630 0.929 . S
C2622 H2616 0.930 . S
C2622 C2623 1.367 . S
C2622 C2630 1.378 . S
C2623 C2622 1.367 . S
C2623 C2631 1.433 . S
C2624 H2620 0.929 . S
C2624 C2626 1.378 . S
C2624 C2628 1.350 . S
C2625 C2628 1.463 . S
C2625 C2630 1.350 . S
C2625 N2633 1.427 . S
C2626 H2617 0.930 . S
C2626 C2624 1.378 . S
C2626 C2627 1.367 . S
C2627 C2626 1.367 . S
C2627 C2629 1.433 . S
C2628 C2624 1.350 . S
C2628 C2625 1.463 . S
C2628 N2632 1.427 . S
C2629 H2619 0.929 . S
C2629 C2627 1.433 . S
C2629 N2632 1.384 . S
C2630 H2621 0.929 . S
C2630 C2622 1.378 . S
C2630 C2625 1.350 . S
C2631 H2618 0.929 . S
C2631 C2623 1.433 . S
C2631 N2633 1.384 . S
N2632 C2628 1.427 . S
N2632 C2629 1.384 . S
N2633 C2625 1.427 . S
N2633 C2631 1.384 . S
H2634 C2640 0.930 . S
H2635 C2644 0.930 . S
H2636 C2649 0.929 . S
H2637 C2647 0.929 . S
H2638 C2642 0.929 . S
H2639 C2648 0.929 . S
C2640 H2634 0.930 . S
C2640 C2641 1.367 . S
C2640 C2648 1.378 . S
C2641 C2640 1.367 . S
C2641 C2649 1.433 . S
C2642 H2638 0.929 . S
C2642 C2644 1.378 . S
C2642 C2646 1.350 . S
C2643 C2646 1.463 . S
C2643 C2648 1.350 . S
C2643 N2651 1.427 . S
C2644 H2635 0.930 . S
C2644 C2642 1.378 . S
C2644 C2645 1.367 . S
C2645 C2644 1.367 . S
C2645 C2647 1.433 . S
C2646 C2642 1.350 . S
C2646 C2643 1.463 . S
C2646 N2650 1.427 . S
C2647 H2637 0.929 . S
C2647 C2645 1.433 . S
C2647 N2650 1.384 . S
C2648 H2639 0.929 . S
C2648 C2640 1.378 . S
C2648 C2643 1.350 . S
C2649 H2636 0.929 . S
C2649 C2641 1.433 . S
C2649 N2651 1.384 . S
N2650 C2646 1.427 . S
N2650 C2647 1.384 . S
N2651 C2643 1.427 . S
N2651 C2649 1.384 . S
H2652 C2658 0.930 . S
H2653 C2662 0.930 . S
H2654 C2667 0.929 . S
H2655 C2665 0.929 . S
H2656 C2660 0.929 . S
H2657 C2666 0.929 . S
C2658 H2652 0.930 . S
C2658 C2659 1.367 . S
C2658 C2666 1.378 . S
C2659 C2658 1.367 . S
C2659 C2667 1.433 . S
C2660 H2656 0.929 . S
C2660 C2662 1.378 . S
C2660 C2664 1.350 . S
C2661 C2664 1.463 . S
C2661 C2666 1.350 . S
C2661 N2669 1.427 . S
C2662 H2653 0.930 . S
C2662 C2660 1.378 . S
C2662 C2663 1.367 . S
C2663 C2662 1.367 . S
C2663 C2665 1.433 . S
C2664 C2660 1.350 . S
C2664 C2661 1.463 . S
C2664 N2668 1.427 . S
C2665 H2655 0.929 . S
C2665 C2663 1.433 . S
C2665 N2668 1.384 . S
C2666 H2657 0.929 . S
C2666 C2658 1.378 . S
C2666 C2661 1.350 . S
C2667 H2654 0.929 . S
C2667 C2659 1.433 . S
C2667 N2669 1.384 . S
N2668 C2664 1.427 . S
N2668 C2665 1.384 . S
N2669 C2661 1.427 . S
N2669 C2667 1.384 . S
H2670 C2676 0.930 . S
H2671 C2680 0.930 . S
H2672 C2685 0.929 . S
H2673 C2683 0.929 . S
H2674 C2678 0.929 . S
H2675 C2684 0.929 . S
C2676 H2670 0.930 . S
C2676 C2677 1.367 . S
C2676 C2684 1.378 . S
C2677 C2676 1.367 . S
C2677 C2685 1.433 . S
C2678 H2674 0.929 . S
C2678 C2680 1.378 . S
C2678 C2682 1.350 . S
C2679 C2682 1.463 . S
C2679 C2684 1.350 . S
C2679 N2687 1.427 . S
C2680 H2671 0.930 . S
C2680 C2678 1.378 . S
C2680 C2681 1.367 . S
C2681 C2680 1.367 . S
C2681 C2683 1.433 . S
C2682 C2678 1.350 . S
C2682 C2679 1.463 . S
C2682 N2686 1.427 . S
C2683 H2673 0.929 . S
C2683 C2681 1.433 . S
C2683 N2686 1.384 . S
C2684 H2675 0.929 . S
C2684 C2676 1.378 . S
C2684 C2679 1.350 . S
C2685 H2672 0.929 . S
C2685 C2677 1.433 . S
C2685 N2687 1.384 . S
N2686 C2682 1.427 . S
N2686 C2683 1.384 . S
N2687 C2679 1.427 . S
N2687 C2685 1.384 . S
H2688 C2694 0.930 . S
H2689 C2698 0.930 . S
H2690 C2703 0.929 . S
H2691 C2701 0.929 . S
H2692 C2696 0.929 . S
H2693 C2702 0.929 . S
C2694 H2688 0.930 . S
C2694 C2695 1.367 . S
C2694 C2702 1.378 . S
C2695 C2694 1.367 . S
C2695 C2703 1.433 . S
C2696 H2692 0.929 . S
C2696 C2698 1.378 . S
C2696 C2700 1.350 . S
C2697 C2700 1.463 . S
C2697 C2702 1.350 . S
C2697 N2705 1.427 . S
C2698 H2689 0.930 . S
C2698 C2696 1.378 . S
C2698 C2699 1.367 . S
C2699 C2698 1.367 . S
C2699 C2701 1.433 . S
C2700 C2696 1.350 . S
C2700 C2697 1.463 . S
C2700 N2704 1.427 . S
C2701 H2691 0.929 . S
C2701 C2699 1.433 . S
C2701 N2704 1.384 . S
C2702 H2693 0.929 . S
C2702 C2694 1.378 . S
C2702 C2697 1.350 . S
C2703 H2690 0.929 . S
C2703 C2695 1.433 . S
C2703 N2705 1.384 . S
N2704 C2700 1.427 . S
N2704 C2701 1.384 . S
N2705 C2697 1.427 . S
N2705 C2703 1.384 . S
H2706 C2712 0.930 . S
H2707 C2716 0.930 . S
H2708 C2721 0.929 . S
H2709 C2719 0.929 . S
H2710 C2714 0.929 . S
H2711 C2720 0.929 . S
C2712 H2706 0.930 . S
C2712 C2713 1.367 . S
C2712 C2720 1.378 . S
C2713 C2712 1.367 . S
C2713 C2721 1.433 . S
C2714 H2710 0.929 . S
C2714 C2716 1.378 . S
C2714 C2718 1.350 . S
C2715 C2718 1.463 . S
C2715 C2720 1.350 . S
C2715 N2723 1.427 . S
C2716 H2707 0.930 . S
C2716 C2714 1.378 . S
C2716 C2717 1.367 . S
C2717 C2716 1.367 . S
C2717 C2719 1.433 . S
C2718 C2714 1.350 . S
C2718 C2715 1.463 . S
C2718 N2722 1.427 . S
C2719 H2709 0.929 . S
C2719 C2717 1.433 . S
C2719 N2722 1.384 . S
C2720 H2711 0.929 . S
C2720 C2712 1.378 . S
C2720 C2715 1.350 . S
C2721 H2708 0.929 . S
C2721 C2713 1.433 . S
C2721 N2723 1.384 . S
N2722 C2718 1.427 . S
N2722 C2719 1.384 . S
N2723 C2715 1.427 . S
N2723 C2721 1.384 . S
H2724 C2730 0.930 . S
H2725 C2734 0.930 . S
H2726 C2739 0.929 . S
H2727 C2737 0.929 . S
H2728 C2732 0.929 . S
H2729 C2738 0.929 . S
C2730 H2724 0.930 . S
C2730 C2731 1.367 . S
C2730 C2738 1.378 . S
C2731 C2730 1.367 . S
C2731 C2739 1.433 . S
C2732 H2728 0.929 . S
C2732 C2734 1.378 . S
C2732 C2736 1.350 . S
C2733 C2736 1.463 . S
C2733 C2738 1.350 . S
C2733 N2741 1.427 . S
C2734 H2725 0.930 . S
C2734 C2732 1.378 . S
C2734 C2735 1.367 . S
C2735 C2734 1.367 . S
C2735 C2737 1.433 . S
C2736 C2732 1.350 . S
C2736 C2733 1.463 . S
C2736 N2740 1.427 . S
C2737 H2727 0.929 . S
C2737 C2735 1.433 . S
C2737 N2740 1.384 . S
C2738 H2729 0.929 . S
C2738 C2730 1.378 . S
C2738 C2733 1.350 . S
C2739 H2726 0.929 . S
C2739 C2731 1.433 . S
C2739 N2741 1.384 . S
N2740 C2736 1.427 . S
N2740 C2737 1.384 . S
N2741 C2733 1.427 . S
N2741 C2739 1.384 . S
H2742 C2748 0.930 . S
H2743 C2752 0.930 . S
H2744 C2757 0.929 . S
H2745 C2755 0.929 . S
H2746 C2750 0.929 . S
H2747 C2756 0.929 . S
C2748 H2742 0.930 . S
C2748 C2749 1.367 . S
C2748 C2756 1.378 . S
C2749 C2748 1.367 . S
C2749 C2757 1.433 . S
C2750 H2746 0.929 . S
C2750 C2752 1.378 . S
C2750 C2754 1.350 . S
C2751 C2754 1.463 . S
C2751 C2756 1.350 . S
C2751 N2759 1.427 . S
C2752 H2743 0.930 . S
C2752 C2750 1.378 . S
C2752 C2753 1.367 . S
C2753 C2752 1.367 . S
C2753 C2755 1.433 . S
C2754 C2750 1.350 . S
C2754 C2751 1.463 . S
C2754 N2758 1.427 . S
C2755 H2745 0.929 . S
C2755 C2753 1.433 . S
C2755 N2758 1.384 . S
C2756 H2747 0.929 . S
C2756 C2748 1.378 . S
C2756 C2751 1.350 . S
C2757 H2744 0.929 . S
C2757 C2749 1.433 . S
C2757 N2759 1.384 . S
N2758 C2754 1.427 . S
N2758 C2755 1.384 . S
N2759 C2751 1.427 . S
N2759 C2757 1.384 . S
H2760 C2766 0.930 . S
H2761 C2770 0.930 . S
H2762 C2775 0.929 . S
H2763 C2773 0.929 . S
H2764 C2768 0.929 . S
H2765 C2774 0.929 . S
C2766 H2760 0.930 . S
C2766 C2767 1.367 . S
C2766 C2774 1.378 . S
C2767 C2766 1.367 . S
C2767 C2775 1.433 . S
C2768 H2764 0.929 . S
C2768 C2770 1.378 . S
C2768 C2772 1.350 . S
C2769 C2772 1.463 . S
C2769 C2774 1.350 . S
C2769 N2777 1.427 . S
C2770 H2761 0.930 . S
C2770 C2768 1.378 . S
C2770 C2771 1.367 . S
C2771 C2770 1.367 . S
C2771 C2773 1.433 . S
C2772 C2768 1.350 . S
C2772 C2769 1.463 . S
C2772 N2776 1.427 . S
C2773 H2763 0.929 . S
C2773 C2771 1.433 . S
C2773 N2776 1.384 . S
C2774 H2765 0.929 . S
C2774 C2766 1.378 . S
C2774 C2769 1.350 . S
C2775 H2762 0.929 . S
C2775 C2767 1.433 . S
C2775 N2777 1.384 . S
N2776 C2772 1.427 . S
N2776 C2773 1.384 . S
N2777 C2769 1.427 . S
N2777 C2775 1.384 . S
H2778 C2784 0.930 . S
H2779 C2788 0.930 . S
H2780 C2793 0.929 . S
H2781 C2791 0.929 . S
H2782 C2786 0.929 . S
H2783 C2792 0.929 . S
C2784 H2778 0.930 . S
C2784 C2785 1.367 . S
C2784 C2792 1.378 . S
C2785 C2784 1.367 . S
C2785 C2793 1.433 . S
C2786 H2782 0.929 . S
C2786 C2788 1.378 . S
C2786 C2790 1.350 . S
C2787 C2790 1.463 . S
C2787 C2792 1.350 . S
C2787 N2795 1.427 . S
C2788 H2779 0.930 . S
C2788 C2786 1.378 . S
C2788 C2789 1.367 . S
C2789 C2788 1.367 . S
C2789 C2791 1.433 . S
C2790 C2786 1.350 . S
C2790 C2787 1.463 . S
C2790 N2794 1.427 . S
C2791 H2781 0.929 . S
C2791 C2789 1.433 . S
C2791 N2794 1.384 . S
C2792 H2783 0.929 . S
C2792 C2784 1.378 . S
C2792 C2787 1.350 . S
C2793 H2780 0.929 . S
C2793 C2785 1.433 . S
C2793 N2795 1.384 . S
N2794 C2790 1.427 . S
N2794 C2791 1.384 . S
N2795 C2787 1.427 . S
N2795 C2793 1.384 . S
H2796 C2802 0.930 . S
H2797 C2806 0.930 . S
H2798 C2811 0.929 . S
H2799 C2809 0.929 . S
H2800 C2804 0.929 . S
H2801 C2810 0.929 . S
C2802 H2796 0.930 . S
C2802 C2803 1.367 . S
C2802 C2810 1.378 . S
C2803 C2802 1.367 . S
C2803 C2811 1.433 . S
C2804 H2800 0.929 . S
C2804 C2806 1.378 . S
C2804 C2808 1.350 . S
C2805 C2808 1.463 . S
C2805 C2810 1.350 . S
C2805 N2813 1.427 . S
C2806 H2797 0.930 . S
C2806 C2804 1.378 . S
C2806 C2807 1.367 . S
C2807 C2806 1.367 . S
C2807 C2809 1.433 . S
C2808 C2804 1.350 . S
C2808 C2805 1.463 . S
C2808 N2812 1.427 . S
C2809 H2799 0.929 . S
C2809 C2807 1.433 . S
C2809 N2812 1.384 . S
C2810 H2801 0.929 . S
C2810 C2802 1.378 . S
C2810 C2805 1.350 . S
C2811 H2798 0.929 . S
C2811 C2803 1.433 . S
C2811 N2813 1.384 . S
N2812 C2808 1.427 . S
N2812 C2809 1.384 . S
N2813 C2805 1.427 . S
N2813 C2811 1.384 . S
H2814 C2820 0.930 . S
H2815 C2824 0.930 . S
H2816 C2829 0.929 . S
H2817 C2827 0.929 . S
H2818 C2822 0.929 . S
H2819 C2828 0.929 . S
C2820 H2814 0.930 . S
C2820 C2821 1.367 . S
C2820 C2828 1.378 . S
C2821 C2820 1.367 . S
C2821 C2829 1.433 . S
C2822 H2818 0.929 . S
C2822 C2824 1.378 . S
C2822 C2826 1.350 . S
C2823 C2826 1.463 . S
C2823 C2828 1.350 . S
C2823 N2831 1.427 . S
C2824 H2815 0.930 . S
C2824 C2822 1.378 . S
C2824 C2825 1.367 . S
C2825 C2824 1.367 . S
C2825 C2827 1.433 . S
C2826 C2822 1.350 . S
C2826 C2823 1.463 . S
C2826 N2830 1.427 . S
C2827 H2817 0.929 . S
C2827 C2825 1.433 . S
C2827 N2830 1.384 . S
C2828 H2819 0.929 . S
C2828 C2820 1.378 . S
C2828 C2823 1.350 . S
C2829 H2816 0.929 . S
C2829 C2821 1.433 . S
C2829 N2831 1.384 . S
N2830 C2826 1.427 . S
N2830 C2827 1.384 . S
N2831 C2823 1.427 . S
N2831 C2829 1.384 . S
H2832 C2838 0.930 . S
H2833 C2842 0.930 . S
H2834 C2847 0.929 . S
H2835 C2845 0.929 . S
H2836 C2840 0.929 . S
H2837 C2846 0.929 . S
C2838 H2832 0.930 . S
C2838 C2839 1.367 . S
C2838 C2846 1.378 . S
C2839 C2838 1.367 . S
C2839 C2847 1.433 . S
C2840 H2836 0.929 . S
C2840 C2842 1.378 . S
C2840 C2844 1.350 . S
C2841 C2844 1.463 . S
C2841 C2846 1.350 . S
C2841 N2849 1.427 . S
C2842 H2833 0.930 . S
C2842 C2840 1.378 . S
C2842 C2843 1.367 . S
C2843 C2842 1.367 . S
C2843 C2845 1.433 . S
C2844 C2840 1.350 . S
C2844 C2841 1.463 . S
C2844 N2848 1.427 . S
C2845 H2835 0.929 . S
C2845 C2843 1.433 . S
C2845 N2848 1.384 . S
C2846 H2837 0.929 . S
C2846 C2838 1.378 . S
C2846 C2841 1.350 . S
C2847 H2834 0.929 . S
C2847 C2839 1.433 . S
C2847 N2849 1.384 . S
N2848 C2844 1.427 . S
N2848 C2845 1.384 . S
N2849 C2841 1.427 . S
N2849 C2847 1.384 . S
H2850 C2856 0.930 . S
H2851 C2860 0.930 . S
H2852 C2865 0.929 . S
H2853 C2863 0.929 . S
H2854 C2858 0.929 . S
H2855 C2864 0.929 . S
C2856 H2850 0.930 . S
C2856 C2857 1.367 . S
C2856 C2864 1.378 . S
C2857 C2856 1.367 . S
C2857 C2865 1.433 . S
C2858 H2854 0.929 . S
C2858 C2860 1.378 . S
C2858 C2862 1.350 . S
C2859 C2862 1.463 . S
C2859 C2864 1.350 . S
C2859 N2867 1.427 . S
C2860 H2851 0.930 . S
C2860 C2858 1.378 . S
C2860 C2861 1.367 . S
C2861 C2860 1.367 . S
C2861 C2863 1.433 . S
C2862 C2858 1.350 . S
C2862 C2859 1.463 . S
C2862 N2866 1.427 . S
C2863 H2853 0.929 . S
C2863 C2861 1.433 . S
C2863 N2866 1.384 . S
C2864 H2855 0.929 . S
C2864 C2856 1.378 . S
C2864 C2859 1.350 . S
C2865 H2852 0.929 . S
C2865 C2857 1.433 . S
C2865 N2867 1.384 . S
N2866 C2862 1.427 . S
N2866 C2863 1.384 . S
N2867 C2859 1.427 . S
N2867 C2865 1.384 . S
H2868 C2874 0.930 . S
H2869 C2878 0.930 . S
H2870 C2883 0.929 . S
H2871 C2881 0.929 . S
H2872 C2876 0.929 . S
H2873 C2882 0.929 . S
C2874 H2868 0.930 . S
C2874 C2875 1.367 . S
C2874 C2882 1.378 . S
C2875 C2874 1.367 . S
C2875 C2883 1.433 . S
C2876 H2872 0.929 . S
C2876 C2878 1.378 . S
C2876 C2880 1.350 . S
C2877 C2880 1.463 . S
C2877 C2882 1.350 . S
C2877 N2885 1.427 . S
C2878 H2869 0.930 . S
C2878 C2876 1.378 . S
C2878 C2879 1.367 . S
C2879 C2878 1.367 . S
C2879 C2881 1.433 . S
C2880 C2876 1.350 . S
C2880 C2877 1.463 . S
C2880 N2884 1.427 . S
C2881 H2871 0.929 . S
C2881 C2879 1.433 . S
C2881 N2884 1.384 . S
C2882 H2873 0.929 . S
C2882 C2874 1.378 . S
C2882 C2877 1.350 . S
C2883 H2870 0.929 . S
C2883 C2875 1.433 . S
C2883 N2885 1.384 . S
N2884 C2880 1.427 . S
N2884 C2881 1.384 . S
N2885 C2877 1.427 . S
N2885 C2883 1.384 . S
H2886 C2892 0.930 . S
H2887 C2896 0.930 . S
H2888 C2901 0.929 . S
H2889 C2899 0.929 . S
H2890 C2894 0.929 . S
H2891 C2900 0.929 . S
C2892 H2886 0.930 . S
C2892 C2893 1.367 . S
C2892 C2900 1.378 . S
C2893 C2892 1.367 . S
C2893 C2901 1.433 . S
C2894 H2890 0.929 . S
C2894 C2896 1.378 . S
C2894 C2898 1.350 . S
C2895 C2898 1.463 . S
C2895 C2900 1.350 . S
C2895 N2903 1.427 . S
C2896 H2887 0.930 . S
C2896 C2894 1.378 . S
C2896 C2897 1.367 . S
C2897 C2896 1.367 . S
C2897 C2899 1.433 . S
C2898 C2894 1.350 . S
C2898 C2895 1.463 . S
C2898 N2902 1.427 . S
C2899 H2889 0.929 . S
C2899 C2897 1.433 . S
C2899 N2902 1.384 . S
C2900 H2891 0.929 . S
C2900 C2892 1.378 . S
C2900 C2895 1.350 . S
C2901 H2888 0.929 . S
C2901 C2893 1.433 . S
C2901 N2903 1.384 . S
N2902 C2898 1.427 . S
N2902 C2899 1.384 . S
N2903 C2895 1.427 . S
N2903 C2901 1.384 . S
H2904 C2910 0.930 . S
H2905 C2914 0.930 . S
H2906 C2919 0.929 . S
H2907 C2917 0.929 . S
H2908 C2912 0.929 . S
H2909 C2918 0.929 . S
C2910 H2904 0.930 . S
C2910 C2911 1.367 . S
C2910 C2918 1.378 . S
C2911 C2910 1.367 . S
C2911 C2919 1.433 . S
C2912 H2908 0.929 . S
C2912 C2914 1.378 . S
C2912 C2916 1.350 . S
C2913 C2916 1.463 . S
C2913 C2918 1.350 . S
C2913 N2921 1.427 . S
C2914 H2905 0.930 . S
C2914 C2912 1.378 . S
C2914 C2915 1.367 . S
C2915 C2914 1.367 . S
C2915 C2917 1.433 . S
C2916 C2912 1.350 . S
C2916 C2913 1.463 . S
C2916 N2920 1.427 . S
C2917 H2907 0.929 . S
C2917 C2915 1.433 . S
C2917 N2920 1.384 . S
C2918 H2909 0.929 . S
C2918 C2910 1.378 . S
C2918 C2913 1.350 . S
C2919 H2906 0.929 . S
C2919 C2911 1.433 . S
C2919 N2921 1.384 . S
N2920 C2916 1.427 . S
N2920 C2917 1.384 . S
N2921 C2913 1.427 . S
N2921 C2919 1.384 . S
H2922 C2928 0.930 . S
H2923 C2932 0.930 . S
H2924 C2937 0.929 . S
H2925 C2935 0.929 . S
H2926 C2930 0.929 . S
H2927 C2936 0.929 . S
C2928 H2922 0.930 . S
C2928 C2929 1.367 . S
C2928 C2936 1.378 . S
C2929 C2928 1.367 . S
C2929 C2937 1.433 . S
C2930 H2926 0.929 . S
C2930 C2932 1.378 . S
C2930 C2934 1.350 . S
C2931 C2934 1.463 . S
C2931 C2936 1.350 . S
C2931 N2939 1.427 . S
C2932 H2923 0.930 . S
C2932 C2930 1.378 . S
C2932 C2933 1.367 . S
C2933 C2932 1.367 . S
C2933 C2935 1.433 . S
C2934 C2930 1.350 . S
C2934 C2931 1.463 . S
C2934 N2938 1.427 . S
C2935 H2925 0.929 . S
C2935 C2933 1.433 . S
C2935 N2938 1.384 . S
C2936 H2927 0.929 . S
C2936 C2928 1.378 . S
C2936 C2931 1.350 . S
C2937 H2924 0.929 . S
C2937 C2929 1.433 . S
C2937 N2939 1.384 . S
N2938 C2934 1.427 . S
N2938 C2935 1.384 . S
N2939 C2931 1.427 . S
N2939 C2937 1.384 . S
H2940 C2946 0.930 . S
H2941 C2950 0.930 . S
H2942 C2955 0.929 . S
H2943 C2953 0.929 . S
H2944 C2948 0.929 . S
H2945 C2954 0.929 . S
C2946 H2940 0.930 . S
C2946 C2947 1.367 . S
C2946 C2954 1.378 . S
C2947 C2946 1.367 . S
C2947 C2955 1.433 . S
C2948 H2944 0.929 . S
C2948 C2950 1.378 . S
C2948 C2952 1.350 . S
C2949 C2952 1.463 . S
C2949 C2954 1.350 . S
C2949 N2957 1.427 . S
C2950 H2941 0.930 . S
C2950 C2948 1.378 . S
C2950 C2951 1.367 . S
C2951 C2950 1.367 . S
C2951 C2953 1.433 . S
C2952 C2948 1.350 . S
C2952 C2949 1.463 . S
C2952 N2956 1.427 . S
C2953 H2943 0.929 . S
C2953 C2951 1.433 . S
C2953 N2956 1.384 . S
C2954 H2945 0.929 . S
C2954 C2946 1.378 . S
C2954 C2949 1.350 . S
C2955 H2942 0.929 . S
C2955 C2947 1.433 . S
C2955 N2957 1.384 . S
N2956 C2952 1.427 . S
N2956 C2953 1.384 . S
N2957 C2949 1.427 . S
N2957 C2955 1.384 . S
H2958 C2964 0.930 . S
H2959 C2968 0.930 . S
H2960 C2973 0.929 . S
H2961 C2971 0.929 . S
H2962 C2966 0.929 . S
H2963 C2972 0.929 . S
C2964 H2958 0.930 . S
C2964 C2965 1.367 . S
C2964 C2972 1.378 . S
C2965 C2964 1.367 . S
C2965 C2973 1.433 . S
C2966 H2962 0.929 . S
C2966 C2968 1.378 . S
C2966 C2970 1.350 . S
C2967 C2970 1.463 . S
C2967 C2972 1.350 . S
C2967 N2975 1.427 . S
C2968 H2959 0.930 . S
C2968 C2966 1.378 . S
C2968 C2969 1.367 . S
C2969 C2968 1.367 . S
C2969 C2971 1.433 . S
C2970 C2966 1.350 . S
C2970 C2967 1.463 . S
C2970 N2974 1.427 . S
C2971 H2961 0.929 . S
C2971 C2969 1.433 . S
C2971 N2974 1.384 . S
C2972 H2963 0.929 . S
C2972 C2964 1.378 . S
C2972 C2967 1.350 . S
C2973 H2960 0.929 . S
C2973 C2965 1.433 . S
C2973 N2975 1.384 . S
N2974 C2970 1.427 . S
N2974 C2971 1.384 . S
N2975 C2967 1.427 . S
N2975 C2973 1.384 . S
H2976 C2982 0.930 . S
H2977 C2986 0.930 1_655 S
H2978 C2991 0.929 1_655 S
H2979 C2989 0.929 . S
H2980 C2984 0.929 1_655 S
H2981 C2990 0.929 . S
C2982 H2976 0.930 . S
C2982 C2983 1.367 . S
C2982 C2990 1.378 . S
C2983 C2982 1.367 . S
C2983 C2991 1.433 . S
C2984 H2980 0.929 1_455 S
C2984 C2986 1.378 . S
C2984 C2988 1.350 . S
C2985 C2988 1.463 1_565 S
C2985 C2990 1.350 . S
C2985 N2993 1.427 . S
C2986 H2977 0.930 1_455 S
C2986 C2984 1.378 . S
C2986 C2987 1.367 . S
C2987 C2986 1.367 . S
C2987 C2989 1.433 . S
C2988 C2984 1.350 . S
C2988 C2985 1.463 1_545 S
C2988 N2992 1.427 . S
C2989 H2979 0.929 . S
C2989 C2987 1.433 . S
C2989 N2992 1.384 . S
C2990 H2981 0.929 . S
C2990 C2982 1.378 . S
C2990 C2985 1.350 . S
C2991 H2978 0.929 1_455 S
C2991 C2983 1.433 . S
C2991 N2993 1.384 . S
N2992 C2988 1.427 . S
N2992 C2989 1.384 . S
N2993 C2985 1.427 . S
N2993 C2991 1.384 . S
H2994 C3000 0.930 . S
H2995 C3004 0.930 . S
H2996 C3009 0.929 . S
H2997 C3007 0.929 . S
H2998 C3002 0.929 . S
H2999 C3008 0.929 . S
C3000 H2994 0.930 . S
C3000 C3001 1.367 . S
C3000 C3008 1.378 . S
C3001 C3000 1.367 . S
C3001 C3009 1.433 . S
C3002 H2998 0.929 . S
C3002 C3004 1.378 . S
C3002 C3006 1.350 . S
C3003 C3006 1.463 . S
C3003 C3008 1.350 . S
C3003 N3011 1.427 . S
C3004 H2995 0.930 . S
C3004 C3002 1.378 . S
C3004 C3005 1.367 . S
C3005 C3004 1.367 . S
C3005 C3007 1.433 . S
C3006 C3002 1.350 . S
C3006 C3003 1.463 . S
C3006 N3010 1.427 . S
C3007 H2997 0.929 . S
C3007 C3005 1.433 . S
C3007 N3010 1.384 . S
C3008 H2999 0.929 . S
C3008 C3000 1.378 . S
C3008 C3003 1.350 . S
C3009 H2996 0.929 . S
C3009 C3001 1.433 . S
C3009 N3011 1.384 . S
N3010 C3006 1.427 . S
N3010 C3007 1.384 . S
N3011 C3003 1.427 . S
N3011 C3009 1.384 . S
H3012 C3018 0.930 . S
H3013 C3022 0.930 . S
H3014 C3027 0.929 . S
H3015 C3025 0.929 . S
H3016 C3020 0.929 1_565 S
H3017 C3026 0.929 1_545 S
C3018 H3012 0.930 . S
C3018 C3019 1.367 . S
C3018 C3026 1.378 . S
C3019 C3018 1.367 . S
C3019 C3027 1.433 . S
C3020 H3016 0.929 1_545 S
C3020 C3022 1.378 . S
C3020 C3024 1.350 . S
C3021 C3024 1.463 1_565 S
C3021 C3026 1.350 . S
C3021 N3029 1.427 . S
C3022 H3013 0.930 . S
C3022 C3020 1.378 . S
C3022 C3023 1.367 . S
C3023 C3022 1.367 . S
C3023 C3025 1.433 . S
C3024 C3020 1.350 . S
C3024 C3021 1.463 1_545 S
C3024 N3028 1.427 . S
C3025 H3015 0.929 . S
C3025 C3023 1.433 . S
C3025 N3028 1.384 . S
C3026 H3017 0.929 1_565 S
C3026 C3018 1.378 . S
C3026 C3021 1.350 . S
C3027 H3014 0.929 . S
C3027 C3019 1.433 . S
C3027 N3029 1.384 . S
N3028 C3024 1.427 . S
N3028 C3025 1.384 . S
N3029 C3021 1.427 . S
N3029 C3027 1.384 . S
H3030 C3036 0.930 . S
H3031 C3040 0.930 . S
H3032 C3045 0.929 . S
H3033 C3043 0.929 . S
H3034 C3038 0.929 1_556 S
H3035 C3044 0.929 1_554 S
C3036 H3030 0.930 . S
C3036 C3037 1.367 . S
C3036 C3044 1.378 . S
C3037 C3036 1.367 . S
C3037 C3045 1.433 . S
C3038 H3034 0.929 1_554 S
C3038 C3040 1.378 . S
C3038 C3042 1.350 . S
C3039 C3042 1.463 1_556 S
C3039 C3044 1.350 . S
C3039 N3047 1.427 . S
C3040 H3031 0.930 . S
C3040 C3038 1.378 . S
C3040 C3041 1.367 . S
C3041 C3040 1.367 . S
C3041 C3043 1.433 . S
C3042 C3038 1.350 . S
C3042 C3039 1.463 1_554 S
C3042 N3046 1.427 . S
C3043 H3033 0.929 . S
C3043 C3041 1.433 . S
C3043 N3046 1.384 . S
C3044 H3035 0.929 1_556 S
C3044 C3036 1.378 . S
C3044 C3039 1.350 . S
C3045 H3032 0.929 . S
C3045 C3037 1.433 . S
C3045 N3047 1.384 . S
N3046 C3042 1.427 . S
N3046 C3043 1.384 . S
N3047 C3039 1.427 . S
N3047 C3045 1.384 . S
H3048 C3054 0.930 . S
H3049 C3058 0.930 1_565 S
H3050 C3063 0.929 1_565 S
H3051 C3061 0.929 . S
H3052 C3056 0.929 1_566 S
H3053 C3062 0.929 1_554 S
C3054 H3048 0.930 . S
C3054 C3055 1.367 . S
C3054 C3062 1.378 . S
C3055 C3054 1.367 . S
C3055 C3063 1.433 . S
C3056 H3052 0.929 1_544 S
C3056 C3058 1.378 . S
C3056 C3060 1.350 . S
C3057 C3060 1.463 1_556 S
C3057 C3062 1.350 . S
C3057 N3065 1.427 . S
C3058 H3049 0.930 1_545 S
C3058 C3056 1.378 . S
C3058 C3059 1.367 . S
C3059 C3058 1.367 . S
C3059 C3061 1.433 . S
C3060 C3056 1.350 . S
C3060 C3057 1.463 1_554 S
C3060 N3064 1.427 . S
C3061 H3051 0.929 . S
C3061 C3059 1.433 . S
C3061 N3064 1.384 . S
C3062 H3053 0.929 1_556 S
C3062 C3054 1.378 . S
C3062 C3057 1.350 . S
C3063 H3050 0.929 1_545 S
C3063 C3055 1.433 . S
C3063 N3065 1.384 . S
N3064 C3060 1.427 . S
N3064 C3061 1.384 . S
N3065 C3057 1.427 . S
N3065 C3063 1.384 . S
H3066 C3072 0.930 . S
H3067 C3076 0.930 . S
H3068 C3081 0.929 . S
H3069 C3079 0.929 . S
H3070 C3074 0.929 . S
H3071 C3080 0.929 . S
C3072 H3066 0.930 . S
C3072 C3073 1.367 . S
C3072 C3080 1.378 . S
C3073 C3072 1.367 . S
C3073 C3081 1.433 . S
C3074 H3070 0.929 . S
C3074 C3076 1.378 . S
C3074 C3078 1.350 . S
C3075 C3078 1.463 1_545 S
C3075 C3080 1.350 . S
C3075 N3083 1.427 . S
C3076 H3067 0.930 . S
C3076 C3074 1.378 . S
C3076 C3077 1.367 . S
C3077 C3076 1.367 . S
C3077 C3079 1.433 . S
C3078 C3074 1.350 . S
C3078 C3075 1.463 1_565 S
C3078 N3082 1.427 . S
C3079 H3069 0.929 . S
C3079 C3077 1.433 . S
C3079 N3082 1.384 . S
C3080 H3071 0.929 . S
C3080 C3072 1.378 . S
C3080 C3075 1.350 . S
C3081 H3068 0.929 . S
C3081 C3073 1.433 . S
C3081 N3083 1.384 . S
N3082 C3078 1.427 . S
N3082 C3079 1.384 . S
N3083 C3075 1.427 . S
N3083 C3081 1.384 . S
H3084 C3090 0.930 . S
H3085 C3094 0.896 1_545 S
H3086 C3099 0.909 1_545 S
H3087 C3097 0.929 . S
H3088 C3092 0.895 1_545 S
H3089 C3098 0.929 . S
C3090 H3084 0.930 . S
C3090 C3091 1.367 . S
C3090 C3098 1.378 . S
C3091 C3090 1.367 . S
C3091 C3099 1.454 . S
C3092 H3088 0.895 1_565 S
C3092 C3094 1.378 . S
C3092 C3096 1.385 . S
C3093 C3096 1.463 . S
C3093 C3098 1.350 . S
C3093 N3101 1.459 . S
C3094 H3085 0.896 1_565 S
C3094 C3092 1.378 . S
C3094 C3095 1.402 . S
C3095 C3094 1.402 . S
C3095 C3097 1.433 . S
C3096 C3092 1.385 . S
C3096 C3093 1.463 . S
C3096 N3100 1.427 . S
C3097 H3087 0.929 . S
C3097 C3095 1.433 . S
C3097 N3100 1.384 . S
C3098 H3089 0.929 . S
C3098 C3090 1.378 . S
C3098 C3093 1.350 . S
C3099 H3086 0.909 1_565 S
C3099 C3091 1.454 . S
C3099 N3101 1.383 . S
N3100 C3096 1.427 . S
N3100 C3097 1.384 . S
N3101 C3093 1.459 . S
N3101 C3099 1.383 . S
H3102 C3108 0.930 . S
H3103 C3112 0.930 . S
H3104 C3117 0.929 . S
H3105 C3115 0.929 . S
H3106 C3110 0.929 . S
H3107 C3116 0.929 . S
C3108 H3102 0.930 . S
C3108 C3109 1.367 . S
C3108 C3116 1.378 . S
C3109 C3108 1.367 . S
C3109 C3117 1.433 . S
C3110 H3106 0.929 . S
C3110 C3112 1.378 . S
C3110 C3114 1.350 . S
C3111 C3114 1.463 1_545 S
C3111 C3116 1.350 . S
C3111 N3119 1.427 . S
C3112 H3103 0.930 . S
C3112 C3110 1.378 . S
C3112 C3113 1.367 . S
C3113 C3112 1.367 . S
C3113 C3115 1.433 . S
C3114 C3110 1.350 . S
C3114 C3111 1.463 1_565 S
C3114 N3118 1.427 . S
C3115 H3105 0.929 . S
C3115 C3113 1.433 . S
C3115 N3118 1.384 . S
C3116 H3107 0.929 . S
C3116 C3108 1.378 . S
C3116 C3111 1.350 . S
C3117 H3104 0.929 . S
C3117 C3109 1.433 . S
C3117 N3119 1.384 . S
N3118 C3114 1.427 . S
N3118 C3115 1.384 . S
N3119 C3111 1.427 . S
N3119 C3117 1.384 . S
H3120 C3126 0.930 . S
H3121 C3130 0.930 . S
H3122 C3135 0.929 . S
H3123 C3133 0.929 . S
H3124 C3128 0.929 . S
H3125 C3134 0.929 . S
C3126 H3120 0.930 . S
C3126 C3127 1.367 1_556 S
C3126 C3134 1.378 . S
C3127 C3126 1.367 1_554 S
C3127 C3135 1.433 . S
C3128 H3124 0.929 . S
C3128 C3130 1.378 . S
C3128 C3132 1.350 . S
C3129 C3132 1.463 1_655 S
C3129 C3134 1.350 1_554 S
C3129 N3137 1.427 . S
C3130 H3121 0.930 . S
C3130 C3128 1.378 . S
C3130 C3131 1.367 . S
C3131 C3130 1.367 . S
C3131 C3133 1.433 1_554 S
C3132 C3128 1.350 . S
C3132 C3129 1.463 1_455 S
C3132 N3136 1.427 1_554 S
C3133 H3123 0.929 . S
C3133 C3131 1.433 1_556 S
C3133 N3136 1.384 . S
C3134 H3125 0.929 . S
C3134 C3126 1.378 . S
C3134 C3129 1.350 1_556 S
C3135 H3122 0.929 . S
C3135 C3127 1.433 . S
C3135 N3137 1.384 . S
N3136 C3132 1.427 1_556 S
N3136 C3133 1.384 . S
N3137 C3129 1.427 . S
N3137 C3135 1.384 . S
H3138 C3144 0.954 . S
H3139 C3148 0.930 . S
H3140 C3153 0.929 . S
H3141 C3151 0.948 . S
H3142 C3146 0.929 . S
H3143 C3152 0.953 . S
C3144 H3138 0.954 . S
C3144 C3145 1.367 . S
C3144 C3152 1.378 . S
C3145 C3144 1.367 . S
C3145 C3153 1.433 . S
C3146 H3142 0.929 . S
C3146 C3148 1.378 . S
C3146 C3150 1.350 . S
C3147 C3150 1.463 . S
C3147 C3152 1.350 . S
C3147 N3155 1.427 . S
C3148 H3139 0.930 . S
C3148 C3146 1.378 . S
C3148 C3149 1.367 . S
C3149 C3148 1.367 . S
C3149 C3151 1.433 . S
C3150 C3146 1.350 . S
C3150 C3147 1.463 . S
C3150 N3154 1.427 . S
C3151 H3141 0.948 . S
C3151 C3149 1.433 . S
C3151 N3154 1.384 . S
C3152 H3143 0.953 . S
C3152 C3144 1.378 . S
C3152 C3147 1.350 . S
C3153 H3140 0.929 . S
C3153 C3145 1.433 . S
C3153 N3155 1.384 . S
N3154 C3150 1.427 . S
N3154 C3151 1.384 . S
N3155 C3147 1.427 . S
N3155 C3153 1.384 . S
H3156 C3162 0.930 . S
H3157 C3166 0.930 . S
H3158 C3171 0.929 . S
H3159 C3169 0.929 . S
H3160 C3164 0.929 . S
H3161 C3170 0.929 . S
C3162 H3156 0.930 . S
C3162 C3163 1.367 . S
C3162 C3170 1.378 . S
C3163 C3162 1.367 . S
C3163 C3171 1.433 . S
C3164 H3160 0.929 . S
C3164 C3166 1.378 . S
C3164 C3168 1.350 . S
C3165 C3168 1.463 1_655 S
C3165 C3170 1.350 . S
C3165 N3173 1.427 . S
C3166 H3157 0.930 . S
C3166 C3164 1.378 . S
C3166 C3167 1.367 . S
C3167 C3166 1.367 . S
C3167 C3169 1.433 . S
C3168 C3164 1.350 . S
C3168 C3165 1.463 1_455 S
C3168 N3172 1.427 . S
C3169 H3159 0.929 . S
C3169 C3167 1.433 . S
C3169 N3172 1.384 . S
C3170 H3161 0.929 . S
C3170 C3162 1.378 . S
C3170 C3165 1.350 . S
C3171 H3158 0.929 . S
C3171 C3163 1.433 . S
C3171 N3173 1.384 . S
N3172 C3168 1.427 . S
N3172 C3169 1.384 . S
N3173 C3165 1.427 . S
N3173 C3171 1.384 . S
H3174 C3180 0.930 . S
H3175 C3184 0.930 . S
H3176 C3189 0.929 . S
H3177 C3187 0.929 . S
H3178 C3182 0.929 . S
H3179 C3188 0.929 . S
C3180 H3174 0.930 . S
C3180 C3181 1.367 . S
C3180 C3188 1.378 . S
C3181 C3180 1.367 . S
C3181 C3189 1.433 . S
C3182 H3178 0.929 . S
C3182 C3184 1.378 . S
C3182 C3186 1.350 . S
C3183 C3186 1.463 1_455 S
C3183 C3188 1.350 . S
C3183 N3191 1.427 . S
C3184 H3175 0.930 . S
C3184 C3182 1.378 . S
C3184 C3185 1.367 . S
C3185 C3184 1.367 . S
C3185 C3187 1.433 . S
C3186 C3182 1.350 . S
C3186 C3183 1.463 1_655 S
C3186 N3190 1.427 . S
C3187 H3177 0.929 . S
C3187 C3185 1.433 . S
C3187 N3190 1.384 . S
C3188 H3179 0.929 . S
C3188 C3180 1.378 . S
C3188 C3183 1.350 . S
C3189 H3176 0.929 . S
C3189 C3181 1.433 . S
C3189 N3191 1.384 . S
N3190 C3186 1.427 . S
N3190 C3187 1.384 . S
N3191 C3183 1.427 . S
N3191 C3189 1.384 . S
H3192 C3198 0.930 . S
H3193 C3202 0.930 . S
H3194 C3207 0.929 . S
H3195 C3205 0.929 . S
H3196 C3200 0.929 . S
H3197 C3206 0.929 . S
C3198 H3192 0.930 . S
C3198 C3199 1.367 . S
C3198 C3206 1.378 . S
C3199 C3198 1.367 . S
C3199 C3207 1.433 . S
C3200 H3196 0.929 . S
C3200 C3202 1.378 . S
C3200 C3204 1.350 . S
C3201 C3204 1.463 . S
C3201 C3206 1.350 . S
C3201 N3209 1.427 . S
C3202 H3193 0.930 . S
C3202 C3200 1.378 . S
C3202 C3203 1.367 . S
C3203 C3202 1.367 . S
C3203 C3205 1.433 . S
C3204 C3200 1.350 . S
C3204 C3201 1.463 . S
C3204 N3208 1.427 . S
C3205 H3195 0.929 . S
C3205 C3203 1.433 . S
C3205 N3208 1.384 . S
C3206 H3197 0.929 . S
C3206 C3198 1.378 . S
C3206 C3201 1.350 . S
C3207 H3194 0.929 . S
C3207 C3199 1.433 . S
C3207 N3209 1.384 . S
N3208 C3204 1.427 . S
N3208 C3205 1.384 . S
N3209 C3201 1.427 . S
N3209 C3207 1.384 . S
H3210 C3216 0.930 . S
H3211 C3220 0.930 . S
H3212 C3225 0.929 . S
H3213 C3223 0.929 . S
H3214 C3218 0.929 1_455 S
H3215 C3224 0.929 1_655 S
C3216 H3210 0.930 . S
C3216 C3217 1.367 . S
C3216 C3224 1.378 . S
C3217 C3216 1.367 . S
C3217 C3225 1.433 . S
C3218 H3214 0.929 1_655 S
C3218 C3220 1.378 . S
C3218 C3222 1.350 . S
C3219 C3222 1.463 1_455 S
C3219 C3224 1.350 . S
C3219 N3227 1.427 . S
C3220 H3211 0.930 . S
C3220 C3218 1.378 . S
C3220 C3221 1.367 . S
C3221 C3220 1.367 . S
C3221 C3223 1.433 . S
C3222 C3218 1.350 . S
C3222 C3219 1.463 1_655 S
C3222 N3226 1.427 . S
C3223 H3213 0.929 . S
C3223 C3221 1.433 . S
C3223 N3226 1.384 . S
C3224 H3215 0.929 1_455 S
C3224 C3216 1.378 . S
C3224 C3219 1.350 . S
C3225 H3212 0.929 . S
C3225 C3217 1.433 . S
C3225 N3227 1.384 . S
N3226 C3222 1.427 . S
N3226 C3223 1.384 . S
N3227 C3219 1.427 . S
N3227 C3225 1.384 . S
H3228 C3234 0.930 . S
H3229 C3238 0.930 . S
H3230 C3243 0.929 . S
H3231 C3241 0.929 . S
H3232 C3236 0.929 . S
H3233 C3242 0.929 . S
C3234 H3228 0.930 . S
C3234 C3235 1.367 . S
C3234 C3242 1.378 . S
C3235 C3234 1.367 . S
C3235 C3243 1.433 . S
C3236 H3232 0.929 . S
C3236 C3238 1.378 . S
C3236 C3240 1.350 . S
C3237 C3240 1.463 . S
C3237 C3242 1.350 . S
C3237 N3245 1.427 . S
C3238 H3229 0.930 . S
C3238 C3236 1.378 . S
C3238 C3239 1.367 . S
C3239 C3238 1.367 . S
C3239 C3241 1.433 . S
C3240 C3236 1.350 . S
C3240 C3237 1.463 . S
C3240 N3244 1.427 . S
C3241 H3231 0.929 . S
C3241 C3239 1.433 . S
C3241 N3244 1.384 . S
C3242 H3233 0.929 . S
C3242 C3234 1.378 . S
C3242 C3237 1.350 . S
C3243 H3230 0.929 . S
C3243 C3235 1.433 . S
C3243 N3245 1.384 . S
N3244 C3240 1.427 . S
N3244 C3241 1.384 . S
N3245 C3237 1.427 . S
N3245 C3243 1.384 . S
H3246 C3252 0.930 . S
H3247 C3256 0.930 . S
H3248 C3261 0.929 . S
H3249 C3259 0.931 1_455 S
H3250 C3254 0.929 1_565 S
H3251 C3260 0.929 1_545 S
C3252 H3246 0.930 . S
C3252 C3253 1.367 . S
C3252 C3260 1.378 . S
C3253 C3252 1.367 . S
C3253 C3261 1.433 . S
C3254 H3250 0.929 1_545 S
C3254 C3256 1.378 . S
C3254 C3258 1.350 . S
C3255 C3258 1.463 1_565 S
C3255 C3260 1.350 . S
C3255 N3263 1.427 . S
C3256 H3247 0.930 . S
C3256 C3254 1.378 . S
C3256 C3257 1.367 . S
C3257 C3256 1.367 . S
C3257 C3259 1.433 . S
C3258 C3254 1.350 . S
C3258 C3255 1.463 1_545 S
C3258 N3262 1.427 . S
C3259 H3249 0.931 1_655 S
C3259 C3257 1.433 . S
C3259 N3262 1.384 . S
C3260 H3251 0.929 1_565 S
C3260 C3252 1.378 . S
C3260 C3255 1.350 . S
C3261 H3248 0.929 . S
C3261 C3253 1.433 . S
C3261 N3263 1.384 . S
N3262 C3258 1.427 . S
N3262 C3259 1.384 . S
N3263 C3255 1.427 . S
N3263 C3261 1.384 . S
H3264 C3270 0.930 . S
H3265 C3274 0.930 . S
H3266 C3279 0.929 . S
H3267 C3277 0.929 . S
H3268 C3272 0.929 . S
H3269 C3278 0.929 . S
C3270 H3264 0.930 . S
C3270 C3271 1.367 . S
C3270 C3278 1.378 . S
C3271 C3270 1.367 . S
C3271 C3279 1.433 . S
C3272 H3268 0.929 . S
C3272 C3274 1.378 . S
C3272 C3276 1.350 . S
C3273 C3276 1.463 . S
C3273 C3278 1.350 . S
C3273 N3281 1.427 . S
C3274 H3265 0.930 . S
C3274 C3272 1.378 . S
C3274 C3275 1.367 . S
C3275 C3274 1.367 . S
C3275 C3277 1.433 . S
C3276 C3272 1.350 . S
C3276 C3273 1.463 . S
C3276 N3280 1.427 . S
C3277 H3267 0.929 . S
C3277 C3275 1.433 . S
C3277 N3280 1.384 . S
C3278 H3269 0.929 . S
C3278 C3270 1.378 . S
C3278 C3273 1.350 . S
C3279 H3266 0.929 . S
C3279 C3271 1.433 . S
C3279 N3281 1.384 . S
N3280 C3276 1.427 . S
N3280 C3277 1.384 . S
N3281 C3273 1.427 . S
N3281 C3279 1.384 . S
H3282 C3288 0.930 . S
H3283 C3292 0.930 . S
H3284 C3297 0.929 . S
H3285 C3295 0.929 . S
H3286 C3290 0.929 1_565 S
H3287 C3296 0.929 1_545 S
C3288 H3282 0.930 . S
C3288 C3289 1.367 . S
C3288 C3296 1.378 . S
C3289 C3288 1.367 . S
C3289 C3297 1.433 . S
C3290 H3286 0.929 1_545 S
C3290 C3292 1.378 . S
C3290 C3294 1.350 . S
C3291 C3294 1.463 1_565 S
C3291 C3296 1.350 . S
C3291 N3299 1.427 . S
C3292 H3283 0.930 . S
C3292 C3290 1.378 . S
C3292 C3293 1.367 . S
C3293 C3292 1.367 . S
C3293 C3295 1.433 . S
C3294 C3290 1.350 . S
C3294 C3291 1.463 1_545 S
C3294 N3298 1.427 . S
C3295 H3285 0.929 . S
C3295 C3293 1.433 . S
C3295 N3298 1.384 . S
C3296 H3287 0.929 1_565 S
C3296 C3288 1.378 . S
C3296 C3291 1.350 . S
C3297 H3284 0.929 . S
C3297 C3289 1.433 . S
C3297 N3299 1.384 . S
N3298 C3294 1.427 . S
N3298 C3295 1.384 . S
N3299 C3291 1.427 . S
N3299 C3297 1.384 . S
H3300 C3306 0.930 . S
H3301 C3310 0.930 . S
H3302 C3315 0.929 . S
H3303 C3313 0.929 . S
H3304 C3308 0.929 . S
H3305 C3314 0.929 . S
C3306 H3300 0.930 . S
C3306 C3307 1.367 . S
C3306 C3314 1.378 . S
C3307 C3306 1.367 . S
C3307 C3315 1.433 . S
C3308 H3304 0.929 . S
C3308 C3310 1.378 . S
C3308 C3312 1.350 . S
C3309 C3312 1.463 1_554 S
C3309 C3314 1.350 . S
C3309 N3317 1.427 . S
C3310 H3301 0.930 . S
C3310 C3308 1.378 . S
C3310 C3311 1.367 . S
C3311 C3310 1.367 . S
C3311 C3313 1.433 . S
C3312 C3308 1.350 . S
C3312 C3309 1.463 1_556 S
C3312 N3316 1.427 . S
C3313 H3303 0.929 . S
C3313 C3311 1.433 . S
C3313 N3316 1.384 . S
C3314 H3305 0.929 . S
C3314 C3306 1.378 . S
C3314 C3309 1.350 . S
C3315 H3302 0.929 . S
C3315 C3307 1.433 . S
C3315 N3317 1.384 . S
N3316 C3312 1.427 . S
N3316 C3313 1.384 . S
N3317 C3309 1.427 . S
N3317 C3315 1.384 . S
H3318 C3324 0.930 . S
H3319 C3328 0.976 . S
H3320 C3333 0.929 . S
H3321 C3331 0.929 . S
H3322 C3326 0.974 . S
H3323 C3332 0.929 . S
C3324 H3318 0.930 . S
C3324 C3325 1.367 . S
C3324 C3332 1.378 . S
C3325 C3324 1.367 . S
C3325 C3333 1.433 1_565 S
C3326 H3322 0.974 . S
C3326 C3328 1.378 . S
C3326 C3330 1.304 1_545 S
C3327 C3330 1.463 1_556 S
C3327 C3332 1.350 . S
C3327 N3335 1.377 1_565 S
C3328 H3319 0.976 . S
C3328 C3326 1.378 . S
C3328 C3329 1.322 1_545 S
C3329 C3328 1.322 1_565 S
C3329 C3331 1.433 . S
C3330 C3326 1.304 1_565 S
C3330 C3327 1.463 1_554 S
C3330 N3334 1.427 . S
C3331 H3321 0.929 . S
C3331 C3329 1.433 . S
C3331 N3334 1.384 . S
C3332 H3323 0.929 . S
C3332 C3324 1.378 . S
C3332 C3327 1.350 . S
C3333 H3320 0.929 . S
C3333 C3325 1.433 1_545 S
C3333 N3335 1.386 . S
N3334 C3330 1.427 . S
N3334 C3331 1.384 . S
N3335 C3327 1.377 1_545 S
N3335 C3333 1.386 . S
H3336 C3342 0.930 . S
H3337 C3346 0.930 . S
H3338 C3351 0.929 . S
H3339 C3349 0.929 . S
H3340 C3344 0.902 1_545 S
H3341 C3350 0.902 1_565 S
C3342 H3336 0.930 . S
C3342 C3343 1.367 . S
C3342 C3350 1.378 . S
C3343 C3342 1.367 . S
C3343 C3351 1.433 . S
C3344 H3340 0.902 1_565 S
C3344 C3346 1.378 . S
C3344 C3348 1.350 . S
C3345 C3348 1.463 1_545 S
C3345 C3350 1.350 . S
C3345 N3353 1.427 . S
C3346 H3337 0.930 . S
C3346 C3344 1.378 . S
C3346 C3347 1.367 . S
C3347 C3346 1.367 . S
C3347 C3349 1.433 . S
C3348 C3344 1.350 . S
C3348 C3345 1.463 1_565 S
C3348 N3352 1.427 . S
C3349 H3339 0.929 . S
C3349 C3347 1.433 . S
C3349 N3352 1.384 . S
C3350 H3341 0.902 1_545 S
C3350 C3342 1.378 . S
C3350 C3345 1.350 . S
C3351 H3338 0.929 . S
C3351 C3343 1.433 . S
C3351 N3353 1.384 . S
N3352 C3348 1.427 . S
N3352 C3349 1.384 . S
N3353 C3345 1.427 . S
N3353 C3351 1.384 . S
H3354 C3360 0.930 . S
H3355 C3364 0.930 . S
H3356 C3369 0.929 . S
H3357 C3367 0.929 . S
H3358 C3362 0.929 . S
H3359 C3368 0.929 . S
C3360 H3354 0.930 . S
C3360 C3361 1.367 . S
C3360 C3368 1.378 . S
C3361 C3360 1.367 . S
C3361 C3369 1.433 1_545 S
C3362 H3358 0.929 . S
C3362 C3364 1.378 . S
C3362 C3366 1.350 1_565 S
C3363 C3366 1.463 . S
C3363 C3368 1.350 . S
C3363 N3371 1.427 1_545 S
C3364 H3355 0.930 . S
C3364 C3362 1.378 . S
C3364 C3365 1.367 1_565 S
C3365 C3364 1.367 1_545 S
C3365 C3367 1.433 . S
C3366 C3362 1.350 1_545 S
C3366 C3363 1.463 . S
C3366 N3370 1.427 . S
C3367 H3357 0.929 . S
C3367 C3365 1.433 . S
C3367 N3370 1.384 . S
C3368 H3359 0.929 . S
C3368 C3360 1.378 . S
C3368 C3363 1.350 . S
C3369 H3356 0.929 . S
C3369 C3361 1.433 1_565 S
C3369 N3371 1.384 . S
N3370 C3366 1.427 . S
N3370 C3367 1.384 . S
N3371 C3363 1.427 1_565 S
N3371 C3369 1.384 . S
H3372 C3378 0.930 . S
H3373 C3382 0.930 . S
H3374 C3387 0.929 . S
H3375 C3385 0.929 . S
H3376 C3380 0.929 . S
H3377 C3386 0.929 . S
C3378 H3372 0.930 . S
C3378 C3379 1.367 . S
C3378 C3386 1.378 . S
C3379 C3378 1.367 . S
C3379 C3387 1.433 . S
C3380 H3376 0.929 . S
C3380 C3382 1.378 . S
C3380 C3384 1.350 . S
C3381 C3384 1.463 1_565 S
C3381 C3386 1.350 . S
C3381 N3389 1.427 . S
C3382 H3373 0.930 . S
C3382 C3380 1.378 . S
C3382 C3383 1.367 . S
C3383 C3382 1.367 . S
C3383 C3385 1.433 . S
C3384 C3380 1.350 . S
C3384 C3381 1.463 1_545 S
C3384 N3388 1.427 . S
C3385 H3375 0.929 . S
C3385 C3383 1.433 . S
C3385 N3388 1.384 . S
C3386 H3377 0.929 . S
C3386 C3378 1.378 . S
C3386 C3381 1.350 . S
C3387 H3374 0.929 . S
C3387 C3379 1.433 . S
C3387 N3389 1.384 . S
N3388 C3384 1.427 . S
N3388 C3385 1.384 . S
N3389 C3381 1.427 . S
N3389 C3387 1.384 . S
H3390 C3396 0.905 1_554 S
H3391 C3400 0.930 . S
H3392 C3405 0.929 . S
H3393 C3403 0.900 1_554 S
H3394 C3398 0.929 1_455 S
H3395 C3404 0.904 1_654 S
C3396 H3390 0.905 1_556 S
C3396 C3397 1.367 . S
C3396 C3404 1.378 . S
C3397 C3396 1.367 . S
C3397 C3405 1.433 . S
C3398 H3394 0.929 1_655 S
C3398 C3400 1.378 . S
C3398 C3402 1.350 . S
C3399 C3402 1.463 1_455 S
C3399 C3404 1.350 . S
C3399 N3407 1.427 . S
C3400 H3391 0.930 . S
C3400 C3398 1.378 . S
C3400 C3401 1.367 . S
C3401 C3400 1.367 . S
C3401 C3403 1.433 . S
C3402 C3398 1.350 . S
C3402 C3399 1.463 1_655 S
C3402 N3406 1.427 . S
C3403 H3393 0.900 1_556 S
C3403 C3401 1.433 . S
C3403 N3406 1.384 . S
C3404 H3395 0.904 1_456 S
C3404 C3396 1.378 . S
C3404 C3399 1.350 . S
C3405 H3392 0.929 . S
C3405 C3397 1.433 . S
C3405 N3407 1.384 . S
N3406 C3402 1.427 . S
N3406 C3403 1.384 . S
N3407 C3399 1.427 . S
N3407 C3405 1.384 . S
H3408 C3414 0.930 . S
H3409 C3418 0.930 . S
H3410 C3423 0.929 . S
H3411 C3421 0.929 . S
H3412 C3416 0.929 . S
H3413 C3422 0.929 . S
C3414 H3408 0.930 . S
C3414 C3415 1.367 . S
C3414 C3422 1.378 . S
C3415 C3414 1.367 . S
C3415 C3423 1.433 1_554 S
C3416 H3412 0.929 . S
C3416 C3418 1.378 . S
C3416 C3420 1.350 1_556 S
C3417 C3420 1.463 . S
C3417 C3422 1.350 . S
C3417 N3425 1.427 1_554 S
C3418 H3409 0.930 . S
C3418 C3416 1.378 . S
C3418 C3419 1.367 1_556 S
C3419 C3418 1.367 1_554 S
C3419 C3421 1.433 . S
C3420 C3416 1.350 1_554 S
C3420 C3417 1.463 . S
C3420 N3424 1.427 . S
C3421 H3411 0.929 . S
C3421 C3419 1.433 . S
C3421 N3424 1.384 . S
C3422 H3413 0.929 . S
C3422 C3414 1.378 . S
C3422 C3417 1.350 . S
C3423 H3410 0.929 . S
C3423 C3415 1.433 1_556 S
C3423 N3425 1.384 . S
N3424 C3420 1.427 . S
N3424 C3421 1.384 . S
N3425 C3417 1.427 1_556 S
N3425 C3423 1.384 . S
H3426 C3432 0.930 . S
H3427 C3436 0.930 . S
H3428 C3441 0.929 . S
H3429 C3439 0.929 . S
H3430 C3434 0.929 . S
H3431 C3440 0.929 . S
C3432 H3426 0.930 . S
C3432 C3433 1.367 . S
C3432 C3440 1.378 . S
C3433 C3432 1.367 . S
C3433 C3441 1.433 . S
C3434 H3430 0.929 . S
C3434 C3436 1.378 . S
C3434 C3438 1.350 . S
C3435 C3438 1.463 1_455 S
C3435 C3440 1.350 . S
C3435 N3443 1.427 . S
C3436 H3427 0.930 . S
C3436 C3434 1.378 . S
C3436 C3437 1.367 . S
C3437 C3436 1.367 . S
C3437 C3439 1.433 . S
C3438 C3434 1.350 . S
C3438 C3435 1.463 1_655 S
C3438 N3442 1.427 . S
C3439 H3429 0.929 . S
C3439 C3437 1.433 . S
C3439 N3442 1.384 . S
C3440 H3431 0.929 . S
C3440 C3432 1.378 . S
C3440 C3435 1.350 . S
C3441 H3428 0.929 . S
C3441 C3433 1.433 . S
C3441 N3443 1.384 . S
N3442 C3438 1.427 . S
N3442 C3439 1.384 . S
N3443 C3435 1.427 . S
N3443 C3441 1.384 . S
H3444 C3450 0.930 . S
H3445 C3454 0.930 . S
H3446 C3459 0.929 . S
H3447 C3457 0.929 . S
H3448 C3452 0.929 . S
H3449 C3458 0.929 . S
C3450 H3444 0.930 . S
C3450 C3451 1.367 . S
C3450 C3458 1.378 . S
C3451 C3450 1.367 . S
C3451 C3459 1.433 . S
C3452 H3448 0.929 . S
C3452 C3454 1.378 . S
C3452 C3456 1.350 . S
C3453 C3456 1.463 1_455 S
C3453 C3458 1.350 . S
C3453 N3461 1.427 . S
C3454 H3445 0.930 . S
C3454 C3452 1.378 . S
C3454 C3455 1.367 . S
C3455 C3454 1.367 . S
C3455 C3457 1.433 . S
C3456 C3452 1.350 . S
C3456 C3453 1.463 1_655 S
C3456 N3460 1.427 . S
C3457 H3447 0.929 . S
C3457 C3455 1.433 . S
C3457 N3460 1.384 . S
C3458 H3449 0.929 . S
C3458 C3450 1.378 . S
C3458 C3453 1.350 . S
C3459 H3446 0.929 . S
C3459 C3451 1.433 . S
C3459 N3461 1.384 . S
N3460 C3456 1.427 . S
N3460 C3457 1.384 . S
N3461 C3453 1.427 . S
N3461 C3459 1.384 . S
H3462 C3468 0.930 . S
H3463 C3472 0.930 . S
H3464 C3477 0.929 . S
H3465 C3475 0.929 . S
H3466 C3470 0.929 . S
H3467 C3476 0.929 . S
C3468 H3462 0.930 . S
C3468 C3469 1.367 . S
C3468 C3476 1.378 . S
C3469 C3468 1.367 . S
C3469 C3477 1.433 . S
C3470 H3466 0.929 . S
C3470 C3472 1.378 . S
C3470 C3474 1.350 . S
C3471 C3474 1.463 . S
C3471 C3476 1.350 . S
C3471 N3479 1.427 . S
C3472 H3463 0.930 . S
C3472 C3470 1.378 . S
C3472 C3473 1.367 . S
C3473 C3472 1.367 . S
C3473 C3475 1.433 . S
C3474 C3470 1.350 . S
C3474 C3471 1.463 . S
C3474 N3478 1.427 . S
C3475 H3465 0.929 . S
C3475 C3473 1.433 . S
C3475 N3478 1.384 . S
C3476 H3467 0.929 . S
C3476 C3468 1.378 . S
C3476 C3471 1.350 . S
C3477 H3464 0.929 . S
C3477 C3469 1.433 . S
C3477 N3479 1.384 . S
N3478 C3474 1.427 . S
N3478 C3475 1.384 . S
N3479 C3471 1.427 . S
N3479 C3477 1.384 . S
H3480 C3486 0.930 . S
H3481 C3490 0.930 . S
H3482 C3495 0.929 . S
H3483 C3493 0.929 . S
H3484 C3488 0.929 . S
H3485 C3494 0.929 . S
C3486 H3480 0.930 . S
C3486 C3487 1.367 . S
C3486 C3494 1.378 . S
C3487 C3486 1.367 . S
C3487 C3495 1.433 . S
C3488 H3484 0.929 . S
C3488 C3490 1.378 . S
C3488 C3492 1.350 . S
C3489 C3492 1.463 1_455 S
C3489 C3494 1.350 . S
C3489 N3497 1.427 . S
C3490 H3481 0.930 . S
C3490 C3488 1.378 . S
C3490 C3491 1.367 . S
C3491 C3490 1.367 . S
C3491 C3493 1.433 . S
C3492 C3488 1.350 . S
C3492 C3489 1.463 1_655 S
C3492 N3496 1.427 . S
C3493 H3483 0.929 . S
C3493 C3491 1.433 . S
C3493 N3496 1.384 . S
C3494 H3485 0.929 . S
C3494 C3486 1.378 . S
C3494 C3489 1.350 . S
C3495 H3482 0.929 . S
C3495 C3487 1.433 . S
C3495 N3497 1.384 . S
N3496 C3492 1.427 . S
N3496 C3493 1.384 . S
N3497 C3489 1.427 . S
N3497 C3495 1.384 . S
H3498 C3504 0.930 . S
H3499 C3508 0.930 . S
H3500 C3513 0.929 . S
H3501 C3511 0.929 . S
H3502 C3506 0.929 . S
H3503 C3512 0.929 . S
C3504 H3498 0.930 . S
C3504 C3505 1.367 . S
C3504 C3512 1.378 . S
C3505 C3504 1.367 . S
C3505 C3513 1.433 . S
C3506 H3502 0.929 . S
C3506 C3508 1.378 . S
C3506 C3510 1.350 . S
C3507 C3510 1.463 . S
C3507 C3512 1.350 . S
C3507 N3515 1.427 . S
C3508 H3499 0.930 . S
C3508 C3506 1.378 . S
C3508 C3509 1.367 . S
C3509 C3508 1.367 . S
C3509 C3511 1.433 . S
C3510 C3506 1.350 . S
C3510 C3507 1.463 . S
C3510 N3514 1.427 . S
C3511 H3501 0.929 . S
C3511 C3509 1.433 . S
C3511 N3514 1.384 . S
C3512 H3503 0.929 . S
C3512 C3504 1.378 . S
C3512 C3507 1.350 . S
C3513 H3500 0.929 . S
C3513 C3505 1.433 . S
C3513 N3515 1.384 . S
N3514 C3510 1.427 . S
N3514 C3511 1.384 . S
N3515 C3507 1.427 . S
N3515 C3513 1.384 . S
H3516 C3522 0.930 . S
H3517 C3526 0.930 . S
H3518 C3531 0.929 . S
H3519 C3529 0.929 . S
H3520 C3524 0.929 . S
H3521 C3530 0.929 . S
C3522 H3516 0.930 . S
C3522 C3523 1.367 . S
C3522 C3530 1.378 . S
C3523 C3522 1.367 . S
C3523 C3531 1.433 . S
C3524 H3520 0.929 . S
C3524 C3526 1.378 . S
C3524 C3528 1.350 . S
C3525 C3528 1.463 . S
C3525 C3530 1.350 . S
C3525 N3533 1.427 . S
C3526 H3517 0.930 . S
C3526 C3524 1.378 . S
C3526 C3527 1.367 . S
C3527 C3526 1.367 . S
C3527 C3529 1.433 . S
C3528 C3524 1.350 . S
C3528 C3525 1.463 . S
C3528 N3532 1.427 . S
C3529 H3519 0.929 . S
C3529 C3527 1.433 . S
C3529 N3532 1.384 . S
C3530 H3521 0.929 . S
C3530 C3522 1.378 . S
C3530 C3525 1.350 . S
C3531 H3518 0.929 . S
C3531 C3523 1.433 . S
C3531 N3533 1.384 . S
N3532 C3528 1.427 . S
N3532 C3529 1.384 . S
N3533 C3525 1.427 . S
N3533 C3531 1.384 . S
H3534 C3540 0.930 . S
H3535 C3544 0.930 . S
H3536 C3549 0.929 . S
H3537 C3547 0.929 . S
H3538 C3542 0.929 . S
H3539 C3548 0.929 . S
C3540 H3534 0.930 . S
C3540 C3541 1.367 . S
C3540 C3548 1.378 . S
C3541 C3540 1.367 . S
C3541 C3549 1.433 . S
C3542 H3538 0.929 . S
C3542 C3544 1.378 . S
C3542 C3546 1.350 . S
C3543 C3546 1.463 1_554 S
C3543 C3548 1.350 . S
C3543 N3551 1.427 . S
C3544 H3535 0.930 . S
C3544 C3542 1.378 . S
C3544 C3545 1.367 . S
C3545 C3544 1.367 . S
C3545 C3547 1.433 . S
C3546 C3542 1.350 . S
C3546 C3543 1.463 1_556 S
C3546 N3550 1.427 . S
C3547 H3537 0.929 . S
C3547 C3545 1.433 . S
C3547 N3550 1.384 . S
C3548 H3539 0.929 . S
C3548 C3540 1.378 . S
C3548 C3543 1.350 . S
C3549 H3536 0.929 . S
C3549 C3541 1.433 . S
C3549 N3551 1.384 . S
N3550 C3546 1.427 . S
N3550 C3547 1.384 . S
N3551 C3543 1.427 . S
N3551 C3549 1.384 . S
H3552 C3558 0.930 1_455 S
H3553 C3562 0.930 . S
H3554 C3567 0.929 . S
H3555 C3565 0.929 1_455 S
H3556 C3560 0.929 . S
H3557 C3566 0.929 1_455 S
C3558 H3552 0.930 1_655 S
C3558 C3559 1.367 . S
C3558 C3566 1.378 . S
C3559 C3558 1.367 . S
C3559 C3567 1.433 . S
C3560 H3556 0.929 . S
C3560 C3562 1.378 . S
C3560 C3564 1.350 . S
C3561 C3564 1.463 . S
C3561 C3566 1.350 . S
C3561 N3569 1.427 . S
C3562 H3553 0.930 . S
C3562 C3560 1.378 . S
C3562 C3563 1.367 . S
C3563 C3562 1.367 . S
C3563 C3565 1.433 . S
C3564 C3560 1.350 . S
C3564 C3561 1.463 . S
C3564 N3568 1.427 . S
C3565 H3555 0.929 1_655 S
C3565 C3563 1.433 . S
C3565 N3568 1.384 . S
C3566 H3557 0.929 1_655 S
C3566 C3558 1.378 . S
C3566 C3561 1.350 . S
C3567 H3554 0.929 . S
C3567 C3559 1.433 . S
C3567 N3569 1.384 . S
N3568 C3564 1.427 . S
N3568 C3565 1.384 . S
N3569 C3561 1.427 . S
N3569 C3567 1.384 . S
H3570 C3576 0.930 . S
H3571 C3580 0.930 . S
H3572 C3585 0.929 . S
H3573 C3583 0.929 . S
H3574 C3578 0.929 . S
H3575 C3584 0.929 . S
C3576 H3570 0.930 . S
C3576 C3577 1.367 . S
C3576 C3584 1.378 . S
C3577 C3576 1.367 . S
C3577 C3585 1.433 . S
C3578 H3574 0.929 . S
C3578 C3580 1.378 . S
C3578 C3582 1.350 . S
C3579 C3582 1.463 . S
C3579 C3584 1.350 . S
C3579 N3587 1.427 . S
C3580 H3571 0.930 . S
C3580 C3578 1.378 . S
C3580 C3581 1.367 . S
C3581 C3580 1.367 . S
C3581 C3583 1.433 . S
C3582 C3578 1.350 . S
C3582 C3579 1.463 . S
C3582 N3586 1.427 . S
C3583 H3573 0.929 . S
C3583 C3581 1.433 . S
C3583 N3586 1.384 . S
C3584 H3575 0.929 . S
C3584 C3576 1.378 . S
C3584 C3579 1.350 . S
C3585 H3572 0.929 . S
C3585 C3577 1.433 . S
C3585 N3587 1.384 . S
N3586 C3582 1.427 . S
N3586 C3583 1.384 . S
N3587 C3579 1.427 . S
N3587 C3585 1.384 . S
H3588 C3594 0.930 . S
H3589 C3598 0.930 . S
H3590 C3603 0.929 . S
H3591 C3601 0.929 . S
H3592 C3596 0.929 . S
H3593 C3602 0.929 . S
C3594 H3588 0.930 . S
C3594 C3595 1.367 . S
C3594 C3602 1.378 . S
C3595 C3594 1.367 . S
C3595 C3603 1.433 . S
C3596 H3592 0.929 . S
C3596 C3598 1.378 . S
C3596 C3600 1.350 . S
C3597 C3600 1.463 . S
C3597 C3602 1.350 . S
C3597 N3605 1.427 . S
C3598 H3589 0.930 . S
C3598 C3596 1.378 . S
C3598 C3599 1.367 . S
C3599 C3598 1.367 . S
C3599 C3601 1.433 . S
C3600 C3596 1.350 . S
C3600 C3597 1.463 . S
C3600 N3604 1.427 . S
C3601 H3591 0.929 . S
C3601 C3599 1.433 . S
C3601 N3604 1.384 . S
C3602 H3593 0.929 . S
C3602 C3594 1.378 . S
C3602 C3597 1.350 . S
C3603 H3590 0.929 . S
C3603 C3595 1.433 . S
C3603 N3605 1.384 . S
N3604 C3600 1.427 . S
N3604 C3601 1.384 . S
N3605 C3597 1.427 . S
N3605 C3603 1.384 . S
H3606 C3612 0.930 . S
H3607 C3616 0.930 . S
H3608 C3621 0.929 . S
H3609 C3619 0.929 . S
H3610 C3614 0.929 . S
H3611 C3620 0.929 . S
C3612 H3606 0.930 . S
C3612 C3613 1.367 . S
C3612 C3620 1.378 . S
C3613 C3612 1.367 . S
C3613 C3621 1.433 . S
C3614 H3610 0.929 . S
C3614 C3616 1.378 . S
C3614 C3618 1.350 . S
C3615 C3618 1.463 . S
C3615 C3620 1.350 . S
C3615 N3623 1.427 . S
C3616 H3607 0.930 . S
C3616 C3614 1.378 . S
C3616 C3617 1.367 . S
C3617 C3616 1.367 . S
C3617 C3619 1.433 . S
C3618 C3614 1.350 . S
C3618 C3615 1.463 . S
C3618 N3622 1.427 . S
C3619 H3609 0.929 . S
C3619 C3617 1.433 . S
C3619 N3622 1.384 . S
C3620 H3611 0.929 . S
C3620 C3612 1.378 . S
C3620 C3615 1.350 . S
C3621 H3608 0.929 . S
C3621 C3613 1.433 . S
C3621 N3623 1.384 . S
N3622 C3618 1.427 . S
N3622 C3619 1.384 . S
N3623 C3615 1.427 . S
N3623 C3621 1.384 . S
H3624 C3630 0.930 . S
H3625 C3634 0.930 . S
H3626 C3639 0.929 . S
H3627 C3637 0.929 . S
H3628 C3632 0.929 . S
H3629 C3638 0.929 . S
C3630 H3624 0.930 . S
C3630 C3631 1.367 . S
C3630 C3638 1.378 . S
C3631 C3630 1.367 . S
C3631 C3639 1.433 . S
C3632 H3628 0.929 . S
C3632 C3634 1.378 . S
C3632 C3636 1.350 . S
C3633 C3636 1.463 1_554 S
C3633 C3638 1.350 . S
C3633 N3641 1.427 . S
C3634 H3625 0.930 . S
C3634 C3632 1.378 . S
C3634 C3635 1.367 . S
C3635 C3634 1.367 . S
C3635 C3637 1.433 . S
C3636 C3632 1.350 . S
C3636 C3633 1.463 1_556 S
C3636 N3640 1.427 . S
C3637 H3627 0.929 . S
C3637 C3635 1.433 . S
C3637 N3640 1.384 . S
C3638 H3629 0.929 . S
C3638 C3630 1.378 . S
C3638 C3633 1.350 . S
C3639 H3626 0.929 . S
C3639 C3631 1.433 . S
C3639 N3641 1.384 . S
N3640 C3636 1.427 . S
N3640 C3637 1.384 . S
N3641 C3633 1.427 . S
N3641 C3639 1.384 . S
H3642 C3648 0.930 . S
H3643 C3652 0.930 . S
H3644 C3657 0.929 . S
H3645 C3655 0.929 . S
H3646 C3650 0.929 . S
H3647 C3656 0.929 . S
C3648 H3642 0.930 . S
C3648 C3649 1.367 . S
C3648 C3656 1.378 . S
C3649 C3648 1.367 . S
C3649 C3657 1.433 . S
C3650 H3646 0.929 . S
C3650 C3652 1.378 . S
C3650 C3654 1.350 . S
C3651 C3654 1.463 . S
C3651 C3656 1.350 . S
C3651 N3659 1.427 . S
C3652 H3643 0.930 . S
C3652 C3650 1.378 . S
C3652 C3653 1.367 . S
C3653 C3652 1.367 . S
C3653 C3655 1.433 . S
C3654 C3650 1.350 . S
C3654 C3651 1.463 . S
C3654 N3658 1.427 . S
C3655 H3645 0.929 . S
C3655 C3653 1.433 . S
C3655 N3658 1.384 . S
C3656 H3647 0.929 . S
C3656 C3648 1.378 . S
C3656 C3651 1.350 . S
C3657 H3644 0.929 . S
C3657 C3649 1.433 . S
C3657 N3659 1.384 . S
N3658 C3654 1.427 . S
N3658 C3655 1.384 . S
N3659 C3651 1.427 . S
N3659 C3657 1.384 . S
H3660 C3666 0.930 . S
H3661 C3670 0.930 . S
H3662 C3675 0.929 . S
H3663 C3673 0.929 . S
H3664 C3668 0.929 . S
H3665 C3674 0.929 . S
C3666 H3660 0.930 . S
C3666 C3667 1.367 . S
C3666 C3674 1.378 . S
C3667 C3666 1.367 . S
C3667 C3675 1.433 . S
C3668 H3664 0.929 . S
C3668 C3670 1.378 . S
C3668 C3672 1.350 . S
C3669 C3672 1.463 . S
C3669 C3674 1.350 . S
C3669 N3677 1.427 . S
C3670 H3661 0.930 . S
C3670 C3668 1.378 . S
C3670 C3671 1.367 . S
C3671 C3670 1.367 . S
C3671 C3673 1.433 . S
C3672 C3668 1.350 . S
C3672 C3669 1.463 . S
C3672 N3676 1.427 . S
C3673 H3663 0.929 . S
C3673 C3671 1.433 . S
C3673 N3676 1.384 . S
C3674 H3665 0.929 . S
C3674 C3666 1.378 . S
C3674 C3669 1.350 . S
C3675 H3662 0.929 . S
C3675 C3667 1.433 . S
C3675 N3677 1.384 . S
N3676 C3672 1.427 . S
N3676 C3673 1.384 . S
N3677 C3669 1.427 . S
N3677 C3675 1.384 . S
H3678 C3684 0.930 . S
H3679 C3688 0.930 . S
H3680 C3693 0.929 . S
H3681 C3691 0.929 . S
H3682 C3686 0.929 . S
H3683 C3692 0.929 . S
C3684 H3678 0.930 . S
C3684 C3685 1.367 . S
C3684 C3692 1.378 . S
C3685 C3684 1.367 . S
C3685 C3693 1.433 . S
C3686 H3682 0.929 . S
C3686 C3688 1.378 . S
C3686 C3690 1.350 . S
C3687 C3690 1.463 . S
C3687 C3692 1.350 . S
C3687 N3695 1.427 . S
C3688 H3679 0.930 . S
C3688 C3686 1.378 . S
C3688 C3689 1.367 . S
C3689 C3688 1.367 . S
C3689 C3691 1.433 . S
C3690 C3686 1.350 . S
C3690 C3687 1.463 . S
C3690 N3694 1.427 . S
C3691 H3681 0.929 . S
C3691 C3689 1.433 . S
C3691 N3694 1.384 . S
C3692 H3683 0.929 . S
C3692 C3684 1.378 . S
C3692 C3687 1.350 . S
C3693 H3680 0.929 . S
C3693 C3685 1.433 . S
C3693 N3695 1.384 . S
N3694 C3690 1.427 . S
N3694 C3691 1.384 . S
N3695 C3687 1.427 . S
N3695 C3693 1.384 . S
H3696 C3702 0.930 . S
H3697 C3706 0.930 . S
H3698 C3711 0.929 . S
H3699 C3709 0.929 . S
H3700 C3704 0.929 . S
H3701 C3710 0.929 . S
C3702 H3696 0.930 . S
C3702 C3703 1.367 . S
C3702 C3710 1.378 . S
C3703 C3702 1.367 . S
C3703 C3711 1.433 . S
C3704 H3700 0.929 . S
C3704 C3706 1.378 . S
C3704 C3708 1.350 . S
C3705 C3708 1.463 1_556 S
C3705 C3710 1.350 . S
C3705 N3713 1.427 . S
C3706 H3697 0.930 . S
C3706 C3704 1.378 . S
C3706 C3707 1.367 . S
C3707 C3706 1.367 . S
C3707 C3709 1.433 . S
C3708 C3704 1.350 . S
C3708 C3705 1.463 1_554 S
C3708 N3712 1.427 . S
C3709 H3699 0.929 . S
C3709 C3707 1.433 . S
C3709 N3712 1.384 . S
C3710 H3701 0.929 . S
C3710 C3702 1.378 . S
C3710 C3705 1.350 . S
C3711 H3698 0.929 . S
C3711 C3703 1.433 . S
C3711 N3713 1.384 . S
N3712 C3708 1.427 . S
N3712 C3709 1.384 . S
N3713 C3705 1.427 . S
N3713 C3711 1.384 . S
H3714 C3720 0.930 . S
H3715 C3724 0.930 . S
H3716 C3729 0.929 . S
H3717 C3727 0.929 . S
H3718 C3722 0.929 . S
H3719 C3728 0.929 . S
C3720 H3714 0.930 . S
C3720 C3721 1.367 . S
C3720 C3728 1.378 . S
C3721 C3720 1.367 . S
C3721 C3729 1.433 . S
C3722 H3718 0.929 . S
C3722 C3724 1.378 . S
C3722 C3726 1.350 . S
C3723 C3726 1.463 . S
C3723 C3728 1.350 . S
C3723 N3731 1.427 . S
C3724 H3715 0.930 . S
C3724 C3722 1.378 . S
C3724 C3725 1.367 . S
C3725 C3724 1.367 . S
C3725 C3727 1.433 . S
C3726 C3722 1.350 . S
C3726 C3723 1.463 . S
C3726 N3730 1.427 . S
C3727 H3717 0.929 . S
C3727 C3725 1.433 . S
C3727 N3730 1.384 . S
C3728 H3719 0.929 . S
C3728 C3720 1.378 . S
C3728 C3723 1.350 . S
C3729 H3716 0.929 . S
C3729 C3721 1.433 . S
C3729 N3731 1.384 . S
N3730 C3726 1.427 . S
N3730 C3727 1.384 . S
N3731 C3723 1.427 . S
N3731 C3729 1.384 . S
H3732 C3738 0.930 . S
H3733 C3742 0.930 . S
H3734 C3747 0.929 . S
H3735 C3745 0.929 . S
H3736 C3740 0.929 . S
H3737 C3746 0.929 . S
C3738 H3732 0.930 . S
C3738 C3739 1.367 . S
C3738 C3746 1.378 . S
C3739 C3738 1.367 . S
C3739 C3747 1.433 . S
C3740 H3736 0.929 . S
C3740 C3742 1.378 . S
C3740 C3744 1.350 . S
C3741 C3744 1.463 . S
C3741 C3746 1.350 . S
C3741 N3749 1.427 . S
C3742 H3733 0.930 . S
C3742 C3740 1.378 . S
C3742 C3743 1.367 . S
C3743 C3742 1.367 . S
C3743 C3745 1.433 . S
C3744 C3740 1.350 . S
C3744 C3741 1.463 . S
C3744 N3748 1.427 . S
C3745 H3735 0.929 . S
C3745 C3743 1.433 . S
C3745 N3748 1.384 . S
C3746 H3737 0.929 . S
C3746 C3738 1.378 . S
C3746 C3741 1.350 . S
C3747 H3734 0.929 . S
C3747 C3739 1.433 . S
C3747 N3749 1.384 . S
N3748 C3744 1.427 . S
N3748 C3745 1.384 . S
N3749 C3741 1.427 . S
N3749 C3747 1.384 . S
H3750 C3756 0.930 . S
H3751 C3760 0.930 . S
H3752 C3765 0.929 . S
H3753 C3763 0.929 . S
H3754 C3758 0.929 . S
H3755 C3764 0.929 . S
C3756 H3750 0.930 . S
C3756 C3757 1.367 . S
C3756 C3764 1.378 . S
C3757 C3756 1.367 . S
C3757 C3765 1.433 . S
C3758 H3754 0.929 . S
C3758 C3760 1.378 . S
C3758 C3762 1.350 . S
C3759 C3762 1.463 . S
C3759 C3764 1.350 . S
C3759 N3767 1.427 . S
C3760 H3751 0.930 . S
C3760 C3758 1.378 . S
C3760 C3761 1.367 . S
C3761 C3760 1.367 . S
C3761 C3763 1.433 . S
C3762 C3758 1.350 . S
C3762 C3759 1.463 . S
C3762 N3766 1.427 . S
C3763 H3753 0.929 . S
C3763 C3761 1.433 . S
C3763 N3766 1.384 . S
C3764 H3755 0.929 . S
C3764 C3756 1.378 . S
C3764 C3759 1.350 . S
C3765 H3752 0.929 . S
C3765 C3757 1.433 . S
C3765 N3767 1.384 . S
N3766 C3762 1.427 . S
N3766 C3763 1.384 . S
N3767 C3759 1.427 . S
N3767 C3765 1.384 . S
H3768 C3774 0.930 . S
H3769 C3778 0.930 . S
H3770 C3783 0.929 . S
H3771 C3781 0.929 . S
H3772 C3776 0.929 . S
H3773 C3782 0.929 . S
C3774 H3768 0.930 . S
C3774 C3775 1.367 . S
C3774 C3782 1.378 . S
C3775 C3774 1.367 . S
C3775 C3783 1.433 . S
C3776 H3772 0.929 . S
C3776 C3778 1.378 . S
C3776 C3780 1.350 . S
C3777 C3780 1.463 . S
C3777 C3782 1.350 . S
C3777 N3785 1.427 . S
C3778 H3769 0.930 . S
C3778 C3776 1.378 . S
C3778 C3779 1.367 . S
C3779 C3778 1.367 . S
C3779 C3781 1.433 . S
C3780 C3776 1.350 . S
C3780 C3777 1.463 . S
C3780 N3784 1.427 . S
C3781 H3771 0.929 . S
C3781 C3779 1.433 . S
C3781 N3784 1.384 . S
C3782 H3773 0.929 . S
C3782 C3774 1.378 . S
C3782 C3777 1.350 . S
C3783 H3770 0.929 . S
C3783 C3775 1.433 . S
C3783 N3785 1.384 . S
N3784 C3780 1.427 . S
N3784 C3781 1.384 . S
N3785 C3777 1.427 . S
N3785 C3783 1.384 . S
H3786 C3792 0.930 . S
H3787 C3796 0.930 . S
H3788 C3801 0.929 . S
H3789 C3799 0.929 . S
H3790 C3794 0.929 1_556 S
H3791 C3800 0.929 1_554 S
C3792 H3786 0.930 . S
C3792 C3793 1.367 . S
C3792 C3800 1.378 . S
C3793 C3792 1.367 . S
C3793 C3801 1.433 . S
C3794 H3790 0.929 1_554 S
C3794 C3796 1.378 . S
C3794 C3798 1.350 . S
C3795 C3798 1.463 1_556 S
C3795 C3800 1.350 . S
C3795 N3803 1.427 . S
C3796 H3787 0.930 . S
C3796 C3794 1.378 . S
C3796 C3797 1.367 . S
C3797 C3796 1.367 . S
C3797 C3799 1.433 . S
C3798 C3794 1.350 . S
C3798 C3795 1.463 1_554 S
C3798 N3802 1.427 . S
C3799 H3789 0.929 . S
C3799 C3797 1.433 . S
C3799 N3802 1.384 . S
C3800 H3791 0.929 1_556 S
C3800 C3792 1.378 . S
C3800 C3795 1.350 . S
C3801 H3788 0.929 . S
C3801 C3793 1.433 . S
C3801 N3803 1.384 . S
N3802 C3798 1.427 . S
N3802 C3799 1.384 . S
N3803 C3795 1.427 . S
N3803 C3801 1.384 . S
H3804 C3810 0.930 . S
H3805 C3814 0.930 . S
H3806 C3819 0.929 . S
H3807 C3817 0.929 . S
H3808 C3812 0.929 . S
H3809 C3818 0.929 . S
C3810 H3804 0.930 . S
C3810 C3811 1.367 . S
C3810 C3818 1.378 . S
C3811 C3810 1.367 . S
C3811 C3819 1.433 . S
C3812 H3808 0.929 . S
C3812 C3814 1.378 . S
C3812 C3816 1.350 . S
C3813 C3816 1.463 . S
C3813 C3818 1.350 . S
C3813 N3821 1.427 . S
C3814 H3805 0.930 . S
C3814 C3812 1.378 . S
C3814 C3815 1.367 . S
C3815 C3814 1.367 . S
C3815 C3817 1.433 . S
C3816 C3812 1.350 . S
C3816 C3813 1.463 . S
C3816 N3820 1.427 . S
C3817 H3807 0.929 . S
C3817 C3815 1.433 . S
C3817 N3820 1.384 . S
C3818 H3809 0.929 . S
C3818 C3810 1.378 . S
C3818 C3813 1.350 . S
C3819 H3806 0.929 . S
C3819 C3811 1.433 . S
C3819 N3821 1.384 . S
N3820 C3816 1.427 . S
N3820 C3817 1.384 . S
N3821 C3813 1.427 . S
N3821 C3819 1.384 . S
H3822 C3828 0.930 . S
H3823 C3832 0.930 . S
H3824 C3837 0.929 . S
H3825 C3835 0.929 . S
H3826 C3830 0.929 . S
H3827 C3836 0.929 . S
C3828 H3822 0.930 . S
C3828 C3829 1.367 . S
C3828 C3836 1.378 . S
C3829 C3828 1.367 . S
C3829 C3837 1.433 . S
C3830 H3826 0.929 . S
C3830 C3832 1.378 . S
C3830 C3834 1.350 . S
C3831 C3834 1.463 . S
C3831 C3836 1.350 . S
C3831 N3839 1.427 . S
C3832 H3823 0.930 . S
C3832 C3830 1.378 . S
C3832 C3833 1.367 . S
C3833 C3832 1.367 . S
C3833 C3835 1.433 . S
C3834 C3830 1.350 . S
C3834 C3831 1.463 . S
C3834 N3838 1.427 . S
C3835 H3825 0.929 . S
C3835 C3833 1.433 . S
C3835 N3838 1.384 . S
C3836 H3827 0.929 . S
C3836 C3828 1.378 . S
C3836 C3831 1.350 . S
C3837 H3824 0.929 . S
C3837 C3829 1.433 . S
C3837 N3839 1.384 . S
N3838 C3834 1.427 . S
N3838 C3835 1.384 . S
N3839 C3831 1.427 . S
N3839 C3837 1.384 . S
H3840 C3846 0.930 . S
H3841 C3850 0.930 . S
H3842 C3855 0.929 . S
H3843 C3853 0.929 . S
H3844 C3848 0.929 . S
H3845 C3854 0.929 . S
C3846 H3840 0.930 . S
C3846 C3847 1.367 . S
C3846 C3854 1.378 . S
C3847 C3846 1.367 . S
C3847 C3855 1.433 . S
C3848 H3844 0.929 . S
C3848 C3850 1.378 . S
C3848 C3852 1.350 . S
C3849 C3852 1.463 . S
C3849 C3854 1.350 . S
C3849 N3857 1.427 . S
C3850 H3841 0.930 . S
C3850 C3848 1.378 . S
C3850 C3851 1.367 . S
C3851 C3850 1.367 . S
C3851 C3853 1.433 . S
C3852 C3848 1.350 . S
C3852 C3849 1.463 . S
C3852 N3856 1.427 . S
C3853 H3843 0.929 . S
C3853 C3851 1.433 . S
C3853 N3856 1.384 . S
C3854 H3845 0.929 . S
C3854 C3846 1.378 . S
C3854 C3849 1.350 . S
C3855 H3842 0.929 . S
C3855 C3847 1.433 . S
C3855 N3857 1.384 . S
N3856 C3852 1.427 . S
N3856 C3853 1.384 . S
N3857 C3849 1.427 . S
N3857 C3855 1.384 . S
H3858 C3864 0.930 . S
H3859 C3868 0.930 . S
H3860 C3873 0.929 . S
H3861 C3871 0.929 . S
H3862 C3866 0.929 . S
H3863 C3872 0.929 . S
C3864 H3858 0.930 . S
C3864 C3865 1.367 . S
C3864 C3872 1.378 . S
C3865 C3864 1.367 . S
C3865 C3873 1.433 . S
C3866 H3862 0.929 . S
C3866 C3868 1.378 . S
C3866 C3870 1.350 . S
C3867 C3870 1.463 . S
C3867 C3872 1.350 . S
C3867 N3875 1.427 . S
C3868 H3859 0.930 . S
C3868 C3866 1.378 . S
C3868 C3869 1.367 . S
C3869 C3868 1.367 . S
C3869 C3871 1.433 . S
C3870 C3866 1.350 . S
C3870 C3867 1.463 . S
C3870 N3874 1.427 . S
C3871 H3861 0.929 . S
C3871 C3869 1.433 . S
C3871 N3874 1.384 . S
C3872 H3863 0.929 . S
C3872 C3864 1.378 . S
C3872 C3867 1.350 . S
C3873 H3860 0.929 . S
C3873 C3865 1.433 . S
C3873 N3875 1.384 . S
N3874 C3870 1.427 . S
N3874 C3871 1.384 . S
N3875 C3867 1.427 . S
N3875 C3873 1.384 . S
H3876 C3882 0.930 . S
H3877 C3886 0.930 . S
H3878 C3891 0.929 . S
H3879 C3889 0.929 . S
H3880 C3884 0.929 . S
H3881 C3890 0.929 . S
C3882 H3876 0.930 . S
C3882 C3883 1.367 . S
C3882 C3890 1.378 . S
C3883 C3882 1.367 . S
C3883 C3891 1.433 . S
C3884 H3880 0.929 . S
C3884 C3886 1.378 . S
C3884 C3888 1.350 . S
C3885 C3888 1.463 . S
C3885 C3890 1.350 . S
C3885 N3893 1.427 . S
C3886 H3877 0.930 . S
C3886 C3884 1.378 . S
C3886 C3887 1.367 . S
C3887 C3886 1.367 . S
C3887 C3889 1.433 . S
C3888 C3884 1.350 . S
C3888 C3885 1.463 . S
C3888 N3892 1.427 . S
C3889 H3879 0.929 . S
C3889 C3887 1.433 . S
C3889 N3892 1.384 . S
C3890 H3881 0.929 . S
C3890 C3882 1.378 . S
C3890 C3885 1.350 . S
C3891 H3878 0.929 . S
C3891 C3883 1.433 . S
C3891 N3893 1.384 . S
N3892 C3888 1.427 . S
N3892 C3889 1.384 . S
N3893 C3885 1.427 . S
N3893 C3891 1.384 . S
H3894 C3900 0.930 . S
H3895 C3904 0.930 . S
H3896 C3909 0.929 . S
H3897 C3907 0.929 . S
H3898 C3902 0.929 . S
H3899 C3908 0.929 . S
C3900 H3894 0.930 . S
C3900 C3901 1.367 . S
C3900 C3908 1.378 . S
C3901 C3900 1.367 . S
C3901 C3909 1.433 . S
C3902 H3898 0.929 . S
C3902 C3904 1.378 . S
C3902 C3906 1.350 . S
C3903 C3906 1.463 . S
C3903 C3908 1.350 . S
C3903 N3911 1.427 . S
C3904 H3895 0.930 . S
C3904 C3902 1.378 . S
C3904 C3905 1.367 . S
C3905 C3904 1.367 . S
C3905 C3907 1.433 . S
C3906 C3902 1.350 . S
C3906 C3903 1.463 . S
C3906 N3910 1.427 . S
C3907 H3897 0.929 . S
C3907 C3905 1.433 . S
C3907 N3910 1.384 . S
C3908 H3899 0.929 . S
C3908 C3900 1.378 . S
C3908 C3903 1.350 . S
C3909 H3896 0.929 . S
C3909 C3901 1.433 . S
C3909 N3911 1.384 . S
N3910 C3906 1.427 . S
N3910 C3907 1.384 . S
N3911 C3903 1.427 . S
N3911 C3909 1.384 . S
H3912 C3918 0.930 . S
H3913 C3922 0.930 . S
H3914 C3927 0.929 . S
H3915 C3925 0.929 . S
H3916 C3920 0.929 . S
H3917 C3926 0.929 . S
C3918 H3912 0.930 . S
C3918 C3919 1.367 . S
C3918 C3926 1.378 . S
C3919 C3918 1.367 . S
C3919 C3927 1.433 . S
C3920 H3916 0.929 . S
C3920 C3922 1.378 . S
C3920 C3924 1.350 . S
C3921 C3924 1.463 . S
C3921 C3926 1.350 . S
C3921 N3929 1.427 . S
C3922 H3913 0.930 . S
C3922 C3920 1.378 . S
C3922 C3923 1.367 . S
C3923 C3922 1.367 . S
C3923 C3925 1.433 . S
C3924 C3920 1.350 . S
C3924 C3921 1.463 . S
C3924 N3928 1.427 . S
C3925 H3915 0.929 . S
C3925 C3923 1.433 . S
C3925 N3928 1.384 . S
C3926 H3917 0.929 . S
C3926 C3918 1.378 . S
C3926 C3921 1.350 . S
C3927 H3914 0.929 . S
C3927 C3919 1.433 . S
C3927 N3929 1.384 . S
N3928 C3924 1.427 . S
N3928 C3925 1.384 . S
N3929 C3921 1.427 . S
N3929 C3927 1.384 . S
H3930 C3936 0.930 . S
H3931 C3940 0.930 . S
H3932 C3945 0.929 . S
H3933 C3943 0.929 . S
H3934 C3938 0.929 . S
H3935 C3944 0.929 . S
C3936 H3930 0.930 . S
C3936 C3937 1.367 . S
C3936 C3944 1.378 . S
C3937 C3936 1.367 . S
C3937 C3945 1.433 . S
C3938 H3934 0.929 . S
C3938 C3940 1.378 . S
C3938 C3942 1.350 . S
C3939 C3942 1.463 . S
C3939 C3944 1.350 . S
C3939 N3947 1.427 . S
C3940 H3931 0.930 . S
C3940 C3938 1.378 . S
C3940 C3941 1.367 . S
C3941 C3940 1.367 . S
C3941 C3943 1.433 . S
C3942 C3938 1.350 . S
C3942 C3939 1.463 . S
C3942 N3946 1.427 . S
C3943 H3933 0.929 . S
C3943 C3941 1.433 . S
C3943 N3946 1.384 . S
C3944 H3935 0.929 . S
C3944 C3936 1.378 . S
C3944 C3939 1.350 . S
C3945 H3932 0.929 . S
C3945 C3937 1.433 . S
C3945 N3947 1.384 . S
N3946 C3942 1.427 . S
N3946 C3943 1.384 . S
N3947 C3939 1.427 . S
N3947 C3945 1.384 . S
H3948 C3954 0.930 . S
H3949 C3958 0.930 . S
H3950 C3963 0.929 . S
H3951 C3961 0.929 . S
H3952 C3956 0.929 . S
H3953 C3962 0.929 . S
C3954 H3948 0.930 . S
C3954 C3955 1.367 . S
C3954 C3962 1.378 . S
C3955 C3954 1.367 . S
C3955 C3963 1.433 . S
C3956 H3952 0.929 . S
C3956 C3958 1.378 . S
C3956 C3960 1.350 . S
C3957 C3960 1.463 . S
C3957 C3962 1.350 . S
C3957 N3965 1.427 . S
C3958 H3949 0.930 . S
C3958 C3956 1.378 . S
C3958 C3959 1.367 . S
C3959 C3958 1.367 . S
C3959 C3961 1.433 . S
C3960 C3956 1.350 . S
C3960 C3957 1.463 . S
C3960 N3964 1.427 . S
C3961 H3951 0.929 . S
C3961 C3959 1.433 . S
C3961 N3964 1.384 . S
C3962 H3953 0.929 . S
C3962 C3954 1.378 . S
C3962 C3957 1.350 . S
C3963 H3950 0.929 . S
C3963 C3955 1.433 . S
C3963 N3965 1.384 . S
N3964 C3960 1.427 . S
N3964 C3961 1.384 . S
N3965 C3957 1.427 . S
N3965 C3963 1.384 . S
H3966 C3972 0.930 . S
H3967 C3976 0.930 . S
H3968 C3981 0.929 . S
H3969 C3979 0.929 . S
H3970 C3974 0.929 . S
H3971 C3980 0.929 . S
C3972 H3966 0.930 . S
C3972 C3973 1.367 . S
C3972 C3980 1.378 . S
C3973 C3972 1.367 . S
C3973 C3981 1.433 . S
C3974 H3970 0.929 . S
C3974 C3976 1.378 . S
C3974 C3978 1.350 . S
C3975 C3978 1.463 . S
C3975 C3980 1.350 . S
C3975 N3983 1.427 . S
C3976 H3967 0.930 . S
C3976 C3974 1.378 . S
C3976 C3977 1.367 . S
C3977 C3976 1.367 . S
C3977 C3979 1.433 . S
C3978 C3974 1.350 . S
C3978 C3975 1.463 . S
C3978 N3982 1.427 . S
C3979 H3969 0.929 . S
C3979 C3977 1.433 . S
C3979 N3982 1.384 . S
C3980 H3971 0.929 . S
C3980 C3972 1.378 . S
C3980 C3975 1.350 . S
C3981 H3968 0.929 . S
C3981 C3973 1.433 . S
C3981 N3983 1.384 . S
N3982 C3978 1.427 . S
N3982 C3979 1.384 . S
N3983 C3975 1.427 . S
N3983 C3981 1.384 . S
H3984 C3990 0.930 . S
H3985 C3994 0.930 . S
H3986 C3999 0.929 . S
H3987 C3997 0.929 . S
H3988 C3992 0.929 . S
H3989 C3998 0.929 . S
C3990 H3984 0.930 . S
C3990 C3991 1.367 . S
C3990 C3998 1.378 . S
C3991 C3990 1.367 . S
C3991 C3999 1.433 . S
C3992 H3988 0.929 . S
C3992 C3994 1.378 . S
C3992 C3996 1.350 . S
C3993 C3996 1.463 . S
C3993 C3998 1.350 . S
C3993 N4001 1.427 . S
C3994 H3985 0.930 . S
C3994 C3992 1.378 . S
C3994 C3995 1.367 . S
C3995 C3994 1.367 . S
C3995 C3997 1.433 . S
C3996 C3992 1.350 . S
C3996 C3993 1.463 . S
C3996 N4000 1.427 . S
C3997 H3987 0.929 . S
C3997 C3995 1.433 . S
C3997 N4000 1.384 . S
C3998 H3989 0.929 . S
C3998 C3990 1.378 . S
C3998 C3993 1.350 . S
C3999 H3986 0.929 . S
C3999 C3991 1.433 . S
C3999 N4001 1.384 . S
N4000 C3996 1.427 . S
N4000 C3997 1.384 . S
N4001 C3993 1.427 . S
N4001 C3999 1.384 . S
H4002 C4008 0.930 . S
H4003 C4012 0.930 . S
H4004 C4017 0.929 . S
H4005 C4015 0.929 . S
H4006 C4010 0.929 . S
H4007 C4016 0.929 . S
C4008 H4002 0.930 . S
C4008 C4009 1.367 . S
C4008 C4016 1.378 . S
C4009 C4008 1.367 . S
C4009 C4017 1.433 . S
C4010 H4006 0.929 . S
C4010 C4012 1.378 . S
C4010 C4014 1.350 . S
C4011 C4014 1.463 . S
C4011 C4016 1.350 . S
C4011 N4019 1.427 . S
C4012 H4003 0.930 . S
C4012 C4010 1.378 . S
C4012 C4013 1.367 . S
C4013 C4012 1.367 . S
C4013 C4015 1.433 . S
C4014 C4010 1.350 . S
C4014 C4011 1.463 . S
C4014 N4018 1.427 . S
C4015 H4005 0.929 . S
C4015 C4013 1.433 . S
C4015 N4018 1.384 . S
C4016 H4007 0.929 . S
C4016 C4008 1.378 . S
C4016 C4011 1.350 . S
C4017 H4004 0.929 . S
C4017 C4009 1.433 . S
C4017 N4019 1.384 . S
N4018 C4014 1.427 . S
N4018 C4015 1.384 . S
N4019 C4011 1.427 . S
N4019 C4017 1.384 . S
H4020 C4026 0.930 . S
H4021 C4030 0.930 . S
H4022 C4035 0.929 . S
H4023 C4033 0.929 . S
H4024 C4028 0.929 . S
H4025 C4034 0.929 . S
C4026 H4020 0.930 . S
C4026 C4027 1.367 . S
C4026 C4034 1.378 . S
C4027 C4026 1.367 . S
C4027 C4035 1.433 . S
C4028 H4024 0.929 . S
C4028 C4030 1.378 . S
C4028 C4032 1.350 . S
C4029 C4032 1.463 . S
C4029 C4034 1.350 . S
C4029 N4037 1.427 . S
C4030 H4021 0.930 . S
C4030 C4028 1.378 . S
C4030 C4031 1.367 . S
C4031 C4030 1.367 . S
C4031 C4033 1.433 . S
C4032 C4028 1.350 . S
C4032 C4029 1.463 . S
C4032 N4036 1.427 . S
C4033 H4023 0.929 . S
C4033 C4031 1.433 . S
C4033 N4036 1.384 . S
C4034 H4025 0.929 . S
C4034 C4026 1.378 . S
C4034 C4029 1.350 . S
C4035 H4022 0.929 . S
C4035 C4027 1.433 . S
C4035 N4037 1.384 . S
N4036 C4032 1.427 . S
N4036 C4033 1.384 . S
N4037 C4029 1.427 . S
N4037 C4035 1.384 . S
H4038 C4044 0.930 . S
H4039 C4048 0.930 . S
H4040 C4053 0.929 . S
H4041 C4051 0.929 . S
H4042 C4046 0.929 . S
H4043 C4052 0.929 . S
C4044 H4038 0.930 . S
C4044 C4045 1.367 . S
C4044 C4052 1.378 . S
C4045 C4044 1.367 . S
C4045 C4053 1.433 . S
C4046 H4042 0.929 . S
C4046 C4048 1.378 . S
C4046 C4050 1.350 . S
C4047 C4050 1.463 . S
C4047 C4052 1.350 . S
C4047 N4055 1.427 . S
C4048 H4039 0.930 . S
C4048 C4046 1.378 . S
C4048 C4049 1.367 . S
C4049 C4048 1.367 . S
C4049 C4051 1.433 . S
C4050 C4046 1.350 . S
C4050 C4047 1.463 . S
C4050 N4054 1.427 . S
C4051 H4041 0.929 . S
C4051 C4049 1.433 . S
C4051 N4054 1.384 . S
C4052 H4043 0.929 . S
C4052 C4044 1.378 . S
C4052 C4047 1.350 . S
C4053 H4040 0.929 . S
C4053 C4045 1.433 . S
C4053 N4055 1.384 . S
N4054 C4050 1.427 . S
N4054 C4051 1.384 . S
N4055 C4047 1.427 . S
N4055 C4053 1.384 . S
H4056 C4062 0.930 . S
H4057 C4066 0.930 . S
H4058 C4071 0.929 . S
H4059 C4069 0.929 . S
H4060 C4064 0.929 . S
H4061 C4070 0.929 . S
C4062 H4056 0.930 . S
C4062 C4063 1.367 . S
C4062 C4070 1.378 . S
C4063 C4062 1.367 . S
C4063 C4071 1.433 . S
C4064 H4060 0.929 . S
C4064 C4066 1.378 . S
C4064 C4068 1.350 . S
C4065 C4068 1.463 . S
C4065 C4070 1.350 . S
C4065 N4073 1.427 . S
C4066 H4057 0.930 . S
C4066 C4064 1.378 . S
C4066 C4067 1.367 . S
C4067 C4066 1.367 . S
C4067 C4069 1.433 . S
C4068 C4064 1.350 . S
C4068 C4065 1.463 . S
C4068 N4072 1.427 . S
C4069 H4059 0.929 . S
C4069 C4067 1.433 . S
C4069 N4072 1.384 . S
C4070 H4061 0.929 . S
C4070 C4062 1.378 . S
C4070 C4065 1.350 . S
C4071 H4058 0.929 . S
C4071 C4063 1.433 . S
C4071 N4073 1.384 . S
N4072 C4068 1.427 . S
N4072 C4069 1.384 . S
N4073 C4065 1.427 . S
N4073 C4071 1.384 . S
H4074 C4080 0.930 . S
H4075 C4084 0.930 . S
H4076 C4089 0.929 . S
H4077 C4087 0.929 . S
H4078 C4082 0.929 . S
H4079 C4088 0.929 . S
C4080 H4074 0.930 . S
C4080 C4081 1.367 . S
C4080 C4088 1.378 . S
C4081 C4080 1.367 . S
C4081 C4089 1.433 . S
C4082 H4078 0.929 . S
C4082 C4084 1.378 . S
C4082 C4086 1.350 . S
C4083 C4086 1.463 . S
C4083 C4088 1.350 . S
C4083 N4091 1.427 . S
C4084 H4075 0.930 . S
C4084 C4082 1.378 . S
C4084 C4085 1.367 . S
C4085 C4084 1.367 . S
C4085 C4087 1.433 . S
C4086 C4082 1.350 . S
C4086 C4083 1.463 . S
C4086 N4090 1.427 . S
C4087 H4077 0.929 . S
C4087 C4085 1.433 . S
C4087 N4090 1.384 . S
C4088 H4079 0.929 . S
C4088 C4080 1.378 . S
C4088 C4083 1.350 . S
C4089 H4076 0.929 . S
C4089 C4081 1.433 . S
C4089 N4091 1.384 . S
N4090 C4086 1.427 . S
N4090 C4087 1.384 . S
N4091 C4083 1.427 . S
N4091 C4089 1.384 . S
H4092 C4098 0.930 . S
H4093 C4102 0.930 . S
H4094 C4107 0.929 . S
H4095 C4105 0.929 . S
H4096 C4100 0.929 . S
H4097 C4106 0.929 . S
C4098 H4092 0.930 . S
C4098 C4099 1.367 . S
C4098 C4106 1.378 . S
C4099 C4098 1.367 . S
C4099 C4107 1.433 . S
C4100 H4096 0.929 . S
C4100 C4102 1.378 . S
C4100 C4104 1.350 . S
C4101 C4104 1.463 . S
C4101 C4106 1.350 . S
C4101 N4109 1.427 . S
C4102 H4093 0.930 . S
C4102 C4100 1.378 . S
C4102 C4103 1.367 . S
C4103 C4102 1.367 . S
C4103 C4105 1.433 . S
C4104 C4100 1.350 . S
C4104 C4101 1.463 . S
C4104 N4108 1.427 . S
C4105 H4095 0.929 . S
C4105 C4103 1.433 . S
C4105 N4108 1.384 . S
C4106 H4097 0.929 . S
C4106 C4098 1.378 . S
C4106 C4101 1.350 . S
C4107 H4094 0.929 . S
C4107 C4099 1.433 . S
C4107 N4109 1.384 . S
N4108 C4104 1.427 . S
N4108 C4105 1.384 . S
N4109 C4101 1.427 . S
N4109 C4107 1.384 . S
H4110 C4116 0.930 . S
H4111 C4120 0.930 . S
H4112 C4125 0.929 . S
H4113 C4123 0.929 . S
H4114 C4118 0.929 . S
H4115 C4124 0.929 . S
C4116 H4110 0.930 . S
C4116 C4117 1.367 . S
C4116 C4124 1.378 . S
C4117 C4116 1.367 . S
C4117 C4125 1.433 . S
C4118 H4114 0.929 . S
C4118 C4120 1.378 . S
C4118 C4122 1.350 . S
C4119 C4122 1.463 . S
C4119 C4124 1.350 . S
C4119 N4127 1.427 . S
C4120 H4111 0.930 . S
C4120 C4118 1.378 . S
C4120 C4121 1.367 . S
C4121 C4120 1.367 . S
C4121 C4123 1.433 . S
C4122 C4118 1.350 . S
C4122 C4119 1.463 . S
C4122 N4126 1.427 . S
C4123 H4113 0.929 . S
C4123 C4121 1.433 . S
C4123 N4126 1.384 . S
C4124 H4115 0.929 . S
C4124 C4116 1.378 . S
C4124 C4119 1.350 . S
C4125 H4112 0.929 . S
C4125 C4117 1.433 . S
C4125 N4127 1.384 . S
N4126 C4122 1.427 . S
N4126 C4123 1.384 . S
N4127 C4119 1.427 . S
N4127 C4125 1.384 . S
H4128 C4134 0.930 . S
H4129 C4138 0.930 . S
H4130 C4143 0.929 . S
H4131 C4141 0.929 . S
H4132 C4136 0.929 . S
H4133 C4142 0.929 . S
C4134 H4128 0.930 . S
C4134 C4135 1.367 . S
C4134 C4142 1.378 . S
C4135 C4134 1.367 . S
C4135 C4143 1.433 . S
C4136 H4132 0.929 . S
C4136 C4138 1.378 . S
C4136 C4140 1.350 . S
C4137 C4140 1.463 . S
C4137 C4142 1.350 . S
C4137 N4145 1.427 . S
C4138 H4129 0.930 . S
C4138 C4136 1.378 . S
C4138 C4139 1.367 . S
C4139 C4138 1.367 . S
C4139 C4141 1.433 . S
C4140 C4136 1.350 . S
C4140 C4137 1.463 . S
C4140 N4144 1.427 . S
C4141 H4131 0.929 . S
C4141 C4139 1.433 . S
C4141 N4144 1.384 . S
C4142 H4133 0.929 . S
C4142 C4134 1.378 . S
C4142 C4137 1.350 . S
C4143 H4130 0.929 . S
C4143 C4135 1.433 . S
C4143 N4145 1.384 . S
N4144 C4140 1.427 . S
N4144 C4141 1.384 . S
N4145 C4137 1.427 . S
N4145 C4143 1.384 . S
H4146 C4152 0.930 . S
H4147 C4156 0.930 . S
H4148 C4161 0.929 . S
H4149 C4159 0.929 . S
H4150 C4154 0.929 . S
H4151 C4160 0.929 . S
C4152 H4146 0.930 . S
C4152 C4153 1.367 . S
C4152 C4160 1.378 . S
C4153 C4152 1.367 . S
C4153 C4161 1.433 . S
C4154 H4150 0.929 . S
C4154 C4156 1.378 . S
C4154 C4158 1.350 . S
C4155 C4158 1.463 . S
C4155 C4160 1.350 . S
C4155 N4163 1.427 . S
C4156 H4147 0.930 . S
C4156 C4154 1.378 . S
C4156 C4157 1.367 . S
C4157 C4156 1.367 . S
C4157 C4159 1.433 . S
C4158 C4154 1.350 . S
C4158 C4155 1.463 . S
C4158 N4162 1.427 . S
C4159 H4149 0.929 . S
C4159 C4157 1.433 . S
C4159 N4162 1.384 . S
C4160 H4151 0.929 . S
C4160 C4152 1.378 . S
C4160 C4155 1.350 . S
C4161 H4148 0.929 . S
C4161 C4153 1.433 . S
C4161 N4163 1.384 . S
N4162 C4158 1.427 . S
N4162 C4159 1.384 . S
N4163 C4155 1.427 . S
N4163 C4161 1.384 . S
H4164 C4170 0.930 . S
H4165 C4174 0.930 . S
H4166 C4179 0.929 . S
H4167 C4177 0.929 . S
H4168 C4172 0.929 . S
H4169 C4178 0.929 . S
C4170 H4164 0.930 . S
C4170 C4171 1.367 . S
C4170 C4178 1.378 . S
C4171 C4170 1.367 . S
C4171 C4179 1.433 . S
C4172 H4168 0.929 . S
C4172 C4174 1.378 . S
C4172 C4176 1.350 . S
C4173 C4176 1.463 . S
C4173 C4178 1.350 . S
C4173 N4181 1.427 . S
C4174 H4165 0.930 . S
C4174 C4172 1.378 . S
C4174 C4175 1.367 . S
C4175 C4174 1.367 . S
C4175 C4177 1.433 . S
C4176 C4172 1.350 . S
C4176 C4173 1.463 . S
C4176 N4180 1.427 . S
C4177 H4167 0.929 . S
C4177 C4175 1.433 . S
C4177 N4180 1.384 . S
C4178 H4169 0.929 . S
C4178 C4170 1.378 . S
C4178 C4173 1.350 . S
C4179 H4166 0.929 . S
C4179 C4171 1.433 . S
C4179 N4181 1.384 . S
N4180 C4176 1.427 . S
N4180 C4177 1.384 . S
N4181 C4173 1.427 . S
N4181 C4179 1.384 . S
H4182 C4188 0.930 . S
H4183 C4192 0.930 . S
H4184 C4197 0.929 . S
H4185 C4195 0.929 . S
H4186 C4190 0.929 . S
H4187 C4196 0.929 . S
C4188 H4182 0.930 . S
C4188 C4189 1.367 . S
C4188 C4196 1.378 . S
C4189 C4188 1.367 . S
C4189 C4197 1.433 . S
C4190 H4186 0.929 . S
C4190 C4192 1.378 . S
C4190 C4194 1.350 . S
C4191 C4194 1.463 . S
C4191 C4196 1.350 . S
C4191 N4199 1.427 . S
C4192 H4183 0.930 . S
C4192 C4190 1.378 . S
C4192 C4193 1.367 . S
C4193 C4192 1.367 . S
C4193 C4195 1.433 . S
C4194 C4190 1.350 . S
C4194 C4191 1.463 . S
C4194 N4198 1.427 . S
C4195 H4185 0.929 . S
C4195 C4193 1.433 . S
C4195 N4198 1.384 . S
C4196 H4187 0.929 . S
C4196 C4188 1.378 . S
C4196 C4191 1.350 . S
C4197 H4184 0.929 . S
C4197 C4189 1.433 . S
C4197 N4199 1.384 . S
N4198 C4194 1.427 . S
N4198 C4195 1.384 . S
N4199 C4191 1.427 . S
N4199 C4197 1.384 . S
H4200 C4206 0.930 . S
H4201 C4210 0.930 . S
H4202 C4215 0.929 . S
H4203 C4213 0.929 . S
H4204 C4208 0.929 . S
H4205 C4214 0.929 . S
C4206 H4200 0.930 . S
C4206 C4207 1.367 . S
C4206 C4214 1.378 . S
C4207 C4206 1.367 . S
C4207 C4215 1.433 . S
C4208 H4204 0.929 . S
C4208 C4210 1.378 . S
C4208 C4212 1.350 . S
C4209 C4212 1.463 . S
C4209 C4214 1.350 . S
C4209 N4217 1.427 . S
C4210 H4201 0.930 . S
C4210 C4208 1.378 . S
C4210 C4211 1.367 . S
C4211 C4210 1.367 . S
C4211 C4213 1.433 . S
C4212 C4208 1.350 . S
C4212 C4209 1.463 . S
C4212 N4216 1.427 . S
C4213 H4203 0.929 . S
C4213 C4211 1.433 . S
C4213 N4216 1.384 . S
C4214 H4205 0.929 . S
C4214 C4206 1.378 . S
C4214 C4209 1.350 . S
C4215 H4202 0.929 . S
C4215 C4207 1.433 . S
C4215 N4217 1.384 . S
N4216 C4212 1.427 . S
N4216 C4213 1.384 . S
N4217 C4209 1.427 . S
N4217 C4215 1.384 . S
H4218 C4224 0.930 . S
H4219 C4228 0.930 . S
H4220 C4233 0.929 . S
H4221 C4231 0.929 . S
H4222 C4226 0.929 . S
H4223 C4232 0.929 . S
C4224 H4218 0.930 . S
C4224 C4225 1.367 . S
C4224 C4232 1.378 . S
C4225 C4224 1.367 . S
C4225 C4233 1.433 . S
C4226 H4222 0.929 . S
C4226 C4228 1.378 . S
C4226 C4230 1.350 . S
C4227 C4230 1.463 . S
C4227 C4232 1.350 . S
C4227 N4235 1.427 . S
C4228 H4219 0.930 . S
C4228 C4226 1.378 . S
C4228 C4229 1.367 . S
C4229 C4228 1.367 . S
C4229 C4231 1.433 . S
C4230 C4226 1.350 . S
C4230 C4227 1.463 . S
C4230 N4234 1.427 . S
C4231 H4221 0.929 . S
C4231 C4229 1.433 . S
C4231 N4234 1.384 . S
C4232 H4223 0.929 . S
C4232 C4224 1.378 . S
C4232 C4227 1.350 . S
C4233 H4220 0.929 . S
C4233 C4225 1.433 . S
C4233 N4235 1.384 . S
N4234 C4230 1.427 . S
N4234 C4231 1.384 . S
N4235 C4227 1.427 . S
N4235 C4233 1.384 . S
H4236 C4242 0.930 . S
H4237 C4246 0.930 . S
H4238 C4251 0.929 . S
H4239 C4249 0.929 . S
H4240 C4244 0.929 . S
H4241 C4250 0.929 . S
C4242 H4236 0.930 . S
C4242 C4243 1.367 . S
C4242 C4250 1.378 . S
C4243 C4242 1.367 . S
C4243 C4251 1.433 . S
C4244 H4240 0.929 . S
C4244 C4246 1.378 . S
C4244 C4248 1.350 . S
C4245 C4248 1.463 . S
C4245 C4250 1.350 . S
C4245 N4253 1.427 . S
C4246 H4237 0.930 . S
C4246 C4244 1.378 . S
C4246 C4247 1.367 . S
C4247 C4246 1.367 . S
C4247 C4249 1.433 . S
C4248 C4244 1.350 . S
C4248 C4245 1.463 . S
C4248 N4252 1.427 . S
C4249 H4239 0.929 . S
C4249 C4247 1.433 . S
C4249 N4252 1.384 . S
C4250 H4241 0.929 . S
C4250 C4242 1.378 . S
C4250 C4245 1.350 . S
C4251 H4238 0.929 . S
C4251 C4243 1.433 . S
C4251 N4253 1.384 . S
N4252 C4248 1.427 . S
N4252 C4249 1.384 . S
N4253 C4245 1.427 . S
N4253 C4251 1.384 . S
H4254 C4260 0.930 . S
H4255 C4264 0.930 . S
H4256 C4269 0.929 . S
H4257 C4267 0.929 . S
H4258 C4262 0.929 . S
H4259 C4268 0.929 . S
C4260 H4254 0.930 . S
C4260 C4261 1.367 . S
C4260 C4268 1.378 . S
C4261 C4260 1.367 . S
C4261 C4269 1.433 . S
C4262 H4258 0.929 . S
C4262 C4264 1.378 . S
C4262 C4266 1.350 . S
C4263 C4266 1.463 . S
C4263 C4268 1.350 . S
C4263 N4271 1.427 . S
C4264 H4255 0.930 . S
C4264 C4262 1.378 . S
C4264 C4265 1.367 . S
C4265 C4264 1.367 . S
C4265 C4267 1.433 . S
C4266 C4262 1.350 . S
C4266 C4263 1.463 . S
C4266 N4270 1.427 . S
C4267 H4257 0.929 . S
C4267 C4265 1.433 . S
C4267 N4270 1.384 . S
C4268 H4259 0.929 . S
C4268 C4260 1.378 . S
C4268 C4263 1.350 . S
C4269 H4256 0.929 . S
C4269 C4261 1.433 . S
C4269 N4271 1.384 . S
N4270 C4266 1.427 . S
N4270 C4267 1.384 . S
N4271 C4263 1.427 . S
N4271 C4269 1.384 . S
H4272 C4278 0.930 . S
H4273 C4282 0.930 . S
H4274 C4287 0.929 . S
H4275 C4285 0.929 . S
H4276 C4280 0.929 . S
H4277 C4286 0.929 . S
C4278 H4272 0.930 . S
C4278 C4279 1.367 . S
C4278 C4286 1.378 . S
C4279 C4278 1.367 . S
C4279 C4287 1.433 . S
C4280 H4276 0.929 . S
C4280 C4282 1.378 . S
C4280 C4284 1.350 . S
C4281 C4284 1.463 . S
C4281 C4286 1.350 . S
C4281 N4289 1.427 . S
C4282 H4273 0.930 . S
C4282 C4280 1.378 . S
C4282 C4283 1.367 . S
C4283 C4282 1.367 . S
C4283 C4285 1.433 . S
C4284 C4280 1.350 . S
C4284 C4281 1.463 . S
C4284 N4288 1.427 . S
C4285 H4275 0.929 . S
C4285 C4283 1.433 . S
C4285 N4288 1.384 . S
C4286 H4277 0.929 . S
C4286 C4278 1.378 . S
C4286 C4281 1.350 . S
C4287 H4274 0.929 . S
C4287 C4279 1.433 . S
C4287 N4289 1.384 . S
N4288 C4284 1.427 . S
N4288 C4285 1.384 . S
N4289 C4281 1.427 . S
N4289 C4287 1.384 . S
H4290 C4296 0.930 . S
H4291 C4300 0.930 . S
H4292 C4305 0.929 . S
H4293 C4303 0.929 . S
H4294 C4298 0.929 . S
H4295 C4304 0.929 . S
C4296 H4290 0.930 . S
C4296 C4297 1.367 . S
C4296 C4304 1.378 . S
C4297 C4296 1.367 . S
C4297 C4305 1.433 . S
C4298 H4294 0.929 . S
C4298 C4300 1.378 . S
C4298 C4302 1.350 . S
C4299 C4302 1.463 . S
C4299 C4304 1.350 . S
C4299 N4307 1.427 . S
C4300 H4291 0.930 . S
C4300 C4298 1.378 . S
C4300 C4301 1.367 . S
C4301 C4300 1.367 . S
C4301 C4303 1.433 . S
C4302 C4298 1.350 . S
C4302 C4299 1.463 . S
C4302 N4306 1.427 . S
C4303 H4293 0.929 . S
C4303 C4301 1.433 . S
C4303 N4306 1.384 . S
C4304 H4295 0.929 . S
C4304 C4296 1.378 . S
C4304 C4299 1.350 . S
C4305 H4292 0.929 . S
C4305 C4297 1.433 . S
C4305 N4307 1.384 . S
N4306 C4302 1.427 . S
N4306 C4303 1.384 . S
N4307 C4299 1.427 . S
N4307 C4305 1.384 . S
H4308 C4314 0.930 . S
H4309 C4318 0.930 . S
H4310 C4323 0.929 . S
H4311 C4321 0.929 . S
H4312 C4316 0.929 . S
H4313 C4322 0.929 . S
C4314 H4308 0.930 . S
C4314 C4315 1.367 . S
C4314 C4322 1.378 . S
C4315 C4314 1.367 . S
C4315 C4323 1.433 . S
C4316 H4312 0.929 . S
C4316 C4318 1.378 . S
C4316 C4320 1.350 . S
C4317 C4320 1.463 . S
C4317 C4322 1.350 . S
C4317 N4325 1.427 . S
C4318 H4309 0.930 . S
C4318 C4316 1.378 . S
C4318 C4319 1.367 . S
C4319 C4318 1.367 . S
C4319 C4321 1.433 . S
C4320 C4316 1.350 . S
C4320 C4317 1.463 . S
C4320 N4324 1.427 . S
C4321 H4311 0.929 . S
C4321 C4319 1.433 . S
C4321 N4324 1.384 . S
C4322 H4313 0.929 . S
C4322 C4314 1.378 . S
C4322 C4317 1.350 . S
C4323 H4310 0.929 . S
C4323 C4315 1.433 . S
C4323 N4325 1.384 . S
N4324 C4320 1.427 . S
N4324 C4321 1.384 . S
N4325 C4317 1.427 . S
N4325 C4323 1.384 . S
H4326 C4332 0.930 . S
H4327 C4336 0.930 . S
H4328 C4341 0.929 . S
H4329 C4339 0.929 . S
H4330 C4334 0.929 . S
H4331 C4340 0.929 . S
C4332 H4326 0.930 . S
C4332 C4333 1.367 . S
C4332 C4340 1.378 . S
C4333 C4332 1.367 . S
C4333 C4341 1.433 . S
C4334 H4330 0.929 . S
C4334 C4336 1.378 . S
C4334 C4338 1.350 . S
C4335 C4338 1.463 . S
C4335 C4340 1.350 . S
C4335 N4343 1.427 . S
C4336 H4327 0.930 . S
C4336 C4334 1.378 . S
C4336 C4337 1.367 . S
C4337 C4336 1.367 . S
C4337 C4339 1.433 . S
C4338 C4334 1.350 . S
C4338 C4335 1.463 . S
C4338 N4342 1.427 . S
C4339 H4329 0.929 . S
C4339 C4337 1.433 . S
C4339 N4342 1.384 . S
C4340 H4331 0.929 . S
C4340 C4332 1.378 . S
C4340 C4335 1.350 . S
C4341 H4328 0.929 . S
C4341 C4333 1.433 . S
C4341 N4343 1.384 . S
N4342 C4338 1.427 . S
N4342 C4339 1.384 . S
N4343 C4335 1.427 . S
N4343 C4341 1.384 . S
H4344 C4350 0.930 . S
H4345 C4354 0.930 . S
H4346 C4359 0.929 . S
H4347 C4357 0.929 . S
H4348 C4352 0.929 . S
H4349 C4358 0.929 . S
C4350 H4344 0.930 . S
C4350 C4351 1.367 . S
C4350 C4358 1.378 . S
C4351 C4350 1.367 . S
C4351 C4359 1.433 . S
C4352 H4348 0.929 . S
C4352 C4354 1.378 . S
C4352 C4356 1.350 . S
C4353 C4356 1.463 . S
C4353 C4358 1.350 . S
C4353 N4361 1.427 . S
C4354 H4345 0.930 . S
C4354 C4352 1.378 . S
C4354 C4355 1.367 . S
C4355 C4354 1.367 . S
C4355 C4357 1.433 . S
C4356 C4352 1.350 . S
C4356 C4353 1.463 . S
C4356 N4360 1.427 . S
C4357 H4347 0.929 . S
C4357 C4355 1.433 . S
C4357 N4360 1.384 . S
C4358 H4349 0.929 . S
C4358 C4350 1.378 . S
C4358 C4353 1.350 . S
C4359 H4346 0.929 . S
C4359 C4351 1.433 . S
C4359 N4361 1.384 . S
N4360 C4356 1.427 . S
N4360 C4357 1.384 . S
N4361 C4353 1.427 . S
N4361 C4359 1.384 . S
H4362 C4368 0.930 . S
H4363 C4372 0.930 . S
H4364 C4377 0.929 . S
H4365 C4375 0.929 . S
H4366 C4370 0.929 . S
H4367 C4376 0.929 . S
C4368 H4362 0.930 . S
C4368 C4369 1.367 . S
C4368 C4376 1.378 . S
C4369 C4368 1.367 . S
C4369 C4377 1.433 . S
C4370 H4366 0.929 . S
C4370 C4372 1.378 . S
C4370 C4374 1.350 . S
C4371 C4374 1.463 . S
C4371 C4376 1.350 . S
C4371 N4379 1.427 . S
C4372 H4363 0.930 . S
C4372 C4370 1.378 . S
C4372 C4373 1.367 . S
C4373 C4372 1.367 . S
C4373 C4375 1.433 . S
C4374 C4370 1.350 . S
C4374 C4371 1.463 . S
C4374 N4378 1.427 . S
C4375 H4365 0.929 . S
C4375 C4373 1.433 . S
C4375 N4378 1.384 . S
C4376 H4367 0.929 . S
C4376 C4368 1.378 . S
C4376 C4371 1.350 . S
C4377 H4364 0.929 . S
C4377 C4369 1.433 . S
C4377 N4379 1.384 . S
N4378 C4374 1.427 . S
N4378 C4375 1.384 . S
N4379 C4371 1.427 . S
N4379 C4377 1.384 . S
H4380 C4386 0.930 . S
H4381 C4390 0.930 . S
H4382 C4395 0.929 . S
H4383 C4393 0.929 . S
H4384 C4388 0.929 . S
H4385 C4394 0.929 . S
C4386 H4380 0.930 . S
C4386 C4387 1.367 . S
C4386 C4394 1.378 . S
C4387 C4386 1.367 . S
C4387 C4395 1.433 . S
C4388 H4384 0.929 . S
C4388 C4390 1.378 . S
C4388 C4392 1.350 . S
C4389 C4392 1.463 . S
C4389 C4394 1.350 . S
C4389 N4397 1.427 . S
C4390 H4381 0.930 . S
C4390 C4388 1.378 . S
C4390 C4391 1.367 . S
C4391 C4390 1.367 . S
C4391 C4393 1.433 . S
C4392 C4388 1.350 . S
C4392 C4389 1.463 . S
C4392 N4396 1.427 . S
C4393 H4383 0.929 . S
C4393 C4391 1.433 . S
C4393 N4396 1.384 . S
C4394 H4385 0.929 . S
C4394 C4386 1.378 . S
C4394 C4389 1.350 . S
C4395 H4382 0.929 . S
C4395 C4387 1.433 . S
C4395 N4397 1.384 . S
N4396 C4392 1.427 . S
N4396 C4393 1.384 . S
N4397 C4389 1.427 . S
N4397 C4395 1.384 . S
H4398 C4404 0.930 . S
H4399 C4408 0.930 . S
H4400 C4413 0.929 . S
H4401 C4411 0.929 . S
H4402 C4406 0.929 . S
H4403 C4412 0.929 . S
C4404 H4398 0.930 . S
C4404 C4405 1.367 . S
C4404 C4412 1.378 . S
C4405 C4404 1.367 . S
C4405 C4413 1.433 . S
C4406 H4402 0.929 . S
C4406 C4408 1.378 . S
C4406 C4410 1.350 . S
C4407 C4410 1.463 . S
C4407 C4412 1.350 . S
C4407 N4415 1.427 . S
C4408 H4399 0.930 . S
C4408 C4406 1.378 . S
C4408 C4409 1.367 . S
C4409 C4408 1.367 . S
C4409 C4411 1.433 . S
C4410 C4406 1.350 . S
C4410 C4407 1.463 . S
C4410 N4414 1.427 . S
C4411 H4401 0.929 . S
C4411 C4409 1.433 . S
C4411 N4414 1.384 . S
C4412 H4403 0.929 . S
C4412 C4404 1.378 . S
C4412 C4407 1.350 . S
C4413 H4400 0.929 . S
C4413 C4405 1.433 . S
C4413 N4415 1.384 . S
N4414 C4410 1.427 . S
N4414 C4411 1.384 . S
N4415 C4407 1.427 . S
N4415 C4413 1.384 . S
H4416 C4422 0.930 . S
H4417 C4426 0.930 . S
H4418 C4431 0.929 . S
H4419 C4429 0.929 . S
H4420 C4424 0.929 . S
H4421 C4430 0.929 . S
C4422 H4416 0.930 . S
C4422 C4423 1.367 . S
C4422 C4430 1.378 . S
C4423 C4422 1.367 . S
C4423 C4431 1.433 . S
C4424 H4420 0.929 . S
C4424 C4426 1.378 . S
C4424 C4428 1.350 . S
C4425 C4428 1.463 . S
C4425 C4430 1.350 . S
C4425 N4433 1.427 . S
C4426 H4417 0.930 . S
C4426 C4424 1.378 . S
C4426 C4427 1.367 . S
C4427 C4426 1.367 . S
C4427 C4429 1.433 . S
C4428 C4424 1.350 . S
C4428 C4425 1.463 . S
C4428 N4432 1.427 . S
C4429 H4419 0.929 . S
C4429 C4427 1.433 . S
C4429 N4432 1.384 . S
C4430 H4421 0.929 . S
C4430 C4422 1.378 . S
C4430 C4425 1.350 . S
C4431 H4418 0.929 . S
C4431 C4423 1.433 . S
C4431 N4433 1.384 . S
N4432 C4428 1.427 . S
N4432 C4429 1.384 . S
N4433 C4425 1.427 . S
N4433 C4431 1.384 . S
H4434 C4440 0.930 . S
H4435 C4444 0.930 . S
H4436 C4449 0.929 . S
H4437 C4447 0.929 . S
H4438 C4442 0.929 . S
H4439 C4448 0.929 . S
C4440 H4434 0.930 . S
C4440 C4441 1.367 . S
C4440 C4448 1.378 . S
C4441 C4440 1.367 . S
C4441 C4449 1.433 . S
C4442 H4438 0.929 . S
C4442 C4444 1.378 . S
C4442 C4446 1.350 . S
C4443 C4446 1.463 . S
C4443 C4448 1.350 . S
C4443 N4451 1.427 . S
C4444 H4435 0.930 . S
C4444 C4442 1.378 . S
C4444 C4445 1.367 . S
C4445 C4444 1.367 . S
C4445 C4447 1.433 . S
C4446 C4442 1.350 . S
C4446 C4443 1.463 . S
C4446 N4450 1.427 . S
C4447 H4437 0.929 . S
C4447 C4445 1.433 . S
C4447 N4450 1.384 . S
C4448 H4439 0.929 . S
C4448 C4440 1.378 . S
C4448 C4443 1.350 . S
C4449 H4436 0.929 . S
C4449 C4441 1.433 . S
C4449 N4451 1.384 . S
N4450 C4446 1.427 . S
N4450 C4447 1.384 . S
N4451 C4443 1.427 . S
N4451 C4449 1.384 . S
H4452 C4458 0.930 . S
H4453 C4462 0.930 . S
H4454 C4467 0.929 . S
H4455 C4465 0.929 . S
H4456 C4460 0.929 . S
H4457 C4466 0.929 . S
C4458 H4452 0.930 . S
C4458 C4459 1.367 . S
C4458 C4466 1.378 . S
C4459 C4458 1.367 . S
C4459 C4467 1.433 . S
C4460 H4456 0.929 . S
C4460 C4462 1.378 . S
C4460 C4464 1.350 . S
C4461 C4464 1.463 . S
C4461 C4466 1.350 . S
C4461 N4469 1.427 . S
C4462 H4453 0.930 . S
C4462 C4460 1.378 . S
C4462 C4463 1.367 . S
C4463 C4462 1.367 . S
C4463 C4465 1.433 . S
C4464 C4460 1.350 . S
C4464 C4461 1.463 . S
C4464 N4468 1.427 . S
C4465 H4455 0.929 . S
C4465 C4463 1.433 . S
C4465 N4468 1.384 . S
C4466 H4457 0.929 . S
C4466 C4458 1.378 . S
C4466 C4461 1.350 . S
C4467 H4454 0.929 . S
C4467 C4459 1.433 . S
C4467 N4469 1.384 . S
N4468 C4464 1.427 . S
N4468 C4465 1.384 . S
N4469 C4461 1.427 . S
N4469 C4467 1.384 . S
H4470 C4476 0.930 . S
H4471 C4480 0.930 . S
H4472 C4485 0.929 . S
H4473 C4483 0.929 . S
H4474 C4478 0.929 . S
H4475 C4484 0.929 . S
C4476 H4470 0.930 . S
C4476 C4477 1.367 . S
C4476 C4484 1.378 . S
C4477 C4476 1.367 . S
C4477 C4485 1.433 . S
C4478 H4474 0.929 . S
C4478 C4480 1.378 . S
C4478 C4482 1.350 . S
C4479 C4482 1.463 . S
C4479 C4484 1.350 . S
C4479 N4487 1.427 . S
C4480 H4471 0.930 . S
C4480 C4478 1.378 . S
C4480 C4481 1.367 . S
C4481 C4480 1.367 . S
C4481 C4483 1.433 . S
C4482 C4478 1.350 . S
C4482 C4479 1.463 . S
C4482 N4486 1.427 . S
C4483 H4473 0.929 . S
C4483 C4481 1.433 . S
C4483 N4486 1.384 . S
C4484 H4475 0.929 . S
C4484 C4476 1.378 . S
C4484 C4479 1.350 . S
C4485 H4472 0.929 . S
C4485 C4477 1.433 . S
C4485 N4487 1.384 . S
N4486 C4482 1.427 . S
N4486 C4483 1.384 . S
N4487 C4479 1.427 . S
N4487 C4485 1.384 . S
H4488 C4494 0.930 . S
H4489 C4498 0.930 . S
H4490 C4503 0.929 . S
H4491 C4501 0.929 . S
H4492 C4496 0.929 . S
H4493 C4502 0.929 . S
C4494 H4488 0.930 . S
C4494 C4495 1.367 . S
C4494 C4502 1.378 . S
C4495 C4494 1.367 . S
C4495 C4503 1.433 . S
C4496 H4492 0.929 . S
C4496 C4498 1.378 . S
C4496 C4500 1.350 . S
C4497 C4500 1.463 . S
C4497 C4502 1.350 . S
C4497 N4505 1.427 . S
C4498 H4489 0.930 . S
C4498 C4496 1.378 . S
C4498 C4499 1.367 . S
C4499 C4498 1.367 . S
C4499 C4501 1.433 . S
C4500 C4496 1.350 . S
C4500 C4497 1.463 . S
C4500 N4504 1.427 . S
C4501 H4491 0.929 . S
C4501 C4499 1.433 . S
C4501 N4504 1.384 . S
C4502 H4493 0.929 . S
C4502 C4494 1.378 . S
C4502 C4497 1.350 . S
C4503 H4490 0.929 . S
C4503 C4495 1.433 . S
C4503 N4505 1.384 . S
N4504 C4500 1.427 . S
N4504 C4501 1.384 . S
N4505 C4497 1.427 . S
N4505 C4503 1.384 . S
H4506 C4512 0.930 . S
H4507 C4516 0.930 . S
H4508 C4521 0.929 . S
H4509 C4519 0.929 . S
H4510 C4514 0.929 . S
H4511 C4520 0.929 . S
C4512 H4506 0.930 . S
C4512 C4513 1.367 . S
C4512 C4520 1.378 . S
C4513 C4512 1.367 . S
C4513 C4521 1.433 . S
C4514 H4510 0.929 . S
C4514 C4516 1.378 . S
C4514 C4518 1.350 . S
C4515 C4518 1.463 . S
C4515 C4520 1.350 . S
C4515 N4523 1.427 . S
C4516 H4507 0.930 . S
C4516 C4514 1.378 . S
C4516 C4517 1.367 . S
C4517 C4516 1.367 . S
C4517 C4519 1.433 . S
C4518 C4514 1.350 . S
C4518 C4515 1.463 . S
C4518 N4522 1.427 . S
C4519 H4509 0.929 . S
C4519 C4517 1.433 . S
C4519 N4522 1.384 . S
C4520 H4511 0.929 . S
C4520 C4512 1.378 . S
C4520 C4515 1.350 . S
C4521 H4508 0.929 . S
C4521 C4513 1.433 . S
C4521 N4523 1.384 . S
N4522 C4518 1.427 . S
N4522 C4519 1.384 . S
N4523 C4515 1.427 . S
N4523 C4521 1.384 . S
H4524 C4530 0.930 . S
H4525 C4534 0.930 . S
H4526 C4539 0.929 . S
H4527 C4537 0.929 . S
H4528 C4532 0.929 . S
H4529 C4538 0.929 . S
C4530 H4524 0.930 . S
C4530 C4531 1.367 . S
C4530 C4538 1.378 . S
C4531 C4530 1.367 . S
C4531 C4539 1.433 . S
C4532 H4528 0.929 . S
C4532 C4534 1.378 . S
C4532 C4536 1.350 . S
C4533 C4536 1.463 . S
C4533 C4538 1.350 . S
C4533 N4541 1.427 . S
C4534 H4525 0.930 . S
C4534 C4532 1.378 . S
C4534 C4535 1.367 . S
C4535 C4534 1.367 . S
C4535 C4537 1.433 . S
C4536 C4532 1.350 . S
C4536 C4533 1.463 . S
C4536 N4540 1.427 . S
C4537 H4527 0.929 . S
C4537 C4535 1.433 . S
C4537 N4540 1.384 . S
C4538 H4529 0.929 . S
C4538 C4530 1.378 . S
C4538 C4533 1.350 . S
C4539 H4526 0.929 . S
C4539 C4531 1.433 . S
C4539 N4541 1.384 . S
N4540 C4536 1.427 . S
N4540 C4537 1.384 . S
N4541 C4533 1.427 . S
N4541 C4539 1.384 . S
H4542 C4548 0.930 . S
H4543 C4552 0.930 . S
H4544 C4557 0.929 . S
H4545 C4555 0.929 . S
H4546 C4550 0.929 . S
H4547 C4556 0.929 . S
C4548 H4542 0.930 . S
C4548 C4549 1.367 . S
C4548 C4556 1.378 . S
C4549 C4548 1.367 . S
C4549 C4557 1.433 . S
C4550 H4546 0.929 . S
C4550 C4552 1.378 . S
C4550 C4554 1.350 . S
C4551 C4554 1.463 . S
C4551 C4556 1.350 . S
C4551 N4559 1.427 . S
C4552 H4543 0.930 . S
C4552 C4550 1.378 . S
C4552 C4553 1.367 . S
C4553 C4552 1.367 . S
C4553 C4555 1.433 . S
C4554 C4550 1.350 . S
C4554 C4551 1.463 . S
C4554 N4558 1.427 . S
C4555 H4545 0.929 . S
C4555 C4553 1.433 . S
C4555 N4558 1.384 . S
C4556 H4547 0.929 . S
C4556 C4548 1.378 . S
C4556 C4551 1.350 . S
C4557 H4544 0.929 . S
C4557 C4549 1.433 . S
C4557 N4559 1.384 . S
N4558 C4554 1.427 . S
N4558 C4555 1.384 . S
N4559 C4551 1.427 . S
N4559 C4557 1.384 . S
H4560 C4566 0.930 . S
H4561 C4570 0.930 . S
H4562 C4575 0.929 . S
H4563 C4573 0.929 . S
H4564 C4568 0.929 . S
H4565 C4574 0.929 . S
C4566 H4560 0.930 . S
C4566 C4567 1.367 . S
C4566 C4574 1.378 . S
C4567 C4566 1.367 . S
C4567 C4575 1.433 . S
C4568 H4564 0.929 . S
C4568 C4570 1.378 . S
C4568 C4572 1.350 . S
C4569 C4572 1.463 . S
C4569 C4574 1.350 . S
C4569 N4577 1.427 . S
C4570 H4561 0.930 . S
C4570 C4568 1.378 . S
C4570 C4571 1.367 . S
C4571 C4570 1.367 . S
C4571 C4573 1.433 . S
C4572 C4568 1.350 . S
C4572 C4569 1.463 . S
C4572 N4576 1.427 . S
C4573 H4563 0.929 . S
C4573 C4571 1.433 . S
C4573 N4576 1.384 . S
C4574 H4565 0.929 . S
C4574 C4566 1.378 . S
C4574 C4569 1.350 . S
C4575 H4562 0.929 . S
C4575 C4567 1.433 . S
C4575 N4577 1.384 . S
N4576 C4572 1.427 . S
N4576 C4573 1.384 . S
N4577 C4569 1.427 . S
N4577 C4575 1.384 . S
H4578 C4584 0.930 . S
H4579 C4588 0.930 . S
H4580 C4593 0.929 . S
H4581 C4591 0.929 . S
H4582 C4586 0.929 . S
H4583 C4592 0.929 . S
C4584 H4578 0.930 . S
C4584 C4585 1.367 . S
C4584 C4592 1.378 . S
C4585 C4584 1.367 . S
C4585 C4593 1.433 . S
C4586 H4582 0.929 . S
C4586 C4588 1.378 . S
C4586 C4590 1.350 . S
C4587 C4590 1.463 . S
C4587 C4592 1.350 . S
C4587 N4595 1.427 . S
C4588 H4579 0.930 . S
C4588 C4586 1.378 . S
C4588 C4589 1.367 . S
C4589 C4588 1.367 . S
C4589 C4591 1.433 . S
C4590 C4586 1.350 . S
C4590 C4587 1.463 . S
C4590 N4594 1.427 . S
C4591 H4581 0.929 . S
C4591 C4589 1.433 . S
C4591 N4594 1.384 . S
C4592 H4583 0.929 . S
C4592 C4584 1.378 . S
C4592 C4587 1.350 . S
C4593 H4580 0.929 . S
C4593 C4585 1.433 . S
C4593 N4595 1.384 . S
N4594 C4590 1.427 . S
N4594 C4591 1.384 . S
N4595 C4587 1.427 . S
N4595 C4593 1.384 . S
H4596 C4602 0.930 . S
H4597 C4606 0.930 . S
H4598 C4611 0.929 . S
H4599 C4609 0.929 . S
H4600 C4604 0.929 . S
H4601 C4610 0.929 . S
C4602 H4596 0.930 . S
C4602 C4603 1.367 . S
C4602 C4610 1.378 . S
C4603 C4602 1.367 . S
C4603 C4611 1.433 . S
C4604 H4600 0.929 . S
C4604 C4606 1.378 . S
C4604 C4608 1.350 . S
C4605 C4608 1.463 . S
C4605 C4610 1.350 . S
C4605 N4613 1.427 . S
C4606 H4597 0.930 . S
C4606 C4604 1.378 . S
C4606 C4607 1.367 . S
C4607 C4606 1.367 . S
C4607 C4609 1.433 . S
C4608 C4604 1.350 . S
C4608 C4605 1.463 . S
C4608 N4612 1.427 . S
C4609 H4599 0.929 . S
C4609 C4607 1.433 . S
C4609 N4612 1.384 . S
C4610 H4601 0.929 . S
C4610 C4602 1.378 . S
C4610 C4605 1.350 . S
C4611 H4598 0.929 . S
C4611 C4603 1.433 . S
C4611 N4613 1.384 . S
N4612 C4608 1.427 . S
N4612 C4609 1.384 . S
N4613 C4605 1.427 . S
N4613 C4611 1.384 . S
H4614 C4620 0.930 . S
H4615 C4624 0.930 . S
H4616 C4629 0.929 . S
H4617 C4627 0.929 . S
H4618 C4622 0.929 . S
H4619 C4628 0.929 . S
C4620 H4614 0.930 . S
C4620 C4621 1.367 . S
C4620 C4628 1.378 . S
C4621 C4620 1.367 . S
C4621 C4629 1.433 . S
C4622 H4618 0.929 . S
C4622 C4624 1.378 . S
C4622 C4626 1.350 . S
C4623 C4626 1.463 . S
C4623 C4628 1.350 . S
C4623 N4631 1.427 . S
C4624 H4615 0.930 . S
C4624 C4622 1.378 . S
C4624 C4625 1.367 . S
C4625 C4624 1.367 . S
C4625 C4627 1.433 . S
C4626 C4622 1.350 . S
C4626 C4623 1.463 . S
C4626 N4630 1.427 . S
C4627 H4617 0.929 . S
C4627 C4625 1.433 . S
C4627 N4630 1.384 . S
C4628 H4619 0.929 . S
C4628 C4620 1.378 . S
C4628 C4623 1.350 . S
C4629 H4616 0.929 . S
C4629 C4621 1.433 . S
C4629 N4631 1.384 . S
N4630 C4626 1.427 . S
N4630 C4627 1.384 . S
N4631 C4623 1.427 . S
N4631 C4629 1.384 . S
H4632 C4638 0.930 . S
H4633 C4642 0.930 . S
H4634 C4647 0.929 . S
H4635 C4645 0.929 . S
H4636 C4640 0.929 . S
H4637 C4646 0.929 . S
C4638 H4632 0.930 . S
C4638 C4639 1.367 . S
C4638 C4646 1.378 . S
C4639 C4638 1.367 . S
C4639 C4647 1.433 . S
C4640 H4636 0.929 . S
C4640 C4642 1.378 . S
C4640 C4644 1.350 . S
C4641 C4644 1.463 . S
C4641 C4646 1.350 . S
C4641 N4649 1.427 . S
C4642 H4633 0.930 . S
C4642 C4640 1.378 . S
C4642 C4643 1.367 . S
C4643 C4642 1.367 . S
C4643 C4645 1.433 . S
C4644 C4640 1.350 . S
C4644 C4641 1.463 . S
C4644 N4648 1.427 . S
C4645 H4635 0.929 . S
C4645 C4643 1.433 . S
C4645 N4648 1.384 . S
C4646 H4637 0.929 . S
C4646 C4638 1.378 . S
C4646 C4641 1.350 . S
C4647 H4634 0.929 . S
C4647 C4639 1.433 . S
C4647 N4649 1.384 . S
N4648 C4644 1.427 . S
N4648 C4645 1.384 . S
N4649 C4641 1.427 . S
N4649 C4647 1.384 . S
H4650 C4656 0.930 . S
H4651 C4660 0.930 . S
H4652 C4665 0.929 . S
H4653 C4663 0.929 . S
H4654 C4658 0.929 . S
H4655 C4664 0.929 . S
C4656 H4650 0.930 . S
C4656 C4657 1.367 . S
C4656 C4664 1.378 . S
C4657 C4656 1.367 . S
C4657 C4665 1.433 . S
C4658 H4654 0.929 . S
C4658 C4660 1.378 . S
C4658 C4662 1.350 . S
C4659 C4662 1.463 . S
C4659 C4664 1.350 . S
C4659 N4667 1.427 . S
C4660 H4651 0.930 . S
C4660 C4658 1.378 . S
C4660 C4661 1.367 . S
C4661 C4660 1.367 . S
C4661 C4663 1.433 . S
C4662 C4658 1.350 . S
C4662 C4659 1.463 . S
C4662 N4666 1.427 . S
C4663 H4653 0.929 . S
C4663 C4661 1.433 . S
C4663 N4666 1.384 . S
C4664 H4655 0.929 . S
C4664 C4656 1.378 . S
C4664 C4659 1.350 . S
C4665 H4652 0.929 . S
C4665 C4657 1.433 . S
C4665 N4667 1.384 . S
N4666 C4662 1.427 . S
N4666 C4663 1.384 . S
N4667 C4659 1.427 . S
N4667 C4665 1.384 . S
H4668 C4674 0.930 . S
H4669 C4678 0.930 . S
H4670 C4683 0.929 . S
H4671 C4681 0.929 . S
H4672 C4676 0.929 . S
H4673 C4682 0.929 . S
C4674 H4668 0.930 . S
C4674 C4675 1.367 . S
C4674 C4682 1.378 . S
C4675 C4674 1.367 . S
C4675 C4683 1.433 . S
C4676 H4672 0.929 . S
C4676 C4678 1.378 . S
C4676 C4680 1.350 . S
C4677 C4680 1.463 . S
C4677 C4682 1.350 . S
C4677 N4685 1.427 . S
C4678 H4669 0.930 . S
C4678 C4676 1.378 . S
C4678 C4679 1.367 . S
C4679 C4678 1.367 . S
C4679 C4681 1.433 . S
C4680 C4676 1.350 . S
C4680 C4677 1.463 . S
C4680 N4684 1.427 . S
C4681 H4671 0.929 . S
C4681 C4679 1.433 . S
C4681 N4684 1.384 . S
C4682 H4673 0.929 . S
C4682 C4674 1.378 . S
C4682 C4677 1.350 . S
C4683 H4670 0.929 . S
C4683 C4675 1.433 . S
C4683 N4685 1.384 . S
N4684 C4680 1.427 . S
N4684 C4681 1.384 . S
N4685 C4677 1.427 . S
N4685 C4683 1.384 . S
H4686 C4692 0.930 . S
H4687 C4696 0.930 . S
H4688 C4701 0.929 . S
H4689 C4699 0.929 . S
H4690 C4694 0.929 . S
H4691 C4700 0.929 . S
C4692 H4686 0.930 . S
C4692 C4693 1.367 . S
C4692 C4700 1.378 . S
C4693 C4692 1.367 . S
C4693 C4701 1.433 . S
C4694 H4690 0.929 . S
C4694 C4696 1.378 . S
C4694 C4698 1.350 . S
C4695 C4698 1.463 . S
C4695 C4700 1.350 . S
C4695 N4703 1.427 . S
C4696 H4687 0.930 . S
C4696 C4694 1.378 . S
C4696 C4697 1.367 . S
C4697 C4696 1.367 . S
C4697 C4699 1.433 . S
C4698 C4694 1.350 . S
C4698 C4695 1.463 . S
C4698 N4702 1.427 . S
C4699 H4689 0.929 . S
C4699 C4697 1.433 . S
C4699 N4702 1.384 . S
C4700 H4691 0.929 . S
C4700 C4692 1.378 . S
C4700 C4695 1.350 . S
C4701 H4688 0.929 . S
C4701 C4693 1.433 . S
C4701 N4703 1.384 . S
N4702 C4698 1.427 . S
N4702 C4699 1.384 . S
N4703 C4695 1.427 . S
N4703 C4701 1.384 . S
C1255 C10 1.569 . S
C1259 C562 1.591 . S
C1273 C577 1.547 . S
C1277 C23 1.568 . S
C1291 C36 1.559 . S
C1295 C536 1.592 . S
C1309 C1175 1.537 . S
C1313 C49 1.560 . S
C1327 C1212 1.591 . S
C1331 C62 1.566 . S
C1345 C1227 1.540 . S
C1349 C75 1.559 . S
C1363 C1147 1.592 . S
C1367 C88 1.563 . S
C1381 C1240 1.548 . S
C1385 C101 1.562 . S
C1399 C114 1.559 . S
C1403 C341 1.592 . S
C1417 C978 1.590 . S
C1421 C127 1.568 . S
C1435 C315 1.591 . S
C1439 C140 1.569 . S
C1453 C952 1.592 . S
C1457 C153 1.564 . S
C1471 C166 1.564 . S
C1475 C393 1.592 . S
C1489 C179 1.562 . S
C1493 C1030 1.592 . S
C1507 C192 1.559 . S
C1511 C367 1.592 . S
C1525 C205 1.568 . S
C1529 C1004 1.590 . S
C1543 C1097 1.539 . S
C1547 C218 1.560 . S
C1561 C231 1.569 . S
C1565 C421 1.543 . S
C1579 C244 1.564 . S
C1583 C1056 1.591 . S
C1597 C447 1.536 . S
C1601 C257 1.562 . S
C1615 C458 1.590 . S
C1619 C270 1.567 . S
C1633 C1123 1.537 . S
C1637 C283 1.561 . S
C1651 C296 1.566 . S
C1655 C1134 1.590 . S
C1669 C1108 1.592 . S
C1673 C309 1.560 . S
C1687 C250 1.548 . S
C1691 C322 1.584 . S
C1705 C335 1.584 . S
C1709 C263 1.546 . S
C1723 C348 1.582 . S
C1727 C224 1.544 . S
C1741 C361 1.581 . S
C1745 C861 1.543 . S
C1759 C900 1.539 . S
C1763 C374 1.579 . S
C1777 C387 1.584 . S
C1781 C913 1.548 . S
C1795 C835 1.542 . S
C1799 C400 1.581 . S
C1813 C926 1.537 . S
C1817 C413 1.579 . S
C1831 C417 1.568 . S
C1835 C29 1.539 . S
C1849 C666 1.537 . S
C1853 C439 1.579 . S
C1867 C443 1.569 . S
C1871 C3 1.545 . S
C1885 C640 1.537 . S
C1889 C465 1.579 . S
C1903 C469 1.568 . S
C1907 C81 1.539 . S
C1921 C491 1.579 . S
C1925 C718 1.539 . S
C1939 C55 1.536 . S
C1943 C495 1.563 . S
C1957 C692 1.540 . S
C1961 C517 1.580 . S
C1975 C783 1.537 . S
C1979 C530 1.579 . S
C1993 C107 1.536 . S
C1997 C543 1.579 . S
C2011 C744 1.538 . S
C2015 C547 1.560 . S
C2029 C569 1.580 . S
C2033 C133 1.542 . S
C2047 C573 1.565 . S
C2051 C146 1.549 . S
C2065 C595 1.584 . S
C2069 C809 1.547 . S
C2083 C599 1.569 . S
C2087 C822 1.542 . S
C2101 C612 1.568 . S
C2105 C796 1.546 . S
C2119 C1186 1.590 . S
C2123 C634 1.567 . S
C2137 C1201 1.546 . S
C2141 C647 1.561 . S
C2155 C1160 1.592 . S
C2159 C660 1.561 . S
C2173 C673 1.564 . S
C2177 C551 1.549 . S
C2191 C686 1.569 . S
C2195 C588 1.591 . S
C2209 C699 1.567 . S
C2213 C603 1.548 . S
C2227 C523 1.591 . S
C2231 C712 1.564 . S
C2245 C616 1.546 . S
C2249 C725 1.569 . S
C2263 C738 1.562 . S
C2267 C965 1.591 . S
C2281 C354 1.592 . S
C2285 C751 1.565 . S
C2299 C764 1.566 . S
C2303 C939 1.591 . S
C2317 C328 1.591 . S
C2321 C777 1.560 . S
C2335 C790 1.569 . S
C2339 C1017 1.591 . S
C2353 C406 1.590 . S
C2357 C803 1.568 . S
C2371 C816 1.566 . S
C2375 C991 1.591 . S
C2389 C829 1.561 . S
C2393 C380 1.592 . S
C2407 C842 1.567 . S
C2411 C473 1.548 . S
C2425 C1045 1.536 . S
C2429 C855 1.563 . S
C2443 C868 1.567 . S
C2447 C432 1.591 . S
C2461 C881 1.562 . S
C2465 C1071 1.536 . S
C2479 C894 1.559 . S
C2483 C1082 1.592 . S
C2497 C499 1.542 . S
C2501 C907 1.559 . S
C2515 C510 1.591 . S
C2519 C920 1.568 . S
C2533 C933 1.560 . S
C2537 C484 1.591 . S
C2551 C946 1.579 . S
C2555 C874 1.536 . S
C2569 C959 1.582 . S
C2573 C887 1.543 . S
C2587 C972 1.580 . S
C2591 C848 1.538 . S
C2605 C237 1.537 . S
C2609 C985 1.579 . S
C2623 C276 1.543 . S
C2627 C998 1.582 . S
C2641 C1011 1.581 . S
C2645 C289 1.539 . S
C2659 C211 1.542 . S
C2663 C1024 1.581 . S
C2677 C302 1.548 . S
C2681 C1037 1.584 . S
C2695 C1041 1.559 . S
C2699 C653 1.540 . S
C2713 C42 1.547 . S
C2717 C1063 1.583 . S
C2731 C1067 1.559 . S
C2735 C627 1.543 . S
C2749 C16 1.543 . S
C2753 C1089 1.581 . S
C2767 C705 1.540 . S
C2771 C1093 1.559 . S
C2785 C94 1.542 . S
C2789 C1115 1.582 . S
C2803 C1119 1.563 . S
C2807 C679 1.548 . S
C2821 C68 1.545 . S
C2825 C1141 1.583 . S
C2839 C159 1.549 . S
C2843 C1154 1.584 . S
C2857 C1167 1.580 . S
C2861 C731 1.540 . S
C2875 C1171 1.559 . S
C2879 C120 1.543 . S
C2893 C1193 1.579 . S
C2897 C757 1.538 . S
C2911 C770 1.544 . S
C2915 C1197 1.560 . S
C2929 C1219 1.583 . S
C2933 C185 1.547 . S
C2947 C198 1.536 . S
C2951 C1223 1.563 . S
C2965 C1236 1.562 . S
C2969 C172 1.547 . S
C2983 C57 1.659 . S
C2987 C5 1.661 . S
C3001 C18 1.659 . S
C3005 C70 1.661 . S
C3019 C31 1.651 . S
C3023 C83 1.653 . S
C3037 C96 1.661 . S
C3041 C44 1.659 . S
C3055 C187 1.652 . S
C3059 C109 1.654 . S
C3073 C122 1.657 . S
C3077 C200 1.654 . S
C3091 C135 1.652 . S
C3095 C161 1.655 . S
C3109 C174 1.651 . S
C3113 C148 1.651 . S
C3127 C902 1.659 . S
C3131 C213 1.656 . S
C3145 C226 1.652 . S
C3149 C876 1.651 . S
C3163 C265 1.651 . S
C3167 C239 1.653 . S
C3181 C850 1.653 . S
C3185 C252 1.656 . S
C3199 C837 1.651 . S
C3203 C278 1.652 . S
C3217 C291 1.661 . S
C3221 C928 1.659 . S
C3235 C915 1.653 . S
C3239 C304 1.656 . S
C3253 C317 1.699 . S
C3257 C369 1.699 . S
C3271 C382 1.699 . S
C3275 C330 1.699 . S
C3289 C395 1.699 . S
C3293 C343 1.699 . S
C3307 C408 1.699 . S
C3311 C356 1.699 . S
C3325 C419 1.656 . S
C3329 C497 1.660 . S
C3343 C512 1.699 . S
C3347 C434 1.699 . S
C3361 C471 1.653 . S
C3365 C445 1.656 . S
C3379 C486 1.699 . S
C3383 C460 1.699 . S
C3397 C1214 1.699 . S
C3401 C525 1.699 . S
C3415 C538 1.699 . S
C3419 C1188 1.699 . S
C3433 C575 1.651 . S
C3437 C549 1.651 . S
C3451 C564 1.699 . S
C3455 C1162 1.699 . S
C3469 C590 1.699 . S
C3473 C1149 1.699 . S
C3487 C1238 1.656 . S
C3491 C601 1.659 . S
C3505 C614 1.657 . S
C3509 C1225 1.654 . S
C3523 C629 1.662 . S
C3527 C681 1.662 . S
C3541 C642 1.652 . S
C3545 C694 1.654 . S
C3559 C707 1.653 . S
C3563 C655 1.651 . S
C3577 C668 1.652 . S
C3581 C720 1.654 . S
C3595 C811 1.651 . S
C3599 C733 1.651 . S
C3613 C824 1.652 . S
C3617 C746 1.655 . S
C3631 C759 1.662 . S
C3635 C785 1.660 . S
C3649 C772 1.657 . S
C3653 C798 1.654 . S
C3667 C889 1.657 . S
C3671 C863 1.660 . S
C3685 C993 1.699 . S
C3689 C941 1.699 . S
C3703 C954 1.699 . S
C3707 C1006 1.699 . S
C3721 C967 1.699 . S
C3725 C1019 1.699 . S
C3739 C980 1.699 . S
C3743 C1032 1.699 . S
C3757 C1043 1.655 . S
C3761 C1121 1.652 . S
C3775 C1058 1.699 . S
C3779 C1136 1.699 . S
C3793 C1069 1.651 . S
C3797 C1095 1.651 . S
C3811 C1084 1.699 . S
C3815 C1110 1.699 . S
C3829 C1199 1.658 . S
C3833 C1173 1.661 . S
C3847 C118 1.541 . S
C3851 C1 1.544 . S
C3865 C131 1.541 . S
C3869 C14 1.544 . S
C3883 C144 1.550 . S
C3887 C27 1.549 . S
C3901 C40 1.535 . S
C3905 C105 1.535 . S
C3919 C196 1.548 . S
C3923 C53 1.546 . S
C3937 C157 1.542 . S
C3941 C66 1.539 . S
C3955 C79 1.549 . S
C3959 C170 1.548 . S
C3973 C92 1.548 . S
C3977 C183 1.546 . S
C3991 C209 1.535 . S
C3995 C235 1.535 . S
C4009 C222 1.549 . S
C4013 C911 1.548 . S
C4027 C248 1.535 . S
C4031 C924 1.535 . S
C4045 C898 1.549 . S
C4049 C261 1.548 . S
C4063 C274 1.535 . S
C4067 C885 1.536 . S
C4081 C287 1.540 . S
C4085 C846 1.538 . S
C4099 C300 1.542 . S
C4103 C872 1.545 . S
C4117 C313 1.591 . S
C4121 C430 1.594 . S
C4135 C326 1.590 . S
C4139 C452 1.547 . S
C4153 C339 1.593 . S
C4157 C456 1.593 . S
C4171 C352 1.594 . S
C4175 C426 1.546 . S
C4189 C365 1.588 . S
C4193 C508 1.592 . S
C4207 C478 1.535 . S
C4211 C378 1.589 . S
C4225 C391 1.588 . S
C4229 C482 1.592 . S
C4243 C404 1.588 . S
C4247 C504 1.535 . S
C4261 C521 1.588 . S
C4265 C556 1.541 . S
C4279 C534 1.593 . S
C4283 C1232 1.543 . S
C4297 C1245 1.536 . S
C4301 C560 1.587 . S
C4315 C1210 1.594 . S
C4319 C582 1.544 . S
C4333 C1206 1.546 . S
C4337 C586 1.594 . S
C4351 C1158 1.593 . S
C4355 C608 1.541 . S
C4369 C621 1.543 . S
C4373 C1184 1.594 . S
C4387 C625 1.548 . S
C4391 C742 1.546 . S
C4405 C638 1.549 . S
C4409 C755 1.549 . S
C4423 C651 1.535 . S
C4427 C768 1.536 . S
C4441 C729 1.550 . S
C4445 C664 1.549 . S
C4459 C677 1.548 . S
C4463 C820 1.549 . S
C4477 C690 1.536 . S
C4481 C781 1.537 . S
C4495 C794 1.536 . S
C4499 C703 1.538 . S
C4513 C807 1.537 . S
C4517 C716 1.539 . S
C4531 C859 1.542 . S
C4535 C833 1.539 . S
C4549 C1054 1.590 . S
C4553 C937 1.594 . S
C4567 C950 1.587 . S
C4571 C1076 1.539 . S
C4585 C1080 1.594 . S
C4589 C963 1.590 . S
C4603 C1050 1.535 . S
C4607 C976 1.589 . S
C4621 C1132 1.590 . S
C4625 C989 1.587 . S
C4639 C1002 1.594 . S
C4643 C1102 1.543 . S
C4657 C1106 1.588 . S
C4661 C1015 1.588 . S
C4675 C1128 1.549 . S
C4679 C1028 1.594 . S
C4693 C1180 1.549 . S
C4697 C1145 1.592 . S
