# Generated by pormake.
# Topology ukx, (4)-cn, num edge types: 1
# Building blocks:
#     Node 0, Type 0, BuildingBlock: KUFVIS_clean_sbu_0, # of connection points: 4
#     Node 1, Type 0, BuildingBlock: KUFVIS_clean_sbu_0, # of connection points: 4
#     Node 2, Type 0, BuildingBlock: KUFVIS_clean_sbu_0, # of connection points: 4
#     Node 3, Type 0, BuildingBlock: KUFVIS_clean_sbu_0, # of connection points: 4
#     Node 4, Type 0, BuildingBlock: KUFVIS_clean_sbu_0, # of connection points: 4
#     Node 5, Type 0, BuildingBlock: KUFVIS_clean_sbu_0, # of connection points: 4
#     Node 6, Type 0, BuildingBlock: KUFVIS_clean_sbu_0, # of connection points: 4
#     Node 7, Type 0, BuildingBlock: KUFVIS_clean_sbu_0, # of connection points: 4
#     Node 8, Type 0, BuildingBlock: KUFVIS_clean_sbu_0, # of connection points: 4
#     Node 9, Type 0, BuildingBlock: KUFVIS_clean_sbu_0, # of connection points: 4
#     Node 10, Type 0, BuildingBlock: KUFVIS_clean_sbu_0, # of connection points: 4
#     Node 11, Type 0, BuildingBlock: KUFVIS_clean_sbu_0, # of connection points: 4
#     Node 12, Type 0, BuildingBlock: KUFVIS_clean_sbu_0, # of connection points: 4
#     Node 13, Type 0, BuildingBlock: KUFVIS_clean_sbu_0, # of connection points: 4
#     Node 14, Type 0, BuildingBlock: KUFVIS_clean_sbu_0, # of connection points: 4
#     Node 15, Type 0, BuildingBlock: KUFVIS_clean_sbu_0, # of connection points: 4
#     Node 16, Type 0, BuildingBlock: KUFVIS_clean_sbu_0, # of connection points: 4
#     Node 17, Type 0, BuildingBlock: KUFVIS_clean_sbu_0, # of connection points: 4
#     Node 18, Type 0, BuildingBlock: KUFVIS_clean_sbu_0, # of connection points: 4
#     Node 19, Type 0, BuildingBlock: KUFVIS_clean_sbu_0, # of connection points: 4
#     Node 20, Type 0, BuildingBlock: KUFVIS_clean_sbu_0, # of connection points: 4
#     Node 21, Type 0, BuildingBlock: KUFVIS_clean_sbu_0, # of connection points: 4
#     Node 22, Type 0, BuildingBlock: KUFVIS_clean_sbu_0, # of connection points: 4
#     Node 23, Type 0, BuildingBlock: KUFVIS_clean_sbu_0, # of connection points: 4
#     Node 24, Type 0, BuildingBlock: KUFVIS_clean_sbu_0, # of connection points: 4
#     Node 25, Type 0, BuildingBlock: KUFVIS_clean_sbu_0, # of connection points: 4
#     Node 26, Type 0, BuildingBlock: KUFVIS_clean_sbu_0, # of connection points: 4
#     Node 27, Type 0, BuildingBlock: KUFVIS_clean_sbu_0, # of connection points: 4
#     Node 28, Type 0, BuildingBlock: KUFVIS_clean_sbu_0, # of connection points: 4
#     Node 29, Type 0, BuildingBlock: KUFVIS_clean_sbu_0, # of connection points: 4
#     Node 30, Type 0, BuildingBlock: KUFVIS_clean_sbu_0, # of connection points: 4
#     Node 31, Type 0, BuildingBlock: KUFVIS_clean_sbu_0, # of connection points: 4
#     Node 32, Type 0, BuildingBlock: KUFVIS_clean_sbu_0, # of connection points: 4
#     Node 33, Type 0, BuildingBlock: KUFVIS_clean_sbu_0, # of connection points: 4
#     Node 34, Type 0, BuildingBlock: KUFVIS_clean_sbu_0, # of connection points: 4
#     Node 35, Type 0, BuildingBlock: KUFVIS_clean_sbu_0, # of connection points: 4
#     Node 36, Type 0, BuildingBlock: KUFVIS_clean_sbu_0, # of connection points: 4
#     Node 37, Type 0, BuildingBlock: KUFVIS_clean_sbu_0, # of connection points: 4
#     Node 38, Type 0, BuildingBlock: KUFVIS_clean_sbu_0, # of connection points: 4
#     Node 39, Type 0, BuildingBlock: KUFVIS_clean_sbu_0, # of connection points: 4
#     Node 40, Type 0, BuildingBlock: KUFVIS_clean_sbu_0, # of connection points: 4
#     Node 41, Type 0, BuildingBlock: KUFVIS_clean_sbu_0, # of connection points: 4
#     Node 42, Type 0, BuildingBlock: KUFVIS_clean_sbu_0, # of connection points: 4
#     Node 43, Type 0, BuildingBlock: KUFVIS_clean_sbu_0, # of connection points: 4
#     Node 44, Type 0, BuildingBlock: KUFVIS_clean_sbu_0, # of connection points: 4
#     Node 45, Type 0, BuildingBlock: KUFVIS_clean_sbu_0, # of connection points: 4
#     Node 46, Type 0, BuildingBlock: KUFVIS_clean_sbu_0, # of connection points: 4
#     Node 47, Type 0, BuildingBlock: KUFVIS_clean_sbu_0, # of connection points: 4
#     Node 48, Type 0, BuildingBlock: KUFVIS_clean_sbu_0, # of connection points: 4
#     Node 49, Type 0, BuildingBlock: KUFVIS_clean_sbu_0, # of connection points: 4
#     Node 50, Type 0, BuildingBlock: KUFVIS_clean_sbu_0, # of connection points: 4
#     Node 51, Type 0, BuildingBlock: KUFVIS_clean_sbu_0, # of connection points: 4
#     Node 52, Type 0, BuildingBlock: KUFVIS_clean_sbu_0, # of connection points: 4
#     Node 53, Type 0, BuildingBlock: KUFVIS_clean_sbu_0, # of connection points: 4
#     Node 54, Type 0, BuildingBlock: KUFVIS_clean_sbu_0, # of connection points: 4
#     Node 55, Type 0, BuildingBlock: KUFVIS_clean_sbu_0, # of connection points: 4
#     Node 56, Type 0, BuildingBlock: KUFVIS_clean_sbu_0, # of connection points: 4
#     Node 57, Type 0, BuildingBlock: KUFVIS_clean_sbu_0, # of connection points: 4
#     Node 58, Type 0, BuildingBlock: KUFVIS_clean_sbu_0, # of connection points: 4
#     Node 59, Type 0, BuildingBlock: KUFVIS_clean_sbu_0, # of connection points: 4
#     Node 60, Type 0, BuildingBlock: KUFVIS_clean_sbu_0, # of connection points: 4
#     Node 61, Type 0, BuildingBlock: KUFVIS_clean_sbu_0, # of connection points: 4
#     Node 62, Type 0, BuildingBlock: KUFVIS_clean_sbu_0, # of connection points: 4
#     Node 63, Type 0, BuildingBlock: KUFVIS_clean_sbu_0, # of connection points: 4
#     Node 64, Type 0, BuildingBlock: KUFVIS_clean_sbu_0, # of connection points: 4
#     Node 65, Type 0, BuildingBlock: KUFVIS_clean_sbu_0, # of connection points: 4
#     Node 66, Type 0, BuildingBlock: KUFVIS_clean_sbu_0, # of connection points: 4
#     Node 67, Type 0, BuildingBlock: KUFVIS_clean_sbu_0, # of connection points: 4
#     Node 68, Type 0, BuildingBlock: KUFVIS_clean_sbu_0, # of connection points: 4
#     Node 69, Type 0, BuildingBlock: KUFVIS_clean_sbu_0, # of connection points: 4
#     Node 70, Type 0, BuildingBlock: KUFVIS_clean_sbu_0, # of connection points: 4
#     Node 71, Type 0, BuildingBlock: KUFVIS_clean_sbu_0, # of connection points: 4
#     Node 72, Type 0, BuildingBlock: KUFVIS_clean_sbu_0, # of connection points: 4
#     Node 73, Type 0, BuildingBlock: KUFVIS_clean_sbu_0, # of connection points: 4
#     Node 74, Type 0, BuildingBlock: KUFVIS_clean_sbu_0, # of connection points: 4
#     Node 75, Type 0, BuildingBlock: KUFVIS_clean_sbu_0, # of connection points: 4
#     Node 76, Type 0, BuildingBlock: KUFVIS_clean_sbu_0, # of connection points: 4
#     Node 77, Type 0, BuildingBlock: KUFVIS_clean_sbu_0, # of connection points: 4
#     Node 78, Type 0, BuildingBlock: KUFVIS_clean_sbu_0, # of connection points: 4
#     Node 79, Type 0, BuildingBlock: KUFVIS_clean_sbu_0, # of connection points: 4
#     Node 80, Type 0, BuildingBlock: KUFVIS_clean_sbu_0, # of connection points: 4
#     Node 81, Type 0, BuildingBlock: KUFVIS_clean_sbu_0, # of connection points: 4
#     Node 82, Type 0, BuildingBlock: KUFVIS_clean_sbu_0, # of connection points: 4
#     Node 83, Type 0, BuildingBlock: KUFVIS_clean_sbu_0, # of connection points: 4
#     Node 84, Type 0, BuildingBlock: KUFVIS_clean_sbu_0, # of connection points: 4
#     Node 85, Type 0, BuildingBlock: KUFVIS_clean_sbu_0, # of connection points: 4
#     Node 86, Type 0, BuildingBlock: KUFVIS_clean_sbu_0, # of connection points: 4
#     Node 87, Type 0, BuildingBlock: KUFVIS_clean_sbu_0, # of connection points: 4
#     Node 88, Type 0, BuildingBlock: KUFVIS_clean_sbu_0, # of connection points: 4
#     Node 89, Type 0, BuildingBlock: KUFVIS_clean_sbu_0, # of connection points: 4
#     Node 90, Type 0, BuildingBlock: KUFVIS_clean_sbu_0, # of connection points: 4
#     Node 91, Type 0, BuildingBlock: KUFVIS_clean_sbu_0, # of connection points: 4
#     Node 92, Type 0, BuildingBlock: KUFVIS_clean_sbu_0, # of connection points: 4
#     Node 93, Type 0, BuildingBlock: KUFVIS_clean_sbu_0, # of connection points: 4
#     Node 94, Type 0, BuildingBlock: KUFVIS_clean_sbu_0, # of connection points: 4
#     Node 95, Type 0, BuildingBlock: KUFVIS_clean_sbu_0, # of connection points: 4
#     Edge 96, Type (0, 0), None
#     Edge 97, Type (0, 0), None
#     Edge 98, Type (0, 0), None
#     Edge 99, Type (0, 0), None
#     Edge 100, Type (0, 0), None
#     Edge 101, Type (0, 0), None
#     Edge 102, Type (0, 0), None
#     Edge 103, Type (0, 0), None
#     Edge 104, Type (0, 0), None
#     Edge 105, Type (0, 0), None
#     Edge 106, Type (0, 0), None
#     Edge 107, Type (0, 0), None
#     Edge 108, Type (0, 0), None
#     Edge 109, Type (0, 0), None
#     Edge 110, Type (0, 0), None
#     Edge 111, Type (0, 0), None
#     Edge 112, Type (0, 0), None
#     Edge 113, Type (0, 0), None
#     Edge 114, Type (0, 0), None
#     Edge 115, Type (0, 0), None
#     Edge 116, Type (0, 0), None
#     Edge 117, Type (0, 0), None
#     Edge 118, Type (0, 0), None
#     Edge 119, Type (0, 0), None
#     Edge 120, Type (0, 0), None
#     Edge 121, Type (0, 0), None
#     Edge 122, Type (0, 0), None
#     Edge 123, Type (0, 0), None
#     Edge 124, Type (0, 0), None
#     Edge 125, Type (0, 0), None
#     Edge 126, Type (0, 0), None
#     Edge 127, Type (0, 0), None
#     Edge 128, Type (0, 0), None
#     Edge 129, Type (0, 0), None
#     Edge 130, Type (0, 0), None
#     Edge 131, Type (0, 0), None
#     Edge 132, Type (0, 0), None
#     Edge 133, Type (0, 0), None
#     Edge 134, Type (0, 0), None
#     Edge 135, Type (0, 0), None
#     Edge 136, Type (0, 0), None
#     Edge 137, Type (0, 0), None
#     Edge 138, Type (0, 0), None
#     Edge 139, Type (0, 0), None
#     Edge 140, Type (0, 0), None
#     Edge 141, Type (0, 0), None
#     Edge 142, Type (0, 0), None
#     Edge 143, Type (0, 0), None
#     Edge 144, Type (0, 0), None
#     Edge 145, Type (0, 0), None
#     Edge 146, Type (0, 0), None
#     Edge 147, Type (0, 0), None
#     Edge 148, Type (0, 0), None
#     Edge 149, Type (0, 0), None
#     Edge 150, Type (0, 0), None
#     Edge 151, Type (0, 0), None
#     Edge 152, Type (0, 0), None
#     Edge 153, Type (0, 0), None
#     Edge 154, Type (0, 0), None
#     Edge 155, Type (0, 0), None
#     Edge 156, Type (0, 0), None
#     Edge 157, Type (0, 0), None
#     Edge 158, Type (0, 0), None
#     Edge 159, Type (0, 0), None
#     Edge 160, Type (0, 0), None
#     Edge 161, Type (0, 0), None
#     Edge 162, Type (0, 0), None
#     Edge 163, Type (0, 0), None
#     Edge 164, Type (0, 0), None
#     Edge 165, Type (0, 0), None
#     Edge 166, Type (0, 0), None
#     Edge 167, Type (0, 0), None
#     Edge 168, Type (0, 0), None
#     Edge 169, Type (0, 0), None
#     Edge 170, Type (0, 0), None
#     Edge 171, Type (0, 0), None
#     Edge 172, Type (0, 0), None
#     Edge 173, Type (0, 0), None
#     Edge 174, Type (0, 0), None
#     Edge 175, Type (0, 0), None
#     Edge 176, Type (0, 0), None
#     Edge 177, Type (0, 0), None
#     Edge 178, Type (0, 0), None
#     Edge 179, Type (0, 0), None
#     Edge 180, Type (0, 0), None
#     Edge 181, Type (0, 0), None
#     Edge 182, Type (0, 0), None
#     Edge 183, Type (0, 0), None
#     Edge 184, Type (0, 0), None
#     Edge 185, Type (0, 0), None
#     Edge 186, Type (0, 0), None
#     Edge 187, Type (0, 0), None
#     Edge 188, Type (0, 0), None
#     Edge 189, Type (0, 0), None
#     Edge 190, Type (0, 0), None
#     Edge 191, Type (0, 0), None
#     Edge 192, Type (0, 0), None
#     Edge 193, Type (0, 0), None
#     Edge 194, Type (0, 0), None
#     Edge 195, Type (0, 0), None
#     Edge 196, Type (0, 0), None
#     Edge 197, Type (0, 0), None
#     Edge 198, Type (0, 0), None
#     Edge 199, Type (0, 0), None
#     Edge 200, Type (0, 0), None
#     Edge 201, Type (0, 0), None
#     Edge 202, Type (0, 0), None
#     Edge 203, Type (0, 0), None
#     Edge 204, Type (0, 0), None
#     Edge 205, Type (0, 0), None
#     Edge 206, Type (0, 0), None
#     Edge 207, Type (0, 0), None
#     Edge 208, Type (0, 0), None
#     Edge 209, Type (0, 0), None
#     Edge 210, Type (0, 0), None
#     Edge 211, Type (0, 0), None
#     Edge 212, Type (0, 0), None
#     Edge 213, Type (0, 0), None
#     Edge 214, Type (0, 0), None
#     Edge 215, Type (0, 0), None
#     Edge 216, Type (0, 0), None
#     Edge 217, Type (0, 0), None
#     Edge 218, Type (0, 0), None
#     Edge 219, Type (0, 0), None
#     Edge 220, Type (0, 0), None
#     Edge 221, Type (0, 0), None
#     Edge 222, Type (0, 0), None
#     Edge 223, Type (0, 0), None
#     Edge 224, Type (0, 0), None
#     Edge 225, Type (0, 0), None
#     Edge 226, Type (0, 0), None
#     Edge 227, Type (0, 0), None
#     Edge 228, Type (0, 0), None
#     Edge 229, Type (0, 0), None
#     Edge 230, Type (0, 0), None
#     Edge 231, Type (0, 0), None
#     Edge 232, Type (0, 0), None
#     Edge 233, Type (0, 0), None
#     Edge 234, Type (0, 0), None
#     Edge 235, Type (0, 0), None
#     Edge 236, Type (0, 0), None
#     Edge 237, Type (0, 0), None
#     Edge 238, Type (0, 0), None
#     Edge 239, Type (0, 0), None
#     Edge 240, Type (0, 0), None
#     Edge 241, Type (0, 0), None
#     Edge 242, Type (0, 0), None
#     Edge 243, Type (0, 0), None
#     Edge 244, Type (0, 0), None
#     Edge 245, Type (0, 0), None
#     Edge 246, Type (0, 0), None
#     Edge 247, Type (0, 0), None
#     Edge 248, Type (0, 0), None
#     Edge 249, Type (0, 0), None
#     Edge 250, Type (0, 0), None
#     Edge 251, Type (0, 0), None
#     Edge 252, Type (0, 0), None
#     Edge 253, Type (0, 0), None
#     Edge 254, Type (0, 0), None
#     Edge 255, Type (0, 0), None
#     Edge 256, Type (0, 0), None
#     Edge 257, Type (0, 0), None
#     Edge 258, Type (0, 0), None
#     Edge 259, Type (0, 0), None
#     Edge 260, Type (0, 0), None
#     Edge 261, Type (0, 0), None
#     Edge 262, Type (0, 0), None
#     Edge 263, Type (0, 0), None
#     Edge 264, Type (0, 0), None
#     Edge 265, Type (0, 0), None
#     Edge 266, Type (0, 0), None
#     Edge 267, Type (0, 0), None
#     Edge 268, Type (0, 0), None
#     Edge 269, Type (0, 0), None
#     Edge 270, Type (0, 0), None
#     Edge 271, Type (0, 0), None
#     Edge 272, Type (0, 0), None
#     Edge 273, Type (0, 0), None
#     Edge 274, Type (0, 0), None
#     Edge 275, Type (0, 0), None
#     Edge 276, Type (0, 0), None
#     Edge 277, Type (0, 0), None
#     Edge 278, Type (0, 0), None
#     Edge 279, Type (0, 0), None
#     Edge 280, Type (0, 0), None
#     Edge 281, Type (0, 0), None
#     Edge 282, Type (0, 0), None
#     Edge 283, Type (0, 0), None
#     Edge 284, Type (0, 0), None
#     Edge 285, Type (0, 0), None
#     Edge 286, Type (0, 0), None
#     Edge 287, Type (0, 0), None
# Relax obj value: 0.264
# Max RMSD: 0.167
# Mean RMSD: 0.167
data_MOF--net-ukx--node1-KUFVIS_clean_sbu_0--edge1-none
_symmetry_space_group_name_H-M    P1
_symmetry_Int_Tables_number       1
_symmetry_cell_setting            triclinic
loop_
_symmetry_equiv_pos_as_xyz
'x, y, z'
_cell_length_a     35.928801
_cell_length_b     35.922532
_cell_length_c     35.92647
_cell_angle_alpha  89.994363
_cell_angle_beta   89.998278
_cell_angle_gamma 89.997381
loop_
_atom_site_label
_atom_site_type_symbol
_atom_site_fract_x
_atom_site_fract_y
_atom_site_fract_z
_atom_type_partial_charge
Mn0 Mn 0.02734 0.1307 0.32414 0.0
Mn1 Mn 0.04279 0.13888 0.41838 0.0
C2 C 0.97974 0.1476 0.36606 0.0
C3 C -0.00332 0.11358 0.26392 0.0
C4 C 0.06059 0.19536 0.37184 0.0
O5 O 0.07433 0.09834 0.32649 0.0
O6 O 0.08252 0.12109 0.38438 0.0
C7 C 0.07252 0.06583 0.44203 0.0
N8 N 0.04752 0.09427 0.44612 0.0
C9 C 0.01842 0.06377 0.4977 0.0
C10 C 0.0376 0.03126 0.48806 0.0
C11 C 0.06664 0.03281 0.46192 0.0
C12 C 0.02337 0.09472 0.47498 0.0
H13 H 0.09401 0.06648 0.42118 0.0
C14 C 0.09481 0.10452 0.35514 0.0
O15 O 0.02554 0.13494 0.2661 0.0
O16 O -0.00904 0.09606 0.295 0.0
N17 N 0.00678 0.15369 0.45482 0.0
C18 C -0.0069 0.18835 0.46174 0.0
C19 C 0.96977 0.19426 0.49253 0.0
C20 C 0.96214 0.16481 0.51697 0.0
C21 C 0.97913 0.13025 0.51108 0.0
C22 C 0.00242 0.12632 0.48005 0.0
H23 H -0.00021 0.21111 0.44355 0.0
O24 O 0.98221 0.15724 0.3317 0.0
O25 O 0.00632 0.12549 0.3785 0.0
O26 O 0.06488 0.17668 0.34136 0.0
O27 O 0.03665 0.18466 0.39394 0.0
C28 C 0.97481 0.09985 0.53534 0.0
C29 C -0.00608 0.06642 0.52811 0.0
H30 H 0.02965 0.00499 0.5 0.0
H31 H 0.08271 0.00819 0.45541 0.0
H32 H 0.95778 0.22142 0.49752 0.0
H33 H 0.94409 0.16934 0.5407 0.0
H34 H 0.95676 0.10176 0.55941 0.0
H35 H -0.01001 0.04318 0.54637 0.0
Mn36 Mn 0.09923 0.77751 0.57409 0.0
Mn37 Mn 0.09097 0.79294 0.66833 0.0
C38 C 0.08236 0.72988 0.616 0.0
C39 C 0.11642 0.74687 0.51386 0.0
C40 C 0.03452 0.81072 0.62176 0.0
O41 O 0.1315 0.82458 0.57647 0.0
O42 O 0.10873 0.8327 0.63436 0.0
C43 C 0.16395 0.82274 0.69205 0.0
N44 N 0.13556 0.79766 0.69606 0.0
C45 C 0.16615 0.76839 0.74748 0.0
C46 C 0.19863 0.78762 0.73784 0.0
C47 C 0.19701 0.8168 0.71185 0.0
C48 C 0.13518 0.77341 0.72483 0.0
H49 H 0.16323 0.84431 0.67127 0.0
C50 C 0.12529 0.84504 0.60513 0.0
O51 O 0.09502 0.7757 0.51603 0.0
O52 O 0.13394 0.74117 0.54495 0.0
N53 N 0.07617 0.75689 0.70474 0.0
C54 C 0.04151 0.74324 0.71171 0.0
C55 C 0.03563 0.71987 0.74248 0.0
C56 C 0.06512 0.71215 0.76684 0.0
C57 C 0.09969 0.7291 0.7609 0.0
C58 C 0.10358 0.75245 0.72991 0.0
H59 H 0.01872 0.74998 0.69357 0.0
O60 O 0.07279 0.73231 0.58163 0.0
O61 O 0.10441 0.7565 0.62845 0.0
O62 O 0.0532 0.815 0.59128 0.0
O63 O 0.04521 0.78679 0.64389 0.0
C64 C 0.13013 0.7247 0.78508 0.0
C65 C 0.16355 0.7438 0.77782 0.0
H66 H 0.22492 0.77965 0.7497 0.0
H67 H 0.22159 0.83292 0.70536 0.0
H68 H 0.00847 0.70791 0.74751 0.0
H69 H 0.06061 0.69406 0.79055 0.0
H70 H 0.12826 0.70659 0.80912 0.0
H71 H 0.18683 0.7398 0.79601 0.0
Mn72 Mn 0.45236 0.84935 0.82379 0.0
Mn73 Mn 0.43709 0.84091 0.91801 0.0
C74 C 0.50008 0.83253 0.86565 0.0
C75 C 0.48292 0.86663 0.76357 0.0
C76 C 0.41926 0.78457 0.87141 0.0
O77 O 0.40528 0.8816 0.82625 0.0
O78 O 0.39725 0.85875 0.88414 0.0
C79 C 0.40733 0.91384 0.94198 0.0
N80 N 0.43241 0.88543 0.94587 0.0
C81 C 0.46161 0.91577 -0.00252 0.0
C82 C 0.44235 0.94828 0.98802 0.0
C83 C 0.41322 0.94679 0.96197 0.0
C84 C 0.45665 0.88492 0.97465 0.0
H85 H 0.38578 0.91321 0.92119 0.0
C86 C 0.38486 0.87534 0.85493 0.0
O87 O 0.45412 0.84518 0.76574 0.0
O88 O 0.48862 0.88413 0.79466 0.0
N89 N 0.47316 0.82597 0.95434 0.0
C90 C 0.48678 0.79126 0.9612 0.0
C91 C 0.51012 0.78525 -0.00805 0.0
C92 C 0.51784 0.81465 0.01643 0.0
C93 C 0.50091 0.84926 0.01061 0.0
C94 C 0.4776 0.85329 0.97961 0.0
H95 H 0.48005 0.76853 0.94298 0.0
O96 O 0.49761 0.82294 0.83129 0.0
O97 O 0.47344 0.85452 0.87813 0.0
O98 O 0.41489 0.80329 0.84096 0.0
O99 O 0.44327 0.79524 0.89343 0.0
C100 C 0.50526 0.87957 0.03495 0.0
C101 C 0.48613 0.91301 0.02785 0.0
H102 H 0.45028 0.97451 5e-05 0.0
H103 H 0.3971 0.9714 0.95559 0.0
H104 H 0.52207 0.75806 -0.00311 0.0
H105 H 0.53589 0.81003 0.04014 0.0
H106 H 0.5233 0.87756 0.05903 0.0
H107 H 0.48994 0.93614 0.04628 0.0
Mn108 Mn 0.38064 0.20248 0.07396 0.0
Mn109 Mn 0.38882 0.18711 0.16818 0.0
C110 C 0.3975 0.25012 0.11582 0.0
C111 C 0.36348 0.23309 0.01374 0.0
C112 C 0.4453 0.16927 0.12169 0.0
O113 O 0.34826 0.1555 0.07634 0.0
O114 O 0.37104 0.14734 0.13422 0.0
C115 C 0.31588 0.15723 0.19195 0.0
N116 N 0.34422 0.18238 0.1959 0.0
C117 C 0.3137 0.21148 0.24746 0.0
C118 C 0.28126 0.19216 0.23792 0.0
C119 C 0.28288 0.16304 0.21187 0.0
C120 C 0.34463 0.20658 0.22471 0.0
H121 H 0.3166 0.13568 0.17117 0.0
C122 C 0.35444 0.13504 0.105 0.0
O123 O 0.38487 0.20425 0.01592 0.0
O124 O 0.34596 0.23882 0.04482 0.0
N125 N 0.40361 0.22316 0.20458 0.0
C126 C 0.43826 0.23683 0.21153 0.0
C127 C 0.44415 0.26018 0.24231 0.0
C128 C 0.41468 0.26785 0.26671 0.0
C129 C 0.38013 0.25086 0.2608 0.0
C130 C 0.37621 0.22755 0.22978 0.0
H131 H 0.46103 0.23012 0.19337 0.0
O132 O 0.40718 0.24761 0.08147 0.0
O133 O 0.3754 0.22354 0.12828 0.0
O134 O 0.42661 0.16493 0.09122 0.0
O135 O 0.43459 0.19324 0.14375 0.0
C136 C 0.34974 0.25516 0.28505 0.0
C137 C 0.31634 0.236 0.27784 0.0
H138 H 0.25498 0.20004 0.24988 0.0
H139 H 0.25832 0.14686 0.20543 0.0
H140 H 0.47131 0.27217 0.24731 0.0
H141 H 0.4192 0.2859 0.29043 0.0
H142 H 0.35164 0.2732 0.30914 0.0
H143 H 0.29314 0.23981 0.29617 0.0
Mn144 Mn 0.02749 0.84939 0.15591 0.0
Mn145 Mn 0.04287 0.84109 0.06167 0.0
C146 C 0.97983 0.83254 0.11402 0.0
C147 C -0.00309 0.86664 0.21615 0.0
C148 C 0.06063 0.78464 0.10824 0.0
O149 O 0.07456 0.88164 0.15349 0.0
O150 O 0.08267 0.85884 0.09561 0.0
C151 C 0.07269 0.91405 0.03788 0.0
N152 N 0.04758 0.88568 0.03393 0.0
C153 C 0.01829 0.91626 0.98252 0.0
C154 C 0.03755 0.94873 -0.00789 0.0
C155 C 0.06675 0.94711 0.01808 0.0
C156 C 0.0233 0.8853 0.00519 0.0
H157 H 0.09429 0.91332 0.05862 0.0
C158 C 0.09502 0.8754 0.12483 0.0
O159 O 0.02572 0.84521 0.21396 0.0
O160 O -0.0088 0.88415 0.18505 0.0
N161 N 0.0068 0.82628 0.0253 0.0
C162 C -0.00685 0.79161 0.01834 0.0
C163 C 0.96978 0.78572 0.98759 0.0
C164 C 0.96205 0.81521 0.96322 0.0
C165 C 0.97899 0.84979 0.96914 0.0
C166 C 0.00235 0.8537 0.00013 0.0
H167 H -0.0001 0.76881 0.03648 0.0
O168 O 0.98226 0.82297 0.14839 0.0
O169 O 0.00646 0.85457 0.10157 0.0
O170 O 0.06495 0.80333 0.13871 0.0
O171 O 0.0367 0.79535 0.08614 0.0
C172 C 0.97461 0.88021 0.94494 0.0
C173 C -0.00627 0.91364 0.95217 0.0
H174 H 0.0296 0.97503 0.98023 0.0
H175 H 0.08289 0.97168 0.02453 0.0
H176 H 0.95782 0.75855 0.98257 0.0
H177 H 0.94396 0.8107 0.93952 0.0
H178 H 0.95652 0.87833 0.92089 0.0
H179 H 0.98979 0.93689 0.93392 0.0
Mn180 Mn 0.38061 0.77749 0.40569 0.0
Mn181 Mn 0.38884 0.79286 0.31144 0.0
C182 C 0.39749 0.72986 0.36382 0.0
C183 C 0.36342 0.74686 0.46593 0.0
C184 C 0.44528 0.81073 0.35796 0.0
O185 O 0.34824 0.82448 0.40328 0.0
O186 O 0.37102 0.83262 0.34538 0.0
C187 C 0.31587 0.82264 0.28764 0.0
N188 N 0.34425 0.79754 0.28369 0.0
C189 C 0.3137 0.76824 0.23227 0.0
C190 C 0.28122 0.78747 0.24187 0.0
C191 C 0.28283 0.81668 0.26783 0.0
C192 C 0.34466 0.77326 0.25494 0.0
H193 H 0.31658 0.84424 0.30838 0.0
C194 C 0.35442 0.84493 0.37461 0.0
O195 O 0.38481 0.7757 0.46375 0.0
O196 O 0.34592 0.74113 0.43484 0.0
N197 N 0.40367 0.7568 0.27506 0.0
C198 C 0.43834 0.74315 0.26811 0.0
C199 C 0.44424 0.71977 0.23736 0.0
C200 C 0.41476 0.71202 0.213 0.0
C201 C 0.38018 0.72896 0.21891 0.0
C202 C 0.37626 0.75232 0.24989 0.0
H203 H 0.46112 0.74992 0.28625 0.0
O204 O 0.40712 0.73234 0.39817 0.0
O205 O 0.37541 0.75645 0.35136 0.0
O206 O 0.42659 0.81503 0.38844 0.0
O207 O 0.4346 0.78676 0.33588 0.0
C208 C 0.34977 0.72455 0.19472 0.0
C209 C 0.31634 0.74366 0.20194 0.0
H210 H 0.25494 0.77949 0.23002 0.0
H211 H 0.25824 0.83281 0.27429 0.0
H212 H 0.47141 0.70781 0.23236 0.0
H213 H 0.41929 0.69393 0.18931 0.0
H214 H 0.35166 0.70644 0.17068 0.0
H215 H 0.29308 0.73968 0.18371 0.0
Mn216 Mn 0.45245 0.13066 0.65584 0.0
Mn217 Mn 0.43702 0.13898 0.56162 0.0
C218 C 0.5001 0.14753 0.61392 0.0
C219 C 0.48305 0.11348 0.71607 0.0
C220 C 0.41924 0.19536 0.60822 0.0
O221 O 0.4054 0.09837 0.65346 0.0
O222 O 0.39726 0.12117 0.59558 0.0
C223 C 0.40727 0.06599 0.53783 0.0
N224 N 0.43228 0.09443 0.53379 0.0
C225 C 0.46124 0.06411 0.48202 0.0
C226 C 0.44204 0.03159 0.49156 0.0
C227 C 0.41306 0.03305 0.51778 0.0
C228 C 0.45636 0.09497 0.50488 0.0
H229 H 0.38584 0.06658 0.55875 0.0
C230 C 0.38492 0.1046 0.62482 0.0
O231 O 0.45422 0.13488 0.71388 0.0
O232 O 0.48878 0.09595 0.68499 0.0
N233 N 0.47303 0.15386 0.5252 0.0
C234 C 0.48671 0.18854 0.51835 0.0
C235 C 0.51 0.19453 0.48754 0.0
C236 C 0.51758 0.16515 0.46301 0.0
C237 C 0.50058 0.13058 0.46882 0.0
C238 C 0.47733 0.12656 0.49988 0.0
H239 H 0.48006 0.21124 0.53662 0.0
O240 O 0.49763 0.15712 0.64829 0.0
O241 O 0.47348 0.12548 0.60147 0.0
O242 O 0.41494 0.17667 0.63869 0.0
O243 O 0.44321 0.18469 0.58615 0.0
C244 C 0.50482 0.10028 0.44444 0.0
C245 C 0.48567 0.06685 0.45157 0.0
H246 H 0.44995 0.00536 0.4795 0.0
H247 H 0.39699 0.00842 0.52425 0.0
H248 H 0.52201 0.22169 0.48262 0.0
H249 H 0.53559 0.16975 0.43926 0.0
H250 H 0.52281 0.10227 0.42033 0.0
H251 H 0.48946 0.04371 0.43315 0.0
Mn252 Mn 0.09927 0.20245 0.90591 0.0
Mn253 Mn 0.09106 0.18702 0.81168 0.0
C254 C 0.08241 0.25008 0.864 0.0
C255 C 0.11644 0.23305 0.96614 0.0
C256 C 0.03457 0.16926 0.85821 0.0
O257 O 0.13156 0.1554 0.90355 0.0
O258 O 0.1088 0.14725 0.84566 0.0
C259 C 0.16405 0.1572 0.78802 0.0
N260 N 0.13567 0.18228 0.78397 0.0
C261 C 0.16626 0.21147 0.7325 0.0
C262 C 0.19872 0.1922 0.74212 0.0
C263 C 0.1971 0.16308 0.76818 0.0
C264 C 0.13529 0.20649 0.75517 0.0
H265 H 0.16334 0.13566 0.80881 0.0
C266 C 0.12536 0.13493 0.87489 0.0
O267 O 0.09504 0.20422 0.96395 0.0
O268 O 0.13397 0.23877 0.93506 0.0
N269 N 0.07628 0.22306 0.77525 0.0
C270 C 0.04163 0.23674 0.76828 0.0
C271 C 0.03576 0.26008 0.73749 0.0
C272 C 0.06526 0.26776 0.71311 0.0
C273 C 0.09982 0.25079 0.71906 0.0
C274 C 0.1037 0.22746 0.75007 0.0
H275 H 0.01883 0.23003 0.78642 0.0
O276 O 0.07282 0.24764 0.89837 0.0
O277 O 0.10448 0.22347 0.85156 0.0
O278 O 0.05325 0.16497 0.8887 0.0
O279 O 0.04529 0.19318 0.83609 0.0
C280 C 0.13025 0.25515 0.69487 0.0
C281 C 0.16366 0.23603 0.70215 0.0
H282 H 0.22502 0.20012 0.73023 0.0
H283 H 0.22167 0.14694 0.77467 0.0
H284 H 0.0086 0.27205 0.73245 0.0
H285 H 0.06076 0.28583 0.68939 0.0
H286 H 0.12839 0.27324 0.67082 0.0
H287 H 0.18694 0.23999 0.68394 0.0
Mn288 Mn 0.32476 0.0268 0.13002 0.0
Mn289 Mn 0.41906 0.0423 0.13836 0.0
C290 C 0.36666 0.97932 0.14723 0.0
C291 C 0.26454 -0.00395 0.11282 0.0
C292 C 0.37234 0.06044 0.19468 0.0
O293 O 0.32723 0.07369 0.0975 0.0
O294 O 0.38512 0.08195 0.12029 0.0
C295 C 0.44281 0.07144 0.06511 0.0
N296 N 0.44688 0.04669 0.09378 0.0
C297 C 0.49832 0.01714 0.06345 0.0
C298 C 0.48856 0.03594 0.03077 0.0
C299 C 0.46254 0.06512 0.03209 0.0
C300 C 0.47567 0.02245 0.09439 0.0
H301 H 0.42204 0.09303 0.06563 0.0
C302 C 0.35591 0.09417 0.1036 0.0
O303 O 0.26667 0.02499 0.13408 0.0
O304 O 0.29568 -0.00973 0.09543 0.0
N305 N 0.45541 0.00629 0.15343 0.0
C306 C 0.46225 -0.00724 0.18817 0.0
C307 C 0.49295 0.96935 0.19424 0.0
C308 C 0.51738 0.96146 0.16485 0.0
C309 C 0.51158 0.97827 0.13019 0.0
C310 C 0.48064 0.00167 0.12611 0.0
H311 H 0.44405 -0.00036 0.21086 0.0
O312 O 0.33226 0.98174 0.15668 0.0
O313 O 0.37915 0.00582 0.12507 0.0
O314 O 0.34187 0.06452 0.17591 0.0
O315 O 0.39458 0.03653 0.18417 0.0
C316 C 0.5358 0.97363 0.09981 0.0
C317 C 0.52865 -0.00746 0.06625 0.0
H318 H 0.50029 0.02761 0.00454 0.0
H319 H 0.45599 0.08094 0.00733 0.0
H320 H 0.49786 0.95749 0.22147 0.0
H321 H 0.54102 0.94333 0.16951 0.0
H322 H 0.55976 0.95543 0.10182 0.0
H323 H 0.54673 0.98812 0.0429 0.0
Mn324 Mn 0.20303 0.0748 0.38012 0.0
Mn325 Mn 0.18757 0.16912 0.38851 0.0
C326 C 0.25054 0.11668 0.39734 0.0
C327 C 0.23376 0.01455 0.36285 0.0
C328 C 0.1694 0.12237 0.44478 0.0
O329 O 0.15615 0.0773 0.34761 0.0
O330 O 0.1479 0.1352 0.3704 0.0
C331 C 0.15849 0.19294 0.31526 0.0
N332 N 0.18318 0.19702 0.34396 0.0
C333 C 0.21271 0.24854 0.31373 0.0
C334 C 0.19399 0.23877 0.28101 0.0
C335 C 0.16486 0.21271 0.28225 0.0
C336 C 0.20739 0.22583 0.34463 0.0
H337 H 0.13694 0.17214 0.31572 0.0
C338 C 0.13568 0.10599 0.35371 0.0
O339 O 0.20485 0.01668 0.38415 0.0
O340 O 0.23954 0.04572 0.34549 0.0
N341 N 0.22358 0.20545 0.40362 0.0
C342 C 0.23716 0.2122 0.43835 0.0
C343 C 0.26058 0.24288 0.44446 0.0
C344 C 0.26843 0.2674 0.41513 0.0
C345 C 0.25157 0.26169 0.38048 0.0
C346 C 0.22817 0.23076 0.37635 0.0
H347 H 0.23031 0.19394 0.461 0.0
O348 O 0.2481 0.08228 0.40678 0.0
O349 O 0.22404 0.12919 0.37519 0.0
O350 O 0.1653 0.09191 0.426 0.0
O351 O 0.19334 0.14458 0.43428 0.0
C352 C 0.25617 0.286 0.35016 0.0
C353 C 0.23724 0.27892 0.3166 0.0
H354 H 0.20238 0.25054 0.25481 0.0
H355 H 0.1491 0.20615 0.25746 0.0
H356 H 0.27249 0.24772 0.47168 0.0
H357 H 0.28656 0.29103 0.41982 0.0
H358 H 0.27435 0.30996 0.35221 0.0
H359 H 0.24165 0.29706 0.29329 0.0
Mn360 Mn 0.15507 0.9532 0.63029 0.0
Mn361 Mn 0.06078 0.93778 0.63879 0.0
C362 C 0.11319 0.00073 0.64751 0.0
C363 C 0.21531 0.98395 0.61311 0.0
C364 C 0.10758 0.91953 0.69493 0.0
O365 O 0.15255 0.90637 0.59771 0.0
O366 O 0.09467 0.89814 0.62052 0.0
C367 C 0.03666 0.90868 0.56565 0.0
N368 N 0.03273 0.93341 0.59434 0.0
C369 C 0.98107 0.96291 0.56432 0.0
C370 C -0.0093 0.94418 0.53158 0.0
C371 C 0.01676 0.91502 0.53272 0.0
C372 C 0.00393 0.95763 0.59511 0.0
H373 H 0.05746 0.88711 0.56604 0.0
C374 C 0.12385 0.88591 0.60378 0.0
O375 O 0.21316 0.95499 0.63435 0.0
O376 O 0.18416 0.98977 0.59574 0.0
N377 N 0.02448 0.97377 0.65404 0.0
C378 C 0.01781 0.98729 0.68881 0.0
C379 C 0.98714 0.0107 0.69504 0.0
C380 C 0.96253 0.01856 0.6658 0.0
C381 C 0.96816 0.00175 0.63111 0.0
C382 C -0.0009 0.97839 0.62685 0.0
H383 H 0.03614 0.98041 0.71139 0.0
O384 O 0.14758 -0.00176 0.65701 0.0
O385 O 0.10067 0.97424 0.62537 0.0
O386 O 0.13801 0.91539 0.67613 0.0
O387 O 0.08546 0.94357 0.68448 0.0
C388 C 0.94371 0.00632 0.60091 0.0
C389 C 0.95066 0.98738 0.56732 0.0
H390 H 0.97882 0.95258 0.50543 0.0
H391 H 0.02323 0.89926 0.50791 0.0
H392 H 0.98238 0.02259 0.72228 0.0
H393 H 0.9389 0.03666 0.67059 0.0
H394 H 0.91972 0.02445 0.60308 0.0
H395 H 0.93233 -0.00833 0.54413 0.0
Mn396 Mn 0.27663 0.90508 0.88002 0.0
Mn397 Mn 0.29209 0.81078 0.88855 0.0
C398 C 0.2291 0.86319 0.89726 0.0
C399 C 0.24592 0.96533 0.86283 0.0
C400 C 0.31031 0.85761 0.94468 0.0
O401 O 0.32351 0.90256 0.84749 0.0
O402 O 0.33177 0.84467 0.87033 0.0
C403 C 0.32107 0.78679 0.81531 0.0
N404 N 0.29646 0.78274 0.84409 0.0
C405 C 0.26702 0.73101 0.81412 0.0
C406 C 0.28565 0.74071 0.78133 0.0
C407 C 0.31471 0.76686 0.78241 0.0
C408 C 0.27231 0.75387 0.8449 0.0
H409 H 0.34256 0.80766 0.81565 0.0
C410 C 0.34399 0.87388 0.8536 0.0
O411 O 0.27487 0.96318 0.88406 0.0
O412 O 0.24009 0.93418 0.84545 0.0
N413 N 0.25611 0.77447 0.9038 0.0
C414 C 0.24256 0.76783 0.93857 0.0
C415 C 0.21917 0.73715 0.94481 0.0
C416 C 0.21136 0.7125 0.9156 0.0
C417 C 0.2282 0.71809 0.88092 0.0
C418 C 0.25154 0.74905 0.87664 0.0
H419 H 0.24939 0.78619 0.96114 0.0
O420 O 0.23156 0.89759 0.90669 0.0
O421 O 0.25562 0.85067 0.87514 0.0
O422 O 0.31442 0.88804 0.92587 0.0
O423 O 0.2863 0.83545 0.93424 0.0
C424 C 0.22365 0.69362 0.85073 0.0
C425 C 0.24257 0.70057 0.81713 0.0
H426 H 0.27721 0.72883 0.7552 0.0
H427 H 0.33039 0.77338 0.75755 0.0
H428 H 0.20726 0.73241 0.97205 0.0
H429 H 0.19326 0.68885 0.92039 0.0
H430 H 0.20553 0.66962 0.8529 0.0
H431 H 0.23825 0.68226 0.79393 0.0
Mn432 Mn 0.32464 0.95314 0.34954 0.0
Mn433 Mn 0.41894 0.9377 0.3411 0.0
C434 C 0.36653 0.00065 0.33236 0.0
C435 C 0.26443 0.9839 0.36675 0.0
C436 C 0.37221 0.91951 0.28487 0.0
O437 O 0.32715 0.90626 0.38207 0.0
O438 O 0.38504 0.89803 0.35925 0.0
C439 C 0.44293 0.90846 0.41422 0.0
N440 N 0.44685 0.9333 0.38562 0.0
C441 C 0.49827 0.96292 0.41587 0.0
C442 C 0.48862 0.94406 0.44855 0.0
C443 C 0.4627 0.91479 0.44723 0.0
C444 C 0.47557 0.95762 0.38499 0.0
H445 H 0.42223 0.88682 0.4137 0.0
C446 C 0.35584 0.8858 0.37597 0.0
O447 O 0.26654 0.95496 0.34549 0.0
O448 O 0.29556 0.98967 0.38415 0.0
N449 N 0.45524 0.97372 0.32596 0.0
C450 C 0.46205 0.98722 0.2912 0.0
C451 C 0.49271 0.01066 0.28509 0.0
C452 C 0.51716 0.0186 0.31444 0.0
C453 C 0.5114 0.00181 0.34913 0.0
C454 C 0.48049 0.9784 0.35326 0.0
H455 H 0.44384 0.9803 0.26852 0.0
O456 O 0.33215 -0.00179 0.32287 0.0
O457 O 0.37902 0.97413 0.35449 0.0
O458 O 0.34176 0.91538 0.30366 0.0
O459 O 0.39436 0.94351 0.29535 0.0
C460 C 0.53568 0.00644 0.37945 0.0
C461 C 0.52861 0.9875 0.41302 0.0
H462 H 0.50039 0.95239 0.47476 0.0
H463 H 0.45623 0.89892 0.47198 0.0
H464 H 0.49759 0.02251 0.25785 0.0
H465 H 0.54079 0.03673 0.30975 0.0
H466 H 0.55964 0.02463 0.3774 0.0
H467 H 0.54679 -0.00816 0.43629 0.0
Mn468 Mn 0.27669 0.07481 0.59985 0.0
Mn469 Mn 0.2921 0.16912 0.59125 0.0
C470 C 0.22913 0.11669 0.58263 0.0
C471 C 0.24596 0.01459 0.61707 0.0
C472 C 0.3103 0.12224 0.53513 0.0
O473 O 0.32359 0.07735 0.63233 0.0
O474 O 0.3318 0.13524 0.60948 0.0
C475 C 0.32107 0.19316 0.66447 0.0
N476 N 0.29647 0.19719 0.63568 0.0
C477 C 0.26695 0.24888 0.66566 0.0
C478 C 0.28557 0.23919 0.69845 0.0
C479 C 0.31466 0.21305 0.69738 0.0
C480 C 0.27228 0.22603 0.63487 0.0
H481 H 0.34258 0.17231 0.66414 0.0
C482 C 0.34405 0.10605 0.6262 0.0
O483 O 0.27491 0.01671 0.59582 0.0
O484 O 0.24017 0.04573 0.63447 0.0
N485 N 0.25611 0.2054 0.57597 0.0
C486 C 0.24255 0.21201 0.5412 0.0
C487 C 0.21915 0.24269 0.53494 0.0
C488 C 0.21132 0.26734 0.56415 0.0
C489 C 0.22815 0.26177 0.59884 0.0
C490 C 0.25152 0.23083 0.60312 0.0
H491 H 0.24938 0.19364 0.51863 0.0
O492 O 0.23159 0.08228 0.57322 0.0
O493 O 0.25567 0.12922 0.60472 0.0
O494 O 0.31442 0.09181 0.55394 0.0
O495 O 0.2863 0.1444 0.54558 0.0
C496 C 0.22357 0.28623 0.62903 0.0
C497 C 0.24248 0.2793 0.66263 0.0
H498 H 0.27711 0.25107 0.72458 0.0
H499 H 0.33032 0.20653 0.72225 0.0
H500 H 0.20724 0.24741 0.5077 0.0
H501 H 0.19321 0.29098 0.55934 0.0
H502 H 0.20543 0.31022 0.62684 0.0
H503 H 0.23812 0.2976 0.68583 0.0
Mn504 Mn 0.15503 0.02673 0.84977 0.0
Mn505 Mn 0.06073 0.04221 0.84144 0.0
C506 C 0.11314 0.97924 0.83254 0.0
C507 C 0.21526 -0.00403 0.86685 0.0
C508 C 0.10747 0.06043 0.78516 0.0
O509 O 0.15256 0.07357 0.88235 0.0
O510 O 0.09467 0.08185 0.85959 0.0
C511 C 0.0369 0.07127 0.9147 0.0
N512 N 0.03281 0.04661 0.88597 0.0
C513 C 0.98114 0.01722 0.91609 0.0
C514 C -0.00911 0.03591 0.94883 0.0
C515 C 0.01704 0.06497 0.94765 0.0
C516 C 0.00393 0.02247 0.88524 0.0
H517 H 0.05776 0.09278 0.91428 0.0
C518 C 0.12388 0.09406 0.87629 0.0
O519 O 0.21312 0.02496 0.84566 0.0
O520 O 0.18415 -0.00985 0.88428 0.0
N521 N 0.02438 0.00624 0.82629 0.0
C522 C 0.01765 -0.00732 0.79156 0.0
C523 C 0.98694 0.96931 0.7854 0.0
C524 C 0.96236 0.96151 0.81468 0.0
C525 C 0.96805 0.97836 0.84934 0.0
C526 C -0.00098 0.0017 0.85352 0.0
H527 H 0.03595 -0.0005 0.76894 0.0
O528 O 0.14752 0.98172 0.82304 0.0
O529 O 0.10064 0.00572 0.85473 0.0
O530 O 0.13792 0.06453 0.80394 0.0
O531 O 0.08528 0.03646 0.79566 0.0
C532 C 0.94366 0.97384 0.8796 0.0
C533 C 0.9507 -0.00723 0.91317 0.0
H534 H 0.97904 0.02754 0.975 0.0
H535 H 0.02359 0.08071 0.97246 0.0
H536 H 0.98213 0.95739 0.75817 0.0
H537 H 0.9387 0.94343 0.80995 0.0
H538 H 0.91966 0.95572 0.8775 0.0
H539 H 0.93247 0.98844 0.93642 0.0
Mn540 Mn 0.2032 0.9051 0.09971 0.0
Mn541 Mn 0.18775 0.81078 0.09131 0.0
C542 C 0.25071 0.8632 0.08246 0.0
C543 C 0.23393 0.96535 0.11682 0.0
C544 C 0.1695 0.85755 0.0351 0.0
O545 O 0.15636 0.9026 0.13228 0.0
O546 O 0.1481 0.8447 0.10951 0.0
C547 C 0.15877 0.78687 0.16458 0.0
N548 N 0.18339 0.78279 0.13581 0.0
C549 C 0.21276 0.73103 0.16581 0.0
C550 C 0.19412 0.74074 0.19859 0.0
C551 C 0.16509 0.76694 0.19749 0.0
C552 C 0.20751 0.75389 0.13501 0.0
H553 H 0.13729 0.80775 0.16422 0.0
C554 C 0.13589 0.87392 0.12622 0.0
O555 O 0.20495 0.9632 0.09562 0.0
O556 O 0.23977 0.93423 0.13423 0.0
N557 N 0.22372 0.77444 0.07609 0.0
C558 C 0.23728 0.76777 0.04134 0.0
C559 C 0.26066 0.73708 0.03512 0.0
C560 C 0.26845 0.71244 0.06436 0.0
C561 C 0.2516 0.71806 0.09903 0.0
C562 C 0.22827 0.74904 0.10327 0.0
H563 H 0.23045 0.78612 0.01875 0.0
O564 O 0.24824 0.8976 0.07299 0.0
O565 O 0.22423 0.8507 0.10463 0.0
O566 O 0.1654 0.888 0.05389 0.0
O567 O 0.19349 0.83538 0.04557 0.0
C568 C 0.25611 0.6936 0.12923 0.0
C569 C 0.23718 0.70057 0.16281 0.0
H570 H 0.20253 0.72885 0.22472 0.0
H571 H 0.1494 0.77347 0.22233 0.0
H572 H 0.27258 0.73233 0.00789 0.0
H573 H 0.28654 0.68879 0.05959 0.0
H574 H 0.27422 0.66958 0.12707 0.0
H575 H 0.24149 0.68227 0.18602 0.0
Mn576 Mn 0.12973 0.32405 0.02708 0.0
Mn577 Mn 0.13838 0.41833 0.04246 0.0
C578 C 0.14678 0.36595 0.97933 0.0
C579 C 0.11245 0.26375 -0.0033 0.0
C580 C 0.19453 0.37149 0.06031 0.0
O581 O 0.09759 0.32658 0.07423 0.0
O582 O 0.12048 0.38445 0.08234 0.0
C583 C 0.06516 0.44213 0.07163 0.0
N584 N 0.09395 0.4464 0.04709 0.0
C585 C 0.0642 0.49871 0.01839 0.0
C586 C 0.03144 0.48911 0.03712 0.0
C587 C 0.0324 0.46244 0.06571 0.0
C588 C 0.09487 0.47557 0.02328 0.0
H589 H 0.06539 0.42093 0.09281 0.0
C590 C 0.10394 0.3552 0.09472 0.0
O591 O 0.13384 0.266 0.02553 0.0
O592 O 0.09496 0.29484 -0.00914 0.0
N593 N 0.15352 0.4547 0.00647 0.0
C594 C 0.18823 0.46122 -0.00731 0.0
C595 C 0.19449 0.49203 0.96948 0.0
C596 C 0.16539 0.51694 0.9621 0.0
C597 C 0.13082 0.51147 0.9792 0.0
C598 C 0.12651 0.48035 0.00233 0.0
H599 H 0.21078 0.4427 -0.00081 0.0
O600 O 0.15606 0.33152 0.98171 0.0
O601 O 0.12482 0.37847 0.006 0.0
O602 O 0.17578 0.34106 0.06456 0.0
O603 O 0.18395 0.39363 0.03637 0.0
C604 C 0.10079 0.53622 0.97512 0.0
C605 C 0.06729 0.52935 -0.00579 0.0
H606 H 0.00538 0.50141 0.02903 0.0
H607 H 0.00756 0.4559 0.0814 0.0
H608 H 0.22168 0.49668 0.95741 0.0
H609 H 0.1702 0.5407 0.94415 0.0
H610 H 0.10303 0.56039 0.95723 0.0
H611 H 0.0443 0.54801 -0.0096 0.0
Mn612 Mn 0.62979 0.15557 0.95302 0.0
Mn613 Mn 0.63862 0.06129 0.93769 0.0
C614 C 0.64693 0.11373 0.00078 0.0
C615 C 0.61255 0.21591 0.98338 0.0
C616 C 0.69456 0.10827 0.91967 0.0
O617 O 0.5975 0.15297 0.90598 0.0
O618 O 0.62046 0.09513 0.89783 0.0
C619 C 0.56537 0.03721 0.90879 0.0
N620 N 0.59433 0.03296 0.93313 0.0
C621 C 0.56498 0.98035 0.96176 0.0
C622 C 0.53207 0.98991 0.94329 0.0
C623 C 0.53274 0.01672 0.91482 0.0
C624 C 0.5955 0.0037 0.95683 0.0
H625 H 0.56538 0.05851 0.88771 0.0
C626 C 0.60383 0.12435 0.88549 0.0
O627 O 0.63387 0.21362 0.95451 0.0
O628 O 0.59512 0.1848 0.98932 0.0
N629 N 0.65399 0.02497 0.97365 0.0
C630 C 0.68873 0.01869 0.98745 0.0
C631 C 0.69521 0.98791 0.01064 0.0
C632 C 0.6663 0.96276 0.01797 0.0
C633 C 0.63171 0.96799 0.00085 0.0
C634 C 0.62717 -0.0009 0.97775 0.0
H635 H 0.71112 0.0374 0.98098 0.0
O636 O 0.65625 0.14815 -0.00171 0.0
O637 O 0.62495 0.10113 0.97416 0.0
O638 O 0.67575 0.13865 0.9154 0.0
O639 O 0.68409 0.08622 0.94374 0.0
C640 C 0.60186 0.94302 0.00492 0.0
C641 C 0.5683 0.94966 0.98586 0.0
H642 H 0.50612 0.97748 0.95153 0.0
H643 H 0.50777 0.02325 0.89933 0.0
H644 H 0.7224 0.98347 0.02277 0.0
H645 H 0.67129 0.93904 0.03591 0.0
H646 H 0.60429 0.91885 0.0228 0.0
H647 H 0.5454 0.93087 0.98974 0.0
Mn648 Mn 0.07426 0.37976 0.2031 0.0
Mn649 Mn 0.16853 0.38855 0.18773 0.0
C650 C 0.11611 0.39694 0.25082 0.0
C651 C 0.01395 0.36254 0.23351 0.0
C652 C 0.12157 0.44452 0.1697 0.0
O653 O 0.07684 0.34744 0.15609 0.0
O654 O 0.13469 0.37037 0.14792 0.0
C655 C 0.19264 0.31532 0.15879 0.0
N656 N 0.19683 0.34424 0.1832 0.0
C657 C 0.24938 0.31486 0.21186 0.0
C658 C 0.23985 0.28196 0.19334 0.0
C659 C 0.2131 0.28268 0.16482 0.0
C660 C 0.22605 0.34538 0.20694 0.0
H661 H 0.17139 0.31537 0.13767 0.0
C662 C 0.10548 0.35371 0.13561 0.0
O663 O 0.01622 0.38385 0.20462 0.0
O664 O 0.04505 0.34511 0.23944 0.0
N665 N 0.20485 0.40394 0.22367 0.0
C666 C 0.21118 0.4387 0.23741 0.0
C667 C 0.24196 0.44517 0.26059 0.0
C668 C 0.26706 0.41623 0.26796 0.0
C669 C 0.26179 0.38161 0.2509 0.0
C670 C 0.23067 0.37708 0.22782 0.0
H671 H 0.1925 0.46111 0.23091 0.0
O672 O 0.0817 0.40625 0.24836 0.0
O673 O 0.12869 0.37493 0.22422 0.0
O674 O 0.09118 0.42572 0.16546 0.0
O675 O 0.14363 0.43405 0.19375 0.0
C676 C 0.28674 0.35175 0.25499 0.0
C677 C 0.28007 0.31817 0.23594 0.0
H678 H 0.25227 0.256 0.20156 0.0
H679 H 0.2066 0.25772 0.14929 0.0
H680 H 0.24644 0.47238 0.27267 0.0
H681 H 0.2908 0.42121 0.28588 0.0
H682 H 0.31092 0.35417 0.27283 0.0
H683 H 0.29887 0.29528 0.23979 0.0
Mn684 Mn 0.84998 0.82437 0.45304 0.0
Mn685 Mn 0.84144 0.91866 0.43763 0.0
C686 C 0.83277 0.86624 0.50068 0.0
C687 C 0.86716 0.76404 0.48351 0.0
C688 C 0.78533 0.87185 0.41951 0.0
O689 O 0.88239 0.82689 0.40609 0.0
O690 O 0.85957 0.88476 0.39786 0.0
C691 C 0.91468 0.94261 0.40861 0.0
N692 N 0.88586 0.94678 0.43314 0.0
C693 C 0.91546 -0.00087 0.46191 0.0
C694 C 0.94827 0.98959 0.44324 0.0
C695 C 0.94739 0.96297 0.41459 0.0
C696 C 0.88485 0.97593 0.45696 0.0
H697 H 0.9145 0.92146 0.38739 0.0
C698 C 0.87619 0.85552 0.38558 0.0
O699 O 0.84586 0.7663 0.45462 0.0
O700 O 0.88457 0.79515 0.48943 0.0
N701 N 0.82616 0.95502 0.47357 0.0
C702 C 0.79142 0.9615 0.48726 0.0
C703 C 0.78507 -0.00773 0.5105 0.0
C704 C 0.81413 0.01721 0.51797 0.0
C705 C 0.84875 0.01178 0.50095 0.0
C706 C 0.85315 0.98068 0.47781 0.0
H707 H 0.76892 0.94296 0.48068 0.0
O708 O 0.8234 0.83183 0.49823 0.0
O709 O 0.85487 0.87878 0.47413 0.0
O710 O 0.80409 0.84141 0.41534 0.0
O711 O 0.79582 0.89396 0.44352 0.0
C712 C 0.87873 0.03655 0.50513 0.0
C713 C 0.91228 0.02975 0.48609 0.0
H714 H 0.97429 0.00191 0.4514 0.0
H715 H 0.97227 0.95648 0.39894 0.0
H716 H 0.75787 -0.00312 0.52253 0.0
H717 H 0.80925 0.04094 0.53593 0.0
H718 H 0.87642 0.06071 0.52303 0.0
H719 H 0.93525 0.04843 0.48997 0.0
Mn720 Mn 0.90571 0.10029 0.20296 0.0
Mn721 Mn 0.81143 0.09154 0.18763 0.0
C722 C 0.86386 0.08316 0.25069 0.0
C723 C 0.96599 0.11758 0.23335 0.0
C724 C 0.85834 0.03547 0.16966 0.0
O725 O 0.90312 0.1325 0.15585 0.0
O726 O 0.84527 0.1096 0.14777 0.0
C727 C 0.78745 0.16479 0.15862 0.0
N728 N 0.78328 0.13594 0.18312 0.0
C729 C 0.73098 0.16556 0.21197 0.0
C730 C 0.74052 0.19838 0.19331 0.0
C731 C 0.76712 0.19751 0.16465 0.0
C732 C 0.75416 0.13493 0.20698 0.0
H733 H 0.80861 0.16462 0.1374 0.0
C734 C 0.87448 0.12618 0.13539 0.0
O735 O 0.96376 0.09622 0.2045 0.0
O736 O 0.93489 0.13504 0.23922 0.0
N737 N 0.77513 0.07625 0.22362 0.0
C738 C 0.76866 0.04149 0.23731 0.0
C739 C 0.73788 0.03512 0.26053 0.0
C740 C 0.71295 0.06418 0.26802 0.0
C741 C 0.71837 0.09882 0.25102 0.0
C742 C 0.74945 0.10323 0.22786 0.0
H743 H 0.78721 0.01897 0.23075 0.0
O744 O 0.89829 0.0739 0.24828 0.0
O745 O 0.8513 0.10514 0.22406 0.0
O746 O 0.88875 0.05424 0.16543 0.0
O747 O 0.83621 0.04599 0.19363 0.0
C748 C 0.6936 0.12881 0.25522 0.0
C749 C 0.70039 0.16238 0.2362 0.0
H750 H 0.7282 0.22441 0.20148 0.0
H751 H 0.77361 0.22241 0.14902 0.0
H752 H 0.73328 0.0079 0.27254 0.0
H753 H 0.68923 0.05928 0.28597 0.0
H754 H 0.66947 0.1265 0.27316 0.0
H755 H 0.68176 0.18538 0.24017 0.0
Mn756 Mn 0.35007 0.65587 0.52697 0.0
Mn757 Mn 0.34145 0.56158 0.54238 0.0
C758 C 0.33296 0.61399 0.47928 0.0
C759 C 0.36737 0.71616 0.49652 0.0
C760 C 0.28529 0.60839 0.56029 0.0
O761 O 0.38227 0.65334 0.57407 0.0
O762 O 0.3594 0.59547 0.58221 0.0
C763 C 0.41466 0.53775 0.57157 0.0
N764 N 0.38591 0.53356 0.54695 0.0
C765 C 0.41579 0.48146 0.51804 0.0
C766 C 0.44853 0.49107 0.53681 0.0
C767 C 0.44747 0.51756 0.56556 0.0
C768 C 0.38507 0.50449 0.52303 0.0
H769 H 0.41436 0.55884 0.59285 0.0
C770 C 0.37597 0.6247 0.59456 0.0
O771 O 0.34598 0.71394 0.52536 0.0
O772 O 0.38482 0.68506 0.4907 0.0
N773 N 0.32632 0.52523 0.50638 0.0
C774 C 0.2916 0.51864 0.49266 0.0
C775 C 0.28539 0.48786 0.46941 0.0
C776 C 0.31456 0.46306 0.4619 0.0
C777 C 0.34915 0.4686 0.47893 0.0
C778 C 0.35341 0.49967 0.50213 0.0
H779 H 0.26902 0.53709 0.49925 0.0
O780 O 0.32368 0.64842 0.48165 0.0
O781 O 0.35496 0.60146 0.50591 0.0
O782 O 0.30404 0.63884 0.5645 0.0
O783 O 0.29584 0.58624 0.53636 0.0
C784 C 0.37925 0.44398 0.4747 0.0
C785 C 0.41277 0.4509 0.49375 0.0
H786 H 0.47463 0.47889 0.52867 0.0
H787 H 0.47229 0.52408 0.5813 0.0
H788 H 0.25819 0.48315 0.45739 0.0
H789 H 0.30978 0.43934 0.44391 0.0
H790 H 0.37707 0.41987 0.45673 0.0
H791 H 0.43586 0.4324 0.48977 0.0
Mn792 Mn 0.07411 0.59998 0.27696 0.0
Mn793 Mn 0.16838 0.59145 0.29234 0.0
C794 C 0.11598 0.58287 0.22925 0.0
C795 C 0.01377 0.61715 0.24653 0.0
C796 C 0.1216 0.5353 0.31034 0.0
O797 O 0.07661 0.63231 0.32397 0.0
O798 O 0.13448 0.60947 0.33215 0.0
C799 C 0.19224 0.66467 0.3215 0.0
N800 N 0.19647 0.63588 0.29695 0.0
C801 C 0.24891 0.66553 0.26837 0.0
C802 C 0.23935 0.69831 0.28709 0.0
C803 C 0.21263 0.69739 0.31564 0.0
C804 C 0.22569 0.63491 0.27321 0.0
H805 H 0.17102 0.66448 0.34265 0.0
C806 C 0.10524 0.62606 0.34447 0.0
O807 O 0.01606 0.59582 0.27541 0.0
O808 O 0.04485 0.63461 0.24063 0.0
N809 N 0.20476 0.57627 0.25639 0.0
C810 C 0.21125 0.54156 0.2426 0.0
C811 C 0.24205 0.53526 0.2194 0.0
C812 C 0.26701 0.56433 0.21205 0.0
C813 C 0.26159 0.5989 0.22917 0.0
C814 C 0.23046 0.60326 0.25227 0.0
H815 H 0.19268 0.51906 0.24909 0.0
O816 O 0.08158 0.57348 0.23171 0.0
O817 O 0.12851 0.60493 0.25584 0.0
O818 O 0.09118 0.55405 0.31458 0.0
O819 O 0.14369 0.54584 0.28632 0.0
C820 C 0.28639 0.62888 0.22514 0.0
C821 C 0.27958 0.66239 0.24424 0.0
H822 H 0.2517 0.72435 0.27901 0.0
H823 H 0.20611 0.72225 0.33132 0.0
H824 H 0.24665 0.50808 0.2073 0.0
H825 H 0.29077 0.55948 0.19412 0.0
H826 H 0.31058 0.6266 0.20728 0.0
H827 H 0.29829 0.68535 0.24048 0.0
Mn828 Mn 0.40556 0.37978 0.7768 0.0
Mn829 Mn 0.31131 0.3885 0.79221 0.0
C830 C 0.36367 0.39692 0.7291 0.0
C831 C 0.46586 0.36256 0.74641 0.0
C832 C 0.35821 0.44454 0.81017 0.0
O833 O 0.40302 0.34751 0.82386 0.0
O834 O 0.34518 0.37043 0.83204 0.0
C835 C 0.28731 0.31531 0.82134 0.0
N836 N 0.28314 0.34413 0.79679 0.0
C837 C 0.23071 0.31457 0.76813 0.0
C838 C 0.24023 0.28176 0.78682 0.0
C839 C 0.2669 0.28262 0.81541 0.0
C840 C 0.25396 0.34515 0.773 0.0
H841 H 0.30851 0.31547 0.84251 0.0
C842 C 0.37441 0.35383 0.84437 0.0
O843 O 0.46359 0.3839 0.77527 0.0
O844 O 0.43477 0.3451 0.74051 0.0
N845 N 0.27496 0.40378 0.75626 0.0
C846 C 0.26851 0.43853 0.74254 0.0
C847 C 0.23771 0.4449 0.71936 0.0
C848 C 0.21272 0.41587 0.71196 0.0
C849 C 0.21812 0.38126 0.72901 0.0
C850 C 0.24925 0.37683 0.7521 0.0
H851 H 0.28709 0.46101 0.74907 0.0
O852 O 0.39809 0.40621 0.7315 0.0
O853 O 0.35113 0.37492 0.75572 0.0
O854 O 0.38862 0.42576 0.81439 0.0
O855 O 0.33611 0.43405 0.78616 0.0
C856 C 0.19328 0.35131 0.72493 0.0
C857 C 0.20005 0.31777 0.744 0.0
H858 H 0.22785 0.25575 0.77869 0.0
H859 H 0.27338 0.25774 0.83107 0.0
H860 H 0.23313 0.47211 0.7073 0.0
H861 H 0.18897 0.42078 0.69404 0.0
H862 H 0.16909 0.35365 0.70708 0.0
H863 H 0.18129 0.29485 0.74023 0.0
Mn864 Mn 0.94718 0.84546 0.67212 0.0
Mn865 Mn 0.94378 0.82251 0.58451 0.0
C866 C 0.00192 0.83069 0.63785 0.0
C867 C 0.96899 0.86682 0.73095 0.0
C868 C 0.92434 0.77245 0.63737 0.0
O869 O 0.9003 0.87718 0.65933 0.0
O870 O 0.89623 0.83899 0.61012 0.0
C871 C 0.91791 0.89412 0.55556 0.0
N872 N 0.9384 0.86262 0.5516 0.0
C873 C 0.9491 0.87441 0.48729 0.0
C874 C 0.928 0.90602 0.4913 0.0
C875 C 0.91105 0.91585 0.5247 0.0
C876 C 0.95455 0.85357 0.51899 0.0
H877 H 0.90952 0.90459 0.58206 0.0
C878 C 0.88312 0.86597 0.6299 0.0
O879 O 0.9422 0.843 0.72831 0.0
O880 O 0.97679 0.88423 0.70014 0.0
N881 N 0.98349 0.807 0.55183 0.0
C882 C 0.00531 0.77635 0.55324 0.0
C883 C 0.02284 0.76296 0.52097 0.0
C884 C 0.01887 0.78168 0.48725 0.0
C885 C -0.00314 0.81343 0.48611 0.0
C886 C 0.97885 0.82458 0.51904 0.0
H887 H 0.0087 0.76172 0.57898 0.0
O888 O -0.00579 0.81993 0.67139 0.0
O889 O 0.97489 0.84816 0.62082 0.0
O890 O 0.91452 0.79688 0.66094 0.0
O891 O 0.95198 0.78052 0.61794 0.0
C892 C -0.009 0.83378 0.45326 0.0
C893 C 0.96746 0.86488 0.45399 0.0
H894 H 0.93228 0.92625 0.47173 0.0
H895 H 0.89612 0.94172 0.52761 0.0
H896 H 0.03803 0.73702 0.52167 0.0
H897 H 0.03233 0.77104 0.46243 0.0
H898 H 0.00461 0.82594 0.42751 0.0
H899 H 0.96366 0.88118 0.42894 0.0
Mn900 Mn 0.88458 0.19751 0.4222 0.0
Mn901 Mn 0.90754 0.19412 0.33457 0.0
C902 C 0.89928 0.25228 0.3879 0.0
C903 C 0.86312 0.21933 0.481 0.0
C904 C 0.9576 0.17472 0.3874 0.0
O905 O 0.85292 0.1506 0.40941 0.0
O906 O 0.89112 0.14657 0.36022 0.0
C907 C 0.83592 0.16822 0.30569 0.0
N908 N 0.86742 0.18871 0.30169 0.0
C909 C 0.85563 0.19933 0.23737 0.0
C910 C 0.82406 0.17816 0.2414 0.0
C911 C 0.81422 0.16127 0.27483 0.0
C912 C 0.87644 0.20484 0.26907 0.0
H913 H 0.82545 0.15987 0.3322 0.0
C914 C 0.86413 0.13345 0.37996 0.0
O915 O 0.887 0.19258 0.4784 0.0
O916 O 0.84574 0.22708 0.45017 0.0
N917 N 0.92302 0.23381 0.30187 0.0
C918 C 0.95372 0.25556 0.30322 0.0
C919 C 0.96707 0.2731 0.27094 0.0
C920 C 0.94832 0.26914 0.23724 0.0
C921 C 0.91656 0.24714 0.23614 0.0
C922 C 0.90542 0.22916 0.26908 0.0
H923 H 0.96837 0.25894 0.32894 0.0
O924 O 0.91002 0.2446 0.42145 0.0
O925 O 0.88188 0.2252 0.3709 0.0
O926 O 0.9332 0.16488 0.41101 0.0
O927 O 0.94953 0.20236 0.36798 0.0
C928 C 0.89622 0.24123 0.20329 0.0
C929 C 0.86514 0.21766 0.20405 0.0
H930 H 0.80387 0.18228 0.22176 0.0
H931 H 0.78838 0.1463 0.27774 0.0
H932 H -0.00699 0.28828 0.27161 0.0
H933 H 0.95893 0.28259 0.21241 0.0
H934 H 0.90405 0.25482 0.17753 0.0
H935 H 0.84886 0.2138 0.179 0.0
Mn936 Mn 0.53255 0.13456 0.17225 0.0
Mn937 Mn 0.53607 0.15716 0.08457 0.0
C938 C 0.47784 0.14927 0.13788 0.0
C939 C 0.51069 0.11326 0.23108 0.0
C940 C 0.55541 0.20749 0.13723 0.0
O941 O 0.57946 0.10279 0.15959 0.0
O942 O 0.58356 0.14091 0.11037 0.0
C943 C 0.56198 0.08534 0.05612 0.0
N944 N 0.54154 0.11685 0.05192 0.0
C945 C 0.53119 0.10483 0.98761 0.0
C946 C 0.55235 0.07326 -0.00815 0.0
C947 C 0.56911 0.06356 0.02537 0.0
C948 C 0.52555 0.12577 0.0192 0.0
H949 H 0.57015 0.07494 0.08272 0.0
C950 C 0.59664 0.11393 0.13014 0.0
O951 O 0.53745 0.13712 0.22843 0.0
O952 O 0.50295 0.0958 0.20029 0.0
N953 N 0.49644 0.17247 0.05172 0.0
C954 C 0.47465 0.20314 0.0529 0.0
C955 C 0.4572 0.21637 0.02053 0.0
C956 C 0.46126 0.19748 0.98691 0.0
C957 C 0.48332 0.16574 0.98599 0.0
C958 C 0.50122 0.15475 0.01902 0.0
H959 H 0.47116 0.21789 0.07855 0.0
O960 O 0.4855 0.16008 0.17141 0.0
O961 O 0.50488 0.13172 0.12095 0.0
O962 O 0.56518 0.18316 0.16094 0.0
O963 O 0.52783 0.19934 0.11774 0.0
C964 C 0.48935 0.14527 0.95324 0.0
C965 C 0.51295 0.11421 0.9542 0.0
H966 H 0.54827 0.05293 0.97235 0.0
H967 H 0.58414 0.03775 0.0284 0.0
H968 H 0.44201 0.24232 0.02108 0.0
H969 H 0.44787 0.20798 0.96201 0.0
H970 H 0.47583 0.15299 0.92742 0.0
H971 H 0.51687 0.09785 0.92923 0.0
Mn972 Mn 0.59519 0.78252 0.92174 0.0
Mn973 Mn 0.57216 0.78573 0.8341 0.0
C974 C 0.58039 0.72774 0.88759 0.0
C975 C 0.61664 0.76081 0.98059 0.0
C976 C 0.52223 0.8054 0.88696 0.0
O977 O 0.62691 0.82933 0.90885 0.0
O978 O 0.58878 0.83332 0.85957 0.0
C979 C 0.64358 0.8117 0.80483 0.0
N980 N 0.61218 0.79101 0.80107 0.0
C981 C 0.62369 0.78029 0.73671 0.0
C982 C 0.6552 0.80156 0.74052 0.0
C983 C 0.66511 0.8186 0.77385 0.0
C984 C 0.60305 0.77478 0.76853 0.0
H985 H 0.65409 0.82027 0.83125 0.0
C986 C 0.6157 0.84647 0.87941 0.0
O987 O 0.59281 0.7876 0.97792 0.0
O988 O 0.63398 0.75293 0.94977 0.0
N989 N 0.55657 0.74593 0.80156 0.0
C990 C 0.52593 0.72411 0.80308 0.0
C991 C 0.51243 0.70655 0.77088 0.0
C992 C 0.53103 0.71048 0.73709 0.0
C993 C 0.56279 0.73245 0.73583 0.0
C994 C 0.57406 0.75048 0.7687 0.0
H995 H 0.51137 0.72077 0.82887 0.0
O996 O 0.56962 0.73553 0.92111 0.0
O997 O 0.59784 0.75472 0.87048 0.0
O998 O 0.54667 0.81524 0.9105 0.0
O999 O 0.5302 0.77769 0.86758 0.0
C1000 C 0.58299 0.7383 0.70289 0.0
C1001 C 0.61405 0.7619 0.70347 0.0
H1002 H 0.67528 0.79742 0.72078 0.0
H1003 H 0.69091 0.83366 0.77662 0.0
H1004 H 0.48649 0.69137 0.77166 0.0
H1005 H 0.5203 0.69701 0.71232 0.0
H1006 H 0.57505 0.72467 0.67719 0.0
H1007 H 0.63022 0.76574 0.67834 0.0
Mn1008 Mn 0.94723 0.13457 0.80786 0.0
Mn1009 Mn 0.94384 0.15741 0.8955 0.0
C1010 C 0.00195 0.14933 0.84213 0.0
C1011 C 0.96903 0.11322 0.74902 0.0
C1012 C 0.92434 0.20753 0.8427 0.0
O1013 O 0.90037 0.10281 0.82062 0.0
O1014 O 0.8963 0.14094 0.86987 0.0
C1015 C 0.91792 0.0858 0.92442 0.0
N1016 N 0.93848 0.11726 0.92837 0.0
C1017 C 0.9491 0.10548 -0.00731 0.0
C1018 C 0.92793 0.07391 0.98869 0.0
C1019 C 0.91098 0.06411 0.95528 0.0
C1020 C 0.95461 0.12629 0.96098 0.0
H1021 H 0.9095 0.07535 0.89792 0.0
C1022 C 0.88319 0.114 0.85006 0.0
O1023 O 0.94225 0.13705 0.75168 0.0
O1024 O 0.97684 0.09581 0.77982 0.0
N1025 N 0.98355 0.17289 0.92818 0.0
C1026 C 0.00535 0.20355 0.9268 0.0
C1027 C 0.02286 0.21693 0.95908 0.0
C1028 C 0.01889 0.1982 -0.00721 0.0
C1029 C -0.00311 0.16643 -0.0061 0.0
C1030 C 0.97891 0.15529 0.96096 0.0
H1031 H 0.00875 0.21819 0.90107 0.0
O1032 O -0.00576 0.16013 0.8086 0.0
O1033 O 0.97495 0.13183 0.85915 0.0
O1034 O 0.91454 0.18312 0.8191 0.0
O1035 O 0.95198 0.19946 0.86213 0.0
C1036 C -0.00899 0.14608 0.02675 0.0
C1037 C 0.96744 0.115 0.026 0.0
H1038 H 0.93214 0.05367 0.00827 0.0
H1039 H 0.89596 0.0383 0.95239 0.0
H1040 H 0.03804 0.24288 0.9584 0.0
H1041 H 0.03232 0.20882 0.01762 0.0
H1042 H 0.0046 0.15392 0.05251 0.0
H1043 H 0.96361 0.09872 0.05106 0.0
Mn1044 Mn 0.59518 0.19759 0.55768 0.0
Mn1045 Mn 0.57238 0.19418 0.64536 0.0
C1046 C 0.58045 0.25234 0.59198 0.0
C1047 C 0.61657 0.21944 0.49887 0.0
C1048 C 0.52224 0.1747 0.59261 0.0
O1049 O 0.6269 0.1507 0.57043 0.0
O1050 O 0.58878 0.14665 0.61968 0.0
C1051 C 0.64401 0.16819 0.67416 0.0
N1052 N 0.61257 0.18878 0.67816 0.0
C1053 C 0.62435 0.19922 0.74251 0.0
C1054 C 0.65584 0.17793 0.73847 0.0
C1055 C 0.66564 0.16108 0.70502 0.0
C1056 C 0.60357 0.20486 0.7108 0.0
H1057 H 0.65446 0.15984 0.64764 0.0
C1058 C 0.61572 0.13353 0.59988 0.0
O1059 O 0.59272 0.19267 0.50149 0.0
O1060 O 0.63397 0.22719 0.52969 0.0
N1061 N 0.55696 0.23387 0.67808 0.0
C1062 C 0.52627 0.25563 0.67677 0.0
C1063 C 0.51293 0.27312 0.70907 0.0
C1064 C 0.53171 0.26913 0.74276 0.0
C1065 C 0.56347 0.24712 0.74381 0.0
C1066 C 0.57459 0.22919 0.71084 0.0
H1067 H 0.51159 0.25904 0.65107 0.0
O1068 O 0.56966 0.24463 0.55845 0.0
O1069 O 0.59793 0.22529 0.60897 0.0
O1070 O 0.5466 0.16492 0.56895 0.0
O1071 O 0.53029 0.20234 0.61206 0.0
C1072 C 0.58381 0.24114 0.77665 0.0
C1073 C 0.61485 0.2175 0.77586 0.0
H1074 H 0.67601 0.18189 0.75815 0.0
H1075 H 0.6914 0.14596 0.70212 0.0
H1076 H 0.48697 0.28828 0.70843 0.0
H1077 H 0.52111 0.28254 0.76761 0.0
H1078 H 0.57599 0.25468 0.80243 0.0
H1079 H 0.63111 0.21356 0.80091 0.0
Mn1080 Mn 0.53258 0.84548 0.30749 0.0
Mn1081 Mn 0.53605 0.82268 0.39511 0.0
C1082 C 0.47785 0.83074 0.34181 0.0
C1083 C 0.51077 0.86682 0.24867 0.0
C1084 C 0.55543 0.77249 0.34234 0.0
O1085 O 0.57948 0.87722 0.32023 0.0
O1086 O 0.58358 0.83902 0.3694 0.0
C1087 C 0.56185 0.89445 0.42373 0.0
N1088 N 0.54147 0.86289 0.42786 0.0
C1089 C 0.53099 0.87483 0.49217 0.0
C1090 C 0.55207 0.90645 0.48799 0.0
C1091 C 0.56886 0.91623 0.45451 0.0
C1092 C 0.52544 0.85391 0.46054 0.0
H1093 H 0.57006 0.90489 0.39715 0.0
C1094 C 0.59667 0.86603 0.34967 0.0
O1095 O 0.53754 0.84298 0.25132 0.0
O1096 O 0.503 0.88426 0.27947 0.0
N1097 N 0.49639 0.80728 0.42789 0.0
C1098 C 0.47456 0.77664 0.42662 0.0
C1099 C 0.45708 0.76334 0.45895 0.0
C1100 C 0.46113 0.78215 0.49262 0.0
C1101 C 0.48319 0.81388 0.49363 0.0
C1102 C 0.50113 0.82493 0.46064 0.0
H1103 H 0.4711 0.76194 0.40094 0.0
O1104 O 0.48553 0.81996 0.30828 0.0
O1105 O 0.50489 0.84823 0.35878 0.0
O1106 O 0.56521 0.79689 0.31871 0.0
O1107 O 0.52782 0.78059 0.36181 0.0
C1108 C 0.48915 0.83429 0.52642 0.0
C1109 C 0.51272 0.86538 0.52554 0.0
H1110 H 0.54788 0.92673 0.50751 0.0
H1111 H 0.5838 0.94209 0.45151 0.0
H1112 H 0.4419 0.73739 0.45835 0.0
H1113 H 0.44772 0.77159 0.51749 0.0
H1114 H 0.4756 0.82653 0.55222 0.0
H1115 H 0.51658 0.88173 0.55054 0.0
Mn1116 Mn 0.88469 0.78255 0.05801 0.0
Mn1117 Mn 0.90781 0.78581 0.14563 0.0
C1118 C 0.89942 0.72777 0.09223 0.0
C1119 C 0.86321 0.76077 -0.00081 0.0
C1120 C 0.95771 0.80539 0.0927 0.0
O1121 O 0.85304 0.82943 0.07089 0.0
O1122 O 0.89121 0.83342 0.12015 0.0
C1123 C 0.83639 0.81177 0.1749 0.0
N1124 N 0.86781 0.79114 0.17868 0.0
C1125 C 0.85624 0.78033 0.24302 0.0
C1126 C 0.82469 0.80154 0.23918 0.0
C1127 C 0.81479 0.81859 0.20584 0.0
C1128 C 0.87693 0.77488 0.21122 0.0
H1129 H 0.82589 0.82034 0.14847 0.0
C1130 C 0.86429 0.84658 0.10032 0.0
O1131 O 0.88706 0.78754 0.00182 0.0
O1132 O 0.84586 0.75297 0.03003 0.0
N1133 N 0.92339 0.746 0.17819 0.0
C1134 C 0.954 0.72414 0.17666 0.0
C1135 C 0.96749 0.70656 0.20887 0.0
C1136 C 0.94889 0.7105 0.24266 0.0
C1137 C 0.91715 0.7325 0.24392 0.0
C1138 C 0.9059 0.75056 0.21105 0.0
H1139 H 0.96856 0.72079 0.15088 0.0
O1140 O 0.91018 0.73551 0.05869 0.0
O1141 O 0.88204 0.75481 0.1093 0.0
O1142 O 0.93325 0.81523 0.06917 0.0
O1143 O 0.94973 0.7777 0.1121 0.0
C1144 C 0.89693 0.73832 0.27685 0.0
C1145 C 0.86586 0.76191 0.27626 0.0
H1146 H 0.80459 0.79734 0.2589 0.0
H1147 H 0.78895 0.83358 0.20304 0.0
H1148 H -0.00658 0.69136 0.2081 0.0
H1149 H 0.95961 0.69701 0.26743 0.0
H1150 H 0.90485 0.72467 0.30255 0.0
H1151 H 0.84966 0.76572 0.30137 0.0
Mn1152 Mn 0.6714 0.94798 0.84523 0.0
Mn1153 Mn 0.5838 0.94466 0.82177 0.0
C1154 C 0.63726 0.00262 0.83011 0.0
C1155 C 0.73013 0.96996 0.86679 0.0
C1156 C 0.63697 0.92445 0.77227 0.0
O1157 O 0.65846 0.90134 0.87713 0.0
O1158 O 0.60914 0.89713 0.83897 0.0
C1159 C 0.55368 0.91859 0.89275 0.0
N1160 N 0.55041 0.93962 0.86154 0.0
C1161 C 0.48593 0.95046 0.8724 0.0
C1162 C 0.48926 0.92888 0.90373 0.0
C1163 C 0.52245 0.91167 0.9139 0.0
C1164 C 0.518 0.95599 0.85213 0.0
H1165 H 0.57992 0.90973 0.90346 0.0
C1166 C 0.62908 0.8841 0.86591 0.0
O1167 O 0.72763 0.94304 0.8431 0.0
O1168 O 0.69921 0.97785 0.88395 0.0
N1169 N 0.55145 0.98458 0.8058 0.0
C1170 C 0.55326 0.00651 0.77524 0.0
C1171 C 0.52117 0.0241 0.76144 0.0
C1172 C 0.48724 0.02024 0.77976 0.0
C1173 C 0.48571 -0.00167 0.81156 0.0
C1174 C 0.51847 0.98024 0.82311 0.0
H1175 H 0.57912 0.00972 0.76078 0.0
O1176 O 0.67079 -0.00521 0.81939 0.0
O1177 O 0.62009 0.97569 0.84757 0.0
O1178 O 0.66041 0.91488 0.79692 0.0
O1179 O 0.61758 0.95226 0.77993 0.0
C1180 C 0.45258 -0.00743 0.83146 0.0
C1181 C 0.45281 0.96891 0.86248 0.0
H1182 H 0.46905 0.93263 0.92341 0.0
H1183 H 0.52495 0.89645 0.93961 0.0
H1184 H 0.52213 0.03923 0.73548 0.0
H1185 H 0.46258 0.0337 0.7688 0.0
H1186 H 0.42697 0.00623 0.82327 0.0
H1187 H 0.4275 0.965 0.87838 0.0
Mn1188 Mn 0.78169 0.92181 0.59551 0.0
Mn1189 Mn 0.78504 0.83424 0.57203 0.0
C1190 C 0.72704 0.88772 0.5802 0.0
C1191 C 0.7597 0.98054 0.61699 0.0
C1192 C 0.80531 0.88742 0.5226 0.0
O1193 O 0.82826 0.90882 0.62753 0.0
O1194 O 0.83254 0.85957 0.58931 0.0
C1195 C 0.81092 0.80417 0.64309 0.0
N1196 N 0.79 0.80087 0.61181 0.0
C1197 C 0.77949 0.7363 0.62244 0.0
C1198 C 0.80107 0.73963 0.65377 0.0
C1199 C 0.81804 0.77289 0.6641 0.0
C1200 C 0.77381 0.76841 0.60228 0.0
H1201 H 0.81959 0.83044 0.65389 0.0
C1202 C 0.84552 0.87943 0.61632 0.0
O1203 O 0.7867 0.97802 0.59339 0.0
O1204 O 0.75174 0.94963 0.63415 0.0
N1205 N 0.74519 0.80187 0.55597 0.0
C1206 C 0.72335 0.80368 0.52536 0.0
C1207 C 0.70584 0.77157 0.5115 0.0
C1208 C 0.70975 0.73761 0.52978 0.0
C1209 C 0.73165 0.73607 0.56158 0.0
C1210 C 0.74961 0.76886 0.57323 0.0
H1211 H 0.72017 0.82955 0.5109 0.0
O1212 O 0.73494 0.92124 0.56953 0.0
O1213 O 0.75391 0.87052 0.59774 0.0
O1214 O 0.81487 0.91083 0.54727 0.0
O1215 O 0.77749 0.86801 0.53018 0.0
C1216 C 0.73754 0.70289 0.58139 0.0
C1217 C 0.7612 0.70312 0.61241 0.0
H1218 H 0.79755 0.71927 0.67332 0.0
H1219 H 0.83336 0.77533 0.68976 0.0
H1220 H 0.69078 0.77253 0.48551 0.0
H1221 H 0.69637 0.71293 0.51876 0.0
H1222 H 0.72399 0.67725 0.57312 0.0
H1223 H 0.76523 0.67778 0.62823 0.0
Mn1224 Mn 0.80837 0.03206 0.34551 0.0
Mn1225 Mn 0.89594 0.0354 0.32211 0.0
C1226 C 0.84247 0.97743 0.33025 0.0
C1227 C 0.74962 0.0101 0.36691 0.0
C1228 C 0.84276 0.05568 0.27262 0.0
O1229 O 0.82131 0.07861 0.37755 0.0
O1230 O 0.87057 0.0829 0.33935 0.0
C1231 C 0.92593 0.06129 0.39319 0.0
N1232 N 0.92927 0.04038 0.3619 0.0
C1233 C -0.00621 0.02976 0.37267 0.0
C1234 C -0.00961 0.05123 0.40406 0.0
C1235 C 0.95716 0.0683 0.41431 0.0
C1236 C 0.96173 0.02417 0.35242 0.0
H1237 H 0.89965 0.06996 0.40397 0.0
C1238 C 0.8507 0.09587 0.36637 0.0
O1239 O 0.75217 0.03711 0.34333 0.0
O1240 O 0.7805 0.00211 0.38411 0.0
N1241 N 0.92832 -0.00448 0.30611 0.0
C1242 C 0.92651 0.97356 0.27558 0.0
C1243 C 0.95863 0.95606 0.26174 0.0
C1244 C -0.00742 0.96001 0.28002 0.0
C1245 C -0.00591 0.98194 0.31179 0.0
C1246 C 0.96131 -5e-05 0.32338 0.0
H1247 H 0.90065 0.97031 0.26113 0.0
O1248 O 0.80897 0.98533 0.31951 0.0
O1249 O 0.85965 0.00429 0.34782 0.0
O1250 O 0.81935 0.06523 0.29729 0.0
O1251 O 0.86221 0.02787 0.28021 0.0
C1252 C 0.02723 0.98779 0.33167 0.0
C1253 C 0.02696 0.01142 0.3627 0.0
H1254 H 0.01056 0.04741 0.42375 0.0
H1255 H 0.95465 0.08347 0.44004 0.0
H1256 H 0.95769 0.94095 0.23577 0.0
H1257 H 0.01726 0.94661 0.26903 0.0
H1258 H 0.05286 0.9742 0.32345 0.0
H1259 H 0.05226 0.01538 0.37858 0.0
Mn1260 Mn 0.69804 0.05816 0.09567 0.0
Mn1261 Mn 0.6946 0.14577 0.07232 0.0
C1262 C 0.75263 0.09232 0.08036 0.0
C1263 C 0.72015 -0.00054 0.11715 0.0
C1264 C 0.67439 0.09263 0.02278 0.0
O1265 O 0.65149 0.07107 0.12773 0.0
O1266 O 0.64716 0.12032 0.08952 0.0
C1267 C 0.6687 0.17565 0.14346 0.0
N1268 N 0.68959 0.17905 0.11216 0.0
C1269 C 0.70009 0.24359 0.12295 0.0
C1270 C 0.67858 0.24015 0.15432 0.0
C1271 C 0.6616 0.20687 0.16457 0.0
C1272 C 0.70575 0.21155 0.1027 0.0
H1273 H 0.66011 0.14935 0.15424 0.0
C1274 C 0.63422 0.10047 0.11656 0.0
O1275 O 0.69314 0.00193 0.09354 0.0
O1276 O 0.72805 0.03038 0.1343 0.0
N1277 N 0.73441 0.17822 0.05632 0.0
C1278 C 0.75626 0.17649 0.02571 0.0
C1279 C 0.77375 0.20863 0.01191 0.0
C1280 C 0.76981 0.24255 0.03026 0.0
C1281 C 0.74791 0.24401 0.06207 0.0
C1282 C 0.72995 0.21118 0.07364 0.0
H1283 H 0.75951 0.15065 0.01122 0.0
O1284 O 0.74477 0.0588 0.06966 0.0
O1285 O 0.72577 0.10947 0.09795 0.0
O1286 O 0.66486 0.06916 0.04742 0.0
O1287 O 0.70216 0.1121 0.03039 0.0
C1288 C 0.74201 0.27713 0.08197 0.0
C1289 C 0.71838 0.2768 0.113 0.0
H1290 H 0.68226 0.26036 0.174 0.0
H1291 H 0.64639 0.20435 0.19029 0.0
H1292 H 0.78883 0.20773 0.98593 0.0
H1293 H 0.78319 0.26727 0.0193 0.0
H1294 H 0.75556 0.30279 0.07376 0.0
H1295 H 0.71437 0.30209 0.12889 0.0
Mn1296 Mn 0.67142 0.03211 0.63429 0.0
Mn1297 Mn 0.58382 0.03546 0.6576 0.0
C1298 C 0.63731 0.97749 0.64952 0.0
C1299 C 0.73015 0.01009 0.6129 0.0
C1300 C 0.63693 0.0557 0.70717 0.0
O1301 O 0.65852 0.07867 0.60225 0.0
O1302 O 0.60921 0.08294 0.6404 0.0
C1303 C 0.55385 0.06142 0.58652 0.0
N1304 N 0.5505 0.04046 0.61778 0.0
C1305 C 0.48601 0.02976 0.60692 0.0
C1306 C 0.48942 0.05124 0.57554 0.0
C1307 C 0.52264 0.06838 0.56536 0.0
C1308 C 0.51805 0.0242 0.62722 0.0
H1309 H 0.58012 0.07015 0.57579 0.0
C1310 C 0.62912 0.09592 0.61342 0.0
O1311 O 0.72763 0.0371 0.63649 0.0
O1312 O 0.69928 0.00214 0.59568 0.0
N1313 N 0.55143 -0.00442 0.67358 0.0
C1314 C 0.55322 0.97365 0.70414 0.0
C1315 C 0.5211 0.95611 0.71794 0.0
C1316 C 0.48718 0.96002 0.6996 0.0
C1317 C 0.48569 0.98194 0.66781 0.0
C1318 C 0.51847 -2e-05 0.65626 0.0
H1319 H 0.57907 0.9704 0.71859 0.0
O1320 O 0.6708 0.98538 0.66028 0.0
O1321 O 0.62013 0.00434 0.63194 0.0
O1322 O 0.66037 0.06526 0.68253 0.0
O1323 O 0.61751 0.0279 0.69952 0.0
C1324 C 0.45257 0.98774 0.64788 0.0
C1325 C 0.45286 0.01137 0.61685 0.0
H1326 H 0.46931 0.04736 0.55578 0.0
H1327 H 0.52517 0.08355 0.53961 0.0
H1328 H 0.52204 0.94099 0.7439 0.0
H1329 H 0.4625 0.94659 0.71056 0.0
H1330 H 0.42694 0.97412 0.65607 0.0
H1331 H 0.42757 0.01529 0.60092 0.0
Mn1332 Mn 0.69806 0.92186 0.38417 0.0
Mn1333 Mn 0.69465 0.8343 0.40757 0.0
C1334 C 0.75268 0.88774 0.39952 0.0
C1335 C 0.72008 0.98056 0.36276 0.0
C1336 C 0.6744 0.88745 0.45707 0.0
O1337 O 0.65151 0.90891 0.3521 0.0
O1338 O 0.64718 0.85969 0.39034 0.0
C1339 C 0.66884 0.80441 0.33642 0.0
N1340 N 0.68968 0.801 0.36775 0.0
C1341 C 0.70013 0.73645 0.35703 0.0
C1342 C 0.67863 0.73988 0.32565 0.0
C1343 C 0.66172 0.77317 0.31534 0.0
C1344 C 0.70581 0.76851 0.37726 0.0
H1345 H 0.66029 0.83072 0.32561 0.0
C1346 C 0.63423 0.87953 0.36329 0.0
O1347 O 0.69304 0.97806 0.38632 0.0
O1348 O 0.72805 0.94968 0.34556 0.0
N1349 N 0.73446 0.80187 0.42361 0.0
C1350 C 0.75631 0.80363 0.45422 0.0
C1351 C 0.7738 0.77149 0.46803 0.0
C1352 C 0.76987 0.73755 0.44971 0.0
C1353 C 0.74795 0.73607 0.41792 0.0
C1354 C 0.73 0.76889 0.40632 0.0
H1355 H 0.75953 0.82948 0.4687 0.0
O1356 O 0.7448 0.92127 0.4102 0.0
O1357 O 0.72584 0.87056 0.38192 0.0
O1358 O 0.66487 0.91087 0.43239 0.0
O1359 O 0.70221 0.86802 0.44946 0.0
C1360 C 0.74203 0.70293 0.39805 0.0
C1361 C 0.71839 0.70324 0.36702 0.0
H1362 H 0.68225 0.71963 0.30603 0.0
H1363 H 0.64647 0.77568 0.28965 0.0
H1364 H 0.78887 0.7724 0.49402 0.0
H1365 H 0.78324 0.71285 0.46069 0.0
H1366 H 0.75557 0.67727 0.40628 0.0
H1367 H 0.71437 0.67793 0.35115 0.0
Mn1368 Mn 0.8085 0.94804 0.13457 0.0
Mn1369 Mn 0.89606 0.94481 0.1581 0.0
C1370 C 0.84253 0.0027 0.14982 0.0
C1371 C 0.74976 0.96996 0.11309 0.0
C1372 C 0.84285 0.92444 0.20751 0.0
O1373 O 0.82152 0.90147 0.10261 0.0
O1374 O 0.87084 0.89726 0.14078 0.0
C1375 C 0.92633 0.91884 0.08718 0.0
N1376 N 0.92951 0.93988 0.11839 0.0
C1377 C -0.00597 0.95065 0.10777 0.0
C1378 C -0.00919 0.92904 0.07646 0.0
C1379 C 0.95763 0.91188 0.06616 0.0
C1380 C 0.9619 0.95622 0.12791 0.0
H1381 H 0.90012 0.90998 0.07641 0.0
C1382 C 0.8509 0.88422 0.11384 0.0
O1383 O 0.75229 0.94296 0.13669 0.0
O1384 O 0.78064 0.97796 0.09591 0.0
N1385 N 0.92832 0.98477 0.17416 0.0
C1386 C 0.92641 0.00672 0.2047 0.0
C1387 C 0.95846 0.0243 0.2186 0.0
C1388 C -0.00755 0.02043 0.20038 0.0
C1389 C -0.00593 -0.00148 0.1686 0.0
C1390 C 0.96135 0.98044 0.15694 0.0
H1391 H 0.90051 0.00989 0.21911 0.0
O1392 O 0.80902 -0.00521 0.16053 0.0
O1393 O 0.85977 0.97585 0.1323 0.0
O1394 O 0.81949 0.91487 0.18281 0.0
O1395 O 0.86221 0.9523 0.19992 0.0
C1396 C 0.02728 -0.00727 0.14881 0.0
C1397 C 0.02714 0.96907 0.1178 0.0
H1398 H 0.01115 0.93267 0.05692 0.0
H1399 H 0.95523 0.89659 0.0405 0.0
H1400 H 0.95745 0.03941 0.24456 0.0
H1401 H 0.01708 0.03388 0.21142 0.0
H1402 H 0.05286 0.00638 0.15708 0.0
H1403 H 0.0525 0.96511 0.10199 0.0
Mn1404 Mn 0.78175 0.05822 0.88438 0.0
Mn1405 Mn 0.78512 0.14582 0.90785 0.0
C1406 C 0.72715 0.09235 0.89966 0.0
C1407 C 0.75969 -0.00046 0.86284 0.0
C1408 C 0.80539 0.09266 0.95732 0.0
O1409 O 0.82833 0.07118 0.85239 0.0
O1410 O 0.8326 0.12047 0.89058 0.0
C1411 C 0.81103 0.17591 0.83681 0.0
N1412 N 0.79009 0.17921 0.86807 0.0
C1413 C 0.77936 0.24372 0.85731 0.0
C1414 C 0.8009 0.24039 0.82595 0.0
C1415 C 0.818 0.20717 0.8157 0.0
C1416 C 0.7738 0.21164 0.87754 0.0
H1417 H 0.81979 0.14966 0.82605 0.0
C1418 C 0.84559 0.10057 0.86359 0.0
O1419 O 0.78668 0.00198 0.88648 0.0
O1420 O 0.75179 0.03046 0.84569 0.0
N1421 N 0.74526 0.17819 0.9239 0.0
C1422 C 0.72341 0.17638 0.95452 0.0
C1423 C 0.70585 0.20847 0.96834 0.0
C1424 C 0.7097 0.24241 0.95002 0.0
C1425 C 0.73157 0.24395 0.91821 0.0
C1426 C 0.74961 0.21118 0.9066 0.0
H1427 H 0.72023 0.15051 0.96899 0.0
O1428 O 0.73499 0.05881 0.91033 0.0
O1429 O 0.75402 0.10954 0.88212 0.0
O1430 O 0.81493 0.06922 0.93265 0.0
O1431 O 0.77757 0.11204 0.9497 0.0
C1432 C 0.73736 0.2771 0.89832 0.0
C1433 C 0.76098 0.27687 0.86728 0.0
H1434 H 0.7972 0.26064 0.80631 0.0
H1435 H 0.83321 0.20468 0.78998 0.0
H1436 H 0.69076 0.20751 -0.00568 0.0
H1437 H 0.69626 0.26708 0.96101 0.0
H1438 H 0.72374 0.30272 0.90655 0.0
H1439 H 0.76492 0.30219 0.8514 0.0
Mn1440 Mn 0.84569 0.6724 0.94779 0.0
Mn1441 Mn 0.82236 0.58487 0.94431 0.0
C1442 C 0.83058 0.63817 0.00252 0.0
C1443 C 0.86718 0.73117 0.96967 0.0
C1444 C 0.77266 0.63791 0.92461 0.0
O1445 O 0.87755 0.65946 0.90102 0.0
O1446 O 0.83921 0.61038 0.89677 0.0
C1447 C 0.89379 0.55548 0.91858 0.0
N1448 N 0.86228 0.55173 0.93908 0.0
C1449 C 0.87346 0.48726 0.9495 0.0
C1450 C 0.905 0.49102 0.92826 0.0
C1451 C 0.91517 0.52443 0.9115 0.0
C1452 C 0.85294 0.51915 0.95511 0.0
H1453 H 0.90449 0.58192 0.91028 0.0
C1454 C 0.86632 0.63007 0.88377 0.0
O1455 O 0.84345 0.72862 0.94279 0.0
O1456 O 0.88444 0.7003 0.97755 0.0
N1457 N 0.80652 0.55225 0.98398 0.0
C1458 C 0.77581 0.5538 0.00571 0.0
C1459 C 0.76225 0.52161 0.02325 0.0
C1460 C 0.78077 0.48777 0.0193 0.0
C1461 C 0.81252 0.48646 -0.00271 0.0
C1462 C 0.82391 0.51935 0.97936 0.0
H1463 H 0.76123 0.57959 0.00898 0.0
O1464 O 0.81998 0.67175 -0.00524 0.0
O1465 O 0.84805 0.62108 0.97553 0.0
O1466 O 0.79723 0.66138 0.9149 0.0
O1467 O 0.78051 0.61851 0.95233 0.0
C1468 C 0.83259 0.45344 -0.00867 0.0
C1469 C 0.86365 0.45398 0.96773 0.0
H1470 H 0.92486 0.47103 0.93208 0.0
H1471 H 0.94096 0.52713 0.89643 0.0
H1472 H 0.73628 0.5224 0.03837 0.0
H1473 H 0.76997 0.46301 0.03271 0.0
H1474 H 0.82453 0.42772 0.00486 0.0
H1475 H 0.87972 0.42879 0.96377 0.0
Mn1476 Mn 0.34572 0.80757 0.03199 0.0
Mn1477 Mn 0.32224 0.89507 0.03534 0.0
C1478 C 0.33051 0.84168 0.97723 0.0
C1479 C 0.36728 0.74878 0.01022 0.0
C1480 C 0.27267 0.84194 0.05517 0.0
O1481 O 0.37758 0.82064 0.07872 0.0
O1482 O 0.33918 0.86969 0.08295 0.0
C1483 C 0.3936 0.92462 0.06101 0.0
N1484 N 0.36209 0.92828 0.0405 0.0
C1485 C 0.37307 -0.00723 0.03008 0.0
C1486 C 0.40459 0.98912 0.05135 0.0
C1487 C 0.41488 0.95573 0.06809 0.0
C1488 C 0.35266 0.96083 0.02446 0.0
H1489 H 0.40437 0.89821 0.06932 0.0
C1490 C 0.36631 0.85002 0.09596 0.0
O1491 O 0.34357 0.75138 0.03711 0.0
O1492 O 0.38448 0.77967 0.00226 0.0
N1493 N 0.30635 0.9276 -0.00441 0.0
C1494 C 0.27571 0.92595 0.97378 0.0
C1495 C 0.26204 0.95812 0.95625 0.0
C1496 C 0.28045 -0.00799 0.96023 0.0
C1497 C 0.31218 -0.00659 0.98225 0.0
C1498 C 0.32365 0.96055 0.0002 0.0
H1499 H 0.26118 0.90013 0.97052 0.0
O1500 O 0.31996 0.8081 0.98505 0.0
O1501 O 0.34799 0.85885 0.00417 0.0
O1502 O 0.29729 0.81854 0.06489 0.0
O1503 O 0.28042 0.86136 0.02742 0.0
C1504 C 0.33214 0.02648 0.98823 0.0
C1505 C 0.36318 0.02604 0.01185 0.0
H1506 H 0.42432 0.00923 0.0476 0.0
H1507 H 0.44068 0.95308 0.08315 0.0
H1508 H 0.23607 0.95727 0.94115 0.0
H1509 H 0.26957 0.01675 0.94683 0.0
H1510 H 0.32402 0.05218 0.9747 0.0
H1511 H 0.37917 0.05127 0.01584 0.0
Mn1512 Mn 0.9223 0.59578 0.78222 0.0
Mn1513 Mn 0.83477 0.57252 0.78567 0.0
C1514 C 0.88811 0.58069 0.72747 0.0
C1515 C 0.9811 0.61728 0.76042 0.0
C1516 C 0.88778 0.52274 0.80537 0.0
O1517 O 0.90937 0.62765 0.829 0.0
O1518 O 0.86029 0.58931 0.83323 0.0
C1519 C 0.8055 0.64402 0.81139 0.0
N1520 N 0.8017 0.6125 0.79092 0.0
C1521 C 0.73726 0.62378 0.78049 0.0
C1522 C 0.74109 0.65536 0.80168 0.0
C1523 C 0.7745 0.66546 0.81845 0.0
C1524 C 0.7691 0.6032 0.7749 0.0
H1525 H 0.83195 0.65469 0.81966 0.0
C1526 C 0.87998 0.61642 0.84624 0.0
O1527 O 0.97849 0.59352 0.78728 0.0
O1528 O 0.95023 0.63454 0.75251 0.0
N1529 N 0.80215 0.55677 0.74598 0.0
C1530 C 0.80367 0.52611 0.72417 0.0
C1531 C 0.77145 0.51256 0.70666 0.0
C1532 C 0.73764 0.53111 0.71066 0.0
C1533 C 0.73637 0.56284 0.73269 0.0
C1534 C 0.76926 0.57418 0.75064 0.0
H1535 H 0.82944 0.51152 0.72085 0.0
O1536 O 0.92167 0.57007 0.73526 0.0
O1537 O 0.87101 0.59818 0.75446 0.0
O1538 O 0.91126 0.54731 0.81508 0.0
O1539 O 0.86835 0.53061 0.77767 0.0
C1540 C 0.70339 0.58296 0.73866 0.0
C1541 C 0.70397 0.61403 0.76225 0.0
H1542 H 0.72121 0.67531 0.79772 0.0
H1543 H 0.77725 0.69128 0.83348 0.0
H1544 H 0.77223 0.48659 0.69154 0.0
H1545 H 0.71287 0.52033 0.69726 0.0
H1546 H 0.67766 0.57495 0.72512 0.0
H1547 H 0.67882 0.63015 0.76619 0.0
Mn1548 Mn 0.1341 0.17234 0.53222 0.0
Mn1549 Mn 0.15742 0.08482 0.53555 0.0
C1550 C 0.14929 0.13826 0.47744 0.0
C1551 C 0.1126 0.23117 0.51054 0.0
C1552 C 0.20711 0.13789 0.55535 0.0
O1553 O 0.10222 0.15932 0.57895 0.0
O1554 O 0.14055 0.11023 0.58317 0.0
C1555 C 0.08605 0.05537 0.56133 0.0
N1556 N 0.11751 0.05168 0.54073 0.0
C1557 C 0.10645 0.98718 0.5304 0.0
C1558 C 0.07498 -0.00912 0.55175 0.0
C1559 C 0.06478 0.02428 0.5685 0.0
C1560 C 0.12688 0.01911 0.52471 0.0
H1561 H 0.07533 0.08179 0.56965 0.0
C1562 C 0.11347 0.12994 0.5962 0.0
O1563 O 0.13631 0.22851 0.53742 0.0
O1564 O 0.09537 0.20031 0.50253 0.0
N1565 N 0.17321 0.05227 0.49578 0.0
C1566 C 0.20382 0.05388 0.47391 0.0
C1567 C 0.21744 0.02168 0.4564 0.0
C1568 C 0.19898 0.98782 0.46041 0.0
C1569 C 0.16728 0.98646 0.48248 0.0
C1570 C 0.15587 0.01934 0.50042 0.0
H1571 H 0.21837 0.07968 0.47061 0.0
O1572 O 0.15988 0.17182 0.48529 0.0
O1573 O 0.13177 0.12109 0.50436 0.0
O1574 O 0.18252 0.16131 0.56509 0.0
O1575 O 0.19932 0.11844 0.52764 0.0
C1576 C 0.14728 0.95342 0.4885 0.0
C1577 C 0.11627 0.9539 0.51218 0.0
H1578 H 0.05518 0.97082 0.54805 0.0
H1579 H 0.03904 0.02694 0.58367 0.0
H1580 H 0.24341 0.02251 0.44128 0.0
H1581 H 0.20982 0.96306 0.44702 0.0
H1582 H 0.15536 0.9277 0.47497 0.0
H1583 H 0.10026 0.92869 0.51621 0.0
Mn1584 Mn 0.05739 0.88419 0.78222 0.0
Mn1585 Mn 0.14491 0.90748 0.78564 0.0
C1586 C 0.09158 0.8993 0.72745 0.0
C1587 C -0.0014 0.86276 0.76045 0.0
C1588 C 0.09188 0.95722 0.8053 0.0
O1589 O 0.07036 0.85234 0.82901 0.0
O1590 O 0.11942 0.8907 0.83323 0.0
C1591 C 0.17419 0.83599 0.81138 0.0
N1592 N 0.17799 0.86752 0.79089 0.0
C1593 C 0.24244 0.85629 0.78054 0.0
C1594 C 0.23864 0.82474 0.80179 0.0
C1595 C 0.20522 0.8146 0.8185 0.0
C1596 C 0.21059 0.87683 0.77489 0.0
H1597 H 0.14774 0.8253 0.81962 0.0
C1598 C 0.09975 0.86358 0.84625 0.0
O1599 O 0.00122 0.88648 0.78733 0.0
O1600 O 0.02943 0.84545 0.75251 0.0
N1601 N 0.17753 0.92324 0.74595 0.0
C1602 C 0.176 0.95392 0.72416 0.0
C1603 C 0.20821 0.96746 0.70664 0.0
C1604 C 0.24203 0.94893 0.71064 0.0
C1605 C 0.24332 0.9172 0.73269 0.0
C1606 C 0.21042 0.90585 0.75062 0.0
H1607 H 0.15023 0.96852 0.72086 0.0
O1608 O 0.05801 0.90989 0.73523 0.0
O1609 O 0.10868 0.8818 0.75443 0.0
O1610 O 0.06843 0.93266 0.81505 0.0
O1611 O 0.11132 0.94938 0.7776 0.0
C1612 C 0.27631 0.89711 0.73869 0.0
C1613 C 0.27574 0.86606 0.76232 0.0
H1614 H 0.25861 0.80487 0.798 0.0
H1615 H 0.20249 0.78881 0.8336 0.0
H1616 H 0.20744 -0.00656 0.69152 0.0
H1617 H 0.26681 0.95971 0.69724 0.0
H1618 H 0.30204 0.90514 0.72517 0.0
H1619 H 0.30091 0.84998 0.76631 0.0
Mn1620 Mn 0.63414 0.30788 0.44768 0.0
Mn1621 Mn 0.65752 0.39541 0.44436 0.0
C1622 C 0.64929 0.34196 0.50246 0.0
C1623 C 0.61259 0.24909 0.46941 0.0
C1624 C 0.70718 0.34232 0.42453 0.0
O1625 O 0.60231 0.3209 0.40093 0.0
O1626 O 0.6406 0.37004 0.39675 0.0
C1627 C 0.58623 0.42502 0.41852 0.0
N1628 N 0.61764 0.42862 0.43919 0.0
C1629 C 0.60657 0.49309 0.44972 0.0
C1630 C 0.5751 0.48947 0.42838 0.0
C1631 C 0.56492 0.45612 0.41149 0.0
C1632 C 0.627 0.46115 0.45532 0.0
H1633 H 0.57553 0.39863 0.41005 0.0
C1634 C 0.61357 0.35027 0.38368 0.0
O1635 O 0.63633 0.25169 0.44253 0.0
O1636 O 0.59537 0.27995 0.47738 0.0
N1637 N 0.67334 0.42791 0.48415 0.0
C1638 C 0.70397 0.42625 0.50599 0.0
C1639 C 0.71761 0.45841 0.52355 0.0
C1640 C 0.69917 0.49228 0.51961 0.0
C1641 C 0.66744 0.49369 0.4976 0.0
C1642 C 0.65601 0.46085 0.47959 0.0
H1643 H 0.71849 0.40042 0.50926 0.0
O1644 O 0.65989 0.30841 0.49461 0.0
O1645 O 0.63181 0.35914 0.47552 0.0
O1646 O 0.68258 0.31891 0.4148 0.0
O1647 O 0.69936 0.36173 0.45227 0.0
C1648 C 0.64743 0.52675 0.49168 0.0
C1649 C 0.6164 0.52632 0.46804 0.0
H1650 H 0.55527 0.5095 0.43223 0.0
H1651 H 0.53916 0.45349 0.39637 0.0
H1652 H 0.74357 0.45754 0.53868 0.0
H1653 H 0.71002 0.51701 0.53304 0.0
H1654 H 0.65552 0.55243 0.50526 0.0
H1655 H 0.60039 0.55155 0.46409 0.0
Mn1656 Mn 0.92222 0.38427 0.6978 0.0
Mn1657 Mn 0.8347 0.40763 0.69445 0.0
C1658 C 0.88809 0.39936 0.75258 0.0
C1659 C 0.98102 0.3627 0.71958 0.0
C1660 C 0.88773 0.45734 0.6747 0.0
O1661 O 0.90921 0.35246 0.65101 0.0
O1662 O 0.86013 0.39082 0.64684 0.0
C1663 C 0.80531 0.33621 0.66868 0.0
N1664 N 0.80158 0.3677 0.68922 0.0
C1665 C 0.73711 0.35657 0.6996 0.0
C1666 C 0.74085 0.32506 0.67832 0.0
C1667 C 0.77425 0.31487 0.66157 0.0
C1668 C 0.76901 0.37705 0.70525 0.0
H1669 H 0.83174 0.3255 0.66038 0.0
C1670 C 0.87982 0.36373 0.63379 0.0
O1671 O 0.97842 0.38647 0.69273 0.0
O1672 O 0.95014 0.34547 0.72749 0.0
N1673 N 0.80214 0.4234 0.73419 0.0
C1674 C 0.80372 0.45404 0.75601 0.0
C1675 C 0.77153 0.46763 0.77354 0.0
C1676 C 0.73768 0.44915 0.76954 0.0
C1677 C 0.73635 0.41744 0.74749 0.0
C1678 C 0.76923 0.40605 0.72954 0.0
H1679 H 0.82951 0.4686 0.7593 0.0
O1680 O 0.92166 0.40996 0.74477 0.0
O1681 O 0.87096 0.38191 0.72561 0.0
O1682 O 0.91118 0.43276 0.66497 0.0
O1683 O 0.86834 0.44949 0.70243 0.0
C1684 C 0.70332 0.39741 0.74149 0.0
C1685 C 0.70383 0.36638 0.71784 0.0
H1686 H 0.72083 0.30523 0.68211 0.0
H1687 H 0.77694 0.28907 0.6465 0.0
H1688 H 0.77234 0.4936 0.78867 0.0
H1689 H 0.71293 0.45997 0.78295 0.0
H1690 H 0.67761 0.40547 0.75502 0.0
H1691 H 0.67864 0.35035 0.71384 0.0
Mn1692 Mn 0.55757 0.59585 0.19765 0.0
Mn1693 Mn 0.64512 0.57261 0.19418 0.0
C1694 C 0.59177 0.58071 0.25237 0.0
C1695 C 0.49877 0.6173 0.2195 0.0
C1696 C 0.59209 0.52285 0.17444 0.0
O1697 O 0.57049 0.62777 0.1509 0.0
O1698 O 0.6196 0.58947 0.14664 0.0
C1699 C 0.67449 0.64404 0.16839 0.0
N1700 N 0.67822 0.61256 0.18896 0.0
C1701 C 0.74268 0.62376 0.19936 0.0
C1702 C 0.73892 0.65529 0.17809 0.0
C1703 C 0.70553 0.66542 0.1613 0.0
C1704 C 0.71081 0.60323 0.20499 0.0
H1705 H 0.64806 0.65473 0.16007 0.0
C1706 C 0.59988 0.61656 0.13364 0.0
O1707 O 0.50138 0.59359 0.19261 0.0
O1708 O 0.52963 0.63456 0.22742 0.0
N1709 N 0.67772 0.5568 0.23387 0.0
C1710 C 0.67617 0.52614 0.25567 0.0
C1711 C 0.70838 0.51256 0.27319 0.0
C1712 C 0.7422 0.53108 0.26921 0.0
C1713 C 0.74351 0.56283 0.24718 0.0
C1714 C 0.71062 0.5742 0.22924 0.0
H1715 H 0.65039 0.51156 0.25899 0.0
O1716 O 0.55822 0.57008 0.24457 0.0
O1717 O 0.60887 0.59824 0.22541 0.0
O1718 O 0.56862 0.54743 0.16474 0.0
O1719 O 0.61153 0.5307 0.20213 0.0
C1720 C 0.7765 0.58291 0.24122 0.0
C1721 C 0.77596 0.61397 0.2176 0.0
H1722 H 0.75888 0.67519 0.18195 0.0
H1723 H 0.70282 0.69121 0.14621 0.0
H1724 H 0.70758 0.48659 0.28832 0.0
H1725 H 0.76697 0.52028 0.28261 0.0
H1726 H 0.80222 0.57487 0.25475 0.0
H1727 H 0.80114 0.63004 0.21363 0.0
Mn1728 Mn 0.52735 0.63029 0.82399 0.0
Mn1729 Mn 0.54282 0.63857 0.91822 0.0
C1730 C 0.47973 0.64718 0.8659 0.0
C1731 C 0.49673 0.61306 0.76379 0.0
C1732 C 0.56048 0.69507 0.87162 0.0
O1733 O 0.57447 0.59808 0.82637 0.0
O1734 O 0.58261 0.62091 0.88424 0.0
C1735 C 0.57263 0.56553 0.94178 0.0
N1736 N 0.54758 0.59393 0.94588 0.0
C1737 C 0.51832 0.56322 -0.00276 0.0
C1738 C 0.53754 0.53076 0.98753 0.0
C1739 C 0.5667 0.53242 0.96152 0.0
C1740 C 0.52335 0.59426 0.97466 0.0
H1741 H 0.59418 0.56628 0.921 0.0
C1742 C 0.59495 0.60437 0.855 0.0
O1743 O 0.52555 0.63447 0.76595 0.0
O1744 O 0.49105 0.59553 0.79488 0.0
N1745 N 0.50678 0.6533 0.95465 0.0
C1746 C 0.49309 0.68795 0.96166 0.0
C1747 C 0.46977 0.69377 -0.00754 0.0
C1748 C 0.46207 0.66424 0.01678 0.0
C1749 C 0.47903 0.62968 0.01079 0.0
C1750 C 0.50238 0.62585 0.97979 0.0
H1751 H 0.4998 0.71077 0.94354 0.0
O1752 O 0.48211 0.65667 0.83151 0.0
O1753 O 0.50636 0.62515 0.87835 0.0
O1754 O 0.56475 0.67638 0.84114 0.0
O1755 O 0.53663 0.68434 0.89382 0.0
C1756 C 0.47463 0.59918 0.0349 0.0
C1757 C 0.49371 0.56576 0.02756 0.0
H1758 H 0.52959 0.50442 -0.00067 0.0
H1759 H 0.58281 0.50785 0.95498 0.0
H1760 H 0.45781 0.72094 -0.00247 0.0
H1761 H 0.44399 0.6687 0.0405 0.0
H1762 H 0.4565 0.60099 0.05893 0.0
H1763 H 0.48963 0.54239 0.04564 0.0
Mn1764 Mn 0.59941 0.27732 0.07404 0.0
Mn1765 Mn 0.59094 0.29278 0.16825 0.0
C1766 C 0.58253 0.22969 0.11595 0.0
C1767 C 0.61658 0.24665 0.01389 0.0
C1768 C 0.53464 0.31051 0.12152 0.0
O1769 O 0.63164 0.32443 0.07644 0.0
O1770 O 0.60877 0.33257 0.1343 0.0
C1771 C 0.66395 0.32245 0.19207 0.0
N1772 N 0.63545 0.29752 0.19614 0.0
C1773 C 0.66577 0.26841 0.24784 0.0
C1774 C 0.69832 0.28752 0.23825 0.0
C1775 C 0.6969 0.31654 0.21205 0.0
C1776 C 0.6349 0.27339 0.22502 0.0
H1777 H 0.66339 0.3439 0.17116 0.0
C1778 C 0.62534 0.34491 0.10507 0.0
O1779 O 0.59523 0.27552 0.01601 0.0
O1780 O 0.63414 0.24097 0.04496 0.0
N1781 N 0.57602 0.25677 0.20464 0.0
C1782 C 0.54133 0.24309 0.21147 0.0
C1783 C 0.53531 0.21981 0.24227 0.0
C1784 C 0.56467 0.21218 0.26681 0.0
C1785 C 0.59926 0.22914 0.26101 0.0
C1786 C 0.6033 0.25242 0.22998 0.0
H1787 H 0.51864 0.24977 0.19319 0.0
O1788 O 0.57298 0.23212 0.08157 0.0
O1789 O 0.60455 0.25632 0.12844 0.0
O1790 O 0.55336 0.31481 0.09108 0.0
O1791 O 0.54529 0.28655 0.14362 0.0
C1792 C 0.62956 0.22482 0.28537 0.0
C1793 C 0.66301 0.24392 0.27825 0.0
H1794 H 0.72454 0.27952 0.25025 0.0
H1795 H 0.72156 0.33253 0.20556 0.0
H1796 H 0.50814 0.20782 0.24717 0.0
H1797 H 0.56005 0.19415 0.29054 0.0
H1798 H 0.62756 0.20677 0.30945 0.0
H1799 H 0.6862 0.23998 0.2966 0.0
Mn1800 Mn 0.95259 0.3495 0.32422 0.0
Mn1801 Mn 0.93722 0.34105 0.41844 0.0
C1802 C 0.00025 0.33261 0.36609 0.0
C1803 C 0.98325 0.36661 0.26404 0.0
C1804 C 0.91939 0.28475 0.37175 0.0
O1805 O 0.90557 0.38183 0.32666 0.0
O1806 O 0.89744 0.35895 0.38452 0.0
C1807 C 0.9076 0.41407 0.44234 0.0
N1808 N 0.93253 0.38556 0.44636 0.0
C1809 C 0.96169 0.41583 0.49804 0.0
C1810 C 0.94261 0.44841 0.48847 0.0
C1811 C 0.91356 0.44702 0.46232 0.0
C1812 C 0.95668 0.38498 0.47521 0.0
H1813 H 0.88612 0.41353 0.42147 0.0
C1814 C 0.88511 0.37557 0.35531 0.0
O1815 O 0.95435 0.3453 0.26619 0.0
O1816 O 0.98897 0.38417 0.2951 0.0
N1817 N 0.97324 0.32608 0.4548 0.0
C1818 C 0.9869 0.29138 0.4616 0.0
C1819 C 0.0102 0.28533 0.49237 0.0
C1820 C 0.01786 0.31467 0.51692 0.0
C1821 C 0.00092 0.34928 0.51116 0.0
C1822 C 0.97762 0.35335 0.48014 0.0
H1823 H 0.9802 0.2687 0.44331 0.0
O1824 O -0.00225 0.32301 0.33173 0.0
O1825 O 0.97364 0.35464 0.37859 0.0
O1826 O 0.91506 0.3035 0.34132 0.0
O1827 O 0.94339 0.29538 0.3938 0.0
C1828 C 0.00527 0.37956 0.53553 0.0
C1829 C 0.98618 0.41304 0.52845 0.0
H1830 H 0.95065 0.47462 0.50047 0.0
H1831 H 0.89758 0.4717 0.45586 0.0
H1832 H 0.02218 0.25814 0.49725 0.0
H1833 H 0.0359 0.31002 0.54063 0.0
H1834 H 0.02332 0.37754 0.5596 0.0
H1835 H -0.00986 0.43621 0.54681 0.0
Mn1836 Mn 0.88033 0.70265 0.57423 0.0
Mn1837 Mn 0.88875 0.68726 0.66846 0.0
C1838 C 0.89724 0.75027 0.61608 0.0
C1839 C 0.86314 0.73331 0.51405 0.0
C1840 C 0.94509 0.66943 0.62179 0.0
O1841 O 0.84801 0.65562 0.57669 0.0
O1842 O 0.87088 0.64747 0.63455 0.0
C1843 C 0.81577 0.6576 0.69237 0.0
N1844 N 0.84423 0.6826 0.69633 0.0
C1845 C 0.81378 0.712 0.74776 0.0
C1846 C 0.78124 0.6929 0.73814 0.0
C1847 C 0.78273 0.66369 0.71217 0.0
C1848 C 0.8447 0.70689 0.72506 0.0
H1849 H 0.8164 0.63601 0.67162 0.0
C1850 C 0.85425 0.63515 0.60534 0.0
O1851 O 0.88447 0.70443 0.51618 0.0
O1852 O 0.84562 0.73902 0.54513 0.0
N1853 N 0.90368 0.72332 0.7048 0.0
C1854 C 0.93837 0.73694 0.71167 0.0
C1855 C 0.94436 0.76031 0.74241 0.0
C1856 C 0.91494 0.76808 0.76685 0.0
C1857 C 0.88034 0.75117 0.76101 0.0
C1858 C 0.87633 0.72781 0.73004 0.0
H1859 H 0.9611 0.73018 0.69347 0.0
O1860 O 0.90681 0.74783 0.58171 0.0
O1861 O 0.87521 0.72367 0.62859 0.0
O1862 O 0.92635 0.66512 0.59134 0.0
O1863 O 0.93444 0.69339 0.64389 0.0
C1864 C 0.84997 0.75561 0.78528 0.0
C1865 C 0.81651 0.73654 0.77813 0.0
H1866 H 0.75498 0.70098 0.75001 0.0
H1867 H 0.75809 0.64767 0.7057 0.0
H1868 H 0.97155 0.77226 0.74735 0.0
H1869 H 0.91954 0.78616 0.79053 0.0
H1870 H 0.85194 0.77373 0.8093 0.0
H1871 H 0.79327 0.74061 0.79638 0.0
Mn1872 Mn 0.52717 0.34957 0.65566 0.0
Mn1873 Mn 0.54254 0.34119 0.56144 0.0
C1874 C 0.47952 0.33265 0.61381 0.0
C1875 C 0.49654 0.36665 0.71585 0.0
C1876 C 0.5604 0.28486 0.60811 0.0
O1877 O 0.57414 0.38195 0.65323 0.0
O1878 O 0.58231 0.3591 0.59537 0.0
C1879 C 0.57208 0.41427 0.53758 0.0
N1880 N 0.54722 0.3857 0.53351 0.0
C1881 C 0.51813 0.41593 0.48174 0.0
C1882 C 0.53712 0.44854 0.49135 0.0
C1883 C 0.56609 0.44721 0.51759 0.0
C1884 C 0.52312 0.38509 0.5046 0.0
H1885 H 0.59351 0.41376 0.5585 0.0
C1886 C 0.59462 0.37573 0.62458 0.0
O1887 O 0.52545 0.34535 0.71369 0.0
O1888 O 0.49078 0.3842 0.68479 0.0
N1889 N 0.50653 0.32622 0.52506 0.0
C1890 C 0.49284 0.29153 0.51831 0.0
C1891 C 0.46954 0.28546 0.48753 0.0
C1892 C 0.46193 0.31478 0.46292 0.0
C1893 C 0.47892 0.34937 0.46865 0.0
C1894 C 0.50219 0.35346 0.49968 0.0
H1895 H 0.4995 0.26886 0.53663 0.0
O1896 O 0.48205 0.32303 0.64817 0.0
O1897 O 0.5061 0.35471 0.60131 0.0
O1898 O 0.56474 0.3036 0.63854 0.0
O1899 O 0.53641 0.29551 0.58605 0.0
C1900 C 0.47461 0.37963 0.44423 0.0
C1901 C 0.4937 0.41311 0.45129 0.0
H1902 H 0.52905 0.47474 0.47934 0.0
H1903 H 0.58201 0.47192 0.52409 0.0
H1904 H 0.45753 0.25828 0.48268 0.0
H1905 H 0.4439 0.31012 0.43921 0.0
H1906 H 0.45658 0.37759 0.42015 0.0
H1907 H 0.48973 0.43628 0.4329 0.0
Mn1908 Mn 0.88034 0.27736 0.90584 0.0
Mn1909 Mn 0.88876 0.29272 0.81162 0.0
C1910 C 0.89722 0.22971 0.86399 0.0
C1911 C 0.8631 0.24676 0.96603 0.0
C1912 C 0.94511 0.31054 0.85827 0.0
O1913 O 0.84807 0.32442 0.9034 0.0
O1914 O 0.87092 0.33254 0.84553 0.0
C1915 C 0.8158 0.32242 0.78772 0.0
N1916 N 0.84423 0.29738 0.78378 0.0
C1917 C 0.81386 0.26814 0.73221 0.0
C1918 C 0.78133 0.28734 0.74174 0.0
C1919 C 0.78282 0.31648 0.76779 0.0
C1920 C 0.84473 0.27315 0.755 0.0
H1921 H 0.81642 0.34397 0.80852 0.0
C1922 C 0.85433 0.34488 0.87475 0.0
O1923 O 0.8845 0.27559 0.96388 0.0
O1924 O 0.8456 0.24105 0.93494 0.0
N1925 N 0.90369 0.25666 0.77528 0.0
C1926 C 0.93839 0.24304 0.76841 0.0
C1927 C 0.94439 0.21971 0.73765 0.0
C1928 C 0.91499 0.21198 0.71318 0.0
C1929 C 0.88038 0.22889 0.71902 0.0
C1930 C 0.87636 0.25221 0.75002 0.0
H1931 H 0.96112 0.24979 0.78662 0.0
O1932 O 0.90679 0.23215 0.89836 0.0
O1933 O 0.8752 0.25632 0.85149 0.0
O1934 O 0.92639 0.31485 0.88872 0.0
O1935 O 0.93445 0.28657 0.83619 0.0
C1936 C 0.85005 0.22451 0.69472 0.0
C1937 C 0.8166 0.24361 0.70184 0.0
H1938 H 0.7551 0.27935 0.72976 0.0
H1939 H 0.7582 0.33256 0.77422 0.0
H1940 H 0.97158 0.20778 0.7327 0.0
H1941 H 0.9196 0.19393 0.68948 0.0
H1942 H 0.85204 0.20645 0.67066 0.0
H1943 H 0.79342 0.2397 0.68349 0.0
Mn1944 Mn 0.95247 0.63032 0.1558 0.0
Mn1945 Mn 0.93711 0.6388 0.06157 0.0
C1946 C 0.00016 0.6472 0.11393 0.0
C1947 C 0.98306 0.61311 0.216 0.0
C1948 C 0.91937 0.69514 0.10826 0.0
O1949 O 0.90536 0.59811 0.15333 0.0
O1950 O 0.89729 0.62099 0.09547 0.0
C1951 C 0.90737 0.56584 0.03769 0.0
N1952 N 0.93241 0.59426 0.03373 0.0
C1953 C 0.96169 0.56381 0.98223 0.0
C1954 C 0.94252 0.53129 -0.00818 0.0
C1955 C 0.91335 0.53281 0.01784 0.0
C1956 C 0.95667 0.59473 0.00497 0.0
H1957 H 0.8858 0.56649 0.05847 0.0
C1958 C 0.88492 0.6044 0.12468 0.0
O1959 O 0.95421 0.63448 0.21384 0.0
O1960 O 0.98876 0.59555 0.18493 0.0
N1961 N 0.97318 0.65368 0.02522 0.0
C1962 C 0.98684 0.68837 0.01835 0.0
C1963 C 0.01018 0.69434 0.98758 0.0
C1964 C 0.01789 0.66492 0.96313 0.0
C1965 C 0.00095 0.63032 0.96898 0.0
C1966 C 0.97762 0.62634 -2e-05 0.0
H1967 H 0.98011 0.71112 0.03655 0.0
O1968 O -0.00227 0.6567 0.14831 0.0
O1969 O 0.97351 0.62522 0.10144 0.0
O1970 O 0.91505 0.67641 0.1387 0.0
O1971 O 0.9433 0.68448 0.08614 0.0
C1972 C 0.00533 0.59996 0.9447 0.0
C1973 C 0.98622 0.56651 0.95186 0.0
H1974 H 0.95053 0.50503 0.97991 0.0
H1975 H 0.89728 0.50819 0.02429 0.0
H1976 H 0.02213 0.72153 0.98262 0.0
H1977 H 0.03595 0.6695 0.93943 0.0
H1978 H 0.02341 0.60192 0.92065 0.0
H1979 H -0.0098 0.54329 0.93358 0.0
Mn1980 Mn 0.59953 0.70275 0.40551 0.0
Mn1981 Mn 0.59112 0.68729 0.31127 0.0
C1982 C 0.58257 0.75033 0.36361 0.0
C1983 C 0.6167 0.73342 0.4657 0.0
C1984 C 0.53479 0.66947 0.358 0.0
O1985 O 0.63186 0.65573 0.4031 0.0
O1986 O 0.60903 0.64754 0.34523 0.0
C1987 C 0.66416 0.65772 0.28742 0.0
N1988 N 0.63564 0.68264 0.28339 0.0
C1989 C 0.666 0.71196 0.23185 0.0
C1990 C 0.69859 0.69293 0.24149 0.0
C1991 C 0.69717 0.6638 0.26756 0.0
C1992 C 0.6351 0.70686 0.25459 0.0
H1993 H 0.66359 0.63619 0.30824 0.0
C1994 C 0.62565 0.63524 0.37445 0.0
O1995 O 0.59537 0.70453 0.46355 0.0
O1996 O 0.6342 0.73914 0.4346 0.0
N1997 N 0.57615 0.7233 0.27489 0.0
C1998 C 0.54145 0.73692 0.26806 0.0
C1999 C 0.53542 0.76026 0.23729 0.0
C2000 C 0.5648 0.76799 0.2128 0.0
C2001 C 0.59942 0.75108 0.21862 0.0
C2002 C 0.60346 0.72776 0.24961 0.0
H2003 H 0.51874 0.73018 0.2863 0.0
O2004 O 0.57305 0.74792 0.39799 0.0
O2005 O 0.60463 0.72374 0.35112 0.0
O2006 O 0.55352 0.66522 0.38846 0.0
O2007 O 0.54544 0.69339 0.33585 0.0
C2008 C 0.62975 0.75551 0.19431 0.0
C2009 C 0.66324 0.73647 0.20145 0.0
H2010 H 0.72482 0.70102 0.22957 0.0
H2011 H 0.72185 0.64784 0.27406 0.0
H2012 H 0.50823 0.7722 0.23237 0.0
H2013 H 0.56018 0.78605 0.1891 0.0
H2014 H 0.62775 0.7736 0.17027 0.0
H2015 H 0.68647 0.74055 0.18319 0.0
Mn2016 Mn 0.82455 0.5269 0.63031 0.0
Mn2017 Mn 0.91883 0.54233 0.63872 0.0
C2018 C 0.86644 0.47936 0.64747 0.0
C2019 C 0.7643 0.49622 0.6131 0.0
C2020 C 0.87211 0.56049 0.69495 0.0
O2021 O 0.82703 0.57381 0.59782 0.0
O2022 O 0.88492 0.58203 0.62062 0.0
C2023 C 0.94274 0.57154 0.56554 0.0
N2024 N 0.94677 0.54678 0.5942 0.0
C2025 C -0.00153 0.51746 0.56409 0.0
C2026 C 0.98883 0.53629 0.5314 0.0
C2027 C 0.96268 0.56535 0.53262 0.0
C2028 C 0.97563 0.52263 0.59492 0.0
H2029 H 0.92188 0.59304 0.56598 0.0
C2030 C 0.85571 0.59428 0.60394 0.0
O2031 O 0.76647 0.52513 0.6344 0.0
O2032 O 0.79544 0.49041 0.59571 0.0
N2033 N 0.95517 0.50633 0.65385 0.0
C2034 C 0.9619 0.49275 0.68858 0.0
C2035 C -0.0074 0.46937 0.69473 0.0
C2036 C 0.01717 0.46158 0.66544 0.0
C2037 C 0.0115 0.47847 0.63079 0.0
C2038 C 0.98052 0.50181 0.62662 0.0
H2039 H 0.9436 0.49956 0.71121 0.0
O2040 O 0.83205 0.48181 0.65697 0.0
O2041 O 0.87894 0.50587 0.62533 0.0
O2042 O 0.84166 0.56463 0.67618 0.0
O2043 O 0.89424 0.53648 0.68446 0.0
C2044 C 0.03591 0.47399 0.60055 0.0
C2045 C 0.02889 0.49299 0.56701 0.0
H2046 H 0.00074 0.52801 0.50523 0.0
H2047 H 0.95618 0.58117 0.50784 0.0
H2048 H -0.00259 0.45743 0.72195 0.0
H2049 H 0.04084 0.4435 0.67016 0.0
H2050 H 0.05993 0.45589 0.60265 0.0
H2051 H 0.04721 0.4888 0.54381 0.0
Mn2052 Mn 0.70312 0.57476 0.88016 0.0
Mn2053 Mn 0.68767 0.66905 0.88849 0.0
C2054 C 0.75061 0.61662 0.8974 0.0
C2055 C 0.73384 0.51451 0.86302 0.0
C2056 C 0.66944 0.62231 0.94475 0.0
O2057 O 0.65632 0.57723 0.84754 0.0
O2058 O 0.64801 0.63512 0.87032 0.0
C2059 C 0.65863 0.69294 0.81523 0.0
N2060 N 0.68327 0.69703 0.84398 0.0
C2061 C 0.71245 0.74893 0.81403 0.0
C2062 C 0.69378 0.73926 0.78127 0.0
C2063 C 0.66484 0.71296 0.78235 0.0
C2064 C 0.70731 0.72599 0.8448 0.0
H2065 H 0.63721 0.672 0.81558 0.0
C2066 C 0.63582 0.6059 0.8536 0.0
O2067 O 0.70489 0.51667 0.88426 0.0
O2068 O 0.73968 0.54565 0.84563 0.0
N2069 N 0.72362 0.70541 0.90368 0.0
C2070 C 0.73721 0.71206 0.93842 0.0
C2071 C 0.76056 0.74278 0.94464 0.0
C2072 C 0.76826 0.76747 0.91542 0.0
C2073 C 0.75136 0.76188 0.88078 0.0
C2074 C 0.72809 0.73086 0.87652 0.0
H2075 H 0.73045 0.69368 0.96099 0.0
O2076 O 0.74811 0.58224 0.90694 0.0
O2077 O 0.72417 0.62915 0.87518 0.0
O2078 O 0.66531 0.59186 0.92597 0.0
O2079 O 0.69344 0.64446 0.93425 0.0
C2080 C 0.75576 0.7864 0.85061 0.0
C2081 C 0.73679 0.77945 0.81705 0.0
H2082 H 0.7021 0.75126 0.75515 0.0
H2083 H 0.64914 0.70643 0.75752 0.0
H2084 H 0.77251 0.74752 0.97186 0.0
H2085 H 0.7863 0.79116 0.9202 0.0
H2086 H 0.7738 0.81047 0.85279 0.0
H2087 H 0.74094 0.79786 0.7939 0.0
Mn2088 Mn 0.65511 0.45316 0.13 0.0
Mn2089 Mn 0.56083 0.43778 0.13863 0.0
C2090 C 0.61329 0.50075 0.1472 0.0
C2091 C 0.71533 0.48382 0.11275 0.0
C2092 C 0.60772 0.4196 0.19472 0.0
O2093 O 0.65255 0.40626 0.09752 0.0
O2094 O 0.59469 0.39806 0.1204 0.0
C2095 C 0.53677 0.40884 0.0654 0.0
N2096 N 0.53269 0.43337 0.09424 0.0
C2097 C 0.48076 0.46266 0.06443 0.0
C2098 C 0.49044 0.44412 0.0316 0.0
C2099 C 0.51674 0.41518 0.03255 0.0
C2100 C 0.50374 0.45743 0.09515 0.0
H2101 H 0.55774 0.38744 0.06564 0.0
C2102 C 0.62387 0.3858 0.10367 0.0
O2103 O 0.71319 0.45489 0.13403 0.0
O2104 O 0.68419 0.48965 0.09538 0.0
N2105 N 0.52455 0.47378 0.15393 0.0
C2106 C 0.51804 0.48741 0.18869 0.0
C2107 C 0.48735 0.51076 0.19501 0.0
C2108 C 0.46255 0.51846 0.16589 0.0
C2109 C 0.46802 0.50154 0.13123 0.0
C2110 C 0.499 0.47824 0.12687 0.0
H2111 H 0.53651 0.48067 0.2112 0.0
O2112 O 0.64768 0.49826 0.15666 0.0
O2113 O 0.60071 0.47423 0.12511 0.0
O2114 O 0.63812 0.41542 0.1759 0.0
O2115 O 0.58561 0.44364 0.18426 0.0
C2116 C 0.44342 0.50599 0.10113 0.0
C2117 C 0.45026 0.48703 0.06754 0.0
H2118 H 0.47844 0.45256 0.00552 0.0
H2119 H 0.52327 0.39959 0.00765 0.0
H2120 H 0.48271 0.52274 0.22224 0.0
H2121 H 0.4389 0.53652 0.17074 0.0
H2122 H 0.4194 0.52407 0.10338 0.0
H2123 H 0.43185 0.4913 0.0444 0.0
Mn2124 Mn 0.77684 0.40539 0.38017 0.0
Mn2125 Mn 0.7922 0.3111 0.38874 0.0
C2126 C 0.72926 0.36356 0.39731 0.0
C2127 C 0.7462 0.46563 0.36286 0.0
C2128 C 0.81034 0.35789 0.44491 0.0
O2129 O 0.82378 0.40284 0.34774 0.0
O2130 O 0.83196 0.34495 0.37062 0.0
C2131 C 0.82137 0.28708 0.31559 0.0
N2132 N 0.79663 0.2831 0.34427 0.0
C2133 C 0.76718 0.23145 0.31419 0.0
C2134 C 0.78598 0.24107 0.28147 0.0
C2135 C 0.8151 0.26716 0.28267 0.0
C2136 C 0.77241 0.25429 0.345 0.0
H2137 H 0.84291 0.3079 0.31601 0.0
C2138 C 0.84423 0.37415 0.35391 0.0
O2139 O 0.77508 0.46348 0.3842 0.0
O2140 O 0.74042 0.43447 0.34548 0.0
N2141 N 0.75615 0.27483 0.40391 0.0
C2142 C 0.74257 0.26815 0.43866 0.0
C2143 C 0.71916 0.23748 0.44484 0.0
C2144 C 0.71134 0.21288 0.41557 0.0
C2145 C 0.72821 0.21852 0.38091 0.0
C2146 C 0.75159 0.24945 0.37671 0.0
H2147 H 0.74939 0.28647 0.46127 0.0
O2148 O 0.73171 0.39795 0.40677 0.0
O2149 O 0.75579 0.35101 0.37523 0.0
O2150 O 0.81452 0.38832 0.42611 0.0
O2151 O 0.78633 0.33577 0.43442 0.0
C2152 C 0.72369 0.19409 0.35068 0.0
C2153 C 0.74267 0.20106 0.31713 0.0
H2154 H 0.77766 0.22917 0.25532 0.0
H2155 H 0.8309 0.27363 0.25788 0.0
H2156 H 0.70723 0.23271 0.47206 0.0
H2157 H 0.69323 0.18925 0.42032 0.0
H2158 H 0.70554 0.1701 0.35281 0.0
H2159 H 0.73844 0.18274 0.29394 0.0
Mn2160 Mn 0.82467 0.45316 0.84982 0.0
Mn2161 Mn 0.91894 0.4377 0.84134 0.0
C2162 C 0.86654 0.50069 0.83261 0.0
C2163 C 0.76447 0.48386 0.86701 0.0
C2164 C 0.87215 0.41956 0.78513 0.0
O2165 O 0.82717 0.40625 0.88231 0.0
O2166 O 0.88504 0.39799 0.85946 0.0
C2167 C 0.94283 0.40859 0.91456 0.0
N2168 N 0.94691 0.43327 0.88584 0.0
C2169 C -0.00134 0.46258 0.91588 0.0
C2170 C 0.98897 0.44386 0.94862 0.0
C2171 C 0.96277 0.41483 0.94748 0.0
C2172 C 0.9758 0.45739 0.88508 0.0
H2173 H 0.92194 0.38712 0.91417 0.0
C2174 C 0.85583 0.38576 0.87615 0.0
O2175 O 0.7666 0.45491 0.84576 0.0
O2176 O 0.79559 0.48966 0.88443 0.0
N2177 N 0.95527 0.47369 0.82617 0.0
C2178 C 0.96195 0.48728 0.79143 0.0
C2179 C -0.00734 0.51064 0.78524 0.0
C2180 C 0.01729 0.51839 0.81449 0.0
C2181 C 0.01166 0.50151 0.84915 0.0
C2182 C 0.98067 0.47819 0.85337 0.0
H2183 H 0.94362 0.4805 0.76883 0.0
O2184 O 0.83215 0.49824 0.82315 0.0
O2185 O 0.87907 0.47418 0.85475 0.0
O2186 O 0.84172 0.41543 0.80393 0.0
O2187 O 0.89432 0.44355 0.79562 0.0
C2188 C 0.03611 0.50597 0.87936 0.0
C2189 C 0.02912 0.487 0.91292 0.0
H2190 H 0.00089 0.45219 0.97477 0.0
H2191 H 0.95625 0.39909 0.97229 0.0
H2192 H -0.00256 0.52258 0.75802 0.0
H2193 H 0.04096 0.53646 0.80974 0.0
H2194 H 0.06013 0.52406 0.87722 0.0
H2195 H 0.04744 0.49123 0.93612 0.0
Mn2196 Mn 0.77667 0.5747 0.09962 0.0
Mn2197 Mn 0.79213 0.66897 0.09109 0.0
C2198 C 0.72912 0.61661 0.08243 0.0
C2199 C 0.74596 0.51448 0.11675 0.0
C2200 C 0.81029 0.62214 0.03497 0.0
O2201 O 0.82356 0.57718 0.13214 0.0
O2202 O 0.8318 0.63506 0.1093 0.0
C2203 C 0.82128 0.69304 0.16423 0.0
N2204 N 0.79658 0.69704 0.13553 0.0
C2205 C 0.76737 0.74895 0.16543 0.0
C2206 C 0.7861 0.73934 0.19818 0.0
C2207 C 0.81509 0.7131 0.19709 0.0
C2208 C 0.7725 0.72597 0.1347 0.0
H2209 H 0.84273 0.67212 0.16389 0.0
C2210 C 0.84403 0.60586 0.12602 0.0
O2211 O 0.77491 0.51661 0.09552 0.0
O2212 O 0.74015 0.54559 0.13419 0.0
N2213 N 0.75617 0.70531 0.07585 0.0
C2214 C 0.74259 0.71194 0.0411 0.0
C2215 C 0.71924 0.74265 0.03485 0.0
C2216 C 0.71153 0.76736 0.06404 0.0
C2217 C 0.72842 0.76179 0.09869 0.0
C2218 C 0.75169 0.73078 0.10299 0.0
H2219 H 0.74936 0.69353 0.01855 0.0
O2220 O 0.73161 0.58222 0.07295 0.0
O2221 O 0.75565 0.62912 0.10455 0.0
O2222 O 0.81444 0.59171 0.05377 0.0
O2223 O 0.78625 0.64425 0.04542 0.0
C2224 C 0.72401 0.78635 0.12883 0.0
C2225 C 0.743 0.77945 0.16239 0.0
H2226 H 0.77778 0.75135 0.22429 0.0
H2227 H 0.83083 0.70662 0.22191 0.0
H2228 H 0.70729 0.74737 0.00762 0.0
H2229 H 0.69349 0.79104 0.05922 0.0
H2230 H 0.70597 0.81041 0.12662 0.0
H2231 H 0.73889 0.7979 0.1855 0.0
Mn2232 Mn 0.65531 0.52695 0.34957 0.0
Mn2233 Mn 0.56104 0.54242 0.34118 0.0
C2234 C 0.61341 0.4794 0.33243 0.0
C2235 C 0.71554 0.49626 0.36676 0.0
C2236 C 0.60776 0.56053 0.28492 0.0
O2237 O 0.65285 0.57389 0.38203 0.0
O2238 O 0.59497 0.58212 0.35923 0.0
C2239 C 0.53716 0.57173 0.41432 0.0
N2240 N 0.53313 0.54692 0.38571 0.0
C2241 C 0.48139 0.51769 0.41585 0.0
C2242 C 0.49103 0.53657 0.44851 0.0
C2243 C 0.5172 0.56561 0.44725 0.0
C2244 C 0.50425 0.52279 0.38503 0.0
H2245 H 0.55802 0.59322 0.41385 0.0
C2246 C 0.62419 0.59437 0.37589 0.0
O2247 O 0.71339 0.52517 0.34546 0.0
O2248 O 0.68442 0.49048 0.3842 0.0
N2249 N 0.52468 0.50642 0.32611 0.0
C2250 C 0.51795 0.49281 0.2914 0.0
C2251 C 0.48723 0.46944 0.28528 0.0
C2252 C 0.46264 0.46172 0.31458 0.0
C2253 C 0.46833 0.47864 0.3492 0.0
C2254 C 0.49933 0.50195 0.35335 0.0
H2255 H 0.53625 0.49959 0.26877 0.0
O2256 O 0.64779 0.48185 0.32294 0.0
O2257 O 0.60093 0.50594 0.35456 0.0
O2258 O 0.63821 0.56467 0.30368 0.0
O2259 O 0.58561 0.53654 0.29544 0.0
C2260 C 0.44391 0.47424 0.37944 0.0
C2261 C 0.45093 0.49327 0.41295 0.0
H2262 H 0.47909 0.52834 0.47469 0.0
H2263 H 0.5237 0.58147 0.472 0.0
H2264 H 0.48242 0.45748 0.25808 0.0
H2265 H 0.43897 0.44365 0.30988 0.0
H2266 H 0.41986 0.45617 0.37736 0.0
H2267 H 0.43258 0.48918 0.43613 0.0
Mn2268 Mn 0.70294 0.40537 0.5998 0.0
Mn2269 Mn 0.68746 0.31108 0.59139 0.0
C2270 C 0.75049 0.36346 0.58265 0.0
C2271 C 0.73364 0.46558 0.61704 0.0
C2272 C 0.6694 0.35784 0.53509 0.0
O2273 O 0.65598 0.4029 0.63221 0.0
O2274 O 0.64774 0.34501 0.60939 0.0
C2275 C 0.65832 0.28736 0.66466 0.0
N2276 N 0.68299 0.2832 0.63594 0.0
C2277 C 0.71231 0.23153 0.66615 0.0
C2278 C 0.69355 0.24128 0.69885 0.0
C2279 C 0.66454 0.26749 0.69762 0.0
C2280 C 0.70711 0.2543 0.63526 0.0
H2281 H 0.63686 0.30826 0.66421 0.0
C2282 C 0.63549 0.37424 0.62604 0.0
O2283 O 0.70474 0.46346 0.59573 0.0
O2284 O 0.7394 0.43445 0.63447 0.0
N2285 N 0.72346 0.27472 0.57633 0.0
C2286 C 0.73708 0.26797 0.54161 0.0
C2287 C 0.76045 0.23724 0.53551 0.0
C2288 C 0.76819 0.21268 0.56483 0.0
C2289 C 0.75128 0.21839 0.59946 0.0
C2290 C 0.72794 0.24937 0.60358 0.0
H2291 H 0.73031 0.28626 0.51896 0.0
O2292 O 0.74807 0.39786 0.57322 0.0
O2293 O 0.72394 0.35097 0.60476 0.0
O2294 O 0.66528 0.3883 0.55386 0.0
O2295 O 0.69332 0.33562 0.54562 0.0
C2296 C 0.75577 0.19403 0.62975 0.0
C2297 C 0.7368 0.20112 0.66329 0.0
H2298 H 0.70183 0.22941 0.72505 0.0
H2299 H 0.64878 0.27406 0.72241 0.0
H2300 H 0.77239 0.23241 0.5083 0.0
H2301 H 0.78628 0.18901 0.56015 0.0
H2302 H 0.7739 0.17003 0.6277 0.0
H2303 H 0.74109 0.18291 0.68657 0.0
Mn2304 Mn 0.62973 0.82447 0.52666 0.0
Mn2305 Mn 0.63839 0.91877 0.54203 0.0
C2306 C 0.64696 0.86631 0.47902 0.0
C2307 C 0.61261 0.76416 0.4962 0.0
C2308 C 0.69441 0.87185 0.56017 0.0
O2309 O 0.59731 0.82704 0.57361 0.0
O2310 O 0.62018 0.8849 0.5818 0.0
C2311 C 0.56511 0.94281 0.57088 0.0
N2312 N 0.59403 0.94701 0.54648 0.0
C2313 C 0.56459 -0.00054 0.51768 0.0
C2314 C 0.5317 0.9899 0.53619 0.0
C2315 C 0.53244 0.96321 0.56478 0.0
C2316 C 0.59516 0.9762 0.5227 0.0
H2317 H 0.56518 0.92161 0.59205 0.0
C2318 C 0.60353 0.85567 0.5941 0.0
O2319 O 0.63384 0.76641 0.52515 0.0
O2320 O 0.59516 0.79525 0.49026 0.0
N2321 N 0.65378 0.9551 0.50609 0.0
C2322 C 0.68854 0.96148 0.4924 0.0
C2323 C 0.69498 -0.00775 0.46918 0.0
C2324 C 0.66601 0.01728 0.46171 0.0
C2325 C 0.63137 0.01196 0.47872 0.0
C2326 C 0.62687 0.98086 0.50186 0.0
H2327 H 0.71098 0.94286 0.49896 0.0
O2328 O 0.6563 0.8319 0.48147 0.0
O2329 O 0.62488 0.8789 0.50555 0.0
O2330 O 0.67562 0.84144 0.56436 0.0
O2331 O 0.68396 0.89395 0.53614 0.0
C2332 C 0.60145 0.03682 0.47452 0.0
C2333 C 0.56786 0.0301 0.49352 0.0
H2334 H 0.50572 0.00224 0.52792 0.0
H2335 H 0.50748 0.9567 0.58031 0.0
H2336 H 0.7222 -0.00323 0.45714 0.0
H2337 H 0.67097 0.041 0.44376 0.0
H2338 H 0.60384 0.06096 0.45661 0.0
H2339 H 0.5449 0.04879 0.48952 0.0
Mn2340 Mn 0.12972 0.65584 0.45289 0.0
Mn2341 Mn 0.1384 0.56153 0.43756 0.0
C2342 C 0.14684 0.61398 0.50061 0.0
C2343 C 0.11245 0.71614 0.48331 0.0
C2344 C 0.1945 0.6084 0.41955 0.0
O2345 O 0.09748 0.65326 0.40581 0.0
O2346 O 0.12035 0.59538 0.39771 0.0
C2347 C 0.06518 0.53757 0.40852 0.0
N2348 N 0.094 0.5334 0.43305 0.0
C2349 C 0.06433 0.48116 0.46195 0.0
C2350 C 0.03152 0.49071 0.44327 0.0
C2351 C 0.03244 0.51728 0.41458 0.0
C2352 C 0.09498 0.5043 0.45694 0.0
H2353 H 0.06537 0.5587 0.38728 0.0
C2354 C 0.10374 0.6246 0.38536 0.0
O2355 O 0.1338 0.7139 0.45445 0.0
O2356 O 0.09499 0.68504 0.48917 0.0
N2357 N 0.15366 0.52522 0.47356 0.0
C2358 C 0.18841 0.51873 0.48725 0.0
C2359 C 0.19474 0.48796 0.5105 0.0
C2360 C 0.16566 0.46306 0.51802 0.0
C2361 C 0.13104 0.4685 0.501 0.0
C2362 C 0.12666 0.49957 0.47782 0.0
H2363 H 0.21094 0.53725 0.48067 0.0
O2364 O 0.15613 0.6484 0.49819 0.0
O2365 O 0.12485 0.60142 0.47399 0.0
O2366 O 0.17573 0.63883 0.41533 0.0
O2367 O 0.18397 0.58628 0.44353 0.0
C2368 C 0.10103 0.44377 0.50523 0.0
C2369 C 0.06748 0.45058 0.4862 0.0
H2370 H 0.00548 0.47844 0.45145 0.0
H2371 H 0.00756 0.52378 0.39892 0.0
H2372 H 0.22195 0.48334 0.52252 0.0
H2373 H 0.17053 0.43934 0.536 0.0
H2374 H 0.10331 0.41965 0.52319 0.0
H2375 H 0.04446 0.43198 0.49019 0.0
Mn2376 Mn 0.57392 0.87998 0.70261 0.0
Mn2377 Mn 0.66818 0.88848 0.68718 0.0
C2378 C 0.61579 0.89703 0.75029 0.0
C2379 C 0.51362 0.8627 0.733 0.0
C2380 C 0.62144 0.94475 0.66936 0.0
O2381 O 0.5764 0.84781 0.65547 0.0
O2382 O 0.63427 0.87066 0.64732 0.0
C2383 C 0.69186 0.81527 0.65785 0.0
N2384 N 0.69613 0.84397 0.68251 0.0
C2385 C 0.74832 0.81403 0.71119 0.0
C2386 C 0.7387 0.78133 0.69234 0.0
C2387 C 0.7121 0.78245 0.66369 0.0
C2388 C 0.72526 0.84477 0.70635 0.0
H2389 H 0.67071 0.81561 0.63664 0.0
C2390 C 0.60502 0.85412 0.63499 0.0
O2391 O 0.51587 0.88412 0.70419 0.0
O2392 O 0.54471 0.84521 0.73883 0.0
N2393 N 0.70458 0.90349 0.72318 0.0
C2394 C 0.7112 0.93817 0.73698 0.0
C2395 C 0.74201 0.94432 0.7602 0.0
C2396 C 0.76682 0.91513 0.76759 0.0
C2397 C 0.76125 0.88058 0.75046 0.0
C2398 C 0.73014 0.87638 0.72731 0.0
H2399 H 0.69275 0.96078 0.73048 0.0
O2400 O 0.58138 0.90637 0.74793 0.0
O2401 O 0.62831 0.875 0.72367 0.0
O2402 O 0.59099 0.92603 0.66512 0.0
O2403 O 0.6436 0.93413 0.69328 0.0
C2404 C 0.78589 0.85047 0.75454 0.0
C2405 C 0.77892 0.817 0.73542 0.0
H2406 H 0.75094 0.75522 0.70034 0.0
H2407 H 0.70555 0.75767 0.64791 0.0
H2408 H 0.74674 0.97149 0.77229 0.0
H2409 H 0.79057 0.91985 0.78555 0.0
H2410 H 0.81005 0.85261 0.77245 0.0
H2411 H 0.79749 0.79394 0.73921 0.0
Mn2412 Mn 0.35009 0.32408 0.95283 0.0
Mn2413 Mn 0.34134 0.41835 0.93751 0.0
C2414 C 0.33301 0.36593 0.00059 0.0
C2415 C 0.36743 0.26379 0.98318 0.0
C2416 C 0.28527 0.37148 0.91959 0.0
O2417 O 0.38227 0.32666 0.90571 0.0
O2418 O 0.35933 0.38452 0.89761 0.0
C2419 C 0.41446 0.44237 0.90829 0.0
N2420 N 0.38573 0.44647 0.93293 0.0
C2421 C 0.41539 0.49879 0.96168 0.0
C2422 C 0.44814 0.48932 0.94288 0.0
C2423 C 0.44718 0.46274 0.9142 0.0
C2424 C 0.38478 0.47558 0.95681 0.0
H2425 H 0.41423 0.42125 0.88704 0.0
C2426 C 0.37594 0.35531 0.88526 0.0
O2427 O 0.34603 0.26603 0.95436 0.0
O2428 O 0.38489 0.29489 0.98904 0.0
N2429 N 0.32612 0.45465 0.97353 0.0
C2430 C 0.29139 0.46115 0.98725 0.0
C2431 C 0.28507 0.49192 0.01048 0.0
C2432 C 0.31415 0.51685 0.01793 0.0
C2433 C 0.34875 0.51141 0.00088 0.0
C2434 C 0.35312 0.48031 0.97774 0.0
H2435 H 0.26886 0.44262 0.9807 0.0
O2436 O 0.32374 0.3315 -0.00181 0.0
O2437 O 0.35497 0.37848 0.97394 0.0
O2438 O 0.30404 0.34107 0.91532 0.0
O2439 O 0.29581 0.39358 0.94358 0.0
C2440 C 0.37872 0.53621 0.00497 0.0
C2441 C 0.41223 0.52942 0.98586 0.0
H2442 H 0.47417 0.50168 0.95095 0.0
H2443 H 0.47201 0.45629 0.89845 0.0
H2444 H 0.25787 0.49654 0.02252 0.0
H2445 H 0.30928 0.54059 0.03587 0.0
H2446 H 0.37642 0.56039 0.02283 0.0
H2447 H 0.43513 0.5482 0.98956 0.0
Mn2448 Mn 0.40562 0.6 0.7029 0.0
Mn2449 Mn 0.31133 0.59149 0.68756 0.0
C2450 C 0.36377 0.58287 0.7506 0.0
C2451 C 0.46596 0.61711 0.7333 0.0
C2452 C 0.35811 0.53534 0.6695 0.0
O2453 O 0.40309 0.63238 0.65592 0.0
O2454 O 0.34521 0.60956 0.64774 0.0
C2455 C 0.28741 0.66472 0.65847 0.0
N2456 N 0.28322 0.63591 0.68302 0.0
C2457 C 0.23079 0.6655 0.71165 0.0
C2458 C 0.24032 0.6983 0.69295 0.0
C2459 C 0.26701 0.69742 0.66438 0.0
C2460 C 0.25403 0.6349 0.70679 0.0
H2461 H 0.3086 0.66455 0.63729 0.0
C2462 C 0.37444 0.62618 0.63545 0.0
O2463 O 0.46367 0.59584 0.7044 0.0
O2464 O 0.43489 0.6346 0.73924 0.0
N2465 N 0.27499 0.57624 0.72352 0.0
C2466 C 0.26851 0.54151 0.73726 0.0
C2467 C 0.23773 0.53517 0.76048 0.0
C2468 C 0.21276 0.56422 0.76787 0.0
C2469 C 0.21817 0.59882 0.7508 0.0
C2470 C 0.24929 0.60322 0.72769 0.0
H2471 H 0.28707 0.519 0.73073 0.0
O2472 O 0.39816 0.57347 0.74812 0.0
O2473 O 0.35123 0.60495 0.72403 0.0
O2474 O 0.38853 0.5541 0.66524 0.0
O2475 O 0.33604 0.54587 0.69352 0.0
C2476 C 0.19334 0.62878 0.75486 0.0
C2477 C 0.20012 0.66231 0.73577 0.0
H2478 H 0.22793 0.72432 0.70104 0.0
H2479 H 0.2735 0.7223 0.64871 0.0
H2480 H 0.23313 0.50797 0.77255 0.0
H2481 H 0.18902 0.55935 0.78581 0.0
H2482 H 0.16915 0.62646 0.77271 0.0
H2483 H 0.18137 0.68524 0.73954 0.0
Mn2484 Mn 0.84993 0.15571 0.02697 0.0
Mn2485 Mn 0.84139 0.06143 0.04241 0.0
C2486 C 0.8328 0.11384 0.9793 0.0
C2487 C 0.8671 0.21602 -0.00345 0.0
C2488 C 0.78524 0.10824 0.06036 0.0
O2489 O 0.88224 0.15321 0.07399 0.0
O2490 O 0.85937 0.09535 0.08223 0.0
C2491 C 0.91463 0.03762 0.07154 0.0
N2492 N 0.88581 0.03334 0.04703 0.0
C2493 C 0.91545 0.98087 0.01848 0.0
C2494 C 0.94824 -0.00952 0.03714 0.0
C2495 C 0.94735 0.01724 0.06565 0.0
C2496 C 0.88483 0.0041 0.02331 0.0
H2497 H 0.91445 0.05887 0.09266 0.0
C2498 C 0.87597 0.1246 0.09451 0.0
O2499 O 0.84578 0.21376 0.02543 0.0
O2500 O 0.88458 0.18494 -0.00935 0.0
N2501 N 0.82622 0.02504 0.00646 0.0
C2502 C 0.79153 0.01857 -0.00736 0.0
C2503 C 0.78523 0.98777 0.96944 0.0
C2504 C 0.81429 0.96278 0.96213 0.0
C2505 C 0.84884 0.96819 0.97928 0.0
C2506 C 0.85319 -0.00067 0.00237 0.0
H2507 H 0.76903 0.03716 -0.0009 0.0
O2508 O 0.82343 0.14825 0.98173 0.0
O2509 O 0.85487 0.10129 0.00589 0.0
O2510 O 0.804 0.13867 0.06459 0.0
O2511 O 0.79578 0.08614 0.03637 0.0
C2512 C 0.8788 0.94336 0.97528 0.0
C2513 C 0.9123 0.95017 -0.00561 0.0
H2514 H 0.97427 0.97811 0.02906 0.0
H2515 H 0.97222 0.02379 0.08129 0.0
H2516 H 0.75806 0.98318 0.95731 0.0
H2517 H 0.80944 0.93902 0.94421 0.0
H2518 H 0.87652 0.91915 0.95744 0.0
H2519 H 0.93525 0.93144 -0.00935 0.0
Mn2520 Mn 0.57402 0.10012 0.777 0.0
Mn2521 Mn 0.66828 0.09127 0.79228 0.0
C2522 C 0.61582 0.0831 0.72922 0.0
C2523 C 0.51374 0.11745 0.74664 0.0
C2524 C 0.62134 0.03525 0.81018 0.0
O2525 O 0.57663 0.13226 0.82415 0.0
O2526 O 0.63448 0.10927 0.8322 0.0
C2527 C 0.6923 0.16447 0.82136 0.0
N2528 N 0.69651 0.13561 0.79689 0.0
C2529 C 0.74889 0.16518 0.76813 0.0
C2530 C 0.73935 0.19801 0.78676 0.0
C2531 C 0.71268 0.19717 0.81536 0.0
C2532 C 0.72566 0.13458 0.77306 0.0
H2533 H 0.67109 0.16433 0.84253 0.0
C2534 C 0.60527 0.12587 0.84459 0.0
O2535 O 0.51597 0.09606 0.77546 0.0
O2536 O 0.54483 0.13493 0.74079 0.0
N2537 N 0.70456 0.07601 0.75625 0.0
C2538 C 0.71095 0.04127 0.74248 0.0
C2539 C 0.74173 0.03489 0.71927 0.0
C2540 C 0.76675 0.0639 0.71188 0.0
C2541 C 0.7614 0.0985 0.72897 0.0
C2542 C 0.73031 0.10293 0.75211 0.0
H2543 H 0.69234 0.01879 0.74897 0.0
O2544 O 0.58141 0.07378 0.73164 0.0
O2545 O 0.62842 0.10502 0.75588 0.0
O2546 O 0.59096 0.05405 0.81449 0.0
O2547 O 0.64339 0.04578 0.78614 0.0
C2548 C 0.78624 0.12844 0.72485 0.0
C2549 C 0.77951 0.16198 0.74394 0.0
H2550 H 0.7517 0.22403 0.77859 0.0
H2551 H 0.70617 0.22208 0.83097 0.0
H2552 H 0.74627 0.00769 0.70718 0.0
H2553 H 0.79047 0.059 0.69393 0.0
H2554 H 0.81039 0.12611 0.70695 0.0
H2555 H 0.79822 0.18494 0.74006 0.0
Mn2556 Mn 0.9059 0.87994 0.27713 0.0
Mn2557 Mn 0.81161 0.88844 0.2925 0.0
C2558 C 0.86404 0.89701 0.22945 0.0
C2559 C 0.9662 0.86269 0.24671 0.0
C2560 C 0.85834 0.94468 0.31041 0.0
O2561 O 0.90339 0.84772 0.32424 0.0
O2562 O 0.84549 0.87054 0.33235 0.0
C2563 C 0.78786 0.81523 0.32176 0.0
N2564 N 0.78366 0.84394 0.29709 0.0
C2565 C 0.73153 0.81402 0.26828 0.0
C2566 C 0.74111 0.78131 0.28714 0.0
C2567 C 0.76763 0.78241 0.31586 0.0
C2568 C 0.75457 0.84475 0.2732 0.0
H2569 H 0.80895 0.81556 0.34303 0.0
C2570 C 0.87473 0.85398 0.3447 0.0
O2571 O 0.96395 0.88408 0.27554 0.0
O2572 O 0.93512 0.8452 0.24088 0.0
N2573 N 0.77525 0.90352 0.25649 0.0
C2574 C 0.76862 0.93823 0.24276 0.0
C2575 C 0.73783 0.94442 0.21952 0.0
C2576 C 0.71305 0.91522 0.21204 0.0
C2577 C 0.71863 0.88063 0.22909 0.0
C2578 C 0.74972 0.87641 0.25227 0.0
H2579 H 0.78704 0.96085 0.24932 0.0
O2580 O 0.89845 0.90634 0.23181 0.0
O2581 O 0.85151 0.87496 0.25605 0.0
O2582 O 0.88879 0.92596 0.31464 0.0
O2583 O 0.83619 0.93409 0.28648 0.0
C2584 C 0.69403 0.85051 0.22492 0.0
C2585 C 0.70098 0.81701 0.244 0.0
H2586 H 0.7289 0.7552 0.2791 0.0
H2587 H 0.77414 0.75762 0.33166 0.0
H2588 H 0.73309 0.97161 0.20749 0.0
H2589 H 0.68932 0.91997 0.19406 0.0
H2590 H 0.66989 0.85267 0.20697 0.0
H2591 H 0.68244 0.79395 0.24012 0.0
Mn2592 Mn 0.4474 0.34531 0.17192 0.0
Mn2593 Mn 0.44404 0.32226 0.08427 0.0
C2594 C 0.50213 0.33058 0.13763 0.0
C2595 C 0.46923 0.36677 0.23073 0.0
C2596 C 0.42458 0.27229 0.13716 0.0
O2597 O 0.4005 0.37695 0.15911 0.0
O2598 O 0.39648 0.33881 0.10984 0.0
C2599 C 0.41801 0.39372 0.05508 0.0
N2600 N 0.43866 0.3623 0.05126 0.0
C2601 C 0.4495 0.37401 0.98695 0.0
C2602 C 0.42826 0.40555 -0.00918 0.0
C2603 C 0.41118 0.41537 0.02417 0.0
C2604 C 0.45494 0.35326 0.01872 0.0
H2605 H 0.40942 0.40416 0.08152 0.0
C2606 C 0.38333 0.36571 0.12969 0.0
O2607 O 0.44247 0.3429 0.22812 0.0
O2608 O 0.47698 0.38414 0.19989 0.0
N2609 N 0.48377 0.30669 0.05165 0.0
C2610 C 0.50548 0.27596 0.05311 0.0
C2611 C 0.52308 0.26255 0.02089 0.0
C2612 C 0.51923 0.28126 0.98714 0.0
C2613 C 0.49729 0.31306 0.98595 0.0
C2614 C 0.47924 0.32426 0.01884 0.0
H2615 H 0.50881 0.26135 0.07887 0.0
O2616 O 0.49446 0.31985 0.17119 0.0
O2617 O 0.47508 0.34799 0.12059 0.0
O2618 O 0.41474 0.29671 0.16073 0.0
O2619 O 0.45224 0.28033 0.11777 0.0
C2620 C 0.4915 0.33337 0.95306 0.0
C2621 C 0.46793 0.36445 0.9537 0.0
H2622 H 0.43243 0.4257 0.97115 0.0
H2623 H 0.39616 0.44118 0.027 0.0
H2624 H 0.53826 0.2366 0.02162 0.0
H2625 H 0.53271 0.27059 0.96237 0.0
H2626 H 0.50514 0.32548 0.92735 0.0
H2627 H 0.46413 0.38071 0.92862 0.0
Mn2628 Mn 0.38462 0.6973 0.92194 0.0
Mn2629 Mn 0.40751 0.69385 0.83428 0.0
C2630 C 0.39931 0.75201 0.88758 0.0
C2631 C 0.36328 0.71916 0.98073 0.0
C2632 C 0.4576 0.67439 0.88716 0.0
O2633 O 0.35292 0.65039 0.9092 0.0
O2634 O 0.39106 0.6463 0.85995 0.0
C2635 C 0.33589 0.66794 0.8054 0.0
N2636 N 0.36737 0.68846 0.80141 0.0
C2637 C 0.35548 0.6992 0.73712 0.0
C2638 C 0.32388 0.67808 0.74117 0.0
C2639 C 0.31413 0.66108 0.77458 0.0
C2640 C 0.37635 0.70464 0.7688 0.0
H2641 H 0.32547 0.65951 0.83191 0.0
C2642 C 0.36411 0.6332 0.87977 0.0
O2643 O 0.3871 0.69237 0.97813 0.0
O2644 O 0.34584 0.72692 0.94993 0.0
N2645 N 0.42296 0.73358 0.80157 0.0
C2646 C 0.45358 0.75545 0.80293 0.0
C2647 C 0.46693 0.77298 0.77064 0.0
C2648 C 0.44818 0.769 0.73694 0.0
C2649 C 0.41643 0.74698 0.73586 0.0
C2650 C 0.40534 0.72895 0.7688 0.0
H2651 H 0.46823 0.75887 0.82864 0.0
O2652 O 0.41011 0.74435 0.92112 0.0
O2653 O 0.38187 0.72494 0.87061 0.0
O2654 O 0.43319 0.66462 0.91076 0.0
O2655 O 0.44956 0.70202 0.86766 0.0
C2656 C 0.39604 0.74113 0.70304 0.0
C2657 C 0.36495 0.71758 0.70382 0.0
H2658 H 0.30361 0.68237 0.72164 0.0
H2659 H 0.28829 0.64613 0.77751 0.0
H2660 H 0.49286 0.78817 0.7713 0.0
H2661 H 0.45877 0.78246 0.71212 0.0
H2662 H 0.40383 0.75476 0.67729 0.0
H2663 H 0.34862 0.71379 0.67879 0.0
Mn2664 Mn 0.03244 0.63472 0.6721 0.0
Mn2665 Mn 0.03576 0.6577 0.58448 0.0
C2666 C 0.97768 0.64944 0.63786 0.0
C2667 C 0.01069 0.61329 0.73091 0.0
C2668 C 0.05522 0.70775 0.63732 0.0
O2669 O 0.07935 0.60307 0.65926 0.0
O2670 O 0.08336 0.64127 0.61005 0.0
C2671 C 0.0617 0.58612 0.55554 0.0
N2672 N 0.04116 0.61759 0.55158 0.0
C2673 C 0.03056 0.60586 0.48725 0.0
C2674 C 0.05177 0.57431 0.49124 0.0
C2675 C 0.06867 0.56446 0.52467 0.0
C2676 C 0.02502 0.62664 0.51898 0.0
H2677 H 0.07009 0.57565 0.58204 0.0
C2678 C 0.09651 0.61431 0.62983 0.0
O2679 O 0.03745 0.63715 0.72829 0.0
O2680 O 0.0029 0.59588 0.7001 0.0
N2681 N -0.00398 0.67316 0.55182 0.0
C2682 C 0.97418 0.7038 0.55322 0.0
C2683 C 0.95665 0.71719 0.52095 0.0
C2684 C 0.96064 0.69848 0.48722 0.0
C2685 C 0.98268 0.66675 0.48609 0.0
C2686 C 0.00068 0.6556 0.51902 0.0
H2687 H 0.97079 0.71843 0.57895 0.0
O2688 O 0.98538 0.66019 0.67141 0.0
O2689 O 0.00472 0.63202 0.62082 0.0
O2690 O 0.06506 0.68334 0.6609 0.0
O2691 O 0.02757 0.69971 0.61789 0.0
C2692 C 0.98861 0.64645 0.45322 0.0
C2693 C 0.01223 0.61539 0.45394 0.0
H2694 H 0.04768 0.55415 0.47158 0.0
H2695 H 0.08369 0.53864 0.52755 0.0
H2696 H 0.94146 0.74313 0.52164 0.0
H2697 H 0.94719 0.70912 0.4624 0.0
H2698 H 0.97502 0.65429 0.42747 0.0
H2699 H 0.0161 0.59914 0.42888 0.0
Mn2700 Mn 0.09537 0.28263 0.42228 0.0
Mn2701 Mn 0.07264 0.28609 0.33463 0.0
C2702 C 0.08061 0.22791 0.38797 0.0
C2703 C 0.11667 0.2608 0.48108 0.0
C2704 C 0.02244 0.30549 0.38736 0.0
O2705 O 0.12714 0.32951 0.40957 0.0
O2706 O 0.089 0.3336 0.36036 0.0
C2707 C 0.14436 0.31198 0.30596 0.0
N2708 N 0.11287 0.2915 0.30188 0.0
C2709 C 0.12479 0.28101 0.23756 0.0
C2710 C 0.15636 0.30217 0.24169 0.0
C2711 C 0.1661 0.31902 0.27516 0.0
C2712 C 0.1039 0.27544 0.26921 0.0
H2713 H 0.1548 0.32026 0.33251 0.0
C2714 C 0.11598 0.34668 0.38012 0.0
O2715 O 0.09286 0.2876 0.47846 0.0
O2716 O 0.13412 0.25301 0.45029 0.0
N2717 N 0.05723 0.24644 0.30186 0.0
C2718 C 0.02654 0.2247 0.30313 0.0
C2719 C 0.01324 0.20722 0.2708 0.0
C2720 C 0.03207 0.21121 0.23714 0.0
C2721 C 0.06384 0.23321 0.23613 0.0
C2722 C 0.07491 0.25114 0.26912 0.0
H2723 H 0.01183 0.22127 0.32882 0.0
O2724 O 0.06982 0.2356 0.4215 0.0
O2725 O 0.09814 0.25493 0.37099 0.0
O2726 O 0.0468 0.3153 0.41102 0.0
O2727 O 0.03054 0.27788 0.36789 0.0
C2728 C 0.08425 0.23915 0.20334 0.0
C2729 C 0.11534 0.26272 0.2042 0.0
H2730 H 0.17664 0.29802 0.22215 0.0
H2731 H 0.19191 0.33404 0.27812 0.0
H2732 H 0.98728 0.19205 0.27142 0.0
H2733 H 0.0215 0.1978 0.21228 0.0
H2734 H 0.07648 0.22561 0.17755 0.0
H2735 H 0.13167 0.26659 0.17919 0.0
Mn2736 Mn 0.4474 0.63469 0.30781 0.0
Mn2737 Mn 0.44413 0.65781 0.3954 0.0
C2738 C 0.50218 0.64948 0.34199 0.0
C2739 C 0.46918 0.61326 0.24901 0.0
C2740 C 0.42459 0.70773 0.34248 0.0
O2741 O 0.40053 0.60301 0.32071 0.0
O2742 O 0.39652 0.64123 0.36991 0.0
C2743 C 0.4182 0.58635 0.42462 0.0
N2744 N 0.43879 0.61781 0.42843 0.0
C2745 C 0.44947 0.60628 0.49279 0.0
C2746 C 0.42825 0.57473 0.48894 0.0
C2747 C 0.4113 0.56478 0.45558 0.0
C2748 C 0.45498 0.62695 0.46099 0.0
H2749 H 0.40971 0.57583 0.39818 0.0
C2750 C 0.38337 0.61428 0.35013 0.0
O2751 O 0.44237 0.63707 0.25163 0.0
O2752 O 0.47699 0.59587 0.27983 0.0
N2753 N 0.48389 0.67341 0.42797 0.0
C2754 C 0.50568 0.70406 0.42645 0.0
C2755 C 0.52325 0.71755 0.45866 0.0
C2756 C 0.51931 0.69894 0.49245 0.0
C2757 C 0.49731 0.66719 0.49371 0.0
C2758 C 0.47929 0.65593 0.46083 0.0
H2759 H 0.50902 0.71864 0.40067 0.0
O2760 O 0.49443 0.66021 0.30845 0.0
O2761 O 0.47516 0.63206 0.35909 0.0
O2762 O 0.41473 0.68326 0.31897 0.0
O2763 O 0.45227 0.69973 0.36186 0.0
C2764 C 0.49143 0.64699 0.52665 0.0
C2765 C 0.46783 0.61592 0.52605 0.0
H2766 H 0.43232 0.55467 0.50872 0.0
H2767 H 0.39626 0.53898 0.45279 0.0
H2768 H 0.53843 0.74348 0.45789 0.0
H2769 H 0.53277 0.70966 0.51722 0.0
H2770 H 0.50504 0.65493 0.55236 0.0
H2771 H 0.46397 0.59974 0.55118 0.0
Mn2772 Mn 0.09528 0.69728 0.05788 0.0
Mn2773 Mn 0.07239 0.6939 0.14554 0.0
C2774 C 0.08053 0.75201 0.09216 0.0
C2775 C 0.11666 0.7191 -0.00094 0.0
C2776 C 0.02232 0.67438 0.09268 0.0
O2777 O 0.127 0.6504 0.07066 0.0
O2778 O 0.08887 0.64634 0.11992 0.0
C2779 C 0.14397 0.66798 0.17448 0.0
N2780 N 0.11252 0.68855 0.17842 0.0
C2781 C 0.12432 0.69924 0.24273 0.0
C2782 C 0.15589 0.67808 0.23873 0.0
C2783 C 0.16567 0.66108 0.20534 0.0
C2784 C 0.1035 0.70472 0.21102 0.0
H2785 H 0.15441 0.65951 0.14799 0.0
C2786 C 0.1158 0.63322 0.1001 0.0
O2787 O 0.09283 0.69231 0.0017 0.0
O2788 O 0.13405 0.72689 0.02987 0.0
N2789 N 0.05692 0.73366 0.1782 0.0
C2790 C 0.02631 0.75552 0.1768 0.0
C2791 C 0.01291 0.77304 0.20907 0.0
C2792 C 0.03162 0.76906 0.24279 0.0
C2793 C 0.06338 0.74705 0.24391 0.0
C2794 C 0.07451 0.72903 0.21098 0.0
H2795 H 0.01167 0.75893 0.15107 0.0
O2796 O 0.06974 0.7443 0.05863 0.0
O2797 O 0.09801 0.72498 0.10918 0.0
O2798 O 0.04673 0.66459 0.06909 0.0
O2799 O 0.03034 0.70202 0.11216 0.0
C2800 C 0.08372 0.74119 0.27676 0.0
C2801 C 0.11481 0.71762 0.27602 0.0
H2802 H 0.17612 0.68234 0.2583 0.0
H2803 H 0.1915 0.64609 0.20245 0.0
H2804 H 0.98697 0.78822 0.20838 0.0
H2805 H 0.02099 0.7825 0.26761 0.0
H2806 H 0.07589 0.7548 0.3025 0.0
H2807 H 0.13109 0.7138 0.30108 0.0
Mn2808 Mn 0.03243 0.34524 0.8079 0.0
Mn2809 Mn 0.03578 0.32226 0.89555 0.0
C2810 C 0.97769 0.33051 0.84218 0.0
C2811 C 0.01062 0.36666 0.7491 0.0
C2812 C 0.05527 0.27223 0.84268 0.0
O2813 O 0.07933 0.37692 0.82072 0.0
O2814 O 0.08336 0.33874 0.86996 0.0
C2815 C 0.06174 0.39381 0.92456 0.0
N2816 N 0.04116 0.36236 0.92847 0.0
C2817 C 0.03047 0.37409 -0.0072 0.0
C2818 C 0.05169 0.40563 0.98884 0.0
C2819 C 0.06866 0.41547 0.95545 0.0
C2820 C 0.02497 0.35332 0.96106 0.0
H2821 H 0.0702 0.40428 0.89808 0.0
C2822 C 0.09649 0.36569 0.85015 0.0
O2823 O 0.03739 0.34281 0.7517 0.0
O2824 O 0.00285 0.38407 0.77991 0.0
N2825 N -0.00396 0.30677 0.92819 0.0
C2826 C 0.97423 0.27612 0.92678 0.0
C2827 C 0.95667 0.26272 0.95903 0.0
C2828 C 0.96062 0.28143 -0.00724 0.0
C2829 C 0.98263 0.31318 -0.00609 0.0
C2830 C 0.00065 0.32434 0.96099 0.0
H2831 H 0.97085 0.26149 0.90104 0.0
O2832 O 0.98539 0.31975 0.80864 0.0
O2833 O 0.00473 0.34795 0.8592 0.0
O2834 O 0.06509 0.29665 0.8191 0.0
O2835 O 0.02762 0.28026 0.86211 0.0
C2836 C 0.98851 0.33348 0.02679 0.0
C2837 C 0.0121 0.36455 0.02608 0.0
H2838 H 0.04756 0.4258 0.0085 0.0
H2839 H 0.08369 0.44128 0.95259 0.0
H2840 H 0.94148 0.23678 0.95833 0.0
H2841 H 0.94716 0.27078 0.01757 0.0
H2842 H 0.9749 0.32563 0.05252 0.0
H2843 H 0.01595 0.3808 0.05116 0.0
Mn2844 Mn 0.38439 0.28257 0.55774 0.0
Mn2845 Mn 0.40728 0.28604 0.64539 0.0
C2846 C 0.3992 0.22788 0.59208 0.0
C2847 C 0.36306 0.26066 0.49894 0.0
C2848 C 0.45733 0.30552 0.59254 0.0
O2849 O 0.3526 0.32942 0.57047 0.0
O2850 O 0.39075 0.33354 0.6197 0.0
C2851 C 0.33568 0.31192 0.67435 0.0
N2852 N 0.36716 0.29139 0.67829 0.0
C2853 C 0.35537 0.28069 0.74261 0.0
C2854 C 0.32378 0.30183 0.73861 0.0
C2855 C 0.31397 0.3188 0.70521 0.0
C2856 C 0.3762 0.27523 0.71089 0.0
H2857 H 0.32521 0.32034 0.64786 0.0
C2858 C 0.36377 0.34661 0.59991 0.0
O2859 O 0.38686 0.28748 0.50155 0.0
O2860 O 0.34567 0.25289 0.52976 0.0
N2861 N 0.42284 0.24637 0.67809 0.0
C2862 C 0.45355 0.22465 0.67672 0.0
C2863 C 0.46693 0.2071 0.70898 0.0
C2864 C 0.44818 0.21102 0.74269 0.0
C2865 C 0.41638 0.23297 0.7438 0.0
C2866 C 0.40522 0.25096 0.71087 0.0
H2867 H 0.4682 0.22128 0.65099 0.0
O2868 O 0.40997 0.23556 0.55854 0.0
O2869 O 0.38169 0.2549 0.60907 0.0
O2870 O 0.43292 0.31532 0.56894 0.0
O2871 O 0.4493 0.27789 0.612 0.0
C2872 C 0.39602 0.23881 0.77665 0.0
C2873 C 0.36491 0.26234 0.77591 0.0
H2874 H 0.30357 0.29762 0.75821 0.0
H2875 H 0.28813 0.33377 0.70231 0.0
H2876 H 0.49288 0.19193 0.7083 0.0
H2877 H 0.45881 0.19757 0.76751 0.0
H2878 H 0.40387 0.22521 0.8024 0.0
H2879 H 0.34861 0.26614 0.80095 0.0
Mn2880 Mn 0.17171 0.44811 0.34563 0.0
Mn2881 Mn 0.08411 0.44465 0.32233 0.0
C2882 C 0.13755 0.50268 0.33031 0.0
C2883 C 0.23043 0.47019 0.36706 0.0
C2884 C 0.13721 0.42443 0.27277 0.0
O2885 O 0.15882 0.40154 0.3777 0.0
O2886 O 0.10957 0.39721 0.33951 0.0
C2887 C 0.0543 0.41878 0.39352 0.0
N2888 N 0.05087 0.43965 0.36221 0.0
C2889 C 0.98635 0.45015 0.37306 0.0
C2890 C 0.98982 0.42866 0.40444 0.0
C2891 C 0.02311 0.41168 0.41466 0.0
C2892 C 0.01836 0.4558 0.35276 0.0
H2893 H 0.08061 0.41019 0.40427 0.0
C2894 C 0.12943 0.38427 0.36654 0.0
O2895 O 0.22793 0.44318 0.34346 0.0
O2896 O 0.19952 0.47811 0.38424 0.0
N2897 N 0.05165 0.48446 0.30635 0.0
C2898 C 0.05335 0.50631 0.27573 0.0
C2899 C 0.02119 0.52378 0.26195 0.0
C2900 C 0.98729 0.51984 0.28033 0.0
C2901 C 0.98587 0.49795 0.31214 0.0
C2902 C 0.0187 0.48 0.32369 0.0
H2903 H 0.07918 0.50957 0.26122 0.0
O2904 O 0.17107 0.49484 0.31961 0.0
O2905 O 0.12041 0.47583 0.34793 0.0
O2906 O 0.1607 0.41492 0.2974 0.0
O2907 O 0.11775 0.45221 0.28038 0.0
C2908 C 0.95277 0.49205 0.33208 0.0
C2909 C 0.95313 0.46843 0.36313 0.0
H2910 H 0.96965 0.43237 0.42415 0.0
H2911 H 0.02566 0.39648 0.44039 0.0
H2912 H 0.02208 0.53885 0.23595 0.0
H2913 H 0.96257 0.5332 0.26938 0.0
H2914 H 0.9271 0.50559 0.32389 0.0
H2915 H 0.92786 0.46443 0.37905 0.0
Mn2916 Mn 0.28186 0.42141 0.09543 0.0
Mn2917 Mn 0.28517 0.33381 0.07191 0.0
C2918 C 0.22727 0.38733 0.08014 0.0
C2919 C 0.25982 0.48014 0.11695 0.0
C2920 C 0.30552 0.38704 0.02252 0.0
O2921 O 0.32841 0.40843 0.12742 0.0
O2922 O 0.33267 0.3591 0.08925 0.0
C2923 C 0.31114 0.30358 0.14286 0.0
N2924 N 0.29011 0.30037 0.11164 0.0
C2925 C 0.27931 0.23585 0.12234 0.0
C2926 C 0.30083 0.23913 0.1537 0.0
C2927 C 0.31804 0.2723 0.16395 0.0
C2928 C 0.27379 0.26796 0.10214 0.0
H2929 H 0.32 0.3298 0.15361 0.0
C2930 C 0.34568 0.37906 0.11619 0.0
O2931 O 0.28682 0.47765 0.09334 0.0
O2932 O 0.25188 0.44921 0.13408 0.0
N2933 N 0.24524 0.3015 0.05585 0.0
C2934 C 0.22329 0.30339 0.02532 0.0
C2935 C 0.20574 0.27132 0.01143 0.0
C2936 C 0.20962 0.23733 0.02966 0.0
C2937 C 0.23151 0.23574 0.06146 0.0
C2938 C 0.24958 0.26848 0.0731 0.0
H2939 H 0.22008 0.32929 0.01091 0.0
O2940 O 0.23515 0.42085 0.06944 0.0
O2941 O 0.25411 0.3701 0.09768 0.0
O2942 O 0.31505 0.41045 0.04721 0.0
O2943 O 0.27769 0.36762 0.03007 0.0
C2944 C 0.23727 0.20256 0.0813 0.0
C2945 C 0.26089 0.20274 0.11234 0.0
H2946 H 0.297 0.2189 0.17335 0.0
H2947 H 0.33322 0.27476 0.18967 0.0
H2948 H 0.19063 0.27232 0.98546 0.0
H2949 H 0.19619 0.21268 0.01863 0.0
H2950 H 0.22363 0.17696 0.07305 0.0
H2951 H 0.2648 0.1774 0.1282 0.0
Mn2952 Mn 0.30825 0.53179 0.84547 0.0
Mn2953 Mn 0.3958 0.53511 0.82185 0.0
C2954 C 0.34233 0.47717 0.83015 0.0
C2955 C 0.24955 0.50974 0.86702 0.0
C2956 C 0.34258 0.55543 0.77252 0.0
O2957 O 0.32128 0.57835 0.87746 0.0
O2958 O 0.37052 0.58261 0.83921 0.0
C2959 C 0.42602 0.56095 0.89284 0.0
N2960 N 0.42926 0.54004 0.86154 0.0
C2961 C 0.49379 0.52934 0.87213 0.0
C2962 C 0.49052 0.55083 0.90352 0.0
C2963 C 0.45732 0.5679 0.91388 0.0
C2964 C 0.46167 0.52378 0.85198 0.0
H2965 H 0.39979 0.56969 0.90366 0.0
C2966 C 0.35066 0.5956 0.86623 0.0
O2967 O 0.25202 0.53675 0.84341 0.0
O2968 O 0.28048 0.50181 0.88414 0.0
N2969 N 0.42811 0.49523 0.80571 0.0
C2970 C 0.42623 0.47338 0.77511 0.0
C2971 C 0.45829 0.45581 0.7612 0.0
C2972 C 0.49228 0.45969 0.77942 0.0
C2973 C 0.49389 0.48157 0.81122 0.0
C2974 C 0.46115 0.49959 0.82291 0.0
H2975 H 0.40033 0.47021 0.76069 0.0
O2976 O 0.3088 0.48504 0.8195 0.0
O2977 O 0.35956 0.50403 0.84766 0.0
O2978 O 0.31919 0.56499 0.79722 0.0
O2979 O 0.36195 0.52757 0.78007 0.0
C2980 C 0.52709 0.48738 0.83101 0.0
C2981 C 0.52692 0.51098 0.86205 0.0
H2982 H 0.51084 0.54713 0.92306 0.0
H2983 H 0.45489 0.58309 0.93961 0.0
H2984 H 0.45729 0.44072 0.73523 0.0
H2985 H 0.51692 0.44627 0.76836 0.0
H2986 H 0.55269 0.47378 0.8227 0.0
H2987 H 0.55228 0.51493 0.87787 0.0
Mn2988 Mn 0.19791 0.5585 0.59547 0.0
Mn2989 Mn 0.19463 0.64608 0.57195 0.0
C2990 C 0.25254 0.59256 0.58015 0.0
C2991 C 0.21983 0.49974 0.61697 0.0
C2992 C 0.17431 0.59285 0.52254 0.0
O2993 O 0.15137 0.57151 0.62747 0.0
O2994 O 0.1471 0.62079 0.58926 0.0
C2995 C 0.16871 0.67624 0.64294 0.0
N2996 N 0.18968 0.67949 0.61168 0.0
C2997 C 0.20035 0.74403 0.62232 0.0
C2998 C 0.17879 0.74074 0.65366 0.0
C2999 C 0.16171 0.70753 0.66397 0.0
C3000 C 0.20595 0.71192 0.60215 0.0
H3001 H 0.15996 0.65 0.65373 0.0
C3002 C 0.13411 0.60089 0.61625 0.0
O3003 O 0.19284 0.50229 0.59336 0.0
O3004 O 0.22784 0.53065 0.63411 0.0
N3005 N 0.23454 0.6784 0.55589 0.0
C3006 C 0.25649 0.67653 0.52534 0.0
C3007 C 0.27403 0.70862 0.51146 0.0
C3008 C 0.27012 0.7426 0.52969 0.0
C3009 C 0.2482 0.74418 0.56147 0.0
C3010 C 0.23016 0.71142 0.57312 0.0
H3011 H 0.2597 0.65064 0.51092 0.0
O3012 O 0.24464 0.55904 0.56947 0.0
O3013 O 0.2257 0.60979 0.59771 0.0
O3014 O 0.16474 0.56947 0.54724 0.0
O3015 O 0.20213 0.61227 0.5301 0.0
C3016 C 0.24237 0.77736 0.58128 0.0
C3017 C 0.21871 0.77717 0.61229 0.0
H3018 H 0.18247 0.76104 0.67324 0.0
H3019 H 0.14647 0.70508 0.68967 0.0
H3020 H 0.28913 0.70763 0.48549 0.0
H3021 H 0.28354 0.76726 0.51866 0.0
H3022 H 0.25597 0.80298 0.57301 0.0
H3023 H 0.21474 0.80252 0.62812 0.0
Mn3024 Mn 0.17156 0.53176 0.13441 0.0
Mn3025 Mn 0.08398 0.5351 0.15789 0.0
C3026 C 0.13746 0.47714 0.14971 0.0
C3027 C 0.23026 0.5097 0.11292 0.0
C3028 C 0.13715 0.55541 0.20732 0.0
O3029 O 0.15859 0.57833 0.10241 0.0
O3030 O 0.1093 0.58259 0.14059 0.0
C3031 C 0.05387 0.56101 0.08687 0.0
N3032 N 0.05059 0.54004 0.11813 0.0
C3033 C 0.98607 0.52939 0.10745 0.0
C3034 C 0.98937 0.55096 0.07611 0.0
C3035 C 0.02259 0.56803 0.06581 0.0
C3036 C 0.01817 0.52378 0.12763 0.0
H3037 H 0.08011 0.56978 0.07609 0.0
C3038 C 0.12921 0.59559 0.11361 0.0
O3039 O 0.22779 0.53672 0.13652 0.0
O3040 O 0.19935 0.50177 0.09575 0.0
N3041 N 0.05164 0.49522 0.17397 0.0
C3042 C 0.05346 0.47338 0.20459 0.0
C3043 C 0.02138 0.45583 0.21844 0.0
C3044 C 0.98743 0.45969 0.20015 0.0
C3045 C 0.98587 0.48157 0.16834 0.0
C3046 C 0.01864 0.49958 0.1567 0.0
H3047 H 0.07933 0.47021 0.21904 0.0
O3048 O 0.17099 0.485 0.16038 0.0
O3049 O 0.12026 0.504 0.13216 0.0
O3050 O 0.16057 0.56496 0.18265 0.0
O3051 O 0.11775 0.52758 0.19975 0.0
C3052 C 0.95271 0.4874 0.1485 0.0
C3053 C 0.95292 0.51104 0.11747 0.0
H3054 H 0.96905 0.54737 0.05654 0.0
H3055 H 0.02504 0.58332 0.04014 0.0
H3056 H 0.02235 0.44075 0.24443 0.0
H3057 H 0.96276 0.44628 0.21117 0.0
H3058 H 0.92709 0.4738 0.15676 0.0
H3059 H 0.92759 0.51501 0.10163 0.0
Mn3060 Mn 0.19794 0.42145 0.88449 0.0
Mn3061 Mn 0.19462 0.33386 0.908 0.0
C3062 C 0.25253 0.38735 0.89976 0.0
C3063 C 0.22 0.48016 0.863 0.0
C3064 C 0.17428 0.38708 0.95741 0.0
O3065 O 0.15138 0.40847 0.85249 0.0
O3066 O 0.14711 0.35917 0.89068 0.0
C3067 C 0.1687 0.3037 0.83701 0.0
N3068 N 0.18967 0.30044 0.86827 0.0
C3069 C 0.20039 0.23592 0.85758 0.0
C3070 C 0.17887 0.23922 0.82622 0.0
C3071 C 0.16175 0.27243 0.81594 0.0
C3072 C 0.20595 0.26802 0.87778 0.0
H3073 H 0.15993 0.32995 0.82623 0.0
C3074 C 0.13411 0.37909 0.8637 0.0
O3075 O 0.19298 0.47769 0.8866 0.0
O3076 O 0.22793 0.44925 0.84584 0.0
N3077 N 0.23454 0.30153 0.92405 0.0
C3078 C 0.25653 0.3034 0.95456 0.0
C3079 C 0.27409 0.27132 0.96842 0.0
C3080 C 0.27017 0.23734 0.95019 0.0
C3081 C 0.24823 0.23576 0.91843 0.0
C3082 C 0.23016 0.26851 0.90681 0.0
H3083 H 0.25975 0.32928 0.96898 0.0
O3084 O 0.24466 0.42087 0.91047 0.0
O3085 O 0.22568 0.37014 0.88222 0.0
O3086 O 0.16474 0.41049 0.93272 0.0
O3087 O 0.20211 0.36766 0.94985 0.0
C3088 C 0.24242 0.20258 0.8986 0.0
C3089 C 0.21878 0.20278 0.86759 0.0
H3090 H 0.18264 0.21898 0.8066 0.0
H3091 H 0.14655 0.2749 0.79021 0.0
H3092 H 0.28922 0.2723 -0.00562 0.0
H3093 H 0.28361 0.21268 0.9612 0.0
H3094 H 0.25606 0.17697 0.90685 0.0
H3095 H 0.21484 0.17744 0.85174 0.0
Mn3096 Mn 0.30802 0.44808 0.63431 0.0
Mn3097 Mn 0.39562 0.44464 0.65756 0.0
C3098 C 0.34218 0.50267 0.64957 0.0
C3099 C 0.24934 0.47015 0.61289 0.0
C3100 C 0.34256 0.42443 0.70717 0.0
O3101 O 0.32092 0.40148 0.60227 0.0
O3102 O 0.37016 0.39717 0.64046 0.0
C3103 C 0.42529 0.41879 0.58631 0.0
N3104 N 0.4288 0.43961 0.61764 0.0
C3105 C 0.49331 0.45005 0.6067 0.0
C3106 C 0.48976 0.42859 0.5753 0.0
C3107 C 0.45645 0.41166 0.56512 0.0
C3108 C 0.46133 0.45572 0.62705 0.0
H3109 H 0.39895 0.41025 0.57558 0.0
C3110 C 0.35031 0.3842 0.61345 0.0
O3111 O 0.25181 0.44314 0.63649 0.0
O3112 O 0.28022 0.47805 0.59567 0.0
N3113 N 0.4281 0.48445 0.67345 0.0
C3114 C 0.42643 0.50636 0.70403 0.0
C3115 C 0.45861 0.5238 0.71778 0.0
C3116 C 0.4925 0.51982 0.69938 0.0
C3117 C 0.49388 0.49788 0.66759 0.0
C3118 C 0.46103 0.47994 0.65609 0.0
H3119 H 0.40062 0.50964 0.71855 0.0
O3120 O 0.30866 0.49483 0.66029 0.0
O3121 O 0.35932 0.47581 0.63196 0.0
O3122 O 0.31905 0.41492 0.68256 0.0
O3123 O 0.36203 0.45221 0.69955 0.0
C3124 C 0.52696 0.49195 0.64762 0.0
C3125 C 0.52654 0.46831 0.61659 0.0
H3126 H 0.50986 0.43235 0.55553 0.0
H3127 H 0.45386 0.39645 0.53941 0.0
H3128 H 0.45775 0.53888 0.74376 0.0
H3129 H 0.51723 0.53317 0.71029 0.0
H3130 H 0.55264 0.50548 0.65577 0.0
H3131 H 0.5518 0.4643 0.60064 0.0
Mn3132 Mn 0.2819 0.5585 0.38444 0.0
Mn3133 Mn 0.28518 0.64608 0.40794 0.0
C3134 C 0.22726 0.59257 0.39971 0.0
C3135 C 0.25995 0.49977 0.36297 0.0
C3136 C 0.30549 0.59285 0.45737 0.0
O3137 O 0.32847 0.5715 0.35246 0.0
O3138 O 0.33273 0.6208 0.39065 0.0
C3139 C 0.31112 0.67624 0.33696 0.0
N3140 N 0.29013 0.67949 0.3682 0.0
C3141 C 0.27943 0.74402 0.35752 0.0
C3142 C 0.301 0.74073 0.32619 0.0
C3143 C 0.3181 0.70752 0.3159 0.0
C3144 C 0.27385 0.71191 0.37771 0.0
H3145 H 0.3199 0.65 0.32619 0.0
C3146 C 0.34574 0.60088 0.36369 0.0
O3147 O 0.28695 0.50229 0.38657 0.0
O3148 O 0.25197 0.53067 0.34579 0.0
N3149 N 0.24525 0.67839 0.42398 0.0
C3150 C 0.22329 0.67652 0.45451 0.0
C3151 C 0.20574 0.7086 0.46838 0.0
C3152 C 0.20965 0.74258 0.45014 0.0
C3153 C 0.23157 0.74417 0.41836 0.0
C3154 C 0.24962 0.71141 0.40674 0.0
H3155 H 0.22008 0.65063 0.46893 0.0
O3156 O 0.23515 0.55905 0.41041 0.0
O3157 O 0.25411 0.60979 0.38218 0.0
O3158 O 0.31506 0.56947 0.43268 0.0
O3159 O 0.27767 0.61227 0.44979 0.0
C3160 C 0.23739 0.77735 0.39854 0.0
C3161 C 0.26105 0.77716 0.36753 0.0
H3162 H 0.29732 0.76103 0.3066 0.0
H3163 H 0.33336 0.70507 0.29022 0.0
H3164 H 0.19064 0.70762 0.49435 0.0
H3165 H 0.19622 0.76724 0.46116 0.0
H3166 H 0.22377 0.80296 0.40679 0.0
H3167 H 0.26501 0.8025 0.35169 0.0
Mn3168 Mn 0.3456 0.17224 0.44774 0.0
Mn3169 Mn 0.32208 0.08474 0.44443 0.0
C3170 C 0.33044 0.13814 0.50252 0.0
C3171 C 0.36712 0.23103 0.46947 0.0
C3172 C 0.27253 0.13792 0.42461 0.0
O3173 O 0.37742 0.15918 0.40098 0.0
O3174 O 0.33905 0.11009 0.39678 0.0
C3175 C 0.39333 0.05504 0.41861 0.0
N3176 N 0.36189 0.05147 0.43925 0.0
C3177 C 0.37281 0.98696 0.44971 0.0
C3178 C 0.40427 -0.00947 0.42833 0.0
C3179 C 0.41454 0.02389 0.41152 0.0
C3180 C 0.35246 0.01895 0.45536 0.0
H3181 H 0.40409 0.08142 0.41018 0.0
C3182 C 0.36613 0.12981 0.38373 0.0
O3183 O 0.34342 0.22843 0.44257 0.0
O3184 O 0.38436 0.20017 0.47745 0.0
N3185 N 0.3062 0.05226 0.48423 0.0
C3186 C 0.27559 0.05396 0.50608 0.0
C3187 C 0.26191 0.02182 0.52364 0.0
C3188 C 0.28028 0.98791 0.51967 0.0
C3189 C 0.31199 0.98646 0.49763 0.0
C3190 C 0.32348 0.01929 0.47964 0.0
H3191 H 0.26109 0.0798 0.50933 0.0
O3192 O 0.31987 0.17172 0.49469 0.0
O3193 O 0.34789 0.12096 0.47557 0.0
O3194 O 0.29717 0.16129 0.41486 0.0
O3195 O 0.28029 0.11851 0.45235 0.0
C3196 C 0.3319 0.95335 0.49166 0.0
C3197 C 0.36291 0.95373 0.46798 0.0
H3198 H 0.42395 0.97035 0.43198 0.0
H3199 H 0.44029 0.02648 0.39636 0.0
H3200 H 0.23595 0.0227 0.53877 0.0
H3201 H 0.26938 0.96319 0.5331 0.0
H3202 H 0.32376 0.92767 0.50522 0.0
H3203 H 0.37886 0.92847 0.46398 0.0
Mn3204 Mn 0.84556 0.30776 0.53224 0.0
Mn3205 Mn 0.82223 0.39531 0.53562 0.0
C3206 C 0.83045 0.34192 0.4775 0.0
C3207 C 0.86708 0.24897 0.51048 0.0
C3208 C 0.77252 0.34223 0.55538 0.0
O3209 O 0.8774 0.32073 0.579 0.0
O3210 O 0.83908 0.36985 0.58322 0.0
C3211 C 0.89361 0.42476 0.56142 0.0
N3212 N 0.86214 0.42846 0.54083 0.0
C3213 C 0.87331 0.49293 0.53035 0.0
C3214 C 0.90482 0.48921 0.55164 0.0
C3215 C 0.91497 0.45583 0.56847 0.0
C3216 C 0.85282 0.46103 0.52475 0.0
H3217 H 0.9043 0.39834 0.56979 0.0
C3218 C 0.86616 0.35012 0.59624 0.0
O3219 O 0.84333 0.25156 0.53734 0.0
O3220 O 0.88433 0.27983 0.50253 0.0
N3221 N 0.80645 0.42788 0.49586 0.0
C3222 C 0.77585 0.42628 0.47398 0.0
C3223 C 0.76226 0.45848 0.45643 0.0
C3224 C 0.78074 0.49233 0.46042 0.0
C3225 C 0.81245 0.49367 0.48247 0.0
C3226 C 0.82382 0.4608 0.50047 0.0
H3227 H 0.76129 0.40049 0.47068 0.0
O3228 O 0.81984 0.30835 0.48529 0.0
O3229 O 0.84793 0.35905 0.50446 0.0
O3230 O 0.7971 0.31878 0.5651 0.0
O3231 O 0.78034 0.36168 0.52767 0.0
C3232 C 0.8325 0.52669 0.48842 0.0
C3233 C 0.86353 0.52619 0.51207 0.0
H3234 H 0.92467 0.50921 0.5478 0.0
H3235 H 0.94075 0.45313 0.58354 0.0
H3236 H 0.73631 0.45766 0.44129 0.0
H3237 H 0.76994 0.51708 0.44699 0.0
H3238 H 0.82446 0.55239 0.47485 0.0
H3239 H 0.87958 0.55139 0.51602 0.0
Mn3240 Mn 0.42225 0.09572 0.28215 0.0
Mn3241 Mn 0.33477 0.0723 0.28541 0.0
C3242 C 0.3882 0.08058 0.22733 0.0
C3243 C 0.48105 0.11728 0.26053 0.0
C3244 C 0.38783 0.02264 0.30514 0.0
O3245 O 0.40916 0.1275 0.32894 0.0
O3246 O 0.36012 0.08911 0.33309 0.0
C3247 C 0.30533 0.14368 0.3112 0.0
N3248 N 0.30162 0.11219 0.29065 0.0
C3249 C 0.23714 0.12324 0.28032 0.0
C3250 C 0.24084 0.15473 0.30163 0.0
C3251 C 0.27424 0.16497 0.31835 0.0
C3252 C 0.26905 0.10281 0.27463 0.0
H3253 H 0.33175 0.15441 0.31948 0.0
C3254 C 0.37979 0.11619 0.34617 0.0
O3255 O 0.47841 0.09352 0.28738 0.0
O3256 O 0.4502 0.13453 0.25253 0.0
N3257 N 0.30224 0.05653 0.24565 0.0
C3258 C 0.30386 0.02591 0.22381 0.0
C3259 C 0.27168 0.01229 0.20628 0.0
C3260 C 0.23781 0.03072 0.2103 0.0
C3261 C 0.23643 0.06241 0.23238 0.0
C3262 C 0.2693 0.07383 0.25032 0.0
H3263 H 0.32967 0.01137 0.22051 0.0
O3264 O 0.42177 0.07002 0.23517 0.0
O3265 O 0.37101 0.09805 0.25427 0.0
O3266 O 0.41123 0.04723 0.31493 0.0
O3267 O 0.36844 0.03046 0.27741 0.0
C3268 C 0.20338 0.08239 0.23842 0.0
C3269 C 0.20386 0.1134 0.2621 0.0
H3270 H 0.22077 0.17451 0.29791 0.0
H3271 H 0.2769 0.19073 0.33347 0.0
H3272 H 0.27251 0.98632 0.19115 0.0
H3273 H 0.21306 0.01988 0.1969 0.0
H3274 H 0.17767 0.07431 0.22489 0.0
H3275 H 0.17864 0.1294 0.26613 0.0
Mn3276 Mn 0.63412 0.6725 0.03202 0.0
Mn3277 Mn 0.65723 0.58494 0.03551 0.0
C3278 C 0.64925 0.6383 0.97729 0.0
C3279 C 0.61264 0.73126 0.01016 0.0
C3280 C 0.7071 0.63785 0.05516 0.0
O3281 O 0.60225 0.6596 0.07883 0.0
O3282 O 0.64057 0.61052 0.08306 0.0
C3283 C 0.58567 0.55592 0.0613 0.0
N3284 N 0.61716 0.55201 0.0408 0.0
C3285 C 0.60583 0.48753 0.03067 0.0
C3286 C 0.57433 0.49146 0.05196 0.0
C3287 C 0.56426 0.52495 0.06859 0.0
C3288 C 0.62641 0.51934 0.0249 0.0
H3289 H 0.57501 0.58243 0.06944 0.0
C3290 C 0.61349 0.63022 0.09608 0.0
O3291 O 0.63638 0.72871 0.03703 0.0
O3292 O 0.59536 0.7004 0.00229 0.0
N3293 N 0.67288 0.55224 -0.00415 0.0
C3294 C 0.70354 0.55366 0.97406 0.0
C3295 C 0.71702 0.52138 0.95661 0.0
C3296 C 0.6984 0.48761 0.96067 0.0
C3297 C 0.66668 0.48643 0.98274 0.0
C3298 C 0.65541 0.51939 0.0006 0.0
H3299 H 0.71819 0.57939 0.9707 0.0
O3300 O 0.65986 0.67187 0.98507 0.0
O3301 O 0.6317 0.62122 0.00425 0.0
O3302 O 0.6826 0.66141 0.06485 0.0
O3303 O 0.69923 0.61838 0.02748 0.0
C3304 C 0.64654 0.45349 0.98885 0.0
C3305 C 0.61552 0.45417 0.01252 0.0
H3306 H 0.55438 0.47155 0.04824 0.0
H3307 H 0.53852 0.52774 0.08375 0.0
H3308 H 0.74299 0.52209 0.94149 0.0
H3309 H 0.70912 0.46278 0.94731 0.0
H3310 H 0.6545 0.4277 0.97538 0.0
H3311 H 0.59941 0.42903 0.01658 0.0
Mn3312 Mn 0.55762 0.38436 0.28205 0.0
Mn3313 Mn 0.64517 0.40769 0.2854 0.0
C3314 C 0.59177 0.39945 0.22729 0.0
C3315 C 0.49885 0.36283 0.26024 0.0
C3316 C 0.59214 0.45739 0.30516 0.0
O3317 O 0.57061 0.35256 0.32885 0.0
O3318 O 0.61975 0.39087 0.33301 0.0
C3319 C 0.67462 0.33634 0.31127 0.0
N3320 N 0.6783 0.36777 0.29063 0.0
C3321 C 0.74277 0.35664 0.28021 0.0
C3322 C 0.73908 0.32518 0.30159 0.0
C3323 C 0.7057 0.31502 0.31839 0.0
C3324 C 0.71086 0.3771 0.27454 0.0
H3325 H 0.64821 0.32566 0.31967 0.0
C3326 C 0.59999 0.36384 0.34609 0.0
O3327 O 0.50142 0.38658 0.2871 0.0
O3328 O 0.52971 0.34557 0.25234 0.0
N3329 N 0.67771 0.42346 0.24563 0.0
C3330 C 0.67612 0.4541 0.2238 0.0
C3331 C 0.70831 0.46769 0.20625 0.0
C3332 C 0.74215 0.44919 0.21022 0.0
C3333 C 0.74349 0.41747 0.23227 0.0
C3334 C 0.71063 0.40609 0.25024 0.0
H3335 H 0.65033 0.46867 0.22052 0.0
O3336 O 0.5582 0.41005 0.23508 0.0
O3337 O 0.6089 0.38198 0.25426 0.0
O3338 O 0.56867 0.43283 0.31489 0.0
O3339 O 0.61155 0.44958 0.27743 0.0
C3340 C 0.77652 0.39744 0.23826 0.0
C3341 C 0.77603 0.36643 0.26194 0.0
H3342 H 0.75914 0.30537 0.29789 0.0
H3343 H 0.70302 0.28926 0.33354 0.0
H3344 H 0.70749 0.49365 0.19112 0.0
H3345 H 0.7669 0.46001 0.1968 0.0
H3346 H 0.80223 0.40549 0.2247 0.0
H3347 H 0.80124 0.3504 0.26595 0.0
Mn3348 Mn 0.13411 0.8075 0.94777 0.0
Mn3349 Mn 0.15744 0.89502 0.94437 0.0
C3350 C 0.14933 0.84162 0.00252 0.0
C3351 C 0.11262 0.74872 0.96957 0.0
C3352 C 0.20711 0.84196 0.92456 0.0
O3353 O 0.1022 0.82052 0.90104 0.0
O3354 O 0.14056 0.86957 0.89678 0.0
C3355 C 0.08598 0.92438 0.91871 0.0
N3356 N 0.1175 0.92813 0.93919 0.0
C3357 C 0.10639 -0.00738 0.94951 0.0
C3358 C 0.07485 0.98886 0.92828 0.0
C3359 C 0.06464 0.95545 0.91158 0.0
C3360 C 0.12688 0.96073 0.95516 0.0
H3361 H 0.07525 0.89794 0.91047 0.0
C3362 C 0.11344 0.8499 0.88378 0.0
O3363 O 0.13631 0.75131 0.94266 0.0
O3364 O 0.09538 0.77958 0.97754 0.0
N3365 N 0.17325 0.9276 0.98408 0.0
C3366 C 0.20388 0.92602 0.00591 0.0
C3367 C 0.2175 0.95824 0.02339 0.0
C3368 C 0.19903 -0.00791 0.01936 0.0
C3369 C 0.16731 -0.00658 -0.00267 0.0
C3370 C 0.1559 0.96053 0.97942 0.0
H3371 H 0.21844 0.90023 0.00922 0.0
O3372 O 0.15991 0.80805 -0.00531 0.0
O3373 O 0.1318 0.85877 0.97559 0.0
O3374 O 0.18252 0.81852 0.91486 0.0
O3375 O 0.19934 0.86141 0.95228 0.0
C3376 C 0.14728 0.02645 -0.00868 0.0
C3377 C 0.11622 0.02592 0.9677 0.0
H3378 H 0.05501 0.00886 0.9321 0.0
H3379 H 0.03885 0.95275 0.8965 0.0
H3380 H 0.24348 0.95743 0.03848 0.0
H3381 H 0.20987 0.01686 0.03274 0.0
H3382 H 0.15535 0.05217 0.00482 0.0
H3383 H 0.10018 0.05112 0.96371 0.0
Mn3384 Mn 0.42236 0.88425 0.19752 0.0
Mn3385 Mn 0.33485 0.90756 0.19414 0.0
C3386 C 0.38819 0.89933 0.25231 0.0
C3387 C 0.48116 0.86277 0.21921 0.0
C3388 C 0.38791 0.95731 0.1745 0.0
O3389 O 0.40937 0.85243 0.15072 0.0
O3390 O 0.36033 0.89081 0.14652 0.0
C3391 C 0.30561 0.83605 0.16842 0.0
N3392 N 0.30179 0.86759 0.18887 0.0
C3393 C 0.23735 0.85631 0.19924 0.0
C3394 C 0.24119 0.82474 0.17804 0.0
C3395 C 0.27462 0.81462 0.16133 0.0
C3396 C 0.26918 0.87688 0.20487 0.0
H3397 H 0.33208 0.82537 0.16019 0.0
C3398 C 0.37999 0.8637 0.13349 0.0
O3399 O 0.47852 0.88652 0.19235 0.0
O3400 O 0.45033 0.84547 0.22717 0.0
N3401 N 0.30223 0.92327 0.23385 0.0
C3402 C 0.30375 0.95389 0.2557 0.0
C3403 C 0.27153 0.96744 0.27321 0.0
C3404 C 0.23771 0.94891 0.26918 0.0
C3405 C 0.23644 0.9172 0.2471 0.0
C3406 C 0.26934 0.90588 0.22916 0.0
H3407 H 0.32952 0.96849 0.25903 0.0
O3408 O 0.42177 0.90992 0.24453 0.0
O3409 O 0.37108 0.88185 0.22533 0.0
O3410 O 0.41135 0.93274 0.16474 0.0
O3411 O 0.36845 0.94946 0.20218 0.0
C3412 C 0.20346 0.8971 0.24109 0.0
C3413 C 0.20404 0.86606 0.21747 0.0
H3414 H 0.22127 0.80482 0.18192 0.0
H3415 H 0.27737 0.78881 0.14628 0.0
H3416 H 0.2723 -0.0066 0.28834 0.0
H3417 H 0.21294 0.95968 0.28258 0.0
H3418 H 0.17773 0.90511 0.25463 0.0
H3419 H 0.17889 0.84995 0.2135 0.0
Mn3420 Mn 0.05742 0.09577 0.6978 0.0
Mn3421 Mn 0.14493 0.07248 0.69443 0.0
C3422 C 0.09153 0.08062 0.75258 0.0
C3423 C -0.00137 0.11727 0.71952 0.0
C3424 C 0.09193 0.02274 0.67476 0.0
O3425 O 0.07043 0.12759 0.651 0.0
O3426 O 0.11947 0.08922 0.64681 0.0
C3427 C 0.17417 0.14395 0.66863 0.0
N3428 N 0.17797 0.11246 0.68916 0.0
C3429 C 0.24245 0.12362 0.69938 0.0
C3430 C 0.23865 0.15511 0.67805 0.0
C3431 C 0.20521 0.16528 0.66139 0.0
C3432 C 0.21059 0.10313 0.70512 0.0
H3433 H 0.14771 0.15465 0.66042 0.0
C3434 C 0.0998 0.11631 0.63376 0.0
O3435 O 0.00124 0.09354 0.69265 0.0
O3436 O 0.02947 0.13455 0.72747 0.0
N3437 N 0.17754 0.05676 0.73414 0.0
C3438 C 0.17602 0.02609 0.75593 0.0
C3439 C 0.20825 0.01252 0.7734 0.0
C3440 C 0.24207 0.03105 0.76937 0.0
C3441 C 0.24335 0.06277 0.74731 0.0
C3442 C 0.21043 0.07414 0.72943 0.0
H3443 H 0.15025 0.0115 0.75925 0.0
O3444 O 0.05796 0.07005 0.74477 0.0
O3445 O 0.10867 0.09813 0.72563 0.0
O3446 O 0.06846 0.04729 0.665 0.0
O3447 O 0.11136 0.03057 0.70246 0.0
C3448 C 0.27635 0.08282 0.74123 0.0
C3449 C 0.27577 0.11384 0.71755 0.0
H3450 H 0.25868 0.17495 0.68171 0.0
H3451 H 0.2025 0.19103 0.64623 0.0
H3452 H 0.20747 0.98654 0.78851 0.0
H3453 H 0.26685 0.02025 0.78273 0.0
H3454 H 0.30209 0.07478 0.75471 0.0
H3455 H 0.30096 0.12988 0.71349 0.0
loop_
_geom_bond_atom_site_label_1
_geom_bond_atom_site_label_2
_geom_bond_distance
_geom_bond_site_symmetry_2
_ccdc_geom_bond_type
Mn0 O5 2.095 . S
Mn0 O15 2.162 . S
Mn0 O16 2.297 . S
Mn0 O24 2.385 1_455 S
Mn0 O25 2.209 . S
Mn0 O26 2.094 . S
Mn1 O6 2.121 . S
Mn1 N8 2.257 . S
Mn1 N17 2.282 . S
Mn1 O25 2.215 . S
Mn1 O27 2.117 . S
C2 O24 1.234 . S
C2 O25 1.283 1_655 S
C3 O15 1.281 . S
C3 O16 1.236 . S
C4 O26 1.240 . S
C4 O27 1.264 . S
O5 Mn0 2.095 . S
O5 C14 1.250 . S
O6 Mn1 2.121 . S
O6 C14 1.258 . S
C7 N8 1.326 . S
C7 C11 1.460 . S
C7 H13 0.929 . S
N8 Mn1 2.257 . S
N8 C7 1.326 . S
N8 C12 1.362 . S
C9 C10 1.258 . S
C9 C12 1.431 . S
C9 C29 1.449 1_455 S
C10 C9 1.258 . S
C10 C11 1.477 . S
C10 H30 0.931 . S
C11 C7 1.460 . S
C11 C10 1.477 . S
C11 H31 0.930 . S
C12 N8 1.362 . S
C12 C9 1.431 . S
C12 C22 1.476 . S
H13 C7 0.929 . S
C14 O5 1.250 . S
C14 O6 1.258 . S
O15 Mn0 2.162 . S
O15 C3 1.281 . S
O16 Mn0 2.297 . S
O16 C3 1.236 . S
N17 Mn1 2.282 . S
N17 C18 1.328 . S
N17 C22 1.318 . S
C18 N17 1.328 . S
C18 C19 1.457 1_455 S
C18 H23 0.929 . S
C19 C18 1.457 1_655 S
C19 C20 1.291 . S
C19 H32 0.931 . S
C20 C19 1.291 . S
C20 C21 1.373 . S
C20 H33 0.929 . S
C21 C20 1.373 . S
C21 C22 1.396 1_655 S
C21 C28 1.403 . S
C22 C12 1.476 . S
C22 N17 1.318 . S
C22 C21 1.396 1_455 S
H23 C18 0.929 . S
O24 Mn0 2.385 1_655 S
O24 C2 1.234 . S
O25 Mn0 2.209 . S
O25 Mn1 2.215 . S
O25 C2 1.283 1_455 S
O26 Mn0 2.094 . S
O26 C4 1.240 . S
O27 Mn1 2.117 . S
O27 C4 1.264 . S
C28 C21 1.403 . S
C28 C29 1.399 . S
C28 H34 0.929 . S
C29 C9 1.449 1_655 S
C29 C28 1.399 . S
C29 H35 0.930 . S
H30 C10 0.931 . S
H31 C11 0.930 . S
H32 C19 0.931 . S
H33 C20 0.929 . S
H34 C28 0.929 . S
H35 C29 0.930 . S
Mn36 O41 2.095 . S
Mn36 O51 2.162 . S
Mn36 O52 2.297 . S
Mn36 O60 2.385 . S
Mn36 O61 2.209 . S
Mn36 O62 2.094 . S
Mn37 O42 2.121 . S
Mn37 N44 2.257 . S
Mn37 N53 2.282 . S
Mn37 O61 2.215 . S
Mn37 O63 2.117 . S
C38 O60 1.234 . S
C38 O61 1.283 . S
C39 O51 1.281 . S
C39 O52 1.236 . S
C40 O62 1.240 . S
C40 O63 1.264 . S
O41 Mn36 2.095 . S
O41 C50 1.250 . S
O42 Mn37 2.121 . S
O42 C50 1.258 . S
C43 N44 1.326 . S
C43 C47 1.460 . S
C43 H49 0.929 . S
N44 Mn37 2.257 . S
N44 C43 1.326 . S
N44 C48 1.362 . S
C45 C46 1.258 . S
C45 C48 1.431 . S
C45 C65 1.449 . S
C46 C45 1.258 . S
C46 C47 1.477 . S
C46 H66 0.931 . S
C47 C43 1.460 . S
C47 C46 1.477 . S
C47 H67 0.930 . S
C48 N44 1.362 . S
C48 C45 1.431 . S
C48 C58 1.476 . S
H49 C43 0.929 . S
C50 O41 1.250 . S
C50 O42 1.258 . S
O51 Mn36 2.162 . S
O51 C39 1.281 . S
O52 Mn36 2.297 . S
O52 C39 1.236 . S
N53 Mn37 2.282 . S
N53 C54 1.328 . S
N53 C58 1.318 . S
C54 N53 1.328 . S
C54 C55 1.457 1_455 S
C54 H59 0.938 . S
C55 C54 1.457 1_655 S
C55 C56 1.291 1_655 S
C55 H68 0.931 . S
C56 C55 1.291 1_455 S
C56 C57 1.373 . S
C56 H69 0.929 1_455 S
C57 C56 1.373 . S
C57 C58 1.396 . S
C57 C64 1.403 . S
C58 C48 1.476 . S
C58 N53 1.318 . S
C58 C57 1.396 . S
H59 C54 0.938 . S
O60 Mn36 2.385 . S
O60 C38 1.234 . S
O61 Mn36 2.209 . S
O61 Mn37 2.215 . S
O61 C38 1.283 . S
O62 Mn36 2.094 . S
O62 C40 1.240 . S
O63 Mn37 2.117 . S
O63 C40 1.264 . S
C64 C57 1.403 . S
C64 C65 1.399 . S
C64 H70 0.929 . S
C65 C45 1.449 . S
C65 C64 1.399 . S
C65 H71 0.930 . S
H66 C46 0.931 . S
H67 C47 0.930 . S
H68 C55 0.931 . S
H69 C56 0.929 1_655 S
H70 C64 0.929 . S
H71 C65 0.930 . S
Mn72 O77 2.095 . S
Mn72 O87 2.162 . S
Mn72 O88 2.297 . S
Mn72 O96 2.385 . S
Mn72 O97 2.209 . S
Mn72 O98 2.094 . S
Mn73 O78 2.121 . S
Mn73 N80 2.257 . S
Mn73 N89 2.282 . S
Mn73 O97 2.215 . S
Mn73 O99 2.117 . S
C74 O96 1.234 . S
C74 O97 1.283 . S
C75 O87 1.281 . S
C75 O88 1.236 . S
C76 O98 1.240 . S
C76 O99 1.264 . S
O77 Mn72 2.095 . S
O77 C86 1.250 . S
O78 Mn73 2.121 . S
O78 C86 1.258 . S
C79 N80 1.326 . S
C79 C83 1.460 . S
C79 H85 0.929 . S
N80 Mn73 2.257 . S
N80 C79 1.326 . S
N80 C84 1.362 . S
C81 C82 1.258 . S
C81 C84 1.431 1_554 S
C81 C101 1.449 . S
C82 C81 1.258 . S
C82 C83 1.477 1_554 S
C82 H102 0.931 . S
C83 C79 1.460 . S
C83 C82 1.477 1_556 S
C83 H103 0.930 . S
C84 N80 1.362 . S
C84 C81 1.431 1_556 S
C84 C94 1.476 . S
H85 C79 0.929 . S
C86 O77 1.250 . S
C86 O78 1.258 . S
O87 Mn72 2.162 . S
O87 C75 1.281 . S
O88 Mn72 2.297 . S
O88 C75 1.236 . S
N89 Mn73 2.282 . S
N89 C90 1.328 . S
N89 C94 1.318 . S
C90 N89 1.328 . S
C90 C91 1.457 . S
C90 H95 0.929 . S
C91 C90 1.457 . S
C91 C92 1.291 . S
C91 H104 0.931 . S
C92 C91 1.291 . S
C92 C93 1.373 . S
C92 H105 0.929 . S
C93 C92 1.373 . S
C93 C94 1.396 . S
C93 C100 1.403 1_556 S
C94 C84 1.476 . S
C94 N89 1.318 . S
C94 C93 1.396 . S
H95 C90 0.929 . S
O96 Mn72 2.385 . S
O96 C74 1.234 . S
O97 Mn72 2.209 . S
O97 Mn73 2.215 . S
O97 C74 1.283 . S
O98 Mn72 2.094 . S
O98 C76 1.240 . S
O99 Mn73 2.117 . S
O99 C76 1.264 . S
C100 C93 1.403 1_554 S
C100 C101 1.399 . S
C100 H106 0.929 . S
C101 C81 1.449 . S
C101 C100 1.399 . S
C101 H107 0.930 . S
H102 C82 0.931 . S
H103 C83 0.930 . S
H104 C91 0.931 . S
H105 C92 0.929 . S
H106 C100 0.929 . S
H107 C101 0.930 . S
Mn108 O113 2.095 . S
Mn108 O123 2.162 . S
Mn108 O124 2.297 . S
Mn108 O132 2.385 . S
Mn108 O133 2.209 . S
Mn108 O134 2.094 . S
Mn109 O114 2.121 . S
Mn109 N116 2.257 . S
Mn109 N125 2.282 . S
Mn109 O133 2.215 . S
Mn109 O135 2.117 . S
C110 O132 1.234 . S
C110 O133 1.283 . S
C111 O123 1.281 . S
C111 O124 1.236 . S
C112 O134 1.240 . S
C112 O135 1.264 . S
O113 Mn108 2.095 . S
O113 C122 1.250 . S
O114 Mn109 2.121 . S
O114 C122 1.258 . S
C115 N116 1.326 . S
C115 C119 1.460 . S
C115 H121 0.929 . S
N116 Mn109 2.257 . S
N116 C115 1.326 . S
N116 C120 1.362 . S
C117 C118 1.258 . S
C117 C120 1.431 . S
C117 C137 1.449 . S
C118 C117 1.258 . S
C118 C119 1.477 . S
C118 H138 0.931 . S
C119 C115 1.460 . S
C119 C118 1.477 . S
C119 H139 0.930 . S
C120 N116 1.362 . S
C120 C117 1.431 . S
C120 C130 1.476 . S
H121 C115 0.929 . S
C122 O113 1.250 . S
C122 O114 1.258 . S
O123 Mn108 2.162 . S
O123 C111 1.281 . S
O124 Mn108 2.297 . S
O124 C111 1.236 . S
N125 Mn109 2.282 . S
N125 C126 1.328 . S
N125 C130 1.318 . S
C126 N125 1.328 . S
C126 C127 1.457 . S
C126 H131 0.929 . S
C127 C126 1.457 . S
C127 C128 1.291 . S
C127 H140 0.931 . S
C128 C127 1.291 . S
C128 C129 1.373 . S
C128 H141 0.929 . S
C129 C128 1.373 . S
C129 C130 1.396 . S
C129 C136 1.403 . S
C130 C120 1.476 . S
C130 N125 1.318 . S
C130 C129 1.396 . S
H131 C126 0.929 . S
O132 Mn108 2.385 . S
O132 C110 1.234 . S
O133 Mn108 2.209 . S
O133 Mn109 2.215 . S
O133 C110 1.283 . S
O134 Mn108 2.094 . S
O134 C112 1.240 . S
O135 Mn109 2.117 . S
O135 C112 1.264 . S
C136 C129 1.403 . S
C136 C137 1.399 . S
C136 H142 0.929 . S
C137 C117 1.449 . S
C137 C136 1.399 . S
C137 H143 0.930 . S
H138 C118 0.931 . S
H139 C119 0.930 . S
H140 C127 0.931 . S
H141 C128 0.929 . S
H142 C136 0.929 . S
H143 C137 0.930 . S
Mn144 O149 2.095 . S
Mn144 O159 2.162 . S
Mn144 O160 2.297 . S
Mn144 O168 2.385 1_455 S
Mn144 O169 2.209 . S
Mn144 O170 2.094 . S
Mn145 O150 2.121 . S
Mn145 N152 2.257 . S
Mn145 N161 2.282 . S
Mn145 O169 2.215 . S
Mn145 O171 2.117 . S
C146 O168 1.234 . S
C146 O169 1.283 1_655 S
C147 O159 1.281 . S
C147 O160 1.236 . S
C148 O170 1.240 . S
C148 O171 1.264 . S
O149 Mn144 2.095 . S
O149 C158 1.250 . S
O150 Mn145 2.121 . S
O150 C158 1.258 . S
C151 N152 1.326 . S
C151 C155 1.460 . S
C151 H157 0.929 . S
N152 Mn145 2.257 . S
N152 C151 1.326 . S
N152 C156 1.362 . S
C153 C154 1.258 . S
C153 C156 1.431 1_556 S
C153 C173 1.449 1_455 S
C154 C153 1.258 . S
C154 C155 1.477 1_556 S
C154 H174 0.931 . S
C155 C151 1.460 . S
C155 C154 1.477 1_554 S
C155 H175 0.930 . S
C156 N152 1.362 . S
C156 C153 1.431 1_554 S
C156 C166 1.476 . S
H157 C151 0.929 . S
C158 O149 1.250 . S
C158 O150 1.258 . S
O159 Mn144 2.162 . S
O159 C147 1.281 . S
O160 Mn144 2.297 . S
O160 C147 1.236 . S
N161 Mn145 2.282 . S
N161 C162 1.328 . S
N161 C166 1.318 . S
C162 N161 1.328 . S
C162 C163 1.457 1_455 S
C162 H167 0.929 . S
C163 C162 1.457 1_655 S
C163 C164 1.291 . S
C163 H176 0.931 . S
C164 C163 1.291 . S
C164 C165 1.373 . S
C164 H177 0.929 . S
C165 C164 1.373 . S
C165 C166 1.396 1_655 S
C165 C172 1.403 1_554 S
C166 C156 1.476 . S
C166 N161 1.318 . S
C166 C165 1.396 1_455 S
H167 C162 0.929 . S
O168 Mn144 2.385 1_655 S
O168 C146 1.234 . S
O169 Mn144 2.209 . S
O169 Mn145 2.215 . S
O169 C146 1.283 1_455 S
O170 Mn144 2.094 . S
O170 C148 1.240 . S
O171 Mn145 2.117 . S
O171 C148 1.264 . S
C172 C165 1.403 1_556 S
C172 C173 1.399 . S
C172 H178 0.929 . S
C173 C153 1.449 1_655 S
C173 C172 1.399 . S
C173 H179 0.930 . S
H174 C154 0.931 . S
H175 C155 0.930 . S
H176 C163 0.931 . S
H177 C164 0.929 . S
H178 C172 0.929 . S
H179 C173 0.930 . S
Mn180 O185 2.095 . S
Mn180 O195 2.162 . S
Mn180 O196 2.297 . S
Mn180 O204 2.385 . S
Mn180 O205 2.209 . S
Mn180 O206 2.094 . S
Mn181 O186 2.121 . S
Mn181 N188 2.257 . S
Mn181 N197 2.282 . S
Mn181 O205 2.215 . S
Mn181 O207 2.117 . S
C182 O204 1.234 . S
C182 O205 1.283 . S
C183 O195 1.281 . S
C183 O196 1.236 . S
C184 O206 1.240 . S
C184 O207 1.264 . S
O185 Mn180 2.095 . S
O185 C194 1.250 . S
O186 Mn181 2.121 . S
O186 C194 1.258 . S
C187 N188 1.326 . S
C187 C191 1.460 . S
C187 H193 0.929 . S
N188 Mn181 2.257 . S
N188 C187 1.326 . S
N188 C192 1.362 . S
C189 C190 1.258 . S
C189 C192 1.431 . S
C189 C209 1.449 . S
C190 C189 1.258 . S
C190 C191 1.477 . S
C190 H210 0.931 . S
C191 C187 1.460 . S
C191 C190 1.477 . S
C191 H211 0.930 . S
C192 N188 1.362 . S
C192 C189 1.431 . S
C192 C202 1.476 . S
H193 C187 0.929 . S
C194 O185 1.250 . S
C194 O186 1.258 . S
O195 Mn180 2.162 . S
O195 C183 1.281 . S
O196 Mn180 2.297 . S
O196 C183 1.236 . S
N197 Mn181 2.282 . S
N197 C198 1.328 . S
N197 C202 1.318 . S
C198 N197 1.328 . S
C198 C199 1.457 . S
C198 H203 0.929 . S
C199 C198 1.457 . S
C199 C200 1.291 . S
C199 H212 0.931 . S
C200 C199 1.291 . S
C200 C201 1.373 . S
C200 H213 0.929 . S
C201 C200 1.373 . S
C201 C202 1.396 . S
C201 C208 1.403 . S
C202 C192 1.476 . S
C202 N197 1.318 . S
C202 C201 1.396 . S
H203 C198 0.929 . S
O204 Mn180 2.385 . S
O204 C182 1.234 . S
O205 Mn180 2.209 . S
O205 Mn181 2.215 . S
O205 C182 1.283 . S
O206 Mn180 2.094 . S
O206 C184 1.240 . S
O207 Mn181 2.117 . S
O207 C184 1.264 . S
C208 C201 1.403 . S
C208 C209 1.399 . S
C208 H214 0.929 . S
C209 C189 1.449 . S
C209 C208 1.399 . S
C209 H215 0.930 . S
H210 C190 0.931 . S
H211 C191 0.930 . S
H212 C199 0.931 . S
H213 C200 0.929 . S
H214 C208 0.929 . S
H215 C209 0.930 . S
Mn216 O221 2.095 . S
Mn216 O231 2.162 . S
Mn216 O232 2.297 . S
Mn216 O240 2.385 . S
Mn216 O241 2.209 . S
Mn216 O242 2.094 . S
Mn217 O222 2.121 . S
Mn217 N224 2.257 . S
Mn217 N233 2.282 . S
Mn217 O241 2.215 . S
Mn217 O243 2.117 . S
C218 O240 1.234 . S
C218 O241 1.283 . S
C219 O231 1.281 . S
C219 O232 1.236 . S
C220 O242 1.240 . S
C220 O243 1.264 . S
O221 Mn216 2.095 . S
O221 C230 1.250 . S
O222 Mn217 2.121 . S
O222 C230 1.258 . S
C223 N224 1.326 . S
C223 C227 1.460 . S
C223 H229 0.929 . S
N224 Mn217 2.257 . S
N224 C223 1.326 . S
N224 C228 1.362 . S
C225 C226 1.258 . S
C225 C228 1.431 . S
C225 C245 1.449 . S
C226 C225 1.258 . S
C226 C227 1.477 . S
C226 H246 0.931 . S
C227 C223 1.460 . S
C227 C226 1.477 . S
C227 H247 0.930 . S
C228 N224 1.362 . S
C228 C225 1.431 . S
C228 C238 1.476 . S
H229 C223 0.929 . S
C230 O221 1.250 . S
C230 O222 1.258 . S
O231 Mn216 2.162 . S
O231 C219 1.281 . S
O232 Mn216 2.297 . S
O232 C219 1.236 . S
N233 Mn217 2.282 . S
N233 C234 1.328 . S
N233 C238 1.318 . S
C234 N233 1.328 . S
C234 C235 1.457 . S
C234 H239 0.929 . S
C235 C234 1.457 . S
C235 C236 1.291 . S
C235 H248 0.931 . S
C236 C235 1.291 . S
C236 C237 1.373 . S
C236 H249 0.929 . S
C237 C236 1.373 . S
C237 C238 1.396 . S
C237 C244 1.403 . S
C238 C228 1.476 . S
C238 N233 1.318 . S
C238 C237 1.396 . S
H239 C234 0.929 . S
O240 Mn216 2.385 . S
O240 C218 1.234 . S
O241 Mn216 2.209 . S
O241 Mn217 2.215 . S
O241 C218 1.283 . S
O242 Mn216 2.094 . S
O242 C220 1.240 . S
O243 Mn217 2.117 . S
O243 C220 1.264 . S
C244 C237 1.403 . S
C244 C245 1.399 . S
C244 H250 0.929 . S
C245 C225 1.449 . S
C245 C244 1.399 . S
C245 H251 0.930 . S
H246 C226 0.931 . S
H247 C227 0.930 . S
H248 C235 0.931 . S
H249 C236 0.929 . S
H250 C244 0.929 . S
H251 C245 0.930 . S
Mn252 O257 2.095 . S
Mn252 O267 2.162 . S
Mn252 O268 2.297 . S
Mn252 O276 2.385 . S
Mn252 O277 2.209 . S
Mn252 O278 2.094 . S
Mn253 O258 2.121 . S
Mn253 N260 2.257 . S
Mn253 N269 2.282 . S
Mn253 O277 2.215 . S
Mn253 O279 2.117 . S
C254 O276 1.234 . S
C254 O277 1.283 . S
C255 O267 1.281 . S
C255 O268 1.236 . S
C256 O278 1.240 . S
C256 O279 1.264 . S
O257 Mn252 2.095 . S
O257 C266 1.250 . S
O258 Mn253 2.121 . S
O258 C266 1.258 . S
C259 N260 1.326 . S
C259 C263 1.460 . S
C259 H265 0.929 . S
N260 Mn253 2.257 . S
N260 C259 1.326 . S
N260 C264 1.362 . S
C261 C262 1.258 . S
C261 C264 1.431 . S
C261 C281 1.449 . S
C262 C261 1.258 . S
C262 C263 1.477 . S
C262 H282 0.931 . S
C263 C259 1.460 . S
C263 C262 1.477 . S
C263 H283 0.930 . S
C264 N260 1.362 . S
C264 C261 1.431 . S
C264 C274 1.476 . S
H265 C259 0.929 . S
C266 O257 1.250 . S
C266 O258 1.258 . S
O267 Mn252 2.162 . S
O267 C255 1.281 . S
O268 Mn252 2.297 . S
O268 C255 1.236 . S
N269 Mn253 2.282 . S
N269 C270 1.328 . S
N269 C274 1.318 . S
C270 N269 1.328 . S
C270 C271 1.457 1_455 S
C270 H275 0.938 . S
C271 C270 1.457 1_655 S
C271 C272 1.291 1_655 S
C271 H284 0.931 . S
C272 C271 1.291 1_455 S
C272 C273 1.373 . S
C272 H285 0.929 1_455 S
C273 C272 1.373 . S
C273 C274 1.396 . S
C273 C280 1.403 . S
C274 C264 1.476 . S
C274 N269 1.318 . S
C274 C273 1.396 . S
H275 C270 0.938 . S
O276 Mn252 2.385 . S
O276 C254 1.234 . S
O277 Mn252 2.209 . S
O277 Mn253 2.215 . S
O277 C254 1.283 . S
O278 Mn252 2.094 . S
O278 C256 1.240 . S
O279 Mn253 2.117 . S
O279 C256 1.264 . S
C280 C273 1.403 . S
C280 C281 1.399 . S
C280 H286 0.929 . S
C281 C261 1.449 . S
C281 C280 1.399 . S
C281 H287 0.930 . S
H282 C262 0.931 . S
H283 C263 0.930 . S
H284 C271 0.931 . S
H285 C272 0.929 1_655 S
H286 C280 0.929 . S
H287 C281 0.930 . S
Mn288 O293 2.095 . S
Mn288 O303 2.162 . S
Mn288 O304 2.297 . S
Mn288 O312 2.385 1_545 S
Mn288 O313 2.209 . S
Mn288 O314 2.094 . S
Mn289 O294 2.121 . S
Mn289 N296 2.257 . S
Mn289 N305 2.282 . S
Mn289 O313 2.215 . S
Mn289 O315 2.117 . S
C290 O312 1.234 . S
C290 O313 1.283 1_565 S
C291 O303 1.281 . S
C291 O304 1.236 . S
C292 O314 1.240 . S
C292 O315 1.264 . S
O293 Mn288 2.095 . S
O293 C302 1.250 . S
O294 Mn289 2.121 . S
O294 C302 1.258 . S
C295 N296 1.326 . S
C295 C299 1.460 . S
C295 H301 0.929 . S
N296 Mn289 2.257 . S
N296 C295 1.326 . S
N296 C300 1.362 . S
C297 C298 1.258 . S
C297 C300 1.431 . S
C297 C317 1.449 1_545 S
C298 C297 1.258 . S
C298 C299 1.477 . S
C298 H318 0.931 . S
C299 C295 1.460 . S
C299 C298 1.477 . S
C299 H319 0.930 . S
C300 N296 1.362 . S
C300 C297 1.431 . S
C300 C310 1.476 . S
H301 C295 0.929 . S
C302 O293 1.250 . S
C302 O294 1.258 . S
O303 Mn288 2.162 . S
O303 C291 1.281 . S
O304 Mn288 2.297 . S
O304 C291 1.236 . S
N305 Mn289 2.282 . S
N305 C306 1.328 . S
N305 C310 1.318 . S
C306 N305 1.328 . S
C306 C307 1.457 1_545 S
C306 H311 0.929 . S
C307 C306 1.457 1_565 S
C307 C308 1.291 . S
C307 H320 0.931 . S
C308 C307 1.291 . S
C308 C309 1.373 . S
C308 H321 0.929 . S
C309 C308 1.373 . S
C309 C310 1.396 1_565 S
C309 C316 1.403 . S
C310 C300 1.476 . S
C310 N305 1.318 . S
C310 C309 1.396 1_545 S
H311 C306 0.929 . S
O312 Mn288 2.385 1_565 S
O312 C290 1.234 . S
O313 Mn288 2.209 . S
O313 Mn289 2.215 . S
O313 C290 1.283 1_545 S
O314 Mn288 2.094 . S
O314 C292 1.240 . S
O315 Mn289 2.117 . S
O315 C292 1.264 . S
C316 C309 1.403 . S
C316 C317 1.399 . S
C316 H322 0.929 . S
C317 C297 1.449 1_565 S
C317 C316 1.399 . S
C317 H323 0.930 . S
H318 C298 0.931 . S
H319 C299 0.930 . S
H320 C307 0.931 . S
H321 C308 0.929 . S
H322 C316 0.929 . S
H323 C317 0.930 . S
Mn324 O329 2.095 . S
Mn324 O339 2.162 . S
Mn324 O340 2.297 . S
Mn324 O348 2.385 . S
Mn324 O349 2.209 . S
Mn324 O350 2.094 . S
Mn325 O330 2.121 . S
Mn325 N332 2.257 . S
Mn325 N341 2.282 . S
Mn325 O349 2.215 . S
Mn325 O351 2.117 . S
C326 O348 1.234 . S
C326 O349 1.283 . S
C327 O339 1.281 . S
C327 O340 1.236 . S
C328 O350 1.240 . S
C328 O351 1.264 . S
O329 Mn324 2.095 . S
O329 C338 1.250 . S
O330 Mn325 2.121 . S
O330 C338 1.258 . S
C331 N332 1.326 . S
C331 C335 1.460 . S
C331 H337 0.929 . S
N332 Mn325 2.257 . S
N332 C331 1.326 . S
N332 C336 1.362 . S
C333 C334 1.258 . S
C333 C336 1.431 . S
C333 C353 1.449 . S
C334 C333 1.258 . S
C334 C335 1.477 . S
C334 H354 0.931 . S
C335 C331 1.460 . S
C335 C334 1.477 . S
C335 H355 0.930 . S
C336 N332 1.362 . S
C336 C333 1.431 . S
C336 C346 1.476 . S
H337 C331 0.929 . S
C338 O329 1.250 . S
C338 O330 1.258 . S
O339 Mn324 2.162 . S
O339 C327 1.281 . S
O340 Mn324 2.297 . S
O340 C327 1.236 . S
N341 Mn325 2.282 . S
N341 C342 1.328 . S
N341 C346 1.318 . S
C342 N341 1.328 . S
C342 C343 1.457 . S
C342 H347 0.929 . S
C343 C342 1.457 . S
C343 C344 1.291 . S
C343 H356 0.931 . S
C344 C343 1.291 . S
C344 C345 1.373 . S
C344 H357 0.929 . S
C345 C344 1.373 . S
C345 C346 1.396 . S
C345 C352 1.403 . S
C346 C336 1.476 . S
C346 N341 1.318 . S
C346 C345 1.396 . S
H347 C342 0.929 . S
O348 Mn324 2.385 . S
O348 C326 1.234 . S
O349 Mn324 2.209 . S
O349 Mn325 2.215 . S
O349 C326 1.283 . S
O350 Mn324 2.094 . S
O350 C328 1.240 . S
O351 Mn325 2.117 . S
O351 C328 1.264 . S
C352 C345 1.403 . S
C352 C353 1.399 . S
C352 H358 0.929 . S
C353 C333 1.449 . S
C353 C352 1.399 . S
C353 H359 0.930 . S
H354 C334 0.931 . S
H355 C335 0.930 . S
H356 C343 0.931 . S
H357 C344 0.929 . S
H358 C352 0.929 . S
H359 C353 0.930 . S
Mn360 O365 2.095 . S
Mn360 O375 2.162 . S
Mn360 O376 2.297 . S
Mn360 O384 2.385 1_565 S
Mn360 O385 2.209 . S
Mn360 O386 2.094 . S
Mn361 O366 2.121 . S
Mn361 N368 2.257 . S
Mn361 N377 2.282 . S
Mn361 O385 2.215 . S
Mn361 O387 2.117 . S
C362 O384 1.234 . S
C362 O385 1.283 1_545 S
C363 O375 1.281 . S
C363 O376 1.236 . S
C364 O386 1.240 . S
C364 O387 1.264 . S
O365 Mn360 2.095 . S
O365 C374 1.250 . S
O366 Mn361 2.121 . S
O366 C374 1.258 . S
C367 N368 1.326 . S
C367 C371 1.460 . S
C367 H373 0.929 . S
N368 Mn361 2.257 . S
N368 C367 1.326 . S
N368 C372 1.362 . S
C369 C370 1.258 . S
C369 C372 1.431 1_655 S
C369 C389 1.449 1_565 S
C370 C369 1.258 . S
C370 C371 1.477 1_655 S
C370 H390 0.931 . S
C371 C367 1.460 . S
C371 C370 1.477 1_455 S
C371 H391 0.930 . S
C372 N368 1.362 . S
C372 C369 1.431 1_455 S
C372 C382 1.476 . S
H373 C367 0.929 . S
C374 O365 1.250 . S
C374 O366 1.258 . S
O375 Mn360 2.162 . S
O375 C363 1.281 . S
O376 Mn360 2.297 . S
O376 C363 1.236 . S
N377 Mn361 2.282 . S
N377 C378 1.328 . S
N377 C382 1.318 . S
C378 N377 1.328 . S
C378 C379 1.457 1_565 S
C378 H383 0.929 . S
C379 C378 1.457 1_545 S
C379 C380 1.291 . S
C379 H392 0.931 . S
C380 C379 1.291 . S
C380 C381 1.373 . S
C380 H393 0.929 . S
C381 C380 1.373 . S
C381 C382 1.396 1_545 S
C381 C388 1.403 1_455 S
C382 C372 1.476 . S
C382 N377 1.318 . S
C382 C381 1.396 1_565 S
H383 C378 0.929 . S
O384 Mn360 2.385 1_545 S
O384 C362 1.234 . S
O385 Mn360 2.209 . S
O385 Mn361 2.215 . S
O385 C362 1.283 1_565 S
O386 Mn360 2.094 . S
O386 C364 1.240 . S
O387 Mn361 2.117 . S
O387 C364 1.264 . S
C388 C381 1.403 1_655 S
C388 C389 1.399 . S
C388 H394 0.929 . S
C389 C369 1.449 1_545 S
C389 C388 1.399 . S
C389 H395 0.930 . S
H390 C370 0.931 . S
H391 C371 0.930 . S
H392 C379 0.931 . S
H393 C380 0.929 . S
H394 C388 0.929 . S
H395 C389 0.930 . S
Mn396 O401 2.095 . S
Mn396 O411 2.162 . S
Mn396 O412 2.297 . S
Mn396 O420 2.385 . S
Mn396 O421 2.209 . S
Mn396 O422 2.094 . S
Mn397 O402 2.121 . S
Mn397 N404 2.257 . S
Mn397 N413 2.282 . S
Mn397 O421 2.215 . S
Mn397 O423 2.117 . S
C398 O420 1.234 . S
C398 O421 1.283 . S
C399 O411 1.281 . S
C399 O412 1.236 . S
C400 O422 1.240 . S
C400 O423 1.264 . S
O401 Mn396 2.095 . S
O401 C410 1.250 . S
O402 Mn397 2.121 . S
O402 C410 1.258 . S
C403 N404 1.326 . S
C403 C407 1.460 . S
C403 H409 0.929 . S
N404 Mn397 2.257 . S
N404 C403 1.326 . S
N404 C408 1.362 . S
C405 C406 1.258 . S
C405 C408 1.431 . S
C405 C425 1.449 . S
C406 C405 1.258 . S
C406 C407 1.477 . S
C406 H426 0.931 . S
C407 C403 1.460 . S
C407 C406 1.477 . S
C407 H427 0.930 . S
C408 N404 1.362 . S
C408 C405 1.431 . S
C408 C418 1.476 . S
H409 C403 0.929 . S
C410 O401 1.250 . S
C410 O402 1.258 . S
O411 Mn396 2.162 . S
O411 C399 1.281 . S
O412 Mn396 2.297 . S
O412 C399 1.236 . S
N413 Mn397 2.282 . S
N413 C414 1.328 . S
N413 C418 1.318 . S
C414 N413 1.328 . S
C414 C415 1.457 1_556 S
C414 H419 0.938 . S
C415 C414 1.457 1_554 S
C415 C416 1.291 1_554 S
C415 H428 0.931 . S
C416 C415 1.291 1_556 S
C416 C417 1.373 . S
C416 H429 0.929 1_556 S
C417 C416 1.373 . S
C417 C418 1.396 . S
C417 C424 1.403 . S
C418 C408 1.476 . S
C418 N413 1.318 . S
C418 C417 1.396 . S
H419 C414 0.938 . S
O420 Mn396 2.385 . S
O420 C398 1.234 . S
O421 Mn396 2.209 . S
O421 Mn397 2.215 . S
O421 C398 1.283 . S
O422 Mn396 2.094 . S
O422 C400 1.240 . S
O423 Mn397 2.117 . S
O423 C400 1.264 . S
C424 C417 1.403 . S
C424 C425 1.399 . S
C424 H430 0.929 . S
C425 C405 1.449 . S
C425 C424 1.399 . S
C425 H431 0.930 . S
H426 C406 0.931 . S
H427 C407 0.930 . S
H428 C415 0.931 . S
H429 C416 0.929 1_554 S
H430 C424 0.929 . S
H431 C425 0.930 . S
Mn432 O437 2.095 . S
Mn432 O447 2.162 . S
Mn432 O448 2.297 . S
Mn432 O456 2.385 1_565 S
Mn432 O457 2.209 . S
Mn432 O458 2.094 . S
Mn433 O438 2.121 . S
Mn433 N440 2.257 . S
Mn433 N449 2.282 . S
Mn433 O457 2.215 . S
Mn433 O459 2.117 . S
C434 O456 1.234 . S
C434 O457 1.283 1_545 S
C435 O447 1.281 . S
C435 O448 1.236 . S
C436 O458 1.240 . S
C436 O459 1.264 . S
O437 Mn432 2.095 . S
O437 C446 1.250 . S
O438 Mn433 2.121 . S
O438 C446 1.258 . S
C439 N440 1.326 . S
C439 C443 1.460 . S
C439 H445 0.929 . S
N440 Mn433 2.257 . S
N440 C439 1.326 . S
N440 C444 1.362 . S
C441 C442 1.258 . S
C441 C444 1.431 . S
C441 C461 1.449 1_565 S
C442 C441 1.258 . S
C442 C443 1.477 . S
C442 H462 0.931 . S
C443 C439 1.460 . S
C443 C442 1.477 . S
C443 H463 0.930 . S
C444 N440 1.362 . S
C444 C441 1.431 . S
C444 C454 1.476 . S
H445 C439 0.929 . S
C446 O437 1.250 . S
C446 O438 1.258 . S
O447 Mn432 2.162 . S
O447 C435 1.281 . S
O448 Mn432 2.297 . S
O448 C435 1.236 . S
N449 Mn433 2.282 . S
N449 C450 1.328 . S
N449 C454 1.318 . S
C450 N449 1.328 . S
C450 C451 1.457 1_565 S
C450 H455 0.929 . S
C451 C450 1.457 1_545 S
C451 C452 1.291 . S
C451 H464 0.931 . S
C452 C451 1.291 . S
C452 C453 1.373 . S
C452 H465 0.929 . S
C453 C452 1.373 . S
C453 C454 1.396 1_545 S
C453 C460 1.403 . S
C454 C444 1.476 . S
C454 N449 1.318 . S
C454 C453 1.396 1_565 S
H455 C450 0.929 . S
O456 Mn432 2.385 1_545 S
O456 C434 1.234 . S
O457 Mn432 2.209 . S
O457 Mn433 2.215 . S
O457 C434 1.283 1_565 S
O458 Mn432 2.094 . S
O458 C436 1.240 . S
O459 Mn433 2.117 . S
O459 C436 1.264 . S
C460 C453 1.403 . S
C460 C461 1.399 . S
C460 H466 0.929 . S
C461 C441 1.449 1_545 S
C461 C460 1.399 . S
C461 H467 0.930 . S
H462 C442 0.931 . S
H463 C443 0.930 . S
H464 C451 0.931 . S
H465 C452 0.929 . S
H466 C460 0.929 . S
H467 C461 0.930 . S
Mn468 O473 2.095 . S
Mn468 O483 2.162 . S
Mn468 O484 2.297 . S
Mn468 O492 2.385 . S
Mn468 O493 2.209 . S
Mn468 O494 2.094 . S
Mn469 O474 2.121 . S
Mn469 N476 2.257 . S
Mn469 N485 2.282 . S
Mn469 O493 2.215 . S
Mn469 O495 2.117 . S
C470 O492 1.234 . S
C470 O493 1.283 . S
C471 O483 1.281 . S
C471 O484 1.236 . S
C472 O494 1.240 . S
C472 O495 1.264 . S
O473 Mn468 2.095 . S
O473 C482 1.250 . S
O474 Mn469 2.121 . S
O474 C482 1.258 . S
C475 N476 1.326 . S
C475 C479 1.460 . S
C475 H481 0.929 . S
N476 Mn469 2.257 . S
N476 C475 1.326 . S
N476 C480 1.362 . S
C477 C478 1.258 . S
C477 C480 1.431 . S
C477 C497 1.449 . S
C478 C477 1.258 . S
C478 C479 1.477 . S
C478 H498 0.931 . S
C479 C475 1.460 . S
C479 C478 1.477 . S
C479 H499 0.930 . S
C480 N476 1.362 . S
C480 C477 1.431 . S
C480 C490 1.476 . S
H481 C475 0.929 . S
C482 O473 1.250 . S
C482 O474 1.258 . S
O483 Mn468 2.162 . S
O483 C471 1.281 . S
O484 Mn468 2.297 . S
O484 C471 1.236 . S
N485 Mn469 2.282 . S
N485 C486 1.328 . S
N485 C490 1.318 . S
C486 N485 1.328 . S
C486 C487 1.457 . S
C486 H491 0.929 . S
C487 C486 1.457 . S
C487 C488 1.291 . S
C487 H500 0.931 . S
C488 C487 1.291 . S
C488 C489 1.373 . S
C488 H501 0.929 . S
C489 C488 1.373 . S
C489 C490 1.396 . S
C489 C496 1.403 . S
C490 C480 1.476 . S
C490 N485 1.318 . S
C490 C489 1.396 . S
H491 C486 0.929 . S
O492 Mn468 2.385 . S
O492 C470 1.234 . S
O493 Mn468 2.209 . S
O493 Mn469 2.215 . S
O493 C470 1.283 . S
O494 Mn468 2.094 . S
O494 C472 1.240 . S
O495 Mn469 2.117 . S
O495 C472 1.264 . S
C496 C489 1.403 . S
C496 C497 1.399 . S
C496 H502 0.929 . S
C497 C477 1.449 . S
C497 C496 1.399 . S
C497 H503 0.930 . S
H498 C478 0.931 . S
H499 C479 0.930 . S
H500 C487 0.931 . S
H501 C488 0.929 . S
H502 C496 0.929 . S
H503 C497 0.930 . S
Mn504 O509 2.095 . S
Mn504 O519 2.162 . S
Mn504 O520 2.297 . S
Mn504 O528 2.385 1_545 S
Mn504 O529 2.209 . S
Mn504 O530 2.094 . S
Mn505 O510 2.121 . S
Mn505 N512 2.257 . S
Mn505 N521 2.282 . S
Mn505 O529 2.215 . S
Mn505 O531 2.117 . S
C506 O528 1.234 . S
C506 O529 1.283 1_565 S
C507 O519 1.281 . S
C507 O520 1.236 . S
C508 O530 1.240 . S
C508 O531 1.264 . S
O509 Mn504 2.095 . S
O509 C518 1.250 . S
O510 Mn505 2.121 . S
O510 C518 1.258 . S
C511 N512 1.326 . S
C511 C515 1.460 . S
C511 H517 0.929 . S
N512 Mn505 2.257 . S
N512 C511 1.326 . S
N512 C516 1.362 . S
C513 C514 1.258 . S
C513 C516 1.431 1_655 S
C513 C533 1.449 1_545 S
C514 C513 1.258 . S
C514 C515 1.477 1_655 S
C514 H534 0.931 . S
C515 C511 1.460 . S
C515 C514 1.477 1_455 S
C515 H535 0.930 . S
C516 N512 1.362 . S
C516 C513 1.431 1_455 S
C516 C526 1.476 . S
H517 C511 0.929 . S
C518 O509 1.250 . S
C518 O510 1.258 . S
O519 Mn504 2.162 . S
O519 C507 1.281 . S
O520 Mn504 2.297 . S
O520 C507 1.236 . S
N521 Mn505 2.282 . S
N521 C522 1.328 . S
N521 C526 1.318 . S
C522 N521 1.328 . S
C522 C523 1.457 1_545 S
C522 H527 0.929 . S
C523 C522 1.457 1_565 S
C523 C524 1.291 . S
C523 H536 0.931 . S
C524 C523 1.291 . S
C524 C525 1.373 . S
C524 H537 0.929 . S
C525 C524 1.373 . S
C525 C526 1.396 1_565 S
C525 C532 1.403 1_455 S
C526 C516 1.476 . S
C526 N521 1.318 . S
C526 C525 1.396 1_545 S
H527 C522 0.929 . S
O528 Mn504 2.385 1_565 S
O528 C506 1.234 . S
O529 Mn504 2.209 . S
O529 Mn505 2.215 . S
O529 C506 1.283 1_545 S
O530 Mn504 2.094 . S
O530 C508 1.240 . S
O531 Mn505 2.117 . S
O531 C508 1.264 . S
C532 C525 1.403 1_655 S
C532 C533 1.399 . S
C532 H538 0.929 . S
C533 C513 1.449 1_565 S
C533 C532 1.399 . S
C533 H539 0.930 . S
H534 C514 0.931 . S
H535 C515 0.930 . S
H536 C523 0.931 . S
H537 C524 0.929 . S
H538 C532 0.929 . S
H539 C533 0.930 . S
Mn540 O545 2.095 . S
Mn540 O555 2.162 . S
Mn540 O556 2.297 . S
Mn540 O564 2.385 . S
Mn540 O565 2.209 . S
Mn540 O566 2.094 . S
Mn541 O546 2.121 . S
Mn541 N548 2.257 . S
Mn541 N557 2.282 . S
Mn541 O565 2.215 . S
Mn541 O567 2.117 . S
C542 O564 1.234 . S
C542 O565 1.283 . S
C543 O555 1.281 . S
C543 O556 1.236 . S
C544 O566 1.240 . S
C544 O567 1.264 . S
O545 Mn540 2.095 . S
O545 C554 1.250 . S
O546 Mn541 2.121 . S
O546 C554 1.258 . S
C547 N548 1.326 . S
C547 C551 1.460 . S
C547 H553 0.929 . S
N548 Mn541 2.257 . S
N548 C547 1.326 . S
N548 C552 1.362 . S
C549 C550 1.258 . S
C549 C552 1.431 . S
C549 C569 1.449 . S
C550 C549 1.258 . S
C550 C551 1.477 . S
C550 H570 0.931 . S
C551 C547 1.460 . S
C551 C550 1.477 . S
C551 H571 0.930 . S
C552 N548 1.362 . S
C552 C549 1.431 . S
C552 C562 1.476 . S
H553 C547 0.929 . S
C554 O545 1.250 . S
C554 O546 1.258 . S
O555 Mn540 2.162 . S
O555 C543 1.281 . S
O556 Mn540 2.297 . S
O556 C543 1.236 . S
N557 Mn541 2.282 . S
N557 C558 1.328 . S
N557 C562 1.318 . S
C558 N557 1.328 . S
C558 C559 1.457 1_554 S
C558 H563 0.938 . S
C559 C558 1.457 1_556 S
C559 C560 1.291 1_556 S
C559 H572 0.931 . S
C560 C559 1.291 1_554 S
C560 C561 1.373 . S
C560 H573 0.929 1_554 S
C561 C560 1.373 . S
C561 C562 1.396 . S
C561 C568 1.403 . S
C562 C552 1.476 . S
C562 N557 1.318 . S
C562 C561 1.396 . S
H563 C558 0.938 . S
O564 Mn540 2.385 . S
O564 C542 1.234 . S
O565 Mn540 2.209 . S
O565 Mn541 2.215 . S
O565 C542 1.283 . S
O566 Mn540 2.094 . S
O566 C544 1.240 . S
O567 Mn541 2.117 . S
O567 C544 1.264 . S
C568 C561 1.403 . S
C568 C569 1.399 . S
C568 H574 0.929 . S
C569 C549 1.449 . S
C569 C568 1.399 . S
C569 H575 0.930 . S
H570 C550 0.931 . S
H571 C551 0.930 . S
H572 C559 0.931 . S
H573 C560 0.929 1_556 S
H574 C568 0.929 . S
H575 C569 0.930 . S
Mn576 O581 2.095 . S
Mn576 O591 2.162 . S
Mn576 O592 2.297 . S
Mn576 O600 2.385 1_554 S
Mn576 O601 2.209 . S
Mn576 O602 2.094 . S
Mn577 O582 2.121 . S
Mn577 N584 2.257 . S
Mn577 N593 2.282 . S
Mn577 O601 2.215 . S
Mn577 O603 2.117 . S
C578 O600 1.234 . S
C578 O601 1.283 1_556 S
C579 O591 1.281 . S
C579 O592 1.236 . S
C580 O602 1.240 . S
C580 O603 1.264 . S
O581 Mn576 2.095 . S
O581 C590 1.250 . S
O582 Mn577 2.121 . S
O582 C590 1.258 . S
C583 N584 1.326 . S
C583 C587 1.460 . S
C583 H589 0.929 . S
N584 Mn577 2.257 . S
N584 C583 1.326 . S
N584 C588 1.362 . S
C585 C586 1.258 . S
C585 C588 1.431 . S
C585 C605 1.449 1_554 S
C586 C585 1.258 . S
C586 C587 1.477 . S
C586 H606 0.931 . S
C587 C583 1.460 . S
C587 C586 1.477 . S
C587 H607 0.930 . S
C588 N584 1.362 . S
C588 C585 1.431 . S
C588 C598 1.476 . S
H589 C583 0.929 . S
C590 O581 1.250 . S
C590 O582 1.258 . S
O591 Mn576 2.162 . S
O591 C579 1.281 . S
O592 Mn576 2.297 . S
O592 C579 1.236 . S
N593 Mn577 2.282 . S
N593 C594 1.328 . S
N593 C598 1.318 . S
C594 N593 1.328 . S
C594 C595 1.457 1_554 S
C594 H599 0.929 . S
C595 C594 1.457 1_556 S
C595 C596 1.291 . S
C595 H608 0.931 . S
C596 C595 1.291 . S
C596 C597 1.373 . S
C596 H609 0.929 . S
C597 C596 1.373 . S
C597 C598 1.396 1_556 S
C597 C604 1.403 . S
C598 C588 1.476 . S
C598 N593 1.318 . S
C598 C597 1.396 1_554 S
H599 C594 0.929 . S
O600 Mn576 2.385 1_556 S
O600 C578 1.234 . S
O601 Mn576 2.209 . S
O601 Mn577 2.215 . S
O601 C578 1.283 1_554 S
O602 Mn576 2.094 . S
O602 C580 1.240 . S
O603 Mn577 2.117 . S
O603 C580 1.264 . S
C604 C597 1.403 . S
C604 C605 1.399 . S
C604 H610 0.929 . S
C605 C585 1.449 1_556 S
C605 C604 1.399 . S
C605 H611 0.930 . S
H606 C586 0.931 . S
H607 C587 0.930 . S
H608 C595 0.931 . S
H609 C596 0.929 . S
H610 C604 0.929 . S
H611 C605 0.930 . S
Mn612 O617 2.095 . S
Mn612 O627 2.162 . S
Mn612 O628 2.297 . S
Mn612 O636 2.385 1_556 S
Mn612 O637 2.209 . S
Mn612 O638 2.094 . S
Mn613 O618 2.121 . S
Mn613 N620 2.257 . S
Mn613 N629 2.282 . S
Mn613 O637 2.215 . S
Mn613 O639 2.117 . S
C614 O636 1.234 . S
C614 O637 1.283 1_554 S
C615 O627 1.281 . S
C615 O628 1.236 . S
C616 O638 1.240 . S
C616 O639 1.264 . S
O617 Mn612 2.095 . S
O617 C626 1.250 . S
O618 Mn613 2.121 . S
O618 C626 1.258 . S
C619 N620 1.326 . S
C619 C623 1.460 . S
C619 H625 0.929 . S
N620 Mn613 2.257 . S
N620 C619 1.326 . S
N620 C624 1.362 . S
C621 C622 1.258 . S
C621 C624 1.431 1_565 S
C621 C641 1.449 1_556 S
C622 C621 1.258 . S
C622 C623 1.477 1_565 S
C622 H642 0.931 . S
C623 C619 1.460 . S
C623 C622 1.477 1_545 S
C623 H643 0.930 . S
C624 N620 1.362 . S
C624 C621 1.431 1_545 S
C624 C634 1.476 . S
H625 C619 0.929 . S
C626 O617 1.250 . S
C626 O618 1.258 . S
O627 Mn612 2.162 . S
O627 C615 1.281 . S
O628 Mn612 2.297 . S
O628 C615 1.236 . S
N629 Mn613 2.282 . S
N629 C630 1.328 . S
N629 C634 1.318 . S
C630 N629 1.328 . S
C630 C631 1.457 1_556 S
C630 H635 0.929 . S
C631 C630 1.457 1_554 S
C631 C632 1.291 . S
C631 H644 0.931 . S
C632 C631 1.291 . S
C632 C633 1.373 . S
C632 H645 0.929 . S
C633 C632 1.373 . S
C633 C634 1.396 1_554 S
C633 C640 1.403 1_545 S
C634 C624 1.476 . S
C634 N629 1.318 . S
C634 C633 1.396 1_556 S
H635 C630 0.929 . S
O636 Mn612 2.385 1_554 S
O636 C614 1.234 . S
O637 Mn612 2.209 . S
O637 Mn613 2.215 . S
O637 C614 1.283 1_556 S
O638 Mn612 2.094 . S
O638 C616 1.240 . S
O639 Mn613 2.117 . S
O639 C616 1.264 . S
C640 C633 1.403 1_565 S
C640 C641 1.399 . S
C640 H646 0.929 . S
C641 C621 1.449 1_554 S
C641 C640 1.399 . S
C641 H647 0.930 . S
H642 C622 0.931 . S
H643 C623 0.930 . S
H644 C631 0.931 . S
H645 C632 0.929 . S
H646 C640 0.929 . S
H647 C641 0.930 . S
Mn648 O653 2.095 . S
Mn648 O663 2.162 . S
Mn648 O664 2.297 . S
Mn648 O672 2.385 . S
Mn648 O673 2.209 . S
Mn648 O674 2.094 . S
Mn649 O654 2.121 . S
Mn649 N656 2.257 . S
Mn649 N665 2.282 . S
Mn649 O673 2.215 . S
Mn649 O675 2.117 . S
C650 O672 1.234 . S
C650 O673 1.283 . S
C651 O663 1.281 . S
C651 O664 1.236 . S
C652 O674 1.240 . S
C652 O675 1.264 . S
O653 Mn648 2.095 . S
O653 C662 1.250 . S
O654 Mn649 2.121 . S
O654 C662 1.258 . S
C655 N656 1.326 . S
C655 C659 1.460 . S
C655 H661 0.929 . S
N656 Mn649 2.257 . S
N656 C655 1.326 . S
N656 C660 1.362 . S
C657 C658 1.258 . S
C657 C660 1.431 . S
C657 C677 1.449 . S
C658 C657 1.258 . S
C658 C659 1.477 . S
C658 H678 0.931 . S
C659 C655 1.460 . S
C659 C658 1.477 . S
C659 H679 0.930 . S
C660 N656 1.362 . S
C660 C657 1.431 . S
C660 C670 1.476 . S
H661 C655 0.929 . S
C662 O653 1.250 . S
C662 O654 1.258 . S
O663 Mn648 2.162 . S
O663 C651 1.281 . S
O664 Mn648 2.297 . S
O664 C651 1.236 . S
N665 Mn649 2.282 . S
N665 C666 1.328 . S
N665 C670 1.318 . S
C666 N665 1.328 . S
C666 C667 1.457 . S
C666 H671 0.929 . S
C667 C666 1.457 . S
C667 C668 1.291 . S
C667 H680 0.931 . S
C668 C667 1.291 . S
C668 C669 1.373 . S
C668 H681 0.929 . S
C669 C668 1.373 . S
C669 C670 1.396 . S
C669 C676 1.403 . S
C670 C660 1.476 . S
C670 N665 1.318 . S
C670 C669 1.396 . S
H671 C666 0.929 . S
O672 Mn648 2.385 . S
O672 C650 1.234 . S
O673 Mn648 2.209 . S
O673 Mn649 2.215 . S
O673 C650 1.283 . S
O674 Mn648 2.094 . S
O674 C652 1.240 . S
O675 Mn649 2.117 . S
O675 C652 1.264 . S
C676 C669 1.403 . S
C676 C677 1.399 . S
C676 H682 0.929 . S
C677 C657 1.449 . S
C677 C676 1.399 . S
C677 H683 0.930 . S
H678 C658 0.931 . S
H679 C659 0.930 . S
H680 C667 0.931 . S
H681 C668 0.929 . S
H682 C676 0.929 . S
H683 C677 0.930 . S
Mn684 O689 2.095 . S
Mn684 O699 2.162 . S
Mn684 O700 2.297 . S
Mn684 O708 2.385 . S
Mn684 O709 2.209 . S
Mn684 O710 2.094 . S
Mn685 O690 2.121 . S
Mn685 N692 2.257 . S
Mn685 N701 2.282 . S
Mn685 O709 2.215 . S
Mn685 O711 2.117 . S
C686 O708 1.234 . S
C686 O709 1.283 . S
C687 O699 1.281 . S
C687 O700 1.236 . S
C688 O710 1.240 . S
C688 O711 1.264 . S
O689 Mn684 2.095 . S
O689 C698 1.250 . S
O690 Mn685 2.121 . S
O690 C698 1.258 . S
C691 N692 1.326 . S
C691 C695 1.460 . S
C691 H697 0.929 . S
N692 Mn685 2.257 . S
N692 C691 1.326 . S
N692 C696 1.362 . S
C693 C694 1.258 . S
C693 C696 1.431 1_545 S
C693 C713 1.449 . S
C694 C693 1.258 . S
C694 C695 1.477 1_545 S
C694 H714 0.931 . S
C695 C691 1.460 . S
C695 C694 1.477 1_565 S
C695 H715 0.930 . S
C696 N692 1.362 . S
C696 C693 1.431 1_565 S
C696 C706 1.476 . S
H697 C691 0.929 . S
C698 O689 1.250 . S
C698 O690 1.258 . S
O699 Mn684 2.162 . S
O699 C687 1.281 . S
O700 Mn684 2.297 . S
O700 C687 1.236 . S
N701 Mn685 2.282 . S
N701 C702 1.328 . S
N701 C706 1.318 . S
C702 N701 1.328 . S
C702 C703 1.457 . S
C702 H707 0.929 . S
C703 C702 1.457 . S
C703 C704 1.291 . S
C703 H716 0.931 . S
C704 C703 1.291 . S
C704 C705 1.373 . S
C704 H717 0.929 . S
C705 C704 1.373 . S
C705 C706 1.396 . S
C705 C712 1.403 1_565 S
C706 C696 1.476 . S
C706 N701 1.318 . S
C706 C705 1.396 . S
H707 C702 0.929 . S
O708 Mn684 2.385 . S
O708 C686 1.234 . S
O709 Mn684 2.209 . S
O709 Mn685 2.215 . S
O709 C686 1.283 . S
O710 Mn684 2.094 . S
O710 C688 1.240 . S
O711 Mn685 2.117 . S
O711 C688 1.264 . S
C712 C705 1.403 1_545 S
C712 C713 1.399 . S
C712 H718 0.929 . S
C713 C693 1.449 . S
C713 C712 1.399 . S
C713 H719 0.930 . S
H714 C694 0.931 . S
H715 C695 0.930 . S
H716 C703 0.931 . S
H717 C704 0.929 . S
H718 C712 0.929 . S
H719 C713 0.930 . S
Mn720 O725 2.095 . S
Mn720 O735 2.162 . S
Mn720 O736 2.297 . S
Mn720 O744 2.385 . S
Mn720 O745 2.209 . S
Mn720 O746 2.094 . S
Mn721 O726 2.121 . S
Mn721 N728 2.257 . S
Mn721 N737 2.282 . S
Mn721 O745 2.215 . S
Mn721 O747 2.117 . S
C722 O744 1.234 . S
C722 O745 1.283 . S
C723 O735 1.281 . S
C723 O736 1.236 . S
C724 O746 1.240 . S
C724 O747 1.264 . S
O725 Mn720 2.095 . S
O725 C734 1.250 . S
O726 Mn721 2.121 . S
O726 C734 1.258 . S
C727 N728 1.326 . S
C727 C731 1.460 . S
C727 H733 0.929 . S
N728 Mn721 2.257 . S
N728 C727 1.326 . S
N728 C732 1.362 . S
C729 C730 1.258 . S
C729 C732 1.431 . S
C729 C749 1.449 . S
C730 C729 1.258 . S
C730 C731 1.477 . S
C730 H750 0.931 . S
C731 C727 1.460 . S
C731 C730 1.477 . S
C731 H751 0.930 . S
C732 N728 1.362 . S
C732 C729 1.431 . S
C732 C742 1.476 . S
H733 C727 0.929 . S
C734 O725 1.250 . S
C734 O726 1.258 . S
O735 Mn720 2.162 . S
O735 C723 1.281 . S
O736 Mn720 2.297 . S
O736 C723 1.236 . S
N737 Mn721 2.282 . S
N737 C738 1.328 . S
N737 C742 1.318 . S
C738 N737 1.328 . S
C738 C739 1.457 1_545 S
C738 H743 0.938 . S
C739 C738 1.457 1_565 S
C739 C740 1.291 1_565 S
C739 H752 0.931 . S
C740 C739 1.291 1_545 S
C740 C741 1.373 . S
C740 H753 0.929 1_545 S
C741 C740 1.373 . S
C741 C742 1.396 . S
C741 C748 1.403 . S
C742 C732 1.476 . S
C742 N737 1.318 . S
C742 C741 1.396 . S
H743 C738 0.938 . S
O744 Mn720 2.385 . S
O744 C722 1.234 . S
O745 Mn720 2.209 . S
O745 Mn721 2.215 . S
O745 C722 1.283 . S
O746 Mn720 2.094 . S
O746 C724 1.240 . S
O747 Mn721 2.117 . S
O747 C724 1.264 . S
C748 C741 1.403 . S
C748 C749 1.399 . S
C748 H754 0.929 . S
C749 C729 1.449 . S
C749 C748 1.399 . S
C749 H755 0.930 . S
H750 C730 0.931 . S
H751 C731 0.930 . S
H752 C739 0.931 . S
H753 C740 0.929 1_565 S
H754 C748 0.929 . S
H755 C749 0.930 . S
Mn756 O761 2.095 . S
Mn756 O771 2.162 . S
Mn756 O772 2.297 . S
Mn756 O780 2.385 . S
Mn756 O781 2.209 . S
Mn756 O782 2.094 . S
Mn757 O762 2.121 . S
Mn757 N764 2.257 . S
Mn757 N773 2.282 . S
Mn757 O781 2.215 . S
Mn757 O783 2.117 . S
C758 O780 1.234 . S
C758 O781 1.283 . S
C759 O771 1.281 . S
C759 O772 1.236 . S
C760 O782 1.240 . S
C760 O783 1.264 . S
O761 Mn756 2.095 . S
O761 C770 1.250 . S
O762 Mn757 2.121 . S
O762 C770 1.258 . S
C763 N764 1.326 . S
C763 C767 1.460 . S
C763 H769 0.929 . S
N764 Mn757 2.257 . S
N764 C763 1.326 . S
N764 C768 1.362 . S
C765 C766 1.258 . S
C765 C768 1.431 . S
C765 C785 1.449 . S
C766 C765 1.258 . S
C766 C767 1.477 . S
C766 H786 0.931 . S
C767 C763 1.460 . S
C767 C766 1.477 . S
C767 H787 0.930 . S
C768 N764 1.362 . S
C768 C765 1.431 . S
C768 C778 1.476 . S
H769 C763 0.929 . S
C770 O761 1.250 . S
C770 O762 1.258 . S
O771 Mn756 2.162 . S
O771 C759 1.281 . S
O772 Mn756 2.297 . S
O772 C759 1.236 . S
N773 Mn757 2.282 . S
N773 C774 1.328 . S
N773 C778 1.318 . S
C774 N773 1.328 . S
C774 C775 1.457 . S
C774 H779 0.929 . S
C775 C774 1.457 . S
C775 C776 1.291 . S
C775 H788 0.931 . S
C776 C775 1.291 . S
C776 C777 1.373 . S
C776 H789 0.929 . S
C777 C776 1.373 . S
C777 C778 1.396 . S
C777 C784 1.403 . S
C778 C768 1.476 . S
C778 N773 1.318 . S
C778 C777 1.396 . S
H779 C774 0.929 . S
O780 Mn756 2.385 . S
O780 C758 1.234 . S
O781 Mn756 2.209 . S
O781 Mn757 2.215 . S
O781 C758 1.283 . S
O782 Mn756 2.094 . S
O782 C760 1.240 . S
O783 Mn757 2.117 . S
O783 C760 1.264 . S
C784 C777 1.403 . S
C784 C785 1.399 . S
C784 H790 0.929 . S
C785 C765 1.449 . S
C785 C784 1.399 . S
C785 H791 0.930 . S
H786 C766 0.931 . S
H787 C767 0.930 . S
H788 C775 0.931 . S
H789 C776 0.929 . S
H790 C784 0.929 . S
H791 C785 0.930 . S
Mn792 O797 2.095 . S
Mn792 O807 2.162 . S
Mn792 O808 2.297 . S
Mn792 O816 2.385 . S
Mn792 O817 2.209 . S
Mn792 O818 2.094 . S
Mn793 O798 2.121 . S
Mn793 N800 2.257 . S
Mn793 N809 2.282 . S
Mn793 O817 2.215 . S
Mn793 O819 2.117 . S
C794 O816 1.234 . S
C794 O817 1.283 . S
C795 O807 1.281 . S
C795 O808 1.236 . S
C796 O818 1.240 . S
C796 O819 1.264 . S
O797 Mn792 2.095 . S
O797 C806 1.250 . S
O798 Mn793 2.121 . S
O798 C806 1.258 . S
C799 N800 1.326 . S
C799 C803 1.460 . S
C799 H805 0.929 . S
N800 Mn793 2.257 . S
N800 C799 1.326 . S
N800 C804 1.362 . S
C801 C802 1.258 . S
C801 C804 1.431 . S
C801 C821 1.449 . S
C802 C801 1.258 . S
C802 C803 1.477 . S
C802 H822 0.931 . S
C803 C799 1.460 . S
C803 C802 1.477 . S
C803 H823 0.930 . S
C804 N800 1.362 . S
C804 C801 1.431 . S
C804 C814 1.476 . S
H805 C799 0.929 . S
C806 O797 1.250 . S
C806 O798 1.258 . S
O807 Mn792 2.162 . S
O807 C795 1.281 . S
O808 Mn792 2.297 . S
O808 C795 1.236 . S
N809 Mn793 2.282 . S
N809 C810 1.328 . S
N809 C814 1.318 . S
C810 N809 1.328 . S
C810 C811 1.457 . S
C810 H815 0.929 . S
C811 C810 1.457 . S
C811 C812 1.291 . S
C811 H824 0.931 . S
C812 C811 1.291 . S
C812 C813 1.373 . S
C812 H825 0.929 . S
C813 C812 1.373 . S
C813 C814 1.396 . S
C813 C820 1.403 . S
C814 C804 1.476 . S
C814 N809 1.318 . S
C814 C813 1.396 . S
H815 C810 0.929 . S
O816 Mn792 2.385 . S
O816 C794 1.234 . S
O817 Mn792 2.209 . S
O817 Mn793 2.215 . S
O817 C794 1.283 . S
O818 Mn792 2.094 . S
O818 C796 1.240 . S
O819 Mn793 2.117 . S
O819 C796 1.264 . S
C820 C813 1.403 . S
C820 C821 1.399 . S
C820 H826 0.929 . S
C821 C801 1.449 . S
C821 C820 1.399 . S
C821 H827 0.930 . S
H822 C802 0.931 . S
H823 C803 0.930 . S
H824 C811 0.931 . S
H825 C812 0.929 . S
H826 C820 0.929 . S
H827 C821 0.930 . S
Mn828 O833 2.095 . S
Mn828 O843 2.162 . S
Mn828 O844 2.297 . S
Mn828 O852 2.385 . S
Mn828 O853 2.209 . S
Mn828 O854 2.094 . S
Mn829 O834 2.121 . S
Mn829 N836 2.257 . S
Mn829 N845 2.282 . S
Mn829 O853 2.215 . S
Mn829 O855 2.117 . S
C830 O852 1.234 . S
C830 O853 1.283 . S
C831 O843 1.281 . S
C831 O844 1.236 . S
C832 O854 1.240 . S
C832 O855 1.264 . S
O833 Mn828 2.095 . S
O833 C842 1.250 . S
O834 Mn829 2.121 . S
O834 C842 1.258 . S
C835 N836 1.326 . S
C835 C839 1.460 . S
C835 H841 0.929 . S
N836 Mn829 2.257 . S
N836 C835 1.326 . S
N836 C840 1.362 . S
C837 C838 1.258 . S
C837 C840 1.431 . S
C837 C857 1.449 . S
C838 C837 1.258 . S
C838 C839 1.477 . S
C838 H858 0.931 . S
C839 C835 1.460 . S
C839 C838 1.477 . S
C839 H859 0.930 . S
C840 N836 1.362 . S
C840 C837 1.431 . S
C840 C850 1.476 . S
H841 C835 0.929 . S
C842 O833 1.250 . S
C842 O834 1.258 . S
O843 Mn828 2.162 . S
O843 C831 1.281 . S
O844 Mn828 2.297 . S
O844 C831 1.236 . S
N845 Mn829 2.282 . S
N845 C846 1.328 . S
N845 C850 1.318 . S
C846 N845 1.328 . S
C846 C847 1.457 . S
C846 H851 0.929 . S
C847 C846 1.457 . S
C847 C848 1.291 . S
C847 H860 0.931 . S
C848 C847 1.291 . S
C848 C849 1.373 . S
C848 H861 0.929 . S
C849 C848 1.373 . S
C849 C850 1.396 . S
C849 C856 1.403 . S
C850 C840 1.476 . S
C850 N845 1.318 . S
C850 C849 1.396 . S
H851 C846 0.929 . S
O852 Mn828 2.385 . S
O852 C830 1.234 . S
O853 Mn828 2.209 . S
O853 Mn829 2.215 . S
O853 C830 1.283 . S
O854 Mn828 2.094 . S
O854 C832 1.240 . S
O855 Mn829 2.117 . S
O855 C832 1.264 . S
C856 C849 1.403 . S
C856 C857 1.399 . S
C856 H862 0.929 . S
C857 C837 1.449 . S
C857 C856 1.399 . S
C857 H863 0.930 . S
H858 C838 0.931 . S
H859 C839 0.930 . S
H860 C847 0.931 . S
H861 C848 0.929 . S
H862 C856 0.929 . S
H863 C857 0.930 . S
Mn864 O869 2.095 . S
Mn864 O879 2.162 . S
Mn864 O880 2.297 . S
Mn864 O888 2.385 1_655 S
Mn864 O889 2.209 . S
Mn864 O890 2.094 . S
Mn865 O870 2.121 . S
Mn865 N872 2.257 . S
Mn865 N881 2.282 . S
Mn865 O889 2.215 . S
Mn865 O891 2.117 . S
C866 O888 1.234 . S
C866 O889 1.283 1_455 S
C867 O879 1.281 . S
C867 O880 1.236 . S
C868 O890 1.240 . S
C868 O891 1.264 . S
O869 Mn864 2.095 . S
O869 C878 1.250 . S
O870 Mn865 2.121 . S
O870 C878 1.258 . S
C871 N872 1.326 . S
C871 C875 1.460 . S
C871 H877 0.929 . S
N872 Mn865 2.257 . S
N872 C871 1.326 . S
N872 C876 1.362 . S
C873 C874 1.258 . S
C873 C876 1.431 . S
C873 C893 1.449 1_655 S
C874 C873 1.258 . S
C874 C875 1.477 . S
C874 H894 0.931 . S
C875 C871 1.460 . S
C875 C874 1.477 . S
C875 H895 0.930 . S
C876 N872 1.362 . S
C876 C873 1.431 . S
C876 C886 1.476 . S
H877 C871 0.929 . S
C878 O869 1.250 . S
C878 O870 1.258 . S
O879 Mn864 2.162 . S
O879 C867 1.281 . S
O880 Mn864 2.297 . S
O880 C867 1.236 . S
N881 Mn865 2.282 . S
N881 C882 1.328 . S
N881 C886 1.318 . S
C882 N881 1.328 . S
C882 C883 1.457 1_655 S
C882 H887 0.929 . S
C883 C882 1.457 1_455 S
C883 C884 1.291 . S
C883 H896 0.931 . S
C884 C883 1.291 . S
C884 C885 1.373 . S
C884 H897 0.929 . S
C885 C884 1.373 . S
C885 C886 1.396 1_455 S
C885 C892 1.403 . S
C886 C876 1.476 . S
C886 N881 1.318 . S
C886 C885 1.396 1_655 S
H887 C882 0.929 . S
O888 Mn864 2.385 1_455 S
O888 C866 1.234 . S
O889 Mn864 2.209 . S
O889 Mn865 2.215 . S
O889 C866 1.283 1_655 S
O890 Mn864 2.094 . S
O890 C868 1.240 . S
O891 Mn865 2.117 . S
O891 C868 1.264 . S
C892 C885 1.403 . S
C892 C893 1.399 . S
C892 H898 0.929 . S
C893 C873 1.449 1_455 S
C893 C892 1.399 . S
C893 H899 0.930 . S
H894 C874 0.931 . S
H895 C875 0.930 . S
H896 C883 0.931 . S
H897 C884 0.929 . S
H898 C892 0.929 . S
H899 C893 0.930 . S
Mn900 O905 2.095 . S
Mn900 O915 2.162 . S
Mn900 O916 2.297 . S
Mn900 O924 2.385 . S
Mn900 O925 2.209 . S
Mn900 O926 2.094 . S
Mn901 O906 2.121 . S
Mn901 N908 2.257 . S
Mn901 N917 2.282 . S
Mn901 O925 2.215 . S
Mn901 O927 2.117 . S
C902 O924 1.234 . S
C902 O925 1.283 . S
C903 O915 1.281 . S
C903 O916 1.236 . S
C904 O926 1.240 . S
C904 O927 1.264 . S
O905 Mn900 2.095 . S
O905 C914 1.250 . S
O906 Mn901 2.121 . S
O906 C914 1.258 . S
C907 N908 1.326 . S
C907 C911 1.460 . S
C907 H913 0.929 . S
N908 Mn901 2.257 . S
N908 C907 1.326 . S
N908 C912 1.362 . S
C909 C910 1.258 . S
C909 C912 1.431 . S
C909 C929 1.449 . S
C910 C909 1.258 . S
C910 C911 1.477 . S
C910 H930 0.931 . S
C911 C907 1.460 . S
C911 C910 1.477 . S
C911 H931 0.930 . S
C912 N908 1.362 . S
C912 C909 1.431 . S
C912 C922 1.476 . S
H913 C907 0.929 . S
C914 O905 1.250 . S
C914 O906 1.258 . S
O915 Mn900 2.162 . S
O915 C903 1.281 . S
O916 Mn900 2.297 . S
O916 C903 1.236 . S
N917 Mn901 2.282 . S
N917 C918 1.328 . S
N917 C922 1.318 . S
C918 N917 1.328 . S
C918 C919 1.457 1_655 S
C918 H923 0.938 . S
C919 C918 1.457 1_455 S
C919 C920 1.291 1_455 S
C919 H932 0.931 . S
C920 C919 1.291 1_655 S
C920 C921 1.373 . S
C920 H933 0.929 1_655 S
C921 C920 1.373 . S
C921 C922 1.396 . S
C921 C928 1.403 . S
C922 C912 1.476 . S
C922 N917 1.318 . S
C922 C921 1.396 . S
H923 C918 0.938 . S
O924 Mn900 2.385 . S
O924 C902 1.234 . S
O925 Mn900 2.209 . S
O925 Mn901 2.215 . S
O925 C902 1.283 . S
O926 Mn900 2.094 . S
O926 C904 1.240 . S
O927 Mn901 2.117 . S
O927 C904 1.264 . S
C928 C921 1.403 . S
C928 C929 1.399 . S
C928 H934 0.929 . S
C929 C909 1.449 . S
C929 C928 1.399 . S
C929 H935 0.930 . S
H930 C910 0.931 . S
H931 C911 0.930 . S
H932 C919 0.931 . S
H933 C920 0.929 1_455 S
H934 C928 0.929 . S
H935 C929 0.930 . S
Mn936 O941 2.095 . S
Mn936 O951 2.162 . S
Mn936 O952 2.297 . S
Mn936 O960 2.385 . S
Mn936 O961 2.209 . S
Mn936 O962 2.094 . S
Mn937 O942 2.121 . S
Mn937 N944 2.257 . S
Mn937 N953 2.282 . S
Mn937 O961 2.215 . S
Mn937 O963 2.117 . S
C938 O960 1.234 . S
C938 O961 1.283 . S
C939 O951 1.281 . S
C939 O952 1.236 . S
C940 O962 1.240 . S
C940 O963 1.264 . S
O941 Mn936 2.095 . S
O941 C950 1.250 . S
O942 Mn937 2.121 . S
O942 C950 1.258 . S
C943 N944 1.326 . S
C943 C947 1.460 . S
C943 H949 0.929 . S
N944 Mn937 2.257 . S
N944 C943 1.326 . S
N944 C948 1.362 . S
C945 C946 1.258 . S
C945 C948 1.431 1_556 S
C945 C965 1.449 . S
C946 C945 1.258 . S
C946 C947 1.477 1_556 S
C946 H966 0.931 . S
C947 C943 1.460 . S
C947 C946 1.477 1_554 S
C947 H967 0.930 . S
C948 N944 1.362 . S
C948 C945 1.431 1_554 S
C948 C958 1.476 . S
H949 C943 0.929 . S
C950 O941 1.250 . S
C950 O942 1.258 . S
O951 Mn936 2.162 . S
O951 C939 1.281 . S
O952 Mn936 2.297 . S
O952 C939 1.236 . S
N953 Mn937 2.282 . S
N953 C954 1.328 . S
N953 C958 1.318 . S
C954 N953 1.328 . S
C954 C955 1.457 . S
C954 H959 0.929 . S
C955 C954 1.457 . S
C955 C956 1.291 . S
C955 H968 0.931 . S
C956 C955 1.291 . S
C956 C957 1.373 . S
C956 H969 0.929 . S
C957 C956 1.373 . S
C957 C958 1.396 . S
C957 C964 1.403 1_554 S
C958 C948 1.476 . S
C958 N953 1.318 . S
C958 C957 1.396 . S
H959 C954 0.929 . S
O960 Mn936 2.385 . S
O960 C938 1.234 . S
O961 Mn936 2.209 . S
O961 Mn937 2.215 . S
O961 C938 1.283 . S
O962 Mn936 2.094 . S
O962 C940 1.240 . S
O963 Mn937 2.117 . S
O963 C940 1.264 . S
C964 C957 1.403 1_556 S
C964 C965 1.399 . S
C964 H970 0.929 . S
C965 C945 1.449 . S
C965 C964 1.399 . S
C965 H971 0.930 . S
H966 C946 0.931 . S
H967 C947 0.930 . S
H968 C955 0.931 . S
H969 C956 0.929 . S
H970 C964 0.929 . S
H971 C965 0.930 . S
Mn972 O977 2.095 . S
Mn972 O987 2.162 . S
Mn972 O988 2.297 . S
Mn972 O996 2.385 . S
Mn972 O997 2.209 . S
Mn972 O998 2.094 . S
Mn973 O978 2.121 . S
Mn973 N980 2.257 . S
Mn973 N989 2.282 . S
Mn973 O997 2.215 . S
Mn973 O999 2.117 . S
C974 O996 1.234 . S
C974 O997 1.283 . S
C975 O987 1.281 . S
C975 O988 1.236 . S
C976 O998 1.240 . S
C976 O999 1.264 . S
O977 Mn972 2.095 . S
O977 C986 1.250 . S
O978 Mn973 2.121 . S
O978 C986 1.258 . S
C979 N980 1.326 . S
C979 C983 1.460 . S
C979 H985 0.929 . S
N980 Mn973 2.257 . S
N980 C979 1.326 . S
N980 C984 1.362 . S
C981 C982 1.258 . S
C981 C984 1.431 . S
C981 C1001 1.449 . S
C982 C981 1.258 . S
C982 C983 1.477 . S
C982 H1002 0.931 . S
C983 C979 1.460 . S
C983 C982 1.477 . S
C983 H1003 0.930 . S
C984 N980 1.362 . S
C984 C981 1.431 . S
C984 C994 1.476 . S
H985 C979 0.929 . S
C986 O977 1.250 . S
C986 O978 1.258 . S
O987 Mn972 2.162 . S
O987 C975 1.281 . S
O988 Mn972 2.297 . S
O988 C975 1.236 . S
N989 Mn973 2.282 . S
N989 C990 1.328 . S
N989 C994 1.318 . S
C990 N989 1.328 . S
C990 C991 1.457 . S
C990 H995 0.929 . S
C991 C990 1.457 . S
C991 C992 1.291 . S
C991 H1004 0.931 . S
C992 C991 1.291 . S
C992 C993 1.373 . S
C992 H1005 0.929 . S
C993 C992 1.373 . S
C993 C994 1.396 . S
C993 C1000 1.403 . S
C994 C984 1.476 . S
C994 N989 1.318 . S
C994 C993 1.396 . S
H995 C990 0.929 . S
O996 Mn972 2.385 . S
O996 C974 1.234 . S
O997 Mn972 2.209 . S
O997 Mn973 2.215 . S
O997 C974 1.283 . S
O998 Mn972 2.094 . S
O998 C976 1.240 . S
O999 Mn973 2.117 . S
O999 C976 1.264 . S
C1000 C993 1.403 . S
C1000 C1001 1.399 . S
C1000 H1006 0.929 . S
C1001 C981 1.449 . S
C1001 C1000 1.399 . S
C1001 H1007 0.930 . S
H1002 C982 0.931 . S
H1003 C983 0.930 . S
H1004 C991 0.931 . S
H1005 C992 0.929 . S
H1006 C1000 0.929 . S
H1007 C1001 0.930 . S
Mn1008 O1013 2.095 . S
Mn1008 O1023 2.162 . S
Mn1008 O1024 2.297 . S
Mn1008 O1032 2.385 1_655 S
Mn1008 O1033 2.209 . S
Mn1008 O1034 2.094 . S
Mn1009 O1014 2.121 . S
Mn1009 N1016 2.257 . S
Mn1009 N1025 2.282 . S
Mn1009 O1033 2.215 . S
Mn1009 O1035 2.117 . S
C1010 O1032 1.234 . S
C1010 O1033 1.283 1_455 S
C1011 O1023 1.281 . S
C1011 O1024 1.236 . S
C1012 O1034 1.240 . S
C1012 O1035 1.264 . S
O1013 Mn1008 2.095 . S
O1013 C1022 1.250 . S
O1014 Mn1009 2.121 . S
O1014 C1022 1.258 . S
C1015 N1016 1.326 . S
C1015 C1019 1.460 . S
C1015 H1021 0.929 . S
N1016 Mn1009 2.257 . S
N1016 C1015 1.326 . S
N1016 C1020 1.362 . S
C1017 C1018 1.258 . S
C1017 C1020 1.431 1_554 S
C1017 C1037 1.449 1_655 S
C1018 C1017 1.258 . S
C1018 C1019 1.477 1_554 S
C1018 H1038 0.931 . S
C1019 C1015 1.460 . S
C1019 C1018 1.477 1_556 S
C1019 H1039 0.930 . S
C1020 N1016 1.362 . S
C1020 C1017 1.431 1_556 S
C1020 C1030 1.476 . S
H1021 C1015 0.929 . S
C1022 O1013 1.250 . S
C1022 O1014 1.258 . S
O1023 Mn1008 2.162 . S
O1023 C1011 1.281 . S
O1024 Mn1008 2.297 . S
O1024 C1011 1.236 . S
N1025 Mn1009 2.282 . S
N1025 C1026 1.328 . S
N1025 C1030 1.318 . S
C1026 N1025 1.328 . S
C1026 C1027 1.457 1_655 S
C1026 H1031 0.929 . S
C1027 C1026 1.457 1_455 S
C1027 C1028 1.291 . S
C1027 H1040 0.931 . S
C1028 C1027 1.291 . S
C1028 C1029 1.373 . S
C1028 H1041 0.929 . S
C1029 C1028 1.373 . S
C1029 C1030 1.396 1_455 S
C1029 C1036 1.403 1_556 S
C1030 C1020 1.476 . S
C1030 N1025 1.318 . S
C1030 C1029 1.396 1_655 S
H1031 C1026 0.929 . S
O1032 Mn1008 2.385 1_455 S
O1032 C1010 1.234 . S
O1033 Mn1008 2.209 . S
O1033 Mn1009 2.215 . S
O1033 C1010 1.283 1_655 S
O1034 Mn1008 2.094 . S
O1034 C1012 1.240 . S
O1035 Mn1009 2.117 . S
O1035 C1012 1.264 . S
C1036 C1029 1.403 1_554 S
C1036 C1037 1.399 . S
C1036 H1042 0.929 . S
C1037 C1017 1.449 1_455 S
C1037 C1036 1.399 . S
C1037 H1043 0.930 . S
H1038 C1018 0.931 . S
H1039 C1019 0.930 . S
H1040 C1027 0.931 . S
H1041 C1028 0.929 . S
H1042 C1036 0.929 . S
H1043 C1037 0.930 . S
Mn1044 O1049 2.095 . S
Mn1044 O1059 2.162 . S
Mn1044 O1060 2.297 . S
Mn1044 O1068 2.385 . S
Mn1044 O1069 2.209 . S
Mn1044 O1070 2.094 . S
Mn1045 O1050 2.121 . S
Mn1045 N1052 2.257 . S
Mn1045 N1061 2.282 . S
Mn1045 O1069 2.215 . S
Mn1045 O1071 2.117 . S
C1046 O1068 1.234 . S
C1046 O1069 1.283 . S
C1047 O1059 1.281 . S
C1047 O1060 1.236 . S
C1048 O1070 1.240 . S
C1048 O1071 1.264 . S
O1049 Mn1044 2.095 . S
O1049 C1058 1.250 . S
O1050 Mn1045 2.121 . S
O1050 C1058 1.258 . S
C1051 N1052 1.326 . S
C1051 C1055 1.460 . S
C1051 H1057 0.929 . S
N1052 Mn1045 2.257 . S
N1052 C1051 1.326 . S
N1052 C1056 1.362 . S
C1053 C1054 1.258 . S
C1053 C1056 1.431 . S
C1053 C1073 1.449 . S
C1054 C1053 1.258 . S
C1054 C1055 1.477 . S
C1054 H1074 0.931 . S
C1055 C1051 1.460 . S
C1055 C1054 1.477 . S
C1055 H1075 0.930 . S
C1056 N1052 1.362 . S
C1056 C1053 1.431 . S
C1056 C1066 1.476 . S
H1057 C1051 0.929 . S
C1058 O1049 1.250 . S
C1058 O1050 1.258 . S
O1059 Mn1044 2.162 . S
O1059 C1047 1.281 . S
O1060 Mn1044 2.297 . S
O1060 C1047 1.236 . S
N1061 Mn1045 2.282 . S
N1061 C1062 1.328 . S
N1061 C1066 1.318 . S
C1062 N1061 1.328 . S
C1062 C1063 1.457 . S
C1062 H1067 0.929 . S
C1063 C1062 1.457 . S
C1063 C1064 1.291 . S
C1063 H1076 0.931 . S
C1064 C1063 1.291 . S
C1064 C1065 1.373 . S
C1064 H1077 0.929 . S
C1065 C1064 1.373 . S
C1065 C1066 1.396 . S
C1065 C1072 1.403 . S
C1066 C1056 1.476 . S
C1066 N1061 1.318 . S
C1066 C1065 1.396 . S
H1067 C1062 0.929 . S
O1068 Mn1044 2.385 . S
O1068 C1046 1.234 . S
O1069 Mn1044 2.209 . S
O1069 Mn1045 2.215 . S
O1069 C1046 1.283 . S
O1070 Mn1044 2.094 . S
O1070 C1048 1.240 . S
O1071 Mn1045 2.117 . S
O1071 C1048 1.264 . S
C1072 C1065 1.403 . S
C1072 C1073 1.399 . S
C1072 H1078 0.929 . S
C1073 C1053 1.449 . S
C1073 C1072 1.399 . S
C1073 H1079 0.930 . S
H1074 C1054 0.931 . S
H1075 C1055 0.930 . S
H1076 C1063 0.931 . S
H1077 C1064 0.929 . S
H1078 C1072 0.929 . S
H1079 C1073 0.930 . S
Mn1080 O1085 2.095 . S
Mn1080 O1095 2.162 . S
Mn1080 O1096 2.297 . S
Mn1080 O1104 2.385 . S
Mn1080 O1105 2.209 . S
Mn1080 O1106 2.094 . S
Mn1081 O1086 2.121 . S
Mn1081 N1088 2.257 . S
Mn1081 N1097 2.282 . S
Mn1081 O1105 2.215 . S
Mn1081 O1107 2.117 . S
C1082 O1104 1.234 . S
C1082 O1105 1.283 . S
C1083 O1095 1.281 . S
C1083 O1096 1.236 . S
C1084 O1106 1.240 . S
C1084 O1107 1.264 . S
O1085 Mn1080 2.095 . S
O1085 C1094 1.250 . S
O1086 Mn1081 2.121 . S
O1086 C1094 1.258 . S
C1087 N1088 1.326 . S
C1087 C1091 1.460 . S
C1087 H1093 0.929 . S
N1088 Mn1081 2.257 . S
N1088 C1087 1.326 . S
N1088 C1092 1.362 . S
C1089 C1090 1.258 . S
C1089 C1092 1.431 . S
C1089 C1109 1.449 . S
C1090 C1089 1.258 . S
C1090 C1091 1.477 . S
C1090 H1110 0.931 . S
C1091 C1087 1.460 . S
C1091 C1090 1.477 . S
C1091 H1111 0.930 . S
C1092 N1088 1.362 . S
C1092 C1089 1.431 . S
C1092 C1102 1.476 . S
H1093 C1087 0.929 . S
C1094 O1085 1.250 . S
C1094 O1086 1.258 . S
O1095 Mn1080 2.162 . S
O1095 C1083 1.281 . S
O1096 Mn1080 2.297 . S
O1096 C1083 1.236 . S
N1097 Mn1081 2.282 . S
N1097 C1098 1.328 . S
N1097 C1102 1.318 . S
C1098 N1097 1.328 . S
C1098 C1099 1.457 . S
C1098 H1103 0.929 . S
C1099 C1098 1.457 . S
C1099 C1100 1.291 . S
C1099 H1112 0.931 . S
C1100 C1099 1.291 . S
C1100 C1101 1.373 . S
C1100 H1113 0.929 . S
C1101 C1100 1.373 . S
C1101 C1102 1.396 . S
C1101 C1108 1.403 . S
C1102 C1092 1.476 . S
C1102 N1097 1.318 . S
C1102 C1101 1.396 . S
H1103 C1098 0.929 . S
O1104 Mn1080 2.385 . S
O1104 C1082 1.234 . S
O1105 Mn1080 2.209 . S
O1105 Mn1081 2.215 . S
O1105 C1082 1.283 . S
O1106 Mn1080 2.094 . S
O1106 C1084 1.240 . S
O1107 Mn1081 2.117 . S
O1107 C1084 1.264 . S
C1108 C1101 1.403 . S
C1108 C1109 1.399 . S
C1108 H1114 0.929 . S
C1109 C1089 1.449 . S
C1109 C1108 1.399 . S
C1109 H1115 0.930 . S
H1110 C1090 0.931 . S
H1111 C1091 0.930 . S
H1112 C1099 0.931 . S
H1113 C1100 0.929 . S
H1114 C1108 0.929 . S
H1115 C1109 0.930 . S
Mn1116 O1121 2.095 . S
Mn1116 O1131 2.162 . S
Mn1116 O1132 2.297 . S
Mn1116 O1140 2.385 . S
Mn1116 O1141 2.209 . S
Mn1116 O1142 2.094 . S
Mn1117 O1122 2.121 . S
Mn1117 N1124 2.257 . S
Mn1117 N1133 2.282 . S
Mn1117 O1141 2.215 . S
Mn1117 O1143 2.117 . S
C1118 O1140 1.234 . S
C1118 O1141 1.283 . S
C1119 O1131 1.281 . S
C1119 O1132 1.236 . S
C1120 O1142 1.240 . S
C1120 O1143 1.264 . S
O1121 Mn1116 2.095 . S
O1121 C1130 1.250 . S
O1122 Mn1117 2.121 . S
O1122 C1130 1.258 . S
C1123 N1124 1.326 . S
C1123 C1127 1.460 . S
C1123 H1129 0.929 . S
N1124 Mn1117 2.257 . S
N1124 C1123 1.326 . S
N1124 C1128 1.362 . S
C1125 C1126 1.258 . S
C1125 C1128 1.431 . S
C1125 C1145 1.449 . S
C1126 C1125 1.258 . S
C1126 C1127 1.477 . S
C1126 H1146 0.931 . S
C1127 C1123 1.460 . S
C1127 C1126 1.477 . S
C1127 H1147 0.930 . S
C1128 N1124 1.362 . S
C1128 C1125 1.431 . S
C1128 C1138 1.476 . S
H1129 C1123 0.929 . S
C1130 O1121 1.250 . S
C1130 O1122 1.258 . S
O1131 Mn1116 2.162 . S
O1131 C1119 1.281 . S
O1132 Mn1116 2.297 . S
O1132 C1119 1.236 . S
N1133 Mn1117 2.282 . S
N1133 C1134 1.328 . S
N1133 C1138 1.318 . S
C1134 N1133 1.328 . S
C1134 C1135 1.457 1_655 S
C1134 H1139 0.938 . S
C1135 C1134 1.457 1_455 S
C1135 C1136 1.291 1_455 S
C1135 H1148 0.931 . S
C1136 C1135 1.291 1_655 S
C1136 C1137 1.373 . S
C1136 H1149 0.929 1_655 S
C1137 C1136 1.373 . S
C1137 C1138 1.396 . S
C1137 C1144 1.403 . S
C1138 C1128 1.476 . S
C1138 N1133 1.318 . S
C1138 C1137 1.396 . S
H1139 C1134 0.938 . S
O1140 Mn1116 2.385 . S
O1140 C1118 1.234 . S
O1141 Mn1116 2.209 . S
O1141 Mn1117 2.215 . S
O1141 C1118 1.283 . S
O1142 Mn1116 2.094 . S
O1142 C1120 1.240 . S
O1143 Mn1117 2.117 . S
O1143 C1120 1.264 . S
C1144 C1137 1.403 . S
C1144 C1145 1.399 . S
C1144 H1150 0.929 . S
C1145 C1125 1.449 . S
C1145 C1144 1.399 . S
C1145 H1151 0.930 . S
H1146 C1126 0.931 . S
H1147 C1127 0.930 . S
H1148 C1135 0.931 . S
H1149 C1136 0.929 1_455 S
H1150 C1144 0.929 . S
H1151 C1145 0.930 . S
Mn1152 O1157 2.095 . S
Mn1152 O1167 2.162 . S
Mn1152 O1168 2.297 . S
Mn1152 O1176 2.385 1_565 S
Mn1152 O1177 2.209 . S
Mn1152 O1178 2.094 . S
Mn1153 O1158 2.121 . S
Mn1153 N1160 2.257 . S
Mn1153 N1169 2.282 . S
Mn1153 O1177 2.215 . S
Mn1153 O1179 2.117 . S
C1154 O1176 1.234 . S
C1154 O1177 1.283 1_545 S
C1155 O1167 1.281 . S
C1155 O1168 1.236 . S
C1156 O1178 1.240 . S
C1156 O1179 1.264 . S
O1157 Mn1152 2.095 . S
O1157 C1166 1.250 . S
O1158 Mn1153 2.121 . S
O1158 C1166 1.258 . S
C1159 N1160 1.326 . S
C1159 C1163 1.460 . S
C1159 H1165 0.929 . S
N1160 Mn1153 2.257 . S
N1160 C1159 1.326 . S
N1160 C1164 1.362 . S
C1161 C1162 1.258 . S
C1161 C1164 1.431 . S
C1161 C1181 1.449 1_565 S
C1162 C1161 1.258 . S
C1162 C1163 1.477 . S
C1162 H1182 0.931 . S
C1163 C1159 1.460 . S
C1163 C1162 1.477 . S
C1163 H1183 0.930 . S
C1164 N1160 1.362 . S
C1164 C1161 1.431 . S
C1164 C1174 1.476 . S
H1165 C1159 0.929 . S
C1166 O1157 1.250 . S
C1166 O1158 1.258 . S
O1167 Mn1152 2.162 . S
O1167 C1155 1.281 . S
O1168 Mn1152 2.297 . S
O1168 C1155 1.236 . S
N1169 Mn1153 2.282 . S
N1169 C1170 1.328 . S
N1169 C1174 1.318 . S
C1170 N1169 1.328 . S
C1170 C1171 1.457 1_565 S
C1170 H1175 0.929 . S
C1171 C1170 1.457 1_545 S
C1171 C1172 1.291 . S
C1171 H1184 0.931 . S
C1172 C1171 1.291 . S
C1172 C1173 1.373 . S
C1172 H1185 0.929 . S
C1173 C1172 1.373 . S
C1173 C1174 1.396 1_545 S
C1173 C1180 1.403 . S
C1174 C1164 1.476 . S
C1174 N1169 1.318 . S
C1174 C1173 1.396 1_565 S
H1175 C1170 0.929 . S
O1176 Mn1152 2.385 1_545 S
O1176 C1154 1.234 . S
O1177 Mn1152 2.209 . S
O1177 Mn1153 2.215 . S
O1177 C1154 1.283 1_565 S
O1178 Mn1152 2.094 . S
O1178 C1156 1.240 . S
O1179 Mn1153 2.117 . S
O1179 C1156 1.264 . S
C1180 C1173 1.403 . S
C1180 C1181 1.399 . S
C1180 H1186 0.929 . S
C1181 C1161 1.449 1_545 S
C1181 C1180 1.399 . S
C1181 H1187 0.930 . S
H1182 C1162 0.931 . S
H1183 C1163 0.930 . S
H1184 C1171 0.931 . S
H1185 C1172 0.929 . S
H1186 C1180 0.929 . S
H1187 C1181 0.930 . S
Mn1188 O1193 2.095 . S
Mn1188 O1203 2.162 . S
Mn1188 O1204 2.297 . S
Mn1188 O1212 2.385 . S
Mn1188 O1213 2.209 . S
Mn1188 O1214 2.094 . S
Mn1189 O1194 2.121 . S
Mn1189 N1196 2.257 . S
Mn1189 N1205 2.282 . S
Mn1189 O1213 2.215 . S
Mn1189 O1215 2.117 . S
C1190 O1212 1.234 . S
C1190 O1213 1.283 . S
C1191 O1203 1.281 . S
C1191 O1204 1.236 . S
C1192 O1214 1.240 . S
C1192 O1215 1.264 . S
O1193 Mn1188 2.095 . S
O1193 C1202 1.250 . S
O1194 Mn1189 2.121 . S
O1194 C1202 1.258 . S
C1195 N1196 1.326 . S
C1195 C1199 1.460 . S
C1195 H1201 0.929 . S
N1196 Mn1189 2.257 . S
N1196 C1195 1.326 . S
N1196 C1200 1.362 . S
C1197 C1198 1.258 . S
C1197 C1200 1.431 . S
C1197 C1217 1.449 . S
C1198 C1197 1.258 . S
C1198 C1199 1.477 . S
C1198 H1218 0.931 . S
C1199 C1195 1.460 . S
C1199 C1198 1.477 . S
C1199 H1219 0.930 . S
C1200 N1196 1.362 . S
C1200 C1197 1.431 . S
C1200 C1210 1.476 . S
H1201 C1195 0.929 . S
C1202 O1193 1.250 . S
C1202 O1194 1.258 . S
O1203 Mn1188 2.162 . S
O1203 C1191 1.281 . S
O1204 Mn1188 2.297 . S
O1204 C1191 1.236 . S
N1205 Mn1189 2.282 . S
N1205 C1206 1.328 . S
N1205 C1210 1.318 . S
C1206 N1205 1.328 . S
C1206 C1207 1.457 . S
C1206 H1211 0.929 . S
C1207 C1206 1.457 . S
C1207 C1208 1.291 . S
C1207 H1220 0.931 . S
C1208 C1207 1.291 . S
C1208 C1209 1.373 . S
C1208 H1221 0.929 . S
C1209 C1208 1.373 . S
C1209 C1210 1.396 . S
C1209 C1216 1.403 . S
C1210 C1200 1.476 . S
C1210 N1205 1.318 . S
C1210 C1209 1.396 . S
H1211 C1206 0.929 . S
O1212 Mn1188 2.385 . S
O1212 C1190 1.234 . S
O1213 Mn1188 2.209 . S
O1213 Mn1189 2.215 . S
O1213 C1190 1.283 . S
O1214 Mn1188 2.094 . S
O1214 C1192 1.240 . S
O1215 Mn1189 2.117 . S
O1215 C1192 1.264 . S
C1216 C1209 1.403 . S
C1216 C1217 1.399 . S
C1216 H1222 0.929 . S
C1217 C1197 1.449 . S
C1217 C1216 1.399 . S
C1217 H1223 0.930 . S
H1218 C1198 0.931 . S
H1219 C1199 0.930 . S
H1220 C1207 0.931 . S
H1221 C1208 0.929 . S
H1222 C1216 0.929 . S
H1223 C1217 0.930 . S
Mn1224 O1229 2.095 . S
Mn1224 O1239 2.162 . S
Mn1224 O1240 2.297 . S
Mn1224 O1248 2.385 1_545 S
Mn1224 O1249 2.209 . S
Mn1224 O1250 2.094 . S
Mn1225 O1230 2.121 . S
Mn1225 N1232 2.257 . S
Mn1225 N1241 2.282 . S
Mn1225 O1249 2.215 . S
Mn1225 O1251 2.117 . S
C1226 O1248 1.234 . S
C1226 O1249 1.283 1_565 S
C1227 O1239 1.281 . S
C1227 O1240 1.236 . S
C1228 O1250 1.240 . S
C1228 O1251 1.264 . S
O1229 Mn1224 2.095 . S
O1229 C1238 1.250 . S
O1230 Mn1225 2.121 . S
O1230 C1238 1.258 . S
C1231 N1232 1.326 . S
C1231 C1235 1.460 . S
C1231 H1237 0.929 . S
N1232 Mn1225 2.257 . S
N1232 C1231 1.326 . S
N1232 C1236 1.362 . S
C1233 C1234 1.258 . S
C1233 C1236 1.431 1_455 S
C1233 C1253 1.449 1_545 S
C1234 C1233 1.258 . S
C1234 C1235 1.477 1_455 S
C1234 H1254 0.931 . S
C1235 C1231 1.460 . S
C1235 C1234 1.477 1_655 S
C1235 H1255 0.930 . S
C1236 N1232 1.362 . S
C1236 C1233 1.431 1_655 S
C1236 C1246 1.476 . S
H1237 C1231 0.929 . S
C1238 O1229 1.250 . S
C1238 O1230 1.258 . S
O1239 Mn1224 2.162 . S
O1239 C1227 1.281 . S
O1240 Mn1224 2.297 . S
O1240 C1227 1.236 . S
N1241 Mn1225 2.282 . S
N1241 C1242 1.328 . S
N1241 C1246 1.318 . S
C1242 N1241 1.328 . S
C1242 C1243 1.457 1_545 S
C1242 H1247 0.929 . S
C1243 C1242 1.457 1_565 S
C1243 C1244 1.291 . S
C1243 H1256 0.931 . S
C1244 C1243 1.291 . S
C1244 C1245 1.373 . S
C1244 H1257 0.929 . S
C1245 C1244 1.373 . S
C1245 C1246 1.396 1_565 S
C1245 C1252 1.403 1_655 S
C1246 C1236 1.476 . S
C1246 N1241 1.318 . S
C1246 C1245 1.396 1_545 S
H1247 C1242 0.929 . S
O1248 Mn1224 2.385 1_565 S
O1248 C1226 1.234 . S
O1249 Mn1224 2.209 . S
O1249 Mn1225 2.215 . S
O1249 C1226 1.283 1_545 S
O1250 Mn1224 2.094 . S
O1250 C1228 1.240 . S
O1251 Mn1225 2.117 . S
O1251 C1228 1.264 . S
C1252 C1245 1.403 1_455 S
C1252 C1253 1.399 . S
C1252 H1258 0.929 . S
C1253 C1233 1.449 1_565 S
C1253 C1252 1.399 . S
C1253 H1259 0.930 . S
H1254 C1234 0.931 . S
H1255 C1235 0.930 . S
H1256 C1243 0.931 . S
H1257 C1244 0.929 . S
H1258 C1252 0.929 . S
H1259 C1253 0.930 . S
Mn1260 O1265 2.095 . S
Mn1260 O1275 2.162 . S
Mn1260 O1276 2.297 . S
Mn1260 O1284 2.385 . S
Mn1260 O1285 2.209 . S
Mn1260 O1286 2.094 . S
Mn1261 O1266 2.121 . S
Mn1261 N1268 2.257 . S
Mn1261 N1277 2.282 . S
Mn1261 O1285 2.215 . S
Mn1261 O1287 2.117 . S
C1262 O1284 1.234 . S
C1262 O1285 1.283 . S
C1263 O1275 1.281 . S
C1263 O1276 1.236 . S
C1264 O1286 1.240 . S
C1264 O1287 1.264 . S
O1265 Mn1260 2.095 . S
O1265 C1274 1.250 . S
O1266 Mn1261 2.121 . S
O1266 C1274 1.258 . S
C1267 N1268 1.326 . S
C1267 C1271 1.460 . S
C1267 H1273 0.929 . S
N1268 Mn1261 2.257 . S
N1268 C1267 1.326 . S
N1268 C1272 1.362 . S
C1269 C1270 1.258 . S
C1269 C1272 1.431 . S
C1269 C1289 1.449 . S
C1270 C1269 1.258 . S
C1270 C1271 1.477 . S
C1270 H1290 0.931 . S
C1271 C1267 1.460 . S
C1271 C1270 1.477 . S
C1271 H1291 0.930 . S
C1272 N1268 1.362 . S
C1272 C1269 1.431 . S
C1272 C1282 1.476 . S
H1273 C1267 0.929 . S
C1274 O1265 1.250 . S
C1274 O1266 1.258 . S
O1275 Mn1260 2.162 . S
O1275 C1263 1.281 . S
O1276 Mn1260 2.297 . S
O1276 C1263 1.236 . S
N1277 Mn1261 2.282 . S
N1277 C1278 1.328 . S
N1277 C1282 1.318 . S
C1278 N1277 1.328 . S
C1278 C1279 1.457 1_554 S
C1278 H1283 0.938 . S
C1279 C1278 1.457 1_556 S
C1279 C1280 1.291 1_556 S
C1279 H1292 0.931 . S
C1280 C1279 1.291 1_554 S
C1280 C1281 1.373 . S
C1280 H1293 0.929 1_554 S
C1281 C1280 1.373 . S
C1281 C1282 1.396 . S
C1281 C1288 1.403 . S
C1282 C1272 1.476 . S
C1282 N1277 1.318 . S
C1282 C1281 1.396 . S
H1283 C1278 0.938 . S
O1284 Mn1260 2.385 . S
O1284 C1262 1.234 . S
O1285 Mn1260 2.209 . S
O1285 Mn1261 2.215 . S
O1285 C1262 1.283 . S
O1286 Mn1260 2.094 . S
O1286 C1264 1.240 . S
O1287 Mn1261 2.117 . S
O1287 C1264 1.264 . S
C1288 C1281 1.403 . S
C1288 C1289 1.399 . S
C1288 H1294 0.929 . S
C1289 C1269 1.449 . S
C1289 C1288 1.399 . S
C1289 H1295 0.930 . S
H1290 C1270 0.931 . S
H1291 C1271 0.930 . S
H1292 C1279 0.931 . S
H1293 C1280 0.929 1_556 S
H1294 C1288 0.929 . S
H1295 C1289 0.930 . S
Mn1296 O1301 2.095 . S
Mn1296 O1311 2.162 . S
Mn1296 O1312 2.297 . S
Mn1296 O1320 2.385 1_545 S
Mn1296 O1321 2.209 . S
Mn1296 O1322 2.094 . S
Mn1297 O1302 2.121 . S
Mn1297 N1304 2.257 . S
Mn1297 N1313 2.282 . S
Mn1297 O1321 2.215 . S
Mn1297 O1323 2.117 . S
C1298 O1320 1.234 . S
C1298 O1321 1.283 1_565 S
C1299 O1311 1.281 . S
C1299 O1312 1.236 . S
C1300 O1322 1.240 . S
C1300 O1323 1.264 . S
O1301 Mn1296 2.095 . S
O1301 C1310 1.250 . S
O1302 Mn1297 2.121 . S
O1302 C1310 1.258 . S
C1303 N1304 1.326 . S
C1303 C1307 1.460 . S
C1303 H1309 0.929 . S
N1304 Mn1297 2.257 . S
N1304 C1303 1.326 . S
N1304 C1308 1.362 . S
C1305 C1306 1.258 . S
C1305 C1308 1.431 . S
C1305 C1325 1.449 1_545 S
C1306 C1305 1.258 . S
C1306 C1307 1.477 . S
C1306 H1326 0.931 . S
C1307 C1303 1.460 . S
C1307 C1306 1.477 . S
C1307 H1327 0.930 . S
C1308 N1304 1.362 . S
C1308 C1305 1.431 . S
C1308 C1318 1.476 . S
H1309 C1303 0.929 . S
C1310 O1301 1.250 . S
C1310 O1302 1.258 . S
O1311 Mn1296 2.162 . S
O1311 C1299 1.281 . S
O1312 Mn1296 2.297 . S
O1312 C1299 1.236 . S
N1313 Mn1297 2.282 . S
N1313 C1314 1.328 . S
N1313 C1318 1.318 . S
C1314 N1313 1.328 . S
C1314 C1315 1.457 1_545 S
C1314 H1319 0.929 . S
C1315 C1314 1.457 1_565 S
C1315 C1316 1.291 . S
C1315 H1328 0.931 . S
C1316 C1315 1.291 . S
C1316 C1317 1.373 . S
C1316 H1329 0.929 . S
C1317 C1316 1.373 . S
C1317 C1318 1.396 1_565 S
C1317 C1324 1.403 . S
C1318 C1308 1.476 . S
C1318 N1313 1.318 . S
C1318 C1317 1.396 1_545 S
H1319 C1314 0.929 . S
O1320 Mn1296 2.385 1_565 S
O1320 C1298 1.234 . S
O1321 Mn1296 2.209 . S
O1321 Mn1297 2.215 . S
O1321 C1298 1.283 1_545 S
O1322 Mn1296 2.094 . S
O1322 C1300 1.240 . S
O1323 Mn1297 2.117 . S
O1323 C1300 1.264 . S
C1324 C1317 1.403 . S
C1324 C1325 1.399 . S
C1324 H1330 0.929 . S
C1325 C1305 1.449 1_565 S
C1325 C1324 1.399 . S
C1325 H1331 0.930 . S
H1326 C1306 0.931 . S
H1327 C1307 0.930 . S
H1328 C1315 0.931 . S
H1329 C1316 0.929 . S
H1330 C1324 0.929 . S
H1331 C1325 0.930 . S
Mn1332 O1337 2.095 . S
Mn1332 O1347 2.162 . S
Mn1332 O1348 2.297 . S
Mn1332 O1356 2.385 . S
Mn1332 O1357 2.209 . S
Mn1332 O1358 2.094 . S
Mn1333 O1338 2.121 . S
Mn1333 N1340 2.257 . S
Mn1333 N1349 2.282 . S
Mn1333 O1357 2.215 . S
Mn1333 O1359 2.117 . S
C1334 O1356 1.234 . S
C1334 O1357 1.283 . S
C1335 O1347 1.281 . S
C1335 O1348 1.236 . S
C1336 O1358 1.240 . S
C1336 O1359 1.264 . S
O1337 Mn1332 2.095 . S
O1337 C1346 1.250 . S
O1338 Mn1333 2.121 . S
O1338 C1346 1.258 . S
C1339 N1340 1.326 . S
C1339 C1343 1.460 . S
C1339 H1345 0.929 . S
N1340 Mn1333 2.257 . S
N1340 C1339 1.326 . S
N1340 C1344 1.362 . S
C1341 C1342 1.258 . S
C1341 C1344 1.431 . S
C1341 C1361 1.449 . S
C1342 C1341 1.258 . S
C1342 C1343 1.477 . S
C1342 H1362 0.931 . S
C1343 C1339 1.460 . S
C1343 C1342 1.477 . S
C1343 H1363 0.930 . S
C1344 N1340 1.362 . S
C1344 C1341 1.431 . S
C1344 C1354 1.476 . S
H1345 C1339 0.929 . S
C1346 O1337 1.250 . S
C1346 O1338 1.258 . S
O1347 Mn1332 2.162 . S
O1347 C1335 1.281 . S
O1348 Mn1332 2.297 . S
O1348 C1335 1.236 . S
N1349 Mn1333 2.282 . S
N1349 C1350 1.328 . S
N1349 C1354 1.318 . S
C1350 N1349 1.328 . S
C1350 C1351 1.457 . S
C1350 H1355 0.929 . S
C1351 C1350 1.457 . S
C1351 C1352 1.291 . S
C1351 H1364 0.931 . S
C1352 C1351 1.291 . S
C1352 C1353 1.373 . S
C1352 H1365 0.929 . S
C1353 C1352 1.373 . S
C1353 C1354 1.396 . S
C1353 C1360 1.403 . S
C1354 C1344 1.476 . S
C1354 N1349 1.318 . S
C1354 C1353 1.396 . S
H1355 C1350 0.929 . S
O1356 Mn1332 2.385 . S
O1356 C1334 1.234 . S
O1357 Mn1332 2.209 . S
O1357 Mn1333 2.215 . S
O1357 C1334 1.283 . S
O1358 Mn1332 2.094 . S
O1358 C1336 1.240 . S
O1359 Mn1333 2.117 . S
O1359 C1336 1.264 . S
C1360 C1353 1.403 . S
C1360 C1361 1.399 . S
C1360 H1366 0.929 . S
C1361 C1341 1.449 . S
C1361 C1360 1.399 . S
C1361 H1367 0.930 . S
H1362 C1342 0.931 . S
H1363 C1343 0.930 . S
H1364 C1351 0.931 . S
H1365 C1352 0.929 . S
H1366 C1360 0.929 . S
H1367 C1361 0.930 . S
Mn1368 O1373 2.095 . S
Mn1368 O1383 2.162 . S
Mn1368 O1384 2.297 . S
Mn1368 O1392 2.385 1_565 S
Mn1368 O1393 2.209 . S
Mn1368 O1394 2.094 . S
Mn1369 O1374 2.121 . S
Mn1369 N1376 2.257 . S
Mn1369 N1385 2.282 . S
Mn1369 O1393 2.215 . S
Mn1369 O1395 2.117 . S
C1370 O1392 1.234 . S
C1370 O1393 1.283 1_545 S
C1371 O1383 1.281 . S
C1371 O1384 1.236 . S
C1372 O1394 1.240 . S
C1372 O1395 1.264 . S
O1373 Mn1368 2.095 . S
O1373 C1382 1.250 . S
O1374 Mn1369 2.121 . S
O1374 C1382 1.258 . S
C1375 N1376 1.326 . S
C1375 C1379 1.460 . S
C1375 H1381 0.929 . S
N1376 Mn1369 2.257 . S
N1376 C1375 1.326 . S
N1376 C1380 1.362 . S
C1377 C1378 1.258 . S
C1377 C1380 1.431 1_455 S
C1377 C1397 1.449 1_565 S
C1378 C1377 1.258 . S
C1378 C1379 1.477 1_455 S
C1378 H1398 0.931 . S
C1379 C1375 1.460 . S
C1379 C1378 1.477 1_655 S
C1379 H1399 0.930 . S
C1380 N1376 1.362 . S
C1380 C1377 1.431 1_655 S
C1380 C1390 1.476 . S
H1381 C1375 0.929 . S
C1382 O1373 1.250 . S
C1382 O1374 1.258 . S
O1383 Mn1368 2.162 . S
O1383 C1371 1.281 . S
O1384 Mn1368 2.297 . S
O1384 C1371 1.236 . S
N1385 Mn1369 2.282 . S
N1385 C1386 1.328 . S
N1385 C1390 1.318 . S
C1386 N1385 1.328 . S
C1386 C1387 1.457 1_565 S
C1386 H1391 0.929 . S
C1387 C1386 1.457 1_545 S
C1387 C1388 1.291 . S
C1387 H1400 0.931 . S
C1388 C1387 1.291 . S
C1388 C1389 1.373 . S
C1388 H1401 0.929 . S
C1389 C1388 1.373 . S
C1389 C1390 1.396 1_545 S
C1389 C1396 1.403 1_655 S
C1390 C1380 1.476 . S
C1390 N1385 1.318 . S
C1390 C1389 1.396 1_565 S
H1391 C1386 0.929 . S
O1392 Mn1368 2.385 1_545 S
O1392 C1370 1.234 . S
O1393 Mn1368 2.209 . S
O1393 Mn1369 2.215 . S
O1393 C1370 1.283 1_565 S
O1394 Mn1368 2.094 . S
O1394 C1372 1.240 . S
O1395 Mn1369 2.117 . S
O1395 C1372 1.264 . S
C1396 C1389 1.403 1_455 S
C1396 C1397 1.399 . S
C1396 H1402 0.929 . S
C1397 C1377 1.449 1_545 S
C1397 C1396 1.399 . S
C1397 H1403 0.930 . S
H1398 C1378 0.931 . S
H1399 C1379 0.930 . S
H1400 C1387 0.931 . S
H1401 C1388 0.929 . S
H1402 C1396 0.929 . S
H1403 C1397 0.930 . S
Mn1404 O1409 2.095 . S
Mn1404 O1419 2.162 . S
Mn1404 O1420 2.297 . S
Mn1404 O1428 2.385 . S
Mn1404 O1429 2.209 . S
Mn1404 O1430 2.094 . S
Mn1405 O1410 2.121 . S
Mn1405 N1412 2.257 . S
Mn1405 N1421 2.282 . S
Mn1405 O1429 2.215 . S
Mn1405 O1431 2.117 . S
C1406 O1428 1.234 . S
C1406 O1429 1.283 . S
C1407 O1419 1.281 . S
C1407 O1420 1.236 . S
C1408 O1430 1.240 . S
C1408 O1431 1.264 . S
O1409 Mn1404 2.095 . S
O1409 C1418 1.250 . S
O1410 Mn1405 2.121 . S
O1410 C1418 1.258 . S
C1411 N1412 1.326 . S
C1411 C1415 1.460 . S
C1411 H1417 0.929 . S
N1412 Mn1405 2.257 . S
N1412 C1411 1.326 . S
N1412 C1416 1.362 . S
C1413 C1414 1.258 . S
C1413 C1416 1.431 . S
C1413 C1433 1.449 . S
C1414 C1413 1.258 . S
C1414 C1415 1.477 . S
C1414 H1434 0.931 . S
C1415 C1411 1.460 . S
C1415 C1414 1.477 . S
C1415 H1435 0.930 . S
C1416 N1412 1.362 . S
C1416 C1413 1.431 . S
C1416 C1426 1.476 . S
H1417 C1411 0.929 . S
C1418 O1409 1.250 . S
C1418 O1410 1.258 . S
O1419 Mn1404 2.162 . S
O1419 C1407 1.281 . S
O1420 Mn1404 2.297 . S
O1420 C1407 1.236 . S
N1421 Mn1405 2.282 . S
N1421 C1422 1.328 . S
N1421 C1426 1.318 . S
C1422 N1421 1.328 . S
C1422 C1423 1.457 1_556 S
C1422 H1427 0.938 . S
C1423 C1422 1.457 1_554 S
C1423 C1424 1.291 1_554 S
C1423 H1436 0.931 . S
C1424 C1423 1.291 1_556 S
C1424 C1425 1.373 . S
C1424 H1437 0.929 1_556 S
C1425 C1424 1.373 . S
C1425 C1426 1.396 . S
C1425 C1432 1.403 . S
C1426 C1416 1.476 . S
C1426 N1421 1.318 . S
C1426 C1425 1.396 . S
H1427 C1422 0.938 . S
O1428 Mn1404 2.385 . S
O1428 C1406 1.234 . S
O1429 Mn1404 2.209 . S
O1429 Mn1405 2.215 . S
O1429 C1406 1.283 . S
O1430 Mn1404 2.094 . S
O1430 C1408 1.240 . S
O1431 Mn1405 2.117 . S
O1431 C1408 1.264 . S
C1432 C1425 1.403 . S
C1432 C1433 1.399 . S
C1432 H1438 0.929 . S
C1433 C1413 1.449 . S
C1433 C1432 1.399 . S
C1433 H1439 0.930 . S
H1434 C1414 0.931 . S
H1435 C1415 0.930 . S
H1436 C1423 0.931 . S
H1437 C1424 0.929 1_554 S
H1438 C1432 0.929 . S
H1439 C1433 0.930 . S
Mn1440 O1445 2.095 . S
Mn1440 O1455 2.162 . S
Mn1440 O1456 2.297 . S
Mn1440 O1464 2.385 1_556 S
Mn1440 O1465 2.209 . S
Mn1440 O1466 2.094 . S
Mn1441 O1446 2.121 . S
Mn1441 N1448 2.257 . S
Mn1441 N1457 2.282 . S
Mn1441 O1465 2.215 . S
Mn1441 O1467 2.117 . S
C1442 O1464 1.234 . S
C1442 O1465 1.283 1_554 S
C1443 O1455 1.281 . S
C1443 O1456 1.236 . S
C1444 O1466 1.240 . S
C1444 O1467 1.264 . S
O1445 Mn1440 2.095 . S
O1445 C1454 1.250 . S
O1446 Mn1441 2.121 . S
O1446 C1454 1.258 . S
C1447 N1448 1.326 . S
C1447 C1451 1.460 . S
C1447 H1453 0.929 . S
N1448 Mn1441 2.257 . S
N1448 C1447 1.326 . S
N1448 C1452 1.362 . S
C1449 C1450 1.258 . S
C1449 C1452 1.431 . S
C1449 C1469 1.449 1_556 S
C1450 C1449 1.258 . S
C1450 C1451 1.477 . S
C1450 H1470 0.931 . S
C1451 C1447 1.460 . S
C1451 C1450 1.477 . S
C1451 H1471 0.930 . S
C1452 N1448 1.362 . S
C1452 C1449 1.431 . S
C1452 C1462 1.476 . S
H1453 C1447 0.929 . S
C1454 O1445 1.250 . S
C1454 O1446 1.258 . S
O1455 Mn1440 2.162 . S
O1455 C1443 1.281 . S
O1456 Mn1440 2.297 . S
O1456 C1443 1.236 . S
N1457 Mn1441 2.282 . S
N1457 C1458 1.328 . S
N1457 C1462 1.318 . S
C1458 N1457 1.328 . S
C1458 C1459 1.457 1_556 S
C1458 H1463 0.929 . S
C1459 C1458 1.457 1_554 S
C1459 C1460 1.291 . S
C1459 H1472 0.931 . S
C1460 C1459 1.291 . S
C1460 C1461 1.373 . S
C1460 H1473 0.929 . S
C1461 C1460 1.373 . S
C1461 C1462 1.396 1_554 S
C1461 C1468 1.403 . S
C1462 C1452 1.476 . S
C1462 N1457 1.318 . S
C1462 C1461 1.396 1_556 S
H1463 C1458 0.929 . S
O1464 Mn1440 2.385 1_554 S
O1464 C1442 1.234 . S
O1465 Mn1440 2.209 . S
O1465 Mn1441 2.215 . S
O1465 C1442 1.283 1_556 S
O1466 Mn1440 2.094 . S
O1466 C1444 1.240 . S
O1467 Mn1441 2.117 . S
O1467 C1444 1.264 . S
C1468 C1461 1.403 . S
C1468 C1469 1.399 . S
C1468 H1474 0.929 . S
C1469 C1449 1.449 1_554 S
C1469 C1468 1.399 . S
C1469 H1475 0.930 . S
H1470 C1450 0.931 . S
H1471 C1451 0.930 . S
H1472 C1459 0.931 . S
H1473 C1460 0.929 . S
H1474 C1468 0.929 . S
H1475 C1469 0.930 . S
Mn1476 O1481 2.095 . S
Mn1476 O1491 2.162 . S
Mn1476 O1492 2.297 . S
Mn1476 O1500 2.385 1_554 S
Mn1476 O1501 2.209 . S
Mn1476 O1502 2.094 . S
Mn1477 O1482 2.121 . S
Mn1477 N1484 2.257 . S
Mn1477 N1493 2.282 . S
Mn1477 O1501 2.215 . S
Mn1477 O1503 2.117 . S
C1478 O1500 1.234 . S
C1478 O1501 1.283 1_556 S
C1479 O1491 1.281 . S
C1479 O1492 1.236 . S
C1480 O1502 1.240 . S
C1480 O1503 1.264 . S
O1481 Mn1476 2.095 . S
O1481 C1490 1.250 . S
O1482 Mn1477 2.121 . S
O1482 C1490 1.258 . S
C1483 N1484 1.326 . S
C1483 C1487 1.460 . S
C1483 H1489 0.929 . S
N1484 Mn1477 2.257 . S
N1484 C1483 1.326 . S
N1484 C1488 1.362 . S
C1485 C1486 1.258 . S
C1485 C1488 1.431 1_545 S
C1485 C1505 1.449 1_554 S
C1486 C1485 1.258 . S
C1486 C1487 1.477 1_545 S
C1486 H1506 0.931 . S
C1487 C1483 1.460 . S
C1487 C1486 1.477 1_565 S
C1487 H1507 0.930 . S
C1488 N1484 1.362 . S
C1488 C1485 1.431 1_565 S
C1488 C1498 1.476 . S
H1489 C1483 0.929 . S
C1490 O1481 1.250 . S
C1490 O1482 1.258 . S
O1491 Mn1476 2.162 . S
O1491 C1479 1.281 . S
O1492 Mn1476 2.297 . S
O1492 C1479 1.236 . S
N1493 Mn1477 2.282 . S
N1493 C1494 1.328 . S
N1493 C1498 1.318 . S
C1494 N1493 1.328 . S
C1494 C1495 1.457 1_554 S
C1494 H1499 0.929 . S
C1495 C1494 1.457 1_556 S
C1495 C1496 1.291 . S
C1495 H1508 0.931 . S
C1496 C1495 1.291 . S
C1496 C1497 1.373 . S
C1496 H1509 0.929 . S
C1497 C1496 1.373 . S
C1497 C1498 1.396 1_556 S
C1497 C1504 1.403 1_565 S
C1498 C1488 1.476 . S
C1498 N1493 1.318 . S
C1498 C1497 1.396 1_554 S
H1499 C1494 0.929 . S
O1500 Mn1476 2.385 1_556 S
O1500 C1478 1.234 . S
O1501 Mn1476 2.209 . S
O1501 Mn1477 2.215 . S
O1501 C1478 1.283 1_554 S
O1502 Mn1476 2.094 . S
O1502 C1480 1.240 . S
O1503 Mn1477 2.117 . S
O1503 C1480 1.264 . S
C1504 C1497 1.403 1_545 S
C1504 C1505 1.399 . S
C1504 H1510 0.929 . S
C1505 C1485 1.449 1_556 S
C1505 C1504 1.399 . S
C1505 H1511 0.930 . S
H1506 C1486 0.931 . S
H1507 C1487 0.930 . S
H1508 C1495 0.931 . S
H1509 C1496 0.929 . S
H1510 C1504 0.929 . S
H1511 C1505 0.930 . S
Mn1512 O1517 2.095 . S
Mn1512 O1527 2.162 . S
Mn1512 O1528 2.297 . S
Mn1512 O1536 2.385 . S
Mn1512 O1537 2.209 . S
Mn1512 O1538 2.094 . S
Mn1513 O1518 2.121 . S
Mn1513 N1520 2.257 . S
Mn1513 N1529 2.282 . S
Mn1513 O1537 2.215 . S
Mn1513 O1539 2.117 . S
C1514 O1536 1.234 . S
C1514 O1537 1.283 . S
C1515 O1527 1.281 . S
C1515 O1528 1.236 . S
C1516 O1538 1.240 . S
C1516 O1539 1.264 . S
O1517 Mn1512 2.095 . S
O1517 C1526 1.250 . S
O1518 Mn1513 2.121 . S
O1518 C1526 1.258 . S
C1519 N1520 1.326 . S
C1519 C1523 1.460 . S
C1519 H1525 0.929 . S
N1520 Mn1513 2.257 . S
N1520 C1519 1.326 . S
N1520 C1524 1.362 . S
C1521 C1522 1.258 . S
C1521 C1524 1.431 . S
C1521 C1541 1.449 . S
C1522 C1521 1.258 . S
C1522 C1523 1.477 . S
C1522 H1542 0.931 . S
C1523 C1519 1.460 . S
C1523 C1522 1.477 . S
C1523 H1543 0.930 . S
C1524 N1520 1.362 . S
C1524 C1521 1.431 . S
C1524 C1534 1.476 . S
H1525 C1519 0.929 . S
C1526 O1517 1.250 . S
C1526 O1518 1.258 . S
O1527 Mn1512 2.162 . S
O1527 C1515 1.281 . S
O1528 Mn1512 2.297 . S
O1528 C1515 1.236 . S
N1529 Mn1513 2.282 . S
N1529 C1530 1.328 . S
N1529 C1534 1.318 . S
C1530 N1529 1.328 . S
C1530 C1531 1.457 . S
C1530 H1535 0.929 . S
C1531 C1530 1.457 . S
C1531 C1532 1.291 . S
C1531 H1544 0.931 . S
C1532 C1531 1.291 . S
C1532 C1533 1.373 . S
C1532 H1545 0.929 . S
C1533 C1532 1.373 . S
C1533 C1534 1.396 . S
C1533 C1540 1.403 . S
C1534 C1524 1.476 . S
C1534 N1529 1.318 . S
C1534 C1533 1.396 . S
H1535 C1530 0.929 . S
O1536 Mn1512 2.385 . S
O1536 C1514 1.234 . S
O1537 Mn1512 2.209 . S
O1537 Mn1513 2.215 . S
O1537 C1514 1.283 . S
O1538 Mn1512 2.094 . S
O1538 C1516 1.240 . S
O1539 Mn1513 2.117 . S
O1539 C1516 1.264 . S
C1540 C1533 1.403 . S
C1540 C1541 1.399 . S
C1540 H1546 0.929 . S
C1541 C1521 1.449 . S
C1541 C1540 1.399 . S
C1541 H1547 0.930 . S
H1542 C1522 0.931 . S
H1543 C1523 0.930 . S
H1544 C1531 0.931 . S
H1545 C1532 0.929 . S
H1546 C1540 0.929 . S
H1547 C1541 0.930 . S
Mn1548 O1553 2.095 . S
Mn1548 O1563 2.162 . S
Mn1548 O1564 2.297 . S
Mn1548 O1572 2.385 . S
Mn1548 O1573 2.209 . S
Mn1548 O1574 2.094 . S
Mn1549 O1554 2.121 . S
Mn1549 N1556 2.257 . S
Mn1549 N1565 2.282 . S
Mn1549 O1573 2.215 . S
Mn1549 O1575 2.117 . S
C1550 O1572 1.234 . S
C1550 O1573 1.283 . S
C1551 O1563 1.281 . S
C1551 O1564 1.236 . S
C1552 O1574 1.240 . S
C1552 O1575 1.264 . S
O1553 Mn1548 2.095 . S
O1553 C1562 1.250 . S
O1554 Mn1549 2.121 . S
O1554 C1562 1.258 . S
C1555 N1556 1.326 . S
C1555 C1559 1.460 . S
C1555 H1561 0.929 . S
N1556 Mn1549 2.257 . S
N1556 C1555 1.326 . S
N1556 C1560 1.362 . S
C1557 C1558 1.258 . S
C1557 C1560 1.431 1_565 S
C1557 C1577 1.449 . S
C1558 C1557 1.258 . S
C1558 C1559 1.477 1_565 S
C1558 H1578 0.931 . S
C1559 C1555 1.460 . S
C1559 C1558 1.477 1_545 S
C1559 H1579 0.930 . S
C1560 N1556 1.362 . S
C1560 C1557 1.431 1_545 S
C1560 C1570 1.476 . S
H1561 C1555 0.929 . S
C1562 O1553 1.250 . S
C1562 O1554 1.258 . S
O1563 Mn1548 2.162 . S
O1563 C1551 1.281 . S
O1564 Mn1548 2.297 . S
O1564 C1551 1.236 . S
N1565 Mn1549 2.282 . S
N1565 C1566 1.328 . S
N1565 C1570 1.318 . S
C1566 N1565 1.328 . S
C1566 C1567 1.457 . S
C1566 H1571 0.929 . S
C1567 C1566 1.457 . S
C1567 C1568 1.291 . S
C1567 H1580 0.931 . S
C1568 C1567 1.291 . S
C1568 C1569 1.373 . S
C1568 H1581 0.929 . S
C1569 C1568 1.373 . S
C1569 C1570 1.396 . S
C1569 C1576 1.403 1_545 S
C1570 C1560 1.476 . S
C1570 N1565 1.318 . S
C1570 C1569 1.396 . S
H1571 C1566 0.929 . S
O1572 Mn1548 2.385 . S
O1572 C1550 1.234 . S
O1573 Mn1548 2.209 . S
O1573 Mn1549 2.215 . S
O1573 C1550 1.283 . S
O1574 Mn1548 2.094 . S
O1574 C1552 1.240 . S
O1575 Mn1549 2.117 . S
O1575 C1552 1.264 . S
C1576 C1569 1.403 1_565 S
C1576 C1577 1.399 . S
C1576 H1582 0.929 . S
C1577 C1557 1.449 . S
C1577 C1576 1.399 . S
C1577 H1583 0.930 . S
H1578 C1558 0.931 . S
H1579 C1559 0.930 . S
H1580 C1567 0.931 . S
H1581 C1568 0.929 . S
H1582 C1576 0.929 . S
H1583 C1577 0.930 . S
Mn1584 O1589 2.095 . S
Mn1584 O1599 2.162 . S
Mn1584 O1600 2.297 . S
Mn1584 O1608 2.385 . S
Mn1584 O1609 2.209 . S
Mn1584 O1610 2.094 . S
Mn1585 O1590 2.121 . S
Mn1585 N1592 2.257 . S
Mn1585 N1601 2.282 . S
Mn1585 O1609 2.215 . S
Mn1585 O1611 2.117 . S
C1586 O1608 1.234 . S
C1586 O1609 1.283 . S
C1587 O1599 1.281 . S
C1587 O1600 1.236 . S
C1588 O1610 1.240 . S
C1588 O1611 1.264 . S
O1589 Mn1584 2.095 . S
O1589 C1598 1.250 . S
O1590 Mn1585 2.121 . S
O1590 C1598 1.258 . S
C1591 N1592 1.326 . S
C1591 C1595 1.460 . S
C1591 H1597 0.929 . S
N1592 Mn1585 2.257 . S
N1592 C1591 1.326 . S
N1592 C1596 1.362 . S
C1593 C1594 1.258 . S
C1593 C1596 1.431 . S
C1593 C1613 1.449 . S
C1594 C1593 1.258 . S
C1594 C1595 1.477 . S
C1594 H1614 0.931 . S
C1595 C1591 1.460 . S
C1595 C1594 1.477 . S
C1595 H1615 0.930 . S
C1596 N1592 1.362 . S
C1596 C1593 1.431 . S
C1596 C1606 1.476 . S
H1597 C1591 0.929 . S
C1598 O1589 1.250 . S
C1598 O1590 1.258 . S
O1599 Mn1584 2.162 . S
O1599 C1587 1.281 . S
O1600 Mn1584 2.297 . S
O1600 C1587 1.236 . S
N1601 Mn1585 2.282 . S
N1601 C1602 1.328 . S
N1601 C1606 1.318 . S
C1602 N1601 1.328 . S
C1602 C1603 1.457 1_565 S
C1602 H1607 0.938 . S
C1603 C1602 1.457 1_545 S
C1603 C1604 1.291 1_545 S
C1603 H1616 0.931 . S
C1604 C1603 1.291 1_565 S
C1604 C1605 1.373 . S
C1604 H1617 0.929 1_565 S
C1605 C1604 1.373 . S
C1605 C1606 1.396 . S
C1605 C1612 1.403 . S
C1606 C1596 1.476 . S
C1606 N1601 1.318 . S
C1606 C1605 1.396 . S
H1607 C1602 0.938 . S
O1608 Mn1584 2.385 . S
O1608 C1586 1.234 . S
O1609 Mn1584 2.209 . S
O1609 Mn1585 2.215 . S
O1609 C1586 1.283 . S
O1610 Mn1584 2.094 . S
O1610 C1588 1.240 . S
O1611 Mn1585 2.117 . S
O1611 C1588 1.264 . S
C1612 C1605 1.403 . S
C1612 C1613 1.399 . S
C1612 H1618 0.929 . S
C1613 C1593 1.449 . S
C1613 C1612 1.399 . S
C1613 H1619 0.930 . S
H1614 C1594 0.931 . S
H1615 C1595 0.930 . S
H1616 C1603 0.931 . S
H1617 C1604 0.929 1_545 S
H1618 C1612 0.929 . S
H1619 C1613 0.930 . S
Mn1620 O1625 2.095 . S
Mn1620 O1635 2.162 . S
Mn1620 O1636 2.297 . S
Mn1620 O1644 2.385 . S
Mn1620 O1645 2.209 . S
Mn1620 O1646 2.094 . S
Mn1621 O1626 2.121 . S
Mn1621 N1628 2.257 . S
Mn1621 N1637 2.282 . S
Mn1621 O1645 2.215 . S
Mn1621 O1647 2.117 . S
C1622 O1644 1.234 . S
C1622 O1645 1.283 . S
C1623 O1635 1.281 . S
C1623 O1636 1.236 . S
C1624 O1646 1.240 . S
C1624 O1647 1.264 . S
O1625 Mn1620 2.095 . S
O1625 C1634 1.250 . S
O1626 Mn1621 2.121 . S
O1626 C1634 1.258 . S
C1627 N1628 1.326 . S
C1627 C1631 1.460 . S
C1627 H1633 0.929 . S
N1628 Mn1621 2.257 . S
N1628 C1627 1.326 . S
N1628 C1632 1.362 . S
C1629 C1630 1.258 . S
C1629 C1632 1.431 . S
C1629 C1649 1.449 . S
C1630 C1629 1.258 . S
C1630 C1631 1.477 . S
C1630 H1650 0.931 . S
C1631 C1627 1.460 . S
C1631 C1630 1.477 . S
C1631 H1651 0.930 . S
C1632 N1628 1.362 . S
C1632 C1629 1.431 . S
C1632 C1642 1.476 . S
H1633 C1627 0.929 . S
C1634 O1625 1.250 . S
C1634 O1626 1.258 . S
O1635 Mn1620 2.162 . S
O1635 C1623 1.281 . S
O1636 Mn1620 2.297 . S
O1636 C1623 1.236 . S
N1637 Mn1621 2.282 . S
N1637 C1638 1.328 . S
N1637 C1642 1.318 . S
C1638 N1637 1.328 . S
C1638 C1639 1.457 . S
C1638 H1643 0.929 . S
C1639 C1638 1.457 . S
C1639 C1640 1.291 . S
C1639 H1652 0.931 . S
C1640 C1639 1.291 . S
C1640 C1641 1.373 . S
C1640 H1653 0.929 . S
C1641 C1640 1.373 . S
C1641 C1642 1.396 . S
C1641 C1648 1.403 . S
C1642 C1632 1.476 . S
C1642 N1637 1.318 . S
C1642 C1641 1.396 . S
H1643 C1638 0.929 . S
O1644 Mn1620 2.385 . S
O1644 C1622 1.234 . S
O1645 Mn1620 2.209 . S
O1645 Mn1621 2.215 . S
O1645 C1622 1.283 . S
O1646 Mn1620 2.094 . S
O1646 C1624 1.240 . S
O1647 Mn1621 2.117 . S
O1647 C1624 1.264 . S
C1648 C1641 1.403 . S
C1648 C1649 1.399 . S
C1648 H1654 0.929 . S
C1649 C1629 1.449 . S
C1649 C1648 1.399 . S
C1649 H1655 0.930 . S
H1650 C1630 0.931 . S
H1651 C1631 0.930 . S
H1652 C1639 0.931 . S
H1653 C1640 0.929 . S
H1654 C1648 0.929 . S
H1655 C1649 0.930 . S
Mn1656 O1661 2.095 . S
Mn1656 O1671 2.162 . S
Mn1656 O1672 2.297 . S
Mn1656 O1680 2.385 . S
Mn1656 O1681 2.209 . S
Mn1656 O1682 2.094 . S
Mn1657 O1662 2.121 . S
Mn1657 N1664 2.257 . S
Mn1657 N1673 2.282 . S
Mn1657 O1681 2.215 . S
Mn1657 O1683 2.117 . S
C1658 O1680 1.234 . S
C1658 O1681 1.283 . S
C1659 O1671 1.281 . S
C1659 O1672 1.236 . S
C1660 O1682 1.240 . S
C1660 O1683 1.264 . S
O1661 Mn1656 2.095 . S
O1661 C1670 1.250 . S
O1662 Mn1657 2.121 . S
O1662 C1670 1.258 . S
C1663 N1664 1.326 . S
C1663 C1667 1.460 . S
C1663 H1669 0.929 . S
N1664 Mn1657 2.257 . S
N1664 C1663 1.326 . S
N1664 C1668 1.362 . S
C1665 C1666 1.258 . S
C1665 C1668 1.431 . S
C1665 C1685 1.449 . S
C1666 C1665 1.258 . S
C1666 C1667 1.477 . S
C1666 H1686 0.931 . S
C1667 C1663 1.460 . S
C1667 C1666 1.477 . S
C1667 H1687 0.930 . S
C1668 N1664 1.362 . S
C1668 C1665 1.431 . S
C1668 C1678 1.476 . S
H1669 C1663 0.929 . S
C1670 O1661 1.250 . S
C1670 O1662 1.258 . S
O1671 Mn1656 2.162 . S
O1671 C1659 1.281 . S
O1672 Mn1656 2.297 . S
O1672 C1659 1.236 . S
N1673 Mn1657 2.282 . S
N1673 C1674 1.328 . S
N1673 C1678 1.318 . S
C1674 N1673 1.328 . S
C1674 C1675 1.457 . S
C1674 H1679 0.929 . S
C1675 C1674 1.457 . S
C1675 C1676 1.291 . S
C1675 H1688 0.931 . S
C1676 C1675 1.291 . S
C1676 C1677 1.373 . S
C1676 H1689 0.929 . S
C1677 C1676 1.373 . S
C1677 C1678 1.396 . S
C1677 C1684 1.403 . S
C1678 C1668 1.476 . S
C1678 N1673 1.318 . S
C1678 C1677 1.396 . S
H1679 C1674 0.929 . S
O1680 Mn1656 2.385 . S
O1680 C1658 1.234 . S
O1681 Mn1656 2.209 . S
O1681 Mn1657 2.215 . S
O1681 C1658 1.283 . S
O1682 Mn1656 2.094 . S
O1682 C1660 1.240 . S
O1683 Mn1657 2.117 . S
O1683 C1660 1.264 . S
C1684 C1677 1.403 . S
C1684 C1685 1.399 . S
C1684 H1690 0.929 . S
C1685 C1665 1.449 . S
C1685 C1684 1.399 . S
C1685 H1691 0.930 . S
H1686 C1666 0.931 . S
H1687 C1667 0.930 . S
H1688 C1675 0.931 . S
H1689 C1676 0.929 . S
H1690 C1684 0.929 . S
H1691 C1685 0.930 . S
Mn1692 O1697 2.095 . S
Mn1692 O1707 2.162 . S
Mn1692 O1708 2.297 . S
Mn1692 O1716 2.385 . S
Mn1692 O1717 2.209 . S
Mn1692 O1718 2.094 . S
Mn1693 O1698 2.121 . S
Mn1693 N1700 2.257 . S
Mn1693 N1709 2.282 . S
Mn1693 O1717 2.215 . S
Mn1693 O1719 2.117 . S
C1694 O1716 1.234 . S
C1694 O1717 1.283 . S
C1695 O1707 1.281 . S
C1695 O1708 1.236 . S
C1696 O1718 1.240 . S
C1696 O1719 1.264 . S
O1697 Mn1692 2.095 . S
O1697 C1706 1.250 . S
O1698 Mn1693 2.121 . S
O1698 C1706 1.258 . S
C1699 N1700 1.326 . S
C1699 C1703 1.460 . S
C1699 H1705 0.929 . S
N1700 Mn1693 2.257 . S
N1700 C1699 1.326 . S
N1700 C1704 1.362 . S
C1701 C1702 1.258 . S
C1701 C1704 1.431 . S
C1701 C1721 1.449 . S
C1702 C1701 1.258 . S
C1702 C1703 1.477 . S
C1702 H1722 0.931 . S
C1703 C1699 1.460 . S
C1703 C1702 1.477 . S
C1703 H1723 0.930 . S
C1704 N1700 1.362 . S
C1704 C1701 1.431 . S
C1704 C1714 1.476 . S
H1705 C1699 0.929 . S
C1706 O1697 1.250 . S
C1706 O1698 1.258 . S
O1707 Mn1692 2.162 . S
O1707 C1695 1.281 . S
O1708 Mn1692 2.297 . S
O1708 C1695 1.236 . S
N1709 Mn1693 2.282 . S
N1709 C1710 1.328 . S
N1709 C1714 1.318 . S
C1710 N1709 1.328 . S
C1710 C1711 1.457 . S
C1710 H1715 0.929 . S
C1711 C1710 1.457 . S
C1711 C1712 1.291 . S
C1711 H1724 0.931 . S
C1712 C1711 1.291 . S
C1712 C1713 1.373 . S
C1712 H1725 0.929 . S
C1713 C1712 1.373 . S
C1713 C1714 1.396 . S
C1713 C1720 1.403 . S
C1714 C1704 1.476 . S
C1714 N1709 1.318 . S
C1714 C1713 1.396 . S
H1715 C1710 0.929 . S
O1716 Mn1692 2.385 . S
O1716 C1694 1.234 . S
O1717 Mn1692 2.209 . S
O1717 Mn1693 2.215 . S
O1717 C1694 1.283 . S
O1718 Mn1692 2.094 . S
O1718 C1696 1.240 . S
O1719 Mn1693 2.117 . S
O1719 C1696 1.264 . S
C1720 C1713 1.403 . S
C1720 C1721 1.399 . S
C1720 H1726 0.929 . S
C1721 C1701 1.449 . S
C1721 C1720 1.399 . S
C1721 H1727 0.930 . S
H1722 C1702 0.931 . S
H1723 C1703 0.930 . S
H1724 C1711 0.931 . S
H1725 C1712 0.929 . S
H1726 C1720 0.929 . S
H1727 C1721 0.930 . S
Mn1728 O1733 2.095 . S
Mn1728 O1743 2.162 . S
Mn1728 O1744 2.297 . S
Mn1728 O1752 2.385 . S
Mn1728 O1753 2.209 . S
Mn1728 O1754 2.094 . S
Mn1729 O1734 2.121 . S
Mn1729 N1736 2.257 . S
Mn1729 N1745 2.282 . S
Mn1729 O1753 2.215 . S
Mn1729 O1755 2.117 . S
C1730 O1752 1.234 . S
C1730 O1753 1.283 . S
C1731 O1743 1.281 . S
C1731 O1744 1.236 . S
C1732 O1754 1.240 . S
C1732 O1755 1.264 . S
O1733 Mn1728 2.095 . S
O1733 C1742 1.250 . S
O1734 Mn1729 2.121 . S
O1734 C1742 1.258 . S
C1735 N1736 1.326 . S
C1735 C1739 1.460 . S
C1735 H1741 0.929 . S
N1736 Mn1729 2.257 . S
N1736 C1735 1.326 . S
N1736 C1740 1.362 . S
C1737 C1738 1.258 . S
C1737 C1740 1.431 1_554 S
C1737 C1757 1.449 . S
C1738 C1737 1.258 . S
C1738 C1739 1.477 1_554 S
C1738 H1758 0.931 . S
C1739 C1735 1.460 . S
C1739 C1738 1.477 1_556 S
C1739 H1759 0.930 . S
C1740 N1736 1.362 . S
C1740 C1737 1.431 1_556 S
C1740 C1750 1.476 . S
H1741 C1735 0.929 . S
C1742 O1733 1.250 . S
C1742 O1734 1.258 . S
O1743 Mn1728 2.162 . S
O1743 C1731 1.281 . S
O1744 Mn1728 2.297 . S
O1744 C1731 1.236 . S
N1745 Mn1729 2.282 . S
N1745 C1746 1.328 . S
N1745 C1750 1.318 . S
C1746 N1745 1.328 . S
C1746 C1747 1.457 . S
C1746 H1751 0.929 . S
C1747 C1746 1.457 . S
C1747 C1748 1.291 . S
C1747 H1760 0.931 . S
C1748 C1747 1.291 . S
C1748 C1749 1.373 . S
C1748 H1761 0.929 . S
C1749 C1748 1.373 . S
C1749 C1750 1.396 . S
C1749 C1756 1.403 1_556 S
C1750 C1740 1.476 . S
C1750 N1745 1.318 . S
C1750 C1749 1.396 . S
H1751 C1746 0.929 . S
O1752 Mn1728 2.385 . S
O1752 C1730 1.234 . S
O1753 Mn1728 2.209 . S
O1753 Mn1729 2.215 . S
O1753 C1730 1.283 . S
O1754 Mn1728 2.094 . S
O1754 C1732 1.240 . S
O1755 Mn1729 2.117 . S
O1755 C1732 1.264 . S
C1756 C1749 1.403 1_554 S
C1756 C1757 1.399 . S
C1756 H1762 0.929 . S
C1757 C1737 1.449 . S
C1757 C1756 1.399 . S
C1757 H1763 0.930 . S
H1758 C1738 0.931 . S
H1759 C1739 0.930 . S
H1760 C1747 0.931 . S
H1761 C1748 0.929 . S
H1762 C1756 0.929 . S
H1763 C1757 0.930 . S
Mn1764 O1769 2.095 . S
Mn1764 O1779 2.162 . S
Mn1764 O1780 2.297 . S
Mn1764 O1788 2.385 . S
Mn1764 O1789 2.209 . S
Mn1764 O1790 2.094 . S
Mn1765 O1770 2.121 . S
Mn1765 N1772 2.257 . S
Mn1765 N1781 2.282 . S
Mn1765 O1789 2.215 . S
Mn1765 O1791 2.117 . S
C1766 O1788 1.234 . S
C1766 O1789 1.283 . S
C1767 O1779 1.281 . S
C1767 O1780 1.236 . S
C1768 O1790 1.240 . S
C1768 O1791 1.264 . S
O1769 Mn1764 2.095 . S
O1769 C1778 1.250 . S
O1770 Mn1765 2.121 . S
O1770 C1778 1.258 . S
C1771 N1772 1.326 . S
C1771 C1775 1.460 . S
C1771 H1777 0.929 . S
N1772 Mn1765 2.257 . S
N1772 C1771 1.326 . S
N1772 C1776 1.362 . S
C1773 C1774 1.258 . S
C1773 C1776 1.431 . S
C1773 C1793 1.449 . S
C1774 C1773 1.258 . S
C1774 C1775 1.477 . S
C1774 H1794 0.931 . S
C1775 C1771 1.460 . S
C1775 C1774 1.477 . S
C1775 H1795 0.930 . S
C1776 N1772 1.362 . S
C1776 C1773 1.431 . S
C1776 C1786 1.476 . S
H1777 C1771 0.929 . S
C1778 O1769 1.250 . S
C1778 O1770 1.258 . S
O1779 Mn1764 2.162 . S
O1779 C1767 1.281 . S
O1780 Mn1764 2.297 . S
O1780 C1767 1.236 . S
N1781 Mn1765 2.282 . S
N1781 C1782 1.328 . S
N1781 C1786 1.318 . S
C1782 N1781 1.328 . S
C1782 C1783 1.457 . S
C1782 H1787 0.929 . S
C1783 C1782 1.457 . S
C1783 C1784 1.291 . S
C1783 H1796 0.931 . S
C1784 C1783 1.291 . S
C1784 C1785 1.373 . S
C1784 H1797 0.929 . S
C1785 C1784 1.373 . S
C1785 C1786 1.396 . S
C1785 C1792 1.403 . S
C1786 C1776 1.476 . S
C1786 N1781 1.318 . S
C1786 C1785 1.396 . S
H1787 C1782 0.929 . S
O1788 Mn1764 2.385 . S
O1788 C1766 1.234 . S
O1789 Mn1764 2.209 . S
O1789 Mn1765 2.215 . S
O1789 C1766 1.283 . S
O1790 Mn1764 2.094 . S
O1790 C1768 1.240 . S
O1791 Mn1765 2.117 . S
O1791 C1768 1.264 . S
C1792 C1785 1.403 . S
C1792 C1793 1.399 . S
C1792 H1798 0.929 . S
C1793 C1773 1.449 . S
C1793 C1792 1.399 . S
C1793 H1799 0.930 . S
H1794 C1774 0.931 . S
H1795 C1775 0.930 . S
H1796 C1783 0.931 . S
H1797 C1784 0.929 . S
H1798 C1792 0.929 . S
H1799 C1793 0.930 . S
Mn1800 O1805 2.095 . S
Mn1800 O1815 2.162 . S
Mn1800 O1816 2.297 . S
Mn1800 O1824 2.385 1_655 S
Mn1800 O1825 2.209 . S
Mn1800 O1826 2.094 . S
Mn1801 O1806 2.121 . S
Mn1801 N1808 2.257 . S
Mn1801 N1817 2.282 . S
Mn1801 O1825 2.215 . S
Mn1801 O1827 2.117 . S
C1802 O1824 1.234 . S
C1802 O1825 1.283 1_455 S
C1803 O1815 1.281 . S
C1803 O1816 1.236 . S
C1804 O1826 1.240 . S
C1804 O1827 1.264 . S
O1805 Mn1800 2.095 . S
O1805 C1814 1.250 . S
O1806 Mn1801 2.121 . S
O1806 C1814 1.258 . S
C1807 N1808 1.326 . S
C1807 C1811 1.460 . S
C1807 H1813 0.929 . S
N1808 Mn1801 2.257 . S
N1808 C1807 1.326 . S
N1808 C1812 1.362 . S
C1809 C1810 1.258 . S
C1809 C1812 1.431 . S
C1809 C1829 1.449 1_655 S
C1810 C1809 1.258 . S
C1810 C1811 1.477 . S
C1810 H1830 0.931 . S
C1811 C1807 1.460 . S
C1811 C1810 1.477 . S
C1811 H1831 0.930 . S
C1812 N1808 1.362 . S
C1812 C1809 1.431 . S
C1812 C1822 1.476 . S
H1813 C1807 0.929 . S
C1814 O1805 1.250 . S
C1814 O1806 1.258 . S
O1815 Mn1800 2.162 . S
O1815 C1803 1.281 . S
O1816 Mn1800 2.297 . S
O1816 C1803 1.236 . S
N1817 Mn1801 2.282 . S
N1817 C1818 1.328 . S
N1817 C1822 1.318 . S
C1818 N1817 1.328 . S
C1818 C1819 1.457 1_655 S
C1818 H1823 0.929 . S
C1819 C1818 1.457 1_455 S
C1819 C1820 1.291 . S
C1819 H1832 0.931 . S
C1820 C1819 1.291 . S
C1820 C1821 1.373 . S
C1820 H1833 0.929 . S
C1821 C1820 1.373 . S
C1821 C1822 1.396 1_455 S
C1821 C1828 1.403 . S
C1822 C1812 1.476 . S
C1822 N1817 1.318 . S
C1822 C1821 1.396 1_655 S
H1823 C1818 0.929 . S
O1824 Mn1800 2.385 1_455 S
O1824 C1802 1.234 . S
O1825 Mn1800 2.209 . S
O1825 Mn1801 2.215 . S
O1825 C1802 1.283 1_655 S
O1826 Mn1800 2.094 . S
O1826 C1804 1.240 . S
O1827 Mn1801 2.117 . S
O1827 C1804 1.264 . S
C1828 C1821 1.403 . S
C1828 C1829 1.399 . S
C1828 H1834 0.929 . S
C1829 C1809 1.449 1_455 S
C1829 C1828 1.399 . S
C1829 H1835 0.930 . S
H1830 C1810 0.931 . S
H1831 C1811 0.930 . S
H1832 C1819 0.931 . S
H1833 C1820 0.929 . S
H1834 C1828 0.929 . S
H1835 C1829 0.930 . S
Mn1836 O1841 2.095 . S
Mn1836 O1851 2.162 . S
Mn1836 O1852 2.297 . S
Mn1836 O1860 2.385 . S
Mn1836 O1861 2.209 . S
Mn1836 O1862 2.094 . S
Mn1837 O1842 2.121 . S
Mn1837 N1844 2.257 . S
Mn1837 N1853 2.282 . S
Mn1837 O1861 2.215 . S
Mn1837 O1863 2.117 . S
C1838 O1860 1.234 . S
C1838 O1861 1.283 . S
C1839 O1851 1.281 . S
C1839 O1852 1.236 . S
C1840 O1862 1.240 . S
C1840 O1863 1.264 . S
O1841 Mn1836 2.095 . S
O1841 C1850 1.250 . S
O1842 Mn1837 2.121 . S
O1842 C1850 1.258 . S
C1843 N1844 1.326 . S
C1843 C1847 1.460 . S
C1843 H1849 0.929 . S
N1844 Mn1837 2.257 . S
N1844 C1843 1.326 . S
N1844 C1848 1.362 . S
C1845 C1846 1.258 . S
C1845 C1848 1.431 . S
C1845 C1865 1.449 . S
C1846 C1845 1.258 . S
C1846 C1847 1.477 . S
C1846 H1866 0.931 . S
C1847 C1843 1.460 . S
C1847 C1846 1.477 . S
C1847 H1867 0.930 . S
C1848 N1844 1.362 . S
C1848 C1845 1.431 . S
C1848 C1858 1.476 . S
H1849 C1843 0.929 . S
C1850 O1841 1.250 . S
C1850 O1842 1.258 . S
O1851 Mn1836 2.162 . S
O1851 C1839 1.281 . S
O1852 Mn1836 2.297 . S
O1852 C1839 1.236 . S
N1853 Mn1837 2.282 . S
N1853 C1854 1.328 . S
N1853 C1858 1.318 . S
C1854 N1853 1.328 . S
C1854 C1855 1.457 1_655 S
C1854 H1859 0.938 . S
C1855 C1854 1.457 1_455 S
C1855 C1856 1.291 1_455 S
C1855 H1868 0.931 . S
C1856 C1855 1.291 1_655 S
C1856 C1857 1.373 . S
C1856 H1869 0.929 1_655 S
C1857 C1856 1.373 . S
C1857 C1858 1.396 . S
C1857 C1864 1.403 . S
C1858 C1848 1.476 . S
C1858 N1853 1.318 . S
C1858 C1857 1.396 . S
H1859 C1854 0.938 . S
O1860 Mn1836 2.385 . S
O1860 C1838 1.234 . S
O1861 Mn1836 2.209 . S
O1861 Mn1837 2.215 . S
O1861 C1838 1.283 . S
O1862 Mn1836 2.094 . S
O1862 C1840 1.240 . S
O1863 Mn1837 2.117 . S
O1863 C1840 1.264 . S
C1864 C1857 1.403 . S
C1864 C1865 1.399 . S
C1864 H1870 0.929 . S
C1865 C1845 1.449 . S
C1865 C1864 1.399 . S
C1865 H1871 0.930 . S
H1866 C1846 0.931 . S
H1867 C1847 0.930 . S
H1868 C1855 0.931 . S
H1869 C1856 0.929 1_455 S
H1870 C1864 0.929 . S
H1871 C1865 0.930 . S
Mn1872 O1877 2.095 . S
Mn1872 O1887 2.162 . S
Mn1872 O1888 2.297 . S
Mn1872 O1896 2.385 . S
Mn1872 O1897 2.209 . S
Mn1872 O1898 2.094 . S
Mn1873 O1878 2.121 . S
Mn1873 N1880 2.257 . S
Mn1873 N1889 2.282 . S
Mn1873 O1897 2.215 . S
Mn1873 O1899 2.117 . S
C1874 O1896 1.234 . S
C1874 O1897 1.283 . S
C1875 O1887 1.281 . S
C1875 O1888 1.236 . S
C1876 O1898 1.240 . S
C1876 O1899 1.264 . S
O1877 Mn1872 2.095 . S
O1877 C1886 1.250 . S
O1878 Mn1873 2.121 . S
O1878 C1886 1.258 . S
C1879 N1880 1.326 . S
C1879 C1883 1.460 . S
C1879 H1885 0.929 . S
N1880 Mn1873 2.257 . S
N1880 C1879 1.326 . S
N1880 C1884 1.362 . S
C1881 C1882 1.258 . S
C1881 C1884 1.431 . S
C1881 C1901 1.449 . S
C1882 C1881 1.258 . S
C1882 C1883 1.477 . S
C1882 H1902 0.931 . S
C1883 C1879 1.460 . S
C1883 C1882 1.477 . S
C1883 H1903 0.930 . S
C1884 N1880 1.362 . S
C1884 C1881 1.431 . S
C1884 C1894 1.476 . S
H1885 C1879 0.929 . S
C1886 O1877 1.250 . S
C1886 O1878 1.258 . S
O1887 Mn1872 2.162 . S
O1887 C1875 1.281 . S
O1888 Mn1872 2.297 . S
O1888 C1875 1.236 . S
N1889 Mn1873 2.282 . S
N1889 C1890 1.328 . S
N1889 C1894 1.318 . S
C1890 N1889 1.328 . S
C1890 C1891 1.457 . S
C1890 H1895 0.929 . S
C1891 C1890 1.457 . S
C1891 C1892 1.291 . S
C1891 H1904 0.931 . S
C1892 C1891 1.291 . S
C1892 C1893 1.373 . S
C1892 H1905 0.929 . S
C1893 C1892 1.373 . S
C1893 C1894 1.396 . S
C1893 C1900 1.403 . S
C1894 C1884 1.476 . S
C1894 N1889 1.318 . S
C1894 C1893 1.396 . S
H1895 C1890 0.929 . S
O1896 Mn1872 2.385 . S
O1896 C1874 1.234 . S
O1897 Mn1872 2.209 . S
O1897 Mn1873 2.215 . S
O1897 C1874 1.283 . S
O1898 Mn1872 2.094 . S
O1898 C1876 1.240 . S
O1899 Mn1873 2.117 . S
O1899 C1876 1.264 . S
C1900 C1893 1.403 . S
C1900 C1901 1.399 . S
C1900 H1906 0.929 . S
C1901 C1881 1.449 . S
C1901 C1900 1.399 . S
C1901 H1907 0.930 . S
H1902 C1882 0.931 . S
H1903 C1883 0.930 . S
H1904 C1891 0.931 . S
H1905 C1892 0.929 . S
H1906 C1900 0.929 . S
H1907 C1901 0.930 . S
Mn1908 O1913 2.095 . S
Mn1908 O1923 2.162 . S
Mn1908 O1924 2.297 . S
Mn1908 O1932 2.385 . S
Mn1908 O1933 2.209 . S
Mn1908 O1934 2.094 . S
Mn1909 O1914 2.121 . S
Mn1909 N1916 2.257 . S
Mn1909 N1925 2.282 . S
Mn1909 O1933 2.215 . S
Mn1909 O1935 2.117 . S
C1910 O1932 1.234 . S
C1910 O1933 1.283 . S
C1911 O1923 1.281 . S
C1911 O1924 1.236 . S
C1912 O1934 1.240 . S
C1912 O1935 1.264 . S
O1913 Mn1908 2.095 . S
O1913 C1922 1.250 . S
O1914 Mn1909 2.121 . S
O1914 C1922 1.258 . S
C1915 N1916 1.326 . S
C1915 C1919 1.460 . S
C1915 H1921 0.929 . S
N1916 Mn1909 2.257 . S
N1916 C1915 1.326 . S
N1916 C1920 1.362 . S
C1917 C1918 1.258 . S
C1917 C1920 1.431 . S
C1917 C1937 1.449 . S
C1918 C1917 1.258 . S
C1918 C1919 1.477 . S
C1918 H1938 0.931 . S
C1919 C1915 1.460 . S
C1919 C1918 1.477 . S
C1919 H1939 0.930 . S
C1920 N1916 1.362 . S
C1920 C1917 1.431 . S
C1920 C1930 1.476 . S
H1921 C1915 0.929 . S
C1922 O1913 1.250 . S
C1922 O1914 1.258 . S
O1923 Mn1908 2.162 . S
O1923 C1911 1.281 . S
O1924 Mn1908 2.297 . S
O1924 C1911 1.236 . S
N1925 Mn1909 2.282 . S
N1925 C1926 1.328 . S
N1925 C1930 1.318 . S
C1926 N1925 1.328 . S
C1926 C1927 1.457 1_655 S
C1926 H1931 0.938 . S
C1927 C1926 1.457 1_455 S
C1927 C1928 1.291 1_455 S
C1927 H1940 0.931 . S
C1928 C1927 1.291 1_655 S
C1928 C1929 1.373 . S
C1928 H1941 0.929 1_655 S
C1929 C1928 1.373 . S
C1929 C1930 1.396 . S
C1929 C1936 1.403 . S
C1930 C1920 1.476 . S
C1930 N1925 1.318 . S
C1930 C1929 1.396 . S
H1931 C1926 0.938 . S
O1932 Mn1908 2.385 . S
O1932 C1910 1.234 . S
O1933 Mn1908 2.209 . S
O1933 Mn1909 2.215 . S
O1933 C1910 1.283 . S
O1934 Mn1908 2.094 . S
O1934 C1912 1.240 . S
O1935 Mn1909 2.117 . S
O1935 C1912 1.264 . S
C1936 C1929 1.403 . S
C1936 C1937 1.399 . S
C1936 H1942 0.929 . S
C1937 C1917 1.449 . S
C1937 C1936 1.399 . S
C1937 H1943 0.930 . S
H1938 C1918 0.931 . S
H1939 C1919 0.930 . S
H1940 C1927 0.931 . S
H1941 C1928 0.929 1_455 S
H1942 C1936 0.929 . S
H1943 C1937 0.930 . S
Mn1944 O1949 2.095 . S
Mn1944 O1959 2.162 . S
Mn1944 O1960 2.297 . S
Mn1944 O1968 2.385 1_655 S
Mn1944 O1969 2.209 . S
Mn1944 O1970 2.094 . S
Mn1945 O1950 2.121 . S
Mn1945 N1952 2.257 . S
Mn1945 N1961 2.282 . S
Mn1945 O1969 2.215 . S
Mn1945 O1971 2.117 . S
C1946 O1968 1.234 . S
C1946 O1969 1.283 1_455 S
C1947 O1959 1.281 . S
C1947 O1960 1.236 . S
C1948 O1970 1.240 . S
C1948 O1971 1.264 . S
O1949 Mn1944 2.095 . S
O1949 C1958 1.250 . S
O1950 Mn1945 2.121 . S
O1950 C1958 1.258 . S
C1951 N1952 1.326 . S
C1951 C1955 1.460 . S
C1951 H1957 0.929 . S
N1952 Mn1945 2.257 . S
N1952 C1951 1.326 . S
N1952 C1956 1.362 . S
C1953 C1954 1.258 . S
C1953 C1956 1.431 1_556 S
C1953 C1973 1.449 1_655 S
C1954 C1953 1.258 . S
C1954 C1955 1.477 1_556 S
C1954 H1974 0.931 . S
C1955 C1951 1.460 . S
C1955 C1954 1.477 1_554 S
C1955 H1975 0.930 . S
C1956 N1952 1.362 . S
C1956 C1953 1.431 1_554 S
C1956 C1966 1.476 . S
H1957 C1951 0.929 . S
C1958 O1949 1.250 . S
C1958 O1950 1.258 . S
O1959 Mn1944 2.162 . S
O1959 C1947 1.281 . S
O1960 Mn1944 2.297 . S
O1960 C1947 1.236 . S
N1961 Mn1945 2.282 . S
N1961 C1962 1.328 . S
N1961 C1966 1.318 . S
C1962 N1961 1.328 . S
C1962 C1963 1.457 1_655 S
C1962 H1967 0.929 . S
C1963 C1962 1.457 1_455 S
C1963 C1964 1.291 . S
C1963 H1976 0.931 . S
C1964 C1963 1.291 . S
C1964 C1965 1.373 . S
C1964 H1977 0.929 . S
C1965 C1964 1.373 . S
C1965 C1966 1.396 1_455 S
C1965 C1972 1.403 1_554 S
C1966 C1956 1.476 . S
C1966 N1961 1.318 . S
C1966 C1965 1.396 1_655 S
H1967 C1962 0.929 . S
O1968 Mn1944 2.385 1_455 S
O1968 C1946 1.234 . S
O1969 Mn1944 2.209 . S
O1969 Mn1945 2.215 . S
O1969 C1946 1.283 1_655 S
O1970 Mn1944 2.094 . S
O1970 C1948 1.240 . S
O1971 Mn1945 2.117 . S
O1971 C1948 1.264 . S
C1972 C1965 1.403 1_556 S
C1972 C1973 1.399 . S
C1972 H1978 0.929 . S
C1973 C1953 1.449 1_455 S
C1973 C1972 1.399 . S
C1973 H1979 0.930 . S
H1974 C1954 0.931 . S
H1975 C1955 0.930 . S
H1976 C1963 0.931 . S
H1977 C1964 0.929 . S
H1978 C1972 0.929 . S
H1979 C1973 0.930 . S
Mn1980 O1985 2.095 . S
Mn1980 O1995 2.162 . S
Mn1980 O1996 2.297 . S
Mn1980 O2004 2.385 . S
Mn1980 O2005 2.209 . S
Mn1980 O2006 2.094 . S
Mn1981 O1986 2.121 . S
Mn1981 N1988 2.257 . S
Mn1981 N1997 2.282 . S
Mn1981 O2005 2.215 . S
Mn1981 O2007 2.117 . S
C1982 O2004 1.234 . S
C1982 O2005 1.283 . S
C1983 O1995 1.281 . S
C1983 O1996 1.236 . S
C1984 O2006 1.240 . S
C1984 O2007 1.264 . S
O1985 Mn1980 2.095 . S
O1985 C1994 1.250 . S
O1986 Mn1981 2.121 . S
O1986 C1994 1.258 . S
C1987 N1988 1.326 . S
C1987 C1991 1.460 . S
C1987 H1993 0.929 . S
N1988 Mn1981 2.257 . S
N1988 C1987 1.326 . S
N1988 C1992 1.362 . S
C1989 C1990 1.258 . S
C1989 C1992 1.431 . S
C1989 C2009 1.449 . S
C1990 C1989 1.258 . S
C1990 C1991 1.477 . S
C1990 H2010 0.931 . S
C1991 C1987 1.460 . S
C1991 C1990 1.477 . S
C1991 H2011 0.930 . S
C1992 N1988 1.362 . S
C1992 C1989 1.431 . S
C1992 C2002 1.476 . S
H1993 C1987 0.929 . S
C1994 O1985 1.250 . S
C1994 O1986 1.258 . S
O1995 Mn1980 2.162 . S
O1995 C1983 1.281 . S
O1996 Mn1980 2.297 . S
O1996 C1983 1.236 . S
N1997 Mn1981 2.282 . S
N1997 C1998 1.328 . S
N1997 C2002 1.318 . S
C1998 N1997 1.328 . S
C1998 C1999 1.457 . S
C1998 H2003 0.929 . S
C1999 C1998 1.457 . S
C1999 C2000 1.291 . S
C1999 H2012 0.931 . S
C2000 C1999 1.291 . S
C2000 C2001 1.373 . S
C2000 H2013 0.929 . S
C2001 C2000 1.373 . S
C2001 C2002 1.396 . S
C2001 C2008 1.403 . S
C2002 C1992 1.476 . S
C2002 N1997 1.318 . S
C2002 C2001 1.396 . S
H2003 C1998 0.929 . S
O2004 Mn1980 2.385 . S
O2004 C1982 1.234 . S
O2005 Mn1980 2.209 . S
O2005 Mn1981 2.215 . S
O2005 C1982 1.283 . S
O2006 Mn1980 2.094 . S
O2006 C1984 1.240 . S
O2007 Mn1981 2.117 . S
O2007 C1984 1.264 . S
C2008 C2001 1.403 . S
C2008 C2009 1.399 . S
C2008 H2014 0.929 . S
C2009 C1989 1.449 . S
C2009 C2008 1.399 . S
C2009 H2015 0.930 . S
H2010 C1990 0.931 . S
H2011 C1991 0.930 . S
H2012 C1999 0.931 . S
H2013 C2000 0.929 . S
H2014 C2008 0.929 . S
H2015 C2009 0.930 . S
Mn2016 O2021 2.095 . S
Mn2016 O2031 2.162 . S
Mn2016 O2032 2.297 . S
Mn2016 O2040 2.385 . S
Mn2016 O2041 2.209 . S
Mn2016 O2042 2.094 . S
Mn2017 O2022 2.121 . S
Mn2017 N2024 2.257 . S
Mn2017 N2033 2.282 . S
Mn2017 O2041 2.215 . S
Mn2017 O2043 2.117 . S
C2018 O2040 1.234 . S
C2018 O2041 1.283 . S
C2019 O2031 1.281 . S
C2019 O2032 1.236 . S
C2020 O2042 1.240 . S
C2020 O2043 1.264 . S
O2021 Mn2016 2.095 . S
O2021 C2030 1.250 . S
O2022 Mn2017 2.121 . S
O2022 C2030 1.258 . S
C2023 N2024 1.326 . S
C2023 C2027 1.460 . S
C2023 H2029 0.929 . S
N2024 Mn2017 2.257 . S
N2024 C2023 1.326 . S
N2024 C2028 1.362 . S
C2025 C2026 1.258 . S
C2025 C2028 1.431 1_455 S
C2025 C2045 1.449 . S
C2026 C2025 1.258 . S
C2026 C2027 1.477 1_455 S
C2026 H2046 0.931 . S
C2027 C2023 1.460 . S
C2027 C2026 1.477 1_655 S
C2027 H2047 0.930 . S
C2028 N2024 1.362 . S
C2028 C2025 1.431 1_655 S
C2028 C2038 1.476 . S
H2029 C2023 0.929 . S
C2030 O2021 1.250 . S
C2030 O2022 1.258 . S
O2031 Mn2016 2.162 . S
O2031 C2019 1.281 . S
O2032 Mn2016 2.297 . S
O2032 C2019 1.236 . S
N2033 Mn2017 2.282 . S
N2033 C2034 1.328 . S
N2033 C2038 1.318 . S
C2034 N2033 1.328 . S
C2034 C2035 1.457 . S
C2034 H2039 0.929 . S
C2035 C2034 1.457 . S
C2035 C2036 1.291 . S
C2035 H2048 0.931 . S
C2036 C2035 1.291 . S
C2036 C2037 1.373 . S
C2036 H2049 0.929 . S
C2037 C2036 1.373 . S
C2037 C2038 1.396 . S
C2037 C2044 1.403 1_655 S
C2038 C2028 1.476 . S
C2038 N2033 1.318 . S
C2038 C2037 1.396 . S
H2039 C2034 0.929 . S
O2040 Mn2016 2.385 . S
O2040 C2018 1.234 . S
O2041 Mn2016 2.209 . S
O2041 Mn2017 2.215 . S
O2041 C2018 1.283 . S
O2042 Mn2016 2.094 . S
O2042 C2020 1.240 . S
O2043 Mn2017 2.117 . S
O2043 C2020 1.264 . S
C2044 C2037 1.403 1_455 S
C2044 C2045 1.399 . S
C2044 H2050 0.929 . S
C2045 C2025 1.449 . S
C2045 C2044 1.399 . S
C2045 H2051 0.930 . S
H2046 C2026 0.931 . S
H2047 C2027 0.930 . S
H2048 C2035 0.931 . S
H2049 C2036 0.929 . S
H2050 C2044 0.929 . S
H2051 C2045 0.930 . S
Mn2052 O2057 2.095 . S
Mn2052 O2067 2.162 . S
Mn2052 O2068 2.297 . S
Mn2052 O2076 2.385 . S
Mn2052 O2077 2.209 . S
Mn2052 O2078 2.094 . S
Mn2053 O2058 2.121 . S
Mn2053 N2060 2.257 . S
Mn2053 N2069 2.282 . S
Mn2053 O2077 2.215 . S
Mn2053 O2079 2.117 . S
C2054 O2076 1.234 . S
C2054 O2077 1.283 . S
C2055 O2067 1.281 . S
C2055 O2068 1.236 . S
C2056 O2078 1.240 . S
C2056 O2079 1.264 . S
O2057 Mn2052 2.095 . S
O2057 C2066 1.250 . S
O2058 Mn2053 2.121 . S
O2058 C2066 1.258 . S
C2059 N2060 1.326 . S
C2059 C2063 1.460 . S
C2059 H2065 0.929 . S
N2060 Mn2053 2.257 . S
N2060 C2059 1.326 . S
N2060 C2064 1.362 . S
C2061 C2062 1.258 . S
C2061 C2064 1.431 . S
C2061 C2081 1.449 . S
C2062 C2061 1.258 . S
C2062 C2063 1.477 . S
C2062 H2082 0.931 . S
C2063 C2059 1.460 . S
C2063 C2062 1.477 . S
C2063 H2083 0.930 . S
C2064 N2060 1.362 . S
C2064 C2061 1.431 . S
C2064 C2074 1.476 . S
H2065 C2059 0.929 . S
C2066 O2057 1.250 . S
C2066 O2058 1.258 . S
O2067 Mn2052 2.162 . S
O2067 C2055 1.281 . S
O2068 Mn2052 2.297 . S
O2068 C2055 1.236 . S
N2069 Mn2053 2.282 . S
N2069 C2070 1.328 . S
N2069 C2074 1.318 . S
C2070 N2069 1.328 . S
C2070 C2071 1.457 1_556 S
C2070 H2075 0.938 . S
C2071 C2070 1.457 1_554 S
C2071 C2072 1.291 1_554 S
C2071 H2084 0.931 . S
C2072 C2071 1.291 1_556 S
C2072 C2073 1.373 . S
C2072 H2085 0.929 1_556 S
C2073 C2072 1.373 . S
C2073 C2074 1.396 . S
C2073 C2080 1.403 . S
C2074 C2064 1.476 . S
C2074 N2069 1.318 . S
C2074 C2073 1.396 . S
H2075 C2070 0.938 . S
O2076 Mn2052 2.385 . S
O2076 C2054 1.234 . S
O2077 Mn2052 2.209 . S
O2077 Mn2053 2.215 . S
O2077 C2054 1.283 . S
O2078 Mn2052 2.094 . S
O2078 C2056 1.240 . S
O2079 Mn2053 2.117 . S
O2079 C2056 1.264 . S
C2080 C2073 1.403 . S
C2080 C2081 1.399 . S
C2080 H2086 0.929 . S
C2081 C2061 1.449 . S
C2081 C2080 1.399 . S
C2081 H2087 0.930 . S
H2082 C2062 0.931 . S
H2083 C2063 0.930 . S
H2084 C2071 0.931 . S
H2085 C2072 0.929 1_554 S
H2086 C2080 0.929 . S
H2087 C2081 0.930 . S
Mn2088 O2093 2.095 . S
Mn2088 O2103 2.162 . S
Mn2088 O2104 2.297 . S
Mn2088 O2112 2.385 . S
Mn2088 O2113 2.209 . S
Mn2088 O2114 2.094 . S
Mn2089 O2094 2.121 . S
Mn2089 N2096 2.257 . S
Mn2089 N2105 2.282 . S
Mn2089 O2113 2.215 . S
Mn2089 O2115 2.117 . S
C2090 O2112 1.234 . S
C2090 O2113 1.283 . S
C2091 O2103 1.281 . S
C2091 O2104 1.236 . S
C2092 O2114 1.240 . S
C2092 O2115 1.264 . S
O2093 Mn2088 2.095 . S
O2093 C2102 1.250 . S
O2094 Mn2089 2.121 . S
O2094 C2102 1.258 . S
C2095 N2096 1.326 . S
C2095 C2099 1.460 . S
C2095 H2101 0.929 . S
N2096 Mn2089 2.257 . S
N2096 C2095 1.326 . S
N2096 C2100 1.362 . S
C2097 C2098 1.258 . S
C2097 C2100 1.431 . S
C2097 C2117 1.449 . S
C2098 C2097 1.258 . S
C2098 C2099 1.477 . S
C2098 H2118 0.931 . S
C2099 C2095 1.460 . S
C2099 C2098 1.477 . S
C2099 H2119 0.930 . S
C2100 N2096 1.362 . S
C2100 C2097 1.431 . S
C2100 C2110 1.476 . S
H2101 C2095 0.929 . S
C2102 O2093 1.250 . S
C2102 O2094 1.258 . S
O2103 Mn2088 2.162 . S
O2103 C2091 1.281 . S
O2104 Mn2088 2.297 . S
O2104 C2091 1.236 . S
N2105 Mn2089 2.282 . S
N2105 C2106 1.328 . S
N2105 C2110 1.318 . S
C2106 N2105 1.328 . S
C2106 C2107 1.457 . S
C2106 H2111 0.929 . S
C2107 C2106 1.457 . S
C2107 C2108 1.291 . S
C2107 H2120 0.931 . S
C2108 C2107 1.291 . S
C2108 C2109 1.373 . S
C2108 H2121 0.929 . S
C2109 C2108 1.373 . S
C2109 C2110 1.396 . S
C2109 C2116 1.403 . S
C2110 C2100 1.476 . S
C2110 N2105 1.318 . S
C2110 C2109 1.396 . S
H2111 C2106 0.929 . S
O2112 Mn2088 2.385 . S
O2112 C2090 1.234 . S
O2113 Mn2088 2.209 . S
O2113 Mn2089 2.215 . S
O2113 C2090 1.283 . S
O2114 Mn2088 2.094 . S
O2114 C2092 1.240 . S
O2115 Mn2089 2.117 . S
O2115 C2092 1.264 . S
C2116 C2109 1.403 . S
C2116 C2117 1.399 . S
C2116 H2122 0.929 . S
C2117 C2097 1.449 . S
C2117 C2116 1.399 . S
C2117 H2123 0.930 . S
H2118 C2098 0.931 . S
H2119 C2099 0.930 . S
H2120 C2107 0.931 . S
H2121 C2108 0.929 . S
H2122 C2116 0.929 . S
H2123 C2117 0.930 . S
Mn2124 O2129 2.095 . S
Mn2124 O2139 2.162 . S
Mn2124 O2140 2.297 . S
Mn2124 O2148 2.385 . S
Mn2124 O2149 2.209 . S
Mn2124 O2150 2.094 . S
Mn2125 O2130 2.121 . S
Mn2125 N2132 2.257 . S
Mn2125 N2141 2.282 . S
Mn2125 O2149 2.215 . S
Mn2125 O2151 2.117 . S
C2126 O2148 1.234 . S
C2126 O2149 1.283 . S
C2127 O2139 1.281 . S
C2127 O2140 1.236 . S
C2128 O2150 1.240 . S
C2128 O2151 1.264 . S
O2129 Mn2124 2.095 . S
O2129 C2138 1.250 . S
O2130 Mn2125 2.121 . S
O2130 C2138 1.258 . S
C2131 N2132 1.326 . S
C2131 C2135 1.460 . S
C2131 H2137 0.929 . S
N2132 Mn2125 2.257 . S
N2132 C2131 1.326 . S
N2132 C2136 1.362 . S
C2133 C2134 1.258 . S
C2133 C2136 1.431 . S
C2133 C2153 1.449 . S
C2134 C2133 1.258 . S
C2134 C2135 1.477 . S
C2134 H2154 0.931 . S
C2135 C2131 1.460 . S
C2135 C2134 1.477 . S
C2135 H2155 0.930 . S
C2136 N2132 1.362 . S
C2136 C2133 1.431 . S
C2136 C2146 1.476 . S
H2137 C2131 0.929 . S
C2138 O2129 1.250 . S
C2138 O2130 1.258 . S
O2139 Mn2124 2.162 . S
O2139 C2127 1.281 . S
O2140 Mn2124 2.297 . S
O2140 C2127 1.236 . S
N2141 Mn2125 2.282 . S
N2141 C2142 1.328 . S
N2141 C2146 1.318 . S
C2142 N2141 1.328 . S
C2142 C2143 1.457 . S
C2142 H2147 0.929 . S
C2143 C2142 1.457 . S
C2143 C2144 1.291 . S
C2143 H2156 0.931 . S
C2144 C2143 1.291 . S
C2144 C2145 1.373 . S
C2144 H2157 0.929 . S
C2145 C2144 1.373 . S
C2145 C2146 1.396 . S
C2145 C2152 1.403 . S
C2146 C2136 1.476 . S
C2146 N2141 1.318 . S
C2146 C2145 1.396 . S
H2147 C2142 0.929 . S
O2148 Mn2124 2.385 . S
O2148 C2126 1.234 . S
O2149 Mn2124 2.209 . S
O2149 Mn2125 2.215 . S
O2149 C2126 1.283 . S
O2150 Mn2124 2.094 . S
O2150 C2128 1.240 . S
O2151 Mn2125 2.117 . S
O2151 C2128 1.264 . S
C2152 C2145 1.403 . S
C2152 C2153 1.399 . S
C2152 H2158 0.929 . S
C2153 C2133 1.449 . S
C2153 C2152 1.399 . S
C2153 H2159 0.930 . S
H2154 C2134 0.931 . S
H2155 C2135 0.930 . S
H2156 C2143 0.931 . S
H2157 C2144 0.929 . S
H2158 C2152 0.929 . S
H2159 C2153 0.930 . S
Mn2160 O2165 2.095 . S
Mn2160 O2175 2.162 . S
Mn2160 O2176 2.297 . S
Mn2160 O2184 2.385 . S
Mn2160 O2185 2.209 . S
Mn2160 O2186 2.094 . S
Mn2161 O2166 2.121 . S
Mn2161 N2168 2.257 . S
Mn2161 N2177 2.282 . S
Mn2161 O2185 2.215 . S
Mn2161 O2187 2.117 . S
C2162 O2184 1.234 . S
C2162 O2185 1.283 . S
C2163 O2175 1.281 . S
C2163 O2176 1.236 . S
C2164 O2186 1.240 . S
C2164 O2187 1.264 . S
O2165 Mn2160 2.095 . S
O2165 C2174 1.250 . S
O2166 Mn2161 2.121 . S
O2166 C2174 1.258 . S
C2167 N2168 1.326 . S
C2167 C2171 1.460 . S
C2167 H2173 0.929 . S
N2168 Mn2161 2.257 . S
N2168 C2167 1.326 . S
N2168 C2172 1.362 . S
C2169 C2170 1.258 . S
C2169 C2172 1.431 1_455 S
C2169 C2189 1.449 . S
C2170 C2169 1.258 . S
C2170 C2171 1.477 1_455 S
C2170 H2190 0.931 . S
C2171 C2167 1.460 . S
C2171 C2170 1.477 1_655 S
C2171 H2191 0.930 . S
C2172 N2168 1.362 . S
C2172 C2169 1.431 1_655 S
C2172 C2182 1.476 . S
H2173 C2167 0.929 . S
C2174 O2165 1.250 . S
C2174 O2166 1.258 . S
O2175 Mn2160 2.162 . S
O2175 C2163 1.281 . S
O2176 Mn2160 2.297 . S
O2176 C2163 1.236 . S
N2177 Mn2161 2.282 . S
N2177 C2178 1.328 . S
N2177 C2182 1.318 . S
C2178 N2177 1.328 . S
C2178 C2179 1.457 . S
C2178 H2183 0.929 . S
C2179 C2178 1.457 . S
C2179 C2180 1.291 . S
C2179 H2192 0.931 . S
C2180 C2179 1.291 . S
C2180 C2181 1.373 . S
C2180 H2193 0.929 . S
C2181 C2180 1.373 . S
C2181 C2182 1.396 . S
C2181 C2188 1.403 1_655 S
C2182 C2172 1.476 . S
C2182 N2177 1.318 . S
C2182 C2181 1.396 . S
H2183 C2178 0.929 . S
O2184 Mn2160 2.385 . S
O2184 C2162 1.234 . S
O2185 Mn2160 2.209 . S
O2185 Mn2161 2.215 . S
O2185 C2162 1.283 . S
O2186 Mn2160 2.094 . S
O2186 C2164 1.240 . S
O2187 Mn2161 2.117 . S
O2187 C2164 1.264 . S
C2188 C2181 1.403 1_455 S
C2188 C2189 1.399 . S
C2188 H2194 0.929 . S
C2189 C2169 1.449 . S
C2189 C2188 1.399 . S
C2189 H2195 0.930 . S
H2190 C2170 0.931 . S
H2191 C2171 0.930 . S
H2192 C2179 0.931 . S
H2193 C2180 0.929 . S
H2194 C2188 0.929 . S
H2195 C2189 0.930 . S
Mn2196 O2201 2.095 . S
Mn2196 O2211 2.162 . S
Mn2196 O2212 2.297 . S
Mn2196 O2220 2.385 . S
Mn2196 O2221 2.209 . S
Mn2196 O2222 2.094 . S
Mn2197 O2202 2.121 . S
Mn2197 N2204 2.257 . S
Mn2197 N2213 2.282 . S
Mn2197 O2221 2.215 . S
Mn2197 O2223 2.117 . S
C2198 O2220 1.234 . S
C2198 O2221 1.283 . S
C2199 O2211 1.281 . S
C2199 O2212 1.236 . S
C2200 O2222 1.240 . S
C2200 O2223 1.264 . S
O2201 Mn2196 2.095 . S
O2201 C2210 1.250 . S
O2202 Mn2197 2.121 . S
O2202 C2210 1.258 . S
C2203 N2204 1.326 . S
C2203 C2207 1.460 . S
C2203 H2209 0.929 . S
N2204 Mn2197 2.257 . S
N2204 C2203 1.326 . S
N2204 C2208 1.362 . S
C2205 C2206 1.258 . S
C2205 C2208 1.431 . S
C2205 C2225 1.449 . S
C2206 C2205 1.258 . S
C2206 C2207 1.477 . S
C2206 H2226 0.931 . S
C2207 C2203 1.460 . S
C2207 C2206 1.477 . S
C2207 H2227 0.930 . S
C2208 N2204 1.362 . S
C2208 C2205 1.431 . S
C2208 C2218 1.476 . S
H2209 C2203 0.929 . S
C2210 O2201 1.250 . S
C2210 O2202 1.258 . S
O2211 Mn2196 2.162 . S
O2211 C2199 1.281 . S
O2212 Mn2196 2.297 . S
O2212 C2199 1.236 . S
N2213 Mn2197 2.282 . S
N2213 C2214 1.328 . S
N2213 C2218 1.318 . S
C2214 N2213 1.328 . S
C2214 C2215 1.457 1_554 S
C2214 H2219 0.938 . S
C2215 C2214 1.457 1_556 S
C2215 C2216 1.291 1_556 S
C2215 H2228 0.931 . S
C2216 C2215 1.291 1_554 S
C2216 C2217 1.373 . S
C2216 H2229 0.929 1_554 S
C2217 C2216 1.373 . S
C2217 C2218 1.396 . S
C2217 C2224 1.403 . S
C2218 C2208 1.476 . S
C2218 N2213 1.318 . S
C2218 C2217 1.396 . S
H2219 C2214 0.938 . S
O2220 Mn2196 2.385 . S
O2220 C2198 1.234 . S
O2221 Mn2196 2.209 . S
O2221 Mn2197 2.215 . S
O2221 C2198 1.283 . S
O2222 Mn2196 2.094 . S
O2222 C2200 1.240 . S
O2223 Mn2197 2.117 . S
O2223 C2200 1.264 . S
C2224 C2217 1.403 . S
C2224 C2225 1.399 . S
C2224 H2230 0.929 . S
C2225 C2205 1.449 . S
C2225 C2224 1.399 . S
C2225 H2231 0.930 . S
H2226 C2206 0.931 . S
H2227 C2207 0.930 . S
H2228 C2215 0.931 . S
H2229 C2216 0.929 1_556 S
H2230 C2224 0.929 . S
H2231 C2225 0.930 . S
Mn2232 O2237 2.095 . S
Mn2232 O2247 2.162 . S
Mn2232 O2248 2.297 . S
Mn2232 O2256 2.385 . S
Mn2232 O2257 2.209 . S
Mn2232 O2258 2.094 . S
Mn2233 O2238 2.121 . S
Mn2233 N2240 2.257 . S
Mn2233 N2249 2.282 . S
Mn2233 O2257 2.215 . S
Mn2233 O2259 2.117 . S
C2234 O2256 1.234 . S
C2234 O2257 1.283 . S
C2235 O2247 1.281 . S
C2235 O2248 1.236 . S
C2236 O2258 1.240 . S
C2236 O2259 1.264 . S
O2237 Mn2232 2.095 . S
O2237 C2246 1.250 . S
O2238 Mn2233 2.121 . S
O2238 C2246 1.258 . S
C2239 N2240 1.326 . S
C2239 C2243 1.460 . S
C2239 H2245 0.929 . S
N2240 Mn2233 2.257 . S
N2240 C2239 1.326 . S
N2240 C2244 1.362 . S
C2241 C2242 1.258 . S
C2241 C2244 1.431 . S
C2241 C2261 1.449 . S
C2242 C2241 1.258 . S
C2242 C2243 1.477 . S
C2242 H2262 0.931 . S
C2243 C2239 1.460 . S
C2243 C2242 1.477 . S
C2243 H2263 0.930 . S
C2244 N2240 1.362 . S
C2244 C2241 1.431 . S
C2244 C2254 1.476 . S
H2245 C2239 0.929 . S
C2246 O2237 1.250 . S
C2246 O2238 1.258 . S
O2247 Mn2232 2.162 . S
O2247 C2235 1.281 . S
O2248 Mn2232 2.297 . S
O2248 C2235 1.236 . S
N2249 Mn2233 2.282 . S
N2249 C2250 1.328 . S
N2249 C2254 1.318 . S
C2250 N2249 1.328 . S
C2250 C2251 1.457 . S
C2250 H2255 0.929 . S
C2251 C2250 1.457 . S
C2251 C2252 1.291 . S
C2251 H2264 0.931 . S
C2252 C2251 1.291 . S
C2252 C2253 1.373 . S
C2252 H2265 0.929 . S
C2253 C2252 1.373 . S
C2253 C2254 1.396 . S
C2253 C2260 1.403 . S
C2254 C2244 1.476 . S
C2254 N2249 1.318 . S
C2254 C2253 1.396 . S
H2255 C2250 0.929 . S
O2256 Mn2232 2.385 . S
O2256 C2234 1.234 . S
O2257 Mn2232 2.209 . S
O2257 Mn2233 2.215 . S
O2257 C2234 1.283 . S
O2258 Mn2232 2.094 . S
O2258 C2236 1.240 . S
O2259 Mn2233 2.117 . S
O2259 C2236 1.264 . S
C2260 C2253 1.403 . S
C2260 C2261 1.399 . S
C2260 H2266 0.929 . S
C2261 C2241 1.449 . S
C2261 C2260 1.399 . S
C2261 H2267 0.930 . S
H2262 C2242 0.931 . S
H2263 C2243 0.930 . S
H2264 C2251 0.931 . S
H2265 C2252 0.929 . S
H2266 C2260 0.929 . S
H2267 C2261 0.930 . S
Mn2268 O2273 2.095 . S
Mn2268 O2283 2.162 . S
Mn2268 O2284 2.297 . S
Mn2268 O2292 2.385 . S
Mn2268 O2293 2.209 . S
Mn2268 O2294 2.094 . S
Mn2269 O2274 2.121 . S
Mn2269 N2276 2.257 . S
Mn2269 N2285 2.282 . S
Mn2269 O2293 2.215 . S
Mn2269 O2295 2.117 . S
C2270 O2292 1.234 . S
C2270 O2293 1.283 . S
C2271 O2283 1.281 . S
C2271 O2284 1.236 . S
C2272 O2294 1.240 . S
C2272 O2295 1.264 . S
O2273 Mn2268 2.095 . S
O2273 C2282 1.250 . S
O2274 Mn2269 2.121 . S
O2274 C2282 1.258 . S
C2275 N2276 1.326 . S
C2275 C2279 1.460 . S
C2275 H2281 0.929 . S
N2276 Mn2269 2.257 . S
N2276 C2275 1.326 . S
N2276 C2280 1.362 . S
C2277 C2278 1.258 . S
C2277 C2280 1.431 . S
C2277 C2297 1.449 . S
C2278 C2277 1.258 . S
C2278 C2279 1.477 . S
C2278 H2298 0.931 . S
C2279 C2275 1.460 . S
C2279 C2278 1.477 . S
C2279 H2299 0.930 . S
C2280 N2276 1.362 . S
C2280 C2277 1.431 . S
C2280 C2290 1.476 . S
H2281 C2275 0.929 . S
C2282 O2273 1.250 . S
C2282 O2274 1.258 . S
O2283 Mn2268 2.162 . S
O2283 C2271 1.281 . S
O2284 Mn2268 2.297 . S
O2284 C2271 1.236 . S
N2285 Mn2269 2.282 . S
N2285 C2286 1.328 . S
N2285 C2290 1.318 . S
C2286 N2285 1.328 . S
C2286 C2287 1.457 . S
C2286 H2291 0.929 . S
C2287 C2286 1.457 . S
C2287 C2288 1.291 . S
C2287 H2300 0.931 . S
C2288 C2287 1.291 . S
C2288 C2289 1.373 . S
C2288 H2301 0.929 . S
C2289 C2288 1.373 . S
C2289 C2290 1.396 . S
C2289 C2296 1.403 . S
C2290 C2280 1.476 . S
C2290 N2285 1.318 . S
C2290 C2289 1.396 . S
H2291 C2286 0.929 . S
O2292 Mn2268 2.385 . S
O2292 C2270 1.234 . S
O2293 Mn2268 2.209 . S
O2293 Mn2269 2.215 . S
O2293 C2270 1.283 . S
O2294 Mn2268 2.094 . S
O2294 C2272 1.240 . S
O2295 Mn2269 2.117 . S
O2295 C2272 1.264 . S
C2296 C2289 1.403 . S
C2296 C2297 1.399 . S
C2296 H2302 0.929 . S
C2297 C2277 1.449 . S
C2297 C2296 1.399 . S
C2297 H2303 0.930 . S
H2298 C2278 0.931 . S
H2299 C2279 0.930 . S
H2300 C2287 0.931 . S
H2301 C2288 0.929 . S
H2302 C2296 0.929 . S
H2303 C2297 0.930 . S
Mn2304 O2309 2.095 . S
Mn2304 O2319 2.162 . S
Mn2304 O2320 2.297 . S
Mn2304 O2328 2.385 . S
Mn2304 O2329 2.209 . S
Mn2304 O2330 2.094 . S
Mn2305 O2310 2.121 . S
Mn2305 N2312 2.257 . S
Mn2305 N2321 2.282 . S
Mn2305 O2329 2.215 . S
Mn2305 O2331 2.117 . S
C2306 O2328 1.234 . S
C2306 O2329 1.283 . S
C2307 O2319 1.281 . S
C2307 O2320 1.236 . S
C2308 O2330 1.240 . S
C2308 O2331 1.264 . S
O2309 Mn2304 2.095 . S
O2309 C2318 1.250 . S
O2310 Mn2305 2.121 . S
O2310 C2318 1.258 . S
C2311 N2312 1.326 . S
C2311 C2315 1.460 . S
C2311 H2317 0.929 . S
N2312 Mn2305 2.257 . S
N2312 C2311 1.326 . S
N2312 C2316 1.362 . S
C2313 C2314 1.258 . S
C2313 C2316 1.431 1_545 S
C2313 C2333 1.449 . S
C2314 C2313 1.258 . S
C2314 C2315 1.477 1_545 S
C2314 H2334 0.931 . S
C2315 C2311 1.460 . S
C2315 C2314 1.477 1_565 S
C2315 H2335 0.930 . S
C2316 N2312 1.362 . S
C2316 C2313 1.431 1_565 S
C2316 C2326 1.476 . S
H2317 C2311 0.929 . S
C2318 O2309 1.250 . S
C2318 O2310 1.258 . S
O2319 Mn2304 2.162 . S
O2319 C2307 1.281 . S
O2320 Mn2304 2.297 . S
O2320 C2307 1.236 . S
N2321 Mn2305 2.282 . S
N2321 C2322 1.328 . S
N2321 C2326 1.318 . S
C2322 N2321 1.328 . S
C2322 C2323 1.457 . S
C2322 H2327 0.929 . S
C2323 C2322 1.457 . S
C2323 C2324 1.291 . S
C2323 H2336 0.931 . S
C2324 C2323 1.291 . S
C2324 C2325 1.373 . S
C2324 H2337 0.929 . S
C2325 C2324 1.373 . S
C2325 C2326 1.396 . S
C2325 C2332 1.403 1_565 S
C2326 C2316 1.476 . S
C2326 N2321 1.318 . S
C2326 C2325 1.396 . S
H2327 C2322 0.929 . S
O2328 Mn2304 2.385 . S
O2328 C2306 1.234 . S
O2329 Mn2304 2.209 . S
O2329 Mn2305 2.215 . S
O2329 C2306 1.283 . S
O2330 Mn2304 2.094 . S
O2330 C2308 1.240 . S
O2331 Mn2305 2.117 . S
O2331 C2308 1.264 . S
C2332 C2325 1.403 1_545 S
C2332 C2333 1.399 . S
C2332 H2338 0.929 . S
C2333 C2313 1.449 . S
C2333 C2332 1.399 . S
C2333 H2339 0.930 . S
H2334 C2314 0.931 . S
H2335 C2315 0.930 . S
H2336 C2323 0.931 . S
H2337 C2324 0.929 . S
H2338 C2332 0.929 . S
H2339 C2333 0.930 . S
Mn2340 O2345 2.095 . S
Mn2340 O2355 2.162 . S
Mn2340 O2356 2.297 . S
Mn2340 O2364 2.385 . S
Mn2340 O2365 2.209 . S
Mn2340 O2366 2.094 . S
Mn2341 O2346 2.121 . S
Mn2341 N2348 2.257 . S
Mn2341 N2357 2.282 . S
Mn2341 O2365 2.215 . S
Mn2341 O2367 2.117 . S
C2342 O2364 1.234 . S
C2342 O2365 1.283 . S
C2343 O2355 1.281 . S
C2343 O2356 1.236 . S
C2344 O2366 1.240 . S
C2344 O2367 1.264 . S
O2345 Mn2340 2.095 . S
O2345 C2354 1.250 . S
O2346 Mn2341 2.121 . S
O2346 C2354 1.258 . S
C2347 N2348 1.326 . S
C2347 C2351 1.460 . S
C2347 H2353 0.929 . S
N2348 Mn2341 2.257 . S
N2348 C2347 1.326 . S
N2348 C2352 1.362 . S
C2349 C2350 1.258 . S
C2349 C2352 1.431 . S
C2349 C2369 1.449 . S
C2350 C2349 1.258 . S
C2350 C2351 1.477 . S
C2350 H2370 0.931 . S
C2351 C2347 1.460 . S
C2351 C2350 1.477 . S
C2351 H2371 0.930 . S
C2352 N2348 1.362 . S
C2352 C2349 1.431 . S
C2352 C2362 1.476 . S
H2353 C2347 0.929 . S
C2354 O2345 1.250 . S
C2354 O2346 1.258 . S
O2355 Mn2340 2.162 . S
O2355 C2343 1.281 . S
O2356 Mn2340 2.297 . S
O2356 C2343 1.236 . S
N2357 Mn2341 2.282 . S
N2357 C2358 1.328 . S
N2357 C2362 1.318 . S
C2358 N2357 1.328 . S
C2358 C2359 1.457 . S
C2358 H2363 0.929 . S
C2359 C2358 1.457 . S
C2359 C2360 1.291 . S
C2359 H2372 0.931 . S
C2360 C2359 1.291 . S
C2360 C2361 1.373 . S
C2360 H2373 0.929 . S
C2361 C2360 1.373 . S
C2361 C2362 1.396 . S
C2361 C2368 1.403 . S
C2362 C2352 1.476 . S
C2362 N2357 1.318 . S
C2362 C2361 1.396 . S
H2363 C2358 0.929 . S
O2364 Mn2340 2.385 . S
O2364 C2342 1.234 . S
O2365 Mn2340 2.209 . S
O2365 Mn2341 2.215 . S
O2365 C2342 1.283 . S
O2366 Mn2340 2.094 . S
O2366 C2344 1.240 . S
O2367 Mn2341 2.117 . S
O2367 C2344 1.264 . S
C2368 C2361 1.403 . S
C2368 C2369 1.399 . S
C2368 H2374 0.929 . S
C2369 C2349 1.449 . S
C2369 C2368 1.399 . S
C2369 H2375 0.930 . S
H2370 C2350 0.931 . S
H2371 C2351 0.930 . S
H2372 C2359 0.931 . S
H2373 C2360 0.929 . S
H2374 C2368 0.929 . S
H2375 C2369 0.930 . S
Mn2376 O2381 2.095 . S
Mn2376 O2391 2.162 . S
Mn2376 O2392 2.297 . S
Mn2376 O2400 2.385 . S
Mn2376 O2401 2.209 . S
Mn2376 O2402 2.094 . S
Mn2377 O2382 2.121 . S
Mn2377 N2384 2.257 . S
Mn2377 N2393 2.282 . S
Mn2377 O2401 2.215 . S
Mn2377 O2403 2.117 . S
C2378 O2400 1.234 . S
C2378 O2401 1.283 . S
C2379 O2391 1.281 . S
C2379 O2392 1.236 . S
C2380 O2402 1.240 . S
C2380 O2403 1.264 . S
O2381 Mn2376 2.095 . S
O2381 C2390 1.250 . S
O2382 Mn2377 2.121 . S
O2382 C2390 1.258 . S
C2383 N2384 1.326 . S
C2383 C2387 1.460 . S
C2383 H2389 0.929 . S
N2384 Mn2377 2.257 . S
N2384 C2383 1.326 . S
N2384 C2388 1.362 . S
C2385 C2386 1.258 . S
C2385 C2388 1.431 . S
C2385 C2405 1.449 . S
C2386 C2385 1.258 . S
C2386 C2387 1.477 . S
C2386 H2406 0.931 . S
C2387 C2383 1.460 . S
C2387 C2386 1.477 . S
C2387 H2407 0.930 . S
C2388 N2384 1.362 . S
C2388 C2385 1.431 . S
C2388 C2398 1.476 . S
H2389 C2383 0.929 . S
C2390 O2381 1.250 . S
C2390 O2382 1.258 . S
O2391 Mn2376 2.162 . S
O2391 C2379 1.281 . S
O2392 Mn2376 2.297 . S
O2392 C2379 1.236 . S
N2393 Mn2377 2.282 . S
N2393 C2394 1.328 . S
N2393 C2398 1.318 . S
C2394 N2393 1.328 . S
C2394 C2395 1.457 1_565 S
C2394 H2399 0.938 . S
C2395 C2394 1.457 1_545 S
C2395 C2396 1.291 1_545 S
C2395 H2408 0.931 . S
C2396 C2395 1.291 1_565 S
C2396 C2397 1.373 . S
C2396 H2409 0.929 1_565 S
C2397 C2396 1.373 . S
C2397 C2398 1.396 . S
C2397 C2404 1.403 . S
C2398 C2388 1.476 . S
C2398 N2393 1.318 . S
C2398 C2397 1.396 . S
H2399 C2394 0.938 . S
O2400 Mn2376 2.385 . S
O2400 C2378 1.234 . S
O2401 Mn2376 2.209 . S
O2401 Mn2377 2.215 . S
O2401 C2378 1.283 . S
O2402 Mn2376 2.094 . S
O2402 C2380 1.240 . S
O2403 Mn2377 2.117 . S
O2403 C2380 1.264 . S
C2404 C2397 1.403 . S
C2404 C2405 1.399 . S
C2404 H2410 0.929 . S
C2405 C2385 1.449 . S
C2405 C2404 1.399 . S
C2405 H2411 0.930 . S
H2406 C2386 0.931 . S
H2407 C2387 0.930 . S
H2408 C2395 0.931 . S
H2409 C2396 0.929 1_545 S
H2410 C2404 0.929 . S
H2411 C2405 0.930 . S
Mn2412 O2417 2.095 . S
Mn2412 O2427 2.162 . S
Mn2412 O2428 2.297 . S
Mn2412 O2436 2.385 1_556 S
Mn2412 O2437 2.209 . S
Mn2412 O2438 2.094 . S
Mn2413 O2418 2.121 . S
Mn2413 N2420 2.257 . S
Mn2413 N2429 2.282 . S
Mn2413 O2437 2.215 . S
Mn2413 O2439 2.117 . S
C2414 O2436 1.234 . S
C2414 O2437 1.283 1_554 S
C2415 O2427 1.281 . S
C2415 O2428 1.236 . S
C2416 O2438 1.240 . S
C2416 O2439 1.264 . S
O2417 Mn2412 2.095 . S
O2417 C2426 1.250 . S
O2418 Mn2413 2.121 . S
O2418 C2426 1.258 . S
C2419 N2420 1.326 . S
C2419 C2423 1.460 . S
C2419 H2425 0.929 . S
N2420 Mn2413 2.257 . S
N2420 C2419 1.326 . S
N2420 C2424 1.362 . S
C2421 C2422 1.258 . S
C2421 C2424 1.431 . S
C2421 C2441 1.449 1_556 S
C2422 C2421 1.258 . S
C2422 C2423 1.477 . S
C2422 H2442 0.931 . S
C2423 C2419 1.460 . S
C2423 C2422 1.477 . S
C2423 H2443 0.930 . S
C2424 N2420 1.362 . S
C2424 C2421 1.431 . S
C2424 C2434 1.476 . S
H2425 C2419 0.929 . S
C2426 O2417 1.250 . S
C2426 O2418 1.258 . S
O2427 Mn2412 2.162 . S
O2427 C2415 1.281 . S
O2428 Mn2412 2.297 . S
O2428 C2415 1.236 . S
N2429 Mn2413 2.282 . S
N2429 C2430 1.328 . S
N2429 C2434 1.318 . S
C2430 N2429 1.328 . S
C2430 C2431 1.457 1_556 S
C2430 H2435 0.929 . S
C2431 C2430 1.457 1_554 S
C2431 C2432 1.291 . S
C2431 H2444 0.931 . S
C2432 C2431 1.291 . S
C2432 C2433 1.373 . S
C2432 H2445 0.929 . S
C2433 C2432 1.373 . S
C2433 C2434 1.396 1_554 S
C2433 C2440 1.403 . S
C2434 C2424 1.476 . S
C2434 N2429 1.318 . S
C2434 C2433 1.396 1_556 S
H2435 C2430 0.929 . S
O2436 Mn2412 2.385 1_554 S
O2436 C2414 1.234 . S
O2437 Mn2412 2.209 . S
O2437 Mn2413 2.215 . S
O2437 C2414 1.283 1_556 S
O2438 Mn2412 2.094 . S
O2438 C2416 1.240 . S
O2439 Mn2413 2.117 . S
O2439 C2416 1.264 . S
C2440 C2433 1.403 . S
C2440 C2441 1.399 . S
C2440 H2446 0.929 . S
C2441 C2421 1.449 1_554 S
C2441 C2440 1.399 . S
C2441 H2447 0.930 . S
H2442 C2422 0.931 . S
H2443 C2423 0.930 . S
H2444 C2431 0.931 . S
H2445 C2432 0.929 . S
H2446 C2440 0.929 . S
H2447 C2441 0.930 . S
Mn2448 O2453 2.095 . S
Mn2448 O2463 2.162 . S
Mn2448 O2464 2.297 . S
Mn2448 O2472 2.385 . S
Mn2448 O2473 2.209 . S
Mn2448 O2474 2.094 . S
Mn2449 O2454 2.121 . S
Mn2449 N2456 2.257 . S
Mn2449 N2465 2.282 . S
Mn2449 O2473 2.215 . S
Mn2449 O2475 2.117 . S
C2450 O2472 1.234 . S
C2450 O2473 1.283 . S
C2451 O2463 1.281 . S
C2451 O2464 1.236 . S
C2452 O2474 1.240 . S
C2452 O2475 1.264 . S
O2453 Mn2448 2.095 . S
O2453 C2462 1.250 . S
O2454 Mn2449 2.121 . S
O2454 C2462 1.258 . S
C2455 N2456 1.326 . S
C2455 C2459 1.460 . S
C2455 H2461 0.929 . S
N2456 Mn2449 2.257 . S
N2456 C2455 1.326 . S
N2456 C2460 1.362 . S
C2457 C2458 1.258 . S
C2457 C2460 1.431 . S
C2457 C2477 1.449 . S
C2458 C2457 1.258 . S
C2458 C2459 1.477 . S
C2458 H2478 0.931 . S
C2459 C2455 1.460 . S
C2459 C2458 1.477 . S
C2459 H2479 0.930 . S
C2460 N2456 1.362 . S
C2460 C2457 1.431 . S
C2460 C2470 1.476 . S
H2461 C2455 0.929 . S
C2462 O2453 1.250 . S
C2462 O2454 1.258 . S
O2463 Mn2448 2.162 . S
O2463 C2451 1.281 . S
O2464 Mn2448 2.297 . S
O2464 C2451 1.236 . S
N2465 Mn2449 2.282 . S
N2465 C2466 1.328 . S
N2465 C2470 1.318 . S
C2466 N2465 1.328 . S
C2466 C2467 1.457 . S
C2466 H2471 0.929 . S
C2467 C2466 1.457 . S
C2467 C2468 1.291 . S
C2467 H2480 0.931 . S
C2468 C2467 1.291 . S
C2468 C2469 1.373 . S
C2468 H2481 0.929 . S
C2469 C2468 1.373 . S
C2469 C2470 1.396 . S
C2469 C2476 1.403 . S
C2470 C2460 1.476 . S
C2470 N2465 1.318 . S
C2470 C2469 1.396 . S
H2471 C2466 0.929 . S
O2472 Mn2448 2.385 . S
O2472 C2450 1.234 . S
O2473 Mn2448 2.209 . S
O2473 Mn2449 2.215 . S
O2473 C2450 1.283 . S
O2474 Mn2448 2.094 . S
O2474 C2452 1.240 . S
O2475 Mn2449 2.117 . S
O2475 C2452 1.264 . S
C2476 C2469 1.403 . S
C2476 C2477 1.399 . S
C2476 H2482 0.929 . S
C2477 C2457 1.449 . S
C2477 C2476 1.399 . S
C2477 H2483 0.930 . S
H2478 C2458 0.931 . S
H2479 C2459 0.930 . S
H2480 C2467 0.931 . S
H2481 C2468 0.929 . S
H2482 C2476 0.929 . S
H2483 C2477 0.930 . S
Mn2484 O2489 2.095 . S
Mn2484 O2499 2.162 . S
Mn2484 O2500 2.297 . S
Mn2484 O2508 2.385 1_554 S
Mn2484 O2509 2.209 . S
Mn2484 O2510 2.094 . S
Mn2485 O2490 2.121 . S
Mn2485 N2492 2.257 . S
Mn2485 N2501 2.282 . S
Mn2485 O2509 2.215 . S
Mn2485 O2511 2.117 . S
C2486 O2508 1.234 . S
C2486 O2509 1.283 1_556 S
C2487 O2499 1.281 . S
C2487 O2500 1.236 . S
C2488 O2510 1.240 . S
C2488 O2511 1.264 . S
O2489 Mn2484 2.095 . S
O2489 C2498 1.250 . S
O2490 Mn2485 2.121 . S
O2490 C2498 1.258 . S
C2491 N2492 1.326 . S
C2491 C2495 1.460 . S
C2491 H2497 0.929 . S
N2492 Mn2485 2.257 . S
N2492 C2491 1.326 . S
N2492 C2496 1.362 . S
C2493 C2494 1.258 . S
C2493 C2496 1.431 1_565 S
C2493 C2513 1.449 1_554 S
C2494 C2493 1.258 . S
C2494 C2495 1.477 1_565 S
C2494 H2514 0.931 . S
C2495 C2491 1.460 . S
C2495 C2494 1.477 1_545 S
C2495 H2515 0.930 . S
C2496 N2492 1.362 . S
C2496 C2493 1.431 1_545 S
C2496 C2506 1.476 . S
H2497 C2491 0.929 . S
C2498 O2489 1.250 . S
C2498 O2490 1.258 . S
O2499 Mn2484 2.162 . S
O2499 C2487 1.281 . S
O2500 Mn2484 2.297 . S
O2500 C2487 1.236 . S
N2501 Mn2485 2.282 . S
N2501 C2502 1.328 . S
N2501 C2506 1.318 . S
C2502 N2501 1.328 . S
C2502 C2503 1.457 1_554 S
C2502 H2507 0.929 . S
C2503 C2502 1.457 1_556 S
C2503 C2504 1.291 . S
C2503 H2516 0.931 . S
C2504 C2503 1.291 . S
C2504 C2505 1.373 . S
C2504 H2517 0.929 . S
C2505 C2504 1.373 . S
C2505 C2506 1.396 1_556 S
C2505 C2512 1.403 1_545 S
C2506 C2496 1.476 . S
C2506 N2501 1.318 . S
C2506 C2505 1.396 1_554 S
H2507 C2502 0.929 . S
O2508 Mn2484 2.385 1_556 S
O2508 C2486 1.234 . S
O2509 Mn2484 2.209 . S
O2509 Mn2485 2.215 . S
O2509 C2486 1.283 1_554 S
O2510 Mn2484 2.094 . S
O2510 C2488 1.240 . S
O2511 Mn2485 2.117 . S
O2511 C2488 1.264 . S
C2512 C2505 1.403 1_565 S
C2512 C2513 1.399 . S
C2512 H2518 0.929 . S
C2513 C2493 1.449 1_556 S
C2513 C2512 1.399 . S
C2513 H2519 0.930 . S
H2514 C2494 0.931 . S
H2515 C2495 0.930 . S
H2516 C2503 0.931 . S
H2517 C2504 0.929 . S
H2518 C2512 0.929 . S
H2519 C2513 0.930 . S
Mn2520 O2525 2.095 . S
Mn2520 O2535 2.162 . S
Mn2520 O2536 2.297 . S
Mn2520 O2544 2.385 . S
Mn2520 O2545 2.209 . S
Mn2520 O2546 2.094 . S
Mn2521 O2526 2.121 . S
Mn2521 N2528 2.257 . S
Mn2521 N2537 2.282 . S
Mn2521 O2545 2.215 . S
Mn2521 O2547 2.117 . S
C2522 O2544 1.234 . S
C2522 O2545 1.283 . S
C2523 O2535 1.281 . S
C2523 O2536 1.236 . S
C2524 O2546 1.240 . S
C2524 O2547 1.264 . S
O2525 Mn2520 2.095 . S
O2525 C2534 1.250 . S
O2526 Mn2521 2.121 . S
O2526 C2534 1.258 . S
C2527 N2528 1.326 . S
C2527 C2531 1.460 . S
C2527 H2533 0.929 . S
N2528 Mn2521 2.257 . S
N2528 C2527 1.326 . S
N2528 C2532 1.362 . S
C2529 C2530 1.258 . S
C2529 C2532 1.431 . S
C2529 C2549 1.449 . S
C2530 C2529 1.258 . S
C2530 C2531 1.477 . S
C2530 H2550 0.931 . S
C2531 C2527 1.460 . S
C2531 C2530 1.477 . S
C2531 H2551 0.930 . S
C2532 N2528 1.362 . S
C2532 C2529 1.431 . S
C2532 C2542 1.476 . S
H2533 C2527 0.929 . S
C2534 O2525 1.250 . S
C2534 O2526 1.258 . S
O2535 Mn2520 2.162 . S
O2535 C2523 1.281 . S
O2536 Mn2520 2.297 . S
O2536 C2523 1.236 . S
N2537 Mn2521 2.282 . S
N2537 C2538 1.328 . S
N2537 C2542 1.318 . S
C2538 N2537 1.328 . S
C2538 C2539 1.457 1_545 S
C2538 H2543 0.938 . S
C2539 C2538 1.457 1_565 S
C2539 C2540 1.291 1_565 S
C2539 H2552 0.931 . S
C2540 C2539 1.291 1_545 S
C2540 C2541 1.373 . S
C2540 H2553 0.929 1_545 S
C2541 C2540 1.373 . S
C2541 C2542 1.396 . S
C2541 C2548 1.403 . S
C2542 C2532 1.476 . S
C2542 N2537 1.318 . S
C2542 C2541 1.396 . S
H2543 C2538 0.938 . S
O2544 Mn2520 2.385 . S
O2544 C2522 1.234 . S
O2545 Mn2520 2.209 . S
O2545 Mn2521 2.215 . S
O2545 C2522 1.283 . S
O2546 Mn2520 2.094 . S
O2546 C2524 1.240 . S
O2547 Mn2521 2.117 . S
O2547 C2524 1.264 . S
C2548 C2541 1.403 . S
C2548 C2549 1.399 . S
C2548 H2554 0.929 . S
C2549 C2529 1.449 . S
C2549 C2548 1.399 . S
C2549 H2555 0.930 . S
H2550 C2530 0.931 . S
H2551 C2531 0.930 . S
H2552 C2539 0.931 . S
H2553 C2540 0.929 1_565 S
H2554 C2548 0.929 . S
H2555 C2549 0.930 . S
Mn2556 O2561 2.095 . S
Mn2556 O2571 2.162 . S
Mn2556 O2572 2.297 . S
Mn2556 O2580 2.385 . S
Mn2556 O2581 2.209 . S
Mn2556 O2582 2.094 . S
Mn2557 O2562 2.121 . S
Mn2557 N2564 2.257 . S
Mn2557 N2573 2.282 . S
Mn2557 O2581 2.215 . S
Mn2557 O2583 2.117 . S
C2558 O2580 1.234 . S
C2558 O2581 1.283 . S
C2559 O2571 1.281 . S
C2559 O2572 1.236 . S
C2560 O2582 1.240 . S
C2560 O2583 1.264 . S
O2561 Mn2556 2.095 . S
O2561 C2570 1.250 . S
O2562 Mn2557 2.121 . S
O2562 C2570 1.258 . S
C2563 N2564 1.326 . S
C2563 C2567 1.460 . S
C2563 H2569 0.929 . S
N2564 Mn2557 2.257 . S
N2564 C2563 1.326 . S
N2564 C2568 1.362 . S
C2565 C2566 1.258 . S
C2565 C2568 1.431 . S
C2565 C2585 1.449 . S
C2566 C2565 1.258 . S
C2566 C2567 1.477 . S
C2566 H2586 0.931 . S
C2567 C2563 1.460 . S
C2567 C2566 1.477 . S
C2567 H2587 0.930 . S
C2568 N2564 1.362 . S
C2568 C2565 1.431 . S
C2568 C2578 1.476 . S
H2569 C2563 0.929 . S
C2570 O2561 1.250 . S
C2570 O2562 1.258 . S
O2571 Mn2556 2.162 . S
O2571 C2559 1.281 . S
O2572 Mn2556 2.297 . S
O2572 C2559 1.236 . S
N2573 Mn2557 2.282 . S
N2573 C2574 1.328 . S
N2573 C2578 1.318 . S
C2574 N2573 1.328 . S
C2574 C2575 1.457 1_565 S
C2574 H2579 0.938 . S
C2575 C2574 1.457 1_545 S
C2575 C2576 1.291 1_545 S
C2575 H2588 0.931 . S
C2576 C2575 1.291 1_565 S
C2576 C2577 1.373 . S
C2576 H2589 0.929 1_565 S
C2577 C2576 1.373 . S
C2577 C2578 1.396 . S
C2577 C2584 1.403 . S
C2578 C2568 1.476 . S
C2578 N2573 1.318 . S
C2578 C2577 1.396 . S
H2579 C2574 0.938 . S
O2580 Mn2556 2.385 . S
O2580 C2558 1.234 . S
O2581 Mn2556 2.209 . S
O2581 Mn2557 2.215 . S
O2581 C2558 1.283 . S
O2582 Mn2556 2.094 . S
O2582 C2560 1.240 . S
O2583 Mn2557 2.117 . S
O2583 C2560 1.264 . S
C2584 C2577 1.403 . S
C2584 C2585 1.399 . S
C2584 H2590 0.929 . S
C2585 C2565 1.449 . S
C2585 C2584 1.399 . S
C2585 H2591 0.930 . S
H2586 C2566 0.931 . S
H2587 C2567 0.930 . S
H2588 C2575 0.931 . S
H2589 C2576 0.929 1_545 S
H2590 C2584 0.929 . S
H2591 C2585 0.930 . S
Mn2592 O2597 2.095 . S
Mn2592 O2607 2.162 . S
Mn2592 O2608 2.297 . S
Mn2592 O2616 2.385 . S
Mn2592 O2617 2.209 . S
Mn2592 O2618 2.094 . S
Mn2593 O2598 2.121 . S
Mn2593 N2600 2.257 . S
Mn2593 N2609 2.282 . S
Mn2593 O2617 2.215 . S
Mn2593 O2619 2.117 . S
C2594 O2616 1.234 . S
C2594 O2617 1.283 . S
C2595 O2607 1.281 . S
C2595 O2608 1.236 . S
C2596 O2618 1.240 . S
C2596 O2619 1.264 . S
O2597 Mn2592 2.095 . S
O2597 C2606 1.250 . S
O2598 Mn2593 2.121 . S
O2598 C2606 1.258 . S
C2599 N2600 1.326 . S
C2599 C2603 1.460 . S
C2599 H2605 0.929 . S
N2600 Mn2593 2.257 . S
N2600 C2599 1.326 . S
N2600 C2604 1.362 . S
C2601 C2602 1.258 . S
C2601 C2604 1.431 1_556 S
C2601 C2621 1.449 . S
C2602 C2601 1.258 . S
C2602 C2603 1.477 1_556 S
C2602 H2622 0.931 . S
C2603 C2599 1.460 . S
C2603 C2602 1.477 1_554 S
C2603 H2623 0.930 . S
C2604 N2600 1.362 . S
C2604 C2601 1.431 1_554 S
C2604 C2614 1.476 . S
H2605 C2599 0.929 . S
C2606 O2597 1.250 . S
C2606 O2598 1.258 . S
O2607 Mn2592 2.162 . S
O2607 C2595 1.281 . S
O2608 Mn2592 2.297 . S
O2608 C2595 1.236 . S
N2609 Mn2593 2.282 . S
N2609 C2610 1.328 . S
N2609 C2614 1.318 . S
C2610 N2609 1.328 . S
C2610 C2611 1.457 . S
C2610 H2615 0.929 . S
C2611 C2610 1.457 . S
C2611 C2612 1.291 . S
C2611 H2624 0.931 . S
C2612 C2611 1.291 . S
C2612 C2613 1.373 . S
C2612 H2625 0.929 . S
C2613 C2612 1.373 . S
C2613 C2614 1.396 . S
C2613 C2620 1.403 1_554 S
C2614 C2604 1.476 . S
C2614 N2609 1.318 . S
C2614 C2613 1.396 . S
H2615 C2610 0.929 . S
O2616 Mn2592 2.385 . S
O2616 C2594 1.234 . S
O2617 Mn2592 2.209 . S
O2617 Mn2593 2.215 . S
O2617 C2594 1.283 . S
O2618 Mn2592 2.094 . S
O2618 C2596 1.240 . S
O2619 Mn2593 2.117 . S
O2619 C2596 1.264 . S
C2620 C2613 1.403 1_556 S
C2620 C2621 1.399 . S
C2620 H2626 0.929 . S
C2621 C2601 1.449 . S
C2621 C2620 1.399 . S
C2621 H2627 0.930 . S
H2622 C2602 0.931 . S
H2623 C2603 0.930 . S
H2624 C2611 0.931 . S
H2625 C2612 0.929 . S
H2626 C2620 0.929 . S
H2627 C2621 0.930 . S
Mn2628 O2633 2.095 . S
Mn2628 O2643 2.162 . S
Mn2628 O2644 2.297 . S
Mn2628 O2652 2.385 . S
Mn2628 O2653 2.209 . S
Mn2628 O2654 2.094 . S
Mn2629 O2634 2.121 . S
Mn2629 N2636 2.257 . S
Mn2629 N2645 2.282 . S
Mn2629 O2653 2.215 . S
Mn2629 O2655 2.117 . S
C2630 O2652 1.234 . S
C2630 O2653 1.283 . S
C2631 O2643 1.281 . S
C2631 O2644 1.236 . S
C2632 O2654 1.240 . S
C2632 O2655 1.264 . S
O2633 Mn2628 2.095 . S
O2633 C2642 1.250 . S
O2634 Mn2629 2.121 . S
O2634 C2642 1.258 . S
C2635 N2636 1.326 . S
C2635 C2639 1.460 . S
C2635 H2641 0.929 . S
N2636 Mn2629 2.257 . S
N2636 C2635 1.326 . S
N2636 C2640 1.362 . S
C2637 C2638 1.258 . S
C2637 C2640 1.431 . S
C2637 C2657 1.449 . S
C2638 C2637 1.258 . S
C2638 C2639 1.477 . S
C2638 H2658 0.931 . S
C2639 C2635 1.460 . S
C2639 C2638 1.477 . S
C2639 H2659 0.930 . S
C2640 N2636 1.362 . S
C2640 C2637 1.431 . S
C2640 C2650 1.476 . S
H2641 C2635 0.929 . S
C2642 O2633 1.250 . S
C2642 O2634 1.258 . S
O2643 Mn2628 2.162 . S
O2643 C2631 1.281 . S
O2644 Mn2628 2.297 . S
O2644 C2631 1.236 . S
N2645 Mn2629 2.282 . S
N2645 C2646 1.328 . S
N2645 C2650 1.318 . S
C2646 N2645 1.328 . S
C2646 C2647 1.457 . S
C2646 H2651 0.929 . S
C2647 C2646 1.457 . S
C2647 C2648 1.291 . S
C2647 H2660 0.931 . S
C2648 C2647 1.291 . S
C2648 C2649 1.373 . S
C2648 H2661 0.929 . S
C2649 C2648 1.373 . S
C2649 C2650 1.396 . S
C2649 C2656 1.403 . S
C2650 C2640 1.476 . S
C2650 N2645 1.318 . S
C2650 C2649 1.396 . S
H2651 C2646 0.929 . S
O2652 Mn2628 2.385 . S
O2652 C2630 1.234 . S
O2653 Mn2628 2.209 . S
O2653 Mn2629 2.215 . S
O2653 C2630 1.283 . S
O2654 Mn2628 2.094 . S
O2654 C2632 1.240 . S
O2655 Mn2629 2.117 . S
O2655 C2632 1.264 . S
C2656 C2649 1.403 . S
C2656 C2657 1.399 . S
C2656 H2662 0.929 . S
C2657 C2637 1.449 . S
C2657 C2656 1.399 . S
C2657 H2663 0.930 . S
H2658 C2638 0.931 . S
H2659 C2639 0.930 . S
H2660 C2647 0.931 . S
H2661 C2648 0.929 . S
H2662 C2656 0.929 . S
H2663 C2657 0.930 . S
Mn2664 O2669 2.095 . S
Mn2664 O2679 2.162 . S
Mn2664 O2680 2.297 . S
Mn2664 O2688 2.385 1_455 S
Mn2664 O2689 2.209 . S
Mn2664 O2690 2.094 . S
Mn2665 O2670 2.121 . S
Mn2665 N2672 2.257 . S
Mn2665 N2681 2.282 . S
Mn2665 O2689 2.215 . S
Mn2665 O2691 2.117 . S
C2666 O2688 1.234 . S
C2666 O2689 1.283 1_655 S
C2667 O2679 1.281 . S
C2667 O2680 1.236 . S
C2668 O2690 1.240 . S
C2668 O2691 1.264 . S
O2669 Mn2664 2.095 . S
O2669 C2678 1.250 . S
O2670 Mn2665 2.121 . S
O2670 C2678 1.258 . S
C2671 N2672 1.326 . S
C2671 C2675 1.460 . S
C2671 H2677 0.929 . S
N2672 Mn2665 2.257 . S
N2672 C2671 1.326 . S
N2672 C2676 1.362 . S
C2673 C2674 1.258 . S
C2673 C2676 1.431 . S
C2673 C2693 1.449 1_455 S
C2674 C2673 1.258 . S
C2674 C2675 1.477 . S
C2674 H2694 0.931 . S
C2675 C2671 1.460 . S
C2675 C2674 1.477 . S
C2675 H2695 0.930 . S
C2676 N2672 1.362 . S
C2676 C2673 1.431 . S
C2676 C2686 1.476 . S
H2677 C2671 0.929 . S
C2678 O2669 1.250 . S
C2678 O2670 1.258 . S
O2679 Mn2664 2.162 . S
O2679 C2667 1.281 . S
O2680 Mn2664 2.297 . S
O2680 C2667 1.236 . S
N2681 Mn2665 2.282 . S
N2681 C2682 1.328 . S
N2681 C2686 1.318 . S
C2682 N2681 1.328 . S
C2682 C2683 1.457 1_455 S
C2682 H2687 0.929 . S
C2683 C2682 1.457 1_655 S
C2683 C2684 1.291 . S
C2683 H2696 0.931 . S
C2684 C2683 1.291 . S
C2684 C2685 1.373 . S
C2684 H2697 0.929 . S
C2685 C2684 1.373 . S
C2685 C2686 1.396 1_655 S
C2685 C2692 1.403 . S
C2686 C2676 1.476 . S
C2686 N2681 1.318 . S
C2686 C2685 1.396 1_455 S
H2687 C2682 0.929 . S
O2688 Mn2664 2.385 1_655 S
O2688 C2666 1.234 . S
O2689 Mn2664 2.209 . S
O2689 Mn2665 2.215 . S
O2689 C2666 1.283 1_455 S
O2690 Mn2664 2.094 . S
O2690 C2668 1.240 . S
O2691 Mn2665 2.117 . S
O2691 C2668 1.264 . S
C2692 C2685 1.403 . S
C2692 C2693 1.399 . S
C2692 H2698 0.929 . S
C2693 C2673 1.449 1_655 S
C2693 C2692 1.399 . S
C2693 H2699 0.930 . S
H2694 C2674 0.931 . S
H2695 C2675 0.930 . S
H2696 C2683 0.931 . S
H2697 C2684 0.929 . S
H2698 C2692 0.929 . S
H2699 C2693 0.930 . S
Mn2700 O2705 2.095 . S
Mn2700 O2715 2.162 . S
Mn2700 O2716 2.297 . S
Mn2700 O2724 2.385 . S
Mn2700 O2725 2.209 . S
Mn2700 O2726 2.094 . S
Mn2701 O2706 2.121 . S
Mn2701 N2708 2.257 . S
Mn2701 N2717 2.282 . S
Mn2701 O2725 2.215 . S
Mn2701 O2727 2.117 . S
C2702 O2724 1.234 . S
C2702 O2725 1.283 . S
C2703 O2715 1.281 . S
C2703 O2716 1.236 . S
C2704 O2726 1.240 . S
C2704 O2727 1.264 . S
O2705 Mn2700 2.095 . S
O2705 C2714 1.250 . S
O2706 Mn2701 2.121 . S
O2706 C2714 1.258 . S
C2707 N2708 1.326 . S
C2707 C2711 1.460 . S
C2707 H2713 0.929 . S
N2708 Mn2701 2.257 . S
N2708 C2707 1.326 . S
N2708 C2712 1.362 . S
C2709 C2710 1.258 . S
C2709 C2712 1.431 . S
C2709 C2729 1.449 . S
C2710 C2709 1.258 . S
C2710 C2711 1.477 . S
C2710 H2730 0.931 . S
C2711 C2707 1.460 . S
C2711 C2710 1.477 . S
C2711 H2731 0.930 . S
C2712 N2708 1.362 . S
C2712 C2709 1.431 . S
C2712 C2722 1.476 . S
H2713 C2707 0.929 . S
C2714 O2705 1.250 . S
C2714 O2706 1.258 . S
O2715 Mn2700 2.162 . S
O2715 C2703 1.281 . S
O2716 Mn2700 2.297 . S
O2716 C2703 1.236 . S
N2717 Mn2701 2.282 . S
N2717 C2718 1.328 . S
N2717 C2722 1.318 . S
C2718 N2717 1.328 . S
C2718 C2719 1.457 1_455 S
C2718 H2723 0.938 . S
C2719 C2718 1.457 1_655 S
C2719 C2720 1.291 1_655 S
C2719 H2732 0.931 . S
C2720 C2719 1.291 1_455 S
C2720 C2721 1.373 . S
C2720 H2733 0.929 1_455 S
C2721 C2720 1.373 . S
C2721 C2722 1.396 . S
C2721 C2728 1.403 . S
C2722 C2712 1.476 . S
C2722 N2717 1.318 . S
C2722 C2721 1.396 . S
H2723 C2718 0.938 . S
O2724 Mn2700 2.385 . S
O2724 C2702 1.234 . S
O2725 Mn2700 2.209 . S
O2725 Mn2701 2.215 . S
O2725 C2702 1.283 . S
O2726 Mn2700 2.094 . S
O2726 C2704 1.240 . S
O2727 Mn2701 2.117 . S
O2727 C2704 1.264 . S
C2728 C2721 1.403 . S
C2728 C2729 1.399 . S
C2728 H2734 0.929 . S
C2729 C2709 1.449 . S
C2729 C2728 1.399 . S
C2729 H2735 0.930 . S
H2730 C2710 0.931 . S
H2731 C2711 0.930 . S
H2732 C2719 0.931 . S
H2733 C2720 0.929 1_655 S
H2734 C2728 0.929 . S
H2735 C2729 0.930 . S
Mn2736 O2741 2.095 . S
Mn2736 O2751 2.162 . S
Mn2736 O2752 2.297 . S
Mn2736 O2760 2.385 . S
Mn2736 O2761 2.209 . S
Mn2736 O2762 2.094 . S
Mn2737 O2742 2.121 . S
Mn2737 N2744 2.257 . S
Mn2737 N2753 2.282 . S
Mn2737 O2761 2.215 . S
Mn2737 O2763 2.117 . S
C2738 O2760 1.234 . S
C2738 O2761 1.283 . S
C2739 O2751 1.281 . S
C2739 O2752 1.236 . S
C2740 O2762 1.240 . S
C2740 O2763 1.264 . S
O2741 Mn2736 2.095 . S
O2741 C2750 1.250 . S
O2742 Mn2737 2.121 . S
O2742 C2750 1.258 . S
C2743 N2744 1.326 . S
C2743 C2747 1.460 . S
C2743 H2749 0.929 . S
N2744 Mn2737 2.257 . S
N2744 C2743 1.326 . S
N2744 C2748 1.362 . S
C2745 C2746 1.258 . S
C2745 C2748 1.431 . S
C2745 C2765 1.449 . S
C2746 C2745 1.258 . S
C2746 C2747 1.477 . S
C2746 H2766 0.931 . S
C2747 C2743 1.460 . S
C2747 C2746 1.477 . S
C2747 H2767 0.930 . S
C2748 N2744 1.362 . S
C2748 C2745 1.431 . S
C2748 C2758 1.476 . S
H2749 C2743 0.929 . S
C2750 O2741 1.250 . S
C2750 O2742 1.258 . S
O2751 Mn2736 2.162 . S
O2751 C2739 1.281 . S
O2752 Mn2736 2.297 . S
O2752 C2739 1.236 . S
N2753 Mn2737 2.282 . S
N2753 C2754 1.328 . S
N2753 C2758 1.318 . S
C2754 N2753 1.328 . S
C2754 C2755 1.457 . S
C2754 H2759 0.929 . S
C2755 C2754 1.457 . S
C2755 C2756 1.291 . S
C2755 H2768 0.931 . S
C2756 C2755 1.291 . S
C2756 C2757 1.373 . S
C2756 H2769 0.929 . S
C2757 C2756 1.373 . S
C2757 C2758 1.396 . S
C2757 C2764 1.403 . S
C2758 C2748 1.476 . S
C2758 N2753 1.318 . S
C2758 C2757 1.396 . S
H2759 C2754 0.929 . S
O2760 Mn2736 2.385 . S
O2760 C2738 1.234 . S
O2761 Mn2736 2.209 . S
O2761 Mn2737 2.215 . S
O2761 C2738 1.283 . S
O2762 Mn2736 2.094 . S
O2762 C2740 1.240 . S
O2763 Mn2737 2.117 . S
O2763 C2740 1.264 . S
C2764 C2757 1.403 . S
C2764 C2765 1.399 . S
C2764 H2770 0.929 . S
C2765 C2745 1.449 . S
C2765 C2764 1.399 . S
C2765 H2771 0.930 . S
H2766 C2746 0.931 . S
H2767 C2747 0.930 . S
H2768 C2755 0.931 . S
H2769 C2756 0.929 . S
H2770 C2764 0.929 . S
H2771 C2765 0.930 . S
Mn2772 O2777 2.095 . S
Mn2772 O2787 2.162 . S
Mn2772 O2788 2.297 . S
Mn2772 O2796 2.385 . S
Mn2772 O2797 2.209 . S
Mn2772 O2798 2.094 . S
Mn2773 O2778 2.121 . S
Mn2773 N2780 2.257 . S
Mn2773 N2789 2.282 . S
Mn2773 O2797 2.215 . S
Mn2773 O2799 2.117 . S
C2774 O2796 1.234 . S
C2774 O2797 1.283 . S
C2775 O2787 1.281 . S
C2775 O2788 1.236 . S
C2776 O2798 1.240 . S
C2776 O2799 1.264 . S
O2777 Mn2772 2.095 . S
O2777 C2786 1.250 . S
O2778 Mn2773 2.121 . S
O2778 C2786 1.258 . S
C2779 N2780 1.326 . S
C2779 C2783 1.460 . S
C2779 H2785 0.929 . S
N2780 Mn2773 2.257 . S
N2780 C2779 1.326 . S
N2780 C2784 1.362 . S
C2781 C2782 1.258 . S
C2781 C2784 1.431 . S
C2781 C2801 1.449 . S
C2782 C2781 1.258 . S
C2782 C2783 1.477 . S
C2782 H2802 0.931 . S
C2783 C2779 1.460 . S
C2783 C2782 1.477 . S
C2783 H2803 0.930 . S
C2784 N2780 1.362 . S
C2784 C2781 1.431 . S
C2784 C2794 1.476 . S
H2785 C2779 0.929 . S
C2786 O2777 1.250 . S
C2786 O2778 1.258 . S
O2787 Mn2772 2.162 . S
O2787 C2775 1.281 . S
O2788 Mn2772 2.297 . S
O2788 C2775 1.236 . S
N2789 Mn2773 2.282 . S
N2789 C2790 1.328 . S
N2789 C2794 1.318 . S
C2790 N2789 1.328 . S
C2790 C2791 1.457 1_455 S
C2790 H2795 0.938 . S
C2791 C2790 1.457 1_655 S
C2791 C2792 1.291 1_655 S
C2791 H2804 0.931 . S
C2792 C2791 1.291 1_455 S
C2792 C2793 1.373 . S
C2792 H2805 0.929 1_455 S
C2793 C2792 1.373 . S
C2793 C2794 1.396 . S
C2793 C2800 1.403 . S
C2794 C2784 1.476 . S
C2794 N2789 1.318 . S
C2794 C2793 1.396 . S
H2795 C2790 0.938 . S
O2796 Mn2772 2.385 . S
O2796 C2774 1.234 . S
O2797 Mn2772 2.209 . S
O2797 Mn2773 2.215 . S
O2797 C2774 1.283 . S
O2798 Mn2772 2.094 . S
O2798 C2776 1.240 . S
O2799 Mn2773 2.117 . S
O2799 C2776 1.264 . S
C2800 C2793 1.403 . S
C2800 C2801 1.399 . S
C2800 H2806 0.929 . S
C2801 C2781 1.449 . S
C2801 C2800 1.399 . S
C2801 H2807 0.930 . S
H2802 C2782 0.931 . S
H2803 C2783 0.930 . S
H2804 C2791 0.931 . S
H2805 C2792 0.929 1_655 S
H2806 C2800 0.929 . S
H2807 C2801 0.930 . S
Mn2808 O2813 2.095 . S
Mn2808 O2823 2.162 . S
Mn2808 O2824 2.297 . S
Mn2808 O2832 2.385 1_455 S
Mn2808 O2833 2.209 . S
Mn2808 O2834 2.094 . S
Mn2809 O2814 2.121 . S
Mn2809 N2816 2.257 . S
Mn2809 N2825 2.282 . S
Mn2809 O2833 2.215 . S
Mn2809 O2835 2.117 . S
C2810 O2832 1.234 . S
C2810 O2833 1.283 1_655 S
C2811 O2823 1.281 . S
C2811 O2824 1.236 . S
C2812 O2834 1.240 . S
C2812 O2835 1.264 . S
O2813 Mn2808 2.095 . S
O2813 C2822 1.250 . S
O2814 Mn2809 2.121 . S
O2814 C2822 1.258 . S
C2815 N2816 1.326 . S
C2815 C2819 1.460 . S
C2815 H2821 0.929 . S
N2816 Mn2809 2.257 . S
N2816 C2815 1.326 . S
N2816 C2820 1.362 . S
C2817 C2818 1.258 . S
C2817 C2820 1.431 1_554 S
C2817 C2837 1.449 1_455 S
C2818 C2817 1.258 . S
C2818 C2819 1.477 1_554 S
C2818 H2838 0.931 . S
C2819 C2815 1.460 . S
C2819 C2818 1.477 1_556 S
C2819 H2839 0.930 . S
C2820 N2816 1.362 . S
C2820 C2817 1.431 1_556 S
C2820 C2830 1.476 . S
H2821 C2815 0.929 . S
C2822 O2813 1.250 . S
C2822 O2814 1.258 . S
O2823 Mn2808 2.162 . S
O2823 C2811 1.281 . S
O2824 Mn2808 2.297 . S
O2824 C2811 1.236 . S
N2825 Mn2809 2.282 . S
N2825 C2826 1.328 . S
N2825 C2830 1.318 . S
C2826 N2825 1.328 . S
C2826 C2827 1.457 1_455 S
C2826 H2831 0.929 . S
C2827 C2826 1.457 1_655 S
C2827 C2828 1.291 . S
C2827 H2840 0.931 . S
C2828 C2827 1.291 . S
C2828 C2829 1.373 . S
C2828 H2841 0.929 . S
C2829 C2828 1.373 . S
C2829 C2830 1.396 1_655 S
C2829 C2836 1.403 1_556 S
C2830 C2820 1.476 . S
C2830 N2825 1.318 . S
C2830 C2829 1.396 1_455 S
H2831 C2826 0.929 . S
O2832 Mn2808 2.385 1_655 S
O2832 C2810 1.234 . S
O2833 Mn2808 2.209 . S
O2833 Mn2809 2.215 . S
O2833 C2810 1.283 1_455 S
O2834 Mn2808 2.094 . S
O2834 C2812 1.240 . S
O2835 Mn2809 2.117 . S
O2835 C2812 1.264 . S
C2836 C2829 1.403 1_554 S
C2836 C2837 1.399 . S
C2836 H2842 0.929 . S
C2837 C2817 1.449 1_655 S
C2837 C2836 1.399 . S
C2837 H2843 0.930 . S
H2838 C2818 0.931 . S
H2839 C2819 0.930 . S
H2840 C2827 0.931 . S
H2841 C2828 0.929 . S
H2842 C2836 0.929 . S
H2843 C2837 0.930 . S
Mn2844 O2849 2.095 . S
Mn2844 O2859 2.162 . S
Mn2844 O2860 2.297 . S
Mn2844 O2868 2.385 . S
Mn2844 O2869 2.209 . S
Mn2844 O2870 2.094 . S
Mn2845 O2850 2.121 . S
Mn2845 N2852 2.257 . S
Mn2845 N2861 2.282 . S
Mn2845 O2869 2.215 . S
Mn2845 O2871 2.117 . S
C2846 O2868 1.234 . S
C2846 O2869 1.283 . S
C2847 O2859 1.281 . S
C2847 O2860 1.236 . S
C2848 O2870 1.240 . S
C2848 O2871 1.264 . S
O2849 Mn2844 2.095 . S
O2849 C2858 1.250 . S
O2850 Mn2845 2.121 . S
O2850 C2858 1.258 . S
C2851 N2852 1.326 . S
C2851 C2855 1.460 . S
C2851 H2857 0.929 . S
N2852 Mn2845 2.257 . S
N2852 C2851 1.326 . S
N2852 C2856 1.362 . S
C2853 C2854 1.258 . S
C2853 C2856 1.431 . S
C2853 C2873 1.449 . S
C2854 C2853 1.258 . S
C2854 C2855 1.477 . S
C2854 H2874 0.931 . S
C2855 C2851 1.460 . S
C2855 C2854 1.477 . S
C2855 H2875 0.930 . S
C2856 N2852 1.362 . S
C2856 C2853 1.431 . S
C2856 C2866 1.476 . S
H2857 C2851 0.929 . S
C2858 O2849 1.250 . S
C2858 O2850 1.258 . S
O2859 Mn2844 2.162 . S
O2859 C2847 1.281 . S
O2860 Mn2844 2.297 . S
O2860 C2847 1.236 . S
N2861 Mn2845 2.282 . S
N2861 C2862 1.328 . S
N2861 C2866 1.318 . S
C2862 N2861 1.328 . S
C2862 C2863 1.457 . S
C2862 H2867 0.929 . S
C2863 C2862 1.457 . S
C2863 C2864 1.291 . S
C2863 H2876 0.931 . S
C2864 C2863 1.291 . S
C2864 C2865 1.373 . S
C2864 H2877 0.929 . S
C2865 C2864 1.373 . S
C2865 C2866 1.396 . S
C2865 C2872 1.403 . S
C2866 C2856 1.476 . S
C2866 N2861 1.318 . S
C2866 C2865 1.396 . S
H2867 C2862 0.929 . S
O2868 Mn2844 2.385 . S
O2868 C2846 1.234 . S
O2869 Mn2844 2.209 . S
O2869 Mn2845 2.215 . S
O2869 C2846 1.283 . S
O2870 Mn2844 2.094 . S
O2870 C2848 1.240 . S
O2871 Mn2845 2.117 . S
O2871 C2848 1.264 . S
C2872 C2865 1.403 . S
C2872 C2873 1.399 . S
C2872 H2878 0.929 . S
C2873 C2853 1.449 . S
C2873 C2872 1.399 . S
C2873 H2879 0.930 . S
H2874 C2854 0.931 . S
H2875 C2855 0.930 . S
H2876 C2863 0.931 . S
H2877 C2864 0.929 . S
H2878 C2872 0.929 . S
H2879 C2873 0.930 . S
Mn2880 O2885 2.095 . S
Mn2880 O2895 2.162 . S
Mn2880 O2896 2.297 . S
Mn2880 O2904 2.385 . S
Mn2880 O2905 2.209 . S
Mn2880 O2906 2.094 . S
Mn2881 O2886 2.121 . S
Mn2881 N2888 2.257 . S
Mn2881 N2897 2.282 . S
Mn2881 O2905 2.215 . S
Mn2881 O2907 2.117 . S
C2882 O2904 1.234 . S
C2882 O2905 1.283 . S
C2883 O2895 1.281 . S
C2883 O2896 1.236 . S
C2884 O2906 1.240 . S
C2884 O2907 1.264 . S
O2885 Mn2880 2.095 . S
O2885 C2894 1.250 . S
O2886 Mn2881 2.121 . S
O2886 C2894 1.258 . S
C2887 N2888 1.326 . S
C2887 C2891 1.460 . S
C2887 H2893 0.929 . S
N2888 Mn2881 2.257 . S
N2888 C2887 1.326 . S
N2888 C2892 1.362 . S
C2889 C2890 1.258 . S
C2889 C2892 1.431 1_655 S
C2889 C2909 1.449 . S
C2890 C2889 1.258 . S
C2890 C2891 1.477 1_655 S
C2890 H2910 0.931 . S
C2891 C2887 1.460 . S
C2891 C2890 1.477 1_455 S
C2891 H2911 0.930 . S
C2892 N2888 1.362 . S
C2892 C2889 1.431 1_455 S
C2892 C2902 1.476 . S
H2893 C2887 0.929 . S
C2894 O2885 1.250 . S
C2894 O2886 1.258 . S
O2895 Mn2880 2.162 . S
O2895 C2883 1.281 . S
O2896 Mn2880 2.297 . S
O2896 C2883 1.236 . S
N2897 Mn2881 2.282 . S
N2897 C2898 1.328 . S
N2897 C2902 1.318 . S
C2898 N2897 1.328 . S
C2898 C2899 1.457 . S
C2898 H2903 0.929 . S
C2899 C2898 1.457 . S
C2899 C2900 1.291 . S
C2899 H2912 0.931 . S
C2900 C2899 1.291 . S
C2900 C2901 1.373 . S
C2900 H2913 0.929 . S
C2901 C2900 1.373 . S
C2901 C2902 1.396 . S
C2901 C2908 1.403 1_455 S
C2902 C2892 1.476 . S
C2902 N2897 1.318 . S
C2902 C2901 1.396 . S
H2903 C2898 0.929 . S
O2904 Mn2880 2.385 . S
O2904 C2882 1.234 . S
O2905 Mn2880 2.209 . S
O2905 Mn2881 2.215 . S
O2905 C2882 1.283 . S
O2906 Mn2880 2.094 . S
O2906 C2884 1.240 . S
O2907 Mn2881 2.117 . S
O2907 C2884 1.264 . S
C2908 C2901 1.403 1_655 S
C2908 C2909 1.399 . S
C2908 H2914 0.929 . S
C2909 C2889 1.449 . S
C2909 C2908 1.399 . S
C2909 H2915 0.930 . S
H2910 C2890 0.931 . S
H2911 C2891 0.930 . S
H2912 C2899 0.931 . S
H2913 C2900 0.929 . S
H2914 C2908 0.929 . S
H2915 C2909 0.930 . S
Mn2916 O2921 2.095 . S
Mn2916 O2931 2.162 . S
Mn2916 O2932 2.297 . S
Mn2916 O2940 2.385 . S
Mn2916 O2941 2.209 . S
Mn2916 O2942 2.094 . S
Mn2917 O2922 2.121 . S
Mn2917 N2924 2.257 . S
Mn2917 N2933 2.282 . S
Mn2917 O2941 2.215 . S
Mn2917 O2943 2.117 . S
C2918 O2940 1.234 . S
C2918 O2941 1.283 . S
C2919 O2931 1.281 . S
C2919 O2932 1.236 . S
C2920 O2942 1.240 . S
C2920 O2943 1.264 . S
O2921 Mn2916 2.095 . S
O2921 C2930 1.250 . S
O2922 Mn2917 2.121 . S
O2922 C2930 1.258 . S
C2923 N2924 1.326 . S
C2923 C2927 1.460 . S
C2923 H2929 0.929 . S
N2924 Mn2917 2.257 . S
N2924 C2923 1.326 . S
N2924 C2928 1.362 . S
C2925 C2926 1.258 . S
C2925 C2928 1.431 . S
C2925 C2945 1.449 . S
C2926 C2925 1.258 . S
C2926 C2927 1.477 . S
C2926 H2946 0.931 . S
C2927 C2923 1.460 . S
C2927 C2926 1.477 . S
C2927 H2947 0.930 . S
C2928 N2924 1.362 . S
C2928 C2925 1.431 . S
C2928 C2938 1.476 . S
H2929 C2923 0.929 . S
C2930 O2921 1.250 . S
C2930 O2922 1.258 . S
O2931 Mn2916 2.162 . S
O2931 C2919 1.281 . S
O2932 Mn2916 2.297 . S
O2932 C2919 1.236 . S
N2933 Mn2917 2.282 . S
N2933 C2934 1.328 . S
N2933 C2938 1.318 . S
C2934 N2933 1.328 . S
C2934 C2935 1.457 1_554 S
C2934 H2939 0.938 . S
C2935 C2934 1.457 1_556 S
C2935 C2936 1.291 1_556 S
C2935 H2948 0.931 . S
C2936 C2935 1.291 1_554 S
C2936 C2937 1.373 . S
C2936 H2949 0.929 1_554 S
C2937 C2936 1.373 . S
C2937 C2938 1.396 . S
C2937 C2944 1.403 . S
C2938 C2928 1.476 . S
C2938 N2933 1.318 . S
C2938 C2937 1.396 . S
H2939 C2934 0.938 . S
O2940 Mn2916 2.385 . S
O2940 C2918 1.234 . S
O2941 Mn2916 2.209 . S
O2941 Mn2917 2.215 . S
O2941 C2918 1.283 . S
O2942 Mn2916 2.094 . S
O2942 C2920 1.240 . S
O2943 Mn2917 2.117 . S
O2943 C2920 1.264 . S
C2944 C2937 1.403 . S
C2944 C2945 1.399 . S
C2944 H2950 0.929 . S
C2945 C2925 1.449 . S
C2945 C2944 1.399 . S
C2945 H2951 0.930 . S
H2946 C2926 0.931 . S
H2947 C2927 0.930 . S
H2948 C2935 0.931 . S
H2949 C2936 0.929 1_556 S
H2950 C2944 0.929 . S
H2951 C2945 0.930 . S
Mn2952 O2957 2.095 . S
Mn2952 O2967 2.162 . S
Mn2952 O2968 2.297 . S
Mn2952 O2976 2.385 . S
Mn2952 O2977 2.209 . S
Mn2952 O2978 2.094 . S
Mn2953 O2958 2.121 . S
Mn2953 N2960 2.257 . S
Mn2953 N2969 2.282 . S
Mn2953 O2977 2.215 . S
Mn2953 O2979 2.117 . S
C2954 O2976 1.234 . S
C2954 O2977 1.283 . S
C2955 O2967 1.281 . S
C2955 O2968 1.236 . S
C2956 O2978 1.240 . S
C2956 O2979 1.264 . S
O2957 Mn2952 2.095 . S
O2957 C2966 1.250 . S
O2958 Mn2953 2.121 . S
O2958 C2966 1.258 . S
C2959 N2960 1.326 . S
C2959 C2963 1.460 . S
C2959 H2965 0.929 . S
N2960 Mn2953 2.257 . S
N2960 C2959 1.326 . S
N2960 C2964 1.362 . S
C2961 C2962 1.258 . S
C2961 C2964 1.431 . S
C2961 C2981 1.449 . S
C2962 C2961 1.258 . S
C2962 C2963 1.477 . S
C2962 H2982 0.931 . S
C2963 C2959 1.460 . S
C2963 C2962 1.477 . S
C2963 H2983 0.930 . S
C2964 N2960 1.362 . S
C2964 C2961 1.431 . S
C2964 C2974 1.476 . S
H2965 C2959 0.929 . S
C2966 O2957 1.250 . S
C2966 O2958 1.258 . S
O2967 Mn2952 2.162 . S
O2967 C2955 1.281 . S
O2968 Mn2952 2.297 . S
O2968 C2955 1.236 . S
N2969 Mn2953 2.282 . S
N2969 C2970 1.328 . S
N2969 C2974 1.318 . S
C2970 N2969 1.328 . S
C2970 C2971 1.457 . S
C2970 H2975 0.929 . S
C2971 C2970 1.457 . S
C2971 C2972 1.291 . S
C2971 H2984 0.931 . S
C2972 C2971 1.291 . S
C2972 C2973 1.373 . S
C2972 H2985 0.929 . S
C2973 C2972 1.373 . S
C2973 C2974 1.396 . S
C2973 C2980 1.403 . S
C2974 C2964 1.476 . S
C2974 N2969 1.318 . S
C2974 C2973 1.396 . S
H2975 C2970 0.929 . S
O2976 Mn2952 2.385 . S
O2976 C2954 1.234 . S
O2977 Mn2952 2.209 . S
O2977 Mn2953 2.215 . S
O2977 C2954 1.283 . S
O2978 Mn2952 2.094 . S
O2978 C2956 1.240 . S
O2979 Mn2953 2.117 . S
O2979 C2956 1.264 . S
C2980 C2973 1.403 . S
C2980 C2981 1.399 . S
C2980 H2986 0.929 . S
C2981 C2961 1.449 . S
C2981 C2980 1.399 . S
C2981 H2987 0.930 . S
H2982 C2962 0.931 . S
H2983 C2963 0.930 . S
H2984 C2971 0.931 . S
H2985 C2972 0.929 . S
H2986 C2980 0.929 . S
H2987 C2981 0.930 . S
Mn2988 O2993 2.095 . S
Mn2988 O3003 2.162 . S
Mn2988 O3004 2.297 . S
Mn2988 O3012 2.385 . S
Mn2988 O3013 2.209 . S
Mn2988 O3014 2.094 . S
Mn2989 O2994 2.121 . S
Mn2989 N2996 2.257 . S
Mn2989 N3005 2.282 . S
Mn2989 O3013 2.215 . S
Mn2989 O3015 2.117 . S
C2990 O3012 1.234 . S
C2990 O3013 1.283 . S
C2991 O3003 1.281 . S
C2991 O3004 1.236 . S
C2992 O3014 1.240 . S
C2992 O3015 1.264 . S
O2993 Mn2988 2.095 . S
O2993 C3002 1.250 . S
O2994 Mn2989 2.121 . S
O2994 C3002 1.258 . S
C2995 N2996 1.326 . S
C2995 C2999 1.460 . S
C2995 H3001 0.929 . S
N2996 Mn2989 2.257 . S
N2996 C2995 1.326 . S
N2996 C3000 1.362 . S
C2997 C2998 1.258 . S
C2997 C3000 1.431 . S
C2997 C3017 1.449 . S
C2998 C2997 1.258 . S
C2998 C2999 1.477 . S
C2998 H3018 0.931 . S
C2999 C2995 1.460 . S
C2999 C2998 1.477 . S
C2999 H3019 0.930 . S
C3000 N2996 1.362 . S
C3000 C2997 1.431 . S
C3000 C3010 1.476 . S
H3001 C2995 0.929 . S
C3002 O2993 1.250 . S
C3002 O2994 1.258 . S
O3003 Mn2988 2.162 . S
O3003 C2991 1.281 . S
O3004 Mn2988 2.297 . S
O3004 C2991 1.236 . S
N3005 Mn2989 2.282 . S
N3005 C3006 1.328 . S
N3005 C3010 1.318 . S
C3006 N3005 1.328 . S
C3006 C3007 1.457 . S
C3006 H3011 0.929 . S
C3007 C3006 1.457 . S
C3007 C3008 1.291 . S
C3007 H3020 0.931 . S
C3008 C3007 1.291 . S
C3008 C3009 1.373 . S
C3008 H3021 0.929 . S
C3009 C3008 1.373 . S
C3009 C3010 1.396 . S
C3009 C3016 1.403 . S
C3010 C3000 1.476 . S
C3010 N3005 1.318 . S
C3010 C3009 1.396 . S
H3011 C3006 0.929 . S
O3012 Mn2988 2.385 . S
O3012 C2990 1.234 . S
O3013 Mn2988 2.209 . S
O3013 Mn2989 2.215 . S
O3013 C2990 1.283 . S
O3014 Mn2988 2.094 . S
O3014 C2992 1.240 . S
O3015 Mn2989 2.117 . S
O3015 C2992 1.264 . S
C3016 C3009 1.403 . S
C3016 C3017 1.399 . S
C3016 H3022 0.929 . S
C3017 C2997 1.449 . S
C3017 C3016 1.399 . S
C3017 H3023 0.930 . S
H3018 C2998 0.931 . S
H3019 C2999 0.930 . S
H3020 C3007 0.931 . S
H3021 C3008 0.929 . S
H3022 C3016 0.929 . S
H3023 C3017 0.930 . S
Mn3024 O3029 2.095 . S
Mn3024 O3039 2.162 . S
Mn3024 O3040 2.297 . S
Mn3024 O3048 2.385 . S
Mn3024 O3049 2.209 . S
Mn3024 O3050 2.094 . S
Mn3025 O3030 2.121 . S
Mn3025 N3032 2.257 . S
Mn3025 N3041 2.282 . S
Mn3025 O3049 2.215 . S
Mn3025 O3051 2.117 . S
C3026 O3048 1.234 . S
C3026 O3049 1.283 . S
C3027 O3039 1.281 . S
C3027 O3040 1.236 . S
C3028 O3050 1.240 . S
C3028 O3051 1.264 . S
O3029 Mn3024 2.095 . S
O3029 C3038 1.250 . S
O3030 Mn3025 2.121 . S
O3030 C3038 1.258 . S
C3031 N3032 1.326 . S
C3031 C3035 1.460 . S
C3031 H3037 0.929 . S
N3032 Mn3025 2.257 . S
N3032 C3031 1.326 . S
N3032 C3036 1.362 . S
C3033 C3034 1.258 . S
C3033 C3036 1.431 1_655 S
C3033 C3053 1.449 . S
C3034 C3033 1.258 . S
C3034 C3035 1.477 1_655 S
C3034 H3054 0.931 . S
C3035 C3031 1.460 . S
C3035 C3034 1.477 1_455 S
C3035 H3055 0.930 . S
C3036 N3032 1.362 . S
C3036 C3033 1.431 1_455 S
C3036 C3046 1.476 . S
H3037 C3031 0.929 . S
C3038 O3029 1.250 . S
C3038 O3030 1.258 . S
O3039 Mn3024 2.162 . S
O3039 C3027 1.281 . S
O3040 Mn3024 2.297 . S
O3040 C3027 1.236 . S
N3041 Mn3025 2.282 . S
N3041 C3042 1.328 . S
N3041 C3046 1.318 . S
C3042 N3041 1.328 . S
C3042 C3043 1.457 . S
C3042 H3047 0.929 . S
C3043 C3042 1.457 . S
C3043 C3044 1.291 . S
C3043 H3056 0.931 . S
C3044 C3043 1.291 . S
C3044 C3045 1.373 . S
C3044 H3057 0.929 . S
C3045 C3044 1.373 . S
C3045 C3046 1.396 . S
C3045 C3052 1.403 1_455 S
C3046 C3036 1.476 . S
C3046 N3041 1.318 . S
C3046 C3045 1.396 . S
H3047 C3042 0.929 . S
O3048 Mn3024 2.385 . S
O3048 C3026 1.234 . S
O3049 Mn3024 2.209 . S
O3049 Mn3025 2.215 . S
O3049 C3026 1.283 . S
O3050 Mn3024 2.094 . S
O3050 C3028 1.240 . S
O3051 Mn3025 2.117 . S
O3051 C3028 1.264 . S
C3052 C3045 1.403 1_655 S
C3052 C3053 1.399 . S
C3052 H3058 0.929 . S
C3053 C3033 1.449 . S
C3053 C3052 1.399 . S
C3053 H3059 0.930 . S
H3054 C3034 0.931 . S
H3055 C3035 0.930 . S
H3056 C3043 0.931 . S
H3057 C3044 0.929 . S
H3058 C3052 0.929 . S
H3059 C3053 0.930 . S
Mn3060 O3065 2.095 . S
Mn3060 O3075 2.162 . S
Mn3060 O3076 2.297 . S
Mn3060 O3084 2.385 . S
Mn3060 O3085 2.209 . S
Mn3060 O3086 2.094 . S
Mn3061 O3066 2.121 . S
Mn3061 N3068 2.257 . S
Mn3061 N3077 2.282 . S
Mn3061 O3085 2.215 . S
Mn3061 O3087 2.117 . S
C3062 O3084 1.234 . S
C3062 O3085 1.283 . S
C3063 O3075 1.281 . S
C3063 O3076 1.236 . S
C3064 O3086 1.240 . S
C3064 O3087 1.264 . S
O3065 Mn3060 2.095 . S
O3065 C3074 1.250 . S
O3066 Mn3061 2.121 . S
O3066 C3074 1.258 . S
C3067 N3068 1.326 . S
C3067 C3071 1.460 . S
C3067 H3073 0.929 . S
N3068 Mn3061 2.257 . S
N3068 C3067 1.326 . S
N3068 C3072 1.362 . S
C3069 C3070 1.258 . S
C3069 C3072 1.431 . S
C3069 C3089 1.449 . S
C3070 C3069 1.258 . S
C3070 C3071 1.477 . S
C3070 H3090 0.931 . S
C3071 C3067 1.460 . S
C3071 C3070 1.477 . S
C3071 H3091 0.930 . S
C3072 N3068 1.362 . S
C3072 C3069 1.431 . S
C3072 C3082 1.476 . S
H3073 C3067 0.929 . S
C3074 O3065 1.250 . S
C3074 O3066 1.258 . S
O3075 Mn3060 2.162 . S
O3075 C3063 1.281 . S
O3076 Mn3060 2.297 . S
O3076 C3063 1.236 . S
N3077 Mn3061 2.282 . S
N3077 C3078 1.328 . S
N3077 C3082 1.318 . S
C3078 N3077 1.328 . S
C3078 C3079 1.457 1_556 S
C3078 H3083 0.938 . S
C3079 C3078 1.457 1_554 S
C3079 C3080 1.291 1_554 S
C3079 H3092 0.931 . S
C3080 C3079 1.291 1_556 S
C3080 C3081 1.373 . S
C3080 H3093 0.929 1_556 S
C3081 C3080 1.373 . S
C3081 C3082 1.396 . S
C3081 C3088 1.403 . S
C3082 C3072 1.476 . S
C3082 N3077 1.318 . S
C3082 C3081 1.396 . S
H3083 C3078 0.938 . S
O3084 Mn3060 2.385 . S
O3084 C3062 1.234 . S
O3085 Mn3060 2.209 . S
O3085 Mn3061 2.215 . S
O3085 C3062 1.283 . S
O3086 Mn3060 2.094 . S
O3086 C3064 1.240 . S
O3087 Mn3061 2.117 . S
O3087 C3064 1.264 . S
C3088 C3081 1.403 . S
C3088 C3089 1.399 . S
C3088 H3094 0.929 . S
C3089 C3069 1.449 . S
C3089 C3088 1.399 . S
C3089 H3095 0.930 . S
H3090 C3070 0.931 . S
H3091 C3071 0.930 . S
H3092 C3079 0.931 . S
H3093 C3080 0.929 1_554 S
H3094 C3088 0.929 . S
H3095 C3089 0.930 . S
Mn3096 O3101 2.095 . S
Mn3096 O3111 2.162 . S
Mn3096 O3112 2.297 . S
Mn3096 O3120 2.385 . S
Mn3096 O3121 2.209 . S
Mn3096 O3122 2.094 . S
Mn3097 O3102 2.121 . S
Mn3097 N3104 2.257 . S
Mn3097 N3113 2.282 . S
Mn3097 O3121 2.215 . S
Mn3097 O3123 2.117 . S
C3098 O3120 1.234 . S
C3098 O3121 1.283 . S
C3099 O3111 1.281 . S
C3099 O3112 1.236 . S
C3100 O3122 1.240 . S
C3100 O3123 1.264 . S
O3101 Mn3096 2.095 . S
O3101 C3110 1.250 . S
O3102 Mn3097 2.121 . S
O3102 C3110 1.258 . S
C3103 N3104 1.326 . S
C3103 C3107 1.460 . S
C3103 H3109 0.929 . S
N3104 Mn3097 2.257 . S
N3104 C3103 1.326 . S
N3104 C3108 1.362 . S
C3105 C3106 1.258 . S
C3105 C3108 1.431 . S
C3105 C3125 1.449 . S
C3106 C3105 1.258 . S
C3106 C3107 1.477 . S
C3106 H3126 0.931 . S
C3107 C3103 1.460 . S
C3107 C3106 1.477 . S
C3107 H3127 0.930 . S
C3108 N3104 1.362 . S
C3108 C3105 1.431 . S
C3108 C3118 1.476 . S
H3109 C3103 0.929 . S
C3110 O3101 1.250 . S
C3110 O3102 1.258 . S
O3111 Mn3096 2.162 . S
O3111 C3099 1.281 . S
O3112 Mn3096 2.297 . S
O3112 C3099 1.236 . S
N3113 Mn3097 2.282 . S
N3113 C3114 1.328 . S
N3113 C3118 1.318 . S
C3114 N3113 1.328 . S
C3114 C3115 1.457 . S
C3114 H3119 0.929 . S
C3115 C3114 1.457 . S
C3115 C3116 1.291 . S
C3115 H3128 0.931 . S
C3116 C3115 1.291 . S
C3116 C3117 1.373 . S
C3116 H3129 0.929 . S
C3117 C3116 1.373 . S
C3117 C3118 1.396 . S
C3117 C3124 1.403 . S
C3118 C3108 1.476 . S
C3118 N3113 1.318 . S
C3118 C3117 1.396 . S
H3119 C3114 0.929 . S
O3120 Mn3096 2.385 . S
O3120 C3098 1.234 . S
O3121 Mn3096 2.209 . S
O3121 Mn3097 2.215 . S
O3121 C3098 1.283 . S
O3122 Mn3096 2.094 . S
O3122 C3100 1.240 . S
O3123 Mn3097 2.117 . S
O3123 C3100 1.264 . S
C3124 C3117 1.403 . S
C3124 C3125 1.399 . S
C3124 H3130 0.929 . S
C3125 C3105 1.449 . S
C3125 C3124 1.399 . S
C3125 H3131 0.930 . S
H3126 C3106 0.931 . S
H3127 C3107 0.930 . S
H3128 C3115 0.931 . S
H3129 C3116 0.929 . S
H3130 C3124 0.929 . S
H3131 C3125 0.930 . S
Mn3132 O3137 2.095 . S
Mn3132 O3147 2.162 . S
Mn3132 O3148 2.297 . S
Mn3132 O3156 2.385 . S
Mn3132 O3157 2.209 . S
Mn3132 O3158 2.094 . S
Mn3133 O3138 2.121 . S
Mn3133 N3140 2.257 . S
Mn3133 N3149 2.282 . S
Mn3133 O3157 2.215 . S
Mn3133 O3159 2.117 . S
C3134 O3156 1.234 . S
C3134 O3157 1.283 . S
C3135 O3147 1.281 . S
C3135 O3148 1.236 . S
C3136 O3158 1.240 . S
C3136 O3159 1.264 . S
O3137 Mn3132 2.095 . S
O3137 C3146 1.250 . S
O3138 Mn3133 2.121 . S
O3138 C3146 1.258 . S
C3139 N3140 1.326 . S
C3139 C3143 1.460 . S
C3139 H3145 0.929 . S
N3140 Mn3133 2.257 . S
N3140 C3139 1.326 . S
N3140 C3144 1.362 . S
C3141 C3142 1.258 . S
C3141 C3144 1.431 . S
C3141 C3161 1.449 . S
C3142 C3141 1.258 . S
C3142 C3143 1.477 . S
C3142 H3162 0.931 . S
C3143 C3139 1.460 . S
C3143 C3142 1.477 . S
C3143 H3163 0.930 . S
C3144 N3140 1.362 . S
C3144 C3141 1.431 . S
C3144 C3154 1.476 . S
H3145 C3139 0.929 . S
C3146 O3137 1.250 . S
C3146 O3138 1.258 . S
O3147 Mn3132 2.162 . S
O3147 C3135 1.281 . S
O3148 Mn3132 2.297 . S
O3148 C3135 1.236 . S
N3149 Mn3133 2.282 . S
N3149 C3150 1.328 . S
N3149 C3154 1.318 . S
C3150 N3149 1.328 . S
C3150 C3151 1.457 . S
C3150 H3155 0.929 . S
C3151 C3150 1.457 . S
C3151 C3152 1.291 . S
C3151 H3164 0.931 . S
C3152 C3151 1.291 . S
C3152 C3153 1.373 . S
C3152 H3165 0.929 . S
C3153 C3152 1.373 . S
C3153 C3154 1.396 . S
C3153 C3160 1.403 . S
C3154 C3144 1.476 . S
C3154 N3149 1.318 . S
C3154 C3153 1.396 . S
H3155 C3150 0.929 . S
O3156 Mn3132 2.385 . S
O3156 C3134 1.234 . S
O3157 Mn3132 2.209 . S
O3157 Mn3133 2.215 . S
O3157 C3134 1.283 . S
O3158 Mn3132 2.094 . S
O3158 C3136 1.240 . S
O3159 Mn3133 2.117 . S
O3159 C3136 1.264 . S
C3160 C3153 1.403 . S
C3160 C3161 1.399 . S
C3160 H3166 0.929 . S
C3161 C3141 1.449 . S
C3161 C3160 1.399 . S
C3161 H3167 0.930 . S
H3162 C3142 0.931 . S
H3163 C3143 0.930 . S
H3164 C3151 0.931 . S
H3165 C3152 0.929 . S
H3166 C3160 0.929 . S
H3167 C3161 0.930 . S
Mn3168 O3173 2.095 . S
Mn3168 O3183 2.162 . S
Mn3168 O3184 2.297 . S
Mn3168 O3192 2.385 . S
Mn3168 O3193 2.209 . S
Mn3168 O3194 2.094 . S
Mn3169 O3174 2.121 . S
Mn3169 N3176 2.257 . S
Mn3169 N3185 2.282 . S
Mn3169 O3193 2.215 . S
Mn3169 O3195 2.117 . S
C3170 O3192 1.234 . S
C3170 O3193 1.283 . S
C3171 O3183 1.281 . S
C3171 O3184 1.236 . S
C3172 O3194 1.240 . S
C3172 O3195 1.264 . S
O3173 Mn3168 2.095 . S
O3173 C3182 1.250 . S
O3174 Mn3169 2.121 . S
O3174 C3182 1.258 . S
C3175 N3176 1.326 . S
C3175 C3179 1.460 . S
C3175 H3181 0.929 . S
N3176 Mn3169 2.257 . S
N3176 C3175 1.326 . S
N3176 C3180 1.362 . S
C3177 C3178 1.258 . S
C3177 C3180 1.431 1_565 S
C3177 C3197 1.449 . S
C3178 C3177 1.258 . S
C3178 C3179 1.477 1_565 S
C3178 H3198 0.931 . S
C3179 C3175 1.460 . S
C3179 C3178 1.477 1_545 S
C3179 H3199 0.930 . S
C3180 N3176 1.362 . S
C3180 C3177 1.431 1_545 S
C3180 C3190 1.476 . S
H3181 C3175 0.929 . S
C3182 O3173 1.250 . S
C3182 O3174 1.258 . S
O3183 Mn3168 2.162 . S
O3183 C3171 1.281 . S
O3184 Mn3168 2.297 . S
O3184 C3171 1.236 . S
N3185 Mn3169 2.282 . S
N3185 C3186 1.328 . S
N3185 C3190 1.318 . S
C3186 N3185 1.328 . S
C3186 C3187 1.457 . S
C3186 H3191 0.929 . S
C3187 C3186 1.457 . S
C3187 C3188 1.291 . S
C3187 H3200 0.931 . S
C3188 C3187 1.291 . S
C3188 C3189 1.373 . S
C3188 H3201 0.929 . S
C3189 C3188 1.373 . S
C3189 C3190 1.396 . S
C3189 C3196 1.403 1_545 S
C3190 C3180 1.476 . S
C3190 N3185 1.318 . S
C3190 C3189 1.396 . S
H3191 C3186 0.929 . S
O3192 Mn3168 2.385 . S
O3192 C3170 1.234 . S
O3193 Mn3168 2.209 . S
O3193 Mn3169 2.215 . S
O3193 C3170 1.283 . S
O3194 Mn3168 2.094 . S
O3194 C3172 1.240 . S
O3195 Mn3169 2.117 . S
O3195 C3172 1.264 . S
C3196 C3189 1.403 1_565 S
C3196 C3197 1.399 . S
C3196 H3202 0.929 . S
C3197 C3177 1.449 . S
C3197 C3196 1.399 . S
C3197 H3203 0.930 . S
H3198 C3178 0.931 . S
H3199 C3179 0.930 . S
H3200 C3187 0.931 . S
H3201 C3188 0.929 . S
H3202 C3196 0.929 . S
H3203 C3197 0.930 . S
Mn3204 O3209 2.095 . S
Mn3204 O3219 2.162 . S
Mn3204 O3220 2.297 . S
Mn3204 O3228 2.385 . S
Mn3204 O3229 2.209 . S
Mn3204 O3230 2.094 . S
Mn3205 O3210 2.121 . S
Mn3205 N3212 2.257 . S
Mn3205 N3221 2.282 . S
Mn3205 O3229 2.215 . S
Mn3205 O3231 2.117 . S
C3206 O3228 1.234 . S
C3206 O3229 1.283 . S
C3207 O3219 1.281 . S
C3207 O3220 1.236 . S
C3208 O3230 1.240 . S
C3208 O3231 1.264 . S
O3209 Mn3204 2.095 . S
O3209 C3218 1.250 . S
O3210 Mn3205 2.121 . S
O3210 C3218 1.258 . S
C3211 N3212 1.326 . S
C3211 C3215 1.460 . S
C3211 H3217 0.929 . S
N3212 Mn3205 2.257 . S
N3212 C3211 1.326 . S
N3212 C3216 1.362 . S
C3213 C3214 1.258 . S
C3213 C3216 1.431 . S
C3213 C3233 1.449 . S
C3214 C3213 1.258 . S
C3214 C3215 1.477 . S
C3214 H3234 0.931 . S
C3215 C3211 1.460 . S
C3215 C3214 1.477 . S
C3215 H3235 0.930 . S
C3216 N3212 1.362 . S
C3216 C3213 1.431 . S
C3216 C3226 1.476 . S
H3217 C3211 0.929 . S
C3218 O3209 1.250 . S
C3218 O3210 1.258 . S
O3219 Mn3204 2.162 . S
O3219 C3207 1.281 . S
O3220 Mn3204 2.297 . S
O3220 C3207 1.236 . S
N3221 Mn3205 2.282 . S
N3221 C3222 1.328 . S
N3221 C3226 1.318 . S
C3222 N3221 1.328 . S
C3222 C3223 1.457 . S
C3222 H3227 0.929 . S
C3223 C3222 1.457 . S
C3223 C3224 1.291 . S
C3223 H3236 0.931 . S
C3224 C3223 1.291 . S
C3224 C3225 1.373 . S
C3224 H3237 0.929 . S
C3225 C3224 1.373 . S
C3225 C3226 1.396 . S
C3225 C3232 1.403 . S
C3226 C3216 1.476 . S
C3226 N3221 1.318 . S
C3226 C3225 1.396 . S
H3227 C3222 0.929 . S
O3228 Mn3204 2.385 . S
O3228 C3206 1.234 . S
O3229 Mn3204 2.209 . S
O3229 Mn3205 2.215 . S
O3229 C3206 1.283 . S
O3230 Mn3204 2.094 . S
O3230 C3208 1.240 . S
O3231 Mn3205 2.117 . S
O3231 C3208 1.264 . S
C3232 C3225 1.403 . S
C3232 C3233 1.399 . S
C3232 H3238 0.929 . S
C3233 C3213 1.449 . S
C3233 C3232 1.399 . S
C3233 H3239 0.930 . S
H3234 C3214 0.931 . S
H3235 C3215 0.930 . S
H3236 C3223 0.931 . S
H3237 C3224 0.929 . S
H3238 C3232 0.929 . S
H3239 C3233 0.930 . S
Mn3240 O3245 2.095 . S
Mn3240 O3255 2.162 . S
Mn3240 O3256 2.297 . S
Mn3240 O3264 2.385 . S
Mn3240 O3265 2.209 . S
Mn3240 O3266 2.094 . S
Mn3241 O3246 2.121 . S
Mn3241 N3248 2.257 . S
Mn3241 N3257 2.282 . S
Mn3241 O3265 2.215 . S
Mn3241 O3267 2.117 . S
C3242 O3264 1.234 . S
C3242 O3265 1.283 . S
C3243 O3255 1.281 . S
C3243 O3256 1.236 . S
C3244 O3266 1.240 . S
C3244 O3267 1.264 . S
O3245 Mn3240 2.095 . S
O3245 C3254 1.250 . S
O3246 Mn3241 2.121 . S
O3246 C3254 1.258 . S
C3247 N3248 1.326 . S
C3247 C3251 1.460 . S
C3247 H3253 0.929 . S
N3248 Mn3241 2.257 . S
N3248 C3247 1.326 . S
N3248 C3252 1.362 . S
C3249 C3250 1.258 . S
C3249 C3252 1.431 . S
C3249 C3269 1.449 . S
C3250 C3249 1.258 . S
C3250 C3251 1.477 . S
C3250 H3270 0.931 . S
C3251 C3247 1.460 . S
C3251 C3250 1.477 . S
C3251 H3271 0.930 . S
C3252 N3248 1.362 . S
C3252 C3249 1.431 . S
C3252 C3262 1.476 . S
H3253 C3247 0.929 . S
C3254 O3245 1.250 . S
C3254 O3246 1.258 . S
O3255 Mn3240 2.162 . S
O3255 C3243 1.281 . S
O3256 Mn3240 2.297 . S
O3256 C3243 1.236 . S
N3257 Mn3241 2.282 . S
N3257 C3258 1.328 . S
N3257 C3262 1.318 . S
C3258 N3257 1.328 . S
C3258 C3259 1.457 1_545 S
C3258 H3263 0.938 . S
C3259 C3258 1.457 1_565 S
C3259 C3260 1.291 1_565 S
C3259 H3272 0.931 . S
C3260 C3259 1.291 1_545 S
C3260 C3261 1.373 . S
C3260 H3273 0.929 1_545 S
C3261 C3260 1.373 . S
C3261 C3262 1.396 . S
C3261 C3268 1.403 . S
C3262 C3252 1.476 . S
C3262 N3257 1.318 . S
C3262 C3261 1.396 . S
H3263 C3258 0.938 . S
O3264 Mn3240 2.385 . S
O3264 C3242 1.234 . S
O3265 Mn3240 2.209 . S
O3265 Mn3241 2.215 . S
O3265 C3242 1.283 . S
O3266 Mn3240 2.094 . S
O3266 C3244 1.240 . S
O3267 Mn3241 2.117 . S
O3267 C3244 1.264 . S
C3268 C3261 1.403 . S
C3268 C3269 1.399 . S
C3268 H3274 0.929 . S
C3269 C3249 1.449 . S
C3269 C3268 1.399 . S
C3269 H3275 0.930 . S
H3270 C3250 0.931 . S
H3271 C3251 0.930 . S
H3272 C3259 0.931 . S
H3273 C3260 0.929 1_565 S
H3274 C3268 0.929 . S
H3275 C3269 0.930 . S
Mn3276 O3281 2.095 . S
Mn3276 O3291 2.162 . S
Mn3276 O3292 2.297 . S
Mn3276 O3300 2.385 1_554 S
Mn3276 O3301 2.209 . S
Mn3276 O3302 2.094 . S
Mn3277 O3282 2.121 . S
Mn3277 N3284 2.257 . S
Mn3277 N3293 2.282 . S
Mn3277 O3301 2.215 . S
Mn3277 O3303 2.117 . S
C3278 O3300 1.234 . S
C3278 O3301 1.283 1_556 S
C3279 O3291 1.281 . S
C3279 O3292 1.236 . S
C3280 O3302 1.240 . S
C3280 O3303 1.264 . S
O3281 Mn3276 2.095 . S
O3281 C3290 1.250 . S
O3282 Mn3277 2.121 . S
O3282 C3290 1.258 . S
C3283 N3284 1.326 . S
C3283 C3287 1.460 . S
C3283 H3289 0.929 . S
N3284 Mn3277 2.257 . S
N3284 C3283 1.326 . S
N3284 C3288 1.362 . S
C3285 C3286 1.258 . S
C3285 C3288 1.431 . S
C3285 C3305 1.449 1_554 S
C3286 C3285 1.258 . S
C3286 C3287 1.477 . S
C3286 H3306 0.931 . S
C3287 C3283 1.460 . S
C3287 C3286 1.477 . S
C3287 H3307 0.930 . S
C3288 N3284 1.362 . S
C3288 C3285 1.431 . S
C3288 C3298 1.476 . S
H3289 C3283 0.929 . S
C3290 O3281 1.250 . S
C3290 O3282 1.258 . S
O3291 Mn3276 2.162 . S
O3291 C3279 1.281 . S
O3292 Mn3276 2.297 . S
O3292 C3279 1.236 . S
N3293 Mn3277 2.282 . S
N3293 C3294 1.328 . S
N3293 C3298 1.318 . S
C3294 N3293 1.328 . S
C3294 C3295 1.457 1_554 S
C3294 H3299 0.929 . S
C3295 C3294 1.457 1_556 S
C3295 C3296 1.291 . S
C3295 H3308 0.931 . S
C3296 C3295 1.291 . S
C3296 C3297 1.373 . S
C3296 H3309 0.929 . S
C3297 C3296 1.373 . S
C3297 C3298 1.396 1_556 S
C3297 C3304 1.403 . S
C3298 C3288 1.476 . S
C3298 N3293 1.318 . S
C3298 C3297 1.396 1_554 S
H3299 C3294 0.929 . S
O3300 Mn3276 2.385 1_556 S
O3300 C3278 1.234 . S
O3301 Mn3276 2.209 . S
O3301 Mn3277 2.215 . S
O3301 C3278 1.283 1_554 S
O3302 Mn3276 2.094 . S
O3302 C3280 1.240 . S
O3303 Mn3277 2.117 . S
O3303 C3280 1.264 . S
C3304 C3297 1.403 . S
C3304 C3305 1.399 . S
C3304 H3310 0.929 . S
C3305 C3285 1.449 1_556 S
C3305 C3304 1.399 . S
C3305 H3311 0.930 . S
H3306 C3286 0.931 . S
H3307 C3287 0.930 . S
H3308 C3295 0.931 . S
H3309 C3296 0.929 . S
H3310 C3304 0.929 . S
H3311 C3305 0.930 . S
Mn3312 O3317 2.095 . S
Mn3312 O3327 2.162 . S
Mn3312 O3328 2.297 . S
Mn3312 O3336 2.385 . S
Mn3312 O3337 2.209 . S
Mn3312 O3338 2.094 . S
Mn3313 O3318 2.121 . S
Mn3313 N3320 2.257 . S
Mn3313 N3329 2.282 . S
Mn3313 O3337 2.215 . S
Mn3313 O3339 2.117 . S
C3314 O3336 1.234 . S
C3314 O3337 1.283 . S
C3315 O3327 1.281 . S
C3315 O3328 1.236 . S
C3316 O3338 1.240 . S
C3316 O3339 1.264 . S
O3317 Mn3312 2.095 . S
O3317 C3326 1.250 . S
O3318 Mn3313 2.121 . S
O3318 C3326 1.258 . S
C3319 N3320 1.326 . S
C3319 C3323 1.460 . S
C3319 H3325 0.929 . S
N3320 Mn3313 2.257 . S
N3320 C3319 1.326 . S
N3320 C3324 1.362 . S
C3321 C3322 1.258 . S
C3321 C3324 1.431 . S
C3321 C3341 1.449 . S
C3322 C3321 1.258 . S
C3322 C3323 1.477 . S
C3322 H3342 0.931 . S
C3323 C3319 1.460 . S
C3323 C3322 1.477 . S
C3323 H3343 0.930 . S
C3324 N3320 1.362 . S
C3324 C3321 1.431 . S
C3324 C3334 1.476 . S
H3325 C3319 0.929 . S
C3326 O3317 1.250 . S
C3326 O3318 1.258 . S
O3327 Mn3312 2.162 . S
O3327 C3315 1.281 . S
O3328 Mn3312 2.297 . S
O3328 C3315 1.236 . S
N3329 Mn3313 2.282 . S
N3329 C3330 1.328 . S
N3329 C3334 1.318 . S
C3330 N3329 1.328 . S
C3330 C3331 1.457 . S
C3330 H3335 0.929 . S
C3331 C3330 1.457 . S
C3331 C3332 1.291 . S
C3331 H3344 0.931 . S
C3332 C3331 1.291 . S
C3332 C3333 1.373 . S
C3332 H3345 0.929 . S
C3333 C3332 1.373 . S
C3333 C3334 1.396 . S
C3333 C3340 1.403 . S
C3334 C3324 1.476 . S
C3334 N3329 1.318 . S
C3334 C3333 1.396 . S
H3335 C3330 0.929 . S
O3336 Mn3312 2.385 . S
O3336 C3314 1.234 . S
O3337 Mn3312 2.209 . S
O3337 Mn3313 2.215 . S
O3337 C3314 1.283 . S
O3338 Mn3312 2.094 . S
O3338 C3316 1.240 . S
O3339 Mn3313 2.117 . S
O3339 C3316 1.264 . S
C3340 C3333 1.403 . S
C3340 C3341 1.399 . S
C3340 H3346 0.929 . S
C3341 C3321 1.449 . S
C3341 C3340 1.399 . S
C3341 H3347 0.930 . S
H3342 C3322 0.931 . S
H3343 C3323 0.930 . S
H3344 C3331 0.931 . S
H3345 C3332 0.929 . S
H3346 C3340 0.929 . S
H3347 C3341 0.930 . S
Mn3348 O3353 2.095 . S
Mn3348 O3363 2.162 . S
Mn3348 O3364 2.297 . S
Mn3348 O3372 2.385 1_556 S
Mn3348 O3373 2.209 . S
Mn3348 O3374 2.094 . S
Mn3349 O3354 2.121 . S
Mn3349 N3356 2.257 . S
Mn3349 N3365 2.282 . S
Mn3349 O3373 2.215 . S
Mn3349 O3375 2.117 . S
C3350 O3372 1.234 . S
C3350 O3373 1.283 1_554 S
C3351 O3363 1.281 . S
C3351 O3364 1.236 . S
C3352 O3374 1.240 . S
C3352 O3375 1.264 . S
O3353 Mn3348 2.095 . S
O3353 C3362 1.250 . S
O3354 Mn3349 2.121 . S
O3354 C3362 1.258 . S
C3355 N3356 1.326 . S
C3355 C3359 1.460 . S
C3355 H3361 0.929 . S
N3356 Mn3349 2.257 . S
N3356 C3355 1.326 . S
N3356 C3360 1.362 . S
C3357 C3358 1.258 . S
C3357 C3360 1.431 1_545 S
C3357 C3377 1.449 1_556 S
C3358 C3357 1.258 . S
C3358 C3359 1.477 1_545 S
C3358 H3378 0.931 . S
C3359 C3355 1.460 . S
C3359 C3358 1.477 1_565 S
C3359 H3379 0.930 . S
C3360 N3356 1.362 . S
C3360 C3357 1.431 1_565 S
C3360 C3370 1.476 . S
H3361 C3355 0.929 . S
C3362 O3353 1.250 . S
C3362 O3354 1.258 . S
O3363 Mn3348 2.162 . S
O3363 C3351 1.281 . S
O3364 Mn3348 2.297 . S
O3364 C3351 1.236 . S
N3365 Mn3349 2.282 . S
N3365 C3366 1.328 . S
N3365 C3370 1.318 . S
C3366 N3365 1.328 . S
C3366 C3367 1.457 1_556 S
C3366 H3371 0.929 . S
C3367 C3366 1.457 1_554 S
C3367 C3368 1.291 . S
C3367 H3380 0.931 . S
C3368 C3367 1.291 . S
C3368 C3369 1.373 . S
C3368 H3381 0.929 . S
C3369 C3368 1.373 . S
C3369 C3370 1.396 1_554 S
C3369 C3376 1.403 1_565 S
C3370 C3360 1.476 . S
C3370 N3365 1.318 . S
C3370 C3369 1.396 1_556 S
H3371 C3366 0.929 . S
O3372 Mn3348 2.385 1_554 S
O3372 C3350 1.234 . S
O3373 Mn3348 2.209 . S
O3373 Mn3349 2.215 . S
O3373 C3350 1.283 1_556 S
O3374 Mn3348 2.094 . S
O3374 C3352 1.240 . S
O3375 Mn3349 2.117 . S
O3375 C3352 1.264 . S
C3376 C3369 1.403 1_545 S
C3376 C3377 1.399 . S
C3376 H3382 0.929 . S
C3377 C3357 1.449 1_554 S
C3377 C3376 1.399 . S
C3377 H3383 0.930 . S
H3378 C3358 0.931 . S
H3379 C3359 0.930 . S
H3380 C3367 0.931 . S
H3381 C3368 0.929 . S
H3382 C3376 0.929 . S
H3383 C3377 0.930 . S
Mn3384 O3389 2.095 . S
Mn3384 O3399 2.162 . S
Mn3384 O3400 2.297 . S
Mn3384 O3408 2.385 . S
Mn3384 O3409 2.209 . S
Mn3384 O3410 2.094 . S
Mn3385 O3390 2.121 . S
Mn3385 N3392 2.257 . S
Mn3385 N3401 2.282 . S
Mn3385 O3409 2.215 . S
Mn3385 O3411 2.117 . S
C3386 O3408 1.234 . S
C3386 O3409 1.283 . S
C3387 O3399 1.281 . S
C3387 O3400 1.236 . S
C3388 O3410 1.240 . S
C3388 O3411 1.264 . S
O3389 Mn3384 2.095 . S
O3389 C3398 1.250 . S
O3390 Mn3385 2.121 . S
O3390 C3398 1.258 . S
C3391 N3392 1.326 . S
C3391 C3395 1.460 . S
C3391 H3397 0.929 . S
N3392 Mn3385 2.257 . S
N3392 C3391 1.326 . S
N3392 C3396 1.362 . S
C3393 C3394 1.258 . S
C3393 C3396 1.431 . S
C3393 C3413 1.449 . S
C3394 C3393 1.258 . S
C3394 C3395 1.477 . S
C3394 H3414 0.931 . S
C3395 C3391 1.460 . S
C3395 C3394 1.477 . S
C3395 H3415 0.930 . S
C3396 N3392 1.362 . S
C3396 C3393 1.431 . S
C3396 C3406 1.476 . S
H3397 C3391 0.929 . S
C3398 O3389 1.250 . S
C3398 O3390 1.258 . S
O3399 Mn3384 2.162 . S
O3399 C3387 1.281 . S
O3400 Mn3384 2.297 . S
O3400 C3387 1.236 . S
N3401 Mn3385 2.282 . S
N3401 C3402 1.328 . S
N3401 C3406 1.318 . S
C3402 N3401 1.328 . S
C3402 C3403 1.457 1_565 S
C3402 H3407 0.938 . S
C3403 C3402 1.457 1_545 S
C3403 C3404 1.291 1_545 S
C3403 H3416 0.931 . S
C3404 C3403 1.291 1_565 S
C3404 C3405 1.373 . S
C3404 H3417 0.929 1_565 S
C3405 C3404 1.373 . S
C3405 C3406 1.396 . S
C3405 C3412 1.403 . S
C3406 C3396 1.476 . S
C3406 N3401 1.318 . S
C3406 C3405 1.396 . S
H3407 C3402 0.938 . S
O3408 Mn3384 2.385 . S
O3408 C3386 1.234 . S
O3409 Mn3384 2.209 . S
O3409 Mn3385 2.215 . S
O3409 C3386 1.283 . S
O3410 Mn3384 2.094 . S
O3410 C3388 1.240 . S
O3411 Mn3385 2.117 . S
O3411 C3388 1.264 . S
C3412 C3405 1.403 . S
C3412 C3413 1.399 . S
C3412 H3418 0.929 . S
C3413 C3393 1.449 . S
C3413 C3412 1.399 . S
C3413 H3419 0.930 . S
H3414 C3394 0.931 . S
H3415 C3395 0.930 . S
H3416 C3403 0.931 . S
H3417 C3404 0.929 1_545 S
H3418 C3412 0.929 . S
H3419 C3413 0.930 . S
Mn3420 O3425 2.095 . S
Mn3420 O3435 2.162 . S
Mn3420 O3436 2.297 . S
Mn3420 O3444 2.385 . S
Mn3420 O3445 2.209 . S
Mn3420 O3446 2.094 . S
Mn3421 O3426 2.121 . S
Mn3421 N3428 2.257 . S
Mn3421 N3437 2.282 . S
Mn3421 O3445 2.215 . S
Mn3421 O3447 2.117 . S
C3422 O3444 1.234 . S
C3422 O3445 1.283 . S
C3423 O3435 1.281 . S
C3423 O3436 1.236 . S
C3424 O3446 1.240 . S
C3424 O3447 1.264 . S
O3425 Mn3420 2.095 . S
O3425 C3434 1.250 . S
O3426 Mn3421 2.121 . S
O3426 C3434 1.258 . S
C3427 N3428 1.326 . S
C3427 C3431 1.460 . S
C3427 H3433 0.929 . S
N3428 Mn3421 2.257 . S
N3428 C3427 1.326 . S
N3428 C3432 1.362 . S
C3429 C3430 1.258 . S
C3429 C3432 1.431 . S
C3429 C3449 1.449 . S
C3430 C3429 1.258 . S
C3430 C3431 1.477 . S
C3430 H3450 0.931 . S
C3431 C3427 1.460 . S
C3431 C3430 1.477 . S
C3431 H3451 0.930 . S
C3432 N3428 1.362 . S
C3432 C3429 1.431 . S
C3432 C3442 1.476 . S
H3433 C3427 0.929 . S
C3434 O3425 1.250 . S
C3434 O3426 1.258 . S
O3435 Mn3420 2.162 . S
O3435 C3423 1.281 . S
O3436 Mn3420 2.297 . S
O3436 C3423 1.236 . S
N3437 Mn3421 2.282 . S
N3437 C3438 1.328 . S
N3437 C3442 1.318 . S
C3438 N3437 1.328 . S
C3438 C3439 1.457 1_545 S
C3438 H3443 0.938 . S
C3439 C3438 1.457 1_565 S
C3439 C3440 1.291 1_565 S
C3439 H3452 0.931 . S
C3440 C3439 1.291 1_545 S
C3440 C3441 1.373 . S
C3440 H3453 0.929 1_545 S
C3441 C3440 1.373 . S
C3441 C3442 1.396 . S
C3441 C3448 1.403 . S
C3442 C3432 1.476 . S
C3442 N3437 1.318 . S
C3442 C3441 1.396 . S
H3443 C3438 0.938 . S
O3444 Mn3420 2.385 . S
O3444 C3422 1.234 . S
O3445 Mn3420 2.209 . S
O3445 Mn3421 2.215 . S
O3445 C3422 1.283 . S
O3446 Mn3420 2.094 . S
O3446 C3424 1.240 . S
O3447 Mn3421 2.117 . S
O3447 C3424 1.264 . S
C3448 C3441 1.403 . S
C3448 C3449 1.399 . S
C3448 H3454 0.929 . S
C3449 C3429 1.449 . S
C3449 C3448 1.399 . S
C3449 H3455 0.930 . S
H3450 C3430 0.931 . S
H3451 C3431 0.930 . S
H3452 C3439 0.931 . S
H3453 C3440 0.929 1_565 S
H3454 C3448 0.929 . S
H3455 C3449 0.930 . S
C4 C2702 1.639 . S
C866 C40 1.639 . S
C2630 C76 1.639 . S
C938 C112 1.639 . S
C148 C2774 1.639 . S
C184 C1082 1.639 . S
C2846 C220 1.639 . S
C256 C1010 1.639 . S
C292 C3242 1.639 . S
C1550 C328 1.639 . S
C364 C1586 1.639 . S
C400 C1478 1.639 . S
C436 C3386 1.639 . S
C472 C3170 1.639 . S
C508 C3422 1.639 . S
C544 C3350 1.639 . S
C2918 C580 1.639 . S
C616 C1406 1.639 . S
C652 C3026 1.639 . S
C1334 C688 1.639 . S
C724 C1370 1.639 . S
C2990 C760 1.639 . S
C796 C2882 1.639 . S
C2954 C832 1.639 . S
C1838 C868 1.639 . S
C2 C904 1.639 . S
C940 C1766 1.639 . S
C976 C74 1.639 . S
C1012 C1910 1.639 . S
C218 C1048 1.639 . S
C1084 C1982 1.639 . S
C1120 C146 1.639 . S
C1156 C2378 1.639 . S
C686 C1192 1.639 . S
C1228 C722 1.639 . S
C614 C1264 1.639 . S
C1300 C2522 1.639 . S
C1336 C2306 1.639 . S
C1372 C2558 1.639 . S
C2486 C1408 1.639 . S
C2054 C1444 1.639 . S
C542 C1480 1.639 . S
C2162 C1516 1.639 . S
C1552 C470 1.639 . S
C1588 C506 1.639 . S
C1624 C2126 1.639 . S
C2018 C1660 1.639 . S
C1696 C2090 1.639 . S
C974 C1732 1.639 . S
C2594 C1768 1.639 . S
C1804 C902 1.639 . S
C2666 C1840 1.639 . S
C1876 C1046 1.639 . S
C2810 C1912 1.639 . S
C1948 C1118 1.639 . S
C2738 C1984 1.639 . S
C1514 C2020 1.639 . S
C2056 C3278 1.639 . S
C3314 C2092 1.639 . S
C2128 C3206 1.639 . S
C1658 C2164 1.639 . S
C2200 C1442 1.639 . S
C1694 C2236 1.639 . S
C1622 C2272 1.639 . S
C1190 C2308 1.639 . S
C3134 C2344 1.639 . S
C2380 C1298 1.639 . S
C2416 C3062 1.639 . S
C3098 C2452 1.639 . S
C1262 C2488 1.639 . S
C1154 C2524 1.639 . S
C1226 C2560 1.639 . S
C2596 C110 1.639 . S
C2632 C1730 1.639 . S
C2668 C38 1.639 . S
C2704 C1802 1.639 . S
C182 C2740 1.639 . S
C1946 C2776 1.639 . S
C254 C2812 1.639 . S
C1874 C2848 1.639 . S
C2884 C650 1.639 . S
C2414 C2920 1.639 . S
C2956 C2450 1.639 . S
C2992 C2342 1.639 . S
C794 C3028 1.639 . S
C578 C3064 1.639 . S
C3100 C830 1.639 . S
C758 C3136 1.639 . S
C3172 C326 1.639 . S
C3208 C2270 1.639 . S
C434 C3244 1.639 . S
C3280 C2198 1.639 . S
C2234 C3316 1.639 . S
C3352 C398 1.639 . S
C3388 C290 1.639 . S
C3424 C362 1.639 . S
C14 C338 1.016 . S
C50 C374 1.016 . S
C410 C86 1.016 . S
C122 C302 1.016 . S
C554 C158 1.016 . S
C194 C446 1.016 . S
C230 C482 1.016 . S
C518 C266 1.016 . S
C662 C590 1.016 . S
C626 C2534 1.016 . S
C2570 C698 1.016 . S
C734 C2498 1.016 . S
C2462 C770 1.016 . S
C806 C2354 1.016 . S
C842 C2426 1.016 . S
C878 C1202 1.016 . S
C1238 C914 1.016 . S
C1274 C950 1.016 . S
C986 C1166 1.016 . S
C1418 C1022 1.016 . S
C1058 C1310 1.016 . S
C1346 C1094 1.016 . S
C1130 C1382 1.016 . S
C1526 C1454 1.016 . S
C1490 C3398 1.016 . S
C1562 C3434 1.016 . S
C3362 C1598 1.016 . S
C3326 C1634 1.016 . S
C3218 C1670 1.016 . S
C3290 C1706 1.016 . S
C2066 C1742 1.016 . S
C2102 C1778 1.016 . S
C2138 C1814 1.016 . S
C1850 C2030 1.016 . S
C1886 C2282 1.016 . S
C1922 C2174 1.016 . S
C1958 C2210 1.016 . S
C1994 C2246 1.016 . S
C2390 C2318 1.016 . S
C2930 C2606 1.016 . S
C2642 C2966 1.016 . S
C3002 C2678 1.016 . S
C2894 C2714 1.016 . S
C3146 C2750 1.016 . S
C3038 C2786 1.016 . S
C3074 C2822 1.016 . S
C3110 C2858 1.016 . S
C3254 C3182 1.016 . S
C3 C723 1.752 1_455 S
C2343 C39 1.752 . S
C2379 C75 1.752 . S
C2415 C111 1.752 1_556 S
C2559 C147 1.752 1_655 S
C183 C759 1.752 . S
C219 C2523 1.752 . S
C255 C579 1.752 1_556 S
C291 C543 1.752 1_545 S
C327 C435 1.752 1_545 S
C363 C471 1.752 1_565 S
C507 C399 1.752 1_545 S
C1767 C615 1.752 1_554 S
C651 C1803 1.752 1_455 S
C687 C1839 1.752 . S
C1947 C795 1.752 1_655 S
C831 C1875 1.752 . S
C867 C1587 1.752 1_655 S
C3207 C903 1.752 . S
C3243 C939 1.752 . S
C3279 C975 1.752 1_554 S
C1011 C3423 1.752 1_655 S
C1047 C1623 1.752 . S
C1083 C3387 1.752 . S
C1119 C1443 1.752 1_554 S
C1155 C1407 1.752 1_565 S
C1191 C1299 1.752 1_565 S
C1335 C1227 1.752 1_565 S
C1263 C1371 1.752 1_545 S
C2631 C1479 1.752 1_556 S
C1515 C2667 1.752 1_655 S
C2703 C1551 1.752 . S
C1659 C2811 1.752 1_655 S
C2739 C1695 1.752 . S
C1731 C2451 1.752 . S
C1911 C2487 1.752 1_556 S
C1983 C2307 1.752 . S
C2271 C2019 1.752 . S
C2055 C2163 1.752 . S
C2199 C2091 1.752 . S
C2127 C2235 1.752 . S
C3315 C2595 1.752 . S
C2775 C3351 1.752 1_554 S
C2847 C3171 1.752 . S
C3135 C2883 1.752 . S
C3027 C2919 1.752 . S
C2955 C3063 1.752 . S
C2991 C3099 1.752 . S
