# Generated by pormake.
# Topology umc, (4)-cn, num edge types: 1
# Building blocks:
#     Node 0, Type 0, BuildingBlock: ESEHIV_clean_sbu_0, # of connection points: 4
#     Node 1, Type 0, BuildingBlock: ESEHIV_clean_sbu_0, # of connection points: 4
#     Node 2, Type 0, BuildingBlock: ESEHIV_clean_sbu_0, # of connection points: 4
#     Node 3, Type 0, BuildingBlock: ESEHIV_clean_sbu_0, # of connection points: 4
#     Node 4, Type 0, BuildingBlock: ESEHIV_clean_sbu_0, # of connection points: 4
#     Node 5, Type 0, BuildingBlock: ESEHIV_clean_sbu_0, # of connection points: 4
#     Node 6, Type 0, BuildingBlock: ESEHIV_clean_sbu_0, # of connection points: 4
#     Node 7, Type 0, BuildingBlock: ESEHIV_clean_sbu_0, # of connection points: 4
#     Node 8, Type 0, BuildingBlock: ESEHIV_clean_sbu_0, # of connection points: 4
#     Node 9, Type 0, BuildingBlock: ESEHIV_clean_sbu_0, # of connection points: 4
#     Node 10, Type 0, BuildingBlock: ESEHIV_clean_sbu_0, # of connection points: 4
#     Node 11, Type 0, BuildingBlock: ESEHIV_clean_sbu_0, # of connection points: 4
#     Node 12, Type 0, BuildingBlock: ESEHIV_clean_sbu_0, # of connection points: 4
#     Node 13, Type 0, BuildingBlock: ESEHIV_clean_sbu_0, # of connection points: 4
#     Node 14, Type 0, BuildingBlock: ESEHIV_clean_sbu_0, # of connection points: 4
#     Node 15, Type 0, BuildingBlock: ESEHIV_clean_sbu_0, # of connection points: 4
#     Edge 16, Type (0, 0), BuildingBlock: AJUNOK_clean_linker_0, # of connection points: 2
#     Edge 17, Type (0, 0), BuildingBlock: AJUNOK_clean_linker_0, # of connection points: 2
#     Edge 18, Type (0, 0), BuildingBlock: AJUNOK_clean_linker_0, # of connection points: 2
#     Edge 19, Type (0, 0), BuildingBlock: AJUNOK_clean_linker_0, # of connection points: 2
#     Edge 20, Type (0, 0), BuildingBlock: AJUNOK_clean_linker_0, # of connection points: 2
#     Edge 21, Type (0, 0), BuildingBlock: AJUNOK_clean_linker_0, # of connection points: 2
#     Edge 22, Type (0, 0), BuildingBlock: AJUNOK_clean_linker_0, # of connection points: 2
#     Edge 23, Type (0, 0), BuildingBlock: AJUNOK_clean_linker_0, # of connection points: 2
#     Edge 24, Type (0, 0), BuildingBlock: AJUNOK_clean_linker_0, # of connection points: 2
#     Edge 25, Type (0, 0), BuildingBlock: AJUNOK_clean_linker_0, # of connection points: 2
#     Edge 26, Type (0, 0), BuildingBlock: AJUNOK_clean_linker_0, # of connection points: 2
#     Edge 27, Type (0, 0), BuildingBlock: AJUNOK_clean_linker_0, # of connection points: 2
#     Edge 28, Type (0, 0), BuildingBlock: AJUNOK_clean_linker_0, # of connection points: 2
#     Edge 29, Type (0, 0), BuildingBlock: AJUNOK_clean_linker_0, # of connection points: 2
#     Edge 30, Type (0, 0), BuildingBlock: AJUNOK_clean_linker_0, # of connection points: 2
#     Edge 31, Type (0, 0), BuildingBlock: AJUNOK_clean_linker_0, # of connection points: 2
#     Edge 32, Type (0, 0), BuildingBlock: AJUNOK_clean_linker_0, # of connection points: 2
#     Edge 33, Type (0, 0), BuildingBlock: AJUNOK_clean_linker_0, # of connection points: 2
#     Edge 34, Type (0, 0), BuildingBlock: AJUNOK_clean_linker_0, # of connection points: 2
#     Edge 35, Type (0, 0), BuildingBlock: AJUNOK_clean_linker_0, # of connection points: 2
#     Edge 36, Type (0, 0), BuildingBlock: AJUNOK_clean_linker_0, # of connection points: 2
#     Edge 37, Type (0, 0), BuildingBlock: AJUNOK_clean_linker_0, # of connection points: 2
#     Edge 38, Type (0, 0), BuildingBlock: AJUNOK_clean_linker_0, # of connection points: 2
#     Edge 39, Type (0, 0), BuildingBlock: AJUNOK_clean_linker_0, # of connection points: 2
#     Edge 40, Type (0, 0), BuildingBlock: AJUNOK_clean_linker_0, # of connection points: 2
#     Edge 41, Type (0, 0), BuildingBlock: AJUNOK_clean_linker_0, # of connection points: 2
#     Edge 42, Type (0, 0), BuildingBlock: AJUNOK_clean_linker_0, # of connection points: 2
#     Edge 43, Type (0, 0), BuildingBlock: AJUNOK_clean_linker_0, # of connection points: 2
#     Edge 44, Type (0, 0), BuildingBlock: AJUNOK_clean_linker_0, # of connection points: 2
#     Edge 45, Type (0, 0), BuildingBlock: AJUNOK_clean_linker_0, # of connection points: 2
#     Edge 46, Type (0, 0), BuildingBlock: AJUNOK_clean_linker_0, # of connection points: 2
#     Edge 47, Type (0, 0), BuildingBlock: AJUNOK_clean_linker_0, # of connection points: 2
# Relax obj value: 0.038
# Max RMSD: 0.093
# Mean RMSD: 0.093
data_MOF--net-umc--node1-ESEHIV_clean_sbu_0--edge1-AJUNOK_clean_linker_0
_symmetry_space_group_name_H-M    P1
_symmetry_Int_Tables_number       1
_symmetry_cell_setting            triclinic
loop_
_symmetry_equiv_pos_as_xyz
'x, y, z'
_cell_length_a     45.30021
_cell_length_b     26.458855
_cell_length_c     40.384265
_cell_angle_alpha  90.379989
_cell_angle_beta   90.002981
_cell_angle_gamma 89.98374
loop_
_atom_site_label
_atom_site_type_symbol
_atom_site_fract_x
_atom_site_fract_y
_atom_site_fract_z
_atom_type_partial_charge
Cu0 Cu 0.39866 0.08663 0.40225 0.0
N1 N 0.43963 0.0901 0.39802 0.0
N2 N 0.48624 0.06306 0.39471 0.0
C3 C 0.45791 0.05016 0.40037 0.0
C4 C 0.48591 0.11317 0.38886 0.0
C5 C 0.45702 0.12972 0.3906 0.0
O6 O 0.38349 0.06176 0.36035 0.0
C7 C 0.36585 0.04361 0.45561 0.0
O8 O 0.34252 0.06208 0.44065 0.0
H9 H 0.45054 0.01229 0.40609 0.0
H10 H 0.44924 0.16767 0.38606 0.0
N11 N 0.38174 0.15011 0.40923 0.0
N12 N 0.34648 0.20858 0.41307 0.0
C13 C 0.3531 0.16091 0.40401 0.0
C14 C 0.39362 0.1926 0.42211 0.0
C15 C 0.37182 0.22904 0.42429 0.0
C16 C 0.38923 0.01854 0.34807 0.0
O17 O 0.4031 0.98505 0.3662 0.0
H18 H 0.33722 0.13401 0.39436 0.0
H19 H 0.41624 0.19638 0.43031 0.0
O20 O 0.39076 0.04592 0.44117 0.0
H21 H 0.50506 0.13579 0.38286 0.0
H22 H 0.37407 0.26679 0.43447 0.0
Cu23 Cu 0.67599 0.91492 0.3979 0.0
N24 N 0.63502 0.90869 0.39562 0.0
N25 N 0.58767 0.93263 0.39385 0.0
C26 C 0.61609 0.94789 0.39529 0.0
C27 C 0.58886 0.88159 0.39351 0.0
C28 C 0.61811 0.86696 0.39439 0.0
O29 O 0.68925 0.94052 0.3557 0.0
C30 C 0.70964 0.96024 0.44969 0.0
O31 O 0.73251 0.94046 0.43438 0.0
H32 H 0.62313 0.98697 0.39589 0.0
H33 H 0.62636 0.82863 0.39435 0.0
N34 N 0.69469 0.85301 0.40451 0.0
N35 N 0.73195 0.79799 0.40707 0.0
C36 C 0.72256 0.84267 0.39517 0.0
C37 C 0.68603 0.81332 0.4228 0.0
C38 C 0.70896 0.77895 0.42413 0.0
C39 C 0.68696 0.98617 0.34659 0.0
O40 O 0.6774 0.02026 0.36781 0.0
H41 H 0.73604 0.86834 0.38091 0.0
H42 H 0.66512 0.81063 0.43557 0.0
O43 O 0.68439 0.95744 0.43605 0.0
H44 H 0.57005 0.85643 0.39349 0.0
H45 H 0.7093 0.74405 0.43797 0.0
Cu46 Cu 0.3998 0.92546 0.14925 0.0
N47 N 0.44079 0.92299 0.15396 0.0
N48 N 0.4873 0.95056 0.15707 0.0
C49 C 0.459 0.96284 0.1506 0.0
C50 C 0.48701 0.90098 0.16455 0.0
C51 C 0.45818 0.88414 0.16294 0.0
O52 O 0.38381 0.949 0.19111 0.0
C53 C 0.36657 0.96893 0.09643 0.0
O54 O 0.34344 0.95073 0.11185 0.0
H55 H 0.45161 1.00019 0.14363 0.0
H56 H 0.45043 0.84655 0.16864 0.0
N57 N 0.38363 0.86149 0.14182 0.0
N58 N 0.34899 0.80134 0.13811 0.0
C59 C 0.35508 0.84964 0.1467 0.0
C60 C 0.39631 0.81916 0.12995 0.0
C61 C 0.37508 0.78184 0.12792 0.0
C62 C 0.39111 0.99007 0.20535 0.0
O63 O 0.40679 0.02344 0.18905 0.0
H64 H 0.33895 0.87653 0.15574 0.0
H65 H 0.41927 0.81567 0.12301 0.0
O66 O 0.39169 0.96632 0.11043 0.0
H67 H 0.50614 0.87899 0.17159 0.0
H68 H 0.3789 0.74329 0.11999 0.0
Cu69 Cu 0.67706 0.09939 0.15229 0.0
N70 N 0.63601 0.10519 0.15397 0.0
N71 N 0.58865 0.08119 0.15581 0.0
C72 C 0.61711 0.06596 0.15496 0.0
C73 C 0.58979 0.13221 0.15507 0.0
C74 C 0.61901 0.14688 0.15417 0.0
O75 O 0.69021 0.07549 0.19497 0.0
C76 C 0.71206 0.05369 0.10194 0.0
O77 O 0.73442 0.07312 0.11831 0.0
H78 H 0.62419 0.02691 0.15524 0.0
H79 H 0.6272 0.18522 0.15351 0.0
N80 N 0.69554 0.16138 0.14528 0.0
N81 N 0.73276 0.21642 0.14263 0.0
C82 C 0.72327 0.1721 0.15493 0.0
C83 C 0.68708 0.2005 0.12634 0.0
C84 C 0.70999 0.23491 0.12495 0.0
C85 C 0.68664 0.03097 0.20574 0.0
O86 O 0.67608 0.99601 0.18576 0.0
H87 H 0.73667 0.14683 0.16963 0.0
H88 H 0.66637 0.2027 0.11312 0.0
O89 O 0.6864 0.05629 0.11467 0.0
H90 H 0.57096 0.15732 0.15437 0.0
H91 H 0.7105 0.26934 0.11064 0.0
Cu92 Cu 0.67904 0.93228 0.64909 0.0
N93 N 0.63822 0.92548 0.65341 0.0
N94 N 0.59107 0.94941 0.65725 0.0
C95 C 0.61939 0.96475 0.65539 0.0
C96 C 0.59201 0.89849 0.65628 0.0
C97 C 0.62121 0.88376 0.65421 0.0
O98 O 0.69219 0.9716 0.68696 0.0
C99 C 0.7107 0.96636 0.59259 0.0
O100 O 0.73403 0.94923 0.60826 0.0
H101 H 0.62633 1.00388 0.6547 0.0
H102 H 0.62932 0.84539 0.6533 0.0
N103 N 0.6984 0.86987 0.64778 0.0
N104 N 0.73529 0.81388 0.64973 0.0
C105 C 0.72602 0.86059 0.65852 0.0
C106 C 0.68995 0.82762 0.63164 0.0
C107 C 0.71254 0.79279 0.63314 0.0
C108 C 0.68964 0.95185 0.71549 0.0
O109 O 0.68051 0.90482 0.71747 0.0
H110 H 0.73935 0.88821 0.67157 0.0
H111 H 0.66947 0.82335 0.61818 0.0
O112 O 0.68579 0.96547 0.60709 0.0
H113 H 0.57297 0.87382 0.65721 0.0
H114 H 0.71287 0.7559 0.62139 0.0
Cu115 Cu 0.39974 0.09345 0.65079 0.0
N116 N 0.4406 0.09921 0.65541 0.0
N117 N 0.48795 0.07586 0.65943 0.0
C118 C 0.45998 0.06072 0.65332 0.0
C119 C 0.48602 0.12609 0.66528 0.0
C120 C 0.45678 0.14026 0.66309 0.0
O121 O 0.38455 0.07029 0.69282 0.0
C122 C 0.36708 0.04666 0.59859 0.0
O123 O 0.34379 0.0646 0.61405 0.0
H124 H 0.45353 0.0221 0.64812 0.0
H125 H 0.44797 0.17775 0.66718 0.0
N126 N 0.38212 0.15596 0.64304 0.0
N127 N 0.34639 0.21343 0.63912 0.0
C128 C 0.35349 0.16641 0.64873 0.0
C129 C 0.39347 0.19794 0.62927 0.0
C130 C 0.37137 0.23379 0.62704 0.0
C131 C 0.3906 0.02802 0.70585 0.0
O132 O 0.40449 0.99349 0.68828 0.0
H133 H 0.33799 0.13975 0.65915 0.0
H134 H 0.41593 0.20176 0.6206 0.0
O135 O 0.39225 0.05078 0.61233 0.0
H136 H 0.50436 0.15114 0.67034 0.0
H137 H 0.37318 0.27105 0.61632 0.0
Cu138 Cu 0.67819 0.0871 0.90451 0.0
N139 N 0.6371 0.09197 0.90429 0.0
N140 N 0.59028 0.06548 0.90174 0.0
C141 C 0.61846 0.05658 0.89239 0.0
C142 C 0.59123 0.10843 0.91988 0.0
C143 C 0.62016 0.1243 0.92177 0.0
O144 O 0.68989 0.04735 0.86608 0.0
C145 C 0.71298 0.0482 0.95897 0.0
O146 O 0.73653 0.05611 0.94081 0.0
H147 H 0.62569 0.02388 0.87835 0.0
H148 H 0.62844 0.15517 0.93677 0.0
N149 N 0.69606 0.15091 0.90248 0.0
N150 N 0.73123 0.21006 0.90053 0.0
C151 C 0.72529 0.16012 0.90112 0.0
C152 C 0.68309 0.19672 0.90197 0.0
C153 C 0.70474 0.23329 0.9009 0.0
C154 C 0.68813 0.0687 0.83796 0.0
O155 O 0.67942 0.11601 0.83682 0.0
H156 H 0.74194 0.13083 0.90071 0.0
H157 H 0.65956 0.20328 0.90193 0.0
O158 O 0.68756 0.05631 0.94673 0.0
H159 H 0.57264 0.12526 0.93269 0.0
H160 H 0.70125 0.27372 0.89984 0.0
Cu161 Cu 0.3988 0.92475 0.89954 0.0
N162 N 0.43934 0.91896 0.89249 0.0
N163 N 0.48677 0.94155 0.88927 0.0
C164 C 0.45974 0.95375 0.90089 0.0
C165 C 0.4832 0.89746 0.87276 0.0
C166 C 0.45387 0.88373 0.87467 0.0
O167 O 0.38228 0.95355 0.85973 0.0
C168 C 0.36766 0.97162 0.95314 0.0
O169 O 0.34388 0.96206 0.93562 0.0
H170 H 0.45467 0.98801 0.91455 0.0
H171 H 0.44362 0.85148 0.86276 0.0
N172 N 0.38129 0.86157 0.90471 0.0
N173 N 0.34568 0.80381 0.90872 0.0
C174 C 0.35203 0.85291 0.90398 0.0
C175 C 0.39391 0.81622 0.90993 0.0
C176 C 0.37188 0.78027 0.91215 0.0
C177 C 0.39101 0.99518 0.84772 0.0
O178 O 0.40881 0.02401 0.86523 0.0
H179 H 0.33567 0.88188 0.89958 0.0
H180 H 0.41739 0.80975 0.91215 0.0
O181 O 0.39283 0.96269 0.9404 0.0
H182 H 0.50022 0.87782 0.85894 0.0
H183 H 0.37479 0.74025 0.91649 0.0
Cu184 Cu 0.9041 0.59432 0.4022 0.0
N185 N 0.94494 0.60137 0.3994 0.0
N186 N 0.99214 0.57729 0.3961 0.0
C187 C 0.96376 0.56429 0.3905 0.0
C188 C 0.9911 0.62433 0.40919 0.0
C189 C 0.96193 0.6391 0.4112 0.0
O190 O 0.89208 0.55011 0.36634 0.0
C191 C 0.8727 0.55073 0.45781 0.0
O192 O 0.84877 0.5495 0.43948 0.0
H193 H 0.9566 0.52724 0.38228 0.0
H194 H 0.95363 0.67369 0.42217 0.0
N195 N 0.88481 0.65646 0.39824 0.0
N196 N 0.84841 0.71357 0.39757 0.0
C197 C 0.85621 0.66573 0.40503 0.0
C198 C 0.89549 0.69984 0.38583 0.0
C199 C 0.87308 0.73512 0.38532 0.0
C200 C 0.89473 0.56713 0.33708 0.0
O201 O 0.90384 0.61384 0.33321 0.0
H202 H 0.84126 0.63779 0.41486 0.0
H203 H 0.91772 0.70493 0.37671 0.0
O204 O 0.8968 0.56679 0.44567 0.0
H205 H 1.01001 0.64572 0.41779 0.0
H206 H 0.87461 0.77292 0.37542 0.0
Cu207 Cu 0.18021 0.42217 0.40191 0.0
N208 N 0.13959 0.41905 0.39448 0.0
N209 N 0.09305 0.44598 0.38896 0.0
C210 C 0.12049 0.45726 0.39977 0.0
C211 C 0.09495 0.39849 0.37666 0.0
C212 C 0.12375 0.38216 0.37986 0.0
O213 O 0.19768 0.44755 0.3616 0.0
C214 C 0.21141 0.46917 0.45548 0.0
O215 O 0.23534 0.45579 0.43931 0.0
H216 H 0.12689 0.49337 0.41029 0.0
H217 H 0.13262 0.34639 0.37141 0.0
N218 N 0.19649 0.35832 0.4088 0.0
N219 N 0.23127 0.29864 0.41337 0.0
C220 C 0.22548 0.34764 0.40685 0.0
C221 C 0.18325 0.31453 0.41664 0.0
C222 C 0.20461 0.27754 0.41923 0.0
C223 C 0.19177 0.49048 0.34942 0.0
O224 O 0.17638 0.52311 0.36698 0.0
H225 H 0.24206 0.37561 0.40103 0.0
H226 H 0.15975 0.30975 0.42013 0.0
O227 O 0.18639 0.46209 0.4419 0.0
H228 H 0.0769 0.37695 0.36616 0.0
H229 H 0.20055 0.23807 0.42431 0.0
Cu230 Cu 0.90563 0.41792 0.1533 0.0
N231 N 0.94649 0.41001 0.1551 0.0
N232 N 0.99386 0.43335 0.15551 0.0
C233 C 0.96586 0.44699 0.16256 0.0
C234 C 0.99212 0.38575 0.14347 0.0
C235 C 0.96282 0.37154 0.14308 0.0
O236 O 0.89394 0.45997 0.19045 0.0
C237 C 0.87401 0.46534 0.09917 0.0
O238 O 0.85021 0.46603 0.11772 0.0
H239 H 0.95935 0.48438 0.17083 0.0
H240 H 0.95393 0.33678 0.13299 0.0
N241 N 0.88603 0.3558 0.15553 0.0
N242 N 0.8494 0.29916 0.15415 0.0
C243 C 0.85754 0.3472 0.1478 0.0
C244 C 0.89626 0.31172 0.16738 0.0
C245 C 0.87371 0.27674 0.16663 0.0
C246 C 0.89529 0.44054 0.21917 0.0
O247 O 0.90364 0.39323 0.22187 0.0
H248 H 0.8429 0.37575 0.13815 0.0
H249 H 0.91825 0.30593 0.17706 0.0
O250 O 0.8981 0.44828 0.11072 0.0
H251 H 1.01057 0.36349 0.13458 0.0
H252 H 0.87486 0.23851 0.1759 0.0
Cu253 Cu 0.1829 0.58662 0.15348 0.0
N254 N 0.14222 0.58959 0.1605 0.0
N255 N 0.09539 0.56308 0.16301 0.0
C256 C 0.12287 0.55332 0.15167 0.0
C257 C 0.09768 0.60713 0.1799 0.0
C258 C 0.1266 0.62334 0.17836 0.0
O259 O 0.20034 0.5595 0.19332 0.0
C260 C 0.21421 0.5408 0.09923 0.0
O261 O 0.23824 0.55072 0.11623 0.0
H262 H 0.12932 0.51909 0.13876 0.0
H263 H 0.1358 0.65638 0.19041 0.0
N264 N 0.1993 0.65072 0.14821 0.0
N265 N 0.23419 0.70974 0.14395 0.0
C266 C 0.22847 0.66022 0.14765 0.0
C267 C 0.18608 0.69604 0.14494 0.0
C268 C 0.20769 0.73275 0.14254 0.0
C269 C 0.19111 0.51976 0.2074 0.0
O270 O 0.17263 0.48991 0.19161 0.0
H271 H 0.24527 0.63154 0.15056 0.0
H272 H 0.16248 0.70203 0.14431 0.0
O273 O 0.1892 0.54901 0.11255 0.0
H274 H 0.07985 0.62582 0.19297 0.0
H275 H 0.20427 0.77295 0.13954 0.0
Cu276 Cu 0.17984 0.42572 0.65208 0.0
N277 N 0.13922 0.42214 0.65935 0.0
N278 N 0.09228 0.44718 0.66361 0.0
C279 C 0.11969 0.45932 0.65331 0.0
C280 C 0.09467 0.40068 0.67685 0.0
C281 C 0.12373 0.38542 0.67434 0.0
O282 O 0.19743 0.45096 0.69259 0.0
C283 C 0.21116 0.47195 0.59876 0.0
O284 O 0.23503 0.4591 0.6151 0.0
H285 H 0.12558 0.49498 0.64209 0.0
H286 H 0.13307 0.35077 0.68377 0.0
N287 N 0.1961 0.36183 0.64485 0.0
N288 N 0.23087 0.30209 0.64016 0.0
C289 C 0.22509 0.35123 0.64664 0.0
C290 C 0.18282 0.31784 0.63719 0.0
C291 C 0.20419 0.28081 0.6345 0.0
C292 C 0.18914 0.49117 0.70718 0.0
O293 O 0.1715 0.52258 0.69172 0.0
H294 H 0.24167 0.37935 0.65238 0.0
H295 H 0.15931 0.31291 0.63394 0.0
O296 O 0.18609 0.46518 0.61224 0.0
H297 H 0.07696 0.38009 0.68868 0.0
H298 H 0.20012 0.24122 0.62953 0.0
Cu299 Cu 0.90306 0.60031 0.65663 0.0
N300 N 0.94404 0.60498 0.65911 0.0
N301 N 0.99062 0.57695 0.65969 0.0
C302 C 0.96206 0.56604 0.66612 0.0
C303 C 0.99052 0.62505 0.64874 0.0
C304 C 0.96172 0.64208 0.64809 0.0
O305 O 0.89038 0.55573 0.69162 0.0
C306 C 0.8714 0.55707 0.60052 0.0
O307 O 0.84719 0.55709 0.61841 0.0
H308 H 0.9541 0.52989 0.67472 0.0
H309 H 0.95409 0.67778 0.63842 0.0
N310 N 0.8849 0.66343 0.66154 0.0
N311 N 0.84978 0.72285 0.66273 0.0
C312 C 0.85653 0.67456 0.65476 0.0
C313 C 0.89647 0.70603 0.67449 0.0
C314 C 0.87486 0.74275 0.67529 0.0
C315 C 0.89294 0.57155 0.7213 0.0
O316 O 0.90237 0.6179 0.72644 0.0
H317 H 0.84103 0.64767 0.64447 0.0
H318 H 0.91879 0.70968 0.68368 0.0
O319 O 0.89543 0.57315 0.61294 0.0
H320 H 1.00968 0.64544 0.64001 0.0
H321 H 0.87719 0.78046 0.68547 0.0
Cu322 Cu 0.18045 0.58819 0.90254 0.0
N323 N 0.13979 0.59026 0.89546 0.0
N324 N 0.09362 0.56182 0.88975 0.0
C325 C 0.12103 0.55181 0.90106 0.0
C326 C 0.0951 0.60871 0.87693 0.0
C327 C 0.12371 0.62598 0.88018 0.0
O328 O 0.19779 0.5617 0.86223 0.0
C329 C 0.21284 0.54411 0.95581 0.0
O330 O 0.23633 0.5576 0.93903 0.0
H331 H 0.12756 0.51687 0.91276 0.0
H332 H 0.13241 0.66125 0.87097 0.0
N333 N 0.19624 0.65264 0.90859 0.0
N334 N 0.23063 0.71316 0.91177 0.0
C335 C 0.22509 0.6638 0.90586 0.0
C336 C 0.1828 0.69648 0.91629 0.0
C337 C 0.20394 0.734 0.91807 0.0
C338 C 0.19087 0.51929 0.84955 0.0
O339 O 0.17464 0.48774 0.86671 0.0
H340 H 0.24176 0.63592 0.8999 0.0
H341 H 0.15933 0.70093 0.92022 0.0
O342 O 0.18751 0.55001 0.94276 0.0
H343 H 0.07706 0.62824 0.86494 0.0
H344 H 0.19972 0.7736 0.92289 0.0
Cu345 Cu 0.90403 0.41588 0.90104 0.0
N346 N 0.94492 0.40816 0.89868 0.0
N347 N 0.99219 0.43202 0.89541 0.0
C348 C 0.96389 0.44399 0.88842 0.0
C349 C 0.99092 0.38698 0.91084 0.0
C350 C 0.96174 0.37255 0.91302 0.0
O351 O 0.89207 0.45871 0.86481 0.0
C352 C 0.87253 0.46016 0.95666 0.0
O353 O 0.84808 0.4562 0.93937 0.0
H354 H 0.95691 0.47942 0.87769 0.0
H355 H 0.95331 0.34035 0.92636 0.0
N356 N 0.88418 0.35394 0.89825 0.0
N357 N 0.847 0.29831 0.89736 0.0
C358 C 0.85473 0.3475 0.89972 0.0
C359 C 0.89549 0.30727 0.89409 0.0
C360 C 0.87262 0.2729 0.89355 0.0
C361 C 0.89204 0.43985 0.83574 0.0
O362 O 0.89887 0.39191 0.83193 0.0
H363 H 0.83925 0.37847 0.90154 0.0
H364 H 0.91867 0.29869 0.89129 0.0
O365 O 0.89692 0.44638 0.94395 0.0
H366 H 1.00946 0.36772 0.92201 0.0
H367 H 0.87469 0.23233 0.89084 0.0
C368 C 0.33923 0.04527 0.51003 0.0
C369 C 0.3646 0.03227 0.49168 0.0
C370 C 0.33953 0.04601 0.54477 0.0
C371 C 0.36523 0.03381 0.56268 0.0
H372 H 0.31943 0.05806 0.49758 0.0
H373 H 0.31995 0.05935 0.55751 0.0
S374 S 0.43572 0.98735 0.52666 0.0
N375 N 0.41478 0.99955 0.49422 0.0
N376 N 0.41535 1.00101 0.55941 0.0
C377 C 0.38988 0.01625 0.54472 0.0
C378 C 0.38957 0.01546 0.50929 0.0
C379 C 0.73731 0.9615 0.53826 0.0
C380 C 0.71214 0.97619 0.55638 0.0
C381 C 0.73711 0.96024 0.50353 0.0
C382 C 0.71172 0.97363 0.48546 0.0
H383 H 0.75683 0.94792 0.5509 0.0
H384 H 0.75646 0.94565 0.49093 0.0
S385 S 0.64209 0.0248 0.52087 0.0
N386 N 0.66265 0.01178 0.55347 0.0
N387 N 0.66228 0.00946 0.4883 0.0
C388 C 0.68736 0.99288 0.5032 0.0
C389 C 0.68756 0.99412 0.53859 0.0
C390 C 0.39124 0.98961 0.04261 0.0
C391 C 0.36501 0.98092 0.06043 0.0
C392 C 0.39151 0.99007 1.00789 0.0
C393 C 0.36556 0.98206 0.98939 0.0
H394 H 0.41214 0.99332 0.05543 0.0
H395 H 0.41259 0.99422 0.99552 0.0
S396 S 0.29013 0.96651 1.02402 0.0
N397 N 0.31169 0.97083 0.05686 0.0
N398 N 0.31219 0.97175 0.9917 0.0
C399 C 0.33875 0.97776 1.00688 0.0
C400 C 0.33849 0.97717 0.04233 0.0
C401 C 0.68982 0.0265 1.01322 0.0
C402 C 0.7154 0.03873 0.99516 0.0
C403 C 0.68962 0.02742 0.0479 0.0
C404 C 0.71496 0.04088 0.06612 0.0
H405 H 0.66926 0.0185 1.00051 0.0
H406 H 0.66888 0.02028 0.06038 0.0
S407 S 0.78903 0.06802 0.0309 0.0
N408 N 0.76781 0.05843 0.99823 0.0
N409 N 0.76746 0.06025 0.06342 0.0
C410 C 0.74139 0.04888 0.04846 0.0
C411 C 0.7416 0.0478 1.01301 0.0
C412 C 0.84447 0.55201 0.54627 0.0
C413 C 0.87057 0.54512 0.56463 0.0
C414 C 0.84478 0.55032 0.51147 0.0
C415 C 0.8712 0.54168 0.49395 0.0
H416 H 0.82405 0.56178 0.55871 0.0
H417 H 0.82459 0.55891 0.49829 0.0
S418 S 0.94416 0.51126 0.53062 0.0
N419 N 0.92252 0.52192 0.5628 0.0
N420 N 0.9231 0.51884 0.49767 0.0
C421 C 0.89684 0.53053 0.51213 0.0
C422 C 0.89652 0.53222 0.5474 0.0
C423 C 0.18627 0.48771 0.54436 0.0
C424 C 0.21261 0.48285 0.56261 0.0
C425 C 0.18633 0.48701 0.50964 0.0
C426 C 0.21274 0.48139 0.49155 0.0
H427 H 0.16514 0.48931 0.55688 0.0
H428 H 0.16524 0.48809 0.49701 0.0
S429 S 0.28828 0.47715 0.52727 0.0
N430 N 0.26626 0.47964 0.55981 0.0
N431 N 0.26637 0.4783 0.49462 0.0
C432 C 0.23947 0.48116 0.50941 0.0
C433 C 0.2394 0.48189 0.54488 0.0
C434 C 0.84561 0.46473 1.0109 0.0
C435 C 0.87162 0.4725 0.99252 0.0
C436 C 0.84593 0.46623 0.0457 0.0
C437 C 0.87227 0.47547 0.0632 0.0
H438 H 0.82528 0.45431 0.9985 0.0
H439 H 0.82586 0.4568 0.05887 0.0
S440 S 0.94488 0.50824 1.02663 0.0
N441 N 0.92333 0.49728 0.99442 0.0
N442 N 0.92391 0.49983 0.05955 0.0
C443 C 0.89775 0.4876 0.04505 0.0
C444 C 0.89743 0.48619 1.00977 0.0
C445 C 0.18937 0.52326 0.04491 0.0
C446 C 0.21567 0.53083 0.06289 0.0
C447 C 0.18903 0.52408 1.01021 0.0
C448 C 0.21498 0.53256 0.99184 0.0
H449 H 0.1685 0.51911 0.05771 0.0
H450 H 0.16791 0.52055 0.99782 0.0
S451 S 0.2905 0.54642 1.02668 0.0
N452 N 0.269 0.54097 0.05944 0.0
N453 N 0.26837 0.54245 0.9943 0.0
C454 C 0.24182 0.53604 1.00937 0.0
C455 C 0.24217 0.53519 0.04483 0.0
C456 C 0.56236 0.01192 0.41017 0.0
C457 C 0.56182 0.96472 0.39375 0.0
C458 C 0.5377 0.04403 0.41017 0.0
C459 C 0.51144 0.02995 0.39411 0.0
H460 H 0.58188 0.02396 0.4235 0.0
H461 H 0.53896 0.0798 0.42328 0.0
S462 S 0.49905 0.91313 0.34495 0.0
N463 N 0.53315 0.90753 0.35893 0.0
N464 N 0.48669 0.96744 0.35979 0.0
C465 C 0.51058 0.98333 0.37732 0.0
C466 C 0.53577 0.95082 0.37696 0.0
C467 C 0.5389 0.96879 0.14176 0.0
C468 C 0.51245 0.98381 0.15705 0.0
C469 C 0.56354 1.00091 0.14126 0.0
C470 C 0.56281 0.04907 0.15641 0.0
H471 H 0.54033 0.93223 0.12966 0.0
H472 H 0.58321 0.98807 0.12854 0.0
S473 S 0.49944 0.10348 0.20292 0.0
N474 N 0.48727 0.04832 0.18932 0.0
N475 N 0.5337 0.10826 0.18932 0.0
C476 C 0.53655 0.06395 0.17246 0.0
C477 C 0.51137 0.03141 0.17257 0.0
C478 C 0.54082 0.97046 0.63823 0.0
C479 C 0.56522 0.98099 0.6586 0.0
C480 C 0.51579 1.00172 0.63854 0.0
C481 C 0.51407 0.04442 0.65952 0.0
H482 H 0.54139 0.93837 0.62146 0.0
H483 H 0.49782 0.99274 0.62185 0.0
S484 S 0.5711 0.08465 0.72034 0.0
N485 N 0.58565 0.03485 0.70166 0.0
N486 N 0.5384 0.09291 0.70312 0.0
C487 C 0.53816 0.05449 0.68065 0.0
C488 C 0.56375 0.02294 0.67999 0.0
C489 C 0.53682 0.05495 0.89229 0.0
C490 C 0.56485 0.03336 0.89715 0.0
C491 C 0.51148 0.02477 0.88956 0.0
C492 C 0.51318 0.97178 0.8916 0.0
H493 H 0.53451 0.09558 0.89055 0.0
H494 H 0.4904 0.04303 0.88557 0.0
S495 S 0.58088 0.89664 0.90675 0.0
N496 N 0.59254 0.95573 0.9056 0.0
N497 N 0.54493 0.8991 0.90023 0.0
C498 C 0.54102 0.94965 0.89655 0.0
C499 C 0.56685 0.98039 0.89939 0.0
C500 C 1.03933 0.54524 0.41827 0.0
C501 C 1.01764 0.5449 0.39336 0.0
C502 C 0.06376 0.51274 0.41667 0.0
C503 C 0.06753 0.47871 0.39005 0.0
H504 H 1.03708 0.57009 0.43952 0.0
H505 H 0.07962 0.51373 0.43671 0.0
S506 S 1.01836 0.46678 0.31683 0.0
N507 N 1.00228 0.51001 0.34036 0.0
N508 N 0.04836 0.44936 0.33701 0.0
C509 C 0.04625 0.47875 0.36462 0.0
C510 C 1.02129 0.51173 0.36636 0.0
C511 C 0.04919 0.52844 0.18656 0.0
C512 C 0.06972 0.53085 0.1604 0.0
C513 C 1.02449 0.49647 0.18481 0.0
C514 C 1.01955 0.46538 0.15701 0.0
H515 H 0.05246 0.5508 0.20879 0.0
H516 H 1.00932 0.49548 0.20552 0.0
S517 S 0.06463 0.4614 0.08043 0.0
N518 N 0.08194 0.50215 0.10473 0.0
N519 N 1.03587 0.44155 0.10182 0.0
C520 C 1.03953 0.468 0.13047 0.0
C521 C 0.06452 0.50083 0.13209 0.0
C522 C 0.04379 0.56236 0.66951 0.0
C523 C 1.01573 0.54335 0.66109 0.0
C524 C 0.06868 0.5308 0.67025 0.0
C525 C 0.06645 0.47894 0.66277 0.0
H526 H 0.04647 0.60193 0.67581 0.0
H527 H 0.08979 0.54691 0.67713 0.0
S528 S 0.99888 0.41105 0.63618 0.0
N529 N 0.98778 0.4697 0.64281 0.0
N530 N 1.03447 0.41046 0.64496 0.0
C531 C 1.03868 0.45946 0.65404 0.0
C532 C 1.01335 0.49161 0.653 0.0
C533 C 1.04003 0.54841 0.89658 0.0
C534 C 0.0683 0.52879 0.89005 0.0
C535 C 1.0152 0.51677 0.89777 0.0
C536 C 1.01771 0.4643 0.89235 0.0
H537 H 1.03722 0.58839 0.90153 0.0
H538 H 0.99401 0.53335 0.90382 0.0
S539 S 0.08618 0.39515 0.87017 0.0
N540 N 0.09696 0.4543 0.87529 0.0
N541 N 0.05033 0.39489 0.87758 0.0
C542 C 0.04571 0.44447 0.88483 0.0
C543 C 0.07099 0.47666 0.88365 0.0
C544 C 0.28303 0.29436 0.39372 0.0
C545 C 0.26007 0.27492 0.41357 0.0
C546 C 0.31138 0.273 0.39399 0.0
C547 C 0.31766 0.23095 0.41366 0.0
H548 H 0.27907 0.32605 0.37753 0.0
H549 H 0.32841 0.28883 0.37836 0.0
S550 S 0.26695 0.16726 0.47177 0.0
N551 N 0.24678 0.21255 0.45518 0.0
N552 N 0.29979 0.17144 0.45426 0.0
C553 C 0.29529 0.21106 0.43364 0.0
C554 C 0.26654 0.23321 0.43391 0.0
C555 C 0.76554 0.72591 0.3978 0.0
C556 C 0.76131 0.77742 0.40491 0.0
C557 C 0.79402 0.70536 0.39536 0.0
C558 C 0.81932 0.73551 0.40028 0.0
H559 H 0.74666 0.70161 0.39358 0.0
H560 H 0.79624 0.6657 0.38912 0.0
S561 S 0.81976 0.87146 0.42346 0.0
N562 N 0.78446 0.85738 0.4192 0.0
N563 N 0.83795 0.81878 0.41519 0.0
C564 C 0.81526 0.78688 0.40824 0.0
C565 C 0.78628 0.80782 0.41045 0.0
C566 C 0.27049 0.77277 0.16303 0.0
C567 C 0.26285 0.73269 0.14185 0.0
C568 C 0.29877 0.79429 0.16199 0.0
C569 C 0.32032 0.77717 0.13927 0.0
H570 H 0.25464 0.78679 0.18094 0.0
H571 H 0.30381 0.82429 0.17942 0.0
S572 S 0.30954 0.67555 0.07637 0.0
N573 N 0.278 0.67763 0.09681 0.0
N574 N 0.33072 0.71928 0.09349 0.0
C575 C 0.31249 0.73754 0.11743 0.0
C576 C 0.28385 0.71509 0.11903 0.0
C577 C 0.76647 0.28803 0.15267 0.0
C578 C 0.76212 0.2368 0.14485 0.0
C579 C 0.79502 0.30815 0.15563 0.0
C580 C 0.82023 0.27783 0.15053 0.0
H581 H 0.74764 0.31235 0.15714 0.0
H582 H 0.79735 0.34754 0.16252 0.0
S583 S 0.82028 0.14273 0.1252 0.0
N584 N 0.78501 0.15709 0.12947 0.0
N585 N 0.83864 0.19489 0.13439 0.0
C586 C 0.81603 0.22682 0.14168 0.0
C587 C 0.78699 0.20633 0.13896 0.0
C588 C 0.76733 0.74099 0.66199 0.0
C589 C 0.76425 0.79234 0.65399 0.0
C590 C 0.79529 0.71869 0.66502 0.0
C591 C 0.82126 0.74684 0.65998 0.0
H592 H 0.74791 0.718 0.6661 0.0
H593 H 0.79658 0.67917 0.67163 0.0
S594 S 0.82506 0.88158 0.63543 0.0
N595 N 0.78941 0.87006 0.63921 0.0
N596 N 0.84194 0.82817 0.64465 0.0
C597 C 0.81845 0.79814 0.65159 0.0
C598 C 0.78997 0.82088 0.64864 0.0
C599 C 0.28278 0.29868 0.6593 0.0
C600 C 0.2597 0.27849 0.63977 0.0
C601 C 0.31121 0.27769 0.65867 0.0
C602 C 0.31745 0.23526 0.63899 0.0
H603 H 0.27887 0.33075 0.67547 0.0
H604 H 0.32834 0.29415 0.67401 0.0
S605 S 0.26636 0.16924 0.58188 0.0
N606 N 0.24619 0.21476 0.59858 0.0
N607 N 0.29938 0.17434 0.59889 0.0
C608 C 0.29494 0.2145 0.61943 0.0
C609 C 0.26609 0.23628 0.61949 0.0
C610 C 0.78251 0.2124 0.87995 0.0
C611 C 0.75998 0.23329 0.89969 0.0
C612 C 0.81078 0.23398 0.87917 0.0
C613 C 0.81765 0.27712 0.89826 0.0
H614 H 0.77811 0.17943 0.86471 0.0
H615 H 0.82731 0.21705 0.86324 0.0
S616 S 0.76712 0.34312 0.95661 0.0
N617 N 0.74677 0.29766 0.94018 0.0
N618 N 0.79996 0.33783 0.9392 0.0
C619 C 0.79538 0.29787 0.91853 0.0
C620 C 0.76655 0.27606 0.91913 0.0
C621 C 0.28193 0.71746 0.89086 0.0
C622 C 0.25928 0.73731 0.91112 0.0
C623 C 0.31022 0.7389 0.89052 0.0
C624 C 0.31681 0.78153 0.90993 0.0
H625 H 0.27777 0.6853 0.87485 0.0
H626 H 0.32697 0.72267 0.87453 0.0
S627 S 0.26675 0.84645 0.96891 0.0
N628 N 0.24645 0.8007 0.95274 0.0
N629 N 0.29935 0.84195 0.95084 0.0
C630 C 0.29465 0.80188 0.9303 0.0
C631 C 0.26594 0.77961 0.93116 0.0
C632 C 0.38584 0.05175 0.2903 0.0
C633 C 0.38548 0.01014 0.31193 0.0
C634 C 0.38661 0.04498 0.25582 0.0
C635 C 0.38637 0.9964 0.24154 0.0
H636 H 0.38694 0.08995 0.30004 0.0
H637 H 0.38809 0.07809 0.24027 0.0
S638 S 0.38301 0.875 0.28718 0.0
N639 N 0.38335 0.91875 0.31653 0.0
N640 N 0.38402 0.90585 0.2518 0.0
C641 C 0.38448 0.95449 0.26284 0.0
C642 C 0.38427 0.96141 0.29799 0.0
C643 C 0.68924 0.97044 0.25307 0.0
C644 C 0.69056 0.02046 0.24161 0.0
C645 C 0.68948 0.95972 0.28702 0.0
C646 C 0.69067 0.99861 0.31101 0.0
H647 H 0.68728 0.93922 0.23573 0.0
H648 H 0.68754 0.9206 0.29444 0.0
S649 S 0.69714 0.13584 0.29423 0.0
N650 N 0.69535 0.10928 0.25718 0.0
N651 N 0.69536 0.08893 0.32089 0.0
C652 C 0.69323 0.04867 0.29995 0.0
C653 C 0.69333 0.05963 0.26533 0.0
C654 C 0.69158 0.98653 0.80694 0.0
C655 C 0.69244 0.03965 0.80672 0.0
C656 C 0.69187 0.95852 0.77733 0.0
C657 C 0.69327 0.98239 0.74626 0.0
H658 H 0.68949 0.96637 0.83007 0.0
H659 H 0.69017 0.91777 0.77888 0.0
S660 S 0.69929 0.12057 0.73225 0.0
N661 N 0.69724 0.115 0.77287 0.0
N662 N 0.69786 0.06239 0.71734 0.0
C663 C 0.69574 0.0354 0.74577 0.0
C664 C 0.69528 0.06397 0.77593 0.0
C665 C 0.38407 0.96446 0.78954 0.0
C666 C 0.38648 1.00524 0.81201 0.0
C667 C 0.38443 0.97222 0.7552 0.0
C668 C 0.38649 0.02111 0.742 0.0
H669 H 0.38339 0.92595 0.79847 0.0
H670 H 0.38376 0.93957 0.73888 0.0
S671 S 0.39076 0.14094 0.79033 0.0
N672 N 0.38943 0.09633 0.8187 0.0
N673 N 0.38926 0.11128 0.75427 0.0
C674 C 0.38734 0.06242 0.76425 0.0
C675 C 0.38758 0.05439 0.7992 0.0
C676 C 0.89239 0.52495 0.24719 0.0
C677 C 0.89115 0.472 0.24933 0.0
C678 C 0.89237 0.55533 0.27572 0.0
C679 C 0.89091 0.53407 0.30757 0.0
H680 H 0.89457 0.54315 0.22336 0.0
H681 H 0.89434 0.59584 0.27268 0.0
S682 S 0.88375 0.39753 0.32656 0.0
N683 N 0.88579 0.39966 0.28579 0.0
N684 N 0.88571 0.4568 0.33938 0.0
C685 C 0.88801 0.48129 0.31002 0.0
C686 C 0.88818 0.45028 0.28092 0.0
C687 C 0.19549 0.45725 0.29148 0.0
C688 C 0.1964 0.49876 0.31352 0.0
C689 C 0.19498 0.46422 0.25707 0.0
C690 C 0.19616 0.51284 0.24336 0.0
H691 H 0.19356 0.41911 0.30082 0.0
H692 H 0.19287 0.43134 0.24111 0.0
S693 S 0.20138 0.63378 0.29031 0.0
N694 N 0.20011 0.58993 0.31919 0.0
N695 N 0.20008 0.60317 0.25458 0.0
C696 C 0.19876 0.55453 0.26511 0.0
C697 C 0.19861 0.54745 0.30016 0.0
C698 C 0.19542 0.55264 0.79199 0.0
C699 C 0.19524 0.51094 0.81355 0.0
C700 C 0.19459 0.54597 0.75751 0.0
C701 C 0.19436 0.49742 0.74322 0.0
H702 H 0.19459 0.59082 0.8018 0.0
H703 H 0.19337 0.57911 0.74195 0.0
S704 S 0.19628 0.37584 0.78872 0.0
N705 N 0.19635 0.41952 0.81811 0.0
N706 N 0.19574 0.40679 0.75335 0.0
C707 C 0.19585 0.4554 0.76446 0.0
C708 C 0.19602 0.46222 0.7996 0.0
C709 C 0.89036 0.55708 0.78229 0.0
C710 C 0.88874 0.53731 0.74988 0.0
C711 C 0.89004 0.52545 0.80995 0.0
C712 C 0.88827 0.47264 0.80637 0.0
H713 H 0.89272 0.59736 0.78645 0.0
H714 H 0.89234 0.54257 0.83426 0.0
S715 S 0.88031 0.40188 0.7271 0.0
N716 N 0.88285 0.46162 0.71594 0.0
N717 N 0.88229 0.40213 0.76791 0.0
C718 C 0.88513 0.45243 0.77419 0.0
C719 C 0.88532 0.48474 0.74597 0.0
loop_
_geom_bond_atom_site_label_1
_geom_bond_atom_site_label_2
_geom_bond_distance
_geom_bond_site_symmetry_2
_ccdc_geom_bond_type
Cu0 N1 1.999 . S
Cu0 O6 1.974 . S
Cu0 N11 1.985 . S
Cu0 O20 1.959 . S
N1 Cu0 1.999 . S
N1 C3 1.263 . S
N1 C5 1.389 . S
N2 C3 1.358 . S
N2 C4 1.400 . S
C3 N1 1.263 . S
C3 N2 1.358 . S
C3 H9 0.930 . S
C4 N2 1.400 . S
C4 C5 1.351 . S
C4 H21 0.930 . S
C5 N1 1.389 . S
C5 C4 1.351 . S
C5 H10 0.930 . S
O6 Cu0 1.974 . S
O6 C16 1.282 . S
C7 O8 1.261 . S
C7 O20 1.251 . S
O8 C7 1.261 . S
H9 C3 0.930 . S
H10 C5 0.930 . S
N11 Cu0 1.985 . S
N11 C13 1.335 . S
N11 C14 1.390 . S
N12 C13 1.345 . S
N12 C15 1.336 . S
C13 N11 1.335 . S
C13 N12 1.345 . S
C13 H18 0.930 . S
C14 N11 1.390 . S
C14 C15 1.346 . S
C14 H19 0.930 . S
C15 N12 1.336 . S
C15 C14 1.346 . S
C15 H22 0.929 . S
C16 O6 1.282 . S
C16 O17 1.216 . S
O17 C16 1.216 . S
H18 C13 0.930 . S
H19 C14 0.930 . S
O20 Cu0 1.959 . S
O20 C7 1.251 . S
H21 C4 0.930 . S
H22 C15 0.929 . S
Cu23 N24 1.999 . S
Cu23 O29 1.974 . S
Cu23 N34 1.985 . S
Cu23 O43 1.959 . S
N24 Cu23 1.999 . S
N24 C26 1.263 . S
N24 C28 1.389 . S
N25 C26 1.358 . S
N25 C27 1.400 . S
C26 N24 1.263 . S
C26 N25 1.358 . S
C26 H32 0.930 . S
C27 N25 1.400 . S
C27 C28 1.351 . S
C27 H44 0.930 . S
C28 N24 1.389 . S
C28 C27 1.351 . S
C28 H33 0.930 . S
O29 Cu23 1.974 . S
O29 C39 1.282 . S
C30 O31 1.261 . S
C30 O43 1.251 . S
O31 C30 1.261 . S
H32 C26 0.930 . S
H33 C28 0.930 . S
N34 Cu23 1.985 . S
N34 C36 1.335 . S
N34 C37 1.390 . S
N35 C36 1.345 . S
N35 C38 1.336 . S
C36 N34 1.335 . S
C36 N35 1.345 . S
C36 H41 0.930 . S
C37 N34 1.390 . S
C37 C38 1.346 . S
C37 H42 0.930 . S
C38 N35 1.336 . S
C38 C37 1.346 . S
C38 H45 0.929 . S
C39 O29 1.282 . S
C39 O40 1.216 . S
O40 C39 1.216 . S
H41 C36 0.930 . S
H42 C37 0.930 . S
O43 Cu23 1.959 . S
O43 C30 1.251 . S
H44 C27 0.930 . S
H45 C38 0.929 . S
Cu46 N47 1.999 . S
Cu46 O52 1.974 . S
Cu46 N57 1.985 . S
Cu46 O66 1.959 . S
N47 Cu46 1.999 . S
N47 C49 1.263 . S
N47 C51 1.389 . S
N48 C49 1.358 . S
N48 C50 1.400 . S
C49 N47 1.263 . S
C49 N48 1.358 . S
C49 H55 0.930 . S
C50 N48 1.400 . S
C50 C51 1.351 . S
C50 H67 0.930 . S
C51 N47 1.389 . S
C51 C50 1.351 . S
C51 H56 0.930 . S
O52 Cu46 1.974 . S
O52 C62 1.282 . S
C53 O54 1.261 . S
C53 O66 1.251 . S
O54 C53 1.261 . S
H55 C49 0.930 . S
H56 C51 0.930 . S
N57 Cu46 1.985 . S
N57 C59 1.335 . S
N57 C60 1.390 . S
N58 C59 1.345 . S
N58 C61 1.336 . S
C59 N57 1.335 . S
C59 N58 1.345 . S
C59 H64 0.930 . S
C60 N57 1.390 . S
C60 C61 1.346 . S
C60 H65 0.930 . S
C61 N58 1.336 . S
C61 C60 1.346 . S
C61 H68 0.929 . S
C62 O52 1.282 . S
C62 O63 1.216 . S
O63 C62 1.216 . S
H64 C59 0.930 . S
H65 C60 0.930 . S
O66 Cu46 1.959 . S
O66 C53 1.251 . S
H67 C50 0.930 . S
H68 C61 0.929 . S
Cu69 N70 1.999 . S
Cu69 O75 1.974 . S
Cu69 N80 1.985 . S
Cu69 O89 1.959 . S
N70 Cu69 1.999 . S
N70 C72 1.263 . S
N70 C74 1.389 . S
N71 C72 1.358 . S
N71 C73 1.400 . S
C72 N70 1.263 . S
C72 N71 1.358 . S
C72 H78 0.930 . S
C73 N71 1.400 . S
C73 C74 1.351 . S
C73 H90 0.930 . S
C74 N70 1.389 . S
C74 C73 1.351 . S
C74 H79 0.930 . S
O75 Cu69 1.974 . S
O75 C85 1.282 . S
C76 O77 1.261 . S
C76 O89 1.251 . S
O77 C76 1.261 . S
H78 C72 0.930 . S
H79 C74 0.930 . S
N80 Cu69 1.985 . S
N80 C82 1.335 . S
N80 C83 1.390 . S
N81 C82 1.345 . S
N81 C84 1.336 . S
C82 N80 1.335 . S
C82 N81 1.345 . S
C82 H87 0.930 . S
C83 N80 1.390 . S
C83 C84 1.346 . S
C83 H88 0.930 . S
C84 N81 1.336 . S
C84 C83 1.346 . S
C84 H91 0.929 . S
C85 O75 1.282 . S
C85 O86 1.216 . S
O86 C85 1.216 . S
H87 C82 0.930 . S
H88 C83 0.930 . S
O89 Cu69 1.959 . S
O89 C76 1.251 . S
H90 C73 0.930 . S
H91 C84 0.929 . S
Cu92 N93 1.999 . S
Cu92 O98 1.974 . S
Cu92 N103 1.985 . S
Cu92 O112 1.959 . S
N93 Cu92 1.999 . S
N93 C95 1.263 . S
N93 C97 1.389 . S
N94 C95 1.358 . S
N94 C96 1.400 . S
C95 N93 1.263 . S
C95 N94 1.358 . S
C95 H101 0.930 . S
C96 N94 1.400 . S
C96 C97 1.351 . S
C96 H113 0.930 . S
C97 N93 1.389 . S
C97 C96 1.351 . S
C97 H102 0.930 . S
O98 Cu92 1.974 . S
O98 C108 1.282 . S
C99 O100 1.261 . S
C99 O112 1.251 . S
O100 C99 1.261 . S
H101 C95 0.930 . S
H102 C97 0.930 . S
N103 Cu92 1.985 . S
N103 C105 1.335 . S
N103 C106 1.390 . S
N104 C105 1.345 . S
N104 C107 1.336 . S
C105 N103 1.335 . S
C105 N104 1.345 . S
C105 H110 0.930 . S
C106 N103 1.390 . S
C106 C107 1.346 . S
C106 H111 0.930 . S
C107 N104 1.336 . S
C107 C106 1.346 . S
C107 H114 0.929 . S
C108 O98 1.282 . S
C108 O109 1.216 . S
O109 C108 1.216 . S
H110 C105 0.930 . S
H111 C106 0.930 . S
O112 Cu92 1.959 . S
O112 C99 1.251 . S
H113 C96 0.930 . S
H114 C107 0.929 . S
Cu115 N116 1.999 . S
Cu115 O121 1.974 . S
Cu115 N126 1.985 . S
Cu115 O135 1.959 . S
N116 Cu115 1.999 . S
N116 C118 1.263 . S
N116 C120 1.389 . S
N117 C118 1.358 . S
N117 C119 1.400 . S
C118 N116 1.263 . S
C118 N117 1.358 . S
C118 H124 0.930 . S
C119 N117 1.400 . S
C119 C120 1.351 . S
C119 H136 0.930 . S
C120 N116 1.389 . S
C120 C119 1.351 . S
C120 H125 0.930 . S
O121 Cu115 1.974 . S
O121 C131 1.282 . S
C122 O123 1.261 . S
C122 O135 1.251 . S
O123 C122 1.261 . S
H124 C118 0.930 . S
H125 C120 0.930 . S
N126 Cu115 1.985 . S
N126 C128 1.335 . S
N126 C129 1.390 . S
N127 C128 1.345 . S
N127 C130 1.336 . S
C128 N126 1.335 . S
C128 N127 1.345 . S
C128 H133 0.930 . S
C129 N126 1.390 . S
C129 C130 1.346 . S
C129 H134 0.930 . S
C130 N127 1.336 . S
C130 C129 1.346 . S
C130 H137 0.929 . S
C131 O121 1.282 . S
C131 O132 1.216 . S
O132 C131 1.216 . S
H133 C128 0.930 . S
H134 C129 0.930 . S
O135 Cu115 1.959 . S
O135 C122 1.251 . S
H136 C119 0.930 . S
H137 C130 0.929 . S
Cu138 N139 1.999 . S
Cu138 O144 1.974 . S
Cu138 N149 1.985 . S
Cu138 O158 1.959 . S
N139 Cu138 1.999 . S
N139 C141 1.263 . S
N139 C143 1.389 . S
N140 C141 1.358 . S
N140 C142 1.400 . S
C141 N139 1.263 . S
C141 N140 1.358 . S
C141 H147 0.930 . S
C142 N140 1.400 . S
C142 C143 1.351 . S
C142 H159 0.930 . S
C143 N139 1.389 . S
C143 C142 1.351 . S
C143 H148 0.930 . S
O144 Cu138 1.974 . S
O144 C154 1.282 . S
C145 O146 1.261 . S
C145 O158 1.251 . S
O146 C145 1.261 . S
H147 C141 0.930 . S
H148 C143 0.930 . S
N149 Cu138 1.985 . S
N149 C151 1.335 . S
N149 C152 1.390 . S
N150 C151 1.345 . S
N150 C153 1.336 . S
C151 N149 1.335 . S
C151 N150 1.345 . S
C151 H156 0.930 . S
C152 N149 1.390 . S
C152 C153 1.346 . S
C152 H157 0.930 . S
C153 N150 1.336 . S
C153 C152 1.346 . S
C153 H160 0.929 . S
C154 O144 1.282 . S
C154 O155 1.216 . S
O155 C154 1.216 . S
H156 C151 0.930 . S
H157 C152 0.930 . S
O158 Cu138 1.959 . S
O158 C145 1.251 . S
H159 C142 0.930 . S
H160 C153 0.929 . S
Cu161 N162 1.999 . S
Cu161 O167 1.974 . S
Cu161 N172 1.985 . S
Cu161 O181 1.959 . S
N162 Cu161 1.999 . S
N162 C164 1.263 . S
N162 C166 1.389 . S
N163 C164 1.358 . S
N163 C165 1.400 . S
C164 N162 1.263 . S
C164 N163 1.358 . S
C164 H170 0.930 . S
C165 N163 1.400 . S
C165 C166 1.351 . S
C165 H182 0.930 . S
C166 N162 1.389 . S
C166 C165 1.351 . S
C166 H171 0.930 . S
O167 Cu161 1.974 . S
O167 C177 1.282 . S
C168 O169 1.261 . S
C168 O181 1.251 . S
O169 C168 1.261 . S
H170 C164 0.930 . S
H171 C166 0.930 . S
N172 Cu161 1.985 . S
N172 C174 1.335 . S
N172 C175 1.390 . S
N173 C174 1.345 . S
N173 C176 1.336 . S
C174 N172 1.335 . S
C174 N173 1.345 . S
C174 H179 0.930 . S
C175 N172 1.390 . S
C175 C176 1.346 . S
C175 H180 0.930 . S
C176 N173 1.336 . S
C176 C175 1.346 . S
C176 H183 0.929 . S
C177 O167 1.282 . S
C177 O178 1.216 . S
O178 C177 1.216 . S
H179 C174 0.930 . S
H180 C175 0.930 . S
O181 Cu161 1.959 . S
O181 C168 1.251 . S
H182 C165 0.930 . S
H183 C176 0.929 . S
Cu184 N185 1.999 . S
Cu184 O190 1.974 . S
Cu184 N195 1.985 . S
Cu184 O204 1.959 . S
N185 Cu184 1.999 . S
N185 C187 1.263 . S
N185 C189 1.389 . S
N186 C187 1.358 . S
N186 C188 1.400 . S
C187 N185 1.263 . S
C187 N186 1.358 . S
C187 H193 0.930 . S
C188 N186 1.400 . S
C188 C189 1.351 . S
C188 H205 0.930 . S
C189 N185 1.389 . S
C189 C188 1.351 . S
C189 H194 0.930 . S
O190 Cu184 1.974 . S
O190 C200 1.282 . S
C191 O192 1.261 . S
C191 O204 1.251 . S
O192 C191 1.261 . S
H193 C187 0.930 . S
H194 C189 0.930 . S
N195 Cu184 1.985 . S
N195 C197 1.335 . S
N195 C198 1.390 . S
N196 C197 1.345 . S
N196 C199 1.336 . S
C197 N195 1.335 . S
C197 N196 1.345 . S
C197 H202 0.930 . S
C198 N195 1.390 . S
C198 C199 1.346 . S
C198 H203 0.930 . S
C199 N196 1.336 . S
C199 C198 1.346 . S
C199 H206 0.929 . S
C200 O190 1.282 . S
C200 O201 1.216 . S
O201 C200 1.216 . S
H202 C197 0.930 . S
H203 C198 0.930 . S
O204 Cu184 1.959 . S
O204 C191 1.251 . S
H205 C188 0.930 . S
H206 C199 0.929 . S
Cu207 N208 1.999 . S
Cu207 O213 1.974 . S
Cu207 N218 1.985 . S
Cu207 O227 1.959 . S
N208 Cu207 1.999 . S
N208 C210 1.263 . S
N208 C212 1.389 . S
N209 C210 1.358 . S
N209 C211 1.400 . S
C210 N208 1.263 . S
C210 N209 1.358 . S
C210 H216 0.930 . S
C211 N209 1.400 . S
C211 C212 1.351 . S
C211 H228 0.930 . S
C212 N208 1.389 . S
C212 C211 1.351 . S
C212 H217 0.930 . S
O213 Cu207 1.974 . S
O213 C223 1.282 . S
C214 O215 1.261 . S
C214 O227 1.251 . S
O215 C214 1.261 . S
H216 C210 0.930 . S
H217 C212 0.930 . S
N218 Cu207 1.985 . S
N218 C220 1.335 . S
N218 C221 1.390 . S
N219 C220 1.345 . S
N219 C222 1.336 . S
C220 N218 1.335 . S
C220 N219 1.345 . S
C220 H225 0.930 . S
C221 N218 1.390 . S
C221 C222 1.346 . S
C221 H226 0.930 . S
C222 N219 1.336 . S
C222 C221 1.346 . S
C222 H229 0.929 . S
C223 O213 1.282 . S
C223 O224 1.216 . S
O224 C223 1.216 . S
H225 C220 0.930 . S
H226 C221 0.930 . S
O227 Cu207 1.959 . S
O227 C214 1.251 . S
H228 C211 0.930 . S
H229 C222 0.929 . S
Cu230 N231 1.999 . S
Cu230 O236 1.974 . S
Cu230 N241 1.985 . S
Cu230 O250 1.959 . S
N231 Cu230 1.999 . S
N231 C233 1.263 . S
N231 C235 1.389 . S
N232 C233 1.358 . S
N232 C234 1.400 . S
C233 N231 1.263 . S
C233 N232 1.358 . S
C233 H239 0.930 . S
C234 N232 1.400 . S
C234 C235 1.351 . S
C234 H251 0.930 . S
C235 N231 1.389 . S
C235 C234 1.351 . S
C235 H240 0.930 . S
O236 Cu230 1.974 . S
O236 C246 1.282 . S
C237 O238 1.261 . S
C237 O250 1.251 . S
O238 C237 1.261 . S
H239 C233 0.930 . S
H240 C235 0.930 . S
N241 Cu230 1.985 . S
N241 C243 1.335 . S
N241 C244 1.390 . S
N242 C243 1.345 . S
N242 C245 1.336 . S
C243 N241 1.335 . S
C243 N242 1.345 . S
C243 H248 0.930 . S
C244 N241 1.390 . S
C244 C245 1.346 . S
C244 H249 0.930 . S
C245 N242 1.336 . S
C245 C244 1.346 . S
C245 H252 0.929 . S
C246 O236 1.282 . S
C246 O247 1.216 . S
O247 C246 1.216 . S
H248 C243 0.930 . S
H249 C244 0.930 . S
O250 Cu230 1.959 . S
O250 C237 1.251 . S
H251 C234 0.930 . S
H252 C245 0.929 . S
Cu253 N254 1.999 . S
Cu253 O259 1.974 . S
Cu253 N264 1.985 . S
Cu253 O273 1.959 . S
N254 Cu253 1.999 . S
N254 C256 1.263 . S
N254 C258 1.389 . S
N255 C256 1.358 . S
N255 C257 1.400 . S
C256 N254 1.263 . S
C256 N255 1.358 . S
C256 H262 0.930 . S
C257 N255 1.400 . S
C257 C258 1.351 . S
C257 H274 0.930 . S
C258 N254 1.389 . S
C258 C257 1.351 . S
C258 H263 0.930 . S
O259 Cu253 1.974 . S
O259 C269 1.282 . S
C260 O261 1.261 . S
C260 O273 1.251 . S
O261 C260 1.261 . S
H262 C256 0.930 . S
H263 C258 0.930 . S
N264 Cu253 1.985 . S
N264 C266 1.335 . S
N264 C267 1.390 . S
N265 C266 1.345 . S
N265 C268 1.336 . S
C266 N264 1.335 . S
C266 N265 1.345 . S
C266 H271 0.930 . S
C267 N264 1.390 . S
C267 C268 1.346 . S
C267 H272 0.930 . S
C268 N265 1.336 . S
C268 C267 1.346 . S
C268 H275 0.929 . S
C269 O259 1.282 . S
C269 O270 1.216 . S
O270 C269 1.216 . S
H271 C266 0.930 . S
H272 C267 0.930 . S
O273 Cu253 1.959 . S
O273 C260 1.251 . S
H274 C257 0.930 . S
H275 C268 0.929 . S
Cu276 N277 1.999 . S
Cu276 O282 1.974 . S
Cu276 N287 1.985 . S
Cu276 O296 1.959 . S
N277 Cu276 1.999 . S
N277 C279 1.263 . S
N277 C281 1.389 . S
N278 C279 1.358 . S
N278 C280 1.400 . S
C279 N277 1.263 . S
C279 N278 1.358 . S
C279 H285 0.930 . S
C280 N278 1.400 . S
C280 C281 1.351 . S
C280 H297 0.930 . S
C281 N277 1.389 . S
C281 C280 1.351 . S
C281 H286 0.930 . S
O282 Cu276 1.974 . S
O282 C292 1.282 . S
C283 O284 1.261 . S
C283 O296 1.251 . S
O284 C283 1.261 . S
H285 C279 0.930 . S
H286 C281 0.930 . S
N287 Cu276 1.985 . S
N287 C289 1.335 . S
N287 C290 1.390 . S
N288 C289 1.345 . S
N288 C291 1.336 . S
C289 N287 1.335 . S
C289 N288 1.345 . S
C289 H294 0.930 . S
C290 N287 1.390 . S
C290 C291 1.346 . S
C290 H295 0.930 . S
C291 N288 1.336 . S
C291 C290 1.346 . S
C291 H298 0.929 . S
C292 O282 1.282 . S
C292 O293 1.216 . S
O293 C292 1.216 . S
H294 C289 0.930 . S
H295 C290 0.930 . S
O296 Cu276 1.959 . S
O296 C283 1.251 . S
H297 C280 0.930 . S
H298 C291 0.929 . S
Cu299 N300 1.999 . S
Cu299 O305 1.974 . S
Cu299 N310 1.985 . S
Cu299 O319 1.959 . S
N300 Cu299 1.999 . S
N300 C302 1.263 . S
N300 C304 1.389 . S
N301 C302 1.358 . S
N301 C303 1.400 . S
C302 N300 1.263 . S
C302 N301 1.358 . S
C302 H308 0.930 . S
C303 N301 1.400 . S
C303 C304 1.351 . S
C303 H320 0.930 . S
C304 N300 1.389 . S
C304 C303 1.351 . S
C304 H309 0.930 . S
O305 Cu299 1.974 . S
O305 C315 1.282 . S
C306 O307 1.261 . S
C306 O319 1.251 . S
O307 C306 1.261 . S
H308 C302 0.930 . S
H309 C304 0.930 . S
N310 Cu299 1.985 . S
N310 C312 1.335 . S
N310 C313 1.390 . S
N311 C312 1.345 . S
N311 C314 1.336 . S
C312 N310 1.335 . S
C312 N311 1.345 . S
C312 H317 0.930 . S
C313 N310 1.390 . S
C313 C314 1.346 . S
C313 H318 0.930 . S
C314 N311 1.336 . S
C314 C313 1.346 . S
C314 H321 0.929 . S
C315 O305 1.282 . S
C315 O316 1.216 . S
O316 C315 1.216 . S
H317 C312 0.930 . S
H318 C313 0.930 . S
O319 Cu299 1.959 . S
O319 C306 1.251 . S
H320 C303 0.930 . S
H321 C314 0.929 . S
Cu322 N323 1.999 . S
Cu322 O328 1.974 . S
Cu322 N333 1.985 . S
Cu322 O342 1.959 . S
N323 Cu322 1.999 . S
N323 C325 1.263 . S
N323 C327 1.389 . S
N324 C325 1.358 . S
N324 C326 1.400 . S
C325 N323 1.263 . S
C325 N324 1.358 . S
C325 H331 0.930 . S
C326 N324 1.400 . S
C326 C327 1.351 . S
C326 H343 0.930 . S
C327 N323 1.389 . S
C327 C326 1.351 . S
C327 H332 0.930 . S
O328 Cu322 1.974 . S
O328 C338 1.282 . S
C329 O330 1.261 . S
C329 O342 1.251 . S
O330 C329 1.261 . S
H331 C325 0.930 . S
H332 C327 0.930 . S
N333 Cu322 1.985 . S
N333 C335 1.335 . S
N333 C336 1.390 . S
N334 C335 1.345 . S
N334 C337 1.336 . S
C335 N333 1.335 . S
C335 N334 1.345 . S
C335 H340 0.930 . S
C336 N333 1.390 . S
C336 C337 1.346 . S
C336 H341 0.930 . S
C337 N334 1.336 . S
C337 C336 1.346 . S
C337 H344 0.929 . S
C338 O328 1.282 . S
C338 O339 1.216 . S
O339 C338 1.216 . S
H340 C335 0.930 . S
H341 C336 0.930 . S
O342 Cu322 1.959 . S
O342 C329 1.251 . S
H343 C326 0.930 . S
H344 C337 0.929 . S
Cu345 N346 1.999 . S
Cu345 O351 1.974 . S
Cu345 N356 1.985 . S
Cu345 O365 1.959 . S
N346 Cu345 1.999 . S
N346 C348 1.263 . S
N346 C350 1.389 . S
N347 C348 1.358 . S
N347 C349 1.400 . S
C348 N346 1.263 . S
C348 N347 1.358 . S
C348 H354 0.930 . S
C349 N347 1.400 . S
C349 C350 1.351 . S
C349 H366 0.930 . S
C350 N346 1.389 . S
C350 C349 1.351 . S
C350 H355 0.930 . S
O351 Cu345 1.974 . S
O351 C361 1.282 . S
C352 O353 1.261 . S
C352 O365 1.251 . S
O353 C352 1.261 . S
H354 C348 0.930 . S
H355 C350 0.930 . S
N356 Cu345 1.985 . S
N356 C358 1.335 . S
N356 C359 1.390 . S
N357 C358 1.345 . S
N357 C360 1.336 . S
C358 N356 1.335 . S
C358 N357 1.345 . S
C358 H363 0.930 . S
C359 N356 1.390 . S
C359 C360 1.346 . S
C359 H364 0.930 . S
C360 N357 1.336 . S
C360 C359 1.346 . S
C360 H367 0.929 . S
C361 O351 1.282 . S
C361 O362 1.216 . S
O362 C361 1.216 . S
H363 C358 0.930 . S
H364 C359 0.930 . S
O365 Cu345 1.959 . S
O365 C352 1.251 . S
H366 C349 0.930 . S
H367 C360 0.929 . S
C368 C369 1.369 . S
C368 C370 1.419 . S
C368 H372 0.930 . S
C369 C368 1.369 . S
C369 C378 1.429 . S
C370 C368 1.419 . S
C370 C371 1.363 . S
C370 H373 0.929 . S
C371 C370 1.363 . S
C371 C377 1.428 . S
H372 C368 0.930 . S
H373 C370 0.929 . S
S374 N375 1.613 . S
S374 N376 1.610 . S
N375 S374 1.613 . S
N375 C378 1.350 . S
N376 S374 1.610 . S
N376 C377 1.351 . S
C377 C371 1.428 . S
C377 N376 1.351 . S
C377 C378 1.434 . S
C378 C369 1.429 . S
C378 N375 1.350 . S
C378 C377 1.434 . S
C379 C380 1.369 . S
C379 C381 1.419 . S
C379 H383 0.930 . S
C380 C379 1.369 . S
C380 C389 1.429 . S
C381 C379 1.419 . S
C381 C382 1.363 . S
C381 H384 0.929 . S
C382 C381 1.363 . S
C382 C388 1.428 . S
H383 C379 0.930 . S
H384 C381 0.929 . S
S385 N386 1.613 . S
S385 N387 1.610 . S
N386 S385 1.613 . S
N386 C389 1.350 . S
N387 S385 1.610 . S
N387 C388 1.351 . S
C388 C382 1.428 . S
C388 N387 1.351 . S
C388 C389 1.434 . S
C389 C380 1.429 . S
C389 N386 1.350 . S
C389 C388 1.434 . S
C390 C391 1.369 . S
C390 C392 1.419 1_554 S
C390 H394 0.930 . S
C391 C390 1.369 . S
C391 C400 1.429 . S
C392 C390 1.419 1_556 S
C392 C393 1.363 . S
C392 H395 0.929 . S
C393 C392 1.363 . S
C393 C399 1.428 . S
H394 C390 0.930 . S
H395 C392 0.929 . S
S396 N397 1.616 1_556 S
S396 N398 1.608 . S
N397 S396 1.616 1_554 S
N397 C400 1.350 . S
N398 S396 1.608 . S
N398 C399 1.351 . S
C399 C393 1.428 . S
C399 N398 1.351 . S
C399 C400 1.434 1_556 S
C400 C391 1.429 . S
C400 N397 1.350 . S
C400 C399 1.434 1_554 S
C401 C402 1.369 . S
C401 C403 1.419 1_556 S
C401 H405 0.930 . S
C402 C401 1.369 . S
C402 C411 1.429 . S
C403 C401 1.419 1_554 S
C403 C404 1.363 . S
C403 H406 0.929 . S
C404 C403 1.363 . S
C404 C410 1.428 . S
H405 C401 0.930 . S
H406 C403 0.929 . S
S407 N408 1.616 1_554 S
S407 N409 1.608 . S
N408 S407 1.616 1_556 S
N408 C411 1.350 . S
N409 S407 1.608 . S
N409 C410 1.351 . S
C410 C404 1.428 . S
C410 N409 1.351 . S
C410 C411 1.434 1_554 S
C411 C402 1.429 . S
C411 N408 1.350 . S
C411 C410 1.434 1_556 S
C412 C413 1.369 . S
C412 C414 1.419 . S
C412 H416 0.930 . S
C413 C412 1.369 . S
C413 C422 1.429 . S
C414 C412 1.419 . S
C414 C415 1.363 . S
C414 H417 0.929 . S
C415 C414 1.363 . S
C415 C421 1.428 . S
H416 C412 0.930 . S
H417 C414 0.929 . S
S418 N419 1.613 . S
S418 N420 1.610 . S
N419 S418 1.613 . S
N419 C422 1.350 . S
N420 S418 1.610 . S
N420 C421 1.351 . S
C421 C415 1.428 . S
C421 N420 1.351 . S
C421 C422 1.434 . S
C422 C413 1.429 . S
C422 N419 1.350 . S
C422 C421 1.434 . S
C423 C424 1.369 . S
C423 C425 1.419 . S
C423 H427 0.930 . S
C424 C423 1.369 . S
C424 C433 1.429 . S
C425 C423 1.419 . S
C425 C426 1.363 . S
C425 H428 0.929 . S
C426 C425 1.363 . S
C426 C432 1.428 . S
H427 C423 0.930 . S
H428 C425 0.929 . S
S429 N430 1.613 . S
S429 N431 1.610 . S
N430 S429 1.613 . S
N430 C433 1.350 . S
N431 S429 1.610 . S
N431 C432 1.351 . S
C432 C426 1.428 . S
C432 N431 1.351 . S
C432 C433 1.434 . S
C433 C424 1.429 . S
C433 N430 1.350 . S
C433 C432 1.434 . S
C434 C435 1.369 . S
C434 C436 1.419 1_556 S
C434 H438 0.930 . S
C435 C434 1.369 . S
C435 C444 1.429 . S
C436 C434 1.419 1_554 S
C436 C437 1.363 . S
C436 H439 0.929 . S
C437 C436 1.363 . S
C437 C443 1.428 . S
H438 C434 0.930 . S
H439 C436 0.929 . S
S440 N441 1.616 1_554 S
S440 N442 1.608 . S
N441 S440 1.616 1_556 S
N441 C444 1.350 . S
N442 S440 1.608 . S
N442 C443 1.351 . S
C443 C437 1.428 . S
C443 N442 1.351 . S
C443 C444 1.434 1_554 S
C444 C435 1.429 . S
C444 N441 1.350 . S
C444 C443 1.434 1_556 S
C445 C446 1.369 . S
C445 C447 1.419 1_554 S
C445 H449 0.930 . S
C446 C445 1.369 . S
C446 C455 1.429 . S
C447 C445 1.419 1_556 S
C447 C448 1.363 . S
C447 H450 0.929 . S
C448 C447 1.363 . S
C448 C454 1.428 . S
H449 C445 0.930 . S
H450 C447 0.929 . S
S451 N452 1.616 1_556 S
S451 N453 1.608 . S
N452 S451 1.616 1_554 S
N452 C455 1.350 . S
N453 S451 1.608 . S
N453 C454 1.351 . S
C454 C448 1.428 . S
C454 N453 1.351 . S
C454 C455 1.434 1_556 S
C455 C446 1.429 . S
C455 N452 1.350 . S
C455 C454 1.434 1_554 S
C456 C457 1.369 1_545 S
C456 C458 1.419 . S
C456 H460 0.930 . S
C457 C456 1.369 1_565 S
C457 C466 1.429 . S
C458 C456 1.419 . S
C458 C459 1.363 . S
C458 H461 0.929 . S
C459 C458 1.363 . S
C459 C465 1.428 1_545 S
H460 C456 0.930 . S
H461 C458 0.929 . S
S462 N463 1.613 . S
S462 N464 1.610 . S
N463 S462 1.613 . S
N463 C466 1.350 . S
N464 S462 1.610 . S
N464 C465 1.351 . S
C465 C459 1.428 1_565 S
C465 N464 1.351 . S
C465 C466 1.434 . S
C466 C457 1.429 . S
C466 N463 1.350 . S
C466 C465 1.434 . S
C467 C468 1.369 . S
C467 C469 1.419 . S
C467 H471 0.930 . S
C468 C467 1.369 . S
C468 C477 1.429 1_565 S
C469 C467 1.419 . S
C469 C470 1.363 1_565 S
C469 H472 0.929 . S
C470 C469 1.363 1_545 S
C470 C476 1.428 . S
H471 C467 0.930 . S
H472 C469 0.929 . S
S473 N474 1.613 . S
S473 N475 1.610 . S
N474 S473 1.613 . S
N474 C477 1.350 . S
N475 S473 1.610 . S
N475 C476 1.351 . S
C476 C470 1.428 . S
C476 N475 1.351 . S
C476 C477 1.434 . S
C477 C468 1.429 1_545 S
C477 N474 1.350 . S
C477 C476 1.434 . S
C478 C479 1.369 . S
C478 C480 1.419 . S
C478 H482 0.930 . S
C479 C478 1.369 . S
C479 C488 1.429 1_565 S
C480 C478 1.419 . S
C480 C481 1.363 1_565 S
C480 H483 0.929 . S
C481 C480 1.363 1_545 S
C481 C487 1.428 . S
H482 C478 0.930 . S
H483 C480 0.929 . S
S484 N485 1.613 . S
S484 N486 1.610 . S
N485 S484 1.613 . S
N485 C488 1.350 . S
N486 S484 1.610 . S
N486 C487 1.351 . S
C487 C481 1.428 . S
C487 N486 1.351 . S
C487 C488 1.434 . S
C488 C479 1.429 1_545 S
C488 N485 1.350 . S
C488 C487 1.434 . S
C489 C490 1.369 . S
C489 C491 1.419 . S
C489 H493 0.930 . S
C490 C489 1.369 . S
C490 C499 1.429 1_545 S
C491 C489 1.419 . S
C491 C492 1.363 1_545 S
C491 H494 0.929 . S
C492 C491 1.363 1_565 S
C492 C498 1.428 . S
H493 C489 0.930 . S
H494 C491 0.929 . S
S495 N496 1.613 . S
S495 N497 1.610 . S
N496 S495 1.613 . S
N496 C499 1.350 . S
N497 S495 1.610 . S
N497 C498 1.351 . S
C498 C492 1.428 . S
C498 N497 1.351 . S
C498 C499 1.434 . S
C499 C490 1.429 1_565 S
C499 N496 1.350 . S
C499 C498 1.434 . S
C500 C501 1.369 . S
C500 C502 1.419 1_655 S
C500 H504 0.930 . S
C501 C500 1.369 . S
C501 C510 1.429 . S
C502 C500 1.419 1_455 S
C502 C503 1.363 . S
C502 H505 0.929 . S
C503 C502 1.363 . S
C503 C509 1.428 . S
H504 C500 0.930 . S
H505 C502 0.929 . S
S506 N507 1.613 . S
S506 N508 1.610 1_655 S
N507 S506 1.613 . S
N507 C510 1.350 . S
N508 S506 1.610 1_455 S
N508 C509 1.351 . S
C509 C503 1.428 . S
C509 N508 1.351 . S
C509 C510 1.434 1_455 S
C510 C501 1.429 . S
C510 N507 1.350 . S
C510 C509 1.434 1_655 S
C511 C512 1.369 . S
C511 C513 1.419 1_455 S
C511 H515 0.930 . S
C512 C511 1.369 . S
C512 C521 1.429 . S
C513 C511 1.419 1_655 S
C513 C514 1.363 . S
C513 H516 0.929 . S
C514 C513 1.363 . S
C514 C520 1.428 . S
H515 C511 0.930 . S
H516 C513 0.929 . S
S517 N518 1.613 . S
S517 N519 1.610 1_455 S
N518 S517 1.613 . S
N518 C521 1.350 . S
N519 S517 1.610 1_655 S
N519 C520 1.351 . S
C520 C514 1.428 . S
C520 N519 1.351 . S
C520 C521 1.434 1_655 S
C521 C512 1.429 . S
C521 N518 1.350 . S
C521 C520 1.434 1_455 S
C522 C523 1.369 . S
C522 C524 1.419 1_655 S
C522 H526 0.930 . S
C523 C522 1.369 . S
C523 C532 1.429 . S
C524 C522 1.419 1_455 S
C524 C525 1.363 . S
C524 H527 0.929 . S
C525 C524 1.363 . S
C525 C531 1.428 . S
H526 C522 0.930 . S
H527 C524 0.929 . S
S528 N529 1.613 . S
S528 N530 1.610 1_655 S
N529 S528 1.613 . S
N529 C532 1.350 . S
N530 S528 1.610 1_455 S
N530 C531 1.351 . S
C531 C525 1.428 . S
C531 N530 1.351 . S
C531 C532 1.434 1_455 S
C532 C523 1.429 . S
C532 N529 1.350 . S
C532 C531 1.434 1_655 S
C533 C534 1.369 . S
C533 C535 1.419 1_455 S
C533 H537 0.930 . S
C534 C533 1.369 . S
C534 C543 1.429 . S
C535 C533 1.419 1_655 S
C535 C536 1.363 . S
C535 H538 0.929 . S
C536 C535 1.363 . S
C536 C542 1.428 . S
H537 C533 0.930 . S
H538 C535 0.929 . S
S539 N540 1.613 . S
S539 N541 1.610 1_455 S
N540 S539 1.613 . S
N540 C543 1.350 . S
N541 S539 1.610 1_655 S
N541 C542 1.351 . S
C542 C536 1.428 . S
C542 N541 1.351 . S
C542 C543 1.434 1_655 S
C543 C534 1.429 . S
C543 N540 1.350 . S
C543 C542 1.434 1_455 S
C544 C545 1.369 . S
C544 C546 1.419 . S
C544 H548 0.930 . S
C545 C544 1.369 . S
C545 C554 1.429 . S
C546 C544 1.419 . S
C546 C547 1.363 . S
C546 H549 0.929 . S
C547 C546 1.363 . S
C547 C553 1.428 . S
H548 C544 0.930 . S
H549 C546 0.929 . S
S550 N551 1.613 . S
S550 N552 1.610 . S
N551 S550 1.613 . S
N551 C554 1.350 . S
N552 S550 1.610 . S
N552 C553 1.351 . S
C553 C547 1.428 . S
C553 N552 1.351 . S
C553 C554 1.434 . S
C554 C545 1.429 . S
C554 N551 1.350 . S
C554 C553 1.434 . S
C555 C556 1.369 . S
C555 C557 1.419 . S
C555 H559 0.930 . S
C556 C555 1.369 . S
C556 C565 1.429 . S
C557 C555 1.419 . S
C557 C558 1.363 . S
C557 H560 0.929 . S
C558 C557 1.363 . S
C558 C564 1.428 . S
H559 C555 0.930 . S
H560 C557 0.929 . S
S561 N562 1.613 . S
S561 N563 1.610 . S
N562 S561 1.613 . S
N562 C565 1.350 . S
N563 S561 1.610 . S
N563 C564 1.351 . S
C564 C558 1.428 . S
C564 N563 1.351 . S
C564 C565 1.434 . S
C565 C556 1.429 . S
C565 N562 1.350 . S
C565 C564 1.434 . S
C566 C567 1.369 . S
C566 C568 1.419 . S
C566 H570 0.930 . S
C567 C566 1.369 . S
C567 C576 1.429 . S
C568 C566 1.419 . S
C568 C569 1.363 . S
C568 H571 0.929 . S
C569 C568 1.363 . S
C569 C575 1.428 . S
H570 C566 0.930 . S
H571 C568 0.929 . S
S572 N573 1.613 . S
S572 N574 1.610 . S
N573 S572 1.613 . S
N573 C576 1.350 . S
N574 S572 1.610 . S
N574 C575 1.351 . S
C575 C569 1.428 . S
C575 N574 1.351 . S
C575 C576 1.434 . S
C576 C567 1.429 . S
C576 N573 1.350 . S
C576 C575 1.434 . S
C577 C578 1.369 . S
C577 C579 1.419 . S
C577 H581 0.930 . S
C578 C577 1.369 . S
C578 C587 1.429 . S
C579 C577 1.419 . S
C579 C580 1.363 . S
C579 H582 0.929 . S
C580 C579 1.363 . S
C580 C586 1.428 . S
H581 C577 0.930 . S
H582 C579 0.929 . S
S583 N584 1.613 . S
S583 N585 1.610 . S
N584 S583 1.613 . S
N584 C587 1.350 . S
N585 S583 1.610 . S
N585 C586 1.351 . S
C586 C580 1.428 . S
C586 N585 1.351 . S
C586 C587 1.434 . S
C587 C578 1.429 . S
C587 N584 1.350 . S
C587 C586 1.434 . S
C588 C589 1.369 . S
C588 C590 1.419 . S
C588 H592 0.930 . S
C589 C588 1.369 . S
C589 C598 1.429 . S
C590 C588 1.419 . S
C590 C591 1.363 . S
C590 H593 0.929 . S
C591 C590 1.363 . S
C591 C597 1.428 . S
H592 C588 0.930 . S
H593 C590 0.929 . S
S594 N595 1.613 . S
S594 N596 1.610 . S
N595 S594 1.613 . S
N595 C598 1.350 . S
N596 S594 1.610 . S
N596 C597 1.351 . S
C597 C591 1.428 . S
C597 N596 1.351 . S
C597 C598 1.434 . S
C598 C589 1.429 . S
C598 N595 1.350 . S
C598 C597 1.434 . S
C599 C600 1.369 . S
C599 C601 1.419 . S
C599 H603 0.930 . S
C600 C599 1.369 . S
C600 C609 1.429 . S
C601 C599 1.419 . S
C601 C602 1.363 . S
C601 H604 0.929 . S
C602 C601 1.363 . S
C602 C608 1.428 . S
H603 C599 0.930 . S
H604 C601 0.929 . S
S605 N606 1.613 . S
S605 N607 1.610 . S
N606 S605 1.613 . S
N606 C609 1.350 . S
N607 S605 1.610 . S
N607 C608 1.351 . S
C608 C602 1.428 . S
C608 N607 1.351 . S
C608 C609 1.434 . S
C609 C600 1.429 . S
C609 N606 1.350 . S
C609 C608 1.434 . S
C610 C611 1.369 . S
C610 C612 1.419 . S
C610 H614 0.930 . S
C611 C610 1.369 . S
C611 C620 1.429 . S
C612 C610 1.419 . S
C612 C613 1.363 . S
C612 H615 0.929 . S
C613 C612 1.363 . S
C613 C619 1.428 . S
H614 C610 0.930 . S
H615 C612 0.929 . S
S616 N617 1.613 . S
S616 N618 1.610 . S
N617 S616 1.613 . S
N617 C620 1.350 . S
N618 S616 1.610 . S
N618 C619 1.351 . S
C619 C613 1.428 . S
C619 N618 1.351 . S
C619 C620 1.434 . S
C620 C611 1.429 . S
C620 N617 1.350 . S
C620 C619 1.434 . S
C621 C622 1.369 . S
C621 C623 1.419 . S
C621 H625 0.930 . S
C622 C621 1.369 . S
C622 C631 1.429 . S
C623 C621 1.419 . S
C623 C624 1.363 . S
C623 H626 0.929 . S
C624 C623 1.363 . S
C624 C630 1.428 . S
H625 C621 0.930 . S
H626 C623 0.929 . S
S627 N628 1.613 . S
S627 N629 1.610 . S
N628 S627 1.613 . S
N628 C631 1.350 . S
N629 S627 1.610 . S
N629 C630 1.351 . S
C630 C624 1.428 . S
C630 N629 1.351 . S
C630 C631 1.434 . S
C631 C622 1.429 . S
C631 N628 1.350 . S
C631 C630 1.434 . S
C632 C633 1.369 . S
C632 C634 1.419 . S
C632 H636 0.930 . S
C633 C632 1.369 . S
C633 C642 1.429 1_545 S
C634 C632 1.419 . S
C634 C635 1.363 1_545 S
C634 H637 0.929 . S
C635 C634 1.363 1_565 S
C635 C641 1.428 . S
H636 C632 0.930 . S
H637 C634 0.929 . S
S638 N639 1.613 . S
S638 N640 1.610 . S
N639 S638 1.613 . S
N639 C642 1.350 . S
N640 S638 1.610 . S
N640 C641 1.351 . S
C641 C635 1.428 . S
C641 N640 1.351 . S
C641 C642 1.434 . S
C642 C633 1.429 1_565 S
C642 N639 1.350 . S
C642 C641 1.434 . S
C643 C644 1.369 1_565 S
C643 C645 1.419 . S
C643 H647 0.930 . S
C644 C643 1.369 1_545 S
C644 C653 1.429 . S
C645 C643 1.419 . S
C645 C646 1.363 . S
C645 H648 0.929 . S
C646 C645 1.363 . S
C646 C652 1.428 1_565 S
H647 C643 0.930 . S
H648 C645 0.929 . S
S649 N650 1.613 . S
S649 N651 1.610 . S
N650 S649 1.613 . S
N650 C653 1.350 . S
N651 S649 1.610 . S
N651 C652 1.351 . S
C652 C646 1.428 1_545 S
C652 N651 1.351 . S
C652 C653 1.434 . S
C653 C644 1.429 . S
C653 N650 1.350 . S
C653 C652 1.434 . S
C654 C655 1.369 . S
C654 C656 1.419 . S
C654 H658 0.930 . S
C655 C654 1.369 . S
C655 C664 1.429 1_545 S
C656 C654 1.419 . S
C656 C657 1.363 1_545 S
C656 H659 0.929 . S
C657 C656 1.363 1_565 S
C657 C663 1.428 . S
H658 C654 0.930 . S
H659 C656 0.929 . S
S660 N661 1.613 . S
S660 N662 1.610 . S
N661 S660 1.613 . S
N661 C664 1.350 . S
N662 S660 1.610 . S
N662 C663 1.351 . S
C663 C657 1.428 . S
C663 N662 1.351 . S
C663 C664 1.434 . S
C664 C655 1.429 1_565 S
C664 N661 1.350 . S
C664 C663 1.434 . S
C665 C666 1.369 . S
C665 C667 1.419 . S
C665 H669 0.930 . S
C666 C665 1.369 . S
C666 C675 1.429 1_565 S
C667 C665 1.419 . S
C667 C668 1.363 1_565 S
C667 H670 0.929 . S
C668 C667 1.363 1_545 S
C668 C674 1.428 . S
H669 C665 0.930 . S
H670 C667 0.929 . S
S671 N672 1.613 . S
S671 N673 1.610 . S
N672 S671 1.613 . S
N672 C675 1.350 . S
N673 S671 1.610 . S
N673 C674 1.351 . S
C674 C668 1.428 . S
C674 N673 1.351 . S
C674 C675 1.434 . S
C675 C666 1.429 1_545 S
C675 N672 1.350 . S
C675 C674 1.434 . S
C676 C677 1.369 . S
C676 C678 1.419 . S
C676 H680 0.930 . S
C677 C676 1.369 . S
C677 C686 1.429 . S
C678 C676 1.419 . S
C678 C679 1.363 . S
C678 H681 0.929 . S
C679 C678 1.363 . S
C679 C685 1.428 . S
H680 C676 0.930 . S
H681 C678 0.929 . S
S682 N683 1.613 . S
S682 N684 1.610 . S
N683 S682 1.613 . S
N683 C686 1.350 . S
N684 S682 1.610 . S
N684 C685 1.351 . S
C685 C679 1.428 . S
C685 N684 1.351 . S
C685 C686 1.434 . S
C686 C677 1.429 . S
C686 N683 1.350 . S
C686 C685 1.434 . S
C687 C688 1.369 . S
C687 C689 1.419 . S
C687 H691 0.930 . S
C688 C687 1.369 . S
C688 C697 1.429 . S
C689 C687 1.419 . S
C689 C690 1.363 . S
C689 H692 0.929 . S
C690 C689 1.363 . S
C690 C696 1.428 . S
H691 C687 0.930 . S
H692 C689 0.929 . S
S693 N694 1.613 . S
S693 N695 1.610 . S
N694 S693 1.613 . S
N694 C697 1.350 . S
N695 S693 1.610 . S
N695 C696 1.351 . S
C696 C690 1.428 . S
C696 N695 1.351 . S
C696 C697 1.434 . S
C697 C688 1.429 . S
C697 N694 1.350 . S
C697 C696 1.434 . S
C698 C699 1.369 . S
C698 C700 1.419 . S
C698 H702 0.930 . S
C699 C698 1.369 . S
C699 C708 1.429 . S
C700 C698 1.419 . S
C700 C701 1.363 . S
C700 H703 0.929 . S
C701 C700 1.363 . S
C701 C707 1.428 . S
H702 C698 0.930 . S
H703 C700 0.929 . S
S704 N705 1.613 . S
S704 N706 1.610 . S
N705 S704 1.613 . S
N705 C708 1.350 . S
N706 S704 1.610 . S
N706 C707 1.351 . S
C707 C701 1.428 . S
C707 N706 1.351 . S
C707 C708 1.434 . S
C708 C699 1.429 . S
C708 N705 1.350 . S
C708 C707 1.434 . S
C709 C710 1.369 . S
C709 C711 1.419 . S
C709 H713 0.930 . S
C710 C709 1.369 . S
C710 C719 1.429 . S
C711 C709 1.419 . S
C711 C712 1.363 . S
C711 H714 0.929 . S
C712 C711 1.363 . S
C712 C718 1.428 . S
H713 C709 0.930 . S
H714 C711 0.929 . S
S715 N716 1.613 . S
S715 N717 1.610 . S
N716 S715 1.613 . S
N716 C719 1.350 . S
N717 S715 1.610 . S
N717 C718 1.351 . S
C718 C712 1.428 . S
C718 N717 1.351 . S
C718 C719 1.434 . S
C719 C710 1.429 . S
C719 N716 1.350 . S
C719 C718 1.434 . S
C369 C7 1.644 . S
C371 C122 1.645 . S
C380 C99 1.648 . S
C382 C30 1.647 . S
C391 C53 1.649 . S
C393 C168 1.649 . S
C402 C145 1.646 . S
C404 C76 1.646 . S
C413 C306 1.649 . S
C415 C191 1.649 . S
C424 C283 1.649 . S
C426 C214 1.648 . S
C435 C352 1.647 . S
C437 C237 1.647 . S
C446 C260 1.649 . S
C448 C329 1.649 . S
C457 N25 1.454 . S
C459 N2 1.458 . S
C468 N48 1.458 . S
C470 N71 1.451 . S
C479 N94 1.459 . S
C481 N117 1.455 . S
C490 N140 1.457 . S
C492 N163 1.451 . S
C501 N186 1.459 . S
C503 N209 1.455 . S
C512 N255 1.454 . S
C514 N232 1.452 . S
C523 N301 1.457 . S
C525 N278 1.451 . S
C534 N324 1.459 . S
C536 N347 1.452 . S
C545 N219 1.468 . S
C547 N12 1.466 . S
C556 N35 1.464 . S
C558 N196 1.467 . S
C567 N265 1.468 . S
C569 N58 1.470 . S
C578 N81 1.469 . S
C580 N242 1.471 . S
C589 N104 1.469 . S
C591 N311 1.470 . S
C600 N288 1.466 . S
C602 N127 1.465 . S
C611 N150 1.467 . S
C613 N357 1.465 . S
C622 N334 1.466 . S
C624 N173 1.465 . S
C633 C16 1.613 . S
C635 C62 1.620 . S
C644 C85 1.617 . S
C646 C39 1.615 . S
C655 C154 1.615 . S
C657 C108 1.621 . S
C666 C177 1.614 . S
C668 C131 1.621 . S
C677 C246 1.614 . S
C679 C200 1.619 . S
C688 C223 1.616 . S
C690 C269 1.621 . S
C699 C338 1.614 . S
C701 C292 1.621 . S
C710 C315 1.620 . S
C712 C361 1.615 . S
