# Generated by pormake.
# Topology tfs, (6)-cn, num edge types: 1
# Building blocks:
#     Node 0, Type 0, BuildingBlock: BETDIP_clean_sbu_0, # of connection points: 6
#     Node 1, Type 0, BuildingBlock: BETDIP_clean_sbu_0, # of connection points: 6
#     Node 2, Type 0, BuildingBlock: BETDIP_clean_sbu_0, # of connection points: 6
#     Node 3, Type 0, BuildingBlock: BETDIP_clean_sbu_0, # of connection points: 6
#     Node 4, Type 0, BuildingBlock: BETDIP_clean_sbu_0, # of connection points: 6
#     Node 5, Type 0, BuildingBlock: BETDIP_clean_sbu_0, # of connection points: 6
#     Edge 6, Type (0, 0), BuildingBlock: AJUNOK_clean_linker_0, # of connection points: 2
#     Edge 7, Type (0, 0), BuildingBlock: AJUNOK_clean_linker_0, # of connection points: 2
#     Edge 8, Type (0, 0), BuildingBlock: AJUNOK_clean_linker_0, # of connection points: 2
#     Edge 9, Type (0, 0), BuildingBlock: AJUNOK_clean_linker_0, # of connection points: 2
#     Edge 10, Type (0, 0), BuildingBlock: AJUNOK_clean_linker_0, # of connection points: 2
#     Edge 11, Type (0, 0), BuildingBlock: AJUNOK_clean_linker_0, # of connection points: 2
#     Edge 12, Type (0, 0), BuildingBlock: AJUNOK_clean_linker_0, # of connection points: 2
#     Edge 13, Type (0, 0), BuildingBlock: AJUNOK_clean_linker_0, # of connection points: 2
#     Edge 14, Type (0, 0), BuildingBlock: AJUNOK_clean_linker_0, # of connection points: 2
#     Edge 15, Type (0, 0), BuildingBlock: AJUNOK_clean_linker_0, # of connection points: 2
#     Edge 16, Type (0, 0), BuildingBlock: AJUNOK_clean_linker_0, # of connection points: 2
#     Edge 17, Type (0, 0), BuildingBlock: AJUNOK_clean_linker_0, # of connection points: 2
#     Edge 18, Type (0, 0), BuildingBlock: AJUNOK_clean_linker_0, # of connection points: 2
#     Edge 19, Type (0, 0), BuildingBlock: AJUNOK_clean_linker_0, # of connection points: 2
#     Edge 20, Type (0, 0), BuildingBlock: AJUNOK_clean_linker_0, # of connection points: 2
#     Edge 21, Type (0, 0), BuildingBlock: AJUNOK_clean_linker_0, # of connection points: 2
#     Edge 22, Type (0, 0), BuildingBlock: AJUNOK_clean_linker_0, # of connection points: 2
#     Edge 23, Type (0, 0), BuildingBlock: AJUNOK_clean_linker_0, # of connection points: 2
# Relax obj value: 0.613
# Max RMSD: 0.306
# Mean RMSD: 0.306
data_MOF--net-tfs--node1-BETDIP_clean_sbu_0--edge1-AJUNOK_clean_linker_0
_symmetry_space_group_name_H-M    P1
_symmetry_Int_Tables_number       1
_symmetry_cell_setting            triclinic
loop_
_symmetry_equiv_pos_as_xyz
'x, y, z'
_cell_length_a     44.285115
_cell_length_b     44.290475
_cell_length_c     10.346722
_cell_angle_alpha  90.079283
_cell_angle_beta   90.042324
_cell_angle_gamma 119.97252
loop_
_atom_site_label
_atom_site_type_symbol
_atom_site_fract_x
_atom_site_fract_y
_atom_site_fract_z
_atom_type_partial_charge
Tb0 Tb 0.17433 0.4577 0.04816 0.0
Tb1 Tb 0.19671 0.40476 1.01381 0.0
C2 C 0.16323 0.50503 0.12861 0.0
C3 C 0.17615 0.5424 0.10917 0.0
C4 C 0.16163 0.55864 0.18214 0.0
C5 C 0.17234 0.59379 0.16279 0.0
C6 C 0.19793 0.61343 0.07032 0.0
C7 C 0.21257 0.59707 0.99733 0.0
C8 C 0.20171 0.56176 1.01653 0.0
C9 C 0.17756 0.44124 0.80385 0.0
C10 C 0.25595 0.48264 0.0369 0.0
C11 C 0.20771 0.35632 0.94604 0.0
C12 C 0.23455 0.34589 0.96231 0.0
C13 C 0.24974 0.34022 0.85255 0.0
C14 C 0.27377 0.32857 0.86506 0.0
C15 C 0.28316 0.32229 0.98778 0.0
C16 C 0.26777 0.32779 0.09762 0.0
C17 C 0.24387 0.33958 0.08516 0.0
C18 C 0.19601 0.4237 0.25569 0.0
C19 C 0.11652 0.38159 0.02593 0.0
O20 O 0.1844 0.49661 0.1856 0.0
O21 O 0.14694 0.4847 0.0305 0.0
O22 O 0.19798 0.44445 0.89394 0.0
O23 O 0.15581 0.45026 0.84713 0.0
O24 O 0.23117 0.49035 0.06107 0.0
O25 O 0.24854 0.45057 1.00664 0.0
O26 O 0.18976 0.35508 0.04834 0.0
O27 O 0.21606 0.38387 0.87524 0.0
O28 O 0.17391 0.41867 0.1693 0.0
O29 O 0.21832 0.4157 0.20961 0.0
O30 O 0.14033 0.37668 0.96707 0.0
O31 O 0.12611 0.41059 0.09084 0.0
H32 H 0.14178 0.54402 0.25374 0.0
H33 H 0.16077 0.60572 0.2209 0.0
H34 H 0.23197 0.61141 0.92409 0.0
H35 H 0.21295 0.5495 0.95845 0.0
H36 H 0.24281 0.34459 0.75672 0.0
H37 H 0.28522 0.32469 0.77864 0.0
H38 H 0.27383 0.3225 0.19343 0.0
H39 H 0.23244 0.34335 0.17183 0.0
Tb40 Tb 0.72407 0.1712 0.03871 0.0
Tb41 Tb 0.7993 0.19309 1.00454 0.0
C42 C 0.66559 0.15962 0.11996 0.0
C43 C 0.64061 0.17197 0.10271 0.0
C44 C 0.64742 0.19957 1.0191 0.0
C45 C 0.62278 0.21035 1.00357 0.0
C46 C 0.5909 0.19345 0.07072 0.0
C47 C 0.58416 0.16559 0.15309 0.0
C48 C 0.60885 0.15505 0.1692 0.0
C49 C 0.74365 0.17442 0.79439 0.0
C50 C 0.78116 0.25264 0.02917 0.0
C51 C 0.85855 0.20377 0.93649 0.0
C52 C 0.89585 0.23035 0.95408 0.0
C53 C 0.91645 0.24724 0.84552 0.0
C54 C 0.9521 0.2712 0.85909 0.0
C55 C 0.96798 0.27879 0.98166 0.0
C56 C 0.94741 0.26162 0.09015 0.0
C57 C 0.91176 0.23779 0.07669 0.0
C58 C 0.77979 0.19234 0.24649 0.0
C59 C 0.7421 0.11317 1.01513 0.0
O60 O 0.6952 0.18099 0.17657 0.0
O61 O 0.66969 0.14368 0.02085 0.0
O62 O 0.761 0.19473 0.88468 0.0
O63 O 0.71285 0.15285 0.83748 0.0
O64 O 0.74847 0.22811 0.05164 0.0
O65 O 0.80573 0.24505 0.99993 0.0
O66 O 0.84166 0.18543 0.03778 0.0
O67 O 0.83957 0.21265 0.86655 0.0
O68 O 0.76258 0.17039 0.15978 0.0
O69 O 0.81017 0.21442 0.20076 0.0
O70 O 0.77079 0.13689 0.95642 0.0
O71 O 0.7229 0.12287 0.08065 0.0
H72 H 0.6716 0.21251 0.9654 0.0
H73 H 0.62843 0.23156 0.93795 0.0
H74 H 0.5599 0.15221 0.2063 0.0
H75 H 0.60309 0.13355 0.23355 0.0
H76 H 0.90496 0.24175 0.74978 0.0
H77 H 0.96721 0.28404 0.77373 0.0
H78 H 0.95897 0.26629 0.18559 0.0
H79 H 0.8968 0.225 0.16236 0.0
Tb80 Tb 0.56102 0.72197 0.02761 0.0
Tb81 Tb 0.61452 0.79676 0.99275 0.0
C82 C 0.51237 0.6642 0.10628 0.0
C83 C 0.47442 0.64063 0.08614 0.0
C84 C 0.45023 0.64035 0.17482 0.0
C85 C 0.41467 0.6161 0.16261 0.0
C86 C 0.40249 0.5915 0.06169 0.0
C87 C 0.4266 0.59192 0.97251 0.0
C88 C 0.46214 0.61617 0.98457 0.0
C89 C 0.57683 0.74125 0.78287 0.0
C90 C 0.53745 0.77985 1.01708 0.0
C91 C 0.66346 0.85574 0.92517 0.0
C92 C 0.67406 0.89298 0.94258 0.0
C93 C 0.67836 0.91366 0.83367 0.0
C94 C 0.68969 0.94922 0.84725 0.0
C95 C 0.69699 0.96488 0.97018 0.0
C96 C 0.69297 0.94422 0.07908 0.0
C97 C 0.6815 0.90865 0.06559 0.0
C98 C 0.59609 0.77753 0.23505 0.0
C99 C 0.63654 0.73891 0.99882 0.0
O100 O 0.52225 0.69382 0.16595 0.0
O101 O 0.53299 0.66763 1.01003 0.0
O102 O 0.5742 0.75876 0.87326 0.0
O103 O 0.56753 0.71045 0.82612 0.0
O104 O 0.52922 0.74726 0.04257 0.0
O105 O 0.56949 0.80385 0.98477 0.0
O106 O 0.66464 0.83883 0.02694 0.0
O107 O 0.63575 0.83686 0.8544 0.0
O108 O 0.60068 0.76016 0.14855 0.0
O109 O 0.60418 0.8078 0.18875 0.0
O110 O 0.64141 0.76779 0.94207 0.0
O111 O 0.6079 0.71962 0.06568 0.0
H112 H 0.45888 0.65839 0.25549 0.0
H113 H 0.39681 0.61594 0.23445 0.0
H114 H 0.41796 0.57329 0.89375 0.0
H115 H 0.48002 0.61527 0.91542 0.0
H116 H 0.67307 0.90231 0.73771 0.0
H117 H 0.69244 0.96443 0.76162 0.0
H118 H 0.69909 0.95564 0.17487 0.0
H119 H 0.67878 0.89358 0.15156 0.0
Tb120 Tb 0.84712 0.55677 0.0446 0.0
Tb121 Tb 0.82455 0.60945 1.0099 0.0
C122 C 0.85697 0.50865 0.12389 0.0
C123 C 0.8432 0.47096 0.10066 0.0
C124 C 0.81345 0.44552 0.16571 0.0
C125 C 0.8022 0.41007 0.14943 0.0
C126 C 0.82042 0.39928 0.06772 0.0
C127 C 0.84999 0.42471 1.0022 0.0
C128 C 0.86131 0.4601 1.01879 0.0
C129 C 0.84451 0.57302 0.80046 0.0
C130 C 0.76542 0.53173 0.03248 0.0
C131 C 0.81422 0.65814 0.94045 0.0
C132 C 0.78779 0.66903 0.9522 0.0
C133 C 0.79895 0.70468 0.9621 0.0
C134 C 0.77475 0.71614 0.96933 0.0
C135 C 0.73876 0.69217 0.96578 0.0
C136 C 0.72759 0.65634 0.95832 0.0
C137 C 0.75188 0.64485 0.95152 0.0
C138 C 0.82662 0.59145 0.25233 0.0
C139 C 0.90493 0.63282 1.01895 0.0
O140 O 0.83659 0.51792 0.18226 0.0
O141 O 0.87448 0.52972 0.02926 0.0
O142 O 0.8236 0.56992 0.88879 0.0
O143 O 0.86574 0.56357 0.84551 0.0
O144 O 0.79029 0.52416 0.05638 0.0
O145 O 0.77267 0.56375 1.00286 0.0
O146 O 0.83072 0.65892 0.04637 0.0
O147 O 0.80621 0.63059 0.86971 0.0
O148 O 0.8481 0.59623 0.16415 0.0
O149 O 0.80383 0.599 0.2078 0.0
O150 O 0.88081 0.63761 0.96204 0.0
O151 O 0.89582 0.60391 0.0835 0.0
H152 H 0.79918 0.45296 0.23105 0.0
H153 H 0.77977 0.39116 0.20359 0.0
H154 H 0.86453 0.41721 0.93844 0.0
H155 H 0.8846 0.47902 0.96862 0.0
H156 H 0.82652 0.72375 0.96379 0.0
H157 H 0.78423 0.74382 0.97857 0.0
H158 H 0.70005 0.63723 0.95577 0.0
H159 H 0.74262 0.61716 0.94474 0.0
Tb160 Tb 0.29559 0.84146 0.03133 0.0
Tb161 Tb 0.2207 0.82029 0.99679 0.0
C162 C 0.35307 0.84978 0.1101 0.0
C163 C 0.37645 0.83543 0.08767 0.0
C164 C 0.38763 0.82372 0.19352 0.0
C165 C 0.41238 0.81322 0.17723 0.0
C166 C 0.42672 0.81454 0.05483 0.0
C167 C 0.41466 0.82512 0.94804 0.0
C168 C 0.38974 0.83545 0.96418 0.0
C169 C 0.2761 0.83844 0.78698 0.0
C170 C 0.23774 0.76007 1.0196 0.0
C171 C 0.16205 0.81125 0.92781 0.0
C172 C 0.12484 0.78468 0.93962 0.0
C173 C 0.09969 0.79503 0.93169 0.0
C174 C 0.06421 0.77057 0.94459 0.0
C175 C 0.05317 0.73522 0.96615 0.0
C176 C 0.07849 0.72485 0.97235 0.0
C177 C 0.11402 0.74938 0.95981 0.0
C178 C 0.24011 0.82062 0.23865 0.0
C179 C 0.27872 0.90027 1.01114 0.0
O180 O 0.32333 0.82946 0.16753 0.0
O181 O 0.34994 0.86782 1.01624 0.0
O182 O 0.25866 0.81815 0.87684 0.0
O183 O 0.30693 0.85987 0.83054 0.0
O184 O 0.27032 0.78453 0.04399 0.0
O185 O 0.21345 0.76796 0.98885 0.0
O186 O 0.17784 0.82702 0.03472 0.0
O187 O 0.18143 0.80336 0.85576 0.0
O188 O 0.25742 0.84268 0.15268 0.0
O189 O 0.20977 0.79856 0.19209 0.0
O190 O 0.24982 0.87674 0.9523 0.0
O191 O 0.29802 0.89036 0.075 0.0
H192 H 0.37783 0.82354 0.28963 0.0
H193 H 0.42119 0.80514 0.26114 0.0
H194 H 0.42477 0.82571 0.85219 0.0
H195 H 0.38146 0.84409 0.88041 0.0
H196 H 0.10753 0.82216 0.91628 0.0
H197 H 0.04543 0.77942 0.93982 0.0
H198 H 0.07081 0.69771 0.98616 0.0
H199 H 0.13301 0.74081 0.96598 0.0
Tb200 Tb 0.46055 0.29151 0.0455 0.0
Tb201 Tb 0.40669 0.21664 1.01178 0.0
C202 C 0.50988 0.34938 0.12095 0.0
C203 C 0.54762 0.37293 0.09658 0.0
C204 C 0.5728 0.37205 0.17689 0.0
C205 C 0.60823 0.39639 0.16135 0.0
C206 C 0.61928 0.42221 0.06532 0.0
C207 C 0.59416 0.42285 0.9842 0.0
C208 C 0.55877 0.39856 0.99972 0.0
C209 C 0.44362 0.27176 0.80156 0.0
C210 C 0.48399 0.23362 0.0342 0.0
C211 C 0.35709 0.15795 0.9429 0.0
C212 C 0.34666 0.12073 0.95242 0.0
C213 C 0.31116 0.09554 0.94625 0.0
C214 C 0.30033 0.06004 0.95617 0.0
C215 C 0.32481 0.04897 0.97292 0.0
C216 C 0.3605 0.07434 0.97772 0.0
C217 C 0.37132 0.10991 0.9681 0.0
C218 C 0.42615 0.23615 0.25324 0.0
C219 C 0.3849 0.27489 0.02728 0.0
O220 O 0.50053 0.31984 0.18004 0.0
O221 O 0.48838 0.34583 0.02763 0.0
O222 O 0.44667 0.25443 0.89139 0.0
O223 O 0.45297 0.30259 0.84493 0.0
O224 O 0.49214 0.26619 0.05905 0.0
O225 O 0.45182 0.20943 1.00282 0.0
O226 O 0.35747 0.17343 0.05105 0.0
O227 O 0.38397 0.17763 0.86987 0.0
O228 O 0.42132 0.25346 0.16743 0.0
O229 O 0.41779 0.20577 0.20675 0.0
O230 O 0.37918 0.24578 0.96905 0.0
O231 O 0.41427 0.29404 0.09052 0.0
H232 H 0.5651 0.35306 0.25384 0.0
H233 H 0.62687 0.39565 0.22721 0.0
H234 H 0.60188 0.44238 0.90922 0.0
H235 H 0.5401 0.40035 0.93718 0.0
H236 H 0.29173 0.10336 0.93429 0.0
H237 H 0.27271 0.04123 0.95264 0.0
H238 H 0.38008 0.06668 0.9879 0.0
H239 H 0.39888 0.12892 0.97281 0.0
C240 C 0.3302 0.2707 0.93528 0.0
C241 C 0.35856 0.28652 0.02167 0.0
C242 C 0.30601 0.28237 0.92475 0.0
C243 C 0.30898 0.31013 1.00096 0.0
H244 H 0.32683 0.2494 0.87394 0.0
H245 H 0.28464 0.26938 0.85687 0.0
S246 S 0.37832 0.36061 0.24216 0.0
N247 N 0.38785 0.33149 0.18593 0.0
N248 N 0.34278 0.35343 0.16444 0.0
C249 C 0.33704 0.32603 0.08818 0.0
C250 C 0.36169 0.31426 0.09886 0.0
C251 C 0.0665 0.32769 0.92743 0.0
C252 C 0.07878 0.3548 1.01928 0.0
C253 C 0.03074 0.30326 0.91573 0.0
C254 C 1.00585 0.30473 0.99623 0.0
H255 H 0.08455 0.32557 0.8626 0.0
H256 H 0.02252 0.28293 0.84344 0.0
S257 S 0.02411 0.37026 0.25311 0.0
N258 N 0.0628 0.38117 0.19368 0.0
N259 N 0.99599 0.33569 0.17009 0.0
C260 C 0.01777 0.33148 0.08909 0.0
C261 C 0.05407 0.35637 0.10092 0.0
C262 C 0.74665 0.06338 0.91858 0.0
C263 C 0.73106 0.07543 1.00794 0.0
C264 C 0.73552 0.02769 0.90678 0.0
C265 C 0.70858 1.00264 0.98465 0.0
H266 H 0.76733 0.08157 0.85594 0.0
H267 H 0.74828 0.01965 0.83661 0.0
S268 S 0.65904 0.02019 0.23372 0.0
N269 N 0.68723 0.05902 0.17674 0.0
N270 N 0.66629 0.9923 0.15289 0.0
C271 C 0.69292 0.0143 0.0748 0.0
C272 C 0.70413 0.05054 0.08677 0.0
C273 C 0.6846 0.68884 0.05693 0.0
C274 C 0.71299 0.70451 0.97133 0.0
C275 C 0.66025 0.70026 0.06525 0.0
C276 C 0.66319 0.72785 0.98823 0.0
H277 H 0.68138 0.66783 0.11939 0.0
H278 H 0.63903 0.68737 0.13343 0.0
S279 S 0.73172 0.77626 0.74245 0.0
N280 N 0.74181 0.74802 0.80359 0.0
N281 N 0.6964 0.76976 0.81996 0.0
C282 C 0.69134 0.74357 0.9013 0.0
C283 C 0.71612 0.73186 0.89271 0.0
C284 C 0.9904 0.70887 0.89681 0.0
C285 C 0.01536 0.7094 0.9829 0.0
C286 C 0.9547 0.68452 0.91025 0.0
C287 C 0.94253 0.65966 1.01015 0.0
H288 H 0.99859 0.72706 0.81697 0.0
H289 H 0.93662 0.68475 0.84023 0.0
S290 S 0.99678 0.65242 0.26917 0.0
N291 N 0.02497 0.68464 0.17732 0.0
N292 N 0.95828 0.63873 0.20183 0.0
C293 C 0.96717 0.66049 0.09866 0.0
C294 C 1.00342 0.68534 0.08521 0.0
C295 C 0.27676 0.95083 0.90918 0.0
C296 C 0.28986 0.93804 1.00563 0.0
C297 C 0.28812 0.98662 0.89932 0.0
C298 C 0.31299 0.01107 0.98563 0.0
H299 H 0.25803 0.93318 0.83921 0.0
H300 H 0.27772 0.99526 0.82212 0.0
S301 S 0.35282 0.99081 0.26362 0.0
N302 N 0.32756 0.95268 0.19437 0.0
N303 N 0.3484 0.01954 0.17637 0.0
C304 C 0.32564 0.99853 0.08437 0.0
C305 C 0.31419 0.96217 0.09427 0.0
C306 C 0.19327 0.69623 0.02265 0.0
C307 C 0.22848 0.7228 0.02644 0.0
C308 C 0.18371 0.66101 0.03518 0.0
C309 C 0.20894 0.65082 0.05082 0.0
H310 H 0.17276 0.70261 1.01205 0.0
H311 H 0.15627 0.64155 0.03285 0.0
S312 S 0.30472 0.70968 0.06472 0.0
N313 N 0.28882 0.73604 0.04466 0.0
N314 N 0.2706 0.66995 0.0688 0.0
C315 C 0.24423 0.67692 0.05255 0.0
C316 C 0.25404 0.71284 0.04043 0.0
C317 C 0.5039 0.1896 1.02019 0.0
C318 C 0.51204 0.22436 0.03976 0.0
C319 C 0.52959 0.17995 0.0288 0.0
C320 C 0.56454 0.20467 0.05619 0.0
H321 H 0.47739 0.16948 0.99929 0.0
H322 H 0.52202 0.15285 1.01385 0.0
S323 S 0.60007 0.29905 0.11614 0.0
N324 N 0.55821 0.2837 0.08785 0.0
N325 N 0.60609 0.26526 0.10389 0.0
C326 C 0.57325 0.23952 0.0746 0.0
C327 C 0.54712 0.24942 0.06659 0.0
C328 C 0.3552 0.52915 0.03766 0.0
C329 C 0.36497 0.56447 0.0524 0.0
C330 C 0.32001 0.503 0.03211 0.0
C331 C 0.29307 0.51107 0.04094 0.0
H332 H 0.37494 0.52155 0.03254 0.0
H333 H 0.31398 0.47621 0.02213 0.0
S334 S 0.30508 0.60017 0.07077 0.0
N335 N 0.34509 0.60646 0.06881 0.0
N336 N 0.27904 0.5576 0.05952 0.0
C337 C 0.3026 0.54649 0.05361 0.0
C338 C 0.33847 0.57307 0.05918 0.0
C339 C 0.83471 0.35116 0.0645 0.0
C340 C 0.80964 0.36174 0.05468 0.0
C341 C 0.8253 0.31594 0.05475 0.0
C342 C 0.79039 0.2898 0.03551 0.0
H343 H 0.86182 0.37021 0.082 0.0
H344 H 0.84554 0.30916 0.06465 0.0
S345 S 0.7151 0.30407 0.99293 0.0
N346 N 0.74871 0.34349 1.01667 0.0
N347 N 0.73085 0.27729 1.00043 0.0
C348 C 0.7651 0.30009 0.02362 0.0
C349 C 0.77475 0.33601 0.03279 0.0
C350 C 0.45071 0.77454 0.0908 0.0
C351 C 0.4549 0.80584 0.04005 0.0
C352 C 0.47737 0.76628 0.08159 0.0
C353 C 0.50951 0.78918 0.02257 0.0
H354 H 0.42654 0.75622 0.13773 0.0
H355 H 0.47278 0.74186 0.12265 0.0
S356 S 0.53363 0.87484 0.87565 0.0
N357 N 0.4936 0.86001 0.92959 0.0
N358 N 0.54372 0.84465 0.91177 0.0
C359 C 0.51397 0.82061 0.97115 0.0
C360 C 0.48668 0.82886 0.97983 0.0
C361 C 0.70132 0.51115 0.03735 0.0
C362 C 0.72838 0.50318 0.03735 0.0
C363 C 0.66624 0.48484 0.04522 0.0
C364 C 0.65669 0.44943 0.05331 0.0
H365 H 0.7072 0.53798 0.03305 0.0
H366 H 0.64642 0.49236 0.04734 0.0
S367 S 0.71698 0.41407 0.04667 0.0
N368 N 0.74279 0.45674 0.03984 0.0
N369 N 0.67693 0.40757 0.05342 0.0
C370 C 0.68333 0.44096 0.05091 0.0
C371 C 0.71909 0.46771 0.04311 0.0
C372 C 0.15765 0.43267 0.57307 0.0
C373 C 0.18308 0.43716 0.66473 0.0
C374 C 0.16218 0.42887 0.4407 0.0
C375 C 0.19234 0.42931 0.39501 0.0
H376 H 0.13386 0.43187 0.60385 0.0
H377 H 0.14174 0.42516 0.37406 0.0
S378 S 0.26784 0.4426 0.59398 0.0
N379 N 0.24035 0.44364 0.6991 0.0
N380 N 0.24868 0.43602 0.45156 0.0
C381 C 0.21821 0.43434 0.48538 0.0
C382 C 0.21366 0.43834 0.61992 0.0
C383 C 0.73225 0.15441 0.56363 0.0
C384 C 0.75329 0.17982 0.65532 0.0
C385 C 0.74062 0.15881 0.43133 0.0
C386 C 0.77046 0.18879 0.38572 0.0
H387 H 0.70917 0.13075 0.59436 0.0
H388 H 0.72382 0.13839 0.36469 0.0
S389 S 0.83294 0.2642 0.58465 0.0
N390 N 0.80429 0.23691 0.68969 0.0
N391 N 0.82031 0.24497 0.44232 0.0
C392 C 0.7914 0.21465 0.47609 0.0
C393 C 0.7828 0.21023 0.61055 0.0
C394 C 0.58565 0.72981 0.55256 0.0
C395 C 0.58133 0.75096 0.64386 0.0
C396 C 0.58992 0.73825 0.42033 0.0
C397 C 0.59012 0.76823 0.37432 0.0
H398 H 0.58598 0.70662 0.58356 0.0
H399 H 0.59346 0.72133 0.35397 0.0
S400 S 0.57749 0.83108 0.57225 0.0
N401 N 0.5757 0.80226 0.67752 0.0
N402 N 0.58419 0.81838 0.43027 0.0
C403 C 0.58527 0.78931 0.46434 0.0
C404 C 0.5808 0.78064 0.59876 0.0
C405 C 0.81198 0.58104 0.61646 0.0
C406 C 0.84032 0.57788 0.66084 0.0
C407 C 0.80756 0.5851 0.48411 0.0
C408 C 0.83128 0.58609 0.39117 0.0
H409 H 0.79294 0.58017 0.68422 0.0
H410 H 0.78542 0.58754 0.45455 0.0
S411 S 0.90966 0.57853 0.45719 0.0
N412 N 0.8924 0.5759 0.60093 0.0
N413 N 0.88395 0.58319 0.35358 0.0
C414 C 0.85958 0.58274 0.43445 0.0
C415 C 0.86414 0.57874 0.56886 0.0
C416 C 0.27927 0.85402 0.42421 0.0
C417 C 0.24938 0.82412 0.378 0.0
C418 C 0.28763 0.85841 0.55659 0.0
C419 C 0.26646 0.83305 0.64783 0.0
H420 H 0.29619 0.87442 0.35786 0.0
H421 H 0.31074 0.88198 0.58775 0.0
S422 S 0.18657 0.7489 0.57568 0.0
N423 N 0.19933 0.76807 0.43359 0.0
N424 N 0.21524 0.77613 0.68127 0.0
C425 C 0.23688 0.80275 0.60251 0.0
C426 C 0.2283 0.7983 0.46793 0.0
C427 C 0.43545 0.28342 0.57111 0.0
C428 C 0.43952 0.26219 0.66247 0.0
C429 C 0.4317 0.27518 0.43868 0.0
C430 C 0.43179 0.24532 0.39262 0.0
H431 H 0.43493 0.30653 0.60218 0.0
H432 H 0.4283 0.29214 0.37224 0.0
S433 S 0.44394 0.18234 0.59076 0.0
N434 N 0.4452 0.21094 0.6963 0.0
N435 N 0.43775 0.19522 0.44845 0.0
C436 C 0.43642 0.22418 0.48268 0.0
C437 C 0.44034 0.23263 0.61733 0.0
loop_
_geom_bond_atom_site_label_1
_geom_bond_atom_site_label_2
_geom_bond_distance
_geom_bond_site_symmetry_2
_ccdc_geom_bond_type
Tb0 C2 2.809 1_556 S
Tb0 O20 2.484 1_556 S
Tb0 O21 2.440 . S
Tb0 O22 2.658 . S
Tb0 O23 2.409 . S
Tb0 O24 2.378 . S
Tb0 O28 2.325 1_556 S
Tb0 O31 2.341 . S
Tb1 C11 2.809 1_554 S
Tb1 O22 2.325 1_554 S
Tb1 O25 2.341 . S
Tb1 O26 2.484 1_554 S
Tb1 O27 2.440 . S
Tb1 O28 2.658 . S
Tb1 O29 2.409 . S
Tb1 O30 2.378 . S
C2 Tb0 2.809 1_554 S
C2 C3 1.514 . S
C2 O20 1.248 . S
C2 O21 1.266 1_554 S
C3 C2 1.514 . S
C3 C4 1.359 . S
C3 C8 1.348 1_554 S
C4 C3 1.359 . S
C4 C5 1.380 . S
C4 H32 0.929 . S
C5 C4 1.380 . S
C5 C6 1.347 . S
C5 H33 0.931 . S
C6 C5 1.347 . S
C6 C7 1.369 1_554 S
C7 C6 1.369 1_556 S
C7 C8 1.408 . S
C7 H34 0.930 . S
C8 C3 1.348 1_556 S
C8 C7 1.408 . S
C8 H35 0.930 . S
C9 O22 1.281 . S
C9 O23 1.254 . S
C10 O24 1.236 . S
C10 O25 1.266 1_556 S
C11 Tb1 2.809 1_556 S
C11 C12 1.514 . S
C11 O26 1.248 . S
C11 O27 1.266 1_556 S
C12 C11 1.514 . S
C12 C13 1.359 . S
C12 C17 1.348 1_556 S
C13 C12 1.359 . S
C13 C14 1.380 . S
C13 H36 0.929 . S
C14 C13 1.380 . S
C14 C15 1.347 . S
C14 H37 0.931 . S
C15 C14 1.347 . S
C15 C16 1.369 1_556 S
C16 C15 1.369 1_554 S
C16 C17 1.408 . S
C16 H38 0.930 . S
C17 C12 1.348 1_554 S
C17 C16 1.408 . S
C17 H39 0.930 . S
C18 O28 1.281 . S
C18 O29 1.254 . S
C19 O30 1.236 . S
C19 O31 1.266 1_554 S
O20 Tb0 2.484 1_554 S
O20 C2 1.248 . S
O21 Tb0 2.440 . S
O21 C2 1.266 1_556 S
O22 Tb0 2.658 . S
O22 Tb1 2.325 1_556 S
O22 C9 1.281 . S
O23 Tb0 2.409 . S
O23 C9 1.254 . S
O24 Tb0 2.378 . S
O24 C10 1.236 . S
O25 Tb1 2.341 . S
O25 C10 1.266 1_554 S
O26 Tb1 2.484 1_556 S
O26 C11 1.248 . S
O27 Tb1 2.440 . S
O27 C11 1.266 1_554 S
O28 Tb0 2.325 1_554 S
O28 Tb1 2.658 . S
O28 C18 1.281 . S
O29 Tb1 2.409 . S
O29 C18 1.254 . S
O30 Tb1 2.378 . S
O30 C19 1.236 . S
O31 Tb0 2.341 . S
O31 C19 1.266 1_556 S
H32 C4 0.929 . S
H33 C5 0.931 . S
H34 C7 0.930 . S
H35 C8 0.930 . S
H36 C13 0.929 . S
H37 C14 0.931 . S
H38 C16 0.930 . S
H39 C17 0.930 . S
Tb40 C42 2.809 1_556 S
Tb40 O60 2.484 1_556 S
Tb40 O61 2.440 . S
Tb40 O62 2.658 . S
Tb40 O63 2.409 . S
Tb40 O64 2.378 . S
Tb40 O68 2.325 1_556 S
Tb40 O71 2.341 . S
Tb41 C51 2.809 1_554 S
Tb41 O62 2.325 1_554 S
Tb41 O65 2.341 . S
Tb41 O66 2.484 1_554 S
Tb41 O67 2.440 . S
Tb41 O68 2.658 . S
Tb41 O69 2.409 . S
Tb41 O70 2.378 . S
C42 Tb40 2.809 1_554 S
C42 C43 1.514 . S
C42 O60 1.248 . S
C42 O61 1.266 1_554 S
C43 C42 1.514 . S
C43 C44 1.359 . S
C43 C48 1.348 1_554 S
C44 C43 1.359 . S
C44 C45 1.380 . S
C44 H72 0.929 . S
C45 C44 1.380 . S
C45 C46 1.347 . S
C45 H73 0.931 . S
C46 C45 1.347 . S
C46 C47 1.369 1_554 S
C47 C46 1.369 1_556 S
C47 C48 1.408 . S
C47 H74 0.930 . S
C48 C43 1.348 1_556 S
C48 C47 1.408 . S
C48 H75 0.930 . S
C49 O62 1.281 . S
C49 O63 1.254 . S
C50 O64 1.236 . S
C50 O65 1.266 1_556 S
C51 Tb41 2.809 1_556 S
C51 C52 1.514 . S
C51 O66 1.248 . S
C51 O67 1.266 1_556 S
C52 C51 1.514 . S
C52 C53 1.359 . S
C52 C57 1.348 1_556 S
C53 C52 1.359 . S
C53 C54 1.380 . S
C53 H76 0.929 . S
C54 C53 1.380 . S
C54 C55 1.347 . S
C54 H77 0.931 . S
C55 C54 1.347 . S
C55 C56 1.369 1_556 S
C56 C55 1.369 1_554 S
C56 C57 1.408 . S
C56 H78 0.930 . S
C57 C52 1.348 1_554 S
C57 C56 1.408 . S
C57 H79 0.930 . S
C58 O68 1.281 . S
C58 O69 1.254 . S
C59 O70 1.236 . S
C59 O71 1.266 1_554 S
O60 Tb40 2.484 1_554 S
O60 C42 1.248 . S
O61 Tb40 2.440 . S
O61 C42 1.266 1_556 S
O62 Tb40 2.658 . S
O62 Tb41 2.325 1_556 S
O62 C49 1.281 . S
O63 Tb40 2.409 . S
O63 C49 1.254 . S
O64 Tb40 2.378 . S
O64 C50 1.236 . S
O65 Tb41 2.341 . S
O65 C50 1.266 1_554 S
O66 Tb41 2.484 1_556 S
O66 C51 1.248 . S
O67 Tb41 2.440 . S
O67 C51 1.266 1_554 S
O68 Tb40 2.325 1_554 S
O68 Tb41 2.658 . S
O68 C58 1.281 . S
O69 Tb41 2.409 . S
O69 C58 1.254 . S
O70 Tb41 2.378 . S
O70 C59 1.236 . S
O71 Tb40 2.341 . S
O71 C59 1.266 1_556 S
H72 C44 0.929 . S
H73 C45 0.931 . S
H74 C47 0.930 . S
H75 C48 0.930 . S
H76 C53 0.929 . S
H77 C54 0.931 . S
H78 C56 0.930 . S
H79 C57 0.930 . S
Tb80 C82 2.809 1_556 S
Tb80 O100 2.484 1_556 S
Tb80 O101 2.440 . S
Tb80 O102 2.658 . S
Tb80 O103 2.409 . S
Tb80 O104 2.378 . S
Tb80 O108 2.325 1_556 S
Tb80 O111 2.341 . S
Tb81 C91 2.809 1_554 S
Tb81 O102 2.325 1_554 S
Tb81 O105 2.341 . S
Tb81 O106 2.484 1_554 S
Tb81 O107 2.440 . S
Tb81 O108 2.658 . S
Tb81 O109 2.409 . S
Tb81 O110 2.378 . S
C82 Tb80 2.809 1_554 S
C82 C83 1.514 . S
C82 O100 1.248 . S
C82 O101 1.266 1_554 S
C83 C82 1.514 . S
C83 C84 1.359 . S
C83 C88 1.348 1_554 S
C84 C83 1.359 . S
C84 C85 1.380 . S
C84 H112 0.929 . S
C85 C84 1.380 . S
C85 C86 1.347 . S
C85 H113 0.931 . S
C86 C85 1.347 . S
C86 C87 1.369 1_554 S
C87 C86 1.369 1_556 S
C87 C88 1.408 . S
C87 H114 0.930 . S
C88 C83 1.348 1_556 S
C88 C87 1.408 . S
C88 H115 0.930 . S
C89 O102 1.281 . S
C89 O103 1.254 . S
C90 O104 1.236 . S
C90 O105 1.266 1_556 S
C91 Tb81 2.809 1_556 S
C91 C92 1.514 . S
C91 O106 1.248 . S
C91 O107 1.266 1_556 S
C92 C91 1.514 . S
C92 C93 1.359 . S
C92 C97 1.348 1_556 S
C93 C92 1.359 . S
C93 C94 1.380 . S
C93 H116 0.929 . S
C94 C93 1.380 . S
C94 C95 1.347 . S
C94 H117 0.931 . S
C95 C94 1.347 . S
C95 C96 1.369 1_556 S
C96 C95 1.369 1_554 S
C96 C97 1.408 . S
C96 H118 0.930 . S
C97 C92 1.348 1_554 S
C97 C96 1.408 . S
C97 H119 0.930 . S
C98 O108 1.281 . S
C98 O109 1.254 . S
C99 O110 1.236 . S
C99 O111 1.266 1_554 S
O100 Tb80 2.484 1_554 S
O100 C82 1.248 . S
O101 Tb80 2.440 . S
O101 C82 1.266 1_556 S
O102 Tb80 2.658 . S
O102 Tb81 2.325 1_556 S
O102 C89 1.281 . S
O103 Tb80 2.409 . S
O103 C89 1.254 . S
O104 Tb80 2.378 . S
O104 C90 1.236 . S
O105 Tb81 2.341 . S
O105 C90 1.266 1_554 S
O106 Tb81 2.484 1_556 S
O106 C91 1.248 . S
O107 Tb81 2.440 . S
O107 C91 1.266 1_554 S
O108 Tb80 2.325 1_554 S
O108 Tb81 2.658 . S
O108 C98 1.281 . S
O109 Tb81 2.409 . S
O109 C98 1.254 . S
O110 Tb81 2.378 . S
O110 C99 1.236 . S
O111 Tb80 2.341 . S
O111 C99 1.266 1_556 S
H112 C84 0.929 . S
H113 C85 0.931 . S
H114 C87 0.930 . S
H115 C88 0.930 . S
H116 C93 0.929 . S
H117 C94 0.931 . S
H118 C96 0.930 . S
H119 C97 0.930 . S
Tb120 C122 2.809 1_556 S
Tb120 O140 2.484 1_556 S
Tb120 O141 2.440 . S
Tb120 O142 2.658 . S
Tb120 O143 2.409 . S
Tb120 O144 2.378 . S
Tb120 O148 2.325 1_556 S
Tb120 O151 2.341 . S
Tb121 C131 2.809 1_554 S
Tb121 O142 2.325 1_554 S
Tb121 O145 2.341 . S
Tb121 O146 2.484 1_554 S
Tb121 O147 2.440 . S
Tb121 O148 2.658 . S
Tb121 O149 2.409 . S
Tb121 O150 2.378 . S
C122 Tb120 2.809 1_554 S
C122 C123 1.514 . S
C122 O140 1.248 . S
C122 O141 1.266 1_554 S
C123 C122 1.514 . S
C123 C124 1.359 . S
C123 C128 1.348 1_554 S
C124 C123 1.359 . S
C124 C125 1.380 . S
C124 H152 0.929 . S
C125 C124 1.380 . S
C125 C126 1.347 . S
C125 H153 0.931 . S
C126 C125 1.347 . S
C126 C127 1.369 1_554 S
C127 C126 1.369 1_556 S
C127 C128 1.408 . S
C127 H154 0.930 . S
C128 C123 1.348 1_556 S
C128 C127 1.408 . S
C128 H155 0.930 . S
C129 O142 1.281 . S
C129 O143 1.254 . S
C130 O144 1.236 . S
C130 O145 1.266 1_556 S
C131 Tb121 2.809 1_556 S
C131 C132 1.514 . S
C131 O146 1.248 . S
C131 O147 1.266 1_556 S
C132 C131 1.514 . S
C132 C133 1.359 . S
C132 C137 1.348 1_556 S
C133 C132 1.359 . S
C133 C134 1.380 . S
C133 H156 0.929 . S
C134 C133 1.380 . S
C134 C135 1.347 . S
C134 H157 0.931 . S
C135 C134 1.347 . S
C135 C136 1.369 1_556 S
C136 C135 1.369 1_554 S
C136 C137 1.408 . S
C136 H158 0.930 . S
C137 C132 1.348 1_554 S
C137 C136 1.408 . S
C137 H159 0.930 . S
C138 O148 1.281 . S
C138 O149 1.254 . S
C139 O150 1.236 . S
C139 O151 1.266 1_554 S
O140 Tb120 2.484 1_554 S
O140 C122 1.248 . S
O141 Tb120 2.440 . S
O141 C122 1.266 1_556 S
O142 Tb120 2.658 . S
O142 Tb121 2.325 1_556 S
O142 C129 1.281 . S
O143 Tb120 2.409 . S
O143 C129 1.254 . S
O144 Tb120 2.378 . S
O144 C130 1.236 . S
O145 Tb121 2.341 . S
O145 C130 1.266 1_554 S
O146 Tb121 2.484 1_556 S
O146 C131 1.248 . S
O147 Tb121 2.440 . S
O147 C131 1.266 1_554 S
O148 Tb120 2.325 1_554 S
O148 Tb121 2.658 . S
O148 C138 1.281 . S
O149 Tb121 2.409 . S
O149 C138 1.254 . S
O150 Tb121 2.378 . S
O150 C139 1.236 . S
O151 Tb120 2.341 . S
O151 C139 1.266 1_556 S
H152 C124 0.929 . S
H153 C125 0.931 . S
H154 C127 0.930 . S
H155 C128 0.930 . S
H156 C133 0.929 . S
H157 C134 0.931 . S
H158 C136 0.930 . S
H159 C137 0.930 . S
Tb160 C162 2.809 1_556 S
Tb160 O180 2.484 1_556 S
Tb160 O181 2.440 . S
Tb160 O182 2.658 . S
Tb160 O183 2.409 . S
Tb160 O184 2.378 . S
Tb160 O188 2.325 1_556 S
Tb160 O191 2.341 . S
Tb161 C171 2.809 1_554 S
Tb161 O182 2.325 1_554 S
Tb161 O185 2.341 . S
Tb161 O186 2.484 1_554 S
Tb161 O187 2.440 . S
Tb161 O188 2.658 . S
Tb161 O189 2.409 . S
Tb161 O190 2.378 . S
C162 Tb160 2.809 1_554 S
C162 C163 1.514 . S
C162 O180 1.248 . S
C162 O181 1.266 1_554 S
C163 C162 1.514 . S
C163 C164 1.359 . S
C163 C168 1.348 1_554 S
C164 C163 1.359 . S
C164 C165 1.380 . S
C164 H192 0.929 . S
C165 C164 1.380 . S
C165 C166 1.347 . S
C165 H193 0.931 . S
C166 C165 1.347 . S
C166 C167 1.369 1_554 S
C167 C166 1.369 1_556 S
C167 C168 1.408 . S
C167 H194 0.930 . S
C168 C163 1.348 1_556 S
C168 C167 1.408 . S
C168 H195 0.930 . S
C169 O182 1.281 . S
C169 O183 1.254 . S
C170 O184 1.236 . S
C170 O185 1.266 1_556 S
C171 Tb161 2.809 1_556 S
C171 C172 1.514 . S
C171 O186 1.248 . S
C171 O187 1.266 1_556 S
C172 C171 1.514 . S
C172 C173 1.359 . S
C172 C177 1.348 1_556 S
C173 C172 1.359 . S
C173 C174 1.380 . S
C173 H196 0.929 . S
C174 C173 1.380 . S
C174 C175 1.347 . S
C174 H197 0.931 . S
C175 C174 1.347 . S
C175 C176 1.369 1_556 S
C176 C175 1.369 1_554 S
C176 C177 1.408 . S
C176 H198 0.930 . S
C177 C172 1.348 1_554 S
C177 C176 1.408 . S
C177 H199 0.930 . S
C178 O188 1.281 . S
C178 O189 1.254 . S
C179 O190 1.236 . S
C179 O191 1.266 1_554 S
O180 Tb160 2.484 1_554 S
O180 C162 1.248 . S
O181 Tb160 2.440 . S
O181 C162 1.266 1_556 S
O182 Tb160 2.658 . S
O182 Tb161 2.325 1_556 S
O182 C169 1.281 . S
O183 Tb160 2.409 . S
O183 C169 1.254 . S
O184 Tb160 2.378 . S
O184 C170 1.236 . S
O185 Tb161 2.341 . S
O185 C170 1.266 1_554 S
O186 Tb161 2.484 1_556 S
O186 C171 1.248 . S
O187 Tb161 2.440 . S
O187 C171 1.266 1_554 S
O188 Tb160 2.325 1_554 S
O188 Tb161 2.658 . S
O188 C178 1.281 . S
O189 Tb161 2.409 . S
O189 C178 1.254 . S
O190 Tb161 2.378 . S
O190 C179 1.236 . S
O191 Tb160 2.341 . S
O191 C179 1.266 1_556 S
H192 C164 0.929 . S
H193 C165 0.931 . S
H194 C167 0.930 . S
H195 C168 0.930 . S
H196 C173 0.929 . S
H197 C174 0.931 . S
H198 C176 0.930 . S
H199 C177 0.930 . S
Tb200 C202 2.809 1_556 S
Tb200 O220 2.484 1_556 S
Tb200 O221 2.440 . S
Tb200 O222 2.658 . S
Tb200 O223 2.409 . S
Tb200 O224 2.378 . S
Tb200 O228 2.325 1_556 S
Tb200 O231 2.341 . S
Tb201 C211 2.809 1_554 S
Tb201 O222 2.325 1_554 S
Tb201 O225 2.341 . S
Tb201 O226 2.484 1_554 S
Tb201 O227 2.440 . S
Tb201 O228 2.658 . S
Tb201 O229 2.409 . S
Tb201 O230 2.378 . S
C202 Tb200 2.809 1_554 S
C202 C203 1.514 . S
C202 O220 1.248 . S
C202 O221 1.266 1_554 S
C203 C202 1.514 . S
C203 C204 1.359 . S
C203 C208 1.348 1_554 S
C204 C203 1.359 . S
C204 C205 1.380 . S
C204 H232 0.929 . S
C205 C204 1.380 . S
C205 C206 1.347 . S
C205 H233 0.931 . S
C206 C205 1.347 . S
C206 C207 1.369 1_554 S
C207 C206 1.369 1_556 S
C207 C208 1.408 . S
C207 H234 0.930 . S
C208 C203 1.348 1_556 S
C208 C207 1.408 . S
C208 H235 0.930 . S
C209 O222 1.281 . S
C209 O223 1.254 . S
C210 O224 1.236 . S
C210 O225 1.266 1_556 S
C211 Tb201 2.809 1_556 S
C211 C212 1.514 . S
C211 O226 1.248 . S
C211 O227 1.266 1_556 S
C212 C211 1.514 . S
C212 C213 1.359 . S
C212 C217 1.348 1_556 S
C213 C212 1.359 . S
C213 C214 1.380 . S
C213 H236 0.929 . S
C214 C213 1.380 . S
C214 C215 1.347 . S
C214 H237 0.931 . S
C215 C214 1.347 . S
C215 C216 1.369 1_556 S
C216 C215 1.369 1_554 S
C216 C217 1.408 . S
C216 H238 0.930 . S
C217 C212 1.348 1_554 S
C217 C216 1.408 . S
C217 H239 0.930 . S
C218 O228 1.281 . S
C218 O229 1.254 . S
C219 O230 1.236 . S
C219 O231 1.266 1_554 S
O220 Tb200 2.484 1_554 S
O220 C202 1.248 . S
O221 Tb200 2.440 . S
O221 C202 1.266 1_556 S
O222 Tb200 2.658 . S
O222 Tb201 2.325 1_556 S
O222 C209 1.281 . S
O223 Tb200 2.409 . S
O223 C209 1.254 . S
O224 Tb200 2.378 . S
O224 C210 1.236 . S
O225 Tb201 2.341 . S
O225 C210 1.266 1_554 S
O226 Tb201 2.484 1_556 S
O226 C211 1.248 . S
O227 Tb201 2.440 . S
O227 C211 1.266 1_554 S
O228 Tb200 2.325 1_554 S
O228 Tb201 2.658 . S
O228 C218 1.281 . S
O229 Tb201 2.409 . S
O229 C218 1.254 . S
O230 Tb201 2.378 . S
O230 C219 1.236 . S
O231 Tb200 2.341 . S
O231 C219 1.266 1_556 S
H232 C204 0.929 . S
H233 C205 0.931 . S
H234 C207 0.930 . S
H235 C208 0.930 . S
H236 C213 0.929 . S
H237 C214 0.931 . S
H238 C216 0.930 . S
H239 C217 0.930 . S
C240 C241 1.369 . S
C240 C242 1.419 . S
C240 H244 0.930 . S
C241 C240 1.369 . S
C241 C250 1.429 1_556 S
C242 C240 1.419 . S
C242 C243 1.363 . S
C242 H245 0.929 . S
C243 C242 1.363 . S
C243 C249 1.428 1_556 S
H244 C240 0.930 . S
H245 C242 0.929 . S
S246 N247 1.613 . S
S246 N248 1.610 . S
N247 S246 1.613 . S
N247 C250 1.350 . S
N248 S246 1.610 . S
N248 C249 1.351 . S
C249 C243 1.428 1_554 S
C249 N248 1.351 . S
C249 C250 1.434 . S
C250 C241 1.429 1_554 S
C250 N247 1.350 . S
C250 C249 1.434 . S
C251 C252 1.369 . S
C251 C253 1.419 . S
C251 H255 0.930 . S
C252 C251 1.369 . S
C252 C261 1.429 1_556 S
C253 C251 1.419 . S
C253 C254 1.363 . S
C253 H256 0.929 . S
C254 C253 1.363 . S
C254 C260 1.428 1_556 S
H255 C251 0.930 . S
H256 C253 0.929 . S
S257 N258 1.613 . S
S257 N259 1.610 . S
N258 S257 1.613 . S
N258 C261 1.350 . S
N259 S257 1.610 . S
N259 C260 1.351 . S
C260 C254 1.428 1_554 S
C260 N259 1.351 . S
C260 C261 1.434 . S
C261 C252 1.429 1_554 S
C261 N258 1.350 . S
C261 C260 1.434 . S
C262 C263 1.369 . S
C262 C264 1.419 . S
C262 H266 0.930 . S
C263 C262 1.369 . S
C263 C272 1.429 1_556 S
C264 C262 1.419 . S
C264 C265 1.363 . S
C264 H267 0.929 . S
C265 C264 1.363 . S
C265 C271 1.428 . S
H266 C262 0.930 . S
H267 C264 0.929 . S
S268 N269 1.613 . S
S268 N270 1.610 . S
N269 S268 1.613 . S
N269 C272 1.350 . S
N270 S268 1.610 . S
N270 C271 1.351 1_554 S
C271 C265 1.428 . S
C271 N270 1.351 1_556 S
C271 C272 1.434 1_556 S
C272 C263 1.429 1_554 S
C272 N269 1.350 . S
C272 C271 1.434 1_554 S
C273 C274 1.369 1_554 S
C273 C275 1.419 . S
C273 H277 0.930 . S
C274 C273 1.369 1_556 S
C274 C283 1.429 . S
C275 C273 1.419 . S
C275 C276 1.363 1_554 S
C275 H278 0.929 . S
C276 C275 1.363 1_556 S
C276 C282 1.428 . S
H277 C273 0.930 . S
H278 C275 0.929 . S
S279 N280 1.613 . S
S279 N281 1.610 . S
N280 S279 1.613 . S
N280 C283 1.350 . S
N281 S279 1.610 . S
N281 C282 1.351 . S
C282 C276 1.428 . S
C282 N281 1.351 . S
C282 C283 1.434 . S
C283 C274 1.429 . S
C283 N280 1.350 . S
C283 C282 1.434 . S
C284 C285 1.369 . S
C284 C286 1.419 . S
C284 H288 0.930 . S
C285 C284 1.369 . S
C285 C294 1.429 1_556 S
C286 C284 1.419 . S
C286 C287 1.363 . S
C286 H289 0.929 . S
C287 C286 1.363 . S
C287 C293 1.428 1_556 S
H288 C284 0.930 . S
H289 C286 0.929 . S
S290 N291 1.613 . S
S290 N292 1.610 . S
N291 S290 1.613 . S
N291 C294 1.350 . S
N292 S290 1.610 . S
N292 C293 1.351 . S
C293 C287 1.428 1_554 S
C293 N292 1.351 . S
C293 C294 1.434 . S
C294 C285 1.429 1_554 S
C294 N291 1.350 . S
C294 C293 1.434 . S
C295 C296 1.369 . S
C295 C297 1.419 . S
C295 H299 0.930 . S
C296 C295 1.369 . S
C296 C305 1.429 1_556 S
C297 C295 1.419 . S
C297 C298 1.363 . S
C297 H300 0.929 . S
C298 C297 1.363 . S
C298 C304 1.428 1_556 S
H299 C295 0.930 . S
H300 C297 0.929 . S
S301 N302 1.613 . S
S301 N303 1.610 . S
N302 S301 1.613 . S
N302 C305 1.350 . S
N303 S301 1.610 . S
N303 C304 1.351 . S
C304 C298 1.428 1_554 S
C304 N303 1.351 . S
C304 C305 1.434 . S
C305 C296 1.429 1_554 S
C305 N302 1.350 . S
C305 C304 1.434 . S
C306 C307 1.369 . S
C306 C308 1.419 . S
C306 H310 0.930 . S
C307 C306 1.369 . S
C307 C316 1.429 1_554 S
C308 C306 1.419 . S
C308 C309 1.363 . S
C308 H311 0.929 . S
C309 C308 1.363 . S
C309 C315 1.428 1_554 S
H310 C306 0.930 . S
H311 C308 0.929 . S
S312 N313 1.613 . S
S312 N314 1.610 . S
N313 S312 1.613 . S
N313 C316 1.350 . S
N314 S312 1.610 . S
N314 C315 1.351 . S
C315 C309 1.428 1_556 S
C315 N314 1.351 . S
C315 C316 1.434 . S
C316 C307 1.429 1_556 S
C316 N313 1.350 . S
C316 C315 1.434 . S
C317 C318 1.369 1_556 S
C317 C319 1.419 . S
C317 H321 0.930 . S
C318 C317 1.369 1_554 S
C318 C327 1.429 . S
C319 C317 1.419 . S
C319 C320 1.363 1_556 S
C319 H322 0.929 . S
C320 C319 1.363 1_554 S
C320 C326 1.428 . S
H321 C317 0.930 . S
H322 C319 0.929 . S
S323 N324 1.613 . S
S323 N325 1.610 . S
N324 S323 1.613 . S
N324 C327 1.350 . S
N325 S323 1.610 . S
N325 C326 1.351 . S
C326 C320 1.428 . S
C326 N325 1.351 . S
C326 C327 1.434 . S
C327 C318 1.429 . S
C327 N324 1.350 . S
C327 C326 1.434 . S
C328 C329 1.369 1_556 S
C328 C330 1.419 . S
C328 H332 0.930 . S
C329 C328 1.369 1_554 S
C329 C338 1.429 . S
C330 C328 1.419 . S
C330 C331 1.363 1_556 S
C330 H333 0.929 . S
C331 C330 1.363 1_554 S
C331 C337 1.428 . S
H332 C328 0.930 . S
H333 C330 0.929 . S
S334 N335 1.613 . S
S334 N336 1.610 . S
N335 S334 1.613 . S
N335 C338 1.350 . S
N336 S334 1.610 . S
N336 C337 1.351 . S
C337 C331 1.428 . S
C337 N336 1.351 . S
C337 C338 1.434 . S
C338 C329 1.429 . S
C338 N335 1.350 . S
C338 C337 1.434 . S
C339 C340 1.369 . S
C339 C341 1.419 . S
C339 H343 0.930 . S
C340 C339 1.369 . S
C340 C349 1.429 1_554 S
C341 C339 1.419 . S
C341 C342 1.363 . S
C341 H344 0.929 . S
C342 C341 1.363 . S
C342 C348 1.428 1_554 S
H343 C339 0.930 . S
H344 C341 0.929 . S
S345 N346 1.613 . S
S345 N347 1.610 . S
N346 S345 1.613 . S
N346 C349 1.350 . S
N347 S345 1.610 . S
N347 C348 1.351 . S
C348 C342 1.428 1_556 S
C348 N347 1.351 . S
C348 C349 1.434 . S
C349 C340 1.429 1_556 S
C349 N346 1.350 . S
C349 C348 1.434 . S
C350 C351 1.369 . S
C350 C352 1.419 . S
C350 H354 0.930 . S
C351 C350 1.369 . S
C351 C360 1.429 1_554 S
C352 C350 1.419 . S
C352 C353 1.363 . S
C352 H355 0.929 . S
C353 C352 1.363 . S
C353 C359 1.428 1_554 S
H354 C350 0.930 . S
H355 C352 0.929 . S
S356 N357 1.613 . S
S356 N358 1.610 . S
N357 S356 1.613 . S
N357 C360 1.350 . S
N358 S356 1.610 . S
N358 C359 1.351 . S
C359 C353 1.428 1_556 S
C359 N358 1.351 . S
C359 C360 1.434 . S
C360 C351 1.429 1_556 S
C360 N357 1.350 . S
C360 C359 1.434 . S
C361 C362 1.369 1_556 S
C361 C363 1.419 . S
C361 H365 0.930 . S
C362 C361 1.369 1_554 S
C362 C371 1.429 . S
C363 C361 1.419 . S
C363 C364 1.363 1_556 S
C363 H366 0.929 . S
C364 C363 1.363 1_554 S
C364 C370 1.428 . S
H365 C361 0.930 . S
H366 C363 0.929 . S
S367 N368 1.613 . S
S367 N369 1.610 . S
N368 S367 1.613 . S
N368 C371 1.350 . S
N369 S367 1.610 . S
N369 C370 1.351 . S
C370 C364 1.428 . S
C370 N369 1.351 . S
C370 C371 1.434 . S
C371 C362 1.429 . S
C371 N368 1.350 . S
C371 C370 1.434 . S
C372 C373 1.369 . S
C372 C374 1.419 . S
C372 H376 0.930 . S
C373 C372 1.369 . S
C373 C382 1.429 . S
C374 C372 1.419 . S
C374 C375 1.363 . S
C374 H377 0.929 . S
C375 C374 1.363 . S
C375 C381 1.428 . S
H376 C372 0.930 . S
H377 C374 0.929 . S
S378 N379 1.613 . S
S378 N380 1.610 . S
N379 S378 1.613 . S
N379 C382 1.350 . S
N380 S378 1.610 . S
N380 C381 1.351 . S
C381 C375 1.428 . S
C381 N380 1.351 . S
C381 C382 1.434 . S
C382 C373 1.429 . S
C382 N379 1.350 . S
C382 C381 1.434 . S
C383 C384 1.369 . S
C383 C385 1.419 . S
C383 H387 0.930 . S
C384 C383 1.369 . S
C384 C393 1.429 . S
C385 C383 1.419 . S
C385 C386 1.363 . S
C385 H388 0.929 . S
C386 C385 1.363 . S
C386 C392 1.428 . S
H387 C383 0.930 . S
H388 C385 0.929 . S
S389 N390 1.613 . S
S389 N391 1.610 . S
N390 S389 1.613 . S
N390 C393 1.350 . S
N391 S389 1.610 . S
N391 C392 1.351 . S
C392 C386 1.428 . S
C392 N391 1.351 . S
C392 C393 1.434 . S
C393 C384 1.429 . S
C393 N390 1.350 . S
C393 C392 1.434 . S
C394 C395 1.369 . S
C394 C396 1.419 . S
C394 H398 0.930 . S
C395 C394 1.369 . S
C395 C404 1.429 . S
C396 C394 1.419 . S
C396 C397 1.363 . S
C396 H399 0.929 . S
C397 C396 1.363 . S
C397 C403 1.428 . S
H398 C394 0.930 . S
H399 C396 0.929 . S
S400 N401 1.613 . S
S400 N402 1.610 . S
N401 S400 1.613 . S
N401 C404 1.350 . S
N402 S400 1.610 . S
N402 C403 1.351 . S
C403 C397 1.428 . S
C403 N402 1.351 . S
C403 C404 1.434 . S
C404 C395 1.429 . S
C404 N401 1.350 . S
C404 C403 1.434 . S
C405 C406 1.369 . S
C405 C407 1.419 . S
C405 H409 0.930 . S
C406 C405 1.369 . S
C406 C415 1.429 . S
C407 C405 1.419 . S
C407 C408 1.363 . S
C407 H410 0.929 . S
C408 C407 1.363 . S
C408 C414 1.428 . S
H409 C405 0.930 . S
H410 C407 0.929 . S
S411 N412 1.613 . S
S411 N413 1.610 . S
N412 S411 1.613 . S
N412 C415 1.350 . S
N413 S411 1.610 . S
N413 C414 1.351 . S
C414 C408 1.428 . S
C414 N413 1.351 . S
C414 C415 1.434 . S
C415 C406 1.429 . S
C415 N412 1.350 . S
C415 C414 1.434 . S
C416 C417 1.369 . S
C416 C418 1.419 . S
C416 H420 0.930 . S
C417 C416 1.369 . S
C417 C426 1.429 . S
C418 C416 1.419 . S
C418 C419 1.363 . S
C418 H421 0.929 . S
C419 C418 1.363 . S
C419 C425 1.428 . S
H420 C416 0.930 . S
H421 C418 0.929 . S
S422 N423 1.613 . S
S422 N424 1.610 . S
N423 S422 1.613 . S
N423 C426 1.350 . S
N424 S422 1.610 . S
N424 C425 1.351 . S
C425 C419 1.428 . S
C425 N424 1.351 . S
C425 C426 1.434 . S
C426 C417 1.429 . S
C426 N423 1.350 . S
C426 C425 1.434 . S
C427 C428 1.369 . S
C427 C429 1.419 . S
C427 H431 0.930 . S
C428 C427 1.369 . S
C428 C437 1.429 . S
C429 C427 1.419 . S
C429 C430 1.363 . S
C429 H432 0.929 . S
C430 C429 1.363 . S
C430 C436 1.428 . S
H431 C427 0.930 . S
H432 C429 0.929 . S
S433 N434 1.613 . S
S433 N435 1.610 . S
N434 S433 1.613 . S
N434 C437 1.350 . S
N435 S433 1.610 . S
N435 C436 1.351 . S
C436 C430 1.428 . S
C436 N435 1.351 . S
C436 C437 1.434 . S
C437 C428 1.429 . S
C437 N434 1.350 . S
C437 C436 1.434 . S
C241 C219 2.293 1_556 S
C243 C15 1.934 . S
C252 C19 2.293 1_556 S
C254 C55 1.935 1_455 S
C263 C59 2.293 1_556 S
C265 C95 1.932 1_545 S
C274 C135 1.933 . S
C276 C99 2.294 1_556 S
C285 C175 1.933 1_655 S
C287 C139 2.293 1_556 S
C296 C179 2.294 1_556 S
C298 C215 1.939 1_565 S
C307 C170 1.878 1_554 S
C309 C6 1.866 . S
C318 C210 1.879 1_554 S
C320 C46 1.867 . S
C329 C86 1.868 . S
C331 C10 1.879 1_554 S
C340 C126 1.867 . S
C342 C50 1.878 1_554 S
C351 C166 1.865 . S
C353 C90 1.877 1_554 S
C362 C130 1.878 1_554 S
C364 C206 1.867 . S
C373 C9 1.439 . S
C375 C18 1.431 . S
C384 C49 1.431 . S
C386 C58 1.437 . S
C395 C89 1.439 . S
C397 C98 1.431 . S
C406 C129 1.437 . S
C408 C138 1.432 . S
C417 C178 1.429 . S
C419 C169 1.439 . S
C428 C209 1.438 . S
C430 C218 1.432 . S
