# Generated by pormake.
# Topology zfl, (5)-cn, num edge types: 1
# Building blocks:
#     Node 0, Type 0, BuildingBlock: BEQFEK_clean_sbu_0, # of connection points: 5
#     Node 1, Type 0, BuildingBlock: BEQFEK_clean_sbu_0, # of connection points: 5
#     Node 2, Type 0, BuildingBlock: BEQFEK_clean_sbu_0, # of connection points: 5
#     Node 3, Type 0, BuildingBlock: BEQFEK_clean_sbu_0, # of connection points: 5
#     Node 4, Type 0, BuildingBlock: BEQFEK_clean_sbu_0, # of connection points: 5
#     Node 5, Type 0, BuildingBlock: BEQFEK_clean_sbu_0, # of connection points: 5
#     Node 6, Type 0, BuildingBlock: BEQFEK_clean_sbu_0, # of connection points: 5
#     Node 7, Type 0, BuildingBlock: BEQFEK_clean_sbu_0, # of connection points: 5
#     Node 8, Type 0, BuildingBlock: BEQFEK_clean_sbu_0, # of connection points: 5
#     Node 9, Type 0, BuildingBlock: BEQFEK_clean_sbu_0, # of connection points: 5
#     Node 10, Type 0, BuildingBlock: BEQFEK_clean_sbu_0, # of connection points: 5
#     Node 11, Type 0, BuildingBlock: BEQFEK_clean_sbu_0, # of connection points: 5
#     Node 12, Type 0, BuildingBlock: BEQFEK_clean_sbu_0, # of connection points: 5
#     Node 13, Type 0, BuildingBlock: BEQFEK_clean_sbu_0, # of connection points: 5
#     Node 14, Type 0, BuildingBlock: BEQFEK_clean_sbu_0, # of connection points: 5
#     Node 15, Type 0, BuildingBlock: BEQFEK_clean_sbu_0, # of connection points: 5
#     Edge 16, Type (0, 0), BuildingBlock: OJICUG_clean_linker_0, # of connection points: 2
#     Edge 17, Type (0, 0), BuildingBlock: OJICUG_clean_linker_0, # of connection points: 2
#     Edge 18, Type (0, 0), BuildingBlock: OJICUG_clean_linker_0, # of connection points: 2
#     Edge 19, Type (0, 0), BuildingBlock: OJICUG_clean_linker_0, # of connection points: 2
#     Edge 20, Type (0, 0), BuildingBlock: OJICUG_clean_linker_0, # of connection points: 2
#     Edge 21, Type (0, 0), BuildingBlock: OJICUG_clean_linker_0, # of connection points: 2
#     Edge 22, Type (0, 0), BuildingBlock: OJICUG_clean_linker_0, # of connection points: 2
#     Edge 23, Type (0, 0), BuildingBlock: OJICUG_clean_linker_0, # of connection points: 2
#     Edge 24, Type (0, 0), BuildingBlock: OJICUG_clean_linker_0, # of connection points: 2
#     Edge 25, Type (0, 0), BuildingBlock: OJICUG_clean_linker_0, # of connection points: 2
#     Edge 26, Type (0, 0), BuildingBlock: OJICUG_clean_linker_0, # of connection points: 2
#     Edge 27, Type (0, 0), BuildingBlock: OJICUG_clean_linker_0, # of connection points: 2
#     Edge 28, Type (0, 0), BuildingBlock: OJICUG_clean_linker_0, # of connection points: 2
#     Edge 29, Type (0, 0), BuildingBlock: OJICUG_clean_linker_0, # of connection points: 2
#     Edge 30, Type (0, 0), BuildingBlock: OJICUG_clean_linker_0, # of connection points: 2
#     Edge 31, Type (0, 0), BuildingBlock: OJICUG_clean_linker_0, # of connection points: 2
#     Edge 32, Type (0, 0), BuildingBlock: OJICUG_clean_linker_0, # of connection points: 2
#     Edge 33, Type (0, 0), BuildingBlock: OJICUG_clean_linker_0, # of connection points: 2
#     Edge 34, Type (0, 0), BuildingBlock: OJICUG_clean_linker_0, # of connection points: 2
#     Edge 35, Type (0, 0), BuildingBlock: OJICUG_clean_linker_0, # of connection points: 2
#     Edge 36, Type (0, 0), BuildingBlock: OJICUG_clean_linker_0, # of connection points: 2
#     Edge 37, Type (0, 0), BuildingBlock: OJICUG_clean_linker_0, # of connection points: 2
#     Edge 38, Type (0, 0), BuildingBlock: OJICUG_clean_linker_0, # of connection points: 2
#     Edge 39, Type (0, 0), BuildingBlock: OJICUG_clean_linker_0, # of connection points: 2
#     Edge 40, Type (0, 0), BuildingBlock: OJICUG_clean_linker_0, # of connection points: 2
#     Edge 41, Type (0, 0), BuildingBlock: OJICUG_clean_linker_0, # of connection points: 2
#     Edge 42, Type (0, 0), BuildingBlock: OJICUG_clean_linker_0, # of connection points: 2
#     Edge 43, Type (0, 0), BuildingBlock: OJICUG_clean_linker_0, # of connection points: 2
#     Edge 44, Type (0, 0), BuildingBlock: OJICUG_clean_linker_0, # of connection points: 2
#     Edge 45, Type (0, 0), BuildingBlock: OJICUG_clean_linker_0, # of connection points: 2
#     Edge 46, Type (0, 0), BuildingBlock: OJICUG_clean_linker_0, # of connection points: 2
#     Edge 47, Type (0, 0), BuildingBlock: OJICUG_clean_linker_0, # of connection points: 2
#     Edge 48, Type (0, 0), BuildingBlock: OJICUG_clean_linker_0, # of connection points: 2
#     Edge 49, Type (0, 0), BuildingBlock: OJICUG_clean_linker_0, # of connection points: 2
#     Edge 50, Type (0, 0), BuildingBlock: OJICUG_clean_linker_0, # of connection points: 2
#     Edge 51, Type (0, 0), BuildingBlock: OJICUG_clean_linker_0, # of connection points: 2
#     Edge 52, Type (0, 0), BuildingBlock: OJICUG_clean_linker_0, # of connection points: 2
#     Edge 53, Type (0, 0), BuildingBlock: OJICUG_clean_linker_0, # of connection points: 2
#     Edge 54, Type (0, 0), BuildingBlock: OJICUG_clean_linker_0, # of connection points: 2
#     Edge 55, Type (0, 0), BuildingBlock: OJICUG_clean_linker_0, # of connection points: 2
# Relax obj value: 0.172
# Max RMSD: 0.231
# Mean RMSD: 0.216
data_MOF--net-zfl--node1-BEQFEK_clean_sbu_0--edge1-OJICUG_clean_linker_0
_symmetry_space_group_name_H-M    P1
_symmetry_Int_Tables_number       1
_symmetry_cell_setting            triclinic
loop_
_symmetry_equiv_pos_as_xyz
'x, y, z'
_cell_length_a     20.388074
_cell_length_b     20.352079
_cell_length_c     59.372521
_cell_angle_alpha  90.272237
_cell_angle_beta   89.871366
_cell_angle_gamma 90.132123
loop_
_atom_site_label
_atom_site_type_symbol
_atom_site_fract_x
_atom_site_fract_y
_atom_site_fract_z
_atom_type_partial_charge
Co0 Co 0.57268 0.0267 0.18127 0.0
Co1 Co 0.58373 0.02199 0.12774 0.0
C2 C 0.4708 0.08489 0.14879 0.0
O3 O 0.4952 0.07369 0.16821 0.0
O4 O 0.49714 0.06195 0.13099 0.0
C5 C 0.53203 0.05488 0.22708 0.0
O6 O 0.52151 0.11362 0.21875 0.0
C7 C 0.56727 0.01976 0.07796 0.0
C8 C 0.65768 0.96926 0.06703 0.0
C9 C 0.59975 0.99575 0.05897 0.0
N10 N 0.60369 0.0066 0.09632 0.0
N11 N 0.65798 0.97702 0.08957 0.0
C12 C 0.50546 0.05919 0.07863 0.0
H13 H 0.51154 0.101 0.09048 0.0
H14 H 0.46468 0.02783 0.0848 0.0
H15 H 0.4929 0.079 0.06182 0.0
C16 C 0.59784 0.88477 0.17454 0.0
N17 N 0.59068 0.94588 0.16634 0.0
N18 N 0.58902 0.94294 0.14424 0.0
C19 C 0.59103 0.87954 0.13766 0.0
C20 C 0.59777 0.84 0.15666 0.0
C21 C 0.60486 0.87042 0.19911 0.0
H22 H 0.63501 0.90922 0.20727 0.0
H23 H 0.55569 0.87087 0.20717 0.0
H24 H 0.62819 0.82188 0.20182 0.0
O25 O 0.64543 0.08969 0.17717 0.0
O26 O 0.64618 0.08938 0.13965 0.0
H27 H 0.62204 0.84788 0.10492 0.0
H28 H 0.5461 0.81149 0.11422 0.0
C29 C 0.57561 0.85734 0.11415 0.0
H30 H 0.54738 0.89547 0.10514 0.0
H31 H 0.69485 0.96118 0.10042 0.0
O32 O 0.55488 0.01033 0.21417 0.0
C33 C 0.66631 0.11236 0.15849 0.0
Co34 Co 0.44972 0.57263 0.67423 0.0
Co35 Co 0.44638 0.61317 0.62276 0.0
C36 C 0.38577 0.48672 0.64139 0.0
O37 O 0.40548 0.49306 0.66164 0.0
O38 O 0.39962 0.52971 0.62667 0.0
C39 C 0.47552 0.50708 0.71719 0.0
O40 O 0.47791 0.45299 0.70505 0.0
C41 C 0.47459 0.57934 0.57552 0.0
C42 C 0.44348 0.66872 0.55767 0.0
C43 C 0.4666 0.60535 0.55395 0.0
N44 N 0.45646 0.62495 0.59084 0.0
N45 N 0.43852 0.67846 0.58004 0.0
C46 C 0.49626 0.51168 0.58181 0.0
H47 H 0.48969 0.50293 0.60005 0.0
H48 H 0.54932 0.50637 0.57808 0.0
H49 H 0.46859 0.47431 0.57199 0.0
C50 C 0.59435 0.58985 0.66425 0.0
N51 N 0.53032 0.59294 0.65854 0.0
N52 N 0.52642 0.61564 0.6379 0.0
C53 C 0.58639 0.63178 0.63037 0.0
C54 C 0.63239 0.61466 0.64654 0.0
C55 C 0.61845 0.55636 0.68502 0.0
H56 H 0.62447 0.59328 0.69868 0.0
H57 H 0.58264 0.51891 0.69052 0.0
H58 H 0.6661 0.53168 0.68202 0.0
O59 O 0.38288 0.64574 0.67117 0.0
O60 O 0.38797 0.67857 0.63547 0.0
H61 H 0.55887 0.70174 0.60523 0.0
H62 H 0.64644 0.69141 0.60838 0.0
C63 C 0.59841 0.66561 0.60839 0.0
H64 H 0.59766 0.62891 0.59453 0.0
H65 H 0.42089 0.72087 0.5879 0.0
O66 O 0.46519 0.56175 0.70747 0.0
C67 C 0.36383 0.68314 0.65522 0.0
Co68 Co 0.91316 0.44832 0.17783 0.0
Co69 Co 0.89406 0.43922 0.12514 0.0
C70 C 0.01495 0.3885 0.1484 0.0
O71 O 0.99496 0.40659 0.16778 0.0
O72 O 0.98178 0.40042 0.13074 0.0
C73 C 0.9454 0.42775 0.22411 0.0
O74 O 0.95963 0.36882 0.21642 0.0
C75 C 0.93105 0.466 0.07852 0.0
C76 C 0.83844 0.44958 0.0601 0.0
C77 C 0.9035 0.46773 0.05721 0.0
N78 N 0.88457 0.4475 0.0933 0.0
N79 N 0.82945 0.4371 0.08216 0.0
C80 C -0.00126 0.48684 0.08516 0.0
H81 H -0.0011 0.50524 0.10279 0.0
H82 H 0.01752 0.52556 0.07371 0.0
H83 H 0.03191 0.44379 0.08405 0.0
C84 C 0.8997 0.59036 0.16669 0.0
N85 N 0.89687 0.5261 0.16115 0.0
N86 N 0.8812 0.5206 0.1398 0.0
C87 C 0.86805 0.58044 0.13151 0.0
C88 C 0.88116 0.62759 0.14803 0.0
C89 C 0.92952 0.61493 0.1882 0.0
H90 H 0.88986 0.62713 0.20033 0.0
H91 H 0.9615 0.57698 0.19568 0.0
H92 H 0.95962 0.65953 0.18526 0.0
O93 O 0.84324 0.37867 0.17349 0.0
O94 O 0.83182 0.37452 0.13623 0.0
H95 H 0.80418 0.55254 0.10449 0.0
H96 H 0.8164 0.64002 0.10727 0.0
C97 C 0.84064 0.59138 0.10845 0.0
H98 H 0.88062 0.58843 0.0958 0.0
H99 H 0.78542 0.42267 0.08967 0.0
O100 O 0.92232 0.46998 0.21057 0.0
C101 C 0.81754 0.35348 0.15579 0.0
Co102 Co 0.02534 0.92626 0.67567 0.0
Co103 Co 0.02919 0.88179 0.62445 0.0
C104 C 0.08558 0.01171 0.64186 0.0
O105 O 0.06681 0.00606 0.66227 0.0
O106 O 0.07209 0.96758 0.62739 0.0
C107 C 0.04959 0.96492 0.72173 0.0
O108 O 0.10893 0.97544 0.71382 0.0
C109 C -0.00039 0.9101 0.57726 0.0
C110 C 0.0382 0.82252 0.55972 0.0
C111 C 0.01111 0.88402 0.55584 0.0
N112 N 0.01961 0.86639 0.59275 0.0
N113 N 0.04187 0.8138 0.58214 0.0
C114 C 0.97403 0.97687 0.58322 0.0
H115 H -0.00024 0.0151 0.57325 0.0
H116 H 0.97946 0.98714 0.60143 0.0
H117 H 0.92088 0.97898 0.57937 0.0
C118 C 0.88198 0.90512 0.66625 0.0
N119 N 0.94587 0.90177 0.66036 0.0
N120 N 0.94979 0.8769 0.63995 0.0
C121 C 0.88983 0.85957 0.63276 0.0
C122 C 0.84384 0.8782 0.6489 0.0
C123 C 0.85814 0.94142 0.68668 0.0
H124 H 0.84761 0.90569 0.70028 0.0
H125 H 0.89586 0.97662 0.69268 0.0
H126 H 0.8126 0.96899 0.68295 0.0
O127 O 0.09648 0.85664 0.67311 0.0
O128 O 0.09285 0.8227 0.63731 0.0
H129 H 0.91802 0.78841 0.60781 0.0
H130 H 0.83029 0.79737 0.61135 0.0
C131 C 0.87787 0.82399 0.611 0.0
H132 H 0.87764 0.8597 0.59695 0.0
H133 H 0.06218 0.77318 0.59019 0.0
O134 O 0.00579 0.94311 0.7084 0.0
C135 C 0.1182 0.8212 0.65688 0.0
Co136 Co 0.57616 0.4531 0.8554 0.0
Co137 Co 0.5854 0.45969 0.90883 0.0
C138 C 0.47336 0.39483 0.88731 0.0
O139 O 0.49725 0.40696 0.86786 0.0
O140 O 0.50059 0.41649 0.90509 0.0
C141 C 0.51541 0.49482 0.81376 0.0
O142 O 0.47431 0.52499 0.82737 0.0
C143 C 0.55587 0.48047 0.95741 0.0
C144 C 0.65453 0.49929 0.97128 0.0
C145 C 0.5889 0.49513 0.97731 0.0
N146 N 0.60004 0.47594 0.94051 0.0
N147 N 0.65892 0.48688 0.94902 0.0
C148 C 0.48319 0.47731 0.95403 0.0
H149 H 0.47017 0.49518 0.93701 0.0
H150 H 0.45706 0.50736 0.96683 0.0
H151 H 0.46678 0.42551 0.95554 0.0
C152 C 0.6045 0.59581 0.86157 0.0
N153 N 0.59383 0.53513 0.86982 0.0
N154 N 0.59135 0.53854 0.89193 0.0
C155 C 0.59612 0.60191 0.89839 0.0
C156 C 0.60555 0.64084 0.87936 0.0
C157 C 0.61707 0.60962 0.83719 0.0
H158 H 0.64184 0.56705 0.82915 0.0
H159 H 0.56984 0.61776 0.82845 0.0
H160 H 0.64791 0.65427 0.83524 0.0
O161 O 0.64833 0.39126 0.86053 0.0
O162 O 0.65085 0.39298 0.89802 0.0
H163 H 0.62966 0.6263 0.93152 0.0
H164 H 0.56014 0.6741 0.92237 0.0
C165 C 0.58291 0.62474 0.922 0.0
H166 H 0.54885 0.59045 0.93046 0.0
H167 H 0.70208 0.48693 0.93953 0.0
O168 O 0.56287 0.46252 0.8221 0.0
C169 C 0.67057 0.36984 0.87911 0.0
Co170 Co 0.0264 0.56937 0.35728 0.0
Co171 Co 0.03451 0.59076 0.41045 0.0
C172 C 0.09319 0.47359 0.3878 0.0
O173 O 0.07538 0.49348 0.36851 0.0
O174 O 0.078 0.5049 0.40562 0.0
C175 C 0.00664 0.49348 0.31697 0.0
O176 O 0.01912 0.44542 0.33099 0.0
C177 C 0.00864 0.55869 0.45817 0.0
C178 C 0.04374 0.64815 0.4755 0.0
C179 C 0.01869 0.58576 0.47955 0.0
N180 N 0.02726 0.60291 0.44254 0.0
N181 N 0.04767 0.65644 0.45306 0.0
C182 C 0.98497 0.49101 0.45242 0.0
H183 H 0.99274 0.47977 0.43437 0.0
H184 H 0.93149 0.48787 0.45573 0.0
H185 H 0.01031 0.45402 0.46295 0.0
C186 C 0.88368 0.58244 0.36883 0.0
N187 N 0.94782 0.58317 0.3744 0.0
N188 N 0.95305 0.59881 0.39582 0.0
C189 C 0.89363 0.61416 0.40407 0.0
C190 C 0.84661 0.60265 0.38747 0.0
C191 C 0.85865 0.55464 0.34708 0.0
H192 H 0.84996 0.59523 0.33505 0.0
H193 H 0.89476 0.52035 0.33972 0.0
H194 H 0.81228 0.5271 0.34961 0.0
O195 O 0.09055 0.64501 0.36057 0.0
O196 O 0.09507 0.6555 0.39793 0.0
H197 H 0.92435 0.67871 0.43069 0.0
H198 H 0.83655 0.6715 0.42779 0.0
C199 C 0.88359 0.64425 0.42689 0.0
H200 H 0.8838 0.60516 0.43984 0.0
H201 H 0.06607 0.69795 0.44493 0.0
O202 O 0.00656 0.55239 0.32442 0.0
C203 C 0.1142 0.67207 0.3783 0.0
Co204 Co 0.92171 0.03817 0.85757 0.0
Co205 Co 0.9004 0.04483 0.9106 0.0
C206 C 0.02144 0.09741 0.88892 0.0
O207 O 0.00049 0.08208 0.86942 0.0
O208 O 0.98932 0.08232 0.90656 0.0
C209 C 0.99389 0.02201 0.81594 0.0
O210 O 0.04333 0.03585 0.8293 0.0
C211 C 0.92889 0.01783 0.95797 0.0
C212 C 0.83673 0.04698 0.97482 0.0
C213 C 0.89936 0.02348 0.97906 0.0
N214 N 0.88584 0.03743 0.94225 0.0
N215 N 0.8309 0.05494 0.95243 0.0
C216 C 0.99509 0.99066 0.95236 0.0
H217 H 0.99591 0.972 0.93476 0.0
H218 H 0.00815 0.95044 0.96408 0.0
H219 H 0.03223 0.03037 0.95386 0.0
C220 C 0.90658 0.89479 0.86843 0.0
N221 N 0.90425 0.95915 0.874 0.0
N222 N 0.88783 0.9643 0.89536 0.0
C223 C 0.87376 0.9045 0.90353 0.0
C224 C 0.88724 0.85745 0.88705 0.0
C225 C 0.936 0.8699 0.8469 0.0
H226 H 0.89613 0.85733 0.83493 0.0
H227 H 0.96788 0.90771 0.83926 0.0
H228 H 0.96604 0.82543 0.84985 0.0
O229 O 0.8502 0.10653 0.86168 0.0
O230 O 0.84078 0.11041 0.89901 0.0
H231 H 0.80888 0.93269 0.93033 0.0
H232 H 0.81995 0.84504 0.92739 0.0
C233 C 0.84491 0.89348 0.92644 0.0
H234 H 0.88419 0.89573 0.9393 0.0
H235 H 0.78957 0.07261 0.9441 0.0
O236 O 0.93617 0.01981 0.82429 0.0
C237 C 0.82549 0.13155 0.87962 0.0
Co238 Co 0.44781 0.92812 0.36202 0.0
Co239 Co 0.44329 0.88523 0.41352 0.0
C240 C 0.38911 0.01495 0.39643 0.0
O241 O 0.40626 0.00752 0.37592 0.0
O242 O 0.40259 0.97165 0.41101 0.0
C243 C 0.46508 0.00295 0.32072 0.0
O244 O 0.44842 0.05237 0.33382 0.0
C245 C 0.47379 0.91316 0.46086 0.0
C246 C 0.43433 0.82589 0.47816 0.0
C247 C 0.46248 0.88706 0.48223 0.0
N248 N 0.45271 0.86977 0.44524 0.0
N249 N 0.42988 0.81738 0.45571 0.0
C250 C 0.50071 0.97948 0.45507 0.0
H251 H 0.47567 0.01817 0.46512 0.0
H252 H 0.49556 0.9897 0.43688 0.0
H253 H 0.55388 0.98082 0.45894 0.0
C254 C 0.5913 0.9063 0.37184 0.0
N255 N 0.52716 0.90361 0.37754 0.0
N256 N 0.52258 0.87941 0.39797 0.0
C257 C 0.58215 0.86186 0.40532 0.0
C258 C 0.62868 0.87969 0.38933 0.0
C259 C 0.61621 0.94153 0.35145 0.0
H260 H 0.62389 0.90549 0.33762 0.0
H261 H 0.58019 0.97864 0.34588 0.0
H262 H 0.66338 0.96674 0.35498 0.0
O263 O 0.3767 0.85755 0.36427 0.0
O264 O 0.37872 0.82683 0.40031 0.0
H265 H 0.55279 0.79141 0.43017 0.0
H266 H 0.64065 0.79977 0.4268 0.0
C267 C 0.59336 0.82669 0.42708 0.0
H268 H 0.59387 0.86268 0.44116 0.0
H269 H 0.40884 0.777 0.44757 0.0
O270 O 0.4676 0.94541 0.3291 0.0
C271 C 0.35413 0.82337 0.38063 0.0
Co272 Co 0.43641 0.95705 0.92698 0.0
Co273 Co 0.37812 0.95326 0.87774 0.0
C274 C 0.51233 0.89783 0.89035 0.0
O275 O 0.51199 0.91718 0.91077 0.0
O276 O 0.46451 0.9105 0.87741 0.0
C277 C 0.52201 0.9776 0.96514 0.0
O278 O 0.56759 0.97643 0.94946 0.0
C279 C 0.39556 0.00183 0.83245 0.0
C280 C 0.31143 0.96057 0.81377 0.0
C281 C 0.36753 -0.00134 0.8112 0.0
N282 N 0.35756 0.96805 0.84687 0.0
N283 N 0.30717 0.94357 0.83565 0.0
C284 C 0.45929 0.0334 0.83895 0.0
H285 H 0.47647 0.01527 0.85546 0.0
H286 H 0.45239 0.08724 0.84053 0.0
H287 H 0.49711 0.02403 0.82585 0.0
C288 C 0.41103 0.1016 0.91859 0.0
N289 N 0.40707 0.03718 0.9131 0.0
N290 N 0.37541 0.03203 0.89393 0.0
C291 C 0.35405 0.09138 0.88748 0.0
C292 C 0.37761 0.13837 0.90238 0.0
C293 C 0.45236 0.12764 0.93743 0.0
H294 H 0.42048 0.13853 0.95214 0.0
H295 H 0.48954 0.09101 0.9424 0.0
H296 H 0.47769 0.17362 0.93241 0.0
O297 O 0.3669 0.88499 0.92596 0.0
O298 O 0.32239 0.88819 0.8916 0.0
H299 H 0.27501 0.05922 0.86619 0.0
H300 H 0.27817 0.14717 0.8711 0.0
C301 C 0.30798 0.10229 0.86822 0.0
H302 H 0.33587 0.10866 0.85237 0.0
H303 H 0.27069 0.91424 0.84281 0.0
O304 O 0.46211 0.9717 0.95934 0.0
C305 C 0.32696 0.86288 0.91111 0.0
Co306 Co 0.52645 0.41096 0.4277 0.0
Co307 Co 0.5312 0.38377 0.37509 0.0
C308 C 0.58774 0.50597 0.39601 0.0
O309 O 0.56788 0.48907 0.41538 0.0
O310 O 0.57519 0.47099 0.37873 0.0
C311 C 0.49043 0.49173 0.46421 0.0
O312 O 0.4753 0.52936 0.44708 0.0
C313 C 0.48411 0.41128 0.32961 0.0
C314 C 0.50996 0.32095 0.31094 0.0
C315 C 0.47838 0.38098 0.30855 0.0
N316 N 0.51597 0.37043 0.34357 0.0
N317 N 0.53179 0.31675 0.33226 0.0
C318 C 0.45967 0.47745 0.33682 0.0
H319 H 0.48321 0.49345 0.35269 0.0
H320 H 0.4061 0.4747 0.34002 0.0
H321 H 0.46934 0.51439 0.32353 0.0
C322 C 0.38327 0.38765 0.41858 0.0
N323 N 0.44704 0.38983 0.41237 0.0
N324 N 0.45178 0.37181 0.39115 0.0
C325 C 0.39256 0.35232 0.38381 0.0
C326 C 0.34601 0.36461 0.40039 0.0
C327 C 0.35891 0.41448 0.44058 0.0
H328 H 0.39135 0.39794 0.45436 0.0
H329 H 0.36026 0.46892 0.44001 0.0
H330 H 0.30832 0.39903 0.44453 0.0
O331 O 0.59546 0.34029 0.42349 0.0
O332 O 0.59562 0.32215 0.38635 0.0
H333 H 0.4223 0.28449 0.35796 0.0
H334 H 0.33465 0.28872 0.36245 0.0
C335 C 0.38078 0.31781 0.36182 0.0
H336 H 0.37652 0.35401 0.34806 0.0
H337 H 0.55637 0.27677 0.33921 0.0
O338 O 0.51234 0.43414 0.46029 0.0
C339 C 0.61852 0.31141 0.40594 0.0
Co340 Co 0.07922 0.53151 0.92964 0.0
Co341 Co 0.11346 0.54071 0.87777 0.0
C342 C 0.99122 0.60039 0.89789 0.0
O343 O 0.00331 0.57777 0.91732 0.0
O344 O 0.02903 0.58863 0.88132 0.0
C345 C 0.01629 0.54713 0.97219 0.0
O346 O 0.99229 0.59877 0.96196 0.0
C347 C 0.08299 0.49829 0.83221 0.0
C348 C 0.16502 0.53741 0.81197 0.0
C349 C 0.10695 0.50194 0.81033 0.0
N350 N 0.1252 0.52925 0.84605 0.0
N351 N 0.1742 0.55261 0.83387 0.0
C352 C 0.0196 0.46859 0.83997 0.0
H353 H 0.00518 0.48843 0.85666 0.0
H354 H 0.02565 0.41472 0.84173 0.0
H355 H 0.98017 0.47788 0.82753 0.0
C356 C 0.09522 0.38883 0.91848 0.0
N357 N 0.09662 0.45309 0.91307 0.0
N358 N 0.118 0.4589 0.89232 0.0
C359 C 0.13683 0.39976 0.88455 0.0
C360 C 0.12116 0.35229 0.90051 0.0
C361 C 0.06271 0.36332 0.93933 0.0
H362 H 0.10071 0.35159 0.95204 0.0
H363 H 0.02892 0.40051 0.9465 0.0
H364 H 0.03412 0.31815 0.93561 0.0
O365 O 0.15423 0.5965 0.92761 0.0
O366 O 0.17915 0.59865 0.89096 0.0
H367 H 0.20864 0.43357 0.86072 0.0
H368 H 0.20684 0.3454 0.86449 0.0
C369 C 0.17631 0.39039 0.86345 0.0
H370 H 0.14327 0.38579 0.84875 0.0
H371 H 0.21345 0.57945 0.84045 0.0
O372 O 0.05825 0.51157 0.96194 0.0
C373 C 0.1884 0.61837 0.91113 0.0
Co374 Co 0.94858 0.07742 0.43123 0.0
Co375 Co 0.95278 0.0813 0.37807 0.0
C376 C 0.88908 0.97216 0.39965 0.0
O377 O 0.90092 0.00067 0.41836 0.0
O378 O 0.91255 0.99436 0.38137 0.0
C379 C 0.99305 0.00162 0.46715 0.0
O380 O 0.01791 0.96943 0.4499 0.0
C381 C 0.97587 0.05587 0.32971 0.0
C382 C 0.00694 0.15367 0.31772 0.0
C383 C 0.00044 0.08867 0.31101 0.0
N384 N 0.97008 0.09911 0.34683 0.0
N385 N 0.98772 0.15769 0.33941 0.0
C386 C 0.95704 0.98491 0.33135 0.0
H387 H 0.90743 0.981 0.33889 0.0
H388 H 0.99198 0.95919 0.34256 0.0
H389 H 0.95608 0.96054 0.31462 0.0
C390 C 0.0894 0.10892 0.42448 0.0
N391 N 0.02904 0.09548 0.41653 0.0
N392 N 0.03188 0.0894 0.39455 0.0
C393 C 0.09483 0.09426 0.38785 0.0
C394 C 0.13396 0.10821 0.40656 0.0
C395 C 0.10281 0.12436 0.44871 0.0
H396 H 0.05963 0.14894 0.4564 0.0
H397 H 0.11142 0.07805 0.458 0.0
H398 H 0.14667 0.15642 0.4504 0.0
O399 O 0.8866 0.1497 0.42712 0.0
O400 O 0.8846 0.1443 0.3896 0.0
H401 H 0.12072 0.12009 0.35405 0.0
H402 H 0.16589 0.05108 0.36502 0.0
C403 C 0.11736 0.07546 0.36465 0.0
H404 H 0.08221 0.04062 0.35693 0.0
H405 H 0.98927 0.19993 0.34943 0.0
O406 O 0.96173 0.05455 0.46351 0.0
C407 C 0.86257 0.16711 0.40827 0.0
Co408 Co 0.42248 0.52419 0.10931 0.0
Co409 Co 0.36527 0.52492 0.15879 0.0
C410 C 0.49845 0.58346 0.14548 0.0
O411 O 0.49906 0.56289 0.1252 0.0
O412 O 0.45034 0.57076 0.15838 0.0
C413 C 0.4905 0.54609 0.06761 0.0
O414 O 0.5155 0.59505 0.07929 0.0
C415 C 0.38909 0.47561 0.20367 0.0
C416 C 0.30255 0.50732 0.2232 0.0
C417 C 0.36174 0.47403 0.22518 0.0
N418 N 0.34788 0.50748 0.18986 0.0
N419 N 0.2961 0.52627 0.2016 0.0
C420 C 0.45395 0.44895 0.19605 0.0
H421 H 0.46769 0.46818 0.17931 0.0
H422 H 0.45048 0.39476 0.19437 0.0
H423 H 0.49277 0.46126 0.20846 0.0
C424 C 0.40146 0.37908 0.11733 0.0
N425 N 0.39493 0.44317 0.12296 0.0
N426 N 0.36372 0.44667 0.14228 0.0
C427 C 0.34515 0.38629 0.14875 0.0
C428 C 0.37027 0.34058 0.13367 0.0
C429 C 0.44357 0.35532 0.0983 0.0
H430 H 0.41171 0.34043 0.08403 0.0
H431 H 0.47732 0.39468 0.0926 0.0
H432 H 0.47267 0.31197 0.1035 0.0
O433 O 0.3531 0.59628 0.1114 0.0
O434 O 0.30743 0.5892 0.14561 0.0
H435 H 0.26604 0.41427 0.17075 0.0
H436 H 0.27303 0.3266 0.16575 0.0
C437 C 0.30086 0.37296 0.16841 0.0
H438 H 0.33004 0.36804 0.184 0.0
H439 H 0.25687 0.55264 0.19495 0.0
O440 O 0.44776 0.50928 0.0769 0.0
C441 C 0.31277 0.61681 0.12645 0.0
Co442 Co 0.94687 0.40727 0.60693 0.0
Co443 Co 0.94923 0.4049 0.66027 0.0
C444 C 0.8893 0.51505 0.6377 0.0
O445 O 0.90185 0.4863 0.61907 0.0
O446 O 0.90979 0.49187 0.65623 0.0
C447 C 0.99145 0.47955 0.56986 0.0
O448 O 0.01435 0.51469 0.58674 0.0
C449 C 0.97281 0.43218 0.70857 0.0
C450 C 0.00397 0.33464 0.72061 0.0
C451 C -0.00217 0.39972 0.72723 0.0
N452 N 0.96654 0.38861 0.69156 0.0
N453 N 0.98417 0.33021 0.69903 0.0
C454 C 0.95433 0.50312 0.70684 0.0
H455 H 0.90544 0.50714 0.69884 0.0
H456 H 0.99035 0.52904 0.696 0.0
H457 H 0.95212 0.52721 0.72361 0.0
C458 C 0.08787 0.37883 0.61402 0.0
N459 N 0.02679 0.38963 0.62184 0.0
N460 N 0.02879 0.39626 0.64382 0.0
C461 C 0.09175 0.3945 0.65061 0.0
C462 C 0.13188 0.38219 0.63198 0.0
C463 C 0.1029 0.36423 0.58982 0.0
H464 H 0.06133 0.33725 0.58202 0.0
H465 H 0.10955 0.41091 0.58054 0.0
H466 H 0.14843 0.33473 0.58826 0.0
O467 O 0.88283 0.33669 0.61205 0.0
O468 O 0.88049 0.34103 0.64958 0.0
H469 H 0.11676 0.37204 0.68472 0.0
H470 H 0.16112 0.44121 0.67328 0.0
C471 C 0.11307 0.4157 0.67368 0.0
H472 H 0.077 0.45035 0.68093 0.0
H473 H 0.98543 0.28781 0.68909 0.0
O474 O 0.96082 0.42645 0.57419 0.0
C475 C 0.85844 0.31882 0.63087 0.0
Co476 Co 0.07716 0.95481 0.10702 0.0
Co477 Co 0.10529 0.94583 0.15941 0.0
C478 C 0.9866 0.88469 0.13863 0.0
O479 O 0.0038 0.90449 0.11929 0.0
O480 O 0.01961 0.89976 0.15604 0.0
C481 C 0.99345 0.97451 0.06948 0.0
O482 O 0.94949 0.96831 0.08553 0.0
C483 C 0.0766 0.98776 0.20535 0.0
C484 C 0.16044 0.94983 0.22477 0.0
C485 C 0.1024 0.98486 0.22697 0.0
N486 N 0.11786 0.95691 0.19112 0.0
N487 N 0.16788 0.9342 0.20283 0.0
C488 C 0.01264 0.0171 0.19823 0.0
H489 H 0.99679 0.99683 0.18178 0.0
H490 H 0.01857 0.07094 0.19625 0.0
H491 H 0.97427 0.008 0.21115 0.0
C492 C 0.09265 0.09833 0.11859 0.0
N493 N 0.09286 0.03383 0.12385 0.0
N494 N 0.11201 0.02772 0.14484 0.0
C495 C 0.13036 0.08676 0.15291 0.0
C496 C 0.11664 0.1345 0.13693 0.0
C497 C 0.06383 0.12477 0.09732 0.0
H498 H 0.10394 0.13679 0.08536 0.0
H499 H 0.03094 0.08825 0.08943 0.0
H500 H 0.03505 0.16992 0.10074 0.0
O501 O 0.15271 0.89075 0.10917 0.0
O502 O 0.16945 0.88586 0.14628 0.0
H503 H 0.20056 0.05296 0.17716 0.0
H504 H 0.19895 0.14112 0.17353 0.0
C505 C 0.16836 0.09597 0.1743 0.0
H506 H 0.13438 0.10038 0.18878 0.0
H507 H 0.20684 0.90779 0.19587 0.0
O508 O 0.05413 0.97253 0.07463 0.0
C509 C 0.18246 0.86687 0.12625 0.0
Co510 Co 0.52812 0.07985 0.60783 0.0
Co511 Co 0.52384 0.08762 0.66095 0.0
C512 C 0.58606 0.97602 0.63966 0.0
O513 O 0.57374 0.00279 0.62079 0.0
O514 O 0.56451 0.00068 0.65792 0.0
C515 C 0.48497 0.00284 0.57161 0.0
O516 O 0.46083 0.97016 0.58879 0.0
C517 C 0.49851 0.06529 0.70923 0.0
C518 C 0.46516 0.1635 0.72027 0.0
C519 C 0.47178 0.09916 0.72743 0.0
N520 N 0.50518 0.10724 0.69192 0.0
N521 N 0.48629 0.16611 0.69879 0.0
C522 C 0.51811 0.99448 0.70819 0.0
H523 H 0.56763 0.99045 0.70058 0.0
H524 H 0.48324 0.96704 0.69731 0.0
H525 H 0.51948 0.97198 0.72515 0.0
C526 C 0.38669 0.10904 0.61424 0.0
N527 N 0.44742 0.09837 0.62228 0.0
N528 N 0.44465 0.09381 0.6443 0.0
C529 C 0.38148 0.0968 0.65093 0.0
C530 C 0.34205 0.10796 0.63213 0.0
C531 C 0.37279 0.12175 0.58991 0.0
H532 H 0.41522 0.14702 0.582 0.0
H533 H 0.36537 0.07435 0.58098 0.0
H534 H 0.32803 0.15218 0.588 0.0
O535 O 0.59128 0.15168 0.61235 0.0
O536 O 0.5923 0.15102 0.6499 0.0
H537 H 0.35533 0.12282 0.68475 0.0
H538 H 0.31101 0.05282 0.67375 0.0
C539 C 0.35921 0.07806 0.6741 0.0
H540 H 0.3948 0.04393 0.68175 0.0
H541 H 0.48495 0.20745 0.68847 0.0
O542 O 0.51555 0.0564 0.57539 0.0
C543 C 0.61483 0.17162 0.63108 0.0
C544 C 0.49289 0.09136 0.26525 0.0
C545 C 0.51585 0.04084 0.25107 0.0
H546 H 0.45907 0.11914 0.29804 0.0
C547 C 0.52212 0.97719 0.26002 0.0
H548 H 0.48741 0.14097 0.25901 0.0
C549 C 0.50551 0.96451 0.28257 0.0
C550 C 0.48243 0.0152 0.2967 0.0
H551 H 0.53959 0.93706 0.2496 0.0
H552 H 0.5109 0.91503 0.28893 0.0
C553 C 0.47654 0.07877 0.28772 0.0
C554 C 0.47177 0.55114 0.77943 0.0
C555 C 0.50655 0.49868 0.78901 0.0
H556 H 0.43572 0.59556 0.7492 0.0
C557 C 0.53177 0.4495 0.77475 0.0
H558 H 0.45199 0.58994 0.78997 0.0
C559 C 0.52127 0.45201 0.75146 0.0
C560 C 0.48671 0.5046 0.74186 0.0
H561 H 0.55859 0.40836 0.78164 0.0
H562 H 0.54073 0.413 0.74094 0.0
C563 C 0.46264 0.55448 0.75608 0.0
C564 C 0.98041 0.39674 0.263 0.0
C565 C 0.95923 0.44527 0.24794 0.0
H566 H 0.01183 0.37386 0.29633 0.0
C567 C 0.95341 0.51042 0.25579 0.0
H568 H 0.98548 0.3461 0.25758 0.0
C569 C 0.96899 0.52659 0.27816 0.0
C570 C 0.99037 0.47786 0.29315 0.0
H571 H 0.93744 0.54907 0.2446 0.0
H572 H 0.96418 0.57713 0.2837 0.0
C573 C 0.9956 0.41277 0.28529 0.0
C574 C 0.97007 0.97272 0.75437 0.0
C575 C 0.03426 0.97906 0.74579 0.0
H576 H 0.90661 0.98145 0.78319 0.0
C577 C 0.08428 -0.0003 0.76047 0.0
H578 H 0.9303 0.95702 0.74353 0.0
C579 C 0.07075 0.01356 0.78308 0.0
C580 C 0.00671 0.00742 0.79173 0.0
H581 H 0.13426 0.00515 0.75453 0.0
H582 H 0.11084 0.02923 0.79379 0.0
C583 C 0.95642 0.98685 0.7771 0.0
C584 C 0.42525 0.08654 0.78898 0.0
C585 C 0.39337 0.02526 0.78974 0.0
H586 H 0.47577 0.15739 0.76867 0.0
C587 C 0.38589 0.98923 0.76968 0.0
H588 H 0.42912 0.11708 0.80386 0.0
C589 C 0.41179 0.01284 0.74946 0.0
C590 C 0.44602 0.07285 0.7489 0.0
H591 H 0.36049 0.94241 0.76965 0.0
H592 H 0.40388 0.98459 0.73421 0.0
C593 C 0.45134 0.11006 0.76877 0.0
C594 C 0.39719 0.45257 0.28748 0.0
C595 C 0.44641 0.40417 0.28745 0.0
H596 H 0.33327 0.51307 0.26802 0.0
C597 C 0.464 0.37541 0.26672 0.0
H598 H 0.37833 0.47322 0.3029 0.0
C599 C 0.43547 0.39628 0.24661 0.0
C600 C 0.38969 0.44785 0.24651 0.0
H601 H 0.50011 0.33651 0.26594 0.0
H602 H 0.44909 0.37084 0.23137 0.0
C603 C 0.36985 0.47459 0.26729 0.0
C604 C 0.08506 0.51105 0.76903 0.0
C605 C 0.07748 0.47613 0.78922 0.0
H606 H 0.06674 0.51413 0.73358 0.0
C607 C 0.04362 0.41587 0.78879 0.0
H608 H 0.11189 0.55704 0.76872 0.0
C609 C 0.01664 0.39189 0.76872 0.0
C610 C 0.02291 0.42759 0.74865 0.0
H611 H 0.03937 0.38612 0.80375 0.0
H612 H 0.99124 0.34508 0.76885 0.0
C613 C 0.0582 0.487 0.74895 0.0
C614 C 0.08478 0.97729 0.26856 0.0
C615 C 0.07499 0.01135 0.24833 0.0
H616 H 0.06993 0.97529 0.30423 0.0
C617 C 0.04112 0.07147 0.24897 0.0
H618 H 0.11174 0.93148 0.2687 0.0
C619 C 0.0161 0.096 0.2693 0.0
C620 C 0.02437 0.06095 0.28939 0.0
H621 H 0.0353 0.10065 0.23395 0.0
H622 H 0.99048 0.14258 0.26932 0.0
C623 C 0.05991 0.00187 0.28887 0.0
C624 C 0.72125 0.20348 0.13776 0.0
C625 C 0.70789 0.17226 0.15832 0.0
H626 H 0.76386 0.28515 0.12096 0.0
C627 C 0.72929 0.20234 0.17843 0.0
H628 H 0.70506 0.18241 0.12193 0.0
C629 C 0.76355 0.26224 0.17788 0.0
C630 C 0.77646 0.29337 0.15723 0.0
H631 H 0.71923 0.17993 0.19458 0.0
H632 H 0.78027 0.28378 0.19357 0.0
C633 C 0.7546 0.26316 0.13724 0.0
C634 C 0.22685 0.7981 0.64058 0.0
C635 C 0.18305 0.78973 0.65861 0.0
H636 H 0.3188 0.77381 0.62589 0.0
C637 C 0.20279 0.75289 0.67733 0.0
H638 H 0.21382 0.82807 0.62622 0.0
C639 C 0.26381 0.72067 0.67708 0.0
C640 C 0.30595 0.72626 0.65829 0.0
H641 H 0.17017 0.74677 0.6916 0.0
H642 H 0.27661 0.68932 0.69108 0.0
C643 C 0.28752 0.76738 0.64049 0.0
C644 C 0.77037 0.22351 0.85843 0.0
C645 C 0.78384 0.19122 0.87876 0.0
H646 H 0.72482 0.30603 0.84253 0.0
C647 C 0.76166 0.21968 0.89907 0.0
H648 H 0.78729 0.2034 0.84254 0.0
C649 C 0.72733 0.27874 0.89913 0.0
C650 C 0.71336 0.311 0.87889 0.0
H651 H 0.77127 0.1967 0.91514 0.0
H652 H 0.71073 0.2984 0.91514 0.0
C653 C 0.73524 0.28273 0.85849 0.0
C654 C 0.19157 0.74944 0.39682 0.0
C655 C 0.17085 0.7179 0.37698 0.0
H656 H 0.26501 0.80564 0.4134 0.0
C657 C 0.20953 0.72446 0.35738 0.0
H658 H 0.163 0.74646 0.41219 0.0
C659 C 0.26914 0.75964 0.35806 0.0
C660 C 0.29116 0.78743 0.37843 0.0
H661 H 0.19503 0.70058 0.34183 0.0
H662 H 0.29879 0.76325 0.34296 0.0
C663 C 0.2508 0.78304 0.39757 0.0
C664 C 0.2262 0.71887 0.9326 0.0
C665 C 0.23344 0.6747 0.91438 0.0
H666 H 0.25057 0.81461 0.94602 0.0
C667 C 0.27721 0.69056 0.89695 0.0
H668 H 0.19263 0.70802 0.94625 0.0
C669 C 0.3085 0.75117 0.89664 0.0
C670 C 0.29774 0.79728 0.91387 0.0
H671 H 0.28477 0.65745 0.88284 0.0
H672 H 0.34001 0.7628 0.88246 0.0
C673 C 0.25869 0.77992 0.93241 0.0
C674 C 0.77454 0.23264 0.42798 0.0
C675 C 0.8018 0.20687 0.408 0.0
H676 H 0.69465 0.2853 0.4432 0.0
C677 C 0.76681 0.21354 0.3878 0.0
H678 H 0.79992 0.22771 0.44389 0.0
C679 C 0.70625 0.24488 0.38752 0.0
C680 C 0.67901 0.27136 0.40738 0.0
H681 H 0.7856 0.19357 0.37213 0.0
H682 H 0.68128 0.2491 0.37151 0.0
C683 C 0.71382 0.26486 0.42766 0.0
C684 C 0.26038 0.7871 0.14274 0.0
C685 C 0.22538 0.80852 0.12381 0.0
H686 H 0.31359 0.70979 0.15828 0.0
C687 C 0.22388 0.76799 0.10447 0.0
H688 H 0.26355 0.81708 0.15783 0.0
C689 C 0.25367 0.70563 0.1047 0.0
C690 C 0.28383 0.68289 0.12442 0.0
H691 H 0.19715 0.783 0.08962 0.0
H692 H 0.25068 0.67434 0.08993 0.0
C693 C 0.28852 0.72509 0.1431 0.0
C694 C 0.70582 0.2302 0.65137 0.0
C695 C 0.67531 0.21233 0.631 0.0
H696 H 0.7879 0.27634 0.66735 0.0
C697 C 0.70675 0.22805 0.61061 0.0
H698 H 0.68343 0.21838 0.66741 0.0
C699 C 0.76721 0.26059 0.61058 0.0
C700 C 0.79774 0.27843 0.63095 0.0
H701 H 0.68514 0.21448 0.5946 0.0
H702 H 0.7896 0.27239 0.59454 0.0
C703 C 0.76624 0.26282 0.65134 0.0
C704 C 0.5903 0.66274 0.13746 0.0
C705 C 0.5428 0.63777 0.15235 0.0
H706 H 0.64814 0.74627 0.12792 0.0
C707 C 0.52642 0.67499 0.17159 0.0
H708 H 0.60486 0.63504 0.12265 0.0
C709 C 0.54817 0.73955 0.17387 0.0
C710 C 0.58948 0.76744 0.15757 0.0
H711 H 0.49072 0.65726 0.18368 0.0
H712 H 0.52733 0.7689 0.18729 0.0
C713 C 0.61431 0.72682 0.1403 0.0
C714 C 0.81329 0.59106 0.65858 0.0
C715 C 0.83419 0.56227 0.6382 0.0
H716 H 0.73295 0.63337 0.677 0.0
C717 C 0.79216 0.56456 0.61951 0.0
H718 H 0.84482 0.59097 0.67324 0.0
C719 C 0.72757 0.585 0.62204 0.0
C720 C 0.7042 0.60721 0.643 0.0
H721 H 0.80638 0.54334 0.60346 0.0
H722 H 0.69497 0.57755 0.60794 0.0
C723 C 0.74892 0.6143 0.66084 0.0
C724 C 0.91873 0.72038 0.12384 0.0
C725 C 0.89244 0.69906 0.14443 0.0
H726 H 0.96456 0.79702 0.1055 0.0
C727 C 0.88524 0.74518 0.16202 0.0
H728 H 0.92754 0.68673 0.11006 0.0
C729 C 0.91125 0.80876 0.15988 0.0
C730 C 0.94154 0.82795 0.13967 0.0
H731 H 0.86339 0.73099 0.1779 0.0
H732 H 0.9108 0.84151 0.17432 0.0
C733 C 0.94101 0.78437 0.12128 0.0
C734 C 0.66312 0.90379 0.66133 0.0
C735 C 0.64169 0.92945 0.64064 0.0
H736 H 0.7439 0.86433 0.67999 0.0
C737 C 0.6834 0.9246 0.62185 0.0
H738 H 0.63191 0.90592 0.67609 0.0
C739 C 0.74807 0.90458 0.6244 0.0
C740 C 0.77193 0.88533 0.64553 0.0
H741 H 0.66879 0.94341 0.60558 0.0
H742 H 0.78031 0.91009 0.61008 0.0
C743 C 0.72761 0.88101 0.66365 0.0
C744 C 0.62625 0.75382 0.8955 0.0
C745 C 0.60092 0.71372 0.87818 0.0
H746 H 0.61779 0.84547 0.91327 0.0
C747 C 0.56183 0.74279 0.86158 0.0
H748 H 0.65884 0.73353 0.90803 0.0
C749 C 0.54156 0.80777 0.86382 0.0
C750 C 0.55718 0.84419 0.88331 0.0
H751 H 0.54109 0.71408 0.848 0.0
H752 H 0.50703 0.82633 0.85156 0.0
C753 C 0.60356 0.81832 0.89832 0.0
C754 C 0.68555 0.55417 0.41392 0.0
C755 C 0.64382 0.55194 0.39514 0.0
H756 H 0.78241 0.5652 0.42571 0.0
C757 C 0.66545 0.57964 0.37481 0.0
H758 H 0.67096 0.5331 0.4299 0.0
C759 C 0.72985 0.60355 0.3729 0.0
C760 C 0.77443 0.59611 0.39081 0.0
H761 H 0.63414 0.5791 0.36009 0.0
H762 H 0.74584 0.62339 0.35693 0.0
C763 C 0.7504 0.57371 0.41158 0.0
C764 C 0.89196 0.7393 0.87348 0.0
C765 C 0.89883 0.78615 0.89086 0.0
H766 H 0.91715 0.64226 0.86177 0.0
C767 C 0.92491 0.76578 0.91155 0.0
H768 H 0.87058 0.75282 0.85749 0.0
C769 C 0.94681 0.70193 0.91447 0.0
C770 C 0.94686 0.6573 0.89641 0.0
H771 H 0.93381 0.80007 0.92513 0.0
H772 H 0.97049 0.69014 0.93024 0.0
C773 C 0.91745 0.67573 0.87601 0.0
C774 C 0.74563 0.87957 0.37521 0.0
C775 C 0.70053 0.88632 0.39301 0.0
H776 H 0.84284 0.90059 0.36332 0.0
C777 C 0.72375 0.90681 0.41417 0.0
H778 H 0.72966 0.86209 0.35886 0.0
C779 C 0.78888 0.92529 0.41705 0.0
C780 C 0.83188 0.92724 0.39855 0.0
H781 H 0.69083 0.91419 0.42823 0.0
H782 H 0.80313 0.94505 0.4333 0.0
C783 C 0.81072 0.90061 0.37787 0.0
C784 C 0.41946 0.29499 0.8718 0.0
C785 C 0.42666 0.33947 0.88976 0.0
H786 H 0.40257 0.19611 0.86198 0.0
C787 C 0.40405 0.32086 0.91126 0.0
H788 H 0.43619 0.30735 0.85501 0.0
C789 C 0.38265 0.25647 0.9152 0.0
C790 C 0.38407 0.20974 0.89775 0.0
H791 H 0.40813 0.35425 0.92545 0.0
H792 H 0.36926 0.2422 0.93214 0.0
C793 C 0.39964 0.23061 0.87583 0.0
C794 C 0.19654 0.43256 0.37189 0.0
C795 C 0.14881 0.42775 0.38883 0.0
H796 H 0.29644 0.42187 0.3632 0.0
C797 C 0.16294 0.39176 0.40838 0.0
H798 H 0.18769 0.4606 0.35673 0.0
C799 C 0.22569 0.36508 0.41148 0.0
C800 C 0.27573 0.37769 0.39573 0.0
H801 H 0.12666 0.38704 0.42163 0.0
H802 H 0.23559 0.33734 0.42658 0.0
C803 C 0.2595 0.40966 0.37558 0.0
C804 C 0.095 0.17105 0.91165 0.0
C805 C 0.07084 0.15046 0.89059 0.0
H806 H 0.13456 0.25075 0.93109 0.0
C807 C 0.07919 0.19196 0.87198 0.0
H808 H 0.09037 0.13968 0.92626 0.0
C809 C 0.09968 0.25651 0.87507 0.0
C810 C 0.11631 0.28013 0.8966 0.0
H811 H 0.06177 0.17781 0.85542 0.0
H812 H 0.09582 0.28886 0.8608 0.0
C813 C 0.11894 0.23516 0.9145 0.0
C814 C 0.30313 0.05358 0.42294 0.0
C815 C 0.33697 0.06258 0.40248 0.0
H816 H 0.21138 0.05648 0.43967 0.0
C817 C 0.30933 0.10404 0.38622 0.0
H818 H 0.32341 0.02352 0.43622 0.0
C819 C 0.24511 0.1272 0.38901 0.0
C820 C 0.20691 0.10639 0.40747 0.0
H821 H 0.3347 0.11356 0.37051 0.0
H822 H 0.22338 0.1558 0.37565 0.0
C823 C 0.23821 0.07347 0.42512 0.0
C824 C 0.40131 0.15853 0.12486 0.0
C825 C 0.42468 0.14058 0.1463 0.0
H826 H 0.3647 0.23622 0.10401 0.0
C827 C 0.41817 0.18559 0.16414 0.0
H828 H 0.40473 0.12474 0.11078 0.0
C829 C 0.39736 0.24952 0.16008 0.0
C830 C 0.3801 0.26958 0.13825 0.0
H831 H 0.43566 0.1739 0.18087 0.0
H832 H 0.40031 0.28436 0.17383 0.0
C833 C 0.3791 0.22257 0.12089 0.0
C834 C 0.30712 0.39628 0.65196 0.0
C835 C 0.33259 0.43964 0.63579 0.0
H836 H 0.22386 0.33966 0.66258 0.0
C837 C 0.29732 0.44896 0.61571 0.0
H838 H 0.33358 0.38683 0.66741 0.0
C839 C 0.23346 0.42559 0.61364 0.0
C840 C 0.2045 0.38934 0.63106 0.0
H841 H 0.31575 0.48085 0.60256 0.0
H842 H 0.20536 0.44194 0.59934 0.0
C843 C 0.24395 0.37001 0.64931 0.0
C844 C 0.06991 0.29326 0.16562 0.0
C845 C 0.06443 0.33568 0.14716 0.0
H846 H 0.08521 0.19588 0.17649 0.0
C847 C 0.09144 0.31616 0.12637 0.0
H848 H 0.04983 0.30649 0.18193 0.0
C849 C 0.11596 0.25234 0.12353 0.0
C850 C 0.11095 0.20651 0.14112 0.0
H851 H 0.08879 0.34823 0.11189 0.0
H852 H 0.134 0.23765 0.10712 0.0
C853 C 0.09106 0.229 0.16249 0.0
C854 C 0.23014 0.12486 0.64941 0.0
C855 C 0.26916 0.10336 0.6312 0.0
H856 H 0.13989 0.11177 0.66758 0.0
C857 C 0.23896 0.06787 0.61376 0.0
H858 H 0.25109 0.15501 0.66264 0.0
C859 C 0.17414 0.04717 0.61583 0.0
C860 C 0.1391 0.05811 0.63596 0.0
H861 H 0.26655 0.05003 0.59947 0.0
H862 H 0.15471 0.01559 0.60269 0.0
C863 C 0.166 0.10106 0.65209 0.0
C864 C 0.4938 0.9796 1.00647 0.0
C865 C 0.5408 0.98494 0.98919 0.0
H866 H 0.47547 0.97691 0.04199 0.0
C867 C 0.60678 0.99551 0.99514 0.0
H868 H 0.4427 0.97071 1.00251 0.0
C869 C 0.62536 8e-05 1.01777 0.0
C870 C 0.57847 0.99465 0.03504 0.0
H871 H 0.6444 -0.00024 0.98232 0.0
H872 H 0.67666 0.00774 0.02175 0.0
C873 C 0.5125 0.98394 0.02913 0.0
C874 C 0.5127 0.51823 0.52721 0.0
C875 C 0.47293 0.57367 0.53126 0.0
H876 H 0.54856 0.448 0.50304 0.0
C877 C 0.43857 0.60056 0.51295 0.0
H878 H 0.54224 0.49712 0.54031 0.0
C879 C 0.44364 0.57316 0.49141 0.0
C880 C 0.48287 0.51764 0.48746 0.0
H881 H 0.40739 0.64312 0.51519 0.0
H882 H 0.41666 0.59572 0.47779 0.0
C883 C 0.51698 0.4901 0.50562 0.0
C884 C 0.9001 0.53157 0.02161 0.0
C885 C 0.93405 0.48875 0.03583 0.0
H886 H 0.90019 0.58459 0.99065 0.0
C887 C 0.99602 0.46541 0.02921 0.0
H888 H 0.85222 0.55015 0.02634 0.0
C889 C 0.02324 0.48421 1.0085 0.0
C890 C 0.98943 0.52769 0.99436 0.0
H891 H 0.02271 0.43154 0.03978 0.0
H892 H 0.07065 0.46489 1.00359 0.0
C893 C 0.92781 0.55149 1.00124 0.0
C894 C 0.04414 0.92403 0.49448 0.0
C895 C -0.00128 0.97413 0.49012 0.0
H896 H 0.08383 0.85729 0.51851 0.0
C897 C 0.95674 0.99477 0.50755 0.0
H898 H 0.07712 0.90682 0.48141 0.0
C899 C 0.9597 0.96539 0.52882 0.0
C900 C 0.00576 0.91572 0.53332 0.0
H901 H 0.9203 0.03238 0.50459 0.0
H902 H 0.92452 0.98073 0.54135 0.0
C903 C 0.04771 0.89537 0.51578 0.0
C904 C 0.5094 0.47136 1.00897 0.0
C905 C 0.56194 0.50821 1.00018 0.0
H906 H 0.44554 0.45411 0.03715 0.0
C907 C 0.59058 0.55709 1.01376 0.0
H908 H 0.48741 0.43214 0.99917 0.0
C909 C 0.56673 0.56969 0.03544 0.0
C910 C 0.51411 0.53308 0.04429 0.0
H911 H 0.6313 0.58613 1.00752 0.0
H912 H 0.59009 0.60793 0.04534 0.0
C913 C 0.48576 0.48362 0.0308 0.0
C914 C 0.0506 0.57982 0.52017 0.0
C915 C 0.01186 0.55569 0.50235 0.0
H916 H 0.07506 0.57453 0.55511 0.0
C917 C 0.96681 0.50487 0.50697 0.0
H918 H 0.0859 0.61882 0.5174 0.0
C919 C 0.96133 0.4786 0.52871 0.0
C920 C -0.0002 0.50342 0.54644 0.0
H921 H 0.93413 0.48639 0.49416 0.0
H922 H 0.92561 0.44016 0.53177 0.0
C923 C 0.04458 0.55421 0.54187 0.0
C924 C 0.01525 0.00397 0.02894 0.0
C925 C 0.9713 0.98527 0.04603 0.0
H926 H 0.02728 0.03289 0.99459 0.0
C927 C 0.90452 0.97795 0.0407 0.0
H928 H 0.06686 0.01074 0.03258 0.0
C929 C 0.88205 0.98938 0.0189 0.0
C930 C 0.92565 0.00838 1.00177 0.0
H931 H 0.8692 0.96346 0.0534 0.0
H932 H 0.8302 0.98335 1.01547 0.0
C933 C 0.99256 0.01589 1.00706 0.0
C934 C 0.51513 0.96841 0.50946 0.0
C935 C 0.46919 0.91825 0.50495 0.0
H936 H 0.5554 0.03535 0.53385 0.0
C937 C 0.42863 0.89683 0.52268 0.0
H938 H 0.54939 0.98466 0.49681 0.0
C939 C 0.43331 0.92495 0.54414 0.0
C940 C 0.47848 0.97562 0.5485 0.0
H941 H 0.39268 0.85832 0.52 0.0
H942 H 0.40129 0.90692 0.55733 0.0
C943 C 0.51917 0.99727 0.53091 0.0
loop_
_geom_bond_atom_site_label_1
_geom_bond_atom_site_label_2
_geom_bond_distance
_geom_bond_site_symmetry_2
_ccdc_geom_bond_type
Co0 O3 1.970 . S
Co0 N17 1.989 1_545 S
Co0 O25 1.967 . S
Co0 O32 1.920 . S
Co1 O4 1.966 . S
Co1 N10 2.022 . S
Co1 N18 1.993 1_545 S
Co1 O26 1.941 . S
C2 O3 1.258 . S
C2 O4 1.263 . S
O3 Co0 1.970 . S
O3 C2 1.258 . S
O4 Co1 1.966 . S
O4 C2 1.263 . S
C5 O6 1.235 . S
C5 O32 1.289 . S
O6 C5 1.235 . S
C7 C9 1.400 . S
C7 N10 1.351 . S
C7 C12 1.501 . S
C8 C9 1.379 1_565 S
C8 N11 1.337 1_565 S
C9 C7 1.400 . S
C9 C8 1.379 1_545 S
N10 Co1 2.022 . S
N10 C7 1.351 . S
N10 N11 1.365 . S
N11 C8 1.337 1_545 S
N11 N10 1.365 . S
N11 H31 0.862 1_545 S
C12 C7 1.501 . S
C12 H13 0.961 . S
C12 H14 0.961 . S
C12 H15 0.960 . S
H13 C12 0.961 . S
H14 C12 0.961 . S
H15 C12 0.960 . S
C16 N17 1.342 . S
C16 C20 1.401 . S
C16 C21 1.499 . S
N17 Co0 1.989 1_565 S
N17 C16 1.342 . S
N17 N18 1.388 . S
N18 Co1 1.993 1_565 S
N18 N17 1.388 . S
N18 C19 1.346 . S
C19 N18 1.346 . S
C19 C20 1.396 . S
C19 C29 1.510 . S
C20 C16 1.401 . S
C20 C19 1.396 . S
C21 C16 1.499 . S
C21 H22 0.959 . S
C21 H23 0.960 . S
C21 H24 0.961 . S
H22 C21 0.959 . S
H23 C21 0.960 . S
H24 C21 0.961 . S
O25 Co0 1.967 . S
O25 C33 1.258 . S
O26 Co1 1.941 . S
O26 C33 1.266 . S
H27 C29 0.959 . S
H28 C29 0.961 . S
C29 C19 1.510 . S
C29 H27 0.959 . S
C29 H28 0.961 . S
C29 H30 0.960 . S
H30 C29 0.960 . S
H31 N11 0.862 1_565 S
O32 Co0 1.920 . S
O32 C5 1.289 . S
C33 O25 1.258 . S
C33 O26 1.266 . S
Co34 O37 1.970 . S
Co34 N51 1.989 . S
Co34 O59 1.967 . S
Co34 O66 1.920 . S
Co35 O38 1.966 . S
Co35 N44 2.022 . S
Co35 N52 1.993 . S
Co35 O60 1.941 . S
C36 O37 1.258 . S
C36 O38 1.263 . S
O37 Co34 1.970 . S
O37 C36 1.258 . S
O38 Co35 1.966 . S
O38 C36 1.263 . S
C39 O40 1.235 . S
C39 O66 1.289 . S
O40 C39 1.235 . S
C41 C43 1.400 . S
C41 N44 1.351 . S
C41 C46 1.501 . S
C42 C43 1.387 . S
C42 N45 1.341 . S
C43 C41 1.400 . S
C43 C42 1.387 . S
N44 Co35 2.022 . S
N44 C41 1.351 . S
N44 N45 1.365 . S
N45 C42 1.341 . S
N45 N44 1.365 . S
N45 H65 0.862 . S
C46 C41 1.501 . S
C46 H47 0.961 . S
C46 H48 0.961 . S
C46 H49 0.960 . S
H47 C46 0.961 . S
H48 C46 0.961 . S
H49 C46 0.960 . S
C50 N51 1.342 . S
C50 C54 1.401 . S
C50 C55 1.499 . S
N51 Co34 1.989 . S
N51 C50 1.342 . S
N51 N52 1.388 . S
N52 Co35 1.993 . S
N52 N51 1.388 . S
N52 C53 1.346 . S
C53 N52 1.346 . S
C53 C54 1.396 . S
C53 C63 1.510 . S
C54 C50 1.401 . S
C54 C53 1.396 . S
C55 C50 1.499 . S
C55 H56 0.959 . S
C55 H57 0.960 . S
C55 H58 0.961 . S
H56 C55 0.959 . S
H57 C55 0.960 . S
H58 C55 0.961 . S
O59 Co34 1.967 . S
O59 C67 1.258 . S
O60 Co35 1.941 . S
O60 C67 1.266 . S
H61 C63 0.959 . S
H62 C63 0.961 . S
C63 C53 1.510 . S
C63 H61 0.959 . S
C63 H62 0.961 . S
C63 H64 0.960 . S
H64 C63 0.960 . S
H65 N45 0.862 . S
O66 Co34 1.920 . S
O66 C39 1.289 . S
C67 O59 1.258 . S
C67 O60 1.266 . S
Co68 O71 1.970 1_655 S
Co68 N85 1.989 . S
Co68 O93 1.967 . S
Co68 O100 1.920 . S
Co69 O72 1.966 . S
Co69 N78 2.022 . S
Co69 N86 1.993 . S
Co69 O94 1.941 . S
C70 O71 1.258 . S
C70 O72 1.263 1_455 S
O71 Co68 1.970 1_455 S
O71 C70 1.258 . S
O72 Co69 1.966 . S
O72 C70 1.263 1_655 S
C73 O74 1.223 1_655 S
C73 O100 1.299 . S
O74 C73 1.223 1_455 S
C75 C77 1.400 . S
C75 N78 1.351 . S
C75 C80 1.501 1_655 S
C76 C77 1.387 . S
C76 N79 1.341 . S
C77 C75 1.400 . S
C77 C76 1.387 . S
N78 Co69 2.022 . S
N78 C75 1.351 . S
N78 N79 1.365 . S
N79 C76 1.341 . S
N79 N78 1.365 . S
N79 H99 0.862 . S
C80 C75 1.501 1_455 S
C80 H81 0.961 . S
C80 H82 0.961 . S
C80 H83 0.960 . S
H81 C80 0.961 . S
H82 C80 0.961 . S
H83 C80 0.960 . S
C84 N85 1.342 . S
C84 C88 1.401 . S
C84 C89 1.499 . S
N85 Co68 1.989 . S
N85 C84 1.342 . S
N85 N86 1.388 . S
N86 Co69 1.993 . S
N86 N85 1.388 . S
N86 C87 1.346 . S
C87 N86 1.346 . S
C87 C88 1.396 . S
C87 C97 1.510 . S
C88 C84 1.401 . S
C88 C87 1.396 . S
C89 C84 1.499 . S
C89 H90 0.959 . S
C89 H91 0.960 1_655 S
C89 H92 0.961 . S
H90 C89 0.959 . S
H91 C89 0.960 1_455 S
H92 C89 0.961 . S
O93 Co68 1.967 . S
O93 C101 1.258 . S
O94 Co69 1.941 . S
O94 C101 1.266 . S
H95 C97 0.959 . S
H96 C97 0.961 1_455 S
C97 C87 1.510 . S
C97 H95 0.959 . S
C97 H96 0.961 1_655 S
C97 H98 0.960 . S
H98 C97 0.960 . S
H99 N79 0.862 . S
O100 Co68 1.920 . S
O100 C73 1.299 . S
C101 O93 1.258 . S
C101 O94 1.266 . S
Co102 O105 1.970 1_565 S
Co102 N119 1.989 1_455 S
Co102 O127 1.967 . S
Co102 O134 1.920 . S
Co103 O106 1.966 . S
Co103 N112 2.022 . S
Co103 N120 1.993 1_455 S
Co103 O128 1.941 . S
C104 O105 1.258 . S
C104 O106 1.263 1_545 S
O105 Co102 1.970 1_545 S
O105 C104 1.258 . S
O106 Co103 1.966 . S
O106 C104 1.263 1_565 S
C107 O108 1.223 1_565 S
C107 O134 1.300 . S
O108 C107 1.223 1_545 S
C109 C111 1.400 . S
C109 N112 1.351 . S
C109 C114 1.501 1_565 S
C110 C111 1.379 1_655 S
C110 N113 1.337 1_655 S
C111 C109 1.400 . S
C111 C110 1.379 1_455 S
N112 Co103 2.022 . S
N112 C109 1.351 . S
N112 N113 1.365 . S
N113 C110 1.337 1_455 S
N113 N112 1.365 . S
N113 H133 0.862 1_455 S
C114 C109 1.501 1_545 S
C114 H115 0.961 . S
C114 H116 0.961 . S
C114 H117 0.960 . S
H115 C114 0.961 . S
H116 C114 0.961 . S
H117 C114 0.960 . S
C118 N119 1.342 . S
C118 C122 1.401 . S
C118 C123 1.499 . S
N119 Co102 1.989 1_655 S
N119 C118 1.342 . S
N119 N120 1.388 . S
N120 Co103 1.993 1_655 S
N120 N119 1.388 . S
N120 C121 1.346 . S
C121 N120 1.346 . S
C121 C122 1.396 . S
C121 C131 1.510 . S
C122 C118 1.401 . S
C122 C121 1.396 . S
C123 C118 1.499 . S
C123 H124 0.959 . S
C123 H125 0.960 1_565 S
C123 H126 0.961 . S
H124 C123 0.959 . S
H125 C123 0.960 1_545 S
H126 C123 0.961 . S
O127 Co102 1.967 . S
O127 C135 1.258 . S
O128 Co103 1.941 . S
O128 C135 1.266 . S
H129 C131 0.959 . S
H130 C131 0.961 1_545 S
C131 C121 1.510 . S
C131 H129 0.959 . S
C131 H130 0.961 1_565 S
C131 H132 0.960 . S
H132 C131 0.960 . S
H133 N113 0.862 1_655 S
O134 Co102 1.920 . S
O134 C107 1.300 . S
C135 O127 1.258 . S
C135 O128 1.266 . S
Co136 O139 1.970 . S
Co136 N153 1.989 . S
Co136 O161 1.967 . S
Co136 O168 1.920 . S
Co137 O140 1.966 . S
Co137 N146 2.022 . S
Co137 N154 1.993 . S
Co137 O162 1.941 . S
C138 O139 1.258 . S
C138 O140 1.263 . S
O139 Co136 1.970 . S
O139 C138 1.258 . S
O140 Co137 1.966 . S
O140 C138 1.263 . S
C141 O142 1.235 . S
C141 O168 1.289 . S
O142 C141 1.235 . S
C143 C145 1.400 . S
C143 N146 1.351 . S
C143 C148 1.501 . S
C144 C145 1.387 . S
C144 N147 1.341 . S
C145 C143 1.400 . S
C145 C144 1.387 . S
N146 Co137 2.022 . S
N146 C143 1.351 . S
N146 N147 1.365 . S
N147 C144 1.341 . S
N147 N146 1.365 . S
N147 H167 0.862 . S
C148 C143 1.501 . S
C148 H149 0.961 . S
C148 H150 0.961 . S
C148 H151 0.960 . S
H149 C148 0.961 . S
H150 C148 0.961 . S
H151 C148 0.960 . S
C152 N153 1.342 . S
C152 C156 1.401 . S
C152 C157 1.499 . S
N153 Co136 1.989 . S
N153 C152 1.342 . S
N153 N154 1.388 . S
N154 Co137 1.993 . S
N154 N153 1.388 . S
N154 C155 1.346 . S
C155 N154 1.346 . S
C155 C156 1.396 . S
C155 C165 1.510 . S
C156 C152 1.401 . S
C156 C155 1.396 . S
C157 C152 1.499 . S
C157 H158 0.959 . S
C157 H159 0.960 . S
C157 H160 0.961 . S
H158 C157 0.959 . S
H159 C157 0.960 . S
H160 C157 0.961 . S
O161 Co136 1.967 . S
O161 C169 1.258 . S
O162 Co137 1.941 . S
O162 C169 1.266 . S
H163 C165 0.959 . S
H164 C165 0.961 . S
C165 C155 1.510 . S
C165 H163 0.959 . S
C165 H164 0.961 . S
C165 H166 0.960 . S
H166 C165 0.960 . S
H167 N147 0.862 . S
O168 Co136 1.920 . S
O168 C141 1.289 . S
C169 O161 1.258 . S
C169 O162 1.266 . S
Co170 O173 1.970 . S
Co170 N187 1.989 1_455 S
Co170 O195 1.967 . S
Co170 O202 1.920 . S
Co171 O174 1.966 . S
Co171 N180 2.022 . S
Co171 N188 1.993 1_455 S
Co171 O196 1.941 . S
C172 O173 1.258 . S
C172 O174 1.263 . S
O173 Co170 1.970 . S
O173 C172 1.258 . S
O174 Co171 1.966 . S
O174 C172 1.263 . S
C175 O176 1.235 . S
C175 O202 1.289 . S
O176 C175 1.235 . S
C177 C179 1.400 . S
C177 N180 1.351 . S
C177 C182 1.501 . S
C178 C179 1.379 1_655 S
C178 N181 1.337 1_655 S
C179 C177 1.400 . S
C179 C178 1.379 1_455 S
N180 Co171 2.022 . S
N180 C177 1.351 . S
N180 N181 1.365 . S
N181 C178 1.337 1_455 S
N181 N180 1.365 . S
N181 H201 0.862 1_455 S
C182 C177 1.501 . S
C182 H183 0.961 . S
C182 H184 0.961 . S
C182 H185 0.960 . S
H183 C182 0.961 . S
H184 C182 0.961 . S
H185 C182 0.960 . S
C186 N187 1.342 . S
C186 C190 1.401 . S
C186 C191 1.499 . S
N187 Co170 1.989 1_655 S
N187 C186 1.342 . S
N187 N188 1.388 . S
N188 Co171 1.993 1_655 S
N188 N187 1.388 . S
N188 C189 1.346 . S
C189 N188 1.346 . S
C189 C190 1.396 . S
C189 C199 1.510 . S
C190 C186 1.401 . S
C190 C189 1.396 . S
C191 C186 1.499 . S
C191 H192 0.959 . S
C191 H193 0.960 . S
C191 H194 0.961 . S
H192 C191 0.959 . S
H193 C191 0.960 . S
H194 C191 0.961 . S
O195 Co170 1.967 . S
O195 C203 1.258 . S
O196 Co171 1.941 . S
O196 C203 1.266 . S
H197 C199 0.959 . S
H198 C199 0.961 . S
C199 C189 1.510 . S
C199 H197 0.959 . S
C199 H198 0.961 . S
C199 H200 0.960 . S
H200 C199 0.960 . S
H201 N181 0.862 1_655 S
O202 Co170 1.920 . S
O202 C175 1.289 . S
C203 O195 1.258 . S
C203 O196 1.266 . S
Co204 O207 1.970 1_655 S
Co204 N221 1.989 1_545 S
Co204 O229 1.967 . S
Co204 O236 1.920 . S
Co205 O208 1.966 . S
Co205 N214 2.022 . S
Co205 N222 1.993 1_545 S
Co205 O230 1.941 . S
C206 O207 1.258 . S
C206 O208 1.263 1_455 S
O207 Co204 1.970 1_455 S
O207 C206 1.258 . S
O208 Co205 1.966 . S
O208 C206 1.263 1_655 S
C209 O210 1.223 1_655 S
C209 O236 1.300 . S
O210 C209 1.223 1_455 S
C211 C213 1.400 . S
C211 N214 1.351 . S
C211 C216 1.501 1_655 S
C212 C213 1.379 1_565 S
C212 N215 1.337 1_565 S
C213 C211 1.400 . S
C213 C212 1.379 1_545 S
N214 Co205 2.022 . S
N214 C211 1.351 . S
N214 N215 1.365 . S
N215 C212 1.337 1_545 S
N215 N214 1.365 . S
N215 H235 0.862 1_545 S
C216 C211 1.501 1_455 S
C216 H217 0.961 . S
C216 H218 0.961 . S
C216 H219 0.960 . S
H217 C216 0.961 . S
H218 C216 0.961 . S
H219 C216 0.960 . S
C220 N221 1.342 . S
C220 C224 1.401 . S
C220 C225 1.499 . S
N221 Co204 1.989 1_565 S
N221 C220 1.342 . S
N221 N222 1.388 . S
N222 Co205 1.993 1_565 S
N222 N221 1.388 . S
N222 C223 1.346 . S
C223 N222 1.346 . S
C223 C224 1.396 . S
C223 C233 1.510 . S
C224 C220 1.401 . S
C224 C223 1.396 . S
C225 C220 1.499 . S
C225 H226 0.959 . S
C225 H227 0.960 1_655 S
C225 H228 0.961 . S
H226 C225 0.959 . S
H227 C225 0.960 1_455 S
H228 C225 0.961 . S
O229 Co204 1.967 . S
O229 C237 1.258 . S
O230 Co205 1.941 . S
O230 C237 1.266 . S
H231 C233 0.959 . S
H232 C233 0.961 1_455 S
C233 C223 1.510 . S
C233 H231 0.959 . S
C233 H232 0.961 1_655 S
C233 H234 0.960 . S
H234 C233 0.960 . S
H235 N215 0.862 1_565 S
O236 Co204 1.920 . S
O236 C209 1.300 . S
C237 O229 1.258 . S
C237 O230 1.266 . S
Co238 O241 1.970 1_565 S
Co238 N255 1.989 . S
Co238 O263 1.967 . S
Co238 O270 1.920 . S
Co239 O242 1.966 . S
Co239 N248 2.022 . S
Co239 N256 1.993 . S
Co239 O264 1.941 . S
C240 O241 1.258 . S
C240 O242 1.263 1_545 S
O241 Co238 1.970 1_545 S
O241 C240 1.258 . S
O242 Co239 1.966 . S
O242 C240 1.263 1_565 S
C243 O244 1.223 1_565 S
C243 O270 1.299 . S
O244 C243 1.223 1_545 S
C245 C247 1.400 . S
C245 N248 1.351 . S
C245 C250 1.501 1_565 S
C246 C247 1.387 . S
C246 N249 1.341 . S
C247 C245 1.400 . S
C247 C246 1.387 . S
N248 Co239 2.022 . S
N248 C245 1.351 . S
N248 N249 1.365 . S
N249 C246 1.341 . S
N249 N248 1.365 . S
N249 H269 0.862 . S
C250 C245 1.501 1_545 S
C250 H251 0.961 . S
C250 H252 0.961 . S
C250 H253 0.960 . S
H251 C250 0.961 . S
H252 C250 0.961 . S
H253 C250 0.960 . S
C254 N255 1.342 . S
C254 C258 1.401 . S
C254 C259 1.499 . S
N255 Co238 1.989 . S
N255 C254 1.342 . S
N255 N256 1.388 . S
N256 Co239 1.993 . S
N256 N255 1.388 . S
N256 C257 1.346 . S
C257 N256 1.346 . S
C257 C258 1.396 . S
C257 C267 1.510 . S
C258 C254 1.401 . S
C258 C257 1.396 . S
C259 C254 1.499 . S
C259 H260 0.959 . S
C259 H261 0.960 1_565 S
C259 H262 0.961 . S
H260 C259 0.959 . S
H261 C259 0.960 1_545 S
H262 C259 0.961 . S
O263 Co238 1.967 . S
O263 C271 1.258 . S
O264 Co239 1.941 . S
O264 C271 1.266 . S
H265 C267 0.959 . S
H266 C267 0.961 1_545 S
C267 C257 1.510 . S
C267 H265 0.959 . S
C267 H266 0.961 1_565 S
C267 H268 0.960 . S
H268 C267 0.960 . S
H269 N249 0.862 . S
O270 Co238 1.920 . S
O270 C243 1.299 . S
C271 O263 1.258 . S
C271 O264 1.266 . S
Co272 O275 1.970 . S
Co272 N289 1.989 1_565 S
Co272 O297 1.967 . S
Co272 O304 1.920 . S
Co273 O276 1.966 . S
Co273 N282 2.022 . S
Co273 N290 1.993 1_565 S
Co273 O298 1.941 . S
C274 O275 1.258 . S
C274 O276 1.263 . S
O275 Co272 1.970 . S
O275 C274 1.258 . S
O276 Co273 1.966 . S
O276 C274 1.263 . S
C277 O278 1.235 . S
C277 O304 1.289 . S
O278 C277 1.235 . S
C279 C281 1.400 . S
C279 N282 1.351 . S
C279 C284 1.501 . S
C280 C281 1.387 . S
C280 N283 1.341 . S
C281 C279 1.400 . S
C281 C280 1.387 . S
N282 Co273 2.022 . S
N282 C279 1.351 . S
N282 N283 1.365 . S
N283 C280 1.341 . S
N283 N282 1.365 . S
N283 H303 0.862 . S
C284 C279 1.501 . S
C284 H285 0.961 . S
C284 H286 0.961 . S
C284 H287 0.960 . S
H285 C284 0.961 . S
H286 C284 0.961 . S
H287 C284 0.960 . S
C288 N289 1.342 . S
C288 C292 1.401 . S
C288 C293 1.499 . S
N289 Co272 1.989 1_545 S
N289 C288 1.342 . S
N289 N290 1.388 . S
N290 Co273 1.993 1_545 S
N290 N289 1.388 . S
N290 C291 1.346 . S
C291 N290 1.346 . S
C291 C292 1.396 . S
C291 C301 1.510 . S
C292 C288 1.401 . S
C292 C291 1.396 . S
C293 C288 1.499 . S
C293 H294 0.959 . S
C293 H295 0.960 . S
C293 H296 0.961 . S
H294 C293 0.959 . S
H295 C293 0.960 . S
H296 C293 0.961 . S
O297 Co272 1.967 . S
O297 C305 1.258 . S
O298 Co273 1.941 . S
O298 C305 1.266 . S
H299 C301 0.959 . S
H300 C301 0.961 . S
C301 C291 1.510 . S
C301 H299 0.959 . S
C301 H300 0.961 . S
C301 H302 0.960 . S
H302 C301 0.960 . S
H303 N283 0.862 . S
O304 Co272 1.920 . S
O304 C277 1.289 . S
C305 O297 1.258 . S
C305 O298 1.266 . S
Co306 O309 1.970 . S
Co306 N323 1.989 . S
Co306 O331 1.967 . S
Co306 O338 1.920 . S
Co307 O310 1.966 . S
Co307 N316 2.022 . S
Co307 N324 1.993 . S
Co307 O332 1.941 . S
C308 O309 1.258 . S
C308 O310 1.263 . S
O309 Co306 1.970 . S
O309 C308 1.258 . S
O310 Co307 1.966 . S
O310 C308 1.263 . S
C311 O312 1.235 . S
C311 O338 1.289 . S
O312 C311 1.235 . S
C313 C315 1.400 . S
C313 N316 1.351 . S
C313 C318 1.501 . S
C314 C315 1.387 . S
C314 N317 1.341 . S
C315 C313 1.400 . S
C315 C314 1.387 . S
N316 Co307 2.022 . S
N316 C313 1.351 . S
N316 N317 1.365 . S
N317 C314 1.341 . S
N317 N316 1.365 . S
N317 H337 0.862 . S
C318 C313 1.501 . S
C318 H319 0.961 . S
C318 H320 0.961 . S
C318 H321 0.960 . S
H319 C318 0.961 . S
H320 C318 0.961 . S
H321 C318 0.960 . S
C322 N323 1.342 . S
C322 C326 1.401 . S
C322 C327 1.499 . S
N323 Co306 1.989 . S
N323 C322 1.342 . S
N323 N324 1.388 . S
N324 Co307 1.993 . S
N324 N323 1.388 . S
N324 C325 1.346 . S
C325 N324 1.346 . S
C325 C326 1.396 . S
C325 C335 1.510 . S
C326 C322 1.401 . S
C326 C325 1.396 . S
C327 C322 1.499 . S
C327 H328 0.959 . S
C327 H329 0.960 . S
C327 H330 0.961 . S
H328 C327 0.959 . S
H329 C327 0.960 . S
H330 C327 0.961 . S
O331 Co306 1.967 . S
O331 C339 1.258 . S
O332 Co307 1.941 . S
O332 C339 1.266 . S
H333 C335 0.959 . S
H334 C335 0.961 . S
C335 C325 1.510 . S
C335 H333 0.959 . S
C335 H334 0.961 . S
C335 H336 0.960 . S
H336 C335 0.960 . S
H337 N317 0.862 . S
O338 Co306 1.920 . S
O338 C311 1.289 . S
C339 O331 1.258 . S
C339 O332 1.266 . S
Co340 O343 1.970 . S
Co340 N357 1.989 . S
Co340 O365 1.967 . S
Co340 O372 1.920 . S
Co341 O344 1.966 . S
Co341 N350 2.022 . S
Co341 N358 1.993 . S
Co341 O366 1.941 . S
C342 O343 1.258 . S
C342 O344 1.263 . S
O343 Co340 1.970 . S
O343 C342 1.258 . S
O344 Co341 1.966 . S
O344 C342 1.263 . S
C345 O346 1.235 1_455 S
C345 O372 1.289 . S
O346 C345 1.235 1_655 S
C347 C349 1.400 . S
C347 N350 1.351 . S
C347 C352 1.501 1_455 S
C348 C349 1.387 . S
C348 N351 1.341 . S
C349 C347 1.400 . S
C349 C348 1.387 . S
N350 Co341 2.022 . S
N350 C347 1.351 . S
N350 N351 1.365 . S
N351 C348 1.341 . S
N351 N350 1.365 . S
N351 H371 0.862 . S
C352 C347 1.501 1_655 S
C352 H353 0.961 . S
C352 H354 0.961 . S
C352 H355 0.960 . S
H353 C352 0.961 . S
H354 C352 0.961 . S
H355 C352 0.960 . S
C356 N357 1.342 . S
C356 C360 1.401 . S
C356 C361 1.499 . S
N357 Co340 1.989 . S
N357 C356 1.342 . S
N357 N358 1.388 . S
N358 Co341 1.993 . S
N358 N357 1.388 . S
N358 C359 1.346 . S
C359 N358 1.346 . S
C359 C360 1.396 . S
C359 C369 1.510 . S
C360 C356 1.401 . S
C360 C359 1.396 . S
C361 C356 1.499 . S
C361 H362 0.959 . S
C361 H363 0.960 . S
C361 H364 0.961 . S
H362 C361 0.959 . S
H363 C361 0.960 . S
H364 C361 0.961 . S
O365 Co340 1.967 . S
O365 C373 1.258 . S
O366 Co341 1.941 . S
O366 C373 1.266 . S
H367 C369 0.959 . S
H368 C369 0.961 1_655 S
C369 C359 1.510 . S
C369 H367 0.959 . S
C369 H368 0.961 1_455 S
C369 H370 0.960 . S
H370 C369 0.960 . S
H371 N351 0.862 . S
O372 Co340 1.920 . S
O372 C345 1.289 . S
C373 O365 1.258 . S
C373 O366 1.266 . S
Co374 O377 1.970 . S
Co374 N391 1.989 1_655 S
Co374 O399 1.967 . S
Co374 O406 1.920 . S
Co375 O378 1.966 . S
Co375 N384 2.022 . S
Co375 N392 1.993 1_655 S
Co375 O400 1.941 . S
C376 O377 1.258 . S
C376 O378 1.263 . S
O377 Co374 1.970 . S
O377 C376 1.258 . S
O378 Co375 1.966 . S
O378 C376 1.263 . S
C379 O380 1.235 1_545 S
C379 O406 1.289 . S
O380 C379 1.235 1_565 S
C381 C383 1.400 . S
C381 N384 1.351 . S
C381 C386 1.501 1_545 S
C382 C383 1.387 . S
C382 N385 1.341 . S
C383 C381 1.400 . S
C383 C382 1.387 . S
N384 Co375 2.022 . S
N384 C381 1.351 . S
N384 N385 1.365 . S
N385 C382 1.341 . S
N385 N384 1.365 . S
N385 H405 0.862 . S
C386 C381 1.501 1_565 S
C386 H387 0.961 . S
C386 H388 0.961 . S
C386 H389 0.960 . S
H387 C386 0.961 . S
H388 C386 0.961 . S
H389 C386 0.960 . S
C390 N391 1.342 . S
C390 C394 1.401 . S
C390 C395 1.499 . S
N391 Co374 1.989 1_455 S
N391 C390 1.342 . S
N391 N392 1.388 . S
N392 Co375 1.993 1_455 S
N392 N391 1.388 . S
N392 C393 1.346 . S
C393 N392 1.346 . S
C393 C394 1.396 . S
C393 C403 1.510 . S
C394 C390 1.401 . S
C394 C393 1.396 . S
C395 C390 1.499 . S
C395 H396 0.959 . S
C395 H397 0.960 . S
C395 H398 0.961 . S
H396 C395 0.959 . S
H397 C395 0.960 . S
H398 C395 0.961 . S
O399 Co374 1.967 . S
O399 C407 1.258 . S
O400 Co375 1.941 . S
O400 C407 1.266 . S
H401 C403 0.959 . S
H402 C403 0.961 1_565 S
C403 C393 1.510 . S
C403 H401 0.959 . S
C403 H402 0.961 1_545 S
C403 H404 0.960 . S
H404 C403 0.960 . S
H405 N385 0.862 . S
O406 Co374 1.920 . S
O406 C379 1.289 . S
C407 O399 1.258 . S
C407 O400 1.266 . S
Co408 O411 1.970 . S
Co408 N425 1.989 . S
Co408 O433 1.967 . S
Co408 O440 1.920 . S
Co409 O412 1.966 . S
Co409 N418 2.022 . S
Co409 N426 1.993 . S
Co409 O434 1.941 . S
C410 O411 1.258 . S
C410 O412 1.263 . S
O411 Co408 1.970 . S
O411 C410 1.258 . S
O412 Co409 1.966 . S
O412 C410 1.263 . S
C413 O414 1.235 . S
C413 O440 1.289 . S
O414 C413 1.235 . S
C415 C417 1.400 . S
C415 N418 1.351 . S
C415 C420 1.501 . S
C416 C417 1.387 . S
C416 N419 1.341 . S
C417 C415 1.400 . S
C417 C416 1.387 . S
N418 Co409 2.022 . S
N418 C415 1.351 . S
N418 N419 1.365 . S
N419 C416 1.341 . S
N419 N418 1.365 . S
N419 H439 0.862 . S
C420 C415 1.501 . S
C420 H421 0.961 . S
C420 H422 0.961 . S
C420 H423 0.960 . S
H421 C420 0.961 . S
H422 C420 0.961 . S
H423 C420 0.960 . S
C424 N425 1.342 . S
C424 C428 1.401 . S
C424 C429 1.499 . S
N425 Co408 1.989 . S
N425 C424 1.342 . S
N425 N426 1.388 . S
N426 Co409 1.993 . S
N426 N425 1.388 . S
N426 C427 1.346 . S
C427 N426 1.346 . S
C427 C428 1.396 . S
C427 C437 1.510 . S
C428 C424 1.401 . S
C428 C427 1.396 . S
C429 C424 1.499 . S
C429 H430 0.959 . S
C429 H431 0.960 . S
C429 H432 0.961 . S
H430 C429 0.959 . S
H431 C429 0.960 . S
H432 C429 0.961 . S
O433 Co408 1.967 . S
O433 C441 1.258 . S
O434 Co409 1.941 . S
O434 C441 1.266 . S
H435 C437 0.959 . S
H436 C437 0.961 . S
C437 C427 1.510 . S
C437 H435 0.959 . S
C437 H436 0.961 . S
C437 H438 0.960 . S
H438 C437 0.960 . S
H439 N419 0.862 . S
O440 Co408 1.920 . S
O440 C413 1.289 . S
C441 O433 1.258 . S
C441 O434 1.266 . S
Co442 O445 1.970 . S
Co442 N459 1.989 1_655 S
Co442 O467 1.967 . S
Co442 O474 1.920 . S
Co443 O446 1.966 . S
Co443 N452 2.022 . S
Co443 N460 1.993 1_655 S
Co443 O468 1.941 . S
C444 O445 1.258 . S
C444 O446 1.263 . S
O445 Co442 1.970 . S
O445 C444 1.258 . S
O446 Co443 1.966 . S
O446 C444 1.263 . S
C447 O448 1.235 . S
C447 O474 1.289 . S
O448 C447 1.235 . S
C449 C451 1.400 . S
C449 N452 1.351 . S
C449 C454 1.501 . S
C450 C451 1.387 . S
C450 N453 1.341 . S
C451 C449 1.400 . S
C451 C450 1.387 . S
N452 Co443 2.022 . S
N452 C449 1.351 . S
N452 N453 1.365 . S
N453 C450 1.341 . S
N453 N452 1.365 . S
N453 H473 0.862 . S
C454 C449 1.501 . S
C454 H455 0.961 . S
C454 H456 0.961 . S
C454 H457 0.960 . S
H455 C454 0.961 . S
H456 C454 0.961 . S
H457 C454 0.960 . S
C458 N459 1.342 . S
C458 C462 1.401 . S
C458 C463 1.499 . S
N459 Co442 1.989 1_455 S
N459 C458 1.342 . S
N459 N460 1.388 . S
N460 Co443 1.993 1_455 S
N460 N459 1.388 . S
N460 C461 1.346 . S
C461 N460 1.346 . S
C461 C462 1.396 . S
C461 C471 1.510 . S
C462 C458 1.401 . S
C462 C461 1.396 . S
C463 C458 1.499 . S
C463 H464 0.959 . S
C463 H465 0.960 . S
C463 H466 0.961 . S
H464 C463 0.959 . S
H465 C463 0.960 . S
H466 C463 0.961 . S
O467 Co442 1.967 . S
O467 C475 1.258 . S
O468 Co443 1.941 . S
O468 C475 1.266 . S
H469 C471 0.959 . S
H470 C471 0.961 . S
C471 C461 1.510 . S
C471 H469 0.959 . S
C471 H470 0.961 . S
C471 H472 0.960 . S
H472 C471 0.960 . S
H473 N453 0.862 . S
O474 Co442 1.920 . S
O474 C447 1.289 . S
C475 O467 1.258 . S
C475 O468 1.266 . S
Co476 O479 1.970 . S
Co476 N493 1.989 1_565 S
Co476 O501 1.967 . S
Co476 O508 1.920 . S
Co477 O480 1.966 . S
Co477 N486 2.022 . S
Co477 N494 1.993 1_565 S
Co477 O502 1.941 . S
C478 O479 1.258 . S
C478 O480 1.263 . S
O479 Co476 1.970 . S
O479 C478 1.258 . S
O480 Co477 1.966 . S
O480 C478 1.263 . S
C481 O482 1.235 1_455 S
C481 O508 1.289 . S
O482 C481 1.235 1_655 S
C483 C485 1.400 . S
C483 N486 1.351 . S
C483 C488 1.501 1_455 S
C484 C485 1.387 . S
C484 N487 1.341 . S
C485 C483 1.400 . S
C485 C484 1.387 . S
N486 Co477 2.022 . S
N486 C483 1.351 . S
N486 N487 1.365 . S
N487 C484 1.341 . S
N487 N486 1.365 . S
N487 H507 0.862 . S
C488 C483 1.501 1_655 S
C488 H489 0.961 . S
C488 H490 0.961 . S
C488 H491 0.960 . S
H489 C488 0.961 . S
H490 C488 0.961 . S
H491 C488 0.960 . S
C492 N493 1.342 . S
C492 C496 1.401 . S
C492 C497 1.499 . S
N493 Co476 1.989 1_545 S
N493 C492 1.342 . S
N493 N494 1.388 . S
N494 Co477 1.993 1_545 S
N494 N493 1.388 . S
N494 C495 1.346 . S
C495 N494 1.346 . S
C495 C496 1.396 . S
C495 C505 1.510 . S
C496 C492 1.401 . S
C496 C495 1.396 . S
C497 C492 1.499 . S
C497 H498 0.959 . S
C497 H499 0.960 . S
C497 H500 0.961 . S
H498 C497 0.959 . S
H499 C497 0.960 . S
H500 C497 0.961 . S
O501 Co476 1.967 . S
O501 C509 1.258 . S
O502 Co477 1.941 . S
O502 C509 1.266 . S
H503 C505 0.959 . S
H504 C505 0.961 1_655 S
C505 C495 1.510 . S
C505 H503 0.959 . S
C505 H504 0.961 1_455 S
C505 H506 0.960 . S
H506 C505 0.960 . S
H507 N487 0.862 . S
O508 Co476 1.920 . S
O508 C481 1.289 . S
C509 O501 1.258 . S
C509 O502 1.266 . S
Co510 O513 1.970 . S
Co510 N527 1.989 . S
Co510 O535 1.967 . S
Co510 O542 1.920 . S
Co511 O514 1.966 . S
Co511 N520 2.022 . S
Co511 N528 1.993 . S
Co511 O536 1.941 . S
C512 O513 1.258 . S
C512 O514 1.263 . S
O513 Co510 1.970 . S
O513 C512 1.258 . S
O514 Co511 1.966 . S
O514 C512 1.263 . S
C515 O516 1.235 1_545 S
C515 O542 1.289 . S
O516 C515 1.235 1_565 S
C517 C519 1.400 . S
C517 N520 1.351 . S
C517 C522 1.501 1_545 S
C518 C519 1.387 . S
C518 N521 1.341 . S
C519 C517 1.400 . S
C519 C518 1.387 . S
N520 Co511 2.022 . S
N520 C517 1.351 . S
N520 N521 1.365 . S
N521 C518 1.341 . S
N521 N520 1.365 . S
N521 H541 0.862 . S
C522 C517 1.501 1_565 S
C522 H523 0.961 . S
C522 H524 0.961 . S
C522 H525 0.960 . S
H523 C522 0.961 . S
H524 C522 0.961 . S
H525 C522 0.960 . S
C526 N527 1.342 . S
C526 C530 1.401 . S
C526 C531 1.499 . S
N527 Co510 1.989 . S
N527 C526 1.342 . S
N527 N528 1.388 . S
N528 Co511 1.993 . S
N528 N527 1.388 . S
N528 C529 1.346 . S
C529 N528 1.346 . S
C529 C530 1.396 . S
C529 C539 1.510 . S
C530 C526 1.401 . S
C530 C529 1.396 . S
C531 C526 1.499 . S
C531 H532 0.959 . S
C531 H533 0.960 . S
C531 H534 0.961 . S
H532 C531 0.959 . S
H533 C531 0.960 . S
H534 C531 0.961 . S
O535 Co510 1.967 . S
O535 C543 1.258 . S
O536 Co511 1.941 . S
O536 C543 1.266 . S
H537 C539 0.959 . S
H538 C539 0.961 1_565 S
C539 C529 1.510 . S
C539 H537 0.959 . S
C539 H538 0.961 1_545 S
C539 H540 0.960 . S
H540 C539 0.960 . S
H541 N521 0.862 . S
O542 Co510 1.920 . S
O542 C515 1.289 . S
C543 O535 1.258 . S
C543 O536 1.266 . S
C544 C545 1.387 . S
C544 H548 0.950 . S
C544 C553 1.390 . S
C545 C544 1.387 . S
C545 C547 1.387 1_545 S
H546 C553 0.950 . S
C547 C545 1.387 1_565 S
C547 C549 1.390 . S
C547 H551 0.950 . S
H548 C544 0.950 . S
C549 C547 1.390 . S
C549 C550 1.387 1_565 S
C549 H552 0.950 . S
C550 C549 1.387 1_545 S
C550 C553 1.387 . S
H551 C547 0.950 . S
H552 C549 0.950 . S
C553 C544 1.390 . S
C553 H546 0.950 . S
C553 C550 1.387 . S
C554 C555 1.387 . S
C554 H558 0.950 . S
C554 C563 1.390 . S
C555 C554 1.387 . S
C555 C557 1.387 . S
H556 C563 0.950 . S
C557 C555 1.387 . S
C557 C559 1.390 . S
C557 H561 0.950 . S
H558 C554 0.950 . S
C559 C557 1.390 . S
C559 C560 1.387 . S
C559 H562 0.950 . S
C560 C559 1.387 . S
C560 C563 1.387 . S
H561 C557 0.950 . S
H562 C559 0.950 . S
C563 C554 1.390 . S
C563 H556 0.950 . S
C563 C560 1.387 . S
C564 C565 1.387 . S
C564 H568 0.950 . S
C564 C573 1.390 . S
C565 C564 1.387 . S
C565 C567 1.387 1_455 S
H566 C573 0.950 . S
C567 C565 1.387 1_655 S
C567 C569 1.390 1_655 S
C567 H571 0.950 . S
H568 C564 0.950 . S
C569 C567 1.390 1_455 S
C569 C570 1.387 . S
C569 H572 0.951 . S
C570 C569 1.387 . S
C570 C573 1.387 . S
H571 C567 0.950 . S
H572 C569 0.951 . S
C573 C564 1.390 . S
C573 H566 0.950 . S
C573 C570 1.387 . S
C574 C575 1.387 1_665 S
C574 H578 0.950 . S
C574 C583 1.390 1_565 S
C575 C574 1.387 1_445 S
C575 C577 1.387 . S
H576 C583 0.950 . S
C577 C575 1.387 . S
C577 C579 1.390 . S
C577 H581 0.950 . S
H578 C574 0.950 . S
C579 C577 1.390 . S
C579 C580 1.387 . S
C579 H582 0.950 . S
C580 C579 1.387 . S
C580 C583 1.387 1_455 S
H581 C577 0.950 . S
H582 C579 0.950 . S
C583 C574 1.390 1_545 S
C583 H576 0.950 . S
C583 C580 1.387 1_655 S
C584 C585 1.387 1_545 S
C584 H588 0.950 . S
C584 C593 1.390 . S
C585 C584 1.387 1_565 S
C585 C587 1.387 . S
H586 C593 0.950 . S
C587 C585 1.387 . S
C587 C589 1.390 . S
C587 H591 0.950 . S
H588 C584 0.950 . S
C589 C587 1.390 . S
C589 C590 1.387 1_565 S
C589 H592 0.950 . S
C590 C589 1.387 1_545 S
C590 C593 1.387 . S
H591 C587 0.950 . S
H592 C589 0.950 . S
C593 C584 1.390 . S
C593 H586 0.950 . S
C593 C590 1.387 . S
C594 C595 1.387 . S
C594 H598 0.950 . S
C594 C603 1.390 . S
C595 C594 1.387 . S
C595 C597 1.387 . S
H596 C603 0.950 . S
C597 C595 1.387 . S
C597 C599 1.390 . S
C597 H601 0.950 . S
H598 C594 0.950 . S
C599 C597 1.390 . S
C599 C600 1.387 . S
C599 H602 0.950 . S
C600 C599 1.387 . S
C600 C603 1.387 . S
H601 C597 0.950 . S
H602 C599 0.950 . S
C603 C594 1.390 . S
C603 H596 0.950 . S
C603 C600 1.387 . S
C604 C605 1.387 1_655 S
C604 H608 0.950 . S
C604 C613 1.390 . S
C605 C604 1.387 1_455 S
C605 C607 1.387 . S
H606 C613 0.950 . S
C607 C605 1.387 . S
C607 C609 1.390 . S
C607 H611 0.950 . S
H608 C604 0.950 . S
C609 C607 1.390 . S
C609 C610 1.387 1_455 S
C609 H612 0.950 . S
C610 C609 1.387 1_655 S
C610 C613 1.387 . S
H611 C607 0.950 . S
H612 C609 0.950 . S
C613 C604 1.390 . S
C613 H606 0.950 . S
C613 C610 1.387 . S
C614 C615 1.387 1_655 S
C614 H618 0.950 . S
C614 C623 1.390 . S
C615 C614 1.387 1_455 S
C615 C617 1.387 1_565 S
H616 C623 0.950 . S
C617 C615 1.387 1_545 S
C617 C619 1.390 1_455 S
C617 H621 0.950 . S
H618 C614 0.950 . S
C619 C617 1.390 1_655 S
C619 C620 1.387 . S
C619 H622 0.950 . S
C620 C619 1.387 . S
C620 C623 1.387 1_545 S
H621 C617 0.950 . S
H622 C619 0.950 . S
C623 C614 1.390 . S
C623 H616 0.950 . S
C623 C620 1.387 1_565 S
C624 C625 1.387 . S
C624 H628 0.950 . S
C624 C633 1.390 . S
C625 C624 1.387 . S
C625 C627 1.387 . S
H626 C633 0.950 . S
C627 C625 1.387 . S
C627 C629 1.390 . S
C627 H631 0.950 . S
H628 C624 0.950 . S
C629 C627 1.390 . S
C629 C630 1.387 . S
C629 H632 0.950 . S
C630 C629 1.387 . S
C630 C633 1.387 . S
H631 C627 0.950 . S
H632 C629 0.950 . S
C633 C624 1.390 . S
C633 H626 0.950 . S
C633 C630 1.387 . S
C634 C635 1.387 . S
C634 H638 0.950 . S
C634 C643 1.390 . S
C635 C634 1.387 . S
C635 C637 1.387 . S
H636 C643 0.950 . S
C637 C635 1.387 . S
C637 C639 1.390 . S
C637 H641 0.950 . S
H638 C634 0.950 . S
C639 C637 1.390 . S
C639 C640 1.387 . S
C639 H642 0.950 . S
C640 C639 1.387 . S
C640 C643 1.387 . S
H641 C637 0.950 . S
H642 C639 0.950 . S
C643 C634 1.390 . S
C643 H636 0.950 . S
C643 C640 1.387 . S
C644 C645 1.387 . S
C644 H648 0.950 . S
C644 C653 1.390 . S
C645 C644 1.387 . S
C645 C647 1.387 . S
H646 C653 0.950 . S
C647 C645 1.387 . S
C647 C649 1.390 . S
C647 H651 0.950 . S
H648 C644 0.950 . S
C649 C647 1.390 . S
C649 C650 1.387 . S
C649 H652 0.950 . S
C650 C649 1.387 . S
C650 C653 1.387 . S
H651 C647 0.950 . S
H652 C649 0.950 . S
C653 C644 1.390 . S
C653 H646 0.950 . S
C653 C650 1.387 . S
C654 C655 1.387 . S
C654 H658 0.950 . S
C654 C663 1.390 . S
C655 C654 1.387 . S
C655 C657 1.387 . S
H656 C663 0.950 . S
C657 C655 1.387 . S
C657 C659 1.390 . S
C657 H661 0.950 . S
H658 C654 0.950 . S
C659 C657 1.390 . S
C659 C660 1.387 . S
C659 H662 0.950 . S
C660 C659 1.387 . S
C660 C663 1.387 . S
H661 C657 0.950 . S
H662 C659 0.950 . S
C663 C654 1.390 . S
C663 H656 0.950 . S
C663 C660 1.387 . S
C664 C665 1.387 . S
C664 H668 0.950 . S
C664 C673 1.390 . S
C665 C664 1.387 . S
C665 C667 1.387 . S
H666 C673 0.950 . S
C667 C665 1.387 . S
C667 C669 1.390 . S
C667 H671 0.950 . S
H668 C664 0.950 . S
C669 C667 1.390 . S
C669 C670 1.387 . S
C669 H672 0.950 . S
C670 C669 1.387 . S
C670 C673 1.387 . S
H671 C667 0.950 . S
H672 C669 0.950 . S
C673 C664 1.390 . S
C673 H666 0.950 . S
C673 C670 1.387 . S
C674 C675 1.387 . S
C674 H678 0.950 . S
C674 C683 1.390 . S
C675 C674 1.387 . S
C675 C677 1.387 . S
H676 C683 0.950 . S
C677 C675 1.387 . S
C677 C679 1.390 . S
C677 H681 0.950 . S
H678 C674 0.950 . S
C679 C677 1.390 . S
C679 C680 1.387 . S
C679 H682 0.950 . S
C680 C679 1.387 . S
C680 C683 1.387 . S
H681 C677 0.950 . S
H682 C679 0.950 . S
C683 C674 1.390 . S
C683 H676 0.950 . S
C683 C680 1.387 . S
C684 C685 1.387 . S
C684 H688 0.950 . S
C684 C693 1.390 . S
C685 C684 1.387 . S
C685 C687 1.387 . S
H686 C693 0.950 . S
C687 C685 1.387 . S
C687 C689 1.390 . S
C687 H691 0.950 . S
H688 C684 0.950 . S
C689 C687 1.390 . S
C689 C690 1.387 . S
C689 H692 0.950 . S
C690 C689 1.387 . S
C690 C693 1.387 . S
H691 C687 0.950 . S
H692 C689 0.950 . S
C693 C684 1.390 . S
C693 H686 0.950 . S
C693 C690 1.387 . S
C694 C695 1.387 . S
C694 H698 0.950 . S
C694 C703 1.390 . S
C695 C694 1.387 . S
C695 C697 1.387 . S
H696 C703 0.950 . S
C697 C695 1.387 . S
C697 C699 1.390 . S
C697 H701 0.950 . S
H698 C694 0.950 . S
C699 C697 1.390 . S
C699 C700 1.387 . S
C699 H702 0.950 . S
C700 C699 1.387 . S
C700 C703 1.387 . S
H701 C697 0.950 . S
H702 C699 0.950 . S
C703 C694 1.390 . S
C703 H696 0.950 . S
C703 C700 1.387 . S
C704 C705 1.387 . S
C704 H708 0.950 . S
C704 C713 1.390 . S
C705 C704 1.387 . S
C705 C707 1.387 . S
H706 C713 0.950 . S
C707 C705 1.387 . S
C707 C709 1.390 . S
C707 H711 0.950 . S
H708 C704 0.950 . S
C709 C707 1.390 . S
C709 C710 1.387 . S
C709 H712 0.950 . S
C710 C709 1.387 . S
C710 C713 1.387 . S
H711 C707 0.950 . S
H712 C709 0.950 . S
C713 C704 1.390 . S
C713 H706 0.950 . S
C713 C710 1.387 . S
C714 C715 1.387 . S
C714 H718 0.950 . S
C714 C723 1.390 . S
C715 C714 1.387 . S
C715 C717 1.387 . S
H716 C723 0.950 . S
C717 C715 1.387 . S
C717 C719 1.390 . S
C717 H721 0.950 . S
H718 C714 0.950 . S
C719 C717 1.390 . S
C719 C720 1.387 . S
C719 H722 0.950 . S
C720 C719 1.387 . S
C720 C723 1.387 . S
H721 C717 0.950 . S
H722 C719 0.950 . S
C723 C714 1.390 . S
C723 H716 0.950 . S
C723 C720 1.387 . S
C724 C725 1.387 1_455 S
C724 H728 0.950 . S
C724 C733 1.390 . S
C725 C724 1.387 1_655 S
C725 C727 1.387 . S
H726 C733 0.950 . S
C727 C725 1.387 . S
C727 C729 1.390 . S
C727 H731 0.950 . S
H728 C724 0.950 . S
C729 C727 1.390 . S
C729 C730 1.387 . S
C729 H732 0.950 . S
C730 C729 1.387 . S
C730 C733 1.387 1_655 S
H731 C727 0.950 . S
H732 C729 0.950 . S
C733 C724 1.390 . S
C733 H726 0.950 . S
C733 C730 1.387 1_455 S
C734 C735 1.387 . S
C734 H738 0.950 . S
C734 C743 1.390 . S
C735 C734 1.387 . S
C735 C737 1.387 1_565 S
H736 C743 0.950 . S
C737 C735 1.387 1_545 S
C737 C739 1.390 . S
C737 H741 0.950 . S
H738 C734 0.950 . S
C739 C737 1.390 . S
C739 C740 1.387 1_545 S
C739 H742 0.950 . S
C740 C739 1.387 1_565 S
C740 C743 1.387 . S
H741 C737 0.950 . S
H742 C739 0.950 . S
C743 C734 1.390 . S
C743 H736 0.950 . S
C743 C740 1.387 . S
C744 C745 1.387 . S
C744 H748 0.950 . S
C744 C753 1.390 . S
C745 C744 1.387 . S
C745 C747 1.387 . S
H746 C753 0.950 . S
C747 C745 1.387 . S
C747 C749 1.390 . S
C747 H751 0.950 . S
H748 C744 0.950 . S
C749 C747 1.390 . S
C749 C750 1.387 . S
C749 H752 0.950 . S
C750 C749 1.387 . S
C750 C753 1.387 . S
H751 C747 0.950 . S
H752 C749 0.950 . S
C753 C744 1.390 . S
C753 H746 0.950 . S
C753 C750 1.387 . S
C754 C755 1.387 . S
C754 H758 0.950 . S
C754 C763 1.390 . S
C755 C754 1.387 . S
C755 C757 1.387 . S
H756 C763 0.950 . S
C757 C755 1.387 . S
C757 C759 1.390 . S
C757 H761 0.950 . S
H758 C754 0.950 . S
C759 C757 1.390 . S
C759 C760 1.387 . S
C759 H762 0.950 . S
C760 C759 1.387 . S
C760 C763 1.387 . S
H761 C757 0.950 . S
H762 C759 0.950 . S
C763 C754 1.390 . S
C763 H756 0.950 . S
C763 C760 1.387 . S
C764 C765 1.387 . S
C764 H768 0.950 . S
C764 C773 1.390 . S
C765 C764 1.387 . S
C765 C767 1.387 1_655 S
H766 C773 0.950 . S
C767 C765 1.387 1_455 S
C767 C769 1.390 . S
C767 H771 0.950 . S
H768 C764 0.950 . S
C769 C767 1.390 . S
C769 C770 1.387 1_455 S
C769 H772 0.950 . S
C770 C769 1.387 1_655 S
C770 C773 1.387 . S
H771 C767 0.950 . S
H772 C769 0.950 . S
C773 C764 1.390 . S
C773 H766 0.950 . S
C773 C770 1.387 . S
C774 C775 1.387 . S
C774 H778 0.950 . S
C774 C783 1.390 . S
C775 C774 1.387 . S
C775 C777 1.387 1_565 S
H776 C783 0.950 . S
C777 C775 1.387 1_545 S
C777 C779 1.390 . S
C777 H781 0.950 . S
H778 C774 0.950 . S
C779 C777 1.390 . S
C779 C780 1.387 1_545 S
C779 H782 0.950 . S
C780 C779 1.387 1_565 S
C780 C783 1.387 . S
H781 C777 0.950 . S
H782 C779 0.950 . S
C783 C774 1.390 . S
C783 H776 0.950 . S
C783 C780 1.387 . S
C784 C785 1.387 . S
C784 H788 0.950 . S
C784 C793 1.390 . S
C785 C784 1.387 . S
C785 C787 1.387 . S
H786 C793 0.950 . S
C787 C785 1.387 . S
C787 C789 1.390 . S
C787 H791 0.950 . S
H788 C784 0.950 . S
C789 C787 1.390 . S
C789 C790 1.387 . S
C789 H792 0.950 . S
C790 C789 1.387 . S
C790 C793 1.387 . S
H791 C787 0.950 . S
H792 C789 0.950 . S
C793 C784 1.390 . S
C793 H786 0.950 . S
C793 C790 1.387 . S
C794 C795 1.387 . S
C794 H798 0.950 . S
C794 C803 1.390 . S
C795 C794 1.387 . S
C795 C797 1.387 . S
H796 C803 0.950 . S
C797 C795 1.387 . S
C797 C799 1.390 . S
C797 H801 0.950 . S
H798 C794 0.950 . S
C799 C797 1.390 . S
C799 C800 1.387 . S
C799 H802 0.950 . S
C800 C799 1.387 . S
C800 C803 1.387 . S
H801 C797 0.950 . S
H802 C799 0.950 . S
C803 C794 1.390 . S
C803 H796 0.950 . S
C803 C800 1.387 . S
C804 C805 1.387 . S
C804 H808 0.950 . S
C804 C813 1.390 . S
C805 C804 1.387 . S
C805 C807 1.387 1_455 S
H806 C813 0.950 . S
C807 C805 1.387 1_655 S
C807 C809 1.390 . S
C807 H811 0.950 . S
H808 C804 0.950 . S
C809 C807 1.390 . S
C809 C810 1.387 1_655 S
C809 H812 0.950 . S
C810 C809 1.387 1_455 S
C810 C813 1.387 . S
H811 C807 0.950 . S
H812 C809 0.950 . S
C813 C804 1.390 . S
C813 H806 0.950 . S
C813 C810 1.387 . S
C814 C815 1.387 1_565 S
C814 H818 0.950 . S
C814 C823 1.390 . S
C815 C814 1.387 1_545 S
C815 C817 1.387 . S
H816 C823 0.950 . S
C817 C815 1.387 . S
C817 C819 1.390 . S
C817 H821 0.950 . S
H818 C814 0.950 . S
C819 C817 1.390 . S
C819 C820 1.387 . S
C819 H822 0.950 . S
C820 C819 1.387 . S
C820 C823 1.387 1_545 S
H821 C817 0.950 . S
H822 C819 0.950 . S
C823 C814 1.390 . S
C823 H816 0.950 . S
C823 C820 1.387 1_565 S
C824 C825 1.387 . S
C824 H828 0.950 . S
C824 C833 1.390 . S
C825 C824 1.387 . S
C825 C827 1.387 . S
H826 C833 0.950 . S
C827 C825 1.387 . S
C827 C829 1.390 . S
C827 H831 0.950 . S
H828 C824 0.950 . S
C829 C827 1.390 . S
C829 C830 1.387 . S
C829 H832 0.950 . S
C830 C829 1.387 . S
C830 C833 1.387 . S
H831 C827 0.950 . S
H832 C829 0.950 . S
C833 C824 1.390 . S
C833 H826 0.950 . S
C833 C830 1.387 . S
C834 C835 1.387 . S
C834 H838 0.950 . S
C834 C843 1.390 . S
C835 C834 1.387 . S
C835 C837 1.387 . S
H836 C843 0.950 . S
C837 C835 1.387 . S
C837 C839 1.390 . S
C837 H841 0.950 . S
H838 C834 0.950 . S
C839 C837 1.390 . S
C839 C840 1.387 . S
C839 H842 0.950 . S
C840 C839 1.387 . S
C840 C843 1.387 . S
H841 C837 0.950 . S
H842 C839 0.950 . S
C843 C834 1.390 . S
C843 H836 0.950 . S
C843 C840 1.387 . S
C844 C845 1.387 1_655 S
C844 H848 0.950 . S
C844 C853 1.390 . S
C845 C844 1.387 1_455 S
C845 C847 1.387 . S
H846 C853 0.950 . S
C847 C845 1.387 . S
C847 C849 1.390 . S
C847 H851 0.950 . S
H848 C844 0.950 . S
C849 C847 1.390 . S
C849 C850 1.387 . S
C849 H852 0.950 . S
C850 C849 1.387 . S
C850 C853 1.387 1_455 S
H851 C847 0.950 . S
H852 C849 0.950 . S
C853 C844 1.390 . S
C853 H846 0.950 . S
C853 C850 1.387 1_655 S
C854 C855 1.387 . S
C854 H858 0.950 . S
C854 C863 1.390 . S
C855 C854 1.387 . S
C855 C857 1.387 1_545 S
H856 C863 0.950 . S
C857 C855 1.387 1_565 S
C857 C859 1.390 . S
C857 H861 0.950 . S
H858 C854 0.950 . S
C859 C857 1.390 . S
C859 C860 1.387 1_565 S
C859 H862 0.950 . S
C860 C859 1.387 1_545 S
C860 C863 1.387 . S
H861 C857 0.950 . S
H862 C859 0.950 . S
C863 C854 1.390 . S
C863 H856 0.950 . S
C863 C860 1.387 . S
C864 C865 1.387 . S
C864 H868 0.950 . S
C864 C873 1.390 1_556 S
C865 C864 1.387 . S
C865 C867 1.387 1_565 S
H866 C873 0.950 . S
C867 C865 1.387 1_545 S
C867 C869 1.439 . S
C867 H871 0.950 . S
H868 C864 0.950 . S
C869 C867 1.439 . S
C869 C870 1.347 1_556 S
C869 H872 0.944 1_556 S
C870 C869 1.347 1_554 S
C870 C873 1.387 1_545 S
H871 C867 0.950 . S
H872 C869 0.944 1_554 S
C873 C864 1.390 1_554 S
C873 H866 0.950 . S
C873 C870 1.387 1_565 S
C874 C875 1.387 . S
C874 H878 0.950 . S
C874 C883 1.390 . S
C875 C874 1.387 . S
C875 C877 1.387 . S
H876 C883 0.950 . S
C877 C875 1.387 . S
C877 C879 1.390 . S
C877 H881 0.950 . S
H878 C874 0.950 . S
C879 C877 1.390 . S
C879 C880 1.387 . S
C879 H882 0.950 . S
C880 C879 1.387 . S
C880 C883 1.387 . S
H881 C877 0.950 . S
H882 C879 0.950 . S
C883 C874 1.390 . S
C883 H876 0.950 . S
C883 C880 1.387 . S
C884 C885 1.387 1_655 S
C884 H888 0.950 . S
C884 C893 1.390 1_554 S
C885 C884 1.387 1_455 S
C885 C887 1.387 . S
H886 C893 0.950 . S
C887 C885 1.387 . S
C887 C889 1.390 1_554 S
C887 H891 0.950 . S
H888 C884 0.950 . S
C889 C887 1.390 1_556 S
C889 C890 1.387 . S
C889 H892 0.950 . S
C890 C889 1.387 . S
C890 C893 1.387 1_455 S
H891 C887 0.950 . S
H892 C889 0.950 . S
C893 C884 1.390 1_556 S
C893 H886 0.950 . S
C893 C890 1.387 1_655 S
C894 C895 1.387 1_565 S
C894 H898 0.950 . S
C894 C903 1.390 . S
C895 C894 1.387 1_545 S
C895 C897 1.387 . S
H896 C903 0.950 1_455 S
C897 C895 1.387 . S
C897 C899 1.390 1_655 S
C897 H901 0.950 . S
H898 C894 0.950 . S
C899 C897 1.390 1_455 S
C899 C900 1.387 . S
C899 H902 0.950 . S
C900 C899 1.387 . S
C900 C903 1.387 1_445 S
H901 C897 0.950 . S
H902 C899 0.950 . S
C903 C894 1.390 . S
C903 H896 0.950 1_655 S
C903 C900 1.387 1_665 S
C904 C905 1.424 . S
C904 H908 0.963 . S
C904 C913 1.343 1_556 S
C905 C904 1.424 . S
C905 C907 1.387 . S
H906 C913 0.950 . S
C907 C905 1.387 . S
C907 C909 1.390 1_556 S
C907 H911 0.950 . S
H908 C904 0.963 . S
C909 C907 1.390 1_554 S
C909 C910 1.387 . S
C909 H912 0.950 . S
C910 C909 1.387 . S
C910 C913 1.387 . S
H911 C907 0.950 . S
H912 C909 0.950 . S
C913 C904 1.343 1_554 S
C913 H906 0.950 . S
C913 C910 1.387 . S
C914 C915 1.387 1_655 S
C914 H918 0.950 1_655 S
C914 C923 1.390 . S
C915 C914 1.387 1_455 S
C915 C917 1.387 . S
H916 C923 0.950 . S
C917 C915 1.387 . S
C917 C919 1.390 1_455 S
C917 H921 0.950 . S
H918 C914 0.950 1_455 S
C919 C917 1.390 1_655 S
C919 C920 1.387 . S
C919 H922 0.950 . S
C920 C919 1.387 . S
C920 C923 1.387 . S
H921 C917 0.950 . S
H922 C919 0.950 . S
C923 C914 1.390 . S
C923 H916 0.950 . S
C923 C920 1.387 . S
C924 C925 1.387 . S
C924 H928 0.950 . S
C924 C933 1.390 1_554 S
C925 C924 1.387 . S
C925 C927 1.387 1_465 S
H926 C933 0.950 . S
C927 C925 1.387 1_645 S
C927 C929 1.427 . S
C927 H931 0.950 . S
H928 C924 0.950 . S
C929 C927 1.427 . S
C929 C930 1.356 1_654 S
C929 H932 0.945 1_554 S
C930 C929 1.356 1_456 S
C930 C933 1.387 1_545 S
H931 C927 0.950 . S
H932 C929 0.945 1_556 S
C933 C924 1.390 1_556 S
C933 H926 0.950 . S
C933 C930 1.387 1_565 S
C934 C935 1.387 . S
C934 H938 0.950 . S
C934 C943 1.390 . S
C935 C934 1.387 . S
C935 C937 1.387 1_545 S
H936 C943 0.950 . S
C937 C935 1.387 1_565 S
C937 C939 1.390 . S
C937 H941 0.950 . S
H938 C934 0.950 . S
C939 C937 1.390 . S
C939 C940 1.387 1_565 S
C939 H942 0.950 . S
C940 C939 1.387 1_545 S
C940 C943 1.387 . S
H941 C937 0.950 . S
H942 C939 0.950 . S
C943 C934 1.390 . S
C943 H936 0.950 . S
C943 C940 1.387 . S
C545 C5 1.834 . S
C550 C243 1.833 1_545 S
C555 C141 1.833 . S
C560 C39 1.833 . S
C565 C73 1.833 1_455 S
C570 C175 1.834 . S
C575 C107 1.830 1_545 S
C580 C209 1.831 1_455 S
C585 C281 1.357 . S
C590 C519 1.360 . S
C595 C315 1.357 . S
C600 C417 1.360 . S
C605 C349 1.359 . S
C610 C451 1.359 . S
C615 C485 1.360 . S
C620 C383 1.358 . S
C625 C33 1.925 . S
C630 C101 1.925 . S
C635 C135 1.925 . S
C640 C67 1.925 . S
C645 C237 1.922 . S
C650 C169 1.922 . S
C655 C203 1.925 . S
C660 C271 1.925 . S
C665 C373 1.531 . S
C670 C305 1.531 . S
C675 C407 1.531 . S
C680 C339 1.531 . S
C685 C509 1.536 . S
C690 C441 1.536 . S
C695 C543 1.536 . S
C700 C475 1.536 . S
C705 C410 0.843 . S
C710 C20 0.855 . S
C715 C444 0.841 . S
C720 C54 0.855 . S
C725 C88 0.857 . S
C730 C478 0.844 1_655 S
C735 C512 0.841 1_565 S
C740 C122 0.854 . S
C745 C156 0.855 . S
C750 C274 0.843 . S
C755 C308 0.843 . S
C760 C190 0.856 . S
C765 C224 0.854 . S
C770 C342 0.840 1_655 S
C775 C258 0.855 . S
C780 C376 0.841 1_565 S
C785 C138 0.856 . S
C790 C292 0.868 . S
C795 C172 0.856 . S
C800 C326 0.868 . S
C805 C206 0.855 . S
C810 C360 0.867 . S
C815 C240 0.856 . S
C820 C394 0.868 . S
C825 C2 0.855 . S
C830 C428 0.866 . S
C835 C36 0.855 . S
C840 C462 0.866 . S
C845 C70 0.856 . S
C850 C496 0.868 . S
C855 C530 0.867 . S
C860 C104 0.856 . S
C865 C277 1.644 . S
C870 C9 1.592 . S
C875 C43 1.593 . S
C880 C311 1.643 . S
C885 C77 1.594 1_455 S
C890 C345 1.646 . S
C895 C379 1.646 . S
C900 C111 1.595 1_545 S
C905 C145 1.594 . S
C910 C413 1.643 . S
C915 C179 1.595 . S
C920 C447 1.646 . S
C925 C481 1.644 . S
C930 C213 1.592 1_455 S
C935 C247 1.593 1_545 S
C940 C515 1.643 . S
