# Generated by pormake.
# Topology cag, (4)-cn, num edge types: 1
# Building blocks:
#     Node 0, Type 0, BuildingBlock: QUQFOY_clean_sbu_3, # of connection points: 4
#     Node 1, Type 0, BuildingBlock: QUQFOY_clean_sbu_3, # of connection points: 4
#     Node 2, Type 0, BuildingBlock: QUQFOY_clean_sbu_3, # of connection points: 4
#     Node 3, Type 0, BuildingBlock: QUQFOY_clean_sbu_3, # of connection points: 4
#     Node 4, Type 0, BuildingBlock: QUQFOY_clean_sbu_3, # of connection points: 4
#     Node 5, Type 0, BuildingBlock: QUQFOY_clean_sbu_3, # of connection points: 4
#     Node 6, Type 0, BuildingBlock: QUQFOY_clean_sbu_3, # of connection points: 4
#     Node 7, Type 0, BuildingBlock: QUQFOY_clean_sbu_3, # of connection points: 4
#     Node 8, Type 0, BuildingBlock: QUQFOY_clean_sbu_3, # of connection points: 4
#     Node 9, Type 0, BuildingBlock: QUQFOY_clean_sbu_3, # of connection points: 4
#     Node 10, Type 0, BuildingBlock: QUQFOY_clean_sbu_3, # of connection points: 4
#     Node 11, Type 0, BuildingBlock: QUQFOY_clean_sbu_3, # of connection points: 4
#     Node 12, Type 0, BuildingBlock: QUQFOY_clean_sbu_3, # of connection points: 4
#     Node 13, Type 0, BuildingBlock: QUQFOY_clean_sbu_3, # of connection points: 4
#     Node 14, Type 0, BuildingBlock: QUQFOY_clean_sbu_3, # of connection points: 4
#     Node 15, Type 0, BuildingBlock: QUQFOY_clean_sbu_3, # of connection points: 4
#     Edge 16, Type (0, 0), BuildingBlock: OJICUG_clean_linker_0, # of connection points: 2
#     Edge 17, Type (0, 0), BuildingBlock: OJICUG_clean_linker_0, # of connection points: 2
#     Edge 18, Type (0, 0), BuildingBlock: OJICUG_clean_linker_0, # of connection points: 2
#     Edge 19, Type (0, 0), BuildingBlock: OJICUG_clean_linker_0, # of connection points: 2
#     Edge 20, Type (0, 0), BuildingBlock: OJICUG_clean_linker_0, # of connection points: 2
#     Edge 21, Type (0, 0), BuildingBlock: OJICUG_clean_linker_0, # of connection points: 2
#     Edge 22, Type (0, 0), BuildingBlock: OJICUG_clean_linker_0, # of connection points: 2
#     Edge 23, Type (0, 0), BuildingBlock: OJICUG_clean_linker_0, # of connection points: 2
#     Edge 24, Type (0, 0), BuildingBlock: OJICUG_clean_linker_0, # of connection points: 2
#     Edge 25, Type (0, 0), BuildingBlock: OJICUG_clean_linker_0, # of connection points: 2
#     Edge 26, Type (0, 0), BuildingBlock: OJICUG_clean_linker_0, # of connection points: 2
#     Edge 27, Type (0, 0), BuildingBlock: OJICUG_clean_linker_0, # of connection points: 2
#     Edge 28, Type (0, 0), BuildingBlock: OJICUG_clean_linker_0, # of connection points: 2
#     Edge 29, Type (0, 0), BuildingBlock: OJICUG_clean_linker_0, # of connection points: 2
#     Edge 30, Type (0, 0), BuildingBlock: OJICUG_clean_linker_0, # of connection points: 2
#     Edge 31, Type (0, 0), BuildingBlock: OJICUG_clean_linker_0, # of connection points: 2
#     Edge 32, Type (0, 0), BuildingBlock: OJICUG_clean_linker_0, # of connection points: 2
#     Edge 33, Type (0, 0), BuildingBlock: OJICUG_clean_linker_0, # of connection points: 2
#     Edge 34, Type (0, 0), BuildingBlock: OJICUG_clean_linker_0, # of connection points: 2
#     Edge 35, Type (0, 0), BuildingBlock: OJICUG_clean_linker_0, # of connection points: 2
#     Edge 36, Type (0, 0), BuildingBlock: OJICUG_clean_linker_0, # of connection points: 2
#     Edge 37, Type (0, 0), BuildingBlock: OJICUG_clean_linker_0, # of connection points: 2
#     Edge 38, Type (0, 0), BuildingBlock: OJICUG_clean_linker_0, # of connection points: 2
#     Edge 39, Type (0, 0), BuildingBlock: OJICUG_clean_linker_0, # of connection points: 2
#     Edge 40, Type (0, 0), BuildingBlock: OJICUG_clean_linker_0, # of connection points: 2
#     Edge 41, Type (0, 0), BuildingBlock: OJICUG_clean_linker_0, # of connection points: 2
#     Edge 42, Type (0, 0), BuildingBlock: OJICUG_clean_linker_0, # of connection points: 2
#     Edge 43, Type (0, 0), BuildingBlock: OJICUG_clean_linker_0, # of connection points: 2
#     Edge 44, Type (0, 0), BuildingBlock: OJICUG_clean_linker_0, # of connection points: 2
#     Edge 45, Type (0, 0), BuildingBlock: OJICUG_clean_linker_0, # of connection points: 2
#     Edge 46, Type (0, 0), BuildingBlock: OJICUG_clean_linker_0, # of connection points: 2
#     Edge 47, Type (0, 0), BuildingBlock: OJICUG_clean_linker_0, # of connection points: 2
# Relax obj value: 0.113
# Max RMSD: 0.145
# Mean RMSD: 0.145
data_MOF--net-cag--node1-QUQFOY_clean_sbu_3--edge1-OJICUG_clean_linker_0
_symmetry_space_group_name_H-M    P1
_symmetry_Int_Tables_number       1
_symmetry_cell_setting            triclinic
loop_
_symmetry_equiv_pos_as_xyz
'x, y, z'
_cell_length_a     33.805114
_cell_length_b     38.216422
_cell_length_c     32.182323
_cell_angle_alpha  89.947084
_cell_angle_beta   89.97199
_cell_angle_gamma 89.972231
loop_
_atom_site_label
_atom_site_type_symbol
_atom_site_fract_x
_atom_site_fract_y
_atom_site_fract_z
_atom_type_partial_charge
C0 C 0.37312 0.12826 0.03958 0.0
O1 O 0.36911 0.13423 0.00098 0.0
Cd2 Cd 0.30573 0.13665 0.96802 0.0
O3 O 0.34296 0.12428 0.06282 0.0
Cd4 Cd 0.27028 0.12562 0.05721 0.0
C5 C 0.27118 0.05549 -0.00651 0.0
O6 O 0.26827 0.17524 0.01185 0.0
O7 O 0.21211 0.14907 0.01974 0.0
O8 O 0.26577 0.15429 0.12468 0.0
C9 C 0.2313 0.17513 0.00587 0.0
O10 O 0.28282 0.07568 0.96446 0.0
C11 C 0.24632 0.12962 0.14144 0.0
O12 O 0.26613 0.06711 0.03003 0.0
O13 O 0.23722 0.10377 0.11866 0.0
C14 C 0.0828 0.83353 0.53987 0.0
O15 O 0.08672 0.82767 0.50124 0.0
Cd16 Cd 0.15001 0.82563 0.46799 0.0
O17 O 0.11301 0.83761 0.56296 0.0
Cd18 Cd 0.18568 0.83664 0.55704 0.0
C19 C 0.18415 0.90689 0.49338 0.0
O20 O 0.18776 0.7871 0.51167 0.0
O21 O 0.24387 0.81336 0.5194 0.0
O22 O 0.19036 0.80799 0.62456 0.0
C23 C 0.22471 0.78729 0.50557 0.0
O24 O 0.17253 0.88672 0.46438 0.0
C25 C 0.20978 0.83269 0.6412 0.0
O26 O 0.18939 0.89521 0.52988 0.0
O27 O 0.21884 0.85854 0.61833 0.0
C28 C 0.37127 0.833 0.91923 0.0
O29 O 0.3667 0.82705 0.95777 0.0
Cd30 Cd 0.30296 0.82531 -0.01005 0.0
O31 O 0.34147 0.83735 0.8956 0.0
Cd32 Cd 0.26867 0.83675 0.90022 0.0
C33 C 0.26987 0.90689 0.9639 0.0
O34 O 0.2659 0.78716 0.94537 0.0
O35 O 0.20991 0.81354 0.93716 0.0
O36 O 0.26485 0.80815 0.83267 0.0
C37 C 0.2289 0.78737 0.95105 0.0
O38 O 0.28093 0.88657 -0.00694 0.0
C39 C 0.24568 0.83289 0.8157 0.0
O40 O 0.265 0.89532 0.92732 0.0
O41 O 0.23641 0.85877 0.83837 0.0
C42 C 0.08357 0.12912 0.41879 0.0
O43 O 0.08795 0.13512 0.45732 0.0
Cd44 Cd 0.15156 0.13705 0.48974 0.0
O45 O 0.11349 0.1249 0.39527 0.0
Cd46 Cd 0.18626 0.1258 0.4002 0.0
C47 C 0.18491 0.05557 0.46388 0.0
O48 O 0.18882 0.17537 0.44538 0.0
O49 O 0.24481 0.14892 0.4374 0.0
O50 O 0.19042 0.15439 0.33259 0.0
C51 C 0.2258 0.1751 0.45122 0.0
O52 O 0.17373 0.07583 0.49301 0.0
C53 C 0.20976 0.12968 0.31582 0.0
O54 O 0.1899 0.06721 0.42732 0.0
O55 O 0.21895 0.10383 0.33863 0.0
C56 C 0.52934 0.85705 0.85915 0.0
O57 O 0.53471 0.88095 0.83229 0.0
Cd58 Cd 0.59922 0.90371 0.81656 0.0
O59 O 0.55864 0.8429 0.87742 0.0
Cd60 Cd 0.63107 0.84715 0.87692 0.0
C61 C 0.62472 0.92932 0.9141 0.0
O62 O 0.64117 0.85414 0.80216 0.0
O63 O 0.69213 0.8629 0.84116 0.0
O64 O 0.63373 0.78408 0.892 0.0
C65 C 0.6781 0.8594 0.80493 0.0
O66 O 0.61697 0.93942 0.87727 0.0
C67 C 0.65917 0.78784 0.92073 0.0
O68 O 0.62892 0.89705 0.9222 0.0
O69 O 0.67062 0.81872 0.9286 0.0
C70 C 0.92593 0.10344 0.35866 0.0
O71 O 0.92087 0.07938 0.33201 0.0
Cd72 Cd 0.85656 0.05618 0.3164 0.0
O73 O 0.89643 0.11745 0.37674 0.0
Cd74 Cd 0.82405 0.11268 0.37607 0.0
C75 C 0.83086 0.03076 0.41404 0.0
O76 O 0.81436 0.10548 0.30128 0.0
O77 O 0.76327 0.09657 0.34012 0.0
O78 O 0.82125 0.17577 0.39075 0.0
C79 C 0.77744 0.10012 0.30393 0.0
O80 O 0.83885 0.02056 0.37732 0.0
C81 C 0.79552 0.17212 0.41924 0.0
O82 O 0.82637 0.06304 0.42186 0.0
O83 O 0.78393 0.14127 0.42715 0.0
C84 C 0.52999 0.10245 0.10208 0.0
O85 O 0.53468 0.07867 0.12921 0.0
Cd86 Cd 0.59883 0.05541 0.14565 0.0
O87 O 0.55973 0.11615 0.08413 0.0
Cd88 Cd 0.63208 0.11117 0.08577 0.0
C89 C 0.62506 0.02912 0.0486 0.0
O90 O 0.6413 0.10452 0.16075 0.0
O91 O 0.69246 0.09486 0.12225 0.0
O92 O 0.63517 0.17416 0.07064 0.0
C93 C 0.6782 0.09895 0.15832 0.0
O94 O 0.6167 0.01919 0.08535 0.0
C95 C 0.66109 0.17036 0.04237 0.0
O96 O 0.62987 0.06131 0.04049 0.0
O97 O 0.67269 0.13945 0.03477 0.0
C98 C 0.92597 0.85849 0.60298 0.0
O99 O 0.9212 0.88232 0.63 0.0
Cd100 Cd 0.85694 0.90538 0.64638 0.0
O101 O 0.89626 0.84466 0.58517 0.0
Cd102 Cd 0.82391 0.84949 0.58699 0.0
C103 C 0.83068 0.93144 0.54927 0.0
O104 O 0.81466 0.85618 0.66198 0.0
O105 O 0.76353 0.86581 0.62346 0.0
O106 O 0.8209 0.78647 0.57206 0.0
C107 C 0.77774 0.86165 0.65953 0.0
O108 O 0.83895 0.9415 0.58596 0.0
C109 C 0.79487 0.79023 0.54391 0.0
O110 O 0.826 0.89921 0.54138 0.0
O111 O 0.78321 0.82112 0.53628 0.0
C112 C 0.87171 0.62716 0.04161 0.0
O113 O 0.86726 0.63313 0.00306 0.0
Cd114 Cd 0.80359 0.63482 0.97078 0.0
O115 O 0.84183 0.62279 0.06515 0.0
Cd116 Cd 0.76906 0.62343 0.06034 0.0
C117 C 0.77042 0.55326 -0.00323 0.0
O118 O 0.76626 0.67302 0.01514 0.0
O119 O 0.71035 0.64648 0.02323 0.0
O120 O 0.76518 0.65242 0.12761 0.0
C121 C 0.72927 0.67271 0.00941 0.0
O122 O 0.78154 0.57361 0.96768 0.0
C123 C 0.74597 0.62784 0.14482 0.0
O124 O 0.76545 0.56478 0.03337 0.0
O125 O 0.73672 0.6018 0.1224 0.0
C126 C 0.5837 0.33328 0.54089 0.0
O127 O 0.58806 0.32752 0.5023 0.0
Cd128 Cd 0.65162 0.32573 0.46973 0.0
O129 O 0.61363 0.33738 0.56438 0.0
Cd130 Cd 0.6864 0.33653 0.55929 0.0
C131 C 0.68501 0.40705 0.49608 0.0
O132 O 0.6888 0.28716 0.51382 0.0
O133 O 0.74489 0.31335 0.5219 0.0
O134 O 0.69055 0.30765 0.62672 0.0
C135 C 0.72578 0.2873 0.50796 0.0
O136 O 0.6738 0.38693 0.46685 0.0
C137 C 0.70996 0.33224 0.64361 0.0
O138 O 0.69003 0.39525 0.53256 0.0
O139 O 0.71919 0.35816 0.62094 0.0
C140 C 0.87305 0.332 0.92002 0.0
O141 O 0.86896 0.32578 0.95856 0.0
Cd142 Cd 0.80553 0.32334 -0.00854 0.0
O143 O 0.84295 0.33618 0.89679 0.0
Cd144 Cd 0.77025 0.33492 0.90226 0.0
C145 C 0.77128 0.40473 0.96648 0.0
O146 O 0.76805 0.28511 0.94728 0.0
O147 O 0.71197 0.31147 0.93957 0.0
O148 O 0.7658 0.3066 0.83458 0.0
C149 C 0.73108 0.28531 0.95328 0.0
O150 O 0.78283 0.38438 -0.00461 0.0
C151 C 0.74644 0.3314 0.81797 0.0
O152 O 0.76622 0.39329 0.92988 0.0
O153 O 0.73735 0.35716 0.84092 0.0
C154 C 0.583 0.62925 0.42088 0.0
O155 O 0.58694 0.63509 0.45951 0.0
Cd156 Cd 0.65025 0.6371 0.49268 0.0
O157 O 0.61319 0.62517 0.39773 0.0
Cd158 Cd 0.68587 0.62605 0.40351 0.0
C159 C 0.68431 0.55582 0.46725 0.0
O160 O 0.68795 0.67559 0.44886 0.0
O161 O 0.74409 0.64936 0.44099 0.0
O162 O 0.69064 0.65434 0.33575 0.0
C163 C 0.72491 0.67539 0.45491 0.0
O164 O 0.67272 0.57597 0.49631 0.0
C165 C 0.71 0.62947 0.31932 0.0
O166 O 0.68953 0.56755 0.43077 0.0
O167 O 0.71902 0.60376 0.34242 0.0
C168 C 0.03003 0.35849 0.85821 0.0
O169 O 0.03473 0.38246 0.83132 0.0
Cd170 Cd 0.09886 0.40585 0.81514 0.0
O171 O 0.05977 0.3447 0.87608 0.0
Cd172 Cd 0.13211 0.34983 0.87456 0.0
C173 C 0.12502 0.43167 0.91236 0.0
O174 O 0.14134 0.3568 0.79962 0.0
O175 O 0.19248 0.36631 0.83813 0.0
O176 O 0.13523 0.28677 0.88927 0.0
C177 C 0.17824 0.36234 0.80206 0.0
O178 O 0.11671 0.44176 0.87567 0.0
C179 C 0.16124 0.29042 0.91746 0.0
O180 O 0.1298 0.39943 0.92027 0.0
O181 O 0.17284 0.32128 0.92523 0.0
C182 C 0.42618 0.60397 0.35816 0.0
O183 O 0.42149 0.58016 0.33113 0.0
Cd184 Cd 0.35734 0.55691 0.31485 0.0
O185 O 0.39643 0.61772 0.37605 0.0
Cd186 Cd 0.32408 0.61276 0.37434 0.0
C187 C 0.33112 0.53085 0.41206 0.0
O188 O 0.31479 0.60595 0.2994 0.0
O189 O 0.26375 0.5962 0.33804 0.0
O190 O 0.32093 0.67582 0.38899 0.0
C191 C 0.27791 0.60031 0.30193 0.0
O192 O 0.33943 0.52085 0.37534 0.0
C193 C 0.29492 0.67213 0.4172 0.0
O194 O 0.32634 0.56307 0.42002 0.0
O195 O 0.28334 0.64126 0.42502 0.0
C196 C 0.0296 0.60329 0.1022 0.0
O197 O 0.03495 0.5794 0.12907 0.0
Cd198 Cd 0.0995 0.55669 0.14481 0.0
O199 O 0.05893 0.61744 0.08398 0.0
Cd200 Cd 0.13135 0.61321 0.08454 0.0
C201 C 0.12504 0.53104 0.04731 0.0
O202 O 0.14134 0.60631 0.15932 0.0
O203 O 0.19238 0.59761 0.12037 0.0
O204 O 0.13383 0.67625 0.06922 0.0
C205 C 0.17829 0.60115 0.15658 0.0
O206 O 0.11726 0.5209 0.08411 0.0
C207 C 0.15934 0.67245 0.04053 0.0
O208 O 0.12927 0.56332 0.03929 0.0
O209 O 0.17092 0.64157 0.03282 0.0
C210 C 0.42605 0.35818 0.60163 0.0
O211 O 0.42093 0.38209 0.62848 0.0
Cd212 Cd 0.35661 0.40523 0.64433 0.0
O213 O 0.39658 0.34426 0.58347 0.0
Cd214 Cd 0.32418 0.34897 0.58418 0.0
C215 C 0.33105 0.43112 0.54686 0.0
O216 O 0.31443 0.35586 0.65899 0.0
O217 O 0.26337 0.36493 0.62022 0.0
O218 O 0.32132 0.28595 0.56903 0.0
C219 C 0.27752 0.36126 0.65638 0.0
O220 O 0.33899 0.44115 0.58364 0.0
C221 C 0.2957 0.28982 0.54048 0.0
O222 O 0.32656 0.39888 0.53884 0.0
O223 O 0.28421 0.32073 0.53276 0.0
C224 C 0.23195 0.23642 -0.01912 0.0
C225 C 0.21233 0.20414 -0.01663 0.0
H226 H 0.23087 0.28893 0.95846 0.0
C227 C 0.17538 0.20016 0.964 0.0
H228 H 0.26041 0.24027 -0.00433 0.0
C229 C 0.15865 0.22809 0.94191 0.0
C230 C 0.17832 0.26043 0.93983 0.0
H231 H 0.15977 0.17545 0.96543 0.0
H232 H 0.13025 0.22452 0.92693 0.0
C233 C 0.21497 0.26433 0.95968 0.0
C234 C 0.29744 0.73446 0.44158 0.0
C235 C 0.2778 0.7021 0.43954 0.0
H236 H 0.29626 0.78707 0.46505 0.0
C237 C 0.24114 0.69815 0.45941 0.0
H238 H 0.32584 0.73806 0.42658 0.0
C239 C 0.22413 0.72603 0.4806 0.0
C240 C 0.24371 0.75833 0.48305 0.0
H241 H 0.22527 0.67355 0.45822 0.0
H242 H 0.19568 0.72215 0.49541 0.0
C243 C 0.28067 0.76235 0.46365 0.0
C244 C 0.22911 0.72596 0.97544 0.0
C245 C 0.20977 0.75841 0.97347 0.0
H246 H 0.22803 0.67346 -0.0022 0.0
C247 C 0.17316 0.76262 -0.00649 0.0
H248 H 0.25729 0.72193 0.9601 0.0
C249 C 0.15658 0.73479 0.0159 0.0
C250 C 0.17606 0.70231 0.0176 0.0
H251 H 0.15778 0.78748 -0.00751 0.0
H252 H 0.1285 0.73854 0.03151 0.0
C253 C 0.21228 0.69815 -0.00307 0.0
C254 C 0.29826 0.22752 0.51589 0.0
C255 C 0.27881 0.25999 0.5177 0.0
H256 H 0.29698 0.17489 0.49242 0.0
C257 C 0.24248 0.26419 0.49726 0.0
H258 H 0.32641 0.22372 0.53132 0.0
C259 C 0.22556 0.23643 0.47584 0.0
C260 C 0.24491 0.20399 0.4737 0.0
H261 H 0.22675 0.28889 0.49824 0.0
H262 H 0.19733 0.24049 0.46065 0.0
C263 C 0.28159 0.19974 0.49357 0.0
C264 C 0.7292 0.73423 -0.01459 0.0
C265 C 0.71003 0.70172 -0.01283 0.0
H266 H 0.72785 0.78685 0.96343 0.0
C267 C 0.67343 0.69749 0.96713 0.0
H268 H 0.75736 0.73827 0.00075 0.0
C269 C 0.65671 0.72539 0.94496 0.0
C270 C 0.67602 0.75793 0.94348 0.0
H271 H 0.65818 0.67259 0.968 0.0
H272 H 0.62866 0.72162 0.92935 0.0
C273 C 0.71223 0.7621 0.96414 0.0
C274 C 0.74212 0.19812 0.46195 0.0
C275 C 0.77862 0.20209 0.44176 0.0
H276 H 0.69688 0.22211 0.49826 0.0
C277 C 0.79826 0.23445 0.44365 0.0
H278 H 0.72624 0.17352 0.4609 0.0
C279 C 0.78163 0.26235 0.46584 0.0
C280 C 0.74479 0.25832 0.4855 0.0
H281 H 0.82655 0.23806 0.42841 0.0
H282 H 0.79718 0.2871 0.46708 0.0
C283 C 0.72524 0.226 0.48324 0.0
C284 C 0.67524 0.26048 -0.00454 0.0
C285 C 0.71207 0.25635 0.97583 0.0
H286 H 0.63025 0.23634 0.03293 0.0
C287 C 0.73156 0.22399 0.97818 0.0
H288 H 0.65973 0.28526 -0.00586 0.0
C289 C 0.71461 0.19616 -0.00044 0.0
C290 C 0.6781 0.20023 0.01972 0.0
H291 H 0.75991 0.22002 0.96318 0.0
H292 H 0.73042 0.17151 0.0007 0.0
C293 C 0.65853 0.23264 0.01772 0.0
C294 C 0.79752 0.728 0.51917 0.0
C295 C 0.77782 0.76034 0.52142 0.0
H296 H 0.79644 0.67549 0.49539 0.0
C297 C 0.74116 0.76435 0.50158 0.0
H298 H 0.82591 0.72436 0.53415 0.0
C299 C 0.72422 0.73655 0.48022 0.0
C300 C 0.74386 0.70428 0.47756 0.0
H301 H 0.72524 0.78894 0.50292 0.0
H302 H 0.69577 0.74049 0.46544 0.0
C303 C 0.78081 0.7002 0.49693 0.0
C304 C 0.26589 0.0045 0.94504 0.0
C305 C 0.26647 0.01763 -0.01426 0.0
H306 H 0.26585 0.95916 0.90625 0.0
C307 C 0.26505 -0.00599 0.01928 0.0
H308 H 0.26673 0.02203 0.91858 0.0
C309 C 0.265 0.95797 0.01227 0.0
C310 C 0.26579 0.94482 0.97158 0.0
H311 H 0.26544 0.00329 0.05107 0.0
H312 H 0.26516 0.94043 0.03874 0.0
C313 C 0.26526 0.96846 0.93803 0.0
C314 C 0.18917 0.958 0.44496 0.0
C315 C 0.18863 0.94479 0.48565 0.0
H316 H 0.18908 0.00342 0.4062 0.0
C317 C 0.18992 0.96835 0.51921 0.0
H318 H 0.18842 0.94053 0.41849 0.0
C319 C 0.18984 0.00441 0.51223 0.0
C320 C 0.18905 0.01763 0.47155 0.0
H321 H 0.18955 0.959 0.55099 0.0
H322 H 0.1896 0.02189 0.5387 0.0
C323 C 0.18967 -0.00594 0.43798 0.0
C324 C 0.62791 -0.00904 0.94017 0.0
C325 C 0.62712 0.95491 0.94839 0.0
H326 H 0.62831 0.04264 0.96539 0.0
C327 C 0.62727 0.94337 -0.01006 0.0
H328 H 0.62794 0.00067 0.90854 0.0
C329 C 0.62716 0.9674 0.02258 0.0
C330 C 0.62733 0.00346 0.01436 0.0
H331 H 0.62661 0.91573 -0.00264 0.0
H332 H 0.62657 0.9577 0.05422 0.0
C333 C 0.62823 0.01499 0.97281 0.0
C334 C 0.82794 0.9692 0.44056 0.0
C335 C 0.82851 0.00529 0.44852 0.0
H336 H 0.82773 0.91762 0.46615 0.0
C337 C 0.8282 0.01697 0.48998 0.0
H338 H 0.82804 0.95938 0.409 0.0
C339 C 0.82835 -0.00694 0.52281 0.0
C340 C 0.82838 0.95697 0.51485 0.0
H341 H 0.8287 0.04465 0.49719 0.0
H342 H 0.8288 0.00288 0.55437 0.0
C343 C 0.82765 0.9453 0.47338 0.0
C344 C 0.7653 0.46633 0.94103 0.0
C345 C 0.76672 0.44259 0.97445 0.0
H346 H 0.76551 0.51996 0.92182 0.0
C347 C 0.76627 0.45559 0.01522 0.0
H348 H 0.76559 0.45715 0.9092 0.0
C349 C 0.76576 0.49161 0.02241 0.0
C350 C 0.76627 0.51535 -0.01104 0.0
H351 H 0.76712 0.43797 0.04159 0.0
H352 H 0.76644 0.5008 0.05423 0.0
C353 C 0.76537 0.50234 0.94821 0.0
C354 C 0.68968 0.46847 0.5223 0.0
C355 C 0.68915 0.44501 0.48861 0.0
H356 H 0.68836 0.52195 0.54202 0.0
C357 C 0.69005 0.45837 0.448 0.0
H358 H 0.689 0.459 0.55403 0.0
C359 C 0.69014 0.49444 0.44118 0.0
C360 C 0.68876 0.5179 0.47485 0.0
H361 H 0.68988 0.44097 0.42144 0.0
H362 H 0.68986 0.50389 0.40944 0.0
C363 C 0.68919 0.50455 0.51548 0.0
C364 C 0.12758 0.51719 0.97142 0.0
C365 C 0.12736 0.50553 0.01292 0.0
H366 H 0.12686 0.50307 0.90708 0.0
C367 C 0.12795 0.46945 0.02098 0.0
H368 H 0.12707 0.54486 0.96412 0.0
C369 C 0.12816 0.44552 -0.01177 0.0
C370 C 0.12735 0.45719 0.94673 0.0
H371 H 0.1279 0.45965 0.05258 0.0
H372 H 0.1281 0.41785 -0.00447 0.0
C373 C 0.12736 0.49327 0.93867 0.0
C374 C 0.32809 0.51679 0.48791 0.0
C375 C 0.3288 0.50524 0.44639 0.0
H376 H 0.32841 0.5025 0.55223 0.0
C377 C 0.3287 0.46917 0.43828 0.0
H378 H 0.32822 0.54444 0.49525 0.0
C379 C 0.32848 0.44516 0.47099 0.0
C380 C 0.32879 0.45672 0.51251 0.0
H381 H 0.32914 0.45945 0.40667 0.0
H382 H 0.32892 0.41751 0.46365 0.0
C383 C 0.3283 0.49278 0.52062 0.0
C384 C 0.45645 0.10153 0.11124 0.0
C385 C 0.48977 0.11218 0.08844 0.0
H386 H 0.39331 0.09865 0.11385 0.0
C387 C 0.48432 0.13015 0.05074 0.0
H388 H 0.45972 0.08774 0.14047 0.0
C389 C 0.44637 0.13599 0.03524 0.0
C390 C 0.41308 0.12442 0.05741 0.0
H391 H 0.50941 0.13868 0.03239 0.0
H392 H 0.44315 0.14911 0.00558 0.0
C393 C 0.41843 0.10783 0.09601 0.0
C394 C -0.00048 0.85978 0.61186 0.0
C395 C 0.9662 0.84893 0.58924 0.0
H396 H 0.06265 0.86302 0.61417 0.0
C397 C 0.97166 0.83095 0.55158 0.0
H398 H -0.00376 0.87357 0.64106 0.0
C399 C 0.00961 0.82533 0.53591 0.0
C400 C 0.04288 0.83711 0.55789 0.0
H401 H 0.94658 0.82228 0.53336 0.0
H402 H 0.01282 0.81222 0.50628 0.0
C403 C 0.03753 0.85369 0.59647 0.0
C404 C 0.44431 0.82426 0.92453 0.0
C405 C 0.41151 0.83636 0.90196 0.0
H406 H 0.50725 0.82075 0.92827 0.0
C407 C 0.41765 0.85303 0.86353 0.0
H408 H 0.44048 0.81106 0.95406 0.0
C409 C 0.45597 0.85889 0.84889 0.0
C410 C 0.4888 0.84773 0.87211 0.0
H411 H 0.39291 0.8626 0.84539 0.0
H412 H 0.45985 0.87275 0.8198 0.0
C413 C 0.48256 0.82966 0.90961 0.0
C414 C 0.01043 0.13734 0.42385 0.0
C415 C 0.04342 0.12543 0.40143 0.0
H416 H 0.94744 0.14028 0.42749 0.0
C417 C 0.03756 0.10853 0.36315 0.0
H418 H 0.01404 0.1507 0.45328 0.0
C419 C -0.00066 0.10223 0.34851 0.0
C420 C 0.96633 0.11319 0.3716 0.0
H421 H 0.06245 0.09909 0.34513 0.0
H422 H -0.00432 0.08819 0.31954 0.0
C423 C 0.97228 0.13151 0.40894 0.0
C424 C -0.01706 0.63065 0.05162 0.0
C425 C -0.01091 0.61257 0.08913 0.0
H426 H 0.94099 0.64921 0.00703 0.0
C427 C 0.95619 0.60134 0.11223 0.0
H428 H 0.00768 0.63962 0.03306 0.0
C429 C 0.91792 0.60715 0.09744 0.0
C430 C 0.91189 0.62383 0.05901 0.0
H431 H 0.96 0.58746 0.14131 0.0
H432 H 0.89314 0.59753 0.11548 0.0
C433 C 0.94474 0.636 0.03657 0.0
C434 C 0.5106 0.32492 0.53594 0.0
C435 C 0.54356 0.33678 0.55838 0.0
H436 H 0.44762 0.32182 0.53244 0.0
C437 C 0.53768 0.3534 0.59684 0.0
H438 H 0.51423 0.31176 0.50638 0.0
C439 C 0.49946 0.35949 0.61164 0.0
C440 C 0.46646 0.34859 0.58854 0.0
H441 H 0.56255 0.36279 0.61487 0.0
H442 H 0.49578 0.37333 0.64074 0.0
C443 C 0.47244 0.33054 0.55101 0.0
C444 C 0.95653 0.35935 0.84885 0.0
C445 C -0.01019 0.34858 0.87163 0.0
H446 H 0.89339 0.36214 0.8461 0.0
C447 C -0.01571 0.33029 0.9091 0.0
H448 H 0.95985 0.37337 0.81979 0.0
C449 C 0.9463 0.32426 0.92443 0.0
C450 C 0.91305 0.33596 0.9023 0.0
H451 H 0.00934 0.32166 0.92743 0.0
H452 H 0.94303 0.3109 0.95394 0.0
C453 C 0.91848 0.35286 0.8639 0.0
C454 C 0.50978 0.6373 0.42504 0.0
C455 C 0.54307 0.62564 0.40294 0.0
H456 H 0.44674 0.64018 0.42778 0.0
C457 C 0.53773 0.60909 0.36435 0.0
H458 H 0.51299 0.65039 0.45469 0.0
C459 C 0.49972 0.60292 0.34906 0.0
C460 C 0.46639 0.61364 0.3718 0.0
H461 H 0.56286 0.59985 0.34657 0.0
H462 H 0.49645 0.58916 0.31986 0.0
C463 C 0.47183 0.6316 0.40948 0.0
C464 C 0.23248 0.16181 0.20737 0.0
C465 C 0.23639 0.13004 0.18587 0.0
H466 H 0.22019 0.18659 0.26575 0.0
C467 C 0.23183 0.09836 0.20739 0.0
H468 H 0.23591 0.18656 0.19134 0.0
C469 C 0.22399 0.09837 0.24989 0.0
C470 C 0.21954 0.13007 0.27135 0.0
H471 H 0.23502 0.07352 0.19152 0.0
H472 H 0.22075 0.07355 0.26583 0.0
C473 C 0.22352 0.16182 0.24977 0.0
C474 C 0.23223 0.80066 0.74973 0.0
C475 C 0.23615 0.83244 0.77118 0.0
H476 H 0.22004 0.77583 0.69138 0.0
C477 C 0.23187 0.86411 0.74956 0.0
H478 H 0.23545 0.77592 0.76584 0.0
C479 C 0.2242 0.86406 0.70703 0.0
C480 C 0.21966 0.83234 0.68564 0.0
H481 H 0.23507 0.88896 0.76539 0.0
H482 H 0.2211 0.88887 0.69103 0.0
C483 C 0.22345 0.80061 0.7073 0.0
C484 C 0.68679 0.86217 0.72789 0.0
C485 C 0.70356 0.86135 0.76779 0.0
H486 H 0.69717 0.86324 0.66233 0.0
C487 C 0.74494 0.86168 0.77187 0.0
H488 H 0.65498 0.86206 0.72381 0.0
C489 C 0.76911 0.8621 0.73668 0.0
C490 C 0.75233 0.86254 0.69677 0.0
H491 H 0.75871 0.86105 0.80225 0.0
H492 H 0.80092 0.86189 0.74074 0.0
C493 C 0.71095 0.86293 0.69271 0.0
C494 C 0.71069 0.0981 0.27072 0.0
C495 C 0.75208 0.09836 0.26672 0.0
H496 H 0.65481 0.09823 0.23947 0.0
C497 C 0.76897 0.09775 0.22686 0.0
H498 H 0.69684 0.09858 0.30107 0.0
C499 C 0.74491 0.09728 0.19162 0.0
C500 C 0.70352 0.09776 0.1956 0.0
H501 H 0.80079 0.09782 0.22284 0.0
H502 H 0.75877 0.09713 0.16127 0.0
C503 C 0.68662 0.09797 0.23547 0.0
C504 C 0.72369 0.66101 0.25284 0.0
C505 C 0.71985 0.62947 0.27486 0.0
H506 H 0.73575 0.68521 0.19403 0.0
C507 C 0.72433 0.59757 0.25382 0.0
H508 H 0.72032 0.68593 0.26849 0.0
C509 C 0.732 0.59716 0.21129 0.0
C510 C 0.73636 0.62865 0.18932 0.0
H511 H 0.72119 0.57289 0.27009 0.0
H512 H 0.73517 0.57218 0.19573 0.0
C513 C 0.73248 0.66061 0.21042 0.0
C514 C 0.72364 0.29976 0.70944 0.0
C515 C 0.71976 0.33162 0.68806 0.0
H516 H 0.73591 0.27472 0.7677 0.0
C517 C 0.72431 0.36321 0.70971 0.0
H518 H 0.72023 0.27508 0.69331 0.0
C519 C 0.73213 0.36301 0.75221 0.0
C520 C 0.73658 0.33121 0.77353 0.0
H521 H 0.72115 0.38811 0.69394 0.0
H522 H 0.73538 0.38776 0.76824 0.0
C523 C 0.73258 0.29956 0.75183 0.0
C524 C 0.21077 0.36335 0.68965 0.0
C525 C 0.25215 0.36299 0.69362 0.0
H526 H 0.15487 0.36328 0.72093 0.0
C527 C 0.26903 0.3635 0.73347 0.0
H528 H 0.19692 0.36295 0.6593 0.0
C529 C 0.24496 0.36396 0.76872 0.0
C530 C 0.20357 0.36358 0.76477 0.0
H531 H 0.30085 0.36336 0.73746 0.0
H532 H 0.25881 0.36403 0.79907 0.0
C533 C 0.18669 0.36347 0.72491 0.0
C534 C 0.2693 0.59935 0.2248 0.0
C535 C 0.25251 0.59907 0.26471 0.0
H536 H 0.25891 0.59993 0.15922 0.0
C537 C 0.21113 0.59846 0.26881 0.0
H538 H 0.30111 0.59972 0.2207 0.0
C539 C 0.18698 0.59886 0.23364 0.0
C540 C 0.20376 0.59953 0.19373 0.0
H541 H 0.19735 0.59826 0.2992 0.0
H542 H 0.15517 0.59882 0.23775 0.0
C543 C 0.24514 0.59941 0.18962 0.0
loop_
_geom_bond_atom_site_label_1
_geom_bond_atom_site_label_2
_geom_bond_distance
_geom_bond_site_symmetry_2
_ccdc_geom_bond_type
C0 O1 1.306 . S
C0 O3 1.160 . S
O1 C0 1.306 . S
O1 Cd2 2.228 1_554 S
Cd2 O1 2.228 1_556 S
Cd2 O6 2.273 1_556 S
Cd2 O10 2.277 1_556 S
O3 C0 1.160 . S
O3 Cd4 2.203 . S
Cd4 O3 2.203 . S
Cd4 O6 2.411 . S
Cd4 O7 2.333 . S
Cd4 O8 2.352 . S
Cd4 O12 2.277 . S
Cd4 O13 2.356 . S
C5 O10 1.209 . S
C5 O12 1.226 . S
O6 Cd2 2.273 1_554 S
O6 Cd4 2.411 . S
O6 C9 1.320 . S
O7 Cd4 2.333 . S
O7 C9 1.214 . S
O8 Cd4 2.352 . S
O8 C11 1.258 . S
C9 O6 1.320 . S
C9 O7 1.214 . S
O10 Cd2 2.277 1_554 S
O10 C5 1.209 . S
C11 O8 1.258 . S
C11 O13 1.282 . S
O12 Cd4 2.277 . S
O12 C5 1.226 . S
O13 Cd4 2.356 . S
O13 C11 1.282 . S
C14 O15 1.306 . S
C14 O17 1.160 . S
O15 C14 1.306 . S
O15 Cd16 2.228 . S
Cd16 O15 2.228 . S
Cd16 O20 2.273 . S
Cd16 O24 2.277 . S
O17 C14 1.160 . S
O17 Cd18 2.203 . S
Cd18 O17 2.203 . S
Cd18 O20 2.411 . S
Cd18 O21 2.333 . S
Cd18 O22 2.352 . S
Cd18 O26 2.277 . S
Cd18 O27 2.356 . S
C19 O24 1.209 . S
C19 O26 1.226 . S
O20 Cd16 2.273 . S
O20 Cd18 2.411 . S
O20 C23 1.320 . S
O21 Cd18 2.333 . S
O21 C23 1.214 . S
O22 Cd18 2.352 . S
O22 C25 1.258 . S
C23 O20 1.320 . S
C23 O21 1.214 . S
O24 Cd16 2.277 . S
O24 C19 1.209 . S
C25 O22 1.258 . S
C25 O27 1.282 . S
O26 Cd18 2.277 . S
O26 C19 1.226 . S
O27 Cd18 2.356 . S
O27 C25 1.282 . S
C28 O29 1.306 . S
C28 O31 1.160 . S
O29 C28 1.306 . S
O29 Cd30 2.228 1_556 S
Cd30 O29 2.228 1_554 S
Cd30 O34 2.273 1_554 S
Cd30 O38 2.277 1_554 S
O31 C28 1.160 . S
O31 Cd32 2.203 . S
Cd32 O31 2.203 . S
Cd32 O34 2.411 . S
Cd32 O35 2.333 . S
Cd32 O36 2.352 . S
Cd32 O40 2.277 . S
Cd32 O41 2.356 . S
C33 O38 1.209 . S
C33 O40 1.226 . S
O34 Cd30 2.273 1_556 S
O34 Cd32 2.411 . S
O34 C37 1.320 . S
O35 Cd32 2.333 . S
O35 C37 1.214 . S
O36 Cd32 2.352 . S
O36 C39 1.258 . S
C37 O34 1.320 . S
C37 O35 1.214 . S
O38 Cd30 2.277 1_556 S
O38 C33 1.209 . S
C39 O36 1.258 . S
C39 O41 1.282 . S
O40 Cd32 2.277 . S
O40 C33 1.226 . S
O41 Cd32 2.356 . S
O41 C39 1.282 . S
C42 O43 1.306 . S
C42 O45 1.160 . S
O43 C42 1.306 . S
O43 Cd44 2.228 . S
Cd44 O43 2.228 . S
Cd44 O48 2.273 . S
Cd44 O52 2.277 . S
O45 C42 1.160 . S
O45 Cd46 2.203 . S
Cd46 O45 2.203 . S
Cd46 O48 2.411 . S
Cd46 O49 2.333 . S
Cd46 O50 2.352 . S
Cd46 O54 2.277 . S
Cd46 O55 2.356 . S
C47 O52 1.209 . S
C47 O54 1.226 . S
O48 Cd44 2.273 . S
O48 Cd46 2.411 . S
O48 C51 1.320 . S
O49 Cd46 2.333 . S
O49 C51 1.214 . S
O50 Cd46 2.352 . S
O50 C53 1.258 . S
C51 O48 1.320 . S
C51 O49 1.214 . S
O52 Cd44 2.277 . S
O52 C47 1.209 . S
C53 O50 1.258 . S
C53 O55 1.282 . S
O54 Cd46 2.277 . S
O54 C47 1.226 . S
O55 Cd46 2.356 . S
O55 C53 1.282 . S
C56 O57 1.306 . S
C56 O59 1.160 . S
O57 C56 1.306 . S
O57 Cd58 2.228 . S
Cd58 O57 2.228 . S
Cd58 O62 2.273 . S
Cd58 O66 2.277 . S
O59 C56 1.160 . S
O59 Cd60 2.203 . S
Cd60 O59 2.203 . S
Cd60 O62 2.411 . S
Cd60 O63 2.333 . S
Cd60 O64 2.352 . S
Cd60 O68 2.277 . S
Cd60 O69 2.356 . S
C61 O66 1.209 . S
C61 O68 1.226 . S
O62 Cd58 2.273 . S
O62 Cd60 2.411 . S
O62 C65 1.320 . S
O63 Cd60 2.333 . S
O63 C65 1.214 . S
O64 Cd60 2.352 . S
O64 C67 1.258 . S
C65 O62 1.320 . S
C65 O63 1.214 . S
O66 Cd58 2.277 . S
O66 C61 1.209 . S
C67 O64 1.258 . S
C67 O69 1.282 . S
O68 Cd60 2.277 . S
O68 C61 1.226 . S
O69 Cd60 2.356 . S
O69 C67 1.282 . S
C70 O71 1.306 . S
C70 O73 1.160 . S
O71 C70 1.306 . S
O71 Cd72 2.228 . S
Cd72 O71 2.228 . S
Cd72 O76 2.273 . S
Cd72 O80 2.277 . S
O73 C70 1.160 . S
O73 Cd74 2.203 . S
Cd74 O73 2.203 . S
Cd74 O76 2.411 . S
Cd74 O77 2.333 . S
Cd74 O78 2.352 . S
Cd74 O82 2.277 . S
Cd74 O83 2.356 . S
C75 O80 1.209 . S
C75 O82 1.226 . S
O76 Cd72 2.273 . S
O76 Cd74 2.411 . S
O76 C79 1.320 . S
O77 Cd74 2.333 . S
O77 C79 1.214 . S
O78 Cd74 2.352 . S
O78 C81 1.258 . S
C79 O76 1.320 . S
C79 O77 1.214 . S
O80 Cd72 2.277 . S
O80 C75 1.209 . S
C81 O78 1.258 . S
C81 O83 1.282 . S
O82 Cd74 2.277 . S
O82 C75 1.226 . S
O83 Cd74 2.356 . S
O83 C81 1.282 . S
C84 O85 1.306 . S
C84 O87 1.160 . S
O85 C84 1.306 . S
O85 Cd86 2.228 . S
Cd86 O85 2.228 . S
Cd86 O90 2.273 . S
Cd86 O94 2.277 . S
O87 C84 1.160 . S
O87 Cd88 2.203 . S
Cd88 O87 2.203 . S
Cd88 O90 2.411 . S
Cd88 O91 2.333 . S
Cd88 O92 2.352 . S
Cd88 O96 2.277 . S
Cd88 O97 2.356 . S
C89 O94 1.209 . S
C89 O96 1.226 . S
O90 Cd86 2.273 . S
O90 Cd88 2.411 . S
O90 C93 1.320 . S
O91 Cd88 2.333 . S
O91 C93 1.214 . S
O92 Cd88 2.352 . S
O92 C95 1.258 . S
C93 O90 1.320 . S
C93 O91 1.214 . S
O94 Cd86 2.277 . S
O94 C89 1.209 . S
C95 O92 1.258 . S
C95 O97 1.282 . S
O96 Cd88 2.277 . S
O96 C89 1.226 . S
O97 Cd88 2.356 . S
O97 C95 1.282 . S
C98 O99 1.306 . S
C98 O101 1.160 . S
O99 C98 1.306 . S
O99 Cd100 2.228 . S
Cd100 O99 2.228 . S
Cd100 O104 2.273 . S
Cd100 O108 2.277 . S
O101 C98 1.160 . S
O101 Cd102 2.203 . S
Cd102 O101 2.203 . S
Cd102 O104 2.411 . S
Cd102 O105 2.333 . S
Cd102 O106 2.352 . S
Cd102 O110 2.277 . S
Cd102 O111 2.356 . S
C103 O108 1.209 . S
C103 O110 1.226 . S
O104 Cd100 2.273 . S
O104 Cd102 2.411 . S
O104 C107 1.320 . S
O105 Cd102 2.333 . S
O105 C107 1.214 . S
O106 Cd102 2.352 . S
O106 C109 1.258 . S
C107 O104 1.320 . S
C107 O105 1.214 . S
O108 Cd100 2.277 . S
O108 C103 1.209 . S
C109 O106 1.258 . S
C109 O111 1.282 . S
O110 Cd102 2.277 . S
O110 C103 1.226 . S
O111 Cd102 2.356 . S
O111 C109 1.282 . S
C112 O113 1.306 . S
C112 O115 1.160 . S
O113 C112 1.306 . S
O113 Cd114 2.228 1_554 S
Cd114 O113 2.228 1_556 S
Cd114 O118 2.273 1_556 S
Cd114 O122 2.277 1_556 S
O115 C112 1.160 . S
O115 Cd116 2.203 . S
Cd116 O115 2.203 . S
Cd116 O118 2.411 . S
Cd116 O119 2.333 . S
Cd116 O120 2.352 . S
Cd116 O124 2.277 . S
Cd116 O125 2.356 . S
C117 O122 1.209 . S
C117 O124 1.226 . S
O118 Cd114 2.273 1_554 S
O118 Cd116 2.411 . S
O118 C121 1.320 . S
O119 Cd116 2.333 . S
O119 C121 1.214 . S
O120 Cd116 2.352 . S
O120 C123 1.258 . S
C121 O118 1.320 . S
C121 O119 1.214 . S
O122 Cd114 2.277 1_554 S
O122 C117 1.209 . S
C123 O120 1.258 . S
C123 O125 1.282 . S
O124 Cd116 2.277 . S
O124 C117 1.226 . S
O125 Cd116 2.356 . S
O125 C123 1.282 . S
C126 O127 1.306 . S
C126 O129 1.160 . S
O127 C126 1.306 . S
O127 Cd128 2.228 . S
Cd128 O127 2.228 . S
Cd128 O132 2.273 . S
Cd128 O136 2.277 . S
O129 C126 1.160 . S
O129 Cd130 2.203 . S
Cd130 O129 2.203 . S
Cd130 O132 2.411 . S
Cd130 O133 2.333 . S
Cd130 O134 2.352 . S
Cd130 O138 2.277 . S
Cd130 O139 2.356 . S
C131 O136 1.209 . S
C131 O138 1.226 . S
O132 Cd128 2.273 . S
O132 Cd130 2.411 . S
O132 C135 1.320 . S
O133 Cd130 2.333 . S
O133 C135 1.214 . S
O134 Cd130 2.352 . S
O134 C137 1.258 . S
C135 O132 1.320 . S
C135 O133 1.214 . S
O136 Cd128 2.277 . S
O136 C131 1.209 . S
C137 O134 1.258 . S
C137 O139 1.282 . S
O138 Cd130 2.277 . S
O138 C131 1.226 . S
O139 Cd130 2.356 . S
O139 C137 1.282 . S
C140 O141 1.306 . S
C140 O143 1.160 . S
O141 C140 1.306 . S
O141 Cd142 2.228 1_556 S
Cd142 O141 2.228 1_554 S
Cd142 O146 2.273 1_554 S
Cd142 O150 2.277 1_554 S
O143 C140 1.160 . S
O143 Cd144 2.203 . S
Cd144 O143 2.203 . S
Cd144 O146 2.411 . S
Cd144 O147 2.333 . S
Cd144 O148 2.352 . S
Cd144 O152 2.277 . S
Cd144 O153 2.356 . S
C145 O150 1.209 . S
C145 O152 1.226 . S
O146 Cd142 2.273 1_556 S
O146 Cd144 2.411 . S
O146 C149 1.320 . S
O147 Cd144 2.333 . S
O147 C149 1.214 . S
O148 Cd144 2.352 . S
O148 C151 1.258 . S
C149 O146 1.320 . S
C149 O147 1.214 . S
O150 Cd142 2.277 1_556 S
O150 C145 1.209 . S
C151 O148 1.258 . S
C151 O153 1.282 . S
O152 Cd144 2.277 . S
O152 C145 1.226 . S
O153 Cd144 2.356 . S
O153 C151 1.282 . S
C154 O155 1.306 . S
C154 O157 1.160 . S
O155 C154 1.306 . S
O155 Cd156 2.228 . S
Cd156 O155 2.228 . S
Cd156 O160 2.273 . S
Cd156 O164 2.277 . S
O157 C154 1.160 . S
O157 Cd158 2.203 . S
Cd158 O157 2.203 . S
Cd158 O160 2.411 . S
Cd158 O161 2.333 . S
Cd158 O162 2.352 . S
Cd158 O166 2.277 . S
Cd158 O167 2.356 . S
C159 O164 1.209 . S
C159 O166 1.226 . S
O160 Cd156 2.273 . S
O160 Cd158 2.411 . S
O160 C163 1.320 . S
O161 Cd158 2.333 . S
O161 C163 1.214 . S
O162 Cd158 2.352 . S
O162 C165 1.258 . S
C163 O160 1.320 . S
C163 O161 1.214 . S
O164 Cd156 2.277 . S
O164 C159 1.209 . S
C165 O162 1.258 . S
C165 O167 1.282 . S
O166 Cd158 2.277 . S
O166 C159 1.226 . S
O167 Cd158 2.356 . S
O167 C165 1.282 . S
C168 O169 1.306 . S
C168 O171 1.160 . S
O169 C168 1.306 . S
O169 Cd170 2.228 . S
Cd170 O169 2.228 . S
Cd170 O174 2.273 . S
Cd170 O178 2.277 . S
O171 C168 1.160 . S
O171 Cd172 2.203 . S
Cd172 O171 2.203 . S
Cd172 O174 2.411 . S
Cd172 O175 2.333 . S
Cd172 O176 2.352 . S
Cd172 O180 2.277 . S
Cd172 O181 2.356 . S
C173 O178 1.209 . S
C173 O180 1.226 . S
O174 Cd170 2.273 . S
O174 Cd172 2.411 . S
O174 C177 1.320 . S
O175 Cd172 2.333 . S
O175 C177 1.214 . S
O176 Cd172 2.352 . S
O176 C179 1.258 . S
C177 O174 1.320 . S
C177 O175 1.214 . S
O178 Cd170 2.277 . S
O178 C173 1.209 . S
C179 O176 1.258 . S
C179 O181 1.282 . S
O180 Cd172 2.277 . S
O180 C173 1.226 . S
O181 Cd172 2.356 . S
O181 C179 1.282 . S
C182 O183 1.306 . S
C182 O185 1.160 . S
O183 C182 1.306 . S
O183 Cd184 2.228 . S
Cd184 O183 2.228 . S
Cd184 O188 2.273 . S
Cd184 O192 2.277 . S
O185 C182 1.160 . S
O185 Cd186 2.203 . S
Cd186 O185 2.203 . S
Cd186 O188 2.411 . S
Cd186 O189 2.333 . S
Cd186 O190 2.352 . S
Cd186 O194 2.277 . S
Cd186 O195 2.356 . S
C187 O192 1.209 . S
C187 O194 1.226 . S
O188 Cd184 2.273 . S
O188 Cd186 2.411 . S
O188 C191 1.320 . S
O189 Cd186 2.333 . S
O189 C191 1.214 . S
O190 Cd186 2.352 . S
O190 C193 1.258 . S
C191 O188 1.320 . S
C191 O189 1.214 . S
O192 Cd184 2.277 . S
O192 C187 1.209 . S
C193 O190 1.258 . S
C193 O195 1.282 . S
O194 Cd186 2.277 . S
O194 C187 1.226 . S
O195 Cd186 2.356 . S
O195 C193 1.282 . S
C196 O197 1.306 . S
C196 O199 1.160 . S
O197 C196 1.306 . S
O197 Cd198 2.228 . S
Cd198 O197 2.228 . S
Cd198 O202 2.273 . S
Cd198 O206 2.277 . S
O199 C196 1.160 . S
O199 Cd200 2.203 . S
Cd200 O199 2.203 . S
Cd200 O202 2.411 . S
Cd200 O203 2.333 . S
Cd200 O204 2.352 . S
Cd200 O208 2.277 . S
Cd200 O209 2.356 . S
C201 O206 1.209 . S
C201 O208 1.226 . S
O202 Cd198 2.273 . S
O202 Cd200 2.411 . S
O202 C205 1.320 . S
O203 Cd200 2.333 . S
O203 C205 1.214 . S
O204 Cd200 2.352 . S
O204 C207 1.258 . S
C205 O202 1.320 . S
C205 O203 1.214 . S
O206 Cd198 2.277 . S
O206 C201 1.209 . S
C207 O204 1.258 . S
C207 O209 1.282 . S
O208 Cd200 2.277 . S
O208 C201 1.226 . S
O209 Cd200 2.356 . S
O209 C207 1.282 . S
C210 O211 1.306 . S
C210 O213 1.160 . S
O211 C210 1.306 . S
O211 Cd212 2.228 . S
Cd212 O211 2.228 . S
Cd212 O216 2.273 . S
Cd212 O220 2.277 . S
O213 C210 1.160 . S
O213 Cd214 2.203 . S
Cd214 O213 2.203 . S
Cd214 O216 2.411 . S
Cd214 O217 2.333 . S
Cd214 O218 2.352 . S
Cd214 O222 2.277 . S
Cd214 O223 2.356 . S
C215 O220 1.209 . S
C215 O222 1.226 . S
O216 Cd212 2.273 . S
O216 Cd214 2.411 . S
O216 C219 1.320 . S
O217 Cd214 2.333 . S
O217 C219 1.214 . S
O218 Cd214 2.352 . S
O218 C221 1.258 . S
C219 O216 1.320 . S
C219 O217 1.214 . S
O220 Cd212 2.277 . S
O220 C215 1.209 . S
C221 O218 1.258 . S
C221 O223 1.282 . S
O222 Cd214 2.277 . S
O222 C215 1.226 . S
O223 Cd214 2.356 . S
O223 C221 1.282 . S
C224 C225 1.387 1_556 S
C224 H228 0.950 . S
C224 C233 1.390 . S
C225 C224 1.387 1_554 S
C225 C227 1.387 . S
H226 C233 0.950 . S
C227 C225 1.387 . S
C227 C229 1.390 1_554 S
C227 H231 0.950 . S
H228 C224 0.950 . S
C229 C227 1.390 1_556 S
C229 C230 1.387 . S
C229 H232 0.950 . S
C230 C229 1.387 . S
C230 C233 1.387 . S
H231 C227 0.950 . S
H232 C229 0.950 . S
C233 C224 1.390 . S
C233 H226 0.950 . S
C233 C230 1.387 . S
C234 C235 1.387 . S
C234 H238 0.950 . S
C234 C243 1.390 . S
C235 C234 1.387 . S
C235 C237 1.387 . S
H236 C243 0.950 . S
C237 C235 1.387 . S
C237 C239 1.390 . S
C237 H241 0.950 . S
H238 C234 0.950 . S
C239 C237 1.390 . S
C239 C240 1.387 . S
C239 H242 0.950 . S
C240 C239 1.387 . S
C240 C243 1.387 . S
H241 C237 0.950 . S
H242 C239 0.950 . S
C243 C234 1.390 . S
C243 H236 0.950 . S
C243 C240 1.387 . S
C244 C245 1.387 . S
C244 H248 0.950 . S
C244 C253 1.390 1_556 S
C245 C244 1.387 . S
C245 C247 1.387 1_556 S
H246 C253 0.950 . S
C247 C245 1.387 1_554 S
C247 C249 1.390 . S
C247 H251 0.950 . S
H248 C244 0.950 . S
C249 C247 1.390 . S
C249 C250 1.387 . S
C249 H252 0.950 . S
C250 C249 1.387 . S
C250 C253 1.387 . S
H251 C247 0.950 . S
H252 C249 0.950 . S
C253 C244 1.390 1_554 S
C253 H246 0.950 . S
C253 C250 1.387 . S
C254 C255 1.387 . S
C254 H258 0.950 . S
C254 C263 1.390 . S
C255 C254 1.387 . S
C255 C257 1.387 . S
H256 C263 0.950 . S
C257 C255 1.387 . S
C257 C259 1.390 . S
C257 H261 0.950 . S
H258 C254 0.950 . S
C259 C257 1.390 . S
C259 C260 1.387 . S
C259 H262 0.950 . S
C260 C259 1.387 . S
C260 C263 1.387 . S
H261 C257 0.950 . S
H262 C259 0.950 . S
C263 C254 1.390 . S
C263 H256 0.950 . S
C263 C260 1.387 . S
C264 C265 1.387 . S
C264 H268 0.950 . S
C264 C273 1.390 . S
C265 C264 1.387 . S
C265 C267 1.387 1_554 S
H266 C273 0.950 . S
C267 C265 1.387 1_556 S
C267 C269 1.390 . S
C267 H271 0.950 . S
H268 C264 0.950 . S
C269 C267 1.390 . S
C269 C270 1.387 . S
C269 H272 0.950 . S
C270 C269 1.387 . S
C270 C273 1.387 1_556 S
H271 C267 0.950 . S
H272 C269 0.950 . S
C273 C264 1.390 . S
C273 H266 0.950 . S
C273 C270 1.387 1_554 S
C274 C275 1.387 . S
C274 H278 0.950 . S
C274 C283 1.390 . S
C275 C274 1.387 . S
C275 C277 1.387 . S
H276 C283 0.950 . S
C277 C275 1.387 . S
C277 C279 1.390 . S
C277 H281 0.950 . S
H278 C274 0.950 . S
C279 C277 1.390 . S
C279 C280 1.387 . S
C279 H282 0.950 . S
C280 C279 1.387 . S
C280 C283 1.387 . S
H281 C277 0.950 . S
H282 C279 0.950 . S
C283 C274 1.390 . S
C283 H276 0.950 . S
C283 C280 1.387 . S
C284 C285 1.387 1_554 S
C284 H288 0.950 . S
C284 C293 1.390 . S
C285 C284 1.387 1_556 S
C285 C287 1.387 . S
H286 C293 0.950 . S
C287 C285 1.387 . S
C287 C289 1.390 . S
C287 H291 0.950 . S
H288 C284 0.950 . S
C289 C287 1.390 . S
C289 C290 1.387 1_556 S
C289 H292 0.950 . S
C290 C289 1.387 1_554 S
C290 C293 1.387 . S
H291 C287 0.950 . S
H292 C289 0.950 . S
C293 C284 1.390 . S
C293 H286 0.950 . S
C293 C290 1.387 . S
C294 C295 1.387 . S
C294 H298 0.950 . S
C294 C303 1.390 . S
C295 C294 1.387 . S
C295 C297 1.387 . S
H296 C303 0.950 . S
C297 C295 1.387 . S
C297 C299 1.390 . S
C297 H301 0.950 . S
H298 C294 0.950 . S
C299 C297 1.390 . S
C299 C300 1.387 . S
C299 H302 0.950 . S
C300 C299 1.387 . S
C300 C303 1.387 . S
H301 C297 0.950 . S
H302 C299 0.950 . S
C303 C294 1.390 . S
C303 H296 0.950 . S
C303 C300 1.387 . S
C304 C305 1.387 . S
C304 H308 0.950 . S
C304 C313 1.390 1_544 S
C305 C304 1.387 . S
C305 C307 1.387 . S
H306 C313 0.950 . S
C307 C305 1.387 . S
C307 C309 1.390 1_544 S
C307 H311 0.950 . S
H308 C304 0.950 . S
C309 C307 1.390 1_566 S
C309 C310 1.387 . S
C309 H312 0.950 . S
C310 C309 1.387 . S
C310 C313 1.387 . S
H311 C307 0.950 . S
H312 C309 0.950 . S
C313 C304 1.390 1_566 S
C313 H306 0.950 . S
C313 C310 1.387 . S
C314 C315 1.387 . S
C314 H318 0.950 . S
C314 C323 1.390 1_565 S
C315 C314 1.387 . S
C315 C317 1.387 . S
H316 C323 0.950 . S
C317 C315 1.387 . S
C317 C319 1.390 1_565 S
C317 H321 0.950 . S
H318 C314 0.950 . S
C319 C317 1.390 1_545 S
C319 C320 1.387 . S
C319 H322 0.950 . S
C320 C319 1.387 . S
C320 C323 1.387 . S
H321 C317 0.950 . S
H322 C319 0.950 . S
C323 C314 1.390 1_545 S
C323 H316 0.950 . S
C323 C320 1.387 . S
C324 C325 1.387 . S
C324 H328 0.950 . S
C324 C333 1.390 1_566 S
C325 C324 1.387 . S
C325 C327 1.387 . S
H326 C333 0.950 . S
C327 C325 1.387 . S
C327 C329 1.390 1_566 S
C327 H331 0.950 . S
H328 C324 0.950 . S
C329 C327 1.390 1_544 S
C329 C330 1.387 . S
C329 H332 0.950 . S
C330 C329 1.387 . S
C330 C333 1.387 . S
H331 C327 0.950 . S
H332 C329 0.950 . S
C333 C324 1.390 1_544 S
C333 H326 0.950 . S
C333 C330 1.387 . S
C334 C335 1.387 . S
C334 H338 0.950 . S
C334 C343 1.390 1_545 S
C335 C334 1.387 . S
C335 C337 1.387 . S
H336 C343 0.950 . S
C337 C335 1.387 . S
C337 C339 1.390 1_545 S
C337 H341 0.950 . S
H338 C334 0.950 . S
C339 C337 1.390 1_565 S
C339 C340 1.387 . S
C339 H342 0.950 . S
C340 C339 1.387 . S
C340 C343 1.387 . S
H341 C337 0.950 . S
H342 C339 0.950 . S
C343 C334 1.390 1_565 S
C343 H336 0.950 . S
C343 C340 1.387 . S
C344 C345 1.387 . S
C344 H348 0.950 . S
C344 C353 1.390 1_556 S
C345 C344 1.387 . S
C345 C347 1.387 . S
H346 C353 0.950 . S
C347 C345 1.387 . S
C347 C349 1.390 1_556 S
C347 H351 0.950 . S
H348 C344 0.950 . S
C349 C347 1.390 1_554 S
C349 C350 1.387 . S
C349 H352 0.950 . S
C350 C349 1.387 . S
C350 C353 1.387 . S
H351 C347 0.950 . S
H352 C349 0.950 . S
C353 C344 1.390 1_554 S
C353 H346 0.950 . S
C353 C350 1.387 . S
C354 C355 1.387 . S
C354 H358 0.950 . S
C354 C363 1.390 . S
C355 C354 1.387 . S
C355 C357 1.387 . S
H356 C363 0.950 . S
C357 C355 1.387 . S
C357 C359 1.390 . S
C357 H361 0.950 . S
H358 C354 0.950 . S
C359 C357 1.390 . S
C359 C360 1.387 . S
C359 H362 0.950 . S
C360 C359 1.387 . S
C360 C363 1.387 . S
H361 C357 0.950 . S
H362 C359 0.950 . S
C363 C354 1.390 . S
C363 H356 0.950 . S
C363 C360 1.387 . S
C364 C365 1.387 . S
C364 H368 0.950 . S
C364 C373 1.390 1_554 S
C365 C364 1.387 . S
C365 C367 1.387 . S
H366 C373 0.950 . S
C367 C365 1.387 . S
C367 C369 1.390 1_554 S
C367 H371 0.950 . S
H368 C364 0.950 . S
C369 C367 1.390 1_556 S
C369 C370 1.387 . S
C369 H372 0.950 . S
C370 C369 1.387 . S
C370 C373 1.387 . S
H371 C367 0.950 . S
H372 C369 0.950 . S
C373 C364 1.390 1_556 S
C373 H366 0.950 . S
C373 C370 1.387 . S
C374 C375 1.387 . S
C374 H378 0.950 . S
C374 C383 1.390 . S
C375 C374 1.387 . S
C375 C377 1.387 . S
H376 C383 0.950 . S
C377 C375 1.387 . S
C377 C379 1.390 . S
C377 H381 0.950 . S
H378 C374 0.950 . S
C379 C377 1.390 . S
C379 C380 1.387 . S
C379 H382 0.950 . S
C380 C379 1.387 . S
C380 C383 1.387 . S
H381 C377 0.950 . S
H382 C379 0.950 . S
C383 C374 1.390 . S
C383 H376 0.950 . S
C383 C380 1.387 . S
C384 C385 1.387 . S
C384 H388 0.950 . S
C384 C393 1.390 . S
C385 C384 1.387 . S
C385 C387 1.387 . S
H386 C393 0.950 . S
C387 C385 1.387 . S
C387 C389 1.390 . S
C387 H391 0.950 . S
H388 C384 0.950 . S
C389 C387 1.390 . S
C389 C390 1.387 . S
C389 H392 0.950 . S
C390 C389 1.387 . S
C390 C393 1.387 . S
H391 C387 0.950 . S
H392 C389 0.950 . S
C393 C384 1.390 . S
C393 H386 0.950 . S
C393 C390 1.387 . S
C394 C395 1.387 . S
C394 H398 0.950 . S
C394 C403 1.390 1_655 S
C395 C394 1.387 . S
C395 C397 1.387 . S
H396 C403 0.950 . S
C397 C395 1.387 . S
C397 C399 1.390 1_655 S
C397 H401 0.950 . S
H398 C394 0.950 . S
C399 C397 1.390 1_455 S
C399 C400 1.387 . S
C399 H402 0.950 . S
C400 C399 1.387 . S
C400 C403 1.387 . S
H401 C397 0.950 . S
H402 C399 0.950 . S
C403 C394 1.390 1_455 S
C403 H396 0.950 . S
C403 C400 1.387 . S
C404 C405 1.387 . S
C404 H408 0.950 . S
C404 C413 1.390 . S
C405 C404 1.387 . S
C405 C407 1.387 . S
H406 C413 0.950 . S
C407 C405 1.387 . S
C407 C409 1.390 . S
C407 H411 0.950 . S
H408 C404 0.950 . S
C409 C407 1.390 . S
C409 C410 1.387 . S
C409 H412 0.950 . S
C410 C409 1.387 . S
C410 C413 1.387 . S
H411 C407 0.950 . S
H412 C409 0.950 . S
C413 C404 1.390 . S
C413 H406 0.950 . S
C413 C410 1.387 . S
C414 C415 1.387 . S
C414 H418 0.950 . S
C414 C423 1.390 1_455 S
C415 C414 1.387 . S
C415 C417 1.387 . S
H416 C423 0.950 . S
C417 C415 1.387 . S
C417 C419 1.390 1_455 S
C417 H421 0.950 . S
H418 C414 0.950 . S
C419 C417 1.390 1_655 S
C419 C420 1.387 . S
C419 H422 0.950 . S
C420 C419 1.387 . S
C420 C423 1.387 . S
H421 C417 0.950 . S
H422 C419 0.950 . S
C423 C414 1.390 1_655 S
C423 H416 0.950 . S
C423 C420 1.387 . S
C424 C425 1.387 . S
C424 H428 0.950 . S
C424 C433 1.390 1_455 S
C425 C424 1.387 . S
C425 C427 1.387 . S
H426 C433 0.950 . S
C427 C425 1.387 . S
C427 C429 1.390 1_455 S
C427 H431 0.950 . S
H428 C424 0.950 . S
C429 C427 1.390 1_655 S
C429 C430 1.387 . S
C429 H432 0.950 . S
C430 C429 1.387 . S
C430 C433 1.387 . S
H431 C427 0.950 . S
H432 C429 0.950 . S
C433 C424 1.390 1_655 S
C433 H426 0.950 . S
C433 C430 1.387 . S
C434 C435 1.387 . S
C434 H438 0.950 . S
C434 C443 1.390 . S
C435 C434 1.387 . S
C435 C437 1.387 . S
H436 C443 0.950 . S
C437 C435 1.387 . S
C437 C439 1.390 . S
C437 H441 0.950 . S
H438 C434 0.950 . S
C439 C437 1.390 . S
C439 C440 1.387 . S
C439 H442 0.950 . S
C440 C439 1.387 . S
C440 C443 1.387 . S
H441 C437 0.950 . S
H442 C439 0.950 . S
C443 C434 1.390 . S
C443 H436 0.950 . S
C443 C440 1.387 . S
C444 C445 1.387 . S
C444 H448 0.950 . S
C444 C453 1.390 1_455 S
C445 C444 1.387 . S
C445 C447 1.387 . S
H446 C453 0.950 . S
C447 C445 1.387 . S
C447 C449 1.390 1_455 S
C447 H451 0.950 . S
H448 C444 0.950 . S
C449 C447 1.390 1_655 S
C449 C450 1.387 . S
C449 H452 0.950 . S
C450 C449 1.387 . S
C450 C453 1.387 . S
H451 C447 0.950 . S
H452 C449 0.950 . S
C453 C444 1.390 1_655 S
C453 H446 0.950 . S
C453 C450 1.387 . S
C454 C455 1.387 . S
C454 H458 0.950 . S
C454 C463 1.390 . S
C455 C454 1.387 . S
C455 C457 1.387 . S
H456 C463 0.950 . S
C457 C455 1.387 . S
C457 C459 1.390 . S
C457 H461 0.950 . S
H458 C454 0.950 . S
C459 C457 1.390 . S
C459 C460 1.387 . S
C459 H462 0.950 . S
C460 C459 1.387 . S
C460 C463 1.387 . S
H461 C457 0.950 . S
H462 C459 0.950 . S
C463 C454 1.390 . S
C463 H456 0.950 . S
C463 C460 1.387 . S
C464 C465 1.387 . S
C464 H468 0.950 . S
C464 C473 1.390 . S
C465 C464 1.387 . S
C465 C467 1.387 . S
H466 C473 0.950 . S
C467 C465 1.387 . S
C467 C469 1.390 . S
C467 H471 0.950 . S
H468 C464 0.950 . S
C469 C467 1.390 . S
C469 C470 1.387 . S
C469 H472 0.950 . S
C470 C469 1.387 . S
C470 C473 1.387 . S
H471 C467 0.950 . S
H472 C469 0.950 . S
C473 C464 1.390 . S
C473 H466 0.950 . S
C473 C470 1.387 . S
C474 C475 1.387 . S
C474 H478 0.950 . S
C474 C483 1.390 . S
C475 C474 1.387 . S
C475 C477 1.387 . S
H476 C483 0.950 . S
C477 C475 1.387 . S
C477 C479 1.390 . S
C477 H481 0.950 . S
H478 C474 0.950 . S
C479 C477 1.390 . S
C479 C480 1.387 . S
C479 H482 0.950 . S
C480 C479 1.387 . S
C480 C483 1.387 . S
H481 C477 0.950 . S
H482 C479 0.950 . S
C483 C474 1.390 . S
C483 H476 0.950 . S
C483 C480 1.387 . S
C484 C485 1.387 . S
C484 H488 0.950 . S
C484 C493 1.390 . S
C485 C484 1.387 . S
C485 C487 1.387 . S
H486 C493 0.950 . S
C487 C485 1.387 . S
C487 C489 1.390 . S
C487 H491 0.950 . S
H488 C484 0.950 . S
C489 C487 1.390 . S
C489 C490 1.387 . S
C489 H492 0.950 . S
C490 C489 1.387 . S
C490 C493 1.387 . S
H491 C487 0.950 . S
H492 C489 0.950 . S
C493 C484 1.390 . S
C493 H486 0.950 . S
C493 C490 1.387 . S
C494 C495 1.387 . S
C494 H498 0.950 . S
C494 C503 1.390 . S
C495 C494 1.387 . S
C495 C497 1.387 . S
H496 C503 0.950 . S
C497 C495 1.387 . S
C497 C499 1.390 . S
C497 H501 0.950 . S
H498 C494 0.950 . S
C499 C497 1.390 . S
C499 C500 1.387 . S
C499 H502 0.950 . S
C500 C499 1.387 . S
C500 C503 1.387 . S
H501 C497 0.950 . S
H502 C499 0.950 . S
C503 C494 1.390 . S
C503 H496 0.950 . S
C503 C500 1.387 . S
C504 C505 1.387 . S
C504 H508 0.950 . S
C504 C513 1.390 . S
C505 C504 1.387 . S
C505 C507 1.387 . S
H506 C513 0.950 . S
C507 C505 1.387 . S
C507 C509 1.390 . S
C507 H511 0.950 . S
H508 C504 0.950 . S
C509 C507 1.390 . S
C509 C510 1.387 . S
C509 H512 0.950 . S
C510 C509 1.387 . S
C510 C513 1.387 . S
H511 C507 0.950 . S
H512 C509 0.950 . S
C513 C504 1.390 . S
C513 H506 0.950 . S
C513 C510 1.387 . S
C514 C515 1.387 . S
C514 H518 0.950 . S
C514 C523 1.390 . S
C515 C514 1.387 . S
C515 C517 1.387 . S
H516 C523 0.950 . S
C517 C515 1.387 . S
C517 C519 1.390 . S
C517 H521 0.950 . S
H518 C514 0.950 . S
C519 C517 1.390 . S
C519 C520 1.387 . S
C519 H522 0.950 . S
C520 C519 1.387 . S
C520 C523 1.387 . S
H521 C517 0.950 . S
H522 C519 0.950 . S
C523 C514 1.390 . S
C523 H516 0.950 . S
C523 C520 1.387 . S
C524 C525 1.387 . S
C524 H528 0.950 . S
C524 C533 1.390 . S
C525 C524 1.387 . S
C525 C527 1.387 . S
H526 C533 0.950 . S
C527 C525 1.387 . S
C527 C529 1.390 . S
C527 H531 0.950 . S
H528 C524 0.950 . S
C529 C527 1.390 . S
C529 C530 1.387 . S
C529 H532 0.950 . S
C530 C529 1.387 . S
C530 C533 1.387 . S
H531 C527 0.950 . S
H532 C529 0.950 . S
C533 C524 1.390 . S
C533 H526 0.950 . S
C533 C530 1.387 . S
C534 C535 1.387 . S
C534 H538 0.950 . S
C534 C543 1.390 . S
C535 C534 1.387 . S
C535 C537 1.387 . S
H536 C543 0.950 . S
C537 C535 1.387 . S
C537 C539 1.390 . S
C537 H541 0.950 . S
H538 C534 0.950 . S
C539 C537 1.390 . S
C539 C540 1.387 . S
C539 H542 0.950 . S
C540 C539 1.387 . S
C540 C543 1.387 . S
H541 C537 0.950 . S
H542 C539 0.950 . S
C543 C534 1.390 . S
C543 H536 0.950 . S
C543 C540 1.387 . S
C225 C9 1.520 . S
C230 C179 1.504 . S
C235 C193 1.503 . S
C240 C23 1.520 . S
C245 C37 1.520 . S
C250 C207 1.503 . S
C255 C221 1.504 . S
C260 C51 1.520 . S
C265 C121 1.520 . S
C270 C67 1.502 . S
C275 C81 1.504 . S
C280 C135 1.520 . S
C285 C149 1.520 . S
C290 C95 1.504 . S
C295 C109 1.503 . S
C300 C163 1.520 . S
C305 C5 1.531 . S
C310 C33 1.531 . S
C315 C19 1.534 . S
C320 C47 1.534 . S
C325 C61 1.691 . S
C330 C89 1.691 . S
C335 C75 1.694 . S
C340 C103 1.694 . S
C345 C145 1.531 . S
C350 C117 1.531 . S
C355 C131 1.531 . S
C360 C159 1.531 . S
C365 C201 1.694 . S
C370 C173 1.694 . S
C375 C187 1.694 . S
C380 C215 1.694 . S
C385 C84 1.484 . S
C390 C0 1.492 . S
C395 C98 1.484 . S
C400 C14 1.492 . S
C405 C28 1.492 . S
C410 C56 1.486 . S
C415 C42 1.494 . S
C420 C70 1.487 . S
C425 C196 1.487 . S
C430 C112 1.493 . S
C435 C126 1.494 . S
C440 C210 1.487 . S
C445 C168 1.485 . S
C450 C140 1.492 . S
C455 C154 1.494 . S
C460 C182 1.487 . S
C465 C11 1.282 . S
C470 C53 1.282 . S
C475 C39 1.282 . S
C480 C25 1.282 . S
C485 C65 1.719 . S
C490 C107 1.719 . S
C495 C79 1.719 . S
C500 C93 1.719 . S
C505 C165 1.282 . S
C510 C123 1.282 . S
C515 C137 1.282 . S
C520 C151 1.282 . S
C525 C219 1.719 . S
C530 C177 1.719 . S
C535 C191 1.719 . S
C540 C205 1.719 . S
