# Generated by pormake.
# Topology nfb, (4)-cn, num edge types: 1
# Building blocks:
#     Node 0, Type 0, BuildingBlock: GALJAG_clean_sbu_0, # of connection points: 4
#     Node 1, Type 0, BuildingBlock: GALJAG_clean_sbu_0, # of connection points: 4
#     Node 2, Type 0, BuildingBlock: GALJAG_clean_sbu_0, # of connection points: 4
#     Node 3, Type 0, BuildingBlock: GALJAG_clean_sbu_0, # of connection points: 4
#     Node 4, Type 0, BuildingBlock: GALJAG_clean_sbu_0, # of connection points: 4
#     Node 5, Type 0, BuildingBlock: GALJAG_clean_sbu_0, # of connection points: 4
#     Node 6, Type 0, BuildingBlock: GALJAG_clean_sbu_0, # of connection points: 4
#     Node 7, Type 0, BuildingBlock: GALJAG_clean_sbu_0, # of connection points: 4
#     Node 8, Type 0, BuildingBlock: GALJAG_clean_sbu_0, # of connection points: 4
#     Node 9, Type 0, BuildingBlock: GALJAG_clean_sbu_0, # of connection points: 4
#     Node 10, Type 0, BuildingBlock: GALJAG_clean_sbu_0, # of connection points: 4
#     Node 11, Type 0, BuildingBlock: GALJAG_clean_sbu_0, # of connection points: 4
#     Node 12, Type 0, BuildingBlock: GALJAG_clean_sbu_0, # of connection points: 4
#     Node 13, Type 0, BuildingBlock: GALJAG_clean_sbu_0, # of connection points: 4
#     Node 14, Type 0, BuildingBlock: GALJAG_clean_sbu_0, # of connection points: 4
#     Node 15, Type 0, BuildingBlock: GALJAG_clean_sbu_0, # of connection points: 4
#     Node 16, Type 0, BuildingBlock: GALJAG_clean_sbu_0, # of connection points: 4
#     Node 17, Type 0, BuildingBlock: GALJAG_clean_sbu_0, # of connection points: 4
#     Node 18, Type 0, BuildingBlock: GALJAG_clean_sbu_0, # of connection points: 4
#     Node 19, Type 0, BuildingBlock: GALJAG_clean_sbu_0, # of connection points: 4
#     Node 20, Type 0, BuildingBlock: GALJAG_clean_sbu_0, # of connection points: 4
#     Node 21, Type 0, BuildingBlock: GALJAG_clean_sbu_0, # of connection points: 4
#     Node 22, Type 0, BuildingBlock: GALJAG_clean_sbu_0, # of connection points: 4
#     Node 23, Type 0, BuildingBlock: GALJAG_clean_sbu_0, # of connection points: 4
#     Node 24, Type 0, BuildingBlock: GALJAG_clean_sbu_0, # of connection points: 4
#     Node 25, Type 0, BuildingBlock: GALJAG_clean_sbu_0, # of connection points: 4
#     Node 26, Type 0, BuildingBlock: GALJAG_clean_sbu_0, # of connection points: 4
#     Node 27, Type 0, BuildingBlock: GALJAG_clean_sbu_0, # of connection points: 4
#     Node 28, Type 0, BuildingBlock: GALJAG_clean_sbu_0, # of connection points: 4
#     Node 29, Type 0, BuildingBlock: GALJAG_clean_sbu_0, # of connection points: 4
#     Node 30, Type 0, BuildingBlock: GALJAG_clean_sbu_0, # of connection points: 4
#     Node 31, Type 0, BuildingBlock: GALJAG_clean_sbu_0, # of connection points: 4
#     Node 32, Type 0, BuildingBlock: GALJAG_clean_sbu_0, # of connection points: 4
#     Node 33, Type 0, BuildingBlock: GALJAG_clean_sbu_0, # of connection points: 4
#     Node 34, Type 0, BuildingBlock: GALJAG_clean_sbu_0, # of connection points: 4
#     Node 35, Type 0, BuildingBlock: GALJAG_clean_sbu_0, # of connection points: 4
#     Node 36, Type 0, BuildingBlock: GALJAG_clean_sbu_0, # of connection points: 4
#     Node 37, Type 0, BuildingBlock: GALJAG_clean_sbu_0, # of connection points: 4
#     Node 38, Type 0, BuildingBlock: GALJAG_clean_sbu_0, # of connection points: 4
#     Node 39, Type 0, BuildingBlock: GALJAG_clean_sbu_0, # of connection points: 4
#     Node 40, Type 0, BuildingBlock: GALJAG_clean_sbu_0, # of connection points: 4
#     Node 41, Type 0, BuildingBlock: GALJAG_clean_sbu_0, # of connection points: 4
#     Node 42, Type 0, BuildingBlock: GALJAG_clean_sbu_0, # of connection points: 4
#     Node 43, Type 0, BuildingBlock: GALJAG_clean_sbu_0, # of connection points: 4
#     Node 44, Type 0, BuildingBlock: GALJAG_clean_sbu_0, # of connection points: 4
#     Node 45, Type 0, BuildingBlock: GALJAG_clean_sbu_0, # of connection points: 4
#     Node 46, Type 0, BuildingBlock: GALJAG_clean_sbu_0, # of connection points: 4
#     Node 47, Type 0, BuildingBlock: GALJAG_clean_sbu_0, # of connection points: 4
#     Edge 48, Type (0, 0), BuildingBlock: CIFDUS_clean_linker_0, # of connection points: 2
#     Edge 49, Type (0, 0), BuildingBlock: CIFDUS_clean_linker_0, # of connection points: 2
#     Edge 50, Type (0, 0), BuildingBlock: CIFDUS_clean_linker_0, # of connection points: 2
#     Edge 51, Type (0, 0), BuildingBlock: CIFDUS_clean_linker_0, # of connection points: 2
#     Edge 52, Type (0, 0), BuildingBlock: CIFDUS_clean_linker_0, # of connection points: 2
#     Edge 53, Type (0, 0), BuildingBlock: CIFDUS_clean_linker_0, # of connection points: 2
#     Edge 54, Type (0, 0), BuildingBlock: CIFDUS_clean_linker_0, # of connection points: 2
#     Edge 55, Type (0, 0), BuildingBlock: CIFDUS_clean_linker_0, # of connection points: 2
#     Edge 56, Type (0, 0), BuildingBlock: CIFDUS_clean_linker_0, # of connection points: 2
#     Edge 57, Type (0, 0), BuildingBlock: CIFDUS_clean_linker_0, # of connection points: 2
#     Edge 58, Type (0, 0), BuildingBlock: CIFDUS_clean_linker_0, # of connection points: 2
#     Edge 59, Type (0, 0), BuildingBlock: CIFDUS_clean_linker_0, # of connection points: 2
#     Edge 60, Type (0, 0), BuildingBlock: CIFDUS_clean_linker_0, # of connection points: 2
#     Edge 61, Type (0, 0), BuildingBlock: CIFDUS_clean_linker_0, # of connection points: 2
#     Edge 62, Type (0, 0), BuildingBlock: CIFDUS_clean_linker_0, # of connection points: 2
#     Edge 63, Type (0, 0), BuildingBlock: CIFDUS_clean_linker_0, # of connection points: 2
#     Edge 64, Type (0, 0), BuildingBlock: CIFDUS_clean_linker_0, # of connection points: 2
#     Edge 65, Type (0, 0), BuildingBlock: CIFDUS_clean_linker_0, # of connection points: 2
#     Edge 66, Type (0, 0), BuildingBlock: CIFDUS_clean_linker_0, # of connection points: 2
#     Edge 67, Type (0, 0), BuildingBlock: CIFDUS_clean_linker_0, # of connection points: 2
#     Edge 68, Type (0, 0), BuildingBlock: CIFDUS_clean_linker_0, # of connection points: 2
#     Edge 69, Type (0, 0), BuildingBlock: CIFDUS_clean_linker_0, # of connection points: 2
#     Edge 70, Type (0, 0), BuildingBlock: CIFDUS_clean_linker_0, # of connection points: 2
#     Edge 71, Type (0, 0), BuildingBlock: CIFDUS_clean_linker_0, # of connection points: 2
#     Edge 72, Type (0, 0), BuildingBlock: CIFDUS_clean_linker_0, # of connection points: 2
#     Edge 73, Type (0, 0), BuildingBlock: CIFDUS_clean_linker_0, # of connection points: 2
#     Edge 74, Type (0, 0), BuildingBlock: CIFDUS_clean_linker_0, # of connection points: 2
#     Edge 75, Type (0, 0), BuildingBlock: CIFDUS_clean_linker_0, # of connection points: 2
#     Edge 76, Type (0, 0), BuildingBlock: CIFDUS_clean_linker_0, # of connection points: 2
#     Edge 77, Type (0, 0), BuildingBlock: CIFDUS_clean_linker_0, # of connection points: 2
#     Edge 78, Type (0, 0), BuildingBlock: CIFDUS_clean_linker_0, # of connection points: 2
#     Edge 79, Type (0, 0), BuildingBlock: CIFDUS_clean_linker_0, # of connection points: 2
#     Edge 80, Type (0, 0), BuildingBlock: CIFDUS_clean_linker_0, # of connection points: 2
#     Edge 81, Type (0, 0), BuildingBlock: CIFDUS_clean_linker_0, # of connection points: 2
#     Edge 82, Type (0, 0), BuildingBlock: CIFDUS_clean_linker_0, # of connection points: 2
#     Edge 83, Type (0, 0), BuildingBlock: CIFDUS_clean_linker_0, # of connection points: 2
#     Edge 84, Type (0, 0), BuildingBlock: CIFDUS_clean_linker_0, # of connection points: 2
#     Edge 85, Type (0, 0), BuildingBlock: CIFDUS_clean_linker_0, # of connection points: 2
#     Edge 86, Type (0, 0), BuildingBlock: CIFDUS_clean_linker_0, # of connection points: 2
#     Edge 87, Type (0, 0), BuildingBlock: CIFDUS_clean_linker_0, # of connection points: 2
#     Edge 88, Type (0, 0), BuildingBlock: CIFDUS_clean_linker_0, # of connection points: 2
#     Edge 89, Type (0, 0), BuildingBlock: CIFDUS_clean_linker_0, # of connection points: 2
#     Edge 90, Type (0, 0), BuildingBlock: CIFDUS_clean_linker_0, # of connection points: 2
#     Edge 91, Type (0, 0), BuildingBlock: CIFDUS_clean_linker_0, # of connection points: 2
#     Edge 92, Type (0, 0), BuildingBlock: CIFDUS_clean_linker_0, # of connection points: 2
#     Edge 93, Type (0, 0), BuildingBlock: CIFDUS_clean_linker_0, # of connection points: 2
#     Edge 94, Type (0, 0), BuildingBlock: CIFDUS_clean_linker_0, # of connection points: 2
#     Edge 95, Type (0, 0), BuildingBlock: CIFDUS_clean_linker_0, # of connection points: 2
#     Edge 96, Type (0, 0), BuildingBlock: CIFDUS_clean_linker_0, # of connection points: 2
#     Edge 97, Type (0, 0), BuildingBlock: CIFDUS_clean_linker_0, # of connection points: 2
#     Edge 98, Type (0, 0), BuildingBlock: CIFDUS_clean_linker_0, # of connection points: 2
#     Edge 99, Type (0, 0), BuildingBlock: CIFDUS_clean_linker_0, # of connection points: 2
#     Edge 100, Type (0, 0), BuildingBlock: CIFDUS_clean_linker_0, # of connection points: 2
#     Edge 101, Type (0, 0), BuildingBlock: CIFDUS_clean_linker_0, # of connection points: 2
#     Edge 102, Type (0, 0), BuildingBlock: CIFDUS_clean_linker_0, # of connection points: 2
#     Edge 103, Type (0, 0), BuildingBlock: CIFDUS_clean_linker_0, # of connection points: 2
#     Edge 104, Type (0, 0), BuildingBlock: CIFDUS_clean_linker_0, # of connection points: 2
#     Edge 105, Type (0, 0), BuildingBlock: CIFDUS_clean_linker_0, # of connection points: 2
#     Edge 106, Type (0, 0), BuildingBlock: CIFDUS_clean_linker_0, # of connection points: 2
#     Edge 107, Type (0, 0), BuildingBlock: CIFDUS_clean_linker_0, # of connection points: 2
#     Edge 108, Type (0, 0), BuildingBlock: CIFDUS_clean_linker_0, # of connection points: 2
#     Edge 109, Type (0, 0), BuildingBlock: CIFDUS_clean_linker_0, # of connection points: 2
#     Edge 110, Type (0, 0), BuildingBlock: CIFDUS_clean_linker_0, # of connection points: 2
#     Edge 111, Type (0, 0), BuildingBlock: CIFDUS_clean_linker_0, # of connection points: 2
#     Edge 112, Type (0, 0), BuildingBlock: CIFDUS_clean_linker_0, # of connection points: 2
#     Edge 113, Type (0, 0), BuildingBlock: CIFDUS_clean_linker_0, # of connection points: 2
#     Edge 114, Type (0, 0), BuildingBlock: CIFDUS_clean_linker_0, # of connection points: 2
#     Edge 115, Type (0, 0), BuildingBlock: CIFDUS_clean_linker_0, # of connection points: 2
#     Edge 116, Type (0, 0), BuildingBlock: CIFDUS_clean_linker_0, # of connection points: 2
#     Edge 117, Type (0, 0), BuildingBlock: CIFDUS_clean_linker_0, # of connection points: 2
#     Edge 118, Type (0, 0), BuildingBlock: CIFDUS_clean_linker_0, # of connection points: 2
#     Edge 119, Type (0, 0), BuildingBlock: CIFDUS_clean_linker_0, # of connection points: 2
#     Edge 120, Type (0, 0), BuildingBlock: CIFDUS_clean_linker_0, # of connection points: 2
#     Edge 121, Type (0, 0), BuildingBlock: CIFDUS_clean_linker_0, # of connection points: 2
#     Edge 122, Type (0, 0), BuildingBlock: CIFDUS_clean_linker_0, # of connection points: 2
#     Edge 123, Type (0, 0), BuildingBlock: CIFDUS_clean_linker_0, # of connection points: 2
#     Edge 124, Type (0, 0), BuildingBlock: CIFDUS_clean_linker_0, # of connection points: 2
#     Edge 125, Type (0, 0), BuildingBlock: CIFDUS_clean_linker_0, # of connection points: 2
#     Edge 126, Type (0, 0), BuildingBlock: CIFDUS_clean_linker_0, # of connection points: 2
#     Edge 127, Type (0, 0), BuildingBlock: CIFDUS_clean_linker_0, # of connection points: 2
#     Edge 128, Type (0, 0), BuildingBlock: CIFDUS_clean_linker_0, # of connection points: 2
#     Edge 129, Type (0, 0), BuildingBlock: CIFDUS_clean_linker_0, # of connection points: 2
#     Edge 130, Type (0, 0), BuildingBlock: CIFDUS_clean_linker_0, # of connection points: 2
#     Edge 131, Type (0, 0), BuildingBlock: CIFDUS_clean_linker_0, # of connection points: 2
#     Edge 132, Type (0, 0), BuildingBlock: CIFDUS_clean_linker_0, # of connection points: 2
#     Edge 133, Type (0, 0), BuildingBlock: CIFDUS_clean_linker_0, # of connection points: 2
#     Edge 134, Type (0, 0), BuildingBlock: CIFDUS_clean_linker_0, # of connection points: 2
#     Edge 135, Type (0, 0), BuildingBlock: CIFDUS_clean_linker_0, # of connection points: 2
#     Edge 136, Type (0, 0), BuildingBlock: CIFDUS_clean_linker_0, # of connection points: 2
#     Edge 137, Type (0, 0), BuildingBlock: CIFDUS_clean_linker_0, # of connection points: 2
#     Edge 138, Type (0, 0), BuildingBlock: CIFDUS_clean_linker_0, # of connection points: 2
#     Edge 139, Type (0, 0), BuildingBlock: CIFDUS_clean_linker_0, # of connection points: 2
#     Edge 140, Type (0, 0), BuildingBlock: CIFDUS_clean_linker_0, # of connection points: 2
#     Edge 141, Type (0, 0), BuildingBlock: CIFDUS_clean_linker_0, # of connection points: 2
#     Edge 142, Type (0, 0), BuildingBlock: CIFDUS_clean_linker_0, # of connection points: 2
#     Edge 143, Type (0, 0), BuildingBlock: CIFDUS_clean_linker_0, # of connection points: 2
# Relax obj value: 0.318
# Max RMSD: 0.087
# Mean RMSD: 0.085
data_MOF--net-nfb--node1-GALJAG_clean_sbu_0--edge1-CIFDUS_clean_linker_0
_symmetry_space_group_name_H-M    P1
_symmetry_Int_Tables_number       1
_symmetry_cell_setting            triclinic
loop_
_symmetry_equiv_pos_as_xyz
'x, y, z'
_cell_length_a     51.383559
_cell_length_b     51.367482
_cell_length_c     51.333069
_cell_angle_alpha  90.132126
_cell_angle_beta   89.924934
_cell_angle_gamma 90.093691
loop_
_atom_site_label
_atom_site_type_symbol
_atom_site_fract_x
_atom_site_fract_y
_atom_site_fract_z
_atom_type_partial_charge
In0 In 0.12904 0.13611 0.38849 0.0
O1 O 0.106 0.14602 0.4244 0.0
O2 O 0.12546 0.1093 0.42359 0.0
C3 C 0.12892 0.18757 0.38064 0.0
C4 C 0.18196 0.12987 0.39249 0.0
C5 C 0.08883 0.11716 0.35886 0.0
O6 O 0.11756 0.17695 0.39968 0.0
O7 O 0.1398 0.17206 0.36487 0.0
O8 O 0.09877 0.10432 0.37726 0.0
O9 O 0.10163 0.1373 0.35312 0.0
C10 C 0.11133 0.12513 0.43616 0.0
O11 O 0.16928 0.11911 0.37411 0.0
O12 O 0.16787 0.14212 0.40831 0.0
In13 In 0.39077 0.61297 0.88574 0.0
O14 O 0.3893 0.57913 0.85597 0.0
O15 O 0.4239 0.58378 0.87759 0.0
C16 C 0.39424 0.6655 0.87679 0.0
C17 C 0.33906 0.6077 0.88485 0.0
C18 C 0.40758 0.60526 0.93447 0.0
O19 O 0.40728 0.64935 0.86332 0.0
O20 O 0.38013 0.65503 0.89372 0.0
O21 O 0.3874 0.5946 0.92536 0.0
O22 O 0.41999 0.61939 0.91858 0.0
C23 C 0.41113 0.56971 0.86197 0.0
O24 O 0.352 0.60885 0.90569 0.0
O25 O 0.35227 0.60839 0.86403 0.0
In26 In 0.87939 0.88604 0.38381 0.0
O27 O 0.89798 0.88197 0.42338 0.0
O28 O 0.87663 0.91672 0.41572 0.0
C29 C 0.88377 0.8349 0.37698 0.0
C30 C 0.82607 0.88583 0.38354 0.0
C31 C 0.92144 0.90599 0.35727 0.0
O32 O 0.89252 0.84644 0.39698 0.0
O33 O 0.87363 0.84944 0.35988 0.0
O34 O 0.90644 0.92001 0.37085 0.0
O35 O 0.91306 0.88317 0.3541 0.0
C36 C 0.88987 0.90365 0.43175 0.0
O37 O 0.83871 0.89898 0.3667 0.0
O38 O 0.84024 0.87432 0.39975 0.0
In39 In 0.62985 0.37278 0.88704 0.0
O40 O 0.63638 0.40004 0.85195 0.0
O41 O 0.60121 0.4045 0.87254 0.0
C42 C 0.62551 0.3197 0.88297 0.0
C43 C 0.6816 0.37739 0.89128 0.0
C44 C 0.60786 0.38571 0.93262 0.0
O45 O 0.63859 0.33139 0.90005 0.0
O46 O 0.61363 0.33482 0.86745 0.0
O47 O 0.62899 0.39521 0.9245 0.0
O48 O 0.59737 0.36916 0.91765 0.0
C49 C 0.61637 0.41376 0.85558 0.0
O50 O 0.66607 0.38574 0.90841 0.0
O51 O 0.67101 0.36696 0.87163 0.0
In52 In 0.11415 0.88294 0.62906 0.0
O53 O 0.08213 0.88489 0.66067 0.0
O54 O 0.08829 0.91856 0.63811 0.0
C55 C 0.16703 0.88916 0.63202 0.0
C56 C 0.11049 0.83148 0.63694 0.0
C57 C 0.1015 0.89227 0.57931 0.0
O58 O 0.15554 0.87777 0.61359 0.0
O59 O 0.15178 0.89846 0.64915 0.0
O60 O 0.09415 0.87235 0.59156 0.0
O61 O 0.11557 0.90787 0.59217 0.0
C62 C 0.074 0.90718 0.65455 0.0
O63 O 0.09799 0.84325 0.61947 0.0
O64 O 0.12448 0.8458 0.6513 0.0
In65 In 0.63097 0.64822 0.12537 0.0
O66 O 0.66865 0.6466 0.10283 0.0
O67 O 0.67094 0.64537 0.14438 0.0
C68 C 0.61041 0.63388 0.07959 0.0
C69 C 0.61332 0.60593 0.15255 0.0
C70 C 0.62665 0.70095 0.13256 0.0
O71 O 0.59969 0.65092 0.09376 0.0
O72 O 0.63122 0.62452 0.08854 0.0
O73 O 0.61696 0.685 0.14879 0.0
O74 O 0.63749 0.69021 0.11345 0.0
C75 C 0.68289 0.64559 0.12281 0.0
O76 O 0.59839 0.62072 0.13983 0.0
O77 O 0.63628 0.61445 0.15442 0.0
In78 In 0.89226 0.13365 0.63591 0.0
O79 O 0.89537 0.17241 0.61535 0.0
O80 O 0.90023 0.17201 0.65666 0.0
C81 C 0.90075 0.11405 0.58837 0.0
C82 C 0.93538 0.11729 0.66273 0.0
C83 C 0.8394 0.13058 0.64328 0.0
O84 O 0.91062 0.13516 0.59629 0.0
O85 O 0.8867 0.10222 0.60482 0.0
O86 O 0.85476 0.11475 0.6544 0.0
O87 O 0.85081 0.14744 0.62982 0.0
C88 C 0.8993 0.18522 0.63597 0.0
O89 O 0.92785 0.10684 0.64182 0.0
O90 O 0.91937 0.13359 0.67188 0.0
In91 In 0.38677 0.39632 0.12667 0.0
O92 O 0.34964 0.41357 0.11027 0.0
O93 O 0.34688 0.39003 0.14437 0.0
C94 C 0.40702 0.40566 0.07975 0.0
C95 C 0.40426 0.43663 0.15721 0.0
C96 C 0.38748 0.34293 0.1265 0.0
O97 O 0.38537 0.4147 0.08717 0.0
O98 O 0.41912 0.39233 0.09654 0.0
O99 O 0.40003 0.35571 0.14368 0.0
O100 O 0.37583 0.35704 0.11034 0.0
C101 C 0.33517 0.40303 0.12714 0.0
O102 O 0.38515 0.42245 0.16334 0.0
O103 O 0.41679 0.42812 0.13789 0.0
In104 In 0.39123 0.13227 0.12796 0.0
O105 O 0.37399 0.17287 0.11526 0.0
O106 O 0.40508 0.17147 0.1423 0.0
C107 C 0.36039 0.09205 0.11084 0.0
C108 C 0.43719 0.12516 0.10475 0.0
C109 C 0.39318 0.12286 0.17918 0.0
O110 O 0.3542 0.10664 0.12966 0.0
O111 O 0.3799 0.10013 0.09838 0.0
O112 O 0.41031 0.11444 0.16363 0.0
O113 O 0.37472 0.13522 0.16872 0.0
C114 C 0.38961 0.18559 0.12974 0.0
O115 O 0.4308 0.11415 0.12581 0.0
O116 O 0.41994 0.13962 0.0948 0.0
In117 In 0.37567 0.89057 0.62711 0.0
O118 O 0.40462 0.85622 0.62847 0.0
O119 O 0.41053 0.8844 0.59919 0.0
C120 C 0.32324 0.8815 0.62172 0.0
C121 C 0.37976 0.89084 0.67913 0.0
C122 C 0.38581 0.93862 0.60976 0.0
O123 O 0.33347 0.89595 0.63853 0.0
O124 O 0.33964 0.87043 0.60685 0.0
O125 O 0.39532 0.92942 0.63042 0.0
O126 O 0.37109 0.92331 0.59724 0.0
C127 C 0.41951 0.86479 0.61084 0.0
O128 O 0.37548 0.91116 0.66609 0.0
O129 O 0.38262 0.87023 0.66595 0.0
In130 In 0.63466 0.90947 0.1321 0.0
O131 O 0.65486 0.87253 0.1145 0.0
O132 O 0.61957 0.86805 0.13541 0.0
C133 C 0.66034 0.95234 0.11349 0.0
C134 C 0.58579 0.92346 0.12061 0.0
C135 C 0.63969 0.9064 0.18376 0.0
O136 O 0.66354 0.94361 0.13619 0.0
O137 O 0.64693 0.93754 0.09909 0.0
O138 O 0.61999 0.91585 0.17263 0.0
O139 O 0.65802 0.89964 0.1687 0.0
C140 C 0.6379 0.85696 0.12359 0.0
O141 O 0.59748 0.93084 0.1409 0.0
O142 O 0.599 0.90911 0.10554 0.0
In143 In 0.63095 0.13997 0.63536 0.0
O144 O 0.60083 0.17277 0.64066 0.0
O145 O 0.60025 0.15285 0.60476 0.0
C146 C 0.68383 0.14308 0.6289 0.0
C147 C 0.63072 0.14069 0.68752 0.0
C148 C 0.61758 0.0927 0.61792 0.0
O149 O 0.66874 0.16047 0.61992 0.0
O150 O 0.67212 0.12449 0.63962 0.0
O151 O 0.61058 0.10153 0.6398 0.0
O152 O 0.63131 0.10801 0.60434 0.0
C153 C 0.589 0.16898 0.6195 0.0
O154 O 0.62113 0.12226 0.67433 0.0
O155 O 0.63954 0.1595 0.67432 0.0
In156 In 0.39542 0.87406 0.88415 0.0
O157 O 0.43428 0.89437 0.88319 0.0
O158 O 0.42662 0.86935 0.91538 0.0
C159 C 0.39613 0.87761 0.83222 0.0
C160 C 0.38688 0.8215 0.88749 0.0
C161 C 0.3696 0.9171 0.90242 0.0
O162 O 0.41667 0.87669 0.84564 0.0
O163 O 0.37507 0.87742 0.84501 0.0
O164 O 0.36667 0.9082 0.87971 0.0
O165 O 0.38315 0.90263 0.91691 0.0
C166 C 0.44249 0.88439 0.90407 0.0
O167 O 0.40584 0.83195 0.87621 0.0
O168 O 0.37143 0.83766 0.89809 0.0
In169 In 0.61542 0.88516 0.38588 0.0
O170 O 0.59201 0.92193 0.38303 0.0
O171 O 0.61562 0.91717 0.41682 0.0
C172 C 0.61151 0.88496 0.33406 0.0
C173 C 0.66875 0.88774 0.38762 0.0
C174 C 0.57643 0.8544 0.40527 0.0
O175 O 0.59947 0.9009 0.34839 0.0
O176 O 0.6249 0.86811 0.34595 0.0
O177 O 0.58454 0.85278 0.38215 0.0
O178 O 0.59076 0.86833 0.41966 0.0
C179 C 0.59986 0.93133 0.40434 0.0
O180 O 0.65669 0.8676 0.39558 0.0
O181 O 0.65395 0.90583 0.38048 0.0
In182 In 0.63405 0.11086 0.89059 0.0
O183 O 0.59461 0.09236 0.88629 0.0
O184 O 0.60153 0.11434 0.92085 0.0
C185 C 0.63577 0.10819 0.83862 0.0
C186 C 0.63851 0.16386 0.8954 0.0
C187 C 0.66081 0.0686 0.9093 0.0
O188 O 0.61804 0.09752 0.8519 0.0
O189 O 0.65341 0.11944 0.85165 0.0
O190 O 0.66455 0.07791 0.88692 0.0
O191 O 0.64641 0.08266 0.92343 0.0
C192 C 0.58578 0.1008 0.90762 0.0
O193 O 0.62012 0.15231 0.8841 0.0
O194 O 0.65521 0.14861 0.90538 0.0
In195 In 0.39251 0.12617 0.38515 0.0
O196 O 0.35228 0.14114 0.40179 0.0
O197 O 0.35309 0.1095 0.37528 0.0
C198 C 0.43334 0.15551 0.4035 0.0
C199 C 0.40707 0.0785 0.39968 0.0
C200 C 0.39476 0.13314 0.33362 0.0
O201 O 0.42028 0.16137 0.3836 0.0
O202 O 0.42342 0.13715 0.41645 0.0
O203 O 0.40427 0.1133 0.34459 0.0
O204 O 0.38497 0.14988 0.34883 0.0
C205 C 0.33924 0.12468 0.38856 0.0
O206 O 0.41461 0.08895 0.37872 0.0
O207 O 0.39219 0.0923 0.41368 0.0
In208 In 0.13032 0.38468 0.12613 0.0
O209 O 0.16998 0.40004 0.11477 0.0
O210 O 0.16809 0.36302 0.13344 0.0
C211 C 0.11492 0.43323 0.1159 0.0
C212 C 0.1134 0.3568 0.08365 0.0
C213 C 0.12426 0.38168 0.17907 0.0
O214 O 0.13641 0.42406 0.10823 0.0
O215 O 0.10061 0.41752 0.12839 0.0
O216 O 0.11194 0.36647 0.16387 0.0
O217 O 0.13849 0.39782 0.16748 0.0
C218 C 0.18219 0.38086 0.12402 0.0
O219 O 0.13235 0.34995 0.09761 0.0
O220 O 0.10089 0.37573 0.09301 0.0
In221 In 0.13569 0.62973 0.89785 0.0
O222 O 0.17355 0.60751 0.89946 0.0
O223 O 0.17502 0.64842 0.90674 0.0
C224 C 0.11609 0.58211 0.90583 0.0
C225 C 0.11869 0.65701 0.94049 0.0
C226 C 0.13231 0.63854 0.84529 0.0
O227 O 0.13657 0.59032 0.91664 0.0
O228 O 0.10481 0.59834 0.8912 0.0
O229 O 0.11574 0.64805 0.86099 0.0
O230 O 0.15018 0.62617 0.85628 0.0
C231 C 0.18732 0.62726 0.90436 0.0
O232 O 0.1358 0.66569 0.92505 0.0
O233 O 0.10815 0.63625 0.93273 0.0
In234 In 0.89023 0.62906 0.38904 0.0
O235 O 0.92662 0.63269 0.4127 0.0
O236 O 0.92326 0.59913 0.38832 0.0
C237 C 0.89066 0.68118 0.39143 0.0
C238 C 0.88626 0.6245 0.33588 0.0
C239 C 0.86196 0.60949 0.42987 0.0
O240 O 0.90908 0.66735 0.39974 0.0
O241 O 0.87156 0.66873 0.38215 0.0
O242 O 0.87475 0.59517 0.41446 0.0
O243 O 0.86038 0.63278 0.42241 0.0
C244 C 0.93657 0.61165 0.40489 0.0
O245 O 0.86714 0.62004 0.35092 0.0
O246 O 0.90712 0.62946 0.34772 0.0
In247 In 0.88675 0.38486 0.89086 0.0
O248 O 0.84525 0.39409 0.90101 0.0
O249 O 0.85266 0.35774 0.8821 0.0
C250 C 0.89539 0.43439 0.90494 0.0
C251 C 0.90891 0.3606 0.93299 0.0
C252 C 0.89344 0.38343 0.83782 0.0
O253 O 0.87501 0.42207 0.91098 0.0
O254 O 0.9117 0.42168 0.89158 0.0
O255 O 0.90419 0.36687 0.85268 0.0
O256 O 0.88059 0.40049 0.8498 0.0
C257 C 0.83605 0.37334 0.8915 0.0
O258 O 0.92153 0.37555 0.91807 0.0
O259 O 0.88647 0.35531 0.9247 0.0
In260 In 0.13207 0.39352 0.38773 0.0
O261 O 0.11968 0.38376 0.34645 0.0
O262 O 0.15221 0.40897 0.3498 0.0
C263 C 0.16183 0.40861 0.42952 0.0
C264 C 0.0855 0.41498 0.39649 0.0
C265 C 0.12941 0.34174 0.39298 0.0
O266 O 0.16701 0.38904 0.41559 0.0
O267 O 0.14402 0.42262 0.42021 0.0
O268 O 0.11224 0.35682 0.40203 0.0
O269 O 0.14832 0.35285 0.38182 0.0
C270 C 0.13679 0.39674 0.33473 0.0
O271 O 0.09275 0.39385 0.40665 0.0
O272 O 0.10209 0.42588 0.38189 0.0
In273 In 0.8887 0.63216 0.12905 0.0
O274 O 0.8502 0.6123 0.13701 0.0
O275 O 0.84938 0.651 0.12167 0.0
C276 C 0.89752 0.58185 0.11714 0.0
C277 C 0.9089 0.65647 0.0857 0.0
C278 C 0.89824 0.64426 0.18057 0.0
O279 O 0.88091 0.59559 0.10557 0.0
O280 O 0.90971 0.59341 0.13507 0.0
O281 O 0.91629 0.63829 0.16493 0.0
O282 O 0.87666 0.64719 0.16958 0.0
C283 C 0.83666 0.63147 0.12974 0.0
O284 O 0.88751 0.66292 0.09587 0.0
O285 O 0.92151 0.64046 0.0993 0.0
In286 In 0.88396 0.3899 0.62864 0.0
O287 O 0.91992 0.38537 0.60416 0.0
O288 O 0.91779 0.41896 0.62857 0.0
C289 C 0.88257 0.33799 0.62476 0.0
C290 C 0.87995 0.39575 0.68181 0.0
C291 C 0.85492 0.40637 0.58716 0.0
O292 O 0.90352 0.35066 0.62668 0.0
O293 O 0.86203 0.35149 0.62454 0.0
O294 O 0.84861 0.38724 0.60124 0.0
O295 O 0.87368 0.41945 0.59622 0.0
C296 C 0.93074 0.40595 0.6121 0.0
O297 O 0.86561 0.40867 0.66641 0.0
O298 O 0.89553 0.38085 0.67035 0.0
In299 In 0.1358 0.62723 0.63707 0.0
O300 O 0.15901 0.61473 0.67413 0.0
O301 O 0.12151 0.63133 0.67862 0.0
C302 C 0.16212 0.60941 0.59412 0.0
C303 C 0.08847 0.60819 0.62613 0.0
C304 C 0.13713 0.67928 0.637 0.0
O305 O 0.16268 0.63276 0.6016 0.0
O306 O 0.15098 0.59433 0.61005 0.0
O307 O 0.11751 0.66634 0.6297 0.0
O308 O 0.15671 0.66586 0.64346 0.0
C309 C 0.14144 0.6226 0.68972 0.0
O310 O 0.09686 0.62947 0.61714 0.0
O311 O 0.10416 0.59613 0.64068 0.0
In312 In 0.87936 0.88832 0.63222 0.0
O313 O 0.88929 0.84799 0.61863 0.0
O314 O 0.87048 0.85146 0.65554 0.0
C315 C 0.8958 0.8991 0.58389 0.0
C316 C 0.82668 0.89682 0.63265 0.0
C317 C 0.92051 0.90613 0.66112 0.0
O318 O 0.90225 0.87888 0.59614 0.0
O319 O 0.88088 0.91442 0.59615 0.0
O320 O 0.90688 0.88673 0.66753 0.0
O321 O 0.91113 0.91878 0.64232 0.0
C322 C 0.87991 0.83661 0.63826 0.0
O323 O 0.84185 0.90894 0.648 0.0
O324 O 0.83818 0.88154 0.61738 0.0
In325 In 0.63358 0.40918 0.12708 0.0
O326 O 0.6719 0.42079 0.10833 0.0
O327 O 0.67313 0.40005 0.14427 0.0
C328 C 0.61412 0.4184 0.07962 0.0
C329 C 0.62725 0.35662 0.13323 0.0
C330 C 0.61963 0.4518 0.1563 0.0
O331 O 0.63508 0.42833 0.08773 0.0
O332 O 0.60244 0.40392 0.09574 0.0
O333 O 0.60486 0.44191 0.13935 0.0
O334 O 0.63955 0.43827 0.16081 0.0
C335 C 0.68566 0.41028 0.12573 0.0
O336 O 0.61591 0.3728 0.1482 0.0
O337 O 0.64067 0.36707 0.11564 0.0
In338 In 0.13271 0.13638 0.6359 0.0
O339 O 0.12305 0.17617 0.62034 0.0
O340 O 0.13931 0.17394 0.65858 0.0
C341 C 0.12166 0.11952 0.58775 0.0
C342 C 0.18565 0.13149 0.64009 0.0
C343 C 0.08984 0.1167 0.66118 0.0
O344 O 0.114 0.14117 0.59652 0.0
O345 O 0.13504 0.10613 0.60339 0.0
O346 O 0.10583 0.10254 0.64898 0.0
O347 O 0.09729 0.13995 0.66351 0.0
C348 C 0.13113 0.18821 0.64026 0.0
O349 O 0.17041 0.12212 0.65722 0.0
O350 O 0.17411 0.14218 0.62139 0.0
In351 In 0.38736 0.63411 0.13465 0.0
O352 O 0.34502 0.63668 0.12462 0.0
O353 O 0.35511 0.63693 0.16511 0.0
C354 C 0.39466 0.6157 0.08638 0.0
C355 C 0.39666 0.6866 0.13557 0.0
C356 C 0.40786 0.59075 0.15769 0.0
O357 O 0.37406 0.61176 0.09919 0.0
O358 O 0.41169 0.62925 0.09788 0.0
O359 O 0.42183 0.60713 0.14565 0.0
O360 O 0.38461 0.59793 0.16069 0.0
C361 C 0.33745 0.63817 0.14797 0.0
O362 O 0.4057 0.67174 0.15314 0.0
O363 O 0.38475 0.67476 0.11778 0.0
In364 In 0.89263 0.1312 0.38756 0.0
O365 O 0.9199 0.09702 0.37665 0.0
O366 O 0.92652 0.13296 0.35801 0.0
C367 C 0.83984 0.1241 0.38508 0.0
C368 C 0.90704 0.1199 0.43639 0.0
C369 C 0.892 0.18274 0.38041 0.0
O370 O 0.85505 0.11369 0.36853 0.0
O371 O 0.85136 0.13675 0.4026 0.0
O372 O 0.90044 0.17208 0.40085 0.0
O373 O 0.88466 0.1672 0.36269 0.0
C374 C 0.93487 0.11033 0.36238 0.0
O375 O 0.91481 0.13984 0.42437 0.0
O376 O 0.89173 0.10533 0.42373 0.0
In377 In 0.38604 0.37431 0.88199 0.0
O378 O 0.34458 0.37334 0.89645 0.0
O379 O 0.35069 0.37394 0.85525 0.0
C380 C 0.3965 0.39466 0.92887 0.0
C381 C 0.39542 0.32182 0.8811 0.0
C382 C 0.40409 0.41597 0.85424 0.0
O383 O 0.37578 0.39933 0.91658 0.0
O384 O 0.41214 0.37936 0.91755 0.0
O385 O 0.38409 0.40314 0.84795 0.0
O386 O 0.41707 0.40563 0.87234 0.0
C387 C 0.3347 0.37313 0.87396 0.0
O388 O 0.40658 0.33705 0.86513 0.0
O389 O 0.38088 0.33322 0.89709 0.0
In390 In 0.11949 0.88261 0.37871 0.0
O391 O 0.08942 0.87906 0.34541 0.0
O392 O 0.08628 0.912 0.36963 0.0
C393 C 0.17239 0.88882 0.37439 0.0
C394 C 0.10981 0.89955 0.42697 0.0
C395 C 0.11813 0.83056 0.37601 0.0
O396 O 0.15686 0.90062 0.35918 0.0
O397 O 0.16114 0.87502 0.39114 0.0
O398 O 0.10936 0.84307 0.39533 0.0
O399 O 0.12664 0.84443 0.35753 0.0
C400 C 0.07593 0.89851 0.35189 0.0
O401 O 0.10174 0.87794 0.41838 0.0
O402 O 0.12267 0.91311 0.41091 0.0
In403 In 0.63314 0.60993 0.8842 0.0
O404 O 0.61958 0.64769 0.86261 0.0
O405 O 0.64049 0.65147 0.89797 0.0
C406 C 0.61325 0.56801 0.85752 0.0
C407 C 0.68499 0.60641 0.88257 0.0
C408 C 0.61569 0.60043 0.93244 0.0
O409 O 0.59936 0.58296 0.87126 0.0
O410 O 0.63613 0.57629 0.85435 0.0
O411 O 0.63625 0.59055 0.92337 0.0
O412 O 0.60349 0.61507 0.91695 0.0
C413 C 0.62968 0.66298 0.87931 0.0
O414 O 0.67153 0.5965 0.9006 0.0
O415 O 0.6722 0.61739 0.86465 0.0
In416 In 0.64121 0.87193 0.88222 0.0
O417 O 0.60513 0.89553 0.87495 0.0
O418 O 0.60637 0.87322 0.90992 0.0
C419 C 0.64569 0.87368 0.83038 0.0
C420 C 0.66834 0.91448 0.89975 0.0
C421 C 0.64486 0.81897 0.88923 0.0
O422 O 0.62403 0.87227 0.84187 0.0
O423 O 0.66543 0.87462 0.84502 0.0
O424 O 0.65958 0.8346 0.90158 0.0
O425 O 0.62897 0.83015 0.87453 0.0
C426 C 0.59372 0.88871 0.89561 0.0
O427 O 0.65022 0.9041 0.91276 0.0
O428 O 0.67504 0.90129 0.88007 0.0
In429 In 0.63122 0.1273 0.3935 0.0
O430 O 0.603 0.14046 0.42622 0.0
O431 O 0.59591 0.15452 0.3883 0.0
C432 C 0.68395 0.13405 0.39826 0.0
C433 C 0.61886 0.08052 0.41277 0.0
C434 C 0.63017 0.12824 0.34151 0.0
O435 O 0.6731 0.11501 0.38742 0.0
O436 O 0.66809 0.15045 0.40791 0.0
O437 O 0.62976 0.10729 0.35434 0.0
O438 O 0.63028 0.14895 0.35491 0.0
C439 C 0.58757 0.15241 0.4113 0.0
O440 O 0.61004 0.08895 0.39146 0.0
O441 O 0.63413 0.09579 0.42459 0.0
In442 In 0.3873 0.11443 0.88324 0.0
O443 O 0.37333 0.08279 0.91249 0.0
O444 O 0.3569 0.08287 0.87483 0.0
C445 C 0.38589 0.16622 0.89518 0.0
C446 C 0.43452 0.0966 0.89555 0.0
C447 C 0.38278 0.1227 0.83212 0.0
O448 O 0.36784 0.15093 0.90249 0.0
O449 O 0.4045 0.155 0.88396 0.0
O450 O 0.40301 0.11332 0.8424 0.0
O451 O 0.36401 0.1267 0.84759 0.0
C452 C 0.35933 0.0709 0.89609 0.0
O453 O 0.42369 0.09201 0.87396 0.0
O454 O 0.42138 0.11029 0.9113 0.0
In455 In 0.38153 0.88213 0.38357 0.0
O456 O 0.40932 0.84729 0.37782 0.0
O457 O 0.41304 0.86836 0.41284 0.0
C458 C 0.3284 0.87762 0.38734 0.0
C459 C 0.39231 0.92825 0.4055 0.0
C460 C 0.38701 0.88643 0.33183 0.0
O461 O 0.34356 0.86176 0.3987 0.0
O462 O 0.34007 0.89522 0.37496 0.0
O463 O 0.39651 0.90269 0.34763 0.0
O464 O 0.37511 0.86751 0.34212 0.0
C465 C 0.42266 0.85127 0.39805 0.0
O466 O 0.40174 0.92079 0.38407 0.0
O467 O 0.37716 0.91219 0.41643 0.0
In468 In 0.63145 0.14766 0.13595 0.0
O469 O 0.66557 0.11945 0.14217 0.0
O470 O 0.64503 0.11612 0.10666 0.0
C471 C 0.63719 0.20026 0.12831 0.0
C472 C 0.58663 0.12902 0.11681 0.0
C473 C 0.62833 0.14686 0.18808 0.0
O474 O 0.65309 0.18408 0.1185 0.0
O475 O 0.61904 0.1898 0.14085 0.0
O476 O 0.60866 0.14965 0.17372 0.0
O477 O 0.64973 0.14407 0.17624 0.0
C478 C 0.66178 0.1063 0.12169 0.0
O479 O 0.59633 0.1216 0.13808 0.0
O480 O 0.59954 0.14626 0.10487 0.0
In481 In 0.39456 0.13998 0.63001 0.0
O482 O 0.41372 0.12912 0.66774 0.0
O483 O 0.38661 0.16056 0.66874 0.0
C484 C 0.40395 0.08994 0.61831 0.0
C485 C 0.34147 0.14402 0.62638 0.0
C486 C 0.43548 0.16567 0.60739 0.0
O487 O 0.41241 0.10101 0.63851 0.0
O488 O 0.39049 0.1042 0.60351 0.0
O489 O 0.42257 0.14825 0.5958 0.0
O490 O 0.4253 0.17288 0.62856 0.0
C491 C 0.40193 0.14592 0.68121 0.0
O492 O 0.35654 0.15893 0.61359 0.0
O493 O 0.35321 0.12762 0.64019 0.0
In494 In 0.38569 0.89495 0.12636 0.0
O495 O 0.42474 0.91381 0.13353 0.0
O496 O 0.41935 0.89392 0.09744 0.0
C497 C 0.37714 0.89462 0.1776 0.0
C498 C 0.36068 0.93796 0.10696 0.0
C499 C 0.38318 0.84205 0.12065 0.0
O500 O 0.39783 0.90352 0.1676 0.0
O501 O 0.36018 0.88667 0.16155 0.0
O502 O 0.36644 0.85688 0.1101 0.0
O503 O 0.40075 0.85399 0.13283 0.0
C504 C 0.43438 0.9069 0.11196 0.0
O505 O 0.37263 0.92194 0.09256 0.0
O506 O 0.35864 0.93052 0.13021 0.0
In507 In 0.61841 0.89131 0.62872 0.0
O508 O 0.65508 0.87135 0.60998 0.0
O509 O 0.65979 0.90646 0.6311 0.0
C510 C 0.57402 0.86956 0.60859 0.0
C511 C 0.62255 0.87751 0.67853 0.0
C512 C 0.60358 0.9408 0.62201 0.0
O513 O 0.59051 0.8813 0.5945 0.0
O514 O 0.58132 0.86651 0.63178 0.0
O515 O 0.59841 0.92801 0.64234 0.0
O516 O 0.61605 0.92844 0.60474 0.0
C517 C 0.67076 0.88829 0.61896 0.0
O518 O 0.62102 0.90093 0.67132 0.0
O519 O 0.62125 0.8606 0.6606 0.0
In520 In 0.88875 0.63449 0.88707 0.0
O521 O 0.84949 0.61703 0.89607 0.0
O522 O 0.85025 0.65452 0.87825 0.0
C523 C 0.90537 0.58654 0.89842 0.0
C524 C 0.89652 0.63824 0.83431 0.0
C525 C 0.90291 0.66211 0.93082 0.0
O526 O 0.88354 0.59529 0.90554 0.0
O527 O 0.91941 0.60233 0.88573 0.0
O528 O 0.88313 0.66736 0.91733 0.0
O529 O 0.91751 0.64536 0.92035 0.0
C530 C 0.8367 0.63575 0.88666 0.0
O531 O 0.9069 0.65441 0.84999 0.0
O532 O 0.88347 0.62078 0.84538 0.0
In533 In 0.88889 0.38076 0.13063 0.0
O534 O 0.90739 0.3621 0.16808 0.0
O535 O 0.87884 0.39149 0.17231 0.0
C536 C 0.90573 0.35392 0.08741 0.0
C537 C 0.83697 0.37903 0.12666 0.0
C538 C 0.90589 0.42927 0.12269 0.0
O539 O 0.91799 0.37292 0.09697 0.0
O540 O 0.88719 0.34627 0.10162 0.0
O541 O 0.88478 0.42066 0.11349 0.0
O542 O 0.91902 0.41308 0.13573 0.0
C543 C 0.89398 0.37604 0.18359 0.0
O544 O 0.85037 0.39794 0.11845 0.0
O545 O 0.8499 0.3604 0.13614 0.0
In546 In 0.1293 0.39343 0.62534 0.0
O547 O 0.08951 0.39233 0.60698 0.0
O548 O 0.09821 0.42452 0.63176 0.0
C549 C 0.12981 0.34162 0.62031 0.0
C550 C 0.15655 0.41296 0.58365 0.0
C551 C 0.13467 0.39572 0.67833 0.0
O552 O 0.11188 0.35557 0.61098 0.0
O553 O 0.14802 0.35391 0.63148 0.0
O554 O 0.15099 0.40665 0.66323 0.0
O555 O 0.11628 0.38453 0.66665 0.0
C556 C 0.08177 0.41324 0.61735 0.0
O557 O 0.14262 0.42693 0.59831 0.0
O558 O 0.15951 0.39014 0.59203 0.0
In559 In 0.13503 0.63376 0.13761 0.0
O560 O 0.17721 0.62305 0.14056 0.0
O561 O 0.16784 0.66365 0.13983 0.0
C562 C 0.12749 0.58532 0.11969 0.0
C563 C 0.12547 0.63575 0.18996 0.0
C564 C 0.11453 0.6569 0.09441 0.0
O565 O 0.14808 0.59806 0.11547 0.0
O566 O 0.11052 0.59706 0.13312 0.0
O567 O 0.10061 0.64462 0.11064 0.0
O568 O 0.13776 0.65996 0.10162 0.0
C569 C 0.18519 0.64628 0.14151 0.0
O570 O 0.117 0.6533 0.17478 0.0
O571 O 0.13692 0.61745 0.17849 0.0
In572 In 0.88976 0.63116 0.62498 0.0
O573 O 0.92741 0.63638 0.60341 0.0
O574 O 0.92369 0.60229 0.62675 0.0
C575 C 0.88768 0.6831 0.62187 0.0
C576 C 0.85975 0.61458 0.58394 0.0
C577 C 0.88698 0.6252 0.67804 0.0
O578 O 0.90566 0.66985 0.61166 0.0
O579 O 0.87023 0.67009 0.63337 0.0
O580 O 0.87183 0.61291 0.66278 0.0
O581 O 0.90322 0.6394 0.66647 0.0
C582 C 0.93775 0.61572 0.61159 0.0
O583 O 0.87805 0.60112 0.59314 0.0
O584 O 0.85434 0.63422 0.59767 0.0
In585 In 0.13119 0.38144 0.88662 0.0
O586 O 0.17342 0.39266 0.88592 0.0
O587 O 0.16434 0.35195 0.8857 0.0
C588 C 0.12276 0.42996 0.90377 0.0
C589 C 0.12337 0.37934 0.83388 0.0
C590 C 0.10946 0.35835 0.92943 0.0
O591 O 0.14285 0.41713 0.90953 0.0
O592 O 0.10675 0.41831 0.88915 0.0
O593 O 0.0963 0.37183 0.91362 0.0
O594 O 0.13237 0.35394 0.92183 0.0
C595 C 0.18162 0.36953 0.88516 0.0
O596 O 0.1131 0.36264 0.84898 0.0
O597 O 0.13607 0.39669 0.84553 0.0
In598 In 0.1324 0.6267 0.39842 0.0
O599 O 0.09273 0.62439 0.41665 0.0
O600 O 0.10397 0.59315 0.39158 0.0
C601 C 0.12783 0.6785 0.40244 0.0
C602 C 0.16291 0.61315 0.44009 0.0
C603 C 0.13764 0.62288 0.34558 0.0
O604 O 0.11156 0.66312 0.41262 0.0
O605 O 0.14684 0.66772 0.39116 0.0
O606 O 0.1529 0.61081 0.36085 0.0
O607 O 0.1205 0.63605 0.35704 0.0
C608 C 0.08659 0.6031 0.40591 0.0
O609 O 0.16758 0.63253 0.42578 0.0
O610 O 0.14507 0.59872 0.43138 0.0
In611 In 0.88732 0.38822 0.39265 0.0
O612 O 0.9248 0.38486 0.41483 0.0
O613 O 0.92123 0.41708 0.38904 0.0
C614 C 0.886 0.33633 0.39738 0.0
C615 C 0.85951 0.40936 0.43308 0.0
C616 C 0.88344 0.3917 0.33951 0.0
O617 O 0.90361 0.35033 0.40723 0.0
O618 O 0.86829 0.34855 0.38547 0.0
O619 O 0.90217 0.38131 0.35131 0.0
O620 O 0.86634 0.40143 0.35454 0.0
C621 C 0.93505 0.40506 0.40542 0.0
O622 O 0.85601 0.38643 0.425 0.0
O623 O 0.87409 0.42268 0.41844 0.0
H624 H 0.15437 0.30619 0.36313 0.0
H625 H 0.09797 0.31379 0.42502 0.0
H626 H 0.0923 0.26657 0.42606 0.0
H627 H 0.10353 0.22334 0.40956 0.0
H628 H 0.15889 0.2155 0.34675 0.0
H629 H 0.16458 0.26279 0.34559 0.0
C630 C 0.14098 0.29744 0.37693 0.0
C631 C 0.12677 0.31328 0.39413 0.0
C632 C 0.13746 0.27038 0.37706 0.0
C633 C 0.10917 0.30188 0.41166 0.0
C634 C 0.10588 0.27494 0.41222 0.0
C635 C 0.11673 0.23199 0.39551 0.0
C636 C 0.13081 0.21605 0.3783 0.0
C637 C 0.11989 0.25904 0.39499 0.0
C638 C 0.14777 0.22746 0.36013 0.0
C639 C 0.15113 0.25444 0.35955 0.0
H640 H 0.30867 0.6339 0.91822 0.0
H641 H 0.30605 0.58241 0.85185 0.0
H642 H 0.25829 0.58278 0.85315 0.0
H643 H 0.21754 0.59827 0.87308 0.0
H644 H 0.22039 0.65379 0.9361 0.0
H645 H 0.26806 0.65144 0.93639 0.0
C646 C 0.29755 0.62267 0.90415 0.0
C647 C 0.31054 0.60786 0.88518 0.0
C648 C 0.27034 0.62378 0.90449 0.0
C649 C 0.29622 0.59384 0.86664 0.0
C650 C 0.26904 0.59404 0.86742 0.0
C651 C 0.2287 0.60969 0.88695 0.0
C652 C 0.21579 0.62589 0.90481 0.0
C653 C 0.25594 0.60896 0.88626 0.0
C654 C 0.23016 0.64113 0.92232 0.0
C655 C 0.2573 0.63976 0.92246 0.0
H656 H 0.91049 0.80096 0.40671 0.0
H657 H 0.85624 0.80499 0.34277 0.0
H658 H 0.85284 0.7575 0.3421 0.0
H659 H 0.86457 0.71488 0.36054 0.0
H660 H 0.9203 0.71113 0.42319 0.0
H661 H 0.92369 0.75856 0.42372 0.0
C662 C 0.89806 0.79141 0.39253 0.0
C663 C 0.88359 0.80634 0.37488 0.0
C664 C 0.89628 0.76423 0.39221 0.0
C665 C 0.86766 0.79382 0.35649 0.0
C666 C 0.86559 0.76671 0.3562 0.0
C667 C 0.87731 0.72454 0.37437 0.0
C668 C 0.89197 0.70973 0.39197 0.0
C669 C 0.87961 0.75174 0.37415 0.0
C670 C 0.90878 0.72227 0.40952 0.0
C671 C 0.91076 0.74932 0.40981 0.0
H672 H 0.79888 0.39947 0.9176 0.0
H673 H 0.81007 0.33751 0.86184 0.0
H674 H 0.76287 0.33349 0.85644 0.0
H675 H 0.71853 0.34885 0.86658 0.0
H676 H 0.70792 0.40988 0.92351 0.0
H677 H 0.75495 0.41319 0.92932 0.0
C678 C 0.79098 0.38496 0.90438 0.0
C679 C 0.80781 0.36889 0.89004 0.0
C680 C 0.76402 0.3828 0.90143 0.0
C681 C 0.7974 0.35004 0.87315 0.0
C682 C 0.77048 0.34785 0.86994 0.0
C683 C 0.7266 0.3629 0.88017 0.0
C684 C 0.70995 0.37927 0.89442 0.0
C685 C 0.75362 0.36437 0.88376 0.0
C686 C 0.72046 0.39714 0.91229 0.0
C687 C 0.7473 0.39902 0.91564 0.0
H688 H 0.09764 0.71086 0.62328 0.0
H689 H 0.17487 0.71166 0.65617 0.0
H690 H 0.17255 0.75901 0.66132 0.0
H691 H 0.14879 0.80029 0.65534 0.0
H692 H 0.07237 0.79896 0.62067 0.0
H693 H 0.07392 0.75155 0.6178 0.0
C694 C 0.11401 0.72138 0.63153 0.0
C695 C 0.13643 0.70787 0.63922 0.0
C696 C 0.11254 0.74844 0.63437 0.0
C697 C 0.15745 0.72172 0.64994 0.0
C698 C 0.15609 0.74874 0.65301 0.0
C699 C 0.13236 0.78951 0.64757 0.0
C700 C 0.11043 0.80292 0.63839 0.0
C701 C 0.13372 0.7623 0.64526 0.0
C702 C 0.08941 0.78892 0.62791 0.0
C703 C 0.09033 0.76188 0.62615 0.0
H704 H 0.71704 0.62163 0.15484 0.0
H705 H 0.71217 0.6693 0.08602 0.0
H706 H 0.75962 0.66999 0.08247 0.0
H707 H 0.80254 0.65689 0.09897 0.0
H708 H 0.8073 0.6057 0.16522 0.0
H709 H 0.7599 0.60638 0.16981 0.0
C710 C 0.72648 0.63218 0.13916 0.0
C711 C 0.71138 0.64555 0.12084 0.0
C712 C 0.75368 0.63178 0.13677 0.0
C713 C 0.72358 0.65885 0.10031 0.0
C714 C 0.75065 0.65929 0.0983 0.0
C715 C 0.7931 0.64593 0.11438 0.0
C716 C 0.80816 0.63141 0.13182 0.0
C717 C 0.76589 0.64581 0.11641 0.0
C718 C 0.79591 0.61695 0.15153 0.0
C719 C 0.76889 0.6174 0.15421 0.0
H720 H 0.8691 0.21741 0.60831 0.0
H721 H 0.93131 0.21619 0.66451 0.0
H722 H 0.93236 0.26393 0.66504 0.0
H723 H 0.91501 0.30577 0.64984 0.0
H724 H 0.8494 0.3069 0.59761 0.0
H725 H 0.84999 0.25923 0.59515 0.0
C726 C 0.88297 0.22772 0.62049 0.0
C727 C 0.90037 0.21367 0.63606 0.0
C728 C 0.88267 0.25495 0.62145 0.0
C729 C 0.91788 0.22689 0.65231 0.0
C730 C 0.91845 0.25405 0.6526 0.0
C731 C 0.90092 0.29548 0.63789 0.0
C732 C 0.88234 0.30951 0.62371 0.0
C733 C 0.90088 0.26824 0.63731 0.0
C734 C 0.86382 0.29625 0.60865 0.0
C735 C 0.86423 0.26911 0.6072 0.0
H736 H 0.3015 0.36879 0.14835 0.0
H737 H 0.30527 0.43779 0.10074 0.0
H738 H 0.258 0.43663 0.09501 0.0
H739 H 0.21585 0.4157 0.10328 0.0
H740 H 0.21245 0.34562 0.14941 0.0
H741 H 0.25954 0.34725 0.15567 0.0
C742 C 0.29191 0.38372 0.13696 0.0
C743 C 0.30665 0.40351 0.12521 0.0
C744 C 0.26494 0.38251 0.13321 0.0
C745 C 0.29417 0.42246 0.11007 0.0
C746 C 0.26723 0.42174 0.10672 0.0
C747 C 0.22545 0.4007 0.11456 0.0
C748 C 0.21077 0.38057 0.12586 0.0
C749 C 0.25246 0.40176 0.11807 0.0
C750 C 0.2234 0.36124 0.14041 0.0
C751 C 0.25028 0.36224 0.14413 0.0
H752 H 0.37055 0.15333 0.21539 0.0
H753 H 0.42223 0.08785 0.20633 0.0
H754 H 0.42782 0.08555 0.25365 0.0
H755 H 0.41784 0.10228 0.29746 0.0
H756 H 0.3677 0.16912 0.30598 0.0
H757 H 0.36193 0.17101 0.25884 0.0
C758 C 0.38286 0.13842 0.22382 0.0
C759 C 0.39573 0.12058 0.20759 0.0
C760 C 0.38646 0.13767 0.25083 0.0
C761 C 0.41204 0.10168 0.21859 0.0
C762 C 0.41528 0.10042 0.24557 0.0
C763 C 0.40579 0.11734 0.28895 0.0
C764 C 0.39318 0.1355 0.3051 0.0
C765 C 0.40263 0.11837 0.26185 0.0
C766 C 0.37769 0.15498 0.2939 0.0
C767 C 0.37426 0.156 0.26698 0.0
H768 H 0.41199 0.86459 0.71124 0.0
H769 H 0.34733 0.91791 0.71041 0.0
H770 H 0.34589 0.91784 0.75806 0.0
H771 H 0.3631 0.90246 0.79995 0.0
H772 H 0.43081 0.85307 0.80096 0.0
H773 H 0.43121 0.85173 0.75328 0.0
C774 C 0.39765 0.87614 0.72163 0.0
C775 C 0.37968 0.89108 0.70765 0.0
C776 C 0.39757 0.87672 0.74895 0.0
C777 C 0.36137 0.90633 0.72102 0.0
C778 C 0.3605 0.90625 0.74817 0.0
C779 C 0.3779 0.89146 0.78962 0.0
C780 C 0.39676 0.87774 0.80366 0.0
C781 C 0.3785 0.8915 0.76233 0.0
C782 C 0.41614 0.86381 0.79033 0.0
C783 C 0.41633 0.86298 0.76315 0.0
H784 H 0.6015 0.91828 0.21744 0.0
H785 H 0.67707 0.88201 0.21295 0.0
H786 H 0.67411 0.87011 0.25911 0.0
H787 H 0.64979 0.87036 0.30071 0.0
H788 H 0.57467 0.90763 0.30434 0.0
H789 H 0.5774 0.91827 0.25814 0.0
C790 C 0.61744 0.9079 0.22655 0.0
C791 C 0.63953 0.90114 0.21193 0.0
C792 C 0.61545 0.90094 0.25275 0.0
C793 C 0.65996 0.88761 0.22395 0.0
C794 C 0.65818 0.88064 0.25023 0.0
C795 C 0.63389 0.88041 0.29119 0.0
C796 C 0.61197 0.88806 0.30567 0.0
C797 C 0.63592 0.88709 0.26477 0.0
C798 C 0.59166 0.9015 0.29342 0.0
C799 C 0.59327 0.90772 0.26711 0.0
H800 H 0.65708 0.14482 0.80734 0.0
H801 H 0.61016 0.0751 0.80636 0.0
H802 H 0.60404 0.07939 0.75937 0.0
H803 H 0.61125 0.10337 0.71893 0.0
H804 H 0.65664 0.17412 0.71983 0.0
H805 H 0.6638 0.16929 0.76668 0.0
C806 C 0.64582 0.13041 0.79671 0.0
C807 C 0.6343 0.10954 0.81008 0.0
C808 C 0.64178 0.13342 0.76987 0.0
C809 C 0.61931 0.09125 0.79633 0.0
C810 C 0.61571 0.09376 0.76954 0.0
C811 C 0.62261 0.11781 0.7294 0.0
C812 C 0.63337 0.13908 0.71602 0.0
C813 C 0.62664 0.11489 0.75619 0.0
C814 C 0.64803 0.15765 0.72979 0.0
C815 C 0.65226 0.15482 0.75651 0.0
H816 H 0.90451 0.80301 0.60658 0.0
H817 H 0.85345 0.80634 0.67329 0.0
H818 H 0.85042 0.7587 0.67352 0.0
H819 H 0.86214 0.71621 0.65423 0.0
H820 H 0.91443 0.71373 0.5884 0.0
H821 H 0.9169 0.76115 0.58814 0.0
C822 C 0.89276 0.79333 0.62124 0.0
C823 C 0.87917 0.80804 0.63985 0.0
C824 C 0.89117 0.76618 0.62124 0.0
C825 C 0.86415 0.7953 0.65882 0.0
C826 C 0.86232 0.76814 0.65887 0.0
C827 C 0.87389 0.72614 0.63975 0.0
C828 C 0.88794 0.71166 0.62125 0.0
C829 C 0.87563 0.7534 0.64004 0.0
C830 C 0.90342 0.72458 0.60279 0.0
C831 C 0.90488 0.75163 0.60266 0.0
H832 H 0.80589 0.4141 0.10294 0.0
H833 H 0.80407 0.34627 0.15237 0.0
H834 H 0.75693 0.3506 0.15719 0.0
H835 H 0.71653 0.37442 0.1483 0.0
H836 H 0.71809 0.44109 0.09739 0.0
H837 H 0.76525 0.43667 0.0924 0.0
C838 C 0.79513 0.40016 0.11461 0.0
C839 C 0.80836 0.37995 0.12735 0.0
C840 C 0.76813 0.40276 0.11727 0.0
C841 C 0.79424 0.36193 0.1423 0.0
C842 C 0.76735 0.36449 0.1452 0.0
C843 C 0.72728 0.38807 0.13628 0.0
C844 C 0.71409 0.40825 0.1235 0.0
C845 C 0.75417 0.38501 0.13302 0.0
C846 C 0.728 0.42552 0.10753 0.0
C847 C 0.75488 0.42295 0.10462 0.0
H848 H 0.10882 0.22176 0.60662 0.0
H849 H 0.15686 0.21871 0.67543 0.0
H850 H 0.16183 0.26608 0.67451 0.0
H851 H 0.1528 0.30826 0.65379 0.0
H852 H 0.103 0.31125 0.58629 0.0
H853 H 0.09866 0.26384 0.58682 0.0
C854 C 0.12028 0.23148 0.62149 0.0
C855 C 0.13249 0.21684 0.64104 0.0
C856 C 0.12294 0.25861 0.62089 0.0
C857 C 0.14718 0.22964 0.66026 0.0
C858 C 0.15014 0.25667 0.65965 0.0
C859 C 0.14121 0.29845 0.63908 0.0
C860 C 0.12846 0.31304 0.61985 0.0
C861 C 0.13826 0.27132 0.63995 0.0
C862 C 0.11307 0.30029 0.60119 0.0
C863 C 0.11054 0.27325 0.60153 0.0
H864 H 0.21942 0.6226 0.17282 0.0
H865 H 0.21264 0.68283 0.11495 0.0
H866 H 0.26016 0.68714 0.11331 0.0
H867 H 0.30333 0.66996 0.12488 0.0
H868 H 0.31016 0.61173 0.18475 0.0
H869 H 0.26266 0.61052 0.18953 0.0
C870 C 0.22846 0.63694 0.16021 0.0
C871 C 0.21296 0.65215 0.14374 0.0
C872 C 0.25558 0.63948 0.15971 0.0
C873 C 0.22447 0.67098 0.12772 0.0
C874 C 0.25153 0.67331 0.1267 0.0
C875 C 0.29431 0.65738 0.13926 0.0
C876 C 0.30981 0.64068 0.15423 0.0
C877 C 0.26723 0.65711 0.14206 0.0
C878 C 0.29833 0.62468 0.17309 0.0
C879 C 0.27129 0.6239 0.17568 0.0
H880 H 0.90971 0.21805 0.4148 0.0
H881 H 0.86754 0.21112 0.3425 0.0
H882 H 0.86032 0.25829 0.34215 0.0
H883 H 0.86615 0.30153 0.36274 0.0
H884 H 0.90979 0.3076 0.43426 0.0
H885 H 0.91589 0.26053 0.43487 0.0
C886 C 0.89903 0.22684 0.39888 0.0
C887 C 0.8892 0.21121 0.37869 0.0
C888 C 0.89495 0.25373 0.39888 0.0
C889 C 0.87543 0.22285 0.35818 0.0
C890 C 0.87117 0.24975 0.35807 0.0
C891 C 0.87669 0.29241 0.37857 0.0
C892 C 0.88735 0.30781 0.39854 0.0
C893 C 0.88072 0.26537 0.37842 0.0
C894 C 0.90138 0.29601 0.41874 0.0
C895 C 0.90496 0.26916 0.41905 0.0
H896 H 0.21608 0.39248 0.8535 0.0
H897 H 0.209 0.33432 0.91344 0.0
H898 H 0.25651 0.3296 0.91475 0.0
H899 H 0.29995 0.34481 0.901 0.0
H900 H 0.30675 0.40025 0.83845 0.0
H901 H 0.25923 0.40325 0.83566 0.0
C902 C 0.22506 0.37858 0.86659 0.0
C903 C 0.20948 0.36397 0.88359 0.0
C904 C 0.25212 0.37566 0.86677 0.0
C905 C 0.2209 0.34569 0.90024 0.0
C906 C 0.24795 0.34313 0.90105 0.0
C907 C 0.2909 0.35731 0.88662 0.0
C908 C 0.30648 0.37259 0.87018 0.0
C909 C 0.26373 0.35842 0.88478 0.0
C910 C 0.29489 0.38841 0.85127 0.0
C911 C 0.26783 0.39018 0.84977 0.0
H912 H 0.09747 0.79694 0.41102 0.0
H913 H 0.14497 0.80034 0.3417 0.0
H914 H 0.15299 0.75358 0.34448 0.0
H915 H 0.14739 0.71204 0.36719 0.0
H916 H 0.09828 0.70797 0.43526 0.0
H917 H 0.09017 0.75487 0.43261 0.0
C918 C 0.1094 0.78738 0.39642 0.0
C919 C 0.12066 0.80201 0.37622 0.0
C920 C 0.11388 0.76052 0.39812 0.0
C921 C 0.136 0.78943 0.35737 0.0
C922 C 0.14073 0.76276 0.35904 0.0
C923 C 0.13508 0.7215 0.38156 0.0
C924 C 0.12372 0.7068 0.4016 0.0
C925 C 0.13001 0.74819 0.37948 0.0
C926 C 0.10736 0.71905 0.41978 0.0
C927 C 0.10267 0.74578 0.41821 0.0
H928 H 0.8045 0.59932 0.90653 0.0
H929 H 0.80521 0.66935 0.86027 0.0
H930 H 0.75826 0.66539 0.85331 0.0
H931 H 0.71704 0.64195 0.86058 0.0
H932 H 0.71645 0.5731 0.90853 0.0
H933 H 0.76354 0.57639 0.9143 0.0
C934 C 0.79437 0.61379 0.89501 0.0
C935 C 0.80821 0.6346 0.88395 0.0
C936 C 0.76752 0.6114 0.89115 0.0
C937 C 0.79487 0.65323 0.8691 0.0
C938 C 0.7681 0.65089 0.86499 0.0
C939 C 0.72735 0.62751 0.87198 0.0
C940 C 0.71352 0.60717 0.88391 0.0
C941 C 0.75426 0.62998 0.87583 0.0
C942 C 0.72685 0.58884 0.89909 0.0
C943 C 0.75369 0.59078 0.90247 0.0
H944 H 0.61679 0.84632 0.7964 0.0
H945 H 0.67826 0.90332 0.80115 0.0
H946 H 0.67706 0.90896 0.75375 0.0
H947 H 0.65603 0.8999 0.71163 0.0
H948 H 0.59717 0.8403 0.7063 0.0
H949 H 0.59985 0.83308 0.75348 0.0
C950 C 0.63007 0.85974 0.78691 0.0
C951 C 0.64734 0.87468 0.80193 0.0
C952 C 0.6296 0.8624 0.75978 0.0
C953 C 0.66483 0.89171 0.78972 0.0
C954 C 0.66404 0.89499 0.76275 0.0
C955 C 0.64403 0.88518 0.72089 0.0
C956 C 0.62618 0.87085 0.70596 0.0
C957 C 0.64615 0.88082 0.7477 0.0
C958 C 0.61097 0.8515 0.7177 0.0
C959 C 0.61244 0.84748 0.74457 0.0
H960 H 0.65264 0.1149 0.22169 0.0
H961 H 0.59903 0.17914 0.21766 0.0
H962 H 0.59552 0.17993 0.26526 0.0
H963 H 0.60768 0.16198 0.30805 0.0
H964 H 0.65721 0.09445 0.31155 0.0
H965 H 0.66236 0.09507 0.26417 0.0
C966 C 0.64031 0.12907 0.23137 0.0
C967 C 0.62633 0.14711 0.21654 0.0
C968 C 0.63761 0.12869 0.25855 0.0
C969 C 0.60996 0.16513 0.22895 0.0
C970 C 0.60798 0.16558 0.25607 0.0
C971 C 0.61955 0.14746 0.29832 0.0
C972 C 0.63218 0.12831 0.31301 0.0
C973 C 0.62169 0.14742 0.27107 0.0
C974 C 0.64725 0.1093 0.30042 0.0
C975 C 0.65028 0.1097 0.27341 0.0
H976 H 0.36369 0.15692 0.71578 0.0
H977 H 0.44394 0.13315 0.70989 0.0
H978 H 0.44518 0.12462 0.75664 0.0
H979 H 0.42255 0.1204 0.79809 0.0
H980 H 0.34168 0.14207 0.80438 0.0
H981 H 0.34138 0.15466 0.75837 0.0
C982 C 0.38155 0.15046 0.72495 0.0
C983 C 0.40374 0.14574 0.70968 0.0
C984 C 0.3818 0.14465 0.75164 0.0
C985 C 0.42669 0.13692 0.72146 0.0
C986 C 0.42735 0.13188 0.74807 0.0
C987 C 0.40482 0.12784 0.78941 0.0
C988 C 0.38208 0.13 0.80442 0.0
C989 C 0.40483 0.13498 0.76316 0.0
C990 C 0.35936 0.13998 0.79305 0.0
C991 C 0.35922 0.1473 0.76683 0.0
H992 H 0.40776 0.91563 0.21481 0.0
H993 H 0.33999 0.86714 0.20387 0.0
H994 H 0.33756 0.85949 0.25084 0.0
H995 H 0.35542 0.86591 0.29489 0.0
H996 H 0.42217 0.91583 0.30562 0.0
H997 H 0.42449 0.92342 0.25872 0.0
C998 C 0.39236 0.90351 0.22273 0.0
C999 C 0.37412 0.89191 0.20599 0.0
C1000 C 0.39109 0.89926 0.24962 0.0
C1001 C 0.35419 0.87637 0.21645 0.0
C1002 C 0.35289 0.87187 0.24325 0.0
C1003 C 0.37055 0.87829 0.28687 0.0
C1004 C 0.38876 0.89011 0.3035 0.0
C1005 C 0.3714 0.88302 0.25998 0.0
C1006 C 0.40801 0.90648 0.29307 0.0
C1007 C 0.40931 0.91086 0.26632 0.0
H1008 H 0.08837 0.14162 0.55401 0.0
H1009 H 0.14548 0.08053 0.56043 0.0
H1010 H 0.14405 0.07373 0.51325 0.0
H1011 H 0.13155 0.09 0.46994 0.0
H1012 H 0.076 0.15265 0.4641 0.0
H1013 H 0.07145 0.15368 0.51136 0.0
C1014 C 0.10019 0.12653 0.54512 0.0
C1015 C 0.11737 0.11195 0.56045 0.0
C1016 C 0.09965 0.12314 0.51809 0.0
C1017 C 0.13226 0.09215 0.54887 0.0
C1018 C 0.13153 0.08833 0.52192 0.0
C1019 C 0.11799 0.10341 0.47903 0.0
C1020 C 0.10446 0.12151 0.46371 0.0
C1021 C 0.11604 0.10442 0.50627 0.0
C1022 C 0.08687 0.13876 0.4756 0.0
C1023 C 0.08432 0.13943 0.5026 0.0
H1024 H 0.38158 0.57846 0.97122 0.0
H1025 H 0.4467 0.63049 0.96044 0.0
H1026 H 0.45059 0.63579 1.00767 0.0
H1027 H 0.43144 0.63033 0.05134 0.0
H1028 H 0.36436 0.58058 0.06108 0.0
H1029 H 0.36532 0.56958 0.01487 0.0
C1030 C 0.39694 0.59059 0.9792 0.0
C1031 C 0.4136 0.60435 0.96246 0.0
C1032 C 0.39846 0.59422 1.00615 0.0
C1033 C 0.43355 0.61982 0.97302 0.0
C1034 C 0.43567 0.62298 0.99998 0.0
C1035 C 0.41733 0.61676 0.04337 0.0
C1036 C 0.39764 0.60655 0.0594 0.0
C1037 C 0.4176 0.61103 0.01665 0.0
C1038 C 0.37949 0.58894 0.04897 0.0
C1039 C 0.38003 0.58263 0.02259 0.0
H1040 H 0.92262 0.88254 0.4667 0.0
H1041 H 0.86426 0.94214 0.45809 0.0
H1042 H 0.86374 0.94901 0.50527 0.0
H1043 H 0.87514 0.93318 0.54912 0.0
H1044 H 0.9324 0.87232 0.55701 0.0
H1045 H 0.9384 0.87112 0.50996 0.0
C1046 C 0.91012 0.89735 0.47513 0.0
C1047 C 0.89316 0.91146 0.45913 0.0
C1048 C 0.90958 0.90081 0.50215 0.0
C1049 C 0.87735 0.93089 0.47014 0.0
C1050 C 0.87695 0.93473 0.49709 0.0
C1051 C 0.88933 0.92011 0.54052 0.0
C1052 C 0.90296 0.90255 0.55636 0.0
C1053 C 0.89226 0.91908 0.51335 0.0
C1054 C 0.92141 0.88577 0.54511 0.0
C1055 C 0.92482 0.88502 0.51822 0.0
H1056 H 0.61769 0.42925 0.95961 0.0
H1057 H 0.57676 0.3561 0.96428 0.0
H1058 H 0.57041 0.36247 0.01123 0.0
H1059 H 0.58408 0.38498 0.0516 0.0
H1060 H 0.62767 0.45664 0.04613 0.0
H1061 H 0.62498 0.45506 0.99876 0.0
C1062 C 0.60688 0.41498 0.97084 0.0
C1063 C 0.59816 0.39203 0.95883 0.0
C1064 C 0.60402 0.41845 0.99769 0.0
C1065 C 0.58377 0.37386 0.9733 0.0
C1066 C 0.58032 0.37742 1.00012 0.0
C1067 C 0.59226 0.40061 0.04 0.0
C1068 C 0.60642 0.42067 0.05216 0.0
C1069 C 0.59146 0.39906 0.01269 0.0
C1070 C 0.61699 0.44084 0.03706 0.0
C1071 C 0.61554 0.4399 0.01001 0.0
H1072 H 0.12382 0.9262 0.54524 0.0
H1073 H 0.0661 0.86531 0.55111 0.0
H1074 H 0.06095 0.86501 0.50398 0.0
H1075 H 0.07692 0.87773 0.46124 0.0
H1076 H 0.13589 0.93717 0.45437 0.0
H1077 H 0.13616 0.94276 0.50179 0.0
C1078 C 0.10979 0.91325 0.53617 0.0
C1079 C 0.09566 0.89552 0.55148 0.0
C1080 C 0.1073 0.91278 0.50894 0.0
C1081 C 0.07745 0.87889 0.53962 0.0
C1082 C 0.07449 0.87868 0.5127 0.0
C1083 C 0.08954 0.89221 0.47009 0.0
C1084 C 0.10664 0.90672 0.45453 0.0
C1085 C 0.08997 0.89486 0.49718 0.0
C1086 C 0.12263 0.92568 0.46609 0.0
C1087 C 0.1229 0.92876 0.49317 0.0
H1088 H 0.58466 0.63227 0.96103 0.0
H1089 H 0.63244 0.56343 0.96589 0.0
H1090 H 0.63089 0.56537 0.01331 0.0
H1091 H 0.6229 0.59102 0.05247 0.0
H1092 H 0.57753 0.6614 0.04816 0.0
H1093 H 0.57072 0.65429 1.00144 0.0
C1094 C 0.59408 0.61731 0.97253 0.0
C1095 C 0.60903 0.59802 0.96016 0.0
C1096 C 0.59387 0.61908 0.9998 0.0
C1097 C 0.62112 0.57867 0.97512 0.0
C1098 C 0.62033 0.57982 1.00219 0.0
C1099 C 0.6111 0.60453 0.04137 0.0
C1100 C 0.60121 0.62696 0.0534 0.0
C1101 C 0.60789 0.60065 0.01463 0.0
C1102 C 0.58551 0.64409 0.03911 0.0
C1103 C 0.58176 0.6401 0.01243 0.0
H1104 H 0.883 0.08759 0.47078 0.0
H1105 H 0.94573 0.14312 0.4636 0.0
H1106 H 0.95203 0.14274 0.51061 0.0
H1107 H 0.93557 0.13181 0.55367 0.0
H1108 H 0.87136 0.07827 0.56184 0.0
H1109 H 0.87008 0.0722 0.5145 0.0
C1110 C 0.89838 0.09915 0.47953 0.0
C1111 C 0.9136 0.11568 0.46392 0.0
C1112 C 0.90146 0.09936 0.5067 0.0
C1113 C 0.93353 0.13053 0.47534 0.0
C1114 C 0.93714 0.13035 0.50219 0.0
C1115 C 0.92159 0.11845 0.54512 0.0
C1116 C 0.9033 0.10586 0.56102 0.0
C1117 C 0.92055 0.11565 0.51807 0.0
C1118 C 0.88555 0.08829 0.54986 0.0
C1119 C 0.88471 0.08496 0.52282 0.0
H1120 H 0.43235 0.37851 0.96415 0.0
H1121 H 0.37018 0.4337 0.95264 0.0
H1122 H 0.37176 0.44578 0.99853 0.0
H1123 H 0.38575 0.43561 0.04261 0.0
H1124 H 0.44565 0.3783 0.05525 0.0
H1125 H 0.4506 0.37261 1.00816 0.0
C1126 C 0.41955 0.39354 0.97164 0.0
C1127 C 0.40085 0.40486 0.95528 0.0
C1128 C 0.42007 0.3999 0.99824 0.0
C1129 C 0.38445 0.42442 0.96505 0.0
C1130 C 0.38534 0.43136 0.99126 0.0
C1131 C 0.40029 0.42228 0.03505 0.0
C1132 C 0.41496 0.40703 0.05225 0.0
C1133 C 0.4023 0.41844 1.00817 0.0
C1134 C 0.43401 0.39013 0.0423 0.0
C1135 C 0.43668 0.38671 0.0154 0.0
H1136 H 0.55286 0.1533 0.08423 0.0
H1137 H 0.56268 0.08444 0.13115 0.0
H1138 H 0.51667 0.07398 0.12639 0.0
H1139 H 0.47292 0.08904 0.11647 0.0
H1140 H 0.46191 0.15951 0.07242 0.0
H1141 H 0.5091 0.1644 0.06777 0.0
C1142 C 0.54499 0.13565 0.09275 0.0
C1143 C 0.56084 0.11993 0.10845 0.0
C1144 C 0.51828 0.13024 0.09068 0.0
C1145 C 0.55062 0.09705 0.11936 0.0
C1146 C 0.52434 0.09107 0.11668 0.0
C1147 C 0.48086 0.10511 0.10528 0.0
C1148 C 0.46418 0.12419 0.0953 0.0
C1149 C 0.50782 0.10825 0.10357 0.0
C1150 C 0.47451 0.14467 0.08044 0.0
C1151 C 0.50147 0.14759 0.07799 0.0
H1152 H 0.42224 0.9706 0.62917 0.0
H1153 H 0.35851 0.96798 0.57465 0.0
H1154 H 0.36081 0.01539 0.56956 0.0
H1155 H 0.37716 0.05785 0.58557 0.0
H1156 H 0.43946 0.05934 0.64191 0.0
H1157 H 0.44166 0.01203 0.64119 0.0
C1158 C 0.40909 0.98035 0.61586 0.0
C1159 C 0.38997 0.96602 0.60262 0.0
C1160 C 0.41015 1.00741 0.61357 0.0
C1161 C 0.37331 0.97874 0.58514 0.0
C1162 C 0.37453 1.00582 0.58236 0.0
C1163 C 0.39153 0.04776 0.59723 0.0
C1164 C 0.40788 0.06193 0.61401 0.0
C1165 C 0.39229 0.02043 0.5972 0.0
C1166 C 0.42647 0.04876 0.62906 0.0
C1167 C 0.42774 0.02173 0.62869 0.0
H1168 H 0.4667 0.94075 0.13562 0.0
H1169 H 0.46348 0.88371 0.07392 0.0
H1170 H 0.51071 0.8866 0.06839 0.0
H1171 H 0.55322 0.90098 0.08541 0.0
H1172 H 0.55581 0.95708 0.1481 0.0
H1173 H 0.50846 0.95927 0.14863 0.0
C1174 C 0.47631 0.92924 0.1207 0.0
C1175 C 0.46185 0.91173 0.10552 0.0
C1176 C 0.50334 0.93075 0.11792 0.0
C1177 C 0.47435 0.89721 0.08597 0.0
C1178 C 0.50133 0.89878 0.08288 0.0
C1179 C 0.54339 0.91409 0.09876 0.0
C1180 C 0.55787 0.92852 0.11696 0.0
C1181 C 0.5161 0.91484 0.09936 0.0
C1182 C 0.545 0.94554 0.13411 0.0
C1183 C 0.51794 0.94675 0.13449 0.0
H1184 H 0.58564 0.05916 0.6424 0.0
H1185 H 0.63805 0.0653 0.57696 0.0
H1186 H 0.63529 0.01821 0.57 0.0
H1187 H 0.62279 0.97496 0.58656 0.0
H1188 H 0.57232 0.96938 0.65361 0.0
H1189 H 0.56924 0.0167 0.65573 0.0
C1190 C 0.59614 0.05025 0.62634 0.0
C1191 C 0.61235 0.06551 0.61047 0.0
C1192 C 0.59496 0.02327 0.62291 0.0
C1193 C 0.62558 0.05385 0.58954 0.0
C1194 C 0.6241 0.02694 0.58565 0.0
C1195 C 0.61071 0.98413 0.60128 0.0
C1196 C 0.59809 0.96882 0.62013 0.0
C1197 C 0.60958 0.01138 0.60281 0.0
C1198 C 0.58244 0.98084 0.63908 0.0
C1199 C 0.58071 1.00787 0.64034 0.0
H1200 H 0.47711 0.91921 0.88585 0.0
H1201 H 0.46895 0.85594 0.94035 0.0
H1202 H 0.51621 0.85452 0.94603 0.0
H1203 H 0.55976 0.86639 0.92954 0.0
H1204 H 0.56707 0.92801 0.87296 0.0
H1205 H 0.52024 0.93522 0.8743 0.0
C1206 C 0.48565 0.90546 0.89937 0.0
C1207 C 0.46975 0.88737 0.91226 0.0
C1208 C 0.5127 0.90428 0.90191 0.0
C1209 C 0.48091 0.86993 0.93005 0.0
C1210 C 0.50792 0.869 0.93317 0.0
C1211 C 0.55111 0.88178 0.91801 0.0
C1212 C 0.56664 0.89632 0.90082 0.0
C1213 C 0.52403 0.88533 0.9183 0.0
C1214 C 0.55535 0.9163 0.88604 0.0
C1215 C 0.5286 0.92042 0.88675 0.0
H1216 H 0.62676 0.96226 0.43776 0.0
H1217 H 0.5605 0.96114 0.3862 0.0
H1218 H 0.55783 1.00846 0.38815 0.0
H1219 H 0.57938 0.04975 0.39757 0.0
H1220 H 0.64704 0.05149 0.44714 0.0
H1221 H 0.64392 1.00434 0.45333 0.0
C1222 C 0.61129 0.97238 0.42762 0.0
C1223 C 0.59417 0.95844 0.41146 0.0
C1224 C 0.61042 0.99967 0.42812 0.0
C1225 C 0.57413 0.97162 0.39846 0.0
C1226 C 0.57265 0.99865 0.39946 0.0
C1227 C 0.59311 0.03984 0.41015 0.0
C1228 C 0.61373 0.05376 0.4214 0.0
C1229 C 0.59152 0.01285 0.4131 0.0
C1230 C 0.63113 0.04098 0.43809 0.0
C1231 C 0.62943 0.01405 0.44151 0.0
H1232 H 0.46761 0.11645 0.93174 0.0
H1233 H 0.46208 0.05979 0.86978 0.0
H1234 H 0.50897 0.05293 0.87131 0.0
H1235 H 0.55166 0.06799 0.8853 0.0
H1236 H 0.55814 0.12661 0.94525 0.0
H1237 H 0.5107 0.12743 0.9499 0.0
C1238 C 0.47666 0.10218 0.91904 0.0
C1239 C 0.46161 0.08893 0.90041 0.0
C1240 C 0.50376 0.09892 0.91948 0.0
C1241 C 0.47342 0.07045 0.88405 0.0
C1242 C 0.5002 0.06656 0.88487 0.0
C1243 C 0.54271 0.08061 0.89973 0.0
C1244 C 0.55819 0.09755 0.91457 0.0
C1245 C 0.51561 0.08148 0.90173 0.0
C1246 C 0.54649 0.11352 0.93347 0.0
C1247 C 0.51941 0.1141 0.93602 0.0
H1248 H 0.43081 0.96037 0.39101 0.0
H1249 H 0.36308 0.95604 0.44049 0.0
H1250 H 0.36457 1.00331 0.44702 0.0
H1251 H 0.38052 0.04611 0.43197 0.0
H1252 H 0.44634 0.04957 0.37977 0.0
H1253 H 0.4505 1.00234 0.38125 0.0
C1254 C 0.41669 0.96972 0.40366 0.0
C1255 C 0.39657 0.955 0.41484 0.0
C1256 C 0.41719 0.99676 0.40657 0.0
C1257 C 0.37865 0.96713 0.43156 0.0
C1258 C 0.37939 0.99414 0.43512 0.0
C1259 C 0.39616 0.03651 0.4215 0.0
C1260 C 0.41284 0.05111 0.40544 0.0
C1261 C 0.39787 0.00924 0.42173 0.0
C1262 C 0.43306 0.03859 0.39196 0.0
C1263 C 0.43542 0.01162 0.39275 0.0
H1264 H 0.1421 0.4687 0.08855 0.0
H1265 H 0.07468 0.46025 0.13801 0.0
H1266 H 0.0705 0.50764 0.1408 0.0
H1267 H 0.08992 0.55101 0.13416 0.0
H1268 H 0.1589 0.55858 0.08666 0.0
H1269 H 0.15847 0.51192 0.07794 0.0
C1270 C 0.12621 0.47721 0.09958 0.0
C1271 C 0.10897 0.46112 0.11338 0.0
C1272 C 0.12442 0.50429 0.10168 0.0
C1273 C 0.08829 0.47233 0.12734 0.0
C1274 C 0.086 0.49939 0.12906 0.0
C1275 C 0.10456 0.54247 0.12155 0.0
C1276 C 0.12464 0.55805 0.11139 0.0
C1277 C 0.10455 0.51552 0.1171 0.0
C1278 C 0.14344 0.54686 0.09497 0.0
C1279 C 0.14322 0.52021 0.08998 0.0
H1280 H 0.13691 0.54589 0.93719 0.0
H1281 H 0.07831 0.55664 0.87808 0.0
H1282 H 0.07245 0.50943 0.87485 0.0
H1283 H 0.08888 0.46538 0.88425 0.0
H1284 H 0.14976 0.45555 0.94124 0.0
H1285 H 0.14973 0.5022 0.95004 0.0
C1286 C 0.12251 0.53793 0.92392 0.0
C1287 C 0.10836 0.55458 0.90759 0.0
C1288 C 0.11992 0.51095 0.92158 0.0
C1289 C 0.08955 0.54411 0.89073 0.0
C1290 C 0.08632 0.51715 0.88877 0.0
C1291 C 0.10177 0.47345 0.89893 0.0
C1292 C 0.11957 0.45724 0.91181 0.0
C1293 C 0.10215 0.5004 0.90337 0.0
C1294 C 0.13613 0.46779 0.93084 0.0
C1295 C 0.13614 0.49442 0.93588 0.0
H1296 H 0.05101 0.61412 0.44253 0.0
H1297 H 0.06206 0.57069 0.37144 0.0
H1298 H 0.01491 0.56512 0.36715 0.0
H1299 H 0.97086 0.58039 0.37924 0.0
H1300 H 0.961 0.62638 0.44899 0.0
H1301 H 1.00728 0.62286 0.45845 0.0
C1302 C 0.04309 0.60287 0.42646 0.0
C1303 C 0.05974 0.5933 0.40705 0.0
C1304 C 0.01614 0.60055 0.42372 0.0
C1305 C 0.04946 0.57837 0.38653 0.0
C1306 C 0.02252 0.5754 0.38396 0.0
C1307 C 0.97882 0.58898 0.39684 0.0
C1308 C 0.96283 0.60406 0.41313 0.0
C1309 C 1.00567 0.58758 0.40174 0.0
C1310 C 0.97316 0.61508 0.43595 0.0
C1311 C 0.99958 0.6131 0.44137 0.0
H1312 H 0.88104 0.55247 0.92973 0.0
H1313 H 0.94445 0.55886 0.87496 0.0
H1314 H 0.94934 0.51142 0.87473 0.0
H1315 H 0.93125 0.46818 0.88546 0.0
H1316 H 0.86627 0.46274 0.93858 0.0
H1317 H 0.86644 0.50983 0.94427 0.0
C1318 C 0.89623 0.54351 0.91807 0.0
C1319 C 0.91209 0.55897 0.90208 0.0
C1320 C 0.89842 0.51641 0.91753 0.0
C1321 C 0.93193 0.54724 0.88734 0.0
C1322 C 0.9346 0.52015 0.88708 0.0
C1323 C 0.91748 0.47732 0.89863 0.0
C1324 C 0.89852 0.46215 0.91127 0.0
C1325 C 0.9173 0.50452 0.90137 0.0
C1326 C 0.88083 0.47411 0.92837 0.0
C1327 C 0.88089 0.50101 0.93164 0.0
H1328 H 0.0522 0.40245 0.43464 0.0
H1329 H 0.05827 0.44684 0.36372 0.0
H1330 H 0.01083 0.45163 0.36249 0.0
H1331 H 0.96774 0.43611 0.37749 0.0
H1332 H 0.96283 0.38943 0.44714 0.0
H1333 H 0.00969 0.39287 0.45319 0.0
C1334 C 0.04315 0.41367 0.41923 0.0
C1335 C 0.05845 0.42385 0.39905 0.0
C1336 C 0.01606 0.41562 0.41827 0.0
C1337 C 0.04672 0.43873 0.37941 0.0
C1338 C 0.01962 0.44126 0.37859 0.0
C1339 C 0.97693 0.42729 0.3943 0.0
C1340 C 0.96208 0.41213 0.41157 0.0
C1341 C 1.00406 0.42873 0.39727 0.0
C1342 C 0.97404 0.40084 0.43336 0.0
C1343 C 1.0008 0.40277 0.43683 0.0
H1344 H 0.8854 0.46393 0.08949 0.0
H1345 H 0.94135 0.45659 0.15158 0.0
H1346 H 0.9459 0.50404 0.15357 0.0
H1347 H 0.9295 0.54742 0.14132 0.0
H1348 H 0.87248 0.55389 0.07996 0.0
H1349 H 0.87291 0.50686 0.07391 0.0
C1350 C 0.89891 0.47271 0.10318 0.0
C1351 C 0.91273 0.45697 0.12062 0.0
C1352 C 0.90098 0.49979 0.10453 0.0
C1353 C 0.93045 0.46844 0.13802 0.0
C1354 C 0.9329 0.49552 0.13927 0.0
C1355 C 0.91747 0.53852 0.1264 0.0
C1356 C 0.90067 0.55398 0.11141 0.0
C1357 C 0.91757 0.51139 0.12322 0.0
C1358 C 0.88536 0.54232 0.09195 0.0
C1359 C 0.88557 0.51545 0.08847 0.0
H1360 H 0.96459 0.43802 0.63726 0.0
H1361 H 0.95726 0.38719 0.57061 0.0
H1362 H 1.00413 0.38872 0.56371 0.0
H1363 H 0.04724 0.39816 0.58107 0.0
H1364 H 0.05545 0.44714 0.6489 0.0
H1365 H 1.00822 0.45314 0.65065 0.0
C1366 C 0.97325 0.42788 0.62085 0.0
C1367 C 0.95769 0.41213 0.60476 0.0
C1368 C 1.00036 0.42823 0.61744 0.0
C1369 C 0.96899 0.39912 0.58349 0.0
C1370 C 0.99578 0.39992 0.57956 0.0
C1371 C 0.03871 0.41057 0.59592 0.0
C1372 C 0.05457 0.42175 0.61512 0.0
C1373 C 0.01169 0.41339 0.59713 0.0
C1374 C 0.04348 0.43817 0.63401 0.0
C1375 C 0.01649 0.44147 0.63511 0.0
H1376 H 0.05615 0.62451 0.58851 0.0
H1377 H 0.06005 0.57376 0.65515 0.0
H1378 H 0.01275 0.5679 0.65392 0.0
H1379 H 0.97001 0.5833 0.6382 0.0
H1380 H 0.96701 0.63567 0.57266 0.0
H1381 H 0.01422 0.63447 0.56883 0.0
C1382 C 0.04667 0.61177 0.60245 0.0
C1383 C 0.06133 0.59999 0.62218 0.0
C1384 C 0.01961 0.60898 0.60193 0.0
C1385 C 0.04902 0.58317 0.63988 0.0
C1386 C 0.022 0.57995 0.63927 0.0
C1387 C 0.97972 0.59387 0.6227 0.0
C1388 C 0.96521 0.60991 0.60604 0.0
C1389 C 1.00701 0.59365 0.62104 0.0
C1390 C 0.97788 0.62349 0.58596 0.0
C1391 C 1.00487 0.62287 0.58378 0.0
H1392 H 0.97086 0.13546 0.332 0.0
H1393 H 0.96174 0.06907 0.38246 0.0
H1394 H 0.00889 0.06298 0.38325 0.0
H1395 H 0.05312 0.08045 0.37481 0.0
H1396 H 0.06196 0.1466 0.32392 0.0
H1397 H 0.01494 0.14847 0.31782 0.0
C1398 C 0.97911 0.11922 0.34261 0.0
C1399 C 0.96258 0.10289 0.3573 0.0
C1400 C 1.00643 0.11593 0.34318 0.0
C1401 C 0.9738 0.08196 0.37092 0.0
C1402 C 1.0009 0.07857 0.37156 0.0
C1403 C 0.04485 0.09481 0.36178 0.0
C1404 C 0.06129 0.11349 0.35004 0.0
C1405 C 0.0175 0.09599 0.35851 0.0
C1406 C 0.05 0.13197 0.33329 0.0
C1407 C 0.02296 0.13319 0.32991 0.0
H1408 H 0.44067 0.45114 0.8712 0.0
H1409 H 0.3745 0.44372 0.82008 0.0
H1410 H 0.37269 0.49093 0.81528 0.0
H1411 H 0.38581 0.5346 0.83066 0.0
H1412 H 0.45202 0.54215 0.88169 0.0
H1413 H 0.45806 0.495 0.88109 0.0
C1414 C 0.42631 0.45978 0.85842 0.0
C1415 C 0.40762 0.44371 0.8462 0.0
C1416 C 0.42513 0.48718 0.85598 0.0
C1417 C 0.38913 0.45544 0.82978 0.0
C1418 C 0.38795 0.48256 0.82715 0.0
C1419 C 0.40198 0.52601 0.84112 0.0
C1420 C 0.41828 0.54206 0.85638 0.0
C1421 C 0.40522 0.49869 0.84092 0.0
C1422 C 0.43912 0.53043 0.86978 0.0
C1423 C 0.4425 0.50335 0.8696 0.0
H1424 H 0.04035 0.9355 0.36754 0.0
H1425 H 0.04801 0.86695 0.31947 0.0
H1426 H 1.00086 0.86495 0.31422 0.0
H1427 H 0.95705 0.87912 0.32798 0.0
H1428 H 0.94902 0.94785 0.37566 0.0
H1429 H 0.9963 0.95351 0.37593 0.0
C1430 C 0.03178 0.92051 0.35536 0.0
C1431 C 0.04796 0.9013 0.34407 0.0
C1432 C 1.00436 0.91932 0.35253 0.0
C1433 C 0.03627 0.88201 0.32843 0.0
C1434 C 0.00917 0.88074 0.32553 0.0
C1435 C 0.96556 0.89575 0.33787 0.0
C1436 C 0.94927 0.91296 0.35187 0.0
C1437 C 0.99294 0.89877 0.33817 0.0
C1438 C 0.96086 0.93433 0.3646 0.0
C1439 C 0.98803 0.93746 0.36496 0.0
H1440 H 0.57914 0.45048 0.867 0.0
H1441 H 0.65079 0.43973 0.82446 0.0
H1442 H 0.65456 0.48669 0.81833 0.0
H1443 H 0.64092 0.5312 0.83047 0.0
H1444 H 0.5693 0.54212 0.87296 0.0
H1445 H 0.56199 0.49511 0.87326 0.0
C1446 C 0.59521 0.45832 0.85575 0.0
C1447 C 0.61474 0.44136 0.84638 0.0
C1448 C 0.59748 0.48561 0.85254 0.0
C1449 C 0.63544 0.45211 0.83194 0.0
C1450 C 0.63773 0.47909 0.82857 0.0
C1451 C 0.62335 0.52338 0.8392 0.0
C1452 C 0.6058 0.54038 0.85183 0.0
C1453 C 0.61938 0.49612 0.83958 0.0
C1454 C 0.58317 0.5297 0.86305 0.0
C1455 C 0.57906 0.50268 0.86341 0.0
H1456 H 0.95703 0.94142 0.64437 0.0
H1457 H 0.94673 0.87633 0.69633 0.0
H1458 H 0.99377 0.87303 0.70183 0.0
H1459 H 0.03799 0.8842 0.68656 0.0
H1460 H 0.0484 0.94923 0.63456 0.0
H1461 H 1.00156 0.95716 0.63482 0.0
C1462 C 0.96501 0.92699 0.6575 0.0
C1463 C 0.94817 0.90901 0.66971 0.0
C1464 C 0.99231 0.92492 0.66032 0.0
C1465 C 0.95905 0.89043 0.68661 0.0
C1466 C 0.98607 0.88838 0.68963 0.0
C1467 C 0.03012 0.90056 0.67585 0.0
C1468 C 0.04686 0.91592 0.66037 0.0
C1469 C 1.00295 0.90486 0.6758 0.0
C1470 C 0.03615 0.93703 0.64664 0.0
C1471 C 0.00923 0.94149 0.64662 0.0
H1472 H 0.58168 0.48759 0.14453 0.0
H1473 H 0.65376 0.47902 0.18661 0.0
H1474 H 0.65667 0.52612 0.19207 0.0
H1475 H 0.64207 0.57012 0.17953 0.0
H1476 H 0.56981 0.57892 0.13787 0.0
H1477 H 0.56352 0.53177 0.13804 0.0
C1478 C 0.59766 0.49596 0.1555 0.0
C1479 C 0.61758 0.47958 0.16493 0.0
C1480 C 0.59939 0.52332 0.15841 0.0
C1481 C 0.63814 0.49096 0.17907 0.0
C1482 C 0.63993 0.51803 0.18207 0.0
C1483 C 0.62459 0.5618 0.17109 0.0
C1484 C 0.60655 0.57823 0.15855 0.0
C1485 C 0.62117 0.53448 0.17104 0.0
C1486 C 0.58404 0.56693 0.14772 0.0
C1487 C 0.58051 0.53984 0.14761 0.0
H1488 H 0.97283 0.08204 0.64829 0.0
H1489 H 0.96069 0.15005 0.69616 0.0
H1490 H 1.00761 0.15441 0.70244 0.0
H1491 H 0.05244 0.14244 0.6894 0.0
H1492 H 0.0646 0.07365 0.64267 0.0
H1493 H 0.0177 0.06591 0.64129 0.0
C1494 C 0.9804 0.09742 0.66066 0.0
C1495 C 0.96307 0.11578 0.67158 0.0
C1496 C 1.0076 0.09988 0.6642 0.0
C1497 C 0.97338 0.13556 0.68756 0.0
C1498 C 1.00033 0.13821 0.69101 0.0
C1499 C 0.0449 0.12537 0.67949 0.0
C1500 C 0.06221 0.10878 0.66602 0.0
C1501 C 0.01771 0.12101 0.67871 0.0
C1502 C 0.05192 0.08675 0.65329 0.0
C1503 C 0.02498 0.08241 0.6523 0.0
H1504 H 0.38282 0.55363 0.1865 0.0
H1505 H 0.45012 0.56521 0.13761 0.0
H1506 H 0.45718 0.51816 0.13578 0.0
H1507 H 0.44043 0.47342 0.14287 0.0
H1508 H 0.37329 0.46215 0.19213 0.0
H1509 H 0.37032 0.50903 0.19931 0.0
C1510 C 0.39945 0.54593 0.17599 0.0
C1511 C 0.41581 0.5631 0.16208 0.0
C1512 C 0.40328 0.5187 0.17484 0.0
C1513 C 0.43725 0.55262 0.1486 0.0
C1514 C 0.44117 0.5256 0.14736 0.0
C1515 C 0.42559 0.48113 0.15577 0.0
C1516 C 0.40698 0.46406 0.16676 0.0
C1517 C 0.42379 0.50837 0.15965 0.0
C1518 C 0.38788 0.47461 0.18338 0.0
C1519 C 0.38604 0.50155 0.18735 0.0
H1520 H 0.37315 0.05536 0.07397 0.0
H1521 H 0.32701 0.0664 0.14337 0.0
H1522 H 0.32026 0.01947 0.14662 0.0
H1523 H 0.33281 0.97489 0.1335 0.0
H1524 H 0.37841 0.96367 0.06381 0.0
H1525 H 0.37962 0.01072 0.05678 0.0
C1526 C 0.361 0.04758 0.0894 0.0
C1527 C 0.35079 0.0646 0.10851 0.0
C1528 C 0.35735 0.02033 0.09133 0.0
C1529 C 0.33512 0.05398 0.12835 0.0
C1530 C 0.33141 0.027 0.13036 0.0
C1531 C 0.34243 0.98267 0.11638 0.0
C1532 C 0.35565 0.96559 0.09932 0.0
C1533 C 0.34322 0.00991 0.11252 0.0
C1534 C 0.36799 0.97617 0.07725 0.0
C1535 C 0.36888 1.0032 0.07332 0.0
H1536 H 0.45634 0.88182 0.57589 0.0
H1537 H 0.44603 0.83074 0.6417 0.0
H1538 H 0.49309 0.82533 0.64508 0.0
H1539 H 0.5374 0.8397 0.63311 0.0
H1540 H 0.54804 0.89011 0.56691 0.0
H1541 H 0.50097 0.89083 0.55973 0.0
C1542 C 0.46434 0.86897 0.59056 0.0
C1543 C 0.44745 0.85686 0.60862 0.0
C1544 C 0.49166 0.86603 0.59253 0.0
C1545 C 0.45835 0.84031 0.62749 0.0
C1546 C 0.48538 0.83734 0.62957 0.0
C1547 C 0.52949 0.85034 0.61672 0.0
C1548 C 0.54638 0.86496 0.60068 0.0
C1549 C 0.50227 0.85078 0.61277 0.0
C1550 C 0.53566 0.87859 0.57952 0.0
C1551 C 0.50863 0.87919 0.57553 0.0
H1552 H 0.65011 0.0707 0.08339 0.0
H1553 H 0.69313 0.07942 0.15499 0.0
H1554 H 0.69949 0.03241 0.15707 0.0
H1555 H 0.68748 0.98834 0.14202 0.0
H1556 H 0.64437 0.97938 0.07053 0.0
H1557 H 0.64384 0.0266 0.06479 0.0
C1558 C 0.66149 0.06241 0.09907 0.0
C1559 C 0.67095 0.07878 0.1191 0.0
C1560 C 0.66483 0.0351 0.10037 0.0
C1561 C 0.68557 0.06749 0.1393 0.0
C1562 C 0.68909 0.04047 0.14061 0.0
C1563 C 0.67855 0.99665 0.12481 0.0
C1564 C 0.66583 0.98015 0.10684 0.0
C1565 C 0.67802 0.02399 0.12177 0.0
C1566 C 0.65436 0.99143 0.08469 0.0
C1567 C 0.65387 0.01855 0.08148 0.0
H1568 H 0.55468 0.15424 0.58116 0.0
H1569 H 0.56092 0.2025 0.64975 0.0
H1570 H 0.51387 0.20897 0.64987 0.0
H1571 H 0.47035 0.19575 0.6344 0.0
H1572 H 0.46387 0.14672 0.5664 0.0
H1573 H 0.51121 0.14618 0.56194 0.0
C1574 C 0.54585 0.16676 0.59572 0.0
C1575 C 0.56151 0.17772 0.61552 0.0
C1576 C 0.5185 0.17005 0.59598 0.0
C1577 C 0.54952 0.19375 0.63429 0.0
C1578 C 0.52249 0.19735 0.63447 0.0
C1579 C 0.47922 0.18554 0.61815 0.0
C1580 C 0.46336 0.17118 0.60086 0.0
C1581 C 0.50666 0.18486 0.61598 0.0
C1582 C 0.47541 0.15799 0.58002 0.0
C1583 C 0.50261 0.15749 0.57756 0.0
H1584 H 0.37339 0.03585 0.93401 0.0
H1585 H 0.32957 0.04236 0.86271 0.0
H1586 H 0.32612 0.99509 0.85996 0.0
H1587 H 0.34074 0.95178 0.87434 0.0
H1588 H 0.38471 0.94483 0.94546 0.0
H1589 H 0.38254 0.99197 0.95188 0.0
C1590 C 0.36244 0.02697 0.91828 0.0
C1591 C 0.3519 0.04284 0.89851 0.0
C1592 C 0.36083 0.99949 0.91656 0.0
C1593 C 0.33794 0.0308 0.8782 0.0
C1594 C 0.33608 1.00365 0.8765 0.0
C1595 C 0.3493 0.96048 0.8916 0.0
C1596 C 0.36302 0.94463 0.90928 0.0
C1597 C 0.34824 0.98776 0.89504 0.0
C1598 C 0.37398 0.95639 0.93151 0.0
C1599 C 0.37291 0.98347 0.93511 0.0
H1600 H 0.54078 0.82687 0.3766 0.0
H1601 H 0.5495 0.86842 0.44915 0.0
H1602 H 0.50233 0.86831 0.45522 0.0
H1603 H 0.45823 0.8623 0.43657 0.0
H1604 H 0.44974 0.82061 0.36403 0.0
H1605 H 0.49677 0.81461 0.3616 0.0
C1606 C 0.53245 0.83525 0.39413 0.0
C1607 C 0.54889 0.84779 0.41228 0.0
C1608 C 0.5051 0.83543 0.39735 0.0
C1609 C 0.53754 0.85856 0.43484 0.0
C1610 C 0.51042 0.85872 0.43822 0.0
C1611 C 0.46657 0.85127 0.42059 0.0
C1612 C 0.45024 0.84213 0.4004 0.0
C1613 C 0.49392 0.84808 0.41913 0.0
C1614 C 0.46162 0.82793 0.37986 0.0
C1615 C 0.48866 0.82462 0.37834 0.0
H1616 H 0.69049 0.03381 0.8816 0.0
H1617 H 0.6434 0.04033 0.9509 0.0
H1618 H 0.644 0.99306 0.95604 0.0
H1619 H 0.6528 0.94938 0.93743 0.0
H1620 H 0.70044 0.94305 0.86847 0.0
H1621 H 0.70499 0.9903 0.86695 0.0
C1622 C 0.68092 0.02497 0.89823 0.0
C1623 C 0.66677 0.04081 0.91572 0.0
C1624 C 0.68116 0.99757 0.901 0.0
C1625 C 0.65449 0.02882 0.93711 0.0
C1626 C 0.65465 1.00165 0.93998 0.0
C1627 C 0.66476 0.95827 0.92247 0.0
C1628 C 0.67608 0.94244 0.90299 0.0
C1629 C 0.66718 0.98573 0.92155 0.0
C1630 C 0.69146 0.95452 0.88375 0.0
C1631 C 0.69394 0.98169 0.88274 0.0
H1632 H 0.46888 0.14081 0.44084 0.0
H1633 H 0.46069 0.1888 0.37249 0.0
H1634 H 0.50775 0.19458 0.37041 0.0
H1635 H 0.55171 0.18103 0.38425 0.0
H1636 H 0.56023 0.13396 0.45313 0.0
H1637 H 0.513 0.13319 0.45889 0.0
C1638 C 0.47731 0.15314 0.42592 0.0
C1639 C 0.46102 0.16416 0.40673 0.0
C1640 C 0.50468 0.15631 0.42469 0.0
C1641 C 0.47252 0.18002 0.38754 0.0
C1642 C 0.49958 0.1832 0.3862 0.0
C1643 C 0.54329 0.17116 0.40092 0.0
C1644 C 0.55969 0.15745 0.41812 0.0
C1645 C 0.51594 0.17071 0.4041 0.0
C1646 C 0.54827 0.14478 0.43959 0.0
C1647 C 0.52113 0.14415 0.4428 0.0
H1648 H 0.13356 0.32832 0.96606 0.0
H1649 H 0.06801 0.37949 0.95546 0.0
H1650 H 0.06119 0.38107 1.0026 0.0
H1651 H 0.07781 0.37295 0.04717 0.0
H1652 H 0.1433 0.32156 0.05744 0.0
H1653 H 0.14585 0.31478 0.01045 0.0
C1654 C 0.11735 0.33928 0.97399 0.0
C1655 C 0.10144 0.3539 0.95708 0.0
C1656 C 0.11369 0.34033 1.00127 0.0
C1657 C 0.08054 0.36797 0.96785 0.0
C1658 C 0.07675 0.36906 0.99492 0.0
C1659 C 0.09221 0.35972 0.0392 0.0
C1660 C 0.11048 0.34797 0.05601 0.0
C1661 C 0.09377 0.35607 0.0119 0.0
C1662 C 0.12899 0.33092 0.04516 0.0
C1663 C 0.13059 0.32715 0.01816 0.0
H1664 H 0.08281 0.642 0.97704 0.0
H1665 H 0.14927 0.69222 0.96613 0.0
H1666 H 0.15189 0.69941 0.0131 0.0
H1667 H 0.13932 0.68631 0.05764 0.0
H1668 H 0.07256 0.63656 0.06869 0.0
H1669 H 0.06581 0.63472 0.02158 0.0
C1670 C 0.09745 0.65507 0.98487 0.0
C1671 C 0.11596 0.66636 0.96793 0.0
C1672 C 0.09898 0.659 0.01209 0.0
C1673 C 0.13474 0.68327 0.97854 0.0
C1674 C 0.13639 0.68725 1.00551 0.0
C1675 C 0.12286 0.67563 0.0498 0.0
C1676 C 0.10659 0.66144 0.06681 0.0
C1677 C 0.11921 0.67447 0.02255 0.0
C1678 C 0.08536 0.64774 0.0562 0.0
C1679 C 0.08162 0.64649 0.02916 0.0
H1680 H 0.83359 0.63627 0.4663 0.0
H1681 H 0.87866 0.56627 0.45596 0.0
H1682 H 0.87933 0.55959 0.50308 0.0
H1683 H 0.87272 0.57726 0.54761 0.0
H1684 H 0.82702 0.64694 0.55766 0.0
H1685 H 0.82071 0.64978 0.51067 0.0
C1686 C 0.84294 0.61914 0.47428 0.0
C1687 C 0.8562 0.60192 0.45742 0.0
C1688 C 0.84345 0.6155 0.50157 0.0
C1689 C 0.8682 0.57984 0.46828 0.0
C1690 C 0.86881 0.57612 0.49536 0.0
C1691 C 0.86076 0.59265 0.53961 0.0
C1692 C 0.85058 0.61199 0.55637 0.0
C1693 C 0.85732 0.59433 0.51229 0.0
C1694 C 0.83516 0.63178 0.54544 0.0
C1695 C 0.83167 0.63355 0.51842 0.0
H1696 H 0.88455 0.32959 0.96893 0.0
H1697 H 0.95037 0.38094 0.95962 0.0
H1698 H 0.95735 0.38095 1.00671 0.0
H1699 H 0.94102 0.37126 0.05109 0.0
H1700 H 0.87529 0.31974 0.06022 0.0
H1701 H 0.87235 0.31465 0.01302 0.0
C1702 C 0.90084 0.34026 0.97711 0.0
C1703 C 0.91679 0.35538 0.96056 0.0
C1704 C 0.90462 0.34041 1.0044 0.0
C1705 C 0.93778 0.36907 0.97169 0.0
C1706 C 0.94167 0.36926 0.99875 0.0
C1707 C 0.92648 0.35837 0.04281 0.0
C1708 C 0.9083 0.34605 0.05941 0.0
C1709 C 0.92469 0.35571 0.01541 0.0
C1710 C 0.88957 0.32948 0.04813 0.0
C1711 C 0.88774 0.32669 0.02101 0.0
H1712 H 0.18487 0.38551 0.5476 0.0
H1713 H 0.14105 0.45642 0.55725 0.0
H1714 H 0.14163 0.46334 0.51019 0.0
H1715 H 0.14902 0.4459 0.46578 0.0
H1716 H 0.19312 0.37513 0.45626 0.0
H1717 H 0.19831 0.37184 0.50339 0.0
C1718 C 0.17604 0.40285 0.53949 0.0
C1719 C 0.16276 0.42028 0.55612 0.0
C1720 C 0.17621 0.40662 0.51221 0.0
C1721 C 0.15144 0.44264 0.5451 0.0
C1722 C 0.15159 0.44653 0.51806 0.0
C1723 C 0.16039 0.43014 0.47395 0.0
C1724 C 0.17047 0.41068 0.45729 0.0
C1725 C 0.1631 0.42818 0.50131 0.0
C1726 C 0.1851 0.39041 0.46842 0.0
C1727 C 0.18793 0.38839 0.4955 0.0
H1728 H 0.93961 0.64729 0.96681 0.0
H1729 H 0.87014 0.69354 0.95858 0.0
H1730 H 0.8674 0.69853 1.00581 0.0
H1731 H 0.88142 0.68506 0.04986 0.0
H1732 H 0.95084 0.63875 0.05813 0.0
H1733 H 0.95701 0.63888 0.01095 0.0
C1734 C 0.92424 0.65903 0.97528 0.0
C1735 C 0.90505 0.6699 0.95891 0.0
C1736 C 0.92256 0.6616 1.00272 0.0
C1737 C 0.88523 0.68492 0.97047 0.0
C1738 C 0.88353 0.68767 0.99762 0.0
C1739 C 0.89828 0.67554 0.04142 0.0
C1740 C 0.91555 0.66181 0.05776 0.0
C1741 C 0.90159 0.67541 0.01402 0.0
C1742 C 0.9372 0.64952 0.04625 0.0
C1743 C 0.94067 0.64943 0.01913 0.0
H1744 H 0.83007 0.38339 0.46932 0.0
H1745 H 0.8767 0.45251 0.45917 0.0
H1746 H 0.87676 0.45979 0.5062 0.0
H1747 H 0.86908 0.4429 0.5507 0.0
H1748 H 0.82197 0.37405 0.56073 0.0
H1749 H 0.8163 0.37065 0.51366 0.0
C1750 C 0.83964 0.40046 0.47731 0.0
C1751 C 0.85353 0.41724 0.46053 0.0
C1752 C 0.83981 0.40445 0.50459 0.0
C1753 C 0.86581 0.43924 0.47141 0.0
C1754 C 0.86604 0.44332 0.49845 0.0
C1755 C 0.85696 0.42756 0.54266 0.0
C1756 C 0.84617 0.40864 0.55945 0.0
C1757 C 0.85392 0.42554 0.51533 0.0
C1758 C 0.83056 0.38892 0.54848 0.0
C1759 C 0.82744 0.38682 0.52143 0.0
H1760 H 0.18842 0.63759 0.55739 0.0
H1761 H 0.1474 0.56513 0.5683 0.0
H1762 H 0.14685 0.55799 0.5212 0.0
H1763 H 0.15232 0.57557 0.47661 0.0
H1764 H 0.19379 0.64786 0.46595 0.0
H1765 H 0.20019 0.65152 0.51291 0.0
C1766 C 0.17997 0.61988 0.54952 0.0
C1767 C 0.1678 0.60204 0.56651 0.0
C1768 C 0.17951 0.61599 0.52227 0.0
C1769 C 0.15698 0.5792 0.55585 0.0
C1770 C 0.15645 0.5752 0.5288 0.0
C1771 C 0.16338 0.59176 0.48448 0.0
C1772 C 0.17234 0.61153 0.46759 0.0
C1773 C 0.16683 0.59391 0.51174 0.0
C1774 C 0.18662 0.63235 0.4783 0.0
C1775 C 0.19015 0.63457 0.50528 0.0
H1776 H 0.30162 0.1485 0.4193 0.0
H1777 H 0.31114 0.09718 0.35335 0.0
H1778 H 0.26421 0.09371 0.3485 0.0
H1779 H 0.2196 0.10543 0.36245 0.0
H1780 H 0.20997 0.15564 0.42923 0.0
H1781 H 0.25692 0.15909 0.43414 0.0
C1782 C 0.29341 0.13657 0.40391 0.0
C1783 C 0.31016 0.1232 0.38678 0.0
C1784 C 0.26601 0.13432 0.40126 0.0
C1785 C 0.29895 0.10771 0.36699 0.0
C1786 C 0.27194 0.10568 0.36409 0.0
C1787 C 0.22778 0.117 0.37813 0.0
C1788 C 0.21099 0.13021 0.39535 0.0
C1789 C 0.25516 0.11889 0.38107 0.0
C1790 C 0.22218 0.14514 0.41558 0.0
C1791 C 0.2492 0.14724 0.41845 0.0
H1792 H 0.3636 0.70096 0.90136 0.0
H1793 H 0.42745 0.69529 0.84698 0.0
H1794 H 0.43036 0.74295 0.84547 0.0
H1795 H 0.41553 0.78607 0.86054 0.0
H1796 H 0.35137 0.79175 0.91456 0.0
H1797 H 0.3478 0.74411 0.91527 0.0
C1798 C 0.37814 0.71009 0.88906 0.0
C1799 C 0.39539 0.69443 0.87432 0.0
C1800 C 0.37966 0.73749 0.88833 0.0
C1801 C 0.41395 0.70674 0.85846 0.0
C1802 C 0.41564 0.73402 0.85767 0.0
C1803 C 0.4007 0.77695 0.87249 0.0
C1804 C 0.38379 0.79259 0.88764 0.0
C1805 C 0.39873 0.74957 0.87268 0.0
C1806 C 0.36463 0.78031 0.90278 0.0
C1807 C 0.36262 0.75304 0.90318 0.0
H1808 H 0.70793 0.85494 0.40476 0.0
H1809 H 0.69494 0.92683 0.36356 0.0
H1810 H 0.74155 0.93235 0.35719 0.0
H1811 H 0.78695 0.91732 0.36372 0.0
H1812 H 0.7999 0.84641 0.40655 0.0
H1813 H 0.75322 0.84012 0.4116 0.0
C1814 C 0.7153 0.87181 0.39444 0.0
C1815 C 0.69768 0.89039 0.38479 0.0
C1816 C 0.7425 0.87515 0.39097 0.0
C1817 C 0.70783 0.91216 0.37142 0.0
C1818 C 0.73465 0.91538 0.36764 0.0
C1819 C 0.77952 0.90043 0.37396 0.0
C1820 C 0.79713 0.88242 0.38466 0.0
C1821 C 0.7523 0.89706 0.37734 0.0
C1822 C 0.78697 0.86075 0.39813 0.0
C1823 C 0.76014 0.85706 0.40109 0.0
H1824 H 0.60873 0.19797 0.86801 0.0
H1825 H 0.67147 0.1954 0.92369 0.0
H1826 H 0.67277 0.24315 0.92465 0.0
H1827 H 0.65579 0.28563 0.90996 0.0
H1828 H 0.59396 0.28813 0.85325 0.0
H1829 H 0.59264 0.2404 0.85236 0.0
C1830 C 0.62272 0.2078 0.88042 0.0
C1831 C 0.63992 0.19295 0.89593 0.0
C1832 C 0.62349 0.23528 0.88064 0.0
C1833 C 0.65801 0.20618 0.91162 0.0
C1834 C 0.65872 0.23353 0.91217 0.0
C1835 C 0.64198 0.27578 0.89737 0.0
C1836 C 0.62485 0.2906 0.88175 0.0
C1837 C 0.64151 0.24828 0.89682 0.0
C1838 C 0.60731 0.27736 0.86546 0.0
C1839 C 0.60655 0.25002 0.86499 0.0
H1840 H 0.2876 0.90271 0.65439 0.0
H1841 H 0.29352 0.85548 0.58505 0.0
H1842 H 0.2458 0.85402 0.58204 0.0
H1843 H 0.20237 0.8667 0.59901 0.0
H1844 H 0.19717 0.91374 0.66858 0.0
H1845 H 0.24469 0.91483 0.67151 0.0
C1846 C 0.27855 0.89199 0.63858 0.0
C1847 C 0.29429 0.87919 0.61992 0.0
C1848 C 0.25118 0.89134 0.63699 0.0
C1849 C 0.28202 0.86542 0.59969 0.0
C1850 C 0.2547 0.86467 0.59796 0.0
C1851 C 0.21161 0.87727 0.6148 0.0
C1852 C 0.19606 0.89027 0.63353 0.0
C1853 C 0.23907 0.87767 0.61644 0.0
C1854 C 0.2085 0.90368 0.65388 0.0
C1855 C 0.23572 0.90426 0.65557 0.0
H1856 H 0.65497 0.73597 0.10482 0.0
H1857 H 0.5971 0.73124 0.16558 0.0
H1858 H 0.59539 0.77896 0.1677 0.0
H1859 H 0.60996 0.82196 0.15185 0.0
H1860 H 0.66917 0.82659 0.09239 0.0
H1861 H 0.67073 0.77889 0.09016 0.0
C1862 C 0.64195 0.74533 0.11859 0.0
C1863 C 0.62602 0.72992 0.13496 0.0
C1864 C 0.64131 0.77276 0.11984 0.0
C1865 C 0.60953 0.7425 0.15279 0.0
C1866 C 0.60853 0.76981 0.15394 0.0
C1867 C 0.6232 0.81257 0.13832 0.0
C1868 C 0.63931 0.82795 0.12209 0.0
C1869 C 0.62424 0.78513 0.13747 0.0
C1870 C 0.65654 0.81535 0.10499 0.0
C1871 C 0.65741 0.78805 0.10374 0.0
H1872 H 0.80538 0.16401 0.62053 0.0
H1873 H 0.80778 0.09459 0.6676 0.0
H1874 H 0.76007 0.0923 0.66678 0.0
H1875 H 0.71774 0.1098 0.65227 0.0
H1876 H 0.71549 0.17945 0.60551 0.0
H1877 H 0.76316 0.18176 0.60647 0.0
C1878 C 0.79553 0.14837 0.63074 0.0
C1879 C 0.81032 0.12946 0.64419 0.0
C1880 C 0.76811 0.14717 0.63006 0.0
C1881 C 0.79705 0.10941 0.65721 0.0
C1882 C 0.76973 0.10808 0.65665 0.0
C1883 C 0.72763 0.12548 0.64217 0.0
C1884 C 0.7129 0.1444 0.62866 0.0
C1885 C 0.75507 0.12678 0.64303 0.0
C1886 C 0.72619 0.16461 0.61593 0.0
C1887 C 0.75348 0.16594 0.61654 0.0
H1888 H 0.36455 0.22368 0.10108 0.0
H1889 H 0.41762 0.21304 0.16519 0.0
H1890 H 0.42184 0.25994 0.1704 0.0
H1891 H 0.41111 0.30484 0.15654 0.0
H1892 H 0.35853 0.31535 0.09198 0.0
H1893 H 0.35367 0.26851 0.08737 0.0
C1894 C 0.37692 0.23163 0.11624 0.0
C1895 C 0.3907 0.2146 0.13262 0.0
C1896 C 0.37954 0.25897 0.11912 0.0
C1897 C 0.40675 0.22547 0.15213 0.0
C1898 C 0.40924 0.25245 0.1552 0.0
C1899 C 0.39861 0.29687 0.1415 0.0
C1900 C 0.38532 0.31388 0.12468 0.0
C1901 C 0.39585 0.26952 0.13875 0.0
C1902 C 0.36916 0.30297 0.10527 0.0
C1903 C 0.36627 0.27601 0.10256 0.0
H1904 H 0.15345 0.41012 0.21292 0.0
H1905 H 0.09291 0.35186 0.21086 0.0
H1906 H 0.09162 0.35158 0.25866 0.0
H1907 H 0.10762 0.36804 0.30095 0.0
H1908 H 0.1687 0.42575 0.30289 0.0
H1909 H 0.16988 0.42606 0.25513 0.0
C1910 C 0.1399 0.39733 0.22286 0.0
C1911 C 0.12317 0.38105 0.20816 0.0
C1912 C 0.13942 0.3972 0.25033 0.0
C1913 C 0.10593 0.36457 0.22154 0.0
C1914 C 0.10522 0.36444 0.2489 0.0
C1915 C 0.12123 0.38073 0.29098 0.0
C1916 C 0.13805 0.39696 0.30564 0.0
C1917 C 0.12185 0.38069 0.26349 0.0
C1918 C 0.15558 0.41311 0.29224 0.0
C1919 C 0.15621 0.41328 0.26489 0.0
H1920 H 0.10764 0.64417 0.72437 0.0
H1921 H 0.18071 0.60308 0.72032 0.0
H1922 H 0.18451 0.60536 0.76789 0.0
H1923 H 0.16689 0.61866 0.81052 0.0
H1924 H 0.09391 0.6599 0.81467 0.0
H1925 H 0.09039 0.6582 0.76702 0.0
C1926 C 0.12441 0.63561 0.73385 0.0
C1927 C 0.14384 0.62327 0.71868 0.0
C1928 C 0.12652 0.63721 0.76119 0.0
C1929 C 0.16546 0.61254 0.7314 0.0
C1930 C 0.16764 0.61392 0.75862 0.0
C1931 C 0.15024 0.62745 0.80105 0.0
C1932 C 0.13066 0.63948 0.81628 0.0
C1933 C 0.14829 0.6262 0.7737 0.0
C1934 C 0.10928 0.65067 0.80354 0.0
C1935 C 0.10723 0.64957 0.77628 0.0
H1936 H 0.85917 0.63865 0.21598 0.0
H1937 H 0.94262 0.64566 0.21048 0.0
H1938 H 0.94625 0.63966 0.25775 0.0
H1939 H 0.92568 0.63176 0.3007 0.0
H1940 H 0.84234 0.62265 0.3056 0.0
H1941 H 0.83875 0.62972 0.25858 0.0
C1942 C 0.87817 0.63921 0.22513 0.0
C1943 C 0.90061 0.64305 0.2096 0.0
C1944 C 0.88013 0.63495 0.25224 0.0
C1945 C 0.92504 0.64307 0.22186 0.0
C1946 C 0.92711 0.63948 0.24892 0.0
C1947 C 0.90671 0.63113 0.29148 0.0
C1948 C 0.88428 0.62655 0.30685 0.0
C1949 C 0.9048 0.6352 0.2643 0.0
C1950 C 0.85993 0.6259 0.29441 0.0
C1951 C 0.85787 0.63013 0.26748 0.0
H1952 H 0.86663 0.41411 0.80378 0.0
H1953 H 0.922 0.35111 0.80607 0.0
H1954 H 0.9226 0.34969 0.75834 0.0
H1955 H 0.90724 0.36607 0.71601 0.0
H1956 H 0.85118 0.42842 0.71342 0.0
H1957 H 0.85095 0.43033 0.76122 0.0
C1958 C 0.87894 0.4001 0.79388 0.0
C1959 C 0.89439 0.38276 0.80868 0.0
C1960 C 0.87897 0.39925 0.76635 0.0
C1961 C 0.91 0.36468 0.79535 0.0
C1962 C 0.91031 0.36387 0.76801 0.0
C1963 C 0.89493 0.38014 0.72582 0.0
C1964 C 0.87923 0.39716 0.71095 0.0
C1965 C 0.89484 0.38101 0.75331 0.0
C1966 C 0.86341 0.41512 0.7242 0.0
C1967 C 0.86332 0.4162 0.75159 0.0
H1968 H 0.7057 0.91909 0.64415 0.0
H1969 H 0.70134 0.85407 0.59099 0.0
H1970 H 0.74905 0.85152 0.59025 0.0
H1971 H 0.79194 0.86738 0.6053 0.0
H1972 H 0.796 0.9314 0.6597 0.0
H1973 H 0.74841 0.93471 0.65939 0.0
C1974 C 0.71512 0.9044 0.63224 0.0
C1975 C 0.6998 0.88685 0.61747 0.0
C1976 C 0.74253 0.90286 0.63224 0.0
C1977 C 0.71251 0.86785 0.60244 0.0
C1978 C 0.73982 0.8664 0.60206 0.0
C1979 C 0.78246 0.88215 0.61706 0.0
C1980 C 0.79769 0.89923 0.63249 0.0
C1981 C 0.75503 0.88373 0.61697 0.0
C1982 C 0.78492 0.91806 0.64768 0.0
C1983 C 0.75767 0.91994 0.64747 0.0
H1984 H 0.60847 0.23629 0.15441 0.0
H1985 H 0.67017 0.22954 0.09772 0.0
H1986 H 0.67222 0.27715 0.09431 0.0
H1987 H 0.65627 0.32063 0.10726 0.0
H1988 H 0.59541 0.32732 0.16486 0.0
H1989 H 0.59326 0.27973 0.16811 0.0
C1990 C 0.6224 0.24518 0.14125 0.0
C1991 C 0.6391 0.22922 0.1262 0.0
C1992 C 0.62358 0.27257 0.13959 0.0
C1993 C 0.6571 0.24122 0.10948 0.0
C1994 C 0.65824 0.26848 0.10753 0.0
C1995 C 0.64247 0.31173 0.12054 0.0
C1996 C 0.62588 0.32767 0.13574 0.0
C1997 C 0.64154 0.28434 0.12245 0.0
C1998 C 0.60835 0.31566 0.15295 0.0
C1999 C 0.60713 0.28841 0.15477 0.0
H2000 H 0.21982 0.15737 0.60886 0.0
H2001 H 0.21711 0.10495 0.67435 0.0
H2002 H 0.26484 0.10435 0.67574 0.0
H2003 H 0.30737 0.11846 0.65808 0.0
H2004 H 0.30994 0.17192 0.59344 0.0
H2005 H 0.26224 0.17242 0.59203 0.0
C2006 C 0.22961 0.14574 0.62347 0.0
C2007 C 0.21473 0.13105 0.64142 0.0
C2008 C 0.25708 0.14573 0.62428 0.0
C2009 C 0.22792 0.11636 0.66029 0.0
C2010 C 0.25526 0.11603 0.66105 0.0
C2011 C 0.29753 0.13026 0.64365 0.0
C2012 C 0.31238 0.14509 0.62577 0.0
C2013 C 0.27005 0.13059 0.64312 0.0
C2014 C 0.29915 0.16036 0.6074 0.0
C2015 C 0.27183 0.1606 0.60658 0.0
H2016 H 0.41196 0.80861 0.14987 0.0
H2017 H 0.35291 0.80988 0.09022 0.0
H2018 H 0.35259 0.76213 0.08932 0.0
H2019 H 0.36898 0.72009 0.10554 0.0
H2020 H 0.42659 0.7187 0.16656 0.0
H2021 H 0.42763 0.76648 0.16684 0.0
C2022 C 0.39902 0.79848 0.13658 0.0
C2023 C 0.38254 0.81296 0.11997 0.0
C2024 C 0.39874 0.771 0.13644 0.0
C2025 C 0.36578 0.79937 0.10315 0.0
C2026 C 0.36563 0.77204 0.10263 0.0
C2027 C 0.3819 0.73019 0.11886 0.0
C2028 C 0.3979 0.71568 0.1359 0.0
C2029 C 0.38204 0.75765 0.11917 0.0
C2030 C 0.41419 0.72924 0.15321 0.0
C2031 C 0.41474 0.75659 0.15335 0.0
H2032 H 0.71856 0.10549 0.37027 0.0
H2033 H 0.71478 0.16753 0.42691 0.0
H2034 H 0.76253 0.16954 0.4279 0.0
H2035 H 0.80533 0.15327 0.41294 0.0
H2036 H 0.80883 0.09234 0.35507 0.0
H2037 H 0.76115 0.09028 0.35429 0.0
C2038 C 0.72812 0.1195 0.38289 0.0
C2039 C 0.71296 0.13628 0.39867 0.0
C2040 C 0.75555 0.12067 0.38312 0.0
C2041 C 0.72583 0.15441 0.41462 0.0
C2042 C 0.75317 0.1555 0.41519 0.0
C2043 C 0.7957 0.13947 0.40016 0.0
C2044 C 0.81079 0.12279 0.38418 0.0
C2045 C 0.76823 0.13866 0.3996 0.0
C2046 C 0.79784 0.10531 0.36758 0.0
C2047 C 0.77055 0.10414 0.36716 0.0
H2048 H 0.3659 0.28742 0.90836 0.0
H2049 H 0.43 0.29094 0.8541 0.0
H2050 H 0.43322 0.24328 0.85482 0.0
H2051 H 0.41738 0.20072 0.87035 0.0
H2052 H 0.3519 0.1971 0.92293 0.0
H2053 H 0.34974 0.24483 0.92351 0.0
C2054 C 0.38068 0.27782 0.89671 0.0
C2055 C 0.39781 0.29286 0.88123 0.0
C2056 C 0.38215 0.25041 0.897 0.0
C2057 C 0.41662 0.27996 0.86615 0.0
C2058 C 0.41845 0.25269 0.86661 0.0
C2059 C 0.40271 0.21032 0.88214 0.0
C2060 C 0.38491 0.19523 0.89681 0.0
C2061 C 0.40129 0.23773 0.88192 0.0
C2062 C 0.36588 0.20812 0.91161 0.0
C2063 C 0.36463 0.23543 0.91187 0.0
H2064 H 0.20687 0.85969 0.40192 0.0
H2065 H 0.20363 0.92054 0.34425 0.0
H2066 H 0.25138 0.92237 0.3434 0.0
H2067 H 0.29407 0.9068 0.3593 0.0
H2068 H 0.29704 0.84523 0.41623 0.0
H2069 H 0.24936 0.84356 0.4171 0.0
C2070 C 0.21654 0.87342 0.38913 0.0
C2071 C 0.20149 0.89008 0.37321 0.0
C2072 C 0.244 0.8742 0.38865 0.0
C2073 C 0.21455 0.90754 0.35669 0.0
C2074 C 0.2419 0.90857 0.35625 0.0
C2075 C 0.28433 0.89299 0.37194 0.0
C2076 C 0.2993 0.87618 0.3878 0.0
C2077 C 0.25683 0.89203 0.37218 0.0
C2078 C 0.28618 0.85837 0.40387 0.0
C2079 C 0.25887 0.85744 0.40436 0.0
H2080 H 0.6564 0.69741 0.90985 0.0
H2081 H 0.60347 0.6942 0.84475 0.0
H2082 H 0.60369 0.74186 0.84236 0.0
H2083 H 0.61866 0.78439 0.85884 0.0
H2084 H 0.67248 0.78788 0.92318 0.0
H2085 H 0.67222 0.74014 0.92576 0.0
C2086 C 0.64485 0.70709 0.89512 0.0
C2087 C 0.62979 0.69207 0.87753 0.0
C2088 C 0.64528 0.73457 0.89375 0.0
C2089 C 0.61517 0.70511 0.85852 0.0
C2090 C 0.61531 0.73241 0.85718 0.0
C2091 C 0.63039 0.77478 0.87349 0.0
C2092 C 0.64553 0.78989 0.89092 0.0
C2093 C 0.63024 0.74733 0.8747 0.0
C2094 C 0.66067 0.7769 0.90957 0.0
C2095 C 0.66047 0.74956 0.91104 0.0
H2096 H 0.87025 0.6082 0.79945 0.0
H2097 H 0.92638 0.67062 0.80346 0.0
H2098 H 0.92851 0.67167 0.75568 0.0
H2099 H 0.91425 0.65491 0.71275 0.0
H2100 H 0.85724 0.59326 0.70904 0.0
H2101 H 0.85564 0.59187 0.75674 0.0
C2102 C 0.88305 0.62205 0.78995 0.0
C2103 C 0.89826 0.63928 0.80521 0.0
C2104 C 0.88397 0.62266 0.76248 0.0
C2105 C 0.91451 0.65714 0.79237 0.0
C2106 C 0.91571 0.65772 0.765 0.0
C2107 C 0.90149 0.64108 0.72234 0.0
C2108 C 0.88592 0.62409 0.70715 0.0
C2109 C 0.90052 0.64058 0.74985 0.0
C2110 C 0.86942 0.6065 0.72007 0.0
C2111 C 0.86853 0.60572 0.74739 0.0
H2112 H 0.91476 0.36559 0.30529 0.0
H2113 H 0.8484 0.41687 0.30811 0.0
H2114 H 0.84593 0.41619 0.26045 0.0
H2115 H 0.86269 0.40132 0.21802 0.0
H2116 H 0.92842 0.34928 0.21485 0.0
H2117 H 0.93099 0.34986 0.26262 0.0
C2118 C 0.89976 0.37669 0.29551 0.0
C2119 C 0.88183 0.39143 0.31042 0.0
C2120 C 0.89832 0.37599 0.26802 0.0
C2121 C 0.86244 0.40545 0.29728 0.0
C2122 C 0.86104 0.40504 0.26998 0.0
C2123 C 0.87761 0.39003 0.2277 0.0
C2124 C 0.89543 0.37529 0.21269 0.0
C2125 C 0.87887 0.39041 0.25516 0.0
C2126 C 0.91447 0.36074 0.22577 0.0
C2127 C 0.91596 0.36114 0.25312 0.0
H2128 H 0.15224 0.40803 0.80011 0.0
H2129 H 0.09206 0.34941 0.80207 0.0
H2130 H 0.0904 0.34951 0.75426 0.0
H2131 H 0.10588 0.36653 0.71198 0.0
H2132 H 0.16713 0.42405 0.71019 0.0
H2133 H 0.1686 0.42404 0.75794 0.0
C2134 C 0.13867 0.39526 0.79014 0.0
C2135 C 0.12211 0.37883 0.8048 0.0
C2136 C 0.13809 0.39524 0.76267 0.0
C2137 C 0.10494 0.36227 0.7914 0.0
C2138 C 0.10401 0.36235 0.76404 0.0
C2139 C 0.11959 0.3791 0.72199 0.0
C2140 C 0.13633 0.39542 0.70738 0.0
C2141 C 0.12046 0.37879 0.74948 0.0
C2142 C 0.15406 0.41135 0.72081 0.0
C2143 C 0.15485 0.41136 0.74814 0.0
H2144 H 0.11094 0.65325 0.31156 0.0
H2145 H 0.167 0.59087 0.31414 0.0
H2146 H 0.16745 0.58914 0.26638 0.0
H2147 H 0.15177 0.60521 0.22402 0.0
H2148 H 0.09692 0.66864 0.22134 0.0
H2149 H 0.09605 0.67004 0.26913 0.0
C2150 C 0.12331 0.63924 0.30172 0.0
C2151 C 0.1389 0.6221 0.31654 0.0
C2152 C 0.12358 0.63853 0.27426 0.0
C2153 C 0.15488 0.60427 0.30334 0.0
C2154 C 0.15507 0.60326 0.27601 0.0
C2155 C 0.13949 0.61931 0.23384 0.0
C2156 C 0.12421 0.6367 0.219 0.0
C2157 C 0.13944 0.62023 0.26128 0.0
C2158 C 0.10874 0.65499 0.23217 0.0
C2159 C 0.10829 0.6558 0.25951 0.0
loop_
_geom_bond_atom_site_label_1
_geom_bond_atom_site_label_2
_geom_bond_distance
_geom_bond_site_symmetry_2
_ccdc_geom_bond_type
In0 O1 2.294 . S
In0 O2 2.326 . S
In0 O6 2.266 . S
In0 O7 2.326 . S
In0 O8 2.266 . S
In0 O9 2.326 . S
In0 O11 2.294 . S
In0 O12 2.326 . S
O1 In0 2.294 . S
O1 C10 1.240 . S
O2 In0 2.326 . S
O2 C10 1.252 . S
C3 O6 1.252 . S
C3 O7 1.260 . S
C4 O11 1.240 . S
C4 O12 1.252 . S
C5 O8 1.252 . S
C5 O9 1.260 . S
O6 In0 2.266 . S
O6 C3 1.252 . S
O7 In0 2.326 . S
O7 C3 1.260 . S
O8 In0 2.266 . S
O8 C5 1.252 . S
O9 In0 2.326 . S
O9 C5 1.260 . S
C10 O1 1.240 . S
C10 O2 1.252 . S
O11 In0 2.294 . S
O11 C4 1.240 . S
O12 In0 2.326 . S
O12 C4 1.252 . S
In13 O14 2.294 . S
In13 O15 2.326 . S
In13 O19 2.266 . S
In13 O20 2.326 . S
In13 O21 2.266 . S
In13 O22 2.326 . S
In13 O24 2.294 . S
In13 O25 2.326 . S
O14 In13 2.294 . S
O14 C23 1.240 . S
O15 In13 2.326 . S
O15 C23 1.252 . S
C16 O19 1.252 . S
C16 O20 1.260 . S
C17 O24 1.240 . S
C17 O25 1.252 . S
C18 O21 1.252 . S
C18 O22 1.260 . S
O19 In13 2.266 . S
O19 C16 1.252 . S
O20 In13 2.326 . S
O20 C16 1.260 . S
O21 In13 2.266 . S
O21 C18 1.252 . S
O22 In13 2.326 . S
O22 C18 1.260 . S
C23 O14 1.240 . S
C23 O15 1.252 . S
O24 In13 2.294 . S
O24 C17 1.240 . S
O25 In13 2.326 . S
O25 C17 1.252 . S
In26 O27 2.294 . S
In26 O28 2.326 . S
In26 O32 2.266 . S
In26 O33 2.326 . S
In26 O34 2.266 . S
In26 O35 2.326 . S
In26 O37 2.294 . S
In26 O38 2.326 . S
O27 In26 2.294 . S
O27 C36 1.240 . S
O28 In26 2.326 . S
O28 C36 1.252 . S
C29 O32 1.252 . S
C29 O33 1.260 . S
C30 O37 1.240 . S
C30 O38 1.252 . S
C31 O34 1.252 . S
C31 O35 1.260 . S
O32 In26 2.266 . S
O32 C29 1.252 . S
O33 In26 2.326 . S
O33 C29 1.260 . S
O34 In26 2.266 . S
O34 C31 1.252 . S
O35 In26 2.326 . S
O35 C31 1.260 . S
C36 O27 1.240 . S
C36 O28 1.252 . S
O37 In26 2.294 . S
O37 C30 1.240 . S
O38 In26 2.326 . S
O38 C30 1.252 . S
In39 O40 2.294 . S
In39 O41 2.326 . S
In39 O45 2.266 . S
In39 O46 2.326 . S
In39 O47 2.266 . S
In39 O48 2.326 . S
In39 O50 2.294 . S
In39 O51 2.326 . S
O40 In39 2.294 . S
O40 C49 1.240 . S
O41 In39 2.326 . S
O41 C49 1.252 . S
C42 O45 1.252 . S
C42 O46 1.260 . S
C43 O50 1.240 . S
C43 O51 1.252 . S
C44 O47 1.252 . S
C44 O48 1.260 . S
O45 In39 2.266 . S
O45 C42 1.252 . S
O46 In39 2.326 . S
O46 C42 1.260 . S
O47 In39 2.266 . S
O47 C44 1.252 . S
O48 In39 2.326 . S
O48 C44 1.260 . S
C49 O40 1.240 . S
C49 O41 1.252 . S
O50 In39 2.294 . S
O50 C43 1.240 . S
O51 In39 2.326 . S
O51 C43 1.252 . S
In52 O53 2.294 . S
In52 O54 2.326 . S
In52 O58 2.266 . S
In52 O59 2.326 . S
In52 O60 2.266 . S
In52 O61 2.326 . S
In52 O63 2.294 . S
In52 O64 2.326 . S
O53 In52 2.294 . S
O53 C62 1.240 . S
O54 In52 2.326 . S
O54 C62 1.252 . S
C55 O58 1.252 . S
C55 O59 1.260 . S
C56 O63 1.240 . S
C56 O64 1.252 . S
C57 O60 1.252 . S
C57 O61 1.260 . S
O58 In52 2.266 . S
O58 C55 1.252 . S
O59 In52 2.326 . S
O59 C55 1.260 . S
O60 In52 2.266 . S
O60 C57 1.252 . S
O61 In52 2.326 . S
O61 C57 1.260 . S
C62 O53 1.240 . S
C62 O54 1.252 . S
O63 In52 2.294 . S
O63 C56 1.240 . S
O64 In52 2.326 . S
O64 C56 1.252 . S
In65 O66 2.294 . S
In65 O67 2.326 . S
In65 O71 2.266 . S
In65 O72 2.326 . S
In65 O73 2.266 . S
In65 O74 2.326 . S
In65 O76 2.294 . S
In65 O77 2.326 . S
O66 In65 2.294 . S
O66 C75 1.240 . S
O67 In65 2.326 . S
O67 C75 1.252 . S
C68 O71 1.252 . S
C68 O72 1.260 . S
C69 O76 1.240 . S
C69 O77 1.252 . S
C70 O73 1.252 . S
C70 O74 1.260 . S
O71 In65 2.266 . S
O71 C68 1.252 . S
O72 In65 2.326 . S
O72 C68 1.260 . S
O73 In65 2.266 . S
O73 C70 1.252 . S
O74 In65 2.326 . S
O74 C70 1.260 . S
C75 O66 1.240 . S
C75 O67 1.252 . S
O76 In65 2.294 . S
O76 C69 1.240 . S
O77 In65 2.326 . S
O77 C69 1.252 . S
In78 O79 2.294 . S
In78 O80 2.326 . S
In78 O84 2.266 . S
In78 O85 2.326 . S
In78 O86 2.266 . S
In78 O87 2.326 . S
In78 O89 2.294 . S
In78 O90 2.326 . S
O79 In78 2.294 . S
O79 C88 1.240 . S
O80 In78 2.326 . S
O80 C88 1.252 . S
C81 O84 1.252 . S
C81 O85 1.260 . S
C82 O89 1.240 . S
C82 O90 1.252 . S
C83 O86 1.252 . S
C83 O87 1.260 . S
O84 In78 2.266 . S
O84 C81 1.252 . S
O85 In78 2.326 . S
O85 C81 1.260 . S
O86 In78 2.266 . S
O86 C83 1.252 . S
O87 In78 2.326 . S
O87 C83 1.260 . S
C88 O79 1.240 . S
C88 O80 1.252 . S
O89 In78 2.294 . S
O89 C82 1.240 . S
O90 In78 2.326 . S
O90 C82 1.252 . S
In91 O92 2.294 . S
In91 O93 2.326 . S
In91 O97 2.266 . S
In91 O98 2.326 . S
In91 O99 2.266 . S
In91 O100 2.326 . S
In91 O102 2.294 . S
In91 O103 2.326 . S
O92 In91 2.294 . S
O92 C101 1.240 . S
O93 In91 2.326 . S
O93 C101 1.252 . S
C94 O97 1.252 . S
C94 O98 1.260 . S
C95 O102 1.240 . S
C95 O103 1.252 . S
C96 O99 1.252 . S
C96 O100 1.260 . S
O97 In91 2.266 . S
O97 C94 1.252 . S
O98 In91 2.326 . S
O98 C94 1.260 . S
O99 In91 2.266 . S
O99 C96 1.252 . S
O100 In91 2.326 . S
O100 C96 1.260 . S
C101 O92 1.240 . S
C101 O93 1.252 . S
O102 In91 2.294 . S
O102 C95 1.240 . S
O103 In91 2.326 . S
O103 C95 1.252 . S
In104 O105 2.294 . S
In104 O106 2.326 . S
In104 O110 2.266 . S
In104 O111 2.326 . S
In104 O112 2.266 . S
In104 O113 2.326 . S
In104 O115 2.294 . S
In104 O116 2.326 . S
O105 In104 2.294 . S
O105 C114 1.240 . S
O106 In104 2.326 . S
O106 C114 1.252 . S
C107 O110 1.252 . S
C107 O111 1.260 . S
C108 O115 1.240 . S
C108 O116 1.252 . S
C109 O112 1.252 . S
C109 O113 1.260 . S
O110 In104 2.266 . S
O110 C107 1.252 . S
O111 In104 2.326 . S
O111 C107 1.260 . S
O112 In104 2.266 . S
O112 C109 1.252 . S
O113 In104 2.326 . S
O113 C109 1.260 . S
C114 O105 1.240 . S
C114 O106 1.252 . S
O115 In104 2.294 . S
O115 C108 1.240 . S
O116 In104 2.326 . S
O116 C108 1.252 . S
In117 O118 2.294 . S
In117 O119 2.326 . S
In117 O123 2.266 . S
In117 O124 2.326 . S
In117 O125 2.266 . S
In117 O126 2.326 . S
In117 O128 2.294 . S
In117 O129 2.326 . S
O118 In117 2.294 . S
O118 C127 1.240 . S
O119 In117 2.326 . S
O119 C127 1.252 . S
C120 O123 1.252 . S
C120 O124 1.260 . S
C121 O128 1.240 . S
C121 O129 1.252 . S
C122 O125 1.252 . S
C122 O126 1.260 . S
O123 In117 2.266 . S
O123 C120 1.252 . S
O124 In117 2.326 . S
O124 C120 1.260 . S
O125 In117 2.266 . S
O125 C122 1.252 . S
O126 In117 2.326 . S
O126 C122 1.260 . S
C127 O118 1.240 . S
C127 O119 1.252 . S
O128 In117 2.294 . S
O128 C121 1.240 . S
O129 In117 2.326 . S
O129 C121 1.252 . S
In130 O131 2.294 . S
In130 O132 2.326 . S
In130 O136 2.266 . S
In130 O137 2.326 . S
In130 O138 2.266 . S
In130 O139 2.326 . S
In130 O141 2.294 . S
In130 O142 2.326 . S
O131 In130 2.294 . S
O131 C140 1.240 . S
O132 In130 2.326 . S
O132 C140 1.252 . S
C133 O136 1.252 . S
C133 O137 1.260 . S
C134 O141 1.240 . S
C134 O142 1.252 . S
C135 O138 1.252 . S
C135 O139 1.260 . S
O136 In130 2.266 . S
O136 C133 1.252 . S
O137 In130 2.326 . S
O137 C133 1.260 . S
O138 In130 2.266 . S
O138 C135 1.252 . S
O139 In130 2.326 . S
O139 C135 1.260 . S
C140 O131 1.240 . S
C140 O132 1.252 . S
O141 In130 2.294 . S
O141 C134 1.240 . S
O142 In130 2.326 . S
O142 C134 1.252 . S
In143 O144 2.294 . S
In143 O145 2.326 . S
In143 O149 2.266 . S
In143 O150 2.326 . S
In143 O151 2.266 . S
In143 O152 2.326 . S
In143 O154 2.294 . S
In143 O155 2.326 . S
O144 In143 2.294 . S
O144 C153 1.240 . S
O145 In143 2.326 . S
O145 C153 1.252 . S
C146 O149 1.252 . S
C146 O150 1.260 . S
C147 O154 1.240 . S
C147 O155 1.252 . S
C148 O151 1.252 . S
C148 O152 1.260 . S
O149 In143 2.266 . S
O149 C146 1.252 . S
O150 In143 2.326 . S
O150 C146 1.260 . S
O151 In143 2.266 . S
O151 C148 1.252 . S
O152 In143 2.326 . S
O152 C148 1.260 . S
C153 O144 1.240 . S
C153 O145 1.252 . S
O154 In143 2.294 . S
O154 C147 1.240 . S
O155 In143 2.326 . S
O155 C147 1.252 . S
In156 O157 2.294 . S
In156 O158 2.326 . S
In156 O162 2.266 . S
In156 O163 2.326 . S
In156 O164 2.266 . S
In156 O165 2.326 . S
In156 O167 2.294 . S
In156 O168 2.326 . S
O157 In156 2.294 . S
O157 C166 1.240 . S
O158 In156 2.326 . S
O158 C166 1.252 . S
C159 O162 1.252 . S
C159 O163 1.260 . S
C160 O167 1.240 . S
C160 O168 1.252 . S
C161 O164 1.252 . S
C161 O165 1.260 . S
O162 In156 2.266 . S
O162 C159 1.252 . S
O163 In156 2.326 . S
O163 C159 1.260 . S
O164 In156 2.266 . S
O164 C161 1.252 . S
O165 In156 2.326 . S
O165 C161 1.260 . S
C166 O157 1.240 . S
C166 O158 1.252 . S
O167 In156 2.294 . S
O167 C160 1.240 . S
O168 In156 2.326 . S
O168 C160 1.252 . S
In169 O170 2.294 . S
In169 O171 2.326 . S
In169 O175 2.266 . S
In169 O176 2.326 . S
In169 O177 2.266 . S
In169 O178 2.326 . S
In169 O180 2.294 . S
In169 O181 2.326 . S
O170 In169 2.294 . S
O170 C179 1.240 . S
O171 In169 2.326 . S
O171 C179 1.252 . S
C172 O175 1.252 . S
C172 O176 1.260 . S
C173 O180 1.240 . S
C173 O181 1.252 . S
C174 O177 1.252 . S
C174 O178 1.260 . S
O175 In169 2.266 . S
O175 C172 1.252 . S
O176 In169 2.326 . S
O176 C172 1.260 . S
O177 In169 2.266 . S
O177 C174 1.252 . S
O178 In169 2.326 . S
O178 C174 1.260 . S
C179 O170 1.240 . S
C179 O171 1.252 . S
O180 In169 2.294 . S
O180 C173 1.240 . S
O181 In169 2.326 . S
O181 C173 1.252 . S
In182 O183 2.294 . S
In182 O184 2.326 . S
In182 O188 2.266 . S
In182 O189 2.326 . S
In182 O190 2.266 . S
In182 O191 2.326 . S
In182 O193 2.294 . S
In182 O194 2.326 . S
O183 In182 2.294 . S
O183 C192 1.240 . S
O184 In182 2.326 . S
O184 C192 1.252 . S
C185 O188 1.252 . S
C185 O189 1.260 . S
C186 O193 1.240 . S
C186 O194 1.252 . S
C187 O190 1.252 . S
C187 O191 1.260 . S
O188 In182 2.266 . S
O188 C185 1.252 . S
O189 In182 2.326 . S
O189 C185 1.260 . S
O190 In182 2.266 . S
O190 C187 1.252 . S
O191 In182 2.326 . S
O191 C187 1.260 . S
C192 O183 1.240 . S
C192 O184 1.252 . S
O193 In182 2.294 . S
O193 C186 1.240 . S
O194 In182 2.326 . S
O194 C186 1.252 . S
In195 O196 2.294 . S
In195 O197 2.326 . S
In195 O201 2.266 . S
In195 O202 2.326 . S
In195 O203 2.266 . S
In195 O204 2.326 . S
In195 O206 2.294 . S
In195 O207 2.326 . S
O196 In195 2.294 . S
O196 C205 1.240 . S
O197 In195 2.326 . S
O197 C205 1.252 . S
C198 O201 1.252 . S
C198 O202 1.260 . S
C199 O206 1.240 . S
C199 O207 1.252 . S
C200 O203 1.252 . S
C200 O204 1.260 . S
O201 In195 2.266 . S
O201 C198 1.252 . S
O202 In195 2.326 . S
O202 C198 1.260 . S
O203 In195 2.266 . S
O203 C200 1.252 . S
O204 In195 2.326 . S
O204 C200 1.260 . S
C205 O196 1.240 . S
C205 O197 1.252 . S
O206 In195 2.294 . S
O206 C199 1.240 . S
O207 In195 2.326 . S
O207 C199 1.252 . S
In208 O209 2.294 . S
In208 O210 2.326 . S
In208 O214 2.266 . S
In208 O215 2.326 . S
In208 O216 2.266 . S
In208 O217 2.326 . S
In208 O219 2.294 . S
In208 O220 2.326 . S
O209 In208 2.294 . S
O209 C218 1.240 . S
O210 In208 2.326 . S
O210 C218 1.252 . S
C211 O214 1.252 . S
C211 O215 1.260 . S
C212 O219 1.240 . S
C212 O220 1.252 . S
C213 O216 1.252 . S
C213 O217 1.260 . S
O214 In208 2.266 . S
O214 C211 1.252 . S
O215 In208 2.326 . S
O215 C211 1.260 . S
O216 In208 2.266 . S
O216 C213 1.252 . S
O217 In208 2.326 . S
O217 C213 1.260 . S
C218 O209 1.240 . S
C218 O210 1.252 . S
O219 In208 2.294 . S
O219 C212 1.240 . S
O220 In208 2.326 . S
O220 C212 1.252 . S
In221 O222 2.294 . S
In221 O223 2.326 . S
In221 O227 2.266 . S
In221 O228 2.326 . S
In221 O229 2.266 . S
In221 O230 2.326 . S
In221 O232 2.294 . S
In221 O233 2.326 . S
O222 In221 2.294 . S
O222 C231 1.240 . S
O223 In221 2.326 . S
O223 C231 1.252 . S
C224 O227 1.252 . S
C224 O228 1.260 . S
C225 O232 1.240 . S
C225 O233 1.252 . S
C226 O229 1.252 . S
C226 O230 1.260 . S
O227 In221 2.266 . S
O227 C224 1.252 . S
O228 In221 2.326 . S
O228 C224 1.260 . S
O229 In221 2.266 . S
O229 C226 1.252 . S
O230 In221 2.326 . S
O230 C226 1.260 . S
C231 O222 1.240 . S
C231 O223 1.252 . S
O232 In221 2.294 . S
O232 C225 1.240 . S
O233 In221 2.326 . S
O233 C225 1.252 . S
In234 O235 2.294 . S
In234 O236 2.326 . S
In234 O240 2.266 . S
In234 O241 2.326 . S
In234 O242 2.266 . S
In234 O243 2.326 . S
In234 O245 2.294 . S
In234 O246 2.326 . S
O235 In234 2.294 . S
O235 C244 1.240 . S
O236 In234 2.326 . S
O236 C244 1.252 . S
C237 O240 1.252 . S
C237 O241 1.260 . S
C238 O245 1.240 . S
C238 O246 1.252 . S
C239 O242 1.252 . S
C239 O243 1.260 . S
O240 In234 2.266 . S
O240 C237 1.252 . S
O241 In234 2.326 . S
O241 C237 1.260 . S
O242 In234 2.266 . S
O242 C239 1.252 . S
O243 In234 2.326 . S
O243 C239 1.260 . S
C244 O235 1.240 . S
C244 O236 1.252 . S
O245 In234 2.294 . S
O245 C238 1.240 . S
O246 In234 2.326 . S
O246 C238 1.252 . S
In247 O248 2.294 . S
In247 O249 2.326 . S
In247 O253 2.266 . S
In247 O254 2.326 . S
In247 O255 2.266 . S
In247 O256 2.326 . S
In247 O258 2.294 . S
In247 O259 2.326 . S
O248 In247 2.294 . S
O248 C257 1.240 . S
O249 In247 2.326 . S
O249 C257 1.252 . S
C250 O253 1.252 . S
C250 O254 1.260 . S
C251 O258 1.240 . S
C251 O259 1.252 . S
C252 O255 1.252 . S
C252 O256 1.260 . S
O253 In247 2.266 . S
O253 C250 1.252 . S
O254 In247 2.326 . S
O254 C250 1.260 . S
O255 In247 2.266 . S
O255 C252 1.252 . S
O256 In247 2.326 . S
O256 C252 1.260 . S
C257 O248 1.240 . S
C257 O249 1.252 . S
O258 In247 2.294 . S
O258 C251 1.240 . S
O259 In247 2.326 . S
O259 C251 1.252 . S
In260 O261 2.294 . S
In260 O262 2.326 . S
In260 O266 2.266 . S
In260 O267 2.326 . S
In260 O268 2.266 . S
In260 O269 2.326 . S
In260 O271 2.294 . S
In260 O272 2.326 . S
O261 In260 2.294 . S
O261 C270 1.240 . S
O262 In260 2.326 . S
O262 C270 1.252 . S
C263 O266 1.252 . S
C263 O267 1.260 . S
C264 O271 1.240 . S
C264 O272 1.252 . S
C265 O268 1.252 . S
C265 O269 1.260 . S
O266 In260 2.266 . S
O266 C263 1.252 . S
O267 In260 2.326 . S
O267 C263 1.260 . S
O268 In260 2.266 . S
O268 C265 1.252 . S
O269 In260 2.326 . S
O269 C265 1.260 . S
C270 O261 1.240 . S
C270 O262 1.252 . S
O271 In260 2.294 . S
O271 C264 1.240 . S
O272 In260 2.326 . S
O272 C264 1.252 . S
In273 O274 2.294 . S
In273 O275 2.326 . S
In273 O279 2.266 . S
In273 O280 2.326 . S
In273 O281 2.266 . S
In273 O282 2.326 . S
In273 O284 2.294 . S
In273 O285 2.326 . S
O274 In273 2.294 . S
O274 C283 1.240 . S
O275 In273 2.326 . S
O275 C283 1.252 . S
C276 O279 1.252 . S
C276 O280 1.260 . S
C277 O284 1.240 . S
C277 O285 1.252 . S
C278 O281 1.252 . S
C278 O282 1.260 . S
O279 In273 2.266 . S
O279 C276 1.252 . S
O280 In273 2.326 . S
O280 C276 1.260 . S
O281 In273 2.266 . S
O281 C278 1.252 . S
O282 In273 2.326 . S
O282 C278 1.260 . S
C283 O274 1.240 . S
C283 O275 1.252 . S
O284 In273 2.294 . S
O284 C277 1.240 . S
O285 In273 2.326 . S
O285 C277 1.252 . S
In286 O287 2.294 . S
In286 O288 2.326 . S
In286 O292 2.266 . S
In286 O293 2.326 . S
In286 O294 2.266 . S
In286 O295 2.326 . S
In286 O297 2.294 . S
In286 O298 2.326 . S
O287 In286 2.294 . S
O287 C296 1.240 . S
O288 In286 2.326 . S
O288 C296 1.252 . S
C289 O292 1.252 . S
C289 O293 1.260 . S
C290 O297 1.240 . S
C290 O298 1.252 . S
C291 O294 1.252 . S
C291 O295 1.260 . S
O292 In286 2.266 . S
O292 C289 1.252 . S
O293 In286 2.326 . S
O293 C289 1.260 . S
O294 In286 2.266 . S
O294 C291 1.252 . S
O295 In286 2.326 . S
O295 C291 1.260 . S
C296 O287 1.240 . S
C296 O288 1.252 . S
O297 In286 2.294 . S
O297 C290 1.240 . S
O298 In286 2.326 . S
O298 C290 1.252 . S
In299 O300 2.294 . S
In299 O301 2.326 . S
In299 O305 2.266 . S
In299 O306 2.326 . S
In299 O307 2.266 . S
In299 O308 2.326 . S
In299 O310 2.294 . S
In299 O311 2.326 . S
O300 In299 2.294 . S
O300 C309 1.240 . S
O301 In299 2.326 . S
O301 C309 1.252 . S
C302 O305 1.252 . S
C302 O306 1.260 . S
C303 O310 1.240 . S
C303 O311 1.252 . S
C304 O307 1.252 . S
C304 O308 1.260 . S
O305 In299 2.266 . S
O305 C302 1.252 . S
O306 In299 2.326 . S
O306 C302 1.260 . S
O307 In299 2.266 . S
O307 C304 1.252 . S
O308 In299 2.326 . S
O308 C304 1.260 . S
C309 O300 1.240 . S
C309 O301 1.252 . S
O310 In299 2.294 . S
O310 C303 1.240 . S
O311 In299 2.326 . S
O311 C303 1.252 . S
In312 O313 2.294 . S
In312 O314 2.326 . S
In312 O318 2.266 . S
In312 O319 2.326 . S
In312 O320 2.266 . S
In312 O321 2.326 . S
In312 O323 2.294 . S
In312 O324 2.326 . S
O313 In312 2.294 . S
O313 C322 1.240 . S
O314 In312 2.326 . S
O314 C322 1.252 . S
C315 O318 1.252 . S
C315 O319 1.260 . S
C316 O323 1.240 . S
C316 O324 1.252 . S
C317 O320 1.252 . S
C317 O321 1.260 . S
O318 In312 2.266 . S
O318 C315 1.252 . S
O319 In312 2.326 . S
O319 C315 1.260 . S
O320 In312 2.266 . S
O320 C317 1.252 . S
O321 In312 2.326 . S
O321 C317 1.260 . S
C322 O313 1.240 . S
C322 O314 1.252 . S
O323 In312 2.294 . S
O323 C316 1.240 . S
O324 In312 2.326 . S
O324 C316 1.252 . S
In325 O326 2.294 . S
In325 O327 2.326 . S
In325 O331 2.266 . S
In325 O332 2.326 . S
In325 O333 2.266 . S
In325 O334 2.326 . S
In325 O336 2.294 . S
In325 O337 2.326 . S
O326 In325 2.294 . S
O326 C335 1.240 . S
O327 In325 2.326 . S
O327 C335 1.252 . S
C328 O331 1.252 . S
C328 O332 1.260 . S
C329 O336 1.240 . S
C329 O337 1.252 . S
C330 O333 1.252 . S
C330 O334 1.260 . S
O331 In325 2.266 . S
O331 C328 1.252 . S
O332 In325 2.326 . S
O332 C328 1.260 . S
O333 In325 2.266 . S
O333 C330 1.252 . S
O334 In325 2.326 . S
O334 C330 1.260 . S
C335 O326 1.240 . S
C335 O327 1.252 . S
O336 In325 2.294 . S
O336 C329 1.240 . S
O337 In325 2.326 . S
O337 C329 1.252 . S
In338 O339 2.294 . S
In338 O340 2.326 . S
In338 O344 2.266 . S
In338 O345 2.326 . S
In338 O346 2.266 . S
In338 O347 2.326 . S
In338 O349 2.294 . S
In338 O350 2.326 . S
O339 In338 2.294 . S
O339 C348 1.240 . S
O340 In338 2.326 . S
O340 C348 1.252 . S
C341 O344 1.252 . S
C341 O345 1.260 . S
C342 O349 1.240 . S
C342 O350 1.252 . S
C343 O346 1.252 . S
C343 O347 1.260 . S
O344 In338 2.266 . S
O344 C341 1.252 . S
O345 In338 2.326 . S
O345 C341 1.260 . S
O346 In338 2.266 . S
O346 C343 1.252 . S
O347 In338 2.326 . S
O347 C343 1.260 . S
C348 O339 1.240 . S
C348 O340 1.252 . S
O349 In338 2.294 . S
O349 C342 1.240 . S
O350 In338 2.326 . S
O350 C342 1.252 . S
In351 O352 2.294 . S
In351 O353 2.326 . S
In351 O357 2.266 . S
In351 O358 2.326 . S
In351 O359 2.266 . S
In351 O360 2.326 . S
In351 O362 2.294 . S
In351 O363 2.326 . S
O352 In351 2.294 . S
O352 C361 1.240 . S
O353 In351 2.326 . S
O353 C361 1.252 . S
C354 O357 1.252 . S
C354 O358 1.260 . S
C355 O362 1.240 . S
C355 O363 1.252 . S
C356 O359 1.252 . S
C356 O360 1.260 . S
O357 In351 2.266 . S
O357 C354 1.252 . S
O358 In351 2.326 . S
O358 C354 1.260 . S
O359 In351 2.266 . S
O359 C356 1.252 . S
O360 In351 2.326 . S
O360 C356 1.260 . S
C361 O352 1.240 . S
C361 O353 1.252 . S
O362 In351 2.294 . S
O362 C355 1.240 . S
O363 In351 2.326 . S
O363 C355 1.252 . S
In364 O365 2.294 . S
In364 O366 2.326 . S
In364 O370 2.266 . S
In364 O371 2.326 . S
In364 O372 2.266 . S
In364 O373 2.326 . S
In364 O375 2.294 . S
In364 O376 2.326 . S
O365 In364 2.294 . S
O365 C374 1.240 . S
O366 In364 2.326 . S
O366 C374 1.252 . S
C367 O370 1.252 . S
C367 O371 1.260 . S
C368 O375 1.240 . S
C368 O376 1.252 . S
C369 O372 1.252 . S
C369 O373 1.260 . S
O370 In364 2.266 . S
O370 C367 1.252 . S
O371 In364 2.326 . S
O371 C367 1.260 . S
O372 In364 2.266 . S
O372 C369 1.252 . S
O373 In364 2.326 . S
O373 C369 1.260 . S
C374 O365 1.240 . S
C374 O366 1.252 . S
O375 In364 2.294 . S
O375 C368 1.240 . S
O376 In364 2.326 . S
O376 C368 1.252 . S
In377 O378 2.294 . S
In377 O379 2.326 . S
In377 O383 2.266 . S
In377 O384 2.326 . S
In377 O385 2.266 . S
In377 O386 2.326 . S
In377 O388 2.294 . S
In377 O389 2.326 . S
O378 In377 2.294 . S
O378 C387 1.240 . S
O379 In377 2.326 . S
O379 C387 1.252 . S
C380 O383 1.252 . S
C380 O384 1.260 . S
C381 O388 1.240 . S
C381 O389 1.252 . S
C382 O385 1.252 . S
C382 O386 1.260 . S
O383 In377 2.266 . S
O383 C380 1.252 . S
O384 In377 2.326 . S
O384 C380 1.260 . S
O385 In377 2.266 . S
O385 C382 1.252 . S
O386 In377 2.326 . S
O386 C382 1.260 . S
C387 O378 1.240 . S
C387 O379 1.252 . S
O388 In377 2.294 . S
O388 C381 1.240 . S
O389 In377 2.326 . S
O389 C381 1.252 . S
In390 O391 2.294 . S
In390 O392 2.326 . S
In390 O396 2.266 . S
In390 O397 2.326 . S
In390 O398 2.266 . S
In390 O399 2.326 . S
In390 O401 2.294 . S
In390 O402 2.326 . S
O391 In390 2.294 . S
O391 C400 1.240 . S
O392 In390 2.326 . S
O392 C400 1.252 . S
C393 O396 1.252 . S
C393 O397 1.260 . S
C394 O401 1.240 . S
C394 O402 1.252 . S
C395 O398 1.252 . S
C395 O399 1.260 . S
O396 In390 2.266 . S
O396 C393 1.252 . S
O397 In390 2.326 . S
O397 C393 1.260 . S
O398 In390 2.266 . S
O398 C395 1.252 . S
O399 In390 2.326 . S
O399 C395 1.260 . S
C400 O391 1.240 . S
C400 O392 1.252 . S
O401 In390 2.294 . S
O401 C394 1.240 . S
O402 In390 2.326 . S
O402 C394 1.252 . S
In403 O404 2.294 . S
In403 O405 2.326 . S
In403 O409 2.266 . S
In403 O410 2.326 . S
In403 O411 2.266 . S
In403 O412 2.326 . S
In403 O414 2.294 . S
In403 O415 2.326 . S
O404 In403 2.294 . S
O404 C413 1.240 . S
O405 In403 2.326 . S
O405 C413 1.252 . S
C406 O409 1.252 . S
C406 O410 1.260 . S
C407 O414 1.240 . S
C407 O415 1.252 . S
C408 O411 1.252 . S
C408 O412 1.260 . S
O409 In403 2.266 . S
O409 C406 1.252 . S
O410 In403 2.326 . S
O410 C406 1.260 . S
O411 In403 2.266 . S
O411 C408 1.252 . S
O412 In403 2.326 . S
O412 C408 1.260 . S
C413 O404 1.240 . S
C413 O405 1.252 . S
O414 In403 2.294 . S
O414 C407 1.240 . S
O415 In403 2.326 . S
O415 C407 1.252 . S
In416 O417 2.294 . S
In416 O418 2.326 . S
In416 O422 2.266 . S
In416 O423 2.326 . S
In416 O424 2.266 . S
In416 O425 2.326 . S
In416 O427 2.294 . S
In416 O428 2.326 . S
O417 In416 2.294 . S
O417 C426 1.240 . S
O418 In416 2.326 . S
O418 C426 1.252 . S
C419 O422 1.252 . S
C419 O423 1.260 . S
C420 O427 1.240 . S
C420 O428 1.252 . S
C421 O424 1.252 . S
C421 O425 1.260 . S
O422 In416 2.266 . S
O422 C419 1.252 . S
O423 In416 2.326 . S
O423 C419 1.260 . S
O424 In416 2.266 . S
O424 C421 1.252 . S
O425 In416 2.326 . S
O425 C421 1.260 . S
C426 O417 1.240 . S
C426 O418 1.252 . S
O427 In416 2.294 . S
O427 C420 1.240 . S
O428 In416 2.326 . S
O428 C420 1.252 . S
In429 O430 2.294 . S
In429 O431 2.326 . S
In429 O435 2.266 . S
In429 O436 2.326 . S
In429 O437 2.266 . S
In429 O438 2.326 . S
In429 O440 2.294 . S
In429 O441 2.326 . S
O430 In429 2.294 . S
O430 C439 1.240 . S
O431 In429 2.326 . S
O431 C439 1.252 . S
C432 O435 1.252 . S
C432 O436 1.260 . S
C433 O440 1.240 . S
C433 O441 1.252 . S
C434 O437 1.252 . S
C434 O438 1.260 . S
O435 In429 2.266 . S
O435 C432 1.252 . S
O436 In429 2.326 . S
O436 C432 1.260 . S
O437 In429 2.266 . S
O437 C434 1.252 . S
O438 In429 2.326 . S
O438 C434 1.260 . S
C439 O430 1.240 . S
C439 O431 1.252 . S
O440 In429 2.294 . S
O440 C433 1.240 . S
O441 In429 2.326 . S
O441 C433 1.252 . S
In442 O443 2.294 . S
In442 O444 2.326 . S
In442 O448 2.266 . S
In442 O449 2.326 . S
In442 O450 2.266 . S
In442 O451 2.326 . S
In442 O453 2.294 . S
In442 O454 2.326 . S
O443 In442 2.294 . S
O443 C452 1.240 . S
O444 In442 2.326 . S
O444 C452 1.252 . S
C445 O448 1.252 . S
C445 O449 1.260 . S
C446 O453 1.240 . S
C446 O454 1.252 . S
C447 O450 1.252 . S
C447 O451 1.260 . S
O448 In442 2.266 . S
O448 C445 1.252 . S
O449 In442 2.326 . S
O449 C445 1.260 . S
O450 In442 2.266 . S
O450 C447 1.252 . S
O451 In442 2.326 . S
O451 C447 1.260 . S
C452 O443 1.240 . S
C452 O444 1.252 . S
O453 In442 2.294 . S
O453 C446 1.240 . S
O454 In442 2.326 . S
O454 C446 1.252 . S
In455 O456 2.294 . S
In455 O457 2.326 . S
In455 O461 2.266 . S
In455 O462 2.326 . S
In455 O463 2.266 . S
In455 O464 2.326 . S
In455 O466 2.294 . S
In455 O467 2.326 . S
O456 In455 2.294 . S
O456 C465 1.240 . S
O457 In455 2.326 . S
O457 C465 1.252 . S
C458 O461 1.252 . S
C458 O462 1.260 . S
C459 O466 1.240 . S
C459 O467 1.252 . S
C460 O463 1.252 . S
C460 O464 1.260 . S
O461 In455 2.266 . S
O461 C458 1.252 . S
O462 In455 2.326 . S
O462 C458 1.260 . S
O463 In455 2.266 . S
O463 C460 1.252 . S
O464 In455 2.326 . S
O464 C460 1.260 . S
C465 O456 1.240 . S
C465 O457 1.252 . S
O466 In455 2.294 . S
O466 C459 1.240 . S
O467 In455 2.326 . S
O467 C459 1.252 . S
In468 O469 2.294 . S
In468 O470 2.326 . S
In468 O474 2.266 . S
In468 O475 2.326 . S
In468 O476 2.266 . S
In468 O477 2.326 . S
In468 O479 2.294 . S
In468 O480 2.326 . S
O469 In468 2.294 . S
O469 C478 1.240 . S
O470 In468 2.326 . S
O470 C478 1.252 . S
C471 O474 1.252 . S
C471 O475 1.260 . S
C472 O479 1.240 . S
C472 O480 1.252 . S
C473 O476 1.252 . S
C473 O477 1.260 . S
O474 In468 2.266 . S
O474 C471 1.252 . S
O475 In468 2.326 . S
O475 C471 1.260 . S
O476 In468 2.266 . S
O476 C473 1.252 . S
O477 In468 2.326 . S
O477 C473 1.260 . S
C478 O469 1.240 . S
C478 O470 1.252 . S
O479 In468 2.294 . S
O479 C472 1.240 . S
O480 In468 2.326 . S
O480 C472 1.252 . S
In481 O482 2.294 . S
In481 O483 2.326 . S
In481 O487 2.266 . S
In481 O488 2.326 . S
In481 O489 2.266 . S
In481 O490 2.326 . S
In481 O492 2.294 . S
In481 O493 2.326 . S
O482 In481 2.294 . S
O482 C491 1.240 . S
O483 In481 2.326 . S
O483 C491 1.252 . S
C484 O487 1.252 . S
C484 O488 1.260 . S
C485 O492 1.240 . S
C485 O493 1.252 . S
C486 O489 1.252 . S
C486 O490 1.260 . S
O487 In481 2.266 . S
O487 C484 1.252 . S
O488 In481 2.326 . S
O488 C484 1.260 . S
O489 In481 2.266 . S
O489 C486 1.252 . S
O490 In481 2.326 . S
O490 C486 1.260 . S
C491 O482 1.240 . S
C491 O483 1.252 . S
O492 In481 2.294 . S
O492 C485 1.240 . S
O493 In481 2.326 . S
O493 C485 1.252 . S
In494 O495 2.294 . S
In494 O496 2.326 . S
In494 O500 2.266 . S
In494 O501 2.326 . S
In494 O502 2.266 . S
In494 O503 2.326 . S
In494 O505 2.294 . S
In494 O506 2.326 . S
O495 In494 2.294 . S
O495 C504 1.240 . S
O496 In494 2.326 . S
O496 C504 1.252 . S
C497 O500 1.252 . S
C497 O501 1.260 . S
C498 O505 1.240 . S
C498 O506 1.252 . S
C499 O502 1.252 . S
C499 O503 1.260 . S
O500 In494 2.266 . S
O500 C497 1.252 . S
O501 In494 2.326 . S
O501 C497 1.260 . S
O502 In494 2.266 . S
O502 C499 1.252 . S
O503 In494 2.326 . S
O503 C499 1.260 . S
C504 O495 1.240 . S
C504 O496 1.252 . S
O505 In494 2.294 . S
O505 C498 1.240 . S
O506 In494 2.326 . S
O506 C498 1.252 . S
In507 O508 2.294 . S
In507 O509 2.326 . S
In507 O513 2.266 . S
In507 O514 2.326 . S
In507 O515 2.266 . S
In507 O516 2.326 . S
In507 O518 2.294 . S
In507 O519 2.326 . S
O508 In507 2.294 . S
O508 C517 1.240 . S
O509 In507 2.326 . S
O509 C517 1.252 . S
C510 O513 1.252 . S
C510 O514 1.260 . S
C511 O518 1.240 . S
C511 O519 1.252 . S
C512 O515 1.252 . S
C512 O516 1.260 . S
O513 In507 2.266 . S
O513 C510 1.252 . S
O514 In507 2.326 . S
O514 C510 1.260 . S
O515 In507 2.266 . S
O515 C512 1.252 . S
O516 In507 2.326 . S
O516 C512 1.260 . S
C517 O508 1.240 . S
C517 O509 1.252 . S
O518 In507 2.294 . S
O518 C511 1.240 . S
O519 In507 2.326 . S
O519 C511 1.252 . S
In520 O521 2.294 . S
In520 O522 2.326 . S
In520 O526 2.266 . S
In520 O527 2.326 . S
In520 O528 2.266 . S
In520 O529 2.326 . S
In520 O531 2.294 . S
In520 O532 2.326 . S
O521 In520 2.294 . S
O521 C530 1.240 . S
O522 In520 2.326 . S
O522 C530 1.252 . S
C523 O526 1.252 . S
C523 O527 1.260 . S
C524 O531 1.240 . S
C524 O532 1.252 . S
C525 O528 1.252 . S
C525 O529 1.260 . S
O526 In520 2.266 . S
O526 C523 1.252 . S
O527 In520 2.326 . S
O527 C523 1.260 . S
O528 In520 2.266 . S
O528 C525 1.252 . S
O529 In520 2.326 . S
O529 C525 1.260 . S
C530 O521 1.240 . S
C530 O522 1.252 . S
O531 In520 2.294 . S
O531 C524 1.240 . S
O532 In520 2.326 . S
O532 C524 1.252 . S
In533 O534 2.294 . S
In533 O535 2.326 . S
In533 O539 2.266 . S
In533 O540 2.326 . S
In533 O541 2.266 . S
In533 O542 2.326 . S
In533 O544 2.294 . S
In533 O545 2.326 . S
O534 In533 2.294 . S
O534 C543 1.240 . S
O535 In533 2.326 . S
O535 C543 1.252 . S
C536 O539 1.252 . S
C536 O540 1.260 . S
C537 O544 1.240 . S
C537 O545 1.252 . S
C538 O541 1.252 . S
C538 O542 1.260 . S
O539 In533 2.266 . S
O539 C536 1.252 . S
O540 In533 2.326 . S
O540 C536 1.260 . S
O541 In533 2.266 . S
O541 C538 1.252 . S
O542 In533 2.326 . S
O542 C538 1.260 . S
C543 O534 1.240 . S
C543 O535 1.252 . S
O544 In533 2.294 . S
O544 C537 1.240 . S
O545 In533 2.326 . S
O545 C537 1.252 . S
In546 O547 2.294 . S
In546 O548 2.326 . S
In546 O552 2.266 . S
In546 O553 2.326 . S
In546 O554 2.266 . S
In546 O555 2.326 . S
In546 O557 2.294 . S
In546 O558 2.326 . S
O547 In546 2.294 . S
O547 C556 1.240 . S
O548 In546 2.326 . S
O548 C556 1.252 . S
C549 O552 1.252 . S
C549 O553 1.260 . S
C550 O557 1.240 . S
C550 O558 1.252 . S
C551 O554 1.252 . S
C551 O555 1.260 . S
O552 In546 2.266 . S
O552 C549 1.252 . S
O553 In546 2.326 . S
O553 C549 1.260 . S
O554 In546 2.266 . S
O554 C551 1.252 . S
O555 In546 2.326 . S
O555 C551 1.260 . S
C556 O547 1.240 . S
C556 O548 1.252 . S
O557 In546 2.294 . S
O557 C550 1.240 . S
O558 In546 2.326 . S
O558 C550 1.252 . S
In559 O560 2.294 . S
In559 O561 2.326 . S
In559 O565 2.266 . S
In559 O566 2.326 . S
In559 O567 2.266 . S
In559 O568 2.326 . S
In559 O570 2.294 . S
In559 O571 2.326 . S
O560 In559 2.294 . S
O560 C569 1.240 . S
O561 In559 2.326 . S
O561 C569 1.252 . S
C562 O565 1.252 . S
C562 O566 1.260 . S
C563 O570 1.240 . S
C563 O571 1.252 . S
C564 O567 1.252 . S
C564 O568 1.260 . S
O565 In559 2.266 . S
O565 C562 1.252 . S
O566 In559 2.326 . S
O566 C562 1.260 . S
O567 In559 2.266 . S
O567 C564 1.252 . S
O568 In559 2.326 . S
O568 C564 1.260 . S
C569 O560 1.240 . S
C569 O561 1.252 . S
O570 In559 2.294 . S
O570 C563 1.240 . S
O571 In559 2.326 . S
O571 C563 1.252 . S
In572 O573 2.294 . S
In572 O574 2.326 . S
In572 O578 2.266 . S
In572 O579 2.326 . S
In572 O580 2.266 . S
In572 O581 2.326 . S
In572 O583 2.294 . S
In572 O584 2.326 . S
O573 In572 2.294 . S
O573 C582 1.240 . S
O574 In572 2.326 . S
O574 C582 1.252 . S
C575 O578 1.252 . S
C575 O579 1.260 . S
C576 O583 1.240 . S
C576 O584 1.252 . S
C577 O580 1.252 . S
C577 O581 1.260 . S
O578 In572 2.266 . S
O578 C575 1.252 . S
O579 In572 2.326 . S
O579 C575 1.260 . S
O580 In572 2.266 . S
O580 C577 1.252 . S
O581 In572 2.326 . S
O581 C577 1.260 . S
C582 O573 1.240 . S
C582 O574 1.252 . S
O583 In572 2.294 . S
O583 C576 1.240 . S
O584 In572 2.326 . S
O584 C576 1.252 . S
In585 O586 2.294 . S
In585 O587 2.326 . S
In585 O591 2.266 . S
In585 O592 2.326 . S
In585 O593 2.266 . S
In585 O594 2.326 . S
In585 O596 2.294 . S
In585 O597 2.326 . S
O586 In585 2.294 . S
O586 C595 1.240 . S
O587 In585 2.326 . S
O587 C595 1.252 . S
C588 O591 1.252 . S
C588 O592 1.260 . S
C589 O596 1.240 . S
C589 O597 1.252 . S
C590 O593 1.252 . S
C590 O594 1.260 . S
O591 In585 2.266 . S
O591 C588 1.252 . S
O592 In585 2.326 . S
O592 C588 1.260 . S
O593 In585 2.266 . S
O593 C590 1.252 . S
O594 In585 2.326 . S
O594 C590 1.260 . S
C595 O586 1.240 . S
C595 O587 1.252 . S
O596 In585 2.294 . S
O596 C589 1.240 . S
O597 In585 2.326 . S
O597 C589 1.252 . S
In598 O599 2.294 . S
In598 O600 2.326 . S
In598 O604 2.266 . S
In598 O605 2.326 . S
In598 O606 2.266 . S
In598 O607 2.326 . S
In598 O609 2.294 . S
In598 O610 2.326 . S
O599 In598 2.294 . S
O599 C608 1.240 . S
O600 In598 2.326 . S
O600 C608 1.252 . S
C601 O604 1.252 . S
C601 O605 1.260 . S
C602 O609 1.240 . S
C602 O610 1.252 . S
C603 O606 1.252 . S
C603 O607 1.260 . S
O604 In598 2.266 . S
O604 C601 1.252 . S
O605 In598 2.326 . S
O605 C601 1.260 . S
O606 In598 2.266 . S
O606 C603 1.252 . S
O607 In598 2.326 . S
O607 C603 1.260 . S
C608 O599 1.240 . S
C608 O600 1.252 . S
O609 In598 2.294 . S
O609 C602 1.240 . S
O610 In598 2.326 . S
O610 C602 1.252 . S
In611 O612 2.294 . S
In611 O613 2.326 . S
In611 O617 2.266 . S
In611 O618 2.326 . S
In611 O619 2.266 . S
In611 O620 2.326 . S
In611 O622 2.294 . S
In611 O623 2.326 . S
O612 In611 2.294 . S
O612 C621 1.240 . S
O613 In611 2.326 . S
O613 C621 1.252 . S
C614 O617 1.252 . S
C614 O618 1.260 . S
C615 O622 1.240 . S
C615 O623 1.252 . S
C616 O619 1.252 . S
C616 O620 1.260 . S
O617 In611 2.266 . S
O617 C614 1.252 . S
O618 In611 2.326 . S
O618 C614 1.260 . S
O619 In611 2.266 . S
O619 C616 1.252 . S
O620 In611 2.326 . S
O620 C616 1.260 . S
C621 O612 1.240 . S
C621 O613 1.252 . S
O622 In611 2.294 . S
O622 C615 1.240 . S
O623 In611 2.326 . S
O623 C615 1.252 . S
H624 C630 0.930 . S
H625 C633 0.930 . S
H626 C634 0.930 . S
H627 C635 0.930 . S
H628 C638 0.930 . S
H629 C639 0.930 . S
C630 H624 0.930 . S
C630 C631 1.355 . S
C630 C632 1.415 . S
C631 C630 1.355 . S
C631 C633 1.419 . S
C632 C630 1.415 . S
C632 C637 1.425 . S
C632 C639 1.409 . S
C633 H625 0.930 . S
C633 C631 1.419 . S
C633 C634 1.362 . S
C634 H626 0.930 . S
C634 C633 1.362 . S
C634 C637 1.409 . S
C635 H627 0.930 . S
C635 C636 1.355 . S
C635 C637 1.415 . S
C636 C635 1.355 . S
C636 C638 1.419 . S
C637 C632 1.425 . S
C637 C634 1.409 . S
C637 C635 1.415 . S
C638 H628 0.930 . S
C638 C636 1.419 . S
C638 C639 1.362 . S
C639 H629 0.930 . S
C639 C632 1.409 . S
C639 C638 1.362 . S
H640 C646 0.930 . S
H641 C649 0.930 . S
H642 C650 0.930 . S
H643 C651 0.930 . S
H644 C654 0.930 . S
H645 C655 0.930 . S
C646 H640 0.930 . S
C646 C647 1.355 . S
C646 C648 1.415 . S
C647 C646 1.355 . S
C647 C649 1.419 . S
C648 C646 1.415 . S
C648 C653 1.425 . S
C648 C655 1.409 . S
C649 H641 0.930 . S
C649 C647 1.419 . S
C649 C650 1.362 . S
C650 H642 0.930 . S
C650 C649 1.362 . S
C650 C653 1.409 . S
C651 H643 0.930 . S
C651 C652 1.355 . S
C651 C653 1.415 . S
C652 C651 1.355 . S
C652 C654 1.419 . S
C653 C648 1.425 . S
C653 C650 1.409 . S
C653 C651 1.415 . S
C654 H644 0.930 . S
C654 C652 1.419 . S
C654 C655 1.362 . S
C655 H645 0.930 . S
C655 C648 1.409 . S
C655 C654 1.362 . S
H656 C662 0.930 . S
H657 C665 0.930 . S
H658 C666 0.930 . S
H659 C667 0.930 . S
H660 C670 0.930 . S
H661 C671 0.930 . S
C662 H656 0.930 . S
C662 C663 1.355 . S
C662 C664 1.415 . S
C663 C662 1.355 . S
C663 C665 1.419 . S
C664 C662 1.415 . S
C664 C669 1.425 . S
C664 C671 1.409 . S
C665 H657 0.930 . S
C665 C663 1.419 . S
C665 C666 1.362 . S
C666 H658 0.930 . S
C666 C665 1.362 . S
C666 C669 1.409 . S
C667 H659 0.930 . S
C667 C668 1.355 . S
C667 C669 1.415 . S
C668 C667 1.355 . S
C668 C670 1.419 . S
C669 C664 1.425 . S
C669 C666 1.409 . S
C669 C667 1.415 . S
C670 H660 0.930 . S
C670 C668 1.419 . S
C670 C671 1.362 . S
C671 H661 0.930 . S
C671 C664 1.409 . S
C671 C670 1.362 . S
H672 C678 0.930 . S
H673 C681 0.930 . S
H674 C682 0.930 . S
H675 C683 0.930 . S
H676 C686 0.930 . S
H677 C687 0.930 . S
C678 H672 0.930 . S
C678 C679 1.355 . S
C678 C680 1.415 . S
C679 C678 1.355 . S
C679 C681 1.419 . S
C680 C678 1.415 . S
C680 C685 1.425 . S
C680 C687 1.409 . S
C681 H673 0.930 . S
C681 C679 1.419 . S
C681 C682 1.362 . S
C682 H674 0.930 . S
C682 C681 1.362 . S
C682 C685 1.409 . S
C683 H675 0.930 . S
C683 C684 1.355 . S
C683 C685 1.415 . S
C684 C683 1.355 . S
C684 C686 1.419 . S
C685 C680 1.425 . S
C685 C682 1.409 . S
C685 C683 1.415 . S
C686 H676 0.930 . S
C686 C684 1.419 . S
C686 C687 1.362 . S
C687 H677 0.930 . S
C687 C680 1.409 . S
C687 C686 1.362 . S
H688 C694 0.930 . S
H689 C697 0.930 . S
H690 C698 0.930 . S
H691 C699 0.930 . S
H692 C702 0.930 . S
H693 C703 0.930 . S
C694 H688 0.930 . S
C694 C695 1.355 . S
C694 C696 1.415 . S
C695 C694 1.355 . S
C695 C697 1.419 . S
C696 C694 1.415 . S
C696 C701 1.425 . S
C696 C703 1.409 . S
C697 H689 0.930 . S
C697 C695 1.419 . S
C697 C698 1.362 . S
C698 H690 0.930 . S
C698 C697 1.362 . S
C698 C701 1.409 . S
C699 H691 0.930 . S
C699 C700 1.355 . S
C699 C701 1.415 . S
C700 C699 1.355 . S
C700 C702 1.419 . S
C701 C696 1.425 . S
C701 C698 1.409 . S
C701 C699 1.415 . S
C702 H692 0.930 . S
C702 C700 1.419 . S
C702 C703 1.362 . S
C703 H693 0.930 . S
C703 C696 1.409 . S
C703 C702 1.362 . S
H704 C710 0.930 . S
H705 C713 0.930 . S
H706 C714 0.930 . S
H707 C715 0.930 . S
H708 C718 0.930 . S
H709 C719 0.930 . S
C710 H704 0.930 . S
C710 C711 1.355 . S
C710 C712 1.415 . S
C711 C710 1.355 . S
C711 C713 1.419 . S
C712 C710 1.415 . S
C712 C717 1.425 . S
C712 C719 1.409 . S
C713 H705 0.930 . S
C713 C711 1.419 . S
C713 C714 1.362 . S
C714 H706 0.930 . S
C714 C713 1.362 . S
C714 C717 1.409 . S
C715 H707 0.930 . S
C715 C716 1.355 . S
C715 C717 1.415 . S
C716 C715 1.355 . S
C716 C718 1.419 . S
C717 C712 1.425 . S
C717 C714 1.409 . S
C717 C715 1.415 . S
C718 H708 0.930 . S
C718 C716 1.419 . S
C718 C719 1.362 . S
C719 H709 0.930 . S
C719 C712 1.409 . S
C719 C718 1.362 . S
H720 C726 0.930 . S
H721 C729 0.930 . S
H722 C730 0.930 . S
H723 C731 0.930 . S
H724 C734 0.930 . S
H725 C735 0.930 . S
C726 H720 0.930 . S
C726 C727 1.355 . S
C726 C728 1.415 . S
C727 C726 1.355 . S
C727 C729 1.419 . S
C728 C726 1.415 . S
C728 C733 1.425 . S
C728 C735 1.409 . S
C729 H721 0.930 . S
C729 C727 1.419 . S
C729 C730 1.362 . S
C730 H722 0.930 . S
C730 C729 1.362 . S
C730 C733 1.409 . S
C731 H723 0.930 . S
C731 C732 1.355 . S
C731 C733 1.415 . S
C732 C731 1.355 . S
C732 C734 1.419 . S
C733 C728 1.425 . S
C733 C730 1.409 . S
C733 C731 1.415 . S
C734 H724 0.930 . S
C734 C732 1.419 . S
C734 C735 1.362 . S
C735 H725 0.930 . S
C735 C728 1.409 . S
C735 C734 1.362 . S
H736 C742 0.930 . S
H737 C745 0.930 . S
H738 C746 0.930 . S
H739 C747 0.930 . S
H740 C750 0.930 . S
H741 C751 0.930 . S
C742 H736 0.930 . S
C742 C743 1.355 . S
C742 C744 1.415 . S
C743 C742 1.355 . S
C743 C745 1.419 . S
C744 C742 1.415 . S
C744 C749 1.425 . S
C744 C751 1.409 . S
C745 H737 0.930 . S
C745 C743 1.419 . S
C745 C746 1.362 . S
C746 H738 0.930 . S
C746 C745 1.362 . S
C746 C749 1.409 . S
C747 H739 0.930 . S
C747 C748 1.355 . S
C747 C749 1.415 . S
C748 C747 1.355 . S
C748 C750 1.419 . S
C749 C744 1.425 . S
C749 C746 1.409 . S
C749 C747 1.415 . S
C750 H740 0.930 . S
C750 C748 1.419 . S
C750 C751 1.362 . S
C751 H741 0.930 . S
C751 C744 1.409 . S
C751 C750 1.362 . S
H752 C758 0.930 . S
H753 C761 0.930 . S
H754 C762 0.930 . S
H755 C763 0.930 . S
H756 C766 0.930 . S
H757 C767 0.930 . S
C758 H752 0.930 . S
C758 C759 1.355 . S
C758 C760 1.415 . S
C759 C758 1.355 . S
C759 C761 1.419 . S
C760 C758 1.415 . S
C760 C765 1.425 . S
C760 C767 1.409 . S
C761 H753 0.930 . S
C761 C759 1.419 . S
C761 C762 1.362 . S
C762 H754 0.930 . S
C762 C761 1.362 . S
C762 C765 1.409 . S
C763 H755 0.930 . S
C763 C764 1.355 . S
C763 C765 1.415 . S
C764 C763 1.355 . S
C764 C766 1.419 . S
C765 C760 1.425 . S
C765 C762 1.409 . S
C765 C763 1.415 . S
C766 H756 0.930 . S
C766 C764 1.419 . S
C766 C767 1.362 . S
C767 H757 0.930 . S
C767 C760 1.409 . S
C767 C766 1.362 . S
H768 C774 0.930 . S
H769 C777 0.930 . S
H770 C778 0.930 . S
H771 C779 0.930 . S
H772 C782 0.930 . S
H773 C783 0.930 . S
C774 H768 0.930 . S
C774 C775 1.355 . S
C774 C776 1.415 . S
C775 C774 1.355 . S
C775 C777 1.419 . S
C776 C774 1.415 . S
C776 C781 1.425 . S
C776 C783 1.409 . S
C777 H769 0.930 . S
C777 C775 1.419 . S
C777 C778 1.362 . S
C778 H770 0.930 . S
C778 C777 1.362 . S
C778 C781 1.409 . S
C779 H771 0.930 . S
C779 C780 1.355 . S
C779 C781 1.415 . S
C780 C779 1.355 . S
C780 C782 1.419 . S
C781 C776 1.425 . S
C781 C778 1.409 . S
C781 C779 1.415 . S
C782 H772 0.930 . S
C782 C780 1.419 . S
C782 C783 1.362 . S
C783 H773 0.930 . S
C783 C776 1.409 . S
C783 C782 1.362 . S
H784 C790 0.930 . S
H785 C793 0.930 . S
H786 C794 0.930 . S
H787 C795 0.930 . S
H788 C798 0.930 . S
H789 C799 0.930 . S
C790 H784 0.930 . S
C790 C791 1.355 . S
C790 C792 1.415 . S
C791 C790 1.355 . S
C791 C793 1.419 . S
C792 C790 1.415 . S
C792 C797 1.425 . S
C792 C799 1.409 . S
C793 H785 0.930 . S
C793 C791 1.419 . S
C793 C794 1.362 . S
C794 H786 0.930 . S
C794 C793 1.362 . S
C794 C797 1.409 . S
C795 H787 0.930 . S
C795 C796 1.355 . S
C795 C797 1.415 . S
C796 C795 1.355 . S
C796 C798 1.419 . S
C797 C792 1.425 . S
C797 C794 1.409 . S
C797 C795 1.415 . S
C798 H788 0.930 . S
C798 C796 1.419 . S
C798 C799 1.362 . S
C799 H789 0.930 . S
C799 C792 1.409 . S
C799 C798 1.362 . S
H800 C806 0.930 . S
H801 C809 0.930 . S
H802 C810 0.930 . S
H803 C811 0.930 . S
H804 C814 0.930 . S
H805 C815 0.930 . S
C806 H800 0.930 . S
C806 C807 1.355 . S
C806 C808 1.415 . S
C807 C806 1.355 . S
C807 C809 1.419 . S
C808 C806 1.415 . S
C808 C813 1.425 . S
C808 C815 1.409 . S
C809 H801 0.930 . S
C809 C807 1.419 . S
C809 C810 1.362 . S
C810 H802 0.930 . S
C810 C809 1.362 . S
C810 C813 1.409 . S
C811 H803 0.930 . S
C811 C812 1.355 . S
C811 C813 1.415 . S
C812 C811 1.355 . S
C812 C814 1.419 . S
C813 C808 1.425 . S
C813 C810 1.409 . S
C813 C811 1.415 . S
C814 H804 0.930 . S
C814 C812 1.419 . S
C814 C815 1.362 . S
C815 H805 0.930 . S
C815 C808 1.409 . S
C815 C814 1.362 . S
H816 C822 0.930 . S
H817 C825 0.930 . S
H818 C826 0.930 . S
H819 C827 0.930 . S
H820 C830 0.930 . S
H821 C831 0.930 . S
C822 H816 0.930 . S
C822 C823 1.355 . S
C822 C824 1.415 . S
C823 C822 1.355 . S
C823 C825 1.419 . S
C824 C822 1.415 . S
C824 C829 1.425 . S
C824 C831 1.409 . S
C825 H817 0.930 . S
C825 C823 1.419 . S
C825 C826 1.362 . S
C826 H818 0.930 . S
C826 C825 1.362 . S
C826 C829 1.409 . S
C827 H819 0.930 . S
C827 C828 1.355 . S
C827 C829 1.415 . S
C828 C827 1.355 . S
C828 C830 1.419 . S
C829 C824 1.425 . S
C829 C826 1.409 . S
C829 C827 1.415 . S
C830 H820 0.930 . S
C830 C828 1.419 . S
C830 C831 1.362 . S
C831 H821 0.930 . S
C831 C824 1.409 . S
C831 C830 1.362 . S
H832 C838 0.930 . S
H833 C841 0.930 . S
H834 C842 0.930 . S
H835 C843 0.930 . S
H836 C846 0.930 . S
H837 C847 0.930 . S
C838 H832 0.930 . S
C838 C839 1.355 . S
C838 C840 1.415 . S
C839 C838 1.355 . S
C839 C841 1.419 . S
C840 C838 1.415 . S
C840 C845 1.425 . S
C840 C847 1.409 . S
C841 H833 0.930 . S
C841 C839 1.419 . S
C841 C842 1.362 . S
C842 H834 0.930 . S
C842 C841 1.362 . S
C842 C845 1.409 . S
C843 H835 0.930 . S
C843 C844 1.355 . S
C843 C845 1.415 . S
C844 C843 1.355 . S
C844 C846 1.419 . S
C845 C840 1.425 . S
C845 C842 1.409 . S
C845 C843 1.415 . S
C846 H836 0.930 . S
C846 C844 1.419 . S
C846 C847 1.362 . S
C847 H837 0.930 . S
C847 C840 1.409 . S
C847 C846 1.362 . S
H848 C854 0.930 . S
H849 C857 0.930 . S
H850 C858 0.930 . S
H851 C859 0.930 . S
H852 C862 0.930 . S
H853 C863 0.930 . S
C854 H848 0.930 . S
C854 C855 1.355 . S
C854 C856 1.415 . S
C855 C854 1.355 . S
C855 C857 1.419 . S
C856 C854 1.415 . S
C856 C861 1.425 . S
C856 C863 1.409 . S
C857 H849 0.930 . S
C857 C855 1.419 . S
C857 C858 1.362 . S
C858 H850 0.930 . S
C858 C857 1.362 . S
C858 C861 1.409 . S
C859 H851 0.930 . S
C859 C860 1.355 . S
C859 C861 1.415 . S
C860 C859 1.355 . S
C860 C862 1.419 . S
C861 C856 1.425 . S
C861 C858 1.409 . S
C861 C859 1.415 . S
C862 H852 0.930 . S
C862 C860 1.419 . S
C862 C863 1.362 . S
C863 H853 0.930 . S
C863 C856 1.409 . S
C863 C862 1.362 . S
H864 C870 0.930 . S
H865 C873 0.930 . S
H866 C874 0.930 . S
H867 C875 0.930 . S
H868 C878 0.930 . S
H869 C879 0.930 . S
C870 H864 0.930 . S
C870 C871 1.355 . S
C870 C872 1.415 . S
C871 C870 1.355 . S
C871 C873 1.419 . S
C872 C870 1.415 . S
C872 C877 1.425 . S
C872 C879 1.409 . S
C873 H865 0.930 . S
C873 C871 1.419 . S
C873 C874 1.362 . S
C874 H866 0.930 . S
C874 C873 1.362 . S
C874 C877 1.409 . S
C875 H867 0.930 . S
C875 C876 1.355 . S
C875 C877 1.415 . S
C876 C875 1.355 . S
C876 C878 1.419 . S
C877 C872 1.425 . S
C877 C874 1.409 . S
C877 C875 1.415 . S
C878 H868 0.930 . S
C878 C876 1.419 . S
C878 C879 1.362 . S
C879 H869 0.930 . S
C879 C872 1.409 . S
C879 C878 1.362 . S
H880 C886 0.930 . S
H881 C889 0.930 . S
H882 C890 0.930 . S
H883 C891 0.930 . S
H884 C894 0.930 . S
H885 C895 0.930 . S
C886 H880 0.930 . S
C886 C887 1.355 . S
C886 C888 1.415 . S
C887 C886 1.355 . S
C887 C889 1.419 . S
C888 C886 1.415 . S
C888 C893 1.425 . S
C888 C895 1.409 . S
C889 H881 0.930 . S
C889 C887 1.419 . S
C889 C890 1.362 . S
C890 H882 0.930 . S
C890 C889 1.362 . S
C890 C893 1.409 . S
C891 H883 0.930 . S
C891 C892 1.355 . S
C891 C893 1.415 . S
C892 C891 1.355 . S
C892 C894 1.419 . S
C893 C888 1.425 . S
C893 C890 1.409 . S
C893 C891 1.415 . S
C894 H884 0.930 . S
C894 C892 1.419 . S
C894 C895 1.362 . S
C895 H885 0.930 . S
C895 C888 1.409 . S
C895 C894 1.362 . S
H896 C902 0.930 . S
H897 C905 0.930 . S
H898 C906 0.930 . S
H899 C907 0.930 . S
H900 C910 0.930 . S
H901 C911 0.930 . S
C902 H896 0.930 . S
C902 C903 1.355 . S
C902 C904 1.415 . S
C903 C902 1.355 . S
C903 C905 1.419 . S
C904 C902 1.415 . S
C904 C909 1.425 . S
C904 C911 1.409 . S
C905 H897 0.930 . S
C905 C903 1.419 . S
C905 C906 1.362 . S
C906 H898 0.930 . S
C906 C905 1.362 . S
C906 C909 1.409 . S
C907 H899 0.930 . S
C907 C908 1.355 . S
C907 C909 1.415 . S
C908 C907 1.355 . S
C908 C910 1.419 . S
C909 C904 1.425 . S
C909 C906 1.409 . S
C909 C907 1.415 . S
C910 H900 0.930 . S
C910 C908 1.419 . S
C910 C911 1.362 . S
C911 H901 0.930 . S
C911 C904 1.409 . S
C911 C910 1.362 . S
H912 C918 0.930 . S
H913 C921 0.930 . S
H914 C922 0.930 . S
H915 C923 0.930 . S
H916 C926 0.930 . S
H917 C927 0.930 . S
C918 H912 0.930 . S
C918 C919 1.355 . S
C918 C920 1.415 . S
C919 C918 1.355 . S
C919 C921 1.419 . S
C920 C918 1.415 . S
C920 C925 1.425 . S
C920 C927 1.409 . S
C921 H913 0.930 . S
C921 C919 1.419 . S
C921 C922 1.362 . S
C922 H914 0.930 . S
C922 C921 1.362 . S
C922 C925 1.409 . S
C923 H915 0.930 . S
C923 C924 1.355 . S
C923 C925 1.415 . S
C924 C923 1.355 . S
C924 C926 1.419 . S
C925 C920 1.425 . S
C925 C922 1.409 . S
C925 C923 1.415 . S
C926 H916 0.930 . S
C926 C924 1.419 . S
C926 C927 1.362 . S
C927 H917 0.930 . S
C927 C920 1.409 . S
C927 C926 1.362 . S
H928 C934 0.930 . S
H929 C937 0.930 . S
H930 C938 0.930 . S
H931 C939 0.930 . S
H932 C942 0.930 . S
H933 C943 0.930 . S
C934 H928 0.930 . S
C934 C935 1.355 . S
C934 C936 1.415 . S
C935 C934 1.355 . S
C935 C937 1.419 . S
C936 C934 1.415 . S
C936 C941 1.425 . S
C936 C943 1.409 . S
C937 H929 0.930 . S
C937 C935 1.419 . S
C937 C938 1.362 . S
C938 H930 0.930 . S
C938 C937 1.362 . S
C938 C941 1.409 . S
C939 H931 0.930 . S
C939 C940 1.355 . S
C939 C941 1.415 . S
C940 C939 1.355 . S
C940 C942 1.419 . S
C941 C936 1.425 . S
C941 C938 1.409 . S
C941 C939 1.415 . S
C942 H932 0.930 . S
C942 C940 1.419 . S
C942 C943 1.362 . S
C943 H933 0.930 . S
C943 C936 1.409 . S
C943 C942 1.362 . S
H944 C950 0.930 . S
H945 C953 0.930 . S
H946 C954 0.930 . S
H947 C955 0.930 . S
H948 C958 0.930 . S
H949 C959 0.930 . S
C950 H944 0.930 . S
C950 C951 1.355 . S
C950 C952 1.415 . S
C951 C950 1.355 . S
C951 C953 1.419 . S
C952 C950 1.415 . S
C952 C957 1.425 . S
C952 C959 1.409 . S
C953 H945 0.930 . S
C953 C951 1.419 . S
C953 C954 1.362 . S
C954 H946 0.930 . S
C954 C953 1.362 . S
C954 C957 1.409 . S
C955 H947 0.930 . S
C955 C956 1.355 . S
C955 C957 1.415 . S
C956 C955 1.355 . S
C956 C958 1.419 . S
C957 C952 1.425 . S
C957 C954 1.409 . S
C957 C955 1.415 . S
C958 H948 0.930 . S
C958 C956 1.419 . S
C958 C959 1.362 . S
C959 H949 0.930 . S
C959 C952 1.409 . S
C959 C958 1.362 . S
H960 C966 0.930 . S
H961 C969 0.930 . S
H962 C970 0.930 . S
H963 C971 0.930 . S
H964 C974 0.930 . S
H965 C975 0.930 . S
C966 H960 0.930 . S
C966 C967 1.355 . S
C966 C968 1.415 . S
C967 C966 1.355 . S
C967 C969 1.419 . S
C968 C966 1.415 . S
C968 C973 1.425 . S
C968 C975 1.409 . S
C969 H961 0.930 . S
C969 C967 1.419 . S
C969 C970 1.362 . S
C970 H962 0.930 . S
C970 C969 1.362 . S
C970 C973 1.409 . S
C971 H963 0.930 . S
C971 C972 1.355 . S
C971 C973 1.415 . S
C972 C971 1.355 . S
C972 C974 1.419 . S
C973 C968 1.425 . S
C973 C970 1.409 . S
C973 C971 1.415 . S
C974 H964 0.930 . S
C974 C972 1.419 . S
C974 C975 1.362 . S
C975 H965 0.930 . S
C975 C968 1.409 . S
C975 C974 1.362 . S
H976 C982 0.930 . S
H977 C985 0.930 . S
H978 C986 0.930 . S
H979 C987 0.930 . S
H980 C990 0.930 . S
H981 C991 0.930 . S
C982 H976 0.930 . S
C982 C983 1.355 . S
C982 C984 1.415 . S
C983 C982 1.355 . S
C983 C985 1.419 . S
C984 C982 1.415 . S
C984 C989 1.425 . S
C984 C991 1.409 . S
C985 H977 0.930 . S
C985 C983 1.419 . S
C985 C986 1.362 . S
C986 H978 0.930 . S
C986 C985 1.362 . S
C986 C989 1.409 . S
C987 H979 0.930 . S
C987 C988 1.355 . S
C987 C989 1.415 . S
C988 C987 1.355 . S
C988 C990 1.419 . S
C989 C984 1.425 . S
C989 C986 1.409 . S
C989 C987 1.415 . S
C990 H980 0.930 . S
C990 C988 1.419 . S
C990 C991 1.362 . S
C991 H981 0.930 . S
C991 C984 1.409 . S
C991 C990 1.362 . S
H992 C998 0.930 . S
H993 C1001 0.930 . S
H994 C1002 0.930 . S
H995 C1003 0.930 . S
H996 C1006 0.930 . S
H997 C1007 0.930 . S
C998 H992 0.930 . S
C998 C999 1.355 . S
C998 C1000 1.415 . S
C999 C998 1.355 . S
C999 C1001 1.419 . S
C1000 C998 1.415 . S
C1000 C1005 1.425 . S
C1000 C1007 1.409 . S
C1001 H993 0.930 . S
C1001 C999 1.419 . S
C1001 C1002 1.362 . S
C1002 H994 0.930 . S
C1002 C1001 1.362 . S
C1002 C1005 1.409 . S
C1003 H995 0.930 . S
C1003 C1004 1.355 . S
C1003 C1005 1.415 . S
C1004 C1003 1.355 . S
C1004 C1006 1.419 . S
C1005 C1000 1.425 . S
C1005 C1002 1.409 . S
C1005 C1003 1.415 . S
C1006 H996 0.930 . S
C1006 C1004 1.419 . S
C1006 C1007 1.362 . S
C1007 H997 0.930 . S
C1007 C1000 1.409 . S
C1007 C1006 1.362 . S
H1008 C1014 0.930 . S
H1009 C1017 0.930 . S
H1010 C1018 0.930 . S
H1011 C1019 0.930 . S
H1012 C1022 0.930 . S
H1013 C1023 0.930 . S
C1014 H1008 0.930 . S
C1014 C1015 1.355 . S
C1014 C1016 1.415 . S
C1015 C1014 1.355 . S
C1015 C1017 1.419 . S
C1016 C1014 1.415 . S
C1016 C1021 1.425 . S
C1016 C1023 1.409 . S
C1017 H1009 0.930 . S
C1017 C1015 1.419 . S
C1017 C1018 1.362 . S
C1018 H1010 0.930 . S
C1018 C1017 1.362 . S
C1018 C1021 1.409 . S
C1019 H1011 0.930 . S
C1019 C1020 1.355 . S
C1019 C1021 1.415 . S
C1020 C1019 1.355 . S
C1020 C1022 1.419 . S
C1021 C1016 1.425 . S
C1021 C1018 1.409 . S
C1021 C1019 1.415 . S
C1022 H1012 0.930 . S
C1022 C1020 1.419 . S
C1022 C1023 1.362 . S
C1023 H1013 0.930 . S
C1023 C1016 1.409 . S
C1023 C1022 1.362 . S
H1024 C1030 0.930 . S
H1025 C1033 0.930 . S
H1026 C1034 0.930 . S
H1027 C1035 0.930 . S
H1028 C1038 0.930 . S
H1029 C1039 0.930 . S
C1030 H1024 0.930 . S
C1030 C1031 1.355 . S
C1030 C1032 1.415 1_556 S
C1031 C1030 1.355 . S
C1031 C1033 1.419 . S
C1032 C1030 1.415 1_554 S
C1032 C1037 1.425 . S
C1032 C1039 1.409 . S
C1033 H1025 0.930 . S
C1033 C1031 1.419 . S
C1033 C1034 1.362 1_556 S
C1034 H1026 0.930 . S
C1034 C1033 1.362 1_554 S
C1034 C1037 1.409 . S
C1035 H1027 0.930 . S
C1035 C1036 1.355 . S
C1035 C1037 1.415 . S
C1036 C1035 1.355 . S
C1036 C1038 1.419 . S
C1037 C1032 1.425 . S
C1037 C1034 1.409 . S
C1037 C1035 1.415 . S
C1038 H1028 0.930 . S
C1038 C1036 1.419 . S
C1038 C1039 1.362 . S
C1039 H1029 0.930 . S
C1039 C1032 1.409 . S
C1039 C1038 1.362 . S
H1040 C1046 0.930 . S
H1041 C1049 0.930 . S
H1042 C1050 0.930 . S
H1043 C1051 0.930 . S
H1044 C1054 0.930 . S
H1045 C1055 0.930 . S
C1046 H1040 0.930 . S
C1046 C1047 1.355 . S
C1046 C1048 1.415 . S
C1047 C1046 1.355 . S
C1047 C1049 1.419 . S
C1048 C1046 1.415 . S
C1048 C1053 1.425 . S
C1048 C1055 1.409 . S
C1049 H1041 0.930 . S
C1049 C1047 1.419 . S
C1049 C1050 1.362 . S
C1050 H1042 0.930 . S
C1050 C1049 1.362 . S
C1050 C1053 1.409 . S
C1051 H1043 0.930 . S
C1051 C1052 1.355 . S
C1051 C1053 1.415 . S
C1052 C1051 1.355 . S
C1052 C1054 1.419 . S
C1053 C1048 1.425 . S
C1053 C1050 1.409 . S
C1053 C1051 1.415 . S
C1054 H1044 0.930 . S
C1054 C1052 1.419 . S
C1054 C1055 1.362 . S
C1055 H1045 0.930 . S
C1055 C1048 1.409 . S
C1055 C1054 1.362 . S
H1056 C1062 0.930 . S
H1057 C1065 0.930 . S
H1058 C1066 0.930 . S
H1059 C1067 0.930 . S
H1060 C1070 0.930 . S
H1061 C1071 0.930 . S
C1062 H1056 0.930 . S
C1062 C1063 1.355 . S
C1062 C1064 1.415 1_556 S
C1063 C1062 1.355 . S
C1063 C1065 1.419 . S
C1064 C1062 1.415 1_554 S
C1064 C1069 1.425 . S
C1064 C1071 1.409 . S
C1065 H1057 0.930 . S
C1065 C1063 1.419 . S
C1065 C1066 1.362 1_556 S
C1066 H1058 0.930 . S
C1066 C1065 1.362 1_554 S
C1066 C1069 1.409 . S
C1067 H1059 0.930 . S
C1067 C1068 1.355 . S
C1067 C1069 1.415 . S
C1068 C1067 1.355 . S
C1068 C1070 1.419 . S
C1069 C1064 1.425 . S
C1069 C1066 1.409 . S
C1069 C1067 1.415 . S
C1070 H1060 0.930 . S
C1070 C1068 1.419 . S
C1070 C1071 1.362 . S
C1071 H1061 0.930 . S
C1071 C1064 1.409 . S
C1071 C1070 1.362 . S
H1072 C1078 0.930 . S
H1073 C1081 0.930 . S
H1074 C1082 0.930 . S
H1075 C1083 0.930 . S
H1076 C1086 0.930 . S
H1077 C1087 0.930 . S
C1078 H1072 0.930 . S
C1078 C1079 1.355 . S
C1078 C1080 1.415 . S
C1079 C1078 1.355 . S
C1079 C1081 1.419 . S
C1080 C1078 1.415 . S
C1080 C1085 1.425 . S
C1080 C1087 1.409 . S
C1081 H1073 0.930 . S
C1081 C1079 1.419 . S
C1081 C1082 1.362 . S
C1082 H1074 0.930 . S
C1082 C1081 1.362 . S
C1082 C1085 1.409 . S
C1083 H1075 0.930 . S
C1083 C1084 1.355 . S
C1083 C1085 1.415 . S
C1084 C1083 1.355 . S
C1084 C1086 1.419 . S
C1085 C1080 1.425 . S
C1085 C1082 1.409 . S
C1085 C1083 1.415 . S
C1086 H1076 0.930 . S
C1086 C1084 1.419 . S
C1086 C1087 1.362 . S
C1087 H1077 0.930 . S
C1087 C1080 1.409 . S
C1087 C1086 1.362 . S
H1088 C1094 0.930 . S
H1089 C1097 0.930 . S
H1090 C1098 0.930 . S
H1091 C1099 0.930 . S
H1092 C1102 0.930 . S
H1093 C1103 0.930 . S
C1094 H1088 0.930 . S
C1094 C1095 1.355 . S
C1094 C1096 1.415 . S
C1095 C1094 1.355 . S
C1095 C1097 1.419 . S
C1096 C1094 1.415 . S
C1096 C1101 1.425 . S
C1096 C1103 1.409 . S
C1097 H1089 0.930 . S
C1097 C1095 1.419 . S
C1097 C1098 1.362 . S
C1098 H1090 0.930 . S
C1098 C1097 1.362 . S
C1098 C1101 1.409 . S
C1099 H1091 0.930 . S
C1099 C1100 1.355 . S
C1099 C1101 1.415 1_554 S
C1100 C1099 1.355 . S
C1100 C1102 1.419 . S
C1101 C1096 1.425 . S
C1101 C1098 1.409 . S
C1101 C1099 1.415 1_556 S
C1102 H1092 0.930 . S
C1102 C1100 1.419 . S
C1102 C1103 1.362 1_554 S
C1103 H1093 0.930 . S
C1103 C1096 1.409 . S
C1103 C1102 1.362 1_556 S
H1104 C1110 0.930 . S
H1105 C1113 0.930 . S
H1106 C1114 0.930 . S
H1107 C1115 0.930 . S
H1108 C1118 0.930 . S
H1109 C1119 0.930 . S
C1110 H1104 0.930 . S
C1110 C1111 1.355 . S
C1110 C1112 1.415 . S
C1111 C1110 1.355 . S
C1111 C1113 1.419 . S
C1112 C1110 1.415 . S
C1112 C1117 1.425 . S
C1112 C1119 1.409 . S
C1113 H1105 0.930 . S
C1113 C1111 1.419 . S
C1113 C1114 1.362 . S
C1114 H1106 0.930 . S
C1114 C1113 1.362 . S
C1114 C1117 1.409 . S
C1115 H1107 0.930 . S
C1115 C1116 1.355 . S
C1115 C1117 1.415 . S
C1116 C1115 1.355 . S
C1116 C1118 1.419 . S
C1117 C1112 1.425 . S
C1117 C1114 1.409 . S
C1117 C1115 1.415 . S
C1118 H1108 0.930 . S
C1118 C1116 1.419 . S
C1118 C1119 1.362 . S
C1119 H1109 0.930 . S
C1119 C1112 1.409 . S
C1119 C1118 1.362 . S
H1120 C1126 0.930 . S
H1121 C1129 0.930 . S
H1122 C1130 0.930 . S
H1123 C1131 0.930 . S
H1124 C1134 0.930 . S
H1125 C1135 0.930 . S
C1126 H1120 0.930 . S
C1126 C1127 1.355 . S
C1126 C1128 1.415 . S
C1127 C1126 1.355 . S
C1127 C1129 1.419 . S
C1128 C1126 1.415 . S
C1128 C1133 1.425 . S
C1128 C1135 1.409 . S
C1129 H1121 0.930 . S
C1129 C1127 1.419 . S
C1129 C1130 1.362 . S
C1130 H1122 0.930 . S
C1130 C1129 1.362 . S
C1130 C1133 1.409 . S
C1131 H1123 0.930 . S
C1131 C1132 1.355 . S
C1131 C1133 1.415 1_554 S
C1132 C1131 1.355 . S
C1132 C1134 1.419 . S
C1133 C1128 1.425 . S
C1133 C1130 1.409 . S
C1133 C1131 1.415 1_556 S
C1134 H1124 0.930 . S
C1134 C1132 1.419 . S
C1134 C1135 1.362 1_554 S
C1135 H1125 0.930 . S
C1135 C1128 1.409 . S
C1135 C1134 1.362 1_556 S
H1136 C1142 0.930 . S
H1137 C1145 0.930 . S
H1138 C1146 0.930 . S
H1139 C1147 0.930 . S
H1140 C1150 0.930 . S
H1141 C1151 0.930 . S
C1142 H1136 0.930 . S
C1142 C1143 1.355 . S
C1142 C1144 1.415 . S
C1143 C1142 1.355 . S
C1143 C1145 1.419 . S
C1144 C1142 1.415 . S
C1144 C1149 1.425 . S
C1144 C1151 1.409 . S
C1145 H1137 0.930 . S
C1145 C1143 1.419 . S
C1145 C1146 1.362 . S
C1146 H1138 0.930 . S
C1146 C1145 1.362 . S
C1146 C1149 1.409 . S
C1147 H1139 0.930 . S
C1147 C1148 1.355 . S
C1147 C1149 1.415 . S
C1148 C1147 1.355 . S
C1148 C1150 1.419 . S
C1149 C1144 1.425 . S
C1149 C1146 1.409 . S
C1149 C1147 1.415 . S
C1150 H1140 0.930 . S
C1150 C1148 1.419 . S
C1150 C1151 1.362 . S
C1151 H1141 0.930 . S
C1151 C1144 1.409 . S
C1151 C1150 1.362 . S
H1152 C1158 0.930 . S
H1153 C1161 0.930 . S
H1154 C1162 0.930 . S
H1155 C1163 0.930 . S
H1156 C1166 0.930 . S
H1157 C1167 0.930 . S
C1158 H1152 0.930 . S
C1158 C1159 1.355 . S
C1158 C1160 1.415 1_565 S
C1159 C1158 1.355 . S
C1159 C1161 1.419 . S
C1160 C1158 1.415 1_545 S
C1160 C1165 1.425 . S
C1160 C1167 1.409 . S
C1161 H1153 0.930 . S
C1161 C1159 1.419 . S
C1161 C1162 1.362 1_565 S
C1162 H1154 0.930 . S
C1162 C1161 1.362 1_545 S
C1162 C1165 1.409 . S
C1163 H1155 0.930 . S
C1163 C1164 1.355 . S
C1163 C1165 1.415 . S
C1164 C1163 1.355 . S
C1164 C1166 1.419 . S
C1165 C1160 1.425 . S
C1165 C1162 1.409 . S
C1165 C1163 1.415 . S
C1166 H1156 0.930 . S
C1166 C1164 1.419 . S
C1166 C1167 1.362 . S
C1167 H1157 0.930 . S
C1167 C1160 1.409 . S
C1167 C1166 1.362 . S
H1168 C1174 0.930 . S
H1169 C1177 0.930 . S
H1170 C1178 0.930 . S
H1171 C1179 0.930 . S
H1172 C1182 0.930 . S
H1173 C1183 0.930 . S
C1174 H1168 0.930 . S
C1174 C1175 1.355 . S
C1174 C1176 1.415 . S
C1175 C1174 1.355 . S
C1175 C1177 1.419 . S
C1176 C1174 1.415 . S
C1176 C1181 1.425 . S
C1176 C1183 1.409 . S
C1177 H1169 0.930 . S
C1177 C1175 1.419 . S
C1177 C1178 1.362 . S
C1178 H1170 0.930 . S
C1178 C1177 1.362 . S
C1178 C1181 1.409 . S
C1179 H1171 0.930 . S
C1179 C1180 1.355 . S
C1179 C1181 1.415 . S
C1180 C1179 1.355 . S
C1180 C1182 1.419 . S
C1181 C1176 1.425 . S
C1181 C1178 1.409 . S
C1181 C1179 1.415 . S
C1182 H1172 0.930 . S
C1182 C1180 1.419 . S
C1182 C1183 1.362 . S
C1183 H1173 0.930 . S
C1183 C1176 1.409 . S
C1183 C1182 1.362 . S
H1184 C1190 0.930 . S
H1185 C1193 0.930 . S
H1186 C1194 0.930 . S
H1187 C1195 0.930 . S
H1188 C1198 0.930 . S
H1189 C1199 0.930 . S
C1190 H1184 0.930 . S
C1190 C1191 1.355 . S
C1190 C1192 1.415 1_545 S
C1191 C1190 1.355 . S
C1191 C1193 1.419 . S
C1192 C1190 1.415 1_565 S
C1192 C1197 1.425 . S
C1192 C1199 1.409 . S
C1193 H1185 0.930 . S
C1193 C1191 1.419 . S
C1193 C1194 1.362 1_545 S
C1194 H1186 0.930 . S
C1194 C1193 1.362 1_565 S
C1194 C1197 1.409 . S
C1195 H1187 0.930 . S
C1195 C1196 1.355 . S
C1195 C1197 1.415 . S
C1196 C1195 1.355 . S
C1196 C1198 1.419 . S
C1197 C1192 1.425 . S
C1197 C1194 1.409 . S
C1197 C1195 1.415 . S
C1198 H1188 0.930 . S
C1198 C1196 1.419 . S
C1198 C1199 1.362 . S
C1199 H1189 0.930 . S
C1199 C1192 1.409 . S
C1199 C1198 1.362 . S
H1200 C1206 0.930 . S
H1201 C1209 0.930 . S
H1202 C1210 0.930 . S
H1203 C1211 0.930 . S
H1204 C1214 0.930 . S
H1205 C1215 0.930 . S
C1206 H1200 0.930 . S
C1206 C1207 1.355 . S
C1206 C1208 1.415 . S
C1207 C1206 1.355 . S
C1207 C1209 1.419 . S
C1208 C1206 1.415 . S
C1208 C1213 1.425 . S
C1208 C1215 1.409 . S
C1209 H1201 0.930 . S
C1209 C1207 1.419 . S
C1209 C1210 1.362 . S
C1210 H1202 0.930 . S
C1210 C1209 1.362 . S
C1210 C1213 1.409 . S
C1211 H1203 0.930 . S
C1211 C1212 1.355 . S
C1211 C1213 1.415 . S
C1212 C1211 1.355 . S
C1212 C1214 1.419 . S
C1213 C1208 1.425 . S
C1213 C1210 1.409 . S
C1213 C1211 1.415 . S
C1214 H1204 0.930 . S
C1214 C1212 1.419 . S
C1214 C1215 1.362 . S
C1215 H1205 0.930 . S
C1215 C1208 1.409 . S
C1215 C1214 1.362 . S
H1216 C1222 0.930 . S
H1217 C1225 0.930 . S
H1218 C1226 0.930 . S
H1219 C1227 0.930 . S
H1220 C1230 0.930 . S
H1221 C1231 0.930 . S
C1222 H1216 0.930 . S
C1222 C1223 1.355 . S
C1222 C1224 1.415 1_565 S
C1223 C1222 1.355 . S
C1223 C1225 1.419 . S
C1224 C1222 1.415 1_545 S
C1224 C1229 1.425 . S
C1224 C1231 1.409 . S
C1225 H1217 0.930 . S
C1225 C1223 1.419 . S
C1225 C1226 1.362 1_565 S
C1226 H1218 0.930 . S
C1226 C1225 1.362 1_545 S
C1226 C1229 1.409 . S
C1227 H1219 0.930 . S
C1227 C1228 1.355 . S
C1227 C1229 1.415 . S
C1228 C1227 1.355 . S
C1228 C1230 1.419 . S
C1229 C1224 1.425 . S
C1229 C1226 1.409 . S
C1229 C1227 1.415 . S
C1230 H1220 0.930 . S
C1230 C1228 1.419 . S
C1230 C1231 1.362 . S
C1231 H1221 0.930 . S
C1231 C1224 1.409 . S
C1231 C1230 1.362 . S
H1232 C1238 0.930 . S
H1233 C1241 0.930 . S
H1234 C1242 0.930 . S
H1235 C1243 0.930 . S
H1236 C1246 0.930 . S
H1237 C1247 0.930 . S
C1238 H1232 0.930 . S
C1238 C1239 1.355 . S
C1238 C1240 1.415 . S
C1239 C1238 1.355 . S
C1239 C1241 1.419 . S
C1240 C1238 1.415 . S
C1240 C1245 1.425 . S
C1240 C1247 1.409 . S
C1241 H1233 0.930 . S
C1241 C1239 1.419 . S
C1241 C1242 1.362 . S
C1242 H1234 0.930 . S
C1242 C1241 1.362 . S
C1242 C1245 1.409 . S
C1243 H1235 0.930 . S
C1243 C1244 1.355 . S
C1243 C1245 1.415 . S
C1244 C1243 1.355 . S
C1244 C1246 1.419 . S
C1245 C1240 1.425 . S
C1245 C1242 1.409 . S
C1245 C1243 1.415 . S
C1246 H1236 0.930 . S
C1246 C1244 1.419 . S
C1246 C1247 1.362 . S
C1247 H1237 0.930 . S
C1247 C1240 1.409 . S
C1247 C1246 1.362 . S
H1248 C1254 0.930 . S
H1249 C1257 0.930 . S
H1250 C1258 0.930 . S
H1251 C1259 0.930 . S
H1252 C1262 0.930 . S
H1253 C1263 0.930 . S
C1254 H1248 0.930 . S
C1254 C1255 1.355 . S
C1254 C1256 1.415 . S
C1255 C1254 1.355 . S
C1255 C1257 1.419 . S
C1256 C1254 1.415 . S
C1256 C1261 1.425 . S
C1256 C1263 1.409 . S
C1257 H1249 0.930 . S
C1257 C1255 1.419 . S
C1257 C1258 1.362 . S
C1258 H1250 0.930 . S
C1258 C1257 1.362 . S
C1258 C1261 1.409 . S
C1259 H1251 0.930 . S
C1259 C1260 1.355 . S
C1259 C1261 1.415 1_545 S
C1260 C1259 1.355 . S
C1260 C1262 1.419 . S
C1261 C1256 1.425 . S
C1261 C1258 1.409 . S
C1261 C1259 1.415 1_565 S
C1262 H1252 0.930 . S
C1262 C1260 1.419 . S
C1262 C1263 1.362 1_545 S
C1263 H1253 0.930 . S
C1263 C1256 1.409 . S
C1263 C1262 1.362 1_565 S
H1264 C1270 0.930 . S
H1265 C1273 0.930 . S
H1266 C1274 0.930 . S
H1267 C1275 0.930 . S
H1268 C1278 0.930 . S
H1269 C1279 0.930 . S
C1270 H1264 0.930 . S
C1270 C1271 1.355 . S
C1270 C1272 1.415 . S
C1271 C1270 1.355 . S
C1271 C1273 1.419 . S
C1272 C1270 1.415 . S
C1272 C1277 1.425 . S
C1272 C1279 1.409 . S
C1273 H1265 0.930 . S
C1273 C1271 1.419 . S
C1273 C1274 1.362 . S
C1274 H1266 0.930 . S
C1274 C1273 1.362 . S
C1274 C1277 1.409 . S
C1275 H1267 0.930 . S
C1275 C1276 1.355 . S
C1275 C1277 1.415 . S
C1276 C1275 1.355 . S
C1276 C1278 1.419 . S
C1277 C1272 1.425 . S
C1277 C1274 1.409 . S
C1277 C1275 1.415 . S
C1278 H1268 0.930 . S
C1278 C1276 1.419 . S
C1278 C1279 1.362 . S
C1279 H1269 0.930 . S
C1279 C1272 1.409 . S
C1279 C1278 1.362 . S
H1280 C1286 0.930 . S
H1281 C1289 0.930 . S
H1282 C1290 0.930 . S
H1283 C1291 0.930 . S
H1284 C1294 0.930 . S
H1285 C1295 0.930 . S
C1286 H1280 0.930 . S
C1286 C1287 1.355 . S
C1286 C1288 1.415 . S
C1287 C1286 1.355 . S
C1287 C1289 1.419 . S
C1288 C1286 1.415 . S
C1288 C1293 1.425 . S
C1288 C1295 1.409 . S
C1289 H1281 0.930 . S
C1289 C1287 1.419 . S
C1289 C1290 1.362 . S
C1290 H1282 0.930 . S
C1290 C1289 1.362 . S
C1290 C1293 1.409 . S
C1291 H1283 0.930 . S
C1291 C1292 1.355 . S
C1291 C1293 1.415 . S
C1292 C1291 1.355 . S
C1292 C1294 1.419 . S
C1293 C1288 1.425 . S
C1293 C1290 1.409 . S
C1293 C1291 1.415 . S
C1294 H1284 0.930 . S
C1294 C1292 1.419 . S
C1294 C1295 1.362 . S
C1295 H1285 0.930 . S
C1295 C1288 1.409 . S
C1295 C1294 1.362 . S
H1296 C1302 0.930 . S
H1297 C1305 0.930 . S
H1298 C1306 0.930 . S
H1299 C1307 0.930 . S
H1300 C1310 0.930 . S
H1301 C1311 0.930 . S
C1302 H1296 0.930 . S
C1302 C1303 1.355 . S
C1302 C1304 1.415 . S
C1303 C1302 1.355 . S
C1303 C1305 1.419 . S
C1304 C1302 1.415 . S
C1304 C1309 1.425 . S
C1304 C1311 1.409 . S
C1305 H1297 0.930 . S
C1305 C1303 1.419 . S
C1305 C1306 1.362 . S
C1306 H1298 0.930 . S
C1306 C1305 1.362 . S
C1306 C1309 1.409 . S
C1307 H1299 0.930 . S
C1307 C1308 1.355 . S
C1307 C1309 1.415 1_655 S
C1308 C1307 1.355 . S
C1308 C1310 1.419 . S
C1309 C1304 1.425 . S
C1309 C1306 1.409 . S
C1309 C1307 1.415 1_455 S
C1310 H1300 0.930 . S
C1310 C1308 1.419 . S
C1310 C1311 1.362 1_655 S
C1311 H1301 0.930 . S
C1311 C1304 1.409 . S
C1311 C1310 1.362 1_455 S
H1312 C1318 0.930 . S
H1313 C1321 0.930 . S
H1314 C1322 0.930 . S
H1315 C1323 0.930 . S
H1316 C1326 0.930 . S
H1317 C1327 0.930 . S
C1318 H1312 0.930 . S
C1318 C1319 1.355 . S
C1318 C1320 1.415 . S
C1319 C1318 1.355 . S
C1319 C1321 1.419 . S
C1320 C1318 1.415 . S
C1320 C1325 1.425 . S
C1320 C1327 1.409 . S
C1321 H1313 0.930 . S
C1321 C1319 1.419 . S
C1321 C1322 1.362 . S
C1322 H1314 0.930 . S
C1322 C1321 1.362 . S
C1322 C1325 1.409 . S
C1323 H1315 0.930 . S
C1323 C1324 1.355 . S
C1323 C1325 1.415 . S
C1324 C1323 1.355 . S
C1324 C1326 1.419 . S
C1325 C1320 1.425 . S
C1325 C1322 1.409 . S
C1325 C1323 1.415 . S
C1326 H1316 0.930 . S
C1326 C1324 1.419 . S
C1326 C1327 1.362 . S
C1327 H1317 0.930 . S
C1327 C1320 1.409 . S
C1327 C1326 1.362 . S
H1328 C1334 0.930 . S
H1329 C1337 0.930 . S
H1330 C1338 0.930 . S
H1331 C1339 0.930 . S
H1332 C1342 0.930 . S
H1333 C1343 0.930 . S
C1334 H1328 0.930 . S
C1334 C1335 1.355 . S
C1334 C1336 1.415 1_455 S
C1335 C1334 1.355 . S
C1335 C1337 1.419 . S
C1336 C1334 1.415 1_655 S
C1336 C1341 1.425 . S
C1336 C1343 1.409 . S
C1337 H1329 0.930 . S
C1337 C1335 1.419 . S
C1337 C1338 1.362 1_455 S
C1338 H1330 0.930 . S
C1338 C1337 1.362 1_655 S
C1338 C1341 1.409 . S
C1339 H1331 0.930 . S
C1339 C1340 1.355 . S
C1339 C1341 1.415 . S
C1340 C1339 1.355 . S
C1340 C1342 1.419 . S
C1341 C1336 1.425 . S
C1341 C1338 1.409 . S
C1341 C1339 1.415 . S
C1342 H1332 0.930 . S
C1342 C1340 1.419 . S
C1342 C1343 1.362 . S
C1343 H1333 0.930 . S
C1343 C1336 1.409 . S
C1343 C1342 1.362 . S
H1344 C1350 0.930 . S
H1345 C1353 0.930 . S
H1346 C1354 0.930 . S
H1347 C1355 0.930 . S
H1348 C1358 0.930 . S
H1349 C1359 0.930 . S
C1350 H1344 0.930 . S
C1350 C1351 1.355 . S
C1350 C1352 1.415 . S
C1351 C1350 1.355 . S
C1351 C1353 1.419 . S
C1352 C1350 1.415 . S
C1352 C1357 1.425 . S
C1352 C1359 1.409 . S
C1353 H1345 0.930 . S
C1353 C1351 1.419 . S
C1353 C1354 1.362 . S
C1354 H1346 0.930 . S
C1354 C1353 1.362 . S
C1354 C1357 1.409 . S
C1355 H1347 0.930 . S
C1355 C1356 1.355 . S
C1355 C1357 1.415 . S
C1356 C1355 1.355 . S
C1356 C1358 1.419 . S
C1357 C1352 1.425 . S
C1357 C1354 1.409 . S
C1357 C1355 1.415 . S
C1358 H1348 0.930 . S
C1358 C1356 1.419 . S
C1358 C1359 1.362 . S
C1359 H1349 0.930 . S
C1359 C1352 1.409 . S
C1359 C1358 1.362 . S
H1360 C1366 0.930 . S
H1361 C1369 0.930 . S
H1362 C1370 0.930 . S
H1363 C1371 0.930 . S
H1364 C1374 0.930 . S
H1365 C1375 0.930 . S
C1366 H1360 0.930 . S
C1366 C1367 1.355 . S
C1366 C1368 1.415 1_655 S
C1367 C1366 1.355 . S
C1367 C1369 1.419 . S
C1368 C1366 1.415 1_455 S
C1368 C1373 1.425 . S
C1368 C1375 1.409 . S
C1369 H1361 0.930 . S
C1369 C1367 1.419 . S
C1369 C1370 1.362 1_655 S
C1370 H1362 0.930 . S
C1370 C1369 1.362 1_455 S
C1370 C1373 1.409 . S
C1371 H1363 0.930 . S
C1371 C1372 1.355 . S
C1371 C1373 1.415 . S
C1372 C1371 1.355 . S
C1372 C1374 1.419 . S
C1373 C1368 1.425 . S
C1373 C1370 1.409 . S
C1373 C1371 1.415 . S
C1374 H1364 0.930 . S
C1374 C1372 1.419 . S
C1374 C1375 1.362 . S
C1375 H1365 0.930 . S
C1375 C1368 1.409 . S
C1375 C1374 1.362 . S
H1376 C1382 0.930 . S
H1377 C1385 0.930 . S
H1378 C1386 0.930 . S
H1379 C1387 0.930 . S
H1380 C1390 0.930 . S
H1381 C1391 0.930 . S
C1382 H1376 0.930 . S
C1382 C1383 1.355 . S
C1382 C1384 1.415 1_455 S
C1383 C1382 1.355 . S
C1383 C1385 1.419 . S
C1384 C1382 1.415 1_655 S
C1384 C1389 1.425 . S
C1384 C1391 1.409 . S
C1385 H1377 0.930 . S
C1385 C1383 1.419 . S
C1385 C1386 1.362 1_455 S
C1386 H1378 0.930 . S
C1386 C1385 1.362 1_655 S
C1386 C1389 1.409 . S
C1387 H1379 0.930 . S
C1387 C1388 1.355 . S
C1387 C1389 1.415 . S
C1388 C1387 1.355 . S
C1388 C1390 1.419 . S
C1389 C1384 1.425 . S
C1389 C1386 1.409 . S
C1389 C1387 1.415 . S
C1390 H1380 0.930 . S
C1390 C1388 1.419 . S
C1390 C1391 1.362 . S
C1391 H1381 0.930 . S
C1391 C1384 1.409 . S
C1391 C1390 1.362 . S
H1392 C1398 0.930 . S
H1393 C1401 0.930 . S
H1394 C1402 0.930 . S
H1395 C1403 0.930 . S
H1396 C1406 0.930 . S
H1397 C1407 0.930 1_655 S
C1398 H1392 0.930 . S
C1398 C1399 1.355 . S
C1398 C1400 1.415 . S
C1399 C1398 1.355 . S
C1399 C1401 1.419 . S
C1400 C1398 1.415 . S
C1400 C1405 1.425 1_655 S
C1400 C1407 1.409 1_655 S
C1401 H1393 0.930 . S
C1401 C1399 1.419 . S
C1401 C1402 1.362 . S
C1402 H1394 0.930 . S
C1402 C1401 1.362 . S
C1402 C1405 1.409 1_655 S
C1403 H1395 0.930 . S
C1403 C1404 1.355 . S
C1403 C1405 1.415 . S
C1404 C1403 1.355 . S
C1404 C1406 1.419 . S
C1405 C1400 1.425 1_455 S
C1405 C1402 1.409 1_455 S
C1405 C1403 1.415 . S
C1406 H1396 0.930 . S
C1406 C1404 1.419 . S
C1406 C1407 1.362 . S
C1407 H1397 0.930 1_455 S
C1407 C1400 1.409 1_455 S
C1407 C1406 1.362 . S
H1408 C1414 0.930 . S
H1409 C1417 0.930 . S
H1410 C1418 0.930 . S
H1411 C1419 0.930 . S
H1412 C1422 0.930 . S
H1413 C1423 0.930 . S
C1414 H1408 0.930 . S
C1414 C1415 1.355 . S
C1414 C1416 1.415 . S
C1415 C1414 1.355 . S
C1415 C1417 1.419 . S
C1416 C1414 1.415 . S
C1416 C1421 1.425 . S
C1416 C1423 1.409 . S
C1417 H1409 0.930 . S
C1417 C1415 1.419 . S
C1417 C1418 1.362 . S
C1418 H1410 0.930 . S
C1418 C1417 1.362 . S
C1418 C1421 1.409 . S
C1419 H1411 0.930 . S
C1419 C1420 1.355 . S
C1419 C1421 1.415 . S
C1420 C1419 1.355 . S
C1420 C1422 1.419 . S
C1421 C1416 1.425 . S
C1421 C1418 1.409 . S
C1421 C1419 1.415 . S
C1422 H1412 0.930 . S
C1422 C1420 1.419 . S
C1422 C1423 1.362 . S
C1423 H1413 0.930 . S
C1423 C1416 1.409 . S
C1423 C1422 1.362 . S
H1424 C1430 0.930 . S
H1425 C1433 0.930 . S
H1426 C1434 0.930 . S
H1427 C1435 0.930 . S
H1428 C1438 0.930 . S
H1429 C1439 0.930 1_455 S
C1430 H1424 0.930 . S
C1430 C1431 1.355 . S
C1430 C1432 1.415 . S
C1431 C1430 1.355 . S
C1431 C1433 1.419 . S
C1432 C1430 1.415 . S
C1432 C1437 1.425 1_455 S
C1432 C1439 1.409 1_455 S
C1433 H1425 0.930 . S
C1433 C1431 1.419 . S
C1433 C1434 1.362 . S
C1434 H1426 0.930 . S
C1434 C1433 1.362 . S
C1434 C1437 1.409 1_455 S
C1435 H1427 0.930 . S
C1435 C1436 1.355 . S
C1435 C1437 1.415 . S
C1436 C1435 1.355 . S
C1436 C1438 1.419 . S
C1437 C1432 1.425 1_655 S
C1437 C1434 1.409 1_655 S
C1437 C1435 1.415 . S
C1438 H1428 0.930 . S
C1438 C1436 1.419 . S
C1438 C1439 1.362 . S
C1439 H1429 0.930 1_655 S
C1439 C1432 1.409 1_655 S
C1439 C1438 1.362 . S
H1440 C1446 0.930 . S
H1441 C1449 0.930 . S
H1442 C1450 0.930 . S
H1443 C1451 0.930 . S
H1444 C1454 0.930 . S
H1445 C1455 0.930 . S
C1446 H1440 0.930 . S
C1446 C1447 1.355 . S
C1446 C1448 1.415 . S
C1447 C1446 1.355 . S
C1447 C1449 1.419 . S
C1448 C1446 1.415 . S
C1448 C1453 1.425 . S
C1448 C1455 1.409 . S
C1449 H1441 0.930 . S
C1449 C1447 1.419 . S
C1449 C1450 1.362 . S
C1450 H1442 0.930 . S
C1450 C1449 1.362 . S
C1450 C1453 1.409 . S
C1451 H1443 0.930 . S
C1451 C1452 1.355 . S
C1451 C1453 1.415 . S
C1452 C1451 1.355 . S
C1452 C1454 1.419 . S
C1453 C1448 1.425 . S
C1453 C1450 1.409 . S
C1453 C1451 1.415 . S
C1454 H1444 0.930 . S
C1454 C1452 1.419 . S
C1454 C1455 1.362 . S
C1455 H1445 0.930 . S
C1455 C1448 1.409 . S
C1455 C1454 1.362 . S
H1456 C1462 0.930 . S
H1457 C1465 0.930 . S
H1458 C1466 0.930 . S
H1459 C1467 0.930 . S
H1460 C1470 0.930 . S
H1461 C1471 0.930 1_655 S
C1462 H1456 0.930 . S
C1462 C1463 1.355 . S
C1462 C1464 1.415 . S
C1463 C1462 1.355 . S
C1463 C1465 1.419 . S
C1464 C1462 1.415 . S
C1464 C1469 1.425 1_655 S
C1464 C1471 1.409 1_655 S
C1465 H1457 0.930 . S
C1465 C1463 1.419 . S
C1465 C1466 1.362 . S
C1466 H1458 0.930 . S
C1466 C1465 1.362 . S
C1466 C1469 1.409 1_655 S
C1467 H1459 0.930 . S
C1467 C1468 1.355 . S
C1467 C1469 1.415 . S
C1468 C1467 1.355 . S
C1468 C1470 1.419 . S
C1469 C1464 1.425 1_455 S
C1469 C1466 1.409 1_455 S
C1469 C1467 1.415 . S
C1470 H1460 0.930 . S
C1470 C1468 1.419 . S
C1470 C1471 1.362 . S
C1471 H1461 0.930 1_455 S
C1471 C1464 1.409 1_455 S
C1471 C1470 1.362 . S
H1472 C1478 0.930 . S
H1473 C1481 0.930 . S
H1474 C1482 0.930 . S
H1475 C1483 0.930 . S
H1476 C1486 0.930 . S
H1477 C1487 0.930 . S
C1478 H1472 0.930 . S
C1478 C1479 1.355 . S
C1478 C1480 1.415 . S
C1479 C1478 1.355 . S
C1479 C1481 1.419 . S
C1480 C1478 1.415 . S
C1480 C1485 1.425 . S
C1480 C1487 1.409 . S
C1481 H1473 0.930 . S
C1481 C1479 1.419 . S
C1481 C1482 1.362 . S
C1482 H1474 0.930 . S
C1482 C1481 1.362 . S
C1482 C1485 1.409 . S
C1483 H1475 0.930 . S
C1483 C1484 1.355 . S
C1483 C1485 1.415 . S
C1484 C1483 1.355 . S
C1484 C1486 1.419 . S
C1485 C1480 1.425 . S
C1485 C1482 1.409 . S
C1485 C1483 1.415 . S
C1486 H1476 0.930 . S
C1486 C1484 1.419 . S
C1486 C1487 1.362 . S
C1487 H1477 0.930 . S
C1487 C1480 1.409 . S
C1487 C1486 1.362 . S
H1488 C1494 0.930 . S
H1489 C1497 0.930 . S
H1490 C1498 0.930 1_455 S
H1491 C1499 0.930 . S
H1492 C1502 0.930 . S
H1493 C1503 0.930 . S
C1494 H1488 0.930 . S
C1494 C1495 1.355 . S
C1494 C1496 1.415 . S
C1495 C1494 1.355 . S
C1495 C1497 1.419 . S
C1496 C1494 1.415 . S
C1496 C1501 1.425 1_655 S
C1496 C1503 1.409 1_655 S
C1497 H1489 0.930 . S
C1497 C1495 1.419 . S
C1497 C1498 1.362 . S
C1498 H1490 0.930 1_655 S
C1498 C1497 1.362 . S
C1498 C1501 1.409 1_655 S
C1499 H1491 0.930 . S
C1499 C1500 1.355 . S
C1499 C1501 1.415 . S
C1500 C1499 1.355 . S
C1500 C1502 1.419 . S
C1501 C1496 1.425 1_455 S
C1501 C1498 1.409 1_455 S
C1501 C1499 1.415 . S
C1502 H1492 0.930 . S
C1502 C1500 1.419 . S
C1502 C1503 1.362 . S
C1503 H1493 0.930 . S
C1503 C1496 1.409 1_455 S
C1503 C1502 1.362 . S
H1504 C1510 0.930 . S
H1505 C1513 0.930 . S
H1506 C1514 0.930 . S
H1507 C1515 0.930 . S
H1508 C1518 0.930 . S
H1509 C1519 0.930 . S
C1510 H1504 0.930 . S
C1510 C1511 1.355 . S
C1510 C1512 1.415 . S
C1511 C1510 1.355 . S
C1511 C1513 1.419 . S
C1512 C1510 1.415 . S
C1512 C1517 1.425 . S
C1512 C1519 1.409 . S
C1513 H1505 0.930 . S
C1513 C1511 1.419 . S
C1513 C1514 1.362 . S
C1514 H1506 0.930 . S
C1514 C1513 1.362 . S
C1514 C1517 1.409 . S
C1515 H1507 0.930 . S
C1515 C1516 1.355 . S
C1515 C1517 1.415 . S
C1516 C1515 1.355 . S
C1516 C1518 1.419 . S
C1517 C1512 1.425 . S
C1517 C1514 1.409 . S
C1517 C1515 1.415 . S
C1518 H1508 0.930 . S
C1518 C1516 1.419 . S
C1518 C1519 1.362 . S
C1519 H1509 0.930 . S
C1519 C1512 1.409 . S
C1519 C1518 1.362 . S
H1520 C1526 0.930 . S
H1521 C1529 0.930 . S
H1522 C1530 0.930 . S
H1523 C1531 0.930 . S
H1524 C1534 0.930 . S
H1525 C1535 0.930 . S
C1526 H1520 0.930 . S
C1526 C1527 1.355 . S
C1526 C1528 1.415 1_545 S
C1527 C1526 1.355 . S
C1527 C1529 1.419 . S
C1528 C1526 1.415 1_565 S
C1528 C1533 1.425 . S
C1528 C1535 1.409 . S
C1529 H1521 0.930 . S
C1529 C1527 1.419 . S
C1529 C1530 1.362 . S
C1530 H1522 0.930 . S
C1530 C1529 1.362 . S
C1530 C1533 1.409 1_545 S
C1531 H1523 0.930 . S
C1531 C1532 1.355 . S
C1531 C1533 1.415 . S
C1532 C1531 1.355 . S
C1532 C1534 1.419 . S
C1533 C1528 1.425 . S
C1533 C1530 1.409 1_565 S
C1533 C1531 1.415 . S
C1534 H1524 0.930 . S
C1534 C1532 1.419 . S
C1534 C1535 1.362 . S
C1535 H1525 0.930 . S
C1535 C1528 1.409 . S
C1535 C1534 1.362 . S
H1536 C1542 0.930 . S
H1537 C1545 0.930 . S
H1538 C1546 0.930 . S
H1539 C1547 0.930 . S
H1540 C1550 0.930 . S
H1541 C1551 0.930 . S
C1542 H1536 0.930 . S
C1542 C1543 1.355 . S
C1542 C1544 1.415 . S
C1543 C1542 1.355 . S
C1543 C1545 1.419 . S
C1544 C1542 1.415 . S
C1544 C1549 1.425 . S
C1544 C1551 1.409 . S
C1545 H1537 0.930 . S
C1545 C1543 1.419 . S
C1545 C1546 1.362 . S
C1546 H1538 0.930 . S
C1546 C1545 1.362 . S
C1546 C1549 1.409 . S
C1547 H1539 0.930 . S
C1547 C1548 1.355 . S
C1547 C1549 1.415 . S
C1548 C1547 1.355 . S
C1548 C1550 1.419 . S
C1549 C1544 1.425 . S
C1549 C1546 1.409 . S
C1549 C1547 1.415 . S
C1550 H1540 0.930 . S
C1550 C1548 1.419 . S
C1550 C1551 1.362 . S
C1551 H1541 0.930 . S
C1551 C1544 1.409 . S
C1551 C1550 1.362 . S
H1552 C1558 0.930 . S
H1553 C1561 0.930 . S
H1554 C1562 0.930 . S
H1555 C1563 0.930 . S
H1556 C1566 0.930 . S
H1557 C1567 0.930 1_545 S
C1558 H1552 0.930 . S
C1558 C1559 1.355 . S
C1558 C1560 1.415 . S
C1559 C1558 1.355 . S
C1559 C1561 1.419 . S
C1560 C1558 1.415 . S
C1560 C1565 1.425 1_545 S
C1560 C1567 1.409 1_545 S
C1561 H1553 0.930 . S
C1561 C1559 1.419 . S
C1561 C1562 1.362 . S
C1562 H1554 0.930 . S
C1562 C1561 1.362 . S
C1562 C1565 1.409 1_545 S
C1563 H1555 0.930 . S
C1563 C1564 1.355 . S
C1563 C1565 1.415 . S
C1564 C1563 1.355 . S
C1564 C1566 1.419 . S
C1565 C1560 1.425 1_565 S
C1565 C1562 1.409 1_565 S
C1565 C1563 1.415 . S
C1566 H1556 0.930 . S
C1566 C1564 1.419 . S
C1566 C1567 1.362 . S
C1567 H1557 0.930 1_565 S
C1567 C1560 1.409 1_565 S
C1567 C1566 1.362 . S
H1568 C1574 0.930 . S
H1569 C1577 0.930 . S
H1570 C1578 0.930 . S
H1571 C1579 0.930 . S
H1572 C1582 0.930 . S
H1573 C1583 0.930 . S
C1574 H1568 0.930 . S
C1574 C1575 1.355 . S
C1574 C1576 1.415 . S
C1575 C1574 1.355 . S
C1575 C1577 1.419 . S
C1576 C1574 1.415 . S
C1576 C1581 1.425 . S
C1576 C1583 1.409 . S
C1577 H1569 0.930 . S
C1577 C1575 1.419 . S
C1577 C1578 1.362 . S
C1578 H1570 0.930 . S
C1578 C1577 1.362 . S
C1578 C1581 1.409 . S
C1579 H1571 0.930 . S
C1579 C1580 1.355 . S
C1579 C1581 1.415 . S
C1580 C1579 1.355 . S
C1580 C1582 1.419 . S
C1581 C1576 1.425 . S
C1581 C1578 1.409 . S
C1581 C1579 1.415 . S
C1582 H1572 0.930 . S
C1582 C1580 1.419 . S
C1582 C1583 1.362 . S
C1583 H1573 0.930 . S
C1583 C1576 1.409 . S
C1583 C1582 1.362 . S
H1584 C1590 0.930 . S
H1585 C1593 0.930 . S
H1586 C1594 0.930 . S
H1587 C1595 0.930 . S
H1588 C1598 0.930 . S
H1589 C1599 0.930 1_545 S
C1590 H1584 0.930 . S
C1590 C1591 1.355 . S
C1590 C1592 1.415 . S
C1591 C1590 1.355 . S
C1591 C1593 1.419 . S
C1592 C1590 1.415 . S
C1592 C1597 1.425 1_545 S
C1592 C1599 1.409 1_545 S
C1593 H1585 0.930 . S
C1593 C1591 1.419 . S
C1593 C1594 1.362 . S
C1594 H1586 0.930 . S
C1594 C1593 1.362 . S
C1594 C1597 1.409 1_545 S
C1595 H1587 0.930 . S
C1595 C1596 1.355 . S
C1595 C1597 1.415 . S
C1596 C1595 1.355 . S
C1596 C1598 1.419 . S
C1597 C1592 1.425 1_565 S
C1597 C1594 1.409 1_565 S
C1597 C1595 1.415 . S
C1598 H1588 0.930 . S
C1598 C1596 1.419 . S
C1598 C1599 1.362 . S
C1599 H1589 0.930 1_565 S
C1599 C1592 1.409 1_565 S
C1599 C1598 1.362 . S
H1600 C1606 0.930 . S
H1601 C1609 0.930 . S
H1602 C1610 0.930 . S
H1603 C1611 0.930 . S
H1604 C1614 0.930 . S
H1605 C1615 0.930 . S
C1606 H1600 0.930 . S
C1606 C1607 1.355 . S
C1606 C1608 1.415 . S
C1607 C1606 1.355 . S
C1607 C1609 1.419 . S
C1608 C1606 1.415 . S
C1608 C1613 1.425 . S
C1608 C1615 1.409 . S
C1609 H1601 0.930 . S
C1609 C1607 1.419 . S
C1609 C1610 1.362 . S
C1610 H1602 0.930 . S
C1610 C1609 1.362 . S
C1610 C1613 1.409 . S
C1611 H1603 0.930 . S
C1611 C1612 1.355 . S
C1611 C1613 1.415 . S
C1612 C1611 1.355 . S
C1612 C1614 1.419 . S
C1613 C1608 1.425 . S
C1613 C1610 1.409 . S
C1613 C1611 1.415 . S
C1614 H1604 0.930 . S
C1614 C1612 1.419 . S
C1614 C1615 1.362 . S
C1615 H1605 0.930 . S
C1615 C1608 1.409 . S
C1615 C1614 1.362 . S
H1616 C1622 0.930 . S
H1617 C1625 0.930 . S
H1618 C1626 0.930 1_565 S
H1619 C1627 0.930 . S
H1620 C1630 0.930 . S
H1621 C1631 0.944 . S
C1622 H1616 0.930 . S
C1622 C1623 1.355 . S
C1622 C1624 1.415 . S
C1623 C1622 1.355 . S
C1623 C1625 1.419 . S
C1624 C1622 1.415 . S
C1624 C1629 1.425 1_545 S
C1624 C1631 1.409 1_545 S
C1625 H1617 0.930 . S
C1625 C1623 1.419 . S
C1625 C1626 1.362 . S
C1626 H1618 0.930 1_545 S
C1626 C1625 1.362 . S
C1626 C1629 1.409 1_545 S
C1627 H1619 0.930 . S
C1627 C1628 1.355 . S
C1627 C1629 1.415 . S
C1628 C1627 1.355 . S
C1628 C1630 1.419 . S
C1629 C1624 1.425 1_565 S
C1629 C1626 1.409 1_565 S
C1629 C1627 1.415 . S
C1630 H1620 0.930 . S
C1630 C1628 1.419 . S
C1630 C1631 1.362 . S
C1631 H1621 0.944 . S
C1631 C1624 1.409 1_565 S
C1631 C1630 1.362 . S
H1632 C1638 0.930 . S
H1633 C1641 0.930 . S
H1634 C1642 0.930 . S
H1635 C1643 0.930 . S
H1636 C1646 0.930 . S
H1637 C1647 0.930 . S
C1638 H1632 0.930 . S
C1638 C1639 1.355 . S
C1638 C1640 1.415 . S
C1639 C1638 1.355 . S
C1639 C1641 1.419 . S
C1640 C1638 1.415 . S
C1640 C1645 1.425 . S
C1640 C1647 1.409 . S
C1641 H1633 0.930 . S
C1641 C1639 1.419 . S
C1641 C1642 1.362 . S
C1642 H1634 0.930 . S
C1642 C1641 1.362 . S
C1642 C1645 1.409 . S
C1643 H1635 0.930 . S
C1643 C1644 1.355 . S
C1643 C1645 1.415 . S
C1644 C1643 1.355 . S
C1644 C1646 1.419 . S
C1645 C1640 1.425 . S
C1645 C1642 1.409 . S
C1645 C1643 1.415 . S
C1646 H1636 0.930 . S
C1646 C1644 1.419 . S
C1646 C1647 1.362 . S
C1647 H1637 0.930 . S
C1647 C1640 1.409 . S
C1647 C1646 1.362 . S
H1648 C1654 0.930 . S
H1649 C1657 0.930 . S
H1650 C1658 0.930 . S
H1651 C1659 0.930 . S
H1652 C1662 0.930 . S
H1653 C1663 0.930 . S
C1654 H1648 0.930 . S
C1654 C1655 1.355 . S
C1654 C1656 1.415 . S
C1655 C1654 1.355 . S
C1655 C1657 1.419 . S
C1656 C1654 1.415 . S
C1656 C1661 1.425 . S
C1656 C1663 1.409 1_556 S
C1657 H1649 0.930 . S
C1657 C1655 1.419 . S
C1657 C1658 1.362 . S
C1658 H1650 0.930 . S
C1658 C1657 1.362 . S
C1658 C1661 1.409 . S
C1659 H1651 0.930 . S
C1659 C1660 1.355 . S
C1659 C1661 1.415 1_554 S
C1660 C1659 1.355 . S
C1660 C1662 1.419 . S
C1661 C1656 1.425 . S
C1661 C1658 1.409 . S
C1661 C1659 1.415 1_556 S
C1662 H1652 0.930 . S
C1662 C1660 1.419 . S
C1662 C1663 1.362 . S
C1663 H1653 0.930 . S
C1663 C1656 1.409 1_554 S
C1663 C1662 1.362 . S
H1664 C1670 0.930 . S
H1665 C1673 0.930 . S
H1666 C1674 0.932 . S
H1667 C1675 0.930 . S
H1668 C1678 0.930 . S
H1669 C1679 0.930 . S
C1670 H1664 0.930 . S
C1670 C1671 1.355 . S
C1670 C1672 1.408 1_556 S
C1671 C1670 1.355 . S
C1671 C1673 1.419 . S
C1672 C1670 1.408 1_554 S
C1672 C1677 1.428 . S
C1672 C1679 1.413 . S
C1673 H1665 0.930 . S
C1673 C1671 1.419 . S
C1673 C1674 1.362 . S
C1674 H1666 0.932 . S
C1674 C1673 1.362 . S
C1674 C1677 1.409 1_556 S
C1675 H1667 0.930 . S
C1675 C1676 1.355 . S
C1675 C1677 1.415 . S
C1676 C1675 1.355 . S
C1676 C1678 1.419 . S
C1677 C1672 1.428 . S
C1677 C1674 1.409 1_554 S
C1677 C1675 1.415 . S
C1678 H1668 0.930 . S
C1678 C1676 1.419 . S
C1678 C1679 1.362 . S
C1679 H1669 0.930 . S
C1679 C1672 1.413 . S
C1679 C1678 1.362 . S
H1680 C1686 0.930 . S
H1681 C1689 0.930 . S
H1682 C1690 0.930 . S
H1683 C1691 0.930 . S
H1684 C1694 0.930 . S
H1685 C1695 0.930 . S
C1686 H1680 0.930 . S
C1686 C1687 1.355 . S
C1686 C1688 1.415 . S
C1687 C1686 1.355 . S
C1687 C1689 1.419 . S
C1688 C1686 1.415 . S
C1688 C1693 1.425 . S
C1688 C1695 1.409 . S
C1689 H1681 0.930 . S
C1689 C1687 1.419 . S
C1689 C1690 1.362 . S
C1690 H1682 0.930 . S
C1690 C1689 1.362 . S
C1690 C1693 1.409 . S
C1691 H1683 0.930 . S
C1691 C1692 1.355 . S
C1691 C1693 1.415 . S
C1692 C1691 1.355 . S
C1692 C1694 1.419 . S
C1693 C1688 1.425 . S
C1693 C1690 1.409 . S
C1693 C1691 1.415 . S
C1694 H1684 0.930 . S
C1694 C1692 1.419 . S
C1694 C1695 1.362 . S
C1695 H1685 0.930 . S
C1695 C1688 1.409 . S
C1695 C1694 1.362 . S
H1696 C1702 0.930 . S
H1697 C1705 0.930 . S
H1698 C1706 0.943 . S
H1699 C1707 0.930 . S
H1700 C1710 0.930 . S
H1701 C1711 0.930 . S
C1702 H1696 0.930 . S
C1702 C1703 1.355 . S
C1702 C1704 1.393 1_556 S
C1703 C1702 1.355 . S
C1703 C1705 1.419 . S
C1704 C1702 1.393 1_554 S
C1704 C1709 1.433 . S
C1704 C1711 1.423 . S
C1705 H1697 0.930 . S
C1705 C1703 1.419 . S
C1705 C1706 1.362 . S
C1706 H1698 0.943 . S
C1706 C1705 1.362 . S
C1706 C1709 1.409 1_556 S
C1707 H1699 0.930 . S
C1707 C1708 1.355 . S
C1707 C1709 1.415 . S
C1708 C1707 1.355 . S
C1708 C1710 1.419 . S
C1709 C1704 1.433 . S
C1709 C1706 1.409 1_554 S
C1709 C1707 1.415 . S
C1710 H1700 0.930 . S
C1710 C1708 1.419 . S
C1710 C1711 1.362 . S
C1711 H1701 0.930 . S
C1711 C1704 1.423 . S
C1711 C1710 1.362 . S
H1712 C1718 0.930 . S
H1713 C1721 0.930 . S
H1714 C1722 0.930 . S
H1715 C1723 0.930 . S
H1716 C1726 0.930 . S
H1717 C1727 0.930 . S
C1718 H1712 0.930 . S
C1718 C1719 1.355 . S
C1718 C1720 1.415 . S
C1719 C1718 1.355 . S
C1719 C1721 1.419 . S
C1720 C1718 1.415 . S
C1720 C1725 1.425 . S
C1720 C1727 1.409 . S
C1721 H1713 0.930 . S
C1721 C1719 1.419 . S
C1721 C1722 1.362 . S
C1722 H1714 0.930 . S
C1722 C1721 1.362 . S
C1722 C1725 1.409 . S
C1723 H1715 0.930 . S
C1723 C1724 1.355 . S
C1723 C1725 1.415 . S
C1724 C1723 1.355 . S
C1724 C1726 1.419 . S
C1725 C1720 1.425 . S
C1725 C1722 1.409 . S
C1725 C1723 1.415 . S
C1726 H1716 0.930 . S
C1726 C1724 1.419 . S
C1726 C1727 1.362 . S
C1727 H1717 0.930 . S
C1727 C1720 1.409 . S
C1727 C1726 1.362 . S
H1728 C1734 0.930 . S
H1729 C1737 0.930 . S
H1730 C1738 0.930 . S
H1731 C1739 0.930 . S
H1732 C1742 0.930 . S
H1733 C1743 0.914 1_556 S
C1734 H1728 0.930 . S
C1734 C1735 1.355 . S
C1734 C1736 1.415 . S
C1735 C1734 1.355 . S
C1735 C1737 1.419 . S
C1736 C1734 1.415 . S
C1736 C1741 1.425 1_556 S
C1736 C1743 1.394 1_556 S
C1737 H1729 0.930 . S
C1737 C1735 1.419 . S
C1737 C1738 1.362 . S
C1738 H1730 0.930 . S
C1738 C1737 1.362 . S
C1738 C1741 1.409 1_556 S
C1739 H1731 0.930 . S
C1739 C1740 1.355 . S
C1739 C1741 1.415 . S
C1740 C1739 1.355 . S
C1740 C1742 1.419 . S
C1741 C1736 1.425 1_554 S
C1741 C1738 1.409 1_554 S
C1741 C1739 1.415 . S
C1742 H1732 0.930 . S
C1742 C1740 1.419 . S
C1742 C1743 1.393 . S
C1743 H1733 0.914 1_554 S
C1743 C1736 1.394 1_554 S
C1743 C1742 1.393 . S
H1744 C1750 0.930 . S
H1745 C1753 0.930 . S
H1746 C1754 0.930 . S
H1747 C1755 0.930 . S
H1748 C1758 0.930 . S
H1749 C1759 0.930 . S
C1750 H1744 0.930 . S
C1750 C1751 1.355 . S
C1750 C1752 1.415 . S
C1751 C1750 1.355 . S
C1751 C1753 1.419 . S
C1752 C1750 1.415 . S
C1752 C1757 1.425 . S
C1752 C1759 1.409 . S
C1753 H1745 0.930 . S
C1753 C1751 1.419 . S
C1753 C1754 1.362 . S
C1754 H1746 0.930 . S
C1754 C1753 1.362 . S
C1754 C1757 1.409 . S
C1755 H1747 0.930 . S
C1755 C1756 1.355 . S
C1755 C1757 1.415 . S
C1756 C1755 1.355 . S
C1756 C1758 1.419 . S
C1757 C1752 1.425 . S
C1757 C1754 1.409 . S
C1757 C1755 1.415 . S
C1758 H1748 0.930 . S
C1758 C1756 1.419 . S
C1758 C1759 1.362 . S
C1759 H1749 0.930 . S
C1759 C1752 1.409 . S
C1759 C1758 1.362 . S
H1760 C1766 0.930 . S
H1761 C1769 0.930 . S
H1762 C1770 0.930 . S
H1763 C1771 0.930 . S
H1764 C1774 0.930 . S
H1765 C1775 0.930 . S
C1766 H1760 0.930 . S
C1766 C1767 1.355 . S
C1766 C1768 1.415 . S
C1767 C1766 1.355 . S
C1767 C1769 1.419 . S
C1768 C1766 1.415 . S
C1768 C1773 1.425 . S
C1768 C1775 1.409 . S
C1769 H1761 0.930 . S
C1769 C1767 1.419 . S
C1769 C1770 1.362 . S
C1770 H1762 0.930 . S
C1770 C1769 1.362 . S
C1770 C1773 1.409 . S
C1771 H1763 0.930 . S
C1771 C1772 1.355 . S
C1771 C1773 1.415 . S
C1772 C1771 1.355 . S
C1772 C1774 1.419 . S
C1773 C1768 1.425 . S
C1773 C1770 1.409 . S
C1773 C1771 1.415 . S
C1774 H1764 0.930 . S
C1774 C1772 1.419 . S
C1774 C1775 1.362 . S
C1775 H1765 0.930 . S
C1775 C1768 1.409 . S
C1775 C1774 1.362 . S
H1776 C1782 0.930 . S
H1777 C1785 0.930 . S
H1778 C1786 0.930 . S
H1779 C1787 0.930 . S
H1780 C1790 0.930 . S
H1781 C1791 0.930 . S
C1782 H1776 0.930 . S
C1782 C1783 1.355 . S
C1782 C1784 1.415 . S
C1783 C1782 1.355 . S
C1783 C1785 1.419 . S
C1784 C1782 1.415 . S
C1784 C1789 1.425 . S
C1784 C1791 1.409 . S
C1785 H1777 0.930 . S
C1785 C1783 1.419 . S
C1785 C1786 1.362 . S
C1786 H1778 0.930 . S
C1786 C1785 1.362 . S
C1786 C1789 1.409 . S
C1787 H1779 0.930 . S
C1787 C1788 1.355 . S
C1787 C1789 1.415 . S
C1788 C1787 1.355 . S
C1788 C1790 1.419 . S
C1789 C1784 1.425 . S
C1789 C1786 1.409 . S
C1789 C1787 1.415 . S
C1790 H1780 0.930 . S
C1790 C1788 1.419 . S
C1790 C1791 1.362 . S
C1791 H1781 0.930 . S
C1791 C1784 1.409 . S
C1791 C1790 1.362 . S
H1792 C1798 0.930 . S
H1793 C1801 0.930 . S
H1794 C1802 0.930 . S
H1795 C1803 0.930 . S
H1796 C1806 0.930 . S
H1797 C1807 0.930 . S
C1798 H1792 0.930 . S
C1798 C1799 1.355 . S
C1798 C1800 1.415 . S
C1799 C1798 1.355 . S
C1799 C1801 1.419 . S
C1800 C1798 1.415 . S
C1800 C1805 1.425 . S
C1800 C1807 1.409 . S
C1801 H1793 0.930 . S
C1801 C1799 1.419 . S
C1801 C1802 1.362 . S
C1802 H1794 0.930 . S
C1802 C1801 1.362 . S
C1802 C1805 1.409 . S
C1803 H1795 0.930 . S
C1803 C1804 1.355 . S
C1803 C1805 1.415 . S
C1804 C1803 1.355 . S
C1804 C1806 1.419 . S
C1805 C1800 1.425 . S
C1805 C1802 1.409 . S
C1805 C1803 1.415 . S
C1806 H1796 0.930 . S
C1806 C1804 1.419 . S
C1806 C1807 1.362 . S
C1807 H1797 0.930 . S
C1807 C1800 1.409 . S
C1807 C1806 1.362 . S
H1808 C1814 0.930 . S
H1809 C1817 0.930 . S
H1810 C1818 0.930 . S
H1811 C1819 0.930 . S
H1812 C1822 0.930 . S
H1813 C1823 0.930 . S
C1814 H1808 0.930 . S
C1814 C1815 1.355 . S
C1814 C1816 1.415 . S
C1815 C1814 1.355 . S
C1815 C1817 1.419 . S
C1816 C1814 1.415 . S
C1816 C1821 1.425 . S
C1816 C1823 1.409 . S
C1817 H1809 0.930 . S
C1817 C1815 1.419 . S
C1817 C1818 1.362 . S
C1818 H1810 0.930 . S
C1818 C1817 1.362 . S
C1818 C1821 1.409 . S
C1819 H1811 0.930 . S
C1819 C1820 1.355 . S
C1819 C1821 1.415 . S
C1820 C1819 1.355 . S
C1820 C1822 1.419 . S
C1821 C1816 1.425 . S
C1821 C1818 1.409 . S
C1821 C1819 1.415 . S
C1822 H1812 0.930 . S
C1822 C1820 1.419 . S
C1822 C1823 1.362 . S
C1823 H1813 0.930 . S
C1823 C1816 1.409 . S
C1823 C1822 1.362 . S
H1824 C1830 0.930 . S
H1825 C1833 0.930 . S
H1826 C1834 0.930 . S
H1827 C1835 0.930 . S
H1828 C1838 0.930 . S
H1829 C1839 0.930 . S
C1830 H1824 0.930 . S
C1830 C1831 1.355 . S
C1830 C1832 1.415 . S
C1831 C1830 1.355 . S
C1831 C1833 1.419 . S
C1832 C1830 1.415 . S
C1832 C1837 1.425 . S
C1832 C1839 1.409 . S
C1833 H1825 0.930 . S
C1833 C1831 1.419 . S
C1833 C1834 1.362 . S
C1834 H1826 0.930 . S
C1834 C1833 1.362 . S
C1834 C1837 1.409 . S
C1835 H1827 0.930 . S
C1835 C1836 1.355 . S
C1835 C1837 1.415 . S
C1836 C1835 1.355 . S
C1836 C1838 1.419 . S
C1837 C1832 1.425 . S
C1837 C1834 1.409 . S
C1837 C1835 1.415 . S
C1838 H1828 0.930 . S
C1838 C1836 1.419 . S
C1838 C1839 1.362 . S
C1839 H1829 0.930 . S
C1839 C1832 1.409 . S
C1839 C1838 1.362 . S
H1840 C1846 0.930 . S
H1841 C1849 0.930 . S
H1842 C1850 0.930 . S
H1843 C1851 0.930 . S
H1844 C1854 0.930 . S
H1845 C1855 0.930 . S
C1846 H1840 0.930 . S
C1846 C1847 1.355 . S
C1846 C1848 1.415 . S
C1847 C1846 1.355 . S
C1847 C1849 1.419 . S
C1848 C1846 1.415 . S
C1848 C1853 1.425 . S
C1848 C1855 1.409 . S
C1849 H1841 0.930 . S
C1849 C1847 1.419 . S
C1849 C1850 1.362 . S
C1850 H1842 0.930 . S
C1850 C1849 1.362 . S
C1850 C1853 1.409 . S
C1851 H1843 0.930 . S
C1851 C1852 1.355 . S
C1851 C1853 1.415 . S
C1852 C1851 1.355 . S
C1852 C1854 1.419 . S
C1853 C1848 1.425 . S
C1853 C1850 1.409 . S
C1853 C1851 1.415 . S
C1854 H1844 0.930 . S
C1854 C1852 1.419 . S
C1854 C1855 1.362 . S
C1855 H1845 0.930 . S
C1855 C1848 1.409 . S
C1855 C1854 1.362 . S
H1856 C1862 0.930 . S
H1857 C1865 0.930 . S
H1858 C1866 0.930 . S
H1859 C1867 0.930 . S
H1860 C1870 0.930 . S
H1861 C1871 0.930 . S
C1862 H1856 0.930 . S
C1862 C1863 1.355 . S
C1862 C1864 1.415 . S
C1863 C1862 1.355 . S
C1863 C1865 1.419 . S
C1864 C1862 1.415 . S
C1864 C1869 1.425 . S
C1864 C1871 1.409 . S
C1865 H1857 0.930 . S
C1865 C1863 1.419 . S
C1865 C1866 1.362 . S
C1866 H1858 0.930 . S
C1866 C1865 1.362 . S
C1866 C1869 1.409 . S
C1867 H1859 0.930 . S
C1867 C1868 1.355 . S
C1867 C1869 1.415 . S
C1868 C1867 1.355 . S
C1868 C1870 1.419 . S
C1869 C1864 1.425 . S
C1869 C1866 1.409 . S
C1869 C1867 1.415 . S
C1870 H1860 0.930 . S
C1870 C1868 1.419 . S
C1870 C1871 1.362 . S
C1871 H1861 0.930 . S
C1871 C1864 1.409 . S
C1871 C1870 1.362 . S
H1872 C1878 0.930 . S
H1873 C1881 0.930 . S
H1874 C1882 0.930 . S
H1875 C1883 0.930 . S
H1876 C1886 0.930 . S
H1877 C1887 0.930 . S
C1878 H1872 0.930 . S
C1878 C1879 1.355 . S
C1878 C1880 1.415 . S
C1879 C1878 1.355 . S
C1879 C1881 1.419 . S
C1880 C1878 1.415 . S
C1880 C1885 1.425 . S
C1880 C1887 1.409 . S
C1881 H1873 0.930 . S
C1881 C1879 1.419 . S
C1881 C1882 1.362 . S
C1882 H1874 0.930 . S
C1882 C1881 1.362 . S
C1882 C1885 1.409 . S
C1883 H1875 0.930 . S
C1883 C1884 1.355 . S
C1883 C1885 1.415 . S
C1884 C1883 1.355 . S
C1884 C1886 1.419 . S
C1885 C1880 1.425 . S
C1885 C1882 1.409 . S
C1885 C1883 1.415 . S
C1886 H1876 0.930 . S
C1886 C1884 1.419 . S
C1886 C1887 1.362 . S
C1887 H1877 0.930 . S
C1887 C1880 1.409 . S
C1887 C1886 1.362 . S
H1888 C1894 0.930 . S
H1889 C1897 0.930 . S
H1890 C1898 0.930 . S
H1891 C1899 0.930 . S
H1892 C1902 0.930 . S
H1893 C1903 0.930 . S
C1894 H1888 0.930 . S
C1894 C1895 1.355 . S
C1894 C1896 1.415 . S
C1895 C1894 1.355 . S
C1895 C1897 1.419 . S
C1896 C1894 1.415 . S
C1896 C1901 1.425 . S
C1896 C1903 1.409 . S
C1897 H1889 0.930 . S
C1897 C1895 1.419 . S
C1897 C1898 1.362 . S
C1898 H1890 0.930 . S
C1898 C1897 1.362 . S
C1898 C1901 1.409 . S
C1899 H1891 0.930 . S
C1899 C1900 1.355 . S
C1899 C1901 1.415 . S
C1900 C1899 1.355 . S
C1900 C1902 1.419 . S
C1901 C1896 1.425 . S
C1901 C1898 1.409 . S
C1901 C1899 1.415 . S
C1902 H1892 0.930 . S
C1902 C1900 1.419 . S
C1902 C1903 1.362 . S
C1903 H1893 0.930 . S
C1903 C1896 1.409 . S
C1903 C1902 1.362 . S
H1904 C1910 0.930 . S
H1905 C1913 0.930 . S
H1906 C1914 0.930 . S
H1907 C1915 0.930 . S
H1908 C1918 0.930 . S
H1909 C1919 0.930 . S
C1910 H1904 0.930 . S
C1910 C1911 1.355 . S
C1910 C1912 1.415 . S
C1911 C1910 1.355 . S
C1911 C1913 1.419 . S
C1912 C1910 1.415 . S
C1912 C1917 1.425 . S
C1912 C1919 1.409 . S
C1913 H1905 0.930 . S
C1913 C1911 1.419 . S
C1913 C1914 1.362 . S
C1914 H1906 0.930 . S
C1914 C1913 1.362 . S
C1914 C1917 1.409 . S
C1915 H1907 0.930 . S
C1915 C1916 1.355 . S
C1915 C1917 1.415 . S
C1916 C1915 1.355 . S
C1916 C1918 1.419 . S
C1917 C1912 1.425 . S
C1917 C1914 1.409 . S
C1917 C1915 1.415 . S
C1918 H1908 0.930 . S
C1918 C1916 1.419 . S
C1918 C1919 1.362 . S
C1919 H1909 0.930 . S
C1919 C1912 1.409 . S
C1919 C1918 1.362 . S
H1920 C1926 0.930 . S
H1921 C1929 0.930 . S
H1922 C1930 0.930 . S
H1923 C1931 0.930 . S
H1924 C1934 0.930 . S
H1925 C1935 0.930 . S
C1926 H1920 0.930 . S
C1926 C1927 1.355 . S
C1926 C1928 1.415 . S
C1927 C1926 1.355 . S
C1927 C1929 1.419 . S
C1928 C1926 1.415 . S
C1928 C1933 1.425 . S
C1928 C1935 1.409 . S
C1929 H1921 0.930 . S
C1929 C1927 1.419 . S
C1929 C1930 1.362 . S
C1930 H1922 0.930 . S
C1930 C1929 1.362 . S
C1930 C1933 1.409 . S
C1931 H1923 0.930 . S
C1931 C1932 1.355 . S
C1931 C1933 1.415 . S
C1932 C1931 1.355 . S
C1932 C1934 1.419 . S
C1933 C1928 1.425 . S
C1933 C1930 1.409 . S
C1933 C1931 1.415 . S
C1934 H1924 0.930 . S
C1934 C1932 1.419 . S
C1934 C1935 1.362 . S
C1935 H1925 0.930 . S
C1935 C1928 1.409 . S
C1935 C1934 1.362 . S
H1936 C1942 0.930 . S
H1937 C1945 0.930 . S
H1938 C1946 0.930 . S
H1939 C1947 0.930 . S
H1940 C1950 0.930 . S
H1941 C1951 0.930 . S
C1942 H1936 0.930 . S
C1942 C1943 1.355 . S
C1942 C1944 1.415 . S
C1943 C1942 1.355 . S
C1943 C1945 1.419 . S
C1944 C1942 1.415 . S
C1944 C1949 1.425 . S
C1944 C1951 1.409 . S
C1945 H1937 0.930 . S
C1945 C1943 1.419 . S
C1945 C1946 1.362 . S
C1946 H1938 0.930 . S
C1946 C1945 1.362 . S
C1946 C1949 1.409 . S
C1947 H1939 0.930 . S
C1947 C1948 1.355 . S
C1947 C1949 1.415 . S
C1948 C1947 1.355 . S
C1948 C1950 1.419 . S
C1949 C1944 1.425 . S
C1949 C1946 1.409 . S
C1949 C1947 1.415 . S
C1950 H1940 0.930 . S
C1950 C1948 1.419 . S
C1950 C1951 1.362 . S
C1951 H1941 0.930 . S
C1951 C1944 1.409 . S
C1951 C1950 1.362 . S
H1952 C1958 0.930 . S
H1953 C1961 0.930 . S
H1954 C1962 0.930 . S
H1955 C1963 0.930 . S
H1956 C1966 0.930 . S
H1957 C1967 0.930 . S
C1958 H1952 0.930 . S
C1958 C1959 1.355 . S
C1958 C1960 1.415 . S
C1959 C1958 1.355 . S
C1959 C1961 1.419 . S
C1960 C1958 1.415 . S
C1960 C1965 1.425 . S
C1960 C1967 1.409 . S
C1961 H1953 0.930 . S
C1961 C1959 1.419 . S
C1961 C1962 1.362 . S
C1962 H1954 0.930 . S
C1962 C1961 1.362 . S
C1962 C1965 1.409 . S
C1963 H1955 0.930 . S
C1963 C1964 1.355 . S
C1963 C1965 1.415 . S
C1964 C1963 1.355 . S
C1964 C1966 1.419 . S
C1965 C1960 1.425 . S
C1965 C1962 1.409 . S
C1965 C1963 1.415 . S
C1966 H1956 0.930 . S
C1966 C1964 1.419 . S
C1966 C1967 1.362 . S
C1967 H1957 0.930 . S
C1967 C1960 1.409 . S
C1967 C1966 1.362 . S
H1968 C1974 0.930 . S
H1969 C1977 0.930 . S
H1970 C1978 0.930 . S
H1971 C1979 0.930 . S
H1972 C1982 0.930 . S
H1973 C1983 0.930 . S
C1974 H1968 0.930 . S
C1974 C1975 1.355 . S
C1974 C1976 1.415 . S
C1975 C1974 1.355 . S
C1975 C1977 1.419 . S
C1976 C1974 1.415 . S
C1976 C1981 1.425 . S
C1976 C1983 1.409 . S
C1977 H1969 0.930 . S
C1977 C1975 1.419 . S
C1977 C1978 1.362 . S
C1978 H1970 0.930 . S
C1978 C1977 1.362 . S
C1978 C1981 1.409 . S
C1979 H1971 0.930 . S
C1979 C1980 1.355 . S
C1979 C1981 1.415 . S
C1980 C1979 1.355 . S
C1980 C1982 1.419 . S
C1981 C1976 1.425 . S
C1981 C1978 1.409 . S
C1981 C1979 1.415 . S
C1982 H1972 0.930 . S
C1982 C1980 1.419 . S
C1982 C1983 1.362 . S
C1983 H1973 0.930 . S
C1983 C1976 1.409 . S
C1983 C1982 1.362 . S
H1984 C1990 0.930 . S
H1985 C1993 0.930 . S
H1986 C1994 0.930 . S
H1987 C1995 0.930 . S
H1988 C1998 0.930 . S
H1989 C1999 0.930 . S
C1990 H1984 0.930 . S
C1990 C1991 1.355 . S
C1990 C1992 1.415 . S
C1991 C1990 1.355 . S
C1991 C1993 1.419 . S
C1992 C1990 1.415 . S
C1992 C1997 1.425 . S
C1992 C1999 1.409 . S
C1993 H1985 0.930 . S
C1993 C1991 1.419 . S
C1993 C1994 1.362 . S
C1994 H1986 0.930 . S
C1994 C1993 1.362 . S
C1994 C1997 1.409 . S
C1995 H1987 0.930 . S
C1995 C1996 1.355 . S
C1995 C1997 1.415 . S
C1996 C1995 1.355 . S
C1996 C1998 1.419 . S
C1997 C1992 1.425 . S
C1997 C1994 1.409 . S
C1997 C1995 1.415 . S
C1998 H1988 0.930 . S
C1998 C1996 1.419 . S
C1998 C1999 1.362 . S
C1999 H1989 0.930 . S
C1999 C1992 1.409 . S
C1999 C1998 1.362 . S
H2000 C2006 0.930 . S
H2001 C2009 0.930 . S
H2002 C2010 0.930 . S
H2003 C2011 0.930 . S
H2004 C2014 0.930 . S
H2005 C2015 0.930 . S
C2006 H2000 0.930 . S
C2006 C2007 1.355 . S
C2006 C2008 1.415 . S
C2007 C2006 1.355 . S
C2007 C2009 1.419 . S
C2008 C2006 1.415 . S
C2008 C2013 1.425 . S
C2008 C2015 1.409 . S
C2009 H2001 0.930 . S
C2009 C2007 1.419 . S
C2009 C2010 1.362 . S
C2010 H2002 0.930 . S
C2010 C2009 1.362 . S
C2010 C2013 1.409 . S
C2011 H2003 0.930 . S
C2011 C2012 1.355 . S
C2011 C2013 1.415 . S
C2012 C2011 1.355 . S
C2012 C2014 1.419 . S
C2013 C2008 1.425 . S
C2013 C2010 1.409 . S
C2013 C2011 1.415 . S
C2014 H2004 0.930 . S
C2014 C2012 1.419 . S
C2014 C2015 1.362 . S
C2015 H2005 0.930 . S
C2015 C2008 1.409 . S
C2015 C2014 1.362 . S
H2016 C2022 0.930 . S
H2017 C2025 0.930 . S
H2018 C2026 0.930 . S
H2019 C2027 0.930 . S
H2020 C2030 0.930 . S
H2021 C2031 0.930 . S
C2022 H2016 0.930 . S
C2022 C2023 1.355 . S
C2022 C2024 1.415 . S
C2023 C2022 1.355 . S
C2023 C2025 1.419 . S
C2024 C2022 1.415 . S
C2024 C2029 1.425 . S
C2024 C2031 1.409 . S
C2025 H2017 0.930 . S
C2025 C2023 1.419 . S
C2025 C2026 1.362 . S
C2026 H2018 0.930 . S
C2026 C2025 1.362 . S
C2026 C2029 1.409 . S
C2027 H2019 0.930 . S
C2027 C2028 1.355 . S
C2027 C2029 1.415 . S
C2028 C2027 1.355 . S
C2028 C2030 1.419 . S
C2029 C2024 1.425 . S
C2029 C2026 1.409 . S
C2029 C2027 1.415 . S
C2030 H2020 0.930 . S
C2030 C2028 1.419 . S
C2030 C2031 1.362 . S
C2031 H2021 0.930 . S
C2031 C2024 1.409 . S
C2031 C2030 1.362 . S
H2032 C2038 0.930 . S
H2033 C2041 0.930 . S
H2034 C2042 0.930 . S
H2035 C2043 0.930 . S
H2036 C2046 0.930 . S
H2037 C2047 0.930 . S
C2038 H2032 0.930 . S
C2038 C2039 1.355 . S
C2038 C2040 1.415 . S
C2039 C2038 1.355 . S
C2039 C2041 1.419 . S
C2040 C2038 1.415 . S
C2040 C2045 1.425 . S
C2040 C2047 1.409 . S
C2041 H2033 0.930 . S
C2041 C2039 1.419 . S
C2041 C2042 1.362 . S
C2042 H2034 0.930 . S
C2042 C2041 1.362 . S
C2042 C2045 1.409 . S
C2043 H2035 0.930 . S
C2043 C2044 1.355 . S
C2043 C2045 1.415 . S
C2044 C2043 1.355 . S
C2044 C2046 1.419 . S
C2045 C2040 1.425 . S
C2045 C2042 1.409 . S
C2045 C2043 1.415 . S
C2046 H2036 0.930 . S
C2046 C2044 1.419 . S
C2046 C2047 1.362 . S
C2047 H2037 0.930 . S
C2047 C2040 1.409 . S
C2047 C2046 1.362 . S
H2048 C2054 0.930 . S
H2049 C2057 0.930 . S
H2050 C2058 0.930 . S
H2051 C2059 0.930 . S
H2052 C2062 0.930 . S
H2053 C2063 0.930 . S
C2054 H2048 0.930 . S
C2054 C2055 1.355 . S
C2054 C2056 1.415 . S
C2055 C2054 1.355 . S
C2055 C2057 1.419 . S
C2056 C2054 1.415 . S
C2056 C2061 1.425 . S
C2056 C2063 1.409 . S
C2057 H2049 0.930 . S
C2057 C2055 1.419 . S
C2057 C2058 1.362 . S
C2058 H2050 0.930 . S
C2058 C2057 1.362 . S
C2058 C2061 1.409 . S
C2059 H2051 0.930 . S
C2059 C2060 1.355 . S
C2059 C2061 1.415 . S
C2060 C2059 1.355 . S
C2060 C2062 1.419 . S
C2061 C2056 1.425 . S
C2061 C2058 1.409 . S
C2061 C2059 1.415 . S
C2062 H2052 0.930 . S
C2062 C2060 1.419 . S
C2062 C2063 1.362 . S
C2063 H2053 0.930 . S
C2063 C2056 1.409 . S
C2063 C2062 1.362 . S
H2064 C2070 0.930 . S
H2065 C2073 0.930 . S
H2066 C2074 0.930 . S
H2067 C2075 0.930 . S
H2068 C2078 0.930 . S
H2069 C2079 0.930 . S
C2070 H2064 0.930 . S
C2070 C2071 1.355 . S
C2070 C2072 1.415 . S
C2071 C2070 1.355 . S
C2071 C2073 1.419 . S
C2072 C2070 1.415 . S
C2072 C2077 1.425 . S
C2072 C2079 1.409 . S
C2073 H2065 0.930 . S
C2073 C2071 1.419 . S
C2073 C2074 1.362 . S
C2074 H2066 0.930 . S
C2074 C2073 1.362 . S
C2074 C2077 1.409 . S
C2075 H2067 0.930 . S
C2075 C2076 1.355 . S
C2075 C2077 1.415 . S
C2076 C2075 1.355 . S
C2076 C2078 1.419 . S
C2077 C2072 1.425 . S
C2077 C2074 1.409 . S
C2077 C2075 1.415 . S
C2078 H2068 0.930 . S
C2078 C2076 1.419 . S
C2078 C2079 1.362 . S
C2079 H2069 0.930 . S
C2079 C2072 1.409 . S
C2079 C2078 1.362 . S
H2080 C2086 0.930 . S
H2081 C2089 0.930 . S
H2082 C2090 0.930 . S
H2083 C2091 0.930 . S
H2084 C2094 0.930 . S
H2085 C2095 0.930 . S
C2086 H2080 0.930 . S
C2086 C2087 1.355 . S
C2086 C2088 1.415 . S
C2087 C2086 1.355 . S
C2087 C2089 1.419 . S
C2088 C2086 1.415 . S
C2088 C2093 1.425 . S
C2088 C2095 1.409 . S
C2089 H2081 0.930 . S
C2089 C2087 1.419 . S
C2089 C2090 1.362 . S
C2090 H2082 0.930 . S
C2090 C2089 1.362 . S
C2090 C2093 1.409 . S
C2091 H2083 0.930 . S
C2091 C2092 1.355 . S
C2091 C2093 1.415 . S
C2092 C2091 1.355 . S
C2092 C2094 1.419 . S
C2093 C2088 1.425 . S
C2093 C2090 1.409 . S
C2093 C2091 1.415 . S
C2094 H2084 0.930 . S
C2094 C2092 1.419 . S
C2094 C2095 1.362 . S
C2095 H2085 0.930 . S
C2095 C2088 1.409 . S
C2095 C2094 1.362 . S
H2096 C2102 0.930 . S
H2097 C2105 0.930 . S
H2098 C2106 0.930 . S
H2099 C2107 0.930 . S
H2100 C2110 0.930 . S
H2101 C2111 0.930 . S
C2102 H2096 0.930 . S
C2102 C2103 1.355 . S
C2102 C2104 1.415 . S
C2103 C2102 1.355 . S
C2103 C2105 1.419 . S
C2104 C2102 1.415 . S
C2104 C2109 1.425 . S
C2104 C2111 1.409 . S
C2105 H2097 0.930 . S
C2105 C2103 1.419 . S
C2105 C2106 1.362 . S
C2106 H2098 0.930 . S
C2106 C2105 1.362 . S
C2106 C2109 1.409 . S
C2107 H2099 0.930 . S
C2107 C2108 1.355 . S
C2107 C2109 1.415 . S
C2108 C2107 1.355 . S
C2108 C2110 1.419 . S
C2109 C2104 1.425 . S
C2109 C2106 1.409 . S
C2109 C2107 1.415 . S
C2110 H2100 0.930 . S
C2110 C2108 1.419 . S
C2110 C2111 1.362 . S
C2111 H2101 0.930 . S
C2111 C2104 1.409 . S
C2111 C2110 1.362 . S
H2112 C2118 0.930 . S
H2113 C2121 0.930 . S
H2114 C2122 0.930 . S
H2115 C2123 0.930 . S
H2116 C2126 0.930 . S
H2117 C2127 0.930 . S
C2118 H2112 0.930 . S
C2118 C2119 1.355 . S
C2118 C2120 1.415 . S
C2119 C2118 1.355 . S
C2119 C2121 1.419 . S
C2120 C2118 1.415 . S
C2120 C2125 1.425 . S
C2120 C2127 1.409 . S
C2121 H2113 0.930 . S
C2121 C2119 1.419 . S
C2121 C2122 1.362 . S
C2122 H2114 0.930 . S
C2122 C2121 1.362 . S
C2122 C2125 1.409 . S
C2123 H2115 0.930 . S
C2123 C2124 1.355 . S
C2123 C2125 1.415 . S
C2124 C2123 1.355 . S
C2124 C2126 1.419 . S
C2125 C2120 1.425 . S
C2125 C2122 1.409 . S
C2125 C2123 1.415 . S
C2126 H2116 0.930 . S
C2126 C2124 1.419 . S
C2126 C2127 1.362 . S
C2127 H2117 0.930 . S
C2127 C2120 1.409 . S
C2127 C2126 1.362 . S
H2128 C2134 0.930 . S
H2129 C2137 0.930 . S
H2130 C2138 0.930 . S
H2131 C2139 0.930 . S
H2132 C2142 0.930 . S
H2133 C2143 0.930 . S
C2134 H2128 0.930 . S
C2134 C2135 1.355 . S
C2134 C2136 1.415 . S
C2135 C2134 1.355 . S
C2135 C2137 1.419 . S
C2136 C2134 1.415 . S
C2136 C2141 1.425 . S
C2136 C2143 1.409 . S
C2137 H2129 0.930 . S
C2137 C2135 1.419 . S
C2137 C2138 1.362 . S
C2138 H2130 0.930 . S
C2138 C2137 1.362 . S
C2138 C2141 1.409 . S
C2139 H2131 0.930 . S
C2139 C2140 1.355 . S
C2139 C2141 1.415 . S
C2140 C2139 1.355 . S
C2140 C2142 1.419 . S
C2141 C2136 1.425 . S
C2141 C2138 1.409 . S
C2141 C2139 1.415 . S
C2142 H2132 0.930 . S
C2142 C2140 1.419 . S
C2142 C2143 1.362 . S
C2143 H2133 0.930 . S
C2143 C2136 1.409 . S
C2143 C2142 1.362 . S
H2144 C2150 0.930 . S
H2145 C2153 0.930 . S
H2146 C2154 0.930 . S
H2147 C2155 0.930 . S
H2148 C2158 0.930 . S
H2149 C2159 0.930 . S
C2150 H2144 0.930 . S
C2150 C2151 1.355 . S
C2150 C2152 1.415 . S
C2151 C2150 1.355 . S
C2151 C2153 1.419 . S
C2152 C2150 1.415 . S
C2152 C2157 1.425 . S
C2152 C2159 1.409 . S
C2153 H2145 0.930 . S
C2153 C2151 1.419 . S
C2153 C2154 1.362 . S
C2154 H2146 0.930 . S
C2154 C2153 1.362 . S
C2154 C2157 1.409 . S
C2155 H2147 0.930 . S
C2155 C2156 1.355 . S
C2155 C2157 1.415 . S
C2156 C2155 1.355 . S
C2156 C2158 1.419 . S
C2157 C2152 1.425 . S
C2157 C2154 1.409 . S
C2157 C2155 1.415 . S
C2158 H2148 0.930 . S
C2158 C2156 1.419 . S
C2158 C2159 1.362 . S
C2159 H2149 0.930 . S
C2159 C2152 1.409 . S
C2159 C2158 1.362 . S
C631 C265 1.755 . S
C636 C3 1.771 . S
C647 C17 1.772 . S
C652 C231 1.787 . S
C663 C29 1.787 . S
C668 C237 1.765 . S
C679 C257 1.772 . S
C684 C43 1.745 . S
C695 C304 1.796 . S
C700 C56 1.774 . S
C711 C75 1.740 . S
C716 C283 1.744 . S
C727 C88 1.779 . S
C732 C289 1.797 . S
C743 C101 1.764 . S
C748 C218 1.787 . S
C759 C109 1.783 . S
C764 C200 1.800 . S
C775 C121 1.767 . S
C780 C159 1.751 . S
C791 C135 1.799 . S
C796 C172 1.782 . S
C807 C185 1.750 . S
C812 C147 1.764 . S
C823 C322 1.525 . S
C828 C575 1.492 . S
C839 C537 1.503 . S
C844 C335 1.468 . S
C855 C348 1.512 . S
C860 C549 1.483 . S
C871 C569 1.534 . S
C876 C361 1.505 . S
C887 C369 1.526 . S
C892 C614 1.550 . S
C903 C595 1.538 . S
C908 C387 1.515 . S
C919 C395 1.488 . S
C924 C601 1.488 . S
C935 C530 1.502 . S
C940 C407 1.469 . S
C951 C419 1.547 . S
C956 C511 1.518 . S
C967 C473 1.481 . S
C972 C434 1.509 . S
C983 C491 1.488 . S
C988 C447 1.534 . S
C999 C497 1.493 . S
C1004 C460 1.484 . S
C1015 C341 1.194 . S
C1020 C10 1.172 . S
C1031 C18 1.195 . S
C1036 C354 1.204 . S
C1047 C36 1.196 . S
C1052 C315 1.198 . S
C1063 C44 1.213 . S
C1068 C328 1.167 . S
C1079 C57 1.159 . S
C1084 C394 1.221 . S
C1095 C408 1.217 . S
C1100 C68 1.175 . S
C1111 C368 1.177 . S
C1116 C81 1.215 . S
C1127 C380 1.169 . S
C1132 C94 1.207 . S
C1143 C472 1.189 . S
C1148 C108 1.187 . S
C1159 C122 1.216 . S
C1164 C484 1.169 . S
C1175 C504 1.215 . S
C1180 C134 1.147 . S
C1191 C148 1.167 . S
C1196 C512 1.224 . S
C1207 C166 1.201 . S
C1212 C426 1.175 . S
C1223 C179 1.155 . S
C1228 C433 1.207 . S
C1239 C446 1.159 . S
C1244 C192 1.205 . S
C1255 C459 1.187 . S
C1260 C199 1.176 . S
C1271 C211 1.219 . S
C1276 C562 1.167 . S
C1287 C224 1.221 . S
C1292 C588 1.170 . S
C1303 C608 1.192 . S
C1308 C244 1.161 . S
C1319 C523 1.204 . S
C1324 C250 1.194 . S
C1335 C264 1.201 . S
C1340 C621 1.160 . S
C1351 C538 1.220 . S
C1356 C276 1.169 . S
C1367 C296 1.188 . S
C1372 C556 1.172 . S
C1383 C303 1.214 . S
C1388 C582 1.158 . S
C1399 C374 1.844 . S
C1404 C5 1.855 . S
C1415 C382 1.804 . S
C1420 C23 1.872 . S
C1431 C400 1.816 . S
C1436 C31 1.873 . S
C1447 C49 1.864 . S
C1452 C406 1.788 . S
C1463 C317 1.824 . S
C1468 C62 1.865 . S
C1479 C330 1.778 . S
C1484 C69 1.874 . S
C1495 C82 1.849 . S
C1500 C343 1.834 . S
C1511 C356 1.837 . S
C1516 C95 1.849 . S
C1527 C107 1.862 . S
C1532 C498 1.808 . S
C1543 C127 1.874 . S
C1548 C510 1.781 . S
C1559 C478 1.824 . S
C1564 C133 1.868 . S
C1575 C153 1.850 . S
C1580 C486 1.820 . S
C1591 C452 1.806 . S
C1596 C161 1.873 . S
C1607 C174 1.855 . S
C1612 C465 1.846 . S
C1623 C187 1.852 . S
C1628 C420 1.841 . S
C1639 C198 1.875 . S
C1644 C439 1.793 . S
C1655 C590 1.815 . S
C1660 C212 1.851 . S
C1671 C225 1.848 . S
C1676 C564 1.824 . S
C1687 C239 1.878 . S
C1692 C576 1.794 . S
C1703 C251 1.872 . S
C1708 C536 1.802 . S
C1719 C550 1.802 . S
C1724 C263 1.863 . S
C1735 C525 1.828 . S
C1740 C277 1.860 . S
C1751 C615 1.787 . S
C1756 C291 1.874 . S
C1767 C302 1.858 . S
C1772 C602 1.838 . S
C1783 C205 1.663 . S
C1788 C4 1.659 . S
C1799 C16 1.660 . S
C1804 C160 1.659 . S
C1815 C173 1.636 . S
C1820 C30 1.636 . S
C1831 C186 1.655 . S
C1836 C42 1.644 . S
C1847 C120 1.660 . S
C1852 C55 1.652 . S
C1863 C70 1.667 . S
C1868 C140 1.666 . S
C1879 C83 1.691 . S
C1884 C146 1.688 . S
C1895 C114 1.634 . S
C1900 C96 1.626 . S
C1911 C213 1.656 . S
C1916 C270 1.656 . S
C1927 C309 1.682 . S
C1932 C226 1.682 . S
C1943 C278 1.688 . S
C1948 C238 1.691 . S
C1959 C252 1.678 . S
C1964 C290 1.686 . S
C1975 C517 1.481 . S
C1980 C316 1.473 . S
C1991 C471 1.417 . S
C1996 C329 1.428 . S
C2007 C342 1.452 . S
C2012 C485 1.447 . S
C2023 C499 1.440 . S
C2028 C355 1.457 . S
C2039 C432 1.417 . S
C2044 C367 1.415 . S
C2055 C381 1.505 . S
C2060 C445 1.487 . S
C2071 C393 1.510 . S
C2076 C458 1.517 . S
C2087 C413 1.512 . S
C2092 C421 1.512 . S
C2103 C524 1.468 . S
C2108 C577 1.469 . S
C2119 C616 1.421 . S
C2124 C543 1.428 . S
C2135 C589 1.538 . S
C2140 C551 1.531 . S
C2151 C603 1.530 . S
C2156 C563 1.539 . S
