# Generated by pormake.
# Topology nov, (5)-cn, num edge types: 1
# Building blocks:
#     Node 0, Type 0, BuildingBlock: XOMCOT_clean_sbu_0, # of connection points: 5
#     Node 1, Type 0, BuildingBlock: XOMCOT_clean_sbu_0, # of connection points: 5
#     Node 2, Type 0, BuildingBlock: XOMCOT_clean_sbu_0, # of connection points: 5
#     Node 3, Type 0, BuildingBlock: XOMCOT_clean_sbu_0, # of connection points: 5
#     Node 4, Type 0, BuildingBlock: XOMCOT_clean_sbu_0, # of connection points: 5
#     Node 5, Type 0, BuildingBlock: XOMCOT_clean_sbu_0, # of connection points: 5
#     Node 6, Type 0, BuildingBlock: XOMCOT_clean_sbu_0, # of connection points: 5
#     Node 7, Type 0, BuildingBlock: XOMCOT_clean_sbu_0, # of connection points: 5
#     Edge 8, Type (0, 0), BuildingBlock: KIFKEQ_clean_linker_1, # of connection points: 2
#     Edge 9, Type (0, 0), BuildingBlock: KIFKEQ_clean_linker_1, # of connection points: 2
#     Edge 10, Type (0, 0), BuildingBlock: KIFKEQ_clean_linker_1, # of connection points: 2
#     Edge 11, Type (0, 0), BuildingBlock: KIFKEQ_clean_linker_1, # of connection points: 2
#     Edge 12, Type (0, 0), BuildingBlock: KIFKEQ_clean_linker_1, # of connection points: 2
#     Edge 13, Type (0, 0), BuildingBlock: KIFKEQ_clean_linker_1, # of connection points: 2
#     Edge 14, Type (0, 0), BuildingBlock: KIFKEQ_clean_linker_1, # of connection points: 2
#     Edge 15, Type (0, 0), BuildingBlock: KIFKEQ_clean_linker_1, # of connection points: 2
#     Edge 16, Type (0, 0), BuildingBlock: KIFKEQ_clean_linker_1, # of connection points: 2
#     Edge 17, Type (0, 0), BuildingBlock: KIFKEQ_clean_linker_1, # of connection points: 2
#     Edge 18, Type (0, 0), BuildingBlock: KIFKEQ_clean_linker_1, # of connection points: 2
#     Edge 19, Type (0, 0), BuildingBlock: KIFKEQ_clean_linker_1, # of connection points: 2
#     Edge 20, Type (0, 0), BuildingBlock: KIFKEQ_clean_linker_1, # of connection points: 2
#     Edge 21, Type (0, 0), BuildingBlock: KIFKEQ_clean_linker_1, # of connection points: 2
#     Edge 22, Type (0, 0), BuildingBlock: KIFKEQ_clean_linker_1, # of connection points: 2
#     Edge 23, Type (0, 0), BuildingBlock: KIFKEQ_clean_linker_1, # of connection points: 2
#     Edge 24, Type (0, 0), BuildingBlock: KIFKEQ_clean_linker_1, # of connection points: 2
#     Edge 25, Type (0, 0), BuildingBlock: KIFKEQ_clean_linker_1, # of connection points: 2
#     Edge 26, Type (0, 0), BuildingBlock: KIFKEQ_clean_linker_1, # of connection points: 2
#     Edge 27, Type (0, 0), BuildingBlock: KIFKEQ_clean_linker_1, # of connection points: 2
# Relax obj value: 0.158
# Max RMSD: 0.189
# Mean RMSD: 0.189
data_MOF--net-nov--node1-XOMCOT_clean_sbu_0--edge1-KIFKEQ_clean_linker_1
_symmetry_space_group_name_H-M    P1
_symmetry_Int_Tables_number       1
_symmetry_cell_setting            triclinic
loop_
_symmetry_equiv_pos_as_xyz
'x, y, z'
_cell_length_a     27.44735
_cell_length_b     54.279703
_cell_length_c     28.681967
_cell_angle_alpha  89.944153
_cell_angle_beta   90.178195
_cell_angle_gamma 90.21762
loop_
_atom_site_label
_atom_site_type_symbol
_atom_site_fract_x
_atom_site_fract_y
_atom_site_fract_z
_atom_type_partial_charge
Co0 Co 0.03718 0.16407 0.15623 0.0
C1 C 0.04137 0.11671 0.10353 0.0
C2 C 0.08331 0.11639 0.16692 0.0
C3 C 0.08473 0.09326 0.14767 0.0
N4 N 0.05623 0.13108 0.13939 0.0
N5 N 0.05828 0.0934 0.10798 0.0
H6 H 0.01727 0.12287 0.07597 0.0
H7 H 0.09958 0.12193 0.19968 0.0
C8 C 0.13118 0.18967 0.18224 0.0
O9 O 0.11463 0.20978 0.16227 0.0
N10 N 0.01794 0.19693 0.17588 0.0
C11 C 0.99031 0.21391 0.15395 0.0
C12 C 0.98294 0.23347 0.18365 0.0
C13 C 0.02571 0.2062 0.21897 0.0
N14 N 1.0053 0.22862 0.22457 0.0
C15 C 0.01608 0.18108 0.06412 0.0
C16 C 0.10998 0.191 0.03549 0.0
C17 C 0.07087 0.19959 0.00832 0.0
C18 C 0.02364 0.19322 0.02203 0.0
C19 C 0.10063 0.17862 0.07767 0.0
N20 N 0.05392 0.17582 0.09349 0.0
H21 H 0.97901 0.17718 0.07392 0.0
H22 H 0.13108 0.17188 0.09772 0.0
H23 H 0.97499 0.21231 0.1195 0.0
H24 H 0.04515 0.19635 0.24601 0.0
O25 O 0.96985 0.15596 0.14466 0.0
O26 O 1.00661 0.15111 0.21261 0.0
O27 O 0.10548 0.16992 0.18169 0.0
C28 C 0.96666 0.14957 0.18806 0.0
H29 H 0.10357 0.07746 0.16196 0.0
H30 H 0.9625 0.24995 0.1756 0.0
H31 H 0.14727 0.19461 0.02526 0.0
H32 H 0.99235 0.19825 1.001 0.0
Co33 Co 0.56567 0.87501 0.6563 0.0
C34 C 0.56322 0.92463 0.60748 0.0
C35 C 0.51796 0.92225 0.66796 0.0
C36 C 0.51639 0.94592 0.65168 0.0
N37 N 0.54601 0.90845 0.6397 0.0
N38 N 0.54508 0.94761 0.61377 0.0
H39 H 0.59079 0.92038 0.58209 0.0
H40 H 0.5012 0.91581 0.6998 0.0
C41 C 0.45806 0.87382 0.6645 0.0
O42 O 0.45746 0.88382 0.62273 0.0
N43 N 0.58566 0.84249 0.67591 0.0
C44 C 0.61913 0.82793 0.65568 0.0
C45 C 0.62722 0.80787 0.68424 0.0
C46 C 0.57377 0.83121 0.71623 0.0
N47 N 0.59863 0.81 0.7222 0.0
C48 C 0.56824 0.86838 0.55662 0.0
C49 C 0.50684 0.8279 0.55453 0.0
C50 C 0.52944 0.83539 0.51312 0.0
C51 C 0.5602 0.85607 0.51448 0.0
C52 C 0.51598 0.84067 0.59586 0.0
N53 N 0.54553 0.86103 0.59657 0.0
H54 H 0.59508 0.88284 0.55743 0.0
H55 H 0.50101 0.83337 0.62782 0.0
H56 H 0.63737 0.83199 0.62318 0.0
H57 H 0.54911 0.83893 0.74167 0.0
O58 O 0.63208 0.88265 0.64078 0.0
O59 O 0.59875 0.88861 0.71024 0.0
O60 O 0.49886 0.86882 0.68405 0.0
C61 C 0.63729 0.8897 0.68378 0.0
H62 H 0.49611 0.96082 0.66729 0.0
H63 H 0.65249 0.793 0.67781 0.0
H64 H 0.48422 0.81152 0.55561 0.0
H65 H 0.57904 0.86232 0.4835 0.0
Co66 Co 0.04044 0.87333 0.85688 0.0
C67 C 0.04749 0.92152 0.90771 0.0
C68 C 0.08359 0.92136 0.84143 0.0
C69 C 0.0873 0.94454 0.85998 0.0
N70 N 0.05893 0.90687 0.87124 0.0
N71 N 0.06479 0.94481 0.90181 0.0
H72 H 0.02654 0.91533 0.93739 0.0
H73 H 0.09656 0.91564 0.80758 0.0
C74 C 0.134 0.84921 0.82421 0.0
O75 O 0.11966 0.82763 0.83986 0.0
N76 N 0.02178 0.83989 0.83998 0.0
C77 C 1.00196 0.822 0.86658 0.0
C78 C 0.99281 0.8017 0.83899 0.0
C79 C 0.02332 0.83036 0.79647 0.0
N80 N 1.0063 0.80695 0.79486 0.0
C81 C 0.02267 0.86142 0.95245 0.0
C82 C 0.11409 0.84416 0.97526 0.0
C83 C 0.07548 0.83986 1.00629 0.0
C84 C 0.03005 0.85003 0.99539 0.0
C85 C 0.10527 0.85624 0.93276 0.0
N86 N 0.05901 0.86282 0.92005 0.0
H87 H 0.9865 0.86784 0.94473 0.0
H88 H 0.13584 0.85976 0.91042 0.0
H89 H 0.99383 0.82341 0.90321 0.0
H90 H 0.03762 0.84031 0.76678 0.0
O91 O 0.97307 0.88083 0.86859 0.0
O92 O 1.00899 0.88505 0.80018 0.0
O93 O 0.10781 0.86835 0.83045 0.0
C94 C 0.96949 0.88676 0.82495 0.0
H95 H 0.10396 0.96017 0.84281 0.0
H96 H 0.97658 0.78456 0.85054 0.0
H97 H 0.1504 0.83749 0.98273 0.0
H98 H 0.99964 0.84851 0.0192 0.0
Co99 Co 0.56239 0.16596 0.35619 0.0
C100 C 0.56103 0.11903 0.41019 0.0
C101 C 0.50217 0.12118 0.36081 0.0
C102 C 0.49818 0.09931 0.38465 0.0
N103 N 0.54119 0.13371 0.37709 0.0
N104 N 0.53522 0.09794 0.41538 0.0
H105 H 0.59298 0.1238 0.43053 0.0
H106 H 0.47808 0.12732 0.33337 0.0
C107 C 0.46983 0.19138 0.32627 0.0
O108 O 0.48603 0.21165 0.34611 0.0
N109 N 0.5838 0.19804 0.3334 0.0
C110 C 0.61321 0.21495 0.35365 0.0
C111 C 0.62136 0.23389 0.32269 0.0
C112 C 0.57601 0.20668 0.2898 0.0
N113 N 0.5979 0.2287 0.28253 0.0
C114 C 0.58012 0.1864 0.44653 0.0
C115 C 0.48462 0.19245 0.47369 0.0
C116 C 0.52189 0.20191 0.50232 0.0
C117 C 0.5702 0.19807 0.4886 0.0
C118 C 0.49637 0.1808 0.43151 0.0
N119 N 0.54364 0.17959 0.41672 0.0
H120 H 0.61773 0.18333 0.43774 0.0
H121 H 0.46731 0.17283 0.41104 0.0
H122 H 0.62957 0.21364 0.38766 0.0
H123 H 0.55444 0.19698 0.264 0.0
O124 O 0.62901 0.15791 0.37089 0.0
O125 O 0.59407 0.15102 0.30257 0.0
O126 O 0.49542 0.17172 0.32782 0.0
C127 C 0.63324 0.15016 0.32836 0.0
H128 H 0.47046 0.08531 0.37956 0.0
H129 H 0.64412 0.24989 0.32887 0.0
H130 H 0.44677 0.19391 0.48384 0.0
H131 H 0.6005 0.2046 0.5095 0.0
Co132 Co 0.53473 0.66528 0.15386 0.0
C133 C 0.53055 0.61364 0.11578 0.0
C134 C 0.60353 0.62625 0.1287 0.0
C135 C 0.60559 0.60247 0.11304 0.0
N136 N 0.55656 0.63338 0.13107 0.0
N137 N 0.55987 0.59445 0.10507 0.0
H138 H 0.49124 0.61308 0.11315 0.0
H139 H 0.63478 0.63745 0.13724 0.0
C140 C 0.62666 0.69089 0.18774 0.0
O141 O 0.60993 0.71186 0.17147 0.0
N142 N 0.51312 0.69693 0.17779 0.0
C143 C 0.48529 0.71428 0.15716 0.0
C144 C 0.47722 0.73303 0.18843 0.0
C145 C 0.52013 0.7051 0.22179 0.0
N146 N 0.49941 0.7273 0.22898 0.0
C147 C 0.51537 0.68516 0.06335 0.0
C148 C 0.60987 0.69507 0.03667 0.0
C149 C 0.57165 0.70231 0.007 0.0
C150 C 0.52394 0.69677 0.02082 0.0
C151 C 0.59955 0.68358 0.07943 0.0
N152 N 0.55248 0.67991 0.09356 0.0
H153 H 0.47812 0.6811 0.07227 0.0
H154 H 0.62974 0.67755 0.10051 0.0
H155 H 0.47079 0.71358 0.12229 0.0
H156 H 0.54004 0.69488 0.24801 0.0
O157 O 0.46762 0.6571 0.14008 0.0
O158 O 0.50378 0.64966 0.20747 0.0
O159 O 0.60194 0.67101 0.18241 0.0
C160 C 0.46392 0.64925 0.18266 0.0
H161 H 0.63845 0.59197 0.1071 0.0
H162 H 0.45708 0.74975 0.18152 0.0
H163 H 0.64749 0.69804 0.02684 0.0
H164 H 0.49291 0.70186 0.99956 0.0
Co165 Co 0.04859 0.37381 0.65856 0.0
C166 C 0.04216 0.4224 0.60653 0.0
C167 C 1.00769 0.42241 0.67345 0.0
C168 C 1.0064 0.44595 0.65596 0.0
N169 N 0.02974 0.40743 0.64253 0.0
N170 N 0.02805 0.44594 0.61395 0.0
H171 H 0.06332 0.41692 0.57678 0.0
H172 H 0.99505 0.41672 0.70749 0.0
C173 C 0.94071 0.3741 0.66535 0.0
O174 O 0.94099 0.3854 0.6248 0.0
N175 N 0.06774 0.34103 0.67737 0.0
C176 C 0.09612 0.32505 0.65411 0.0
C177 C 0.1054 0.30513 0.6827 0.0
C178 C 0.06058 0.33086 0.71971 0.0
N179 N 0.08327 0.3089 0.72408 0.0
C180 C 0.05923 0.36684 0.55975 0.0
C181 C 0.99194 0.3291 0.55139 0.0
C182 C 0.02005 0.33546 0.51242 0.0
C183 C 0.05365 0.35484 0.51696 0.0
C184 C 0.99858 0.34163 0.59351 0.0
N185 N 0.03112 0.3607 0.59724 0.0
H186 H 0.08855 0.37994 0.5633 0.0
H187 H 0.97963 0.33481 0.62382 0.0
H188 H 0.1104 0.32803 0.61946 0.0
H189 H 0.03997 0.33972 0.74703 0.0
O190 O 0.1158 0.38191 0.64643 0.0
O191 O 0.07898 0.38652 0.71461 0.0
O192 O 0.98098 0.3675 0.68409 0.0
C193 C 0.11859 0.38843 0.68995 0.0
H194 H 0.99145 0.46197 0.67314 0.0
H195 H 0.12834 0.2896 0.67428 0.0
H196 H 0.96693 0.31364 0.55024 0.0
H197 H 0.07672 0.36024 0.48812 0.0
Co198 Co 0.52161 0.37531 0.85491 0.0
C199 C 0.52814 0.42063 0.9132 0.0
C200 C 0.57567 0.4217 0.85379 0.0
C201 C 0.58144 0.44322 0.87833 0.0
N202 N 0.5428 0.40742 0.87585 0.0
N203 N 0.55158 0.44258 0.91554 0.0
H204 H 0.50148 0.41426 0.93823 0.0
H205 H 0.59385 0.41696 0.82169 0.0
C206 C 0.61613 0.35085 0.82601 0.0
O207 O 0.60242 0.32994 0.84513 0.0
N208 N 0.49998 0.34329 0.83196 0.0
C209 C 0.46393 0.32877 0.84864 0.0
C210 C 0.4553 0.30989 0.81766 0.0
C211 C 0.51151 0.33332 0.79022 0.0
N212 N 0.48536 0.31274 0.78104 0.0
C213 C 0.50219 0.35398 0.94412 0.0
C214 C 0.59744 0.3467 0.97183 0.0
C215 C 0.55977 0.33616 0.9983 0.0
C216 C 0.51162 0.34099 0.985 0.0
C217 C 0.58618 0.35978 0.93099 0.0
N218 N 0.5391 0.36144 0.91559 0.0
H219 H 0.46479 0.35768 0.93524 0.0
H220 H 0.61551 0.36818 0.91164 0.0
H221 H 0.44305 0.33209 0.87969 0.0
H222 H 0.53704 0.34156 0.76607 0.0
O223 O 0.45493 0.38403 0.86786 0.0
O224 O 0.49221 0.39008 0.80032 0.0
O225 O 0.58871 0.3698 0.82813 0.0
C226 C 0.45257 0.39163 0.82495 0.0
H227 H 0.60523 0.45841 0.86915 0.0
H228 H 0.42843 0.29538 0.82149 0.0
H229 H 0.63523 0.34428 0.98169 0.0
H230 H 0.48125 0.33456 1.00583 0.0
Co231 Co 0.06022 0.6663 0.36026 0.0
C232 C 0.05376 0.61933 0.41473 0.0
C233 C 0.01872 0.61755 0.34768 0.0
C234 C 0.01679 0.59457 0.36765 0.0
N235 N 0.04196 0.63304 0.37695 0.0
N236 N 0.03875 0.59568 0.40967 0.0
H237 H 0.07448 0.62616 0.4442 0.0
H238 H 1.00556 0.62248 0.31334 0.0
C239 C 0.96705 0.69092 0.32883 0.0
O240 O 0.98389 0.71199 0.34469 0.0
N241 N 0.07888 0.69941 0.34091 0.0
C242 C 0.0972 0.71843 0.36566 0.0
C243 C 0.10561 0.73792 0.3359 0.0
C244 C 0.07745 0.70754 0.2964 0.0
N245 N 0.09313 0.73111 0.29216 0.0
C246 C 0.07853 0.68233 0.45381 0.0
C247 C 0.98365 0.69179 0.4796 0.0
C248 C 0.02153 0.69859 0.51006 0.0
C249 C 0.06933 0.69295 0.49712 0.0
C250 C 0.99451 0.68084 0.43652 0.0
N251 N 0.04178 0.67778 0.42267 0.0
H252 H 0.11597 0.6791 0.44452 0.0
H253 H 0.96464 0.67497 0.41473 0.0
H254 H 0.10423 0.71863 0.40258 0.0
H255 H 0.06475 0.6962 0.26786 0.0
O256 O 0.12802 0.659 0.37242 0.0
O257 O 0.09182 0.65362 0.30437 0.0
O258 O 0.99193 0.67115 0.33382 0.0
C259 C 0.13167 0.65256 0.32905 0.0
H260 H 1.00093 0.57817 0.3523 0.0
H261 H 0.11928 0.7558 0.34624 0.0
H262 H 0.94598 0.69488 0.48896 0.0
H263 H 0.09989 0.69767 0.51942 0.0
H264 H 0.11766 0.98735 0.89942 0.0
H265 H 1.00081 0.95106 0.97386 0.0
H266 H 0.10783 0.02355 0.9474 0.0
H267 H 0.99222 0.98752 0.02319 0.0
H268 H 0.04708 0.04593 0.13426 0.0
H269 H 0.0433 1.00982 0.08367 0.0
H270 H 0.04707 0.05724 0.96277 0.0
H271 H 0.05115 0.09346 0.01375 0.0
C272 C 0.08938 0.98703 0.92553 0.0
C273 C 0.05964 0.96607 0.93201 0.0
C274 C 0.08382 1.00797 0.95318 0.0
C275 C 0.04887 1.00856 0.9887 0.0
C276 C 0.01951 0.9876 0.99599 0.0
C277 C 0.02464 0.96663 0.96781 0.0
C278 C 0.04672 0.04863 0.09687 0.0
C279 C 0.05 0.0725 0.0779 0.0
C280 C 0.04409 0.02796 0.06791 0.0
C281 C 0.04524 0.03065 0.01924 0.0
C282 C 0.04659 0.05458 1.0002 0.0
C283 C 0.04857 0.07532 0.02926 0.0
H284 H 0.61853 0.07218 0.42763 0.0
H285 H 0.46985 0.07828 0.47373 0.0
H286 H 0.62893 0.0351 0.47664 0.0
H287 H 0.48034 0.04198 0.52346 0.0
H288 H 0.53712 0.99487 0.64374 0.0
H289 H 0.54052 0.03204 0.59666 0.0
H290 H 0.57991 0.98902 0.47637 0.0
H291 H 0.57456 0.95119 0.52321 0.0
C292 C 0.58853 0.06579 0.44893 0.0
C293 C 0.5435 0.07799 0.44737 0.0
C294 C 0.59427 0.04458 0.47649 0.0
C295 C 0.55539 0.03577 0.50371 0.0
C296 C 0.51091 0.04846 0.50294 0.0
C297 C 0.50488 0.06916 0.47466 0.0
C298 C 0.54632 0.9931 0.60727 0.0
C299 C 0.55431 0.9698 0.58711 0.0
C300 C 0.5487 1.01451 0.58045 0.0
C301 C 0.56009 1.01334 0.53292 0.0
C302 C 0.57124 0.99037 0.51309 0.0
C303 C 0.56819 0.96875 0.53992 0.0
H304 H 0.60274 0.55172 0.12811 0.0
H305 H 0.48929 0.58265 0.04207 0.0
H306 H 0.59419 0.51238 0.08807 0.0
H307 H 0.48057 0.54294 1.00145 0.0
H308 H 0.46867 0.45987 0.95513 0.0
H309 H 0.46211 0.49549 0.00808 0.0
H310 H 0.61859 0.50391 1.00532 0.0
H311 H 0.62475 0.46883 0.95291 0.0
C312 C 0.57541 0.54994 0.101 0.0
C313 C 0.54733 0.57035 0.08757 0.0
C314 C 0.57049 0.52742 0.0781 0.0
C315 C 0.53735 0.5247 0.04106 0.0
C316 C 0.50638 0.5445 0.02995 0.0
C317 C 0.51132 0.5672 0.05311 0.0
C318 C 0.50148 0.46922 0.9666 0.0
C319 C 0.54723 0.46169 0.95004 0.0
C320 C 0.49775 0.48965 0.99647 0.0
C321 C 0.53985 0.50243 0.01098 0.0
C322 C 0.58551 0.49432 0.99527 0.0
C323 C 0.58909 0.47432 0.96505 0.0
H324 H 0.05456 0.49154 0.64179 0.0
H325 H 0.01948 0.44837 0.52026 0.0
H326 H 0.06406 0.52816 0.59342 0.0
H327 H 0.02594 0.48511 0.47161 0.0
H328 H 0.07016 0.55049 0.38662 0.0
H329 H 0.0741 0.51425 0.43657 0.0
H330 H 0.02248 0.55791 0.55245 0.0
H331 H 0.02185 0.59439 0.50238 0.0
C332 C 0.04861 0.49 0.60457 0.0
C333 C 0.0362 0.46717 0.58471 0.0
C334 C 0.05368 0.51104 0.57674 0.0
C335 C 0.04546 0.50994 0.52828 0.0
C336 C 0.03359 0.48686 0.50849 0.0
C337 C 0.02958 0.46571 0.53631 0.0
C338 C 0.06037 0.55226 0.42301 0.0
C339 C 0.04567 0.57514 0.44076 0.0
C340 C 0.06205 0.53144 0.45167 0.0
C341 C 0.04786 0.53276 0.49875 0.0
C342 C 0.03438 0.55598 0.51671 0.0
C343 C 0.03381 0.57697 0.48812 0.0
H344 H 0.42546 0.15355 0.27858 0.0
H345 H 0.4021 0.22827 0.32482 0.0
H346 H 0.34435 0.15295 0.2436 0.0
H347 H 0.32073 0.22749 0.29087 0.0
H348 H 0.19747 0.22744 0.18429 0.0
H349 H 0.279 0.22753 0.21782 0.0
H350 H 0.25903 0.15213 0.26239 0.0
H351 H 0.17773 0.15184 0.22766 0.0
C352 C 0.40299 0.16982 0.28151 0.0
C353 C 0.42048 0.19096 0.30458 0.0
C354 C 0.35625 0.16943 0.26164 0.0
C355 C 0.32571 0.19017 0.26431 0.0
C356 C 0.34332 0.21129 0.28741 0.0
C357 C 0.39004 0.21169 0.30716 0.0
C358 C 0.21038 0.21084 0.20119 0.0
C359 C 0.18086 0.18963 0.20321 0.0
C360 C 0.25718 0.21094 0.22075 0.0
C361 C 0.27583 0.18987 0.24305 0.0
C362 C 0.24628 0.16861 0.24501 0.0
C363 C 0.19944 0.16849 0.22532 0.0
H364 H 0.36739 0.88761 0.63649 0.0
H365 H 0.44288 0.84909 0.74697 0.0
H366 H 0.29032 0.88068 0.67586 0.0
H367 H 0.36505 0.84229 0.78676 0.0
H368 H 0.20554 0.81433 0.81384 0.0
H369 H 0.28497 0.81945 0.77632 0.0
H370 H 0.25152 0.89568 0.74798 0.0
H371 H 0.17255 0.89065 0.78485 0.0
C372 C 0.3676 0.87763 0.66921 0.0
C373 C 0.41139 0.86901 0.68869 0.0
C374 C 0.32335 0.87378 0.6919 0.0
C375 C 0.32163 0.8611 0.73457 0.0
C376 C 0.36525 0.85203 0.75379 0.0
C377 C 0.40978 0.85605 0.73116 0.0
C378 C 0.21519 0.83218 0.79962 0.0
C379 C 0.18252 0.85204 0.8022 0.0
C380 C 0.26078 0.83513 0.7784 0.0
C381 C 0.27436 0.85793 0.759 0.0
C382 C 0.24186 0.87779 0.76203 0.0
C383 C 0.1966 0.8749 0.78339 0.0
H384 H 0.88114 0.8835 0.86661 0.0
H385 H 0.94998 0.90435 0.73719 0.0
H386 H 0.80167 0.88931 0.83164 0.0
H387 H 0.86988 0.91146 0.70236 0.0
H388 H 0.72439 0.88332 0.64099 0.0
H389 H 0.80498 0.88747 0.67476 0.0
H390 H 0.74152 0.91533 0.80203 0.0
H391 H 0.66025 0.90985 0.76864 0.0
C392 C 0.87927 0.88987 0.83084 0.0
C393 C 0.92181 0.89323 0.80447 0.0
C394 C 0.8335 0.89344 0.81081 0.0
C395 C 0.82902 0.90081 0.76399 0.0
C396 C 0.87181 0.90533 0.73824 0.0
C397 C 0.91776 0.90141 0.7582 0.0
C398 C 0.72761 0.89066 0.67598 0.0
C399 C 0.68596 0.89599 0.7024 0.0
C400 C 0.77404 0.89324 0.69531 0.0
C401 C 0.78005 0.90155 0.7414 0.0
C402 C 0.73832 0.90833 0.76682 0.0
C403 C 0.69172 0.90537 0.74764 0.0
H404 H 0.6553 0.13011 0.24306 0.0
H405 H 0.72098 0.15575 0.37116 0.0
H406 H 0.73628 0.12388 0.21006 0.0
H407 H 0.80128 0.15093 0.33781 0.0
H408 H 0.946 0.13299 0.2766 0.0
H409 H 0.86542 0.12701 0.31107 0.0
H410 H 0.79863 0.14806 0.18024 0.0
H411 H 0.87838 0.15266 0.14571 0.0
C412 C 0.68702 0.13425 0.26425 0.0
C413 C 0.68168 0.14355 0.30957 0.0
C414 C 0.73354 0.1309 0.24527 0.0
C415 C 0.77577 0.13718 0.27092 0.0
C416 C 0.77008 0.14551 0.31699 0.0
C417 C 0.72374 0.14848 0.33611 0.0
C418 C 0.91397 0.13589 0.25515 0.0
C419 C 0.91863 0.1434 0.20854 0.0
C420 C 0.86768 0.13266 0.27494 0.0
C421 C 0.82505 0.13723 0.2487 0.0
C422 C 0.83014 0.14391 0.20157 0.0
C423 C 0.87619 0.14678 0.18175 0.0
H424 H 0.91957 0.72797 0.284 0.0
H425 H 0.90287 0.65206 0.3257 0.0
H426 H 0.83858 0.72738 0.24972 0.0
H427 H 0.82019 0.65171 0.29422 0.0
H428 H 0.68778 0.65127 0.19811 0.0
H429 H 0.7698 0.65087 0.23036 0.0
H430 H 0.75697 0.72831 0.26356 0.0
H431 H 0.67645 0.72888 0.2282 0.0
C432 C 0.89821 0.71119 0.28628 0.0
C433 C 0.91764 0.69008 0.3076 0.0
C434 C 0.85132 0.71087 0.26695 0.0
C435 C 0.82182 0.68957 0.26933 0.0
C436 C 0.84157 0.6684 0.29076 0.0
C437 C 0.88903 0.66858 0.30916 0.0
C438 C 0.70261 0.66822 0.21209 0.0
C439 C 0.67569 0.69018 0.20996 0.0
C440 C 0.74976 0.66799 0.23111 0.0
C441 C 0.77096 0.6896 0.24959 0.0
C442 C 0.74309 0.71138 0.2486 0.0
C443 C 0.69646 0.71172 0.22861 0.0
H444 H 0.84973 0.38579 0.63432 0.0
H445 H 0.92475 0.35062 0.749 0.0
H446 H 0.7722 0.37867 0.67277 0.0
H447 H 0.84662 0.34382 0.78802 0.0
H448 H 0.6893 0.31641 0.82085 0.0
H449 H 0.76824 0.32069 0.78198 0.0
H450 H 0.73062 0.39478 0.74078 0.0
H451 H 0.65211 0.39044 0.77854 0.0
C452 C 0.84976 0.37653 0.66779 0.0
C453 C 0.89359 0.36893 0.68868 0.0
C454 C 0.80521 0.37256 0.68997 0.0
C455 C 0.80319 0.36087 0.73368 0.0
C456 C 0.84689 0.35274 0.75422 0.0
C457 C 0.89166 0.35677 0.73199 0.0
C458 C 0.69791 0.33358 0.80341 0.0
C459 C 0.66425 0.35306 0.80282 0.0
C460 C 0.74324 0.33608 0.78139 0.0
C461 C 0.75566 0.35803 0.75806 0.0
C462 C 0.722 0.37748 0.75776 0.0
C463 C 0.67699 0.37503 0.77978 0.0
H464 H 0.42617 0.38886 0.7337 0.0
H465 H 0.37266 0.40942 0.86942 0.0
H466 H 0.34461 0.39281 0.70154 0.0
H467 H 0.29126 0.41497 0.83696 0.0
H468 H 0.14615 0.38429 0.78076 0.0
H469 H 0.22741 0.39011 0.81294 0.0
H470 H 0.27799 0.41569 0.67848 0.0
H471 H 0.19714 0.40827 0.64596 0.0
C472 C 0.39712 0.39502 0.75631 0.0
C473 C 0.40554 0.39865 0.80405 0.0
C474 C 0.35019 0.39741 0.73788 0.0
C475 C 0.31078 0.40397 0.76666 0.0
C476 C 0.32021 0.40923 0.8139 0.0
C477 C 0.36696 0.40631 0.83249 0.0
C478 C 0.17456 0.3915 0.75837 0.0
C479 C 0.1656 0.39563 0.71087 0.0
C480 C 0.22125 0.395 0.77682 0.0
C481 C 0.25982 0.40321 0.74833 0.0
C482 C 0.24976 0.40874 0.70131 0.0
C483 C 0.20332 0.4047 0.68268 0.0
H484 H 0.2209 0.65763 0.36966 0.0
H485 H 0.15146 0.6345 0.2417 0.0
H486 H 0.30033 0.65263 0.33419 0.0
H487 H 0.23137 0.62823 0.20647 0.0
H488 H 0.37538 0.65429 0.14092 0.0
H489 H 0.29558 0.65128 0.17636 0.0
H490 H 0.36199 0.62748 0.30561 0.0
H491 H 0.44251 0.63176 0.27032 0.0
C492 C 0.22263 0.65096 0.33412 0.0
C493 C 0.17976 0.64663 0.30841 0.0
C494 C 0.26844 0.64789 0.31376 0.0
C495 C 0.27282 0.64008 0.26717 0.0
C496 C 0.22974 0.63475 0.24208 0.0
C497 C 0.18379 0.63815 0.26235 0.0
C498 C 0.37303 0.64808 0.17675 0.0
C499 C 0.41546 0.64342 0.20287 0.0
C500 C 0.32696 0.64619 0.19713 0.0
C501 C 0.3218 0.63929 0.24418 0.0
C502 C 0.3643 0.63338 0.26962 0.0
C503 C 0.41057 0.63557 0.24929 0.0
H504 H 0.09803 0.25943 0.72752 0.0
H505 H 0.07514 0.32328 0.81431 0.0
H506 H 0.10009 0.23331 0.79689 0.0
H507 H 0.07736 0.2973 0.88339 0.0
H508 H 0.01932 0.24071 0.98705 0.0
H509 H 0.02556 0.26683 0.91868 0.0
H510 H 0.14557 0.22302 0.8686 0.0
H511 H 0.13819 0.19614 0.93716 0.0
C512 C 0.09392 0.26795 0.76136 0.0
C513 C 0.08581 0.29346 0.76515 0.0
C514 C 0.09527 0.25297 0.80118 0.0
C515 C 0.08857 0.26314 0.84578 0.0
C516 C 0.08168 0.28874 0.84957 0.0
C517 C 0.08025 0.30367 0.80985 0.0
C518 C 0.04695 0.2365 0.9614 0.0
C519 C 0.07788 0.21612 0.96734 0.0
C520 C 0.05093 0.25171 0.92237 0.0
C521 C 0.08612 0.24711 0.88803 0.0
C522 C 0.11775 0.22695 0.89418 0.0
C523 C 0.11385 0.21169 0.93362 0.0
H524 H 0.6 0.82279 0.45037 0.0
H525 H 0.44635 0.81398 0.47839 0.0
H526 H 0.59172 0.79688 0.38147 0.0
H527 H 0.43842 0.7873 0.41031 0.0
H528 H 0.43433 0.76151 0.25773 0.0
H529 H 0.44127 0.78842 0.32543 0.0
H530 H 0.57736 0.75374 0.36268 0.0
H531 H 0.57127 0.72746 0.29406 0.0
C532 C 0.56434 0.81551 0.44162 0.0
C533 C 0.52379 0.82054 0.46985 0.0
C534 C 0.55974 0.80036 0.40246 0.0
C535 C 0.51448 0.78987 0.39052 0.0
C536 C 0.47375 0.79521 0.41833 0.0
C537 C 0.47837 0.81033 0.45757 0.0
C538 C 0.46586 0.75972 0.2802 0.0
C539 C 0.50227 0.74234 0.27036 0.0
C540 C 0.4696 0.77499 0.31929 0.0
C541 C 0.50994 0.7733 0.34943 0.0
C542 C 0.54611 0.75574 0.33986 0.0
C543 C 0.5423 0.74043 0.30084 0.0
H544 H 1.00898 0.80742 0.0418 0.0
H545 H 0.15459 0.83537 0.06578 0.0
H546 H 0.01553 0.78179 0.1104 0.0
H547 H 0.16241 0.80817 0.13334 0.0
H548 H 0.13697 0.77604 0.28026 0.0
H549 H 0.13463 0.80205 0.21149 0.0
H550 H 0.05299 0.74594 0.13813 0.0
H551 H 0.05254 0.72061 0.2073 0.0
C552 C 0.04248 0.80821 0.06178 0.0
C553 C 0.08101 0.82384 0.04834 0.0
C554 C 0.04658 0.79305 0.10086 0.0
C555 C 0.08964 0.79266 0.12746 0.0
C556 C 0.12848 0.80813 0.11398 0.0
C557 C 0.12422 0.82355 0.07488 0.0
C558 C 0.11808 0.7692 0.24979 0.0
C559 C 0.09447 0.74608 0.25023 0.0
C560 C 0.11734 0.7841 0.20991 0.0
C561 C 0.09329 0.77627 0.16917 0.0
C562 C 0.07101 0.75289 0.1691 0.0
C563 C 0.07131 0.73811 0.209 0.0
H564 H 0.5659 0.30238 0.73093 0.0
H565 H 0.41151 0.28782 0.73926 0.0
H566 H 0.57174 0.2746 0.66406 0.0
H567 H 0.4173 0.25999 0.67239 0.0
H568 H 0.44856 0.23534 0.5173 0.0
H569 H 0.43752 0.26209 0.58503 0.0
H570 H 0.56135 0.22833 0.65214 0.0
H571 H 0.57155 0.20108 0.58556 0.0
C572 C 0.53319 0.29339 0.71821 0.0
C573 C 0.48832 0.2972 0.74042 0.0
C574 C 0.53656 0.27733 0.68024 0.0
C575 C 0.495 0.26501 0.66321 0.0
C576 C 0.44989 0.26926 0.6847 0.0
C577 C 0.44666 0.28504 0.72314 0.0
C578 C 0.4728 0.23322 0.54688 0.0
C579 C 0.51135 0.21621 0.54555 0.0
C580 C 0.46661 0.24866 0.58556 0.0
C581 C 0.49909 0.24756 0.62351 0.0
C582 C 0.53643 0.22996 0.62295 0.0
C583 C 0.54226 0.21437 0.58467 0.0
H584 H 0.51952 0.79866 0.77379 0.0
H585 H 0.67348 0.78466 0.76071 0.0
H586 H 0.51604 0.77117 0.84145 0.0
H587 H 0.67015 0.7573 0.82874 0.0
H588 H 0.64215 0.73721 0.98834 0.0
H589 H 0.65107 0.76226 0.91795 0.0
H590 H 0.52918 0.72431 0.85514 0.0
H591 H 0.52139 0.6985 0.92418 0.0
C592 C 0.5526 0.78975 0.78553 0.0
C593 C 0.59671 0.79373 0.76194 0.0
C594 C 0.55059 0.77392 0.82399 0.0
C595 C 0.59283 0.76206 0.84025 0.0
C596 C 0.63709 0.76625 0.81702 0.0
C597 C 0.63891 0.78174 0.77796 0.0
C598 C 0.61791 0.73376 0.9592 0.0
C599 C 0.58059 0.71596 0.96249 0.0
C600 C 0.62291 0.74824 0.91897 0.0
C601 C 0.59037 0.74545 0.88139 0.0
C602 C 0.55419 0.72717 0.88395 0.0
C603 C 0.54966 0.71246 0.92373 0.0
H604 H 0.095 0.321 0.45586 0.0
H605 H 0.93861 0.31601 0.47017 0.0
H606 H 0.09081 0.29593 0.38574 0.0
H607 H 0.93468 0.2899 0.40105 0.0
H608 H 0.94077 0.26417 0.24921 0.0
H609 H 0.94438 0.29073 0.31748 0.0
H610 H 0.07561 0.25403 0.36292 0.0
H611 H 0.07322 0.22823 0.29362 0.0
C612 C 0.05962 0.31473 0.4439 0.0
C613 C 0.0171 0.32069 0.46867 0.0
C614 C 0.05731 0.3 0.40399 0.0
C615 C 1.01245 0.29074 0.38778 0.0
C616 C 0.96983 0.29688 0.41225 0.0
C617 C 0.97213 0.31166 0.45219 0.0
C618 C 0.97069 0.26189 0.27345 0.0
C619 C 1.00676 0.24401 0.26567 0.0
C620 C 0.97243 0.27696 0.31298 0.0
C621 C 1.01029 0.27457 0.3458 0.0
C622 C 0.04624 0.25662 0.33813 0.0
C623 C 0.04452 0.24157 0.2986 0.0
H624 H 0.62964 0.34133 0.06688 0.0
H625 H 0.51254 0.29364 0.02127 0.0
H626 H 0.64323 0.31456 0.13435 0.0
H627 H 0.5247 0.26763 0.08919 0.0
H628 H 0.58456 0.21312 0.19346 0.0
H629 H 0.57989 0.23855 0.12353 0.0
H630 H 0.60315 0.30377 0.20702 0.0
H631 H 0.60812 0.27832 0.27681 0.0
C632 C 0.60696 0.32512 0.07112 0.0
C633 C 0.56972 0.31977 0.03888 0.0
C634 C 0.6144 0.30991 0.11001 0.0
C635 C 0.58496 0.28895 0.11733 0.0
C636 C 0.54843 0.28342 0.08451 0.0
C637 C 0.541 0.29857 0.04583 0.0
C638 C 0.58848 0.23287 0.19694 0.0
C639 C 0.59648 0.24364 0.24086 0.0
C640 C 0.58587 0.24748 0.15682 0.0
C641 C 0.59099 0.27325 0.1596 0.0
C642 C 0.59979 0.28398 0.20343 0.0
C643 C 0.60253 0.26936 0.24353 0.0
H644 H 0.95885 0.73709 0.52404 0.0
H645 H 0.06396 0.69163 0.59567 0.0
H646 H 0.95071 0.76261 0.59378 0.0
H647 H 0.05698 0.71746 0.66469 0.0
H648 H 1.0063 0.75689 0.79485 0.0
H649 H 1.00375 0.72963 0.72751 0.0
H650 H 1.00005 0.7928 0.63596 0.0
H651 H 1.00088 0.82009 0.70343 0.0
C652 C 0.97971 0.73233 0.55485 0.0
C653 C 1.01223 0.71237 0.55413 0.0
C654 C 0.97552 0.74715 0.59465 0.0
C655 C 1.0035 0.74227 0.63482 0.0
C656 C 0.0346 0.72173 0.6346 0.0
C657 C 0.03893 0.70701 0.59482 0.0
C658 C 1.00427 0.76502 0.76045 0.0
C659 C 1.00392 0.79078 0.75478 0.0
C660 C 1.00331 0.74934 0.72172 0.0
C661 C 1.00183 0.75896 0.67618 0.0
C662 C 1.00068 0.78471 0.67048 0.0
C663 C 1.0018 0.8004 0.70924 0.0
loop_
_geom_bond_atom_site_label_1
_geom_bond_atom_site_label_2
_geom_bond_distance
_geom_bond_site_symmetry_2
_ccdc_geom_bond_type
Co0 N4 2.148 . S
Co0 N10 2.128 . S
Co0 N20 2.194 . S
Co0 O25 2.351 1_455 S
Co0 O26 2.155 1_455 S
Co0 O27 2.096 . S
C1 N4 1.301 1_655 S
C1 N5 1.328 1_655 S
C1 H6 0.930 . S
C2 C3 1.333 . S
C2 N4 1.317 . S
C2 H7 0.930 . S
C3 C2 1.333 . S
C3 N5 1.350 . S
C3 H29 0.931 . S
N4 Co0 2.148 . S
N4 C1 1.301 1_455 S
N4 C2 1.317 . S
N5 C1 1.328 1_455 S
N5 C3 1.350 . S
H6 C1 0.930 . S
H7 C2 0.930 . S
C8 O9 1.224 . S
C8 O27 1.247 . S
O9 C8 1.224 . S
N10 Co0 2.128 . S
N10 C11 1.355 1_455 S
N10 C13 1.311 . S
C11 N10 1.355 1_655 S
C11 C12 1.363 . S
C11 H23 0.929 . S
C12 C11 1.363 . S
C12 N14 1.375 1_655 S
C12 H30 0.931 . S
C13 N10 1.311 . S
C13 N14 1.347 . S
C13 H24 0.929 . S
N14 C12 1.375 1_455 S
N14 C13 1.347 . S
C15 C18 1.365 . S
C15 N20 1.328 1_655 S
C15 H21 0.929 . S
C16 C17 1.362 . S
C16 C19 1.378 . S
C16 H31 0.929 . S
C17 C16 1.362 . S
C17 C18 1.366 1_455 S
C18 C15 1.365 . S
C18 C17 1.366 1_655 S
C18 H32 0.930 . S
C19 C16 1.378 . S
C19 N20 1.315 . S
C19 H22 0.930 . S
N20 Co0 2.194 . S
N20 C15 1.328 1_455 S
N20 C19 1.315 . S
H21 C15 0.929 . S
H22 C19 0.930 . S
H23 C11 0.929 . S
H24 C13 0.929 . S
O25 Co0 2.351 1_655 S
O25 C28 1.244 . S
O26 Co0 2.155 1_655 S
O26 C28 1.240 . S
O27 Co0 2.096 . S
O27 C8 1.247 . S
C28 O25 1.244 . S
C28 O26 1.240 . S
H29 C3 0.931 . S
H30 C12 0.931 . S
H31 C16 0.929 . S
H32 C18 0.930 . S
Co33 N37 2.148 . S
Co33 N43 2.128 . S
Co33 N53 2.194 . S
Co33 O58 2.351 . S
Co33 O59 2.155 . S
Co33 O60 2.096 . S
C34 N37 1.301 . S
C34 N38 1.328 . S
C34 H39 0.930 . S
C35 C36 1.333 . S
C35 N37 1.317 . S
C35 H40 0.930 . S
C36 C35 1.333 . S
C36 N38 1.350 . S
C36 H62 0.931 . S
N37 Co33 2.148 . S
N37 C34 1.301 . S
N37 C35 1.317 . S
N38 C34 1.328 . S
N38 C36 1.350 . S
H39 C34 0.930 . S
H40 C35 0.930 . S
C41 O42 1.224 . S
C41 O60 1.247 . S
O42 C41 1.224 . S
N43 Co33 2.128 . S
N43 C44 1.355 . S
N43 C46 1.311 . S
C44 N43 1.355 . S
C44 C45 1.363 . S
C44 H56 0.929 . S
C45 C44 1.363 . S
C45 N47 1.375 . S
C45 H63 0.931 . S
C46 N43 1.311 . S
C46 N47 1.347 . S
C46 H57 0.929 . S
N47 C45 1.375 . S
N47 C46 1.347 . S
C48 C51 1.365 . S
C48 N53 1.328 . S
C48 H54 0.929 . S
C49 C50 1.362 . S
C49 C52 1.378 . S
C49 H64 0.929 . S
C50 C49 1.362 . S
C50 C51 1.366 . S
C51 C48 1.365 . S
C51 C50 1.366 . S
C51 H65 0.930 . S
C52 C49 1.378 . S
C52 N53 1.315 . S
C52 H55 0.930 . S
N53 Co33 2.194 . S
N53 C48 1.328 . S
N53 C52 1.315 . S
H54 C48 0.929 . S
H55 C52 0.930 . S
H56 C44 0.929 . S
H57 C46 0.929 . S
O58 Co33 2.351 . S
O58 C61 1.244 . S
O59 Co33 2.155 . S
O59 C61 1.240 . S
O60 Co33 2.096 . S
O60 C41 1.247 . S
C61 O58 1.244 . S
C61 O59 1.240 . S
H62 C36 0.931 . S
H63 C45 0.931 . S
H64 C49 0.929 . S
H65 C51 0.930 . S
Co66 N70 2.148 . S
Co66 N76 2.128 . S
Co66 N86 2.194 . S
Co66 O91 2.351 1_455 S
Co66 O92 2.155 1_455 S
Co66 O93 2.096 . S
C67 N70 1.301 1_655 S
C67 N71 1.328 1_655 S
C67 H72 0.930 . S
C68 C69 1.333 . S
C68 N70 1.317 . S
C68 H73 0.930 . S
C69 C68 1.333 . S
C69 N71 1.350 . S
C69 H95 0.931 . S
N70 Co66 2.148 . S
N70 C67 1.301 1_455 S
N70 C68 1.317 . S
N71 C67 1.328 1_455 S
N71 C69 1.350 . S
H72 C67 0.930 . S
H73 C68 0.930 . S
C74 O75 1.224 . S
C74 O93 1.247 . S
O75 C74 1.224 . S
N76 Co66 2.128 . S
N76 C77 1.355 1_455 S
N76 C79 1.311 . S
C77 N76 1.355 1_655 S
C77 C78 1.363 . S
C77 H89 0.929 . S
C78 C77 1.363 . S
C78 N80 1.375 1_655 S
C78 H96 0.931 . S
C79 N76 1.311 . S
C79 N80 1.347 . S
C79 H90 0.929 . S
N80 C78 1.375 1_455 S
N80 C79 1.347 . S
C81 C84 1.365 . S
C81 N86 1.328 1_655 S
C81 H87 0.929 . S
C82 C83 1.362 . S
C82 C85 1.378 . S
C82 H97 0.929 . S
C83 C82 1.362 . S
C83 C84 1.366 1_455 S
C84 C81 1.365 . S
C84 C83 1.366 1_655 S
C84 H98 0.930 . S
C85 C82 1.378 . S
C85 N86 1.315 . S
C85 H88 0.930 . S
N86 Co66 2.194 . S
N86 C81 1.328 1_455 S
N86 C85 1.315 . S
H87 C81 0.929 . S
H88 C85 0.930 . S
H89 C77 0.929 . S
H90 C79 0.929 . S
O91 Co66 2.351 1_655 S
O91 C94 1.244 . S
O92 Co66 2.155 1_655 S
O92 C94 1.240 . S
O93 Co66 2.096 . S
O93 C74 1.247 . S
C94 O91 1.244 . S
C94 O92 1.240 . S
H95 C69 0.931 . S
H96 C78 0.931 . S
H97 C82 0.929 . S
H98 C84 0.930 . S
Co99 N103 2.148 . S
Co99 N109 2.128 . S
Co99 N119 2.194 . S
Co99 O124 2.351 . S
Co99 O125 2.155 . S
Co99 O126 2.096 . S
C100 N103 1.301 . S
C100 N104 1.328 . S
C100 H105 0.930 . S
C101 C102 1.333 . S
C101 N103 1.317 . S
C101 H106 0.930 . S
C102 C101 1.333 . S
C102 N104 1.350 . S
C102 H128 0.931 . S
N103 Co99 2.148 . S
N103 C100 1.301 . S
N103 C101 1.317 . S
N104 C100 1.328 . S
N104 C102 1.350 . S
H105 C100 0.930 . S
H106 C101 0.930 . S
C107 O108 1.224 . S
C107 O126 1.247 . S
O108 C107 1.224 . S
N109 Co99 2.128 . S
N109 C110 1.355 . S
N109 C112 1.311 . S
C110 N109 1.355 . S
C110 C111 1.363 . S
C110 H122 0.929 . S
C111 C110 1.363 . S
C111 N113 1.375 . S
C111 H129 0.931 . S
C112 N109 1.311 . S
C112 N113 1.347 . S
C112 H123 0.929 . S
N113 C111 1.375 . S
N113 C112 1.347 . S
C114 C117 1.365 . S
C114 N119 1.328 . S
C114 H120 0.929 . S
C115 C116 1.362 . S
C115 C118 1.378 . S
C115 H130 0.929 . S
C116 C115 1.362 . S
C116 C117 1.366 . S
C117 C114 1.365 . S
C117 C116 1.366 . S
C117 H131 0.930 . S
C118 C115 1.378 . S
C118 N119 1.315 . S
C118 H121 0.930 . S
N119 Co99 2.194 . S
N119 C114 1.328 . S
N119 C118 1.315 . S
H120 C114 0.929 . S
H121 C118 0.930 . S
H122 C110 0.929 . S
H123 C112 0.929 . S
O124 Co99 2.351 . S
O124 C127 1.244 . S
O125 Co99 2.155 . S
O125 C127 1.240 . S
O126 Co99 2.096 . S
O126 C107 1.247 . S
C127 O124 1.244 . S
C127 O125 1.240 . S
H128 C102 0.931 . S
H129 C111 0.931 . S
H130 C115 0.929 . S
H131 C117 0.930 . S
Co132 N136 2.148 . S
Co132 N142 2.128 . S
Co132 N152 2.194 . S
Co132 O157 2.351 . S
Co132 O158 2.155 . S
Co132 O159 2.096 . S
C133 N136 1.301 . S
C133 N137 1.328 . S
C133 H138 0.930 . S
C134 C135 1.333 . S
C134 N136 1.317 . S
C134 H139 0.930 . S
C135 C134 1.333 . S
C135 N137 1.350 . S
C135 H161 0.931 . S
N136 Co132 2.148 . S
N136 C133 1.301 . S
N136 C134 1.317 . S
N137 C133 1.328 . S
N137 C135 1.350 . S
H138 C133 0.930 . S
H139 C134 0.930 . S
C140 O141 1.224 . S
C140 O159 1.247 . S
O141 C140 1.224 . S
N142 Co132 2.128 . S
N142 C143 1.355 . S
N142 C145 1.311 . S
C143 N142 1.355 . S
C143 C144 1.363 . S
C143 H155 0.929 . S
C144 C143 1.363 . S
C144 N146 1.375 . S
C144 H162 0.931 . S
C145 N142 1.311 . S
C145 N146 1.347 . S
C145 H156 0.929 . S
N146 C144 1.375 . S
N146 C145 1.347 . S
C147 C150 1.365 . S
C147 N152 1.328 . S
C147 H153 0.929 . S
C148 C149 1.362 . S
C148 C151 1.378 . S
C148 H163 0.929 . S
C149 C148 1.362 . S
C149 C150 1.366 . S
C150 C147 1.365 . S
C150 C149 1.366 . S
C150 H164 0.930 . S
C151 C148 1.378 . S
C151 N152 1.315 . S
C151 H154 0.930 . S
N152 Co132 2.194 . S
N152 C147 1.328 . S
N152 C151 1.315 . S
H153 C147 0.929 . S
H154 C151 0.930 . S
H155 C143 0.929 . S
H156 C145 0.929 . S
O157 Co132 2.351 . S
O157 C160 1.244 . S
O158 Co132 2.155 . S
O158 C160 1.240 . S
O159 Co132 2.096 . S
O159 C140 1.247 . S
C160 O157 1.244 . S
C160 O158 1.240 . S
H161 C135 0.931 . S
H162 C144 0.931 . S
H163 C148 0.929 . S
H164 C150 0.930 . S
Co165 N169 2.148 . S
Co165 N175 2.128 . S
Co165 N185 2.194 . S
Co165 O190 2.351 . S
Co165 O191 2.155 . S
Co165 O192 2.096 1_455 S
C166 N169 1.301 . S
C166 N170 1.328 . S
C166 H171 0.930 . S
C167 C168 1.333 . S
C167 N169 1.317 . S
C167 H172 0.930 1_455 S
C168 C167 1.333 . S
C168 N170 1.350 . S
C168 H194 0.931 1_455 S
N169 Co165 2.148 . S
N169 C166 1.301 . S
N169 C167 1.317 . S
N170 C166 1.328 . S
N170 C168 1.350 . S
H171 C166 0.930 . S
H172 C167 0.930 1_655 S
C173 O174 1.224 . S
C173 O192 1.247 . S
O174 C173 1.224 . S
N175 Co165 2.128 . S
N175 C176 1.355 . S
N175 C178 1.311 . S
C176 N175 1.355 . S
C176 C177 1.363 . S
C176 H188 0.929 . S
C177 C176 1.363 . S
C177 N179 1.375 . S
C177 H195 0.931 . S
C178 N175 1.311 . S
C178 N179 1.347 . S
C178 H189 0.929 . S
N179 C177 1.375 . S
N179 C178 1.347 . S
C180 C183 1.365 . S
C180 N185 1.328 . S
C180 H186 0.929 . S
C181 C182 1.362 . S
C181 C184 1.378 . S
C181 H196 0.929 1_455 S
C182 C181 1.362 . S
C182 C183 1.366 . S
C183 C180 1.365 . S
C183 C182 1.366 . S
C183 H197 0.930 . S
C184 C181 1.378 . S
C184 N185 1.315 . S
C184 H187 0.930 1_455 S
N185 Co165 2.194 . S
N185 C180 1.328 . S
N185 C184 1.315 . S
H186 C180 0.929 . S
H187 C184 0.930 1_655 S
H188 C176 0.929 . S
H189 C178 0.929 . S
O190 Co165 2.351 . S
O190 C193 1.244 . S
O191 Co165 2.155 . S
O191 C193 1.240 . S
O192 Co165 2.096 1_655 S
O192 C173 1.247 . S
C193 O190 1.244 . S
C193 O191 1.240 . S
H194 C168 0.931 1_655 S
H195 C177 0.931 . S
H196 C181 0.929 1_655 S
H197 C183 0.930 . S
Co198 N202 2.148 . S
Co198 N208 2.128 . S
Co198 N218 2.194 . S
Co198 O223 2.351 . S
Co198 O224 2.155 . S
Co198 O225 2.096 . S
C199 N202 1.301 . S
C199 N203 1.328 . S
C199 H204 0.930 . S
C200 C201 1.333 . S
C200 N202 1.317 . S
C200 H205 0.930 . S
C201 C200 1.333 . S
C201 N203 1.350 . S
C201 H227 0.931 . S
N202 Co198 2.148 . S
N202 C199 1.301 . S
N202 C200 1.317 . S
N203 C199 1.328 . S
N203 C201 1.350 . S
H204 C199 0.930 . S
H205 C200 0.930 . S
C206 O207 1.224 . S
C206 O225 1.247 . S
O207 C206 1.224 . S
N208 Co198 2.128 . S
N208 C209 1.355 . S
N208 C211 1.311 . S
C209 N208 1.355 . S
C209 C210 1.363 . S
C209 H221 0.929 . S
C210 C209 1.363 . S
C210 N212 1.375 . S
C210 H228 0.931 . S
C211 N208 1.311 . S
C211 N212 1.347 . S
C211 H222 0.929 . S
N212 C210 1.375 . S
N212 C211 1.347 . S
C213 C216 1.365 . S
C213 N218 1.328 . S
C213 H219 0.929 . S
C214 C215 1.362 . S
C214 C217 1.378 . S
C214 H229 0.929 . S
C215 C214 1.362 . S
C215 C216 1.366 . S
C216 C213 1.365 . S
C216 C215 1.366 . S
C216 H230 0.930 . S
C217 C214 1.378 . S
C217 N218 1.315 . S
C217 H220 0.930 . S
N218 Co198 2.194 . S
N218 C213 1.328 . S
N218 C217 1.315 . S
H219 C213 0.929 . S
H220 C217 0.930 . S
H221 C209 0.929 . S
H222 C211 0.929 . S
O223 Co198 2.351 . S
O223 C226 1.244 . S
O224 Co198 2.155 . S
O224 C226 1.240 . S
O225 Co198 2.096 . S
O225 C206 1.247 . S
C226 O223 1.244 . S
C226 O224 1.240 . S
H227 C201 0.931 . S
H228 C210 0.931 . S
H229 C214 0.929 . S
H230 C216 0.930 . S
Co231 N235 2.148 . S
Co231 N241 2.128 . S
Co231 N251 2.194 . S
Co231 O256 2.351 . S
Co231 O257 2.155 . S
Co231 O258 2.096 1_455 S
C232 N235 1.301 . S
C232 N236 1.328 . S
C232 H237 0.930 . S
C233 C234 1.333 . S
C233 N235 1.317 . S
C233 H238 0.930 1_455 S
C234 C233 1.333 . S
C234 N236 1.350 . S
C234 H260 0.931 1_455 S
N235 Co231 2.148 . S
N235 C232 1.301 . S
N235 C233 1.317 . S
N236 C232 1.328 . S
N236 C234 1.350 . S
H237 C232 0.930 . S
H238 C233 0.930 1_655 S
C239 O240 1.224 . S
C239 O258 1.247 . S
O240 C239 1.224 . S
N241 Co231 2.128 . S
N241 C242 1.355 . S
N241 C244 1.311 . S
C242 N241 1.355 . S
C242 C243 1.363 . S
C242 H254 0.929 . S
C243 C242 1.363 . S
C243 N245 1.375 . S
C243 H261 0.931 . S
C244 N241 1.311 . S
C244 N245 1.347 . S
C244 H255 0.929 . S
N245 C243 1.375 . S
N245 C244 1.347 . S
C246 C249 1.365 . S
C246 N251 1.328 . S
C246 H252 0.929 . S
C247 C248 1.362 . S
C247 C250 1.378 . S
C247 H262 0.929 1_455 S
C248 C247 1.362 . S
C248 C249 1.366 . S
C249 C246 1.365 . S
C249 C248 1.366 . S
C249 H263 0.930 . S
C250 C247 1.378 . S
C250 N251 1.315 . S
C250 H253 0.930 1_455 S
N251 Co231 2.194 . S
N251 C246 1.328 . S
N251 C250 1.315 . S
H252 C246 0.929 . S
H253 C250 0.930 1_655 S
H254 C242 0.929 . S
H255 C244 0.929 . S
O256 Co231 2.351 . S
O256 C259 1.244 . S
O257 Co231 2.155 . S
O257 C259 1.240 . S
O258 Co231 2.096 1_655 S
O258 C239 1.247 . S
C259 O256 1.244 . S
C259 O257 1.240 . S
H260 C234 0.931 1_655 S
H261 C243 0.931 . S
H262 C247 0.929 1_655 S
H263 C249 0.930 . S
H264 C272 0.950 . S
H265 C277 0.950 . S
H266 C274 0.950 . S
H267 C276 0.950 1_554 S
H268 C278 0.950 . S
H269 C280 0.950 . S
H270 C282 0.950 1_556 S
H271 C283 0.950 . S
C272 H264 0.950 . S
C272 C273 1.386 . S
C272 C274 1.391 . S
C273 C272 1.386 . S
C273 C277 1.393 1_455 S
C274 H266 0.950 . S
C274 C272 1.391 . S
C274 C275 1.400 . S
C275 C274 1.400 . S
C275 C276 1.398 1_455 S
C275 C281 1.491 1_566 S
C276 H267 0.950 1_556 S
C276 C275 1.398 1_655 S
C276 C277 1.391 . S
C277 H265 0.950 . S
C277 C273 1.393 1_655 S
C277 C276 1.391 . S
C278 H268 0.950 . S
C278 C279 1.386 1_655 S
C278 C280 1.391 . S
C279 C278 1.386 1_455 S
C279 C283 1.393 . S
C280 H269 0.950 . S
C280 C278 1.391 . S
C280 C281 1.400 1_655 S
C281 C275 1.491 1_544 S
C281 C280 1.400 1_455 S
C281 C282 1.398 . S
C282 H270 0.950 1_554 S
C282 C281 1.398 . S
C282 C283 1.391 . S
C283 H271 0.950 . S
C283 C279 1.393 . S
C283 C282 1.391 . S
H284 C292 0.950 . S
H285 C297 0.950 . S
H286 C294 0.950 . S
H287 C296 0.950 . S
H288 C298 0.950 . S
H289 C300 0.950 . S
H290 C302 0.950 . S
H291 C303 0.950 . S
C292 H284 0.950 . S
C292 C293 1.386 . S
C292 C294 1.391 . S
C293 C292 1.386 . S
C293 C297 1.393 . S
C294 H286 0.950 . S
C294 C292 1.391 . S
C294 C295 1.400 . S
C295 C294 1.400 . S
C295 C296 1.398 . S
C295 C301 1.491 1_545 S
C296 H287 0.950 . S
C296 C295 1.398 . S
C296 C297 1.391 . S
C297 H285 0.950 . S
C297 C293 1.393 . S
C297 C296 1.391 . S
C298 H288 0.950 . S
C298 C299 1.386 . S
C298 C300 1.391 . S
C299 C298 1.386 . S
C299 C303 1.393 . S
C300 H289 0.950 . S
C300 C298 1.391 . S
C300 C301 1.400 . S
C301 C295 1.491 1_565 S
C301 C300 1.400 . S
C301 C302 1.398 . S
C302 H290 0.950 . S
C302 C301 1.398 . S
C302 C303 1.391 . S
C303 H291 0.950 . S
C303 C299 1.393 . S
C303 C302 1.391 . S
H304 C312 0.950 . S
H305 C317 0.950 1_556 S
H306 C314 0.950 . S
H307 C316 0.950 . S
H308 C318 0.950 . S
H309 C320 0.950 . S
H310 C322 0.950 . S
H311 C323 0.950 1_554 S
C312 H304 0.950 . S
C312 C313 1.386 . S
C312 C314 1.391 . S
C313 C312 1.386 . S
C313 C317 1.393 . S
C314 H306 0.950 . S
C314 C312 1.391 . S
C314 C315 1.400 . S
C315 C314 1.400 . S
C315 C316 1.398 1_554 S
C315 C321 1.491 1_554 S
C316 H307 0.950 . S
C316 C315 1.398 1_556 S
C316 C317 1.391 1_556 S
C317 H305 0.950 1_554 S
C317 C313 1.393 . S
C317 C316 1.391 1_554 S
C318 H308 0.950 . S
C318 C319 1.386 . S
C318 C320 1.391 . S
C319 C318 1.386 . S
C319 C323 1.393 . S
C320 H309 0.950 . S
C320 C318 1.391 . S
C320 C321 1.400 . S
C321 C315 1.491 1_556 S
C321 C320 1.400 . S
C321 C322 1.398 1_556 S
C322 H310 0.950 . S
C322 C321 1.398 1_554 S
C322 C323 1.391 1_554 S
C323 H311 0.950 1_556 S
C323 C319 1.393 . S
C323 C322 1.391 1_556 S
H324 C332 0.950 . S
H325 C337 0.950 . S
H326 C334 0.950 . S
H327 C336 0.950 . S
H328 C338 0.950 . S
H329 C340 0.950 . S
H330 C342 0.950 . S
H331 C343 0.950 . S
C332 H324 0.950 . S
C332 C333 1.386 . S
C332 C334 1.391 . S
C333 C332 1.386 . S
C333 C337 1.393 . S
C334 H326 0.950 . S
C334 C332 1.391 . S
C334 C335 1.400 . S
C335 C334 1.400 . S
C335 C336 1.398 . S
C335 C341 1.491 . S
C336 H327 0.950 . S
C336 C335 1.398 . S
C336 C337 1.391 . S
C337 H325 0.950 . S
C337 C333 1.393 . S
C337 C336 1.391 . S
C338 H328 0.950 . S
C338 C339 1.386 . S
C338 C340 1.391 . S
C339 C338 1.386 . S
C339 C343 1.393 . S
C340 H329 0.950 . S
C340 C338 1.391 . S
C340 C341 1.400 . S
C341 C335 1.491 . S
C341 C340 1.400 . S
C341 C342 1.398 . S
C342 H330 0.950 . S
C342 C341 1.398 . S
C342 C343 1.391 . S
C343 H331 0.950 . S
C343 C339 1.393 . S
C343 C342 1.391 . S
H344 C352 0.950 . S
H345 C357 0.950 . S
H346 C354 0.950 . S
H347 C356 0.950 . S
H348 C358 0.950 . S
H349 C360 0.950 . S
H350 C362 0.950 . S
H351 C363 0.950 . S
C352 H344 0.950 . S
C352 C353 1.386 . S
C352 C354 1.391 . S
C353 C352 1.386 . S
C353 C357 1.393 . S
C354 H346 0.950 . S
C354 C352 1.391 . S
C354 C355 1.400 . S
C355 C354 1.400 . S
C355 C356 1.398 . S
C355 C361 1.491 . S
C356 H347 0.950 . S
C356 C355 1.398 . S
C356 C357 1.391 . S
C357 H345 0.950 . S
C357 C353 1.393 . S
C357 C356 1.391 . S
C358 H348 0.950 . S
C358 C359 1.386 . S
C358 C360 1.391 . S
C359 C358 1.386 . S
C359 C363 1.393 . S
C360 H349 0.950 . S
C360 C358 1.391 . S
C360 C361 1.400 . S
C361 C355 1.491 . S
C361 C360 1.400 . S
C361 C362 1.398 . S
C362 H350 0.950 . S
C362 C361 1.398 . S
C362 C363 1.391 . S
C363 H351 0.950 . S
C363 C359 1.393 . S
C363 C362 1.391 . S
H364 C372 0.950 . S
H365 C377 0.950 . S
H366 C374 0.950 . S
H367 C376 0.950 . S
H368 C378 0.950 . S
H369 C380 0.950 . S
H370 C382 0.950 . S
H371 C383 0.950 . S
C372 H364 0.950 . S
C372 C373 1.386 . S
C372 C374 1.391 . S
C373 C372 1.386 . S
C373 C377 1.393 . S
C374 H366 0.950 . S
C374 C372 1.391 . S
C374 C375 1.400 . S
C375 C374 1.400 . S
C375 C376 1.398 . S
C375 C381 1.491 . S
C376 H367 0.950 . S
C376 C375 1.398 . S
C376 C377 1.391 . S
C377 H365 0.950 . S
C377 C373 1.393 . S
C377 C376 1.391 . S
C378 H368 0.950 . S
C378 C379 1.386 . S
C378 C380 1.391 . S
C379 C378 1.386 . S
C379 C383 1.393 . S
C380 H369 0.950 . S
C380 C378 1.391 . S
C380 C381 1.400 . S
C381 C375 1.491 . S
C381 C380 1.400 . S
C381 C382 1.398 . S
C382 H370 0.950 . S
C382 C381 1.398 . S
C382 C383 1.391 . S
C383 H371 0.950 . S
C383 C379 1.393 . S
C383 C382 1.391 . S
H384 C392 0.950 . S
H385 C397 0.950 . S
H386 C394 0.950 . S
H387 C396 0.950 . S
H388 C398 0.950 . S
H389 C400 0.950 . S
H390 C402 0.950 . S
H391 C403 0.950 . S
C392 H384 0.950 . S
C392 C393 1.386 . S
C392 C394 1.391 . S
C393 C392 1.386 . S
C393 C397 1.393 . S
C394 H386 0.950 . S
C394 C392 1.391 . S
C394 C395 1.400 . S
C395 C394 1.400 . S
C395 C396 1.398 . S
C395 C401 1.491 . S
C396 H387 0.950 . S
C396 C395 1.398 . S
C396 C397 1.391 . S
C397 H385 0.950 . S
C397 C393 1.393 . S
C397 C396 1.391 . S
C398 H388 0.950 . S
C398 C399 1.386 . S
C398 C400 1.391 . S
C399 C398 1.386 . S
C399 C403 1.393 . S
C400 H389 0.950 . S
C400 C398 1.391 . S
C400 C401 1.400 . S
C401 C395 1.491 . S
C401 C400 1.400 . S
C401 C402 1.398 . S
C402 H390 0.950 . S
C402 C401 1.398 . S
C402 C403 1.391 . S
C403 H391 0.950 . S
C403 C399 1.393 . S
C403 C402 1.391 . S
H404 C412 0.950 . S
H405 C417 0.950 . S
H406 C414 0.950 . S
H407 C416 0.950 . S
H408 C418 0.950 . S
H409 C420 0.950 . S
H410 C422 0.950 . S
H411 C423 0.950 . S
C412 H404 0.950 . S
C412 C413 1.386 . S
C412 C414 1.391 . S
C413 C412 1.386 . S
C413 C417 1.393 . S
C414 H406 0.950 . S
C414 C412 1.391 . S
C414 C415 1.400 . S
C415 C414 1.400 . S
C415 C416 1.398 . S
C415 C421 1.491 . S
C416 H407 0.950 . S
C416 C415 1.398 . S
C416 C417 1.391 . S
C417 H405 0.950 . S
C417 C413 1.393 . S
C417 C416 1.391 . S
C418 H408 0.950 . S
C418 C419 1.386 . S
C418 C420 1.391 . S
C419 C418 1.386 . S
C419 C423 1.393 . S
C420 H409 0.950 . S
C420 C418 1.391 . S
C420 C421 1.400 . S
C421 C415 1.491 . S
C421 C420 1.400 . S
C421 C422 1.398 . S
C422 H410 0.950 . S
C422 C421 1.398 . S
C422 C423 1.391 . S
C423 H411 0.950 . S
C423 C419 1.393 . S
C423 C422 1.391 . S
H424 C432 0.950 . S
H425 C437 0.950 . S
H426 C434 0.950 . S
H427 C436 0.950 . S
H428 C438 0.950 . S
H429 C440 0.950 . S
H430 C442 0.950 . S
H431 C443 0.950 . S
C432 H424 0.950 . S
C432 C433 1.386 . S
C432 C434 1.391 . S
C433 C432 1.386 . S
C433 C437 1.393 . S
C434 H426 0.950 . S
C434 C432 1.391 . S
C434 C435 1.400 . S
C435 C434 1.400 . S
C435 C436 1.398 . S
C435 C441 1.491 . S
C436 H427 0.950 . S
C436 C435 1.398 . S
C436 C437 1.391 . S
C437 H425 0.950 . S
C437 C433 1.393 . S
C437 C436 1.391 . S
C438 H428 0.950 . S
C438 C439 1.386 . S
C438 C440 1.391 . S
C439 C438 1.386 . S
C439 C443 1.393 . S
C440 H429 0.950 . S
C440 C438 1.391 . S
C440 C441 1.400 . S
C441 C435 1.491 . S
C441 C440 1.400 . S
C441 C442 1.398 . S
C442 H430 0.950 . S
C442 C441 1.398 . S
C442 C443 1.391 . S
C443 H431 0.950 . S
C443 C439 1.393 . S
C443 C442 1.391 . S
H444 C452 0.950 . S
H445 C457 0.950 . S
H446 C454 0.950 . S
H447 C456 0.950 . S
H448 C458 0.950 . S
H449 C460 0.950 . S
H450 C462 0.950 . S
H451 C463 0.950 . S
C452 H444 0.950 . S
C452 C453 1.386 . S
C452 C454 1.391 . S
C453 C452 1.386 . S
C453 C457 1.393 . S
C454 H446 0.950 . S
C454 C452 1.391 . S
C454 C455 1.400 . S
C455 C454 1.400 . S
C455 C456 1.398 . S
C455 C461 1.491 . S
C456 H447 0.950 . S
C456 C455 1.398 . S
C456 C457 1.391 . S
C457 H445 0.950 . S
C457 C453 1.393 . S
C457 C456 1.391 . S
C458 H448 0.950 . S
C458 C459 1.386 . S
C458 C460 1.391 . S
C459 C458 1.386 . S
C459 C463 1.393 . S
C460 H449 0.950 . S
C460 C458 1.391 . S
C460 C461 1.400 . S
C461 C455 1.491 . S
C461 C460 1.400 . S
C461 C462 1.398 . S
C462 H450 0.950 . S
C462 C461 1.398 . S
C462 C463 1.391 . S
C463 H451 0.950 . S
C463 C459 1.393 . S
C463 C462 1.391 . S
H464 C472 0.950 . S
H465 C477 0.950 . S
H466 C474 0.950 . S
H467 C476 0.950 . S
H468 C478 0.950 . S
H469 C480 0.950 . S
H470 C482 0.950 . S
H471 C483 0.950 . S
C472 H464 0.950 . S
C472 C473 1.386 . S
C472 C474 1.391 . S
C473 C472 1.386 . S
C473 C477 1.393 . S
C474 H466 0.950 . S
C474 C472 1.391 . S
C474 C475 1.400 . S
C475 C474 1.400 . S
C475 C476 1.398 . S
C475 C481 1.491 . S
C476 H467 0.950 . S
C476 C475 1.398 . S
C476 C477 1.391 . S
C477 H465 0.950 . S
C477 C473 1.393 . S
C477 C476 1.391 . S
C478 H468 0.950 . S
C478 C479 1.386 . S
C478 C480 1.391 . S
C479 C478 1.386 . S
C479 C483 1.393 . S
C480 H469 0.950 . S
C480 C478 1.391 . S
C480 C481 1.400 . S
C481 C475 1.491 . S
C481 C480 1.400 . S
C481 C482 1.398 . S
C482 H470 0.950 . S
C482 C481 1.398 . S
C482 C483 1.391 . S
C483 H471 0.950 . S
C483 C479 1.393 . S
C483 C482 1.391 . S
H484 C492 0.950 . S
H485 C497 0.950 . S
H486 C494 0.950 . S
H487 C496 0.950 . S
H488 C498 0.950 . S
H489 C500 0.950 . S
H490 C502 0.950 . S
H491 C503 0.950 . S
C492 H484 0.950 . S
C492 C493 1.386 . S
C492 C494 1.391 . S
C493 C492 1.386 . S
C493 C497 1.393 . S
C494 H486 0.950 . S
C494 C492 1.391 . S
C494 C495 1.400 . S
C495 C494 1.400 . S
C495 C496 1.398 . S
C495 C501 1.491 . S
C496 H487 0.950 . S
C496 C495 1.398 . S
C496 C497 1.391 . S
C497 H485 0.950 . S
C497 C493 1.393 . S
C497 C496 1.391 . S
C498 H488 0.950 . S
C498 C499 1.386 . S
C498 C500 1.391 . S
C499 C498 1.386 . S
C499 C503 1.393 . S
C500 H489 0.950 . S
C500 C498 1.391 . S
C500 C501 1.400 . S
C501 C495 1.491 . S
C501 C500 1.400 . S
C501 C502 1.398 . S
C502 H490 0.950 . S
C502 C501 1.398 . S
C502 C503 1.391 . S
C503 H491 0.950 . S
C503 C499 1.393 . S
C503 C502 1.391 . S
H504 C512 0.950 . S
H505 C517 0.950 1_655 S
H506 C514 0.950 . S
H507 C516 0.950 1_655 S
H508 C518 0.950 1_654 S
H509 C520 0.950 1_655 S
H510 C522 0.950 . S
H511 C523 0.950 . S
C512 H504 0.950 . S
C512 C513 1.386 . S
C512 C514 1.391 . S
C513 C512 1.386 . S
C513 C517 1.393 . S
C514 H506 0.950 . S
C514 C512 1.391 . S
C514 C515 1.400 . S
C515 C514 1.400 . S
C515 C516 1.398 . S
C515 C521 1.491 . S
C516 H507 0.950 1_455 S
C516 C515 1.398 . S
C516 C517 1.391 . S
C517 H505 0.950 1_455 S
C517 C513 1.393 . S
C517 C516 1.391 . S
C518 H508 0.950 1_456 S
C518 C519 1.386 . S
C518 C520 1.391 . S
C519 C518 1.386 . S
C519 C523 1.393 . S
C520 H509 0.950 1_455 S
C520 C518 1.391 . S
C520 C521 1.400 . S
C521 C515 1.491 . S
C521 C520 1.400 . S
C521 C522 1.398 . S
C522 H510 0.950 . S
C522 C521 1.398 . S
C522 C523 1.391 . S
C523 H511 0.950 . S
C523 C519 1.393 . S
C523 C522 1.391 . S
H524 C532 0.950 . S
H525 C537 0.950 . S
H526 C534 0.950 . S
H527 C536 0.950 . S
H528 C538 0.950 . S
H529 C540 0.950 . S
H530 C542 0.950 . S
H531 C543 0.950 . S
C532 H524 0.950 . S
C532 C533 1.386 . S
C532 C534 1.391 . S
C533 C532 1.386 . S
C533 C537 1.393 . S
C534 H526 0.950 . S
C534 C532 1.391 . S
C534 C535 1.400 . S
C535 C534 1.400 . S
C535 C536 1.398 . S
C535 C541 1.491 . S
C536 H527 0.950 . S
C536 C535 1.398 . S
C536 C537 1.391 . S
C537 H525 0.950 . S
C537 C533 1.393 . S
C537 C536 1.391 . S
C538 H528 0.950 . S
C538 C539 1.386 . S
C538 C540 1.391 . S
C539 C538 1.386 . S
C539 C543 1.393 . S
C540 H529 0.950 . S
C540 C538 1.391 . S
C540 C541 1.400 . S
C541 C535 1.491 . S
C541 C540 1.400 . S
C541 C542 1.398 . S
C542 H530 0.950 . S
C542 C541 1.398 . S
C542 C543 1.391 . S
C543 H531 0.950 . S
C543 C539 1.393 . S
C543 C542 1.391 . S
H544 C552 0.950 . S
H545 C557 0.950 . S
H546 C554 0.950 . S
H547 C556 0.950 . S
H548 C558 0.950 . S
H549 C560 0.950 . S
H550 C562 0.950 . S
H551 C563 0.950 . S
C552 H544 0.950 . S
C552 C553 1.386 1_655 S
C552 C554 1.391 . S
C553 C552 1.386 1_455 S
C553 C557 1.393 . S
C554 H546 0.950 . S
C554 C552 1.391 . S
C554 C555 1.400 1_655 S
C555 C554 1.400 1_455 S
C555 C556 1.398 . S
C555 C561 1.491 . S
C556 H547 0.950 . S
C556 C555 1.398 . S
C556 C557 1.391 . S
C557 H545 0.950 . S
C557 C553 1.393 . S
C557 C556 1.391 . S
C558 H548 0.950 . S
C558 C559 1.386 . S
C558 C560 1.391 . S
C559 C558 1.386 . S
C559 C563 1.393 1_455 S
C560 H549 0.950 . S
C560 C558 1.391 . S
C560 C561 1.400 . S
C561 C555 1.491 . S
C561 C560 1.400 . S
C561 C562 1.398 1_455 S
C562 H550 0.950 . S
C562 C561 1.398 1_655 S
C562 C563 1.391 . S
C563 H551 0.950 . S
C563 C559 1.393 1_655 S
C563 C562 1.391 . S
H564 C572 0.950 . S
H565 C577 0.950 . S
H566 C574 0.950 . S
H567 C576 0.950 . S
H568 C578 0.950 . S
H569 C580 0.950 . S
H570 C582 0.950 . S
H571 C583 0.950 . S
C572 H564 0.950 . S
C572 C573 1.386 . S
C572 C574 1.391 . S
C573 C572 1.386 . S
C573 C577 1.393 . S
C574 H566 0.950 . S
C574 C572 1.391 . S
C574 C575 1.400 . S
C575 C574 1.400 . S
C575 C576 1.398 . S
C575 C581 1.491 . S
C576 H567 0.950 . S
C576 C575 1.398 . S
C576 C577 1.391 . S
C577 H565 0.950 . S
C577 C573 1.393 . S
C577 C576 1.391 . S
C578 H568 0.950 . S
C578 C579 1.386 . S
C578 C580 1.391 . S
C579 C578 1.386 . S
C579 C583 1.393 . S
C580 H569 0.950 . S
C580 C578 1.391 . S
C580 C581 1.400 . S
C581 C575 1.491 . S
C581 C580 1.400 . S
C581 C582 1.398 . S
C582 H570 0.950 . S
C582 C581 1.398 . S
C582 C583 1.391 . S
C583 H571 0.950 . S
C583 C579 1.393 . S
C583 C582 1.391 . S
H584 C592 0.950 . S
H585 C597 0.950 . S
H586 C594 0.950 . S
H587 C596 0.950 . S
H588 C598 0.950 . S
H589 C600 0.950 . S
H590 C602 0.950 . S
H591 C603 0.950 . S
C592 H584 0.950 . S
C592 C593 1.386 . S
C592 C594 1.391 . S
C593 C592 1.386 . S
C593 C597 1.393 . S
C594 H586 0.950 . S
C594 C592 1.391 . S
C594 C595 1.400 . S
C595 C594 1.400 . S
C595 C596 1.398 . S
C595 C601 1.491 . S
C596 H587 0.950 . S
C596 C595 1.398 . S
C596 C597 1.391 . S
C597 H585 0.950 . S
C597 C593 1.393 . S
C597 C596 1.391 . S
C598 H588 0.950 . S
C598 C599 1.386 . S
C598 C600 1.391 . S
C599 C598 1.386 . S
C599 C603 1.393 . S
C600 H589 0.950 . S
C600 C598 1.391 . S
C600 C601 1.400 . S
C601 C595 1.491 . S
C601 C600 1.400 . S
C601 C602 1.398 . S
C602 H590 0.950 . S
C602 C601 1.398 . S
C602 C603 1.391 . S
C603 H591 0.950 . S
C603 C599 1.393 . S
C603 C602 1.391 . S
H604 C612 0.950 . S
H605 C617 0.950 1_655 S
H606 C614 0.950 . S
H607 C616 0.950 1_655 S
H608 C618 0.950 1_655 S
H609 C620 0.950 1_655 S
H610 C622 0.950 . S
H611 C623 0.950 . S
C612 H604 0.950 . S
C612 C613 1.386 . S
C612 C614 1.391 . S
C613 C612 1.386 . S
C613 C617 1.393 . S
C614 H606 0.950 . S
C614 C612 1.391 . S
C614 C615 1.400 . S
C615 C614 1.400 . S
C615 C616 1.398 . S
C615 C621 1.491 . S
C616 H607 0.950 1_455 S
C616 C615 1.398 . S
C616 C617 1.391 . S
C617 H605 0.950 1_455 S
C617 C613 1.393 . S
C617 C616 1.391 . S
C618 H608 0.950 1_455 S
C618 C619 1.386 . S
C618 C620 1.391 . S
C619 C618 1.386 . S
C619 C623 1.393 . S
C620 H609 0.950 1_455 S
C620 C618 1.391 . S
C620 C621 1.400 . S
C621 C615 1.491 . S
C621 C620 1.400 . S
C621 C622 1.398 . S
C622 H610 0.950 . S
C622 C621 1.398 . S
C622 C623 1.391 . S
C623 H611 0.950 . S
C623 C619 1.393 . S
C623 C622 1.391 . S
H624 C632 0.950 . S
H625 C637 0.950 1_556 S
H626 C634 0.950 . S
H627 C636 0.950 . S
H628 C638 0.950 . S
H629 C640 0.950 . S
H630 C642 0.950 . S
H631 C643 0.950 . S
C632 H624 0.950 . S
C632 C633 1.386 . S
C632 C634 1.391 . S
C633 C632 1.386 . S
C633 C637 1.393 . S
C634 H626 0.950 . S
C634 C632 1.391 . S
C634 C635 1.400 . S
C635 C634 1.400 . S
C635 C636 1.398 . S
C635 C641 1.491 . S
C636 H627 0.950 . S
C636 C635 1.398 . S
C636 C637 1.391 . S
C637 H625 0.950 1_554 S
C637 C633 1.393 . S
C637 C636 1.391 . S
C638 H628 0.950 . S
C638 C639 1.386 . S
C638 C640 1.391 . S
C639 C638 1.386 . S
C639 C643 1.393 . S
C640 H629 0.950 . S
C640 C638 1.391 . S
C640 C641 1.400 . S
C641 C635 1.491 . S
C641 C640 1.400 . S
C641 C642 1.398 . S
C642 H630 0.950 . S
C642 C641 1.398 . S
C642 C643 1.391 . S
C643 H631 0.950 . S
C643 C639 1.393 . S
C643 C642 1.391 . S
H644 C652 0.950 . S
H645 C657 0.950 . S
H646 C654 0.950 . S
H647 C656 0.950 . S
H648 C658 0.950 . S
H649 C660 0.950 . S
H650 C662 0.950 . S
H651 C663 0.950 . S
C652 H644 0.950 . S
C652 C653 1.386 . S
C652 C654 1.391 . S
C653 C652 1.386 . S
C653 C657 1.393 . S
C654 H646 0.950 . S
C654 C652 1.391 . S
C654 C655 1.400 . S
C655 C654 1.400 . S
C655 C656 1.398 . S
C655 C661 1.491 . S
C656 H647 0.950 . S
C656 C655 1.398 . S
C656 C657 1.391 . S
C657 H645 0.950 . S
C657 C653 1.393 . S
C657 C656 1.391 . S
C658 H648 0.950 . S
C658 C659 1.386 . S
C658 C660 1.391 . S
C659 C658 1.386 . S
C659 C663 1.393 . S
C660 H649 0.950 . S
C660 C658 1.391 . S
C660 C661 1.400 . S
C661 C655 1.491 . S
C661 C660 1.400 . S
C661 C662 1.398 . S
C662 H650 0.950 . S
C662 C661 1.398 . S
C662 C663 1.391 . S
C663 H651 0.950 . S
C663 C659 1.393 . S
C663 C662 1.391 . S
C273 N71 1.381 . S
C279 N5 1.368 . S
C293 N104 1.389 . S
C299 N38 1.368 . S
C313 N137 1.388 . S
C319 N203 1.368 . S
C333 N170 1.393 . S
C339 N236 1.370 . S
C353 C107 1.561 . S
C359 C8 1.551 . S
C373 C41 1.558 . S
C379 C74 1.551 . S
C393 C94 1.069 . S
C399 C61 1.063 . S
C413 C127 1.060 . S
C419 C28 1.083 . S
C433 C239 1.559 . S
C439 C140 1.568 . S
C453 C173 1.559 . S
C459 C206 1.568 . S
C473 C226 1.067 . S
C479 C193 1.079 . S
C493 C259 1.083 . S
C499 C160 1.058 . S
C513 N179 1.550 . S
C519 C17 1.600 1_556 S
C533 C50 1.603 . S
C539 N146 1.569 . S
C553 C83 1.603 1_554 S
C559 N245 1.566 . S
C573 N212 1.556 . S
C579 C116 1.603 . S
C593 N47 1.555 . S
C599 C149 1.602 1_556 S
C613 C182 1.603 . S
C619 N14 1.557 . S
C633 C215 1.600 1_554 S
C639 N113 1.549 . S
C653 C248 1.602 . S
C659 N80 1.568 . S
