# Generated by pormake.
# Topology rhr, (4)-cn, num edge types: 1
# Building blocks:
#     Node 0, Type 0, BuildingBlock: ESEHIV_clean_sbu_0, # of connection points: 4
#     Node 1, Type 0, BuildingBlock: ESEHIV_clean_sbu_0, # of connection points: 4
#     Node 2, Type 0, BuildingBlock: ESEHIV_clean_sbu_0, # of connection points: 4
#     Node 3, Type 0, BuildingBlock: ESEHIV_clean_sbu_0, # of connection points: 4
#     Node 4, Type 0, BuildingBlock: ESEHIV_clean_sbu_0, # of connection points: 4
#     Node 5, Type 0, BuildingBlock: ESEHIV_clean_sbu_0, # of connection points: 4
#     Node 6, Type 0, BuildingBlock: ESEHIV_clean_sbu_0, # of connection points: 4
#     Node 7, Type 0, BuildingBlock: ESEHIV_clean_sbu_0, # of connection points: 4
#     Node 8, Type 0, BuildingBlock: ESEHIV_clean_sbu_0, # of connection points: 4
#     Node 9, Type 0, BuildingBlock: ESEHIV_clean_sbu_0, # of connection points: 4
#     Node 10, Type 0, BuildingBlock: ESEHIV_clean_sbu_0, # of connection points: 4
#     Node 11, Type 0, BuildingBlock: ESEHIV_clean_sbu_0, # of connection points: 4
#     Node 12, Type 0, BuildingBlock: ESEHIV_clean_sbu_0, # of connection points: 4
#     Node 13, Type 0, BuildingBlock: ESEHIV_clean_sbu_0, # of connection points: 4
#     Node 14, Type 0, BuildingBlock: ESEHIV_clean_sbu_0, # of connection points: 4
#     Node 15, Type 0, BuildingBlock: ESEHIV_clean_sbu_0, # of connection points: 4
#     Node 16, Type 0, BuildingBlock: ESEHIV_clean_sbu_0, # of connection points: 4
#     Node 17, Type 0, BuildingBlock: ESEHIV_clean_sbu_0, # of connection points: 4
#     Node 18, Type 0, BuildingBlock: ESEHIV_clean_sbu_0, # of connection points: 4
#     Node 19, Type 0, BuildingBlock: ESEHIV_clean_sbu_0, # of connection points: 4
#     Node 20, Type 0, BuildingBlock: ESEHIV_clean_sbu_0, # of connection points: 4
#     Node 21, Type 0, BuildingBlock: ESEHIV_clean_sbu_0, # of connection points: 4
#     Node 22, Type 0, BuildingBlock: ESEHIV_clean_sbu_0, # of connection points: 4
#     Node 23, Type 0, BuildingBlock: ESEHIV_clean_sbu_0, # of connection points: 4
#     Edge 24, Type (0, 0), BuildingBlock: KIFKEQ_clean_linker_1, # of connection points: 2
#     Edge 25, Type (0, 0), BuildingBlock: KIFKEQ_clean_linker_1, # of connection points: 2
#     Edge 26, Type (0, 0), BuildingBlock: KIFKEQ_clean_linker_1, # of connection points: 2
#     Edge 27, Type (0, 0), BuildingBlock: KIFKEQ_clean_linker_1, # of connection points: 2
#     Edge 28, Type (0, 0), BuildingBlock: KIFKEQ_clean_linker_1, # of connection points: 2
#     Edge 29, Type (0, 0), BuildingBlock: KIFKEQ_clean_linker_1, # of connection points: 2
#     Edge 30, Type (0, 0), BuildingBlock: KIFKEQ_clean_linker_1, # of connection points: 2
#     Edge 31, Type (0, 0), BuildingBlock: KIFKEQ_clean_linker_1, # of connection points: 2
#     Edge 32, Type (0, 0), BuildingBlock: KIFKEQ_clean_linker_1, # of connection points: 2
#     Edge 33, Type (0, 0), BuildingBlock: KIFKEQ_clean_linker_1, # of connection points: 2
#     Edge 34, Type (0, 0), BuildingBlock: KIFKEQ_clean_linker_1, # of connection points: 2
#     Edge 35, Type (0, 0), BuildingBlock: KIFKEQ_clean_linker_1, # of connection points: 2
#     Edge 36, Type (0, 0), BuildingBlock: KIFKEQ_clean_linker_1, # of connection points: 2
#     Edge 37, Type (0, 0), BuildingBlock: KIFKEQ_clean_linker_1, # of connection points: 2
#     Edge 38, Type (0, 0), BuildingBlock: KIFKEQ_clean_linker_1, # of connection points: 2
#     Edge 39, Type (0, 0), BuildingBlock: KIFKEQ_clean_linker_1, # of connection points: 2
#     Edge 40, Type (0, 0), BuildingBlock: KIFKEQ_clean_linker_1, # of connection points: 2
#     Edge 41, Type (0, 0), BuildingBlock: KIFKEQ_clean_linker_1, # of connection points: 2
#     Edge 42, Type (0, 0), BuildingBlock: KIFKEQ_clean_linker_1, # of connection points: 2
#     Edge 43, Type (0, 0), BuildingBlock: KIFKEQ_clean_linker_1, # of connection points: 2
#     Edge 44, Type (0, 0), BuildingBlock: KIFKEQ_clean_linker_1, # of connection points: 2
#     Edge 45, Type (0, 0), BuildingBlock: KIFKEQ_clean_linker_1, # of connection points: 2
#     Edge 46, Type (0, 0), BuildingBlock: KIFKEQ_clean_linker_1, # of connection points: 2
#     Edge 47, Type (0, 0), BuildingBlock: KIFKEQ_clean_linker_1, # of connection points: 2
#     Edge 48, Type (0, 0), BuildingBlock: KIFKEQ_clean_linker_1, # of connection points: 2
#     Edge 49, Type (0, 0), BuildingBlock: KIFKEQ_clean_linker_1, # of connection points: 2
#     Edge 50, Type (0, 0), BuildingBlock: KIFKEQ_clean_linker_1, # of connection points: 2
#     Edge 51, Type (0, 0), BuildingBlock: KIFKEQ_clean_linker_1, # of connection points: 2
#     Edge 52, Type (0, 0), BuildingBlock: KIFKEQ_clean_linker_1, # of connection points: 2
#     Edge 53, Type (0, 0), BuildingBlock: KIFKEQ_clean_linker_1, # of connection points: 2
#     Edge 54, Type (0, 0), BuildingBlock: KIFKEQ_clean_linker_1, # of connection points: 2
#     Edge 55, Type (0, 0), BuildingBlock: KIFKEQ_clean_linker_1, # of connection points: 2
#     Edge 56, Type (0, 0), BuildingBlock: KIFKEQ_clean_linker_1, # of connection points: 2
#     Edge 57, Type (0, 0), BuildingBlock: KIFKEQ_clean_linker_1, # of connection points: 2
#     Edge 58, Type (0, 0), BuildingBlock: KIFKEQ_clean_linker_1, # of connection points: 2
#     Edge 59, Type (0, 0), BuildingBlock: KIFKEQ_clean_linker_1, # of connection points: 2
#     Edge 60, Type (0, 0), BuildingBlock: KIFKEQ_clean_linker_1, # of connection points: 2
#     Edge 61, Type (0, 0), BuildingBlock: KIFKEQ_clean_linker_1, # of connection points: 2
#     Edge 62, Type (0, 0), BuildingBlock: KIFKEQ_clean_linker_1, # of connection points: 2
#     Edge 63, Type (0, 0), BuildingBlock: KIFKEQ_clean_linker_1, # of connection points: 2
#     Edge 64, Type (0, 0), BuildingBlock: KIFKEQ_clean_linker_1, # of connection points: 2
#     Edge 65, Type (0, 0), BuildingBlock: KIFKEQ_clean_linker_1, # of connection points: 2
#     Edge 66, Type (0, 0), BuildingBlock: KIFKEQ_clean_linker_1, # of connection points: 2
#     Edge 67, Type (0, 0), BuildingBlock: KIFKEQ_clean_linker_1, # of connection points: 2
#     Edge 68, Type (0, 0), BuildingBlock: KIFKEQ_clean_linker_1, # of connection points: 2
#     Edge 69, Type (0, 0), BuildingBlock: KIFKEQ_clean_linker_1, # of connection points: 2
#     Edge 70, Type (0, 0), BuildingBlock: KIFKEQ_clean_linker_1, # of connection points: 2
#     Edge 71, Type (0, 0), BuildingBlock: KIFKEQ_clean_linker_1, # of connection points: 2
# Relax obj value: 0.010
# Max RMSD: 0.136
# Mean RMSD: 0.095
data_MOF--net-rhr--node1-ESEHIV_clean_sbu_0--edge1-KIFKEQ_clean_linker_1
_symmetry_space_group_name_H-M    P1
_symmetry_Int_Tables_number       1
_symmetry_cell_setting            triclinic
loop_
_symmetry_equiv_pos_as_xyz
'x, y, z'
_cell_length_a     55.38189
_cell_length_b     55.138286
_cell_length_c     55.263398
_cell_angle_alpha  90.089328
_cell_angle_beta   92.939202
_cell_angle_gamma 92.409868
loop_
_atom_site_label
_atom_site_type_symbol
_atom_site_fract_x
_atom_site_fract_y
_atom_site_fract_z
_atom_type_partial_charge
Cu0 Cu 0.36355 0.03908 0.34396 0.0
N1 N 0.35215 1.0242 0.31518 0.0
N2 N 0.35484 1.00535 0.27977 0.0
C3 C 0.36635 1.01955 0.29692 0.0
C4 C 0.33235 1.00091 0.28747 0.0
C5 C 0.33068 1.01277 0.30933 0.0
O6 O 0.39671 0.05064 0.33742 0.0
C7 C 0.33824 1.01053 0.37695 0.0
O8 O 0.32066 1.02351 0.36779 0.0
H9 H 0.3854 1.0248 0.2972 0.0
H10 H 0.31538 1.01195 0.32073 0.0
N11 N 0.34518 0.06588 0.34928 0.0
N12 N 0.32845 0.09643 0.36792 0.0
C13 C 0.34162 0.07645 0.37067 0.0
C14 C 0.33393 0.0795 0.33238 0.0
C15 C 0.32353 0.09836 0.34382 0.0
C16 C 0.405 0.07242 0.34083 0.0
O17 O 0.39317 0.08716 0.35414 0.0
H18 H 0.34859 0.06953 0.38783 0.0
H19 H 0.3337 0.07616 0.31307 0.0
O20 O 0.35962 1.01478 0.36983 0.0
H21 H 0.31858 0.98902 0.27856 0.0
H22 H 0.31361 0.11264 0.33498 0.0
Cu23 Cu 0.03639 0.34378 0.37238 0.0
N24 N 0.05486 0.31564 0.37499 0.0
N25 N 0.07659 0.28713 0.39426 0.0
C26 C 0.06567 0.30854 0.39614 0.0
C27 C 0.0725 0.28062 0.37074 0.0
C28 C 0.05911 0.29812 0.35896 0.0
O29 O 1.0167 0.341 0.40059 0.0
C30 C 0.07299 0.36985 0.35244 0.0
O31 O 0.07111 0.34992 0.33931 0.0
H32 H 0.0653 0.31901 0.41267 0.0
H33 H 0.0527 0.29786 0.34016 0.0
N34 N 1.0142 0.34621 0.34542 0.0
N35 N 0.98479 0.3626 0.32186 0.0
C36 C 1.00043 0.36562 0.3414 0.0
C37 C 1.00712 0.33028 0.32773 0.0
C38 C 0.98903 0.3403 0.31323 0.0
C39 C 1.00386 0.32118 0.39938 0.0
O40 O 1.00459 0.30772 0.37981 0.0
H41 H 1.00142 0.38139 0.35314 0.0
H42 H 1.01417 0.31245 0.32576 0.0
O43 O 0.059 0.37181 0.36994 0.0
H44 H 0.07824 0.2641 0.3626 0.0
H45 H 0.97974 0.33174 0.29755 0.0
Cu46 Cu 0.7224 0.03976 0.34759 0.0
N47 N 0.72055 0.05806 0.3193 0.0
N48 N 0.70465 0.07394 0.28531 0.0
C49 C 0.70031 0.06096 0.30536 0.0
C50 C 0.72865 0.0794 0.28653 0.0
C51 C 0.73844 0.06963 0.30767 0.0
O52 O 0.69669 1.01426 0.34449 0.0
C53 C 0.71806 0.0831 0.37601 0.0
O54 O 0.7081 0.0923 0.35619 0.0
H55 H 0.68278 0.0532 0.3095 0.0
H56 H 0.75727 0.07061 0.31397 0.0
N57 N 0.75186 1.02483 0.34953 0.0
N58 N 0.78547 1.01002 0.3666 0.0
C59 C 0.76395 1.01954 0.37039 0.0
C60 C 0.76613 1.01844 0.33179 0.0
C61 C 0.78701 1.00933 0.34231 0.0
C62 C 0.67417 1.01784 0.34526 0.0
O63 O 0.66736 0.03929 0.35192 0.0
H64 H 0.75728 1.02319 0.38805 0.0
H65 H 0.76178 1.02051 0.31262 0.0
O66 O 0.72303 0.06073 0.37633 0.0
H67 H 0.73832 0.08982 0.27326 0.0
H68 H 0.80202 1.00257 0.33287 0.0
Cu69 Cu 1.02003 0.71809 0.34371 0.0
N70 N 0.03832 0.71668 0.31574 0.0
N71 N 0.0607 0.69874 0.28842 0.0
C72 C 0.0481 0.69592 0.30863 0.0
C73 C 0.05879 0.72243 0.2826 0.0
C74 C 0.04491 0.73341 0.29937 0.0
O75 O 0.99989 0.68807 0.34027 0.0
C76 C 0.05381 0.74439 0.37041 0.0
O77 O 0.04786 0.7584 0.35203 0.0
H78 H 0.0463 0.67906 0.31852 0.0
H79 H 0.0401 0.75221 0.29963 0.0
N80 N 0.9984 0.74362 0.34709 0.0
N81 N 0.97333 0.76743 0.36638 0.0
C82 C 0.98881 0.74907 0.36837 0.0
C83 C 0.98875 0.75925 0.33097 0.0
C84 C 0.97322 0.77382 0.34277 0.0
C85 C 0.98675 0.68883 0.32056 0.0
O86 O 0.98743 0.70903 0.30801 0.0
H87 H 0.99289 0.73939 0.385 0.0
H88 H 0.99261 0.75995 0.31199 0.0
O89 O 0.04373 0.7231 0.37108 0.0
H90 H 0.0667 0.73124 0.26723 0.0
H91 H 0.96291 0.78821 0.33462 0.0
Cu92 Cu 0.36211 1.0243 0.71219 0.0
N93 N 0.38965 0.04496 0.71461 0.0
N94 N 0.41921 0.06749 0.73399 0.0
C95 C 0.40011 0.05176 0.73617 0.0
C96 C 0.42085 0.07054 0.70982 0.0
C97 C 0.40257 0.0566 0.69791 0.0
O98 O 0.36637 1.00307 0.74088 0.0
C99 C 0.33151 0.05517 0.68761 0.0
O100 O 0.34856 0.05258 0.67227 0.0
H101 H 0.39357 0.04516 0.75313 0.0
H102 H 0.39879 0.05536 0.67854 0.0
N103 N 0.36014 1.0049 0.68425 0.0
N104 N 0.3417 0.98393 0.65332 0.0
C105 C 0.33924 0.99445 0.67509 0.0
C106 C 0.37659 1.0009 0.66778 0.0
C107 C 0.36529 0.98788 0.6487 0.0
C108 C 0.38405 0.98887 0.73993 0.0
O109 O 0.39584 0.98828 0.71994 0.0
H110 H 0.32229 0.99565 0.68382 0.0
H111 H 0.39527 1.00753 0.66922 0.0
O112 O 0.33353 0.04467 0.70827 0.0
H113 H 0.43387 0.08243 0.70125 0.0
H114 H 0.3738 0.98198 0.63264 0.0
Cu115 Cu 0.04816 0.40259 0.68743 0.0
N116 N 0.06511 0.40032 0.6593 0.0
N117 N 0.09274 0.38535 0.63597 0.0
C118 C 0.07985 0.38207 0.65584 0.0
C119 C 0.08545 0.40646 0.62626 0.0
C120 C 0.06842 0.41575 0.6408 0.0
O121 O 1.02115 0.37846 0.68491 0.0
C122 C 0.09017 0.41328 0.71364 0.0
O123 O 0.09167 0.42768 0.6948 0.0
H124 H 0.08144 0.36697 0.66821 0.0
H125 H 0.05996 0.43295 0.63856 0.0
N126 N 0.03651 0.43328 0.69302 0.0
N127 N 1.02377 0.46328 0.71567 0.0
C128 C 0.03368 0.44141 0.71558 0.0
C129 C 0.02826 0.45075 0.67813 0.0
C130 C 1.02015 0.46926 0.69213 0.0
C131 C 1.00318 0.38358 0.67073 0.0
O132 O 1.00366 0.40458 0.65958 0.0
H133 H 0.03781 0.43086 0.73166 0.0
H134 H 0.02736 0.44979 0.65857 0.0
O135 O 0.07181 0.39854 0.71445 0.0
H136 H 0.09265 0.41513 0.61046 0.0
H137 H 1.01179 0.48553 0.68553 0.0
Cu138 Cu 0.71823 0.03132 0.69936 0.0
N139 N 0.71382 1.0098 0.72505 0.0
N140 N 0.69503 0.98244 0.74819 0.0
C141 C 0.693 0.99722 0.72879 0.0
C142 C 0.71812 0.98594 0.75701 0.0
C143 C 0.72965 1.00285 0.74272 0.0
O144 O 0.69272 0.05575 0.70205 0.0
C145 C 0.73383 0.99317 0.67082 0.0
O146 O 0.74245 0.98695 0.69238 0.0
H147 H 0.67684 0.99855 0.71708 0.0
H148 H 0.74835 1.00923 0.74484 0.0
N149 N 0.74841 0.0479 0.70179 0.0
N150 N 0.78095 0.06763 0.68784 0.0
C151 C 0.75965 0.05573 0.68211 0.0
C152 C 0.76315 0.05502 0.72086 0.0
C153 C 0.78322 0.06736 0.71229 0.0
C154 C 0.69452 0.06895 0.72129 0.0
O155 O 0.71276 0.0656 0.73688 0.0
H156 H 0.75182 0.05339 0.66386 0.0
H157 H 0.75946 0.05189 0.73965 0.0
O158 O 0.72063 1.01178 0.66912 0.0
H159 H 0.72611 0.97702 0.77271 0.0
H160 H 0.79816 0.07563 0.72318 0.0
Cu161 Cu 0.03025 0.70043 0.71255 0.0
N162 N 0.05489 0.72455 0.70942 0.0
N163 N 0.08498 0.74482 0.69139 0.0
C164 C 0.06726 0.72723 0.68915 0.0
C165 C 0.08365 0.75359 0.71411 0.0
C166 C 0.06506 0.74109 0.72518 0.0
O167 O 1.00848 0.70391 0.68394 0.0
C168 C 0.05777 0.67082 0.73889 0.0
O169 O 0.05896 0.69143 0.75093 0.0
H170 H 0.06365 0.7159 0.67326 0.0
H171 H 0.05972 0.74362 0.74352 0.0
N172 N 1.01078 0.70289 0.73934 0.0
N173 N 0.98321 0.69009 0.7654 0.0
C174 C 0.99531 0.68472 0.74558 0.0
C175 C 1.00854 0.72055 0.7558 0.0
C176 C 0.99156 0.71271 0.77189 0.0
C177 C 0.99737 0.72366 0.68508 0.0
O178 O 1.00199 0.73798 0.7039 0.0
H179 H 0.9934 0.66765 0.73587 0.0
H180 H 1.01837 0.73791 0.75604 0.0
O181 O 0.0461 0.66984 0.71835 0.0
H182 H 0.09523 0.76803 0.7222 0.0
H183 H 0.98569 0.72304 0.78701 0.0
Cu184 Cu 0.35519 0.36936 0.03511 0.0
N185 N 0.32349 0.37182 0.04638 0.0
N186 N 0.29286 0.38727 0.06613 0.0
C187 C 0.31641 0.38998 0.06066 0.0
C188 C 0.28484 0.36651 0.05477 0.0
C189 C 0.30362 0.35715 0.04257 0.0
O190 O 0.36457 0.40315 0.02998 0.0
C191 C 0.3676 0.3345 0.06902 0.0
O192 O 0.34539 0.32669 0.06292 0.0
H193 H 0.32852 0.40468 0.06733 0.0
H194 H 0.30284 0.3407 0.03182 0.0
N195 N 0.35757 0.351 1.00621 0.0
N196 N 0.37416 0.33126 0.97566 0.0
C197 C 0.37807 0.34237 0.99758 0.0
C198 C 0.34004 0.34498 0.98929 0.0
C199 C 0.35012 0.33288 0.9706 0.0
C200 C 0.36627 0.41203 1.00889 0.0
O201 O 0.37158 0.39773 0.99108 0.0
H202 H 0.39565 0.34495 1.0069 0.0
H203 H 0.32129 0.34946 0.99023 0.0
O204 O 0.37574 0.35408 0.05967 0.0
H205 H 0.26661 0.35868 0.05505 0.0
H206 H 0.3403 0.32586 0.95448 0.0
Cu207 Cu 0.72176 0.34675 0.03643 0.0
N208 N 0.74781 0.34495 1.01625 0.0
N209 N 0.77419 0.36005 0.99002 0.0
C210 C 0.75385 0.36365 1.00181 0.0
C211 C 0.78104 0.3378 0.99727 0.0
C212 C 0.76473 0.32854 1.01345 0.0
O213 O 0.72761 0.37817 0.05266 0.0
C214 C 0.68896 0.31942 1.00868 0.0
O215 O 0.70421 0.30332 1.01673 0.0
H216 H 0.74347 0.3798 1.00042 0.0
H217 H 0.76556 0.31141 1.02289 0.0
N218 N 0.71919 0.32344 0.06113 0.0
N219 N 0.70057 0.30151 0.08949 0.0
C220 C 0.69866 0.31938 0.07286 0.0
C221 C 0.73487 0.30763 0.07068 0.0
C222 C 0.72341 0.29403 0.08813 0.0
C223 C 0.74827 0.37943 0.06414 0.0
O224 O 0.76139 0.36011 0.06439 0.0
H225 H 0.68237 0.32903 0.06865 0.0
H226 H 0.75323 0.306 0.06533 0.0
O227 O 0.69275 0.34161 1.01503 0.0
H228 H 0.79708 0.32906 0.99196 0.0
H229 H 0.73136 0.27981 0.09896 0.0
Cu230 Cu 0.67617 0.70162 0.03429 0.0
N231 N 0.64408 0.69924 0.04279 0.0
N232 N 0.60991 0.71501 0.05385 0.0
C233 C 0.63261 0.71956 0.0472 0.0
C234 C 0.60681 0.69061 0.05401 0.0
C235 C 0.62799 0.68083 0.04678 0.0
O236 O 0.67697 0.73351 1.01767 0.0
C237 C 0.69373 0.6758 0.07366 0.0
O238 O 0.67676 0.66101 0.06385 0.0
H239 H 0.64124 0.73751 0.04661 0.0
H240 H 0.63146 0.66177 0.04506 0.0
N241 N 0.68378 0.67715 1.01301 0.0
N242 N 0.7072 0.65152 0.99463 0.0
C243 C 0.70655 0.67117 1.00914 0.0
C244 C 0.66935 0.66073 1.00062 0.0
C245 C 0.68377 0.64491 0.98917 0.0
C246 C 0.66559 0.73393 0.99689 0.0
O247 O 0.65812 0.71319 0.98683 0.0
H248 H 0.72229 0.68056 1.01769 0.0
H249 H 0.64979 0.66006 1.00029 0.0
O250 O 0.69721 0.6966 0.06383 0.0
H251 H 0.59066 0.68067 0.05927 0.0
H252 H 0.67743 0.62969 0.97784 0.0
Cu253 Cu 0.3827 0.68517 0.05097 0.0
N254 N 0.38158 0.65743 0.03128 0.0
N255 N 0.36768 0.63311 1.00067 0.0
C256 C 0.36737 0.65536 1.01081 0.0
C257 C 0.38317 0.62071 1.01517 0.0
C258 C 0.39166 0.63576 0.03414 0.0
O259 O 0.35666 0.68201 0.0731 0.0
C260 C 0.38959 0.73311 0.03152 0.0
O261 O 0.39748 0.73989 0.0534 0.0
H262 H 0.3565 0.6699 1.00382 0.0
H263 H 0.40366 0.631 0.04929 0.0
N264 N 0.41136 0.68958 0.07033 0.0
N265 N 0.43655 0.70634 0.09935 0.0
C266 C 0.41348 0.70387 0.09019 0.0
C267 C 0.43384 0.68234 0.06691 0.0
C268 C 0.44942 0.69259 0.08486 0.0
C269 C 0.33533 0.67381 0.06728 0.0
O270 O 0.3289 0.67017 0.04432 0.0
H271 H 0.39839 0.71297 0.09726 0.0
H272 H 0.4387 0.67123 0.05191 0.0
O273 O 0.38044 0.71177 0.02812 0.0
H274 H 0.38722 0.60184 1.01286 0.0
H275 H 0.46885 0.69102 0.08637 0.0
Cu276 Cu 0.88376 0.53488 0.88822 0.0
N277 N 0.91558 0.52607 0.88581 0.0
N278 N 0.94689 0.51483 0.86511 0.0
C279 C 0.92278 0.51727 0.86486 0.0
C280 C 0.95528 0.52247 0.88735 0.0
C281 C 0.93583 0.52943 0.90015 0.0
O282 O 0.87918 0.5549 0.85915 0.0
C283 C 0.87066 0.48883 0.90453 0.0
O284 O 0.89224 0.49201 0.91535 0.0
H285 H 0.91051 0.51412 0.84919 0.0
H286 H 0.93654 0.53715 0.91818 0.0
N287 N 0.87858 0.55311 0.91572 0.0
N288 N 0.85569 0.57329 0.94044 0.0
C289 C 0.85635 0.55534 0.92388 0.0
C290 C 0.89286 0.56984 0.92787 0.0
C291 C 0.87876 0.58228 0.94324 0.0
C292 C 0.87607 0.57768 0.85997 0.0
O293 O 0.86846 0.58718 0.87984 0.0
H294 H 0.84072 0.54486 0.91653 0.0
H295 H 0.91163 0.57398 0.92444 0.0
O296 O 0.86297 0.50533 0.89026 0.0
H297 H 0.9741 0.52345 0.89375 0.0
H298 H 0.88475 0.5979 0.95418 0.0
Cu299 Cu 0.52291 0.8602 0.87122 0.0
N300 N 0.50222 0.833 0.87526 0.0
N301 N 0.4762 0.8088 0.89455 0.0
C302 C 0.49224 0.82787 0.89642 0.0
C303 C 0.47611 0.80153 0.8712 0.0
C304 C 0.49226 0.81648 0.85933 0.0
O305 O 0.54673 0.85925 0.89929 0.0
C306 C 0.48655 0.88481 0.84758 0.0
O307 O 0.48737 0.86464 0.83505 0.0
H308 H 0.49602 0.83863 0.91268 0.0
H309 H 0.49581 0.8158 0.8403 0.0
N310 N 0.5409 0.85878 0.84356 0.0
N311 N 0.56749 0.87177 0.81683 0.0
C312 C 0.55468 0.87764 0.83596 0.0
C313 C 0.545 0.8402 0.82869 0.0
C314 C 0.56146 0.84817 0.81218 0.0
C315 C 0.55999 0.84073 0.8991 0.0
O316 O 0.55672 0.82524 0.88105 0.0
H317 H 0.55599 0.89509 0.84503 0.0
H318 H 0.53729 0.82197 0.83021 0.0
O319 O 0.50162 0.88806 0.86582 0.0
H320 H 0.46505 0.78664 0.86324 0.0
H321 H 0.56862 0.83735 0.79807 0.0
Cu322 Cu 0.21197 0.52934 0.87202 0.0
N323 N 0.18577 0.54945 0.86771 0.0
N324 N 0.155 0.56787 0.84883 0.0
C325 C 0.17505 0.55525 0.84617 0.0
C326 C 0.15312 0.57022 0.87297 0.0
C327 C 0.17216 0.55887 0.88458 0.0
O328 O 0.20528 0.50228 0.84962 0.0
C329 C 0.24525 0.56943 0.8748 0.0
O330 O 0.22567 0.58178 0.87674 0.0
H331 H 0.18138 0.54958 0.82892 0.0
H332 H 0.17561 0.55731 0.90393 0.0
N333 N 0.21529 0.51751 0.90353 0.0
N334 N 0.23605 0.50588 0.93694 0.0
C335 C 0.23713 0.51288 0.91369 0.0
C336 C 0.19952 0.51305 0.92091 0.0
C337 C 0.21234 0.50569 0.9416 0.0
C338 C 0.18557 0.49011 0.85264 0.0
O339 O 0.17283 0.49555 0.87116 0.0
H340 H 0.25354 0.51427 0.90392 0.0
H341 H 0.1802 0.51511 0.9188 0.0
O342 O 0.24293 0.54711 0.86871 0.0
H343 H 0.13903 0.57953 0.8816 0.0
H344 H 0.20484 0.50087 0.95873 0.0
Cu345 Cu 0.54684 0.21031 0.85151 0.0
N346 N 0.52138 0.23252 0.85119 0.0
N347 N 0.49237 0.25555 0.8655 0.0
C348 C 0.51146 0.24156 0.87109 0.0
C349 C 0.49047 0.25539 0.84098 0.0
C350 C 0.50822 0.24124 0.83228 0.0
O351 O 0.56959 0.221 0.87794 0.0
C352 C 0.51065 0.17268 0.85742 0.0
O353 O 0.49737 0.18953 0.86603 0.0
H354 H 0.51796 0.2375 0.88937 0.0
H355 H 0.51094 0.23711 0.8135 0.0
N356 N 0.56392 0.20794 0.82266 0.0
N357 N 0.58641 0.19118 0.79449 0.0
C358 C 0.57381 0.18745 0.81468 0.0
C359 C 0.57039 0.22525 0.80686 0.0
C360 C 0.5842 0.21505 0.7896 0.0
C361 C 0.57553 0.24363 0.87837 0.0
O362 O 0.56716 0.25742 0.86075 0.0
H363 H 0.57243 0.17027 0.82405 0.0
H364 H 0.56576 0.24407 0.80802 0.0
O365 O 0.53299 0.1775 0.85454 0.0
H366 H 0.47673 0.26418 0.82995 0.0
H367 H 0.59205 0.2246 0.77462 0.0
Cu368 Cu 0.84221 0.53441 0.21325 0.0
N369 N 0.81673 0.5561 0.21435 0.0
N370 N 0.79087 0.58397 0.20043 0.0
C371 C 0.80955 0.57002 0.1954 0.0
C372 C 0.78623 0.57852 0.22366 0.0
C373 C 0.80217 0.56142 0.23217 0.0
O374 O 0.83685 0.51808 0.18183 0.0
C375 C 0.87395 0.56048 0.2428 0.0
O376 O 0.85628 0.55415 0.25679 0.0
H377 H 0.81767 0.56943 0.17803 0.0
H378 H 0.80303 0.55343 0.25004 0.0
N379 N 0.84345 0.50913 0.23629 0.0
N380 N 0.86031 0.47915 0.25804 0.0
C381 C 0.86365 0.4968 0.24141 0.0
C382 C 0.82655 0.49894 0.25016 0.0
C383 C 0.83687 0.48044 0.26354 0.0
C384 C 0.81547 0.50836 0.17947 0.0
O385 O 0.80119 0.51023 0.19758 0.0
H386 H 0.88045 0.50057 0.23269 0.0
H387 H 0.80806 0.50447 0.25048 0.0
O388 O 0.87202 0.55399 0.22053 0.0
H389 H 0.7724 0.58637 0.23397 0.0
H390 H 0.82782 0.46902 0.27649 0.0
Cu391 Cu 0.53593 0.87549 0.21061 0.0
N392 N 0.55475 0.8713 0.18425 0.0
N393 N 0.56588 0.85302 0.15076 0.0
C394 C 0.55135 0.85198 0.16954 0.0
C395 C 0.57908 0.87412 0.15382 0.0
C396 C 0.57205 0.88546 0.17452 0.0
O397 O 0.52306 0.84235 0.21619 0.0
C398 C 0.5599 0.91388 0.23662 0.0
O399 O 0.55111 0.92589 0.21788 0.0
H400 H 0.53836 0.83738 0.17276 0.0
H401 H 0.57882 0.90282 0.18175 0.0
N402 N 0.51092 0.89509 0.19991 0.0
N403 N 0.47806 0.91716 0.1989 0.0
C404 C 0.4943 0.90536 0.21307 0.0
C405 C 0.50521 0.90084 0.17672 0.0
C406 C 0.48497 0.91453 0.17603 0.0
C407 C 0.50054 0.83633 0.21529 0.0
O408 O 0.48485 0.85319 0.21796 0.0
H409 H 0.49395 0.90387 0.23258 0.0
H410 H 0.51482 0.89504 0.16132 0.0
O411 O 0.55543 0.891 0.23756 0.0
H412 H 0.59264 0.88106 0.14192 0.0
H413 H 0.47561 0.92132 0.15992 0.0
Cu414 Cu 0.19359 0.53215 0.21106 0.0
N415 N 0.194 0.51433 0.24013 0.0
N416 N 0.18138 0.4913 0.27088 0.0
C417 C 0.17494 0.50265 0.24995 0.0
C418 C 0.20542 0.49619 0.27431 0.0
C419 C 0.21309 0.51032 0.25543 0.0
O420 O 0.16582 0.55385 0.21191 0.0
C421 C 0.21236 0.49356 0.18536 0.0
O422 O 0.22468 0.49203 0.20618 0.0
H423 H 0.15684 0.50205 0.24155 0.0
H424 H 0.23146 0.51679 0.25283 0.0
N425 N 0.22094 0.55314 0.20955 0.0
N426 N 0.24685 0.57972 0.19303 0.0
C427 C 0.22818 0.56344 0.18894 0.0
C428 C 0.23559 0.56318 0.22738 0.0
C429 C 0.2516 0.57958 0.21723 0.0
C430 C 0.1673 0.56882 0.22977 0.0
O431 O 0.18568 0.56742 0.24562 0.0
H432 H 0.2192 0.55977 0.17139 0.0
H433 H 0.23423 0.55957 0.24648 0.0
O434 O 0.1962 0.50956 0.18312 0.0
H435 H 0.21677 0.49 0.28938 0.0
H436 H 0.26545 0.5907 0.22696 0.0
Cu437 Cu 0.52984 0.18176 0.1821 0.0
N438 N 0.50305 0.1881 0.16159 0.0
N439 N 0.47358 0.20808 0.14224 0.0
C440 C 0.49161 0.20914 0.15969 0.0
C441 C 0.47364 0.18537 0.13303 0.0
C442 C 0.49183 0.17311 0.14499 0.0
O443 O 0.55364 0.20926 0.18177 0.0
C444 C 0.5074 0.15075 0.21454 0.0
O445 O 0.50527 0.13757 0.19466 0.0
H446 H 0.49666 0.22494 0.17075 0.0
H447 H 0.49685 0.15473 0.14155 0.0
N448 N 0.54659 0.15617 0.17005 0.0
N449 N 0.57472 0.12841 0.17145 0.0
C450 C 0.55921 0.14086 0.18414 0.0
C451 C 0.55437 0.15329 0.14757 0.0
C452 C 0.57196 0.13622 0.14842 0.0
C453 C 0.55694 0.21927 0.16128 0.0
O454 O 0.54273 0.21249 0.14252 0.0
H455 H 0.55885 0.14069 0.20371 0.0
H456 H 0.54915 0.16426 0.13212 0.0
O457 O 0.51786 0.17184 0.21374 0.0
H458 H 0.46189 0.17828 0.11821 0.0
H459 H 0.58293 0.13113 0.13373 0.0
Cu460 Cu 0.87553 0.88179 0.53571 0.0
N461 N 0.89541 0.87132 0.56171 0.0
N462 N 0.91518 0.84708 0.58758 0.0
C463 C 0.89911 0.8482 0.56844 0.0
C464 C 0.92169 0.87036 0.59317 0.0
C465 C 0.90956 0.88524 0.57713 0.0
O466 O 0.87539 0.8572 0.5093 0.0
C467 C 0.84544 0.91171 0.56116 0.0
O468 O 0.86659 0.92323 0.56455 0.0
H469 H 0.89027 0.83254 0.55941 0.0
H470 H 0.91119 0.90484 0.57651 0.0
N471 N 0.88937 0.90941 0.52174 0.0
N472 N 0.89015 0.94106 0.49673 0.0
C473 C 0.87629 0.92595 0.5098 0.0
C474 C 0.91247 0.91426 0.51612 0.0
C475 C 0.91296 0.93374 0.50041 0.0
C476 C 0.89599 0.84897 0.50459 0.0
O477 O 0.91512 0.8559 0.51825 0.0
H478 H 0.8567 0.92553 0.50895 0.0
H479 H 0.92758 0.90338 0.52163 0.0
O480 O 0.84438 0.89189 0.54879 0.0
H481 H 0.93472 0.87619 0.6075 0.0
H482 H 0.92854 0.94109 0.49139 0.0
Cu483 Cu 0.21793 0.84483 0.51309 0.0
N484 N 0.24568 0.84877 0.49496 0.0
N485 N 0.27347 0.8694 0.47389 0.0
C486 C 0.25348 0.87064 0.48682 0.0
C487 C 0.2784 0.84559 0.47383 0.0
C488 C 0.26129 0.83292 0.4869 0.0
O489 O 0.21874 0.87435 0.53274 0.0
C490 C 0.18932 0.81706 0.48115 0.0
O491 O 0.20824 0.80375 0.48508 0.0
H492 H 0.24421 0.88714 0.49001 0.0
H493 H 0.26026 0.81358 0.49014 0.0
N494 N 0.2171 0.81915 0.53541 0.0
N495 N 0.20153 0.79673 0.56513 0.0
C496 C 0.19826 0.81532 0.54959 0.0
C497 C 0.23303 0.80233 0.54206 0.0
C498 C 0.22349 0.7885 0.56049 0.0
C499 C 0.23599 0.87449 0.54899 0.0
O500 O 0.24984 0.85576 0.55065 0.0
H501 H 0.18267 0.82653 0.54888 0.0
H502 H 0.25043 0.80048 0.53438 0.0
O503 O 0.18956 0.838 0.49113 0.0
H504 H 0.29336 0.83783 0.46513 0.0
H505 H 0.23204 0.77354 0.56967 0.0
Cu506 Cu 0.21964 0.1995 0.55358 0.0
N507 N 0.22005 0.22744 0.57279 0.0
N508 N 0.20957 0.26293 0.58799 0.0
C509 C 0.20358 0.24472 0.57211 0.0
C510 C 0.23086 0.25683 0.5989 0.0
C511 C 0.23727 0.23502 0.58945 0.0
O512 O 0.19287 0.20052 0.5287 0.0
C513 C 0.22243 0.16917 0.59654 0.0
O514 O 0.21418 0.18776 0.60796 0.0
H515 H 0.18746 0.24382 0.5603 0.0
H516 H 0.25338 0.22533 0.59433 0.0
N517 N 0.24688 0.20129 0.53535 0.0
N518 N 0.27091 0.19257 0.50562 0.0
C519 C 0.25015 0.18676 0.51639 0.0
C520 C 0.26624 0.21691 0.53679 0.0
C521 C 0.2812 0.2115 0.51847 0.0
C522 C 0.17055 0.20425 0.53113 0.0
O523 O 0.16207 0.20386 0.55291 0.0
H524 H 0.23745 0.17215 0.51073 0.0
H525 H 0.26911 0.23143 0.54991 0.0
O526 O 0.22342 0.16998 0.57347 0.0
H527 H 0.24125 0.26732 0.61266 0.0
H528 H 0.29799 0.2211 0.5146 0.0
Cu529 Cu 0.85664 0.22253 0.54203 0.0
N530 N 0.82901 0.22025 0.52066 0.0
N531 N 0.80106 0.20375 0.494 0.0
C532 C 0.82025 0.19974 0.50937 0.0
C533 C 0.79767 0.2278 0.49565 0.0
C534 C 0.81487 0.2379 0.51212 0.0
O535 O 0.85843 0.19208 0.55959 0.0
C536 C 0.88511 0.25301 0.5155 0.0
O537 O 0.86705 0.26679 0.51994 0.0
H538 H 0.82823 0.18228 0.51196 0.0
H539 H 0.8171 0.25684 0.51722 0.0
N540 N 0.85635 0.24685 0.56567 0.0
N541 N 0.87269 0.27348 0.59327 0.0
C542 C 0.87643 0.25435 0.57878 0.0
C543 C 0.83895 0.26147 0.5721 0.0
C544 C 0.84896 0.27792 0.58911 0.0
C545 C 0.83872 0.18538 0.56898 0.0
O546 O 0.81988 0.19897 0.56595 0.0
H547 H 0.89359 0.24603 0.57709 0.0
H548 H 0.82055 0.26071 0.5645 0.0
O549 O 0.88447 0.23119 0.52319 0.0
H550 H 0.78375 0.23743 0.48569 0.0
H551 H 0.83952 0.29247 0.59707 0.0
H552 H 0.24433 0.16838 0.47009 0.0
H553 H 0.31763 0.19056 0.49332 0.0
H554 H 0.25923 0.14653 0.43615 0.0
H555 H 0.33255 0.16954 0.45854 0.0
H556 H 0.35008 0.10307 0.4128 0.0
H557 H 0.33659 0.12808 0.44533 0.0
H558 H 0.27779 0.15209 0.3981 0.0
H559 H 0.29055 0.12613 0.36594 0.0
C560 C 0.26365 0.16865 0.46795 0.0
C561 C 0.2798 0.18099 0.48464 0.0
C562 C 0.27218 0.1564 0.44824 0.0
C563 C 0.29709 0.15627 0.44462 0.0
C564 C 0.31326 0.16906 0.46098 0.0
C565 C 0.3047 0.18132 0.48077 0.0
C566 C 0.33416 0.11349 0.40937 0.0
C567 C 0.32126 0.11232 0.38677 0.0
C568 C 0.32663 0.12814 0.42794 0.0
C569 C 0.30607 0.14204 0.42435 0.0
C570 C 0.29353 0.14135 0.40157 0.0
C571 C 0.301 0.12664 0.38302 0.0
H572 H 0.99199 0.34472 0.44119 0.0
H573 H 0.9829 0.27624 0.40294 0.0
H574 H 0.96628 0.32832 0.4728 0.0
H575 H 0.9574 0.26029 0.43381 0.0
H576 H 0.92471 0.22998 0.50007 0.0
H577 H 0.95673 0.2472 0.47557 0.0
H578 H 0.92321 0.31654 0.47555 0.0
H579 H 0.8917 0.29961 0.50026 0.0
C580 C 0.98465 0.32623 0.43958 0.0
C581 C 0.98932 0.31192 0.41944 0.0
C582 C 0.96992 0.31684 0.4576 0.0
C583 C 0.95985 0.29293 0.45586 0.0
C584 C 0.96513 0.27859 0.436 0.0
C585 C 0.97959 0.28793 0.41809 0.0
C586 C 0.92434 0.24893 0.49501 0.0
C587 C 0.90547 0.26329 0.50185 0.0
C588 C 0.94264 0.25881 0.48095 0.0
C589 C 0.94246 0.28325 0.47348 0.0
C590 C 0.92409 0.29778 0.48117 0.0
C591 C 0.90584 0.28792 0.49515 0.0
H592 H 0.90112 0.94295 0.44975 0.0
H593 H 0.85747 0.9746 0.5028 0.0
H594 H 0.8776 0.96275 0.41729 0.0
H595 H 0.83454 0.99533 0.47073 0.0
H596 H 0.77586 0.99163 0.41033 0.0
H597 H 0.80468 0.97926 0.44192 0.0
H598 H 0.86364 0.99866 0.39641 0.0
H599 H 0.83437 1.01078 0.36439 0.0
C600 C 0.88709 0.95497 0.45444 0.0
C601 C 0.88088 0.95725 0.47861 0.0
C602 C 0.87358 0.96627 0.43591 0.0
C603 C 0.85382 0.98019 0.44138 0.0
C604 C 0.84918 0.98416 0.46583 0.0
C605 C 0.86241 0.97259 0.48421 0.0
C606 C 0.79496 0.99352 0.40713 0.0
C607 C 0.80285 1.00233 0.38495 0.0
C608 C 0.81155 0.98654 0.42531 0.0
C609 C 0.83655 0.98836 0.4219 0.0
C610 C 0.84452 0.99698 0.39959 0.0
C611 C 0.82779 1.00386 0.38126 0.0
H612 H 0.18482 0.77258 0.45953 0.0
H613 H 0.14542 0.83745 0.4699 0.0
H614 H 0.15064 0.7546 0.43569 0.0
H615 H 0.11076 0.81913 0.44613 0.0
H616 H 0.06964 0.79131 0.37617 0.0
H617 H 0.10051 0.80844 0.40448 0.0
H618 H 0.10934 0.73783 0.43668 0.0
H619 H 0.07826 0.72033 0.40763 0.0
C620 C 0.16879 0.78304 0.45683 0.0
C621 C 0.16801 0.80663 0.46653 0.0
C622 C 0.14902 0.77254 0.44331 0.0
C623 C 0.12782 0.78529 0.43899 0.0
C624 C 0.12689 0.80883 0.44889 0.0
C625 C 0.14674 0.81937 0.46253 0.0
C626 C 0.078 0.7793 0.38932 0.0
C627 C 0.07157 0.7543 0.38942 0.0
C628 C 0.09563 0.78928 0.40579 0.0
C629 C 0.10751 0.77462 0.42294 0.0
C630 C 0.10072 0.74965 0.42353 0.0
C631 C 0.08284 0.7396 0.407 0.0
H632 H 0.24545 0.9218 0.53635 0.0
H633 H 0.2434 0.87316 0.59726 0.0
H634 H 0.26811 0.9524 0.56189 0.0
H635 H 0.26589 0.90322 0.62263 0.0
H636 H 0.29908 0.96376 0.6674 0.0
H637 H 0.26781 0.94236 0.64228 0.0
H638 H 0.3101 0.9541 0.57952 0.0
H639 H 0.34105 0.9765 0.60452 0.0
C640 C 0.24896 0.9181 0.55543 0.0
C641 C 0.24246 0.89534 0.56501 0.0
C642 C 0.26226 0.9354 0.56995 0.0
C643 C 0.26902 0.9302 0.59428 0.0
C644 C 0.26084 0.90802 0.60412 0.0
C645 C 0.24788 0.89077 0.58961 0.0
C646 C 0.30162 0.96225 0.6482 0.0
C647 C 0.32282 0.97179 0.63812 0.0
C648 C 0.28368 0.94978 0.63378 0.0
C649 C 0.28643 0.9464 0.60887 0.0
C650 C 0.30724 0.95658 0.59859 0.0
C651 C 0.32522 0.9691 0.61304 0.0
H652 H 0.11967 0.3552 0.66388 0.0
H653 H 0.10899 0.38124 0.59057 0.0
H654 H 0.14935 0.32781 0.65085 0.0
H655 H 0.14006 0.35454 0.57762 0.0
H656 H 0.17204 0.28059 0.5603 0.0
H657 H 0.14546 0.31217 0.57123 0.0
H658 H 0.18897 0.32551 0.63741 0.0
H659 H 0.21467 0.29289 0.62734 0.0
C660 C 0.12364 0.35515 0.64493 0.0
C661 C 0.11155 0.37021 0.62821 0.0
C662 C 0.14109 0.33967 0.63751 0.0
C663 C 0.14722 0.33895 0.61317 0.0
C664 C 0.13559 0.35443 0.59647 0.0
C665 C 0.11795 0.36991 0.60392 0.0
C666 C 0.17597 0.29003 0.57729 0.0
C667 C 0.19539 0.2836 0.59313 0.0
C668 C 0.16084 0.30851 0.58338 0.0
C669 C 0.16486 0.32125 0.60535 0.0
C670 C 0.185 0.31573 0.62058 0.0
C671 C 0.19998 0.29709 0.61462 0.0
H672 H 0.87075 0.16803 0.60363 0.0
H673 H 0.80063 0.15348 0.56768 0.0
H674 H 0.86225 0.13539 0.63278 0.0
H675 H 0.79234 0.12093 0.59614 0.0
H676 H 0.78662 0.05529 0.64115 0.0
H677 H 0.80627 0.08001 0.61072 0.0
H678 H 0.83019 0.13252 0.66576 0.0
H679 H 0.81018 0.10793 0.69627 0.0
C680 C 0.85389 0.15737 0.60157 0.0
C681 C 0.8363 0.16315 0.58352 0.0
C682 C 0.84895 0.13889 0.61828 0.0
C683 C 0.82665 0.12563 0.6167 0.0
C684 C 0.80979 0.1306 0.59768 0.0
C685 C 0.81448 0.14929 0.58144 0.0
C686 C 0.79625 0.07199 0.64684 0.0
C687 C 0.79631 0.07994 0.67104 0.0
C688 C 0.80764 0.08604 0.62943 0.0
C689 C 0.81951 0.10831 0.63583 0.0
C690 C 0.8213 0.11535 0.66035 0.0
C691 C 0.80978 0.10129 0.67781 0.0
H692 H 0.95237 0.73751 0.69156 0.0
H693 H 1.00429 0.73046 0.63673 0.0
H694 H 0.92903 0.76422 0.6652 0.0
H695 H 0.98096 0.75768 0.61016 0.0
H696 H 0.9234 0.80363 0.56694 0.0
H697 H 0.93989 0.76786 0.58739 0.0
H698 H 0.94347 0.80682 0.65539 0.0
H699 H 0.92712 0.84218 0.6351 0.0
C700 C 0.95823 0.74096 0.67342 0.0
C701 C 0.98001 0.7319 0.66609 0.0
C702 C 0.94503 0.75645 0.65844 0.0
C703 C 0.95345 0.76346 0.63586 0.0
C704 C 0.97403 0.75255 0.62748 0.0
C705 C 0.98729 0.73685 0.64257 0.0
C706 C 0.9275 0.80434 0.5863 0.0
C707 C 0.92398 0.82568 0.59947 0.0
C708 C 0.93706 0.78398 0.59793 0.0
C709 C 0.94276 0.78446 0.62301 0.0
C710 C 0.93892 0.80573 0.63611 0.0
C711 C 0.92977 0.82608 0.62448 0.0
H712 H 0.35382 0.29658 0.09727 0.0
H713 H 0.41721 0.33681 0.07435 0.0
H714 H 0.37946 0.26738 0.11766 0.0
H715 H 0.44299 0.3071 0.09426 0.0
H716 H 0.48328 0.25676 0.14642 0.0
H717 H 0.45761 0.28917 0.13205 0.0
H718 H 0.40391 0.23561 0.10449 0.0
H719 H 0.429 0.20337 0.11975 0.0
C720 C 0.37328 0.29929 0.09673 0.0
C721 C 0.38348 0.31889 0.08401 0.0
C722 C 0.38798 0.28243 0.10829 0.0
C723 C 0.41329 0.28462 0.10726 0.0
C724 C 0.42357 0.30491 0.09553 0.0
C725 C 0.4088 0.32193 0.08407 0.0
C726 C 0.46584 0.25189 0.13765 0.0
C727 C 0.45824 0.22737 0.13427 0.0
C728 C 0.45123 0.2705 0.12916 0.0
C729 C 0.42866 0.26505 0.11714 0.0
C730 C 0.42101 0.24054 0.11398 0.0
C731 C 0.43558 0.22198 0.12246 0.0
H732 H 0.76874 0.49533 0.16737 0.0
H733 H 0.84094 0.48946 0.14252 0.0
H734 H 0.75293 0.46758 0.13593 0.0
H735 H 0.82485 0.46185 0.11017 0.0
H736 H 0.79294 0.38612 0.08621 0.0
H737 H 0.80951 0.4206 0.1095 0.0
H738 H 0.74372 0.4584 0.09407 0.0
H739 H 0.72667 0.42314 0.07093 0.0
C740 C 0.78126 0.48839 0.15489 0.0
C741 C 0.80623 0.49431 0.15775 0.0
C742 C 0.77207 0.47261 0.1366 0.0
C743 C 0.78755 0.46223 0.12053 0.0
C744 C 0.81242 0.46921 0.12249 0.0
C745 C 0.82167 0.48514 0.1409 0.0
C746 C 0.78192 0.40178 0.08758 0.0
C747 C 0.75826 0.40167 0.07691 0.0
C748 C 0.79164 0.42178 0.10077 0.0
C749 C 0.77806 0.4424 0.10373 0.0
C750 C 0.75463 0.4427 0.09239 0.0
C751 C 0.74484 0.42254 0.07909 0.0
H752 H 0.60379 0.75891 0.03419 0.0
H753 H 0.58239 0.7127 0.09291 0.0
H754 H 0.58837 0.79395 0.05454 0.0
H755 H 0.5666 0.74777 0.11331 0.0
H756 H 0.53236 0.81681 0.13837 0.0
H757 H 0.5373 0.78282 0.11134 0.0
H758 H 0.60717 0.8132 0.09335 0.0
H759 H 0.60283 0.84687 0.12107 0.0
C760 C 0.59512 0.75621 0.05117 0.0
C761 C 0.5946 0.73328 0.06225 0.0
C762 C 0.58642 0.77622 0.06282 0.0
C763 C 0.57679 0.77361 0.08569 0.0
C764 C 0.57397 0.75024 0.09565 0.0
C765 C 0.58285 0.73017 0.08398 0.0
C766 C 0.54889 0.81635 0.12884 0.0
C767 C 0.56746 0.83454 0.13241 0.0
C768 C 0.55156 0.79687 0.11319 0.0
C769 C 0.57259 0.79537 0.10033 0.0
C770 C 0.59061 0.81407 0.10288 0.0
C771 C 0.58812 0.8334 0.11879 0.0
H772 H 0.25126 0.56946 0.14558 0.0
H773 H 0.2684 0.62447 0.20016 0.0
H774 H 0.27056 0.59488 0.11556 0.0
H775 H 0.28752 0.65012 0.17007 0.0
H776 H 0.34556 0.67326 0.11624 0.0
H777 H 0.3229 0.65192 0.1468 0.0
H778 H 0.26684 0.63151 0.09243 0.0
H779 H 0.28988 0.65232 0.06165 0.0
C780 C 0.25891 0.58711 0.15111 0.0
C781 C 0.25832 0.59488 0.1753 0.0
C782 C 0.26991 0.60177 0.13386 0.0
C783 C 0.28053 0.62464 0.14032 0.0
C784 C 0.2798 0.63249 0.1645 0.0
C785 C 0.26888 0.61776 0.18179 0.0
C786 C 0.32823 0.66453 0.11082 0.0
C787 C 0.31966 0.66433 0.0864 0.0
C788 C 0.31516 0.65233 0.12841 0.0
C789 C 0.29315 0.63972 0.12207 0.0
C790 C 0.28398 0.64059 0.09787 0.0
C791 C 0.29709 0.65273 0.08024 0.0
H792 H 0.4109 0.77884 0.03117 0.0
H793 H 0.38464 0.72011 0.98368 0.0
H794 H 0.42923 0.79924 0.99712 0.0
H795 H 0.40366 0.73998 0.94995 0.0
H796 H 0.431 0.78785 0.88957 0.0
H797 H 0.40609 0.77257 0.92192 0.0
H798 H 0.46386 0.79251 0.9747 0.0
H799 H 0.48833 0.80812 0.94247 0.0
C800 C 0.40874 0.77043 1.01342 0.0
C801 C 0.39653 0.74771 1.01026 0.0
C802 C 0.41946 0.782 0.99392 0.0
C803 C 0.41839 0.77103 0.97084 0.0
C804 C 0.40482 0.74906 0.96738 0.0
C805 C 0.39393 0.7376 0.98682 0.0
C806 C 0.43834 0.78885 0.90809 0.0
C807 C 0.46162 0.79921 0.91347 0.0
C808 C 0.42407 0.78014 0.92666 0.0
C809 C 0.43284 0.78144 0.95102 0.0
C810 C 0.45619 0.79174 0.95628 0.0
C811 C 0.47034 0.80058 0.93777 0.0
H812 H 0.36482 0.43659 0.96602 0.0
H813 H 0.33781 0.43778 0.03801 0.0
H814 H 0.33476 0.4653 0.95261 0.0
H815 H 0.30754 0.46627 0.02442 0.0
H816 H 0.23564 0.47365 0.974 0.0
H817 H 0.27098 0.45759 0.99577 0.0
H818 H 0.31779 0.5065 0.95674 0.0
H819 H 0.28253 0.5228 0.93535 0.0
C820 C 0.35298 0.44351 0.97917 0.0
C821 C 0.35344 0.43448 1.00294 0.0
C822 C 0.33573 0.46 0.9715 0.0
C823 C 0.31851 0.46766 0.98739 0.0
C824 C 0.32035 0.46035 1.01171 0.0
C825 C 0.33783 0.44412 1.01948 0.0
C826 C 0.25341 0.4814 0.97054 0.0
C827 C 0.2563 0.49907 0.95253 0.0
C828 C 0.27367 0.47225 0.98303 0.0
C829 C 0.29717 0.48062 0.97772 0.0
C830 C 0.29994 0.49944 0.96092 0.0
C831 C 0.27972 0.50864 0.94856 0.0
H832 H 0.57844 0.29128 0.89137 0.0
H833 H 0.60653 0.22184 0.91124 0.0
H834 H 0.60296 0.31071 0.92416 0.0
H835 H 0.63223 0.24141 0.94338 0.0
H836 H 0.6627 0.27729 1.01126 0.0
H837 H 0.6336 0.25958 0.98118 0.0
H838 H 0.6419 0.32383 0.93702 0.0
H839 H 0.6701 0.34201 0.96812 0.0
C840 C 0.59007 0.28016 0.90266 0.0
C841 C 0.59057 0.25498 0.89866 0.0
C842 C 0.6043 0.29138 0.92144 0.0
C843 C 0.61978 0.27781 0.93659 0.0
C844 C 0.62024 0.25253 0.93253 0.0
C845 C 0.60563 0.24123 0.91395 0.0
C846 C 0.6579 0.2878 0.9953 0.0
C847 C 0.66859 0.31102 0.992 0.0
C848 C 0.64144 0.2775 0.97784 0.0
C849 C 0.6356 0.28993 0.95625 0.0
C850 C 0.64567 0.31368 0.95343 0.0
C851 C 0.66184 0.3242 0.97124 0.0
H852 H 0.7104 0.60451 0.98063 0.0
H853 H 0.75273 0.67149 0.99261 0.0
H854 H 0.74654 0.58459 0.96904 0.0
H855 H 0.78882 0.65148 0.98126 0.0
H856 H 0.85282 0.60128 0.98071 0.0
H857 H 0.81677 0.61973 0.995 0.0
H858 H 0.77388 0.58657 0.93543 0.0
H859 H 0.80953 0.56854 0.92101 0.0
C860 C 0.72731 0.61506 0.98067 0.0
C861 C 0.72854 0.63966 0.98757 0.0
C862 C 0.74807 0.6036 0.9741 0.0
C863 C 0.77057 0.61644 0.97431 0.0
C864 C 0.77185 0.64097 0.98132 0.0
C865 C 0.75109 0.65245 0.9878 0.0
C866 C 0.83573 0.59795 0.97065 0.0
C867 C 0.83426 0.58327 0.94973 0.0
C868 C 0.81506 0.60852 0.97884 0.0
C869 C 0.79245 0.60456 0.96637 0.0
C870 C 0.79092 0.58965 0.9457 0.0
C871 C 0.81151 0.57922 0.93746 0.0
H872 H 0.11452 0.36429 0.32999 0.0
H873 H 0.0705 0.4195 0.35814 0.0
H874 H 0.14087 0.39532 0.31289 0.0
H875 H 0.09724 0.45104 0.34081 0.0
H876 H 0.1326 0.49254 0.27495 0.0
H877 H 0.1071 0.46493 0.29835 0.0
H878 H 0.1705 0.42809 0.32446 0.0
H879 H 0.19577 0.45503 0.30075 0.0
C880 C 0.11068 0.38316 0.33284 0.0
C881 C 0.09043 0.38943 0.34545 0.0
C882 C 0.12589 0.401 0.32309 0.0
C883 C 0.1212 0.4257 0.32544 0.0
C884 C 0.10125 0.43214 0.33857 0.0
C885 C 0.0861 0.41414 0.3487 0.0
C886 C 0.14109 0.47855 0.28566 0.0
C887 C 0.16629 0.47598 0.28573 0.0
C888 C 0.1265 0.46292 0.29933 0.0
C889 C 0.13674 0.44424 0.31323 0.0
C890 C 0.16198 0.44214 0.3138 0.0
C891 C 0.17653 0.45777 0.30029 0.0
H892 H 0.16674 0.58499 0.80485 0.0
H893 H 0.10656 0.57069 0.84999 0.0
H894 H 0.1399 0.60444 0.77491 0.0
H895 H 0.07952 0.5893 0.81988 0.0
H896 H 0.05362 0.66015 0.78566 0.0
H897 H 0.07505 0.63055 0.80962 0.0
H898 H 0.10553 0.60321 0.74498 0.0
H899 H 0.08392 0.63379 0.72074 0.0
C900 C 0.14766 0.58555 0.80809 0.0
C901 C 0.1388 0.57682 0.82997 0.0
C902 C 0.13223 0.59653 0.79087 0.0
C903 C 0.10757 0.59876 0.79509 0.0
C904 C 0.09851 0.58845 0.81627 0.0
C905 C 0.11397 0.57783 0.83358 0.0
C906 C 0.06453 0.64752 0.77644 0.0
C907 C 0.06724 0.64931 0.75139 0.0
C908 C 0.07672 0.63035 0.79019 0.0
C909 C 0.09211 0.61442 0.77932 0.0
C910 C 0.09395 0.61536 0.75394 0.0
C911 C 0.08144 0.63262 0.74002 0.0
H912 H 0.40872 0.07032 0.78163 0.0
H913 H 0.46301 0.0917 0.73136 0.0
H914 H 0.43233 0.09073 0.8141 0.0
H915 H 0.48604 0.11338 0.76389 0.0
H916 H 0.53121 0.13866 0.82953 0.0
H917 H 0.51017 0.10997 0.80128 0.0
H918 H 0.44156 0.13147 0.82636 0.0
H919 H 0.46251 0.15952 0.85495 0.0
C920 C 0.42572 0.07917 0.77734 0.0
C921 C 0.43375 0.07926 0.75353 0.0
C922 C 0.43921 0.09119 0.79611 0.0
C923 C 0.46105 0.10387 0.79168 0.0
C924 C 0.46942 0.10358 0.76807 0.0
C925 C 0.45598 0.09139 0.74925 0.0
C926 C 0.51165 0.13681 0.82946 0.0
C927 C 0.49854 0.15158 0.84441 0.0
C928 C 0.49958 0.12055 0.81303 0.0
C929 C 0.47414 0.11866 0.81121 0.0
C930 C 0.46116 0.13228 0.8273 0.0
C931 C 0.4732 0.14846 0.84373 0.0
H932 H 0.9303 0.48655 0.82733 0.0
H933 H 0.99391 0.52691 0.85631 0.0
H934 H 0.95085 0.47804 0.79074 0.0
H935 H 1.01488 0.51756 0.81959 0.0
H936 H 0.04577 0.46468 0.76043 0.0
H937 H 0.02884 0.4792 0.79759 0.0
H938 H 0.96653 0.50347 0.75569 0.0
H939 H 0.98341 0.48882 0.71862 0.0
C940 C 0.94865 0.49374 0.82589 0.0
C941 C 0.96027 0.5078 0.84467 0.0
C942 C 0.96041 0.48884 0.80487 0.0
C943 C 0.98426 0.49756 0.80214 0.0
C944 C 0.9964 0.51076 0.82123 0.0
C945 C 0.98445 0.51595 0.84229 0.0
C946 C 0.02862 0.47344 0.75919 0.0
C947 C 1.01576 0.4754 0.73671 0.0
C948 C 1.01904 0.48188 0.78039 0.0
C949 C 0.99627 0.49218 0.77951 0.0
C950 C 0.98402 0.49534 0.75687 0.0
C951 C 0.99375 0.48717 0.73565 0.0
H952 H 0.70141 0.94107 0.77393 0.0
H953 H 0.64642 0.98673 0.74301 0.0
H954 H 0.67005 0.9139 0.78957 0.0
H955 H 0.6151 0.95914 0.75788 0.0
H956 H 0.568 0.92075 0.81336 0.0
H957 H 0.59898 0.94721 0.79629 0.0
H958 H 0.63771 0.88449 0.77613 0.0
H959 H 0.60702 0.85799 0.79399 0.0
C960 C 0.68266 0.94534 0.77046 0.0
C961 C 0.67649 0.96616 0.75724 0.0
C962 C 0.66466 0.92958 0.77918 0.0
C963 C 0.64004 0.93431 0.77496 0.0
C964 C 0.63388 0.95507 0.76166 0.0
C965 C 0.65186 0.97077 0.7529 0.0
C966 C 0.58316 0.91258 0.80539 0.0
C967 C 0.58507 0.88723 0.8052 0.0
C968 C 0.60081 0.92776 0.79536 0.0
C969 C 0.62088 0.91799 0.78487 0.0
C970 C 0.62263 0.89261 0.78431 0.0
C971 C 0.60489 0.8774 0.7943 0.0
H972 H 0.98222 0.64159 0.33772 0.0
H973 H 0.95896 0.68801 0.27881 0.0
H974 H 0.95891 0.60734 0.3181 0.0
H975 H 0.936 0.65446 0.25971 0.0
H976 H 0.90863 0.58791 0.21963 0.0
H977 H 0.93933 0.61622 0.23862 0.0
H978 H 0.91635 0.59506 0.30935 0.0
H979 H 0.88632 0.56672 0.29057 0.0
C980 C 0.97217 0.64452 0.32072 0.0
C981 C 0.97244 0.66761 0.30998 0.0
C982 C 0.95888 0.62494 0.30942 0.0
C983 C 0.94579 0.62807 0.28711 0.0
C984 C 0.94626 0.65114 0.2765 0.0
C985 C 0.9593 0.67055 0.28774 0.0
C986 C 0.91048 0.58903 0.23921 0.0
C987 C 0.89478 0.57536 0.25352 0.0
C988 C 0.92795 0.60532 0.25013 0.0
C989 C 0.93013 0.60813 0.27557 0.0
C990 C 0.91536 0.59333 0.2898 0.0
C991 C 0.89791 0.57722 0.27893 0.0
H992 H 0.38953 1.02455 0.25244 0.0
H993 H 0.34735 0.95867 0.26514 0.0
H994 H 0.41649 1.002 0.22808 0.0
H995 H 0.3741 0.93601 0.2404 0.0
H996 H 0.45126 0.90502 0.23687 0.0
H997 H 0.41682 0.9261 0.25095 0.0
H998 H 0.42214 0.97671 0.19167 0.0
H999 H 0.45705 0.9558 0.17786 0.0
C1000 C 0.38567 1.00534 0.24939 0.0
C1001 C 0.3666 0.99328 0.26087 0.0
C1002 C 0.40099 0.99244 0.23535 0.0
C1003 C 0.39757 0.96719 0.23264 0.0
C1004 C 0.37731 0.95544 0.24249 0.0
C1005 C 0.36187 0.96841 0.25642 0.0
C1006 C 0.4451 0.92065 0.22687 0.0
C1007 C 0.45702 0.92896 0.20645 0.0
C1008 C 0.42513 0.93248 0.23468 0.0
C1009 C 0.41672 0.95298 0.22232 0.0
C1010 C 0.42827 0.96097 0.20155 0.0
C1011 C 0.44817 0.94898 0.19362 0.0
H1012 H 0.65837 0.08412 0.29169 0.0
H1013 H 0.7108 0.07828 0.23709 0.0
H1014 H 0.62761 0.09358 0.26078 0.0
H1015 H 0.67965 0.08725 0.20562 0.0
H1016 H 0.62234 0.13516 0.16448 0.0
H1017 H 0.65529 0.11958 0.19039 0.0
H1018 H 0.60321 0.0757 0.22869 0.0
H1019 H 0.57047 0.09236 0.20347 0.0
C1020 C 0.6632 0.08457 0.27295 0.0
C1021 C 0.68691 0.08032 0.26676 0.0
C1022 C 0.64552 0.08983 0.25516 0.0
C1023 C 0.65099 0.09073 0.23059 0.0
C1024 C 0.67484 0.08676 0.22437 0.0
C1025 C 0.69268 0.08168 0.24233 0.0
C1026 C 0.61818 0.12164 0.17801 0.0
C1027 C 0.59403 0.11494 0.1822 0.0
C1028 C 0.63698 0.11274 0.19288 0.0
C1029 C 0.63186 0.0968 0.212 0.0
C1030 C 0.60775 0.08852 0.21463 0.0
C1031 C 0.58902 0.09775 0.20007 0.0
H1032 H 0.74439 0.94562 0.66851 0.0
H1033 H 0.74477 1.01077 0.6255 0.0
H1034 H 0.76718 0.92534 0.63848 0.0
H1035 H 0.76763 0.99033 0.59504 0.0
H1036 H 0.84005 0.95923 0.57143 0.0
H1037 H 0.80889 0.9778 0.5936 0.0
H1038 H 0.77075 0.90819 0.59818 0.0
H1039 H 0.80247 0.88939 0.57578 0.0
C1040 C 0.74878 0.95546 0.65224 0.0
C1041 C 0.74259 0.97988 0.64948 0.0
C1042 C 0.76187 0.94372 0.63489 0.0
C1043 C 0.76959 0.95608 0.61423 0.0
C1044 C 0.76231 0.98019 0.6108 0.0
C1045 C 0.74888 0.99189 0.62812 0.0
C1046 C 0.82488 0.9478 0.57684 0.0
C1047 C 0.82399 0.92268 0.57185 0.0
C1048 C 0.80678 0.9586 0.58947 0.0
C1049 C 0.7871 0.94467 0.5979 0.0
C1050 C 0.78568 0.91958 0.59222 0.0
C1051 C 0.80378 0.90876 0.57919 0.0
H1052 H 0.21267 0.77418 0.60784 0.0
H1053 H 0.15276 0.79998 0.56342 0.0
H1054 H 0.1847 0.76106 0.63857 0.0
H1055 H 0.12504 0.78764 0.59427 0.0
H1056 H 0.07852 0.74045 0.6425 0.0
H1057 H 0.10719 0.75173 0.61214 0.0
H1058 H 0.15868 0.77777 0.66856 0.0
H1059 H 0.13018 0.76572 0.6991 0.0
C1060 C 0.19356 0.77698 0.60456 0.0
C1061 C 0.18505 0.78824 0.58312 0.0
C1062 C 0.17753 0.7697 0.62231 0.0
C1063 C 0.15255 0.77332 0.61899 0.0
C1064 C 0.14407 0.78432 0.59742 0.0
C1065 C 0.16006 0.79167 0.57978 0.0
C1066 C 0.09601 0.74836 0.64853 0.0
C1067 C 0.10195 0.75209 0.67336 0.0
C1068 C 0.11241 0.75509 0.63104 0.0
C1069 C 0.13531 0.76573 0.63782 0.0
C1070 C 0.14133 0.76941 0.66266 0.0
C1071 C 0.12484 0.76275 0.68019 0.0
H1072 H 0.22178 0.16088 0.64553 0.0
H1073 H 0.25002 0.13279 0.58026 0.0
H1074 H 0.24415 0.13136 0.66954 0.0
H1075 H 0.27301 0.10388 0.60419 0.0
H1076 H 0.30265 0.04369 0.64825 0.0
H1077 H 0.27299 0.06874 0.62742 0.0
H1078 H 0.28357 0.1224 0.68452 0.0
H1079 H 0.3126 0.09646 0.7058 0.0
C1080 C 0.23261 0.14828 0.63623 0.0
C1081 C 0.23395 0.14928 0.61084 0.0
C1082 C 0.24569 0.13142 0.65009 0.0
C1083 C 0.26064 0.11506 0.63904 0.0
C1084 C 0.26146 0.11574 0.61354 0.0
C1085 C 0.24827 0.13248 0.59969 0.0
C1086 C 0.29804 0.06053 0.65669 0.0
C1087 C 0.3097 0.06796 0.67881 0.0
C1088 C 0.28129 0.07515 0.64454 0.0
C1089 C 0.27603 0.09802 0.65385 0.0
C1090 C 0.28686 0.1049 0.67672 0.0
C1091 C 0.30347 0.09 0.68907 0.0
H1092 H 0.92197 0.26976 0.59491 0.0
H1093 H 0.86512 0.30903 0.62633 0.0
H1094 H 0.95203 0.29446 0.61799 0.0
H1095 H 0.8956 0.33398 0.6492 0.0
H1096 H 0.95819 0.39378 0.65303 0.0
H1097 H 0.92595 0.36558 0.63792 0.0
H1098 H 0.9693 0.30523 0.65945 0.0
H1099 H 1.00187 0.33372 0.67469 0.0
C1100 C 0.91563 0.28334 0.60687 0.0
C1101 C 0.89072 0.28729 0.6083 0.0
C1102 C 0.93309 0.29754 0.62027 0.0
C1103 C 0.92629 0.31626 0.63542 0.0
C1104 C 0.90148 0.31986 0.63747 0.0
C1105 C 0.88394 0.30553 0.62421 0.0
C1106 C 0.96077 0.37449 0.65489 0.0
C1107 C 0.98267 0.36599 0.66494 0.0
C1108 C 0.94217 0.3583 0.64635 0.0
C1109 C 0.94504 0.33313 0.64736 0.0
C1110 C 0.96661 0.32454 0.65823 0.0
C1111 C 0.98519 0.34082 0.66711 0.0
H1112 H 0.705 0.12945 0.38507 0.0
H1113 H 0.75229 0.07433 0.41223 0.0
H1114 H 0.72317 0.15806 0.41503 0.0
H1115 H 0.77134 0.10318 0.44143 0.0
H1116 H 0.79209 0.15593 0.50294 0.0
H1117 H 0.76978 0.12628 0.47661 0.0
H1118 H 0.75812 0.18212 0.42293 0.0
H1119 H 0.77962 0.2117 0.44971 0.0
C1120 C 0.71922 0.12339 0.39753 0.0
C1121 C 0.72714 0.09956 0.39618 0.0
C1122 C 0.72989 0.13992 0.41461 0.0
C1123 C 0.74911 0.13325 0.43063 0.0
C1124 C 0.75647 0.1091 0.42974 0.0
C1125 C 0.74554 0.09247 0.41287 0.0
C1126 C 0.78474 0.16181 0.48549 0.0
C1127 C 0.78764 0.18621 0.47846 0.0
C1128 C 0.77196 0.14477 0.47029 0.0
C1129 C 0.76197 0.15158 0.44744 0.0
C1130 C 0.76495 0.17609 0.44051 0.0
C1131 C 0.77743 0.19315 0.45585 0.0
H1132 H 0.92964 0.78855 0.36223 0.0
H1133 H 0.9867 0.77057 0.41425 0.0
H1134 H 0.90714 0.80573 0.39462 0.0
H1135 H 0.96493 0.78836 0.44643 0.0
H1136 H 0.91708 0.80566 0.50528 0.0
H1137 H 0.93328 0.78441 0.47148 0.0
H1138 H 0.90357 0.83753 0.42213 0.0
H1139 H 0.8862 0.85788 0.45622 0.0
C1140 C 0.9375 0.78843 0.38056 0.0
C1141 C 0.96 0.77797 0.38554 0.0
C1142 C 0.92458 0.79837 0.39925 0.0
C1143 C 0.93386 0.79841 0.42353 0.0
C1144 C 0.95656 0.78818 0.4283 0.0
C1145 C 0.96928 0.778 0.40971 0.0
C1146 C 0.91331 0.81228 0.48708 0.0
C1147 C 0.89996 0.83318 0.48341 0.0
C1148 C 0.92306 0.80037 0.46761 0.0
C1149 C 0.92045 0.80939 0.44379 0.0
C1150 C 0.90599 0.82973 0.44 0.0
C1151 C 0.89582 0.84142 0.45956 0.0
H1152 H 0.29771 1.00503 0.40229 0.0
H1153 H 0.3644 0.97032 0.38979 0.0
H1154 H 0.28469 0.97101 0.42685 0.0
H1155 H 0.3513 0.93588 0.41491 0.0
H1156 H 0.30161 0.86747 0.43482 0.0
H1157 H 0.3202 0.90173 0.41348 0.0
H1158 H 0.29289 0.95116 0.46514 0.0
H1159 H 0.27447 0.91712 0.48639 0.0
C1160 C 0.30979 0.99021 0.40501 0.0
C1161 C 0.33215 0.9905 0.394 0.0
C1162 C 0.30233 0.97067 0.41929 0.0
C1163 C 0.3169 0.95059 0.423 0.0
C1164 C 0.33952 0.95095 0.41232 0.0
C1165 C 0.34714 0.97077 0.39811 0.0
C1166 C 0.29983 0.8856 0.44183 0.0
C1167 C 0.28612 0.88941 0.46218 0.0
C1168 C 0.31057 0.9053 0.42959 0.0
C1169 C 0.30785 0.92932 0.43736 0.0
C1170 C 0.29495 0.933 0.45826 0.0
C1171 C 0.28428 0.91339 0.47046 0.0
H1172 H 0.12273 0.21614 0.52956 0.0
H1173 H 0.18411 0.21315 0.48471 0.0
H1174 H 0.09939 0.23447 0.49628 0.0
H1175 H 0.16109 0.23213 0.45171 0.0
H1176 H 0.10814 0.2508 0.38948 0.0
H1177 H 0.1292 0.2286 0.42159 0.0
H1178 H 0.09606 0.27153 0.47518 0.0
H1179 H 0.07414 0.29285 0.44322 0.0
C1180 C 0.13124 0.21922 0.51256 0.0
C1181 C 0.15539 0.21308 0.50997 0.0
C1182 C 0.11789 0.23002 0.49346 0.0
C1183 C 0.12827 0.23513 0.47115 0.0
C1184 C 0.15223 0.22833 0.46838 0.0
C1185 C 0.16554 0.21745 0.48745 0.0
C1186 C 0.10506 0.2554 0.40807 0.0
C1187 C 0.08929 0.27386 0.41345 0.0
C1188 C 0.11744 0.24275 0.42661 0.0
C1189 C 0.11452 0.24813 0.45121 0.0
C1190 C 0.09865 0.26649 0.45658 0.0
C1191 C 0.08624 0.27908 0.43807 0.0
H1192 H 0.66192 0.74362 0.94902 0.0
H1193 H 0.6474 0.77434 1.01827 0.0
H1194 H 0.6392 0.77492 0.9285 0.0
H1195 H 0.62423 0.80612 0.99759 0.0
H1196 H 0.55544 0.83004 0.94738 0.0
H1197 H 0.58497 0.80885 0.97352 0.0
H1198 H 0.6372 0.81691 0.9184 0.0
H1199 H 0.60756 0.83726 0.89237 0.0
C1200 C 0.65445 0.75758 0.95988 0.0
C1201 C 0.65682 0.75659 0.98529 0.0
C1202 C 0.64132 0.77565 0.94808 0.0
C1203 C 0.62975 0.79329 0.96125 0.0
C1204 C 0.63278 0.79286 0.98678 0.0
C1205 C 0.64636 0.77484 0.99866 0.0
C1206 C 0.57358 0.82814 0.94136 0.0
C1207 C 0.57928 0.83563 0.91793 0.0
C1208 C 0.59052 0.81583 0.95627 0.0
C1209 C 0.61348 0.81068 0.948 0.0
C1210 C 0.61963 0.82 0.9253 0.0
C1211 C 0.60273 0.83203 0.91045 0.0
H1212 H 0.32291 0.64727 0.98701 0.0
H1213 H 0.37766 0.59818 0.9682 0.0
H1214 H 0.29695 0.63247 0.95318 0.0
H1215 H 0.35169 0.58347 0.93352 0.0
H1216 H 0.28401 0.54456 0.89345 0.0
H1217 H 0.31568 0.56018 0.9223 0.0
H1218 H 0.29097 0.63281 0.91102 0.0
H1219 H 0.25849 0.61691 0.88343 0.0
C1220 C 0.32963 0.63359 0.97533 0.0
C1221 C 0.35252 0.62412 0.98023 0.0
C1222 C 0.31471 0.6251 0.95573 0.0
C1223 C 0.32224 0.60697 0.94017 0.0
C1224 C 0.34516 0.59735 0.94511 0.0
C1225 C 0.36009 0.60577 0.96497 0.0
C1226 C 0.28558 0.5639 0.89684 0.0
C1227 C 0.26832 0.5794 0.88655 0.0
C1228 C 0.30387 0.57293 0.91338 0.0
C1229 C 0.30558 0.59774 0.91966 0.0
C1230 C 0.28974 0.61348 0.90743 0.0
C1231 C 0.27124 0.60441 0.8913 0.0
H1232 H 0.41935 0.31586 0.989 0.0
H1233 H 0.36951 0.32253 0.92694 0.0
H1234 H 0.44862 0.29841 0.96304 0.0
H1235 H 0.3982 0.3044 0.90136 0.0
H1236 H 0.46277 0.29308 0.85577 0.0
H1237 H 0.43524 0.31154 0.88255 0.0
H1238 H 0.45778 0.26323 0.93998 0.0
H1239 H 0.48549 0.24476 0.91313 0.0
C1240 C 0.41453 0.31367 0.96988 0.0
C1241 C 0.39178 0.32074 0.96033 0.0
C1242 C 0.43132 0.30337 0.95493 0.0
C1243 C 0.42603 0.29988 0.92987 0.0
C1244 C 0.4033 0.30699 0.92039 0.0
C1245 C 0.38655 0.3172 0.93528 0.0
C1246 C 0.46186 0.28618 0.87402 0.0
C1247 C 0.4765 0.26715 0.88197 0.0
C1248 C 0.4459 0.29684 0.88952 0.0
C1249 C 0.4439 0.28891 0.91361 0.0
C1250 C 0.45884 0.27015 0.92173 0.0
C1251 C 0.47484 0.25946 0.9062 0.0
H1252 H 0.8094 0.35091 0.95873 0.0
H1253 H 0.76755 0.40872 0.98564 0.0
H1254 H 0.83124 0.38023 0.93402 0.0
H1255 H 0.78904 0.43759 0.96078 0.0
H1256 H 0.8209 0.48321 0.90124 0.0
H1257 H 0.79609 0.45046 0.91877 0.0
H1258 H 0.86088 0.41415 0.94178 0.0
H1259 H 0.88545 0.44654 0.92426 0.0
C1260 C 0.80473 0.36973 0.95945 0.0
C1261 C 0.78657 0.37717 0.97443 0.0
C1262 C 0.81725 0.38658 0.94516 0.0
C1263 C 0.81185 0.4113 0.94531 0.0
C1264 C 0.79339 0.41866 0.95983 0.0
C1265 C 0.78102 0.40192 0.97422 0.0
C1266 C 0.82977 0.46796 0.90959 0.0
C1267 C 0.85515 0.46756 0.91145 0.0
C1268 C 0.81559 0.4493 0.91982 0.0
C1269 C 0.82649 0.42971 0.93186 0.0
C1270 C 0.85182 0.42878 0.93252 0.0
C1271 C 0.86594 0.44748 0.92256 0.0
H1272 H 0.66105 0.32458 0.1033 0.0
H1273 H 0.69682 0.25663 0.11005 0.0
H1274 H 0.62732 0.30747 0.12508 0.0
H1275 H 0.663 0.23956 0.13211 0.0
H1276 H 0.60276 0.21937 0.18326 0.0
H1277 H 0.63916 0.24118 0.16947 0.0
H1278 H 0.59528 0.27689 0.11458 0.0
H1279 H 0.55934 0.25529 0.12828 0.0
C1280 C 0.6618 0.30598 0.10939 0.0
C1281 C 0.68163 0.29193 0.10444 0.0
C1282 C 0.64243 0.29619 0.12203 0.0
C1283 C 0.64229 0.27205 0.13022 0.0
C1284 C 0.66258 0.25829 0.12629 0.0
C1285 C 0.68199 0.26809 0.11354 0.0
C1286 C 0.6009 0.23241 0.16872 0.0
C1287 C 0.57818 0.2357 0.15691 0.0
C1288 C 0.62176 0.24466 0.1606 0.0
C1289 C 0.6202 0.26073 0.14081 0.0
C1290 C 0.59722 0.26489 0.12999 0.0
C1291 C 0.57657 0.25246 0.13783 0.0
H1292 H 0.80663 0.6048 0.15885 0.0
H1293 H 0.74566 0.60087 0.20459 0.0
H1294 H 0.78397 0.63001 0.13025 0.0
H1295 H 0.72348 0.62672 0.17653 0.0
H1296 H 0.67994 0.64152 0.10562 0.0
H1297 H 0.70407 0.62199 0.13711 0.0
H1298 H 0.76546 0.66939 0.12193 0.0
H1299 H 0.74093 0.68903 0.08969 0.0
C1300 C 0.78847 0.60932 0.16296 0.0
C1301 C 0.77803 0.60034 0.18412 0.0
C1302 C 0.77555 0.62413 0.14662 0.0
C1303 C 0.75174 0.6304 0.15086 0.0
C1304 C 0.74161 0.62206 0.17236 0.0
C1305 C 0.7545 0.6073 0.18868 0.0
C1306 C 0.69851 0.6481 0.1091 0.0
C1307 C 0.70843 0.66692 0.09503 0.0
C1308 C 0.71239 0.6369 0.12738 0.0
C1309 C 0.73683 0.64399 0.13227 0.0
C1310 C 0.74675 0.66328 0.11861 0.0
C1311 C 0.73264 0.67474 0.10029 0.0
H1312 H 0.41769 0.74855 0.11278 0.0
H1313 H 0.47651 0.70144 0.12942 0.0
H1314 H 0.43335 0.77662 0.14409 0.0
H1315 H 0.49216 0.72949 0.16142 0.0
H1316 H 0.52717 0.80142 0.19455 0.0
H1317 H 0.51168 0.76829 0.16818 0.0
H1318 H 0.43871 0.78335 0.18598 0.0
H1319 H 0.45414 0.81733 0.21115 0.0
C1320 C 0.43374 0.74391 0.12347 0.0
C1321 C 0.4457 0.72257 0.11863 0.0
C1322 C 0.44276 0.76006 0.14159 0.0
C1323 C 0.46396 0.75535 0.15565 0.0
C1324 C 0.47592 0.73391 0.1509 0.0
C1325 C 0.46694 0.71778 0.13256 0.0
C1326 C 0.50784 0.79752 0.19307 0.0
C1327 C 0.49189 0.81252 0.20455 0.0
C1328 C 0.49891 0.77833 0.17799 0.0
C1329 C 0.47382 0.77337 0.17436 0.0
C1330 C 0.45808 0.78706 0.1876 0.0
C1331 C 0.46697 0.80644 0.20234 0.0
H1332 H 0.25542 0.37374 0.0938 0.0
H1333 H 0.29911 0.4362 0.07325 0.0
H1334 H 0.23305 0.3993 0.12012 0.0
H1335 H 0.27666 0.4619 0.09976 0.0
H1336 H 0.21676 0.50412 0.13666 0.0
H1337 H 0.23498 0.47883 0.10618 0.0
H1338 H 0.24242 0.42152 0.15876 0.0
H1339 H 0.22473 0.44669 0.1889 0.0
C1340 C 0.26016 0.39297 0.0947 0.0
C1341 C 0.27925 0.40276 0.08138 0.0
C1342 C 0.24737 0.40767 0.10997 0.0
C1343 C 0.25296 0.43278 0.1122 0.0
C1344 C 0.27166 0.44273 0.09842 0.0
C1345 C 0.28474 0.42792 0.08339 0.0
C1346 C 0.22177 0.48591 0.14145 0.0
C1347 C 0.21899 0.47736 0.16519 0.0
C1348 C 0.23252 0.4715 0.1241 0.0
C1349 C 0.24029 0.44803 0.12993 0.0
C1350 C 0.23654 0.4393 0.15341 0.0
C1351 C 0.22633 0.45379 0.17075 0.0
H1352 H 0.8738 0.62702 0.85698 0.0
H1353 H 0.90388 0.56575 0.8222 0.0
H1354 H 0.8978 0.65465 0.83253 0.0
H1355 H 0.9281 0.59347 0.79789 0.0
H1356 H 0.95663 0.65139 0.74594 0.0
H1357 H 0.92817 0.62451 0.76619 0.0
H1358 H 0.94068 0.66653 0.83195 0.0
H1359 H 0.96933 0.6933 0.81184 0.0
C1360 C 0.88522 0.61939 0.84383 0.0
C1361 C 0.88693 0.59409 0.8417 0.0
C1362 C 0.89919 0.63529 0.82996 0.0
C1363 C 0.91522 0.62635 0.81349 0.0
C1364 C 0.9159 0.60104 0.81031 0.0
C1365 C 0.90194 0.5851 0.82425 0.0
C1366 C 0.95353 0.65489 0.76476 0.0
C1367 C 0.96556 0.67461 0.7772 0.0
C1368 C 0.93709 0.63943 0.77637 0.0
C1369 C 0.93205 0.6433 0.80072 0.0
C1370 C 0.94378 0.66319 0.81307 0.0
C1371 C 0.9603 0.6786 0.8015 0.0
H1372 H 0.90935 0.48602 0.26088 0.0
H1373 H 0.85192 0.43418 0.27711 0.0
H1374 H 0.93924 0.4578 0.27598 0.0
H1375 H 0.88184 0.40615 0.29286 0.0
H1376 H 0.9429 0.3518 0.29522 0.0
H1377 H 0.91293 0.37991 0.27988 0.0
H1378 H 0.95543 0.43974 0.31287 0.0
H1379 H 0.9857 0.41172 0.32763 0.0
C1380 C 0.90303 0.4686 0.26761 0.0
C1381 C 0.87806 0.46248 0.26761 0.0
C1382 C 0.92024 0.45244 0.27657 0.0
C1383 C 0.9131 0.42956 0.28572 0.0
C1384 C 0.88813 0.42345 0.28575 0.0
C1385 C 0.87089 0.43968 0.27693 0.0
C1386 C 0.94602 0.37095 0.29906 0.0
C1387 C 0.9669 0.37934 0.31272 0.0
C1388 C 0.92862 0.38711 0.29046 0.0
C1389 C 0.9316 0.41222 0.2951 0.0
C1390 C 0.95252 0.42062 0.30868 0.0
C1391 C 0.96985 0.40445 0.3174 0.0
H1392 H 0.62516 1.022 0.3385 0.0
H1393 H 0.68202 0.97271 0.3266 0.0
H1394 H 0.59643 0.99521 0.31534 0.0
H1395 H 0.65322 0.94601 0.30317 0.0
H1396 H 0.58968 0.89554 0.2733 0.0
H1397 H 0.61613 0.91865 0.30292 0.0
H1398 H 0.59097 0.98558 0.27226 0.0
H1399 H 0.56476 0.96277 0.2431 0.0
C1400 C 0.63152 1.00529 0.33126 0.0
C1401 C 0.65603 0.99969 0.33431 0.0
C1402 C 0.61503 0.98997 0.3178 0.0
C1403 C 0.62253 0.96856 0.30707 0.0
C1404 C 0.64675 0.96226 0.31124 0.0
C1405 C 0.6633 0.97766 0.32463 0.0
C1406 C 0.58968 0.91518 0.27308 0.0
C1407 C 0.5751 0.92725 0.25575 0.0
C1408 C 0.60492 0.92843 0.28996 0.0
C1409 C 0.60565 0.95402 0.29008 0.0
C1410 C 0.59067 0.96594 0.27303 0.0
C1411 C 0.57572 0.95279 0.25611 0.0
H1412 H 0.11747 0.56896 0.21978 0.0
H1413 H 0.17831 0.61341 0.24834 0.0
H1414 H 0.08998 0.60066 0.23125 0.0
H1415 H 0.15134 0.64468 0.25952 0.0
H1416 H 0.10011 0.70589 0.26138 0.0
H1417 H 0.12397 0.67507 0.24322 0.0
H1418 H 0.07596 0.61878 0.27 0.0
H1419 H 0.05184 0.64969 0.28789 0.0
C1420 C 0.12501 0.58562 0.22803 0.0
C1421 C 0.15011 0.58862 0.2331 0.0
C1422 C 0.10927 0.60371 0.23483 0.0
C1423 C 0.11837 0.62536 0.24636 0.0
C1424 C 0.14356 0.62852 0.25048 0.0
C1425 C 0.15908 0.61044 0.24413 0.0
C1426 C 0.09439 0.687 0.26316 0.0
C1427 C 0.07407 0.68043 0.27638 0.0
C1428 C 0.10821 0.66923 0.25284 0.0
C1429 C 0.10206 0.6443 0.25519 0.0
C1430 C 0.08123 0.63774 0.26764 0.0
C1431 C 0.06753 0.65552 0.27819 0.0
H1432 H 0.48341 0.17372 0.24993 0.0
H1433 H 0.50859 0.10411 0.22933 0.0
H1434 H 0.46138 0.1544 0.28255 0.0
H1435 H 0.48812 0.08493 0.26257 0.0
H1436 H 0.42316 0.05271 0.30037 0.0
H1437 H 0.45011 0.07211 0.27239 0.0
H1438 H 0.45915 0.13479 0.31964 0.0
H1439 H 0.43095 0.11567 0.34702 0.0
C1440 C 0.48477 0.15439 0.25284 0.0
C1441 C 0.49754 0.14041 0.23697 0.0
C1442 C 0.47218 0.14321 0.2716 0.0
C1443 C 0.47244 0.11783 0.27519 0.0
C1444 C 0.48661 0.10428 0.2601 0.0
C1445 C 0.49866 0.11534 0.24112 0.0
C1446 C 0.43116 0.07046 0.30503 0.0
C1447 C 0.42477 0.08257 0.326 0.0
C1448 C 0.44683 0.0817 0.28892 0.0
C1449 C 0.45702 0.10528 0.29346 0.0
C1450 C 0.45142 0.11692 0.31507 0.0
C1451 C 0.43541 0.1058 0.331 0.0
H1452 H 0.1321 0.44046 0.71397 0.0
H1453 H 0.08852 0.3956 0.76031 0.0
H1454 H 0.15763 0.45387 0.74852 0.0
H1455 H 0.11507 0.40824 0.79525 0.0
H1456 H 0.14088 0.46752 0.85139 0.0
H1457 H 0.12098 0.44361 0.81886 0.0
H1458 H 0.18663 0.44783 0.77969 0.0
H1459 H 0.20627 0.47299 0.81204 0.0
C1460 C 0.12827 0.43298 0.73155 0.0
C1461 C 0.10797 0.41724 0.7344 0.0
C1462 C 0.14319 0.44053 0.75147 0.0
C1463 C 0.13843 0.43241 0.7749 0.0
C1464 C 0.11905 0.41531 0.77757 0.0
C1465 C 0.10393 0.40784 0.75752 0.0
C1466 C 0.15124 0.46315 0.83599 0.0
C1467 C 0.1751 0.47253 0.83418 0.0
C1468 C 0.13982 0.44914 0.81733 0.0
C1469 C 0.15201 0.44384 0.79638 0.0
C1470 C 0.17643 0.45196 0.79527 0.0
C1471 C 0.1878 0.46629 0.81388 0.0
H1472 H 0.62571 0.20084 0.76784 0.0
H1473 H 0.57924 0.1418 0.79163 0.0
H1474 H 0.64985 0.1721 0.74713 0.0
H1475 H 0.6037 0.11284 0.77093 0.0
H1476 H 0.64433 0.06892 0.71363 0.0
H1477 H 0.61679 0.09836 0.72977 0.0
H1478 H 0.67838 0.14103 0.75953 0.0
H1479 H 0.70543 0.11188 0.74381 0.0
C1480 C 0.62044 0.18175 0.76853 0.0
C1481 C 0.6004 0.17385 0.78163 0.0
C1482 C 0.63447 0.16514 0.75671 0.0
C1483 C 0.62891 0.13996 0.75727 0.0
C1484 C 0.60852 0.13203 0.76986 0.0
C1485 C 0.59461 0.14867 0.782 0.0
C1486 C 0.65191 0.08486 0.72319 0.0
C1487 C 0.67717 0.08806 0.7272 0.0
C1488 C 0.63613 0.10161 0.73273 0.0
C1489 C 0.64524 0.12224 0.74606 0.0
C1490 C 0.67053 0.12567 0.74922 0.0
C1491 C 0.68613 0.10883 0.74018 0.0
H1492 H 0.4897 0.93537 0.84593 0.0
H1493 H 0.44128 0.87349 0.82996 0.0
H1494 H 0.46129 0.96161 0.82356 0.0
H1495 H 0.41314 0.89931 0.80824 0.0
H1496 H 0.39495 0.94182 0.73836 0.0
H1497 H 0.41734 0.91859 0.76867 0.0
H1498 H 0.41846 0.97924 0.81826 0.0
H1499 H 0.39551 1.00265 0.78744 0.0
C1500 C 0.47271 0.92751 0.83837 0.0
C1501 C 0.46787 0.90229 0.83959 0.0
C1502 C 0.45643 0.94251 0.82548 0.0
C1503 C 0.43505 0.93253 0.81364 0.0
C1504 C 0.42958 0.90762 0.81659 0.0
C1505 C 0.44573 0.89279 0.82922 0.0
C1506 C 0.39932 0.95 0.75597 0.0
C1507 C 0.39295 0.97386 0.76065 0.0
C1508 C 0.41228 0.93669 0.77341 0.0
C1509 C 0.41975 0.94692 0.79607 0.0
C1510 C 0.41305 0.97077 0.80102 0.0
C1511 C 0.39958 0.98404 0.78355 0.0
loop_
_geom_bond_atom_site_label_1
_geom_bond_atom_site_label_2
_geom_bond_distance
_geom_bond_site_symmetry_2
_ccdc_geom_bond_type
Cu0 N1 1.999 1_545 S
Cu0 O6 1.974 . S
Cu0 N11 1.985 . S
Cu0 O20 1.959 1_545 S
N1 Cu0 1.999 1_565 S
N1 C3 1.263 . S
N1 C5 1.389 . S
N2 C3 1.358 . S
N2 C4 1.400 . S
C3 N1 1.263 . S
C3 N2 1.358 . S
C3 H9 0.930 1_565 S
C4 N2 1.400 . S
C4 C5 1.351 . S
C4 H21 0.930 . S
C5 N1 1.389 . S
C5 C4 1.351 . S
C5 H10 0.930 . S
O6 Cu0 1.974 . S
O6 C16 1.282 . S
C7 O8 1.261 . S
C7 O20 1.251 . S
O8 C7 1.261 . S
H9 C3 0.930 1_545 S
H10 C5 0.930 . S
N11 Cu0 1.985 . S
N11 C13 1.335 . S
N11 C14 1.390 . S
N12 C13 1.345 . S
N12 C15 1.336 . S
C13 N11 1.335 . S
C13 N12 1.345 . S
C13 H18 0.930 . S
C14 N11 1.390 . S
C14 C15 1.346 . S
C14 H19 0.930 . S
C15 N12 1.336 . S
C15 C14 1.346 . S
C15 H22 0.929 . S
C16 O6 1.282 . S
C16 O17 1.216 . S
O17 C16 1.216 . S
H18 C13 0.930 . S
H19 C14 0.930 . S
O20 Cu0 1.959 1_565 S
O20 C7 1.251 . S
H21 C4 0.930 . S
H22 C15 0.929 . S
Cu23 N24 1.999 . S
Cu23 O29 1.974 1_455 S
Cu23 N34 1.985 1_455 S
Cu23 O43 1.959 . S
N24 Cu23 1.999 . S
N24 C26 1.263 . S
N24 C28 1.389 . S
N25 C26 1.358 . S
N25 C27 1.400 . S
C26 N24 1.263 . S
C26 N25 1.358 . S
C26 H32 0.930 . S
C27 N25 1.400 . S
C27 C28 1.351 . S
C27 H44 0.930 . S
C28 N24 1.389 . S
C28 C27 1.351 . S
C28 H33 0.930 . S
O29 Cu23 1.974 1_655 S
O29 C39 1.282 . S
C30 O31 1.261 . S
C30 O43 1.251 . S
O31 C30 1.261 . S
H32 C26 0.930 . S
H33 C28 0.930 . S
N34 Cu23 1.985 1_655 S
N34 C36 1.335 . S
N34 C37 1.390 . S
N35 C36 1.345 . S
N35 C38 1.336 . S
C36 N34 1.335 . S
C36 N35 1.345 . S
C36 H41 0.899 1_655 S
C37 N34 1.390 . S
C37 C38 1.346 . S
C37 H42 0.930 . S
C38 N35 1.336 . S
C38 C37 1.346 . S
C38 H45 0.929 . S
C39 O29 1.282 . S
C39 O40 1.216 . S
O40 C39 1.216 . S
H41 C36 0.899 1_455 S
H42 C37 0.930 . S
O43 Cu23 1.959 . S
O43 C30 1.251 . S
H44 C27 0.930 . S
H45 C38 0.929 . S
Cu46 N47 1.999 . S
Cu46 O52 1.974 1_545 S
Cu46 N57 1.985 1_545 S
Cu46 O66 1.959 . S
N47 Cu46 1.999 . S
N47 C49 1.263 . S
N47 C51 1.389 . S
N48 C49 1.358 . S
N48 C50 1.400 . S
C49 N47 1.263 . S
C49 N48 1.358 . S
C49 H55 0.930 . S
C50 N48 1.400 . S
C50 C51 1.351 . S
C50 H67 0.930 . S
C51 N47 1.389 . S
C51 C50 1.351 . S
C51 H56 0.930 . S
O52 Cu46 1.974 1_565 S
O52 C62 1.282 . S
C53 O54 1.261 . S
C53 O66 1.251 . S
O54 C53 1.261 . S
H55 C49 0.930 . S
H56 C51 0.930 . S
N57 Cu46 1.985 1_565 S
N57 C59 1.335 . S
N57 C60 1.390 . S
N58 C59 1.345 . S
N58 C61 1.336 . S
C59 N57 1.335 . S
C59 N58 1.345 . S
C59 H64 0.930 . S
C60 N57 1.390 . S
C60 C61 1.346 . S
C60 H65 0.930 . S
C61 N58 1.336 . S
C61 C60 1.346 . S
C61 H68 0.929 . S
C62 O52 1.282 . S
C62 O63 1.216 . S
O63 C62 1.216 . S
H64 C59 0.930 . S
H65 C60 0.930 . S
O66 Cu46 1.959 . S
O66 C53 1.251 . S
H67 C50 0.930 . S
H68 C61 0.929 . S
Cu69 N70 1.999 . S
Cu69 O75 1.974 1_455 S
Cu69 N80 1.985 1_455 S
Cu69 O89 1.959 . S
N70 Cu69 1.999 . S
N70 C72 1.263 . S
N70 C74 1.389 . S
N71 C72 1.358 . S
N71 C73 1.400 . S
C72 N70 1.263 . S
C72 N71 1.358 . S
C72 H78 0.930 . S
C73 N71 1.400 . S
C73 C74 1.351 . S
C73 H90 0.930 . S
C74 N70 1.389 . S
C74 C73 1.351 . S
C74 H79 0.930 . S
O75 Cu69 1.974 1_655 S
O75 C85 1.282 . S
C76 O77 1.261 . S
C76 O89 1.251 . S
O77 C76 1.261 . S
H78 C72 0.930 . S
H79 C74 0.930 . S
N80 Cu69 1.985 1_655 S
N80 C82 1.335 . S
N80 C83 1.390 . S
N81 C82 1.345 . S
N81 C84 1.336 . S
C82 N80 1.335 . S
C82 N81 1.345 . S
C82 H87 0.930 . S
C83 N80 1.390 . S
C83 C84 1.346 . S
C83 H88 0.930 . S
C84 N81 1.336 . S
C84 C83 1.346 . S
C84 H91 0.929 . S
C85 O75 1.282 . S
C85 O86 1.216 . S
O86 C85 1.216 . S
H87 C82 0.930 . S
H88 C83 0.930 . S
O89 Cu69 1.959 . S
O89 C76 1.251 . S
H90 C73 0.930 . S
H91 C84 0.929 . S
Cu92 N93 1.999 . S
Cu92 O98 1.974 1_545 S
Cu92 N103 1.985 1_545 S
Cu92 O112 1.959 . S
N93 Cu92 1.999 . S
N93 C95 1.263 . S
N93 C97 1.389 . S
N94 C95 1.358 . S
N94 C96 1.400 . S
C95 N93 1.263 . S
C95 N94 1.358 . S
C95 H101 0.930 . S
C96 N94 1.400 . S
C96 C97 1.351 . S
C96 H113 0.930 . S
C97 N93 1.389 . S
C97 C96 1.351 . S
C97 H102 0.930 . S
O98 Cu92 1.974 1_565 S
O98 C108 1.282 . S
C99 O100 1.261 . S
C99 O112 1.251 . S
O100 C99 1.261 . S
H101 C95 0.930 . S
H102 C97 0.930 . S
N103 Cu92 1.985 1_565 S
N103 C105 1.335 . S
N103 C106 1.390 . S
N104 C105 1.345 . S
N104 C107 1.336 . S
C105 N103 1.335 . S
C105 N104 1.345 . S
C105 H110 0.930 . S
C106 N103 1.390 . S
C106 C107 1.346 . S
C106 H111 0.930 . S
C107 N104 1.336 . S
C107 C106 1.346 . S
C107 H114 0.929 . S
C108 O98 1.282 . S
C108 O109 1.216 . S
O109 C108 1.216 . S
H110 C105 0.930 . S
H111 C106 0.930 . S
O112 Cu92 1.959 . S
O112 C99 1.251 . S
H113 C96 0.930 . S
H114 C107 0.929 . S
Cu115 N116 1.999 . S
Cu115 O121 1.974 1_455 S
Cu115 N126 1.985 1_455 S
Cu115 O135 1.959 . S
N116 Cu115 1.999 . S
N116 C118 1.263 . S
N116 C120 1.389 . S
N117 C118 1.358 . S
N117 C119 1.400 . S
C118 N116 1.263 . S
C118 N117 1.358 . S
C118 H124 0.930 . S
C119 N117 1.400 . S
C119 C120 1.351 . S
C119 H136 0.930 . S
C120 N116 1.389 . S
C120 C119 1.351 . S
C120 H125 0.930 . S
O121 Cu115 1.974 1_655 S
O121 C131 1.282 . S
C122 O123 1.261 . S
C122 O135 1.251 . S
O123 C122 1.261 . S
H124 C118 0.930 . S
H125 C120 0.930 . S
N126 Cu115 1.985 1_655 S
N126 C128 1.335 . S
N126 C129 1.390 . S
N127 C128 1.345 . S
N127 C130 1.336 . S
C128 N126 1.335 . S
C128 N127 1.345 . S
C128 H133 0.930 1_655 S
C129 N126 1.390 . S
C129 C130 1.346 . S
C129 H134 0.930 . S
C130 N127 1.336 . S
C130 C129 1.346 . S
C130 H137 0.929 . S
C131 O121 1.282 . S
C131 O132 1.216 . S
O132 C131 1.216 . S
H133 C128 0.930 1_455 S
H134 C129 0.930 . S
O135 Cu115 1.959 . S
O135 C122 1.251 . S
H136 C119 0.930 . S
H137 C130 0.929 . S
Cu138 N139 1.999 1_545 S
Cu138 O144 1.974 . S
Cu138 N149 1.985 . S
Cu138 O158 1.959 1_545 S
N139 Cu138 1.999 1_565 S
N139 C141 1.263 . S
N139 C143 1.389 . S
N140 C141 1.358 . S
N140 C142 1.400 . S
C141 N139 1.263 . S
C141 N140 1.358 . S
C141 H147 0.930 . S
C142 N140 1.400 . S
C142 C143 1.351 . S
C142 H159 0.930 . S
C143 N139 1.389 . S
C143 C142 1.351 . S
C143 H148 0.930 . S
O144 Cu138 1.974 . S
O144 C154 1.282 . S
C145 O146 1.261 . S
C145 O158 1.251 . S
O146 C145 1.261 . S
H147 C141 0.930 . S
H148 C143 0.930 . S
N149 Cu138 1.985 . S
N149 C151 1.335 . S
N149 C152 1.390 . S
N150 C151 1.345 . S
N150 C153 1.336 . S
C151 N149 1.335 . S
C151 N150 1.345 . S
C151 H156 0.930 . S
C152 N149 1.390 . S
C152 C153 1.346 . S
C152 H157 0.930 . S
C153 N150 1.336 . S
C153 C152 1.346 . S
C153 H160 0.929 . S
C154 O144 1.282 . S
C154 O155 1.216 . S
O155 C154 1.216 . S
H156 C151 0.930 . S
H157 C152 0.930 . S
O158 Cu138 1.959 1_565 S
O158 C145 1.251 . S
H159 C142 0.930 . S
H160 C153 0.929 . S
Cu161 N162 2.004 . S
Cu161 O167 1.970 1_455 S
Cu161 N172 1.980 1_455 S
Cu161 O181 1.963 . S
N162 Cu161 2.004 . S
N162 C164 1.263 . S
N162 C166 1.389 . S
N163 C164 1.358 . S
N163 C165 1.400 . S
C164 N162 1.263 . S
C164 N163 1.358 . S
C164 H170 0.930 . S
C165 N163 1.400 . S
C165 C166 1.351 . S
C165 H182 0.930 . S
C166 N162 1.389 . S
C166 C165 1.351 . S
C166 H171 0.930 . S
O167 Cu161 1.970 1_655 S
O167 C177 1.282 . S
C168 O169 1.261 . S
C168 O181 1.251 . S
O169 C168 1.261 . S
H170 C164 0.930 . S
H171 C166 0.930 . S
N172 Cu161 1.980 1_655 S
N172 C174 1.335 . S
N172 C175 1.390 . S
N173 C174 1.345 . S
N173 C176 1.336 . S
C174 N172 1.335 . S
C174 N173 1.345 . S
C174 H179 0.930 . S
C175 N172 1.390 . S
C175 C176 1.346 . S
C175 H180 0.930 . S
C176 N173 1.336 . S
C176 C175 1.346 . S
C176 H183 0.929 . S
C177 O167 1.282 . S
C177 O178 1.216 . S
O178 C177 1.216 . S
H179 C174 0.930 . S
H180 C175 0.930 . S
O181 Cu161 1.963 . S
O181 C168 1.251 . S
H182 C165 0.930 . S
H183 C176 0.929 . S
Cu184 N185 1.999 . S
Cu184 O190 1.974 1_554 S
Cu184 N195 1.985 1_554 S
Cu184 O204 1.959 . S
N185 Cu184 1.999 . S
N185 C187 1.263 . S
N185 C189 1.389 . S
N186 C187 1.358 . S
N186 C188 1.400 . S
C187 N185 1.263 . S
C187 N186 1.358 . S
C187 H193 0.930 . S
C188 N186 1.400 . S
C188 C189 1.351 . S
C188 H205 0.930 . S
C189 N185 1.389 . S
C189 C188 1.351 . S
C189 H194 0.930 . S
O190 Cu184 1.974 1_556 S
O190 C200 1.282 . S
C191 O192 1.261 . S
C191 O204 1.251 . S
O192 C191 1.261 . S
H193 C187 0.930 . S
H194 C189 0.930 . S
N195 Cu184 1.985 1_556 S
N195 C197 1.335 . S
N195 C198 1.390 . S
N196 C197 1.345 . S
N196 C199 1.336 . S
C197 N195 1.335 . S
C197 N196 1.345 . S
C197 H202 0.919 1_556 S
C198 N195 1.390 . S
C198 C199 1.346 . S
C198 H203 0.930 . S
C199 N196 1.336 . S
C199 C198 1.346 . S
C199 H206 0.929 . S
C200 O190 1.282 . S
C200 O201 1.216 . S
O201 C200 1.216 . S
H202 C197 0.919 1_554 S
H203 C198 0.930 . S
O204 Cu184 1.959 . S
O204 C191 1.251 . S
H205 C188 0.930 . S
H206 C199 0.929 . S
Cu207 N208 1.999 1_554 S
Cu207 O213 1.974 . S
Cu207 N218 1.985 . S
Cu207 O227 1.959 1_554 S
N208 Cu207 1.999 1_556 S
N208 C210 1.263 . S
N208 C212 1.389 . S
N209 C210 1.358 . S
N209 C211 1.400 . S
C210 N208 1.263 . S
C210 N209 1.358 . S
C210 H216 0.930 . S
C211 N209 1.400 . S
C211 C212 1.351 . S
C211 H228 0.930 . S
C212 N208 1.389 . S
C212 C211 1.351 . S
C212 H217 0.930 . S
O213 Cu207 1.974 . S
O213 C223 1.282 . S
C214 O215 1.261 . S
C214 O227 1.251 . S
O215 C214 1.261 . S
H216 C210 0.930 . S
H217 C212 0.930 . S
N218 Cu207 1.985 . S
N218 C220 1.335 . S
N218 C221 1.390 . S
N219 C220 1.345 . S
N219 C222 1.336 . S
C220 N218 1.335 . S
C220 N219 1.345 . S
C220 H225 0.930 . S
C221 N218 1.390 . S
C221 C222 1.346 . S
C221 H226 0.930 . S
C222 N219 1.336 . S
C222 C221 1.346 . S
C222 H229 0.929 . S
C223 O213 1.282 . S
C223 O224 1.216 . S
O224 C223 1.216 . S
H225 C220 0.930 . S
H226 C221 0.930 . S
O227 Cu207 1.959 1_556 S
O227 C214 1.251 . S
H228 C211 0.930 . S
H229 C222 0.929 . S
Cu230 N231 1.992 1_556 S
Cu230 O236 1.980 . S
Cu230 N241 1.992 . S
Cu230 O250 1.953 1_556 S
N231 Cu230 1.992 1_554 S
N231 C233 1.263 . S
N231 C235 1.389 . S
N232 C233 1.358 . S
N232 C234 1.400 . S
C233 N231 1.263 . S
C233 N232 1.358 . S
C233 H239 0.930 . S
C234 N232 1.400 . S
C234 C235 1.351 . S
C234 H251 0.930 . S
C235 N231 1.389 . S
C235 C234 1.351 . S
C235 H240 0.930 . S
O236 Cu230 1.980 . S
O236 C246 1.282 . S
C237 O238 1.261 . S
C237 O250 1.251 . S
O238 C237 1.261 . S
H239 C233 0.930 . S
H240 C235 0.930 . S
N241 Cu230 1.992 . S
N241 C243 1.335 . S
N241 C244 1.390 . S
N242 C243 1.345 . S
N242 C245 1.336 . S
C243 N241 1.335 . S
C243 N242 1.345 . S
C243 H248 0.930 . S
C244 N241 1.390 . S
C244 C245 1.346 . S
C244 H249 0.930 . S
C245 N242 1.336 . S
C245 C244 1.346 . S
C245 H252 0.929 . S
C246 O236 1.282 . S
C246 O247 1.216 . S
O247 C246 1.216 . S
H248 C243 0.930 . S
H249 C244 0.930 . S
O250 Cu230 1.953 1_554 S
O250 C237 1.251 . S
H251 C234 0.930 . S
H252 C245 0.929 . S
Cu253 N254 1.999 1_554 S
Cu253 O259 1.974 . S
Cu253 N264 1.985 . S
Cu253 O273 1.959 1_554 S
N254 Cu253 1.999 1_556 S
N254 C256 1.263 . S
N254 C258 1.389 . S
N255 C256 1.358 . S
N255 C257 1.400 . S
C256 N254 1.263 . S
C256 N255 1.358 . S
C256 H262 0.930 . S
C257 N255 1.400 . S
C257 C258 1.351 . S
C257 H274 0.930 . S
C258 N254 1.389 . S
C258 C257 1.351 . S
C258 H263 0.930 . S
O259 Cu253 1.974 . S
O259 C269 1.282 . S
C260 O261 1.261 . S
C260 O273 1.251 . S
O261 C260 1.261 . S
H262 C256 0.930 . S
H263 C258 0.930 . S
N264 Cu253 1.985 . S
N264 C266 1.335 . S
N264 C267 1.390 . S
N265 C266 1.345 . S
N265 C268 1.336 . S
C266 N264 1.335 . S
C266 N265 1.345 . S
C266 H271 0.930 . S
C267 N264 1.390 . S
C267 C268 1.346 . S
C267 H272 0.930 . S
C268 N265 1.336 . S
C268 C267 1.346 . S
C268 H275 0.929 . S
C269 O259 1.282 . S
C269 O270 1.216 . S
O270 C269 1.216 . S
H271 C266 0.930 . S
H272 C267 0.930 . S
O273 Cu253 1.959 1_556 S
O273 C260 1.251 . S
H274 C257 0.930 . S
H275 C268 0.929 . S
Cu276 N277 1.999 . S
Cu276 O282 1.974 . S
Cu276 N287 1.985 . S
Cu276 O296 1.959 . S
N277 Cu276 1.999 . S
N277 C279 1.263 . S
N277 C281 1.389 . S
N278 C279 1.358 . S
N278 C280 1.400 . S
C279 N277 1.263 . S
C279 N278 1.358 . S
C279 H285 0.930 . S
C280 N278 1.400 . S
C280 C281 1.351 . S
C280 H297 0.930 . S
C281 N277 1.389 . S
C281 C280 1.351 . S
C281 H286 0.930 . S
O282 Cu276 1.974 . S
O282 C292 1.282 . S
C283 O284 1.261 . S
C283 O296 1.251 . S
O284 C283 1.261 . S
H285 C279 0.930 . S
H286 C281 0.930 . S
N287 Cu276 1.985 . S
N287 C289 1.335 . S
N287 C290 1.390 . S
N288 C289 1.345 . S
N288 C291 1.336 . S
C289 N287 1.335 . S
C289 N288 1.345 . S
C289 H294 0.930 . S
C290 N287 1.390 . S
C290 C291 1.346 . S
C290 H295 0.930 . S
C291 N288 1.336 . S
C291 C290 1.346 . S
C291 H298 0.929 . S
C292 O282 1.282 . S
C292 O293 1.216 . S
O293 C292 1.216 . S
H294 C289 0.930 . S
H295 C290 0.930 . S
O296 Cu276 1.959 . S
O296 C283 1.251 . S
H297 C280 0.930 . S
H298 C291 0.929 . S
Cu299 N300 1.999 . S
Cu299 O305 1.974 . S
Cu299 N310 1.985 . S
Cu299 O319 1.959 . S
N300 Cu299 1.999 . S
N300 C302 1.263 . S
N300 C304 1.389 . S
N301 C302 1.358 . S
N301 C303 1.400 . S
C302 N300 1.263 . S
C302 N301 1.358 . S
C302 H308 0.930 . S
C303 N301 1.400 . S
C303 C304 1.351 . S
C303 H320 0.930 . S
C304 N300 1.389 . S
C304 C303 1.351 . S
C304 H309 0.930 . S
O305 Cu299 1.974 . S
O305 C315 1.282 . S
C306 O307 1.261 . S
C306 O319 1.251 . S
O307 C306 1.261 . S
H308 C302 0.930 . S
H309 C304 0.930 . S
N310 Cu299 1.985 . S
N310 C312 1.335 . S
N310 C313 1.390 . S
N311 C312 1.345 . S
N311 C314 1.336 . S
C312 N310 1.335 . S
C312 N311 1.345 . S
C312 H317 0.930 . S
C313 N310 1.390 . S
C313 C314 1.346 . S
C313 H318 0.930 . S
C314 N311 1.336 . S
C314 C313 1.346 . S
C314 H321 0.929 . S
C315 O305 1.282 . S
C315 O316 1.216 . S
O316 C315 1.216 . S
H317 C312 0.930 . S
H318 C313 0.930 . S
O319 Cu299 1.959 . S
O319 C306 1.251 . S
H320 C303 0.930 . S
H321 C314 0.929 . S
Cu322 N323 1.999 . S
Cu322 O328 1.974 . S
Cu322 N333 1.985 . S
Cu322 O342 1.959 . S
N323 Cu322 1.999 . S
N323 C325 1.263 . S
N323 C327 1.389 . S
N324 C325 1.358 . S
N324 C326 1.400 . S
C325 N323 1.263 . S
C325 N324 1.358 . S
C325 H331 0.930 . S
C326 N324 1.400 . S
C326 C327 1.351 . S
C326 H343 0.930 . S
C327 N323 1.389 . S
C327 C326 1.351 . S
C327 H332 0.930 . S
O328 Cu322 1.974 . S
O328 C338 1.282 . S
C329 O330 1.261 . S
C329 O342 1.251 . S
O330 C329 1.261 . S
H331 C325 0.930 . S
H332 C327 0.930 . S
N333 Cu322 1.985 . S
N333 C335 1.335 . S
N333 C336 1.390 . S
N334 C335 1.345 . S
N334 C337 1.336 . S
C335 N333 1.335 . S
C335 N334 1.345 . S
C335 H340 0.930 . S
C336 N333 1.390 . S
C336 C337 1.346 . S
C336 H341 0.930 . S
C337 N334 1.336 . S
C337 C336 1.346 . S
C337 H344 0.929 . S
C338 O328 1.282 . S
C338 O339 1.216 . S
O339 C338 1.216 . S
H340 C335 0.930 . S
H341 C336 0.930 . S
O342 Cu322 1.959 . S
O342 C329 1.251 . S
H343 C326 0.930 . S
H344 C337 0.929 . S
Cu345 N346 1.999 . S
Cu345 O351 1.974 . S
Cu345 N356 1.985 . S
Cu345 O365 1.959 . S
N346 Cu345 1.999 . S
N346 C348 1.263 . S
N346 C350 1.389 . S
N347 C348 1.358 . S
N347 C349 1.400 . S
C348 N346 1.263 . S
C348 N347 1.358 . S
C348 H354 0.930 . S
C349 N347 1.400 . S
C349 C350 1.351 . S
C349 H366 0.930 . S
C350 N346 1.389 . S
C350 C349 1.351 . S
C350 H355 0.930 . S
O351 Cu345 1.974 . S
O351 C361 1.282 . S
C352 O353 1.261 . S
C352 O365 1.251 . S
O353 C352 1.261 . S
H354 C348 0.930 . S
H355 C350 0.930 . S
N356 Cu345 1.985 . S
N356 C358 1.335 . S
N356 C359 1.390 . S
N357 C358 1.345 . S
N357 C360 1.336 . S
C358 N356 1.335 . S
C358 N357 1.345 . S
C358 H363 0.930 . S
C359 N356 1.390 . S
C359 C360 1.346 . S
C359 H364 0.930 . S
C360 N357 1.336 . S
C360 C359 1.346 . S
C360 H367 0.929 . S
C361 O351 1.282 . S
C361 O362 1.216 . S
O362 C361 1.216 . S
H363 C358 0.930 . S
H364 C359 0.930 . S
O365 Cu345 1.959 . S
O365 C352 1.251 . S
H366 C349 0.930 . S
H367 C360 0.929 . S
Cu368 N369 1.999 . S
Cu368 O374 1.974 . S
Cu368 N379 1.985 . S
Cu368 O388 1.959 . S
N369 Cu368 1.999 . S
N369 C371 1.263 . S
N369 C373 1.389 . S
N370 C371 1.358 . S
N370 C372 1.400 . S
C371 N369 1.263 . S
C371 N370 1.358 . S
C371 H377 0.930 . S
C372 N370 1.400 . S
C372 C373 1.351 . S
C372 H389 0.930 . S
C373 N369 1.389 . S
C373 C372 1.351 . S
C373 H378 0.930 . S
O374 Cu368 1.974 . S
O374 C384 1.282 . S
C375 O376 1.261 . S
C375 O388 1.251 . S
O376 C375 1.261 . S
H377 C371 0.930 . S
H378 C373 0.930 . S
N379 Cu368 1.985 . S
N379 C381 1.335 . S
N379 C382 1.390 . S
N380 C381 1.345 . S
N380 C383 1.336 . S
C381 N379 1.335 . S
C381 N380 1.345 . S
C381 H386 0.930 . S
C382 N379 1.390 . S
C382 C383 1.346 . S
C382 H387 0.930 . S
C383 N380 1.336 . S
C383 C382 1.346 . S
C383 H390 0.929 . S
C384 O374 1.282 . S
C384 O385 1.216 . S
O385 C384 1.216 . S
H386 C381 0.930 . S
H387 C382 0.930 . S
O388 Cu368 1.959 . S
O388 C375 1.251 . S
H389 C372 0.930 . S
H390 C383 0.929 . S
Cu391 N392 1.999 . S
Cu391 O397 1.974 . S
Cu391 N402 1.985 . S
Cu391 O411 1.959 . S
N392 Cu391 1.999 . S
N392 C394 1.263 . S
N392 C396 1.389 . S
N393 C394 1.358 . S
N393 C395 1.400 . S
C394 N392 1.263 . S
C394 N393 1.358 . S
C394 H400 0.930 . S
C395 N393 1.400 . S
C395 C396 1.351 . S
C395 H412 0.930 . S
C396 N392 1.389 . S
C396 C395 1.351 . S
C396 H401 0.930 . S
O397 Cu391 1.974 . S
O397 C407 1.282 . S
C398 O399 1.261 . S
C398 O411 1.251 . S
O399 C398 1.261 . S
H400 C394 0.930 . S
H401 C396 0.930 . S
N402 Cu391 1.985 . S
N402 C404 1.335 . S
N402 C405 1.390 . S
N403 C404 1.345 . S
N403 C406 1.336 . S
C404 N402 1.335 . S
C404 N403 1.345 . S
C404 H409 0.930 . S
C405 N402 1.390 . S
C405 C406 1.346 . S
C405 H410 0.930 . S
C406 N403 1.336 . S
C406 C405 1.346 . S
C406 H413 0.929 . S
C407 O397 1.282 . S
C407 O408 1.216 . S
O408 C407 1.216 . S
H409 C404 0.930 . S
H410 C405 0.930 . S
O411 Cu391 1.959 . S
O411 C398 1.251 . S
H412 C395 0.930 . S
H413 C406 0.929 . S
Cu414 N415 1.999 . S
Cu414 O420 1.974 . S
Cu414 N425 1.985 . S
Cu414 O434 1.959 . S
N415 Cu414 1.999 . S
N415 C417 1.263 . S
N415 C419 1.389 . S
N416 C417 1.358 . S
N416 C418 1.400 . S
C417 N415 1.263 . S
C417 N416 1.358 . S
C417 H423 0.930 . S
C418 N416 1.400 . S
C418 C419 1.351 . S
C418 H435 0.930 . S
C419 N415 1.389 . S
C419 C418 1.351 . S
C419 H424 0.930 . S
O420 Cu414 1.974 . S
O420 C430 1.282 . S
C421 O422 1.261 . S
C421 O434 1.251 . S
O422 C421 1.261 . S
H423 C417 0.930 . S
H424 C419 0.930 . S
N425 Cu414 1.985 . S
N425 C427 1.335 . S
N425 C428 1.390 . S
N426 C427 1.345 . S
N426 C429 1.336 . S
C427 N425 1.335 . S
C427 N426 1.345 . S
C427 H432 0.930 . S
C428 N425 1.390 . S
C428 C429 1.346 . S
C428 H433 0.930 . S
C429 N426 1.336 . S
C429 C428 1.346 . S
C429 H436 0.929 . S
C430 O420 1.282 . S
C430 O431 1.216 . S
O431 C430 1.216 . S
H432 C427 0.930 . S
H433 C428 0.930 . S
O434 Cu414 1.959 . S
O434 C421 1.251 . S
H435 C418 0.930 . S
H436 C429 0.929 . S
Cu437 N438 1.999 . S
Cu437 O443 1.974 . S
Cu437 N448 1.985 . S
Cu437 O457 1.959 . S
N438 Cu437 1.999 . S
N438 C440 1.263 . S
N438 C442 1.389 . S
N439 C440 1.358 . S
N439 C441 1.400 . S
C440 N438 1.263 . S
C440 N439 1.358 . S
C440 H446 0.930 . S
C441 N439 1.400 . S
C441 C442 1.351 . S
C441 H458 0.930 . S
C442 N438 1.389 . S
C442 C441 1.351 . S
C442 H447 0.930 . S
O443 Cu437 1.974 . S
O443 C453 1.282 . S
C444 O445 1.261 . S
C444 O457 1.251 . S
O445 C444 1.261 . S
H446 C440 0.930 . S
H447 C442 0.930 . S
N448 Cu437 1.985 . S
N448 C450 1.335 . S
N448 C451 1.390 . S
N449 C450 1.345 . S
N449 C452 1.336 . S
C450 N448 1.335 . S
C450 N449 1.345 . S
C450 H455 0.930 . S
C451 N448 1.390 . S
C451 C452 1.346 . S
C451 H456 0.930 . S
C452 N449 1.336 . S
C452 C451 1.346 . S
C452 H459 0.929 . S
C453 O443 1.282 . S
C453 O454 1.216 . S
O454 C453 1.216 . S
H455 C450 0.930 . S
H456 C451 0.930 . S
O457 Cu437 1.959 . S
O457 C444 1.251 . S
H458 C441 0.930 . S
H459 C452 0.929 . S
Cu460 N461 1.999 . S
Cu460 O466 1.974 . S
Cu460 N471 1.985 . S
Cu460 O480 1.959 . S
N461 Cu460 1.999 . S
N461 C463 1.263 . S
N461 C465 1.389 . S
N462 C463 1.358 . S
N462 C464 1.400 . S
C463 N461 1.263 . S
C463 N462 1.358 . S
C463 H469 0.930 . S
C464 N462 1.400 . S
C464 C465 1.351 . S
C464 H481 0.930 . S
C465 N461 1.389 . S
C465 C464 1.351 . S
C465 H470 0.930 . S
O466 Cu460 1.974 . S
O466 C476 1.282 . S
C467 O468 1.261 . S
C467 O480 1.251 . S
O468 C467 1.261 . S
H469 C463 0.930 . S
H470 C465 0.930 . S
N471 Cu460 1.985 . S
N471 C473 1.335 . S
N471 C474 1.390 . S
N472 C473 1.345 . S
N472 C475 1.336 . S
C473 N471 1.335 . S
C473 N472 1.345 . S
C473 H478 0.930 . S
C474 N471 1.390 . S
C474 C475 1.346 . S
C474 H479 0.930 . S
C475 N472 1.336 . S
C475 C474 1.346 . S
C475 H482 0.929 . S
C476 O466 1.282 . S
C476 O477 1.216 . S
O477 C476 1.216 . S
H478 C473 0.930 . S
H479 C474 0.930 . S
O480 Cu460 1.959 . S
O480 C467 1.251 . S
H481 C464 0.930 . S
H482 C475 0.929 . S
Cu483 N484 1.999 . S
Cu483 O489 1.974 . S
Cu483 N494 1.985 . S
Cu483 O503 1.959 . S
N484 Cu483 1.999 . S
N484 C486 1.263 . S
N484 C488 1.389 . S
N485 C486 1.358 . S
N485 C487 1.400 . S
C486 N484 1.263 . S
C486 N485 1.358 . S
C486 H492 0.930 . S
C487 N485 1.400 . S
C487 C488 1.351 . S
C487 H504 0.930 . S
C488 N484 1.389 . S
C488 C487 1.351 . S
C488 H493 0.930 . S
O489 Cu483 1.974 . S
O489 C499 1.282 . S
C490 O491 1.261 . S
C490 O503 1.251 . S
O491 C490 1.261 . S
H492 C486 0.930 . S
H493 C488 0.930 . S
N494 Cu483 1.985 . S
N494 C496 1.335 . S
N494 C497 1.390 . S
N495 C496 1.345 . S
N495 C498 1.336 . S
C496 N494 1.335 . S
C496 N495 1.345 . S
C496 H501 0.930 . S
C497 N494 1.390 . S
C497 C498 1.346 . S
C497 H502 0.930 . S
C498 N495 1.336 . S
C498 C497 1.346 . S
C498 H505 0.929 . S
C499 O489 1.282 . S
C499 O500 1.216 . S
O500 C499 1.216 . S
H501 C496 0.930 . S
H502 C497 0.930 . S
O503 Cu483 1.959 . S
O503 C490 1.251 . S
H504 C487 0.930 . S
H505 C498 0.929 . S
Cu506 N507 1.999 . S
Cu506 O512 1.974 . S
Cu506 N517 1.985 . S
Cu506 O526 1.959 . S
N507 Cu506 1.999 . S
N507 C509 1.263 . S
N507 C511 1.389 . S
N508 C509 1.358 . S
N508 C510 1.400 . S
C509 N507 1.263 . S
C509 N508 1.358 . S
C509 H515 0.930 . S
C510 N508 1.400 . S
C510 C511 1.351 . S
C510 H527 0.930 . S
C511 N507 1.389 . S
C511 C510 1.351 . S
C511 H516 0.930 . S
O512 Cu506 1.974 . S
O512 C522 1.282 . S
C513 O514 1.261 . S
C513 O526 1.251 . S
O514 C513 1.261 . S
H515 C509 0.930 . S
H516 C511 0.930 . S
N517 Cu506 1.985 . S
N517 C519 1.335 . S
N517 C520 1.390 . S
N518 C519 1.345 . S
N518 C521 1.336 . S
C519 N517 1.335 . S
C519 N518 1.345 . S
C519 H524 0.930 . S
C520 N517 1.390 . S
C520 C521 1.346 . S
C520 H525 0.930 . S
C521 N518 1.336 . S
C521 C520 1.346 . S
C521 H528 0.929 . S
C522 O512 1.282 . S
C522 O523 1.216 . S
O523 C522 1.216 . S
H524 C519 0.930 . S
H525 C520 0.930 . S
O526 Cu506 1.959 . S
O526 C513 1.251 . S
H527 C510 0.930 . S
H528 C521 0.929 . S
Cu529 N530 1.999 . S
Cu529 O535 1.974 . S
Cu529 N540 1.985 . S
Cu529 O549 1.959 . S
N530 Cu529 1.999 . S
N530 C532 1.263 . S
N530 C534 1.389 . S
N531 C532 1.358 . S
N531 C533 1.400 . S
C532 N530 1.263 . S
C532 N531 1.358 . S
C532 H538 0.930 . S
C533 N531 1.400 . S
C533 C534 1.351 . S
C533 H550 0.930 . S
C534 N530 1.389 . S
C534 C533 1.351 . S
C534 H539 0.930 . S
O535 Cu529 1.974 . S
O535 C545 1.282 . S
C536 O537 1.261 . S
C536 O549 1.251 . S
O537 C536 1.261 . S
H538 C532 0.930 . S
H539 C534 0.930 . S
N540 Cu529 1.985 . S
N540 C542 1.335 . S
N540 C543 1.390 . S
N541 C542 1.345 . S
N541 C544 1.336 . S
C542 N540 1.335 . S
C542 N541 1.345 . S
C542 H547 0.930 . S
C543 N540 1.390 . S
C543 C544 1.346 . S
C543 H548 0.930 . S
C544 N541 1.336 . S
C544 C543 1.346 . S
C544 H551 0.929 . S
C545 O535 1.282 . S
C545 O546 1.216 . S
O546 C545 1.216 . S
H547 C542 0.930 . S
H548 C543 0.930 . S
O549 Cu529 1.959 . S
O549 C536 1.251 . S
H550 C533 0.930 . S
H551 C544 0.929 . S
H552 C560 0.950 . S
H553 C565 0.950 . S
H554 C562 0.950 . S
H555 C564 0.950 . S
H556 C566 0.950 . S
H557 C568 0.950 . S
H558 C570 0.950 . S
H559 C571 0.950 . S
C560 H552 0.950 . S
C560 C561 1.386 . S
C560 C562 1.391 . S
C561 C560 1.386 . S
C561 C565 1.393 . S
C562 H554 0.950 . S
C562 C560 1.391 . S
C562 C563 1.400 . S
C563 C562 1.400 . S
C563 C564 1.398 . S
C563 C569 1.491 . S
C564 H555 0.950 . S
C564 C563 1.398 . S
C564 C565 1.391 . S
C565 H553 0.950 . S
C565 C561 1.393 . S
C565 C564 1.391 . S
C566 H556 0.950 . S
C566 C567 1.386 . S
C566 C568 1.391 . S
C567 C566 1.386 . S
C567 C571 1.393 . S
C568 H557 0.950 . S
C568 C566 1.391 . S
C568 C569 1.400 . S
C569 C563 1.491 . S
C569 C568 1.400 . S
C569 C570 1.398 . S
C570 H558 0.950 . S
C570 C569 1.398 . S
C570 C571 1.391 . S
C571 H559 0.950 . S
C571 C567 1.393 . S
C571 C570 1.391 . S
H572 C580 0.950 . S
H573 C585 0.950 . S
H574 C582 0.950 . S
H575 C584 0.950 . S
H576 C586 0.950 . S
H577 C588 0.950 . S
H578 C590 0.950 . S
H579 C591 0.950 . S
C580 H572 0.950 . S
C580 C581 1.386 . S
C580 C582 1.391 . S
C581 C580 1.386 . S
C581 C585 1.393 . S
C582 H574 0.950 . S
C582 C580 1.391 . S
C582 C583 1.400 . S
C583 C582 1.400 . S
C583 C584 1.398 . S
C583 C589 1.491 . S
C584 H575 0.950 . S
C584 C583 1.398 . S
C584 C585 1.391 . S
C585 H573 0.950 . S
C585 C581 1.393 . S
C585 C584 1.391 . S
C586 H576 0.950 . S
C586 C587 1.386 . S
C586 C588 1.391 . S
C587 C586 1.386 . S
C587 C591 1.393 . S
C588 H577 0.950 . S
C588 C586 1.391 . S
C588 C589 1.400 . S
C589 C583 1.491 . S
C589 C588 1.400 . S
C589 C590 1.398 . S
C590 H578 0.950 . S
C590 C589 1.398 . S
C590 C591 1.391 . S
C591 H579 0.950 . S
C591 C587 1.393 . S
C591 C590 1.391 . S
H592 C600 0.950 . S
H593 C605 0.950 . S
H594 C602 0.950 . S
H595 C604 0.950 . S
H596 C606 0.950 . S
H597 C608 0.950 . S
H598 C610 0.950 . S
H599 C611 0.950 . S
C600 H592 0.950 . S
C600 C601 1.386 . S
C600 C602 1.391 . S
C601 C600 1.386 . S
C601 C605 1.393 . S
C602 H594 0.950 . S
C602 C600 1.391 . S
C602 C603 1.400 . S
C603 C602 1.400 . S
C603 C604 1.398 . S
C603 C609 1.491 . S
C604 H595 0.950 . S
C604 C603 1.398 . S
C604 C605 1.391 . S
C605 H593 0.950 . S
C605 C601 1.393 . S
C605 C604 1.391 . S
C606 H596 0.950 . S
C606 C607 1.386 . S
C606 C608 1.391 . S
C607 C606 1.386 . S
C607 C611 1.393 . S
C608 H597 0.950 . S
C608 C606 1.391 . S
C608 C609 1.400 . S
C609 C603 1.491 . S
C609 C608 1.400 . S
C609 C610 1.398 . S
C610 H598 0.950 . S
C610 C609 1.398 . S
C610 C611 1.391 . S
C611 H599 0.950 . S
C611 C607 1.393 . S
C611 C610 1.391 . S
H612 C620 0.950 . S
H613 C625 0.950 . S
H614 C622 0.950 . S
H615 C624 0.950 . S
H616 C626 0.950 . S
H617 C628 0.950 . S
H618 C630 0.950 . S
H619 C631 0.950 . S
C620 H612 0.950 . S
C620 C621 1.386 . S
C620 C622 1.391 . S
C621 C620 1.386 . S
C621 C625 1.393 . S
C622 H614 0.950 . S
C622 C620 1.391 . S
C622 C623 1.400 . S
C623 C622 1.400 . S
C623 C624 1.398 . S
C623 C629 1.491 . S
C624 H615 0.950 . S
C624 C623 1.398 . S
C624 C625 1.391 . S
C625 H613 0.950 . S
C625 C621 1.393 . S
C625 C624 1.391 . S
C626 H616 0.950 . S
C626 C627 1.386 . S
C626 C628 1.391 . S
C627 C626 1.386 . S
C627 C631 1.393 . S
C628 H617 0.950 . S
C628 C626 1.391 . S
C628 C629 1.400 . S
C629 C623 1.491 . S
C629 C628 1.400 . S
C629 C630 1.398 . S
C630 H618 0.950 . S
C630 C629 1.398 . S
C630 C631 1.391 . S
C631 H619 0.950 . S
C631 C627 1.393 . S
C631 C630 1.391 . S
H632 C640 0.950 . S
H633 C645 0.950 . S
H634 C642 0.950 . S
H635 C644 0.950 . S
H636 C646 0.950 . S
H637 C648 0.950 . S
H638 C650 0.950 . S
H639 C651 0.950 . S
C640 H632 0.950 . S
C640 C641 1.386 . S
C640 C642 1.391 . S
C641 C640 1.386 . S
C641 C645 1.393 . S
C642 H634 0.950 . S
C642 C640 1.391 . S
C642 C643 1.400 . S
C643 C642 1.400 . S
C643 C644 1.398 . S
C643 C649 1.491 . S
C644 H635 0.950 . S
C644 C643 1.398 . S
C644 C645 1.391 . S
C645 H633 0.950 . S
C645 C641 1.393 . S
C645 C644 1.391 . S
C646 H636 0.950 . S
C646 C647 1.386 . S
C646 C648 1.391 . S
C647 C646 1.386 . S
C647 C651 1.393 . S
C648 H637 0.950 . S
C648 C646 1.391 . S
C648 C649 1.400 . S
C649 C643 1.491 . S
C649 C648 1.400 . S
C649 C650 1.398 . S
C650 H638 0.950 . S
C650 C649 1.398 . S
C650 C651 1.391 . S
C651 H639 0.950 . S
C651 C647 1.393 . S
C651 C650 1.391 . S
H652 C660 0.950 . S
H653 C665 0.950 . S
H654 C662 0.950 . S
H655 C664 0.950 . S
H656 C666 0.950 . S
H657 C668 0.950 . S
H658 C670 0.950 . S
H659 C671 0.950 . S
C660 H652 0.950 . S
C660 C661 1.386 . S
C660 C662 1.391 . S
C661 C660 1.386 . S
C661 C665 1.393 . S
C662 H654 0.950 . S
C662 C660 1.391 . S
C662 C663 1.400 . S
C663 C662 1.400 . S
C663 C664 1.398 . S
C663 C669 1.491 . S
C664 H655 0.950 . S
C664 C663 1.398 . S
C664 C665 1.391 . S
C665 H653 0.950 . S
C665 C661 1.393 . S
C665 C664 1.391 . S
C666 H656 0.950 . S
C666 C667 1.386 . S
C666 C668 1.391 . S
C667 C666 1.386 . S
C667 C671 1.393 . S
C668 H657 0.950 . S
C668 C666 1.391 . S
C668 C669 1.400 . S
C669 C663 1.491 . S
C669 C668 1.400 . S
C669 C670 1.398 . S
C670 H658 0.950 . S
C670 C669 1.398 . S
C670 C671 1.391 . S
C671 H659 0.950 . S
C671 C667 1.393 . S
C671 C670 1.391 . S
H672 C680 0.950 . S
H673 C685 0.950 . S
H674 C682 0.950 . S
H675 C684 0.950 . S
H676 C686 0.950 . S
H677 C688 0.950 . S
H678 C690 0.950 . S
H679 C691 0.950 . S
C680 H672 0.950 . S
C680 C681 1.386 . S
C680 C682 1.391 . S
C681 C680 1.386 . S
C681 C685 1.393 . S
C682 H674 0.950 . S
C682 C680 1.391 . S
C682 C683 1.400 . S
C683 C682 1.400 . S
C683 C684 1.398 . S
C683 C689 1.491 . S
C684 H675 0.950 . S
C684 C683 1.398 . S
C684 C685 1.391 . S
C685 H673 0.950 . S
C685 C681 1.393 . S
C685 C684 1.391 . S
C686 H676 0.950 . S
C686 C687 1.386 . S
C686 C688 1.391 . S
C687 C686 1.386 . S
C687 C691 1.393 . S
C688 H677 0.950 . S
C688 C686 1.391 . S
C688 C689 1.400 . S
C689 C683 1.491 . S
C689 C688 1.400 . S
C689 C690 1.398 . S
C690 H678 0.950 . S
C690 C689 1.398 . S
C690 C691 1.391 . S
C691 H679 0.950 . S
C691 C687 1.393 . S
C691 C690 1.391 . S
H692 C700 0.950 . S
H693 C705 0.950 . S
H694 C702 0.950 . S
H695 C704 0.950 . S
H696 C706 0.950 . S
H697 C708 0.950 . S
H698 C710 0.950 . S
H699 C711 0.950 . S
C700 H692 0.950 . S
C700 C701 1.386 . S
C700 C702 1.391 . S
C701 C700 1.386 . S
C701 C705 1.393 . S
C702 H694 0.950 . S
C702 C700 1.391 . S
C702 C703 1.400 . S
C703 C702 1.400 . S
C703 C704 1.398 . S
C703 C709 1.491 . S
C704 H695 0.950 . S
C704 C703 1.398 . S
C704 C705 1.391 . S
C705 H693 0.950 . S
C705 C701 1.393 . S
C705 C704 1.391 . S
C706 H696 0.950 . S
C706 C707 1.386 . S
C706 C708 1.391 . S
C707 C706 1.386 . S
C707 C711 1.393 . S
C708 H697 0.950 . S
C708 C706 1.391 . S
C708 C709 1.400 . S
C709 C703 1.491 . S
C709 C708 1.400 . S
C709 C710 1.398 . S
C710 H698 0.950 . S
C710 C709 1.398 . S
C710 C711 1.391 . S
C711 H699 0.950 . S
C711 C707 1.393 . S
C711 C710 1.391 . S
H712 C720 0.950 . S
H713 C725 0.950 . S
H714 C722 0.950 . S
H715 C724 0.950 . S
H716 C726 0.950 . S
H717 C728 0.950 . S
H718 C730 0.950 . S
H719 C731 0.950 . S
C720 H712 0.950 . S
C720 C721 1.386 . S
C720 C722 1.391 . S
C721 C720 1.386 . S
C721 C725 1.393 . S
C722 H714 0.950 . S
C722 C720 1.391 . S
C722 C723 1.400 . S
C723 C722 1.400 . S
C723 C724 1.398 . S
C723 C729 1.491 . S
C724 H715 0.950 . S
C724 C723 1.398 . S
C724 C725 1.391 . S
C725 H713 0.950 . S
C725 C721 1.393 . S
C725 C724 1.391 . S
C726 H716 0.950 . S
C726 C727 1.386 . S
C726 C728 1.391 . S
C727 C726 1.386 . S
C727 C731 1.393 . S
C728 H717 0.950 . S
C728 C726 1.391 . S
C728 C729 1.400 . S
C729 C723 1.491 . S
C729 C728 1.400 . S
C729 C730 1.398 . S
C730 H718 0.950 . S
C730 C729 1.398 . S
C730 C731 1.391 . S
C731 H719 0.950 . S
C731 C727 1.393 . S
C731 C730 1.391 . S
H732 C740 0.950 . S
H733 C745 0.950 . S
H734 C742 0.950 . S
H735 C744 0.950 . S
H736 C746 0.950 . S
H737 C748 0.950 . S
H738 C750 0.950 . S
H739 C751 0.950 . S
C740 H732 0.950 . S
C740 C741 1.386 . S
C740 C742 1.391 . S
C741 C740 1.386 . S
C741 C745 1.393 . S
C742 H734 0.950 . S
C742 C740 1.391 . S
C742 C743 1.400 . S
C743 C742 1.400 . S
C743 C744 1.398 . S
C743 C749 1.491 . S
C744 H735 0.950 . S
C744 C743 1.398 . S
C744 C745 1.391 . S
C745 H733 0.950 . S
C745 C741 1.393 . S
C745 C744 1.391 . S
C746 H736 0.950 . S
C746 C747 1.386 . S
C746 C748 1.391 . S
C747 C746 1.386 . S
C747 C751 1.393 . S
C748 H737 0.950 . S
C748 C746 1.391 . S
C748 C749 1.400 . S
C749 C743 1.491 . S
C749 C748 1.400 . S
C749 C750 1.398 . S
C750 H738 0.950 . S
C750 C749 1.398 . S
C750 C751 1.391 . S
C751 H739 0.950 . S
C751 C747 1.393 . S
C751 C750 1.391 . S
H752 C760 0.950 . S
H753 C765 0.950 . S
H754 C762 0.950 . S
H755 C764 0.950 . S
H756 C766 0.950 . S
H757 C768 0.950 . S
H758 C770 0.950 . S
H759 C771 0.950 . S
C760 H752 0.950 . S
C760 C761 1.386 . S
C760 C762 1.391 . S
C761 C760 1.386 . S
C761 C765 1.393 . S
C762 H754 0.950 . S
C762 C760 1.391 . S
C762 C763 1.400 . S
C763 C762 1.400 . S
C763 C764 1.398 . S
C763 C769 1.491 . S
C764 H755 0.950 . S
C764 C763 1.398 . S
C764 C765 1.391 . S
C765 H753 0.950 . S
C765 C761 1.393 . S
C765 C764 1.391 . S
C766 H756 0.950 . S
C766 C767 1.386 . S
C766 C768 1.391 . S
C767 C766 1.386 . S
C767 C771 1.393 . S
C768 H757 0.950 . S
C768 C766 1.391 . S
C768 C769 1.400 . S
C769 C763 1.491 . S
C769 C768 1.400 . S
C769 C770 1.398 . S
C770 H758 0.950 . S
C770 C769 1.398 . S
C770 C771 1.391 . S
C771 H759 0.950 . S
C771 C767 1.393 . S
C771 C770 1.391 . S
H772 C780 0.950 . S
H773 C785 0.950 . S
H774 C782 0.950 . S
H775 C784 0.950 . S
H776 C786 0.950 . S
H777 C788 0.950 . S
H778 C790 0.950 . S
H779 C791 0.950 . S
C780 H772 0.950 . S
C780 C781 1.386 . S
C780 C782 1.391 . S
C781 C780 1.386 . S
C781 C785 1.393 . S
C782 H774 0.950 . S
C782 C780 1.391 . S
C782 C783 1.400 . S
C783 C782 1.400 . S
C783 C784 1.398 . S
C783 C789 1.491 . S
C784 H775 0.950 . S
C784 C783 1.398 . S
C784 C785 1.391 . S
C785 H773 0.950 . S
C785 C781 1.393 . S
C785 C784 1.391 . S
C786 H776 0.950 . S
C786 C787 1.386 . S
C786 C788 1.391 . S
C787 C786 1.386 . S
C787 C791 1.393 . S
C788 H777 0.950 . S
C788 C786 1.391 . S
C788 C789 1.400 . S
C789 C783 1.491 . S
C789 C788 1.400 . S
C789 C790 1.398 . S
C790 H778 0.950 . S
C790 C789 1.398 . S
C790 C791 1.391 . S
C791 H779 0.950 . S
C791 C787 1.393 . S
C791 C790 1.391 . S
H792 C800 0.950 . S
H793 C805 0.950 . S
H794 C802 0.950 . S
H795 C804 0.950 . S
H796 C806 0.950 . S
H797 C808 0.950 . S
H798 C810 0.950 . S
H799 C811 0.950 . S
C800 H792 0.950 . S
C800 C801 1.386 . S
C800 C802 1.391 . S
C801 C800 1.386 . S
C801 C805 1.393 . S
C802 H794 0.950 . S
C802 C800 1.391 . S
C802 C803 1.400 . S
C803 C802 1.400 . S
C803 C804 1.398 . S
C803 C809 1.491 . S
C804 H795 0.950 . S
C804 C803 1.398 . S
C804 C805 1.391 . S
C805 H793 0.950 . S
C805 C801 1.393 . S
C805 C804 1.391 . S
C806 H796 0.950 . S
C806 C807 1.386 . S
C806 C808 1.391 . S
C807 C806 1.386 . S
C807 C811 1.393 . S
C808 H797 0.950 . S
C808 C806 1.391 . S
C808 C809 1.400 . S
C809 C803 1.491 . S
C809 C808 1.400 . S
C809 C810 1.398 . S
C810 H798 0.950 . S
C810 C809 1.398 . S
C810 C811 1.391 . S
C811 H799 0.950 . S
C811 C807 1.393 . S
C811 C810 1.391 . S
H812 C820 0.950 . S
H813 C825 0.950 . S
H814 C822 0.950 . S
H815 C824 0.950 . S
H816 C826 0.950 . S
H817 C828 0.950 . S
H818 C830 0.950 . S
H819 C831 0.950 . S
C820 H812 0.950 . S
C820 C821 1.386 . S
C820 C822 1.391 . S
C821 C820 1.386 . S
C821 C825 1.393 . S
C822 H814 0.950 . S
C822 C820 1.391 . S
C822 C823 1.400 . S
C823 C822 1.400 . S
C823 C824 1.398 . S
C823 C829 1.491 . S
C824 H815 0.950 . S
C824 C823 1.398 . S
C824 C825 1.391 . S
C825 H813 0.950 . S
C825 C821 1.393 . S
C825 C824 1.391 . S
C826 H816 0.950 . S
C826 C827 1.386 . S
C826 C828 1.391 . S
C827 C826 1.386 . S
C827 C831 1.393 . S
C828 H817 0.950 . S
C828 C826 1.391 . S
C828 C829 1.400 . S
C829 C823 1.491 . S
C829 C828 1.400 . S
C829 C830 1.398 . S
C830 H818 0.950 . S
C830 C829 1.398 . S
C830 C831 1.391 . S
C831 H819 0.950 . S
C831 C827 1.393 . S
C831 C830 1.391 . S
H832 C840 0.950 . S
H833 C845 0.950 . S
H834 C842 0.950 . S
H835 C844 0.950 . S
H836 C846 0.950 . S
H837 C848 0.950 . S
H838 C850 0.950 . S
H839 C851 0.950 . S
C840 H832 0.950 . S
C840 C841 1.386 . S
C840 C842 1.391 . S
C841 C840 1.386 . S
C841 C845 1.393 . S
C842 H834 0.950 . S
C842 C840 1.391 . S
C842 C843 1.400 . S
C843 C842 1.400 . S
C843 C844 1.398 . S
C843 C849 1.491 . S
C844 H835 0.950 . S
C844 C843 1.398 . S
C844 C845 1.391 . S
C845 H833 0.950 . S
C845 C841 1.393 . S
C845 C844 1.391 . S
C846 H836 0.950 . S
C846 C847 1.386 . S
C846 C848 1.391 . S
C847 C846 1.386 . S
C847 C851 1.393 . S
C848 H837 0.950 . S
C848 C846 1.391 . S
C848 C849 1.400 . S
C849 C843 1.491 . S
C849 C848 1.400 . S
C849 C850 1.398 . S
C850 H838 0.950 . S
C850 C849 1.398 . S
C850 C851 1.391 . S
C851 H839 0.950 . S
C851 C847 1.393 . S
C851 C850 1.391 . S
H852 C860 0.950 . S
H853 C865 0.950 . S
H854 C862 0.950 . S
H855 C864 0.950 . S
H856 C866 0.950 . S
H857 C868 0.950 . S
H858 C870 0.950 . S
H859 C871 0.950 . S
C860 H852 0.950 . S
C860 C861 1.386 . S
C860 C862 1.391 . S
C861 C860 1.386 . S
C861 C865 1.393 . S
C862 H854 0.950 . S
C862 C860 1.391 . S
C862 C863 1.400 . S
C863 C862 1.400 . S
C863 C864 1.398 . S
C863 C869 1.491 . S
C864 H855 0.950 . S
C864 C863 1.398 . S
C864 C865 1.391 . S
C865 H853 0.950 . S
C865 C861 1.393 . S
C865 C864 1.391 . S
C866 H856 0.950 . S
C866 C867 1.386 . S
C866 C868 1.391 . S
C867 C866 1.386 . S
C867 C871 1.393 . S
C868 H857 0.950 . S
C868 C866 1.391 . S
C868 C869 1.400 . S
C869 C863 1.491 . S
C869 C868 1.400 . S
C869 C870 1.398 . S
C870 H858 0.950 . S
C870 C869 1.398 . S
C870 C871 1.391 . S
C871 H859 0.950 . S
C871 C867 1.393 . S
C871 C870 1.391 . S
H872 C880 0.950 . S
H873 C885 0.950 . S
H874 C882 0.950 . S
H875 C884 0.950 . S
H876 C886 0.950 . S
H877 C888 0.950 . S
H878 C890 0.950 . S
H879 C891 0.950 . S
C880 H872 0.950 . S
C880 C881 1.386 . S
C880 C882 1.391 . S
C881 C880 1.386 . S
C881 C885 1.393 . S
C882 H874 0.950 . S
C882 C880 1.391 . S
C882 C883 1.400 . S
C883 C882 1.400 . S
C883 C884 1.398 . S
C883 C889 1.491 . S
C884 H875 0.950 . S
C884 C883 1.398 . S
C884 C885 1.391 . S
C885 H873 0.950 . S
C885 C881 1.393 . S
C885 C884 1.391 . S
C886 H876 0.950 . S
C886 C887 1.386 . S
C886 C888 1.391 . S
C887 C886 1.386 . S
C887 C891 1.393 . S
C888 H877 0.950 . S
C888 C886 1.391 . S
C888 C889 1.400 . S
C889 C883 1.491 . S
C889 C888 1.400 . S
C889 C890 1.398 . S
C890 H878 0.950 . S
C890 C889 1.398 . S
C890 C891 1.391 . S
C891 H879 0.950 . S
C891 C887 1.393 . S
C891 C890 1.391 . S
H892 C900 0.950 . S
H893 C905 0.950 . S
H894 C902 0.950 . S
H895 C904 0.950 . S
H896 C906 0.950 . S
H897 C908 0.950 . S
H898 C910 0.950 . S
H899 C911 0.950 . S
C900 H892 0.950 . S
C900 C901 1.386 . S
C900 C902 1.391 . S
C901 C900 1.386 . S
C901 C905 1.393 . S
C902 H894 0.950 . S
C902 C900 1.391 . S
C902 C903 1.400 . S
C903 C902 1.400 . S
C903 C904 1.398 . S
C903 C909 1.491 . S
C904 H895 0.950 . S
C904 C903 1.398 . S
C904 C905 1.391 . S
C905 H893 0.950 . S
C905 C901 1.393 . S
C905 C904 1.391 . S
C906 H896 0.950 . S
C906 C907 1.386 . S
C906 C908 1.391 . S
C907 C906 1.386 . S
C907 C911 1.393 . S
C908 H897 0.950 . S
C908 C906 1.391 . S
C908 C909 1.400 . S
C909 C903 1.491 . S
C909 C908 1.400 . S
C909 C910 1.398 . S
C910 H898 0.950 . S
C910 C909 1.398 . S
C910 C911 1.391 . S
C911 H899 0.950 . S
C911 C907 1.393 . S
C911 C910 1.391 . S
H912 C920 0.950 . S
H913 C925 0.950 . S
H914 C922 0.950 . S
H915 C924 0.950 . S
H916 C926 0.950 . S
H917 C928 0.950 . S
H918 C930 0.950 . S
H919 C931 0.950 . S
C920 H912 0.950 . S
C920 C921 1.386 . S
C920 C922 1.391 . S
C921 C920 1.386 . S
C921 C925 1.393 . S
C922 H914 0.950 . S
C922 C920 1.391 . S
C922 C923 1.400 . S
C923 C922 1.400 . S
C923 C924 1.398 . S
C923 C929 1.491 . S
C924 H915 0.950 . S
C924 C923 1.398 . S
C924 C925 1.391 . S
C925 H913 0.950 . S
C925 C921 1.393 . S
C925 C924 1.391 . S
C926 H916 0.950 . S
C926 C927 1.386 . S
C926 C928 1.391 . S
C927 C926 1.386 . S
C927 C931 1.393 . S
C928 H917 0.950 . S
C928 C926 1.391 . S
C928 C929 1.400 . S
C929 C923 1.491 . S
C929 C928 1.400 . S
C929 C930 1.398 . S
C930 H918 0.950 . S
C930 C929 1.398 . S
C930 C931 1.391 . S
C931 H919 0.950 . S
C931 C927 1.393 . S
C931 C930 1.391 . S
H932 C940 0.950 . S
H933 C945 0.950 . S
H934 C942 0.950 . S
H935 C944 0.950 . S
H936 C946 0.950 . S
H937 C948 0.950 . S
H938 C950 0.950 . S
H939 C951 0.950 . S
C940 H932 0.950 . S
C940 C941 1.386 . S
C940 C942 1.391 . S
C941 C940 1.386 . S
C941 C945 1.393 . S
C942 H934 0.950 . S
C942 C940 1.391 . S
C942 C943 1.400 . S
C943 C942 1.400 . S
C943 C944 1.398 . S
C943 C949 1.491 . S
C944 H935 0.950 . S
C944 C943 1.398 . S
C944 C945 1.391 . S
C945 H933 0.950 . S
C945 C941 1.393 . S
C945 C944 1.391 . S
C946 H936 0.950 . S
C946 C947 1.386 . S
C946 C948 1.391 . S
C947 C946 1.386 . S
C947 C951 1.393 . S
C948 H937 0.950 . S
C948 C946 1.391 . S
C948 C949 1.400 . S
C949 C943 1.491 . S
C949 C948 1.400 . S
C949 C950 1.398 . S
C950 H938 0.950 . S
C950 C949 1.398 . S
C950 C951 1.391 . S
C951 H939 0.950 . S
C951 C947 1.393 . S
C951 C950 1.391 . S
H952 C960 0.950 . S
H953 C965 0.950 . S
H954 C962 0.950 . S
H955 C964 0.950 . S
H956 C966 0.950 . S
H957 C968 0.950 . S
H958 C970 0.950 . S
H959 C971 0.950 . S
C960 H952 0.950 . S
C960 C961 1.386 . S
C960 C962 1.391 . S
C961 C960 1.386 . S
C961 C965 1.393 . S
C962 H954 0.950 . S
C962 C960 1.391 . S
C962 C963 1.400 . S
C963 C962 1.400 . S
C963 C964 1.398 . S
C963 C969 1.491 . S
C964 H955 0.950 . S
C964 C963 1.398 . S
C964 C965 1.391 . S
C965 H953 0.950 . S
C965 C961 1.393 . S
C965 C964 1.391 . S
C966 H956 0.950 . S
C966 C967 1.386 . S
C966 C968 1.391 . S
C967 C966 1.386 . S
C967 C971 1.393 . S
C968 H957 0.950 . S
C968 C966 1.391 . S
C968 C969 1.400 . S
C969 C963 1.491 . S
C969 C968 1.400 . S
C969 C970 1.398 . S
C970 H958 0.950 . S
C970 C969 1.398 . S
C970 C971 1.391 . S
C971 H959 0.950 . S
C971 C967 1.393 . S
C971 C970 1.391 . S
H972 C980 0.950 . S
H973 C985 0.950 . S
H974 C982 0.950 . S
H975 C984 0.950 . S
H976 C986 0.950 . S
H977 C988 0.950 . S
H978 C990 0.950 . S
H979 C991 0.950 . S
C980 H972 0.950 . S
C980 C981 1.386 . S
C980 C982 1.391 . S
C981 C980 1.386 . S
C981 C985 1.393 . S
C982 H974 0.950 . S
C982 C980 1.391 . S
C982 C983 1.400 . S
C983 C982 1.400 . S
C983 C984 1.398 . S
C983 C989 1.491 . S
C984 H975 0.950 . S
C984 C983 1.398 . S
C984 C985 1.391 . S
C985 H973 0.950 . S
C985 C981 1.393 . S
C985 C984 1.391 . S
C986 H976 0.950 . S
C986 C987 1.386 . S
C986 C988 1.391 . S
C987 C986 1.386 . S
C987 C991 1.393 . S
C988 H977 0.950 . S
C988 C986 1.391 . S
C988 C989 1.400 . S
C989 C983 1.491 . S
C989 C988 1.400 . S
C989 C990 1.398 . S
C990 H978 0.950 . S
C990 C989 1.398 . S
C990 C991 1.391 . S
C991 H979 0.950 . S
C991 C987 1.393 . S
C991 C990 1.391 . S
H992 C1000 0.950 . S
H993 C1005 0.950 . S
H994 C1002 0.950 . S
H995 C1004 0.950 . S
H996 C1006 0.950 . S
H997 C1008 0.950 . S
H998 C1010 0.950 . S
H999 C1011 0.950 . S
C1000 H992 0.950 . S
C1000 C1001 1.386 . S
C1000 C1002 1.391 . S
C1001 C1000 1.386 . S
C1001 C1005 1.393 . S
C1002 H994 0.950 . S
C1002 C1000 1.391 . S
C1002 C1003 1.400 . S
C1003 C1002 1.400 . S
C1003 C1004 1.398 . S
C1003 C1009 1.491 . S
C1004 H995 0.950 . S
C1004 C1003 1.398 . S
C1004 C1005 1.391 . S
C1005 H993 0.950 . S
C1005 C1001 1.393 . S
C1005 C1004 1.391 . S
C1006 H996 0.950 . S
C1006 C1007 1.386 . S
C1006 C1008 1.391 . S
C1007 C1006 1.386 . S
C1007 C1011 1.393 . S
C1008 H997 0.950 . S
C1008 C1006 1.391 . S
C1008 C1009 1.400 . S
C1009 C1003 1.491 . S
C1009 C1008 1.400 . S
C1009 C1010 1.398 . S
C1010 H998 0.950 . S
C1010 C1009 1.398 . S
C1010 C1011 1.391 . S
C1011 H999 0.950 . S
C1011 C1007 1.393 . S
C1011 C1010 1.391 . S
H1012 C1020 0.950 . S
H1013 C1025 0.950 . S
H1014 C1022 0.950 . S
H1015 C1024 0.950 . S
H1016 C1026 0.950 . S
H1017 C1028 0.950 . S
H1018 C1030 0.950 . S
H1019 C1031 0.950 . S
C1020 H1012 0.950 . S
C1020 C1021 1.386 . S
C1020 C1022 1.391 . S
C1021 C1020 1.386 . S
C1021 C1025 1.393 . S
C1022 H1014 0.950 . S
C1022 C1020 1.391 . S
C1022 C1023 1.400 . S
C1023 C1022 1.400 . S
C1023 C1024 1.398 . S
C1023 C1029 1.491 . S
C1024 H1015 0.950 . S
C1024 C1023 1.398 . S
C1024 C1025 1.391 . S
C1025 H1013 0.950 . S
C1025 C1021 1.393 . S
C1025 C1024 1.391 . S
C1026 H1016 0.950 . S
C1026 C1027 1.386 . S
C1026 C1028 1.391 . S
C1027 C1026 1.386 . S
C1027 C1031 1.393 . S
C1028 H1017 0.950 . S
C1028 C1026 1.391 . S
C1028 C1029 1.400 . S
C1029 C1023 1.491 . S
C1029 C1028 1.400 . S
C1029 C1030 1.398 . S
C1030 H1018 0.950 . S
C1030 C1029 1.398 . S
C1030 C1031 1.391 . S
C1031 H1019 0.950 . S
C1031 C1027 1.393 . S
C1031 C1030 1.391 . S
H1032 C1040 0.950 . S
H1033 C1045 0.950 . S
H1034 C1042 0.950 . S
H1035 C1044 0.950 . S
H1036 C1046 0.950 . S
H1037 C1048 0.950 . S
H1038 C1050 0.950 . S
H1039 C1051 0.950 . S
C1040 H1032 0.950 . S
C1040 C1041 1.386 . S
C1040 C1042 1.391 . S
C1041 C1040 1.386 . S
C1041 C1045 1.393 . S
C1042 H1034 0.950 . S
C1042 C1040 1.391 . S
C1042 C1043 1.400 . S
C1043 C1042 1.400 . S
C1043 C1044 1.398 . S
C1043 C1049 1.491 . S
C1044 H1035 0.950 . S
C1044 C1043 1.398 . S
C1044 C1045 1.391 . S
C1045 H1033 0.950 . S
C1045 C1041 1.393 . S
C1045 C1044 1.391 . S
C1046 H1036 0.950 . S
C1046 C1047 1.386 . S
C1046 C1048 1.391 . S
C1047 C1046 1.386 . S
C1047 C1051 1.393 . S
C1048 H1037 0.950 . S
C1048 C1046 1.391 . S
C1048 C1049 1.400 . S
C1049 C1043 1.491 . S
C1049 C1048 1.400 . S
C1049 C1050 1.398 . S
C1050 H1038 0.950 . S
C1050 C1049 1.398 . S
C1050 C1051 1.391 . S
C1051 H1039 0.950 . S
C1051 C1047 1.393 . S
C1051 C1050 1.391 . S
H1052 C1060 0.950 . S
H1053 C1065 0.950 . S
H1054 C1062 0.950 . S
H1055 C1064 0.950 . S
H1056 C1066 0.950 . S
H1057 C1068 0.950 . S
H1058 C1070 0.950 . S
H1059 C1071 0.950 . S
C1060 H1052 0.950 . S
C1060 C1061 1.386 . S
C1060 C1062 1.391 . S
C1061 C1060 1.386 . S
C1061 C1065 1.393 . S
C1062 H1054 0.950 . S
C1062 C1060 1.391 . S
C1062 C1063 1.400 . S
C1063 C1062 1.400 . S
C1063 C1064 1.398 . S
C1063 C1069 1.491 . S
C1064 H1055 0.950 . S
C1064 C1063 1.398 . S
C1064 C1065 1.391 . S
C1065 H1053 0.950 . S
C1065 C1061 1.393 . S
C1065 C1064 1.391 . S
C1066 H1056 0.950 . S
C1066 C1067 1.386 . S
C1066 C1068 1.391 . S
C1067 C1066 1.386 . S
C1067 C1071 1.393 . S
C1068 H1057 0.950 . S
C1068 C1066 1.391 . S
C1068 C1069 1.400 . S
C1069 C1063 1.491 . S
C1069 C1068 1.400 . S
C1069 C1070 1.398 . S
C1070 H1058 0.950 . S
C1070 C1069 1.398 . S
C1070 C1071 1.391 . S
C1071 H1059 0.950 . S
C1071 C1067 1.393 . S
C1071 C1070 1.391 . S
H1072 C1080 0.950 . S
H1073 C1085 0.950 . S
H1074 C1082 0.950 . S
H1075 C1084 0.950 . S
H1076 C1086 0.950 . S
H1077 C1088 0.950 . S
H1078 C1090 0.950 . S
H1079 C1091 0.950 . S
C1080 H1072 0.950 . S
C1080 C1081 1.386 . S
C1080 C1082 1.391 . S
C1081 C1080 1.386 . S
C1081 C1085 1.393 . S
C1082 H1074 0.950 . S
C1082 C1080 1.391 . S
C1082 C1083 1.400 . S
C1083 C1082 1.400 . S
C1083 C1084 1.398 . S
C1083 C1089 1.491 . S
C1084 H1075 0.950 . S
C1084 C1083 1.398 . S
C1084 C1085 1.391 . S
C1085 H1073 0.950 . S
C1085 C1081 1.393 . S
C1085 C1084 1.391 . S
C1086 H1076 0.950 . S
C1086 C1087 1.386 . S
C1086 C1088 1.391 . S
C1087 C1086 1.386 . S
C1087 C1091 1.393 . S
C1088 H1077 0.950 . S
C1088 C1086 1.391 . S
C1088 C1089 1.400 . S
C1089 C1083 1.491 . S
C1089 C1088 1.400 . S
C1089 C1090 1.398 . S
C1090 H1078 0.950 . S
C1090 C1089 1.398 . S
C1090 C1091 1.391 . S
C1091 H1079 0.950 . S
C1091 C1087 1.393 . S
C1091 C1090 1.391 . S
H1092 C1100 0.950 . S
H1093 C1105 0.950 . S
H1094 C1102 0.950 . S
H1095 C1104 0.950 . S
H1096 C1106 0.950 . S
H1097 C1108 0.950 . S
H1098 C1110 0.950 . S
H1099 C1111 0.950 . S
C1100 H1092 0.950 . S
C1100 C1101 1.386 . S
C1100 C1102 1.391 . S
C1101 C1100 1.386 . S
C1101 C1105 1.393 . S
C1102 H1094 0.950 . S
C1102 C1100 1.391 . S
C1102 C1103 1.400 . S
C1103 C1102 1.400 . S
C1103 C1104 1.398 . S
C1103 C1109 1.491 . S
C1104 H1095 0.950 . S
C1104 C1103 1.398 . S
C1104 C1105 1.391 . S
C1105 H1093 0.950 . S
C1105 C1101 1.393 . S
C1105 C1104 1.391 . S
C1106 H1096 0.950 . S
C1106 C1107 1.386 . S
C1106 C1108 1.391 . S
C1107 C1106 1.386 . S
C1107 C1111 1.393 . S
C1108 H1097 0.950 . S
C1108 C1106 1.391 . S
C1108 C1109 1.400 . S
C1109 C1103 1.491 . S
C1109 C1108 1.400 . S
C1109 C1110 1.398 . S
C1110 H1098 0.950 . S
C1110 C1109 1.398 . S
C1110 C1111 1.391 . S
C1111 H1099 0.950 . S
C1111 C1107 1.393 . S
C1111 C1110 1.391 . S
H1112 C1120 0.950 . S
H1113 C1125 0.950 . S
H1114 C1122 0.950 . S
H1115 C1124 0.950 . S
H1116 C1126 0.950 . S
H1117 C1128 0.950 . S
H1118 C1130 0.950 . S
H1119 C1131 0.950 . S
C1120 H1112 0.950 . S
C1120 C1121 1.386 . S
C1120 C1122 1.391 . S
C1121 C1120 1.386 . S
C1121 C1125 1.393 . S
C1122 H1114 0.950 . S
C1122 C1120 1.391 . S
C1122 C1123 1.400 . S
C1123 C1122 1.400 . S
C1123 C1124 1.398 . S
C1123 C1129 1.491 . S
C1124 H1115 0.950 . S
C1124 C1123 1.398 . S
C1124 C1125 1.391 . S
C1125 H1113 0.950 . S
C1125 C1121 1.393 . S
C1125 C1124 1.391 . S
C1126 H1116 0.950 . S
C1126 C1127 1.386 . S
C1126 C1128 1.391 . S
C1127 C1126 1.386 . S
C1127 C1131 1.393 . S
C1128 H1117 0.950 . S
C1128 C1126 1.391 . S
C1128 C1129 1.400 . S
C1129 C1123 1.491 . S
C1129 C1128 1.400 . S
C1129 C1130 1.398 . S
C1130 H1118 0.950 . S
C1130 C1129 1.398 . S
C1130 C1131 1.391 . S
C1131 H1119 0.950 . S
C1131 C1127 1.393 . S
C1131 C1130 1.391 . S
H1132 C1140 0.950 . S
H1133 C1145 0.950 . S
H1134 C1142 0.950 . S
H1135 C1144 0.950 . S
H1136 C1146 0.950 . S
H1137 C1148 0.950 . S
H1138 C1150 0.950 . S
H1139 C1151 0.950 . S
C1140 H1132 0.950 . S
C1140 C1141 1.386 . S
C1140 C1142 1.391 . S
C1141 C1140 1.386 . S
C1141 C1145 1.393 . S
C1142 H1134 0.950 . S
C1142 C1140 1.391 . S
C1142 C1143 1.400 . S
C1143 C1142 1.400 . S
C1143 C1144 1.398 . S
C1143 C1149 1.491 . S
C1144 H1135 0.950 . S
C1144 C1143 1.398 . S
C1144 C1145 1.391 . S
C1145 H1133 0.950 . S
C1145 C1141 1.393 . S
C1145 C1144 1.391 . S
C1146 H1136 0.950 . S
C1146 C1147 1.386 . S
C1146 C1148 1.391 . S
C1147 C1146 1.386 . S
C1147 C1151 1.393 . S
C1148 H1137 0.950 . S
C1148 C1146 1.391 . S
C1148 C1149 1.400 . S
C1149 C1143 1.491 . S
C1149 C1148 1.400 . S
C1149 C1150 1.398 . S
C1150 H1138 0.950 . S
C1150 C1149 1.398 . S
C1150 C1151 1.391 . S
C1151 H1139 0.950 . S
C1151 C1147 1.393 . S
C1151 C1150 1.391 . S
H1152 C1160 0.950 . S
H1153 C1165 0.950 . S
H1154 C1162 0.950 . S
H1155 C1164 0.950 . S
H1156 C1166 0.950 . S
H1157 C1168 0.950 . S
H1158 C1170 0.950 . S
H1159 C1171 0.950 . S
C1160 H1152 0.950 . S
C1160 C1161 1.386 . S
C1160 C1162 1.391 . S
C1161 C1160 1.386 . S
C1161 C1165 1.393 . S
C1162 H1154 0.950 . S
C1162 C1160 1.391 . S
C1162 C1163 1.400 . S
C1163 C1162 1.400 . S
C1163 C1164 1.398 . S
C1163 C1169 1.491 . S
C1164 H1155 0.950 . S
C1164 C1163 1.398 . S
C1164 C1165 1.391 . S
C1165 H1153 0.950 . S
C1165 C1161 1.393 . S
C1165 C1164 1.391 . S
C1166 H1156 0.950 . S
C1166 C1167 1.386 . S
C1166 C1168 1.391 . S
C1167 C1166 1.386 . S
C1167 C1171 1.393 . S
C1168 H1157 0.950 . S
C1168 C1166 1.391 . S
C1168 C1169 1.400 . S
C1169 C1163 1.491 . S
C1169 C1168 1.400 . S
C1169 C1170 1.398 . S
C1170 H1158 0.950 . S
C1170 C1169 1.398 . S
C1170 C1171 1.391 . S
C1171 H1159 0.950 . S
C1171 C1167 1.393 . S
C1171 C1170 1.391 . S
H1172 C1180 0.950 . S
H1173 C1185 0.950 . S
H1174 C1182 0.950 . S
H1175 C1184 0.950 . S
H1176 C1186 0.950 . S
H1177 C1188 0.950 . S
H1178 C1190 0.950 . S
H1179 C1191 0.950 . S
C1180 H1172 0.950 . S
C1180 C1181 1.386 . S
C1180 C1182 1.391 . S
C1181 C1180 1.386 . S
C1181 C1185 1.393 . S
C1182 H1174 0.950 . S
C1182 C1180 1.391 . S
C1182 C1183 1.400 . S
C1183 C1182 1.400 . S
C1183 C1184 1.398 . S
C1183 C1189 1.491 . S
C1184 H1175 0.950 . S
C1184 C1183 1.398 . S
C1184 C1185 1.391 . S
C1185 H1173 0.950 . S
C1185 C1181 1.393 . S
C1185 C1184 1.391 . S
C1186 H1176 0.950 . S
C1186 C1187 1.386 . S
C1186 C1188 1.391 . S
C1187 C1186 1.386 . S
C1187 C1191 1.393 . S
C1188 H1177 0.950 . S
C1188 C1186 1.391 . S
C1188 C1189 1.400 . S
C1189 C1183 1.491 . S
C1189 C1188 1.400 . S
C1189 C1190 1.398 . S
C1190 H1178 0.950 . S
C1190 C1189 1.398 . S
C1190 C1191 1.391 . S
C1191 H1179 0.950 . S
C1191 C1187 1.393 . S
C1191 C1190 1.391 . S
H1192 C1200 0.950 . S
H1193 C1205 0.950 . S
H1194 C1202 0.950 . S
H1195 C1204 0.950 . S
H1196 C1206 0.950 . S
H1197 C1208 0.950 . S
H1198 C1210 0.950 . S
H1199 C1211 0.950 . S
C1200 H1192 0.950 . S
C1200 C1201 1.386 . S
C1200 C1202 1.391 . S
C1201 C1200 1.386 . S
C1201 C1205 1.393 . S
C1202 H1194 0.950 . S
C1202 C1200 1.391 . S
C1202 C1203 1.400 . S
C1203 C1202 1.400 . S
C1203 C1204 1.398 . S
C1203 C1209 1.491 . S
C1204 H1195 0.950 . S
C1204 C1203 1.398 . S
C1204 C1205 1.391 . S
C1205 H1193 0.950 . S
C1205 C1201 1.393 . S
C1205 C1204 1.391 . S
C1206 H1196 0.950 . S
C1206 C1207 1.386 . S
C1206 C1208 1.391 . S
C1207 C1206 1.386 . S
C1207 C1211 1.393 . S
C1208 H1197 0.950 . S
C1208 C1206 1.391 . S
C1208 C1209 1.400 . S
C1209 C1203 1.491 . S
C1209 C1208 1.400 . S
C1209 C1210 1.398 . S
C1210 H1198 0.950 . S
C1210 C1209 1.398 . S
C1210 C1211 1.391 . S
C1211 H1199 0.950 . S
C1211 C1207 1.393 . S
C1211 C1210 1.391 . S
H1212 C1220 0.950 . S
H1213 C1225 0.950 . S
H1214 C1222 0.950 . S
H1215 C1224 0.950 . S
H1216 C1226 0.950 . S
H1217 C1228 0.950 . S
H1218 C1230 0.950 . S
H1219 C1231 0.950 . S
C1220 H1212 0.950 . S
C1220 C1221 1.386 . S
C1220 C1222 1.391 . S
C1221 C1220 1.386 . S
C1221 C1225 1.393 . S
C1222 H1214 0.950 . S
C1222 C1220 1.391 . S
C1222 C1223 1.400 . S
C1223 C1222 1.400 . S
C1223 C1224 1.398 . S
C1223 C1229 1.491 . S
C1224 H1215 0.950 . S
C1224 C1223 1.398 . S
C1224 C1225 1.391 . S
C1225 H1213 0.950 . S
C1225 C1221 1.393 . S
C1225 C1224 1.391 . S
C1226 H1216 0.950 . S
C1226 C1227 1.386 . S
C1226 C1228 1.391 . S
C1227 C1226 1.386 . S
C1227 C1231 1.393 . S
C1228 H1217 0.950 . S
C1228 C1226 1.391 . S
C1228 C1229 1.400 . S
C1229 C1223 1.491 . S
C1229 C1228 1.400 . S
C1229 C1230 1.398 . S
C1230 H1218 0.950 . S
C1230 C1229 1.398 . S
C1230 C1231 1.391 . S
C1231 H1219 0.950 . S
C1231 C1227 1.393 . S
C1231 C1230 1.391 . S
H1232 C1240 0.950 . S
H1233 C1245 0.950 . S
H1234 C1242 0.950 . S
H1235 C1244 0.950 . S
H1236 C1246 0.950 . S
H1237 C1248 0.950 . S
H1238 C1250 0.950 . S
H1239 C1251 0.950 . S
C1240 H1232 0.950 . S
C1240 C1241 1.386 . S
C1240 C1242 1.391 . S
C1241 C1240 1.386 . S
C1241 C1245 1.393 . S
C1242 H1234 0.950 . S
C1242 C1240 1.391 . S
C1242 C1243 1.400 . S
C1243 C1242 1.400 . S
C1243 C1244 1.398 . S
C1243 C1249 1.491 . S
C1244 H1235 0.950 . S
C1244 C1243 1.398 . S
C1244 C1245 1.391 . S
C1245 H1233 0.950 . S
C1245 C1241 1.393 . S
C1245 C1244 1.391 . S
C1246 H1236 0.950 . S
C1246 C1247 1.386 . S
C1246 C1248 1.391 . S
C1247 C1246 1.386 . S
C1247 C1251 1.393 . S
C1248 H1237 0.950 . S
C1248 C1246 1.391 . S
C1248 C1249 1.400 . S
C1249 C1243 1.491 . S
C1249 C1248 1.400 . S
C1249 C1250 1.398 . S
C1250 H1238 0.950 . S
C1250 C1249 1.398 . S
C1250 C1251 1.391 . S
C1251 H1239 0.950 . S
C1251 C1247 1.393 . S
C1251 C1250 1.391 . S
H1252 C1260 0.950 . S
H1253 C1265 0.950 . S
H1254 C1262 0.950 . S
H1255 C1264 0.950 . S
H1256 C1266 0.950 . S
H1257 C1268 0.950 . S
H1258 C1270 0.950 . S
H1259 C1271 0.950 . S
C1260 H1252 0.950 . S
C1260 C1261 1.386 . S
C1260 C1262 1.391 . S
C1261 C1260 1.386 . S
C1261 C1265 1.393 . S
C1262 H1254 0.950 . S
C1262 C1260 1.391 . S
C1262 C1263 1.400 . S
C1263 C1262 1.400 . S
C1263 C1264 1.398 . S
C1263 C1269 1.491 . S
C1264 H1255 0.950 . S
C1264 C1263 1.398 . S
C1264 C1265 1.391 . S
C1265 H1253 0.950 . S
C1265 C1261 1.393 . S
C1265 C1264 1.391 . S
C1266 H1256 0.950 . S
C1266 C1267 1.386 . S
C1266 C1268 1.391 . S
C1267 C1266 1.386 . S
C1267 C1271 1.393 . S
C1268 H1257 0.950 . S
C1268 C1266 1.391 . S
C1268 C1269 1.400 . S
C1269 C1263 1.491 . S
C1269 C1268 1.400 . S
C1269 C1270 1.398 . S
C1270 H1258 0.950 . S
C1270 C1269 1.398 . S
C1270 C1271 1.391 . S
C1271 H1259 0.950 . S
C1271 C1267 1.393 . S
C1271 C1270 1.391 . S
H1272 C1280 0.950 . S
H1273 C1285 0.950 . S
H1274 C1282 0.950 . S
H1275 C1284 0.950 . S
H1276 C1286 0.950 . S
H1277 C1288 0.950 . S
H1278 C1290 0.950 . S
H1279 C1291 0.950 . S
C1280 H1272 0.950 . S
C1280 C1281 1.386 . S
C1280 C1282 1.391 . S
C1281 C1280 1.386 . S
C1281 C1285 1.393 . S
C1282 H1274 0.950 . S
C1282 C1280 1.391 . S
C1282 C1283 1.400 . S
C1283 C1282 1.400 . S
C1283 C1284 1.398 . S
C1283 C1289 1.491 . S
C1284 H1275 0.950 . S
C1284 C1283 1.398 . S
C1284 C1285 1.391 . S
C1285 H1273 0.950 . S
C1285 C1281 1.393 . S
C1285 C1284 1.391 . S
C1286 H1276 0.950 . S
C1286 C1287 1.386 . S
C1286 C1288 1.391 . S
C1287 C1286 1.386 . S
C1287 C1291 1.393 . S
C1288 H1277 0.950 . S
C1288 C1286 1.391 . S
C1288 C1289 1.400 . S
C1289 C1283 1.491 . S
C1289 C1288 1.400 . S
C1289 C1290 1.398 . S
C1290 H1278 0.950 . S
C1290 C1289 1.398 . S
C1290 C1291 1.391 . S
C1291 H1279 0.950 . S
C1291 C1287 1.393 . S
C1291 C1290 1.391 . S
H1292 C1300 0.950 . S
H1293 C1305 0.950 . S
H1294 C1302 0.950 . S
H1295 C1304 0.950 . S
H1296 C1306 0.950 . S
H1297 C1308 0.950 . S
H1298 C1310 0.950 . S
H1299 C1311 0.950 . S
C1300 H1292 0.950 . S
C1300 C1301 1.386 . S
C1300 C1302 1.391 . S
C1301 C1300 1.386 . S
C1301 C1305 1.393 . S
C1302 H1294 0.950 . S
C1302 C1300 1.391 . S
C1302 C1303 1.400 . S
C1303 C1302 1.400 . S
C1303 C1304 1.398 . S
C1303 C1309 1.491 . S
C1304 H1295 0.950 . S
C1304 C1303 1.398 . S
C1304 C1305 1.391 . S
C1305 H1293 0.950 . S
C1305 C1301 1.393 . S
C1305 C1304 1.391 . S
C1306 H1296 0.950 . S
C1306 C1307 1.386 . S
C1306 C1308 1.391 . S
C1307 C1306 1.386 . S
C1307 C1311 1.393 . S
C1308 H1297 0.950 . S
C1308 C1306 1.391 . S
C1308 C1309 1.400 . S
C1309 C1303 1.491 . S
C1309 C1308 1.400 . S
C1309 C1310 1.398 . S
C1310 H1298 0.950 . S
C1310 C1309 1.398 . S
C1310 C1311 1.391 . S
C1311 H1299 0.950 . S
C1311 C1307 1.393 . S
C1311 C1310 1.391 . S
H1312 C1320 0.950 . S
H1313 C1325 0.950 . S
H1314 C1322 0.950 . S
H1315 C1324 0.950 . S
H1316 C1326 0.950 . S
H1317 C1328 0.950 . S
H1318 C1330 0.950 . S
H1319 C1331 0.950 . S
C1320 H1312 0.950 . S
C1320 C1321 1.386 . S
C1320 C1322 1.391 . S
C1321 C1320 1.386 . S
C1321 C1325 1.393 . S
C1322 H1314 0.950 . S
C1322 C1320 1.391 . S
C1322 C1323 1.400 . S
C1323 C1322 1.400 . S
C1323 C1324 1.398 . S
C1323 C1329 1.491 . S
C1324 H1315 0.950 . S
C1324 C1323 1.398 . S
C1324 C1325 1.391 . S
C1325 H1313 0.950 . S
C1325 C1321 1.393 . S
C1325 C1324 1.391 . S
C1326 H1316 0.950 . S
C1326 C1327 1.386 . S
C1326 C1328 1.391 . S
C1327 C1326 1.386 . S
C1327 C1331 1.393 . S
C1328 H1317 0.950 . S
C1328 C1326 1.391 . S
C1328 C1329 1.400 . S
C1329 C1323 1.491 . S
C1329 C1328 1.400 . S
C1329 C1330 1.398 . S
C1330 H1318 0.950 . S
C1330 C1329 1.398 . S
C1330 C1331 1.391 . S
C1331 H1319 0.950 . S
C1331 C1327 1.393 . S
C1331 C1330 1.391 . S
H1332 C1340 0.950 . S
H1333 C1345 0.950 . S
H1334 C1342 0.950 . S
H1335 C1344 0.950 . S
H1336 C1346 0.950 . S
H1337 C1348 0.950 . S
H1338 C1350 0.950 . S
H1339 C1351 0.950 . S
C1340 H1332 0.950 . S
C1340 C1341 1.386 . S
C1340 C1342 1.391 . S
C1341 C1340 1.386 . S
C1341 C1345 1.393 . S
C1342 H1334 0.950 . S
C1342 C1340 1.391 . S
C1342 C1343 1.400 . S
C1343 C1342 1.400 . S
C1343 C1344 1.398 . S
C1343 C1349 1.491 . S
C1344 H1335 0.950 . S
C1344 C1343 1.398 . S
C1344 C1345 1.391 . S
C1345 H1333 0.950 . S
C1345 C1341 1.393 . S
C1345 C1344 1.391 . S
C1346 H1336 0.950 . S
C1346 C1347 1.386 . S
C1346 C1348 1.391 . S
C1347 C1346 1.386 . S
C1347 C1351 1.393 . S
C1348 H1337 0.950 . S
C1348 C1346 1.391 . S
C1348 C1349 1.400 . S
C1349 C1343 1.491 . S
C1349 C1348 1.400 . S
C1349 C1350 1.398 . S
C1350 H1338 0.950 . S
C1350 C1349 1.398 . S
C1350 C1351 1.391 . S
C1351 H1339 0.950 . S
C1351 C1347 1.393 . S
C1351 C1350 1.391 . S
H1352 C1360 0.950 . S
H1353 C1365 0.950 . S
H1354 C1362 0.950 . S
H1355 C1364 0.950 . S
H1356 C1366 0.950 . S
H1357 C1368 0.950 . S
H1358 C1370 0.950 . S
H1359 C1371 0.950 . S
C1360 H1352 0.950 . S
C1360 C1361 1.386 . S
C1360 C1362 1.391 . S
C1361 C1360 1.386 . S
C1361 C1365 1.393 . S
C1362 H1354 0.950 . S
C1362 C1360 1.391 . S
C1362 C1363 1.400 . S
C1363 C1362 1.400 . S
C1363 C1364 1.398 . S
C1363 C1369 1.491 . S
C1364 H1355 0.950 . S
C1364 C1363 1.398 . S
C1364 C1365 1.391 . S
C1365 H1353 0.950 . S
C1365 C1361 1.393 . S
C1365 C1364 1.391 . S
C1366 H1356 0.950 . S
C1366 C1367 1.386 . S
C1366 C1368 1.391 . S
C1367 C1366 1.386 . S
C1367 C1371 1.393 . S
C1368 H1357 0.950 . S
C1368 C1366 1.391 . S
C1368 C1369 1.400 . S
C1369 C1363 1.491 . S
C1369 C1368 1.400 . S
C1369 C1370 1.398 . S
C1370 H1358 0.950 . S
C1370 C1369 1.398 . S
C1370 C1371 1.391 . S
C1371 H1359 0.950 . S
C1371 C1367 1.393 . S
C1371 C1370 1.391 . S
H1372 C1380 0.950 . S
H1373 C1385 0.950 . S
H1374 C1382 0.950 . S
H1375 C1384 0.950 . S
H1376 C1386 0.950 . S
H1377 C1388 0.950 . S
H1378 C1390 0.950 . S
H1379 C1391 0.950 . S
C1380 H1372 0.950 . S
C1380 C1381 1.386 . S
C1380 C1382 1.391 . S
C1381 C1380 1.386 . S
C1381 C1385 1.393 . S
C1382 H1374 0.950 . S
C1382 C1380 1.391 . S
C1382 C1383 1.400 . S
C1383 C1382 1.400 . S
C1383 C1384 1.398 . S
C1383 C1389 1.491 . S
C1384 H1375 0.950 . S
C1384 C1383 1.398 . S
C1384 C1385 1.391 . S
C1385 H1373 0.950 . S
C1385 C1381 1.393 . S
C1385 C1384 1.391 . S
C1386 H1376 0.950 . S
C1386 C1387 1.386 . S
C1386 C1388 1.391 . S
C1387 C1386 1.386 . S
C1387 C1391 1.393 . S
C1388 H1377 0.950 . S
C1388 C1386 1.391 . S
C1388 C1389 1.400 . S
C1389 C1383 1.491 . S
C1389 C1388 1.400 . S
C1389 C1390 1.398 . S
C1390 H1378 0.950 . S
C1390 C1389 1.398 . S
C1390 C1391 1.391 . S
C1391 H1379 0.950 . S
C1391 C1387 1.393 . S
C1391 C1390 1.391 . S
H1392 C1400 0.950 . S
H1393 C1405 0.950 . S
H1394 C1402 0.950 . S
H1395 C1404 0.950 . S
H1396 C1406 0.950 . S
H1397 C1408 0.950 . S
H1398 C1410 0.950 . S
H1399 C1411 0.950 . S
C1400 H1392 0.950 . S
C1400 C1401 1.386 . S
C1400 C1402 1.391 . S
C1401 C1400 1.386 . S
C1401 C1405 1.393 . S
C1402 H1394 0.950 . S
C1402 C1400 1.391 . S
C1402 C1403 1.400 . S
C1403 C1402 1.400 . S
C1403 C1404 1.398 . S
C1403 C1409 1.491 . S
C1404 H1395 0.950 . S
C1404 C1403 1.398 . S
C1404 C1405 1.391 . S
C1405 H1393 0.950 . S
C1405 C1401 1.393 . S
C1405 C1404 1.391 . S
C1406 H1396 0.950 . S
C1406 C1407 1.386 . S
C1406 C1408 1.391 . S
C1407 C1406 1.386 . S
C1407 C1411 1.393 . S
C1408 H1397 0.950 . S
C1408 C1406 1.391 . S
C1408 C1409 1.400 . S
C1409 C1403 1.491 . S
C1409 C1408 1.400 . S
C1409 C1410 1.398 . S
C1410 H1398 0.950 . S
C1410 C1409 1.398 . S
C1410 C1411 1.391 . S
C1411 H1399 0.950 . S
C1411 C1407 1.393 . S
C1411 C1410 1.391 . S
H1412 C1420 0.950 . S
H1413 C1425 0.950 . S
H1414 C1422 0.950 . S
H1415 C1424 0.950 . S
H1416 C1426 0.950 . S
H1417 C1428 0.950 . S
H1418 C1430 0.950 . S
H1419 C1431 0.950 . S
C1420 H1412 0.950 . S
C1420 C1421 1.386 . S
C1420 C1422 1.391 . S
C1421 C1420 1.386 . S
C1421 C1425 1.393 . S
C1422 H1414 0.950 . S
C1422 C1420 1.391 . S
C1422 C1423 1.400 . S
C1423 C1422 1.400 . S
C1423 C1424 1.398 . S
C1423 C1429 1.491 . S
C1424 H1415 0.950 . S
C1424 C1423 1.398 . S
C1424 C1425 1.391 . S
C1425 H1413 0.950 . S
C1425 C1421 1.393 . S
C1425 C1424 1.391 . S
C1426 H1416 0.950 . S
C1426 C1427 1.386 . S
C1426 C1428 1.391 . S
C1427 C1426 1.386 . S
C1427 C1431 1.393 . S
C1428 H1417 0.950 . S
C1428 C1426 1.391 . S
C1428 C1429 1.400 . S
C1429 C1423 1.491 . S
C1429 C1428 1.400 . S
C1429 C1430 1.398 . S
C1430 H1418 0.950 . S
C1430 C1429 1.398 . S
C1430 C1431 1.391 . S
C1431 H1419 0.950 . S
C1431 C1427 1.393 . S
C1431 C1430 1.391 . S
H1432 C1440 0.950 . S
H1433 C1445 0.950 . S
H1434 C1442 0.950 . S
H1435 C1444 0.950 . S
H1436 C1446 0.950 . S
H1437 C1448 0.950 . S
H1438 C1450 0.950 . S
H1439 C1451 0.950 . S
C1440 H1432 0.950 . S
C1440 C1441 1.386 . S
C1440 C1442 1.391 . S
C1441 C1440 1.386 . S
C1441 C1445 1.393 . S
C1442 H1434 0.950 . S
C1442 C1440 1.391 . S
C1442 C1443 1.400 . S
C1443 C1442 1.400 . S
C1443 C1444 1.398 . S
C1443 C1449 1.491 . S
C1444 H1435 0.950 . S
C1444 C1443 1.398 . S
C1444 C1445 1.391 . S
C1445 H1433 0.950 . S
C1445 C1441 1.393 . S
C1445 C1444 1.391 . S
C1446 H1436 0.950 . S
C1446 C1447 1.386 . S
C1446 C1448 1.391 . S
C1447 C1446 1.386 . S
C1447 C1451 1.393 . S
C1448 H1437 0.950 . S
C1448 C1446 1.391 . S
C1448 C1449 1.400 . S
C1449 C1443 1.491 . S
C1449 C1448 1.400 . S
C1449 C1450 1.398 . S
C1450 H1438 0.950 . S
C1450 C1449 1.398 . S
C1450 C1451 1.391 . S
C1451 H1439 0.950 . S
C1451 C1447 1.393 . S
C1451 C1450 1.391 . S
H1452 C1460 0.950 . S
H1453 C1465 0.950 . S
H1454 C1462 0.950 . S
H1455 C1464 0.950 . S
H1456 C1466 0.950 . S
H1457 C1468 0.950 . S
H1458 C1470 0.950 . S
H1459 C1471 0.950 . S
C1460 H1452 0.950 . S
C1460 C1461 1.386 . S
C1460 C1462 1.391 . S
C1461 C1460 1.386 . S
C1461 C1465 1.393 . S
C1462 H1454 0.950 . S
C1462 C1460 1.391 . S
C1462 C1463 1.400 . S
C1463 C1462 1.400 . S
C1463 C1464 1.398 . S
C1463 C1469 1.491 . S
C1464 H1455 0.950 . S
C1464 C1463 1.398 . S
C1464 C1465 1.391 . S
C1465 H1453 0.950 . S
C1465 C1461 1.393 . S
C1465 C1464 1.391 . S
C1466 H1456 0.950 . S
C1466 C1467 1.386 . S
C1466 C1468 1.391 . S
C1467 C1466 1.386 . S
C1467 C1471 1.393 . S
C1468 H1457 0.950 . S
C1468 C1466 1.391 . S
C1468 C1469 1.400 . S
C1469 C1463 1.491 . S
C1469 C1468 1.400 . S
C1469 C1470 1.398 . S
C1470 H1458 0.950 . S
C1470 C1469 1.398 . S
C1470 C1471 1.391 . S
C1471 H1459 0.950 . S
C1471 C1467 1.393 . S
C1471 C1470 1.391 . S
H1472 C1480 0.950 . S
H1473 C1485 0.950 . S
H1474 C1482 0.950 . S
H1475 C1484 0.950 . S
H1476 C1486 0.950 . S
H1477 C1488 0.950 . S
H1478 C1490 0.950 . S
H1479 C1491 0.950 . S
C1480 H1472 0.950 . S
C1480 C1481 1.386 . S
C1480 C1482 1.391 . S
C1481 C1480 1.386 . S
C1481 C1485 1.393 . S
C1482 H1474 0.950 . S
C1482 C1480 1.391 . S
C1482 C1483 1.400 . S
C1483 C1482 1.400 . S
C1483 C1484 1.398 . S
C1483 C1489 1.491 . S
C1484 H1475 0.950 . S
C1484 C1483 1.398 . S
C1484 C1485 1.391 . S
C1485 H1473 0.950 . S
C1485 C1481 1.393 . S
C1485 C1484 1.391 . S
C1486 H1476 0.950 . S
C1486 C1487 1.386 . S
C1486 C1488 1.391 . S
C1487 C1486 1.386 . S
C1487 C1491 1.393 . S
C1488 H1477 0.950 . S
C1488 C1486 1.391 . S
C1488 C1489 1.400 . S
C1489 C1483 1.491 . S
C1489 C1488 1.400 . S
C1489 C1490 1.398 . S
C1490 H1478 0.950 . S
C1490 C1489 1.398 . S
C1490 C1491 1.391 . S
C1491 H1479 0.950 . S
C1491 C1487 1.393 . S
C1491 C1490 1.391 . S
H1492 C1500 0.950 . S
H1493 C1505 0.950 . S
H1494 C1502 0.950 . S
H1495 C1504 0.950 . S
H1496 C1506 0.950 . S
H1497 C1508 0.950 . S
H1498 C1510 0.950 . S
H1499 C1511 0.950 . S
C1500 H1492 0.950 . S
C1500 C1501 1.386 . S
C1500 C1502 1.391 . S
C1501 C1500 1.386 . S
C1501 C1505 1.393 . S
C1502 H1494 0.950 . S
C1502 C1500 1.391 . S
C1502 C1503 1.400 . S
C1503 C1502 1.400 . S
C1503 C1504 1.398 . S
C1503 C1509 1.491 . S
C1504 H1495 0.950 . S
C1504 C1503 1.398 . S
C1504 C1505 1.391 . S
C1505 H1493 0.950 . S
C1505 C1501 1.393 . S
C1505 C1504 1.391 . S
C1506 H1496 0.950 . S
C1506 C1507 1.386 . S
C1506 C1508 1.391 . S
C1507 C1506 1.386 . S
C1507 C1511 1.393 . S
C1508 H1497 0.950 . S
C1508 C1506 1.391 . S
C1508 C1509 1.400 . S
C1509 C1503 1.491 . S
C1509 C1508 1.400 . S
C1509 C1510 1.398 . S
C1510 H1498 0.950 . S
C1510 C1509 1.398 . S
C1510 C1511 1.391 . S
C1511 H1499 0.950 . S
C1511 C1507 1.393 . S
C1511 C1510 1.391 . S
C561 N518 1.161 . S
C567 N12 1.192 . S
C581 C39 1.658 . S
C587 C536 1.663 . S
C601 N472 1.192 . S
C607 N58 1.212 . S
C621 C490 1.755 . S
C627 C76 1.752 . S
C641 C499 1.606 . S
C647 N104 1.541 . S
C661 N117 1.293 . S
C667 N508 1.287 . S
C681 C545 1.506 . S
C687 N150 1.456 . S
C701 C177 1.299 . S
C707 N462 1.298 . S
C721 C191 1.303 . S
C727 N439 1.301 . S
C741 C384 1.823 . S
C747 C223 1.820 . S
C761 N232 1.150 . S
C767 N393 1.143 . S
C781 N426 1.567 . S
C787 C269 1.630 . S
C801 C260 1.625 . S
C807 N301 1.607 . S
C821 C200 1.433 . S
C827 N334 1.388 . S
C841 C361 1.661 . S
C847 C214 1.654 . S
C861 N242 1.180 . S
C867 N288 1.186 . S
C881 C30 1.612 . S
C887 N416 1.577 . S
C901 N324 1.493 . S
C907 C168 1.508 . S
C921 N94 1.550 . S
C927 C352 1.571 . S
C941 N278 1.345 . S
C947 N127 1.289 . S
C961 N140 1.417 . S
C967 N311 1.382 . S
C981 C85 1.846 . S
C987 C375 1.847 . S
C1001 N2 1.177 . S
C1007 N403 1.144 . S
C1021 N48 1.286 . S
C1027 N449 1.249 . S
C1041 C145 2.002 . S
C1047 C467 2.003 . S
C1061 N495 1.400 . S
C1067 N163 1.387 . S
C1081 C513 1.897 . S
C1087 C99 1.894 . S
C1101 N541 1.331 . S
C1107 C131 1.355 . S
C1121 C53 1.496 . S
C1127 N531 1.467 . S
C1141 N81 1.778 . S
C1147 C476 1.795 . S
C1161 C7 1.604 . S
C1167 N485 1.566 . S
C1181 C522 1.617 . S
C1187 N25 1.590 . S
C1201 C246 1.740 . S
C1207 C315 1.735 . S
C1221 N255 1.349 . S
C1227 C329 1.390 . S
C1241 N196 1.717 . S
C1247 N347 1.700 . S
C1261 N209 1.354 . S
C1267 C283 1.409 . S
C1281 N219 1.570 . S
C1287 C453 1.586 . S
C1301 N370 1.596 . S
C1307 C237 1.637 . S
C1321 N265 1.367 . S
C1327 C407 1.384 . S
C1341 N186 1.664 . S
C1347 C421 1.730 . S
C1361 C292 1.269 . S
C1367 N173 1.251 . S
C1381 N380 1.514 . S
C1387 N35 1.515 . S
C1401 C62 1.498 . S
C1407 C398 1.499 . S
C1421 C430 1.762 . S
C1427 N71 1.719 . S
C1441 C444 1.645 . S
C1447 C16 1.634 . S
C1461 C122 1.347 . S
C1467 C338 1.333 . S
C1481 N357 1.889 . S
C1487 C154 1.902 . S
C1501 C306 1.972 . S
C1507 C108 1.963 . S
