# Generated by pormake.
# Topology umx, (4)-cn, num edge types: 1
# Building blocks:
#     Node 0, Type 0, BuildingBlock: MUDLON_clean_sbu_0, # of connection points: 4
#     Node 1, Type 0, BuildingBlock: MUDLON_clean_sbu_0, # of connection points: 4
#     Node 2, Type 0, BuildingBlock: MUDLON_clean_sbu_0, # of connection points: 4
#     Node 3, Type 0, BuildingBlock: MUDLON_clean_sbu_0, # of connection points: 4
#     Node 4, Type 0, BuildingBlock: MUDLON_clean_sbu_0, # of connection points: 4
#     Node 5, Type 0, BuildingBlock: MUDLON_clean_sbu_0, # of connection points: 4
#     Node 6, Type 0, BuildingBlock: MUDLON_clean_sbu_0, # of connection points: 4
#     Node 7, Type 0, BuildingBlock: MUDLON_clean_sbu_0, # of connection points: 4
#     Edge 8, Type (0, 0), BuildingBlock: UVAHIK_clean_linker_0, # of connection points: 2
#     Edge 9, Type (0, 0), BuildingBlock: UVAHIK_clean_linker_0, # of connection points: 2
#     Edge 10, Type (0, 0), BuildingBlock: UVAHIK_clean_linker_0, # of connection points: 2
#     Edge 11, Type (0, 0), BuildingBlock: UVAHIK_clean_linker_0, # of connection points: 2
#     Edge 12, Type (0, 0), BuildingBlock: UVAHIK_clean_linker_0, # of connection points: 2
#     Edge 13, Type (0, 0), BuildingBlock: UVAHIK_clean_linker_0, # of connection points: 2
#     Edge 14, Type (0, 0), BuildingBlock: UVAHIK_clean_linker_0, # of connection points: 2
#     Edge 15, Type (0, 0), BuildingBlock: UVAHIK_clean_linker_0, # of connection points: 2
#     Edge 16, Type (0, 0), BuildingBlock: UVAHIK_clean_linker_0, # of connection points: 2
#     Edge 17, Type (0, 0), BuildingBlock: UVAHIK_clean_linker_0, # of connection points: 2
#     Edge 18, Type (0, 0), BuildingBlock: UVAHIK_clean_linker_0, # of connection points: 2
#     Edge 19, Type (0, 0), BuildingBlock: UVAHIK_clean_linker_0, # of connection points: 2
#     Edge 20, Type (0, 0), BuildingBlock: UVAHIK_clean_linker_0, # of connection points: 2
#     Edge 21, Type (0, 0), BuildingBlock: UVAHIK_clean_linker_0, # of connection points: 2
#     Edge 22, Type (0, 0), BuildingBlock: UVAHIK_clean_linker_0, # of connection points: 2
#     Edge 23, Type (0, 0), BuildingBlock: UVAHIK_clean_linker_0, # of connection points: 2
# Relax obj value: 0.023
# Max RMSD: 0.223
# Mean RMSD: 0.222
data_MOF--net-umx--node1-MUDLON_clean_sbu_0--edge1-UVAHIK_clean_linker_0
_symmetry_space_group_name_H-M    P1
_symmetry_Int_Tables_number       1
_symmetry_cell_setting            triclinic
loop_
_symmetry_equiv_pos_as_xyz
'x, y, z'
_cell_length_a     51.99467
_cell_length_b     52.075338
_cell_length_c     38.851156
_cell_angle_alpha  90.588651
_cell_angle_beta   90.301622
_cell_angle_gamma 89.882479
loop_
_atom_site_label
_atom_site_type_symbol
_atom_site_fract_x
_atom_site_fract_y
_atom_site_fract_z
_atom_type_partial_charge
Mg0 Mg 0.18357 0.45919 1.00927 0.0
C1 C 0.13168 0.48045 0.99535 0.0
O2 O 0.14654 0.49579 0.9777 0.0
C3 C 0.21946 0.41703 0.99313 0.0
O4 O 0.23002 0.43704 0.97856 0.0
C5 C 0.2053 0.46362 0.08041 0.0
O6 O 0.20598 0.4387 0.07502 0.0
O7 O 0.19791 0.47809 0.05602 0.0
O8 O 0.14187 0.46193 1.01164 0.0
O9 O 0.19484 0.47538 0.95991 0.0
C10 C 0.18703 0.46183 0.93446 0.0
O11 O 0.17362 0.44105 0.94075 0.0
O12 O 0.19821 0.41995 1.00876 0.0
Mg13 Mg 0.54212 0.18788 0.53149 0.0
C14 C 0.53726 0.19273 0.45692 0.0
O15 O 0.56013 0.1826 0.46197 0.0
C16 C 0.53793 0.20904 0.60314 0.0
O17 O 0.56265 0.21142 0.59723 0.0
C18 C 0.58132 0.22704 0.51748 0.0
O19 O 0.56001 0.23751 0.50585 0.0
O20 O 0.5803 0.20464 0.53009 0.0
O21 O 0.52339 0.19782 0.48305 0.0
O22 O 0.54264 0.14636 0.53237 0.0
C23 C 0.52046 0.13614 0.53194 0.0
O24 O 0.50014 0.15119 0.53146 0.0
O25 O 0.52344 0.20059 0.57904 0.0
Mg26 Mg 0.81037 0.54049 0.04696 0.0
C27 C 0.86445 0.54918 0.02157 0.0
O28 O 0.85202 0.55375 0.99274 0.0
C29 C 0.7973 0.59875 0.03814 0.0
O30 O 0.82162 0.60234 0.03061 0.0
C31 C 0.8 0.53851 0.1206 0.0
O32 O 0.80585 0.56258 0.1146 0.0
O33 O 0.79974 0.5227 0.09537 0.0
O34 O 0.85172 0.54474 0.04868 0.0
O35 O 0.80179 0.51925 0.99949 0.0
C36 C 0.78801 0.52994 0.97651 0.0
O37 O 0.77705 0.55208 0.98367 0.0
O38 O 0.78941 0.57641 0.04551 0.0
Mg39 Mg 0.46298 0.81025 0.52716 0.0
C40 C 0.4678 0.78629 0.45682 0.0
O41 O 0.44356 0.78159 0.46364 0.0
C42 C 0.46998 0.8114 0.60155 0.0
O43 O 0.44993 0.82608 0.59536 0.0
C44 C 0.42135 0.77455 0.54735 0.0
O45 O 0.44104 0.76581 0.56503 0.0
O46 O 0.4244 0.79426 0.52877 0.0
O47 O 0.48171 0.79691 0.47998 0.0
O48 O 0.4629 0.85175 0.52495 0.0
C49 C 0.48516 0.8618 0.5248 0.0
O50 O 0.50537 0.84661 0.52547 0.0
O51 O 0.48149 0.80107 0.57606 0.0
Mg52 Mg 0.19017 0.54344 0.51085 0.0
C53 C 0.19276 0.54074 0.43614 0.0
O54 O 0.18167 0.56283 0.44341 0.0
C55 C 0.21137 0.53736 0.58183 0.0
O56 O 0.21323 0.56226 0.57749 0.0
C57 C 0.22967 0.58225 0.49859 0.0
O58 O 0.23966 0.56097 0.486 0.0
O59 O 0.20718 0.58148 0.5112 0.0
O60 O 0.19935 0.52632 0.46095 0.0
O61 O 0.14865 0.54349 0.51403 0.0
C62 C 0.13897 0.52109 0.51304 0.0
O63 O 0.15451 0.50127 0.51008 0.0
O64 O 0.2035 0.52345 0.55677 0.0
Mg65 Mg 0.45284 0.18748 0.02911 0.0
C66 C 0.45555 0.19704 0.1035 0.0
O67 O 0.43171 0.18976 0.09778 0.0
C68 C 0.45732 0.19404 0.95532 0.0
O69 O 0.43516 0.18258 0.96019 0.0
C70 C 0.41452 0.22803 0.03746 0.0
O71 O 0.43634 0.23883 0.04673 0.0
O72 O 0.41473 0.20453 0.02828 0.0
O73 O 0.47074 0.19859 0.07799 0.0
O74 O 0.45307 0.14594 0.028 0.0
C75 C 0.47556 0.13637 0.02935 0.0
O76 O 0.49532 0.15203 0.03114 0.0
O77 O 0.47107 0.19957 0.98158 0.0
Mg78 Mg 0.81541 0.45417 0.54466 0.0
C79 C 0.86637 0.4771 0.54025 0.0
O80 O 0.85075 0.49685 0.54346 0.0
C81 C 0.77931 0.41312 0.56465 0.0
O82 O 0.77097 0.43294 0.58258 0.0
C83 C 0.79897 0.45726 0.47243 0.0
O84 O 0.8047 0.43291 0.47667 0.0
O85 O 0.80065 0.4724 0.4983 0.0
O86 O 0.85684 0.45464 0.53981 0.0
O87 O 0.80716 0.4724 0.59418 0.0
C88 C 0.8185 0.46108 0.6189 0.0
O89 O 0.83351 0.44144 0.61159 0.0
O90 O 0.79916 0.41578 0.54607 0.0
Mg91 Mg 0.54622 0.8128 0.02863 0.0
C92 C 0.54195 0.80835 0.10298 0.0
O93 O 0.56318 0.82135 0.09768 0.0
C94 C 0.5416 0.78967 0.95751 0.0
O95 O 0.56596 0.78518 0.96424 0.0
C96 C 0.58617 0.77419 0.03854 0.0
O97 O 0.56462 0.76244 0.04614 0.0
O98 O 0.58513 0.79765 0.02993 0.0
O99 O 0.52872 0.8012 0.07694 0.0
O100 O 0.54465 0.8543 0.02826 0.0
C101 C 0.52201 0.86351 0.02678 0.0
O102 O 0.50247 0.84756 0.02551 0.0
O103 O 0.52768 0.7999 0.98082 0.0
C104 C 0.21816 0.45743 0.14193 0.0
C105 C 0.20975 0.47392 0.11569 0.0
C106 C 0.21935 0.46594 0.17612 0.0
C107 C 0.18981 0.51384 0.23375 0.0
H108 H 0.24263 0.49218 0.29815 0.0
C109 C 0.19158 0.55098 0.37351 0.0
C110 C 0.19726 0.53337 0.39969 0.0
C111 C 0.19499 0.54434 0.33896 0.0
C112 C 0.2276 0.49817 0.28055 0.0
H113 H 0.19715 0.5127 0.10468 0.0
H114 H 0.19945 0.52767 0.16445 0.0
H115 H 0.24624 0.4805 0.23728 0.0
H116 H 0.21139 0.49502 0.41001 0.0
H117 H 0.21705 0.4832 0.34933 0.0
H118 H 0.17096 0.53118 0.27688 0.0
C119 C 0.20476 0.50799 0.15856 0.0
C120 C 0.2297 0.49155 0.24565 0.0
C121 C 0.20363 0.49949 0.12426 0.0
C122 C 0.20684 0.50901 0.39046 0.0
C123 C 0.2102 0.50231 0.3557 0.0
C124 C 0.18769 0.52041 0.26857 0.0
C125 C 0.21212 0.49115 0.18499 0.0
C126 C 0.21079 0.49927 0.22182 0.0
C127 C 0.20407 0.51985 0.32952 0.0
C128 C 0.20653 0.51267 0.29245 0.0
H129 H 0.22309 0.43762 0.13626 0.0
H130 H 0.2249 0.45239 0.19578 0.0
H131 H 0.17461 0.51963 0.2163 0.0
H132 H 0.1844 0.57001 0.37963 0.0
H133 H 0.19056 0.55851 0.31958 0.0
C134 C 0.50317 0.20563 0.64774 0.0
C135 C 0.52808 0.21332 0.63852 0.0
C136 C 0.49521 0.20712 0.68212 0.0
C137 C 0.52221 0.20821 0.7703 0.0
H138 H 0.45255 0.2259 0.79658 0.0
C139 C 0.4898 0.21081 0.91308 0.0
C140 C 0.46575 0.19968 0.91975 0.0
C141 C 0.49754 0.21528 0.87912 0.0
C142 C 0.47205 0.22075 0.78966 0.0
H143 H 0.56366 0.22982 0.65797 0.0
H144 H 0.54968 0.23271 0.71754 0.0
H145 H 0.46528 0.22878 0.73639 0.0
H146 H 0.43091 0.18479 0.89589 0.0
H147 H 0.44445 0.19226 0.83723 0.0
H148 H 0.52889 0.19975 0.82342 0.0
C149 C 0.53647 0.22501 0.69843 0.0
C150 C 0.47933 0.22239 0.75513 0.0
C151 C 0.54442 0.22349 0.66418 0.0
C152 C 0.44956 0.19344 0.8918 0.0
C153 C 0.45724 0.19791 0.85803 0.0
C154 C 0.51493 0.20654 0.80482 0.0
C155 C 0.51197 0.21636 0.70799 0.0
C156 C 0.50444 0.2159 0.74495 0.0
C157 C 0.48135 0.2088 0.85117 0.0
C158 C 0.48967 0.21248 0.81489 0.0
H159 H 0.49012 0.19765 0.62864 0.0
H160 H 0.47626 0.20012 0.68859 0.0
H161 H 0.54161 0.20269 0.76335 0.0
H162 H 0.50271 0.21589 0.93402 0.0
H163 H 0.51616 0.2239 0.87476 0.0
C164 C 0.79202 0.4932 0.43046 0.0
C165 C 0.7932 0.46678 0.43738 0.0
C166 C 0.78917 0.50179 0.39658 0.0
C167 C 0.77118 0.48053 0.30777 0.0
H168 H 0.81626 0.53577 0.28038 0.0
C169 C 0.79262 0.50426 0.16487 0.0
C170 C 0.79517 0.53031 0.15643 0.0
C171 C 0.78977 0.49692 0.19928 0.0
C172 C 0.80326 0.52055 0.28763 0.0
H173 H 0.79123 0.42871 0.41425 0.0
H174 H 0.7865 0.44363 0.35554 0.0
H175 H 0.81508 0.52295 0.34038 0.0
H176 H 0.7957 0.56911 0.17742 0.0
H177 H 0.79044 0.55638 0.2369 0.0
H178 H 0.75968 0.47793 0.25477 0.0
C179 C 0.78757 0.45776 0.37614 0.0
C180 C 0.80254 0.51324 0.32212 0.0
C181 C 0.79048 0.44921 0.40988 0.0
C182 C 0.79406 0.54884 0.18297 0.0
C183 C 0.79118 0.54154 0.21719 0.0
C184 C 0.7719 0.48785 0.27321 0.0
C185 C 0.78733 0.48414 0.36895 0.0
C186 C 0.78664 0.49302 0.33262 0.0
C187 C 0.78939 0.51549 0.22589 0.0
C188 C 0.78806 0.50788 0.26269 0.0
H189 H 0.794 0.50723 0.45106 0.0
H190 H 0.7887 0.52226 0.39197 0.0
H191 H 0.75848 0.46507 0.31503 0.0
H192 H 0.79341 0.48951 0.14504 0.0
H193 H 0.78863 0.47666 0.2051 0.0
C194 C 0.54705 0.77327 0.89723 0.0
C195 C 0.53182 0.78603 0.92186 0.0
C196 C 0.53966 0.7725 0.8626 0.0
C197 C 0.48472 0.78379 0.80289 0.0
H198 H 0.53871 0.79702 0.73689 0.0
C199 C 0.46305 0.81658 0.66481 0.0
C200 C 0.47768 0.80623 0.63764 0.0
C201 C 0.46954 0.81161 0.69899 0.0
C202 C 0.52346 0.79293 0.75489 0.0
H203 H 0.49631 0.80715 0.92956 0.0
H204 H 0.48352 0.80611 0.86903 0.0
H205 H 0.54956 0.79242 0.7976 0.0
H206 H 0.51076 0.78255 0.62522 0.0
H207 H 0.52223 0.77391 0.68528 0.0
H208 H 0.45857 0.78486 0.76017 0.0
C209 C 0.50109 0.79642 0.87653 0.0
C210 C 0.52966 0.79026 0.78976 0.0
C211 C 0.50844 0.79708 0.91127 0.0
C212 C 0.49912 0.79085 0.64554 0.0
C213 C 0.50572 0.78596 0.67992 0.0
C214 C 0.47851 0.78653 0.76804 0.0
C215 C 0.51689 0.78458 0.85164 0.0
C216 C 0.51034 0.78592 0.81428 0.0
C217 C 0.4909 0.79621 0.70704 0.0
C218 C 0.49777 0.79145 0.74367 0.0
H219 H 0.56508 0.76434 0.90454 0.0
H220 H 0.55203 0.76273 0.84432 0.0
H221 H 0.4694 0.78002 0.82092 0.0
H222 H 0.44643 0.82856 0.65975 0.0
H223 H 0.45798 0.82018 0.71919 0.0
C224 C 0.82695 0.45508 0.68163 0.0
C225 C 0.81429 0.4686 0.65536 0.0
C226 C 0.82289 0.46133 0.71618 0.0
C227 C 0.77735 0.49361 0.77514 0.0
H228 H 0.8357 0.49297 0.83772 0.0
C229 C 0.77295 0.53258 0.9153 0.0
C230 C 0.78733 0.51978 0.94069 0.0
C231 C 0.77467 0.52518 0.88069 0.0
C232 C 0.81912 0.49287 0.82073 0.0
H233 H 0.78735 0.49941 0.64491 0.0
H234 H 0.78042 0.51061 0.70557 0.0
H235 H 0.84218 0.48366 0.7769 0.0
H236 H 0.81392 0.4884 0.94971 0.0
H237 H 0.81665 0.47527 0.88933 0.0
H238 H 0.75433 0.50299 0.81913 0.0
C239 C 0.79333 0.49493 0.69927 0.0
C240 C 0.82284 0.4876 0.78578 0.0
C241 C 0.79742 0.48864 0.66453 0.0
C242 C 0.80264 0.49872 0.93082 0.0
C243 C 0.80438 0.49134 0.89616 0.0
C244 C 0.77361 0.49892 0.81018 0.0
C245 C 0.80607 0.48134 0.72551 0.0
C246 C 0.80201 0.4878 0.76254 0.0
C247 C 0.79081 0.50481 0.87058 0.0
C248 C 0.79446 0.49853 0.83343 0.0
H249 H 0.83997 0.43942 0.6756 0.0
H250 H 0.83269 0.45017 0.73564 0.0
H251 H 0.76083 0.4936 0.75804 0.0
H252 H 0.76095 0.54889 0.92195 0.0
H253 H 0.7641 0.53612 0.86171 0.0
C254 C 0.54997 0.81009 0.16642 0.0
C255 C 0.5342 0.80233 0.13871 0.0
C256 C 0.54306 0.80488 0.2003 0.0
C257 C 0.48719 0.79062 0.25464 0.0
H258 H 0.53962 0.77235 0.32151 0.0
C259 C 0.46158 0.77088 0.39609 0.0
C260 C 0.47743 0.78248 0.42123 0.0
C261 C 0.46904 0.76998 0.36159 0.0
C262 C 0.52478 0.7776 0.30322 0.0
H263 H 0.49877 0.78279 0.12498 0.0
H264 H 0.48667 0.77356 0.18444 0.0
H265 H 0.55113 0.7768 0.26108 0.0
H266 H 0.51408 0.80132 0.42991 0.0
H267 H 0.52706 0.79989 0.36962 0.0
H268 H 0.46091 0.79182 0.29682 0.0
C269 C 0.50435 0.78389 0.17981 0.0
C270 C 0.53136 0.78015 0.26855 0.0
C271 C 0.51132 0.78908 0.14574 0.0
C272 C 0.50143 0.79219 0.41124 0.0
C273 C 0.5089 0.79131 0.37665 0.0
C274 C 0.4806 0.78807 0.28931 0.0
C275 C 0.52017 0.79175 0.2075 0.0
C276 C 0.51272 0.78704 0.24389 0.0
C277 C 0.49255 0.78066 0.35129 0.0
C278 C 0.49937 0.78182 0.31412 0.0
H279 H 0.56771 0.82039 0.16205 0.0
H280 H 0.55549 0.81163 0.22092 0.0
H281 H 0.47241 0.79628 0.23647 0.0
H282 H 0.44304 0.76302 0.40288 0.0
H283 H 0.4562 0.76119 0.34288 0.0
C284 C 0.20465 0.49206 0.89014 0.0
C285 C 0.19284 0.46868 0.89839 0.0
C286 C 0.20925 0.49834 0.8557 0.0
C287 C 0.18698 0.48199 0.76737 0.0
H288 H 0.24903 0.51693 0.73912 0.0
C289 C 0.20695 0.50153 0.62432 0.0
C290 C 0.21487 0.52662 0.61676 0.0
C291 C 0.20702 0.49289 0.65834 0.0
C292 C 0.23155 0.50727 0.74664 0.0
H293 H 0.1773 0.43327 0.87696 0.0
H294 H 0.18562 0.444 0.81745 0.0
H295 H 0.2434 0.50563 0.79952 0.0
H296 H 0.2304 0.56181 0.63884 0.0
H297 H 0.23042 0.5468 0.6979 0.0
H298 H 0.17499 0.48378 0.71472 0.0
C299 C 0.19085 0.45778 0.83733 0.0
C300 C 0.22828 0.50088 0.78127 0.0
C301 C 0.18619 0.45157 0.87158 0.0
C302 C 0.22407 0.54239 0.64373 0.0
C303 C 0.22423 0.53373 0.67765 0.0
C304 C 0.19027 0.48832 0.73282 0.0
C305 C 0.20216 0.48135 0.82886 0.0
C306 C 0.20592 0.4882 0.79208 0.0
C307 C 0.21513 0.50911 0.6855 0.0
C308 C 0.21254 0.50111 0.72201 0.0
H309 H 0.21 0.50564 0.91021 0.0
H310 H 0.21781 0.51676 0.85007 0.0
H311 H 0.16929 0.47268 0.77482 0.0
H312 H 0.1998 0.48887 0.60416 0.0
H313 H 0.20026 0.47365 0.66346 0.0
C314 C 0.5025 0.20396 0.41419 0.0
C315 C 0.52826 0.19766 0.42133 0.0
C316 C 0.49418 0.20723 0.38013 0.0
C317 C 0.5175 0.21948 0.29175 0.0
H318 H 0.45523 0.18427 0.2633 0.0
C319 C 0.49046 0.20189 0.14824 0.0
C320 C 0.46425 0.20201 0.13931 0.0
C321 C 0.49809 0.20417 0.18282 0.0
C322 C 0.47244 0.19463 0.27081 0.0
H323 H 0.56561 0.19059 0.39834 0.0
H324 H 0.55114 0.19631 0.33933 0.0
H325 H 0.46828 0.18382 0.32351 0.0
H326 H 0.42558 0.20604 0.15936 0.0
H327 H 0.43881 0.21073 0.21912 0.0
H328 H 0.52173 0.23022 0.239 0.0
C329 C 0.53736 0.19883 0.35991 0.0
C330 C 0.47991 0.19433 0.30541 0.0
C331 C 0.5456 0.19535 0.3938 0.0
C332 C 0.44593 0.20552 0.16541 0.0
C333 C 0.45352 0.20804 0.19978 0.0
C334 C 0.50994 0.21992 0.25712 0.0
C335 C 0.51152 0.20454 0.3526 0.0
C336 C 0.50266 0.20653 0.31625 0.0
C337 C 0.47965 0.20684 0.2091 0.0
C338 C 0.4874 0.20732 0.24613 0.0
H339 H 0.48868 0.2059 0.43483 0.0
H340 H 0.47416 0.21183 0.37531 0.0
H341 H 0.535 0.22931 0.29937 0.0
H342 H 0.50502 0.19915 0.1287 0.0
H343 H 0.51838 0.20295 0.189 0.0
C344 C 0.90723 0.55186 0.99239 0.0
C345 C 0.89268 0.54552 0.02147 0.0
C346 C 0.93344 0.54589 0.99097 0.0
C347 C 0.98005 0.49987 0.02428 0.0
H348 H 0.03121 0.54807 0.99258 0.0
C349 C 0.08895 0.47603 0.02446 0.0
C350 C 0.10385 0.486 0.9977 0.0
C351 C 0.06314 0.48325 0.02802 0.0
C352 C 0.01714 0.53421 1.00099 0.0
H353 H 0.89442 0.52859 0.07228 0.0
H354 H 0.94009 0.51798 0.06954 0.0
H355 H 0.98652 0.56172 0.99784 0.0
H356 H 0.10317 0.51042 0.95283 0.0
H357 H 0.05813 0.5222 0.9582 0.0
H358 H 0.01035 0.47211 0.02656 0.0
C359 C 0.93116 0.5275 0.04786 0.0
C360 C 0.99157 0.54213 1.00417 0.0
C361 C 0.90506 0.53376 0.04948 0.0
C362 C 0.09225 0.50262 0.97396 0.0
C363 C 0.06644 0.50956 0.97723 0.0
C364 C 0.00557 0.49184 0.02071 0.0
C365 C 0.94552 0.53319 0.01842 0.0
C366 C 0.97277 0.52504 0.01581 0.0
C367 C 0.05163 0.50034 1.00463 0.0
C368 C 0.02446 0.50888 1.00891 0.0
H369 H 0.89827 0.56094 0.97041 0.0
H370 H 0.94406 0.5504 0.9679 0.0
H371 H 0.96585 0.4862 0.03292 0.0
H372 H 0.09742 0.4633 0.04328 0.0
H373 H 0.05244 0.47595 0.04964 0.0
C374 C 0.51339 0.90058 0.52442 0.0
C375 C 0.48854 0.89 0.52461 0.0
C376 C 0.51686 0.92715 0.52491 0.0
C377 C 0.48384 0.98826 0.50657 0.0
H378 H 0.53726 0.01746 0.56493 0.0
C379 C 0.49248 0.09718 0.53121 0.0
C380 C 0.51726 0.10791 0.53142 0.0
C381 C 0.48917 0.07059 0.53024 0.0
C382 C 0.52247 0.00959 0.54819 0.0
H383 H 0.44781 0.89905 0.52531 0.0
H384 H 0.45389 0.94555 0.52642 0.0
H385 H 0.53083 0.97109 0.56348 0.0
H386 H 0.55805 0.09912 0.53087 0.0
H387 H 0.55226 0.05258 0.52891 0.0
H388 H 0.47548 0.02675 0.49129 0.0
C389 C 0.47069 0.93324 0.52553 0.0
C390 C 0.51876 0.98302 0.54737 0.0
C391 C 0.4672 0.9066 0.52506 0.0
C392 C 0.5387 0.09144 0.53082 0.0
C393 C 0.53538 0.06479 0.52986 0.0
C394 C 0.48756 0.01483 0.50738 0.0
C395 C 0.49557 0.9438 0.52561 0.0
C396 C 0.4994 0.97205 0.52656 0.0
C397 C 0.51056 0.05408 0.52945 0.0
C398 C 0.50689 0.0258 0.52824 0.0
H399 H 0.53026 0.88835 0.52393 0.0
H400 H 0.53627 0.93466 0.52442 0.0
H401 H 0.46903 0.98039 0.48986 0.0
H402 H 0.47553 0.1093 0.5318 0.0
H403 H 0.46981 0.06297 0.5305 0.0
C404 C 0.09385 0.53787 0.51914 0.0
C405 C 0.11088 0.51704 0.51553 0.0
C406 C 0.06736 0.53368 0.52176 0.0
C407 C 0.02003 0.48367 0.54386 0.0
H408 H 0.97207 0.52702 0.49437 0.0
C409 C 0.9115 0.46051 0.53364 0.0
C410 C 0.89441 0.48129 0.53726 0.0
C411 C 0.93796 0.46479 0.53084 0.0
C412 C 0.9852 0.5149 0.50864 0.0
H413 H 0.11343 0.47549 0.51161 0.0
H414 H 0.06739 0.46827 0.51584 0.0
H415 H 0.01813 0.53505 0.49017 0.0
H416 H 0.89171 0.52284 0.54092 0.0
H417 H 0.93772 0.53021 0.53639 0.0
H418 H 0.98712 0.46353 0.56235 0.0
C419 C 0.07446 0.48781 0.51714 0.0
C420 C 0.01159 0.51953 0.50625 0.0
C421 C 0.10087 0.49198 0.51449 0.0
C422 C 0.90432 0.50638 0.53803 0.0
C423 C 0.93071 0.51064 0.53522 0.0
C424 C 0.99365 0.47904 0.54625 0.0
C425 C 0.05739 0.50858 0.52088 0.0
C426 C 0.02931 0.50394 0.5238 0.0
C427 C 0.94785 0.48992 0.53156 0.0
C428 C 0.97593 0.49461 0.52868 0.0
H429 H 0.10097 0.55739 0.52009 0.0
H430 H 0.05472 0.55007 0.52496 0.0
H431 H 0.03317 0.47154 0.55812 0.0
H432 H 0.90445 0.44095 0.53289 0.0
H433 H 0.95064 0.44842 0.52768 0.0
C434 C 0.4922 0.90119 0.0247 0.0
C435 C 0.51744 0.89156 0.02668 0.0
C436 C 0.48761 0.9276 0.02481 0.0
C437 C 0.51686 0.98947 0.04977 0.0
H438 H 0.46519 0.0179 0.98859 0.0
C439 C 0.5049 0.09836 0.0309 0.0
C440 C 0.47977 0.10826 0.02905 0.0
C441 C 0.5092 0.07191 0.03072 0.0
C442 C 0.47946 0.01022 1.00612 0.0
H443 H 0.55769 0.90217 0.03021 0.0
H444 H 0.54966 0.9484 0.03015 0.0
H445 H 0.47365 0.97181 0.98761 0.0
H446 H 0.4394 0.09812 0.02554 0.0
H447 H 0.44693 0.05176 0.02546 0.0
H448 H 0.52268 0.02786 0.06828 0.0
C449 C 0.53341 0.93545 0.02888 0.0
C450 C 0.48433 0.98382 1.00553 0.0
C451 C 0.53802 0.90897 0.02872 0.0
C452 C 0.45899 0.09109 0.02694 0.0
C453 C 0.46332 0.06455 0.02672 0.0
C454 C 0.51198 0.01586 0.05036 0.0
C455 C 0.50813 0.94505 0.02693 0.0
C456 C 0.50311 0.97314 0.02733 0.0
C457 C 0.48849 0.05468 0.02868 0.0
C458 C 0.49326 0.02654 0.02849 0.0
H459 H 0.47589 0.88832 0.02319 0.0
H460 H 0.4679 0.93435 0.02376 0.0
H461 H 0.53114 0.9818 0.0673 0.0
H462 H 0.52136 0.11104 0.03243 0.0
H463 H 0.52884 0.06495 0.03174 0.0
C464 C 0.22972 0.37446 0.01983 0.0
C465 C 0.23367 0.39248 0.99371 0.0
C466 C 0.2463 0.35336 0.02314 0.0
C467 C 0.31315 0.33712 1.00315 0.0
H468 H 0.2954 0.26833 0.0319 0.0
C469 C 0.39082 0.2686 0.05008 0.0
C470 C 0.39078 0.24364 0.03606 0.0
C471 C 0.36953 0.28459 0.04617 0.0
C472 C 0.30057 0.28744 0.02369 0.0
H473 H 0.25648 0.40143 0.94886 0.0
H474 H 0.28487 0.36453 0.95413 0.0
H475 H 0.26114 0.29956 0.01989 0.0
H476 H 0.36785 0.2154 1.00836 0.0
H477 H 0.3305 0.24367 1.00111 0.0
H478 H 0.35236 0.32528 1.00658 0.0
C479 C 0.26957 0.367 0.9727 0.0
C480 C 0.28101 0.30533 0.01706 0.0
C481 C 0.25324 0.38809 0.9696 0.0
C482 C 0.36846 0.23458 0.01935 0.0
C483 C 0.34707 0.25071 0.01533 0.0
C484 C 0.33255 0.3194 1.00984 0.0
C485 C 0.26693 0.34995 1.00025 0.0
C486 C 0.28715 0.33037 1.00666 0.0
C487 C 0.34768 0.2761 0.02797 0.0
C488 C 0.32655 0.29443 0.02042 0.0
H489 H 0.21476 0.37741 0.03877 0.0
H490 H 0.24381 0.34058 0.04468 0.0
H491 H 0.31859 0.35635 0.99575 0.0
H492 H 0.40755 0.27606 0.06355 0.0
H493 H 0.37036 0.30387 0.05687 0.0
C494 C 0.74317 0.38636 0.58593 0.0
C495 C 0.76385 0.38934 0.56322 0.0
C496 C 0.72619 0.36587 0.58195 0.0
C497 C 0.71523 0.30291 0.53982 0.0
H498 H 0.64392 0.32484 0.54284 0.0
C499 C 0.62687 0.23396 0.53744 0.0
C500 C 0.60533 0.24218 0.51845 0.0
C501 C 0.64836 0.24993 0.54125 0.0
C502 C 0.66373 0.31841 0.54165 0.0
H503 H 0.78388 0.37228 0.51977 0.0
H504 H 0.75389 0.33642 0.51262 0.0
H505 H 0.67781 0.35577 0.55446 0.0
H506 H 0.59011 0.27279 0.48673 0.0
H507 H 0.62752 0.30037 0.49313 0.0
H508 H 0.70082 0.26545 0.52655 0.0
C509 C 0.75096 0.34995 0.5336 0.0
C510 C 0.68315 0.33607 0.54876 0.0
C511 C 0.76807 0.37052 0.53764 0.0
C512 C 0.60623 0.26603 0.50194 0.0
C513 C 0.62764 0.28188 0.50569 0.0
C514 C 0.69566 0.28509 0.53285 0.0
C515 C 0.72941 0.34791 0.5551 0.0
C516 C 0.70911 0.32857 0.54799 0.0
C517 C 0.64864 0.27434 0.52613 0.0
C518 C 0.66972 0.29276 0.53351 0.0
H519 H 0.73958 0.40032 0.60621 0.0
H520 H 0.71006 0.36448 0.59937 0.0
H521 H 0.73508 0.2966 0.53912 0.0
H522 H 0.62675 0.21565 0.55041 0.0
H523 H 0.66425 0.24365 0.55724 0.0
C524 C 0.75233 0.61499 0.04268 0.0
C525 C 0.77844 0.62005 0.03652 0.0
C526 C 0.734 0.63435 0.03989 0.0
C527 C 0.72354 0.70355 0.0431 0.0
H528 H 0.65973 0.68484 0.99722 0.0
C529 C 0.63396 0.77131 0.02881 0.0
C530 C 0.61056 0.75956 0.03754 0.0
C531 C 0.65656 0.75669 0.02624 0.0
C532 C 0.67743 0.69036 1.01011 0.0
H533 H 0.80581 0.64972 0.02338 0.0
H534 H 0.77339 0.6839 0.01866 0.0
H535 H 0.69579 0.65498 0.99659 0.0
H536 H 0.59272 0.72345 0.05129 0.0
H537 H 0.63184 0.69822 0.04675 0.0
H538 H 0.70468 0.73883 0.05726 0.0
C539 C 0.76734 0.66475 0.02557 0.0
C540 C 0.69806 0.67328 1.00975 0.0
C541 C 0.78584 0.6452 0.02819 0.0
C542 C 0.61033 0.73312 0.04429 0.0
C543 C 0.63274 0.71859 0.0415 0.0
C544 C 0.70278 0.72077 0.04342 0.0
C545 C 0.74119 0.65935 0.03092 0.0
C546 C 0.72104 0.67931 0.02718 0.0
C547 C 0.656 0.7301 0.032 0.0
C548 C 0.67927 0.71391 0.02784 0.0
H549 H 0.74589 0.59592 0.04938 0.0
H550 H 0.71406 0.62972 0.04487 0.0
H551 H 0.74105 0.70866 0.05675 0.0
H552 H 0.63474 0.79167 0.02354 0.0
H553 H 0.67428 0.76602 0.01892 0.0
C554 C 0.39344 0.7397 0.5697 0.0
C555 C 0.39709 0.75981 0.54642 0.0
C556 C 0.37234 0.72339 0.56636 0.0
C557 C 0.30903 0.71373 0.52435 0.0
H558 H 0.32871 0.64195 0.52896 0.0
C559 C 0.23747 0.62732 0.52 0.0
C560 C 0.24548 0.60578 0.5007 0.0
C561 C 0.25398 0.64831 0.52477 0.0
C562 C 0.32291 0.6619 0.5274 0.0
H563 H 0.38064 0.77956 0.5026 0.0
H564 H 0.34376 0.75072 0.49649 0.0
H565 H 0.36058 0.67495 0.54064 0.0
H566 H 0.27638 0.59002 0.46957 0.0
H567 H 0.3049 0.62649 0.47774 0.0
H568 H 0.27129 0.70032 0.5105 0.0
C569 C 0.35721 0.74774 0.51747 0.0
C570 C 0.3411 0.68083 0.53453 0.0
C571 C 0.37836 0.76418 0.52089 0.0
C572 C 0.26973 0.60615 0.48496 0.0
C573 C 0.28614 0.62702 0.48973 0.0
C574 C 0.29069 0.69467 0.51736 0.0
C575 C 0.35444 0.72671 0.53956 0.0
C576 C 0.33444 0.70695 0.53302 0.0
C577 C 0.27873 0.64802 0.51039 0.0
C578 C 0.29757 0.66856 0.5185 0.0
H579 H 0.40732 0.73605 0.58997 0.0
H580 H 0.37043 0.70768 0.58422 0.0
H581 H 0.30335 0.73372 0.52311 0.0
H582 H 0.21886 0.62761 0.53239 0.0
H583 H 0.2478 0.66423 0.54088 0.0
loop_
_geom_bond_atom_site_label_1
_geom_bond_atom_site_label_2
_geom_bond_distance
_geom_bond_site_symmetry_2
_ccdc_geom_bond_type
Mg0 O7 2.141 . S
Mg0 O8 2.048 . S
Mg0 O9 2.048 1_554 S
Mg0 O12 2.141 . S
C1 O2 1.313 . S
C1 O8 1.195 . S
O2 C1 1.313 . S
C3 O4 1.245 . S
C3 O12 1.289 . S
O4 C3 1.245 . S
C5 O6 1.245 . S
C5 O7 1.289 . S
O6 C5 1.245 . S
O7 Mg0 2.141 . S
O7 C5 1.289 . S
O8 Mg0 2.048 . S
O8 C1 1.195 . S
O9 Mg0 2.048 1_556 S
O9 C10 1.195 . S
C10 O9 1.195 . S
C10 O11 1.313 . S
O11 C10 1.313 . S
O12 Mg0 2.141 . S
O12 C3 1.289 . S
Mg13 O20 2.141 . S
Mg13 O21 2.048 . S
Mg13 O22 2.048 . S
Mg13 O25 2.141 . S
C14 O15 1.313 . S
C14 O21 1.195 . S
O15 C14 1.313 . S
C16 O17 1.245 . S
C16 O25 1.289 . S
O17 C16 1.245 . S
C18 O19 1.245 . S
C18 O20 1.289 . S
O19 C18 1.245 . S
O20 Mg13 2.141 . S
O20 C18 1.289 . S
O21 Mg13 2.048 . S
O21 C14 1.195 . S
O22 Mg13 2.048 . S
O22 C23 1.195 . S
C23 O22 1.195 . S
C23 O24 1.313 . S
O24 C23 1.313 . S
O25 Mg13 2.141 . S
O25 C16 1.289 . S
Mg26 O33 2.141 . S
Mg26 O34 2.048 . S
Mg26 O35 2.048 1_554 S
Mg26 O38 2.141 . S
C27 O28 1.313 . S
C27 O34 1.195 . S
O28 C27 1.313 . S
C29 O30 1.245 . S
C29 O38 1.289 . S
O30 C29 1.245 . S
C31 O32 1.245 . S
C31 O33 1.289 . S
O32 C31 1.245 . S
O33 Mg26 2.141 . S
O33 C31 1.289 . S
O34 Mg26 2.048 . S
O34 C27 1.195 . S
O35 Mg26 2.048 1_556 S
O35 C36 1.195 . S
C36 O35 1.195 . S
C36 O37 1.313 . S
O37 C36 1.313 . S
O38 Mg26 2.141 . S
O38 C29 1.289 . S
Mg39 O46 2.141 . S
Mg39 O47 2.048 . S
Mg39 O48 2.048 . S
Mg39 O51 2.141 . S
C40 O41 1.313 . S
C40 O47 1.195 . S
O41 C40 1.313 . S
C42 O43 1.245 . S
C42 O51 1.289 . S
O43 C42 1.245 . S
C44 O45 1.245 . S
C44 O46 1.289 . S
O45 C44 1.245 . S
O46 Mg39 2.141 . S
O46 C44 1.289 . S
O47 Mg39 2.048 . S
O47 C40 1.195 . S
O48 Mg39 2.048 . S
O48 C49 1.195 . S
C49 O48 1.195 . S
C49 O50 1.313 . S
O50 C49 1.313 . S
O51 Mg39 2.141 . S
O51 C42 1.289 . S
Mg52 O59 2.141 . S
Mg52 O60 2.048 . S
Mg52 O61 2.048 . S
Mg52 O64 2.141 . S
C53 O54 1.313 . S
C53 O60 1.195 . S
O54 C53 1.313 . S
C55 O56 1.245 . S
C55 O64 1.289 . S
O56 C55 1.245 . S
C57 O58 1.245 . S
C57 O59 1.289 . S
O58 C57 1.245 . S
O59 Mg52 2.141 . S
O59 C57 1.289 . S
O60 Mg52 2.048 . S
O60 C53 1.195 . S
O61 Mg52 2.048 . S
O61 C62 1.195 . S
C62 O61 1.195 . S
C62 O63 1.313 . S
O63 C62 1.313 . S
O64 Mg52 2.141 . S
O64 C55 1.289 . S
Mg65 O72 2.141 . S
Mg65 O73 2.048 . S
Mg65 O74 2.048 . S
Mg65 O77 2.141 1_554 S
C66 O67 1.313 . S
C66 O73 1.195 . S
O67 C66 1.313 . S
C68 O69 1.245 . S
C68 O77 1.289 . S
O69 C68 1.245 . S
C70 O71 1.245 . S
C70 O72 1.289 . S
O71 C70 1.245 . S
O72 Mg65 2.141 . S
O72 C70 1.289 . S
O73 Mg65 2.048 . S
O73 C66 1.195 . S
O74 Mg65 2.048 . S
O74 C75 1.195 . S
C75 O74 1.195 . S
C75 O76 1.313 . S
O76 C75 1.313 . S
O77 Mg65 2.141 1_556 S
O77 C68 1.289 . S
Mg78 O85 2.141 . S
Mg78 O86 2.048 . S
Mg78 O87 2.048 . S
Mg78 O90 2.141 . S
C79 O80 1.313 . S
C79 O86 1.195 . S
O80 C79 1.313 . S
C81 O82 1.245 . S
C81 O90 1.289 . S
O82 C81 1.245 . S
C83 O84 1.245 . S
C83 O85 1.289 . S
O84 C83 1.245 . S
O85 Mg78 2.141 . S
O85 C83 1.289 . S
O86 Mg78 2.048 . S
O86 C79 1.195 . S
O87 Mg78 2.048 . S
O87 C88 1.195 . S
C88 O87 1.195 . S
C88 O89 1.313 . S
O89 C88 1.313 . S
O90 Mg78 2.141 . S
O90 C81 1.289 . S
Mg91 O98 2.141 . S
Mg91 O99 2.048 . S
Mg91 O100 2.048 . S
Mg91 O103 2.141 1_554 S
C92 O93 1.313 . S
C92 O99 1.195 . S
O93 C92 1.313 . S
C94 O95 1.245 . S
C94 O103 1.289 . S
O95 C94 1.245 . S
C96 O97 1.245 . S
C96 O98 1.289 . S
O97 C96 1.245 . S
O98 Mg91 2.141 . S
O98 C96 1.289 . S
O99 Mg91 2.048 . S
O99 C92 1.195 . S
O100 Mg91 2.048 . S
O100 C101 1.195 . S
C101 O100 1.195 . S
C101 O102 1.313 . S
O102 C101 1.313 . S
O103 Mg91 2.141 1_556 S
O103 C94 1.289 . S
C104 C105 1.349 . S
C104 C106 1.327 . S
C104 H129 0.950 . S
C105 C104 1.349 . S
C105 C121 1.349 . S
C106 C104 1.327 . S
C106 C125 1.429 . S
C106 H130 0.950 . S
C107 C124 1.574 . S
C107 C126 1.368 . S
C107 H131 0.949 . S
H108 C112 0.949 . S
C109 C110 1.349 . S
C109 C111 1.327 . S
C109 H132 0.950 . S
C110 C109 1.349 . S
C110 C122 1.349 . S
C111 C109 1.327 . S
C111 C127 1.429 . S
C111 H133 0.950 . S
C112 H108 0.949 . S
C112 C120 1.574 . S
C112 C128 1.368 . S
H113 C121 0.950 . S
H114 C119 0.950 . S
H115 C120 0.949 . S
H116 C122 0.950 . S
H117 C123 0.950 . S
H118 C124 0.949 . S
C119 H114 0.950 . S
C119 C121 1.327 . S
C119 C125 1.429 . S
C120 C112 1.574 . S
C120 H115 0.949 . S
C120 C126 1.368 . S
C121 C105 1.349 . S
C121 H113 0.950 . S
C121 C119 1.327 . S
C122 C110 1.349 . S
C122 H116 0.950 . S
C122 C123 1.327 . S
C123 H117 0.950 . S
C123 C122 1.327 . S
C123 C127 1.429 . S
C124 C107 1.574 . S
C124 H118 0.949 . S
C124 C128 1.368 . S
C125 C106 1.429 . S
C125 C119 1.429 . S
C125 C126 1.523 . S
C126 C107 1.368 . S
C126 C120 1.368 . S
C126 C125 1.523 . S
C127 C111 1.429 . S
C127 C123 1.429 . S
C127 C128 1.523 . S
C128 C112 1.368 . S
C128 C124 1.368 . S
C128 C127 1.523 . S
H129 C104 0.950 . S
H130 C106 0.950 . S
H131 C107 0.949 . S
H132 C109 0.950 . S
H133 C111 0.950 . S
C134 C135 1.349 . S
C134 C136 1.327 . S
C134 H159 0.950 . S
C135 C134 1.349 . S
C135 C151 1.349 . S
C136 C134 1.327 . S
C136 C155 1.429 . S
C136 H160 0.950 . S
C137 C154 1.574 . S
C137 C156 1.368 . S
C137 H161 0.949 . S
H138 C142 0.949 . S
C139 C140 1.349 . S
C139 C141 1.327 . S
C139 H162 0.950 . S
C140 C139 1.349 . S
C140 C152 1.349 . S
C141 C139 1.327 . S
C141 C157 1.429 . S
C141 H163 0.950 . S
C142 H138 0.949 . S
C142 C150 1.574 . S
C142 C158 1.368 . S
H143 C151 0.950 . S
H144 C149 0.950 . S
H145 C150 0.949 . S
H146 C152 0.950 . S
H147 C153 0.950 . S
H148 C154 0.949 . S
C149 H144 0.950 . S
C149 C151 1.327 . S
C149 C155 1.429 . S
C150 C142 1.574 . S
C150 H145 0.949 . S
C150 C156 1.368 . S
C151 C135 1.349 . S
C151 H143 0.950 . S
C151 C149 1.327 . S
C152 C140 1.349 . S
C152 H146 0.950 . S
C152 C153 1.327 . S
C153 H147 0.950 . S
C153 C152 1.327 . S
C153 C157 1.429 . S
C154 C137 1.574 . S
C154 H148 0.949 . S
C154 C158 1.368 . S
C155 C136 1.429 . S
C155 C149 1.429 . S
C155 C156 1.523 . S
C156 C137 1.368 . S
C156 C150 1.368 . S
C156 C155 1.523 . S
C157 C141 1.429 . S
C157 C153 1.429 . S
C157 C158 1.523 . S
C158 C142 1.368 . S
C158 C154 1.368 . S
C158 C157 1.523 . S
H159 C134 0.950 . S
H160 C136 0.950 . S
H161 C137 0.949 . S
H162 C139 0.950 . S
H163 C141 0.950 . S
C164 C165 1.349 . S
C164 C166 1.327 . S
C164 H189 0.950 . S
C165 C164 1.349 . S
C165 C181 1.349 . S
C166 C164 1.327 . S
C166 C185 1.429 . S
C166 H190 0.950 . S
C167 C184 1.574 . S
C167 C186 1.368 . S
C167 H191 0.949 . S
H168 C172 0.949 . S
C169 C170 1.349 . S
C169 C171 1.327 . S
C169 H192 0.950 . S
C170 C169 1.349 . S
C170 C182 1.349 . S
C171 C169 1.327 . S
C171 C187 1.429 . S
C171 H193 0.950 . S
C172 H168 0.949 . S
C172 C180 1.574 . S
C172 C188 1.368 . S
H173 C181 0.950 . S
H174 C179 0.950 . S
H175 C180 0.949 . S
H176 C182 0.950 . S
H177 C183 0.950 . S
H178 C184 0.949 . S
C179 H174 0.950 . S
C179 C181 1.327 . S
C179 C185 1.429 . S
C180 C172 1.574 . S
C180 H175 0.949 . S
C180 C186 1.368 . S
C181 C165 1.349 . S
C181 H173 0.950 . S
C181 C179 1.327 . S
C182 C170 1.349 . S
C182 H176 0.950 . S
C182 C183 1.327 . S
C183 H177 0.950 . S
C183 C182 1.327 . S
C183 C187 1.429 . S
C184 C167 1.574 . S
C184 H178 0.949 . S
C184 C188 1.368 . S
C185 C166 1.429 . S
C185 C179 1.429 . S
C185 C186 1.523 . S
C186 C167 1.368 . S
C186 C180 1.368 . S
C186 C185 1.523 . S
C187 C171 1.429 . S
C187 C183 1.429 . S
C187 C188 1.523 . S
C188 C172 1.368 . S
C188 C184 1.368 . S
C188 C187 1.523 . S
H189 C164 0.950 . S
H190 C166 0.950 . S
H191 C167 0.949 . S
H192 C169 0.950 . S
H193 C171 0.950 . S
C194 C195 1.349 . S
C194 C196 1.327 . S
C194 H219 0.950 . S
C195 C194 1.349 . S
C195 C211 1.349 . S
C196 C194 1.327 . S
C196 C215 1.429 . S
C196 H220 0.950 . S
C197 C214 1.574 . S
C197 C216 1.368 . S
C197 H221 0.949 . S
H198 C202 0.949 . S
C199 C200 1.349 . S
C199 C201 1.327 . S
C199 H222 0.950 . S
C200 C199 1.349 . S
C200 C212 1.349 . S
C201 C199 1.327 . S
C201 C217 1.429 . S
C201 H223 0.950 . S
C202 H198 0.949 . S
C202 C210 1.574 . S
C202 C218 1.368 . S
H203 C211 0.950 . S
H204 C209 0.950 . S
H205 C210 0.949 . S
H206 C212 0.950 . S
H207 C213 0.950 . S
H208 C214 0.949 . S
C209 H204 0.950 . S
C209 C211 1.327 . S
C209 C215 1.429 . S
C210 C202 1.574 . S
C210 H205 0.949 . S
C210 C216 1.368 . S
C211 C195 1.349 . S
C211 H203 0.950 . S
C211 C209 1.327 . S
C212 C200 1.349 . S
C212 H206 0.950 . S
C212 C213 1.327 . S
C213 H207 0.950 . S
C213 C212 1.327 . S
C213 C217 1.429 . S
C214 C197 1.574 . S
C214 H208 0.949 . S
C214 C218 1.368 . S
C215 C196 1.429 . S
C215 C209 1.429 . S
C215 C216 1.523 . S
C216 C197 1.368 . S
C216 C210 1.368 . S
C216 C215 1.523 . S
C217 C201 1.429 . S
C217 C213 1.429 . S
C217 C218 1.523 . S
C218 C202 1.368 . S
C218 C214 1.368 . S
C218 C217 1.523 . S
H219 C194 0.950 . S
H220 C196 0.950 . S
H221 C197 0.949 . S
H222 C199 0.950 . S
H223 C201 0.950 . S
C224 C225 1.349 . S
C224 C226 1.327 . S
C224 H249 0.950 . S
C225 C224 1.349 . S
C225 C241 1.349 . S
C226 C224 1.327 . S
C226 C245 1.429 . S
C226 H250 0.950 . S
C227 C244 1.574 . S
C227 C246 1.368 . S
C227 H251 0.949 . S
H228 C232 0.949 . S
C229 C230 1.349 . S
C229 C231 1.327 . S
C229 H252 0.950 . S
C230 C229 1.349 . S
C230 C242 1.349 . S
C231 C229 1.327 . S
C231 C247 1.429 . S
C231 H253 0.950 . S
C232 H228 0.949 . S
C232 C240 1.574 . S
C232 C248 1.368 . S
H233 C241 0.950 . S
H234 C239 0.950 . S
H235 C240 0.949 . S
H236 C242 0.950 . S
H237 C243 0.950 . S
H238 C244 0.949 . S
C239 H234 0.950 . S
C239 C241 1.327 . S
C239 C245 1.429 . S
C240 C232 1.574 . S
C240 H235 0.949 . S
C240 C246 1.368 . S
C241 C225 1.349 . S
C241 H233 0.950 . S
C241 C239 1.327 . S
C242 C230 1.349 . S
C242 H236 0.950 . S
C242 C243 1.327 . S
C243 H237 0.950 . S
C243 C242 1.327 . S
C243 C247 1.429 . S
C244 C227 1.574 . S
C244 H238 0.949 . S
C244 C248 1.368 . S
C245 C226 1.429 . S
C245 C239 1.429 . S
C245 C246 1.523 . S
C246 C227 1.368 . S
C246 C240 1.368 . S
C246 C245 1.523 . S
C247 C231 1.429 . S
C247 C243 1.429 . S
C247 C248 1.523 . S
C248 C232 1.368 . S
C248 C244 1.368 . S
C248 C247 1.523 . S
H249 C224 0.950 . S
H250 C226 0.950 . S
H251 C227 0.949 . S
H252 C229 0.950 . S
H253 C231 0.950 . S
C254 C255 1.349 . S
C254 C256 1.327 . S
C254 H279 0.950 . S
C255 C254 1.349 . S
C255 C271 1.349 . S
C256 C254 1.327 . S
C256 C275 1.429 . S
C256 H280 0.950 . S
C257 C274 1.574 . S
C257 C276 1.368 . S
C257 H281 0.949 . S
H258 C262 0.949 . S
C259 C260 1.349 . S
C259 C261 1.327 . S
C259 H282 0.950 . S
C260 C259 1.349 . S
C260 C272 1.349 . S
C261 C259 1.327 . S
C261 C277 1.429 . S
C261 H283 0.950 . S
C262 H258 0.949 . S
C262 C270 1.574 . S
C262 C278 1.368 . S
H263 C271 0.950 . S
H264 C269 0.950 . S
H265 C270 0.949 . S
H266 C272 0.950 . S
H267 C273 0.950 . S
H268 C274 0.949 . S
C269 H264 0.950 . S
C269 C271 1.327 . S
C269 C275 1.429 . S
C270 C262 1.574 . S
C270 H265 0.949 . S
C270 C276 1.368 . S
C271 C255 1.349 . S
C271 H263 0.950 . S
C271 C269 1.327 . S
C272 C260 1.349 . S
C272 H266 0.950 . S
C272 C273 1.327 . S
C273 H267 0.950 . S
C273 C272 1.327 . S
C273 C277 1.429 . S
C274 C257 1.574 . S
C274 H268 0.949 . S
C274 C278 1.368 . S
C275 C256 1.429 . S
C275 C269 1.429 . S
C275 C276 1.523 . S
C276 C257 1.368 . S
C276 C270 1.368 . S
C276 C275 1.523 . S
C277 C261 1.429 . S
C277 C273 1.429 . S
C277 C278 1.523 . S
C278 C262 1.368 . S
C278 C274 1.368 . S
C278 C277 1.523 . S
H279 C254 0.950 . S
H280 C256 0.950 . S
H281 C257 0.949 . S
H282 C259 0.950 . S
H283 C261 0.950 . S
C284 C285 1.349 . S
C284 C286 1.327 . S
C284 H309 0.950 . S
C285 C284 1.349 . S
C285 C301 1.349 . S
C286 C284 1.327 . S
C286 C305 1.429 . S
C286 H310 0.950 . S
C287 C304 1.574 . S
C287 C306 1.368 . S
C287 H311 0.949 . S
H288 C292 0.949 . S
C289 C290 1.349 . S
C289 C291 1.327 . S
C289 H312 0.950 . S
C290 C289 1.349 . S
C290 C302 1.349 . S
C291 C289 1.327 . S
C291 C307 1.429 . S
C291 H313 0.950 . S
C292 H288 0.949 . S
C292 C300 1.574 . S
C292 C308 1.368 . S
H293 C301 0.950 . S
H294 C299 0.950 . S
H295 C300 0.949 . S
H296 C302 0.950 . S
H297 C303 0.950 . S
H298 C304 0.949 . S
C299 H294 0.950 . S
C299 C301 1.327 . S
C299 C305 1.429 . S
C300 C292 1.574 . S
C300 H295 0.949 . S
C300 C306 1.368 . S
C301 C285 1.349 . S
C301 H293 0.950 . S
C301 C299 1.327 . S
C302 C290 1.349 . S
C302 H296 0.950 . S
C302 C303 1.327 . S
C303 H297 0.950 . S
C303 C302 1.327 . S
C303 C307 1.429 . S
C304 C287 1.574 . S
C304 H298 0.949 . S
C304 C308 1.368 . S
C305 C286 1.429 . S
C305 C299 1.429 . S
C305 C306 1.523 . S
C306 C287 1.368 . S
C306 C300 1.368 . S
C306 C305 1.523 . S
C307 C291 1.429 . S
C307 C303 1.429 . S
C307 C308 1.523 . S
C308 C292 1.368 . S
C308 C304 1.368 . S
C308 C307 1.523 . S
H309 C284 0.950 . S
H310 C286 0.950 . S
H311 C287 0.949 . S
H312 C289 0.950 . S
H313 C291 0.950 . S
C314 C315 1.349 . S
C314 C316 1.327 . S
C314 H339 0.950 . S
C315 C314 1.349 . S
C315 C331 1.349 . S
C316 C314 1.327 . S
C316 C335 1.429 . S
C316 H340 0.950 . S
C317 C334 1.574 . S
C317 C336 1.368 . S
C317 H341 0.949 . S
H318 C322 0.949 . S
C319 C320 1.349 . S
C319 C321 1.327 . S
C319 H342 0.950 . S
C320 C319 1.349 . S
C320 C332 1.349 . S
C321 C319 1.327 . S
C321 C337 1.429 . S
C321 H343 0.950 . S
C322 H318 0.949 . S
C322 C330 1.574 . S
C322 C338 1.368 . S
H323 C331 0.950 . S
H324 C329 0.950 . S
H325 C330 0.949 . S
H326 C332 0.950 . S
H327 C333 0.950 . S
H328 C334 0.949 . S
C329 H324 0.950 . S
C329 C331 1.327 . S
C329 C335 1.429 . S
C330 C322 1.574 . S
C330 H325 0.949 . S
C330 C336 1.368 . S
C331 C315 1.349 . S
C331 H323 0.950 . S
C331 C329 1.327 . S
C332 C320 1.349 . S
C332 H326 0.950 . S
C332 C333 1.327 . S
C333 H327 0.950 . S
C333 C332 1.327 . S
C333 C337 1.429 . S
C334 C317 1.574 . S
C334 H328 0.949 . S
C334 C338 1.368 . S
C335 C316 1.429 . S
C335 C329 1.429 . S
C335 C336 1.523 . S
C336 C317 1.368 . S
C336 C330 1.368 . S
C336 C335 1.523 . S
C337 C321 1.429 . S
C337 C333 1.429 . S
C337 C338 1.523 . S
C338 C322 1.368 . S
C338 C334 1.368 . S
C338 C337 1.523 . S
H339 C314 0.950 . S
H340 C316 0.950 . S
H341 C317 0.949 . S
H342 C319 0.950 . S
H343 C321 0.950 . S
C344 C345 1.349 1_556 S
C344 C346 1.327 . S
C344 H369 0.950 . S
C345 C344 1.349 1_554 S
C345 C361 1.349 . S
C346 C344 1.327 . S
C346 C365 1.429 1_556 S
C346 H370 0.950 . S
C347 C364 1.574 1_655 S
C347 C366 1.368 . S
C347 H371 0.949 . S
H348 C352 0.949 . S
C349 C350 1.349 . S
C349 C351 1.327 . S
C349 H372 0.950 . S
C350 C349 1.349 . S
C350 C362 1.349 1_554 S
C351 C349 1.327 . S
C351 C367 1.429 . S
C351 H373 0.950 . S
C352 H348 0.949 . S
C352 C360 1.574 1_455 S
C352 C368 1.368 1_556 S
H353 C361 0.950 . S
H354 C359 0.950 . S
H355 C360 0.949 . S
H356 C362 0.950 . S
H357 C363 0.950 . S
H358 C364 0.949 . S
C359 H354 0.950 . S
C359 C361 1.327 . S
C359 C365 1.429 . S
C360 C352 1.574 1_655 S
C360 H355 0.949 . S
C360 C366 1.368 1_556 S
C361 C345 1.349 . S
C361 H353 0.950 . S
C361 C359 1.327 . S
C362 C350 1.349 1_556 S
C362 H356 0.950 . S
C362 C363 1.327 . S
C363 H357 0.950 . S
C363 C362 1.327 . S
C363 C367 1.429 1_556 S
C364 C347 1.574 1_455 S
C364 H358 0.949 . S
C364 C368 1.368 . S
C365 C346 1.429 1_554 S
C365 C359 1.429 . S
C365 C366 1.523 . S
C366 C347 1.368 . S
C366 C360 1.368 1_554 S
C366 C365 1.523 . S
C367 C351 1.429 . S
C367 C363 1.429 1_554 S
C367 C368 1.523 . S
C368 C352 1.368 1_554 S
C368 C364 1.368 . S
C368 C367 1.523 . S
H369 C344 0.950 . S
H370 C346 0.950 . S
H371 C347 0.949 . S
H372 C349 0.950 . S
H373 C351 0.950 . S
C374 C375 1.349 . S
C374 C376 1.327 . S
C374 H399 0.950 . S
C375 C374 1.349 . S
C375 C391 1.349 . S
C376 C374 1.327 . S
C376 C395 1.429 . S
C376 H400 0.950 . S
C377 C394 1.574 1_565 S
C377 C396 1.368 . S
C377 H401 0.949 . S
H378 C382 0.949 . S
C379 C380 1.349 . S
C379 C381 1.327 . S
C379 H402 0.950 . S
C380 C379 1.349 . S
C380 C392 1.349 . S
C381 C379 1.327 . S
C381 C397 1.429 . S
C381 H403 0.950 . S
C382 H378 0.949 . S
C382 C390 1.574 1_545 S
C382 C398 1.368 . S
H383 C391 0.950 . S
H384 C389 0.950 . S
H385 C390 0.949 . S
H386 C392 0.950 . S
H387 C393 0.950 . S
H388 C394 0.949 . S
C389 H384 0.950 . S
C389 C391 1.327 . S
C389 C395 1.429 . S
C390 C382 1.574 1_565 S
C390 H385 0.949 . S
C390 C396 1.368 . S
C391 C375 1.349 . S
C391 H383 0.950 . S
C391 C389 1.327 . S
C392 C380 1.349 . S
C392 H386 0.950 . S
C392 C393 1.327 . S
C393 H387 0.950 . S
C393 C392 1.327 . S
C393 C397 1.429 . S
C394 C377 1.574 1_545 S
C394 H388 0.949 . S
C394 C398 1.368 . S
C395 C376 1.429 . S
C395 C389 1.429 . S
C395 C396 1.523 . S
C396 C377 1.368 . S
C396 C390 1.368 . S
C396 C395 1.523 . S
C397 C381 1.429 . S
C397 C393 1.429 . S
C397 C398 1.523 . S
C398 C382 1.368 . S
C398 C394 1.368 . S
C398 C397 1.523 . S
H399 C374 0.950 . S
H400 C376 0.950 . S
H401 C377 0.949 . S
H402 C379 0.950 . S
H403 C381 0.950 . S
C404 C405 1.349 . S
C404 C406 1.327 . S
C404 H429 0.950 . S
C405 C404 1.349 . S
C405 C421 1.349 . S
C406 C404 1.327 . S
C406 C425 1.429 . S
C406 H430 0.950 . S
C407 C424 1.574 1_455 S
C407 C426 1.368 . S
C407 H431 0.949 . S
H408 C412 0.949 . S
C409 C410 1.349 . S
C409 C411 1.327 . S
C409 H432 0.950 . S
C410 C409 1.349 . S
C410 C422 1.349 . S
C411 C409 1.327 . S
C411 C427 1.429 . S
C411 H433 0.950 . S
C412 H408 0.949 . S
C412 C420 1.574 1_655 S
C412 C428 1.368 . S
H413 C421 0.950 . S
H414 C419 0.950 . S
H415 C420 0.949 . S
H416 C422 0.950 . S
H417 C423 0.950 . S
H418 C424 0.949 . S
C419 H414 0.950 . S
C419 C421 1.327 . S
C419 C425 1.429 . S
C420 C412 1.574 1_455 S
C420 H415 0.949 . S
C420 C426 1.368 . S
C421 C405 1.349 . S
C421 H413 0.950 . S
C421 C419 1.327 . S
C422 C410 1.349 . S
C422 H416 0.950 . S
C422 C423 1.327 . S
C423 H417 0.950 . S
C423 C422 1.327 . S
C423 C427 1.429 . S
C424 C407 1.574 1_655 S
C424 H418 0.949 . S
C424 C428 1.368 . S
C425 C406 1.429 . S
C425 C419 1.429 . S
C425 C426 1.523 . S
C426 C407 1.368 . S
C426 C420 1.368 . S
C426 C425 1.523 . S
C427 C411 1.429 . S
C427 C423 1.429 . S
C427 C428 1.523 . S
C428 C412 1.368 . S
C428 C424 1.368 . S
C428 C427 1.523 . S
H429 C404 0.950 . S
H430 C406 0.950 . S
H431 C407 0.949 . S
H432 C409 0.950 . S
H433 C411 0.950 . S
C434 C435 1.349 1_556 S
C434 C436 1.327 . S
C434 H459 0.950 . S
C435 C434 1.349 1_554 S
C435 C451 1.349 . S
C436 C434 1.327 . S
C436 C455 1.429 1_556 S
C436 H460 0.950 . S
C437 C454 1.574 1_565 S
C437 C456 1.368 . S
C437 H461 0.949 . S
H438 C442 0.949 . S
C439 C440 1.349 . S
C439 C441 1.327 . S
C439 H462 0.950 . S
C440 C439 1.349 . S
C440 C452 1.349 1_554 S
C441 C439 1.327 . S
C441 C457 1.429 . S
C441 H463 0.950 . S
C442 H438 0.949 . S
C442 C450 1.574 1_545 S
C442 C458 1.368 1_556 S
H443 C451 0.950 . S
H444 C449 0.950 . S
H445 C450 0.949 . S
H446 C452 0.950 . S
H447 C453 0.950 . S
H448 C454 0.949 . S
C449 H444 0.950 . S
C449 C451 1.327 . S
C449 C455 1.429 . S
C450 C442 1.574 1_565 S
C450 H445 0.949 . S
C450 C456 1.368 1_556 S
C451 C435 1.349 . S
C451 H443 0.950 . S
C451 C449 1.327 . S
C452 C440 1.349 1_556 S
C452 H446 0.950 . S
C452 C453 1.327 . S
C453 H447 0.950 . S
C453 C452 1.327 . S
C453 C457 1.429 1_556 S
C454 C437 1.574 1_545 S
C454 H448 0.949 . S
C454 C458 1.368 . S
C455 C436 1.429 1_554 S
C455 C449 1.429 . S
C455 C456 1.523 . S
C456 C437 1.368 . S
C456 C450 1.368 1_554 S
C456 C455 1.523 . S
C457 C441 1.429 . S
C457 C453 1.429 1_554 S
C457 C458 1.523 . S
C458 C442 1.368 1_554 S
C458 C454 1.368 . S
C458 C457 1.523 . S
H459 C434 0.950 . S
H460 C436 0.950 . S
H461 C437 0.949 . S
H462 C439 0.950 . S
H463 C441 0.950 . S
C464 C465 1.349 . S
C464 C466 1.327 . S
C464 H489 0.950 . S
C465 C464 1.349 . S
C465 C481 1.349 1_554 S
C466 C464 1.327 . S
C466 C485 1.429 . S
C466 H490 0.950 . S
C467 C484 1.574 . S
C467 C486 1.368 1_556 S
C467 H491 0.949 . S
H468 C472 0.949 . S
C469 C470 1.349 1_556 S
C469 C471 1.327 . S
C469 H492 0.950 . S
C470 C469 1.349 1_554 S
C470 C482 1.349 . S
C471 C469 1.327 . S
C471 C487 1.429 1_556 S
C471 H493 0.950 . S
C472 H468 0.949 . S
C472 C480 1.574 . S
C472 C488 1.368 . S
H473 C481 0.950 . S
H474 C479 0.950 . S
H475 C480 0.949 . S
H476 C482 0.950 . S
H477 C483 0.950 . S
H478 C484 0.949 . S
C479 H474 0.950 . S
C479 C481 1.327 . S
C479 C485 1.429 1_556 S
C480 C472 1.574 . S
C480 H475 0.949 . S
C480 C486 1.368 . S
C481 C465 1.349 1_556 S
C481 H473 0.950 . S
C481 C479 1.327 . S
C482 C470 1.349 . S
C482 H476 0.950 . S
C482 C483 1.327 . S
C483 H477 0.950 . S
C483 C482 1.327 . S
C483 C487 1.429 . S
C484 C467 1.574 . S
C484 H478 0.949 . S
C484 C488 1.368 1_556 S
C485 C466 1.429 . S
C485 C479 1.429 1_554 S
C485 C486 1.523 . S
C486 C467 1.368 1_554 S
C486 C480 1.368 . S
C486 C485 1.523 . S
C487 C471 1.429 1_554 S
C487 C483 1.429 . S
C487 C488 1.523 . S
C488 C472 1.368 . S
C488 C484 1.368 1_554 S
C488 C487 1.523 . S
H489 C464 0.950 . S
H490 C466 0.950 . S
H491 C467 0.949 . S
H492 C469 0.950 . S
H493 C471 0.950 . S
C494 C495 1.349 . S
C494 C496 1.327 . S
C494 H519 0.950 . S
C495 C494 1.349 . S
C495 C511 1.349 . S
C496 C494 1.327 . S
C496 C515 1.429 . S
C496 H520 0.950 . S
C497 C514 1.574 . S
C497 C516 1.368 . S
C497 H521 0.949 . S
H498 C502 0.949 . S
C499 C500 1.349 . S
C499 C501 1.327 . S
C499 H522 0.950 . S
C500 C499 1.349 . S
C500 C512 1.349 . S
C501 C499 1.327 . S
C501 C517 1.429 . S
C501 H523 0.950 . S
C502 H498 0.949 . S
C502 C510 1.574 . S
C502 C518 1.368 . S
H503 C511 0.950 . S
H504 C509 0.950 . S
H505 C510 0.949 . S
H506 C512 0.950 . S
H507 C513 0.950 . S
H508 C514 0.949 . S
C509 H504 0.950 . S
C509 C511 1.327 . S
C509 C515 1.429 . S
C510 C502 1.574 . S
C510 H505 0.949 . S
C510 C516 1.368 . S
C511 C495 1.349 . S
C511 H503 0.950 . S
C511 C509 1.327 . S
C512 C500 1.349 . S
C512 H506 0.950 . S
C512 C513 1.327 . S
C513 H507 0.950 . S
C513 C512 1.327 . S
C513 C517 1.429 . S
C514 C497 1.574 . S
C514 H508 0.949 . S
C514 C518 1.368 . S
C515 C496 1.429 . S
C515 C509 1.429 . S
C515 C516 1.523 . S
C516 C497 1.368 . S
C516 C510 1.368 . S
C516 C515 1.523 . S
C517 C501 1.429 . S
C517 C513 1.429 . S
C517 C518 1.523 . S
C518 C502 1.368 . S
C518 C514 1.368 . S
C518 C517 1.523 . S
H519 C494 0.950 . S
H520 C496 0.950 . S
H521 C497 0.949 . S
H522 C499 0.950 . S
H523 C501 0.950 . S
C524 C525 1.349 1_556 S
C524 C526 1.327 . S
C524 H549 0.950 . S
C525 C524 1.349 1_554 S
C525 C541 1.349 . S
C526 C524 1.327 . S
C526 C545 1.429 1_556 S
C526 H550 0.950 . S
C527 C544 1.574 . S
C527 C546 1.368 . S
C527 H551 0.949 . S
H528 C532 0.949 . S
C529 C530 1.349 . S
C529 C531 1.327 . S
C529 H552 0.950 . S
C530 C529 1.349 . S
C530 C542 1.349 1_554 S
C531 C529 1.327 . S
C531 C547 1.429 . S
C531 H553 0.950 . S
C532 H528 0.949 . S
C532 C540 1.574 . S
C532 C548 1.368 1_556 S
H533 C541 0.950 . S
H534 C539 0.950 . S
H535 C540 0.949 . S
H536 C542 0.950 . S
H537 C543 0.950 . S
H538 C544 0.949 . S
C539 H534 0.950 . S
C539 C541 1.327 . S
C539 C545 1.429 . S
C540 C532 1.574 . S
C540 H535 0.949 . S
C540 C546 1.368 1_556 S
C541 C525 1.349 . S
C541 H533 0.950 . S
C541 C539 1.327 . S
C542 C530 1.349 1_556 S
C542 H536 0.950 . S
C542 C543 1.327 . S
C543 H537 0.950 . S
C543 C542 1.327 . S
C543 C547 1.429 1_556 S
C544 C527 1.574 . S
C544 H538 0.949 . S
C544 C548 1.368 . S
C545 C526 1.429 1_554 S
C545 C539 1.429 . S
C545 C546 1.523 . S
C546 C527 1.368 . S
C546 C540 1.368 1_554 S
C546 C545 1.523 . S
C547 C531 1.429 . S
C547 C543 1.429 1_554 S
C547 C548 1.523 . S
C548 C532 1.368 1_554 S
C548 C544 1.368 . S
C548 C547 1.523 . S
H549 C524 0.950 . S
H550 C526 0.950 . S
H551 C527 0.949 . S
H552 C529 0.950 . S
H553 C531 0.950 . S
C554 C555 1.349 . S
C554 C556 1.327 . S
C554 H579 0.950 . S
C555 C554 1.349 . S
C555 C571 1.349 . S
C556 C554 1.327 . S
C556 C575 1.429 . S
C556 H580 0.950 . S
C557 C574 1.574 . S
C557 C576 1.368 . S
C557 H581 0.949 . S
H558 C562 0.949 . S
C559 C560 1.349 . S
C559 C561 1.327 . S
C559 H582 0.950 . S
C560 C559 1.349 . S
C560 C572 1.349 . S
C561 C559 1.327 . S
C561 C577 1.429 . S
C561 H583 0.950 . S
C562 H558 0.949 . S
C562 C570 1.574 . S
C562 C578 1.368 . S
H563 C571 0.950 . S
H564 C569 0.950 . S
H565 C570 0.949 . S
H566 C572 0.950 . S
H567 C573 0.950 . S
H568 C574 0.949 . S
C569 H564 0.950 . S
C569 C571 1.327 . S
C569 C575 1.429 . S
C570 C562 1.574 . S
C570 H565 0.949 . S
C570 C576 1.368 . S
C571 C555 1.349 . S
C571 H563 0.950 . S
C571 C569 1.327 . S
C572 C560 1.349 . S
C572 H566 0.950 . S
C572 C573 1.327 . S
C573 H567 0.950 . S
C573 C572 1.327 . S
C573 C577 1.429 . S
C574 C557 1.574 . S
C574 H568 0.949 . S
C574 C578 1.368 . S
C575 C556 1.429 . S
C575 C569 1.429 . S
C575 C576 1.523 . S
C576 C557 1.368 . S
C576 C570 1.368 . S
C576 C575 1.523 . S
C577 C561 1.429 . S
C577 C573 1.429 . S
C577 C578 1.523 . S
C578 C562 1.368 . S
C578 C574 1.368 . S
C578 C577 1.523 . S
H579 C554 0.950 . S
H580 C556 0.950 . S
H581 C557 0.949 . S
H582 C559 0.950 . S
H583 C561 0.950 . S
C105 C5 1.516 . S
C110 C53 1.513 . S
C135 C16 1.482 . S
C140 C68 1.482 . S
C165 C83 1.507 . S
C170 C31 1.507 . S
C195 C94 1.481 . S
C200 C42 1.481 . S
C225 C88 1.651 . S
C230 C36 1.651 . S
C255 C92 1.626 . S
C260 C40 1.625 . S
C285 C10 1.642 . S
C290 C55 1.645 . S
C315 C14 1.623 . S
C320 C66 1.623 . S
C345 C27 1.988 . S
C350 C1 1.988 . S
C375 C49 2.074 . S
C380 C23 2.073 . S
C405 C62 1.988 . S
C410 C79 1.988 . S
C435 C101 2.073 . S
C440 C75 2.073 . S
C465 C3 1.924 . S
C470 C70 1.998 . S
C495 C81 1.923 . S
C500 C18 1.998 . S
C525 C29 1.924 . S
C530 C96 1.998 . S
C555 C44 1.998 . S
C560 C57 1.926 . S
