# Generated by pormake.
# Topology lcs-e, (6)-cn, num edge types: 1
# Building blocks:
#     Node 0, Type 0, BuildingBlock: BETDEL_clean_sbu_0, # of connection points: 6
#     Node 1, Type 0, BuildingBlock: BETDEL_clean_sbu_0, # of connection points: 6
#     Node 2, Type 0, BuildingBlock: BETDEL_clean_sbu_0, # of connection points: 6
#     Node 3, Type 0, BuildingBlock: BETDEL_clean_sbu_0, # of connection points: 6
#     Node 4, Type 0, BuildingBlock: BETDEL_clean_sbu_0, # of connection points: 6
#     Node 5, Type 0, BuildingBlock: BETDEL_clean_sbu_0, # of connection points: 6
#     Node 6, Type 0, BuildingBlock: BETDEL_clean_sbu_0, # of connection points: 6
#     Node 7, Type 0, BuildingBlock: BETDEL_clean_sbu_0, # of connection points: 6
#     Node 8, Type 0, BuildingBlock: BETDEL_clean_sbu_0, # of connection points: 6
#     Node 9, Type 0, BuildingBlock: BETDEL_clean_sbu_0, # of connection points: 6
#     Node 10, Type 0, BuildingBlock: BETDEL_clean_sbu_0, # of connection points: 6
#     Node 11, Type 0, BuildingBlock: BETDEL_clean_sbu_0, # of connection points: 6
#     Node 12, Type 0, BuildingBlock: BETDEL_clean_sbu_0, # of connection points: 6
#     Node 13, Type 0, BuildingBlock: BETDEL_clean_sbu_0, # of connection points: 6
#     Node 14, Type 0, BuildingBlock: BETDEL_clean_sbu_0, # of connection points: 6
#     Node 15, Type 0, BuildingBlock: BETDEL_clean_sbu_0, # of connection points: 6
#     Node 16, Type 0, BuildingBlock: BETDEL_clean_sbu_0, # of connection points: 6
#     Node 17, Type 0, BuildingBlock: BETDEL_clean_sbu_0, # of connection points: 6
#     Node 18, Type 0, BuildingBlock: BETDEL_clean_sbu_0, # of connection points: 6
#     Node 19, Type 0, BuildingBlock: BETDEL_clean_sbu_0, # of connection points: 6
#     Node 20, Type 0, BuildingBlock: BETDEL_clean_sbu_0, # of connection points: 6
#     Node 21, Type 0, BuildingBlock: BETDEL_clean_sbu_0, # of connection points: 6
#     Node 22, Type 0, BuildingBlock: BETDEL_clean_sbu_0, # of connection points: 6
#     Node 23, Type 0, BuildingBlock: BETDEL_clean_sbu_0, # of connection points: 6
#     Node 24, Type 0, BuildingBlock: BETDEL_clean_sbu_0, # of connection points: 6
#     Node 25, Type 0, BuildingBlock: BETDEL_clean_sbu_0, # of connection points: 6
#     Node 26, Type 0, BuildingBlock: BETDEL_clean_sbu_0, # of connection points: 6
#     Node 27, Type 0, BuildingBlock: BETDEL_clean_sbu_0, # of connection points: 6
#     Node 28, Type 0, BuildingBlock: BETDEL_clean_sbu_0, # of connection points: 6
#     Node 29, Type 0, BuildingBlock: BETDEL_clean_sbu_0, # of connection points: 6
#     Node 30, Type 0, BuildingBlock: BETDEL_clean_sbu_0, # of connection points: 6
#     Node 31, Type 0, BuildingBlock: BETDEL_clean_sbu_0, # of connection points: 6
#     Node 32, Type 0, BuildingBlock: BETDEL_clean_sbu_0, # of connection points: 6
#     Node 33, Type 0, BuildingBlock: BETDEL_clean_sbu_0, # of connection points: 6
#     Node 34, Type 0, BuildingBlock: BETDEL_clean_sbu_0, # of connection points: 6
#     Node 35, Type 0, BuildingBlock: BETDEL_clean_sbu_0, # of connection points: 6
#     Node 36, Type 0, BuildingBlock: BETDEL_clean_sbu_0, # of connection points: 6
#     Node 37, Type 0, BuildingBlock: BETDEL_clean_sbu_0, # of connection points: 6
#     Node 38, Type 0, BuildingBlock: BETDEL_clean_sbu_0, # of connection points: 6
#     Node 39, Type 0, BuildingBlock: BETDEL_clean_sbu_0, # of connection points: 6
#     Node 40, Type 0, BuildingBlock: BETDEL_clean_sbu_0, # of connection points: 6
#     Node 41, Type 0, BuildingBlock: BETDEL_clean_sbu_0, # of connection points: 6
#     Node 42, Type 0, BuildingBlock: BETDEL_clean_sbu_0, # of connection points: 6
#     Node 43, Type 0, BuildingBlock: BETDEL_clean_sbu_0, # of connection points: 6
#     Node 44, Type 0, BuildingBlock: BETDEL_clean_sbu_0, # of connection points: 6
#     Node 45, Type 0, BuildingBlock: BETDEL_clean_sbu_0, # of connection points: 6
#     Node 46, Type 0, BuildingBlock: BETDEL_clean_sbu_0, # of connection points: 6
#     Node 47, Type 0, BuildingBlock: BETDEL_clean_sbu_0, # of connection points: 6
#     Edge 48, Type (0, 0), BuildingBlock: XIVTED_clean_linker_0, # of connection points: 2
#     Edge 49, Type (0, 0), BuildingBlock: XIVTED_clean_linker_0, # of connection points: 2
#     Edge 50, Type (0, 0), BuildingBlock: XIVTED_clean_linker_0, # of connection points: 2
#     Edge 51, Type (0, 0), BuildingBlock: XIVTED_clean_linker_0, # of connection points: 2
#     Edge 52, Type (0, 0), BuildingBlock: XIVTED_clean_linker_0, # of connection points: 2
#     Edge 53, Type (0, 0), BuildingBlock: XIVTED_clean_linker_0, # of connection points: 2
#     Edge 54, Type (0, 0), BuildingBlock: XIVTED_clean_linker_0, # of connection points: 2
#     Edge 55, Type (0, 0), BuildingBlock: XIVTED_clean_linker_0, # of connection points: 2
#     Edge 56, Type (0, 0), BuildingBlock: XIVTED_clean_linker_0, # of connection points: 2
#     Edge 57, Type (0, 0), BuildingBlock: XIVTED_clean_linker_0, # of connection points: 2
#     Edge 58, Type (0, 0), BuildingBlock: XIVTED_clean_linker_0, # of connection points: 2
#     Edge 59, Type (0, 0), BuildingBlock: XIVTED_clean_linker_0, # of connection points: 2
#     Edge 60, Type (0, 0), BuildingBlock: XIVTED_clean_linker_0, # of connection points: 2
#     Edge 61, Type (0, 0), BuildingBlock: XIVTED_clean_linker_0, # of connection points: 2
#     Edge 62, Type (0, 0), BuildingBlock: XIVTED_clean_linker_0, # of connection points: 2
#     Edge 63, Type (0, 0), BuildingBlock: XIVTED_clean_linker_0, # of connection points: 2
#     Edge 64, Type (0, 0), BuildingBlock: XIVTED_clean_linker_0, # of connection points: 2
#     Edge 65, Type (0, 0), BuildingBlock: XIVTED_clean_linker_0, # of connection points: 2
#     Edge 66, Type (0, 0), BuildingBlock: XIVTED_clean_linker_0, # of connection points: 2
#     Edge 67, Type (0, 0), BuildingBlock: XIVTED_clean_linker_0, # of connection points: 2
#     Edge 68, Type (0, 0), BuildingBlock: XIVTED_clean_linker_0, # of connection points: 2
#     Edge 69, Type (0, 0), BuildingBlock: XIVTED_clean_linker_0, # of connection points: 2
#     Edge 70, Type (0, 0), BuildingBlock: XIVTED_clean_linker_0, # of connection points: 2
#     Edge 71, Type (0, 0), BuildingBlock: XIVTED_clean_linker_0, # of connection points: 2
#     Edge 72, Type (0, 0), BuildingBlock: XIVTED_clean_linker_0, # of connection points: 2
#     Edge 73, Type (0, 0), BuildingBlock: XIVTED_clean_linker_0, # of connection points: 2
#     Edge 74, Type (0, 0), BuildingBlock: XIVTED_clean_linker_0, # of connection points: 2
#     Edge 75, Type (0, 0), BuildingBlock: XIVTED_clean_linker_0, # of connection points: 2
#     Edge 76, Type (0, 0), BuildingBlock: XIVTED_clean_linker_0, # of connection points: 2
#     Edge 77, Type (0, 0), BuildingBlock: XIVTED_clean_linker_0, # of connection points: 2
#     Edge 78, Type (0, 0), BuildingBlock: XIVTED_clean_linker_0, # of connection points: 2
#     Edge 79, Type (0, 0), BuildingBlock: XIVTED_clean_linker_0, # of connection points: 2
#     Edge 80, Type (0, 0), BuildingBlock: XIVTED_clean_linker_0, # of connection points: 2
#     Edge 81, Type (0, 0), BuildingBlock: XIVTED_clean_linker_0, # of connection points: 2
#     Edge 82, Type (0, 0), BuildingBlock: XIVTED_clean_linker_0, # of connection points: 2
#     Edge 83, Type (0, 0), BuildingBlock: XIVTED_clean_linker_0, # of connection points: 2
#     Edge 84, Type (0, 0), BuildingBlock: XIVTED_clean_linker_0, # of connection points: 2
#     Edge 85, Type (0, 0), BuildingBlock: XIVTED_clean_linker_0, # of connection points: 2
#     Edge 86, Type (0, 0), BuildingBlock: XIVTED_clean_linker_0, # of connection points: 2
#     Edge 87, Type (0, 0), BuildingBlock: XIVTED_clean_linker_0, # of connection points: 2
#     Edge 88, Type (0, 0), BuildingBlock: XIVTED_clean_linker_0, # of connection points: 2
#     Edge 89, Type (0, 0), BuildingBlock: XIVTED_clean_linker_0, # of connection points: 2
#     Edge 90, Type (0, 0), BuildingBlock: XIVTED_clean_linker_0, # of connection points: 2
#     Edge 91, Type (0, 0), BuildingBlock: XIVTED_clean_linker_0, # of connection points: 2
#     Edge 92, Type (0, 0), BuildingBlock: XIVTED_clean_linker_0, # of connection points: 2
#     Edge 93, Type (0, 0), BuildingBlock: XIVTED_clean_linker_0, # of connection points: 2
#     Edge 94, Type (0, 0), BuildingBlock: XIVTED_clean_linker_0, # of connection points: 2
#     Edge 95, Type (0, 0), BuildingBlock: XIVTED_clean_linker_0, # of connection points: 2
#     Edge 96, Type (0, 0), BuildingBlock: XIVTED_clean_linker_0, # of connection points: 2
#     Edge 97, Type (0, 0), BuildingBlock: XIVTED_clean_linker_0, # of connection points: 2
#     Edge 98, Type (0, 0), BuildingBlock: XIVTED_clean_linker_0, # of connection points: 2
#     Edge 99, Type (0, 0), BuildingBlock: XIVTED_clean_linker_0, # of connection points: 2
#     Edge 100, Type (0, 0), BuildingBlock: XIVTED_clean_linker_0, # of connection points: 2
#     Edge 101, Type (0, 0), BuildingBlock: XIVTED_clean_linker_0, # of connection points: 2
#     Edge 102, Type (0, 0), BuildingBlock: XIVTED_clean_linker_0, # of connection points: 2
#     Edge 103, Type (0, 0), BuildingBlock: XIVTED_clean_linker_0, # of connection points: 2
#     Edge 104, Type (0, 0), BuildingBlock: XIVTED_clean_linker_0, # of connection points: 2
#     Edge 105, Type (0, 0), BuildingBlock: XIVTED_clean_linker_0, # of connection points: 2
#     Edge 106, Type (0, 0), BuildingBlock: XIVTED_clean_linker_0, # of connection points: 2
#     Edge 107, Type (0, 0), BuildingBlock: XIVTED_clean_linker_0, # of connection points: 2
#     Edge 108, Type (0, 0), BuildingBlock: XIVTED_clean_linker_0, # of connection points: 2
#     Edge 109, Type (0, 0), BuildingBlock: XIVTED_clean_linker_0, # of connection points: 2
#     Edge 110, Type (0, 0), BuildingBlock: XIVTED_clean_linker_0, # of connection points: 2
#     Edge 111, Type (0, 0), BuildingBlock: XIVTED_clean_linker_0, # of connection points: 2
#     Edge 112, Type (0, 0), BuildingBlock: XIVTED_clean_linker_0, # of connection points: 2
#     Edge 113, Type (0, 0), BuildingBlock: XIVTED_clean_linker_0, # of connection points: 2
#     Edge 114, Type (0, 0), BuildingBlock: XIVTED_clean_linker_0, # of connection points: 2
#     Edge 115, Type (0, 0), BuildingBlock: XIVTED_clean_linker_0, # of connection points: 2
#     Edge 116, Type (0, 0), BuildingBlock: XIVTED_clean_linker_0, # of connection points: 2
#     Edge 117, Type (0, 0), BuildingBlock: XIVTED_clean_linker_0, # of connection points: 2
#     Edge 118, Type (0, 0), BuildingBlock: XIVTED_clean_linker_0, # of connection points: 2
#     Edge 119, Type (0, 0), BuildingBlock: XIVTED_clean_linker_0, # of connection points: 2
#     Edge 120, Type (0, 0), BuildingBlock: XIVTED_clean_linker_0, # of connection points: 2
#     Edge 121, Type (0, 0), BuildingBlock: XIVTED_clean_linker_0, # of connection points: 2
#     Edge 122, Type (0, 0), BuildingBlock: XIVTED_clean_linker_0, # of connection points: 2
#     Edge 123, Type (0, 0), BuildingBlock: XIVTED_clean_linker_0, # of connection points: 2
#     Edge 124, Type (0, 0), BuildingBlock: XIVTED_clean_linker_0, # of connection points: 2
#     Edge 125, Type (0, 0), BuildingBlock: XIVTED_clean_linker_0, # of connection points: 2
#     Edge 126, Type (0, 0), BuildingBlock: XIVTED_clean_linker_0, # of connection points: 2
#     Edge 127, Type (0, 0), BuildingBlock: XIVTED_clean_linker_0, # of connection points: 2
#     Edge 128, Type (0, 0), BuildingBlock: XIVTED_clean_linker_0, # of connection points: 2
#     Edge 129, Type (0, 0), BuildingBlock: XIVTED_clean_linker_0, # of connection points: 2
#     Edge 130, Type (0, 0), BuildingBlock: XIVTED_clean_linker_0, # of connection points: 2
#     Edge 131, Type (0, 0), BuildingBlock: XIVTED_clean_linker_0, # of connection points: 2
#     Edge 132, Type (0, 0), BuildingBlock: XIVTED_clean_linker_0, # of connection points: 2
#     Edge 133, Type (0, 0), BuildingBlock: XIVTED_clean_linker_0, # of connection points: 2
#     Edge 134, Type (0, 0), BuildingBlock: XIVTED_clean_linker_0, # of connection points: 2
#     Edge 135, Type (0, 0), BuildingBlock: XIVTED_clean_linker_0, # of connection points: 2
#     Edge 136, Type (0, 0), BuildingBlock: XIVTED_clean_linker_0, # of connection points: 2
#     Edge 137, Type (0, 0), BuildingBlock: XIVTED_clean_linker_0, # of connection points: 2
#     Edge 138, Type (0, 0), BuildingBlock: XIVTED_clean_linker_0, # of connection points: 2
#     Edge 139, Type (0, 0), BuildingBlock: XIVTED_clean_linker_0, # of connection points: 2
#     Edge 140, Type (0, 0), BuildingBlock: XIVTED_clean_linker_0, # of connection points: 2
#     Edge 141, Type (0, 0), BuildingBlock: XIVTED_clean_linker_0, # of connection points: 2
#     Edge 142, Type (0, 0), BuildingBlock: XIVTED_clean_linker_0, # of connection points: 2
#     Edge 143, Type (0, 0), BuildingBlock: XIVTED_clean_linker_0, # of connection points: 2
#     Edge 144, Type (0, 0), BuildingBlock: XIVTED_clean_linker_0, # of connection points: 2
#     Edge 145, Type (0, 0), BuildingBlock: XIVTED_clean_linker_0, # of connection points: 2
#     Edge 146, Type (0, 0), BuildingBlock: XIVTED_clean_linker_0, # of connection points: 2
#     Edge 147, Type (0, 0), BuildingBlock: XIVTED_clean_linker_0, # of connection points: 2
#     Edge 148, Type (0, 0), BuildingBlock: XIVTED_clean_linker_0, # of connection points: 2
#     Edge 149, Type (0, 0), BuildingBlock: XIVTED_clean_linker_0, # of connection points: 2
#     Edge 150, Type (0, 0), BuildingBlock: XIVTED_clean_linker_0, # of connection points: 2
#     Edge 151, Type (0, 0), BuildingBlock: XIVTED_clean_linker_0, # of connection points: 2
#     Edge 152, Type (0, 0), BuildingBlock: XIVTED_clean_linker_0, # of connection points: 2
#     Edge 153, Type (0, 0), BuildingBlock: XIVTED_clean_linker_0, # of connection points: 2
#     Edge 154, Type (0, 0), BuildingBlock: XIVTED_clean_linker_0, # of connection points: 2
#     Edge 155, Type (0, 0), BuildingBlock: XIVTED_clean_linker_0, # of connection points: 2
#     Edge 156, Type (0, 0), BuildingBlock: XIVTED_clean_linker_0, # of connection points: 2
#     Edge 157, Type (0, 0), BuildingBlock: XIVTED_clean_linker_0, # of connection points: 2
#     Edge 158, Type (0, 0), BuildingBlock: XIVTED_clean_linker_0, # of connection points: 2
#     Edge 159, Type (0, 0), BuildingBlock: XIVTED_clean_linker_0, # of connection points: 2
#     Edge 160, Type (0, 0), BuildingBlock: XIVTED_clean_linker_0, # of connection points: 2
#     Edge 161, Type (0, 0), BuildingBlock: XIVTED_clean_linker_0, # of connection points: 2
#     Edge 162, Type (0, 0), BuildingBlock: XIVTED_clean_linker_0, # of connection points: 2
#     Edge 163, Type (0, 0), BuildingBlock: XIVTED_clean_linker_0, # of connection points: 2
#     Edge 164, Type (0, 0), BuildingBlock: XIVTED_clean_linker_0, # of connection points: 2
#     Edge 165, Type (0, 0), BuildingBlock: XIVTED_clean_linker_0, # of connection points: 2
#     Edge 166, Type (0, 0), BuildingBlock: XIVTED_clean_linker_0, # of connection points: 2
#     Edge 167, Type (0, 0), BuildingBlock: XIVTED_clean_linker_0, # of connection points: 2
#     Edge 168, Type (0, 0), BuildingBlock: XIVTED_clean_linker_0, # of connection points: 2
#     Edge 169, Type (0, 0), BuildingBlock: XIVTED_clean_linker_0, # of connection points: 2
#     Edge 170, Type (0, 0), BuildingBlock: XIVTED_clean_linker_0, # of connection points: 2
#     Edge 171, Type (0, 0), BuildingBlock: XIVTED_clean_linker_0, # of connection points: 2
#     Edge 172, Type (0, 0), BuildingBlock: XIVTED_clean_linker_0, # of connection points: 2
#     Edge 173, Type (0, 0), BuildingBlock: XIVTED_clean_linker_0, # of connection points: 2
#     Edge 174, Type (0, 0), BuildingBlock: XIVTED_clean_linker_0, # of connection points: 2
#     Edge 175, Type (0, 0), BuildingBlock: XIVTED_clean_linker_0, # of connection points: 2
#     Edge 176, Type (0, 0), BuildingBlock: XIVTED_clean_linker_0, # of connection points: 2
#     Edge 177, Type (0, 0), BuildingBlock: XIVTED_clean_linker_0, # of connection points: 2
#     Edge 178, Type (0, 0), BuildingBlock: XIVTED_clean_linker_0, # of connection points: 2
#     Edge 179, Type (0, 0), BuildingBlock: XIVTED_clean_linker_0, # of connection points: 2
#     Edge 180, Type (0, 0), BuildingBlock: XIVTED_clean_linker_0, # of connection points: 2
#     Edge 181, Type (0, 0), BuildingBlock: XIVTED_clean_linker_0, # of connection points: 2
#     Edge 182, Type (0, 0), BuildingBlock: XIVTED_clean_linker_0, # of connection points: 2
#     Edge 183, Type (0, 0), BuildingBlock: XIVTED_clean_linker_0, # of connection points: 2
#     Edge 184, Type (0, 0), BuildingBlock: XIVTED_clean_linker_0, # of connection points: 2
#     Edge 185, Type (0, 0), BuildingBlock: XIVTED_clean_linker_0, # of connection points: 2
#     Edge 186, Type (0, 0), BuildingBlock: XIVTED_clean_linker_0, # of connection points: 2
#     Edge 187, Type (0, 0), BuildingBlock: XIVTED_clean_linker_0, # of connection points: 2
#     Edge 188, Type (0, 0), BuildingBlock: XIVTED_clean_linker_0, # of connection points: 2
#     Edge 189, Type (0, 0), BuildingBlock: XIVTED_clean_linker_0, # of connection points: 2
#     Edge 190, Type (0, 0), BuildingBlock: XIVTED_clean_linker_0, # of connection points: 2
#     Edge 191, Type (0, 0), BuildingBlock: XIVTED_clean_linker_0, # of connection points: 2
# Relax obj value: 0.433
# Max RMSD: 0.319
# Mean RMSD: 0.284
data_MOF--net-lcs-e--node1-BETDEL_clean_sbu_0--edge1-XIVTED_clean_linker_0
_symmetry_space_group_name_H-M    P1
_symmetry_Int_Tables_number       1
_symmetry_cell_setting            triclinic
loop_
_symmetry_equiv_pos_as_xyz
'x, y, z'
_cell_length_a     57.509869
_cell_length_b     58.8438
_cell_length_c     57.023779
_cell_angle_alpha  88.500237
_cell_angle_beta   89.780425
_cell_angle_gamma 88.340419
loop_
_atom_site_label
_atom_site_type_symbol
_atom_site_fract_x
_atom_site_fract_y
_atom_site_fract_z
_atom_type_partial_charge
Dy0 Dy 0.99567 0.37139 0.25693 0.0
C1 C 0.02028 0.44006 0.32352 0.0
C2 C 0.99544 0.328 0.23898 0.0
Dy3 Dy 0.01091 0.40848 0.29109 0.0
O4 O 0.97703 0.34149 0.24106 0.0
O5 O 0.01357 0.33884 0.2456 0.0
O6 O 0.98099 0.40029 0.23282 0.0
O7 O 0.98142 0.40407 0.26885 0.0
C8 C 0.97718 0.4145 0.2498 0.0
C9 C 0.03961 0.37156 0.2889 0.0
O10 O 0.98247 0.39308 0.31228 0.0
O11 O 0.975 0.36195 0.28918 0.0
O12 O 0.01949 0.41831 0.3275 0.0
O13 O 0.01516 0.44477 0.30167 0.0
O14 O 0.04644 0.39224 0.29033 0.0
O15 O 0.0177 0.37209 0.28817 0.0
O16 O 0.02789 0.38516 0.23997 0.0
O17 O 0.02613 0.42044 0.25718 0.0
C18 C 0.97236 0.37347 0.30883 0.0
C19 C 0.03469 0.40645 0.2413 0.0
Dy20 Dy 0.87087 0.74732 0.54688 0.0
C21 C 0.85757 0.82458 0.48445 0.0
C22 C 0.88288 0.71247 0.57719 0.0
Dy23 Dy 0.86942 0.78697 0.51052 0.0
O24 O 0.89423 0.71762 0.55814 0.0
O25 O 0.86467 0.72569 0.57896 0.0
O26 O 0.83884 0.7612 0.56505 0.0
O27 O 0.86123 0.78308 0.54731 0.0
C28 C 0.842 0.78192 0.55764 0.0
C29 C 0.90269 0.7559 0.50004 0.0
O30 O 0.8928 0.8017 0.53742 0.0
O31 O 0.89978 0.76867 0.55972 0.0
O32 O 0.87414 0.82334 0.49981 0.0
O33 O 0.84755 0.80518 0.48304 0.0
O34 O 0.90087 0.77602 0.49035 0.0
O35 O 0.88362 0.75189 0.51076 0.0
O36 O 0.83971 0.73733 0.52602 0.0
O37 O 0.83334 0.77325 0.5092 0.0
C38 C 0.90441 0.79011 0.55417 0.0
C39 C 0.82574 0.75294 0.51563 0.0
Dy40 Dy 0.45922 0.62275 0.72717 0.0
C41 C 0.51297 0.63001 0.81139 0.0
C42 C 0.43758 0.60799 0.6881 0.0
Dy43 Dy 0.49071 0.62439 0.76991 0.0
O44 O 0.43376 0.62754 0.69768 0.0
O45 O 0.45443 0.59707 0.69908 0.0
O46 O 0.43044 0.64306 0.74386 0.0
O47 O 0.46549 0.64762 0.75334 0.0
C48 C 0.44455 0.65263 0.75819 0.0
C49 C 0.49903 0.58712 0.74282 0.0
O50 O 0.45874 0.61042 0.78706 0.0
O51 O 0.43845 0.6026 0.7531 0.0
O52 O 0.52316 0.62607 0.79151 0.0
O53 O 0.49056 0.63074 0.8087 0.0
O54 O 0.51496 0.59829 0.75322 0.0
O55 O 0.47986 0.597 0.74736 0.0
O56 O 0.4849 0.6492 0.71374 0.0
O57 O 0.50214 0.65573 0.74956 0.0
C58 C 0.44048 0.60223 0.77628 0.0
C59 C 0.49824 0.66175 0.72722 0.0
Dy60 Dy 0.61103 0.22246 0.01438 0.0
C61 C 0.6041 0.27664 0.0964 0.0
C62 C 0.623 0.19951 0.97517 0.0
Dy63 Dy 0.61258 0.25226 0.05745 0.0
O64 O 0.60628 0.19433 0.98943 0.0
O65 O 0.63294 0.21768 0.98205 0.0
O66 O 0.57809 0.20558 0.02717 0.0
O67 O 0.60132 0.21861 0.0508 0.0
C68 C 0.58159 0.21037 0.04899 0.0
C69 C 0.64737 0.26026 0.02737 0.0
O70 O 0.63314 0.22163 0.0712 0.0
O71 O 0.63967 0.20484 0.0353 0.0
O72 O 0.61231 0.25589 0.09647 0.0
O73 O 0.60067 0.28419 0.07504 0.0
O74 O 0.64792 0.26475 0.04944 0.0
O75 O 0.62676 0.25521 0.02152 0.0
O76 O 0.58152 0.24653 0.00473 0.0
O77 O 0.57636 0.25882 0.0427 0.0
C78 C 0.64369 0.20598 0.05815 0.0
C79 C 0.56835 0.25607 0.02113 0.0
Dy80 Dy 0.98803 0.62779 0.20453 0.0
C81 C 0.07014 0.61357 0.26227 0.0
C82 C 0.94905 0.6414 0.18027 0.0
Dy83 Dy 0.0296 0.62323 0.23866 0.0
O84 O 0.96059 0.62236 0.17765 0.0
O85 O 0.95827 0.65273 0.19701 0.0
O86 O 0.00753 0.61057 0.17581 0.0
O87 O 0.0158 0.60297 0.21106 0.0
C88 C 0.02224 0.60022 0.19005 0.0
C89 C 0.00048 0.6603 0.24644 0.0
O90 O 0.04674 0.64085 0.20799 0.0
O91 O 0.01328 0.65073 0.18655 0.0
O92 O 0.04996 0.61705 0.27205 0.0
O93 O 0.06828 0.61589 0.23965 0.0
O94 O 0.01136 0.64838 0.26271 0.0
O95 O 0.00587 0.65128 0.22731 0.0
O96 O 0.97478 0.60027 0.2295 0.0
O97 O 0.01001 0.59107 0.24757 0.0
C98 C 0.03617 0.65094 0.18963 0.0
C99 C 0.98816 0.58608 0.24256 0.0
Dy100 Dy 0.62318 0.79358 0.50623 0.0
C101 C 0.61137 0.72684 0.43643 0.0
C102 C 0.62798 0.82336 0.54162 0.0
Dy103 Dy 0.62043 0.75411 0.47218 0.0
O104 O 0.61243 0.82505 0.52523 0.0
O105 O 0.64043 0.80476 0.53928 0.0
O106 O 0.62184 0.819 0.47607 0.0
O107 O 0.60489 0.78797 0.47399 0.0
C108 C 0.61011 0.80586 0.46283 0.0
C109 C 0.65314 0.74579 0.50499 0.0
O110 O 0.64711 0.77554 0.45465 0.0
O111 O 0.65751 0.79514 0.48756 0.0
O112 O 0.60687 0.72183 0.45834 0.0
O113 O 0.62065 0.74663 0.43418 0.0
O114 O 0.65162 0.73497 0.48563 0.0
O115 O 0.63433 0.7575 0.50804 0.0
O116 O 0.58626 0.78192 0.51437 0.0
O117 O 0.58398 0.75413 0.48621 0.0
C118 C 0.66129 0.78894 0.46566 0.0
C119 C 0.57412 0.76703 0.50245 0.0
Dy120 Dy 0.50514 0.37451 0.71128 0.0
C121 C 0.42804 0.37702 0.7733 0.0
C122 C 0.54396 0.36695 0.68478 0.0
Dy123 Dy 0.46632 0.37321 0.74547 0.0
O124 O 0.52881 0.38342 0.68154 0.0
O125 O 0.53847 0.35508 0.70347 0.0
O126 O 0.48391 0.39006 0.68242 0.0
O127 O 0.47554 0.39754 0.71771 0.0
C128 C 0.46906 0.39967 0.69652 0.0
C129 C 0.49744 0.33717 0.75222 0.0
O130 O 0.44832 0.35758 0.71569 0.0
O131 O 0.48239 0.34856 0.69556 0.0
O132 O 0.44931 0.37913 0.78015 0.0
O133 O 0.42758 0.37247 0.75114 0.0
O134 O 0.48765 0.34873 0.76879 0.0
O135 O 0.49108 0.34678 0.73326 0.0
O136 O 0.51708 0.40217 0.73539 0.0
O137 O 0.48154 0.4071 0.75336 0.0
C138 C 0.45955 0.34731 0.69852 0.0
C139 C 0.50251 0.41468 0.74826 0.0
Dy140 Dy 0.86158 0.25588 0.96195 0.0
C141 C 0.86073 0.18228 0.02975 0.0
C142 C 0.87063 0.29104 0.93141 0.0
Dy143 Dy 0.86622 0.21769 0.99908 0.0
O144 O 0.85642 0.27487 0.92766 0.0
O145 O 0.87943 0.28842 0.95228 0.0
O146 O 0.83129 0.23876 0.94453 0.0
O147 O 0.85617 0.21978 0.96306 0.0
C148 C 0.83696 0.21867 0.95308 0.0
C149 C 0.89735 0.24973 0.00509 0.0
O150 O 0.88856 0.20302 0.97025 0.0
O151 O 0.89395 0.2371 0.95007 0.0
O152 O 0.87104 0.18091 0.00956 0.0
O153 O 0.85342 0.20301 0.03323 0.0
O154 O 0.89977 0.22897 0.01284 0.0
O155 O 0.87659 0.25365 0.9977 0.0
O156 O 0.83022 0.26534 0.98355 0.0
O157 O 0.82848 0.22974 0.00174 0.0
C158 C 0.89929 0.21522 0.95369 0.0
C159 C 0.81854 0.24967 0.99549 0.0
Dy160 Dy 0.30375 0.00441 0.36494 0.0
C161 C 0.23358 0.07466 0.3731 0.0
C162 C 0.34113 0.97748 0.35451 0.0
Dy163 Dy 0.2626 0.03905 0.36328 0.0
O164 O 0.34185 0.99694 0.36452 0.0
O165 O 0.31966 0.97218 0.35055 0.0
O166 O 0.31499 0.01779 0.39991 0.0
O167 O 0.29778 0.03896 0.3758 0.0
C168 C 0.30562 0.0379 0.39624 0.0
C169 C 0.25745 0.00401 0.33331 0.0
O170 O 0.28894 0.05842 0.3415 0.0
O171 O 0.31377 0.02721 0.33486 0.0
O172 O 0.23983 0.06926 0.35192 0.0
O173 O 0.24306 0.06066 0.3884 0.0
O174 O 0.24035 0.01445 0.34401 0.0
O175 O 0.27582 0.01311 0.33983 0.0
O176 O 0.28031 0.98725 0.39082 0.0
O177 O 0.25807 0.01974 0.39787 0.0
C178 C 0.307 0.04863 0.33057 0.0
C179 C 0.26593 0.99911 0.40436 0.0
Dy180 Dy 0.21345 0.99751 0.62056 0.0
C181 C 0.27245 0.07432 0.60801 0.0
C182 C 0.18601 0.96209 0.63253 0.0
Dy183 Dy 0.24962 0.03504 0.61666 0.0
O184 O 0.18289 0.97583 0.61461 0.0
O185 O 0.20501 0.96704 0.64342 0.0
O186 O 0.18626 0.01929 0.6024 0.0
O187 O 0.22185 0.02359 0.5948 0.0
C188 C 0.20154 0.03159 0.59154 0.0
C189 C 0.25669 0.00562 0.65415 0.0
O190 O 0.21943 0.05401 0.63286 0.0
O191 O 0.19955 0.02247 0.64663 0.0
O192 O 0.28005 0.05418 0.60239 0.0
O193 O 0.25259 0.07296 0.61869 0.0
O194 O 0.27319 0.01567 0.64259 0.0
O195 O 0.2379 0.01233 0.64477 0.0
O196 O 0.23771 0.98235 0.5931 0.0
O197 O 0.25779 0.01513 0.58407 0.0
C198 C 0.20286 0.04472 0.64584 0.0
C199 C 0.2519 0.9941 0.5791 0.0
Dy200 Dy 0.24539 0.97477 0.86855 0.0
C201 C 0.17617 0.0472 0.86643 0.0
C202 C 0.27653 0.93998 0.87496 0.0
Dy203 Dy 0.21155 0.01645 0.87425 0.0
O204 O 0.25549 0.93798 0.86728 0.0
O205 O 0.28065 0.96109 0.87937 0.0
O206 O 0.22844 0.96582 0.83429 0.0
O207 O 0.20974 0.98324 0.85934 0.0
C208 C 0.2088 0.97636 0.83879 0.0
C209 C 0.24823 0.01589 0.90503 0.0
O210 O 0.19193 0.99015 0.89507 0.0
O211 O 0.22294 0.96362 0.8986 0.0
O212 O 0.17764 0.03353 0.88474 0.0
O213 O 0.19432 0.04451 0.85316 0.0
O214 O 0.23745 0.03431 0.89707 0.0
O215 O 0.23839 0.99978 0.89551 0.0
O216 O 0.26155 0.99946 0.84345 0.0
O217 O 0.22761 0.02052 0.83815 0.0
C218 C 0.20174 0.97125 0.90445 0.0
C219 C 0.2481 0.0131 0.83027 0.0
Dy220 Dy 0.24983 0.95018 0.11879 0.0
C221 C 0.33591 0.99419 0.11653 0.0
C222 C 0.21029 0.92689 0.11118 0.0
Dy223 Dy 0.29145 0.9798 0.11601 0.0
O224 O 0.22406 0.92393 0.12903 0.0
O225 O 0.21719 0.94407 0.09837 0.0
O226 O 0.27036 0.92173 0.13663 0.0
O227 O 0.27881 0.95573 0.14185 0.0
C228 C 0.2851 0.93528 0.14572 0.0
C229 C 0.26027 0.99019 0.08122 0.0
O230 O 0.30581 0.94882 0.09887 0.0
O231 O 0.27161 0.92967 0.09417 0.0
O232 O 0.32986 0.97322 0.11803 0.0
O233 O 0.3176 0.00763 0.11487 0.0
O234 O 0.27196 0.00494 0.09252 0.0
O235 O 0.26548 0.97065 0.08986 0.0
O236 O 0.23927 0.97618 0.14629 0.0
O237 O 0.27549 0.99203 0.14967 0.0
C238 C 0.29434 0.93132 0.09137 0.0
C239 C 0.25403 0.98905 0.15773 0.0
Dy240 Dy 0.35906 0.24974 0.05482 0.0
C241 C 0.3489 0.33079 0.99693 0.0
C242 C 0.37046 0.21126 0.07995 0.0
Dy243 Dy 0.35714 0.29036 0.01997 0.0
O244 O 0.35271 0.22468 0.08403 0.0
O245 O 0.38134 0.21821 0.06114 0.0
O246 O 0.34398 0.27006 0.08359 0.0
O247 O 0.33477 0.27805 0.04826 0.0
C248 C 0.33322 0.28431 0.06928 0.0
C249 C 0.39298 0.25974 0.01204 0.0
O250 O 0.37747 0.30567 0.0486 0.0
O251 O 0.38513 0.27236 0.07066 0.0
O252 O 0.35455 0.31185 0.98689 0.0
O253 O 0.34823 0.32777 0.01955 0.0
O254 O 0.38209 0.2715 0.99563 0.0
O255 O 0.38385 0.2655 0.03107 0.0
O256 O 0.33035 0.23841 0.03087 0.0
O257 O 0.32425 0.27291 0.01106 0.0
C258 C 0.38751 0.2945 0.06652 0.0
C259 C 0.31731 0.25227 0.01715 0.0
Dy260 Dy 0.00739 0.87069 0.2104 0.0
C261 C 0.92442 0.87717 0.26623 0.0
C262 C 0.04657 0.86123 0.18517 0.0
Dy263 Dy 0.96562 0.87002 0.24355 0.0
O264 O 0.0327 0.87879 0.18182 0.0
O265 O 0.03975 0.84947 0.20347 0.0
O266 O 0.98668 0.88789 0.18176 0.0
O267 O 0.97843 0.89392 0.21725 0.0
C268 C 0.97204 0.89731 0.19624 0.0
C269 C 0.99601 0.83347 0.25049 0.0
O270 O 0.94983 0.8535 0.21265 0.0
O271 O 0.98447 0.8468 0.19227 0.0
O272 O 0.94403 0.87171 0.27642 0.0
O273 O 0.9272 0.87809 0.24362 0.0
O274 O 0.9843 0.84353 0.26701 0.0
O275 O 0.9908 0.84406 0.23169 0.0
O276 O 0.01899 0.89715 0.23595 0.0
O277 O 0.9833 0.90205 0.2542 0.0
C278 C 0.96163 0.84505 0.19467 0.0
C279 C 0.00454 0.90928 0.24937 0.0
Dy280 Dy 0.12249 0.72388 0.52107 0.0
C281 C 0.10598 0.78336 0.59549 0.0
C282 C 0.13881 0.69305 0.49076 0.0
Dy283 Dy 0.11826 0.75804 0.55829 0.0
O284 O 0.13737 0.69002 0.51322 0.0
O285 O 0.13093 0.71317 0.48422 0.0
O286 O 0.0909 0.70525 0.53387 0.0
O287 O 0.11123 0.72222 0.55744 0.0
C288 C 0.09268 0.7118 0.55532 0.0
C289 C 0.15331 0.76748 0.52846 0.0
O290 O 0.14034 0.73072 0.57617 0.0
O291 O 0.15548 0.71862 0.54149 0.0
O292 O 0.11961 0.76548 0.59638 0.0
O293 O 0.09928 0.78782 0.57408 0.0
O294 O 0.15172 0.77465 0.54969 0.0
O295 O 0.13406 0.75898 0.52269 0.0
O296 O 0.08966 0.74118 0.50778 0.0
O297 O 0.08208 0.75912 0.54267 0.0
C298 C 0.15592 0.71835 0.56459 0.0
C299 C 0.07507 0.75196 0.52204 0.0
Dy300 Dy 0.98272 0.59745 0.71069 0.0
C301 C 0.99918 0.67757 0.76295 0.0
C302 C 0.97295 0.56608 0.67817 0.0
Dy303 Dy 0.99853 0.63386 0.74573 0.0
O304 O 0.9736 0.58788 0.6743 0.0
O305 O 0.97841 0.56124 0.69991 0.0
O306 O 0.94743 0.61415 0.71171 0.0
O307 O 0.97649 0.63382 0.7145 0.0
C308 C 0.95459 0.63465 0.71375 0.0
C309 C 0.0169 0.59049 0.75126 0.0
O310 O 0.96633 0.61999 0.76264 0.0
O311 O 0.96775 0.5851 0.74457 0.0
O312 O 0.01742 0.66377 0.76132 0.0
O313 O 0.98095 0.66679 0.7565 0.0
O314 O 0.0134 0.60412 0.76884 0.0
O315 O 0.01235 0.60158 0.73271 0.0
O316 O 0.01149 0.61279 0.68988 0.0
O317 O 0.01958 0.64319 0.71381 0.0
C318 C 0.95933 0.59881 0.76078 0.0
C319 C 0.02213 0.632 0.69396 0.0
Dy320 Dy 0.13626 0.20786 0.47794 0.0
C321 C 0.11309 0.28903 0.42278 0.0
C322 C 0.15359 0.17036 0.50044 0.0
Dy323 Dy 0.12734 0.24978 0.44511 0.0
O324 O 0.1527 0.19051 0.50933 0.0
O325 O 0.14478 0.17066 0.47949 0.0
O326 O 0.10231 0.21076 0.49648 0.0
O327 O 0.1155 0.23986 0.48044 0.0
C328 C 0.09719 0.2314 0.48944 0.0
C329 C 0.15037 0.21531 0.4253 0.0
O330 O 0.16137 0.26011 0.46179 0.0
O331 O 0.16838 0.22712 0.4844 0.0
O332 O 0.10081 0.27776 0.43807 0.0
O333 O 0.13361 0.27949 0.42088 0.0
O334 O 0.13699 0.22945 0.4133 0.0
O335 O 0.15178 0.2215 0.44616 0.0
O336 O 0.11471 0.19279 0.45013 0.0
O337 O 0.09877 0.22693 0.43524 0.0
C338 C 0.17516 0.24694 0.47561 0.0
C339 C 0.09951 0.2044 0.43678 0.0
Dy340 Dy 0.49993 0.38839 0.22425 0.0
C341 C 0.55668 0.40596 0.30473 0.0
C342 C 0.47242 0.37559 0.18891 0.0
Dy343 Dy 0.53198 0.39019 0.26785 0.0
O344 O 0.46697 0.37437 0.21103 0.0
O345 O 0.49292 0.38402 0.18598 0.0
O346 O 0.48338 0.42231 0.22909 0.0
O347 O 0.49715 0.40471 0.25883 0.0
C348 C 0.48941 0.4241 0.25078 0.0
C349 C 0.54681 0.36123 0.23515 0.0
O350 O 0.51078 0.35946 0.27845 0.0
O351 O 0.49841 0.35319 0.24058 0.0
O352 O 0.55708 0.38514 0.29783 0.0
O353 O 0.54194 0.41794 0.29211 0.0
O354 O 0.55385 0.3593 0.25676 0.0
O355 O 0.5354 0.37949 0.23261 0.0
O356 O 0.52817 0.40925 0.20796 0.0
O357 O 0.54786 0.41584 0.24276 0.0
C358 C 0.50251 0.34575 0.26236 0.0
C359 C 0.54415 0.41995 0.21998 0.0
Dy360 Dy 0.38873 0.75676 0.94157 0.0
C361 C 0.38171 0.80168 0.02814 0.0
C362 C 0.3943 0.73443 0.90082 0.0
Dy363 Dy 0.39079 0.78513 0.98501 0.0
O364 O 0.38562 0.75501 0.90223 0.0
O365 O 0.39929 0.72613 0.92151 0.0
O366 O 0.36493 0.73206 0.96067 0.0
O367 O 0.36363 0.76561 0.96899 0.0
C368 C 0.35483 0.74684 0.97411 0.0
C369 C 0.4143 0.80315 0.94933 0.0
O370 O 0.41951 0.75965 0.99412 0.0
O371 O 0.42382 0.74622 0.95666 0.0
O372 O 0.39741 0.80916 0.0137 0.0
O373 O 0.37138 0.78456 0.01921 0.0
O374 O 0.40591 0.81502 0.96655 0.0
O375 O 0.41254 0.782 0.95387 0.0
O376 O 0.37058 0.78841 0.92772 0.0
O377 O 0.3637 0.80457 0.96411 0.0
C378 C 0.43165 0.74816 0.97835 0.0
C379 C 0.3612 0.8045 0.94095 0.0
Dy380 Dy 0.97137 0.379 0.74784 0.0
C381 C 0.04475 0.36649 0.81672 0.0
C382 C 0.93233 0.38836 0.72212 0.0
Dy383 Dy 0.01043 0.37854 0.78609 0.0
O384 O 0.93696 0.36899 0.7329 0.0
O385 O 0.94913 0.40219 0.7251 0.0
O386 O 0.99378 0.35618 0.72494 0.0
O387 O 0.99753 0.35412 0.76073 0.0
C388 C 0.00476 0.34536 0.742 0.0
C389 C 0.97689 0.41126 0.79053 0.0
O390 O 0.02454 0.4043 0.76048 0.0
O391 O 0.98961 0.41241 0.74157 0.0
O392 O 0.02704 0.37982 0.82119 0.0
O393 O 0.04388 0.3594 0.7953 0.0
O394 O 0.9973 0.41252 0.80013 0.0
O395 O 0.97593 0.39203 0.78197 0.0
O396 O 0.95286 0.36213 0.77859 0.0
O397 O 0.98505 0.35496 0.80299 0.0
C398 C 0.0107 0.41843 0.74804 0.0
C399 C 0.96266 0.35271 0.79789 0.0
Dy400 Dy 0.37907 0.24697 0.52761 0.0
C401 C 0.37075 0.18035 0.45529 0.0
C402 C 0.38872 0.27048 0.56605 0.0
Dy403 Dy 0.37671 0.20935 0.49116 0.0
O404 O 0.38859 0.27926 0.54482 0.0
O405 O 0.38361 0.24915 0.56611 0.0
O406 O 0.34646 0.26493 0.51626 0.0
O407 O 0.36489 0.24531 0.49156 0.0
C408 C 0.34566 0.2559 0.49583 0.0
C409 C 0.39253 0.19617 0.53356 0.0
O410 O 0.41234 0.22313 0.48193 0.0
O411 O 0.4147 0.24959 0.51155 0.0
O412 O 0.38743 0.17888 0.47055 0.0
O413 O 0.35805 0.19858 0.45882 0.0
O414 O 0.3805 0.18292 0.52075 0.0
O415 O 0.39608 0.21444 0.52254 0.0
O416 O 0.35333 0.22343 0.54414 0.0
O417 O 0.34286 0.20623 0.50993 0.0
C418 C 0.42432 0.23789 0.49418 0.0
C419 C 0.33951 0.21018 0.53242 0.0
Dy420 Dy 0.54419 0.63203 0.2484 0.0
C421 C 0.45782 0.64374 0.29825 0.0
C422 C 0.58834 0.62594 0.23146 0.0
Dy423 Dy 0.49921 0.63336 0.27717 0.0
O424 O 0.56966 0.62718 0.21866 0.0
O425 O 0.58289 0.62828 0.25338 0.0
O426 O 0.52808 0.6575 0.22204 0.0
O427 O 0.51829 0.65887 0.25658 0.0
C428 C 0.51513 0.66858 0.23687 0.0
C429 C 0.53221 0.60653 0.29621 0.0
O430 O 0.48987 0.60697 0.25075 0.0
O431 O 0.52761 0.59888 0.23902 0.0
O432 O 0.47011 0.62515 0.30172 0.0
O433 O 0.46749 0.65609 0.28186 0.0
O434 O 0.51573 0.61613 0.30845 0.0
O435 O 0.52853 0.60964 0.27451 0.0
O436 O 0.55679 0.64899 0.28033 0.0
O437 O 0.52067 0.65701 0.29734 0.0
C438 C 0.50551 0.59288 0.24117 0.0
C439 C 0.54366 0.65827 0.29686 0.0
Dy440 Dy 0.13272 0.78959 0.99149 0.0
C441 C 0.12617 0.71184 0.05436 0.0
C442 C 0.14002 0.82894 0.96705 0.0
Dy443 Dy 0.13638 0.74861 0.02644 0.0
O444 O 0.12287 0.82571 0.98144 0.0
O445 O 0.15295 0.81056 0.96568 0.0
O446 O 0.10072 0.77889 0.97362 0.0
O447 O 0.12186 0.75399 0.99082 0.0
C448 C 0.10179 0.75817 0.98183 0.0
C449 C 0.16205 0.78462 0.03723 0.0
O450 O 0.16762 0.73975 0.0042 0.0
O451 O 0.16957 0.77574 0.9866 0.0
O452 O 0.14205 0.72635 0.05855 0.0
O453 O 0.11636 0.71696 0.03434 0.0
O454 O 0.16716 0.76402 0.04475 0.0
O455 O 0.14278 0.7844 0.02725 0.0
O456 O 0.11156 0.80265 0.02205 0.0
O457 O 0.10531 0.76798 0.04075 0.0
C458 C 0.17926 0.75551 0.99224 0.0
C459 C 0.10063 0.79012 0.0382 0.0
Dy460 Dy 0.73896 0.95386 0.64205 0.0
C461 C 0.6739 0.02906 0.65394 0.0
C462 C 0.76452 0.91679 0.62915 0.0
Dy463 Dy 0.70405 0.99416 0.64328 0.0
O464 O 0.74542 0.91622 0.64125 0.0
O465 O 0.77001 0.93767 0.62445 0.0
O466 O 0.75735 0.96225 0.6746 0.0
O467 O 0.74033 0.98882 0.65512 0.0
C468 C 0.74995 0.98324 0.67471 0.0
C469 C 0.69187 0.95961 0.61606 0.0
O470 O 0.72607 0.00614 0.61311 0.0
O471 O 0.7399 0.96975 0.6056 0.0
O472 O 0.69206 0.02296 0.6663 0.0
O473 O 0.67289 0.01667 0.6356 0.0
O474 O 0.685 0.9805 0.61192 0.0
O475 O 0.70251 0.95862 0.63511 0.0
O476 O 0.71266 0.93932 0.66723 0.0
O477 O 0.6932 0.97346 0.67494 0.0
C478 C 0.7356 0.99117 0.59868 0.0
C479 C 0.69751 0.95155 0.67967 0.0
Dy480 Dy 0.75415 0.96185 0.38685 0.0
C481 C 0.80647 0.04334 0.37189 0.0
C482 C 0.73836 0.91909 0.39406 0.0
Dy483 Dy 0.78467 0.00422 0.38398 0.0
O484 O 0.72517 0.93696 0.38951 0.0
O485 O 0.75999 0.92458 0.39456 0.0
O486 O 0.72837 0.97877 0.3616 0.0
O487 O 0.76299 0.98654 0.3593 0.0
C488 C 0.74338 0.99109 0.35036 0.0
C489 C 0.80036 0.97127 0.41271 0.0
O490 O 0.75801 0.01545 0.41145 0.0
O491 O 0.7415 0.98027 0.41859 0.0
O492 O 0.81183 0.02995 0.38961 0.0
O493 O 0.78813 0.03596 0.36148 0.0
O494 O 0.81408 0.98536 0.40199 0.0
O495 O 0.77935 0.97702 0.40925 0.0
O496 O 0.78531 0.94771 0.36808 0.0
O497 O 0.80273 0.98176 0.35772 0.0
C498 C 0.74451 1.00175 0.42428 0.0
C499 C 0.80147 0.95929 0.35679 0.0
Dy500 Dy 0.78631 1.00062 0.13337 0.0
C501 C 0.70499 0.0604 0.12827 0.0
C502 C 0.82772 0.97755 0.13843 0.0
Dy503 Dy 0.74426 0.03445 0.1359 0.0
O504 O 0.80772 0.96809 0.1365 0.0
O505 O 0.82516 0.99952 0.13693 0.0
O506 O 0.76651 0.97895 0.10842 0.0
O507 O 0.75986 0.0134 0.10859 0.0
C508 C 0.75403 0.99548 0.09893 0.0
C509 C 0.78103 0.04613 0.16076 0.0
O510 O 0.73262 0.00773 0.16215 0.0
O511 O 0.76902 0.9906 0.16753 0.0
O512 O 0.71894 0.06207 0.14593 0.0
O513 O 0.71188 0.04354 0.11536 0.0
O514 O 0.76526 0.06067 0.15296 0.0
O515 O 0.77432 0.02616 0.15759 0.0
O516 O 0.80117 0.03051 0.11409 0.0
O517 O 0.76651 0.05164 0.10896 0.0
C518 C 0.74728 0.99456 0.17473 0.0
C519 C 0.78924 0.04852 0.10562 0.0
Dy520 Dy 0.70825 0.0167 0.88891 0.0
C521 C 0.78957 0.07149 0.88925 0.0
C522 C 0.66367 0.00245 0.88854 0.0
Dy523 Dy 0.75047 0.04682 0.8846 0.0
O524 O 0.68197 0.98893 0.8893 0.0
O525 O 0.6698 0.02343 0.88807 0.0
O526 O 0.72821 0.9919 0.91241 0.0
O527 O 0.73545 0.02614 0.9135 0.0
C528 C 0.74085 0.00681 0.9224 0.0
C529 C 0.71381 0.061 0.85919 0.0
O530 O 0.76052 0.01976 0.85829 0.0
O531 O 0.72375 0.00506 0.85483 0.0
O532 O 0.77542 0.07277 0.87158 0.0
O533 O 0.78331 0.05519 0.90362 0.0
O534 O 0.72874 0.07484 0.86744 0.0
O535 O 0.72062 0.04077 0.86305 0.0
O536 O 0.69496 0.04783 0.90674 0.0
O537 O 0.72967 0.06647 0.91068 0.0
C538 C 0.74528 0.00757 0.84674 0.0
C539 C 0.70699 0.06503 0.91418 0.0
Dy540 Dy 0.64536 0.7023 0.97378 0.0
C541 C 0.61209 0.78238 0.92338 0.0
C542 C 0.66737 0.66705 0.9962 0.0
Dy543 Dy 0.63106 0.74399 0.94378 0.0
O544 O 0.66276 0.68666 0.00539 0.0
O545 O 0.65962 0.6665 0.97484 0.0
O546 O 0.6115 0.70143 0.99253 0.0
O547 O 0.62278 0.73278 0.97959 0.0
C548 C 0.60538 0.72246 0.98818 0.0
C549 C 0.65488 0.71226 0.92067 0.0
O550 O 0.66546 0.75655 0.95801 0.0
O551 O 0.67611 0.72367 0.97925 0.0
O552 O 0.60175 0.76968 0.93895 0.0
O553 O 0.63328 0.77484 0.92029 0.0
O554 O 0.63889 0.72514 0.91068 0.0
O555 O 0.65795 0.71793 0.94149 0.0
O556 O 0.62363 0.68606 0.94698 0.0
O557 O 0.60315 0.71922 0.93627 0.0
C558 C 0.68099 0.74404 0.97052 0.0
C559 C 0.60586 0.69675 0.93641 0.0
Dy560 Dy 0.03649 0.13601 0.75155 0.0
C561 C 0.95264 0.14569 0.80604 0.0
C562 C 0.07843 0.12969 0.7299 0.0
Dy563 Dy 0.99287 0.13616 0.78244 0.0
O564 O 0.05857 0.13209 0.71923 0.0
O565 O 0.07545 0.13119 0.75241 0.0
O566 O 0.01861 0.1613 0.72625 0.0
O567 O 0.01049 0.16229 0.76121 0.0
C568 C 0.00635 0.17219 0.74176 0.0
C569 C 0.02747 0.11028 0.79983 0.0
O570 O 0.98287 0.10944 0.75659 0.0
O571 O 0.02015 0.10264 0.74278 0.0
O572 O 0.96558 0.12743 0.80889 0.0
O573 O 0.96095 0.15815 0.78894 0.0
O574 O 0.01134 0.11943 0.81286 0.0
O575 O 0.02261 0.11327 0.77834 0.0
O576 O 0.05062 0.15323 0.78271 0.0
O577 O 0.01501 0.16033 0.80125 0.0
C578 C 0.9984 0.096 0.74592 0.0
C579 C 0.03795 0.16208 0.79985 0.0
Dy580 Dy 0.87834 0.24647 0.44451 0.0
C581 C 0.86812 0.30616 0.52143 0.0
C582 C 0.88991 0.22258 0.40601 0.0
Dy583 Dy 0.87826 0.27922 0.48474 0.0
O584 O 0.88284 0.21345 0.42568 0.0
O585 O 0.89023 0.24448 0.40736 0.0
O586 O 0.84383 0.23279 0.45341 0.0
O587 O 0.86456 0.24503 0.48075 0.0
C588 C 0.8443 0.2384 0.47526 0.0
C589 C 0.90573 0.29081 0.44821 0.0
O590 O 0.91006 0.25903 0.49563 0.0
O591 O 0.91402 0.24053 0.4604 0.0
O592 O 0.8789 0.31241 0.5025 0.0
O593 O 0.86266 0.28494 0.52051 0.0
O594 O 0.91035 0.29581 0.46971 0.0
O595 O 0.88631 0.28172 0.44774 0.0
O596 O 0.8537 0.27344 0.42972 0.0
O597 O 0.8463 0.29102 0.46502 0.0
C598 C 0.92262 0.24693 0.48068 0.0
C599 C 0.84177 0.28837 0.44249 0.0
Dy600 Dy 0.5007 0.8744 0.75411 0.0
C601 C 0.52493 0.93735 0.82785 0.0
C602 C 0.50169 0.83271 0.73224 0.0
Dy603 Dy 0.51515 0.90776 0.79356 0.0
O604 O 0.51945 0.84297 0.74061 0.0
O605 O 0.48331 0.84615 0.7343 0.0
O606 O 0.47443 0.90172 0.73886 0.0
O607 O 0.50232 0.91075 0.75864 0.0
C608 C 0.48378 0.91842 0.74992 0.0
C609 C 0.53643 0.8667 0.79418 0.0
O610 O 0.47907 0.89861 0.80477 0.0
O611 O 0.47764 0.86508 0.78447 0.0
O612 O 0.52276 0.91559 0.83084 0.0
O613 O 0.52098 0.94317 0.80602 0.0
O614 O 0.54636 0.88543 0.79921 0.0
O615 O 0.51522 0.87088 0.78969 0.0
O616 O 0.5365 0.8851 0.74192 0.0
O617 O 0.54071 0.91647 0.76571 0.0
C618 C 0.47017 0.87838 0.80153 0.0
C619 C 0.54809 0.90315 0.74862 0.0
Dy620 Dy 0.95905 0.11582 0.23046 0.0
C621 C 0.01702 0.12589 0.31121 0.0
C622 C 0.93667 0.10229 0.19144 0.0
Dy623 Dy 0.99187 0.11791 0.27215 0.0
O624 O 0.93288 0.12141 0.20186 0.0
O625 O 0.95373 0.09103 0.20171 0.0
O626 O 0.92974 0.13321 0.24927 0.0
O627 O 0.9647 0.14015 0.25728 0.0
C628 C 0.94372 0.14343 0.26322 0.0
C629 C 0.00079 0.08131 0.24413 0.0
O630 O 0.96089 0.10316 0.29044 0.0
O631 O 0.94073 0.0937 0.25685 0.0
O632 O 0.02477 0.12696 0.28984 0.0
O633 O 0.9954 0.11999 0.31143 0.0
O634 O 0.01654 0.09244 0.25485 0.0
O635 O 0.9816 0.09078 0.24917 0.0
O636 O 0.98271 0.14385 0.21678 0.0
O637 O 0.00018 0.15055 0.25232 0.0
C638 C 0.94304 0.09374 0.28004 0.0
C639 C 0.9955 0.15686 0.23025 0.0
Dy640 Dy 0.49526 0.13698 0.71924 0.0
C641 C 0.56169 0.11167 0.79097 0.0
C642 C 0.46658 0.15616 0.68611 0.0
Dy643 Dy 0.52789 0.12726 0.76085 0.0
O644 O 0.48907 0.155 0.68489 0.0
O645 O 0.45937 0.14673 0.70562 0.0
O646 O 0.50879 0.10602 0.70012 0.0
O647 O 0.52979 0.12201 0.72368 0.0
C648 C 0.52827 0.10466 0.71162 0.0
C649 C 0.50058 0.16464 0.76746 0.0
O650 O 0.55057 0.14605 0.73493 0.0
O651 O 0.52023 0.16566 0.71671 0.0
O652 O 0.55966 0.13223 0.78242 0.0
O653 O 0.54504 0.09946 0.78328 0.0
O654 O 0.51867 0.15892 0.77994 0.0
O655 O 0.4949 0.14727 0.75595 0.0
O656 O 0.47955 0.10421 0.73289 0.0
O657 O 0.50689 0.09536 0.76193 0.0
C658 C 0.54269 0.16325 0.72136 0.0
C659 C 0.48906 0.08972 0.74873 0.0
Dy660 Dy 0.11623 0.29721 0.0122 0.0
C661 C 0.10373 0.23419 0.93844 0.0
C662 C 0.12429 0.32369 0.04985 0.0
Dy663 Dy 0.11315 0.26055 0.97493 0.0
O664 O 0.10568 0.32479 0.037 0.0
O665 O 0.13793 0.30721 0.04286 0.0
O666 O 0.11314 0.32535 0.98491 0.0
O667 O 0.09752 0.29409 0.97968 0.0
C668 C 0.10198 0.3131 0.97031 0.0
C669 C 0.14624 0.25042 0.00682 0.0
O670 O 0.13852 0.28346 0.95786 0.0
O671 O 0.14946 0.30127 0.9917 0.0
O672 O 0.11226 0.25434 0.93659 0.0
O673 O 0.10008 0.2284 0.96031 0.0
O674 O 0.14544 0.24195 0.98619 0.0
O675 O 0.12713 0.26112 0.01113 0.0
O676 O 0.07948 0.28488 0.01996 0.0
O677 O 0.07708 0.25935 0.98959 0.0
C678 C 0.15262 0.29658 0.96927 0.0
C679 C 0.06733 0.27082 0.00697 0.0
Dy680 Dy 0.36563 0.75288 0.4554 0.0
C681 C 0.36766 0.67969 0.52235 0.0
C682 C 0.37287 0.78752 0.42367 0.0
Dy683 Dy 0.37141 0.71518 0.49147 0.0
O684 O 0.36146 0.76939 0.41976 0.0
O685 O 0.37995 0.78707 0.4453 0.0
O686 O 0.33366 0.73666 0.44031 0.0
O687 O 0.35978 0.71666 0.45586 0.0
C688 C 0.33984 0.71617 0.44726 0.0
C689 C 0.40401 0.74604 0.49603 0.0
O690 O 0.39242 0.70045 0.46182 0.0
O691 O 0.3981 0.73489 0.44278 0.0
O692 O 0.37563 0.6782 0.50114 0.0
O693 O 0.36158 0.70058 0.5267 0.0
O694 O 0.40621 0.72503 0.50295 0.0
O695 O 0.38291 0.75093 0.49022 0.0
O696 O 0.33531 0.76295 0.47814 0.0
O697 O 0.33387 0.72743 0.4963 0.0
C698 C 0.40307 0.71288 0.44547 0.0
C699 C 0.32394 0.74751 0.49066 0.0
Dy700 Dy 0.80383 0.49789 0.8729 0.0
C701 C 0.74607 0.5781 0.8699 0.0
C702 C 0.83004 0.45916 0.86719 0.0
Dy703 Dy 0.77056 0.53796 0.87017 0.0
O704 O 0.83247 0.47349 0.88383 0.0
O705 O 0.81206 0.46528 0.85451 0.0
O706 O 0.83252 0.51866 0.88609 0.0
O707 O 0.79787 0.52761 0.89459 0.0
C708 C 0.81875 0.53383 0.89534 0.0
C709 C 0.7614 0.50566 0.83798 0.0
O710 O 0.80047 0.55207 0.8492 0.0
O711 O 0.81925 0.51736 0.84292 0.0
O712 O 0.73697 0.55821 0.87029 0.0
O713 O 0.76859 0.57615 0.86982 0.0
O714 O 0.74571 0.51717 0.84938 0.0
O715 O 0.78083 0.51182 0.84518 0.0
O716 O 0.77778 0.48683 0.90019 0.0
O717 O 0.76154 0.52262 0.90582 0.0
C718 C 0.81714 0.53963 0.83918 0.0
C719 C 0.76525 0.50116 0.91305 0.0
Dy720 Dy 0.7241 0.50771 0.1343 0.0
C721 C 0.7883 0.57439 0.10236 0.0
C722 C 0.6882 0.48536 0.15408 0.0
Dy723 Dy 0.76441 0.54015 0.12298 0.0
O724 O 0.68888 0.50706 0.15009 0.0
O725 O 0.70749 0.47525 0.14725 0.0
O726 O 0.70611 0.5191 0.10075 0.0
O727 O 0.72728 0.54115 0.1186 0.0
C728 C 0.71608 0.53859 0.10013 0.0
C729 C 0.77424 0.51162 0.15931 0.0
O730 O 0.73996 0.56157 0.14465 0.0
O731 O 0.72408 0.53132 0.16468 0.0
O732 O 0.77749 0.55895 0.09119 0.0
O733 O 0.78699 0.5705 0.12483 0.0
O734 O 0.78592 0.52968 0.15414 0.0
O735 O 0.76131 0.50741 0.14199 0.0
O736 O 0.73841 0.49055 0.1021 0.0
O737 O 0.76669 0.51701 0.09226 0.0
C738 C 0.72786 0.55333 0.16262 0.0
C739 C 0.75426 0.49905 0.08743 0.0
Dy740 Dy 0.75012 0.46721 0.37342 0.0
C741 C 0.67261 0.53099 0.36808 0.0
C742 C 0.78714 0.43788 0.37935 0.0
Dy743 Dy 0.71092 0.50376 0.37527 0.0
O744 O 0.77329 0.43866 0.36145 0.0
O745 O 0.78142 0.45407 0.39358 0.0
O746 O 0.72671 0.44162 0.35865 0.0
O747 O 0.71996 0.47637 0.35188 0.0
C748 C 0.71193 0.45671 0.35008 0.0
C749 C 0.74416 0.50783 0.40934 0.0
O750 O 0.69348 0.47496 0.39389 0.0
O751 O 0.72748 0.4539 0.40225 0.0
O752 O 0.67238 0.51079 0.37786 0.0
O753 O 0.69377 0.53653 0.3631 0.0
O754 O 0.73246 0.52481 0.39962 0.0
O755 O 0.73692 0.49027 0.4001 0.0
O756 O 0.76372 0.49274 0.34714 0.0
O757 O 0.72778 0.50966 0.33987 0.0
C758 C 0.70466 0.45745 0.40432 0.0
C759 C 0.7495 0.50494 0.33322 0.0
Dy760 Dy 0.7456 0.456 0.62413 0.0
C761 C 0.83299 0.49943 0.62166 0.0
C762 C 0.70546 0.43372 0.61641 0.0
Dy763 Dy 0.78842 0.4851 0.62078 0.0
O764 O 0.71923 0.43028 0.6342 0.0
O765 O 0.71275 0.45081 0.60369 0.0
O766 O 0.7658 0.4274 0.64218 0.0
O767 O 0.77506 0.46132 0.64655 0.0
C768 C 0.781 0.44084 0.6507 0.0
C769 C 0.75678 0.49537 0.58633 0.0
O770 O 0.80165 0.45378 0.60327 0.0
O771 O 0.76672 0.43558 0.59897 0.0
O772 O 0.81469 0.51283 0.61961 0.0
O773 O 0.82689 0.47845 0.62323 0.0
O774 O 0.76924 0.51014 0.59675 0.0
O775 O 0.76182 0.47605 0.59544 0.0
O776 O 0.7359 0.48252 0.6513 0.0
O777 O 0.77256 0.49761 0.65437 0.0
C778 C 0.78945 0.43675 0.59572 0.0
C779 C 0.75107 0.49508 0.66257 0.0
Dy780 Dy 0.47872 0.09488 0.20928 0.0
C781 C 0.50167 0.17341 0.26231 0.0
C782 C 0.47047 0.06284 0.17714 0.0
Dy783 Dy 0.49544 0.13093 0.24337 0.0
O784 O 0.47042 0.08461 0.17299 0.0
O785 O 0.47526 0.05839 0.19911 0.0
O786 O 0.44339 0.11128 0.21003 0.0
O787 O 0.47224 0.13143 0.2127 0.0
C788 C 0.45028 0.13191 0.21195 0.0
C789 C 0.51424 0.08749 0.24821 0.0
O790 O 0.46225 0.11913 0.25999 0.0
O791 O 0.46323 0.08364 0.24344 0.0
O792 O 0.48217 0.16281 0.26137 0.0
O793 O 0.51818 0.16005 0.25415 0.0
O794 O 0.51085 0.10087 0.26593 0.0
O795 O 0.50926 0.09879 0.22996 0.0
O796 O 0.50623 0.11039 0.18708 0.0
O797 O 0.51285 0.14194 0.20961 0.0
C798 C 0.45439 0.09823 0.25863 0.0
C799 C 0.51551 0.13044 0.18998 0.0
Dy800 Dy 0.99458 0.88959 0.72257 0.0
C801 C 0.05919 0.90783 0.79718 0.0
C802 C 0.97023 0.87516 0.68529 0.0
Dy803 Dy 0.02916 0.89251 0.76449 0.0
O804 O 0.96731 0.86818 0.70688 0.0
O805 O 0.98604 0.89044 0.68415 0.0
O806 O 0.97728 0.92338 0.72761 0.0
O807 O 0.99415 0.90718 0.75639 0.0
C808 C 0.98553 0.92614 0.74842 0.0
C809 C 0.03933 0.86024 0.73369 0.0
O810 O 0.00797 0.86325 0.77843 0.0
O811 O 0.98984 0.85644 0.74287 0.0
O812 O 0.06064 0.88834 0.7872 0.0
O813 O 0.04024 0.91862 0.79037 0.0
O814 O 0.04719 0.85911 0.75502 0.0
O815 O 0.02973 0.8793 0.73002 0.0
O816 O 0.02488 0.90637 0.70444 0.0
O817 O 0.04427 0.91696 0.73786 0.0
C818 C 0.99623 0.8498 0.76445 0.0
C819 C 0.04137 0.91798 0.71476 0.0
Dy820 Dy 0.47664 0.87611 0.24277 0.0
C821 C 0.5497 0.8575 0.31034 0.0
C822 C 0.43767 0.88655 0.21722 0.0
Dy823 Dy 0.5157 0.87338 0.2812 0.0
O824 O 0.44229 0.86679 0.22719 0.0
O825 O 0.45444 0.90026 0.22093 0.0
O826 O 0.49845 0.85298 0.21939 0.0
O827 O 0.50215 0.85041 0.25506 0.0
C828 C 0.5094 0.84186 0.23629 0.0
C829 C 0.48427 0.90751 0.28615 0.0
O830 O 0.52979 0.90091 0.25731 0.0
O831 O 0.49561 0.90908 0.23688 0.0
O832 O 0.53014 0.86687 0.31695 0.0
O833 O 0.55098 0.85669 0.28754 0.0
O834 O 0.50472 0.9076 0.29593 0.0
O835 O 0.48183 0.88849 0.27735 0.0
O836 O 0.45736 0.85946 0.27302 0.0
O837 O 0.4893 0.85026 0.29709 0.0
C838 C 0.51635 0.91508 0.24438 0.0
C839 C 0.46677 0.84923 0.29206 0.0
Dy840 Dy 0.88486 0.74812 0.01934 0.0
C841 C 0.87477 0.6834 0.94528 0.0
C842 C 0.89411 0.77386 0.05643 0.0
Dy843 Dy 0.88176 0.71131 0.98212 0.0
O844 O 0.89786 0.77998 0.03466 0.0
O845 O 0.88558 0.75368 0.05787 0.0
O846 O 0.85329 0.76776 0.00763 0.0
O847 O 0.87079 0.74747 0.98314 0.0
C848 C 0.85193 0.75882 0.98724 0.0
C849 C 0.89504 0.69561 0.02467 0.0
O850 O 0.91801 0.72413 0.9737 0.0
O851 O 0.92122 0.74867 0.00486 0.0
O852 O 0.8924 0.68201 0.95944 0.0
O853 O 0.86173 0.70092 0.95045 0.0
O854 O 0.88362 0.68361 0.01007 0.0
O855 O 0.90014 0.71434 0.01501 0.0
O856 O 0.85846 0.72552 0.03541 0.0
O857 O 0.8476 0.70903 0.00087 0.0
C858 C 0.93052 0.73764 0.98692 0.0
C859 C 0.84426 0.71294 0.02342 0.0
Dy860 Dy 0.62765 0.28477 0.49791 0.0
C861 C 0.61658 0.23264 0.5809 0.0
C862 C 0.63486 0.31691 0.46391 0.0
Dy863 Dy 0.62824 0.25456 0.54002 0.0
O864 O 0.61868 0.31795 0.4797 0.0
O865 O 0.64717 0.29819 0.4666 0.0
O866 O 0.59561 0.27233 0.48216 0.0
O867 O 0.61514 0.24949 0.50406 0.0
C868 C 0.59562 0.25316 0.49368 0.0
C869 C 0.65495 0.29143 0.54438 0.0
O870 O 0.66131 0.24045 0.52375 0.0
O871 O 0.66474 0.27119 0.49799 0.0
O872 O 0.61736 0.25436 0.57743 0.0
O873 O 0.62238 0.2222 0.56172 0.0
O874 O 0.65968 0.27173 0.55419 0.0
O875 O 0.63573 0.29047 0.53421 0.0
O876 O 0.60562 0.30454 0.52327 0.0
O877 O 0.59317 0.27201 0.54075 0.0
C878 C 0.67386 0.25285 0.50886 0.0
C879 C 0.59096 0.29419 0.53763 0.0
Dy880 Dy 0.22536 0.46133 0.13216 0.0
C881 C 0.17599 0.54649 0.13927 0.0
C882 C 0.24555 0.41947 0.12739 0.0
Dy883 Dy 0.19596 0.50496 0.13124 0.0
O884 O 0.25666 0.43792 0.13088 0.0
O885 O 0.2233 0.42371 0.12702 0.0
O886 O 0.25241 0.47841 0.15373 0.0
O887 O 0.21785 0.48755 0.15784 0.0
C888 C 0.23796 0.49148 0.16503 0.0
C889 C 0.17873 0.47152 0.10632 0.0
O890 O 0.22359 0.51457 0.10477 0.0
O891 O 0.23594 0.47769 0.09779 0.0
O892 O 0.17232 0.53435 0.12103 0.0
O893 O 0.19142 0.53625 0.15271 0.0
O894 O 0.1657 0.48703 0.11613 0.0
O895 O 0.19987 0.4763 0.10829 0.0
O896 O 0.19428 0.44962 0.15293 0.0
O897 O 0.17751 0.48542 0.15927 0.0
C898 C 0.23472 0.49958 0.09146 0.0
C899 C 0.17817 0.46303 0.16266 0.0
Dy900 Dy 0.25122 0.4645 0.88192 0.0
C901 C 0.30653 0.54326 0.8664 0.0
C902 C 0.23407 0.42273 0.89165 0.0
Dy903 Dy 0.28389 0.50475 0.87866 0.0
O904 O 0.22178 0.44009 0.88357 0.0
O905 O 0.25556 0.42818 0.89418 0.0
O906 O 0.22639 0.48236 0.85632 0.0
O907 O 0.2616 0.488 0.85382 0.0
C908 C 0.24222 0.49344 0.84477 0.0
C909 C 0.29781 0.47147 0.90791 0.0
O910 O 0.25773 0.51814 0.90527 0.0
O911 O 0.23866 0.48444 0.91267 0.0
O912 O 0.31151 0.53002 0.88435 0.0
O913 O 0.28839 0.53594 0.85565 0.0
O914 O 0.31227 0.48448 0.89673 0.0
O915 O 0.27706 0.4784 0.90465 0.0
O916 O 0.28094 0.44857 0.86225 0.0
O917 O 0.30218 0.48103 0.8542 0.0
C918 C 0.24319 0.50567 0.9181 0.0
C919 C 0.29882 0.45891 0.85245 0.0
Dy920 Dy 0.28604 0.50233 0.62597 0.0
C921 C 0.20792 0.56579 0.62301 0.0
C922 C 0.32553 0.47651 0.63244 0.0
Dy923 Dy 0.24586 0.53749 0.62893 0.0
O924 O 0.32484 0.497 0.62335 0.0
O925 O 0.30465 0.46989 0.63705 0.0
O926 O 0.26511 0.48092 0.60168 0.0
O927 O 0.25955 0.51552 0.6012 0.0
C928 C 0.25311 0.49762 0.59185 0.0
C929 C 0.28377 0.54881 0.65239 0.0
O930 O 0.23336 0.51177 0.65577 0.0
O931 O 0.26948 0.49441 0.66109 0.0
O932 O 0.22159 0.56516 0.64106 0.0
O933 O 0.2143 0.54991 0.60865 0.0
O934 O 0.26816 0.56349 0.64459 0.0
O935 O 0.27643 0.52892 0.65003 0.0
O936 O 0.30252 0.53167 0.60744 0.0
O937 O 0.26841 0.5534 0.60143 0.0
C938 C 0.24794 0.49877 0.66855 0.0
C939 C 0.29112 0.54976 0.59846 0.0
Dy940 Dy 0.20727 0.51605 0.37971 0.0
C941 C 0.28757 0.57165 0.37963 0.0
C942 C 0.16236 0.5028 0.37858 0.0
Dy943 Dy 0.24939 0.54546 0.37547 0.0
O944 O 0.16911 0.52347 0.37576 0.0
O945 O 0.18021 0.48903 0.38195 0.0
O946 O 0.22604 0.49141 0.40458 0.0
O947 O 0.23421 0.52538 0.40472 0.0
C948 C 0.23896 0.50623 0.41437 0.0
C949 C 0.21283 0.55978 0.34964 0.0
O950 O 0.26017 0.51797 0.35009 0.0
O951 O 0.22376 0.50235 0.34706 0.0
O952 O 0.27194 0.57381 0.36335 0.0
O953 O 0.28335 0.55371 0.39268 0.0
O954 O 0.22699 0.5735 0.35925 0.0
O955 O 0.2198 0.53946 0.35297 0.0
O956 O 0.19415 0.54747 0.39728 0.0
O957 O 0.23013 0.56246 0.40422 0.0
C958 C 0.24537 0.5048 0.33922 0.0
C959 C 0.20732 0.5627 0.40682 0.0
H960 H 0.977 0.44315 0.20995 0.0
H961 H -0.00025 0.55597 0.2788 0.0
H962 H 0.97226 0.44441 0.28531 0.0
H963 H 0.96324 0.55984 0.21294 0.0
H964 H 0.99471 0.51457 0.28029 0.0
H965 H 0.97661 0.48523 0.20882 0.0
C966 C 0.97577 0.45219 0.22623 0.0
C967 C 0.97494 0.44005 0.24779 0.0
C968 C 0.98751 0.52452 0.26566 0.0
C969 C 0.97508 0.48828 0.24665 0.0
C970 C 0.99025 0.54822 0.26489 0.0
C971 C 0.98146 0.56168 0.246 0.0
C972 C 0.97665 0.51381 0.24699 0.0
C973 C 0.96982 0.55037 0.22816 0.0
C974 C 0.97558 0.47623 0.22558 0.0
C975 C 0.97338 0.45289 0.26829 0.0
N976 N 0.96808 0.52719 0.2289 0.0
N977 N 0.97387 0.47608 0.26725 0.0
H978 H 0.80022 0.71402 0.52397 0.0
H979 H 0.67661 0.78208 0.52434 0.0
H980 H 0.79185 0.786 0.50863 0.0
H981 H 0.68324 0.71039 0.51143 0.0
H982 H 0.71906 0.78322 0.52836 0.0
H983 H 0.75759 0.71181 0.52739 0.0
C984 C 0.78953 0.72929 0.52111 0.0
C985 C 0.79987 0.75013 0.51559 0.0
C986 C 0.71113 0.76716 0.52506 0.0
C987 C 0.75101 0.74789 0.52042 0.0
C988 C 0.68676 0.76648 0.52294 0.0
C989 C 0.6762 0.74622 0.51696 0.0
C990 C 0.72498 0.7473 0.52179 0.0
C991 C 0.69058 0.72647 0.51586 0.0
C992 C 0.76519 0.72806 0.52325 0.0
C993 C 0.78491 0.76942 0.51251 0.0
N994 N 0.71411 0.72751 0.51798 0.0
N995 N 0.76145 0.76785 0.51507 0.0
H996 H 0.47432 0.44506 0.77134 0.0
H997 H 0.53865 0.55992 0.7368 0.0
H998 H 0.53756 0.44235 0.73044 0.0
H999 H 0.46445 0.55591 0.74607 0.0
H1000 H 0.54183 0.51796 0.73918 0.0
H1001 H 0.47437 0.48643 0.7687 0.0
C1002 C 0.48856 0.45306 0.76214 0.0
C1003 C 0.50596 0.43979 0.75105 0.0
C1004 C 0.52487 0.52631 0.7405 0.0
C1005 C 0.50594 0.48799 0.74788 0.0
C1006 C 0.523 0.55028 0.73905 0.0
C1007 C 0.50122 0.56166 0.74111 0.0
C1008 C 0.50489 0.51352 0.74465 0.0
C1009 C 0.48161 0.5481 0.74424 0.0
C1010 C 0.48839 0.47686 0.76047 0.0
C1011 C 0.52382 0.45163 0.73942 0.0
N1012 N 0.48396 0.52497 0.74618 0.0
N1013 N 0.52334 0.47498 0.7381 0.0
H1014 H 0.79075 0.28893 0.9911 0.0
H1015 H 0.67063 0.2234 0.00856 0.0
H1016 H 0.78693 0.21696 0.00644 0.0
H1017 H 0.67554 0.29546 0.01771 0.0
H1018 H 0.71227 0.22129 0.99916 0.0
H1019 H 0.74805 0.29214 0.9939 0.0
C1020 C 0.78104 0.27383 0.9952 0.0
C1021 C 0.79271 0.25269 0.99884 0.0
C1022 C 0.70413 0.23768 0.00264 0.0
C1023 C 0.74356 0.25615 0.00133 0.0
C1024 C 0.68014 0.23896 0.00754 0.0
C1025 C 0.66926 0.25976 0.01332 0.0
C1026 C 0.71748 0.25735 0.0035 0.0
C1027 C 0.68302 0.27917 0.01278 0.0
C1028 C 0.75661 0.27566 0.99668 0.0
C1029 C 0.77894 0.23371 0.00382 0.0
N1030 N 0.7063 0.27751 0.00808 0.0
N1031 N 0.75527 0.23587 0.00479 0.0
H1032 H 0.29761 0.97728 0.43345 0.0
H1033 H 0.22027 0.97583 0.54986 0.0
H1034 H 0.22772 0.00573 0.43307 0.0
H1035 H 0.29071 0.99876 0.55108 0.0
H1036 H 0.22285 0.97354 0.50689 0.0
H1037 H 0.2951 0.97207 0.47633 0.0
C1038 C 0.28147 0.98178 0.44224 0.0
C1039 C 0.26273 0.99174 0.42947 0.0
C1040 C 0.2379 0.97856 0.51666 0.0
C1041 C 0.25977 0.98563 0.47869 0.0
C1042 C 0.23658 0.97956 0.54123 0.0
C1043 C 0.25545 0.98714 0.55426 0.0
C1044 C 0.25844 0.98457 0.50494 0.0
C1045 C 0.27586 0.99252 0.54186 0.0
C1046 C 0.28018 0.97903 0.46676 0.0
C1047 C 0.2425 0.99781 0.44208 0.0
N1048 N 0.27686 0.99102 0.51799 0.0
N1049 N 0.2415 0.99455 0.4659 0.0
H1050 H 0.29536 0.00423 0.6832 0.0
H1051 H 0.21889 0.03086 0.79625 0.0
H1052 H 0.22053 1.00115 0.685 0.0
H1053 H 0.28673 0.99839 0.80468 0.0
H1054 H 0.22234 0.02698 0.75396 0.0
H1055 H 0.29534 0.0068 0.72635 0.0
C1056 C 0.27898 0.0037 0.69261 0.0
C1057 C 0.2579 0.00256 0.68028 0.0
C1058 C 0.23659 0.02087 0.76502 0.0
C1059 C 0.25776 0.00634 0.72952 0.0
C1060 C 0.23478 0.0233 0.78928 0.0
C1061 C 0.25254 0.01492 0.80436 0.0
C1062 C 0.25646 0.01029 0.75534 0.0
C1063 C 0.27259 0.00517 0.79389 0.0
C1064 C 0.279 0.00532 0.71722 0.0
C1065 C 0.23723 0.00212 0.69354 0.0
N1066 N 0.27402 0.00312 0.77006 0.0
N1067 N 0.23767 0.00437 0.71724 0.0
H1068 H 0.25474 0.95841 0.04706 0.0
H1069 H 0.25083 0.04908 0.93851 0.0
H1070 H 0.25735 0.03079 0.05607 0.0
H1071 H 0.25831 0.9766 0.9304 0.0
H1072 H 0.2528 0.04312 0.9813 0.0
H1073 H 0.25394 0.96498 0.00439 0.0
C1074 C 0.25478 0.97572 0.04013 0.0
C1075 C 0.25606 0.99405 0.0554 0.0
C1076 C 0.25424 0.02852 0.97016 0.0
C1077 C 0.25553 1.00176 0.00611 0.0
C1078 C 0.25336 0.03195 0.94562 0.0
C1079 C 0.25445 0.01336 0.93058 0.0
C1080 C 0.25603 0.0063 0.97994 0.0
C1081 C 0.25743 0.99152 0.94112 0.0
C1082 C 0.25456 0.97947 0.01567 0.0
C1083 C 0.2563 0.0161 0.04513 0.0
N1084 N 0.25788 0.98862 0.96496 0.0
N1085 N 0.25609 0.0193 0.02129 0.0
H1086 H 0.28029 0.0155 0.18535 0.0
H1087 H 0.21748 0.99475 0.30846 0.0
H1088 H 0.21917 0.97466 0.18846 0.0
H1089 H 0.29165 1.00046 0.30001 0.0
H1090 H 0.21384 0.99212 0.26545 0.0
H1091 H 0.27989 0.01716 0.22794 0.0
C1092 C 0.26643 0.00722 0.19487 0.0
C1093 C 0.24981 0.99478 0.18296 0.0
C1094 C 0.23089 0.99371 0.27313 0.0
C1095 C 0.24944 0.99657 0.23247 0.0
C1096 C 0.23303 0.99505 0.2977 0.0
C1097 C 0.25493 0.99785 0.30808 0.0
C1098 C 0.25071 0.99574 0.25878 0.0
C1099 C 0.27439 0.99835 0.29304 0.0
C1100 C 0.2664 0.00801 0.21935 0.0
C1101 C 0.23231 0.98454 0.19668 0.0
N1102 N 0.27177 0.99768 0.26934 0.0
N1103 N 0.23263 0.98558 0.22068 0.0
H1104 H 0.42159 0.24608 0.048 0.0
H1105 H 0.54314 0.25308 0.97984 0.0
H1106 H 0.42342 0.26391 0.9742 0.0
H1107 H 0.5344 0.2646 0.05382 0.0
H1108 H 0.50048 0.25223 0.97593 0.0
H1109 H 0.464 0.24612 0.04888 0.0
C1110 C 0.43089 0.24961 0.03182 0.0
C1111 C 0.41871 0.25511 0.01101 0.0
C1112 C 0.50799 0.25515 0.99293 0.0
C1113 C 0.46779 0.25535 0.01198 0.0
C1114 C 0.53236 0.25578 0.99518 0.0
C1115 C 0.54264 0.25907 0.01719 0.0
C1116 C 0.49374 0.2573 0.01291 0.0
C1117 C 0.52756 0.26218 0.03644 0.0
C1118 C 0.4552 0.24985 0.03241 0.0
C1119 C 0.43197 0.25954 0.99065 0.0
N1120 N 0.5041 0.26096 0.03388 0.0
N1121 N 0.45576 0.25963 0.99164 0.0
H1122 H 0.91944 0.26543 0.0431 0.0
H1123 H 0.03782 0.25406 0.97479 0.0
H1124 H 0.92346 0.26467 0.96779 0.0
H1125 H 0.03654 0.2874 0.04136 0.0
H1126 H 0.99573 0.25589 0.97395 0.0
H1127 H 0.96101 0.27381 0.04457 0.0
C1128 C 0.92878 0.26817 0.02678 0.0
C1129 C 0.91764 0.26484 0.00524 0.0
C1130 C 0.00453 0.26286 0.98878 0.0
C1131 C 0.9658 0.2729 0.00689 0.0
C1132 C 0.0288 0.26159 0.9895 0.0
C1133 C 0.04118 0.27041 0.00836 0.0
C1134 C 0.99195 0.27264 0.00723 0.0
C1135 C 0.02795 0.28021 0.02655 0.0
C1136 C 0.95266 0.27258 0.02768 0.0
C1137 C 0.931 0.26756 0.98475 0.0
N1138 N 0.00408 0.28083 0.02567 0.0
N1139 N 0.95435 0.27091 0.98611 0.0
H1140 H 0.99894 0.68661 0.28606 0.0
H1141 H 0.00555 0.80572 0.21342 0.0
H1142 H 0.996 0.69249 0.21064 0.0
H1143 H 0.99351 0.80252 0.28805 0.0
H1144 H 0.00543 0.76413 0.21281 0.0
H1145 H 0.99901 0.72839 0.28782 0.0
C1146 C 0.99801 0.69663 0.26987 0.0
C1147 C 0.99736 0.68576 0.24816 0.0
C1148 C 0.00294 0.77244 0.22939 0.0
C1149 C 0.99802 0.73398 0.25005 0.0
C1150 C 0.0032 0.79632 0.22979 0.0
C1151 C -0.00044 0.80794 0.25084 0.0
C1152 C 0.99919 0.75966 0.25021 0.0
C1153 C 0.99649 0.79449 0.2714 0.0
C1154 C 0.99819 0.72056 0.27089 0.0
C1155 C 0.99641 0.69988 0.22781 0.0
N1156 N 0.99634 0.77122 0.27057 0.0
N1157 N 0.99695 0.72303 0.22926 0.0
H1158 H 0.54364 0.78194 0.53774 0.0
H1159 H 0.42982 0.76278 0.45948 0.0
H1160 H 0.54443 0.7535 0.46875 0.0
H1161 H 0.4267 0.75944 0.53488 0.0
H1162 H 0.47138 0.77077 0.46176 0.0
H1163 H 0.50056 0.78315 0.53652 0.0
C1164 C 0.5349 0.7759 0.52245 0.0
C1165 C 0.54794 0.76723 0.50355 0.0
C1166 C 0.46146 0.76899 0.47787 0.0
C1167 C 0.49865 0.76946 0.5016 0.0
C1168 C 0.43754 0.76489 0.47653 0.0
C1169 C 0.42447 0.76093 0.497 0.0
C1170 C 0.47256 0.76924 0.49984 0.0
C1171 C 0.43591 0.76295 0.51864 0.0
C1172 C 0.51031 0.77668 0.52168 0.0
C1173 C 0.5354 0.75994 0.48404 0.0
N1174 N 0.45923 0.76677 0.51953 0.0
N1175 N 0.51174 0.76135 0.48353 0.0
H1176 H 0.9256 0.74128 0.54103 0.0
H1177 H 0.05217 0.74296 0.48077 0.0
H1178 H 0.93518 0.74954 0.4665 0.0
H1179 H 0.03919 0.75928 0.55306 0.0
H1180 H 0.01011 0.73871 0.47534 0.0
H1181 H 0.96783 0.73939 0.54601 0.0
C1182 C 0.93639 0.74189 0.52563 0.0
C1183 C 0.92653 0.74557 0.50332 0.0
C1184 C 0.01651 0.74329 0.49236 0.0
C1185 C 0.97537 0.74381 0.50885 0.0
C1186 C 0.04054 0.74589 0.49543 0.0
C1187 C 0.04943 0.75184 0.51732 0.0
C1188 C 0.00115 0.74615 0.51142 0.0
C1189 C 0.03333 0.75505 0.53574 0.0
C1190 C 0.96068 0.74114 0.52849 0.0
C1191 C 0.94191 0.74649 0.48405 0.0
N1192 N 0.01015 0.75204 0.53242 0.0
N1193 N 0.96542 0.74581 0.48722 0.0
H1194 H 0.96604 0.18615 0.20499 0.0
H1195 H 0.03277 0.29841 0.24139 0.0
H1196 H 0.03006 0.18475 0.24401 0.0
H1197 H 0.95983 0.3004 0.22423 0.0
H1198 H 0.03417 0.2574 0.23548 0.0
H1199 H 0.96593 0.22805 0.20455 0.0
C1200 C 0.98052 0.19457 0.21275 0.0
C1201 C 0.99832 0.18167 0.22422 0.0
C1202 C 0.01784 0.26674 0.23283 0.0
C1203 C 0.99801 0.22995 0.22421 0.0
C1204 C 0.01702 0.2903 0.23612 0.0
C1205 C 0.99613 0.30312 0.23335 0.0
C1206 C 0.99768 0.25551 0.22639 0.0
C1207 C 0.97634 0.29135 0.22658 0.0
C1208 C 0.98022 0.21857 0.21283 0.0
C1209 C 0.01614 0.1938 0.23467 0.0
N1210 N 0.9776 0.2683 0.22334 0.0
N1211 N 0.01552 0.21704 0.23441 0.0
H1212 H 0.46585 0.80657 0.71609 0.0
H1213 H 0.53429 0.68798 0.7407 0.0
H1214 H 0.53821 0.80188 0.73541 0.0
H1215 H 0.47062 0.69203 0.70111 0.0
H1216 H 0.53595 0.72956 0.73863 0.0
H1217 H 0.46663 0.7651 0.71053 0.0
C1218 C 0.48198 0.79693 0.71887 0.0
C1219 C 0.50202 0.80794 0.72615 0.0
C1220 C 0.52181 0.72142 0.72998 0.0
C1221 C 0.50294 0.76013 0.72024 0.0
C1222 C 0.52098 0.69756 0.73097 0.0
C1223 C 0.50254 0.68621 0.72067 0.0
C1224 C 0.50373 0.73445 0.71915 0.0
C1225 C 0.48548 0.69982 0.70884 0.0
C1226 C 0.48241 0.77319 0.71572 0.0
C1227 C 0.52233 0.79433 0.72969 0.0
N1228 N 0.4863 0.72309 0.70872 0.0
N1229 N 0.52218 0.77132 0.72695 0.0
H1230 H 0.9973 0.45046 0.71411 0.0
H1231 H 0.01757 0.55981 0.78967 0.0
H1232 H 0.03463 0.44371 0.7794 0.0
H1233 H 0.0223 0.56256 0.71425 0.0
H1234 H 0.01874 0.51774 0.78843 0.0
H1235 H 0.00089 0.49199 0.71538 0.0
C1236 C 0.00663 0.45762 0.7285 0.0
C1237 C 0.01612 0.44331 0.74638 0.0
C1238 C 0.01958 0.52764 0.77218 0.0
C1239 C 0.0193 0.49125 0.74856 0.0
C1240 C 0.01896 0.55166 0.7729 0.0
C1241 C 0.01957 0.56492 0.75202 0.0
C1242 C 0.02029 0.51674 0.75042 0.0
C1243 C 0.02136 0.5532 0.7308 0.0
C1244 C 0.00855 0.48139 0.72929 0.0
C1245 C 0.02752 0.45387 0.76489 0.0
N1246 N 0.02128 0.53002 0.73053 0.0
N1247 N 0.02848 0.47708 0.76568 0.0
H1248 H 0.20879 0.21776 0.49329 0.0
H1249 H 0.31731 0.2928 0.48884 0.0
H1250 H 0.20054 0.2848 0.46112 0.0
H1251 H 0.32239 0.22144 0.47411 0.0
H1252 H 0.27545 0.29259 0.48082 0.0
H1253 H 0.25062 0.22093 0.49115 0.0
C1254 C 0.21562 0.2334 0.48603 0.0
C1255 C 0.20069 0.25113 0.47743 0.0
C1256 C 0.28583 0.27712 0.47875 0.0
C1257 C 0.24946 0.25464 0.47495 0.0
C1258 C 0.30979 0.27721 0.48311 0.0
C1259 C 0.32354 0.25704 0.4823 0.0
C1260 C 0.27531 0.25652 0.47428 0.0
C1261 C 0.31271 0.23734 0.47515 0.0
C1262 C 0.23971 0.23498 0.48456 0.0
C1263 C 0.21117 0.27075 0.46812 0.0
N1264 N 0.28917 0.23743 0.47207 0.0
N1265 N 0.23493 0.2721 0.46735 0.0
H1266 H 0.52876 0.44766 0.26203 0.0
H1267 H 0.46436 0.57051 0.2504 0.0
H1268 H 0.45438 0.45516 0.25658 0.0
H1269 H 0.5366 0.55749 0.23332 0.0
H1270 H 0.45995 0.52944 0.25775 0.0
H1271 H 0.53176 0.48887 0.25919 0.0
C1272 C 0.51294 0.45782 0.26135 0.0
C1273 C 0.49126 0.44752 0.26007 0.0
C1274 C 0.47671 0.53562 0.25222 0.0
C1275 C 0.49456 0.49544 0.25576 0.0
C1276 C 0.47919 0.55911 0.24773 0.0
C1277 C 0.50086 0.5678 0.24097 0.0
C1278 C 0.4961 0.52057 0.25041 0.0
C1279 C 0.51947 0.5519 0.23828 0.0
C1280 C 0.51469 0.48157 0.25919 0.0
C1281 C 0.47147 0.4622 0.25825 0.0
N1282 N 0.51671 0.52931 0.2432 0.0
N1283 N 0.47356 0.48524 0.25599 0.0
H1284 H 0.32609 0.7096 0.97506 0.0
H1285 H 0.21009 0.78751 0.97745 0.0
H1286 H 0.32519 0.78177 0.9864 0.0
H1287 H 0.20785 0.71657 0.99828 0.0
H1288 H 0.2523 0.78412 0.97502 0.0
H1289 H 0.28332 0.71017 0.97945 0.0
C1290 C 0.31702 0.72548 0.97879 0.0
C1291 C 0.32946 0.74567 0.98031 0.0
C1292 C 0.24265 0.76922 0.98002 0.0
C1293 C 0.28035 0.74653 0.98464 0.0
C1294 C 0.21835 0.77105 0.98123 0.0
C1295 C 0.20502 0.75228 0.98804 0.0
C1296 C 0.25418 0.74835 0.98531 0.0
C1297 C 0.21721 0.73153 0.99288 0.0
C1298 C 0.29257 0.7258 0.98119 0.0
C1299 C 0.31656 0.76575 0.98501 0.0
N1300 N 0.24102 0.7301 0.99133 0.0
N1301 N 0.2929 0.7657 0.98668 0.0
H1302 H 0.71146 0.98184 0.45154 0.0
H1303 H 0.74027 0.03314 0.57539 0.0
H1304 H 0.7628 0.03377 0.45355 0.0
H1305 H 0.73353 0.9616 0.56309 0.0
H1306 H 0.73996 0.04042 0.53235 0.0
H1307 H 0.70866 0.98229 0.49419 0.0
C1308 C 0.7217 0.99385 0.46085 0.0
C1309 C 0.73759 0.00762 0.44875 0.0
C1310 C 0.73867 0.02318 0.53926 0.0
C1311 C 0.73446 0.00805 0.49802 0.0
C1312 C 0.73888 0.019 0.56375 0.0
C1313 C 0.73721 0.99667 0.57298 0.0
C1314 C 0.7359 0.00501 0.52406 0.0
C1315 C 0.73522 0.97905 0.55698 0.0
C1316 C 0.72021 0.99393 0.48528 0.0
C1317 C 0.75027 0.02288 0.46203 0.0
N1318 N 0.73435 0.98362 0.53352 0.0
N1319 N 0.74866 0.02252 0.48601 0.0
H1320 H 0.77814 1.00081 0.31935 0.0
H1321 H 0.70758 0.00556 0.2005 0.0
H1322 H 0.70426 0.99014 0.32222 0.0
H1323 H 0.77615 0.97429 0.20756 0.0
H1324 H 0.70451 0.00603 0.24363 0.0
H1325 H 0.77666 0.99964 0.27666 0.0
C1326 C 0.76148 0.99863 0.31103 0.0
C1327 C 0.74132 0.99534 0.32454 0.0
C1328 C 0.72003 0.9988 0.23558 0.0
C1329 C 0.73957 0.99402 0.27533 0.0
C1330 C 0.72176 0.99834 0.21097 0.0
C1331 C 0.74223 0.98997 0.20014 0.0
C1332 C 0.7391 0.99137 0.2494 0.0
C1333 C 0.76005 0.98104 0.21484 0.0
C1334 C 0.76072 0.99775 0.28661 0.0
C1335 C 0.72024 0.99269 0.31254 0.0
N1336 N 0.75824 0.98238 0.23854 0.0
N1337 N 0.71989 0.99205 0.28858 0.0
H1338 H 0.74511 0.96722 0.94912 0.0
H1339 H 0.74076 0.03218 0.07118 0.0
H1340 H 0.74756 0.04007 0.95444 0.0
H1341 H 0.75616 0.96019 0.06774 0.0
H1342 H 0.73924 0.03454 0.02836 0.0
H1343 H 0.74696 0.96356 0.99212 0.0
C1344 C 0.74642 0.98243 0.95927 0.0
C1345 C 0.74621 0.004 0.94799 0.0
C1346 C 0.74281 0.01817 0.03692 0.0
C1347 C 0.74767 0.99994 0.99744 0.0
C1348 C 0.74345 0.01675 0.06146 0.0
C1349 C 0.74865 0.99594 0.07326 0.0
C1350 C 0.74719 0.99861 0.02377 0.0
C1351 C 0.75203 0.97659 0.05951 0.0
C1352 C 0.7473 0.98033 0.98387 0.0
C1353 C 0.74775 0.02308 0.96221 0.0
N1354 N 0.75132 0.97839 0.03557 0.0
N1355 N 0.74817 0.02061 0.98606 0.0
H1356 H 0.71323 1.00136 0.69992 0.0
H1357 H 0.78443 0.0147 0.81893 0.0
H1358 H 0.78756 0.99079 0.70144 0.0
H1359 H 0.71426 0.99077 0.81585 0.0
H1360 H 0.78648 0.01347 0.77576 0.0
H1361 H 0.71352 0.00763 0.74214 0.0
C1362 C 0.72973 1.00137 0.70882 0.0
C1363 C 0.75041 0.99588 0.6969 0.0
C1364 C 0.77073 0.00839 0.78469 0.0
C1365 C 0.7509 0.00237 0.74564 0.0
C1366 C 0.76963 0.00884 0.80936 0.0
C1367 C 0.74919 0.00275 0.82133 0.0
C1368 C 0.75108 0.00237 0.77186 0.0
C1369 C 0.73047 0.9956 0.8077 0.0
C1370 C 0.72987 0.00451 0.73312 0.0
C1371 C 0.77124 0.99536 0.70985 0.0
N1372 N 0.73177 0.99591 0.78387 0.0
N1373 N 0.77098 0.99842 0.73349 0.0
H1374 H 0.4586 0.71494 0.95824 0.0
H1375 H 0.58152 0.76407 0.99425 0.0
H1376 H 0.46228 0.77 0.00639 0.0
H1377 H 0.57161 0.6943 0.97618 0.0
H1378 H 0.53866 0.77042 0.99328 0.0
H1379 H 0.50101 0.71035 0.95971 0.0
C1380 C 0.4683 0.7258 0.96948 0.0
C1381 C 0.45675 0.74257 0.98255 0.0
C1382 C 0.54606 0.7538 0.98944 0.0
C1383 C 0.50561 0.73805 0.98358 0.0
C1384 C 0.57046 0.75026 0.98977 0.0
C1385 C 0.58021 0.72865 0.98529 0.0
C1386 C 0.53156 0.7357 0.98409 0.0
C1387 C 0.56499 0.71126 0.97983 0.0
C1388 C 0.49255 0.72331 0.97017 0.0
C1389 C 0.47038 0.75649 0.99643 0.0
N1390 N 0.54164 0.71518 0.97927 0.0
N1391 N 0.49409 0.75409 0.99641 0.0
H1392 H 0.95893 0.72541 0.94916 0.0
H1393 H 0.07774 0.74184 0.02046 0.0
H1394 H 0.96201 0.74975 0.01976 0.0
H1395 H 0.07525 0.74679 0.94509 0.0
H1396 H 0.03598 0.73444 0.02115 0.0
H1397 H 0.00191 0.72467 0.94778 0.0
C1398 C 0.96852 0.73067 0.9643 0.0
C1399 C 0.95657 0.73801 0.98445 0.0
C1400 C 0.0447 0.73654 0.0044 0.0
C1401 C 0.00587 0.73636 0.98331 0.0
C1402 C 0.06874 0.74036 0.00401 0.0
C1403 C 0.08029 0.74459 0.98267 0.0
C1404 C 0.032 0.73678 0.98329 0.0
C1405 C 0.06721 0.74319 0.96194 0.0
C1406 C 0.99307 0.73014 0.96355 0.0
C1407 C 0.97018 0.74433 0.00363 0.0
N1408 N 0.04387 0.73956 0.96273 0.0
N1409 N 0.99386 0.74324 0.00262 0.0
H1410 H 0.00937 0.2012 0.70271 0.0
H1411 H 0.01122 0.31475 0.77882 0.0
H1412 H 0.99833 0.20203 0.77748 0.0
H1413 H 0.00588 0.31738 0.70342 0.0
H1414 H 0.01046 0.27319 0.77814 0.0
H1415 H 0.01056 0.24305 0.70201 0.0
C1416 C 0.00687 0.21012 0.71894 0.0
C1417 C 0.00364 0.19779 0.74018 0.0
C1418 C 0.00963 0.28277 0.76168 0.0
C1419 C 0.00565 0.24605 0.73959 0.0
C1420 C 0.0103 0.30664 0.76203 0.0
C1421 C 0.00866 0.3199 0.74114 0.0
C1422 C 0.00747 0.27165 0.74026 0.0
C1423 C 0.0073 0.30807 0.72 0.0
C1424 C 0.00772 0.23408 0.71855 0.0
C1425 C 0.00078 0.21055 0.76064 0.0
N1426 N 0.00669 0.28478 0.72011 0.0
N1427 N 0.00203 0.23373 0.75984 0.0
H1428 H 0.45327 0.22335 0.45788 0.0
H1429 H 0.57071 0.23687 0.53204 0.0
H1430 H 0.45518 0.25143 0.52697 0.0
H1431 H 0.5701 0.24126 0.45654 0.0
H1432 H 0.52851 0.23127 0.53167 0.0
H1433 H 0.49621 0.22082 0.45799 0.0
C1434 C 0.4626 0.22915 0.47295 0.0
C1435 C 0.45037 0.23803 0.49222 0.0
C1436 C 0.53776 0.2329 0.51516 0.0
C1437 C 0.49953 0.23418 0.49291 0.0
C1438 C 0.56197 0.2358 0.51537 0.0
C1439 C 0.57408 0.23969 0.49428 0.0
C1440 C 0.52561 0.23341 0.4937 0.0
C1441 C 0.56153 0.23818 0.47322 0.0
C1442 C 0.48711 0.22754 0.47308 0.0
C1443 C 0.46362 0.24489 0.51144 0.0
N1444 N 0.53808 0.23538 0.47344 0.0
N1445 N 0.48727 0.24268 0.51134 0.0
H1446 H 0.95143 0.27203 0.50797 0.0
H1447 H 0.06652 0.20359 0.47065 0.0
H1448 H 0.9527 0.21654 0.46001 0.0
H1449 H 0.07051 0.2708 0.49831 0.0
H1450 H 0.02475 0.20802 0.46838 0.0
H1451 H 0.99428 0.27105 0.50789 0.0
C1452 C 0.96065 0.25932 0.49782 0.0
C1453 C 0.94829 0.2441 0.4842 0.0
C1454 C 0.03458 0.2221 0.47453 0.0
C1455 C 0.9974 0.24329 0.48369 0.0
C1456 C 0.05868 0.21975 0.47546 0.0
C1457 C 0.07238 0.23721 0.4838 0.0
C1458 C 0.02346 0.24179 0.48286 0.0
C1459 C 0.06077 0.25718 0.49109 0.0
C1460 C 0.98513 0.25905 0.49751 0.0
C1461 C 0.9613 0.22846 0.47095 0.0
N1462 N 0.03691 0.25884 0.49073 0.0
N1463 N 0.98497 0.22844 0.4711 0.0
H1464 H 0.03531 0.70526 0.77613 0.0
H1465 H 0.96189 0.82137 0.75136 0.0
H1466 H 0.96225 0.70768 0.7595 0.0
H1467 H 0.02669 0.82073 0.78901 0.0
H1468 H 0.96246 0.77975 0.75362 0.0
H1469 H 0.0337 0.74702 0.78016 0.0
C1470 C 0.0189 0.71446 0.77355 0.0
C1471 C 0.99888 0.70271 0.76753 0.0
C1472 C 0.97642 0.78862 0.76176 0.0
C1473 C 0.99697 0.75079 0.77173 0.0
C1474 C 0.97601 0.81252 0.76062 0.0
C1475 C 0.99402 0.82485 0.77041 0.0
C1476 C 0.99532 0.77651 0.77222 0.0
C1477 C 0.01211 0.81213 0.78169 0.0
C1478 C 0.01799 0.73836 0.77584 0.0
C1479 C 0.97817 0.71578 0.76424 0.0
N1480 N 0.01246 0.78879 0.78201 0.0
N1481 N 0.97783 0.73888 0.76616 0.0
H1482 H 0.52076 0.3152 0.23244 0.0
H1483 H 0.4711 0.2016 0.28626 0.0
H1484 H 0.48638 0.3177 0.29963 0.0
H1485 H 0.53595 0.20251 0.24826 0.0
H1486 H 0.4723 0.24331 0.28953 0.0
H1487 H 0.52227 0.27384 0.23547 0.0
C1488 C 0.51352 0.30708 0.24797 0.0
C1489 C 0.50349 0.32026 0.26584 0.0
C1490 C 0.48642 0.23433 0.28078 0.0
C1491 C 0.50467 0.27204 0.26912 0.0
C1492 C 0.48577 0.21049 0.27888 0.0
C1493 C 0.50355 0.19834 0.26707 0.0
C1494 C 0.50462 0.24636 0.27018 0.0
C1495 C 0.52195 0.21096 0.25769 0.0
C1496 C 0.51447 0.28331 0.24967 0.0
C1497 C 0.49439 0.3084 0.28546 0.0
N1498 N 0.5218 0.23414 0.25911 0.0
N1499 N 0.49487 0.28499 0.28641 0.0
H1500 H 0.46756 0.06483 0.71472 0.0
H1501 H 0.48138 0.9457 0.78732 0.0
H1502 H 0.49582 0.05783 0.78451 0.0
H1503 H 0.47194 0.94825 0.71255 0.0
H1504 H 0.4798 0.98732 0.78761 0.0
H1505 H 0.46237 0.02338 0.71465 0.0
C1506 C 0.47218 0.05475 0.73026 0.0
C1507 C 0.482 0.06517 0.74975 0.0
C1508 C 0.47786 0.97892 0.77108 0.0
C1509 C 0.47623 0.01728 0.74965 0.0
C1510 C 0.47884 0.95507 0.77092 0.0
C1511 C 0.47714 0.94332 0.74991 0.0
C1512 C 0.47499 0.99158 0.74998 0.0
C1513 C 0.47315 0.95648 0.72924 0.0
C1514 C 0.46942 0.03096 0.73008 0.0
C1515 C 0.48809 0.05085 0.76909 0.0
N1516 N 0.47238 0.97984 0.72976 0.0
N1517 N 0.48511 0.02789 0.76853 0.0
H1518 H 0.172 0.21249 0.01702 0.0
H1519 H 0.28466 0.28049 0.99595 0.0
H1520 H 0.17255 0.28511 0.02411 0.0
H1521 H 0.29107 0.21632 0.03425 0.0
H1522 H 0.24265 0.27961 0.00045 0.0
H1523 H 0.21446 0.21087 0.02109 0.0
C1524 C 0.18092 0.22804 0.02038 0.0
C1525 C 0.16849 0.24903 0.02004 0.0
C1526 C 0.25324 0.26566 0.00779 0.0
C1527 C 0.2173 0.24737 0.02323 0.0
C1528 C 0.27734 0.26591 0.00494 0.0
C1529 C 0.29179 0.24844 0.0148 0.0
C1530 C 0.24307 0.24757 0.02008 0.0
C1531 C 0.28081 0.23011 0.02624 0.0
C1532 C 0.20521 0.22709 0.02233 0.0
C1533 C 0.18112 0.26861 0.02393 0.0
N1534 N 0.25711 0.2301 0.02849 0.0
N1535 N 0.20485 0.26739 0.02466 0.0
H1536 H 0.96576 0.05083 0.24267 0.0
H1537 H 0.04171 0.93572 0.23471 0.0
H1538 H 0.04061 0.05348 0.24217 0.0
H1539 H 0.97527 0.94057 0.26995 0.0
H1540 H 0.04231 0.97765 0.23251 0.0
H1541 H 0.96891 0.00936 0.24587 0.0
C1542 C 0.98292 0.04273 0.24286 0.0
C1543 C 0.00295 0.0559 0.24219 0.0
C1544 C 0.02779 0.96943 0.24098 0.0
C1545 C 0.00667 0.00786 0.24592 0.0
C1546 C 0.02751 0.94544 0.24245 0.0
C1547 C 0.00842 0.93424 0.25258 0.0
C1548 C 0.00861 0.98241 0.24917 0.0
C1549 C 0.99042 0.94808 0.26195 0.0
C1550 C 0.98469 0.01896 0.24492 0.0
C1551 C 0.02467 0.04413 0.2426 0.0
N1552 N 0.99081 0.97118 0.25967 0.0
N1553 N 0.02597 0.02084 0.24438 0.0
H1554 H 0.29129 0.71517 0.49937 0.0
H1555 H 0.18592 0.79958 0.52834 0.0
H1556 H 0.29775 0.7878 0.49164 0.0
H1557 H 0.17401 0.73296 0.50208 0.0
H1558 H 0.22699 0.79547 0.51742 0.0
H1559 H 0.24911 0.72065 0.50406 0.0
C1560 C 0.28394 0.73233 0.49893 0.0
C1561 C 0.29837 0.75108 0.49534 0.0
C1562 C 0.21539 0.78185 0.5137 0.0
C1563 C 0.24965 0.75742 0.50066 0.0
C1564 C 0.19184 0.78424 0.51977 0.0
C1565 C 0.1763 0.76666 0.51608 0.0
C1566 C 0.22395 0.76137 0.50447 0.0
C1567 C 0.18519 0.74702 0.50522 0.0
C1568 C 0.25974 0.73539 0.50134 0.0
C1569 C 0.28751 0.77283 0.49451 0.0
N1570 N 0.20847 0.74473 0.50024 0.0
N1571 N 0.26396 0.7754 0.4974 0.0
H1572 H 0.78687 0.468 0.94058 0.0
H1573 H 0.79292 0.49014 0.06054 0.0
H1574 H 0.73322 0.52064 0.9433 0.0
H1575 H 0.71808 0.49335 0.05751 0.0
H1576 H 0.79423 0.48623 0.01772 0.0
H1577 H 0.78402 0.46278 0.98328 0.0
C1578 C 0.77407 0.47811 0.95 0.0
C1579 C 0.76027 0.49484 0.93814 0.0
C1580 C 0.7775 0.4872 0.02649 0.0
C1581 C 0.75706 0.48892 0.9873 0.0
C1582 C 0.77676 0.48933 0.05094 0.0
C1583 C 0.75536 0.49142 0.06273 0.0
C1584 C 0.75671 0.48805 0.01353 0.0
C1585 C 0.73494 0.4911 0.04923 0.0
C1586 C 0.77268 0.47526 0.97446 0.0
C1587 C 0.74424 0.50757 0.95159 0.0
N1588 N 0.73611 0.48995 0.02535 0.0
N1589 N 0.74305 0.50433 0.97539 0.0
H1590 H 0.73665 0.49218 0.18254 0.0
H1591 H 0.79206 0.50027 0.31078 0.0
H1592 H 0.80651 0.51435 0.1932 0.0
H1593 H 0.71896 0.51266 0.29702 0.0
H1594 H 0.79887 0.49792 0.26826 0.0
H1595 H 0.73108 0.49049 0.22543 0.0
C1596 C 0.75093 0.49625 0.19382 0.0
C1597 C 0.77188 0.50396 0.18425 0.0
C1598 C 0.78138 0.50126 0.27465 0.0
C1599 C 0.76585 0.50165 0.23318 0.0
C1600 C 0.77752 0.5028 0.2989 0.0
C1601 C 0.75496 0.50697 0.30764 0.0
C1602 C 0.76249 0.50328 0.25904 0.0
C1603 C 0.73673 0.50974 0.29125 0.0
C1604 C 0.74772 0.49544 0.21829 0.0
C1605 C 0.78995 0.50861 0.19982 0.0
N1606 N 0.74085 0.50763 0.26788 0.0
N1607 N 0.78652 0.50749 0.22343 0.0
H1608 H 0.75294 0.53509 0.55969 0.0
H1609 H 0.75728 0.47099 0.43692 0.0
H1610 H 0.75093 0.46228 0.55379 0.0
H1611 H 0.74239 0.54302 0.44088 0.0
H1612 H 0.75892 0.46834 0.47973 0.0
H1613 H 0.75137 0.53905 0.51667 0.0
C1614 C 0.75183 0.51994 0.54941 0.0
C1615 C 0.752 0.49831 0.56056 0.0
C1616 C 0.75545 0.48479 0.47131 0.0
C1617 C 0.75083 0.50273 0.51103 0.0
C1618 C 0.75473 0.48637 0.44675 0.0
C1619 C 0.74966 0.50728 0.43505 0.0
C1620 C 0.75126 0.50426 0.48463 0.0
C1621 C 0.74645 0.52655 0.44898 0.0
C1622 C 0.75108 0.52223 0.52479 0.0
C1623 C 0.75073 0.47932 0.54615 0.0
N1624 N 0.74723 0.52457 0.47295 0.0
N1625 N 0.75042 0.48197 0.52229 0.0
H1626 H 0.79486 0.50018 0.80425 0.0
H1627 H 0.71555 0.48207 0.69307 0.0
H1628 H 0.72034 0.50126 0.81326 0.0
H1629 H 0.77901 0.51948 0.69059 0.0
H1630 H 0.71627 0.48353 0.7363 0.0
H1631 H 0.78958 0.49955 0.76184 0.0
C1632 C 0.77734 0.4999 0.79739 0.0
C1633 C 0.75802 0.50091 0.81255 0.0
C1634 C 0.7298 0.49167 0.72615 0.0
C1635 C 0.75185 0.50019 0.76349 0.0
C1636 C 0.72929 0.49106 0.70144 0.0
C1637 C 0.74729 0.50058 0.68789 0.0
C1638 C 0.74868 0.50141 0.73741 0.0
C1639 C 0.76478 0.51172 0.70001 0.0
C1640 C 0.77434 0.49976 0.77307 0.0
C1641 C 0.73575 0.5005 0.80232 0.0
N1642 N 0.76524 0.51144 0.72387 0.0
N1643 N 0.73325 0.50015 0.77845 0.0
H1644 H 0.50062 0.3098 0.79225 0.0
H1645 H 0.4843 0.19029 0.72776 0.0
H1646 H 0.49697 0.30559 0.71705 0.0
H1647 H 0.50279 0.19631 0.80044 0.0
H1648 H 0.48424 0.23227 0.72344 0.0
H1649 H 0.49816 0.26829 0.79551 0.0
C1650 C 0.49958 0.30019 0.77637 0.0
C1651 C 0.49916 0.3115 0.75434 0.0
C1652 C 0.48806 0.22435 0.74039 0.0
C1653 C 0.49566 0.26339 0.75795 0.0
C1654 C 0.4879 0.2003 0.74291 0.0
C1655 C 0.49377 0.18948 0.7645 0.0
C1656 C 0.49374 0.23775 0.75968 0.0
C1657 C 0.4982 0.20368 0.78342 0.0
C1658 C 0.49798 0.27637 0.77823 0.0
C1659 C 0.49748 0.29781 0.73444 0.0
N1660 N 0.49818 0.22676 0.78057 0.0
N1661 N 0.49566 0.27467 0.7367 0.0
H1662 H 0.53891 0.94024 0.27697 0.0
H1663 H 0.52021 0.06072 0.21045 0.0
H1664 H 0.50346 0.94755 0.21067 0.0
H1665 H 0.51744 0.0558 0.28592 0.0
H1666 H 0.52261 0.01925 0.20894 0.0
H1667 H 0.5399 0.98197 0.27901 0.0
C1668 C 0.53193 0.95052 0.26248 0.0
C1669 C 0.52142 0.94009 0.24337 0.0
C1670 C 0.52158 0.02715 0.22587 0.0
C1671 C 0.52239 0.98823 0.24578 0.0
C1672 C 0.52015 0.05094 0.22681 0.0
C1673 C 0.51814 0.06202 0.24835 0.0
C1674 C 0.52176 0.01388 0.24667 0.0
C1675 C 0.51879 0.04816 0.26889 0.0
C1676 C 0.53221 0.97442 0.26387 0.0
C1677 C 0.51204 0.95461 0.22557 0.0
N1678 N 0.5206 0.02488 0.26755 0.0
N1679 N 0.5129 0.97774 0.22713 0.0
H1680 H 0.82995 0.7248 0.96327 0.0
H1681 H 0.70304 0.78568 0.96287 0.0
H1682 H 0.82053 0.79393 0.98496 0.0
H1683 H 0.71735 0.71418 0.97703 0.0
H1684 H 0.7456 0.7914 0.96108 0.0
H1685 H 0.7882 0.72326 0.95618 0.0
C1686 C 0.81942 0.7399 0.96575 0.0
C1687 C 0.82902 0.75938 0.97491 0.0
C1688 C 0.73919 0.77452 0.96455 0.0
C1689 C 0.7807 0.75781 0.96707 0.0
C1690 C 0.71494 0.77128 0.96572 0.0
C1691 C 0.70633 0.74951 0.97059 0.0
C1692 C 0.75482 0.75573 0.96745 0.0
C1693 C 0.72279 0.73142 0.97372 0.0
C1694 C 0.79536 0.73897 0.96199 0.0
C1695 C 0.81393 0.77844 0.97797 0.0
N1696 N 0.74596 0.73492 0.97195 0.0
N1697 N 0.79057 0.77715 0.97433 0.0
H1698 H 0.95814 0.07222 0.75546 0.0
H1699 H 0.02496 0.94995 0.75858 0.0
H1700 H 0.03003 0.06181 0.73548 0.0
H1701 H 0.9504 0.95695 0.75468 0.0
H1702 H 0.02736 0.99152 0.75769 0.0
H1703 H 0.95486 0.03075 0.76051 0.0
C1704 C 0.97312 0.06133 0.75172 0.0
C1705 C 0.99434 0.07086 0.74478 0.0
C1706 C 0.01041 0.98397 0.75757 0.0
C1707 C 0.99093 0.02312 0.75154 0.0
C1708 C 0.00904 0.9601 0.75857 0.0
C1709 C 0.98742 0.9497 0.75723 0.0
C1710 C 0.99 0.99772 0.7553 0.0
C1711 C 0.96743 0.96413 0.7563 0.0
C1712 C 0.9713 0.0376 0.75487 0.0
C1713 C 0.0132 0.05557 0.74065 0.0
N1714 N 0.96917 0.98724 0.75526 0.0
N1715 N 0.01111 0.0327 0.74429 0.0
H1716 H 0.70036 0.21279 0.51556 0.0
H1717 H 0.82317 0.27376 0.49943 0.0
H1718 H 0.70665 0.28416 0.49839 0.0
H1719 H 0.81422 0.20412 0.48085 0.0
H1720 H 0.78175 0.27653 0.51009 0.0
H1721 H 0.74312 0.20813 0.51256 0.0
C1722 C 0.71064 0.22744 0.51117 0.0
C1723 C 0.69969 0.24882 0.50683 0.0
C1724 C 0.78901 0.26046 0.50422 0.0
C1725 C 0.74873 0.24377 0.50424 0.0
C1726 C 0.81282 0.25879 0.49844 0.0
C1727 C 0.82239 0.23859 0.48942 0.0
C1728 C 0.77468 0.2417 0.50135 0.0
C1729 C 0.80769 0.21994 0.488 0.0
C1730 C 0.73504 0.22479 0.50953 0.0
C1731 C 0.71411 0.26724 0.50146 0.0
N1732 N 0.78468 0.22192 0.4938 0.0
N1733 N 0.7377 0.26433 0.50046 0.0
H1734 H 0.23107 0.54161 0.068 0.0
H1735 H 0.21241 0.48554 0.94804 0.0
H1736 H 0.24902 0.47088 0.05709 0.0
H1737 H 0.26123 0.53991 0.94462 0.0
H1738 H 0.212 0.48774 0.99068 0.0
H1739 H 0.23149 0.54823 0.025 0.0
C1740 C 0.23557 0.52761 0.05674 0.0
C1741 C 0.23992 0.5056 0.06638 0.0
C1742 C 0.22236 0.49954 0.98051 0.0
C1743 C 0.23953 0.51298 0.01745 0.0
C1744 C 0.22253 0.49845 0.95611 0.0
C1745 C 0.23715 0.51235 0.94252 0.0
C1746 C 0.23651 0.51493 0.99162 0.0
C1747 C 0.24972 0.52882 0.95428 0.0
C1748 C 0.23567 0.53142 0.03225 0.0
C1749 C 0.24545 0.48812 0.05074 0.0
N1750 N 0.24936 0.5295 0.97825 0.0
N1751 N 0.2446 0.49209 0.02719 0.0
H1752 H 0.20276 0.49649 0.8169 0.0
H1753 H 0.2758 0.47586 0.70049 0.0
H1754 H 0.2776 0.49873 0.81325 0.0
H1755 H 0.20973 0.51238 0.69546 0.0
H1756 H 0.27275 0.47613 0.74305 0.0
H1757 H 0.20153 0.4966 0.77357 0.0
C1758 C 0.21887 0.49735 0.80706 0.0
C1759 C 0.24033 0.49755 0.81886 0.0
C1760 C 0.25879 0.48389 0.73266 0.0
C1761 C 0.23902 0.49683 0.76946 0.0
C1762 C 0.26037 0.48358 0.70823 0.0
C1763 C 0.24309 0.4943 0.69407 0.0
C1764 C 0.23961 0.49467 0.74339 0.0
C1765 C 0.22351 0.5039 0.70551 0.0
C1766 C 0.21814 0.49729 0.78237 0.0
C1767 C 0.26064 0.49851 0.8051 0.0
N1768 N 0.22232 0.50394 0.72951 0.0
N1769 N 0.25949 0.49775 0.78131 0.0
H1770 H 0.25119 0.46115 0.56221 0.0
H1771 H 0.24896 0.54017 0.44476 0.0
H1772 H 0.24433 0.5343 0.56206 0.0
H1773 H 0.23938 0.46783 0.44345 0.0
H1774 H 0.25085 0.53765 0.48762 0.0
H1775 H 0.24896 0.46255 0.51909 0.0
C1776 C 0.24886 0.47748 0.5532 0.0
C1777 C 0.2479 0.49762 0.56602 0.0
C1778 C 0.24847 0.52226 0.47802 0.0
C1779 C 0.24597 0.49939 0.51632 0.0
C1780 C 0.24759 0.52366 0.4534 0.0
C1781 C 0.24399 0.50418 0.44022 0.0
C1782 C 0.24595 0.50119 0.48987 0.0
C1783 C 0.24224 0.48331 0.45273 0.0
C1784 C 0.24776 0.47828 0.5285 0.0
C1785 C 0.24511 0.51828 0.55314 0.0
N1786 N 0.2432 0.48238 0.47672 0.0
N1787 N 0.24446 0.51862 0.52919 0.0
H1788 H 0.21957 0.47705 0.31267 0.0
H1789 H 0.27963 0.49515 0.18859 0.0
H1790 H 0.2805 0.51816 0.30863 0.0
H1791 H 0.20531 0.49766 0.19932 0.0
H1792 H 0.28497 0.49662 0.23152 0.0
H1793 H 0.21971 0.47498 0.27008 0.0
C1794 C 0.23337 0.48522 0.30295 0.0
C1795 C 0.2499 0.49805 0.31448 0.0
C1796 C 0.26756 0.49706 0.22432 0.0
C1797 C 0.25 0.49571 0.26526 0.0
C1798 C 0.26448 0.49634 0.19987 0.0
C1799 C 0.24198 0.49627 0.19024 0.0
C1800 C 0.24801 0.49703 0.23918 0.0
C1801 C 0.22299 0.49767 0.20578 0.0
C1802 C 0.23326 0.48419 0.27853 0.0
C1803 C 0.2674 0.50807 0.30062 0.0
N1804 N 0.22644 0.49761 0.22936 0.0
N1805 N 0.26691 0.50684 0.27669 0.0
H1806 H 0.51705 0.81137 0.27289 0.0
H1807 H 0.51885 0.69732 0.1976 0.0
H1808 H 0.51047 0.81387 0.19759 0.0
H1809 H 0.50546 0.69864 0.27197 0.0
H1810 H 0.51892 0.73927 0.19651 0.0
H1811 H 0.51737 0.7698 0.27224 0.0
C1812 C 0.51605 0.80323 0.25611 0.0
C1813 C 0.51376 0.81646 0.23525 0.0
C1814 C 0.51581 0.73037 0.21303 0.0
C1815 C 0.5139 0.76816 0.23441 0.0
C1816 C 0.51563 0.70635 0.21365 0.0
C1817 C 0.51206 0.69415 0.2349 0.0
C1818 C 0.51277 0.74249 0.23387 0.0
C1819 C 0.50822 0.70705 0.25512 0.0
C1820 C 0.51602 0.77936 0.25579 0.0
C1821 C 0.51239 0.80459 0.21413 0.0
N1822 N 0.50889 0.73026 0.25412 0.0
N1823 N 0.51246 0.78126 0.21426 0.0
H1824 H 0.08633 0.36766 0.29549 0.0
H1825 H 0.06724 0.29948 0.41561 0.0
H1826 H 0.02179 0.33643 0.31476 0.0
H1827 H 0.13569 0.31115 0.38732 0.0
H1828 H 0.05019 0.31623 0.37976 0.0
H1829 H 0.10537 0.34754 0.32858 0.0
C1830 C 0.07638 0.35599 0.30626 0.0
C1831 C 0.05244 0.35391 0.30265 0.0
C1832 C 0.06895 0.31524 0.38145 0.0
C1833 C 0.07376 0.33164 0.34083 0.0
C1834 C 0.07866 0.30607 0.40206 0.0
C1835 C 0.10287 0.30398 0.40434 0.0
C1836 C 0.08358 0.32253 0.36315 0.0
C1837 C 0.11691 0.31253 0.38619 0.0
C1838 C 0.08716 0.34475 0.32528 0.0
C1839 C 0.04026 0.33863 0.31705 0.0
N1840 N 0.10705 0.32139 0.36625 0.0
N1841 N 0.05097 0.32843 0.33586 0.0
H1842 H 0.97112 0.89004 0.63949 0.0
H1843 H 0.92688 0.77288 0.59304 0.0
H1844 H 0.94777 0.83531 0.68471 0.0
H1845 H 0.9147 0.83551 0.55311 0.0
H1846 H 0.9439 0.79443 0.62417 0.0
H1847 H 0.95784 0.86935 0.6053 0.0
C1848 C 0.96302 0.87379 0.64219 0.0
C1849 C 0.96036 0.86434 0.66484 0.0
C1850 C 0.93766 0.8034 0.60849 0.0
C1851 C 0.94597 0.84054 0.62616 0.0
C1852 C 0.92808 0.79113 0.5906 0.0
C1853 C 0.91894 0.80246 0.57057 0.0
C1854 C 0.93841 0.82714 0.60625 0.0
C1855 C 0.92131 0.82612 0.56836 0.0
C1856 C 0.95556 0.86202 0.62276 0.0
C1857 C 0.94996 0.84321 0.66751 0.0
N1858 N 0.9307 0.83777 0.58613 0.0
N1859 N 0.94332 0.83191 0.64836 0.0
H1860 H 0.40065 0.66862 0.76739 0.0
H1861 H 0.42675 0.70084 0.8962 0.0
H1862 H 0.47122 0.66941 0.7927 0.0
H1863 H 0.37726 0.74253 0.85641 0.0
H1864 H 0.43944 0.68279 0.86005 0.0
H1865 H 0.38791 0.6905 0.80147 0.0
C1866 C 0.41344 0.67348 0.78008 0.0
C1867 C 0.43696 0.66704 0.77753 0.0
C1868 C 0.42581 0.6959 0.85928 0.0
C1869 C 0.4225 0.69142 0.81632 0.0
C1870 C 0.41843 0.70605 0.87983 0.0
C1871 C 0.40093 0.7231 0.87912 0.0
C1872 C 0.41519 0.70246 0.83803 0.0
C1873 C 0.39083 0.72941 0.85752 0.0
C1874 C 0.40617 0.68596 0.79936 0.0
C1875 C 0.45289 0.67377 0.7943 0.0
N1876 N 0.39795 0.71885 0.83768 0.0
N1877 N 0.44531 0.68533 0.81327 0.0
H1878 H 0.58531 0.22231 0.09421 0.0
H1879 H 0.5178 0.11539 0.14499 0.0
H1880 H 0.55058 0.17568 0.05011 0.0
H1881 H 0.53791 0.17106 0.18773 0.0
H1882 H 0.53213 0.13578 0.11037 0.0
H1883 H 0.56951 0.203 0.1288 0.0
C1884 C 0.57411 0.20813 0.09184 0.0
C1885 C 0.56928 0.20053 0.06935 0.0
C1886 C 0.53345 0.1435 0.12732 0.0
C1887 C 0.5514 0.17802 0.10886 0.0
C1888 C 0.52547 0.13179 0.1472 0.0
C1889 C 0.52668 0.14149 0.16941 0.0
C1890 C 0.5429 0.16503 0.12962 0.0
C1891 C 0.53666 0.16287 0.17102 0.0
C1892 C 0.56513 0.19706 0.1116 0.0
C1893 C 0.55465 0.18209 0.0672 0.0
N1894 N 0.54439 0.17392 0.15139 0.0
N1895 N 0.54638 0.17127 0.08677 0.0
H1896 H 0.02096 0.66789 0.14726 0.0
H1897 H 0.14451 0.70013 0.09713 0.0
H1898 H 0.08382 0.65389 0.18701 0.0
H1899 H 0.08457 0.69095 0.0535 0.0
H1900 H 0.12349 0.68348 0.13053 0.0
H1901 H 0.04442 0.67842 0.11342 0.0
C1902 C 0.03972 0.66728 0.14902 0.0
C1903 C 0.05041 0.66014 0.17015 0.0
C1904 C 0.11512 0.68472 0.11355 0.0
C1905 C 0.07744 0.67194 0.13113 0.0
C1906 C 0.12712 0.69408 0.09448 0.0
C1907 C 0.11615 0.69699 0.07264 0.0
C1908 C 0.0919 0.67863 0.11073 0.0
C1909 C 0.09363 0.689 0.07008 0.0
C1910 C 0.05311 0.67305 0.12954 0.0
C1911 C 0.07482 0.6595 0.17116 0.0
N1912 N 0.08209 0.68051 0.08903 0.0
N1913 N 0.08755 0.66542 0.1519 0.0
H1914 H 0.58452 0.78066 0.4336 0.0
H1915 H 0.58981 0.87282 0.32858 0.0
H1916 H 0.62517 0.84106 0.43535 0.0
H1917 H 0.54368 0.81645 0.3307 0.0
H1918 H 0.60944 0.85701 0.36382 0.0
H1919 H 0.57537 0.78937 0.39245 0.0
C1920 C 0.59161 0.79569 0.42522 0.0
C1921 C 0.6053 0.81037 0.43784 0.0
C1922 C 0.59538 0.8478 0.35627 0.0
C1923 C 0.59493 0.82049 0.39094 0.0
C1924 C 0.5844 0.85671 0.3361 0.0
C1925 C 0.56541 0.84568 0.32688 0.0
C1926 C 0.58695 0.82798 0.36726 0.0
C1927 C 0.5585 0.8252 0.33735 0.0
C1928 C 0.58644 0.80065 0.40176 0.0
C1929 C 0.61422 0.82953 0.42624 0.0
N1930 N 0.56912 0.8171 0.35717 0.0
N1931 N 0.60871 0.83416 0.40345 0.0
H1932 H 0.47169 0.3067 0.68013 0.0
H1933 H 0.38975 0.31622 0.57284 0.0
H1934 H 0.41824 0.35969 0.67857 0.0
H1935 H 0.40375 0.2508 0.60669 0.0
H1936 H 0.40408 0.3347 0.60801 0.0
H1937 H 0.4511 0.28726 0.64929 0.0
C1938 C 0.4555 0.31406 0.67338 0.0
C1939 C 0.44642 0.3346 0.68175 0.0
C1940 C 0.40368 0.31631 0.60769 0.0
C1941 C 0.42342 0.31306 0.64645 0.0
C1942 C 0.39571 0.30584 0.58772 0.0
C1943 C 0.39574 0.28209 0.58706 0.0
C1944 C 0.41224 0.30278 0.62653 0.0
C1945 C 0.40349 0.26922 0.60666 0.0
C1946 C 0.4438 0.303 0.65595 0.0
C1947 C 0.4255 0.34367 0.67255 0.0
N1948 N 0.41184 0.27975 0.62555 0.0
N1949 N 0.41479 0.33299 0.65495 0.0
H1950 H 0.93455 0.12215 0.84319 0.0
H1951 H 0.92473 0.23424 0.91822 0.0
H1952 H 0.94051 0.18999 0.81373 0.0
H1953 H 0.89958 0.16977 0.94399 0.0
H1954 H 0.93449 0.21693 0.88099 0.0
H1955 H 0.9226 0.13832 0.88063 0.0
C1956 C 0.93266 0.14045 0.84443 0.0
C1957 C 0.93856 0.15479 0.82541 0.0
C1958 C 0.92699 0.20652 0.89484 0.0
C1959 C 0.92586 0.17333 0.86828 0.0
C1960 C 0.92171 0.2163 0.91625 0.0
C1961 C 0.91116 0.20349 0.93424 0.0
C1962 C 0.92184 0.18369 0.89139 0.0
C1963 C 0.90775 0.1803 0.93066 0.0
C1964 C 0.92613 0.14966 0.86586 0.0
C1965 C 0.93603 0.17835 0.82794 0.0
N1966 N 0.9129 0.17116 0.90954 0.0
N1967 N 0.93024 0.1869 0.84914 0.0
H1968 H 0.3243 0.03641 0.28868 0.0
H1969 H 0.42796 0.12415 0.289 0.0
H1970 H 0.32692 0.08929 0.33938 0.0
H1971 H 0.43008 0.05929 0.25517 0.0
H1972 H 0.38891 0.11582 0.30399 0.0
H1973 H 0.35973 0.05041 0.27051 0.0
C1974 C 0.33198 0.0515 0.29547 0.0
C1975 C 0.3227 0.06181 0.31543 0.0
C1976 C 0.39805 0.10345 0.29336 0.0
C1977 C 0.36387 0.07735 0.29541 0.0
C1978 C 0.4204 0.10808 0.28495 0.0
C1979 C 0.43243 0.09238 0.27081 0.0
C1980 C 0.3876 0.08316 0.28731 0.0
C1981 C 0.42164 0.07193 0.266 0.0
C1982 C 0.35241 0.05927 0.28535 0.0
C1983 C 0.33343 0.08111 0.32378 0.0
N1984 N 0.39986 0.06803 0.27409 0.0
N1985 N 0.35375 0.08811 0.31393 0.0
H1986 H 0.15976 0.04223 0.57196 0.0
H1987 H 0.18417 0.16767 0.53677 0.0
H1988 H 0.23 0.06545 0.57712 0.0
H1989 H 0.14359 0.12685 0.49132 0.0
H1990 H 0.19805 0.13275 0.55756 0.0
H1991 H 0.14963 0.07601 0.54773 0.0
C1992 C 0.17301 0.05448 0.56795 0.0
C1993 C 0.19568 0.0513 0.57646 0.0
C1994 C 0.18625 0.13158 0.5429 0.0
C1995 C 0.18418 0.08974 0.54945 0.0
C1996 C 0.17826 0.15134 0.53122 0.0
C1997 C 0.16271 0.14989 0.51253 0.0
C1998 C 0.178 0.11057 0.53613 0.0
C1999 C 0.15559 0.12851 0.50573 0.0
C2000 C 0.16727 0.07357 0.55413 0.0
C2001 C 0.21232 0.0675 0.57084 0.0
N2002 N 0.16303 0.10958 0.51782 0.0
N2003 N 0.20615 0.08636 0.55786 0.0
H2004 H 0.16637 0.99677 0.8456 0.0
H2005 H 0.10094 0.88744 0.80675 0.0
H2006 H 0.20031 0.94089 0.81038 0.0
H2007 H 0.06436 0.95239 0.80927 0.0
H2008 H 0.13725 0.90608 0.81472 0.0
H2009 H 0.12848 0.98091 0.83666 0.0
C2010 C 0.16579 0.98144 0.83552 0.0
C2011 C 0.18643 0.97005 0.82873 0.0
C2012 C 0.12127 0.91626 0.8137 0.0
C2013 C 0.14344 0.95155 0.81923 0.0
C2014 C 0.10048 0.9056 0.80947 0.0
C2015 C 0.07964 0.91842 0.80731 0.0
C2016 C 0.12125 0.93991 0.81608 0.0
C2017 C 0.08008 0.94191 0.81092 0.0
C2018 C 0.14422 0.97236 0.83059 0.0
C2019 C 0.18482 0.95021 0.81587 0.0
N2020 N 0.10065 0.95198 0.81508 0.0
N2021 N 0.16368 0.94138 0.81187 0.0
H2022 H 0.33921 0.79795 0.04897 0.0
H2023 H 0.34135 0.92764 0.08519 0.0
H2024 H 0.4008 0.83811 0.04797 0.0
H2025 H 0.27855 0.88946 0.08028 0.0
H2026 H 0.36417 0.89335 0.07696 0.0
H2027 H 0.31799 0.8289 0.0682 0.0
C2028 C 0.34846 0.81298 0.05355 0.0
C2029 C 0.3716 0.81579 0.04655 0.0
C2030 C 0.34539 0.89246 0.07765 0.0
C2031 C 0.34744 0.85129 0.06779 0.0
C2032 C 0.3323 0.91212 0.08209 0.0
C2033 C 0.30795 0.9115 0.08316 0.0
C2034 C 0.33409 0.87201 0.07418 0.0
C2035 C 0.29726 0.89079 0.07932 0.0
C2036 C 0.33628 0.83075 0.06422 0.0
C2037 C 0.38283 0.83551 0.05283 0.0
N2038 N 0.31043 0.87185 0.07496 0.0
N2039 N 0.3705 0.85274 0.06273 0.0
H2040 H 0.42475 0.92876 0.20078 0.0
H2041 H 0.30219 0.89187 0.15114 0.0
H2042 H 0.40093 0.86001 0.20688 0.0
H2043 H 0.3185 0.96145 0.16442 0.0
H2044 H 0.33981 0.87949 0.1677 0.0
H2045 H 0.38759 0.94065 0.18304 0.0
C2046 C 0.41171 0.91614 0.19824 0.0
C2047 C 0.41582 0.89338 0.20529 0.0
C2048 C 0.33513 0.89746 0.16705 0.0
C2049 C 0.3733 0.90686 0.18513 0.0
C2050 C 0.31368 0.90452 0.15766 0.0
C2051 C 0.3073 0.9277 0.15648 0.0
C2052 C 0.35035 0.91373 0.17513 0.0
C2053 C 0.32283 0.94342 0.16498 0.0
C2054 C 0.39048 0.92296 0.18824 0.0
C2055 C 0.39837 0.87772 0.20167 0.0
N2056 N 0.34371 0.93615 0.17387 0.0
N2057 N 0.37782 0.88476 0.1918 0.0
H2058 H 0.33171 0.17756 0.42846 0.0
H2059 H 0.34052 0.04162 0.42838 0.0
H2060 H 0.39128 0.1382 0.45394 0.0
H2061 H 0.28888 0.08104 0.38906 0.0
H2062 H 0.35745 0.07704 0.44095 0.0
H2063 H 0.31476 0.14255 0.41487 0.0
C2064 C 0.34144 0.16161 0.4307 0.0
C2065 C 0.36289 0.16071 0.44231 0.0
C2066 C 0.34231 0.07792 0.42969 0.0
C2067 C 0.34338 0.12064 0.42756 0.0
C2068 C 0.3325 0.05773 0.42278 0.0
C2069 C 0.31334 0.05849 0.40767 0.0
C2070 C 0.33276 0.09892 0.42152 0.0
C2071 C 0.30369 0.07978 0.40073 0.0
C2072 C 0.33167 0.14162 0.42317 0.0
C2073 C 0.37469 0.13962 0.44502 0.0
N2074 N 0.31356 0.09917 0.40763 0.0
N2075 N 0.36466 0.12036 0.43795 0.0
H2076 H 0.18298 0.0348 0.68816 0.0
H2077 H 0.09037 0.13445 0.6838 0.0
H2078 H 0.18772 0.08812 0.63513 0.0
H2079 H 0.11516 0.10656 0.75009 0.0
H2080 H 0.12385 0.11626 0.66422 0.0
H2081 H 0.1556 0.05891 0.71014 0.0
C2082 C 0.17829 0.05163 0.68122 0.0
C2083 C 0.18747 0.05954 0.65982 0.0
C2084 C 0.12213 0.11447 0.68309 0.0
C2085 C 0.15609 0.08691 0.68459 0.0
C2086 C 0.10309 0.1248 0.69423 0.0
C2087 C 0.10012 0.12195 0.71852 0.0
C2088 C 0.13783 0.1007 0.69631 0.0
C2089 C 0.11696 0.10922 0.73131 0.0
C2090 C 0.16284 0.06539 0.69382 0.0
C2091 C 0.18103 0.0815 0.65163 0.0
N2092 N 0.13491 0.09867 0.71998 0.0
N2093 N 0.16538 0.09434 0.66386 0.0
H2094 H 0.18175 0.84036 0.94913 0.0
H2095 H 0.15498 0.96314 0.90335 0.0
H2096 H 0.11309 0.86802 0.96398 0.0
H2097 H 0.21863 0.94436 0.93972 0.0
H2098 H 0.1369 0.92915 0.92077 0.0
H2099 H 0.19414 0.87844 0.93795 0.0
C2100 C 0.16921 0.85444 0.94971 0.0
C2101 C 0.14644 0.85122 0.95748 0.0
C2102 C 0.1546 0.93296 0.92535 0.0
C2103 C 0.16046 0.89461 0.9449 0.0
C2104 C 0.16482 0.95235 0.91563 0.0
C2105 C 0.18838 0.95617 0.91987 0.0
C2106 C 0.16831 0.91753 0.9389 0.0
C2107 C 0.20053 0.94167 0.93569 0.0
C2108 C 0.17634 0.87613 0.94361 0.0
C2109 C 0.13085 0.87001 0.95806 0.0
N2110 N 0.19052 0.92266 0.94423 0.0
N2111 N 0.13812 0.89109 0.9517 0.0
H2112 H 0.22716 0.38543 0.10247 0.0
H2113 H 0.34104 0.3066 0.10886 0.0
H2114 H 0.28983 0.40544 0.13674 0.0
H2115 H 0.29633 0.30722 0.04824 0.0
H2116 H 0.31864 0.33883 0.12413 0.0
H2117 H 0.24843 0.35196 0.08745 0.0
C2118 C 0.24527 0.38252 0.10712 0.0
C2119 C 0.25689 0.398 0.12085 0.0
C2120 C 0.31375 0.33195 0.10747 0.0
C2121 C 0.28099 0.36024 0.10388 0.0
C2122 C 0.32645 0.3136 0.09879 0.0
C2123 C 0.32037 0.30441 0.07735 0.0
C2124 C 0.29461 0.34086 0.09481 0.0
C2125 C 0.30149 0.31405 0.06483 0.0
C2126 C 0.25738 0.36367 0.09837 0.0
C2127 C 0.28035 0.3938 0.12621 0.0
N2128 N 0.28902 0.33177 0.07389 0.0
N2129 N 0.29166 0.37522 0.11777 0.0
H2130 H 0.79723 0.11031 0.86376 0.0
H2131 H 0.84311 0.1772 0.9738 0.0
H2132 H 0.81087 0.07806 0.93131 0.0
H2133 H 0.81344 0.21065 0.91233 0.0
H2134 H 0.83549 0.14034 0.95717 0.0
H2135 H 0.80908 0.14652 0.87926 0.0
C2136 C 0.80332 0.11072 0.8817 0.0
C2137 C 0.80296 0.09118 0.89634 0.0
C2138 C 0.83048 0.1557 0.94734 0.0
C2139 C 0.81602 0.13266 0.91429 0.0
C2140 C 0.83472 0.17673 0.95688 0.0
C2141 C 0.8288 0.19692 0.94445 0.0
C2142 C 0.82045 0.15482 0.92502 0.0
C2143 C 0.81803 0.19544 0.92257 0.0
C2144 C 0.80978 0.13147 0.89061 0.0
C2145 C 0.81092 0.09271 0.91943 0.0
N2146 N 0.81433 0.17469 0.91345 0.0
N2147 N 0.81691 0.11317 0.92778 0.0
H2148 H 0.0419 0.6093 0.14771 0.0
H2149 H 0.16688 0.55831 0.18436 0.0
H2150 H 0.05714 0.57917 0.21592 0.0
H2151 H 0.14524 0.57177 0.11288 0.0
H2152 H 0.13014 0.57548 0.19804 0.0
H2153 H 0.08244 0.60344 0.13648 0.0
C2154 C 0.05378 0.60123 0.16028 0.0
C2155 C 0.04623 0.59464 0.18279 0.0
C2156 C 0.1337 0.57514 0.17938 0.0
C2157 C 0.09273 0.58809 0.17008 0.0
C2158 C 0.15477 0.56565 0.17157 0.0
C2159 C 0.15882 0.56341 0.14746 0.0
C2160 C 0.11686 0.58248 0.16289 0.0
C2161 C 0.14258 0.57302 0.13161 0.0
C2162 C 0.07698 0.59811 0.15392 0.0
C2163 C 0.0624 0.58457 0.19845 0.0
N2164 N 0.12211 0.58186 0.13961 0.0
N2165 N 0.08498 0.58154 0.19178 0.0
H2166 H 0.7011 0.80792 0.48106 0.0
H2167 H 0.69618 0.90179 0.38421 0.0
H2168 H 0.65983 0.7995 0.41898 0.0
H2169 H 0.76161 0.88511 0.41812 0.0
H2170 H 0.68148 0.86505 0.39797 0.0
H2171 H 0.7237 0.83647 0.4596 0.0
C2172 C 0.69719 0.8117 0.46277 0.0
C2173 C 0.67851 0.80154 0.4518 0.0
C2174 C 0.69918 0.86932 0.40205 0.0
C2175 C 0.70364 0.83442 0.42758 0.0
C2176 C 0.70747 0.89026 0.39435 0.0
C2177 C 0.73001 0.89638 0.40021 0.0
C2178 C 0.71335 0.85482 0.4162 0.0
C2179 C 0.74408 0.88092 0.41332 0.0
C2180 C 0.71005 0.82793 0.45057 0.0
C2181 C 0.67411 0.80696 0.42808 0.0
N2182 N 0.73536 0.86095 0.42132 0.0
N2183 N 0.68621 0.8235 0.41691 0.0
H2184 H 0.94671 0.93017 0.21891 0.0
H2185 H 0.83924 0.93269 0.13312 0.0
H2186 H 0.94796 0.88999 0.1567 0.0
H2187 H 0.8648 0.99489 0.16036 0.0
H2188 H 0.87441 0.91242 0.14796 0.0
H2189 H 0.91106 0.95001 0.20436 0.0
C2190 C 0.93936 0.92549 0.20231 0.0
C2191 C 0.95022 0.90871 0.18878 0.0
C2192 C 0.87224 0.93052 0.15057 0.0
C2193 C 0.90973 0.9307 0.1725 0.0
C2194 C 0.85232 0.94204 0.14211 0.0
C2195 C 0.84936 0.96544 0.14543 0.0
C2196 C 0.88878 0.94244 0.163 0.0
C2197 C 0.86664 0.97686 0.15732 0.0
C2198 C 0.91922 0.9368 0.19402 0.0
C2199 C 0.94014 0.90307 0.16744 0.0
N2200 N 0.88556 0.96518 0.16596 0.0
N2201 N 0.92031 0.91395 0.15999 0.0
H2202 H 0.1934 0.57858 0.57914 0.0
H2203 H 0.15217 0.70414 0.61074 0.0
H2204 H 0.19342 0.60047 0.65076 0.0
H2205 H 0.18468 0.6864 0.545 0.0
H2206 H 0.16202 0.66582 0.62626 0.0
H2207 H 0.18178 0.61721 0.56628 0.0
C2208 C 0.19028 0.59136 0.59221 0.0
C2209 C 0.19447 0.58645 0.616 0.0
C2210 C 0.16721 0.67053 0.60856 0.0
C2211 C 0.18177 0.63061 0.60144 0.0
C2212 C 0.16187 0.69245 0.59977 0.0
C2213 C 0.16741 0.69845 0.57644 0.0
C2214 C 0.17779 0.65455 0.59378 0.0
C2215 C 0.17985 0.68252 0.56301 0.0
C2216 C 0.18405 0.61346 0.58485 0.0
C2217 C 0.1904 0.60368 0.63222 0.0
N2218 N 0.18425 0.66119 0.57173 0.0
N2219 N 0.18441 0.62513 0.62463 0.0
H2220 H 0.03298 0.48389 0.31443 0.0
H2221 H 0.14383 0.46177 0.39009 0.0
H2222 H 0.03765 0.42967 0.36675 0.0
H2223 H 0.12585 0.52892 0.36248 0.0
H2224 H 0.10381 0.45048 0.38329 0.0
H2225 H 0.06474 0.50272 0.3339 0.0
C2226 C 0.04017 0.47635 0.33045 0.0
C2227 C 0.03311 0.45502 0.33876 0.0
C2228 C 0.10852 0.4678 0.37909 0.0
C2229 C 0.06967 0.47595 0.3606 0.0
C2230 C 0.13136 0.47415 0.38281 0.0
C2231 C 0.13806 0.49616 0.37658 0.0
C2232 C 0.09253 0.48347 0.36861 0.0
C2233 C 0.12131 0.5117 0.36736 0.0
C2234 C 0.05837 0.48701 0.34149 0.0
C2235 C 0.04291 0.44596 0.35959 0.0
N2236 N 0.09936 0.50494 0.36325 0.0
N2237 N 0.06115 0.45618 0.36947 0.0
H2238 H 0.39862 0.58855 0.76022 0.0
H2239 H 0.34636 0.55813 0.88579 0.0
H2240 H 0.43616 0.59912 0.82433 0.0
H2241 H 0.3056 0.56251 0.8224 0.0
H2242 H 0.37888 0.57498 0.86448 0.0
H2243 H 0.36445 0.57912 0.78322 0.0
C2244 C 0.39979 0.58872 0.77917 0.0
C2245 C 0.42043 0.59451 0.79035 0.0
C2246 C 0.36268 0.57266 0.85534 0.0
C2247 C 0.38102 0.58393 0.81686 0.0
C2248 C 0.34407 0.56321 0.86752 0.0
C2249 C 0.32339 0.55878 0.85573 0.0
C2250 C 0.36061 0.57741 0.83117 0.0
C2251 C 0.3213 0.56559 0.8321 0.0
C2252 C 0.38012 0.58354 0.7923 0.0
C2253 C 0.4207 0.59461 0.81497 0.0
N2254 N 0.33984 0.57423 0.82048 0.0
N2255 N 0.40129 0.5893 0.82743 0.0
H2256 H 0.92813 0.69963 0.58465 0.0
H2257 H 0.90785 0.64014 0.70818 0.0
H2258 H 0.85973 0.69737 0.61581 0.0
H2259 H 0.97313 0.66939 0.68794 0.0
H2260 H 0.88905 0.6605 0.67509 0.0
H2261 H 0.94483 0.68524 0.62176 0.0
C2262 C 0.91663 0.6956 0.59917 0.0
C2263 C 0.89258 0.69947 0.59727 0.0
C2264 C 0.90737 0.66286 0.67824 0.0
C2265 C 0.91145 0.68367 0.6397 0.0
C2266 C 0.91802 0.65148 0.69724 0.0
C2267 C 0.94208 0.65283 0.70049 0.0
C2268 C 0.92105 0.67528 0.66233 0.0
C2269 C 0.95455 0.66772 0.68589 0.0
C2270 C 0.92616 0.68783 0.62043 0.0
C2271 C 0.87839 0.69444 0.61666 0.0
N2272 N 0.94399 0.67794 0.66702 0.0
N2273 N 0.88805 0.68672 0.63714 0.0
H2274 H 0.08305 0.16126 0.44261 0.0
H2275 H 0.05672 0.14924 0.30973 0.0
H2276 H 0.08301 0.21914 0.3945 0.0
H2277 H 0.00609 0.12202 0.35812 0.0
H2278 H 0.07549 0.16758 0.34224 0.0
H2279 H 0.06187 0.13988 0.41319 0.0
C2280 C 0.0784 0.16948 0.426 0.0
C2281 C 0.08471 0.19194 0.42089 0.0
C2282 C 0.0604 0.1574 0.34571 0.0
C2283 C 0.06142 0.16766 0.38747 0.0
C2284 C 0.04977 0.14683 0.32728 0.0
C2285 C 0.02978 0.13426 0.33133 0.0
C2286 C 0.05127 0.15499 0.3684 0.0
C2287 C 0.02146 0.1317 0.3544 0.0
C2288 C 0.06635 0.15735 0.40939 0.0
C2289 C 0.07833 0.20191 0.39919 0.0
N2290 N 0.03232 0.14202 0.37226 0.0
N2291 N 0.06737 0.18956 0.3831 0.0
H2292 H 0.53701 0.36909 0.18941 0.0
H2293 H 0.6097 0.26256 0.14205 0.0
H2294 H 0.57552 0.32305 0.23593 0.0
H2295 H 0.58366 0.31864 0.09849 0.0
H2296 H 0.5961 0.28268 0.17691 0.0
H2297 H 0.55191 0.34856 0.15607 0.0
C2298 C 0.54859 0.35456 0.1926 0.0
C2299 C 0.55517 0.34779 0.21539 0.0
C2300 C 0.59354 0.2906 0.15972 0.0
C2301 C 0.57248 0.32414 0.17718 0.0
C2302 C 0.60128 0.27919 0.13989 0.0
C2303 C 0.59769 0.28904 0.11749 0.0
C2304 C 0.58202 0.31184 0.15693 0.0
C2305 C 0.58671 0.3105 0.11549 0.0
C2306 C 0.55721 0.34288 0.17351 0.0
C2307 C 0.57018 0.3288 0.21853 0.0
N2308 N 0.57915 0.32114 0.13498 0.0
N2309 N 0.57841 0.31753 0.19953 0.0
H2310 H 0.41561 0.84814 0.93907 0.0
H2311 H 0.45581 0.83438 0.80574 0.0
H2312 H 0.42756 0.78277 0.90797 0.0
H2313 H 0.45321 0.89824 0.84144 0.0
H2314 H 0.44036 0.8156 0.84092 0.0
H2315 H 0.42504 0.86674 0.90184 0.0
C2316 C 0.42038 0.83766 0.92438 0.0
C2317 C 0.42107 0.81385 0.92669 0.0
C2318 C 0.44291 0.83376 0.84094 0.0
C2319 C 0.43174 0.83518 0.88368 0.0
C2320 C 0.45155 0.8446 0.82077 0.0
C2321 C 0.45603 0.868 0.8206 0.0
C2322 C 0.43858 0.84637 0.86111 0.0
C2323 C 0.45017 0.88021 0.8407 0.0
C2324 C 0.42568 0.84833 0.90305 0.0
C2325 C 0.42706 0.80117 0.90696 0.0
N2326 N 0.44195 0.86922 0.86016 0.0
N2327 N 0.43223 0.81202 0.88623 0.0
H2328 H 0.85377 0.29827 0.88712 0.0
H2329 H 0.97653 0.33521 0.84044 0.0
H2330 H 0.91007 0.3154 0.93257 0.0
H2331 H 0.91497 0.34844 0.79843 0.0
H2332 H 0.95211 0.32399 0.87323 0.0
H2333 H 0.87499 0.31465 0.85362 0.0
C2334 C 0.87035 0.30597 0.8901 0.0
C2335 C 0.88031 0.30542 0.91254 0.0
C2336 C 0.94391 0.32937 0.85686 0.0
C2337 C 0.90478 0.32344 0.87445 0.0
C2338 C 0.95785 0.33559 0.83796 0.0
C2339 C 0.94781 0.34289 0.81656 0.0
C2340 C 0.91968 0.33011 0.85441 0.0
C2341 C 0.92346 0.34289 0.81458 0.0
C2342 C 0.88245 0.31519 0.871 0.0
C2343 C 0.90181 0.3155 0.91553 0.0
N2344 N 0.91016 0.33653 0.83331 0.0
N2345 N 0.91353 0.32376 0.8966 0.0
H2346 H 0.47793 0.18921 0.65508 0.0
H2347 H 0.37905 0.16221 0.56423 0.0
H2348 H 0.42277 0.14388 0.67335 0.0
H2349 H 0.42348 0.21988 0.55777 0.0
H2350 H 0.39378 0.15489 0.60431 0.0
H2351 H 0.45703 0.20106 0.61962 0.0
C2352 C 0.46118 0.18199 0.65168 0.0
C2353 C 0.45201 0.16555 0.66696 0.0
C2354 C 0.40008 0.16925 0.59414 0.0
C2355 C 0.42819 0.17853 0.62612 0.0
C2356 C 0.39185 0.17329 0.57129 0.0
C2357 C 0.40031 0.19149 0.55774 0.0
C2358 C 0.41698 0.18342 0.60315 0.0
C2359 C 0.41661 0.20559 0.56764 0.0
C2360 C 0.44924 0.18873 0.63144 0.0
C2361 C 0.43028 0.15669 0.66191 0.0
N2362 N 0.42453 0.20115 0.58966 0.0
N2363 N 0.4192 0.16303 0.6416 0.0
H2364 H 0.58173 0.69168 0.43659 0.0
H2365 H 0.58747 0.675 0.29865 0.0
H2366 H 0.62554 0.73205 0.39132 0.0
H2367 H 0.52589 0.66371 0.34049 0.0
H2368 H 0.60674 0.68922 0.33344 0.0
H2369 H 0.56665 0.67321 0.402 0.0
C2370 C 0.58841 0.69634 0.41939 0.0
C2371 C 0.60463 0.71344 0.41656 0.0
C2372 C 0.589 0.68364 0.33484 0.0
C2373 C 0.58765 0.69266 0.37738 0.0
C2374 C 0.57801 0.67564 0.3151 0.0
C2375 C 0.55503 0.66847 0.31675 0.0
C2376 C 0.57698 0.68392 0.35629 0.0
C2377 C 0.54352 0.66943 0.33842 0.0
C2378 C 0.57974 0.68596 0.39975 0.0
C2379 C 0.61283 0.719 0.39404 0.0
N2380 N 0.55469 0.67692 0.35744 0.0
N2381 N 0.60415 0.70866 0.37516 0.0
H2382 H 0.09582 0.83596 0.04525 0.0
H2383 H 0.06245 0.81743 0.18054 0.0
H2384 H 0.08129 0.7706 0.07746 0.0
H2385 H 0.06122 0.88337 0.14562 0.0
H2386 H 0.07513 0.80026 0.14386 0.0
H2387 H 0.08614 0.85398 0.08228 0.0
C2388 C 0.09014 0.82542 0.05992 0.0
C2389 C 0.08949 0.80168 0.05821 0.0
C2390 C 0.07239 0.81853 0.1443 0.0
C2391 C 0.07908 0.82217 0.10082 0.0
C2392 C 0.06553 0.82836 0.16533 0.0
C2393 C 0.0607 0.85181 0.166 0.0
C2394 C 0.07448 0.8323 0.12393 0.0
C2395 C 0.06472 0.86518 0.14575 0.0
C2396 C 0.08488 0.83571 0.08114 0.0
C2397 C 0.08215 0.78893 0.07792 0.0
N2398 N 0.07116 0.85521 0.12543 0.0
N2399 N 0.07747 0.79931 0.09845 0.0
H2400 H 0.67631 0.96842 0.71823 0.0
H2401 H 0.57578 0.87698 0.71937 0.0
H2402 H 0.67941 0.90943 0.6749 0.0
H2403 H 0.57275 0.94129 0.75427 0.0
H2404 H 0.61533 0.88554 0.70576 0.0
H2405 H 0.64092 0.95452 0.73649 0.0
C2406 C 0.66979 0.95221 0.71301 0.0
C2407 C 0.68066 0.94009 0.69503 0.0
C2408 C 0.6059 0.89769 0.71642 0.0
C2409 C 0.63965 0.92441 0.71515 0.0
C2410 C 0.58328 0.89293 0.72399 0.0
C2411 C 0.57087 0.90843 0.73796 0.0
C2412 C 0.61606 0.91802 0.723 0.0
C2413 C 0.58155 0.92873 0.74362 0.0
C2414 C 0.64944 0.94437 0.72323 0.0
C2415 C 0.67155 0.91919 0.68885 0.0
N2416 N 0.60343 0.93285 0.73619 0.0
N2417 N 0.65126 0.91215 0.69862 0.0
H2418 H 0.88189 0.86302 0.47848 0.0
H2419 H 0.77426 0.93955 0.43558 0.0
H2420 H 0.81566 0.83394 0.46378 0.0
H2421 H 0.84478 0.95501 0.41619 0.0
H2422 H 0.78829 0.90271 0.45201 0.0
H2423 H 0.86777 0.89925 0.46105 0.0
C2424 C 0.86443 0.86429 0.47141 0.0
C2425 C 0.84987 0.84565 0.47238 0.0
C2426 C 0.8006 0.91421 0.44408 0.0
C2427 C 0.83357 0.88681 0.45305 0.0
C2428 C 0.79266 0.93513 0.43477 0.0
C2429 C 0.8084 0.95002 0.42427 0.0
C2430 C 0.82446 0.9086 0.4433 0.0
C2431 C 0.83211 0.94389 0.42407 0.0
C2432 C 0.85641 0.88487 0.46151 0.0
C2433 C 0.82739 0.84801 0.46313 0.0
N2434 N 0.83947 0.9236 0.43353 0.0
N2435 N 0.81976 0.8684 0.454 0.0
H2436 H 0.81813 0.02052 0.17849 0.0
H2437 H 0.90427 0.12373 0.16376 0.0
H2438 H 0.79936 0.0865 0.14837 0.0
H2439 H 0.9268 0.05728 0.18976 0.0
H2440 H 0.8672 0.1082 0.15255 0.0
H2441 H 0.85896 0.032 0.17979 0.0
C2442 C 0.82264 0.03733 0.1721 0.0
C2443 C 0.80544 0.05257 0.16332 0.0
C2444 C 0.88036 0.09683 0.16029 0.0
C2445 C 0.85176 0.06563 0.16432 0.0
C2446 C 0.90163 0.10568 0.16641 0.0
C2447 C 0.91845 0.09178 0.17778 0.0
C2448 C 0.87573 0.07403 0.16609 0.0
C2449 C 0.9142 0.06854 0.18097 0.0
C2450 C 0.84588 0.04381 0.17266 0.0
C2451 C 0.81204 0.07423 0.15543 0.0
N2452 N 0.893 0.06044 0.17564 0.0
N2453 N 0.83462 0.08006 0.15608 0.0
H2454 H 0.66634 0.20008 0.95573 0.0
H2455 H 0.6602 0.06968 0.92167 0.0
H2456 H 0.60373 0.16145 0.95915 0.0
H2457 H 0.72425 0.10595 0.92629 0.0
H2458 H 0.63856 0.10439 0.93119 0.0
H2459 H 0.68684 0.16749 0.93855 0.0
C2460 C 0.65677 0.18496 0.95221 0.0
C2461 C 0.63346 0.18321 0.95903 0.0
C2462 C 0.65736 0.10473 0.93021 0.0
C2463 C 0.65675 0.14591 0.94011 0.0
C2464 C 0.66976 0.08485 0.92501 0.0
C2465 C 0.69411 0.08485 0.92337 0.0
C2466 C 0.66936 0.12476 0.93378 0.0
C2467 C 0.70551 0.1051 0.92758 0.0
C2468 C 0.66852 0.16629 0.9427 0.0
C2469 C 0.62181 0.1633 0.95427 0.0
N2470 N 0.69301 0.12429 0.93257 0.0
N2471 N 0.63368 0.14525 0.94537 0.0
H2472 H 0.57409 0.0675 0.80262 0.0
H2473 H 0.69384 0.10322 0.86035 0.0
H2474 H 0.5948 0.13676 0.81051 0.0
H2475 H 0.68079 0.03467 0.83996 0.0
H2476 H 0.65491 0.11494 0.84724 0.0
H2477 H 0.61035 0.05422 0.82185 0.0
C2478 C 0.58614 0.07987 0.80869 0.0
C2479 C 0.58166 0.10321 0.80491 0.0
C2480 C 0.66051 0.09732 0.84561 0.0
C2481 C 0.6229 0.0883 0.82657 0.0
C2482 C 0.68276 0.09067 0.85298 0.0
C2483 C 0.6905 0.06804 0.85096 0.0
C2484 C 0.64593 0.08123 0.83609 0.0
C2485 C 0.6754 0.05234 0.84166 0.0
C2486 C 0.60682 0.07231 0.81951 0.0
C2487 C 0.59773 0.1186 0.813 0.0
N2488 N 0.65376 0.05924 0.83446 0.0
N2489 N 0.61769 0.11086 0.82334 0.0
H2490 H 0.70279 0.91545 0.62673 0.0
H2491 H 0.60763 0.86565 0.54211 0.0
H2492 H 0.6591 0.9578 0.58129 0.0
H2493 H 0.66334 0.82476 0.5734 0.0
H2494 H 0.62263 0.89915 0.56079 0.0
H2495 H 0.6857 0.88178 0.61084 0.0
C2496 C 0.68974 0.91765 0.61321 0.0
C2497 C 0.68248 0.93942 0.60516 0.0
C2498 C 0.63145 0.88282 0.56374 0.0
C2499 C 0.66242 0.90091 0.58722 0.0
C2500 C 0.62279 0.86367 0.55328 0.0
C2501 C 0.63434 0.84246 0.55621 0.0
C2502 C 0.65172 0.88069 0.57732 0.0
C2503 C 0.65393 0.84082 0.57074 0.0
C2504 C 0.67989 0.8984 0.60424 0.0
C2505 C 0.66526 0.94129 0.58785 0.0
N2506 N 0.6621 0.85974 0.58068 0.0
N2507 N 0.65571 0.92223 0.57949 0.0
H2508 H 0.82334 0.97344 0.31652 0.0
H2509 H 0.91252 0.86947 0.31198 0.0
H2510 H 0.81796 0.91605 0.36471 0.0
H2511 H 0.88992 0.90525 0.24874 0.0
H2512 H 0.88084 0.88849 0.33355 0.0
H2513 H 0.85143 0.9513 0.29313 0.0
C2514 C 0.82814 0.95622 0.32217 0.0
C2515 C 0.8184 0.94649 0.34249 0.0
C2516 C 0.88267 0.89191 0.31489 0.0
C2517 C 0.85042 0.92133 0.31614 0.0
C2518 C 0.90066 0.88108 0.30262 0.0
C2519 C 0.90367 0.88579 0.27862 0.0
C2520 C 0.86809 0.90798 0.30315 0.0
C2521 C 0.888 0.90107 0.26724 0.0
C2522 C 0.84396 0.94358 0.30877 0.0
C2523 C 0.82501 0.92408 0.34903 0.0
N2524 N 0.87106 0.91193 0.2797 0.0
N2525 N 0.84083 0.91231 0.33602 0.0
H2526 H 0.83279 0.18206 0.06817 0.0
H2527 H 0.83374 0.04766 0.08777 0.0
H2528 H 0.87493 0.13806 0.02476 0.0
H2529 H 0.7737 0.09207 0.09858 0.0
H2530 H 0.85493 0.08047 0.07204 0.0
H2531 H 0.81774 0.14855 0.08864 0.0
C2532 C 0.83916 0.16533 0.06325 0.0
C2533 C 0.8548 0.16265 0.04462 0.0
C2534 C 0.83709 0.08282 0.07785 0.0
C2535 C 0.8377 0.12453 0.06773 0.0
C2536 C 0.82499 0.0642 0.08667 0.0
C2537 C 0.80186 0.06713 0.09417 0.0
C2538 C 0.82604 0.10439 0.07716 0.0
C2539 C 0.79138 0.08893 0.09266 0.0
C2540 C 0.8305 0.14628 0.07481 0.0
C2541 C 0.86265 0.14069 0.03894 0.0
N2542 N 0.80361 0.10675 0.08446 0.0
N2543 N 0.85384 0.12231 0.05037 0.0
H2544 H 0.644 0.69045 0.88077 0.0
H2545 H 0.69984 0.58528 0.86224 0.0
H2546 H 0.6961 0.69332 0.9348 0.0
H2547 H 0.762 0.61912 0.88226 0.0
H2548 H 0.67694 0.61993 0.87025 0.0
H2549 H 0.66633 0.65901 0.86309 0.0
C2550 C 0.66019 0.68449 0.88877 0.0
C2551 C 0.66826 0.69417 0.90927 0.0
C2552 C 0.69565 0.61995 0.87229 0.0
C2553 C 0.69358 0.65864 0.88942 0.0
C2554 C 0.70866 0.60019 0.86792 0.0
C2555 C 0.73271 0.59951 0.87172 0.0
C2556 C 0.70687 0.63889 0.88083 0.0
C2557 C 0.74344 0.61911 0.87913 0.0
C2558 C 0.67278 0.66656 0.87882 0.0
C2559 C 0.68927 0.68605 0.91908 0.0
N2560 N 0.73033 0.63796 0.88391 0.0
N2561 N 0.7013 0.66874 0.90898 0.0
H2562 H 0.18884 0.92459 0.0685 0.0
H2563 H 0.18761 0.78903 0.07731 0.0
H2564 H 0.20247 0.88598 0.13257 0.0
H2565 H 0.1547 0.82781 0.02078 0.0
H2566 H 0.19584 0.82469 0.09663 0.0
H2567 H 0.17662 0.88971 0.05009 0.0
C2568 C 0.18864 0.90891 0.07888 0.0
C2569 C 0.19675 0.90814 0.10205 0.0
C2570 C 0.18687 0.82539 0.07996 0.0
C2571 C 0.18367 0.86813 0.08093 0.0
C2572 C 0.18248 0.80507 0.06881 0.0
C2573 C 0.17053 0.80557 0.04745 0.0
C2574 C 0.17946 0.84627 0.0695 0.0
C2575 C 0.16397 0.82676 0.03728 0.0
C2576 C 0.18192 0.88896 0.0683 0.0
C2577 C 0.19638 0.88732 0.11463 0.0
N2578 N 0.16852 0.84628 0.04837 0.0
N2579 N 0.19034 0.86808 0.1038 0.0
H2580 H 0.87125 0.44979 0.88901 0.0
H2581 H 0.93435 0.41201 0.77075 0.0
H2582 H 0.83452 0.43956 0.82448 0.0
H2583 H 0.97094 0.43339 0.83185 0.0
H2584 H 0.89742 0.42021 0.79045 0.0
H2585 H 0.90769 0.43913 0.86956 0.0
C2586 C 0.87079 0.44465 0.87091 0.0
C2587 C 0.84992 0.44573 0.85823 0.0
C2588 C 0.91349 0.42342 0.79946 0.0
C2589 C 0.89154 0.43423 0.83573 0.0
C2590 C 0.93454 0.41905 0.78811 0.0
C2591 C 0.95562 0.42217 0.79969 0.0
C2592 C 0.91356 0.43078 0.82266 0.0
C2593 C 0.95503 0.43099 0.82226 0.0
C2594 C 0.89163 0.43892 0.85973 0.0
C2595 C 0.85026 0.43896 0.83485 0.0
N2596 N 0.93426 0.43477 0.83315 0.0
N2597 N 0.87084 0.43378 0.82422 0.0
H2598 H 0.33238 0.2063 0.58017 0.0
H2599 H 0.30263 0.07991 0.57192 0.0
H2600 H 0.31114 0.1788 0.5143 0.0
H2601 H 0.26439 0.11712 0.62444 0.0
H2602 H 0.31535 0.11598 0.55458 0.0
H2603 H 0.31421 0.17414 0.60084 0.0
C2604 C 0.32343 0.19392 0.57008 0.0
C2605 C 0.32362 0.19507 0.54542 0.0
C2606 C 0.3043 0.11616 0.57001 0.0
C2607 C 0.30372 0.15829 0.56885 0.0
C2608 C 0.29725 0.09567 0.58001 0.0
C2609 C 0.28247 0.09568 0.59955 0.0
C2610 C 0.29696 0.13668 0.57997 0.0
C2611 C 0.27579 0.11656 0.60931 0.0
C2612 C 0.31322 0.17559 0.58189 0.0
C2613 C 0.31179 0.17848 0.53328 0.0
N2614 N 0.28323 0.13639 0.59947 0.0
N2615 N 0.30284 0.16047 0.54509 0.0
H2616 H 0.06525 0.09322 0.77588 0.0
H2617 H 0.13525 0.05347 0.89039 0.0
H2618 H 0.03931 0.10574 0.8456 0.0
H2619 H 0.16901 0.0685 0.8243 0.0
H2620 H 0.09865 0.06946 0.87416 0.0
H2621 H 0.10252 0.07996 0.79294 0.0
C2622 C 0.06745 0.09319 0.79472 0.0
C2623 C 0.04941 0.10074 0.80937 0.0
C2624 C 0.11418 0.06946 0.86335 0.0
C2625 C 0.09146 0.08539 0.82894 0.0
C2626 C 0.135 0.06046 0.87263 0.0
C2627 C 0.15505 0.05974 0.85865 0.0
C2628 C 0.11348 0.07733 0.83987 0.0
C2629 C 0.15389 0.06881 0.83567 0.0
C2630 C 0.08864 0.08568 0.80445 0.0
C2631 C 0.05288 0.10005 0.83371 0.0
N2632 N 0.13335 0.077 0.82688 0.0
N2633 N 0.0735 0.09243 0.84277 0.0
H2634 H 0.80091 0.40288 0.35173 0.0
H2635 H 0.81188 0.31893 0.46251 0.0
H2636 H 0.80105 0.42491 0.4233 0.0
H2637 H 0.84227 0.30106 0.39585 0.0
H2638 H 0.80045 0.35611 0.44584 0.0
H2639 H 0.81203 0.36428 0.36561 0.0
C2640 C 0.8039 0.39969 0.37029 0.0
C2641 C 0.80008 0.417 0.38645 0.0
C2642 C 0.8094 0.34394 0.4348 0.0
C2643 C 0.81172 0.37303 0.40235 0.0
C2644 C 0.81564 0.32261 0.44418 0.0
C2645 C 0.82837 0.30701 0.43065 0.0
C2646 C 0.81571 0.34964 0.41166 0.0
C2647 C 0.83254 0.31261 0.40694 0.0
C2648 C 0.80996 0.37768 0.37817 0.0
C2649 C 0.80393 0.41205 0.41029 0.0
N2650 N 0.82646 0.33366 0.39821 0.0
N2651 N 0.80917 0.39038 0.41757 0.0
H2652 H 0.96137 0.52185 0.68686 0.0
H2653 H 0.8501 0.54118 0.61101 0.0
H2654 H 0.95481 0.57659 0.63527 0.0
H2655 H 0.87029 0.4742 0.63754 0.0
H2656 H 0.88955 0.55376 0.61834 0.0
H2657 H 0.93023 0.50225 0.66715 0.0
C2658 C 0.95388 0.52938 0.67096 0.0
C2659 C 0.96025 0.55102 0.6629 0.0
C2660 C 0.88548 0.5362 0.62219 0.0
C2661 C 0.92443 0.52917 0.64079 0.0
C2662 C 0.86296 0.52911 0.61816 0.0
C2663 C 0.85704 0.50676 0.6239 0.0
C2664 C 0.90193 0.52094 0.63253 0.0
C2665 C 0.87426 0.49165 0.63298 0.0
C2666 C 0.93605 0.51826 0.65979 0.0
C2667 C 0.9501 0.56005 0.64224 0.0
N2668 N 0.89588 0.49912 0.63744 0.0
N2669 N 0.93225 0.54935 0.63221 0.0
H2670 H 0.67372 0.44152 0.14942 0.0
H2671 H 0.5649 0.45805 0.23376 0.0
H2672 H 0.65568 0.50551 0.18099 0.0
H2673 H 0.56509 0.40916 0.17871 0.0
H2674 H 0.60036 0.47395 0.2172 0.0
H2675 H 0.6364 0.42652 0.16352 0.0
C2676 C 0.66204 0.45222 0.15955 0.0
C2677 C 0.66761 0.47467 0.16416 0.0
C2678 C 0.59245 0.45997 0.20852 0.0
C2679 C 0.62541 0.45796 0.18002 0.0
C2680 C 0.57219 0.45104 0.21786 0.0
C2681 C 0.56208 0.43254 0.20735 0.0
C2682 C 0.60294 0.4499 0.18893 0.0
C2683 C 0.57227 0.42374 0.187 0.0
C2684 C 0.64075 0.44383 0.16731 0.0
C2685 C 0.65193 0.48808 0.17707 0.0
N2686 N 0.59244 0.4323 0.17859 0.0
N2687 N 0.63158 0.47949 0.18464 0.0
H2688 H 0.56515 0.78959 0.91893 0.0
H2689 H 0.57965 0.84835 0.79219 0.0
H2690 H 0.63084 0.80533 0.88645 0.0
H2691 H 0.51295 0.84016 0.82557 0.0
H2692 H 0.59795 0.82592 0.82397 0.0
H2693 H 0.54502 0.80475 0.88382 0.0
C2694 C 0.57528 0.79673 0.90462 0.0
C2695 C 0.59965 0.79633 0.90553 0.0
C2696 C 0.57924 0.82855 0.82416 0.0
C2697 C 0.57693 0.81282 0.86522 0.0
C2698 C 0.56879 0.84095 0.80579 0.0
C2699 C 0.54491 0.84605 0.80645 0.0
C2700 C 0.56568 0.82158 0.84343 0.0
C2701 C 0.53147 0.83642 0.82448 0.0
C2702 C 0.56383 0.80501 0.88448 0.0
C2703 C 0.61201 0.80543 0.88646 0.0
N2704 N 0.54215 0.82501 0.84266 0.0
N2705 N 0.60051 0.81316 0.86702 0.0
H2706 H 0.40928 0.33489 0.05911 0.0
H2707 H 0.4343 0.35005 0.19427 0.0
H2708 H 0.39562 0.28326 0.1122 0.0
H2709 H 0.47913 0.3795 0.14151 0.0
H2710 H 0.41335 0.33111 0.16355 0.0
H2711 H 0.42956 0.35662 0.08864 0.0
C2712 C 0.41064 0.32812 0.07691 0.0
C2713 C 0.40093 0.30725 0.08329 0.0
C2714 C 0.4277 0.34182 0.15871 0.0
C2715 C 0.42338 0.33204 0.11684 0.0
C2716 C 0.43954 0.35271 0.17616 0.0
C2717 C 0.45848 0.36616 0.17029 0.0
C2718 C 0.4347 0.34467 0.13527 0.0
C2719 C 0.46463 0.36911 0.14662 0.0
C2720 C 0.42217 0.34047 0.09364 0.0
C2721 C 0.40309 0.29918 0.10653 0.0
N2722 N 0.45272 0.35839 0.12983 0.0
N2723 N 0.41392 0.31171 0.12254 0.0
H2724 H 0.91764 0.23849 0.37139 0.0
H2725 H 0.9034 0.13694 0.28693 0.0
H2726 H 0.88137 0.17876 0.39465 0.0
H2727 H 0.96719 0.17372 0.28867 0.0
H2728 H 0.891 0.15491 0.32337 0.0
H2729 H 0.93204 0.21797 0.3373 0.0
C2730 C 0.91268 0.22105 0.36923 0.0
C2731 C 0.8983 0.21019 0.38564 0.0
C2732 C 0.90772 0.15894 0.31576 0.0
C2733 C 0.91444 0.18691 0.34686 0.0
C2734 C 0.9147 0.14891 0.29497 0.0
C2735 C 0.93619 0.15416 0.28487 0.0
C2736 C 0.9221 0.17471 0.32598 0.0
C2737 C 0.95042 0.16943 0.29599 0.0
C2738 C 0.92101 0.20936 0.34994 0.0
C2739 C 0.89245 0.18759 0.38226 0.0
N2740 N 0.94296 0.17948 0.3159 0.0
N2741 N 0.90036 0.17667 0.36298 0.0
H2742 H 0.06134 0.67774 0.55495 0.0
H2743 H 0.04817 0.67038 0.69458 0.0
H2744 H 0.0975 0.72126 0.60143 0.0
H2745 H 0.02521 0.61844 0.6485 0.0
H2746 H 0.06491 0.69042 0.66074 0.0
H2747 H 0.04524 0.65758 0.58915 0.0
C2748 C 0.0657 0.68316 0.57236 0.0
C2749 C 0.08083 0.70106 0.57545 0.0
C2750 C 0.05636 0.67454 0.65811 0.0
C2751 C 0.06271 0.67808 0.61454 0.0
C2752 C 0.04688 0.66302 0.67743 0.0
C2753 C 0.03522 0.64268 0.67442 0.0
C2754 C 0.05396 0.66577 0.6356 0.0
C2755 C 0.03406 0.63403 0.65174 0.0
C2756 C 0.05667 0.67157 0.59186 0.0
C2757 C 0.08597 0.70744 0.59834 0.0
N2758 N 0.04312 0.64571 0.63319 0.0
N2759 N 0.07696 0.69593 0.61704 0.0
H2760 H 0.58281 0.14649 0.70188 0.0
H2761 H 0.59748 0.25499 0.61713 0.0
H2762 H 0.53792 0.20643 0.70364 0.0
H2763 H 0.61806 0.18747 0.59581 0.0
H2764 H 0.58335 0.23918 0.65416 0.0
H2765 H 0.60385 0.16349 0.66853 0.0
C2766 C 0.57789 0.16353 0.69573 0.0
C2767 C 0.55873 0.17522 0.70553 0.0
C2768 C 0.59104 0.22781 0.64146 0.0
C2769 C 0.58241 0.19444 0.66748 0.0
C2770 C 0.59916 0.23678 0.62031 0.0
C2771 C 0.60882 0.22244 0.60334 0.0
C2772 C 0.59277 0.20431 0.64589 0.0
C2773 C 0.61055 0.19902 0.60843 0.0
C2774 C 0.58966 0.17302 0.67653 0.0
C2775 C 0.55266 0.19696 0.69659 0.0
N2776 N 0.60256 0.19061 0.62936 0.0
N2777 N 0.56445 0.20587 0.67802 0.0
H2778 H 0.06351 0.39183 0.84997 0.0
H2779 H 0.08051 0.28873 0.93691 0.0
H2780 H 0.06179 0.32332 0.82527 0.0
H2781 H 0.11442 0.35205 0.94764 0.0
H2782 H 0.0734 0.3005 0.89593 0.0
H2783 H 0.08296 0.37766 0.88566 0.0
C2784 C 0.06783 0.37383 0.8519 0.0
C2785 C 0.06121 0.35865 0.83486 0.0
C2786 C 0.0827 0.31164 0.90719 0.0
C2787 C 0.08249 0.34223 0.87582 0.0
C2788 C 0.08663 0.30499 0.93054 0.0
C2789 C 0.09788 0.31955 0.94559 0.0
C2790 C 0.08965 0.33316 0.89913 0.0
C2791 C 0.1054 0.34048 0.93662 0.0
C2792 C 0.07886 0.36574 0.87223 0.0
C2793 C 0.06689 0.33548 0.83807 0.0
N2794 N 0.10087 0.34681 0.91402 0.0
N2795 N 0.07677 0.32783 0.85854 0.0
H2796 H 0.91923 0.82452 0.19548 0.0
H2797 H 0.91829 0.8128 0.05655 0.0
H2798 H 0.97543 0.84416 0.14948 0.0
H2799 H 0.88366 0.76482 0.10224 0.0
H2800 H 0.93187 0.83234 0.09103 0.0
H2801 H 0.89908 0.80927 0.16145 0.0
C2802 C 0.92727 0.82558 0.17829 0.0
C2803 C 0.94911 0.83521 0.17524 0.0
C2804 C 0.9211 0.81764 0.09345 0.0
C2805 C 0.92615 0.81869 0.13671 0.0
C2806 C 0.91334 0.80658 0.07385 0.0
C2807 C 0.90018 0.7871 0.07673 0.0
C2808 C 0.91547 0.8092 0.11595 0.0
C2809 C 0.89404 0.77971 0.09945 0.0
C2810 C 0.91582 0.81698 0.15901 0.0
C2811 C 0.9588 0.83645 0.15267 0.0
N2812 N 0.90188 0.79073 0.11833 0.0
N2813 N 0.9472 0.82836 0.13425 0.0
H2814 H 0.43735 0.62057 0.33429 0.0
H2815 H 0.4273 0.73263 0.4095 0.0
H2816 H 0.44622 0.68827 0.30544 0.0
H2817 H 0.40354 0.66759 0.43522 0.0
H2818 H 0.43685 0.71568 0.37203 0.0
H2819 H 0.4245 0.6369 0.37132 0.0
C2820 C 0.43589 0.6389 0.33554 0.0
C2821 C 0.44295 0.65312 0.31688 0.0
C2822 C 0.42968 0.70507 0.38591 0.0
C2823 C 0.42917 0.67184 0.35933 0.0
C2824 C 0.42451 0.71466 0.40744 0.0
C2825 C 0.41448 0.70154 0.42552 0.0
C2826 C 0.42491 0.68216 0.3824 0.0
C2827 C 0.41131 0.67834 0.42182 0.0
C2828 C 0.42885 0.6482 0.35676 0.0
C2829 C 0.4409 0.67672 0.31941 0.0
N2830 N 0.41636 0.66941 0.40059 0.0
N2831 N 0.43457 0.68535 0.34042 0.0
H2832 H 0.84364 0.52016 0.80542 0.0
H2833 H 0.92952 0.62384 0.78866 0.0
H2834 H 0.83281 0.58321 0.84143 0.0
H2835 H 0.94316 0.55582 0.76436 0.0
H2836 H 0.89328 0.61089 0.80678 0.0
H2837 H 0.87842 0.53518 0.78721 0.0
C2838 C 0.84845 0.53734 0.80924 0.0
C2839 C 0.83539 0.55045 0.82498 0.0
C2840 C 0.90434 0.59884 0.7976 0.0
C2841 C 0.87559 0.56769 0.80451 0.0
C2842 C 0.9251 0.60615 0.78741 0.0
C2843 C 0.93936 0.59092 0.77485 0.0
C2844 C 0.89785 0.5762 0.79506 0.0
C2845 C 0.93268 0.56824 0.77368 0.0
C2846 C 0.86843 0.54587 0.79896 0.0
C2847 C 0.84235 0.57264 0.82921 0.0
N2848 N 0.91239 0.56166 0.7835 0.0
N2849 N 0.86217 0.58055 0.81916 0.0
H2850 H 0.69368 0.53548 0.0583 0.0
H2851 H 0.69163 0.66856 0.03665 0.0
H2852 H 0.73236 0.58133 0.10006 0.0
H2853 H 0.6697 0.62259 0.98388 0.0
H2854 H 0.70833 0.63637 0.05918 0.0
H2855 H 0.68622 0.56649 0.02953 0.0
C2856 C 0.70073 0.55203 0.06125 0.0
C2857 C 0.71324 0.55611 0.08165 0.0
C2858 C 0.70011 0.63328 0.04255 0.0
C2859 C 0.70488 0.59136 0.04916 0.0
C2860 C 0.6905 0.65163 0.02978 0.0
C2861 C 0.67909 0.64802 0.00866 0.0
C2862 C 0.69786 0.61119 0.03429 0.0
C2863 C 0.67826 0.6259 0.00027 0.0
C2864 C 0.6966 0.56964 0.04484 0.0
C2865 C 0.72235 0.57764 0.08466 0.0
N2866 N 0.68724 0.60817 0.01334 0.0
N2867 N 0.71774 0.59458 0.0687 0.0
H2868 H 0.67593 0.48536 0.33472 0.0
H2869 H 0.58718 0.38305 0.3336 0.0
H2870 H 0.69216 0.41597 0.35655 0.0
H2871 H 0.56927 0.45035 0.30648 0.0
H2872 H 0.62355 0.39723 0.34851 0.0
H2873 H 0.63514 0.475 0.32907 0.0
C2874 C 0.6709 0.468 0.33826 0.0
C2875 C 0.68743 0.45141 0.34577 0.0
C2876 C 0.61157 0.40905 0.33959 0.0
C2877 C 0.64111 0.43956 0.33977 0.0
C2878 C 0.59072 0.40095 0.33127 0.0
C2879 C 0.57537 0.41551 0.31868 0.0
C2880 C 0.61732 0.4318 0.33493 0.0
C2881 C 0.58073 0.43858 0.31611 0.0
C2882 C 0.64768 0.46212 0.33518 0.0
C2883 C 0.68007 0.42923 0.35038 0.0
N2884 N 0.60151 0.44597 0.3238 0.0
N2885 N 0.65755 0.42398 0.34727 0.0
H2886 H 0.83023 0.30284 0.55014 0.0
H2887 H 0.8353 0.43365 0.58335 0.0
H2888 H 0.88648 0.34653 0.53075 0.0
H2889 H 0.77249 0.39507 0.58626 0.0
H2890 H 0.85669 0.39989 0.57037 0.0
H2891 H 0.8117 0.33436 0.57133 0.0
C2892 C 0.83894 0.31888 0.55094 0.0
C2893 C 0.85969 0.32237 0.53865 0.0
C2894 C 0.83821 0.39885 0.57382 0.0
C2895 C 0.8387 0.35821 0.56222 0.0
C2896 C 0.82596 0.41814 0.58107 0.0
C2897 C 0.80203 0.41723 0.58563 0.0
C2898 C 0.82648 0.3785 0.57124 0.0
C2899 C 0.79087 0.39661 0.58263 0.0
C2900 C 0.82829 0.33688 0.56275 0.0
C2901 C 0.87031 0.34338 0.53991 0.0
N2902 N 0.80322 0.37801 0.57562 0.0
N2903 N 0.85958 0.36064 0.55132 0.0
H2904 H 0.89522 0.36169 0.71326 0.0
H2905 H 0.81472 0.46693 0.66867 0.0
H2906 H 0.91945 0.43012 0.7047 0.0
H2907 H 0.79719 0.39723 0.65769 0.0
H2908 H 0.85206 0.45373 0.68517 0.0
H2909 H 0.85792 0.37422 0.6957 0.0
C2910 C 0.89271 0.37928 0.70754 0.0
C2911 C 0.91034 0.39491 0.71035 0.0
C2912 C 0.84006 0.44131 0.67915 0.0
C2913 C 0.8679 0.40938 0.69068 0.0
C2914 C 0.81877 0.44884 0.66977 0.0
C2915 C 0.80301 0.43312 0.66172 0.0
C2916 C 0.84544 0.41787 0.6808 0.0
C2917 C 0.80893 0.40987 0.66374 0.0
C2918 C 0.87148 0.38643 0.69756 0.0
C2919 C 0.90628 0.41753 0.70277 0.0
N2920 N 0.8297 0.40291 0.67314 0.0
N2921 N 0.88543 0.42412 0.69341 0.0
H2922 H 0.86265 0.54889 0.89219 0.0
H2923 H 0.83096 0.67619 0.92924 0.0
H2924 H 0.79294 0.57089 0.91078 0.0
H2925 H 0.90028 0.64627 0.93174 0.0
H2926 H 0.8165 0.64028 0.91489 0.0
H2927 H 0.87625 0.58675 0.8999 0.0
C2928 C 0.85017 0.56171 0.898 0.0
C2929 C 0.82663 0.55671 0.90101 0.0
C2930 C 0.83491 0.64171 0.91826 0.0
C2931 C 0.84213 0.60031 0.90963 0.0
C2932 C 0.84322 0.66225 0.92618 0.0
C2933 C 0.86686 0.66412 0.93168 0.0
C2934 C 0.85042 0.62308 0.91563 0.0
C2935 C 0.88194 0.64551 0.92769 0.0
C2936 C 0.85797 0.58336 0.90231 0.0
C2937 C 0.81124 0.57407 0.9083 0.0
N2938 N 0.87345 0.62573 0.92002 0.0
N2939 N 0.81926 0.59518 0.91238 0.0
H2940 H 0.60471 0.62947 0.18657 0.0
H2941 H 0.71065 0.54571 0.20675 0.0
H2942 H 0.62512 0.60858 0.25675 0.0
H2943 H 0.71058 0.59547 0.14982 0.0
H2944 H 0.67919 0.56757 0.22564 0.0
H2945 H 0.64282 0.61607 0.17214 0.0
C2946 C 0.61734 0.62227 0.19893 0.0
C2947 C 0.61186 0.62004 0.22282 0.0
C2948 C 0.68644 0.57395 0.20928 0.0
C2949 C 0.65511 0.60438 0.20649 0.0
C2950 C 0.70439 0.56152 0.19853 0.0
C2951 C 0.71317 0.5688 0.17671 0.0
C2952 C 0.67682 0.59338 0.19776 0.0
C2953 C 0.70438 0.58933 0.16672 0.0
C2954 C 0.63907 0.61475 0.19074 0.0
C2955 C 0.62876 0.61062 0.23818 0.0
N2956 N 0.68631 0.60066 0.17707 0.0
N2957 N 0.64952 0.60275 0.22969 0.0
H2958 H 0.65746 0.45149 0.40323 0.0
H2959 H 0.67488 0.32139 0.43918 0.0
H2960 H 0.7219 0.42097 0.42935 0.0
H2961 H 0.61057 0.35682 0.4565 0.0
H2962 H 0.69003 0.35708 0.4235 0.0
H2963 H 0.6377 0.41624 0.41411 0.0
C2964 C 0.66733 0.43765 0.41169 0.0
C2965 C 0.69138 0.43908 0.41529 0.0
C2966 C 0.67246 0.3569 0.43042 0.0
C2967 C 0.66924 0.39894 0.42667 0.0
C2968 C 0.66377 0.33658 0.43912 0.0
C2969 C 0.64167 0.33643 0.44941 0.0
C2970 C 0.65884 0.37697 0.4319 0.0
C2971 C 0.62785 0.35648 0.4489 0.0
C2972 C 0.65611 0.41755 0.41758 0.0
C2973 C 0.7034 0.42056 0.42602 0.0
N2974 N 0.63678 0.37618 0.44048 0.0
N2975 N 0.69225 0.40113 0.43104 0.0
H2976 H 0.85012 0.82629 0.54726 0.0
H2977 H 0.75324 0.87264 0.63623 0.0
H2978 H 0.80456 0.78274 0.58705 0.0
H2979 H 0.802 0.9155 0.59985 0.0
H2980 H 0.77094 0.83952 0.61748 0.0
H2981 H 0.83108 0.85942 0.56462 0.0
C2982 C 0.83597 0.82376 0.55955 0.0
C2983 C 0.82899 0.80186 0.566 0.0
C2984 C 0.77784 0.85614 0.61366 0.0
C2985 C 0.80728 0.83952 0.586 0.0
C2986 C 0.76783 0.875 0.62443 0.0
C2987 C 0.77631 0.8967 0.61956 0.0
C2988 C 0.79638 0.8591 0.59789 0.0
C2989 C 0.79508 0.89897 0.60408 0.0
C2990 C 0.82517 0.84264 0.56952 0.0
C2991 C 0.8105 0.79941 0.58181 0.0
N2992 N 0.80449 0.88035 0.59371 0.0
N2993 N 0.80033 0.81808 0.59142 0.0
H2994 H 0.31326 0.57517 0.41977 0.0
H2995 H 0.30994 0.71107 0.41033 0.0
H2996 H 0.29057 0.61313 0.35788 0.0
H2997 H 0.35008 0.67309 0.46249 0.0
H2998 H 0.30003 0.67511 0.39237 0.0
H2999 H 0.32619 0.61061 0.43654 0.0
C3000 C 0.31155 0.59085 0.40948 0.0
C3001 C 0.30083 0.59121 0.38742 0.0
C3002 C 0.31096 0.67467 0.4078 0.0
C3003 C 0.31476 0.63186 0.40676 0.0
C3004 C 0.31637 0.69516 0.41818 0.0
C3005 C 0.3308 0.69499 0.43792 0.0
C3006 C 0.3199 0.65394 0.41742 0.0
C3007 C 0.3389 0.67394 0.44728 0.0
C3008 C 0.31869 0.61112 0.41914 0.0
C3009 C 0.29876 0.61207 0.37495 0.0
N3010 N 0.33334 0.65426 0.43698 0.0
N3011 N 0.30534 0.6316 0.38492 0.0
H3012 H 0.53354 0.0785 0.67294 0.0
H3013 H 0.6685 0.04968 0.69622 0.0
H3014 H 0.57008 0.10131 0.73353 0.0
H3015 H 0.63424 0.03983 0.63023 0.0
H3016 H 0.63251 0.0675 0.71123 0.0
H3017 H 0.56995 0.0613 0.65853 0.0
C3018 C 0.54919 0.07962 0.68333 0.0
C3019 C 0.54895 0.09142 0.70431 0.0
C3020 C 0.63298 0.06163 0.69338 0.0
C3021 C 0.59058 0.07215 0.68792 0.0
C3022 C 0.65354 0.05167 0.68479 0.0
C3023 C 0.65424 0.04333 0.662 0.0
C3024 C 0.61308 0.06302 0.67909 0.0
C3025 C 0.63437 0.04605 0.64793 0.0
C3026 C 0.56999 0.07001 0.67502 0.0
C3027 C 0.56965 0.09246 0.71714 0.0
N3028 N 0.61454 0.05549 0.65677 0.0
N3029 N 0.58969 0.08302 0.70869 0.0
H3030 H 0.19171 0.31687 0.98489 0.0
H3031 H 0.19225 0.40526 0.88055 0.0
H3032 H 0.15094 0.30741 0.92265 0.0
H3033 H 0.25458 0.39095 0.9208 0.0
H3034 H 0.17564 0.37033 0.89694 0.0
H3035 H 0.21473 0.34479 0.96297 0.0
C3036 C 0.18791 0.32037 0.96653 0.0
C3037 C 0.16938 0.30995 0.95558 0.0
C3038 C 0.19309 0.3747 0.90189 0.0
C3039 C 0.19508 0.34204 0.93076 0.0
C3040 C 0.20247 0.39461 0.89265 0.0
C3041 C 0.22469 0.40088 0.89946 0.0
C3042 C 0.20584 0.36141 0.91844 0.0
C3043 C 0.23735 0.38659 0.91515 0.0
C3044 C 0.20102 0.33623 0.95406 0.0
C3045 C 0.16514 0.31502 0.93175 0.0
N3046 N 0.22758 0.36765 0.92446 0.0
N3047 N 0.17759 0.33107 0.92025 0.0
H3048 H 0.32858 0.44157 0.66444 0.0
H3049 H 0.46373 0.41967 0.65364 0.0
H3050 H 0.37049 0.48485 0.62025 0.0
H3051 H 0.42844 0.40969 0.71983 0.0
H3052 H 0.42881 0.43906 0.63782 0.0
H3053 H 0.36416 0.42428 0.68145 0.0
C3054 C 0.3453 0.4472 0.65811 0.0
C3055 C 0.34675 0.4645 0.64084 0.0
C3056 C 0.42879 0.43279 0.65586 0.0
C3057 C 0.38719 0.44494 0.66017 0.0
C3058 C 0.44862 0.42173 0.66488 0.0
C3059 C 0.44882 0.41315 0.68804 0.0
C3060 C 0.40886 0.43471 0.66992 0.0
C3061 C 0.42889 0.41619 0.70191 0.0
C3062 C 0.3655 0.43753 0.668 0.0
C3063 C 0.36874 0.47143 0.63345 0.0
N3064 N 0.40947 0.42649 0.6925 0.0
N3065 N 0.3882 0.46148 0.64305 0.0
H3066 H 0.68627 0.06697 0.08471 0.0
H3067 H 0.6485 0.1967 0.1054 0.0
H3068 H 0.69112 0.09787 0.15223 0.0
H3069 H 0.66378 0.16892 0.03747 0.0
H3070 H 0.66003 0.16003 0.12373 0.0
H3071 H 0.67126 0.10317 0.06809 0.0
C3072 C 0.68356 0.08121 0.09616 0.0
C3073 C 0.69005 0.07955 0.1198 0.0
C3074 C 0.661 0.16209 0.10483 0.0
C3075 C 0.67352 0.12105 0.10087 0.0
C3076 C 0.65466 0.18308 0.09435 0.0
C3077 C 0.65506 0.18591 0.06983 0.0
C3078 C 0.66756 0.14382 0.09065 0.0
C3079 C 0.66305 0.16756 0.05642 0.0
C3080 C 0.67533 0.10195 0.08661 0.0
C3081 C 0.68637 0.09855 0.13386 0.0
N3082 N 0.66875 0.14726 0.06699 0.0
N3083 N 0.67854 0.11864 0.12413 0.0
H3084 H 0.54239 0.9239 0.87032 0.0
H3085 H 0.62648 0.02894 0.87486 0.0
H3086 H 0.53717 0.98176 0.82237 0.0
H3087 H 0.64623 0.9602 0.89619 0.0
H3088 H 0.58722 0.01638 0.86636 0.0
H3089 H 0.57318 0.94251 0.89135 0.0
C3090 C 0.54722 0.94084 0.86466 0.0
C3091 C 0.53762 0.95118 0.84434 0.0
C3092 C 0.60006 0.00417 0.87328 0.0
C3093 C 0.57277 0.97235 0.86816 0.0
C3094 C 0.6224 0.01127 0.87813 0.0
C3095 C 0.63955 0.99544 0.88597 0.0
C3096 C 0.59485 0.98119 0.87665 0.0
C3097 C 0.63348 0.97281 0.88993 0.0
C3098 C 0.56489 0.95134 0.87657 0.0
C3099 C 0.54438 0.97315 0.83782 0.0
N3100 N 0.61158 0.9663 0.88511 0.0
N3101 N 0.56188 0.98292 0.84951 0.0
H3102 H 0.84598 0.05928 0.39092 0.0
H3103 H 0.90217 0.07691 0.26474 0.0
H3104 H 0.80666 0.05959 0.32666 0.0
H3105 H 0.93775 0.09463 0.32801 0.0
H3106 H 0.86738 0.06971 0.28775 0.0
H3107 H 0.87945 0.07352 0.369 0.0
C3108 C 0.8442 0.06299 0.3723 0.0
C3109 C 0.82362 0.05813 0.36052 0.0
C3110 C 0.88278 0.07517 0.29664 0.0
C3111 C 0.86196 0.07364 0.33528 0.0
C3112 C 0.90282 0.07904 0.28353 0.0
C3113 C 0.92306 0.08627 0.29444 0.0
C3114 C 0.88291 0.07833 0.32093 0.0
C3115 C 0.92263 0.08888 0.31886 0.0
C3116 C 0.86336 0.07091 0.35977 0.0
C3117 C 0.82222 0.06311 0.3364 0.0
N3118 N 0.90287 0.08486 0.33131 0.0
N3119 N 0.8413 0.0702 0.32449 0.0
H3120 H 0.41561 0.19631 0.0831 0.0
H3121 H 0.40345 0.13816 0.20927 0.0
H3122 H 0.3497 0.19455 0.11941 0.0
H3123 H 0.46787 0.16443 0.18248 0.0
H3124 H 0.38272 0.15751 0.1767 0.0
H3125 H 0.43475 0.1805 0.11838 0.0
C3126 C 0.40511 0.19204 0.09831 0.0
C3127 C 0.38108 0.19663 0.09843 0.0
C3128 C 0.40131 0.15943 0.17826 0.0
C3129 C 0.40282 0.17921 0.13887 0.0
C3130 C 0.41307 0.14867 0.19697 0.0
C3131 C 0.43735 0.14961 0.19841 0.0
C3132 C 0.41407 0.17082 0.16077 0.0
C3133 C 0.44912 0.16326 0.18199 0.0
C3134 C 0.41607 0.18343 0.11855 0.0
C3135 C 0.36829 0.19114 0.11868 0.0
N3136 N 0.43741 0.17294 0.16351 0.0
N3137 N 0.37934 0.18274 0.13818 0.0
H3138 H 0.56111 0.70818 0.92406 0.0
H3139 H 0.55848 0.62127 0.82186 0.0
H3140 H 0.61452 0.65585 0.91621 0.0
H3141 H 0.49532 0.65152 0.84964 0.0
H3142 H 0.57967 0.63428 0.8559 0.0
H3143 H 0.53666 0.68839 0.89657 0.0
C3144 C 0.56756 0.69239 0.91675 0.0
C3145 C 0.58987 0.68365 0.92229 0.0
C3146 C 0.56111 0.63779 0.85473 0.0
C3147 C 0.56224 0.66122 0.89068 0.0
C3148 C 0.54906 0.63043 0.83531 0.0
C3149 C 0.52521 0.63545 0.83301 0.0
C3150 C 0.54929 0.65067 0.87165 0.0
C3151 C 0.51374 0.64733 0.85086 0.0
C3152 C 0.55358 0.68108 0.90116 0.0
C3153 C 0.59737 0.6631 0.91245 0.0
N3154 N 0.52598 0.65489 0.86931 0.0
N3155 N 0.58373 0.65276 0.8968 0.0
H3156 H 0.11828 0.7746 0.64077 0.0
H3157 H 0.02148 0.86059 0.6901 0.0
H3158 H 0.07245 0.81682 0.59724 0.0
H3159 H 0.07307 0.82649 0.73417 0.0
H3160 H 0.03712 0.84078 0.65641 0.0
H3161 H 0.10015 0.79076 0.67564 0.0
C3162 C 0.10452 0.78745 0.63861 0.0
C3163 C 0.09682 0.79455 0.61625 0.0
C3164 C 0.04498 0.83747 0.67343 0.0
C3165 C 0.07588 0.81271 0.6558 0.0
C3166 C 0.03598 0.84869 0.69266 0.0
C3167 C 0.04629 0.84533 0.71471 0.0
C3168 C 0.0645 0.82285 0.67633 0.0
C3169 C 0.06481 0.82956 0.71731 0.0
C3170 C 0.09413 0.79653 0.65847 0.0
C3171 C 0.07891 0.81105 0.61425 0.0
N3172 N 0.07357 0.819 0.69817 0.0
N3173 N 0.06897 0.81956 0.63385 0.0
H3174 H 0.89194 0.28801 0.40278 0.0
H3175 H 0.97309 0.38588 0.35467 0.0
H3176 H 0.94238 0.31962 0.44615 0.0
H3177 H 0.94454 0.33617 0.30926 0.0
H3178 H 0.95732 0.36531 0.38853 0.0
H3179 H 0.90729 0.30827 0.36851 0.0
C3180 C 0.90652 0.29891 0.40505 0.0
C3181 C 0.91615 0.30186 0.42731 0.0
C3182 C 0.95442 0.35898 0.37114 0.0
C3183 C 0.93323 0.32577 0.38822 0.0
C3184 C 0.9632 0.37083 0.35172 0.0
C3185 C 0.96012 0.36277 0.32899 0.0
C3186 C 0.94219 0.33906 0.36787 0.0
C3187 C 0.94734 0.34302 0.32643 0.0
C3188 C 0.91515 0.31061 0.38547 0.0
C3189 C 0.93458 0.31676 0.42928 0.0
N3190 N 0.93881 0.33185 0.34565 0.0
N3191 N 0.94244 0.32831 0.40997 0.0
H3192 H 0.47915 0.83554 0.33637 0.0
H3193 H 0.35808 0.79118 0.37839 0.0
H3194 H 0.41949 0.8425 0.29058 0.0
H3195 H 0.40909 0.81615 0.42583 0.0
H3196 H 0.37945 0.80814 0.34532 0.0
H3197 H 0.4537 0.82478 0.36849 0.0
C3198 C 0.4607 0.8346 0.33292 0.0
C3199 C 0.45147 0.83995 0.31062 0.0
C3200 C 0.38565 0.8103 0.36301 0.0
C3201 C 0.42214 0.82773 0.34771 0.0
C3202 C 0.37346 0.80074 0.38186 0.0
C3203 C 0.382 0.8022 0.40478 0.0
C3204 C 0.40668 0.82092 0.36722 0.0
C3205 C 0.40198 0.81465 0.40841 0.0
C3206 C 0.44614 0.8287 0.35144 0.0
C3207 C 0.42735 0.83847 0.30746 0.0
N3208 N 0.41391 0.82318 0.38975 0.0
N3209 N 0.41346 0.83236 0.32583 0.0
H3210 H 0.9401 0.68631 0.1694 0.0
H3211 H 0.87971 0.65797 0.04782 0.0
H3212 H 0.92357 0.6186 0.14906 0.0
H3213 H 0.91844 0.71859 0.05808 0.0
H3214 H 0.88686 0.64645 0.08873 0.0
H3215 H 0.92261 0.70148 0.13279 0.0
C3216 C 0.93212 0.67473 0.15758 0.0
C3217 C 0.93333 0.65118 0.1621 0.0
C3218 C 0.89368 0.66234 0.08208 0.0
C3219 C 0.91367 0.66829 0.12032 0.0
C3220 C 0.8897 0.66888 0.05873 0.0
C3221 C 0.89878 0.68911 0.04955 0.0
C3222 C 0.90676 0.67618 0.09639 0.0
C3223 C 0.91125 0.7028 0.06451 0.0
C3224 C 0.92241 0.68335 0.13661 0.0
C3225 C 0.92303 0.63687 0.14612 0.0
N3226 N 0.915 0.69603 0.08722 0.0
N3227 N 0.91379 0.64563 0.12583 0.0
H3228 H 0.07767 0.19642 0.93867 0.0
H3229 H 0.08072 0.18156 0.80028 0.0
H3230 H 0.11563 0.24174 0.89285 0.0
H3231 H 0.02197 0.16501 0.8443 0.0
H3232 H 0.1 0.19697 0.83463 0.0
H3233 H 0.06387 0.17684 0.90425 0.0
C3234 C 0.08331 0.20201 0.92136 0.0
C3235 C 0.0975 0.22077 0.91838 0.0
C3236 C 0.08288 0.18994 0.83658 0.0
C3237 C 0.082 0.19865 0.87932 0.0
C3238 C 0.07191 0.18125 0.81711 0.0
C3239 C 0.04965 0.17239 0.8195 0.0
C3240 C 0.07162 0.18911 0.85846 0.0
C3241 C 0.03897 0.17211 0.84163 0.0
C3242 C 0.0754 0.19095 0.90181 0.0
C3243 C 0.10446 0.22742 0.8957 0.0
N3244 N 0.05012 0.18027 0.86031 0.0
N3245 N 0.09653 0.21638 0.87689 0.0
H3246 H 0.55914 0.39041 0.64629 0.0
H3247 H 0.5646 0.27756 0.57366 0.0
H3248 H 0.55833 0.32312 0.6781 0.0
H3249 H 0.59362 0.33976 0.54614 0.0
H3250 H 0.55705 0.29599 0.61075 0.0
H3251 H 0.5699 0.37368 0.60875 0.0
C3252 C 0.56197 0.37216 0.64551 0.0
C3253 C 0.5578 0.35807 0.66521 0.0
C3254 C 0.5649 0.30565 0.59652 0.0
C3255 C 0.56901 0.3389 0.62236 0.0
C3256 C 0.56889 0.29527 0.57519 0.0
C3257 C 0.58001 0.30705 0.5568 0.0
C3258 C 0.57173 0.32808 0.59941 0.0
C3259 C 0.58506 0.33 0.55985 0.0
C3260 C 0.56782 0.36264 0.62406 0.0
C3261 C 0.56147 0.33456 0.66331 0.0
N3262 N 0.58103 0.33977 0.58088 0.0
N3263 N 0.56642 0.32565 0.64209 0.0
H3264 H 0.06444 0.38095 0.21388 0.0
H3265 H 0.15015 0.48434 0.1941 0.0
H3266 H 0.05072 0.44946 0.23671 0.0
H3267 H 0.16191 0.41956 0.1616 0.0
H3268 H 0.11483 0.47022 0.21197 0.0
H3269 H 0.10051 0.39361 0.19527 0.0
C3270 C 0.06881 0.39869 0.21471 0.0
C3271 C 0.05459 0.41414 0.22701 0.0
C3272 C 0.12512 0.45897 0.20103 0.0
C3273 C 0.09591 0.42856 0.20618 0.0
C3274 C 0.1454 0.46701 0.19092 0.0
C3275 C 0.15896 0.45311 0.1763 0.0
C3276 C 0.11817 0.43685 0.19651 0.0
C3277 C 0.15202 0.43076 0.17292 0.0
C3278 C 0.08948 0.40584 0.20423 0.0
C3279 C 0.06119 0.43688 0.22761 0.0
N3280 N 0.13195 0.42332 0.18285 0.0
N3281 N 0.0814 0.44332 0.2175 0.0
H3282 H 0.33725 0.44626 0.90146 0.0
H3283 H 0.323 0.36629 0.0137 0.0
H3284 H 0.27454 0.44919 0.94315 0.0
H3285 H 0.35845 0.34296 0.95162 0.0
H3286 H 0.3095 0.40055 0.99164 0.0
H3287 H 0.34974 0.41164 0.92318 0.0
C3288 C 0.32617 0.4396 0.91528 0.0
C3289 C 0.30493 0.4505 0.92071 0.0
C3290 C 0.32025 0.3879 0.98293 0.0
C3291 C 0.3192 0.41131 0.94566 0.0
C3292 C 0.32809 0.36852 0.99549 0.0
C3293 C 0.34188 0.35195 0.98437 0.0
C3294 C 0.32673 0.39083 0.95934 0.0
C3295 C 0.34785 0.35543 0.96075 0.0
C3296 C 0.33324 0.41985 0.92753 0.0
C3297 C 0.29105 0.44117 0.93854 0.0
N3298 N 0.34039 0.37464 0.94901 0.0
N3299 N 0.29857 0.42214 0.95065 0.0
H3300 H 0.40511 0.62866 0.65987 0.0
H3301 H 0.3221 0.52169 0.66526 0.0
H3302 H 0.42851 0.56265 0.68632 0.0
H3303 H 0.30118 0.59046 0.6452 0.0
H3304 H 0.3627 0.53396 0.66783 0.0
H3305 H 0.36903 0.6122 0.64709 0.0
C3306 C 0.40287 0.61054 0.66238 0.0
C3307 C 0.41968 0.59703 0.67425 0.0
C3308 C 0.34915 0.54626 0.66277 0.0
C3309 C 0.37798 0.57812 0.66065 0.0
C3310 C 0.32604 0.53929 0.66145 0.0
C3311 C 0.30826 0.55513 0.65527 0.0
C3312 C 0.3543 0.56914 0.65774 0.0
C3313 C 0.31424 0.57769 0.65032 0.0
C3314 C 0.38215 0.60114 0.65535 0.0
C3315 C 0.41592 0.57363 0.67716 0.0
N3316 N 0.33664 0.58397 0.65168 0.0
N3317 N 0.39522 0.56496 0.67086 0.0
H3318 H 0.12985 0.68421 0.44464 0.0
H3319 H 0.22642 0.5851 0.44226 0.0
H3320 H 0.17236 0.66343 0.50408 0.0
H3321 H 0.16461 0.58279 0.39972 0.0
H3322 H 0.21051 0.61901 0.46072 0.0
H3323 H 0.14665 0.65186 0.42283 0.0
C3324 C 0.14291 0.67303 0.45285 0.0
C3325 C 0.14979 0.67612 0.47601 0.0
C3326 C 0.20037 0.611 0.44744 0.0
C3327 C 0.16872 0.63995 0.45174 0.0
C3328 C 0.20938 0.59169 0.43701 0.0
C3329 C 0.19661 0.58123 0.41974 0.0
C3330 C 0.17861 0.61998 0.44029 0.0
C3331 C 0.1747 0.59034 0.41334 0.0
C3332 C 0.15225 0.65463 0.44062 0.0
C3333 C 0.16655 0.66136 0.48624 0.0
N3334 N 0.16633 0.60946 0.42359 0.0
N3335 N 0.17548 0.64387 0.474 0.0
H3336 H 0.10783 0.59043 0.24471 0.0
H3337 H 0.18692 0.59825 0.35667 0.0
H3338 H 0.08056 0.61905 0.30837 0.0
H3339 H 0.18997 0.53814 0.31499 0.0
H3340 H 0.15163 0.6112 0.33563 0.0
H3341 H 0.14231 0.57616 0.2665 0.0
C3342 C 0.10923 0.59387 0.26322 0.0
C3343 C 0.09145 0.60596 0.27483 0.0
C3344 C 0.16003 0.59517 0.33115 0.0
C3345 C 0.1307 0.58999 0.29958 0.0
C3346 C 0.18015 0.58783 0.34303 0.0
C3347 C 0.19129 0.56717 0.33743 0.0
C3348 C 0.15143 0.58206 0.31309 0.0
C3349 C 0.18178 0.55417 0.31978 0.0
C3350 C 0.12875 0.58558 0.27562 0.0
C3351 C 0.09394 0.60979 0.29884 0.0
N3352 N 0.16251 0.56199 0.30795 0.0
N3353 N 0.11335 0.60204 0.31041 0.0
H3354 H 0.16819 0.3317 0.06503 0.0
H3355 H 0.13495 0.45561 0.11151 0.0
H3356 H 0.09784 0.35909 0.06631 0.0
H3357 H 0.20329 0.43663 0.08599 0.0
H3358 H 0.12147 0.41788 0.10196 0.0
H3359 H 0.18174 0.36725 0.08098 0.0
C3360 C 0.15553 0.34498 0.06922 0.0
C3361 C 0.13187 0.34254 0.06429 0.0
C3362 C 0.13943 0.42196 0.09849 0.0
C3363 C 0.14724 0.38323 0.08218 0.0
C3364 C 0.1471 0.44351 0.10381 0.0
C3365 C 0.17027 0.44919 0.09951 0.0
C3366 C 0.15508 0.40593 0.08896 0.0
C3367 C 0.18533 0.43283 0.08972 0.0
C3368 C 0.1633 0.36533 0.07806 0.0
C3369 C 0.11623 0.36034 0.06984 0.0
N3370 N 0.1775 0.41188 0.08482 0.0
N3371 N 0.12421 0.38001 0.07837 0.0
H3372 H 0.29275 0.41983 0.82846 0.0
H3373 H 0.42822 0.39412 0.81687 0.0
H3374 H 0.34497 0.46625 0.84971 0.0
H3375 H 0.38198 0.37573 0.76147 0.0
H3376 H 0.39536 0.41208 0.83716 0.0
H3377 H 0.32351 0.39601 0.81042 0.0
C3378 C 0.31065 0.42499 0.82924 0.0
C3379 C 0.31645 0.44507 0.8403 0.0
C3380 C 0.3924 0.40383 0.82071 0.0
C3381 C 0.35128 0.41782 0.82066 0.0
C3382 C 0.41105 0.39348 0.80921 0.0
C3383 C 0.40773 0.38373 0.78738 0.0
C3384 C 0.37032 0.40417 0.81041 0.0
C3385 C 0.38515 0.38326 0.77824 0.0
C3386 C 0.32806 0.41145 0.81903 0.0
C3387 C 0.3398 0.45106 0.84102 0.0
N3388 N 0.36717 0.39354 0.78978 0.0
N3389 N 0.35643 0.43736 0.8315 0.0
H3390 H 0.3801 0.63529 0.5158 0.0
H3391 H 0.2775 0.59403 0.59378 0.0
H3392 H 0.34279 0.67969 0.56284 0.0
H3393 H 0.33518 0.54764 0.57971 0.0
H3394 H 0.30039 0.62538 0.57916 0.0
H3395 H 0.3643 0.60236 0.537 0.0
C3396 C 0.36897 0.63804 0.53089 0.0
C3397 C 0.36235 0.66009 0.53748 0.0
C3398 C 0.30808 0.60836 0.57932 0.0
C3399 C 0.34412 0.62291 0.56124 0.0
C3400 C 0.29491 0.59038 0.58731 0.0
C3401 C 0.30439 0.56817 0.58762 0.0
C3402 C 0.33074 0.60409 0.57117 0.0
C3403 C 0.32723 0.56454 0.57952 0.0
C3404 C 0.36003 0.61931 0.54293 0.0
C3405 C 0.34805 0.6629 0.55713 0.0
N3406 N 0.33965 0.58239 0.57132 0.0
N3407 N 0.33901 0.64447 0.56809 0.0
H3408 H 0.22173 0.08644 0.41697 0.0
H3409 H 0.14759 0.19838 0.38118 0.0
H3410 H 0.21296 0.10784 0.34449 0.0
H3411 H 0.17893 0.18558 0.44905 0.0
H3412 H 0.16661 0.16324 0.3672 0.0
H3413 H 0.20029 0.12034 0.42897 0.0
C3414 C 0.21516 0.09828 0.40354 0.0
C3415 C 0.21921 0.09449 0.37971 0.0
C3416 C 0.16926 0.16821 0.38512 0.0
C3417 C 0.19472 0.13346 0.39336 0.0
C3418 C 0.15847 0.18816 0.39308 0.0
C3419 C 0.16171 0.19469 0.41628 0.0
C3420 C 0.18305 0.15478 0.40065 0.0
C3421 C 0.17586 0.181 0.43109 0.0
C3422 C 0.203 0.11769 0.41042 0.0
C3423 C 0.21022 0.1103 0.36305 0.0
N3424 N 0.18594 0.16164 0.42303 0.0
N3425 N 0.19836 0.12926 0.3702 0.0
H3426 H 0.6821 0.29702 0.58294 0.0
H3427 H 0.68419 0.43186 0.5735 0.0
H3428 H 0.64512 0.33464 0.52811 0.0
H3429 H 0.69566 0.3935 0.63813 0.0
H3430 H 0.67072 0.39724 0.55533 0.0
H3431 H 0.6904 0.33286 0.60154 0.0
C3432 C 0.676 0.31285 0.57465 0.0
C3433 C 0.66292 0.3129 0.55398 0.0
C3434 C 0.67579 0.39655 0.57361 0.0
C3435 C 0.6721 0.35395 0.57528 0.0
C3436 C 0.68324 0.41633 0.58405 0.0
C3437 C 0.69116 0.41549 0.60731 0.0
C3438 C 0.67666 0.37584 0.58648 0.0
C3439 C 0.68979 0.39488 0.62011 0.0
C3440 C 0.68049 0.33329 0.58542 0.0
C3441 C 0.65529 0.33391 0.54407 0.0
N3442 N 0.68311 0.3758 0.60942 0.0
N3443 N 0.66003 0.35364 0.55479 0.0
H3444 H 0.48278 0.94129 0.31823 0.0
H3445 H 0.34366 0.94296 0.3233 0.0
H3446 H 0.44005 0.90518 0.27051 0.0
H3447 H 0.38584 0.98631 0.36446 0.0
H3448 H 0.37907 0.92783 0.30456 0.0
H3449 H 0.44751 0.95864 0.33512 0.0
C3450 C 0.46599 0.93737 0.31106 0.0
C3451 C 0.46418 0.92165 0.29322 0.0
C3452 C 0.38056 0.9406 0.31776 0.0
C3453 C 0.42397 0.94086 0.31261 0.0
C3454 C 0.36041 0.949 0.3286 0.0
C3455 C 0.36197 0.96579 0.3454 0.0
C3456 C 0.40228 0.94906 0.32392 0.0
C3457 C 0.38398 0.97333 0.35154 0.0
C3458 C 0.44588 0.94708 0.32079 0.0
C3459 C 0.4421 0.91707 0.28446 0.0
N3460 N 0.4033 0.96493 0.34077 0.0
N3461 N 0.4228 0.92643 0.29444 0.0
H3462 H 0.80864 0.60963 0.12365 0.0
H3463 H 0.81136 0.68556 0.00567 0.0
H3464 H 0.78377 0.58809 0.05672 0.0
H3465 H 0.84198 0.70533 0.07086 0.0
H3466 H 0.79499 0.65275 0.02602 0.0
H3467 H 0.81694 0.64686 0.1059 0.0
C3468 C 0.80518 0.61271 0.10516 0.0
C3469 C 0.79582 0.5958 0.0915 0.0
C3470 C 0.805 0.66447 0.03594 0.0
C3471 C 0.80465 0.63829 0.07129 0.0
C3472 C 0.81417 0.68333 0.02438 0.0
C3473 C 0.82848 0.69792 0.03648 0.0
C3474 C 0.81027 0.66019 0.0597 0.0
C3475 C 0.83126 0.69439 0.06076 0.0
C3476 C 0.80969 0.63398 0.0951 0.0
C3477 C 0.7913 0.60063 0.06775 0.0
N3478 N 0.82263 0.67559 0.0715 0.0
N3479 N 0.79576 0.62147 0.05837 0.0
H3480 H 0.53771 0.59432 0.34198 0.0
H3481 H 0.67104 0.56333 0.33335 0.0
H3482 H 0.57171 0.59029 0.27458 0.0
H3483 H 0.62742 0.52631 0.3818 0.0
H3484 H 0.63615 0.58082 0.31515 0.0
H3485 H 0.5719 0.57574 0.36032 0.0
C3486 C 0.55239 0.58949 0.33104 0.0
C3487 C 0.55212 0.59402 0.30678 0.0
C3488 C 0.63431 0.56895 0.32984 0.0
C3489 C 0.59118 0.57338 0.32769 0.0
C3490 C 0.65411 0.55919 0.34039 0.0
C3491 C 0.65195 0.54349 0.35913 0.0
C3492 C 0.61234 0.56334 0.33851 0.0
C3493 C 0.62969 0.53843 0.36742 0.0
C3494 C 0.57179 0.57891 0.34152 0.0
C3495 C 0.57148 0.58738 0.29338 0.0
N3496 N 0.61063 0.54849 0.35713 0.0
N3497 N 0.59048 0.57763 0.30409 0.0
H3498 H 0.35611 0.84669 0.95848 0.0
H3499 H 0.27292 0.89674 0.86028 0.0
H3500 H 0.34104 0.80781 0.89744 0.0
H3501 H 0.31535 0.93927 0.90211 0.0
H3502 H 0.29596 0.86339 0.87399 0.0
H3503 H 0.33869 0.88035 0.93922 0.0
C3504 C 0.34891 0.84519 0.94108 0.0
C3505 C 0.34966 0.8244 0.92961 0.0
C3506 C 0.30043 0.88007 0.87984 0.0
C3507 C 0.32996 0.8629 0.90746 0.0
C3508 C 0.28732 0.89903 0.87211 0.0
C3509 C 0.29223 0.9206 0.88033 0.0
C3510 C 0.31816 0.8828 0.89623 0.0
C3511 C 0.31104 0.92284 0.89549 0.0
C3512 C 0.33927 0.86449 0.93 0.0
C3513 C 0.34058 0.82354 0.90689 0.0
N3514 N 0.32315 0.90405 0.9033 0.0
N3515 N 0.3308 0.84255 0.89658 0.0
H3516 H 0.35308 0.03583 0.10567 0.0
H3517 H 0.45972 0.01842 0.18583 0.0
H3518 H 0.3731 0.96874 0.13206 0.0
H3519 H 0.45628 0.07182 0.13254 0.0
H3520 H 0.4309 0.99763 0.16407 0.0
H3521 H 0.39248 0.04834 0.11329 0.0
C3522 C 0.36591 0.02372 0.11281 0.0
C3523 C 0.35995 1.0014 0.11855 0.0
C3524 C 0.43699 0.01358 0.15678 0.0
C3525 C 0.40471 0.01547 0.12752 0.0
C3526 C 0.45347 0.02538 0.16916 0.0
C3527 C 0.4598 0.04705 0.1612 0.0
C3528 C 0.42668 0.02387 0.13671 0.0
C3529 C 0.45139 0.05533 0.13948 0.0
C3530 C 0.38839 0.03076 0.11698 0.0
C3531 C 0.37711 0.98619 0.12757 0.0
N3532 N 0.43473 0.044 0.12827 0.0
N3533 N 0.39867 0.99364 0.13226 0.0
H3534 H 0.1818 0.94698 0.67789 0.0
H3535 H 0.04824 0.91554 0.66707 0.0
H3536 H 0.14607 0.94982 0.61146 0.0
H3537 H 0.0797 0.93928 0.73028 0.0
H3538 H 0.08462 0.92276 0.64593 0.0
H3539 H 0.14559 0.93607 0.69721 0.0
C3540 C 0.1665 0.94465 0.6673 0.0
C3541 C 0.1668 0.9494 0.64312 0.0
C3542 C 0.08338 0.92651 0.66439 0.0
C3543 C 0.12534 0.93751 0.66505 0.0
C3544 C 0.06258 0.92264 0.67642 0.0
C3545 C 0.0609 0.92669 0.70054 0.0
C3546 C 0.10264 0.93417 0.67668 0.0
C3547 C 0.08015 0.93573 0.71175 0.0
C3548 C 0.14577 0.93878 0.67835 0.0
C3549 C 0.14645 0.94636 0.6302 0.0
N3550 N 0.10026 0.93891 0.6998 0.0
N3551 N 0.12641 0.94078 0.64136 0.0
loop_
_geom_bond_atom_site_label_1
_geom_bond_atom_site_label_2
_geom_bond_distance
_geom_bond_site_symmetry_2
_ccdc_geom_bond_type
Dy0 O4 2.398 1_455 S
Dy0 O5 2.510 . S
Dy0 O6 2.403 1_455 S
Dy0 O7 2.664 . S
Dy0 O11 2.326 1_455 S
Dy0 O15 2.310 . S
Dy0 O16 2.351 . S
C1 O12 1.185 . S
C1 O13 1.355 . S
C2 O4 1.185 . S
C2 O5 1.322 1_655 S
Dy3 O7 2.310 . S
Dy3 O10 2.351 . S
Dy3 O12 2.398 . S
Dy3 O13 2.491 . S
Dy3 O14 2.403 . S
Dy3 O15 2.664 . S
Dy3 O17 2.326 . S
O4 Dy0 2.398 1_655 S
O4 C2 1.185 . S
O5 Dy0 2.510 . S
O5 C2 1.322 1_455 S
O6 Dy0 2.403 1_655 S
O6 C8 1.254 1_655 S
O7 Dy0 2.664 . S
O7 Dy3 2.310 . S
O7 C8 1.268 . S
C8 O6 1.254 1_455 S
C8 O7 1.268 . S
C9 O14 1.254 . S
C9 O15 1.268 . S
O10 Dy3 2.351 . S
O10 C18 1.249 1_455 S
O11 Dy0 2.326 1_655 S
O11 C18 1.267 . S
O12 C1 1.185 . S
O12 Dy3 2.398 . S
O13 C1 1.355 . S
O13 Dy3 2.491 . S
O14 Dy3 2.403 . S
O14 C9 1.254 . S
O15 Dy0 2.310 . S
O15 Dy3 2.664 . S
O15 C9 1.268 . S
O16 Dy0 2.351 . S
O16 C19 1.249 . S
O17 Dy3 2.326 . S
O17 C19 1.267 . S
C18 O10 1.249 1_655 S
C18 O11 1.267 . S
C19 O16 1.249 . S
C19 O17 1.267 . S
Dy20 O24 2.398 . S
Dy20 O25 2.491 . S
Dy20 O26 2.403 . S
Dy20 O27 2.664 . S
Dy20 O31 2.326 . S
Dy20 O35 2.310 . S
Dy20 O36 2.351 . S
C21 O32 1.185 . S
C21 O33 1.355 . S
C22 O24 1.185 . S
C22 O25 1.355 . S
Dy23 O27 2.310 . S
Dy23 O30 2.351 . S
Dy23 O32 2.398 . S
Dy23 O33 2.491 . S
Dy23 O34 2.403 . S
Dy23 O35 2.664 . S
Dy23 O37 2.326 . S
O24 Dy20 2.398 . S
O24 C22 1.185 . S
O25 Dy20 2.491 . S
O25 C22 1.355 . S
O26 Dy20 2.403 . S
O26 C28 1.254 . S
O27 Dy20 2.664 . S
O27 Dy23 2.310 . S
O27 C28 1.268 . S
C28 O26 1.254 . S
C28 O27 1.268 . S
C29 O34 1.254 . S
C29 O35 1.268 . S
O30 Dy23 2.351 . S
O30 C38 1.249 . S
O31 Dy20 2.326 . S
O31 C38 1.267 . S
O32 C21 1.185 . S
O32 Dy23 2.398 . S
O33 C21 1.355 . S
O33 Dy23 2.491 . S
O34 Dy23 2.403 . S
O34 C29 1.254 . S
O35 Dy20 2.310 . S
O35 Dy23 2.664 . S
O35 C29 1.268 . S
O36 Dy20 2.351 . S
O36 C39 1.249 . S
O37 Dy23 2.326 . S
O37 C39 1.267 . S
C38 O30 1.249 . S
C38 O31 1.267 . S
C39 O36 1.249 . S
C39 O37 1.267 . S
Dy40 O44 2.398 . S
Dy40 O45 2.491 . S
Dy40 O46 2.403 . S
Dy40 O47 2.664 . S
Dy40 O51 2.326 . S
Dy40 O55 2.310 . S
Dy40 O56 2.351 . S
C41 O52 1.185 . S
C41 O53 1.355 . S
C42 O44 1.185 . S
C42 O45 1.355 . S
Dy43 O47 2.310 . S
Dy43 O50 2.351 . S
Dy43 O52 2.398 . S
Dy43 O53 2.491 . S
Dy43 O54 2.403 . S
Dy43 O55 2.664 . S
Dy43 O57 2.326 . S
O44 Dy40 2.398 . S
O44 C42 1.185 . S
O45 Dy40 2.491 . S
O45 C42 1.355 . S
O46 Dy40 2.403 . S
O46 C48 1.254 . S
O47 Dy40 2.664 . S
O47 Dy43 2.310 . S
O47 C48 1.268 . S
C48 O46 1.254 . S
C48 O47 1.268 . S
C49 O54 1.254 . S
C49 O55 1.268 . S
O50 Dy43 2.351 . S
O50 C58 1.249 . S
O51 Dy40 2.326 . S
O51 C58 1.267 . S
O52 C41 1.185 . S
O52 Dy43 2.398 . S
O53 C41 1.355 . S
O53 Dy43 2.491 . S
O54 Dy43 2.403 . S
O54 C49 1.254 . S
O55 Dy40 2.310 . S
O55 Dy43 2.664 . S
O55 C49 1.268 . S
O56 Dy40 2.351 . S
O56 C59 1.249 . S
O57 Dy43 2.326 . S
O57 C59 1.267 . S
C58 O50 1.249 . S
C58 O51 1.267 . S
C59 O56 1.249 . S
C59 O57 1.267 . S
Dy60 O64 2.398 . S
Dy60 O65 2.491 . S
Dy60 O66 2.403 . S
Dy60 O67 2.664 . S
Dy60 O71 2.326 . S
Dy60 O75 2.310 . S
Dy60 O76 2.351 . S
C61 O72 1.185 . S
C61 O73 1.355 . S
C62 O64 1.185 . S
C62 O65 1.355 . S
Dy63 O67 2.310 . S
Dy63 O70 2.351 . S
Dy63 O72 2.398 . S
Dy63 O73 2.491 . S
Dy63 O74 2.403 . S
Dy63 O75 2.664 . S
Dy63 O77 2.326 . S
O64 Dy60 2.398 . S
O64 C62 1.185 . S
O65 Dy60 2.491 . S
O65 C62 1.355 . S
O66 Dy60 2.403 . S
O66 C68 1.254 . S
O67 Dy60 2.664 . S
O67 Dy63 2.310 . S
O67 C68 1.268 . S
C68 O66 1.254 . S
C68 O67 1.268 . S
C69 O74 1.254 . S
C69 O75 1.268 . S
O70 Dy63 2.351 . S
O70 C78 1.249 . S
O71 Dy60 2.326 . S
O71 C78 1.267 . S
O72 C61 1.185 . S
O72 Dy63 2.398 . S
O73 C61 1.355 . S
O73 Dy63 2.491 . S
O74 Dy63 2.403 . S
O74 C69 1.254 . S
O75 Dy60 2.310 . S
O75 Dy63 2.664 . S
O75 C69 1.268 . S
O76 Dy60 2.351 . S
O76 C79 1.249 . S
O77 Dy63 2.326 . S
O77 C79 1.267 . S
C78 O70 1.249 . S
C78 O71 1.267 . S
C79 O76 1.249 . S
C79 O77 1.267 . S
Dy80 O84 2.398 . S
Dy80 O85 2.491 . S
Dy80 O86 2.403 1_655 S
Dy80 O87 2.664 1_655 S
Dy80 O91 2.326 1_655 S
Dy80 O95 2.310 1_655 S
Dy80 O96 2.351 . S
C81 O92 1.185 . S
C81 O93 1.355 . S
C82 O84 1.185 . S
C82 O85 1.355 . S
Dy83 O87 2.310 . S
Dy83 O90 2.351 . S
Dy83 O92 2.398 . S
Dy83 O93 2.491 . S
Dy83 O94 2.403 . S
Dy83 O95 2.664 . S
Dy83 O97 2.326 . S
O84 Dy80 2.398 . S
O84 C82 1.185 . S
O85 Dy80 2.491 . S
O85 C82 1.355 . S
O86 Dy80 2.403 1_455 S
O86 C88 1.254 . S
O87 Dy80 2.664 1_455 S
O87 Dy83 2.310 . S
O87 C88 1.268 . S
C88 O86 1.254 . S
C88 O87 1.268 . S
C89 O94 1.254 . S
C89 O95 1.268 . S
O90 Dy83 2.351 . S
O90 C98 1.249 . S
O91 Dy80 2.326 1_455 S
O91 C98 1.267 . S
O92 C81 1.185 . S
O92 Dy83 2.398 . S
O93 C81 1.355 . S
O93 Dy83 2.491 . S
O94 Dy83 2.403 . S
O94 C89 1.254 . S
O95 Dy80 2.310 1_455 S
O95 Dy83 2.664 . S
O95 C89 1.268 . S
O96 Dy80 2.351 . S
O96 C99 1.249 1_655 S
O97 Dy83 2.326 . S
O97 C99 1.267 . S
C98 O90 1.249 . S
C98 O91 1.267 . S
C99 O96 1.249 1_455 S
C99 O97 1.267 . S
Dy100 O104 2.398 . S
Dy100 O105 2.491 . S
Dy100 O106 2.403 . S
Dy100 O107 2.664 . S
Dy100 O111 2.326 . S
Dy100 O115 2.310 . S
Dy100 O116 2.351 . S
C101 O112 1.185 . S
C101 O113 1.355 . S
C102 O104 1.185 . S
C102 O105 1.355 . S
Dy103 O107 2.310 . S
Dy103 O110 2.351 . S
Dy103 O112 2.398 . S
Dy103 O113 2.491 . S
Dy103 O114 2.403 . S
Dy103 O115 2.664 . S
Dy103 O117 2.326 . S
O104 Dy100 2.398 . S
O104 C102 1.185 . S
O105 Dy100 2.491 . S
O105 C102 1.355 . S
O106 Dy100 2.403 . S
O106 C108 1.254 . S
O107 Dy100 2.664 . S
O107 Dy103 2.310 . S
O107 C108 1.268 . S
C108 O106 1.254 . S
C108 O107 1.268 . S
C109 O114 1.254 . S
C109 O115 1.268 . S
O110 Dy103 2.351 . S
O110 C118 1.249 . S
O111 Dy100 2.326 . S
O111 C118 1.267 . S
O112 C101 1.185 . S
O112 Dy103 2.398 . S
O113 C101 1.355 . S
O113 Dy103 2.491 . S
O114 Dy103 2.403 . S
O114 C109 1.254 . S
O115 Dy100 2.310 . S
O115 Dy103 2.664 . S
O115 C109 1.268 . S
O116 Dy100 2.351 . S
O116 C119 1.249 . S
O117 Dy103 2.326 . S
O117 C119 1.267 . S
C118 O110 1.249 . S
C118 O111 1.267 . S
C119 O116 1.249 . S
C119 O117 1.267 . S
Dy120 O124 2.398 . S
Dy120 O125 2.491 . S
Dy120 O126 2.403 . S
Dy120 O127 2.664 . S
Dy120 O131 2.326 . S
Dy120 O135 2.310 . S
Dy120 O136 2.351 . S
C121 O132 1.185 . S
C121 O133 1.355 . S
C122 O124 1.185 . S
C122 O125 1.355 . S
Dy123 O127 2.310 . S
Dy123 O130 2.351 . S
Dy123 O132 2.398 . S
Dy123 O133 2.491 . S
Dy123 O134 2.403 . S
Dy123 O135 2.664 . S
Dy123 O137 2.326 . S
O124 Dy120 2.398 . S
O124 C122 1.185 . S
O125 Dy120 2.491 . S
O125 C122 1.355 . S
O126 Dy120 2.403 . S
O126 C128 1.254 . S
O127 Dy120 2.664 . S
O127 Dy123 2.310 . S
O127 C128 1.268 . S
C128 O126 1.254 . S
C128 O127 1.268 . S
C129 O134 1.254 . S
C129 O135 1.268 . S
O130 Dy123 2.351 . S
O130 C138 1.249 . S
O131 Dy120 2.326 . S
O131 C138 1.267 . S
O132 C121 1.185 . S
O132 Dy123 2.398 . S
O133 C121 1.355 . S
O133 Dy123 2.491 . S
O134 Dy123 2.403 . S
O134 C129 1.254 . S
O135 Dy120 2.310 . S
O135 Dy123 2.664 . S
O135 C129 1.268 . S
O136 Dy120 2.351 . S
O136 C139 1.249 . S
O137 Dy123 2.326 . S
O137 C139 1.267 . S
C138 O130 1.249 . S
C138 O131 1.267 . S
C139 O136 1.249 . S
C139 O137 1.267 . S
Dy140 O144 2.398 . S
Dy140 O145 2.491 . S
Dy140 O146 2.403 . S
Dy140 O147 2.664 . S
Dy140 O151 2.326 . S
Dy140 O155 2.310 . S
Dy140 O156 2.351 . S
C141 O152 1.185 . S
C141 O153 1.355 . S
C142 O144 1.185 . S
C142 O145 1.355 . S
Dy143 O147 2.310 1_554 S
Dy143 O150 2.351 1_554 S
Dy143 O152 2.398 . S
Dy143 O153 2.491 . S
Dy143 O154 2.403 . S
Dy143 O155 2.664 1_554 S
Dy143 O157 2.326 . S
O144 Dy140 2.398 . S
O144 C142 1.185 . S
O145 Dy140 2.491 . S
O145 C142 1.355 . S
O146 Dy140 2.403 . S
O146 C148 1.254 . S
O147 Dy140 2.664 . S
O147 Dy143 2.310 1_556 S
O147 C148 1.268 . S
C148 O146 1.254 . S
C148 O147 1.268 . S
C149 O154 1.254 . S
C149 O155 1.268 1_554 S
O150 Dy143 2.351 1_556 S
O150 C158 1.249 . S
O151 Dy140 2.326 . S
O151 C158 1.267 . S
O152 C141 1.185 . S
O152 Dy143 2.398 . S
O153 C141 1.355 . S
O153 Dy143 2.491 . S
O154 Dy143 2.403 . S
O154 C149 1.254 . S
O155 Dy140 2.310 . S
O155 Dy143 2.664 1_556 S
O155 C149 1.268 1_556 S
O156 Dy140 2.351 . S
O156 C159 1.249 1_556 S
O157 Dy143 2.326 . S
O157 C159 1.267 . S
C158 O150 1.249 . S
C158 O151 1.267 . S
C159 O156 1.249 1_554 S
C159 O157 1.267 . S
Dy160 O164 2.398 . S
Dy160 O165 2.491 1_545 S
Dy160 O166 2.403 . S
Dy160 O167 2.664 . S
Dy160 O171 2.326 . S
Dy160 O175 2.310 . S
Dy160 O176 2.351 . S
C161 O172 1.185 . S
C161 O173 1.355 . S
C162 O164 1.185 1_565 S
C162 O165 1.355 . S
Dy163 O167 2.310 . S
Dy163 O170 2.351 . S
Dy163 O172 2.398 . S
Dy163 O173 2.491 . S
Dy163 O174 2.403 . S
Dy163 O175 2.664 . S
Dy163 O177 2.326 . S
O164 Dy160 2.398 . S
O164 C162 1.185 1_545 S
O165 Dy160 2.491 1_565 S
O165 C162 1.355 . S
O166 Dy160 2.403 . S
O166 C168 1.254 . S
O167 Dy160 2.664 . S
O167 Dy163 2.310 . S
O167 C168 1.268 . S
C168 O166 1.254 . S
C168 O167 1.268 . S
C169 O174 1.254 . S
C169 O175 1.268 . S
O170 Dy163 2.351 . S
O170 C178 1.249 . S
O171 Dy160 2.326 . S
O171 C178 1.267 . S
O172 C161 1.185 . S
O172 Dy163 2.398 . S
O173 C161 1.355 . S
O173 Dy163 2.491 . S
O174 Dy163 2.403 . S
O174 C169 1.254 . S
O175 Dy160 2.310 . S
O175 Dy163 2.664 . S
O175 C169 1.268 . S
O176 Dy160 2.351 . S
O176 C179 1.249 . S
O177 Dy163 2.326 . S
O177 C179 1.267 . S
C178 O170 1.249 . S
C178 O171 1.267 . S
C179 O176 1.249 . S
C179 O177 1.267 . S
Dy180 O184 2.398 . S
Dy180 O185 2.491 . S
Dy180 O186 2.403 . S
Dy180 O187 2.664 . S
Dy180 O191 2.326 . S
Dy180 O195 2.310 . S
Dy180 O196 2.351 . S
C181 O192 1.185 . S
C181 O193 1.355 . S
C182 O184 1.185 . S
C182 O185 1.355 . S
Dy183 O187 2.310 . S
Dy183 O190 2.351 . S
Dy183 O192 2.398 . S
Dy183 O193 2.491 . S
Dy183 O194 2.403 . S
Dy183 O195 2.664 . S
Dy183 O197 2.326 . S
O184 Dy180 2.398 . S
O184 C182 1.185 . S
O185 Dy180 2.491 . S
O185 C182 1.355 . S
O186 Dy180 2.403 . S
O186 C188 1.254 . S
O187 Dy180 2.664 . S
O187 Dy183 2.310 . S
O187 C188 1.268 . S
C188 O186 1.254 . S
C188 O187 1.268 . S
C189 O194 1.254 . S
C189 O195 1.268 . S
O190 Dy183 2.351 . S
O190 C198 1.249 . S
O191 Dy180 2.326 . S
O191 C198 1.267 . S
O192 C181 1.185 . S
O192 Dy183 2.398 . S
O193 C181 1.355 . S
O193 Dy183 2.491 . S
O194 Dy183 2.403 . S
O194 C189 1.254 . S
O195 Dy180 2.310 . S
O195 Dy183 2.664 . S
O195 C189 1.268 . S
O196 Dy180 2.351 . S
O196 C199 1.249 . S
O197 Dy183 2.326 . S
O197 C199 1.267 . S
C198 O190 1.249 . S
C198 O191 1.267 . S
C199 O196 1.249 . S
C199 O197 1.267 . S
Dy200 O204 2.398 . S
Dy200 O205 2.491 . S
Dy200 O206 2.403 . S
Dy200 O207 2.664 . S
Dy200 O211 2.326 . S
Dy200 O215 2.310 . S
Dy200 O216 2.351 . S
C201 O212 1.185 . S
C201 O213 1.355 . S
C202 O204 1.185 . S
C202 O205 1.355 . S
Dy203 O207 2.310 1_545 S
Dy203 O210 2.351 1_545 S
Dy203 O212 2.398 . S
Dy203 O213 2.491 . S
Dy203 O214 2.403 . S
Dy203 O215 2.664 1_545 S
Dy203 O217 2.326 . S
O204 Dy200 2.398 . S
O204 C202 1.185 . S
O205 Dy200 2.491 . S
O205 C202 1.355 . S
O206 Dy200 2.403 . S
O206 C208 1.254 . S
O207 Dy200 2.664 . S
O207 Dy203 2.310 1_565 S
O207 C208 1.268 . S
C208 O206 1.254 . S
C208 O207 1.268 . S
C209 O214 1.254 . S
C209 O215 1.268 1_545 S
O210 Dy203 2.351 1_565 S
O210 C218 1.249 . S
O211 Dy200 2.326 . S
O211 C218 1.267 . S
O212 C201 1.185 . S
O212 Dy203 2.398 . S
O213 C201 1.355 . S
O213 Dy203 2.491 . S
O214 Dy203 2.403 . S
O214 C209 1.254 . S
O215 Dy200 2.310 . S
O215 Dy203 2.664 1_565 S
O215 C209 1.268 1_565 S
O216 Dy200 2.351 . S
O216 C219 1.249 1_565 S
O217 Dy203 2.326 . S
O217 C219 1.267 . S
C218 O210 1.249 . S
C218 O211 1.267 . S
C219 O216 1.249 1_545 S
C219 O217 1.267 . S
Dy220 O224 2.398 . S
Dy220 O225 2.491 . S
Dy220 O226 2.403 . S
Dy220 O227 2.664 . S
Dy220 O231 2.326 . S
Dy220 O235 2.310 . S
Dy220 O236 2.351 . S
C221 O232 1.185 . S
C221 O233 1.355 . S
C222 O224 1.185 . S
C222 O225 1.355 . S
Dy223 O227 2.310 . S
Dy223 O230 2.351 . S
Dy223 O232 2.398 1_565 S
Dy223 O233 2.491 1_565 S
Dy223 O234 2.403 1_565 S
Dy223 O235 2.664 . S
Dy223 O237 2.326 1_565 S
O224 Dy220 2.398 . S
O224 C222 1.185 . S
O225 Dy220 2.491 . S
O225 C222 1.355 . S
O226 Dy220 2.403 . S
O226 C228 1.254 . S
O227 Dy220 2.664 . S
O227 Dy223 2.310 . S
O227 C228 1.268 . S
C228 O226 1.254 . S
C228 O227 1.268 . S
C229 O234 1.254 1_565 S
C229 O235 1.268 . S
O230 Dy223 2.351 . S
O230 C238 1.249 . S
O231 Dy220 2.326 . S
O231 C238 1.267 . S
O232 C221 1.185 . S
O232 Dy223 2.398 1_545 S
O233 C221 1.355 . S
O233 Dy223 2.491 1_545 S
O234 Dy223 2.403 1_545 S
O234 C229 1.254 1_545 S
O235 Dy220 2.310 . S
O235 Dy223 2.664 . S
O235 C229 1.268 . S
O236 Dy220 2.351 . S
O236 C239 1.249 . S
O237 Dy223 2.326 1_545 S
O237 C239 1.267 1_545 S
C238 O230 1.249 . S
C238 O231 1.267 . S
C239 O236 1.249 . S
C239 O237 1.267 1_565 S
Dy240 O244 2.398 . S
Dy240 O245 2.491 . S
Dy240 O246 2.403 . S
Dy240 O247 2.664 . S
Dy240 O251 2.326 . S
Dy240 O255 2.310 . S
Dy240 O256 2.351 . S
C241 O252 1.185 . S
C241 O253 1.355 1_556 S
C242 O244 1.185 . S
C242 O245 1.355 . S
Dy243 O247 2.310 . S
Dy243 O250 2.351 . S
Dy243 O252 2.398 1_554 S
Dy243 O253 2.491 . S
Dy243 O254 2.403 . S
Dy243 O255 2.664 . S
Dy243 O257 2.326 . S
O244 Dy240 2.398 . S
O244 C242 1.185 . S
O245 Dy240 2.491 . S
O245 C242 1.355 . S
O246 Dy240 2.403 . S
O246 C248 1.254 . S
O247 Dy240 2.664 . S
O247 Dy243 2.310 . S
O247 C248 1.268 . S
C248 O246 1.254 . S
C248 O247 1.268 . S
C249 O254 1.254 . S
C249 O255 1.268 . S
O250 Dy243 2.351 . S
O250 C258 1.249 . S
O251 Dy240 2.326 . S
O251 C258 1.267 . S
O252 C241 1.185 . S
O252 Dy243 2.398 1_556 S
O253 C241 1.355 1_554 S
O253 Dy243 2.491 . S
O254 Dy243 2.403 . S
O254 C249 1.254 . S
O255 Dy240 2.310 . S
O255 Dy243 2.664 . S
O255 C249 1.268 . S
O256 Dy240 2.351 . S
O256 C259 1.249 . S
O257 Dy243 2.326 . S
O257 C259 1.267 . S
C258 O250 1.249 . S
C258 O251 1.267 . S
C259 O256 1.249 . S
C259 O257 1.267 . S
Dy260 O264 2.398 . S
Dy260 O265 2.491 . S
Dy260 O266 2.403 1_455 S
Dy260 O267 2.664 1_455 S
Dy260 O271 2.326 1_455 S
Dy260 O275 2.310 1_455 S
Dy260 O276 2.351 . S
C261 O272 1.185 . S
C261 O273 1.355 . S
C262 O264 1.185 . S
C262 O265 1.355 . S
Dy263 O267 2.310 . S
Dy263 O270 2.351 . S
Dy263 O272 2.398 . S
Dy263 O273 2.491 . S
Dy263 O274 2.403 . S
Dy263 O275 2.664 . S
Dy263 O277 2.326 . S
O264 Dy260 2.398 . S
O264 C262 1.185 . S
O265 Dy260 2.491 . S
O265 C262 1.355 . S
O266 Dy260 2.403 1_655 S
O266 C268 1.254 . S
O267 Dy260 2.664 1_655 S
O267 Dy263 2.310 . S
O267 C268 1.268 . S
C268 O266 1.254 . S
C268 O267 1.268 . S
C269 O274 1.254 . S
C269 O275 1.268 . S
O270 Dy263 2.351 . S
O270 C278 1.249 . S
O271 Dy260 2.326 1_655 S
O271 C278 1.267 . S
O272 C261 1.185 . S
O272 Dy263 2.398 . S
O273 C261 1.355 . S
O273 Dy263 2.491 . S
O274 Dy263 2.403 . S
O274 C269 1.254 . S
O275 Dy260 2.310 1_655 S
O275 Dy263 2.664 . S
O275 C269 1.268 . S
O276 Dy260 2.351 . S
O276 C279 1.249 1_455 S
O277 Dy263 2.326 . S
O277 C279 1.267 . S
C278 O270 1.249 . S
C278 O271 1.267 . S
C279 O276 1.249 1_655 S
C279 O277 1.267 . S
Dy280 O284 2.398 . S
Dy280 O285 2.491 . S
Dy280 O286 2.403 . S
Dy280 O287 2.664 . S
Dy280 O291 2.326 . S
Dy280 O295 2.310 . S
Dy280 O296 2.351 . S
C281 O292 1.185 . S
C281 O293 1.355 . S
C282 O284 1.185 . S
C282 O285 1.355 . S
Dy283 O287 2.310 . S
Dy283 O290 2.351 . S
Dy283 O292 2.398 . S
Dy283 O293 2.491 . S
Dy283 O294 2.403 . S
Dy283 O295 2.664 . S
Dy283 O297 2.326 . S
O284 Dy280 2.398 . S
O284 C282 1.185 . S
O285 Dy280 2.491 . S
O285 C282 1.355 . S
O286 Dy280 2.403 . S
O286 C288 1.254 . S
O287 Dy280 2.664 . S
O287 Dy283 2.310 . S
O287 C288 1.268 . S
C288 O286 1.254 . S
C288 O287 1.268 . S
C289 O294 1.254 . S
C289 O295 1.268 . S
O290 Dy283 2.351 . S
O290 C298 1.249 . S
O291 Dy280 2.326 . S
O291 C298 1.267 . S
O292 C281 1.185 . S
O292 Dy283 2.398 . S
O293 C281 1.355 . S
O293 Dy283 2.491 . S
O294 Dy283 2.403 . S
O294 C289 1.254 . S
O295 Dy280 2.310 . S
O295 Dy283 2.664 . S
O295 C289 1.268 . S
O296 Dy280 2.351 . S
O296 C299 1.249 . S
O297 Dy283 2.326 . S
O297 C299 1.267 . S
C298 O290 1.249 . S
C298 O291 1.267 . S
C299 O296 1.249 . S
C299 O297 1.267 . S
Dy300 O304 2.398 . S
Dy300 O305 2.491 . S
Dy300 O306 2.403 . S
Dy300 O307 2.664 . S
Dy300 O311 2.326 . S
Dy300 O315 2.310 . S
Dy300 O316 2.351 . S
C301 O312 1.185 . S
C301 O313 1.322 1_455 S
C302 O304 1.185 . S
C302 O305 1.355 . S
Dy303 O307 2.310 . S
Dy303 O310 2.351 . S
Dy303 O312 2.398 1_655 S
Dy303 O313 2.510 . S
Dy303 O314 2.403 1_655 S
Dy303 O315 2.664 . S
Dy303 O317 2.326 1_655 S
O304 Dy300 2.398 . S
O304 C302 1.185 . S
O305 Dy300 2.491 . S
O305 C302 1.355 . S
O306 Dy300 2.403 . S
O306 C308 1.254 . S
O307 Dy300 2.664 . S
O307 Dy303 2.310 . S
O307 C308 1.268 . S
C308 O306 1.254 . S
C308 O307 1.268 . S
C309 O314 1.254 1_655 S
C309 O315 1.268 . S
O310 Dy303 2.351 . S
O310 C318 1.249 . S
O311 Dy300 2.326 . S
O311 C318 1.267 . S
O312 C301 1.185 . S
O312 Dy303 2.398 1_455 S
O313 C301 1.322 1_655 S
O313 Dy303 2.510 . S
O314 Dy303 2.403 1_455 S
O314 C309 1.254 1_455 S
O315 Dy300 2.310 . S
O315 Dy303 2.664 . S
O315 C309 1.268 . S
O316 Dy300 2.351 . S
O316 C319 1.249 1_655 S
O317 Dy303 2.326 1_455 S
O317 C319 1.267 . S
C318 O310 1.249 . S
C318 O311 1.267 . S
C319 O316 1.249 1_455 S
C319 O317 1.267 . S
Dy320 O324 2.398 . S
Dy320 O325 2.491 . S
Dy320 O326 2.403 . S
Dy320 O327 2.664 . S
Dy320 O331 2.326 . S
Dy320 O335 2.310 . S
Dy320 O336 2.351 . S
C321 O332 1.185 . S
C321 O333 1.355 . S
C322 O324 1.185 . S
C322 O325 1.355 . S
Dy323 O327 2.310 . S
Dy323 O330 2.351 . S
Dy323 O332 2.398 . S
Dy323 O333 2.491 . S
Dy323 O334 2.403 . S
Dy323 O335 2.664 . S
Dy323 O337 2.326 . S
O324 Dy320 2.398 . S
O324 C322 1.185 . S
O325 Dy320 2.491 . S
O325 C322 1.355 . S
O326 Dy320 2.403 . S
O326 C328 1.254 . S
O327 Dy320 2.664 . S
O327 Dy323 2.310 . S
O327 C328 1.268 . S
C328 O326 1.254 . S
C328 O327 1.268 . S
C329 O334 1.254 . S
C329 O335 1.268 . S
O330 Dy323 2.351 . S
O330 C338 1.249 . S
O331 Dy320 2.326 . S
O331 C338 1.267 . S
O332 C321 1.185 . S
O332 Dy323 2.398 . S
O333 C321 1.355 . S
O333 Dy323 2.491 . S
O334 Dy323 2.403 . S
O334 C329 1.254 . S
O335 Dy320 2.310 . S
O335 Dy323 2.664 . S
O335 C329 1.268 . S
O336 Dy320 2.351 . S
O336 C339 1.249 . S
O337 Dy323 2.326 . S
O337 C339 1.267 . S
C338 O330 1.249 . S
C338 O331 1.267 . S
C339 O336 1.249 . S
C339 O337 1.267 . S
Dy340 O344 2.398 . S
Dy340 O345 2.491 . S
Dy340 O346 2.403 . S
Dy340 O347 2.664 . S
Dy340 O351 2.326 . S
Dy340 O355 2.310 . S
Dy340 O356 2.351 . S
C341 O352 1.185 . S
C341 O353 1.355 . S
C342 O344 1.185 . S
C342 O345 1.355 . S
Dy343 O347 2.310 . S
Dy343 O350 2.351 . S
Dy343 O352 2.398 . S
Dy343 O353 2.491 . S
Dy343 O354 2.403 . S
Dy343 O355 2.664 . S
Dy343 O357 2.326 . S
O344 Dy340 2.398 . S
O344 C342 1.185 . S
O345 Dy340 2.491 . S
O345 C342 1.355 . S
O346 Dy340 2.403 . S
O346 C348 1.254 . S
O347 Dy340 2.664 . S
O347 Dy343 2.310 . S
O347 C348 1.268 . S
C348 O346 1.254 . S
C348 O347 1.268 . S
C349 O354 1.254 . S
C349 O355 1.268 . S
O350 Dy343 2.351 . S
O350 C358 1.249 . S
O351 Dy340 2.326 . S
O351 C358 1.267 . S
O352 C341 1.185 . S
O352 Dy343 2.398 . S
O353 C341 1.355 . S
O353 Dy343 2.491 . S
O354 Dy343 2.403 . S
O354 C349 1.254 . S
O355 Dy340 2.310 . S
O355 Dy343 2.664 . S
O355 C349 1.268 . S
O356 Dy340 2.351 . S
O356 C359 1.249 . S
O357 Dy343 2.326 . S
O357 C359 1.267 . S
C358 O350 1.249 . S
C358 O351 1.267 . S
C359 O356 1.249 . S
C359 O357 1.267 . S
Dy360 O364 2.398 . S
Dy360 O365 2.491 . S
Dy360 O366 2.403 . S
Dy360 O367 2.664 . S
Dy360 O371 2.326 . S
Dy360 O375 2.310 . S
Dy360 O376 2.351 . S
C361 O372 1.185 . S
C361 O373 1.355 . S
C362 O364 1.185 . S
C362 O365 1.355 . S
Dy363 O367 2.310 . S
Dy363 O370 2.351 . S
Dy363 O372 2.398 . S
Dy363 O373 2.491 . S
Dy363 O374 2.403 . S
Dy363 O375 2.664 . S
Dy363 O377 2.326 . S
O364 Dy360 2.398 . S
O364 C362 1.185 . S
O365 Dy360 2.491 . S
O365 C362 1.355 . S
O366 Dy360 2.403 . S
O366 C368 1.254 . S
O367 Dy360 2.664 . S
O367 Dy363 2.310 . S
O367 C368 1.268 . S
C368 O366 1.254 . S
C368 O367 1.268 . S
C369 O374 1.254 . S
C369 O375 1.268 . S
O370 Dy363 2.351 . S
O370 C378 1.249 . S
O371 Dy360 2.326 . S
O371 C378 1.267 . S
O372 C361 1.185 . S
O372 Dy363 2.398 . S
O373 C361 1.355 . S
O373 Dy363 2.491 . S
O374 Dy363 2.403 . S
O374 C369 1.254 . S
O375 Dy360 2.310 . S
O375 Dy363 2.664 . S
O375 C369 1.268 . S
O376 Dy360 2.351 . S
O376 C379 1.249 . S
O377 Dy363 2.326 . S
O377 C379 1.267 . S
C378 O370 1.249 . S
C378 O371 1.267 . S
C379 O376 1.249 . S
C379 O377 1.267 . S
Dy380 O384 2.398 . S
Dy380 O385 2.491 . S
Dy380 O386 2.403 . S
Dy380 O387 2.664 . S
Dy380 O391 2.326 . S
Dy380 O395 2.310 . S
Dy380 O396 2.351 . S
C381 O392 1.185 . S
C381 O393 1.355 . S
C382 O384 1.185 . S
C382 O385 1.355 . S
Dy383 O387 2.310 1_455 S
Dy383 O390 2.351 . S
Dy383 O392 2.398 . S
Dy383 O393 2.491 . S
Dy383 O394 2.403 1_455 S
Dy383 O395 2.664 1_455 S
Dy383 O397 2.326 1_455 S
O384 Dy380 2.398 . S
O384 C382 1.185 . S
O385 Dy380 2.491 . S
O385 C382 1.355 . S
O386 Dy380 2.403 . S
O386 C388 1.254 . S
O387 Dy380 2.664 . S
O387 Dy383 2.310 1_655 S
O387 C388 1.268 . S
C388 O386 1.254 . S
C388 O387 1.268 . S
C389 O394 1.254 . S
C389 O395 1.268 . S
O390 Dy383 2.351 . S
O390 C398 1.249 1_455 S
O391 Dy380 2.326 . S
O391 C398 1.267 . S
O392 C381 1.185 . S
O392 Dy383 2.398 . S
O393 C381 1.355 . S
O393 Dy383 2.491 . S
O394 Dy383 2.403 1_655 S
O394 C389 1.254 . S
O395 Dy380 2.310 . S
O395 Dy383 2.664 1_655 S
O395 C389 1.268 . S
O396 Dy380 2.351 . S
O396 C399 1.249 . S
O397 Dy383 2.326 1_655 S
O397 C399 1.267 . S
C398 O390 1.249 1_655 S
C398 O391 1.267 . S
C399 O396 1.249 . S
C399 O397 1.267 . S
Dy400 O404 2.398 . S
Dy400 O405 2.491 . S
Dy400 O406 2.403 . S
Dy400 O407 2.664 . S
Dy400 O411 2.326 . S
Dy400 O415 2.310 . S
Dy400 O416 2.351 . S
C401 O412 1.185 . S
C401 O413 1.355 . S
C402 O404 1.185 . S
C402 O405 1.355 . S
Dy403 O407 2.310 . S
Dy403 O410 2.351 . S
Dy403 O412 2.398 . S
Dy403 O413 2.491 . S
Dy403 O414 2.403 . S
Dy403 O415 2.664 . S
Dy403 O417 2.326 . S
O404 Dy400 2.398 . S
O404 C402 1.185 . S
O405 Dy400 2.491 . S
O405 C402 1.355 . S
O406 Dy400 2.403 . S
O406 C408 1.254 . S
O407 Dy400 2.664 . S
O407 Dy403 2.310 . S
O407 C408 1.268 . S
C408 O406 1.254 . S
C408 O407 1.268 . S
C409 O414 1.254 . S
C409 O415 1.268 . S
O410 Dy403 2.351 . S
O410 C418 1.249 . S
O411 Dy400 2.326 . S
O411 C418 1.267 . S
O412 C401 1.185 . S
O412 Dy403 2.398 . S
O413 C401 1.355 . S
O413 Dy403 2.491 . S
O414 Dy403 2.403 . S
O414 C409 1.254 . S
O415 Dy400 2.310 . S
O415 Dy403 2.664 . S
O415 C409 1.268 . S
O416 Dy400 2.351 . S
O416 C419 1.249 . S
O417 Dy403 2.326 . S
O417 C419 1.267 . S
C418 O410 1.249 . S
C418 O411 1.267 . S
C419 O416 1.249 . S
C419 O417 1.267 . S
Dy420 O424 2.398 . S
Dy420 O425 2.491 . S
Dy420 O426 2.403 . S
Dy420 O427 2.664 . S
Dy420 O431 2.326 . S
Dy420 O435 2.310 . S
Dy420 O436 2.351 . S
C421 O432 1.185 . S
C421 O433 1.355 . S
C422 O424 1.185 . S
C422 O425 1.355 . S
Dy423 O427 2.310 . S
Dy423 O430 2.351 . S
Dy423 O432 2.398 . S
Dy423 O433 2.491 . S
Dy423 O434 2.403 . S
Dy423 O435 2.664 . S
Dy423 O437 2.326 . S
O424 Dy420 2.398 . S
O424 C422 1.185 . S
O425 Dy420 2.491 . S
O425 C422 1.355 . S
O426 Dy420 2.403 . S
O426 C428 1.254 . S
O427 Dy420 2.664 . S
O427 Dy423 2.310 . S
O427 C428 1.268 . S
C428 O426 1.254 . S
C428 O427 1.268 . S
C429 O434 1.254 . S
C429 O435 1.268 . S
O430 Dy423 2.351 . S
O430 C438 1.249 . S
O431 Dy420 2.326 . S
O431 C438 1.267 . S
O432 C421 1.185 . S
O432 Dy423 2.398 . S
O433 C421 1.355 . S
O433 Dy423 2.491 . S
O434 Dy423 2.403 . S
O434 C429 1.254 . S
O435 Dy420 2.310 . S
O435 Dy423 2.664 . S
O435 C429 1.268 . S
O436 Dy420 2.351 . S
O436 C439 1.249 . S
O437 Dy423 2.326 . S
O437 C439 1.267 . S
C438 O430 1.249 . S
C438 O431 1.267 . S
C439 O436 1.249 . S
C439 O437 1.267 . S
Dy440 O444 2.398 . S
Dy440 O445 2.491 . S
Dy440 O446 2.403 . S
Dy440 O447 2.664 1_556 S
Dy440 O451 2.326 . S
Dy440 O455 2.310 1_556 S
Dy440 O456 2.351 1_556 S
C441 O452 1.185 . S
C441 O453 1.355 . S
C442 O444 1.185 . S
C442 O445 1.355 . S
Dy443 O447 2.310 . S
Dy443 O450 2.351 . S
Dy443 O452 2.398 . S
Dy443 O453 2.491 . S
Dy443 O454 2.403 . S
Dy443 O455 2.664 . S
Dy443 O457 2.326 . S
O444 Dy440 2.398 . S
O444 C442 1.185 . S
O445 Dy440 2.491 . S
O445 C442 1.355 . S
O446 Dy440 2.403 . S
O446 C448 1.254 . S
O447 Dy440 2.664 1_554 S
O447 Dy443 2.310 . S
O447 C448 1.268 1_554 S
C448 O446 1.254 . S
C448 O447 1.268 1_556 S
C449 O454 1.254 . S
C449 O455 1.268 . S
O450 Dy443 2.351 . S
O450 C458 1.249 1_554 S
O451 Dy440 2.326 . S
O451 C458 1.267 . S
O452 C441 1.185 . S
O452 Dy443 2.398 . S
O453 C441 1.355 . S
O453 Dy443 2.491 . S
O454 Dy443 2.403 . S
O454 C449 1.254 . S
O455 Dy440 2.310 1_554 S
O455 Dy443 2.664 . S
O455 C449 1.268 . S
O456 Dy440 2.351 1_554 S
O456 C459 1.249 . S
O457 Dy443 2.326 . S
O457 C459 1.267 . S
C458 O450 1.249 1_556 S
C458 O451 1.267 . S
C459 O456 1.249 . S
C459 O457 1.267 . S
Dy460 O464 2.398 . S
Dy460 O465 2.491 . S
Dy460 O466 2.403 . S
Dy460 O467 2.664 . S
Dy460 O471 2.326 . S
Dy460 O475 2.310 . S
Dy460 O476 2.351 . S
C461 O472 1.185 1_545 S
C461 O473 1.355 . S
C462 O464 1.185 . S
C462 O465 1.355 . S
Dy463 O467 2.310 . S
Dy463 O470 2.351 . S
Dy463 O472 2.398 . S
Dy463 O473 2.491 1_565 S
Dy463 O474 2.403 . S
Dy463 O475 2.664 . S
Dy463 O477 2.326 . S
O464 Dy460 2.398 . S
O464 C462 1.185 . S
O465 Dy460 2.491 . S
O465 C462 1.355 . S
O466 Dy460 2.403 . S
O466 C468 1.254 . S
O467 Dy460 2.664 . S
O467 Dy463 2.310 . S
O467 C468 1.268 . S
C468 O466 1.254 . S
C468 O467 1.268 . S
C469 O474 1.254 . S
C469 O475 1.268 . S
O470 Dy463 2.351 . S
O470 C478 1.249 . S
O471 Dy460 2.326 . S
O471 C478 1.267 . S
O472 C461 1.185 1_565 S
O472 Dy463 2.398 . S
O473 C461 1.355 . S
O473 Dy463 2.491 1_545 S
O474 Dy463 2.403 . S
O474 C469 1.254 . S
O475 Dy460 2.310 . S
O475 Dy463 2.664 . S
O475 C469 1.268 . S
O476 Dy460 2.351 . S
O476 C479 1.249 . S
O477 Dy463 2.326 . S
O477 C479 1.267 . S
C478 O470 1.249 . S
C478 O471 1.267 . S
C479 O476 1.249 . S
C479 O477 1.267 . S
Dy480 O484 2.398 . S
Dy480 O485 2.491 . S
Dy480 O486 2.403 . S
Dy480 O487 2.664 . S
Dy480 O491 2.326 . S
Dy480 O495 2.310 . S
Dy480 O496 2.351 . S
C481 O492 1.185 . S
C481 O493 1.355 . S
C482 O484 1.185 . S
C482 O485 1.355 . S
Dy483 O487 2.310 . S
Dy483 O490 2.351 . S
Dy483 O492 2.398 . S
Dy483 O493 2.491 . S
Dy483 O494 2.403 . S
Dy483 O495 2.664 . S
Dy483 O497 2.326 . S
O484 Dy480 2.398 . S
O484 C482 1.185 . S
O485 Dy480 2.491 . S
O485 C482 1.355 . S
O486 Dy480 2.403 . S
O486 C488 1.254 . S
O487 Dy480 2.664 . S
O487 Dy483 2.310 . S
O487 C488 1.268 . S
C488 O486 1.254 . S
C488 O487 1.268 . S
C489 O494 1.254 . S
C489 O495 1.268 . S
O490 Dy483 2.351 . S
O490 C498 1.249 . S
O491 Dy480 2.326 . S
O491 C498 1.267 . S
O492 C481 1.185 . S
O492 Dy483 2.398 . S
O493 C481 1.355 . S
O493 Dy483 2.491 . S
O494 Dy483 2.403 . S
O494 C489 1.254 . S
O495 Dy480 2.310 . S
O495 Dy483 2.664 . S
O495 C489 1.268 . S
O496 Dy480 2.351 . S
O496 C499 1.249 . S
O497 Dy483 2.326 . S
O497 C499 1.267 . S
C498 O490 1.249 . S
C498 O491 1.267 . S
C499 O496 1.249 . S
C499 O497 1.267 . S
Dy500 O504 2.398 . S
Dy500 O505 2.491 . S
Dy500 O506 2.403 . S
Dy500 O507 2.664 1_565 S
Dy500 O511 2.326 . S
Dy500 O515 2.310 1_565 S
Dy500 O516 2.351 1_565 S
C501 O512 1.185 . S
C501 O513 1.355 . S
C502 O504 1.185 . S
C502 O505 1.355 . S
Dy503 O507 2.310 . S
Dy503 O510 2.351 . S
Dy503 O512 2.398 . S
Dy503 O513 2.491 . S
Dy503 O514 2.403 . S
Dy503 O515 2.664 . S
Dy503 O517 2.326 . S
O504 Dy500 2.398 . S
O504 C502 1.185 . S
O505 Dy500 2.491 . S
O505 C502 1.355 . S
O506 Dy500 2.403 . S
O506 C508 1.254 . S
O507 Dy500 2.664 1_545 S
O507 Dy503 2.310 . S
O507 C508 1.268 1_545 S
C508 O506 1.254 . S
C508 O507 1.268 1_565 S
C509 O514 1.254 . S
C509 O515 1.268 . S
O510 Dy503 2.351 . S
O510 C518 1.249 1_545 S
O511 Dy500 2.326 . S
O511 C518 1.267 . S
O512 C501 1.185 . S
O512 Dy503 2.398 . S
O513 C501 1.355 . S
O513 Dy503 2.491 . S
O514 Dy503 2.403 . S
O514 C509 1.254 . S
O515 Dy500 2.310 1_545 S
O515 Dy503 2.664 . S
O515 C509 1.268 . S
O516 Dy500 2.351 1_545 S
O516 C519 1.249 . S
O517 Dy503 2.326 . S
O517 C519 1.267 . S
C518 O510 1.249 1_565 S
C518 O511 1.267 . S
C519 O516 1.249 . S
C519 O517 1.267 . S
Dy520 O524 2.398 1_545 S
Dy520 O525 2.491 1_545 S
Dy520 O526 2.403 1_545 S
Dy520 O527 2.664 . S
Dy520 O531 2.326 1_545 S
Dy520 O535 2.310 . S
Dy520 O536 2.351 . S
C521 O532 1.185 . S
C521 O533 1.355 . S
C522 O524 1.185 . S
C522 O525 1.355 . S
Dy523 O527 2.310 . S
Dy523 O530 2.351 . S
Dy523 O532 2.398 . S
Dy523 O533 2.491 . S
Dy523 O534 2.403 . S
Dy523 O535 2.664 . S
Dy523 O537 2.326 . S
O524 Dy520 2.398 1_565 S
O524 C522 1.185 . S
O525 Dy520 2.491 1_565 S
O525 C522 1.355 . S
O526 Dy520 2.403 1_565 S
O526 C528 1.254 1_565 S
O527 Dy520 2.664 . S
O527 Dy523 2.310 . S
O527 C528 1.268 . S
C528 O526 1.254 1_545 S
C528 O527 1.268 . S
C529 O534 1.254 . S
C529 O535 1.268 . S
O530 Dy523 2.351 . S
O530 C538 1.249 . S
O531 Dy520 2.326 1_565 S
O531 C538 1.267 1_565 S
O532 C521 1.185 . S
O532 Dy523 2.398 . S
O533 C521 1.355 . S
O533 Dy523 2.491 . S
O534 Dy523 2.403 . S
O534 C529 1.254 . S
O535 Dy520 2.310 . S
O535 Dy523 2.664 . S
O535 C529 1.268 . S
O536 Dy520 2.351 . S
O536 C539 1.249 . S
O537 Dy523 2.326 . S
O537 C539 1.267 . S
C538 O530 1.249 . S
C538 O531 1.267 1_545 S
C539 O536 1.249 . S
C539 O537 1.267 . S
Dy540 O544 2.398 1_556 S
Dy540 O545 2.491 . S
Dy540 O546 2.403 . S
Dy540 O547 2.664 . S
Dy540 O551 2.326 . S
Dy540 O555 2.310 . S
Dy540 O556 2.351 . S
C541 O552 1.185 . S
C541 O553 1.355 . S
C542 O544 1.185 . S
C542 O545 1.355 1_554 S
Dy543 O547 2.310 . S
Dy543 O550 2.351 . S
Dy543 O552 2.398 . S
Dy543 O553 2.491 . S
Dy543 O554 2.403 . S
Dy543 O555 2.664 . S
Dy543 O557 2.326 . S
O544 Dy540 2.398 1_554 S
O544 C542 1.185 . S
O545 Dy540 2.491 . S
O545 C542 1.355 1_556 S
O546 Dy540 2.403 . S
O546 C548 1.254 . S
O547 Dy540 2.664 . S
O547 Dy543 2.310 . S
O547 C548 1.268 . S
C548 O546 1.254 . S
C548 O547 1.268 . S
C549 O554 1.254 . S
C549 O555 1.268 . S
O550 Dy543 2.351 . S
O550 C558 1.249 . S
O551 Dy540 2.326 . S
O551 C558 1.267 . S
O552 C541 1.185 . S
O552 Dy543 2.398 . S
O553 C541 1.355 . S
O553 Dy543 2.491 . S
O554 Dy543 2.403 . S
O554 C549 1.254 . S
O555 Dy540 2.310 . S
O555 Dy543 2.664 . S
O555 C549 1.268 . S
O556 Dy540 2.351 . S
O556 C559 1.249 . S
O557 Dy543 2.326 . S
O557 C559 1.267 . S
C558 O550 1.249 . S
C558 O551 1.267 . S
C559 O556 1.249 . S
C559 O557 1.267 . S
Dy560 O564 2.398 . S
Dy560 O565 2.491 . S
Dy560 O566 2.403 . S
Dy560 O567 2.664 . S
Dy560 O571 2.326 . S
Dy560 O575 2.310 . S
Dy560 O576 2.351 . S
C561 O572 1.185 . S
C561 O573 1.355 . S
C562 O564 1.185 . S
C562 O565 1.355 . S
Dy563 O567 2.310 1_655 S
Dy563 O570 2.351 . S
Dy563 O572 2.398 . S
Dy563 O573 2.491 . S
Dy563 O574 2.403 1_655 S
Dy563 O575 2.664 1_655 S
Dy563 O577 2.326 1_655 S
O564 Dy560 2.398 . S
O564 C562 1.185 . S
O565 Dy560 2.491 . S
O565 C562 1.355 . S
O566 Dy560 2.403 . S
O566 C568 1.254 . S
O567 Dy560 2.664 . S
O567 Dy563 2.310 1_455 S
O567 C568 1.268 . S
C568 O566 1.254 . S
C568 O567 1.268 . S
C569 O574 1.254 . S
C569 O575 1.268 . S
O570 Dy563 2.351 . S
O570 C578 1.249 1_655 S
O571 Dy560 2.326 . S
O571 C578 1.267 . S
O572 C561 1.185 . S
O572 Dy563 2.398 . S
O573 C561 1.355 . S
O573 Dy563 2.491 . S
O574 Dy563 2.403 1_455 S
O574 C569 1.254 . S
O575 Dy560 2.310 . S
O575 Dy563 2.664 1_455 S
O575 C569 1.268 . S
O576 Dy560 2.351 . S
O576 C579 1.249 . S
O577 Dy563 2.326 1_455 S
O577 C579 1.267 . S
C578 O570 1.249 1_455 S
C578 O571 1.267 . S
C579 O576 1.249 . S
C579 O577 1.267 . S
Dy580 O584 2.398 . S
Dy580 O585 2.491 . S
Dy580 O586 2.403 . S
Dy580 O587 2.664 . S
Dy580 O591 2.326 . S
Dy580 O595 2.310 . S
Dy580 O596 2.351 . S
C581 O592 1.185 . S
C581 O593 1.355 . S
C582 O584 1.185 . S
C582 O585 1.355 . S
Dy583 O587 2.310 . S
Dy583 O590 2.351 . S
Dy583 O592 2.398 . S
Dy583 O593 2.491 . S
Dy583 O594 2.403 . S
Dy583 O595 2.664 . S
Dy583 O597 2.326 . S
O584 Dy580 2.398 . S
O584 C582 1.185 . S
O585 Dy580 2.491 . S
O585 C582 1.355 . S
O586 Dy580 2.403 . S
O586 C588 1.254 . S
O587 Dy580 2.664 . S
O587 Dy583 2.310 . S
O587 C588 1.268 . S
C588 O586 1.254 . S
C588 O587 1.268 . S
C589 O594 1.254 . S
C589 O595 1.268 . S
O590 Dy583 2.351 . S
O590 C598 1.249 . S
O591 Dy580 2.326 . S
O591 C598 1.267 . S
O592 C581 1.185 . S
O592 Dy583 2.398 . S
O593 C581 1.355 . S
O593 Dy583 2.491 . S
O594 Dy583 2.403 . S
O594 C589 1.254 . S
O595 Dy580 2.310 . S
O595 Dy583 2.664 . S
O595 C589 1.268 . S
O596 Dy580 2.351 . S
O596 C599 1.249 . S
O597 Dy583 2.326 . S
O597 C599 1.267 . S
C598 O590 1.249 . S
C598 O591 1.267 . S
C599 O596 1.249 . S
C599 O597 1.267 . S
Dy600 O604 2.398 . S
Dy600 O605 2.491 . S
Dy600 O606 2.403 . S
Dy600 O607 2.664 . S
Dy600 O611 2.326 . S
Dy600 O615 2.310 . S
Dy600 O616 2.351 . S
C601 O612 1.185 . S
C601 O613 1.355 . S
C602 O604 1.185 . S
C602 O605 1.355 . S
Dy603 O607 2.310 . S
Dy603 O610 2.351 . S
Dy603 O612 2.398 . S
Dy603 O613 2.491 . S
Dy603 O614 2.403 . S
Dy603 O615 2.664 . S
Dy603 O617 2.326 . S
O604 Dy600 2.398 . S
O604 C602 1.185 . S
O605 Dy600 2.491 . S
O605 C602 1.355 . S
O606 Dy600 2.403 . S
O606 C608 1.254 . S
O607 Dy600 2.664 . S
O607 Dy603 2.310 . S
O607 C608 1.268 . S
C608 O606 1.254 . S
C608 O607 1.268 . S
C609 O614 1.254 . S
C609 O615 1.268 . S
O610 Dy603 2.351 . S
O610 C618 1.249 . S
O611 Dy600 2.326 . S
O611 C618 1.267 . S
O612 C601 1.185 . S
O612 Dy603 2.398 . S
O613 C601 1.355 . S
O613 Dy603 2.491 . S
O614 Dy603 2.403 . S
O614 C609 1.254 . S
O615 Dy600 2.310 . S
O615 Dy603 2.664 . S
O615 C609 1.268 . S
O616 Dy600 2.351 . S
O616 C619 1.249 . S
O617 Dy603 2.326 . S
O617 C619 1.267 . S
C618 O610 1.249 . S
C618 O611 1.267 . S
C619 O616 1.249 . S
C619 O617 1.267 . S
Dy620 O624 2.398 . S
Dy620 O625 2.491 . S
Dy620 O626 2.403 . S
Dy620 O627 2.664 . S
Dy620 O631 2.326 . S
Dy620 O635 2.310 . S
Dy620 O636 2.351 . S
C621 O632 1.185 . S
C621 O633 1.355 1_455 S
C622 O624 1.185 . S
C622 O625 1.355 . S
Dy623 O627 2.310 . S
Dy623 O630 2.351 . S
Dy623 O632 2.398 1_655 S
Dy623 O633 2.491 . S
Dy623 O634 2.403 . S
Dy623 O635 2.664 . S
Dy623 O637 2.326 . S
O624 Dy620 2.398 . S
O624 C622 1.185 . S
O625 Dy620 2.491 . S
O625 C622 1.355 . S
O626 Dy620 2.403 . S
O626 C628 1.254 . S
O627 Dy620 2.664 . S
O627 Dy623 2.310 . S
O627 C628 1.268 . S
C628 O626 1.254 . S
C628 O627 1.268 . S
C629 O634 1.254 . S
C629 O635 1.268 . S
O630 Dy623 2.351 . S
O630 C638 1.249 . S
O631 Dy620 2.326 . S
O631 C638 1.267 . S
O632 C621 1.185 . S
O632 Dy623 2.398 1_455 S
O633 C621 1.355 1_655 S
O633 Dy623 2.491 . S
O634 Dy623 2.403 . S
O634 C629 1.254 . S
O635 Dy620 2.310 . S
O635 Dy623 2.664 . S
O635 C629 1.268 . S
O636 Dy620 2.351 . S
O636 C639 1.249 . S
O637 Dy623 2.326 . S
O637 C639 1.267 . S
C638 O630 1.249 . S
C638 O631 1.267 . S
C639 O636 1.249 . S
C639 O637 1.267 . S
Dy640 O644 2.398 . S
Dy640 O645 2.491 . S
Dy640 O646 2.403 . S
Dy640 O647 2.664 . S
Dy640 O651 2.326 . S
Dy640 O655 2.310 . S
Dy640 O656 2.351 . S
C641 O652 1.185 . S
C641 O653 1.355 . S
C642 O644 1.185 . S
C642 O645 1.355 . S
Dy643 O647 2.310 . S
Dy643 O650 2.351 . S
Dy643 O652 2.398 . S
Dy643 O653 2.491 . S
Dy643 O654 2.403 . S
Dy643 O655 2.664 . S
Dy643 O657 2.326 . S
O644 Dy640 2.398 . S
O644 C642 1.185 . S
O645 Dy640 2.491 . S
O645 C642 1.355 . S
O646 Dy640 2.403 . S
O646 C648 1.254 . S
O647 Dy640 2.664 . S
O647 Dy643 2.310 . S
O647 C648 1.268 . S
C648 O646 1.254 . S
C648 O647 1.268 . S
C649 O654 1.254 . S
C649 O655 1.268 . S
O650 Dy643 2.351 . S
O650 C658 1.249 . S
O651 Dy640 2.326 . S
O651 C658 1.267 . S
O652 C641 1.185 . S
O652 Dy643 2.398 . S
O653 C641 1.355 . S
O653 Dy643 2.491 . S
O654 Dy643 2.403 . S
O654 C649 1.254 . S
O655 Dy640 2.310 . S
O655 Dy643 2.664 . S
O655 C649 1.268 . S
O656 Dy640 2.351 . S
O656 C659 1.249 . S
O657 Dy643 2.326 . S
O657 C659 1.267 . S
C658 O650 1.249 . S
C658 O651 1.267 . S
C659 O656 1.249 . S
C659 O657 1.267 . S
Dy660 O664 2.398 . S
Dy660 O665 2.491 . S
Dy660 O666 2.403 1_554 S
Dy660 O667 2.664 1_554 S
Dy660 O671 2.326 1_554 S
Dy660 O675 2.310 . S
Dy660 O676 2.351 . S
C661 O672 1.185 . S
C661 O673 1.355 . S
C662 O664 1.185 . S
C662 O665 1.355 . S
Dy663 O667 2.310 . S
Dy663 O670 2.351 . S
Dy663 O672 2.398 . S
Dy663 O673 2.491 . S
Dy663 O674 2.403 . S
Dy663 O675 2.664 1_556 S
Dy663 O677 2.326 . S
O664 Dy660 2.398 . S
O664 C662 1.185 . S
O665 Dy660 2.491 . S
O665 C662 1.355 . S
O666 Dy660 2.403 1_556 S
O666 C668 1.254 . S
O667 Dy660 2.664 1_556 S
O667 Dy663 2.310 . S
O667 C668 1.268 . S
C668 O666 1.254 . S
C668 O667 1.268 . S
C669 O674 1.254 1_554 S
C669 O675 1.268 . S
O670 Dy663 2.351 . S
O670 C678 1.249 . S
O671 Dy660 2.326 1_556 S
O671 C678 1.267 . S
O672 C661 1.185 . S
O672 Dy663 2.398 . S
O673 C661 1.355 . S
O673 Dy663 2.491 . S
O674 Dy663 2.403 . S
O674 C669 1.254 1_556 S
O675 Dy660 2.310 . S
O675 Dy663 2.664 1_554 S
O675 C669 1.268 . S
O676 Dy660 2.351 . S
O676 C679 1.249 . S
O677 Dy663 2.326 . S
O677 C679 1.267 1_556 S
C678 O670 1.249 . S
C678 O671 1.267 . S
C679 O676 1.249 . S
C679 O677 1.267 1_554 S
Dy680 O684 2.398 . S
Dy680 O685 2.491 . S
Dy680 O686 2.403 . S
Dy680 O687 2.664 . S
Dy680 O691 2.326 . S
Dy680 O695 2.310 . S
Dy680 O696 2.351 . S
C681 O692 1.185 . S
C681 O693 1.355 . S
C682 O684 1.185 . S
C682 O685 1.355 . S
Dy683 O687 2.310 . S
Dy683 O690 2.351 . S
Dy683 O692 2.398 . S
Dy683 O693 2.491 . S
Dy683 O694 2.403 . S
Dy683 O695 2.664 . S
Dy683 O697 2.326 . S
O684 Dy680 2.398 . S
O684 C682 1.185 . S
O685 Dy680 2.491 . S
O685 C682 1.355 . S
O686 Dy680 2.403 . S
O686 C688 1.254 . S
O687 Dy680 2.664 . S
O687 Dy683 2.310 . S
O687 C688 1.268 . S
C688 O686 1.254 . S
C688 O687 1.268 . S
C689 O694 1.254 . S
C689 O695 1.268 . S
O690 Dy683 2.351 . S
O690 C698 1.249 . S
O691 Dy680 2.326 . S
O691 C698 1.267 . S
O692 C681 1.185 . S
O692 Dy683 2.398 . S
O693 C681 1.355 . S
O693 Dy683 2.491 . S
O694 Dy683 2.403 . S
O694 C689 1.254 . S
O695 Dy680 2.310 . S
O695 Dy683 2.664 . S
O695 C689 1.268 . S
O696 Dy680 2.351 . S
O696 C699 1.249 . S
O697 Dy683 2.326 . S
O697 C699 1.267 . S
C698 O690 1.249 . S
C698 O691 1.267 . S
C699 O696 1.249 . S
C699 O697 1.267 . S
Dy700 O704 2.398 . S
Dy700 O705 2.491 . S
Dy700 O706 2.403 . S
Dy700 O707 2.664 . S
Dy700 O711 2.326 . S
Dy700 O715 2.310 . S
Dy700 O716 2.351 . S
C701 O712 1.185 . S
C701 O713 1.355 . S
C702 O704 1.185 . S
C702 O705 1.355 . S
Dy703 O707 2.310 . S
Dy703 O710 2.351 . S
Dy703 O712 2.398 . S
Dy703 O713 2.491 . S
Dy703 O714 2.403 . S
Dy703 O715 2.664 . S
Dy703 O717 2.326 . S
O704 Dy700 2.398 . S
O704 C702 1.185 . S
O705 Dy700 2.491 . S
O705 C702 1.355 . S
O706 Dy700 2.403 . S
O706 C708 1.254 . S
O707 Dy700 2.664 . S
O707 Dy703 2.310 . S
O707 C708 1.268 . S
C708 O706 1.254 . S
C708 O707 1.268 . S
C709 O714 1.254 . S
C709 O715 1.268 . S
O710 Dy703 2.351 . S
O710 C718 1.249 . S
O711 Dy700 2.326 . S
O711 C718 1.267 . S
O712 C701 1.185 . S
O712 Dy703 2.398 . S
O713 C701 1.355 . S
O713 Dy703 2.491 . S
O714 Dy703 2.403 . S
O714 C709 1.254 . S
O715 Dy700 2.310 . S
O715 Dy703 2.664 . S
O715 C709 1.268 . S
O716 Dy700 2.351 . S
O716 C719 1.249 . S
O717 Dy703 2.326 . S
O717 C719 1.267 . S
C718 O710 1.249 . S
C718 O711 1.267 . S
C719 O716 1.249 . S
C719 O717 1.267 . S
Dy720 O724 2.398 . S
Dy720 O725 2.491 . S
Dy720 O726 2.403 . S
Dy720 O727 2.664 . S
Dy720 O731 2.326 . S
Dy720 O735 2.310 . S
Dy720 O736 2.351 . S
C721 O732 1.185 . S
C721 O733 1.355 . S
C722 O724 1.185 . S
C722 O725 1.355 . S
Dy723 O727 2.310 . S
Dy723 O730 2.351 . S
Dy723 O732 2.398 . S
Dy723 O733 2.491 . S
Dy723 O734 2.403 . S
Dy723 O735 2.664 . S
Dy723 O737 2.326 . S
O724 Dy720 2.398 . S
O724 C722 1.185 . S
O725 Dy720 2.491 . S
O725 C722 1.355 . S
O726 Dy720 2.403 . S
O726 C728 1.254 . S
O727 Dy720 2.664 . S
O727 Dy723 2.310 . S
O727 C728 1.268 . S
C728 O726 1.254 . S
C728 O727 1.268 . S
C729 O734 1.254 . S
C729 O735 1.268 . S
O730 Dy723 2.351 . S
O730 C738 1.249 . S
O731 Dy720 2.326 . S
O731 C738 1.267 . S
O732 C721 1.185 . S
O732 Dy723 2.398 . S
O733 C721 1.355 . S
O733 Dy723 2.491 . S
O734 Dy723 2.403 . S
O734 C729 1.254 . S
O735 Dy720 2.310 . S
O735 Dy723 2.664 . S
O735 C729 1.268 . S
O736 Dy720 2.351 . S
O736 C739 1.249 . S
O737 Dy723 2.326 . S
O737 C739 1.267 . S
C738 O730 1.249 . S
C738 O731 1.267 . S
C739 O736 1.249 . S
C739 O737 1.267 . S
Dy740 O744 2.398 . S
Dy740 O745 2.491 . S
Dy740 O746 2.403 . S
Dy740 O747 2.664 . S
Dy740 O751 2.326 . S
Dy740 O755 2.310 . S
Dy740 O756 2.351 . S
C741 O752 1.185 . S
C741 O753 1.355 . S
C742 O744 1.185 . S
C742 O745 1.355 . S
Dy743 O747 2.310 . S
Dy743 O750 2.351 . S
Dy743 O752 2.398 . S
Dy743 O753 2.491 . S
Dy743 O754 2.403 . S
Dy743 O755 2.664 . S
Dy743 O757 2.326 . S
O744 Dy740 2.398 . S
O744 C742 1.185 . S
O745 Dy740 2.491 . S
O745 C742 1.355 . S
O746 Dy740 2.403 . S
O746 C748 1.254 . S
O747 Dy740 2.664 . S
O747 Dy743 2.310 . S
O747 C748 1.268 . S
C748 O746 1.254 . S
C748 O747 1.268 . S
C749 O754 1.254 . S
C749 O755 1.268 . S
O750 Dy743 2.351 . S
O750 C758 1.249 . S
O751 Dy740 2.326 . S
O751 C758 1.267 . S
O752 C741 1.185 . S
O752 Dy743 2.398 . S
O753 C741 1.355 . S
O753 Dy743 2.491 . S
O754 Dy743 2.403 . S
O754 C749 1.254 . S
O755 Dy740 2.310 . S
O755 Dy743 2.664 . S
O755 C749 1.268 . S
O756 Dy740 2.351 . S
O756 C759 1.249 . S
O757 Dy743 2.326 . S
O757 C759 1.267 . S
C758 O750 1.249 . S
C758 O751 1.267 . S
C759 O756 1.249 . S
C759 O757 1.267 . S
Dy760 O764 2.398 . S
Dy760 O765 2.491 . S
Dy760 O766 2.403 . S
Dy760 O767 2.664 . S
Dy760 O771 2.326 . S
Dy760 O775 2.310 . S
Dy760 O776 2.351 . S
C761 O772 1.185 . S
C761 O773 1.355 . S
C762 O764 1.185 . S
C762 O765 1.355 . S
Dy763 O767 2.310 . S
Dy763 O770 2.351 . S
Dy763 O772 2.398 . S
Dy763 O773 2.491 . S
Dy763 O774 2.403 . S
Dy763 O775 2.664 . S
Dy763 O777 2.326 . S
O764 Dy760 2.398 . S
O764 C762 1.185 . S
O765 Dy760 2.491 . S
O765 C762 1.355 . S
O766 Dy760 2.403 . S
O766 C768 1.254 . S
O767 Dy760 2.664 . S
O767 Dy763 2.310 . S
O767 C768 1.268 . S
C768 O766 1.254 . S
C768 O767 1.268 . S
C769 O774 1.254 . S
C769 O775 1.268 . S
O770 Dy763 2.351 . S
O770 C778 1.249 . S
O771 Dy760 2.326 . S
O771 C778 1.267 . S
O772 C761 1.185 . S
O772 Dy763 2.398 . S
O773 C761 1.355 . S
O773 Dy763 2.491 . S
O774 Dy763 2.403 . S
O774 C769 1.254 . S
O775 Dy760 2.310 . S
O775 Dy763 2.664 . S
O775 C769 1.268 . S
O776 Dy760 2.351 . S
O776 C779 1.249 . S
O777 Dy763 2.326 . S
O777 C779 1.267 . S
C778 O770 1.249 . S
C778 O771 1.267 . S
C779 O776 1.249 . S
C779 O777 1.267 . S
Dy780 O784 2.398 . S
Dy780 O785 2.491 . S
Dy780 O786 2.403 . S
Dy780 O787 2.664 . S
Dy780 O791 2.326 . S
Dy780 O795 2.310 . S
Dy780 O796 2.351 . S
C781 O792 1.185 . S
C781 O793 1.355 . S
C782 O784 1.185 . S
C782 O785 1.355 . S
Dy783 O787 2.310 . S
Dy783 O790 2.351 . S
Dy783 O792 2.398 . S
Dy783 O793 2.491 . S
Dy783 O794 2.403 . S
Dy783 O795 2.664 . S
Dy783 O797 2.326 . S
O784 Dy780 2.398 . S
O784 C782 1.185 . S
O785 Dy780 2.491 . S
O785 C782 1.355 . S
O786 Dy780 2.403 . S
O786 C788 1.254 . S
O787 Dy780 2.664 . S
O787 Dy783 2.310 . S
O787 C788 1.268 . S
C788 O786 1.254 . S
C788 O787 1.268 . S
C789 O794 1.254 . S
C789 O795 1.268 . S
O790 Dy783 2.351 . S
O790 C798 1.249 . S
O791 Dy780 2.326 . S
O791 C798 1.267 . S
O792 C781 1.185 . S
O792 Dy783 2.398 . S
O793 C781 1.355 . S
O793 Dy783 2.491 . S
O794 Dy783 2.403 . S
O794 C789 1.254 . S
O795 Dy780 2.310 . S
O795 Dy783 2.664 . S
O795 C789 1.268 . S
O796 Dy780 2.351 . S
O796 C799 1.249 . S
O797 Dy783 2.326 . S
O797 C799 1.267 . S
C798 O790 1.249 . S
C798 O791 1.267 . S
C799 O796 1.249 . S
C799 O797 1.267 . S
Dy800 O804 2.398 1_455 S
Dy800 O805 2.491 . S
Dy800 O806 2.403 . S
Dy800 O807 2.664 . S
Dy800 O811 2.326 . S
Dy800 O815 2.310 . S
Dy800 O816 2.351 . S
C801 O812 1.185 . S
C801 O813 1.355 . S
C802 O804 1.185 . S
C802 O805 1.355 1_655 S
Dy803 O807 2.310 . S
Dy803 O810 2.351 . S
Dy803 O812 2.398 . S
Dy803 O813 2.491 . S
Dy803 O814 2.403 . S
Dy803 O815 2.664 . S
Dy803 O817 2.326 . S
O804 Dy800 2.398 1_655 S
O804 C802 1.185 . S
O805 Dy800 2.491 . S
O805 C802 1.355 1_455 S
O806 Dy800 2.403 . S
O806 C808 1.254 . S
O807 Dy800 2.664 . S
O807 Dy803 2.310 . S
O807 C808 1.268 . S
C808 O806 1.254 . S
C808 O807 1.268 . S
C809 O814 1.254 . S
C809 O815 1.268 . S
O810 Dy803 2.351 . S
O810 C818 1.249 . S
O811 Dy800 2.326 . S
O811 C818 1.267 . S
O812 C801 1.185 . S
O812 Dy803 2.398 . S
O813 C801 1.355 . S
O813 Dy803 2.491 . S
O814 Dy803 2.403 . S
O814 C809 1.254 . S
O815 Dy800 2.310 . S
O815 Dy803 2.664 . S
O815 C809 1.268 . S
O816 Dy800 2.351 . S
O816 C819 1.249 . S
O817 Dy803 2.326 . S
O817 C819 1.267 . S
C818 O810 1.249 . S
C818 O811 1.267 . S
C819 O816 1.249 . S
C819 O817 1.267 . S
Dy820 O824 2.398 . S
Dy820 O825 2.491 . S
Dy820 O826 2.403 . S
Dy820 O827 2.664 . S
Dy820 O831 2.326 . S
Dy820 O835 2.310 . S
Dy820 O836 2.351 . S
C821 O832 1.185 . S
C821 O833 1.355 . S
C822 O824 1.185 . S
C822 O825 1.355 . S
Dy823 O827 2.310 . S
Dy823 O830 2.351 . S
Dy823 O832 2.398 . S
Dy823 O833 2.491 . S
Dy823 O834 2.403 . S
Dy823 O835 2.664 . S
Dy823 O837 2.326 . S
O824 Dy820 2.398 . S
O824 C822 1.185 . S
O825 Dy820 2.491 . S
O825 C822 1.355 . S
O826 Dy820 2.403 . S
O826 C828 1.254 . S
O827 Dy820 2.664 . S
O827 Dy823 2.310 . S
O827 C828 1.268 . S
C828 O826 1.254 . S
C828 O827 1.268 . S
C829 O834 1.254 . S
C829 O835 1.268 . S
O830 Dy823 2.351 . S
O830 C838 1.249 . S
O831 Dy820 2.326 . S
O831 C838 1.267 . S
O832 C821 1.185 . S
O832 Dy823 2.398 . S
O833 C821 1.355 . S
O833 Dy823 2.491 . S
O834 Dy823 2.403 . S
O834 C829 1.254 . S
O835 Dy820 2.310 . S
O835 Dy823 2.664 . S
O835 C829 1.268 . S
O836 Dy820 2.351 . S
O836 C839 1.249 . S
O837 Dy823 2.326 . S
O837 C839 1.267 . S
C838 O830 1.249 . S
C838 O831 1.267 . S
C839 O836 1.249 . S
C839 O837 1.267 . S
Dy840 O844 2.398 . S
Dy840 O845 2.491 . S
Dy840 O846 2.403 . S
Dy840 O847 2.664 1_554 S
Dy840 O851 2.326 . S
Dy840 O855 2.310 . S
Dy840 O856 2.351 . S
C841 O852 1.185 . S
C841 O853 1.355 . S
C842 O844 1.185 . S
C842 O845 1.355 . S
Dy843 O847 2.310 . S
Dy843 O850 2.351 . S
Dy843 O852 2.398 . S
Dy843 O853 2.491 . S
Dy843 O854 2.403 1_556 S
Dy843 O855 2.664 1_556 S
Dy843 O857 2.326 1_556 S
O844 Dy840 2.398 . S
O844 C842 1.185 . S
O845 Dy840 2.491 . S
O845 C842 1.355 . S
O846 Dy840 2.403 . S
O846 C848 1.254 1_554 S
O847 Dy840 2.664 1_556 S
O847 Dy843 2.310 . S
O847 C848 1.268 . S
C848 O846 1.254 1_556 S
C848 O847 1.268 . S
C849 O854 1.254 . S
C849 O855 1.268 . S
O850 Dy843 2.351 . S
O850 C858 1.249 . S
O851 Dy840 2.326 . S
O851 C858 1.267 1_554 S
O852 C841 1.185 . S
O852 Dy843 2.398 . S
O853 C841 1.355 . S
O853 Dy843 2.491 . S
O854 Dy843 2.403 1_554 S
O854 C849 1.254 . S
O855 Dy840 2.310 . S
O855 Dy843 2.664 1_554 S
O855 C849 1.268 . S
O856 Dy840 2.351 . S
O856 C859 1.249 . S
O857 Dy843 2.326 1_554 S
O857 C859 1.267 . S
C858 O850 1.249 . S
C858 O851 1.267 1_556 S
C859 O856 1.249 . S
C859 O857 1.267 . S
Dy860 O864 2.398 . S
Dy860 O865 2.491 . S
Dy860 O866 2.403 . S
Dy860 O867 2.664 . S
Dy860 O871 2.326 . S
Dy860 O875 2.310 . S
Dy860 O876 2.351 . S
C861 O872 1.185 . S
C861 O873 1.355 . S
C862 O864 1.185 . S
C862 O865 1.355 . S
Dy863 O867 2.310 . S
Dy863 O870 2.351 . S
Dy863 O872 2.398 . S
Dy863 O873 2.491 . S
Dy863 O874 2.403 . S
Dy863 O875 2.664 . S
Dy863 O877 2.326 . S
O864 Dy860 2.398 . S
O864 C862 1.185 . S
O865 Dy860 2.491 . S
O865 C862 1.355 . S
O866 Dy860 2.403 . S
O866 C868 1.254 . S
O867 Dy860 2.664 . S
O867 Dy863 2.310 . S
O867 C868 1.268 . S
C868 O866 1.254 . S
C868 O867 1.268 . S
C869 O874 1.254 . S
C869 O875 1.268 . S
O870 Dy863 2.351 . S
O870 C878 1.249 . S
O871 Dy860 2.326 . S
O871 C878 1.267 . S
O872 C861 1.185 . S
O872 Dy863 2.398 . S
O873 C861 1.355 . S
O873 Dy863 2.491 . S
O874 Dy863 2.403 . S
O874 C869 1.254 . S
O875 Dy860 2.310 . S
O875 Dy863 2.664 . S
O875 C869 1.268 . S
O876 Dy860 2.351 . S
O876 C879 1.249 . S
O877 Dy863 2.326 . S
O877 C879 1.267 . S
C878 O870 1.249 . S
C878 O871 1.267 . S
C879 O876 1.249 . S
C879 O877 1.267 . S
Dy880 O884 2.398 . S
Dy880 O885 2.491 . S
Dy880 O886 2.403 . S
Dy880 O887 2.664 . S
Dy880 O891 2.326 . S
Dy880 O895 2.310 . S
Dy880 O896 2.351 . S
C881 O892 1.185 . S
C881 O893 1.355 . S
C882 O884 1.185 . S
C882 O885 1.355 . S
Dy883 O887 2.310 . S
Dy883 O890 2.351 . S
Dy883 O892 2.398 . S
Dy883 O893 2.491 . S
Dy883 O894 2.403 . S
Dy883 O895 2.664 . S
Dy883 O897 2.326 . S
O884 Dy880 2.398 . S
O884 C882 1.185 . S
O885 Dy880 2.491 . S
O885 C882 1.355 . S
O886 Dy880 2.403 . S
O886 C888 1.254 . S
O887 Dy880 2.664 . S
O887 Dy883 2.310 . S
O887 C888 1.268 . S
C888 O886 1.254 . S
C888 O887 1.268 . S
C889 O894 1.254 . S
C889 O895 1.268 . S
O890 Dy883 2.351 . S
O890 C898 1.249 . S
O891 Dy880 2.326 . S
O891 C898 1.267 . S
O892 C881 1.185 . S
O892 Dy883 2.398 . S
O893 C881 1.355 . S
O893 Dy883 2.491 . S
O894 Dy883 2.403 . S
O894 C889 1.254 . S
O895 Dy880 2.310 . S
O895 Dy883 2.664 . S
O895 C889 1.268 . S
O896 Dy880 2.351 . S
O896 C899 1.249 . S
O897 Dy883 2.326 . S
O897 C899 1.267 . S
C898 O890 1.249 . S
C898 O891 1.267 . S
C899 O896 1.249 . S
C899 O897 1.267 . S
Dy900 O904 2.398 . S
Dy900 O905 2.491 . S
Dy900 O906 2.403 . S
Dy900 O907 2.664 . S
Dy900 O911 2.326 . S
Dy900 O915 2.310 . S
Dy900 O916 2.351 . S
C901 O912 1.185 . S
C901 O913 1.355 . S
C902 O904 1.185 . S
C902 O905 1.355 . S
Dy903 O907 2.310 . S
Dy903 O910 2.351 . S
Dy903 O912 2.398 . S
Dy903 O913 2.491 . S
Dy903 O914 2.403 . S
Dy903 O915 2.664 . S
Dy903 O917 2.326 . S
O904 Dy900 2.398 . S
O904 C902 1.185 . S
O905 Dy900 2.491 . S
O905 C902 1.355 . S
O906 Dy900 2.403 . S
O906 C908 1.254 . S
O907 Dy900 2.664 . S
O907 Dy903 2.310 . S
O907 C908 1.268 . S
C908 O906 1.254 . S
C908 O907 1.268 . S
C909 O914 1.254 . S
C909 O915 1.268 . S
O910 Dy903 2.351 . S
O910 C918 1.249 . S
O911 Dy900 2.326 . S
O911 C918 1.267 . S
O912 C901 1.185 . S
O912 Dy903 2.398 . S
O913 C901 1.355 . S
O913 Dy903 2.491 . S
O914 Dy903 2.403 . S
O914 C909 1.254 . S
O915 Dy900 2.310 . S
O915 Dy903 2.664 . S
O915 C909 1.268 . S
O916 Dy900 2.351 . S
O916 C919 1.249 . S
O917 Dy903 2.326 . S
O917 C919 1.267 . S
C918 O910 1.249 . S
C918 O911 1.267 . S
C919 O916 1.249 . S
C919 O917 1.267 . S
Dy920 O924 2.398 . S
Dy920 O925 2.491 . S
Dy920 O926 2.403 . S
Dy920 O927 2.664 . S
Dy920 O931 2.326 . S
Dy920 O935 2.310 . S
Dy920 O936 2.351 . S
C921 O932 1.185 . S
C921 O933 1.355 . S
C922 O924 1.185 . S
C922 O925 1.355 . S
Dy923 O927 2.310 . S
Dy923 O930 2.351 . S
Dy923 O932 2.398 . S
Dy923 O933 2.491 . S
Dy923 O934 2.403 . S
Dy923 O935 2.664 . S
Dy923 O937 2.326 . S
O924 Dy920 2.398 . S
O924 C922 1.185 . S
O925 Dy920 2.491 . S
O925 C922 1.355 . S
O926 Dy920 2.403 . S
O926 C928 1.254 . S
O927 Dy920 2.664 . S
O927 Dy923 2.310 . S
O927 C928 1.268 . S
C928 O926 1.254 . S
C928 O927 1.268 . S
C929 O934 1.254 . S
C929 O935 1.268 . S
O930 Dy923 2.351 . S
O930 C938 1.249 . S
O931 Dy920 2.326 . S
O931 C938 1.267 . S
O932 C921 1.185 . S
O932 Dy923 2.398 . S
O933 C921 1.355 . S
O933 Dy923 2.491 . S
O934 Dy923 2.403 . S
O934 C929 1.254 . S
O935 Dy920 2.310 . S
O935 Dy923 2.664 . S
O935 C929 1.268 . S
O936 Dy920 2.351 . S
O936 C939 1.249 . S
O937 Dy923 2.326 . S
O937 C939 1.267 . S
C938 O930 1.249 . S
C938 O931 1.267 . S
C939 O936 1.249 . S
C939 O937 1.267 . S
Dy940 O944 2.398 . S
Dy940 O945 2.491 . S
Dy940 O946 2.403 . S
Dy940 O947 2.664 . S
Dy940 O951 2.326 . S
Dy940 O955 2.310 . S
Dy940 O956 2.351 . S
C941 O952 1.185 . S
C941 O953 1.355 . S
C942 O944 1.185 . S
C942 O945 1.355 . S
Dy943 O947 2.310 . S
Dy943 O950 2.351 . S
Dy943 O952 2.398 . S
Dy943 O953 2.491 . S
Dy943 O954 2.403 . S
Dy943 O955 2.664 . S
Dy943 O957 2.326 . S
O944 Dy940 2.398 . S
O944 C942 1.185 . S
O945 Dy940 2.491 . S
O945 C942 1.355 . S
O946 Dy940 2.403 . S
O946 C948 1.254 . S
O947 Dy940 2.664 . S
O947 Dy943 2.310 . S
O947 C948 1.268 . S
C948 O946 1.254 . S
C948 O947 1.268 . S
C949 O954 1.254 . S
C949 O955 1.268 . S
O950 Dy943 2.351 . S
O950 C958 1.249 . S
O951 Dy940 2.326 . S
O951 C958 1.267 . S
O952 C941 1.185 . S
O952 Dy943 2.398 . S
O953 C941 1.355 . S
O953 Dy943 2.491 . S
O954 Dy943 2.403 . S
O954 C949 1.254 . S
O955 Dy940 2.310 . S
O955 Dy943 2.664 . S
O955 C949 1.268 . S
O956 Dy940 2.351 . S
O956 C959 1.249 . S
O957 Dy943 2.326 . S
O957 C959 1.267 . S
C958 O950 1.249 . S
C958 O951 1.267 . S
C959 O956 1.249 . S
C959 O957 1.267 . S
H960 C966 0.930 . S
H961 C970 0.930 . S
H962 C975 0.929 . S
H963 C973 0.929 . S
H964 C968 0.929 . S
H965 C974 0.929 . S
C966 H960 0.930 . S
C966 C967 1.367 1_655 S
C966 C974 1.378 . S
C967 C966 1.367 1_455 S
C967 C975 1.433 . S
C968 H964 0.929 . S
C968 C970 1.378 . S
C968 C972 1.350 . S
C969 C972 1.463 . S
C969 C974 1.350 1_455 S
C969 N977 1.427 . S
C970 H961 0.930 . S
C970 C968 1.378 . S
C970 C971 1.367 . S
C971 C970 1.367 . S
C971 C973 1.433 1_455 S
C972 C968 1.350 . S
C972 C969 1.463 . S
C972 N976 1.427 1_455 S
C973 H963 0.929 . S
C973 C971 1.433 1_655 S
C973 N976 1.384 . S
C974 H965 0.929 . S
C974 C966 1.378 . S
C974 C969 1.350 1_655 S
C975 H962 0.929 . S
C975 C967 1.433 . S
C975 N977 1.384 . S
N976 C972 1.427 1_655 S
N976 C973 1.384 . S
N977 C969 1.427 . S
N977 C975 1.384 . S
H978 C984 0.930 . S
H979 C988 0.930 . S
H980 C993 0.929 . S
H981 C991 0.929 . S
H982 C986 0.929 . S
H983 C992 0.929 . S
C984 H978 0.930 . S
C984 C985 1.367 . S
C984 C992 1.378 . S
C985 C984 1.367 . S
C985 C993 1.433 . S
C986 H982 0.929 . S
C986 C988 1.378 . S
C986 C990 1.350 . S
C987 C990 1.463 . S
C987 C992 1.350 . S
C987 N995 1.427 . S
C988 H979 0.930 . S
C988 C986 1.378 . S
C988 C989 1.367 . S
C989 C988 1.367 . S
C989 C991 1.433 . S
C990 C986 1.350 . S
C990 C987 1.463 . S
C990 N994 1.427 . S
C991 H981 0.929 . S
C991 C989 1.433 . S
C991 N994 1.384 . S
C992 H983 0.929 . S
C992 C984 1.378 . S
C992 C987 1.350 . S
C993 H980 0.929 . S
C993 C985 1.433 . S
C993 N995 1.384 . S
N994 C990 1.427 . S
N994 C991 1.384 . S
N995 C987 1.427 . S
N995 C993 1.384 . S
H996 C1002 0.930 . S
H997 C1006 0.930 . S
H998 C1011 0.929 . S
H999 C1009 0.929 . S
H1000 C1004 0.929 . S
H1001 C1010 0.929 . S
C1002 H996 0.930 . S
C1002 C1003 1.367 . S
C1002 C1010 1.378 . S
C1003 C1002 1.367 . S
C1003 C1011 1.433 . S
C1004 H1000 0.929 . S
C1004 C1006 1.378 . S
C1004 C1008 1.350 . S
C1005 C1008 1.463 . S
C1005 C1010 1.350 . S
C1005 N1013 1.427 . S
C1006 H997 0.930 . S
C1006 C1004 1.378 . S
C1006 C1007 1.367 . S
C1007 C1006 1.367 . S
C1007 C1009 1.433 . S
C1008 C1004 1.350 . S
C1008 C1005 1.463 . S
C1008 N1012 1.427 . S
C1009 H999 0.929 . S
C1009 C1007 1.433 . S
C1009 N1012 1.384 . S
C1010 H1001 0.929 . S
C1010 C1002 1.378 . S
C1010 C1005 1.350 . S
C1011 H998 0.929 . S
C1011 C1003 1.433 . S
C1011 N1013 1.384 . S
N1012 C1008 1.427 . S
N1012 C1009 1.384 . S
N1013 C1005 1.427 . S
N1013 C1011 1.384 . S
H1014 C1020 0.930 1_556 S
H1015 C1024 0.930 . S
H1016 C1029 0.929 . S
H1017 C1027 0.928 . S
H1018 C1022 0.929 . S
H1019 C1028 0.929 1_556 S
C1020 H1014 0.930 1_554 S
C1020 C1021 1.367 . S
C1020 C1028 1.378 . S
C1021 C1020 1.367 . S
C1021 C1029 1.433 . S
C1022 H1018 0.929 . S
C1022 C1024 1.378 . S
C1022 C1026 1.350 . S
C1023 C1026 1.463 . S
C1023 C1028 1.350 . S
C1023 N1031 1.427 . S
C1024 H1015 0.930 . S
C1024 C1022 1.378 . S
C1024 C1025 1.367 . S
C1025 C1024 1.367 . S
C1025 C1027 1.433 . S
C1026 C1022 1.350 . S
C1026 C1023 1.463 . S
C1026 N1030 1.427 . S
C1027 H1017 0.928 . S
C1027 C1025 1.433 . S
C1027 N1030 1.384 . S
C1028 H1019 0.929 1_554 S
C1028 C1020 1.378 . S
C1028 C1023 1.350 . S
C1029 H1016 0.929 . S
C1029 C1021 1.433 . S
C1029 N1031 1.384 . S
N1030 C1026 1.427 . S
N1030 C1027 1.384 . S
N1031 C1023 1.427 . S
N1031 C1029 1.384 . S
H1032 C1038 0.930 . S
H1033 C1042 0.930 . S
H1034 C1047 0.929 . S
H1035 C1045 0.929 . S
H1036 C1040 0.929 . S
H1037 C1046 0.929 . S
C1038 H1032 0.930 . S
C1038 C1039 1.367 . S
C1038 C1046 1.378 . S
C1039 C1038 1.367 . S
C1039 C1047 1.433 . S
C1040 H1036 0.929 . S
C1040 C1042 1.378 . S
C1040 C1044 1.350 . S
C1041 C1044 1.463 . S
C1041 C1046 1.350 . S
C1041 N1049 1.427 . S
C1042 H1033 0.930 . S
C1042 C1040 1.378 . S
C1042 C1043 1.367 . S
C1043 C1042 1.367 . S
C1043 C1045 1.433 . S
C1044 C1040 1.350 . S
C1044 C1041 1.463 . S
C1044 N1048 1.427 . S
C1045 H1035 0.929 . S
C1045 C1043 1.433 . S
C1045 N1048 1.384 . S
C1046 H1037 0.929 . S
C1046 C1038 1.378 . S
C1046 C1041 1.350 . S
C1047 H1034 0.929 . S
C1047 C1039 1.433 . S
C1047 N1049 1.384 . S
N1048 C1044 1.427 . S
N1048 C1045 1.384 . S
N1049 C1041 1.427 . S
N1049 C1047 1.384 . S
H1050 C1056 0.930 1_565 S
H1051 C1060 0.930 . S
H1052 C1065 0.929 . S
H1053 C1063 0.929 1_565 S
H1054 C1058 0.929 . S
H1055 C1064 0.929 1_565 S
C1056 H1050 0.930 1_545 S
C1056 C1057 1.367 . S
C1056 C1064 1.378 . S
C1057 C1056 1.367 . S
C1057 C1065 1.433 . S
C1058 H1054 0.929 . S
C1058 C1060 1.378 . S
C1058 C1062 1.350 . S
C1059 C1062 1.463 . S
C1059 C1064 1.350 . S
C1059 N1067 1.427 . S
C1060 H1051 0.930 . S
C1060 C1058 1.378 . S
C1060 C1061 1.367 . S
C1061 C1060 1.367 . S
C1061 C1063 1.433 . S
C1062 C1058 1.350 . S
C1062 C1059 1.463 . S
C1062 N1066 1.427 . S
C1063 H1053 0.929 1_545 S
C1063 C1061 1.433 . S
C1063 N1066 1.384 . S
C1064 H1055 0.929 1_545 S
C1064 C1056 1.378 . S
C1064 C1059 1.350 . S
C1065 H1052 0.929 . S
C1065 C1057 1.433 . S
C1065 N1067 1.384 . S
N1066 C1062 1.427 . S
N1066 C1063 1.384 . S
N1067 C1059 1.427 . S
N1067 C1065 1.384 . S
H1068 C1074 0.930 . S
H1069 C1078 0.930 . S
H1070 C1083 0.929 . S
H1071 C1081 0.929 . S
H1072 C1076 0.929 . S
H1073 C1082 0.929 . S
C1074 H1068 0.930 . S
C1074 C1075 1.367 . S
C1074 C1082 1.378 . S
C1075 C1074 1.367 . S
C1075 C1083 1.433 1_565 S
C1076 H1072 0.929 . S
C1076 C1078 1.378 . S
C1076 C1080 1.350 . S
C1077 C1080 1.463 1_564 S
C1077 C1082 1.350 . S
C1077 N1085 1.427 1_565 S
C1078 H1069 0.930 . S
C1078 C1076 1.378 . S
C1078 C1079 1.367 . S
C1079 C1078 1.367 . S
C1079 C1081 1.433 1_545 S
C1080 C1076 1.350 . S
C1080 C1077 1.463 1_546 S
C1080 N1084 1.427 1_545 S
C1081 H1071 0.929 . S
C1081 C1079 1.433 1_565 S
C1081 N1084 1.384 . S
C1082 H1073 0.929 . S
C1082 C1074 1.378 . S
C1082 C1077 1.350 . S
C1083 H1070 0.929 . S
C1083 C1075 1.433 1_545 S
C1083 N1085 1.384 . S
N1084 C1080 1.427 1_565 S
N1084 C1081 1.384 . S
N1085 C1077 1.427 1_545 S
N1085 C1083 1.384 . S
H1086 C1092 0.930 . S
H1087 C1096 0.930 . S
H1088 C1101 0.929 . S
H1089 C1099 0.929 . S
H1090 C1094 0.929 . S
H1091 C1100 0.929 . S
C1092 H1086 0.930 . S
C1092 C1093 1.367 . S
C1092 C1100 1.378 . S
C1093 C1092 1.367 . S
C1093 C1101 1.433 1_545 S
C1094 H1090 0.929 . S
C1094 C1096 1.378 . S
C1094 C1098 1.350 1_565 S
C1095 C1098 1.463 . S
C1095 C1100 1.350 . S
C1095 N1103 1.427 1_545 S
C1096 H1087 0.930 . S
C1096 C1094 1.378 . S
C1096 C1097 1.367 1_565 S
C1097 C1096 1.367 1_545 S
C1097 C1099 1.433 . S
C1098 C1094 1.350 1_545 S
C1098 C1095 1.463 . S
C1098 N1102 1.427 . S
C1099 H1089 0.929 . S
C1099 C1097 1.433 . S
C1099 N1102 1.384 . S
C1100 H1091 0.929 . S
C1100 C1092 1.378 . S
C1100 C1095 1.350 . S
C1101 H1088 0.929 . S
C1101 C1093 1.433 1_565 S
C1101 N1103 1.384 . S
N1102 C1098 1.427 . S
N1102 C1099 1.384 . S
N1103 C1095 1.427 1_565 S
N1103 C1101 1.384 . S
H1104 C1110 0.930 . S
H1105 C1114 0.930 . S
H1106 C1119 0.929 . S
H1107 C1117 0.929 . S
H1108 C1112 0.929 . S
H1109 C1118 0.929 . S
C1110 H1104 0.930 . S
C1110 C1111 1.367 . S
C1110 C1118 1.378 . S
C1111 C1110 1.367 . S
C1111 C1119 1.433 . S
C1112 H1108 0.929 . S
C1112 C1114 1.378 . S
C1112 C1116 1.350 . S
C1113 C1116 1.463 . S
C1113 C1118 1.350 . S
C1113 N1121 1.427 . S
C1114 H1105 0.930 . S
C1114 C1112 1.378 . S
C1114 C1115 1.367 . S
C1115 C1114 1.367 . S
C1115 C1117 1.433 . S
C1116 C1112 1.350 . S
C1116 C1113 1.463 . S
C1116 N1120 1.427 . S
C1117 H1107 0.929 . S
C1117 C1115 1.433 . S
C1117 N1120 1.384 . S
C1118 H1109 0.929 . S
C1118 C1110 1.378 . S
C1118 C1113 1.350 . S
C1119 H1106 0.929 . S
C1119 C1111 1.433 . S
C1119 N1121 1.384 . S
N1120 C1116 1.427 . S
N1120 C1117 1.384 . S
N1121 C1113 1.427 . S
N1121 C1119 1.384 . S
H1122 C1128 0.930 . S
H1123 C1132 0.930 . S
H1124 C1137 0.929 . S
H1125 C1135 0.929 . S
H1126 C1130 0.929 1_655 S
H1127 C1136 0.929 . S
C1128 H1122 0.930 . S
C1128 C1129 1.367 . S
C1128 C1136 1.378 . S
C1129 C1128 1.367 . S
C1129 C1137 1.433 1_554 S
C1130 H1126 0.929 1_455 S
C1130 C1132 1.378 . S
C1130 C1134 1.350 1_456 S
C1131 C1134 1.463 . S
C1131 C1136 1.350 . S
C1131 N1139 1.427 1_554 S
C1132 H1123 0.930 . S
C1132 C1130 1.378 . S
C1132 C1133 1.367 1_556 S
C1133 C1132 1.367 1_554 S
C1133 C1135 1.433 . S
C1134 C1130 1.350 1_654 S
C1134 C1131 1.463 . S
C1134 N1138 1.427 1_655 S
C1135 H1125 0.929 . S
C1135 C1133 1.433 . S
C1135 N1138 1.384 . S
C1136 H1127 0.929 . S
C1136 C1128 1.378 . S
C1136 C1131 1.350 . S
C1137 H1124 0.929 . S
C1137 C1129 1.433 1_556 S
C1137 N1139 1.384 . S
N1138 C1134 1.427 1_455 S
N1138 C1135 1.384 . S
N1139 C1131 1.427 1_556 S
N1139 C1137 1.384 . S
H1140 C1146 0.930 . S
H1141 C1150 0.930 . S
H1142 C1155 0.929 . S
H1143 C1153 0.929 . S
H1144 C1148 0.929 . S
H1145 C1154 0.929 . S
C1146 H1140 0.930 . S
C1146 C1147 1.367 1_455 S
C1146 C1154 1.378 . S
C1147 C1146 1.367 1_655 S
C1147 C1155 1.433 . S
C1148 H1144 0.929 . S
C1148 C1150 1.378 . S
C1148 C1152 1.350 1_655 S
C1149 C1152 1.463 . S
C1149 C1154 1.350 . S
C1149 N1157 1.427 1_455 S
C1150 H1141 0.930 . S
C1150 C1148 1.378 . S
C1150 C1151 1.367 1_655 S
C1151 C1150 1.367 1_455 S
C1151 C1153 1.433 . S
C1152 C1148 1.350 1_455 S
C1152 C1149 1.463 . S
C1152 N1156 1.427 . S
C1153 H1143 0.929 . S
C1153 C1151 1.433 . S
C1153 N1156 1.384 . S
C1154 H1145 0.929 . S
C1154 C1146 1.378 . S
C1154 C1149 1.350 . S
C1155 H1142 0.929 . S
C1155 C1147 1.433 . S
C1155 N1157 1.384 . S
N1156 C1152 1.427 . S
N1156 C1153 1.384 . S
N1157 C1149 1.427 1_655 S
N1157 C1155 1.384 . S
H1158 C1164 0.930 . S
H1159 C1168 0.930 . S
H1160 C1173 0.929 . S
H1161 C1171 0.929 . S
H1162 C1166 0.929 . S
H1163 C1172 0.929 . S
C1164 H1158 0.930 . S
C1164 C1165 1.367 . S
C1164 C1172 1.378 . S
C1165 C1164 1.367 . S
C1165 C1173 1.433 . S
C1166 H1162 0.929 . S
C1166 C1168 1.378 . S
C1166 C1170 1.350 . S
C1167 C1170 1.463 . S
C1167 C1172 1.350 . S
C1167 N1175 1.427 . S
C1168 H1159 0.930 . S
C1168 C1166 1.378 . S
C1168 C1169 1.367 . S
C1169 C1168 1.367 . S
C1169 C1171 1.433 . S
C1170 C1166 1.350 . S
C1170 C1167 1.463 . S
C1170 N1174 1.427 . S
C1171 H1161 0.929 . S
C1171 C1169 1.433 . S
C1171 N1174 1.384 . S
C1172 H1163 0.929 . S
C1172 C1164 1.378 . S
C1172 C1167 1.350 . S
C1173 H1160 0.929 . S
C1173 C1165 1.433 . S
C1173 N1175 1.384 . S
N1174 C1170 1.427 . S
N1174 C1171 1.384 . S
N1175 C1167 1.427 . S
N1175 C1173 1.384 . S
H1176 C1182 0.930 . S
H1177 C1186 0.930 . S
H1178 C1191 0.929 . S
H1179 C1189 0.929 . S
H1180 C1184 0.929 . S
H1181 C1190 0.929 . S
C1182 H1176 0.930 . S
C1182 C1183 1.367 . S
C1182 C1190 1.378 . S
C1183 C1182 1.367 . S
C1183 C1191 1.433 . S
C1184 H1180 0.929 . S
C1184 C1186 1.378 . S
C1184 C1188 1.350 . S
C1185 C1188 1.463 1_655 S
C1185 C1190 1.350 . S
C1185 N1193 1.427 . S
C1186 H1177 0.930 . S
C1186 C1184 1.378 . S
C1186 C1187 1.367 . S
C1187 C1186 1.367 . S
C1187 C1189 1.433 . S
C1188 C1184 1.350 . S
C1188 C1185 1.463 1_455 S
C1188 N1192 1.427 . S
C1189 H1179 0.929 . S
C1189 C1187 1.433 . S
C1189 N1192 1.384 . S
C1190 H1181 0.929 . S
C1190 C1182 1.378 . S
C1190 C1185 1.350 . S
C1191 H1178 0.929 . S
C1191 C1183 1.433 . S
C1191 N1193 1.384 . S
N1192 C1188 1.427 . S
N1192 C1189 1.384 . S
N1193 C1185 1.427 . S
N1193 C1191 1.384 . S
H1194 C1200 0.930 . S
H1195 C1204 0.930 . S
H1196 C1209 0.916 1_455 S
H1197 C1207 0.929 . S
H1198 C1202 0.929 . S
H1199 C1208 0.929 . S
C1200 H1194 0.930 . S
C1200 C1201 1.367 . S
C1200 C1208 1.378 . S
C1201 C1200 1.367 . S
C1201 C1209 1.445 . S
C1202 H1198 0.929 . S
C1202 C1204 1.378 . S
C1202 C1206 1.350 . S
C1203 C1206 1.463 . S
C1203 C1208 1.350 . S
C1203 N1211 1.427 . S
C1204 H1195 0.930 . S
C1204 C1202 1.378 . S
C1204 C1205 1.367 . S
C1205 C1204 1.367 . S
C1205 C1207 1.433 . S
C1206 C1202 1.350 . S
C1206 C1203 1.463 . S
C1206 N1210 1.427 . S
C1207 H1197 0.929 . S
C1207 C1205 1.433 . S
C1207 N1210 1.384 . S
C1208 H1199 0.929 . S
C1208 C1200 1.378 . S
C1208 C1203 1.350 . S
C1209 H1196 0.916 1_655 S
C1209 C1201 1.445 . S
C1209 N1211 1.387 . S
N1210 C1206 1.427 . S
N1210 C1207 1.384 . S
N1211 C1203 1.427 . S
N1211 C1209 1.387 . S
H1212 C1218 0.930 . S
H1213 C1222 0.930 . S
H1214 C1227 0.929 . S
H1215 C1225 0.929 . S
H1216 C1220 0.929 . S
H1217 C1226 0.929 . S
C1218 H1212 0.930 . S
C1218 C1219 1.367 . S
C1218 C1226 1.378 . S
C1219 C1218 1.367 . S
C1219 C1227 1.433 . S
C1220 H1216 0.929 . S
C1220 C1222 1.378 . S
C1220 C1224 1.350 . S
C1221 C1224 1.463 . S
C1221 C1226 1.350 . S
C1221 N1229 1.427 . S
C1222 H1213 0.930 . S
C1222 C1220 1.378 . S
C1222 C1223 1.367 . S
C1223 C1222 1.367 . S
C1223 C1225 1.433 . S
C1224 C1220 1.350 . S
C1224 C1221 1.463 . S
C1224 N1228 1.427 . S
C1225 H1215 0.929 . S
C1225 C1223 1.433 . S
C1225 N1228 1.384 . S
C1226 H1217 0.929 . S
C1226 C1218 1.378 . S
C1226 C1221 1.350 . S
C1227 H1214 0.929 . S
C1227 C1219 1.433 . S
C1227 N1229 1.384 . S
N1228 C1224 1.427 . S
N1228 C1225 1.384 . S
N1229 C1221 1.427 . S
N1229 C1227 1.384 . S
H1230 C1236 0.930 . S
H1231 C1240 0.930 . S
H1232 C1245 0.929 . S
H1233 C1243 0.929 . S
H1234 C1238 0.929 . S
H1235 C1244 0.929 . S
C1236 H1230 0.930 . S
C1236 C1237 1.367 . S
C1236 C1244 1.378 . S
C1237 C1236 1.367 . S
C1237 C1245 1.433 1_655 S
C1238 H1234 0.929 . S
C1238 C1240 1.378 . S
C1238 C1242 1.350 1_455 S
C1239 C1242 1.463 . S
C1239 C1244 1.350 . S
C1239 N1247 1.427 1_655 S
C1240 H1231 0.930 . S
C1240 C1238 1.378 . S
C1240 C1241 1.367 1_455 S
C1241 C1240 1.367 1_655 S
C1241 C1243 1.433 . S
C1242 C1238 1.350 1_655 S
C1242 C1239 1.463 . S
C1242 N1246 1.427 . S
C1243 H1233 0.929 . S
C1243 C1241 1.433 . S
C1243 N1246 1.384 . S
C1244 H1235 0.929 . S
C1244 C1236 1.378 . S
C1244 C1239 1.350 . S
C1245 H1232 0.929 . S
C1245 C1237 1.433 1_455 S
C1245 N1247 1.384 . S
N1246 C1242 1.427 . S
N1246 C1243 1.384 . S
N1247 C1239 1.427 1_455 S
N1247 C1245 1.384 . S
H1248 C1254 0.930 . S
H1249 C1258 0.930 . S
H1250 C1263 0.929 . S
H1251 C1261 0.929 . S
H1252 C1256 0.929 . S
H1253 C1262 0.929 . S
C1254 H1248 0.930 . S
C1254 C1255 1.367 . S
C1254 C1262 1.378 . S
C1255 C1254 1.367 . S
C1255 C1263 1.433 . S
C1256 H1252 0.929 . S
C1256 C1258 1.378 . S
C1256 C1260 1.350 . S
C1257 C1260 1.463 . S
C1257 C1262 1.350 . S
C1257 N1265 1.427 . S
C1258 H1249 0.930 . S
C1258 C1256 1.378 . S
C1258 C1259 1.367 . S
C1259 C1258 1.367 . S
C1259 C1261 1.433 . S
C1260 C1256 1.350 . S
C1260 C1257 1.463 . S
C1260 N1264 1.427 . S
C1261 H1251 0.929 . S
C1261 C1259 1.433 . S
C1261 N1264 1.384 . S
C1262 H1253 0.929 . S
C1262 C1254 1.378 . S
C1262 C1257 1.350 . S
C1263 H1250 0.929 . S
C1263 C1255 1.433 . S
C1263 N1265 1.384 . S
N1264 C1260 1.427 . S
N1264 C1261 1.384 . S
N1265 C1257 1.427 . S
N1265 C1263 1.384 . S
H1266 C1272 0.930 . S
H1267 C1276 0.930 . S
H1268 C1281 0.929 . S
H1269 C1279 0.929 . S
H1270 C1274 0.929 . S
H1271 C1280 0.929 . S
C1272 H1266 0.930 . S
C1272 C1273 1.367 . S
C1272 C1280 1.378 . S
C1273 C1272 1.367 . S
C1273 C1281 1.433 . S
C1274 H1270 0.929 . S
C1274 C1276 1.378 . S
C1274 C1278 1.350 . S
C1275 C1278 1.463 . S
C1275 C1280 1.350 . S
C1275 N1283 1.427 . S
C1276 H1267 0.930 . S
C1276 C1274 1.378 . S
C1276 C1277 1.367 . S
C1277 C1276 1.367 . S
C1277 C1279 1.433 . S
C1278 C1274 1.350 . S
C1278 C1275 1.463 . S
C1278 N1282 1.427 . S
C1279 H1269 0.929 . S
C1279 C1277 1.433 . S
C1279 N1282 1.384 . S
C1280 H1271 0.929 . S
C1280 C1272 1.378 . S
C1280 C1275 1.350 . S
C1281 H1268 0.929 . S
C1281 C1273 1.433 . S
C1281 N1283 1.384 . S
N1282 C1278 1.427 . S
N1282 C1279 1.384 . S
N1283 C1275 1.427 . S
N1283 C1281 1.384 . S
H1284 C1290 0.930 1_554 S
H1285 C1294 0.930 . S
H1286 C1299 0.929 . S
H1287 C1297 0.929 . S
H1288 C1292 0.929 . S
H1289 C1298 0.929 1_554 S
C1290 H1284 0.930 1_556 S
C1290 C1291 1.367 . S
C1290 C1298 1.378 . S
C1291 C1290 1.367 . S
C1291 C1299 1.433 . S
C1292 H1288 0.929 . S
C1292 C1294 1.378 . S
C1292 C1296 1.350 . S
C1293 C1296 1.463 . S
C1293 C1298 1.350 . S
C1293 N1301 1.427 . S
C1294 H1285 0.930 . S
C1294 C1292 1.378 . S
C1294 C1295 1.367 . S
C1295 C1294 1.367 . S
C1295 C1297 1.433 1_556 S
C1296 C1292 1.350 . S
C1296 C1293 1.463 . S
C1296 N1300 1.441 . S
C1297 H1287 0.929 . S
C1297 C1295 1.433 1_554 S
C1297 N1300 1.383 1_554 S
C1298 H1289 0.929 1_556 S
C1298 C1290 1.378 . S
C1298 C1293 1.350 . S
C1299 H1286 0.929 . S
C1299 C1291 1.433 . S
C1299 N1301 1.384 . S
N1300 C1296 1.441 . S
N1300 C1297 1.383 1_556 S
N1301 C1293 1.427 . S
N1301 C1299 1.384 . S
H1302 C1308 0.930 . S
H1303 C1312 0.930 . S
H1304 C1317 0.929 . S
H1305 C1315 0.929 . S
H1306 C1310 0.929 . S
H1307 C1316 0.929 . S
C1308 H1302 0.930 . S
C1308 C1309 1.367 . S
C1308 C1316 1.378 . S
C1309 C1308 1.367 . S
C1309 C1317 1.433 . S
C1310 H1306 0.929 . S
C1310 C1312 1.378 . S
C1310 C1314 1.350 . S
C1311 C1314 1.463 . S
C1311 C1316 1.350 . S
C1311 N1319 1.427 . S
C1312 H1303 0.930 . S
C1312 C1310 1.378 . S
C1312 C1313 1.367 . S
C1313 C1312 1.367 . S
C1313 C1315 1.433 . S
C1314 C1310 1.350 . S
C1314 C1311 1.463 . S
C1314 N1318 1.427 . S
C1315 H1305 0.929 . S
C1315 C1313 1.433 . S
C1315 N1318 1.384 . S
C1316 H1307 0.929 . S
C1316 C1308 1.378 . S
C1316 C1311 1.350 . S
C1317 H1304 0.929 . S
C1317 C1309 1.433 . S
C1317 N1319 1.384 . S
N1318 C1314 1.427 . S
N1318 C1315 1.384 . S
N1319 C1311 1.427 . S
N1319 C1317 1.384 . S
H1320 C1326 0.930 . S
H1321 C1330 0.930 1_545 S
H1322 C1335 0.929 1_545 S
H1323 C1333 0.929 . S
H1324 C1328 0.929 1_545 S
H1325 C1334 0.929 . S
C1326 H1320 0.930 . S
C1326 C1327 1.367 . S
C1326 C1334 1.378 . S
C1327 C1326 1.367 . S
C1327 C1335 1.433 . S
C1328 H1324 0.929 1_565 S
C1328 C1330 1.378 . S
C1328 C1332 1.350 . S
C1329 C1332 1.463 . S
C1329 C1334 1.350 . S
C1329 N1337 1.427 . S
C1330 H1321 0.930 1_565 S
C1330 C1328 1.378 . S
C1330 C1331 1.367 . S
C1331 C1330 1.367 . S
C1331 C1333 1.433 . S
C1332 C1328 1.350 . S
C1332 C1329 1.463 . S
C1332 N1336 1.427 . S
C1333 H1323 0.929 . S
C1333 C1331 1.433 . S
C1333 N1336 1.384 . S
C1334 H1325 0.929 . S
C1334 C1326 1.378 . S
C1334 C1329 1.350 . S
C1335 H1322 0.929 1_565 S
C1335 C1327 1.433 . S
C1335 N1337 1.384 . S
N1336 C1332 1.427 . S
N1336 C1333 1.384 . S
N1337 C1329 1.427 . S
N1337 C1335 1.384 . S
H1338 C1344 0.930 . S
H1339 C1348 0.926 1_545 S
H1340 C1353 0.929 . S
H1341 C1351 0.929 . S
H1342 C1346 0.929 . S
H1343 C1352 0.929 . S
C1344 H1338 0.930 . S
C1344 C1345 1.367 1_565 S
C1344 C1352 1.378 . S
C1345 C1344 1.367 1_545 S
C1345 C1353 1.433 . S
C1346 H1342 0.929 . S
C1346 C1348 1.375 1_545 S
C1346 C1350 1.350 1_545 S
C1347 C1350 1.461 1_546 S
C1347 C1352 1.348 1_545 S
C1347 N1355 1.431 . S
C1348 H1339 0.926 1_565 S
C1348 C1346 1.375 1_565 S
C1348 C1349 1.375 . S
C1349 C1348 1.375 . S
C1349 C1351 1.433 . S
C1350 C1346 1.350 1_565 S
C1350 C1347 1.461 1_564 S
C1350 N1354 1.427 . S
C1351 H1341 0.929 . S
C1351 C1349 1.433 . S
C1351 N1354 1.384 . S
C1352 H1343 0.929 . S
C1352 C1344 1.378 . S
C1352 C1347 1.348 1_565 S
C1353 H1340 0.929 . S
C1353 C1345 1.433 . S
C1353 N1355 1.384 . S
N1354 C1350 1.427 . S
N1354 C1351 1.384 . S
N1355 C1347 1.431 . S
N1355 C1353 1.384 . S
H1356 C1362 0.930 1_545 S
H1357 C1366 0.930 . S
H1358 C1371 0.929 . S
H1359 C1369 0.929 . S
H1360 C1364 0.929 . S
H1361 C1370 0.929 1_545 S
C1362 H1356 0.930 1_565 S
C1362 C1363 1.367 . S
C1362 C1370 1.378 . S
C1363 C1362 1.367 . S
C1363 C1371 1.433 . S
C1364 H1360 0.929 . S
C1364 C1366 1.378 . S
C1364 C1368 1.350 . S
C1365 C1368 1.463 . S
C1365 C1370 1.350 . S
C1365 N1373 1.427 . S
C1366 H1357 0.930 . S
C1366 C1364 1.378 . S
C1366 C1367 1.367 . S
C1367 C1366 1.367 . S
C1367 C1369 1.433 1_565 S
C1368 C1364 1.350 . S
C1368 C1365 1.463 . S
C1368 N1372 1.427 1_565 S
C1369 H1359 0.929 . S
C1369 C1367 1.433 1_545 S
C1369 N1372 1.384 . S
C1370 H1361 0.929 1_565 S
C1370 C1362 1.378 . S
C1370 C1365 1.350 . S
C1371 H1358 0.929 . S
C1371 C1363 1.433 . S
C1371 N1373 1.384 . S
N1372 C1368 1.427 1_545 S
N1372 C1369 1.384 . S
N1373 C1365 1.427 . S
N1373 C1371 1.384 . S
H1374 C1380 0.930 . S
H1375 C1384 0.930 . S
H1376 C1389 0.929 . S
H1377 C1387 0.929 . S
H1378 C1382 0.929 . S
H1379 C1388 0.929 . S
C1380 H1374 0.930 . S
C1380 C1381 1.367 . S
C1380 C1388 1.378 . S
C1381 C1380 1.367 . S
C1381 C1389 1.433 . S
C1382 H1378 0.929 . S
C1382 C1384 1.378 . S
C1382 C1386 1.350 . S
C1383 C1386 1.463 . S
C1383 C1388 1.350 . S
C1383 N1391 1.427 . S
C1384 H1375 0.930 . S
C1384 C1382 1.378 . S
C1384 C1385 1.367 . S
C1385 C1384 1.367 . S
C1385 C1387 1.433 . S
C1386 C1382 1.350 . S
C1386 C1383 1.463 . S
C1386 N1390 1.427 . S
C1387 H1377 0.929 . S
C1387 C1385 1.433 . S
C1387 N1390 1.384 . S
C1388 H1379 0.929 . S
C1388 C1380 1.378 . S
C1388 C1383 1.350 . S
C1389 H1376 0.929 . S
C1389 C1381 1.433 . S
C1389 N1391 1.384 . S
N1390 C1386 1.427 . S
N1390 C1387 1.384 . S
N1391 C1383 1.427 . S
N1391 C1389 1.384 . S
H1392 C1398 0.930 . S
H1393 C1402 0.930 . S
H1394 C1407 0.929 . S
H1395 C1405 0.929 . S
H1396 C1400 0.929 . S
H1397 C1406 0.929 1_455 S
C1398 H1392 0.930 . S
C1398 C1399 1.367 . S
C1398 C1406 1.378 . S
C1399 C1398 1.367 . S
C1399 C1407 1.433 1_556 S
C1400 H1396 0.929 . S
C1400 C1402 1.378 . S
C1400 C1404 1.350 1_554 S
C1401 C1404 1.463 . S
C1401 C1406 1.350 1_455 S
C1401 N1409 1.427 1_456 S
C1402 H1393 0.930 . S
C1402 C1400 1.378 . S
C1402 C1403 1.367 1_554 S
C1403 C1402 1.367 1_556 S
C1403 C1405 1.433 . S
C1404 C1400 1.350 1_556 S
C1404 C1401 1.463 . S
C1404 N1408 1.427 . S
C1405 H1395 0.929 . S
C1405 C1403 1.433 . S
C1405 N1408 1.384 . S
C1406 H1397 0.929 1_655 S
C1406 C1398 1.378 . S
C1406 C1401 1.350 1_655 S
C1407 H1394 0.929 . S
C1407 C1399 1.433 1_554 S
C1407 N1409 1.384 . S
N1408 C1404 1.427 . S
N1408 C1405 1.384 . S
N1409 C1401 1.427 1_654 S
N1409 C1407 1.384 . S
H1410 C1416 0.930 . S
H1411 C1420 0.930 . S
H1412 C1425 0.929 . S
H1413 C1423 0.929 . S
H1414 C1418 0.929 . S
H1415 C1424 0.929 . S
C1416 H1410 0.930 . S
C1416 C1417 1.367 . S
C1416 C1424 1.378 . S
C1417 C1416 1.367 . S
C1417 C1425 1.433 1_655 S
C1418 H1414 0.929 . S
C1418 C1420 1.378 . S
C1418 C1422 1.353 1_455 S
C1419 C1422 1.462 . S
C1419 C1424 1.350 . S
C1419 N1427 1.427 1_655 S
C1420 H1411 0.930 . S
C1420 C1418 1.378 . S
C1420 C1421 1.367 . S
C1421 C1420 1.367 . S
C1421 C1423 1.433 1_455 S
C1422 C1418 1.353 1_655 S
C1422 C1419 1.462 . S
C1422 N1426 1.425 . S
C1423 H1413 0.929 . S
C1423 C1421 1.433 1_655 S
C1423 N1426 1.384 . S
C1424 H1415 0.929 . S
C1424 C1416 1.378 . S
C1424 C1419 1.350 . S
C1425 H1412 0.929 . S
C1425 C1417 1.433 1_455 S
C1425 N1427 1.384 . S
N1426 C1422 1.425 . S
N1426 C1423 1.384 . S
N1427 C1419 1.427 1_455 S
N1427 C1425 1.384 . S
H1428 C1434 0.930 . S
H1429 C1438 0.930 . S
H1430 C1443 0.929 . S
H1431 C1441 0.929 . S
H1432 C1436 0.929 . S
H1433 C1442 0.929 . S
C1434 H1428 0.930 . S
C1434 C1435 1.367 . S
C1434 C1442 1.378 . S
C1435 C1434 1.367 . S
C1435 C1443 1.433 . S
C1436 H1432 0.929 . S
C1436 C1438 1.378 . S
C1436 C1440 1.350 . S
C1437 C1440 1.463 . S
C1437 C1442 1.350 . S
C1437 N1445 1.427 . S
C1438 H1429 0.930 . S
C1438 C1436 1.378 . S
C1438 C1439 1.367 . S
C1439 C1438 1.367 . S
C1439 C1441 1.433 . S
C1440 C1436 1.350 . S
C1440 C1437 1.463 . S
C1440 N1444 1.427 . S
C1441 H1431 0.929 . S
C1441 C1439 1.433 . S
C1441 N1444 1.384 . S
C1442 H1433 0.929 . S
C1442 C1434 1.378 . S
C1442 C1437 1.350 . S
C1443 H1430 0.929 . S
C1443 C1435 1.433 . S
C1443 N1445 1.384 . S
N1444 C1440 1.427 . S
N1444 C1441 1.384 . S
N1445 C1437 1.427 . S
N1445 C1443 1.384 . S
H1446 C1452 0.930 . S
H1447 C1456 0.930 . S
H1448 C1461 0.929 . S
H1449 C1459 0.929 . S
H1450 C1454 0.929 . S
H1451 C1460 0.929 . S
C1452 H1446 0.930 . S
C1452 C1453 1.367 . S
C1452 C1460 1.378 . S
C1453 C1452 1.367 . S
C1453 C1461 1.433 . S
C1454 H1450 0.929 . S
C1454 C1456 1.378 . S
C1454 C1458 1.350 . S
C1455 C1458 1.463 1_655 S
C1455 C1460 1.350 . S
C1455 N1463 1.427 . S
C1456 H1447 0.930 . S
C1456 C1454 1.378 . S
C1456 C1457 1.367 . S
C1457 C1456 1.367 . S
C1457 C1459 1.433 . S
C1458 C1454 1.350 . S
C1458 C1455 1.463 1_455 S
C1458 N1462 1.427 . S
C1459 H1449 0.929 . S
C1459 C1457 1.433 . S
C1459 N1462 1.384 . S
C1460 H1451 0.929 . S
C1460 C1452 1.378 . S
C1460 C1455 1.350 . S
C1461 H1448 0.929 . S
C1461 C1453 1.433 . S
C1461 N1463 1.384 . S
N1462 C1458 1.427 . S
N1462 C1459 1.384 . S
N1463 C1455 1.427 . S
N1463 C1461 1.384 . S
H1464 C1470 0.930 . S
H1465 C1474 0.930 . S
H1466 C1479 0.929 . S
H1467 C1477 0.929 . S
H1468 C1472 0.929 . S
H1469 C1478 0.929 . S
C1470 H1464 0.930 . S
C1470 C1471 1.367 . S
C1470 C1478 1.378 . S
C1471 C1470 1.367 . S
C1471 C1479 1.433 . S
C1472 H1468 0.929 . S
C1472 C1474 1.378 . S
C1472 C1476 1.350 . S
C1473 C1476 1.463 . S
C1473 C1478 1.350 . S
C1473 N1481 1.427 . S
C1474 H1465 0.930 . S
C1474 C1472 1.378 . S
C1474 C1475 1.367 . S
C1475 C1474 1.367 . S
C1475 C1477 1.433 . S
C1476 C1472 1.350 . S
C1476 C1473 1.463 . S
C1476 N1480 1.427 . S
C1477 H1467 0.929 . S
C1477 C1475 1.433 . S
C1477 N1480 1.384 . S
C1478 H1469 0.929 . S
C1478 C1470 1.378 . S
C1478 C1473 1.350 . S
C1479 H1466 0.929 . S
C1479 C1471 1.433 . S
C1479 N1481 1.384 . S
N1480 C1476 1.427 . S
N1480 C1477 1.384 . S
N1481 C1473 1.427 . S
N1481 C1479 1.384 . S
H1482 C1488 0.930 . S
H1483 C1492 0.930 . S
H1484 C1497 0.929 . S
H1485 C1495 0.929 . S
H1486 C1490 0.929 . S
H1487 C1496 0.929 . S
C1488 H1482 0.930 . S
C1488 C1489 1.367 . S
C1488 C1496 1.378 . S
C1489 C1488 1.367 . S
C1489 C1497 1.433 . S
C1490 H1486 0.929 . S
C1490 C1492 1.378 . S
C1490 C1494 1.350 . S
C1491 C1494 1.463 . S
C1491 C1496 1.350 . S
C1491 N1499 1.427 . S
C1492 H1483 0.930 . S
C1492 C1490 1.378 . S
C1492 C1493 1.367 . S
C1493 C1492 1.367 . S
C1493 C1495 1.433 . S
C1494 C1490 1.350 . S
C1494 C1491 1.463 . S
C1494 N1498 1.427 . S
C1495 H1485 0.929 . S
C1495 C1493 1.433 . S
C1495 N1498 1.384 . S
C1496 H1487 0.929 . S
C1496 C1488 1.378 . S
C1496 C1491 1.350 . S
C1497 H1484 0.929 . S
C1497 C1489 1.433 . S
C1497 N1499 1.384 . S
N1498 C1494 1.427 . S
N1498 C1495 1.384 . S
N1499 C1491 1.427 . S
N1499 C1497 1.384 . S
H1500 C1506 0.930 . S
H1501 C1510 0.930 . S
H1502 C1515 0.929 . S
H1503 C1513 0.929 . S
H1504 C1508 0.929 . S
H1505 C1514 0.929 . S
C1506 H1500 0.930 . S
C1506 C1507 1.367 . S
C1506 C1514 1.378 . S
C1507 C1506 1.367 . S
C1507 C1515 1.433 . S
C1508 H1504 0.929 . S
C1508 C1510 1.378 . S
C1508 C1512 1.350 . S
C1509 C1512 1.463 1_545 S
C1509 C1514 1.350 . S
C1509 N1517 1.427 . S
C1510 H1501 0.930 . S
C1510 C1508 1.378 . S
C1510 C1511 1.367 . S
C1511 C1510 1.367 . S
C1511 C1513 1.433 . S
C1512 C1508 1.350 . S
C1512 C1509 1.463 1_565 S
C1512 N1516 1.427 . S
C1513 H1503 0.929 . S
C1513 C1511 1.433 . S
C1513 N1516 1.384 . S
C1514 H1505 0.929 . S
C1514 C1506 1.378 . S
C1514 C1509 1.350 . S
C1515 H1502 0.929 . S
C1515 C1507 1.433 . S
C1515 N1517 1.384 . S
N1516 C1512 1.427 . S
N1516 C1513 1.384 . S
N1517 C1509 1.427 . S
N1517 C1515 1.384 . S
H1518 C1524 0.930 . S
H1519 C1528 0.930 1_556 S
H1520 C1533 0.929 1_556 S
H1521 C1531 0.929 . S
H1522 C1526 0.929 1_556 S
H1523 C1532 0.929 . S
C1524 H1518 0.930 . S
C1524 C1525 1.367 . S
C1524 C1532 1.378 . S
C1525 C1524 1.367 . S
C1525 C1533 1.433 . S
C1526 H1522 0.929 1_554 S
C1526 C1528 1.378 . S
C1526 C1530 1.350 . S
C1527 C1530 1.463 . S
C1527 C1532 1.350 . S
C1527 N1535 1.427 . S
C1528 H1519 0.930 1_554 S
C1528 C1526 1.378 . S
C1528 C1529 1.367 . S
C1529 C1528 1.367 . S
C1529 C1531 1.433 . S
C1530 C1526 1.350 . S
C1530 C1527 1.463 . S
C1530 N1534 1.427 . S
C1531 H1521 0.929 . S
C1531 C1529 1.433 . S
C1531 N1534 1.384 . S
C1532 H1523 0.929 . S
C1532 C1524 1.378 . S
C1532 C1527 1.350 . S
C1533 H1520 0.929 1_554 S
C1533 C1525 1.433 . S
C1533 N1535 1.384 . S
N1534 C1530 1.427 . S
N1534 C1531 1.384 . S
N1535 C1527 1.427 . S
N1535 C1533 1.384 . S
H1536 C1542 0.930 . S
H1537 C1546 0.930 . S
H1538 C1551 0.929 . S
H1539 C1549 0.929 . S
H1540 C1544 0.929 . S
H1541 C1550 0.910 1_565 S
C1542 H1536 0.930 . S
C1542 C1543 1.367 . S
C1542 C1550 1.378 . S
C1543 C1542 1.367 . S
C1543 C1551 1.433 . S
C1544 H1540 0.929 . S
C1544 C1546 1.378 . S
C1544 C1548 1.350 . S
C1545 C1548 1.463 . S
C1545 C1550 1.350 1_565 S
C1545 N1553 1.427 1_565 S
C1546 H1537 0.930 . S
C1546 C1544 1.378 . S
C1546 C1547 1.367 . S
C1547 C1546 1.367 . S
C1547 C1549 1.433 . S
C1548 C1544 1.350 . S
C1548 C1545 1.463 . S
C1548 N1552 1.427 . S
C1549 H1539 0.929 . S
C1549 C1547 1.433 . S
C1549 N1552 1.384 . S
C1550 H1541 0.910 1_545 S
C1550 C1542 1.378 . S
C1550 C1545 1.350 1_545 S
C1551 H1538 0.929 . S
C1551 C1543 1.433 . S
C1551 N1553 1.384 . S
N1552 C1548 1.427 . S
N1552 C1549 1.384 . S
N1553 C1545 1.427 1_545 S
N1553 C1551 1.384 . S
H1554 C1560 0.930 . S
H1555 C1564 0.930 . S
H1556 C1569 0.929 . S
H1557 C1567 0.929 . S
H1558 C1562 0.929 . S
H1559 C1568 0.929 . S
C1560 H1554 0.930 . S
C1560 C1561 1.367 . S
C1560 C1568 1.378 . S
C1561 C1560 1.367 . S
C1561 C1569 1.433 . S
C1562 H1558 0.929 . S
C1562 C1564 1.378 . S
C1562 C1566 1.350 . S
C1563 C1566 1.463 . S
C1563 C1568 1.350 . S
C1563 N1571 1.427 . S
C1564 H1555 0.930 . S
C1564 C1562 1.378 . S
C1564 C1565 1.367 . S
C1565 C1564 1.367 . S
C1565 C1567 1.433 . S
C1566 C1562 1.350 . S
C1566 C1563 1.463 . S
C1566 N1570 1.427 . S
C1567 H1557 0.929 . S
C1567 C1565 1.433 . S
C1567 N1570 1.384 . S
C1568 H1559 0.929 . S
C1568 C1560 1.378 . S
C1568 C1563 1.350 . S
C1569 H1556 0.929 . S
C1569 C1561 1.433 . S
C1569 N1571 1.384 . S
N1570 C1566 1.427 . S
N1570 C1567 1.384 . S
N1571 C1563 1.427 . S
N1571 C1569 1.384 . S
H1572 C1578 0.930 . S
H1573 C1582 0.930 . S
H1574 C1587 0.929 . S
H1575 C1585 0.929 . S
H1576 C1580 0.937 . S
H1577 C1586 0.929 . S
C1578 H1572 0.930 . S
C1578 C1579 1.367 . S
C1578 C1586 1.378 . S
C1579 C1578 1.367 . S
C1579 C1587 1.433 . S
C1580 H1576 0.937 . S
C1580 C1582 1.378 . S
C1580 C1584 1.350 1_554 S
C1581 C1584 1.463 . S
C1581 C1586 1.350 . S
C1581 N1589 1.427 . S
C1582 H1573 0.930 . S
C1582 C1580 1.378 . S
C1582 C1583 1.367 . S
C1583 C1582 1.367 . S
C1583 C1585 1.433 . S
C1584 C1580 1.350 1_556 S
C1584 C1581 1.463 . S
C1584 N1588 1.427 1_556 S
C1585 H1575 0.929 . S
C1585 C1583 1.433 . S
C1585 N1588 1.384 . S
C1586 H1577 0.929 . S
C1586 C1578 1.378 . S
C1586 C1581 1.350 . S
C1587 H1574 0.929 . S
C1587 C1579 1.433 . S
C1587 N1589 1.384 . S
N1588 C1584 1.427 1_554 S
N1588 C1585 1.384 . S
N1589 C1581 1.427 . S
N1589 C1587 1.384 . S
H1590 C1596 0.930 . S
H1591 C1600 0.930 . S
H1592 C1605 0.929 . S
H1593 C1603 0.929 . S
H1594 C1598 0.929 . S
H1595 C1604 0.929 . S
C1596 H1590 0.930 . S
C1596 C1597 1.367 . S
C1596 C1604 1.378 . S
C1597 C1596 1.367 . S
C1597 C1605 1.433 . S
C1598 H1594 0.929 . S
C1598 C1600 1.378 . S
C1598 C1602 1.350 . S
C1599 C1602 1.463 . S
C1599 C1604 1.350 . S
C1599 N1607 1.427 . S
C1600 H1591 0.930 . S
C1600 C1598 1.378 . S
C1600 C1601 1.367 . S
C1601 C1600 1.367 . S
C1601 C1603 1.433 . S
C1602 C1598 1.350 . S
C1602 C1599 1.463 . S
C1602 N1606 1.427 . S
C1603 H1593 0.929 . S
C1603 C1601 1.433 . S
C1603 N1606 1.384 . S
C1604 H1595 0.929 . S
C1604 C1596 1.378 . S
C1604 C1599 1.350 . S
C1605 H1592 0.929 . S
C1605 C1597 1.433 . S
C1605 N1607 1.384 . S
N1606 C1602 1.427 . S
N1606 C1603 1.384 . S
N1607 C1599 1.427 . S
N1607 C1605 1.384 . S
H1608 C1614 0.930 . S
H1609 C1618 0.930 . S
H1610 C1623 0.929 . S
H1611 C1621 0.929 . S
H1612 C1616 0.929 . S
H1613 C1622 0.929 . S
C1614 H1608 0.930 . S
C1614 C1615 1.367 . S
C1614 C1622 1.378 . S
C1615 C1614 1.367 . S
C1615 C1623 1.433 . S
C1616 H1612 0.929 . S
C1616 C1618 1.378 . S
C1616 C1620 1.350 . S
C1617 C1620 1.463 . S
C1617 C1622 1.350 . S
C1617 N1625 1.427 . S
C1618 H1609 0.930 . S
C1618 C1616 1.378 . S
C1618 C1619 1.367 . S
C1619 C1618 1.367 . S
C1619 C1621 1.433 . S
C1620 C1616 1.350 . S
C1620 C1617 1.463 . S
C1620 N1624 1.427 . S
C1621 H1611 0.929 . S
C1621 C1619 1.433 . S
C1621 N1624 1.384 . S
C1622 H1613 0.929 . S
C1622 C1614 1.378 . S
C1622 C1617 1.350 . S
C1623 H1610 0.929 . S
C1623 C1615 1.433 . S
C1623 N1625 1.384 . S
N1624 C1620 1.427 . S
N1624 C1621 1.384 . S
N1625 C1617 1.427 . S
N1625 C1623 1.384 . S
H1626 C1632 0.930 . S
H1627 C1636 0.930 . S
H1628 C1641 0.929 . S
H1629 C1639 0.929 . S
H1630 C1634 0.929 . S
H1631 C1640 0.929 . S
C1632 H1626 0.930 . S
C1632 C1633 1.367 . S
C1632 C1640 1.378 . S
C1633 C1632 1.367 . S
C1633 C1641 1.433 . S
C1634 H1630 0.929 . S
C1634 C1636 1.378 . S
C1634 C1638 1.350 . S
C1635 C1638 1.463 . S
C1635 C1640 1.350 . S
C1635 N1643 1.427 . S
C1636 H1627 0.930 . S
C1636 C1634 1.378 . S
C1636 C1637 1.367 . S
C1637 C1636 1.367 . S
C1637 C1639 1.433 . S
C1638 C1634 1.350 . S
C1638 C1635 1.463 . S
C1638 N1642 1.427 . S
C1639 H1629 0.929 . S
C1639 C1637 1.433 . S
C1639 N1642 1.384 . S
C1640 H1631 0.929 . S
C1640 C1632 1.378 . S
C1640 C1635 1.350 . S
C1641 H1628 0.929 . S
C1641 C1633 1.433 . S
C1641 N1643 1.384 . S
N1642 C1638 1.427 . S
N1642 C1639 1.384 . S
N1643 C1635 1.427 . S
N1643 C1641 1.384 . S
H1644 C1650 0.930 . S
H1645 C1654 0.930 . S
H1646 C1659 0.929 . S
H1647 C1657 0.929 . S
H1648 C1652 0.929 . S
H1649 C1658 0.929 . S
C1650 H1644 0.930 . S
C1650 C1651 1.367 . S
C1650 C1658 1.378 . S
C1651 C1650 1.367 . S
C1651 C1659 1.433 . S
C1652 H1648 0.929 . S
C1652 C1654 1.378 . S
C1652 C1656 1.350 . S
C1653 C1656 1.463 . S
C1653 C1658 1.350 . S
C1653 N1661 1.427 . S
C1654 H1645 0.930 . S
C1654 C1652 1.378 . S
C1654 C1655 1.367 . S
C1655 C1654 1.367 . S
C1655 C1657 1.433 . S
C1656 C1652 1.350 . S
C1656 C1653 1.463 . S
C1656 N1660 1.427 . S
C1657 H1647 0.929 . S
C1657 C1655 1.433 . S
C1657 N1660 1.384 . S
C1658 H1649 0.929 . S
C1658 C1650 1.378 . S
C1658 C1653 1.350 . S
C1659 H1646 0.929 . S
C1659 C1651 1.433 . S
C1659 N1661 1.384 . S
N1660 C1656 1.427 . S
N1660 C1657 1.384 . S
N1661 C1653 1.427 . S
N1661 C1659 1.384 . S
H1662 C1668 0.930 . S
H1663 C1672 0.930 . S
H1664 C1677 0.929 . S
H1665 C1675 0.929 . S
H1666 C1670 0.929 . S
H1667 C1676 0.929 . S
C1668 H1662 0.930 . S
C1668 C1669 1.367 . S
C1668 C1676 1.378 . S
C1669 C1668 1.367 . S
C1669 C1677 1.433 . S
C1670 H1666 0.929 . S
C1670 C1672 1.378 . S
C1670 C1674 1.350 . S
C1671 C1674 1.463 1_565 S
C1671 C1676 1.350 . S
C1671 N1679 1.427 . S
C1672 H1663 0.930 . S
C1672 C1670 1.378 . S
C1672 C1673 1.367 . S
C1673 C1672 1.367 . S
C1673 C1675 1.433 . S
C1674 C1670 1.350 . S
C1674 C1671 1.463 1_545 S
C1674 N1678 1.427 . S
C1675 H1665 0.929 . S
C1675 C1673 1.433 . S
C1675 N1678 1.384 . S
C1676 H1667 0.929 . S
C1676 C1668 1.378 . S
C1676 C1671 1.350 . S
C1677 H1664 0.929 . S
C1677 C1669 1.433 . S
C1677 N1679 1.384 . S
N1678 C1674 1.427 . S
N1678 C1675 1.384 . S
N1679 C1671 1.427 . S
N1679 C1677 1.384 . S
H1680 C1686 0.930 . S
H1681 C1690 0.930 . S
H1682 C1695 0.929 . S
H1683 C1693 0.929 . S
H1684 C1688 0.929 . S
H1685 C1694 0.929 . S
C1686 H1680 0.930 . S
C1686 C1687 1.367 . S
C1686 C1694 1.378 . S
C1687 C1686 1.367 . S
C1687 C1695 1.433 . S
C1688 H1684 0.929 . S
C1688 C1690 1.378 . S
C1688 C1692 1.350 . S
C1689 C1692 1.463 . S
C1689 C1694 1.350 . S
C1689 N1697 1.427 . S
C1690 H1681 0.930 . S
C1690 C1688 1.378 . S
C1690 C1691 1.367 . S
C1691 C1690 1.367 . S
C1691 C1693 1.433 . S
C1692 C1688 1.350 . S
C1692 C1689 1.463 . S
C1692 N1696 1.427 . S
C1693 H1683 0.929 . S
C1693 C1691 1.433 . S
C1693 N1696 1.384 . S
C1694 H1685 0.929 . S
C1694 C1686 1.378 . S
C1694 C1689 1.350 . S
C1695 H1682 0.929 . S
C1695 C1687 1.433 . S
C1695 N1697 1.384 . S
N1696 C1692 1.427 . S
N1696 C1693 1.384 . S
N1697 C1689 1.427 . S
N1697 C1695 1.384 . S
H1698 C1704 0.930 . S
H1699 C1708 0.930 . S
H1700 C1713 0.929 . S
H1701 C1711 0.929 . S
H1702 C1706 0.905 1_545 S
H1703 C1712 0.929 . S
C1704 H1698 0.930 . S
C1704 C1705 1.367 1_655 S
C1704 C1712 1.378 . S
C1705 C1704 1.367 1_455 S
C1705 C1713 1.433 . S
C1706 H1702 0.905 1_565 S
C1706 C1708 1.378 . S
C1706 C1710 1.350 1_565 S
C1707 C1710 1.463 . S
C1707 C1712 1.350 1_455 S
C1707 N1715 1.427 . S
C1708 H1699 0.930 . S
C1708 C1706 1.378 . S
C1708 C1709 1.367 . S
C1709 C1708 1.367 . S
C1709 C1711 1.433 1_455 S
C1710 C1706 1.350 1_545 S
C1710 C1707 1.463 . S
C1710 N1714 1.427 1_445 S
C1711 H1701 0.929 . S
C1711 C1709 1.433 1_655 S
C1711 N1714 1.384 . S
C1712 H1703 0.929 . S
C1712 C1704 1.378 . S
C1712 C1707 1.350 1_655 S
C1713 H1700 0.929 . S
C1713 C1705 1.433 . S
C1713 N1715 1.384 . S
N1714 C1710 1.427 1_665 S
N1714 C1711 1.384 . S
N1715 C1707 1.427 . S
N1715 C1713 1.384 . S
H1716 C1722 0.930 . S
H1717 C1726 0.930 . S
H1718 C1731 0.929 . S
H1719 C1729 0.929 . S
H1720 C1724 0.929 . S
H1721 C1730 0.929 . S
C1722 H1716 0.930 . S
C1722 C1723 1.367 . S
C1722 C1730 1.378 . S
C1723 C1722 1.367 . S
C1723 C1731 1.433 . S
C1724 H1720 0.929 . S
C1724 C1726 1.378 . S
C1724 C1728 1.350 . S
C1725 C1728 1.463 . S
C1725 C1730 1.350 . S
C1725 N1733 1.427 . S
C1726 H1717 0.930 . S
C1726 C1724 1.378 . S
C1726 C1727 1.367 . S
C1727 C1726 1.367 . S
C1727 C1729 1.433 . S
C1728 C1724 1.350 . S
C1728 C1725 1.463 . S
C1728 N1732 1.427 . S
C1729 H1719 0.929 . S
C1729 C1727 1.433 . S
C1729 N1732 1.384 . S
C1730 H1721 0.929 . S
C1730 C1722 1.378 . S
C1730 C1725 1.350 . S
C1731 H1718 0.929 . S
C1731 C1723 1.433 . S
C1731 N1733 1.384 . S
N1732 C1728 1.427 . S
N1732 C1729 1.384 . S
N1733 C1725 1.427 . S
N1733 C1731 1.384 . S
H1734 C1740 0.930 . S
H1735 C1744 0.930 . S
H1736 C1749 0.929 . S
H1737 C1747 0.929 . S
H1738 C1742 0.955 . S
H1739 C1748 0.929 . S
C1740 H1734 0.930 . S
C1740 C1741 1.367 . S
C1740 C1748 1.378 . S
C1741 C1740 1.367 . S
C1741 C1749 1.433 . S
C1742 H1738 0.955 . S
C1742 C1744 1.378 . S
C1742 C1746 1.350 1_556 S
C1743 C1746 1.463 . S
C1743 C1748 1.350 . S
C1743 N1751 1.427 . S
C1744 H1735 0.930 . S
C1744 C1742 1.378 . S
C1744 C1745 1.367 . S
C1745 C1744 1.367 . S
C1745 C1747 1.433 . S
C1746 C1742 1.350 1_554 S
C1746 C1743 1.463 . S
C1746 N1750 1.427 1_554 S
C1747 H1737 0.929 . S
C1747 C1745 1.433 . S
C1747 N1750 1.384 . S
C1748 H1739 0.929 . S
C1748 C1740 1.378 . S
C1748 C1743 1.350 . S
C1749 H1736 0.929 . S
C1749 C1741 1.433 . S
C1749 N1751 1.384 . S
N1750 C1746 1.427 1_556 S
N1750 C1747 1.384 . S
N1751 C1743 1.427 . S
N1751 C1749 1.384 . S
H1752 C1758 0.930 . S
H1753 C1762 0.930 . S
H1754 C1767 0.929 . S
H1755 C1765 0.929 . S
H1756 C1760 0.929 . S
H1757 C1766 0.929 . S
C1758 H1752 0.930 . S
C1758 C1759 1.367 . S
C1758 C1766 1.378 . S
C1759 C1758 1.367 . S
C1759 C1767 1.433 . S
C1760 H1756 0.929 . S
C1760 C1762 1.378 . S
C1760 C1764 1.350 . S
C1761 C1764 1.463 . S
C1761 C1766 1.350 . S
C1761 N1769 1.427 . S
C1762 H1753 0.930 . S
C1762 C1760 1.378 . S
C1762 C1763 1.367 . S
C1763 C1762 1.367 . S
C1763 C1765 1.433 . S
C1764 C1760 1.350 . S
C1764 C1761 1.463 . S
C1764 N1768 1.427 . S
C1765 H1755 0.929 . S
C1765 C1763 1.433 . S
C1765 N1768 1.384 . S
C1766 H1757 0.929 . S
C1766 C1758 1.378 . S
C1766 C1761 1.350 . S
C1767 H1754 0.929 . S
C1767 C1759 1.433 . S
C1767 N1769 1.384 . S
N1768 C1764 1.427 . S
N1768 C1765 1.384 . S
N1769 C1761 1.427 . S
N1769 C1767 1.384 . S
H1770 C1776 0.930 . S
H1771 C1780 0.930 . S
H1772 C1785 0.929 . S
H1773 C1783 0.929 . S
H1774 C1778 0.929 . S
H1775 C1784 0.929 . S
C1776 H1770 0.930 . S
C1776 C1777 1.367 . S
C1776 C1784 1.378 . S
C1777 C1776 1.367 . S
C1777 C1785 1.433 . S
C1778 H1774 0.929 . S
C1778 C1780 1.378 . S
C1778 C1782 1.350 . S
C1779 C1782 1.463 . S
C1779 C1784 1.350 . S
C1779 N1787 1.427 . S
C1780 H1771 0.930 . S
C1780 C1778 1.378 . S
C1780 C1781 1.367 . S
C1781 C1780 1.367 . S
C1781 C1783 1.433 . S
C1782 C1778 1.350 . S
C1782 C1779 1.463 . S
C1782 N1786 1.427 . S
C1783 H1773 0.929 . S
C1783 C1781 1.433 . S
C1783 N1786 1.384 . S
C1784 H1775 0.929 . S
C1784 C1776 1.378 . S
C1784 C1779 1.350 . S
C1785 H1772 0.929 . S
C1785 C1777 1.433 . S
C1785 N1787 1.384 . S
N1786 C1782 1.427 . S
N1786 C1783 1.384 . S
N1787 C1779 1.427 . S
N1787 C1785 1.384 . S
H1788 C1794 0.930 . S
H1789 C1798 0.930 . S
H1790 C1803 0.929 . S
H1791 C1801 0.929 . S
H1792 C1796 0.929 . S
H1793 C1802 0.929 . S
C1794 H1788 0.930 . S
C1794 C1795 1.367 . S
C1794 C1802 1.378 . S
C1795 C1794 1.367 . S
C1795 C1803 1.433 . S
C1796 H1792 0.929 . S
C1796 C1798 1.378 . S
C1796 C1800 1.350 . S
C1797 C1800 1.463 . S
C1797 C1802 1.350 . S
C1797 N1805 1.427 . S
C1798 H1789 0.930 . S
C1798 C1796 1.378 . S
C1798 C1799 1.367 . S
C1799 C1798 1.367 . S
C1799 C1801 1.433 . S
C1800 C1796 1.350 . S
C1800 C1797 1.463 . S
C1800 N1804 1.427 . S
C1801 H1791 0.929 . S
C1801 C1799 1.433 . S
C1801 N1804 1.384 . S
C1802 H1793 0.929 . S
C1802 C1794 1.378 . S
C1802 C1797 1.350 . S
C1803 H1790 0.929 . S
C1803 C1795 1.433 . S
C1803 N1805 1.384 . S
N1804 C1800 1.427 . S
N1804 C1801 1.384 . S
N1805 C1797 1.427 . S
N1805 C1803 1.384 . S
H1806 C1812 0.930 . S
H1807 C1816 0.930 . S
H1808 C1821 0.929 . S
H1809 C1819 0.929 . S
H1810 C1814 0.929 . S
H1811 C1820 0.929 . S
C1812 H1806 0.930 . S
C1812 C1813 1.367 . S
C1812 C1820 1.378 . S
C1813 C1812 1.367 . S
C1813 C1821 1.433 . S
C1814 H1810 0.929 . S
C1814 C1816 1.378 . S
C1814 C1818 1.350 . S
C1815 C1818 1.463 . S
C1815 C1820 1.350 . S
C1815 N1823 1.427 . S
C1816 H1807 0.930 . S
C1816 C1814 1.378 . S
C1816 C1817 1.367 . S
C1817 C1816 1.367 . S
C1817 C1819 1.433 . S
C1818 C1814 1.350 . S
C1818 C1815 1.463 . S
C1818 N1822 1.427 . S
C1819 H1809 0.929 . S
C1819 C1817 1.433 . S
C1819 N1822 1.384 . S
C1820 H1811 0.929 . S
C1820 C1812 1.378 . S
C1820 C1815 1.350 . S
C1821 H1808 0.929 . S
C1821 C1813 1.433 . S
C1821 N1823 1.384 . S
N1822 C1818 1.427 . S
N1822 C1819 1.384 . S
N1823 C1815 1.427 . S
N1823 C1821 1.384 . S
H1824 C1830 0.930 . S
H1825 C1834 0.930 . S
H1826 C1839 0.929 . S
H1827 C1837 0.929 . S
H1828 C1832 0.929 . S
H1829 C1838 0.929 . S
C1830 H1824 0.930 . S
C1830 C1831 1.367 . S
C1830 C1838 1.378 . S
C1831 C1830 1.367 . S
C1831 C1839 1.433 . S
C1832 H1828 0.929 . S
C1832 C1834 1.378 . S
C1832 C1836 1.350 . S
C1833 C1836 1.463 . S
C1833 C1838 1.350 . S
C1833 N1841 1.427 . S
C1834 H1825 0.930 . S
C1834 C1832 1.378 . S
C1834 C1835 1.367 . S
C1835 C1834 1.367 . S
C1835 C1837 1.433 . S
C1836 C1832 1.350 . S
C1836 C1833 1.463 . S
C1836 N1840 1.427 . S
C1837 H1827 0.929 . S
C1837 C1835 1.433 . S
C1837 N1840 1.384 . S
C1838 H1829 0.929 . S
C1838 C1830 1.378 . S
C1838 C1833 1.350 . S
C1839 H1826 0.929 . S
C1839 C1831 1.433 . S
C1839 N1841 1.384 . S
N1840 C1836 1.427 . S
N1840 C1837 1.384 . S
N1841 C1833 1.427 . S
N1841 C1839 1.384 . S
H1842 C1848 0.930 . S
H1843 C1852 0.930 . S
H1844 C1857 0.929 . S
H1845 C1855 0.929 . S
H1846 C1850 0.929 . S
H1847 C1856 0.929 . S
C1848 H1842 0.930 . S
C1848 C1849 1.367 . S
C1848 C1856 1.378 . S
C1849 C1848 1.367 . S
C1849 C1857 1.433 . S
C1850 H1846 0.929 . S
C1850 C1852 1.378 . S
C1850 C1854 1.350 . S
C1851 C1854 1.463 . S
C1851 C1856 1.350 . S
C1851 N1859 1.427 . S
C1852 H1843 0.930 . S
C1852 C1850 1.378 . S
C1852 C1853 1.367 . S
C1853 C1852 1.367 . S
C1853 C1855 1.433 . S
C1854 C1850 1.350 . S
C1854 C1851 1.463 . S
C1854 N1858 1.427 . S
C1855 H1845 0.929 . S
C1855 C1853 1.433 . S
C1855 N1858 1.384 . S
C1856 H1847 0.929 . S
C1856 C1848 1.378 . S
C1856 C1851 1.350 . S
C1857 H1844 0.929 . S
C1857 C1849 1.433 . S
C1857 N1859 1.384 . S
N1858 C1854 1.427 . S
N1858 C1855 1.384 . S
N1859 C1851 1.427 . S
N1859 C1857 1.384 . S
H1860 C1866 0.930 . S
H1861 C1870 0.930 . S
H1862 C1875 0.929 . S
H1863 C1873 0.929 . S
H1864 C1868 0.929 . S
H1865 C1874 0.929 . S
C1866 H1860 0.930 . S
C1866 C1867 1.367 . S
C1866 C1874 1.378 . S
C1867 C1866 1.367 . S
C1867 C1875 1.433 . S
C1868 H1864 0.929 . S
C1868 C1870 1.378 . S
C1868 C1872 1.350 . S
C1869 C1872 1.463 . S
C1869 C1874 1.350 . S
C1869 N1877 1.427 . S
C1870 H1861 0.930 . S
C1870 C1868 1.378 . S
C1870 C1871 1.367 . S
C1871 C1870 1.367 . S
C1871 C1873 1.433 . S
C1872 C1868 1.350 . S
C1872 C1869 1.463 . S
C1872 N1876 1.427 . S
C1873 H1863 0.929 . S
C1873 C1871 1.433 . S
C1873 N1876 1.384 . S
C1874 H1865 0.929 . S
C1874 C1866 1.378 . S
C1874 C1869 1.350 . S
C1875 H1862 0.929 . S
C1875 C1867 1.433 . S
C1875 N1877 1.384 . S
N1876 C1872 1.427 . S
N1876 C1873 1.384 . S
N1877 C1869 1.427 . S
N1877 C1875 1.384 . S
H1878 C1884 0.930 . S
H1879 C1888 0.930 . S
H1880 C1893 0.929 . S
H1881 C1891 0.929 . S
H1882 C1886 0.929 . S
H1883 C1892 0.929 . S
C1884 H1878 0.930 . S
C1884 C1885 1.367 . S
C1884 C1892 1.378 . S
C1885 C1884 1.367 . S
C1885 C1893 1.433 . S
C1886 H1882 0.929 . S
C1886 C1888 1.378 . S
C1886 C1890 1.350 . S
C1887 C1890 1.463 . S
C1887 C1892 1.350 . S
C1887 N1895 1.427 . S
C1888 H1879 0.930 . S
C1888 C1886 1.378 . S
C1888 C1889 1.367 . S
C1889 C1888 1.367 . S
C1889 C1891 1.433 . S
C1890 C1886 1.350 . S
C1890 C1887 1.463 . S
C1890 N1894 1.427 . S
C1891 H1881 0.929 . S
C1891 C1889 1.433 . S
C1891 N1894 1.384 . S
C1892 H1883 0.929 . S
C1892 C1884 1.378 . S
C1892 C1887 1.350 . S
C1893 H1880 0.929 . S
C1893 C1885 1.433 . S
C1893 N1895 1.384 . S
N1894 C1890 1.427 . S
N1894 C1891 1.384 . S
N1895 C1887 1.427 . S
N1895 C1893 1.384 . S
H1896 C1902 0.930 . S
H1897 C1906 0.930 . S
H1898 C1911 0.929 . S
H1899 C1909 0.929 . S
H1900 C1904 0.929 . S
H1901 C1910 0.929 . S
C1902 H1896 0.930 . S
C1902 C1903 1.367 . S
C1902 C1910 1.378 . S
C1903 C1902 1.367 . S
C1903 C1911 1.433 . S
C1904 H1900 0.929 . S
C1904 C1906 1.378 . S
C1904 C1908 1.350 . S
C1905 C1908 1.463 . S
C1905 C1910 1.350 . S
C1905 N1913 1.427 . S
C1906 H1897 0.930 . S
C1906 C1904 1.378 . S
C1906 C1907 1.367 . S
C1907 C1906 1.367 . S
C1907 C1909 1.433 . S
C1908 C1904 1.350 . S
C1908 C1905 1.463 . S
C1908 N1912 1.427 . S
C1909 H1899 0.929 . S
C1909 C1907 1.433 . S
C1909 N1912 1.384 . S
C1910 H1901 0.929 . S
C1910 C1902 1.378 . S
C1910 C1905 1.350 . S
C1911 H1898 0.929 . S
C1911 C1903 1.433 . S
C1911 N1913 1.384 . S
N1912 C1908 1.427 . S
N1912 C1909 1.384 . S
N1913 C1905 1.427 . S
N1913 C1911 1.384 . S
H1914 C1920 0.930 . S
H1915 C1924 0.930 . S
H1916 C1929 0.929 . S
H1917 C1927 0.929 . S
H1918 C1922 0.929 . S
H1919 C1928 0.929 . S
C1920 H1914 0.930 . S
C1920 C1921 1.367 . S
C1920 C1928 1.378 . S
C1921 C1920 1.367 . S
C1921 C1929 1.433 . S
C1922 H1918 0.929 . S
C1922 C1924 1.378 . S
C1922 C1926 1.350 . S
C1923 C1926 1.463 . S
C1923 C1928 1.350 . S
C1923 N1931 1.427 . S
C1924 H1915 0.930 . S
C1924 C1922 1.378 . S
C1924 C1925 1.367 . S
C1925 C1924 1.367 . S
C1925 C1927 1.433 . S
C1926 C1922 1.350 . S
C1926 C1923 1.463 . S
C1926 N1930 1.427 . S
C1927 H1917 0.929 . S
C1927 C1925 1.433 . S
C1927 N1930 1.384 . S
C1928 H1919 0.929 . S
C1928 C1920 1.378 . S
C1928 C1923 1.350 . S
C1929 H1916 0.929 . S
C1929 C1921 1.433 . S
C1929 N1931 1.384 . S
N1930 C1926 1.427 . S
N1930 C1927 1.384 . S
N1931 C1923 1.427 . S
N1931 C1929 1.384 . S
H1932 C1938 0.930 . S
H1933 C1942 0.930 . S
H1934 C1947 0.929 . S
H1935 C1945 0.929 . S
H1936 C1940 0.929 . S
H1937 C1946 0.929 . S
C1938 H1932 0.930 . S
C1938 C1939 1.367 . S
C1938 C1946 1.378 . S
C1939 C1938 1.367 . S
C1939 C1947 1.433 . S
C1940 H1936 0.929 . S
C1940 C1942 1.378 . S
C1940 C1944 1.350 . S
C1941 C1944 1.463 . S
C1941 C1946 1.350 . S
C1941 N1949 1.427 . S
C1942 H1933 0.930 . S
C1942 C1940 1.378 . S
C1942 C1943 1.367 . S
C1943 C1942 1.367 . S
C1943 C1945 1.433 . S
C1944 C1940 1.350 . S
C1944 C1941 1.463 . S
C1944 N1948 1.427 . S
C1945 H1935 0.929 . S
C1945 C1943 1.433 . S
C1945 N1948 1.384 . S
C1946 H1937 0.929 . S
C1946 C1938 1.378 . S
C1946 C1941 1.350 . S
C1947 H1934 0.929 . S
C1947 C1939 1.433 . S
C1947 N1949 1.384 . S
N1948 C1944 1.427 . S
N1948 C1945 1.384 . S
N1949 C1941 1.427 . S
N1949 C1947 1.384 . S
H1950 C1956 0.930 . S
H1951 C1960 0.930 . S
H1952 C1965 0.929 . S
H1953 C1963 0.929 . S
H1954 C1958 0.929 . S
H1955 C1964 0.929 . S
C1956 H1950 0.930 . S
C1956 C1957 1.367 . S
C1956 C1964 1.378 . S
C1957 C1956 1.367 . S
C1957 C1965 1.433 . S
C1958 H1954 0.929 . S
C1958 C1960 1.378 . S
C1958 C1962 1.350 . S
C1959 C1962 1.463 . S
C1959 C1964 1.350 . S
C1959 N1967 1.427 . S
C1960 H1951 0.930 . S
C1960 C1958 1.378 . S
C1960 C1961 1.367 . S
C1961 C1960 1.367 . S
C1961 C1963 1.433 . S
C1962 C1958 1.350 . S
C1962 C1959 1.463 . S
C1962 N1966 1.427 . S
C1963 H1953 0.929 . S
C1963 C1961 1.433 . S
C1963 N1966 1.384 . S
C1964 H1955 0.929 . S
C1964 C1956 1.378 . S
C1964 C1959 1.350 . S
C1965 H1952 0.929 . S
C1965 C1957 1.433 . S
C1965 N1967 1.384 . S
N1966 C1962 1.427 . S
N1966 C1963 1.384 . S
N1967 C1959 1.427 . S
N1967 C1965 1.384 . S
H1968 C1974 0.930 . S
H1969 C1978 0.930 . S
H1970 C1983 0.929 . S
H1971 C1981 0.929 . S
H1972 C1976 0.929 . S
H1973 C1982 0.929 . S
C1974 H1968 0.930 . S
C1974 C1975 1.367 . S
C1974 C1982 1.378 . S
C1975 C1974 1.367 . S
C1975 C1983 1.433 . S
C1976 H1972 0.929 . S
C1976 C1978 1.378 . S
C1976 C1980 1.350 . S
C1977 C1980 1.463 . S
C1977 C1982 1.350 . S
C1977 N1985 1.427 . S
C1978 H1969 0.930 . S
C1978 C1976 1.378 . S
C1978 C1979 1.367 . S
C1979 C1978 1.367 . S
C1979 C1981 1.433 . S
C1980 C1976 1.350 . S
C1980 C1977 1.463 . S
C1980 N1984 1.427 . S
C1981 H1971 0.929 . S
C1981 C1979 1.433 . S
C1981 N1984 1.384 . S
C1982 H1973 0.929 . S
C1982 C1974 1.378 . S
C1982 C1977 1.350 . S
C1983 H1970 0.929 . S
C1983 C1975 1.433 . S
C1983 N1985 1.384 . S
N1984 C1980 1.427 . S
N1984 C1981 1.384 . S
N1985 C1977 1.427 . S
N1985 C1983 1.384 . S
H1986 C1992 0.930 . S
H1987 C1996 0.930 . S
H1988 C2001 0.929 . S
H1989 C1999 0.929 . S
H1990 C1994 0.929 . S
H1991 C2000 0.929 . S
C1992 H1986 0.930 . S
C1992 C1993 1.367 . S
C1992 C2000 1.378 . S
C1993 C1992 1.367 . S
C1993 C2001 1.433 . S
C1994 H1990 0.929 . S
C1994 C1996 1.378 . S
C1994 C1998 1.350 . S
C1995 C1998 1.463 . S
C1995 C2000 1.350 . S
C1995 N2003 1.427 . S
C1996 H1987 0.930 . S
C1996 C1994 1.378 . S
C1996 C1997 1.367 . S
C1997 C1996 1.367 . S
C1997 C1999 1.433 . S
C1998 C1994 1.350 . S
C1998 C1995 1.463 . S
C1998 N2002 1.427 . S
C1999 H1989 0.929 . S
C1999 C1997 1.433 . S
C1999 N2002 1.384 . S
C2000 H1991 0.929 . S
C2000 C1992 1.378 . S
C2000 C1995 1.350 . S
C2001 H1988 0.929 . S
C2001 C1993 1.433 . S
C2001 N2003 1.384 . S
N2002 C1998 1.427 . S
N2002 C1999 1.384 . S
N2003 C1995 1.427 . S
N2003 C2001 1.384 . S
H2004 C2010 0.930 . S
H2005 C2014 0.930 . S
H2006 C2019 0.929 . S
H2007 C2017 0.929 . S
H2008 C2012 0.929 . S
H2009 C2018 0.929 . S
C2010 H2004 0.930 . S
C2010 C2011 1.367 . S
C2010 C2018 1.378 . S
C2011 C2010 1.367 . S
C2011 C2019 1.433 . S
C2012 H2008 0.929 . S
C2012 C2014 1.378 . S
C2012 C2016 1.350 . S
C2013 C2016 1.463 . S
C2013 C2018 1.350 . S
C2013 N2021 1.427 . S
C2014 H2005 0.930 . S
C2014 C2012 1.378 . S
C2014 C2015 1.367 . S
C2015 C2014 1.367 . S
C2015 C2017 1.433 . S
C2016 C2012 1.350 . S
C2016 C2013 1.463 . S
C2016 N2020 1.427 . S
C2017 H2007 0.929 . S
C2017 C2015 1.433 . S
C2017 N2020 1.384 . S
C2018 H2009 0.929 . S
C2018 C2010 1.378 . S
C2018 C2013 1.350 . S
C2019 H2006 0.929 . S
C2019 C2011 1.433 . S
C2019 N2021 1.384 . S
N2020 C2016 1.427 . S
N2020 C2017 1.384 . S
N2021 C2013 1.427 . S
N2021 C2019 1.384 . S
H2022 C2028 0.930 . S
H2023 C2032 0.930 . S
H2024 C2037 0.929 . S
H2025 C2035 0.929 . S
H2026 C2030 0.929 . S
H2027 C2036 0.929 . S
C2028 H2022 0.930 . S
C2028 C2029 1.400 . S
C2028 C2036 1.378 . S
C2029 C2028 1.400 . S
C2029 C2037 1.428 1_554 S
C2030 H2026 0.929 . S
C2030 C2032 1.378 . S
C2030 C2034 1.350 . S
C2031 C2034 1.463 . S
C2031 C2036 1.350 . S
C2031 N2039 1.427 . S
C2032 H2023 0.930 . S
C2032 C2030 1.378 . S
C2032 C2033 1.367 . S
C2033 C2032 1.367 . S
C2033 C2035 1.433 . S
C2034 C2030 1.350 . S
C2034 C2031 1.463 . S
C2034 N2038 1.427 . S
C2035 H2025 0.929 . S
C2035 C2033 1.433 . S
C2035 N2038 1.384 . S
C2036 H2027 0.929 . S
C2036 C2028 1.378 . S
C2036 C2031 1.350 . S
C2037 H2024 0.929 . S
C2037 C2029 1.428 1_556 S
C2037 N2039 1.384 1_556 S
N2038 C2034 1.427 . S
N2038 C2035 1.384 . S
N2039 C2031 1.427 . S
N2039 C2037 1.384 1_554 S
H2040 C2046 0.930 . S
H2041 C2050 0.930 . S
H2042 C2055 0.929 . S
H2043 C2053 0.929 . S
H2044 C2048 0.929 . S
H2045 C2054 0.929 . S
C2046 H2040 0.930 . S
C2046 C2047 1.367 . S
C2046 C2054 1.378 . S
C2047 C2046 1.367 . S
C2047 C2055 1.433 . S
C2048 H2044 0.929 . S
C2048 C2050 1.378 . S
C2048 C2052 1.350 . S
C2049 C2052 1.463 . S
C2049 C2054 1.350 . S
C2049 N2057 1.427 . S
C2050 H2041 0.930 . S
C2050 C2048 1.378 . S
C2050 C2051 1.367 . S
C2051 C2050 1.367 . S
C2051 C2053 1.433 . S
C2052 C2048 1.350 . S
C2052 C2049 1.463 . S
C2052 N2056 1.427 . S
C2053 H2043 0.929 . S
C2053 C2051 1.433 . S
C2053 N2056 1.384 . S
C2054 H2045 0.929 . S
C2054 C2046 1.378 . S
C2054 C2049 1.350 . S
C2055 H2042 0.929 . S
C2055 C2047 1.433 . S
C2055 N2057 1.384 . S
N2056 C2052 1.427 . S
N2056 C2053 1.384 . S
N2057 C2049 1.427 . S
N2057 C2055 1.384 . S
H2058 C2064 0.930 . S
H2059 C2068 0.930 . S
H2060 C2073 0.929 . S
H2061 C2071 0.929 . S
H2062 C2066 0.929 . S
H2063 C2072 0.929 . S
C2064 H2058 0.930 . S
C2064 C2065 1.367 . S
C2064 C2072 1.378 . S
C2065 C2064 1.367 . S
C2065 C2073 1.433 . S
C2066 H2062 0.929 . S
C2066 C2068 1.378 . S
C2066 C2070 1.350 . S
C2067 C2070 1.463 . S
C2067 C2072 1.350 . S
C2067 N2075 1.427 . S
C2068 H2059 0.930 . S
C2068 C2066 1.378 . S
C2068 C2069 1.367 . S
C2069 C2068 1.367 . S
C2069 C2071 1.433 . S
C2070 C2066 1.350 . S
C2070 C2067 1.463 . S
C2070 N2074 1.427 . S
C2071 H2061 0.929 . S
C2071 C2069 1.433 . S
C2071 N2074 1.384 . S
C2072 H2063 0.929 . S
C2072 C2064 1.378 . S
C2072 C2067 1.350 . S
C2073 H2060 0.929 . S
C2073 C2065 1.433 . S
C2073 N2075 1.384 . S
N2074 C2070 1.427 . S
N2074 C2071 1.384 . S
N2075 C2067 1.427 . S
N2075 C2073 1.384 . S
H2076 C2082 0.930 . S
H2077 C2086 0.930 . S
H2078 C2091 0.929 . S
H2079 C2089 0.929 . S
H2080 C2084 0.929 . S
H2081 C2090 0.929 . S
C2082 H2076 0.930 . S
C2082 C2083 1.367 . S
C2082 C2090 1.378 . S
C2083 C2082 1.367 . S
C2083 C2091 1.433 . S
C2084 H2080 0.929 . S
C2084 C2086 1.378 . S
C2084 C2088 1.350 . S
C2085 C2088 1.463 . S
C2085 C2090 1.350 . S
C2085 N2093 1.427 . S
C2086 H2077 0.930 . S
C2086 C2084 1.378 . S
C2086 C2087 1.367 . S
C2087 C2086 1.367 . S
C2087 C2089 1.433 . S
C2088 C2084 1.350 . S
C2088 C2085 1.463 . S
C2088 N2092 1.427 . S
C2089 H2079 0.929 . S
C2089 C2087 1.433 . S
C2089 N2092 1.384 . S
C2090 H2081 0.929 . S
C2090 C2082 1.378 . S
C2090 C2085 1.350 . S
C2091 H2078 0.929 . S
C2091 C2083 1.433 . S
C2091 N2093 1.384 . S
N2092 C2088 1.427 . S
N2092 C2089 1.384 . S
N2093 C2085 1.427 . S
N2093 C2091 1.384 . S
H2094 C2100 0.930 . S
H2095 C2104 0.930 . S
H2096 C2109 0.929 . S
H2097 C2107 0.929 . S
H2098 C2102 0.929 . S
H2099 C2108 0.929 . S
C2100 H2094 0.930 . S
C2100 C2101 1.367 . S
C2100 C2108 1.378 . S
C2101 C2100 1.367 . S
C2101 C2109 1.433 . S
C2102 H2098 0.929 . S
C2102 C2104 1.378 . S
C2102 C2106 1.350 . S
C2103 C2106 1.463 . S
C2103 C2108 1.350 . S
C2103 N2111 1.427 . S
C2104 H2095 0.930 . S
C2104 C2102 1.378 . S
C2104 C2105 1.367 . S
C2105 C2104 1.367 . S
C2105 C2107 1.433 . S
C2106 C2102 1.350 . S
C2106 C2103 1.463 . S
C2106 N2110 1.427 . S
C2107 H2097 0.929 . S
C2107 C2105 1.433 . S
C2107 N2110 1.384 . S
C2108 H2099 0.929 . S
C2108 C2100 1.378 . S
C2108 C2103 1.350 . S
C2109 H2096 0.929 . S
C2109 C2101 1.433 . S
C2109 N2111 1.384 . S
N2110 C2106 1.427 . S
N2110 C2107 1.384 . S
N2111 C2103 1.427 . S
N2111 C2109 1.384 . S
H2112 C2118 0.930 . S
H2113 C2122 0.930 . S
H2114 C2127 0.929 . S
H2115 C2125 0.929 . S
H2116 C2120 0.929 . S
H2117 C2126 0.929 . S
C2118 H2112 0.930 . S
C2118 C2119 1.367 . S
C2118 C2126 1.378 . S
C2119 C2118 1.367 . S
C2119 C2127 1.433 . S
C2120 H2116 0.929 . S
C2120 C2122 1.378 . S
C2120 C2124 1.350 . S
C2121 C2124 1.463 . S
C2121 C2126 1.350 . S
C2121 N2129 1.427 . S
C2122 H2113 0.930 . S
C2122 C2120 1.378 . S
C2122 C2123 1.367 . S
C2123 C2122 1.367 . S
C2123 C2125 1.433 . S
C2124 C2120 1.350 . S
C2124 C2121 1.463 . S
C2124 N2128 1.427 . S
C2125 H2115 0.929 . S
C2125 C2123 1.433 . S
C2125 N2128 1.384 . S
C2126 H2117 0.929 . S
C2126 C2118 1.378 . S
C2126 C2121 1.350 . S
C2127 H2114 0.929 . S
C2127 C2119 1.433 . S
C2127 N2129 1.384 . S
N2128 C2124 1.427 . S
N2128 C2125 1.384 . S
N2129 C2121 1.427 . S
N2129 C2127 1.384 . S
H2130 C2136 0.930 . S
H2131 C2140 0.930 . S
H2132 C2145 0.929 . S
H2133 C2143 0.929 . S
H2134 C2138 0.929 . S
H2135 C2144 0.929 . S
C2136 H2130 0.930 . S
C2136 C2137 1.367 . S
C2136 C2144 1.378 . S
C2137 C2136 1.367 . S
C2137 C2145 1.433 . S
C2138 H2134 0.929 . S
C2138 C2140 1.378 . S
C2138 C2142 1.350 . S
C2139 C2142 1.463 . S
C2139 C2144 1.350 . S
C2139 N2147 1.427 . S
C2140 H2131 0.930 . S
C2140 C2138 1.378 . S
C2140 C2141 1.367 . S
C2141 C2140 1.367 . S
C2141 C2143 1.433 . S
C2142 C2138 1.350 . S
C2142 C2139 1.463 . S
C2142 N2146 1.427 . S
C2143 H2133 0.929 . S
C2143 C2141 1.433 . S
C2143 N2146 1.384 . S
C2144 H2135 0.929 . S
C2144 C2136 1.378 . S
C2144 C2139 1.350 . S
C2145 H2132 0.929 . S
C2145 C2137 1.433 . S
C2145 N2147 1.384 . S
N2146 C2142 1.427 . S
N2146 C2143 1.384 . S
N2147 C2139 1.427 . S
N2147 C2145 1.384 . S
H2148 C2154 0.930 . S
H2149 C2158 0.930 . S
H2150 C2163 0.929 . S
H2151 C2161 0.929 . S
H2152 C2156 0.929 . S
H2153 C2162 0.929 . S
C2154 H2148 0.930 . S
C2154 C2155 1.367 . S
C2154 C2162 1.378 . S
C2155 C2154 1.367 . S
C2155 C2163 1.433 . S
C2156 H2152 0.929 . S
C2156 C2158 1.378 . S
C2156 C2160 1.350 . S
C2157 C2160 1.463 . S
C2157 C2162 1.350 . S
C2157 N2165 1.427 . S
C2158 H2149 0.930 . S
C2158 C2156 1.378 . S
C2158 C2159 1.367 . S
C2159 C2158 1.367 . S
C2159 C2161 1.433 . S
C2160 C2156 1.350 . S
C2160 C2157 1.463 . S
C2160 N2164 1.427 . S
C2161 H2151 0.929 . S
C2161 C2159 1.433 . S
C2161 N2164 1.384 . S
C2162 H2153 0.929 . S
C2162 C2154 1.378 . S
C2162 C2157 1.350 . S
C2163 H2150 0.929 . S
C2163 C2155 1.433 . S
C2163 N2165 1.384 . S
N2164 C2160 1.427 . S
N2164 C2161 1.384 . S
N2165 C2157 1.427 . S
N2165 C2163 1.384 . S
H2166 C2172 0.930 . S
H2167 C2176 0.930 . S
H2168 C2181 0.929 . S
H2169 C2179 0.929 . S
H2170 C2174 0.929 . S
H2171 C2180 0.929 . S
C2172 H2166 0.930 . S
C2172 C2173 1.367 . S
C2172 C2180 1.378 . S
C2173 C2172 1.367 . S
C2173 C2181 1.433 . S
C2174 H2170 0.929 . S
C2174 C2176 1.378 . S
C2174 C2178 1.350 . S
C2175 C2178 1.463 . S
C2175 C2180 1.350 . S
C2175 N2183 1.427 . S
C2176 H2167 0.930 . S
C2176 C2174 1.378 . S
C2176 C2177 1.367 . S
C2177 C2176 1.367 . S
C2177 C2179 1.433 . S
C2178 C2174 1.350 . S
C2178 C2175 1.463 . S
C2178 N2182 1.427 . S
C2179 H2169 0.929 . S
C2179 C2177 1.433 . S
C2179 N2182 1.384 . S
C2180 H2171 0.929 . S
C2180 C2172 1.378 . S
C2180 C2175 1.350 . S
C2181 H2168 0.929 . S
C2181 C2173 1.433 . S
C2181 N2183 1.384 . S
N2182 C2178 1.427 . S
N2182 C2179 1.384 . S
N2183 C2175 1.427 . S
N2183 C2181 1.384 . S
H2184 C2190 0.930 . S
H2185 C2194 0.930 . S
H2186 C2199 0.929 . S
H2187 C2197 0.929 . S
H2188 C2192 0.929 . S
H2189 C2198 0.929 . S
C2190 H2184 0.930 . S
C2190 C2191 1.367 . S
C2190 C2198 1.378 . S
C2191 C2190 1.367 . S
C2191 C2199 1.433 . S
C2192 H2188 0.929 . S
C2192 C2194 1.378 . S
C2192 C2196 1.350 . S
C2193 C2196 1.463 . S
C2193 C2198 1.350 . S
C2193 N2201 1.427 . S
C2194 H2185 0.930 . S
C2194 C2192 1.378 . S
C2194 C2195 1.367 . S
C2195 C2194 1.367 . S
C2195 C2197 1.433 . S
C2196 C2192 1.350 . S
C2196 C2193 1.463 . S
C2196 N2200 1.427 . S
C2197 H2187 0.929 . S
C2197 C2195 1.433 . S
C2197 N2200 1.384 . S
C2198 H2189 0.929 . S
C2198 C2190 1.378 . S
C2198 C2193 1.350 . S
C2199 H2186 0.929 . S
C2199 C2191 1.433 . S
C2199 N2201 1.384 . S
N2200 C2196 1.427 . S
N2200 C2197 1.384 . S
N2201 C2193 1.427 . S
N2201 C2199 1.384 . S
H2202 C2208 0.930 . S
H2203 C2212 0.930 . S
H2204 C2217 0.929 . S
H2205 C2215 0.929 . S
H2206 C2210 0.929 . S
H2207 C2216 0.929 . S
C2208 H2202 0.930 . S
C2208 C2209 1.367 . S
C2208 C2216 1.378 . S
C2209 C2208 1.367 . S
C2209 C2217 1.433 . S
C2210 H2206 0.929 . S
C2210 C2212 1.378 . S
C2210 C2214 1.350 . S
C2211 C2214 1.463 . S
C2211 C2216 1.350 . S
C2211 N2219 1.427 . S
C2212 H2203 0.930 . S
C2212 C2210 1.378 . S
C2212 C2213 1.367 . S
C2213 C2212 1.367 . S
C2213 C2215 1.433 . S
C2214 C2210 1.350 . S
C2214 C2211 1.463 . S
C2214 N2218 1.427 . S
C2215 H2205 0.929 . S
C2215 C2213 1.433 . S
C2215 N2218 1.384 . S
C2216 H2207 0.929 . S
C2216 C2208 1.378 . S
C2216 C2211 1.350 . S
C2217 H2204 0.929 . S
C2217 C2209 1.433 . S
C2217 N2219 1.384 . S
N2218 C2214 1.427 . S
N2218 C2215 1.384 . S
N2219 C2211 1.427 . S
N2219 C2217 1.384 . S
H2220 C2226 0.930 . S
H2221 C2230 0.930 . S
H2222 C2235 0.929 . S
H2223 C2233 0.929 . S
H2224 C2228 0.929 . S
H2225 C2234 0.929 . S
C2226 H2220 0.930 . S
C2226 C2227 1.367 . S
C2226 C2234 1.378 . S
C2227 C2226 1.367 . S
C2227 C2235 1.433 . S
C2228 H2224 0.929 . S
C2228 C2230 1.378 . S
C2228 C2232 1.350 . S
C2229 C2232 1.463 . S
C2229 C2234 1.350 . S
C2229 N2237 1.427 . S
C2230 H2221 0.930 . S
C2230 C2228 1.378 . S
C2230 C2231 1.367 . S
C2231 C2230 1.367 . S
C2231 C2233 1.433 . S
C2232 C2228 1.350 . S
C2232 C2229 1.463 . S
C2232 N2236 1.427 . S
C2233 H2223 0.929 . S
C2233 C2231 1.433 . S
C2233 N2236 1.384 . S
C2234 H2225 0.929 . S
C2234 C2226 1.378 . S
C2234 C2229 1.350 . S
C2235 H2222 0.929 . S
C2235 C2227 1.433 . S
C2235 N2237 1.384 . S
N2236 C2232 1.427 . S
N2236 C2233 1.384 . S
N2237 C2229 1.427 . S
N2237 C2235 1.384 . S
H2238 C2244 0.930 . S
H2239 C2248 0.930 . S
H2240 C2253 0.929 . S
H2241 C2251 0.929 . S
H2242 C2246 0.929 . S
H2243 C2252 0.929 . S
C2244 H2238 0.930 . S
C2244 C2245 1.367 . S
C2244 C2252 1.378 . S
C2245 C2244 1.367 . S
C2245 C2253 1.433 . S
C2246 H2242 0.929 . S
C2246 C2248 1.378 . S
C2246 C2250 1.350 . S
C2247 C2250 1.463 . S
C2247 C2252 1.350 . S
C2247 N2255 1.427 . S
C2248 H2239 0.930 . S
C2248 C2246 1.378 . S
C2248 C2249 1.367 . S
C2249 C2248 1.367 . S
C2249 C2251 1.433 . S
C2250 C2246 1.350 . S
C2250 C2247 1.463 . S
C2250 N2254 1.427 . S
C2251 H2241 0.929 . S
C2251 C2249 1.433 . S
C2251 N2254 1.384 . S
C2252 H2243 0.929 . S
C2252 C2244 1.378 . S
C2252 C2247 1.350 . S
C2253 H2240 0.929 . S
C2253 C2245 1.433 . S
C2253 N2255 1.384 . S
N2254 C2250 1.427 . S
N2254 C2251 1.384 . S
N2255 C2247 1.427 . S
N2255 C2253 1.384 . S
H2256 C2262 0.930 . S
H2257 C2266 0.930 . S
H2258 C2271 0.929 . S
H2259 C2269 0.929 . S
H2260 C2264 0.929 . S
H2261 C2270 0.929 . S
C2262 H2256 0.930 . S
C2262 C2263 1.367 . S
C2262 C2270 1.378 . S
C2263 C2262 1.367 . S
C2263 C2271 1.433 . S
C2264 H2260 0.929 . S
C2264 C2266 1.378 . S
C2264 C2268 1.350 . S
C2265 C2268 1.463 . S
C2265 C2270 1.350 . S
C2265 N2273 1.427 . S
C2266 H2257 0.930 . S
C2266 C2264 1.378 . S
C2266 C2267 1.367 . S
C2267 C2266 1.367 . S
C2267 C2269 1.433 . S
C2268 C2264 1.350 . S
C2268 C2265 1.463 . S
C2268 N2272 1.427 . S
C2269 H2259 0.929 . S
C2269 C2267 1.433 . S
C2269 N2272 1.384 . S
C2270 H2261 0.929 . S
C2270 C2262 1.378 . S
C2270 C2265 1.350 . S
C2271 H2258 0.929 . S
C2271 C2263 1.433 . S
C2271 N2273 1.384 . S
N2272 C2268 1.427 . S
N2272 C2269 1.384 . S
N2273 C2265 1.427 . S
N2273 C2271 1.384 . S
H2274 C2280 0.930 . S
H2275 C2284 0.930 . S
H2276 C2289 0.929 . S
H2277 C2287 0.929 . S
H2278 C2282 0.929 . S
H2279 C2288 0.929 . S
C2280 H2274 0.930 . S
C2280 C2281 1.367 . S
C2280 C2288 1.378 . S
C2281 C2280 1.367 . S
C2281 C2289 1.433 . S
C2282 H2278 0.929 . S
C2282 C2284 1.378 . S
C2282 C2286 1.350 . S
C2283 C2286 1.463 . S
C2283 C2288 1.350 . S
C2283 N2291 1.427 . S
C2284 H2275 0.930 . S
C2284 C2282 1.378 . S
C2284 C2285 1.367 . S
C2285 C2284 1.367 . S
C2285 C2287 1.433 . S
C2286 C2282 1.350 . S
C2286 C2283 1.463 . S
C2286 N2290 1.427 . S
C2287 H2277 0.929 . S
C2287 C2285 1.433 . S
C2287 N2290 1.384 . S
C2288 H2279 0.929 . S
C2288 C2280 1.378 . S
C2288 C2283 1.350 . S
C2289 H2276 0.929 . S
C2289 C2281 1.433 . S
C2289 N2291 1.384 . S
N2290 C2286 1.427 . S
N2290 C2287 1.384 . S
N2291 C2283 1.427 . S
N2291 C2289 1.384 . S
H2292 C2298 0.930 . S
H2293 C2302 0.930 . S
H2294 C2307 0.929 . S
H2295 C2305 0.929 . S
H2296 C2300 0.929 . S
H2297 C2306 0.929 . S
C2298 H2292 0.930 . S
C2298 C2299 1.367 . S
C2298 C2306 1.378 . S
C2299 C2298 1.367 . S
C2299 C2307 1.433 . S
C2300 H2296 0.929 . S
C2300 C2302 1.378 . S
C2300 C2304 1.350 . S
C2301 C2304 1.463 . S
C2301 C2306 1.350 . S
C2301 N2309 1.427 . S
C2302 H2293 0.930 . S
C2302 C2300 1.378 . S
C2302 C2303 1.367 . S
C2303 C2302 1.367 . S
C2303 C2305 1.433 . S
C2304 C2300 1.350 . S
C2304 C2301 1.463 . S
C2304 N2308 1.427 . S
C2305 H2295 0.929 . S
C2305 C2303 1.433 . S
C2305 N2308 1.384 . S
C2306 H2297 0.929 . S
C2306 C2298 1.378 . S
C2306 C2301 1.350 . S
C2307 H2294 0.929 . S
C2307 C2299 1.433 . S
C2307 N2309 1.384 . S
N2308 C2304 1.427 . S
N2308 C2305 1.384 . S
N2309 C2301 1.427 . S
N2309 C2307 1.384 . S
H2310 C2316 0.930 . S
H2311 C2320 0.930 . S
H2312 C2325 0.929 . S
H2313 C2323 0.929 . S
H2314 C2318 0.929 . S
H2315 C2324 0.929 . S
C2316 H2310 0.930 . S
C2316 C2317 1.367 . S
C2316 C2324 1.378 . S
C2317 C2316 1.367 . S
C2317 C2325 1.433 . S
C2318 H2314 0.929 . S
C2318 C2320 1.378 . S
C2318 C2322 1.350 . S
C2319 C2322 1.463 . S
C2319 C2324 1.350 . S
C2319 N2327 1.427 . S
C2320 H2311 0.930 . S
C2320 C2318 1.378 . S
C2320 C2321 1.367 . S
C2321 C2320 1.367 . S
C2321 C2323 1.433 . S
C2322 C2318 1.350 . S
C2322 C2319 1.463 . S
C2322 N2326 1.427 . S
C2323 H2313 0.929 . S
C2323 C2321 1.433 . S
C2323 N2326 1.384 . S
C2324 H2315 0.929 . S
C2324 C2316 1.378 . S
C2324 C2319 1.350 . S
C2325 H2312 0.929 . S
C2325 C2317 1.433 . S
C2325 N2327 1.384 . S
N2326 C2322 1.427 . S
N2326 C2323 1.384 . S
N2327 C2319 1.427 . S
N2327 C2325 1.384 . S
H2328 C2334 0.930 . S
H2329 C2338 0.930 . S
H2330 C2343 0.929 . S
H2331 C2341 0.929 . S
H2332 C2336 0.929 . S
H2333 C2342 0.929 . S
C2334 H2328 0.930 . S
C2334 C2335 1.367 . S
C2334 C2342 1.378 . S
C2335 C2334 1.367 . S
C2335 C2343 1.433 . S
C2336 H2332 0.929 . S
C2336 C2338 1.378 . S
C2336 C2340 1.350 . S
C2337 C2340 1.463 . S
C2337 C2342 1.350 . S
C2337 N2345 1.427 . S
C2338 H2329 0.930 . S
C2338 C2336 1.378 . S
C2338 C2339 1.367 . S
C2339 C2338 1.367 . S
C2339 C2341 1.433 . S
C2340 C2336 1.350 . S
C2340 C2337 1.463 . S
C2340 N2344 1.427 . S
C2341 H2331 0.929 . S
C2341 C2339 1.433 . S
C2341 N2344 1.384 . S
C2342 H2333 0.929 . S
C2342 C2334 1.378 . S
C2342 C2337 1.350 . S
C2343 H2330 0.929 . S
C2343 C2335 1.433 . S
C2343 N2345 1.384 . S
N2344 C2340 1.427 . S
N2344 C2341 1.384 . S
N2345 C2337 1.427 . S
N2345 C2343 1.384 . S
H2346 C2352 0.930 . S
H2347 C2356 0.930 . S
H2348 C2361 0.929 . S
H2349 C2359 0.929 . S
H2350 C2354 0.929 . S
H2351 C2360 0.929 . S
C2352 H2346 0.930 . S
C2352 C2353 1.367 . S
C2352 C2360 1.378 . S
C2353 C2352 1.367 . S
C2353 C2361 1.433 . S
C2354 H2350 0.929 . S
C2354 C2356 1.378 . S
C2354 C2358 1.350 . S
C2355 C2358 1.463 . S
C2355 C2360 1.350 . S
C2355 N2363 1.427 . S
C2356 H2347 0.930 . S
C2356 C2354 1.378 . S
C2356 C2357 1.367 . S
C2357 C2356 1.367 . S
C2357 C2359 1.433 . S
C2358 C2354 1.350 . S
C2358 C2355 1.463 . S
C2358 N2362 1.427 . S
C2359 H2349 0.929 . S
C2359 C2357 1.433 . S
C2359 N2362 1.384 . S
C2360 H2351 0.929 . S
C2360 C2352 1.378 . S
C2360 C2355 1.350 . S
C2361 H2348 0.929 . S
C2361 C2353 1.433 . S
C2361 N2363 1.384 . S
N2362 C2358 1.427 . S
N2362 C2359 1.384 . S
N2363 C2355 1.427 . S
N2363 C2361 1.384 . S
H2364 C2370 0.930 . S
H2365 C2374 0.930 . S
H2366 C2379 0.929 . S
H2367 C2377 0.929 . S
H2368 C2372 0.929 . S
H2369 C2378 0.929 . S
C2370 H2364 0.930 . S
C2370 C2371 1.367 . S
C2370 C2378 1.378 . S
C2371 C2370 1.367 . S
C2371 C2379 1.433 . S
C2372 H2368 0.929 . S
C2372 C2374 1.378 . S
C2372 C2376 1.350 . S
C2373 C2376 1.463 . S
C2373 C2378 1.350 . S
C2373 N2381 1.427 . S
C2374 H2365 0.930 . S
C2374 C2372 1.378 . S
C2374 C2375 1.367 . S
C2375 C2374 1.367 . S
C2375 C2377 1.433 . S
C2376 C2372 1.350 . S
C2376 C2373 1.463 . S
C2376 N2380 1.427 . S
C2377 H2367 0.929 . S
C2377 C2375 1.433 . S
C2377 N2380 1.384 . S
C2378 H2369 0.929 . S
C2378 C2370 1.378 . S
C2378 C2373 1.350 . S
C2379 H2366 0.929 . S
C2379 C2371 1.433 . S
C2379 N2381 1.384 . S
N2380 C2376 1.427 . S
N2380 C2377 1.384 . S
N2381 C2373 1.427 . S
N2381 C2379 1.384 . S
H2382 C2388 0.930 . S
H2383 C2392 0.930 . S
H2384 C2397 0.929 . S
H2385 C2395 0.929 . S
H2386 C2390 0.929 . S
H2387 C2396 0.929 . S
C2388 H2382 0.930 . S
C2388 C2389 1.367 . S
C2388 C2396 1.378 . S
C2389 C2388 1.367 . S
C2389 C2397 1.433 . S
C2390 H2386 0.929 . S
C2390 C2392 1.378 . S
C2390 C2394 1.350 . S
C2391 C2394 1.463 . S
C2391 C2396 1.350 . S
C2391 N2399 1.427 . S
C2392 H2383 0.930 . S
C2392 C2390 1.378 . S
C2392 C2393 1.367 . S
C2393 C2392 1.367 . S
C2393 C2395 1.433 . S
C2394 C2390 1.350 . S
C2394 C2391 1.463 . S
C2394 N2398 1.427 . S
C2395 H2385 0.929 . S
C2395 C2393 1.433 . S
C2395 N2398 1.384 . S
C2396 H2387 0.929 . S
C2396 C2388 1.378 . S
C2396 C2391 1.350 . S
C2397 H2384 0.929 . S
C2397 C2389 1.433 . S
C2397 N2399 1.384 . S
N2398 C2394 1.427 . S
N2398 C2395 1.384 . S
N2399 C2391 1.427 . S
N2399 C2397 1.384 . S
H2400 C2406 0.930 . S
H2401 C2410 0.930 . S
H2402 C2415 0.929 . S
H2403 C2413 0.929 . S
H2404 C2408 0.929 . S
H2405 C2414 0.929 . S
C2406 H2400 0.930 . S
C2406 C2407 1.367 . S
C2406 C2414 1.378 . S
C2407 C2406 1.367 . S
C2407 C2415 1.433 . S
C2408 H2404 0.929 . S
C2408 C2410 1.378 . S
C2408 C2412 1.350 . S
C2409 C2412 1.463 . S
C2409 C2414 1.350 . S
C2409 N2417 1.427 . S
C2410 H2401 0.930 . S
C2410 C2408 1.378 . S
C2410 C2411 1.367 . S
C2411 C2410 1.367 . S
C2411 C2413 1.433 . S
C2412 C2408 1.350 . S
C2412 C2409 1.463 . S
C2412 N2416 1.427 . S
C2413 H2403 0.929 . S
C2413 C2411 1.433 . S
C2413 N2416 1.384 . S
C2414 H2405 0.929 . S
C2414 C2406 1.378 . S
C2414 C2409 1.350 . S
C2415 H2402 0.929 . S
C2415 C2407 1.433 . S
C2415 N2417 1.384 . S
N2416 C2412 1.427 . S
N2416 C2413 1.384 . S
N2417 C2409 1.427 . S
N2417 C2415 1.384 . S
H2418 C2424 0.930 . S
H2419 C2428 0.930 . S
H2420 C2433 0.929 . S
H2421 C2431 0.929 . S
H2422 C2426 0.929 . S
H2423 C2432 0.929 . S
C2424 H2418 0.930 . S
C2424 C2425 1.367 . S
C2424 C2432 1.378 . S
C2425 C2424 1.367 . S
C2425 C2433 1.433 . S
C2426 H2422 0.929 . S
C2426 C2428 1.378 . S
C2426 C2430 1.350 . S
C2427 C2430 1.463 . S
C2427 C2432 1.350 . S
C2427 N2435 1.427 . S
C2428 H2419 0.930 . S
C2428 C2426 1.378 . S
C2428 C2429 1.367 . S
C2429 C2428 1.367 . S
C2429 C2431 1.433 . S
C2430 C2426 1.350 . S
C2430 C2427 1.463 . S
C2430 N2434 1.427 . S
C2431 H2421 0.929 . S
C2431 C2429 1.433 . S
C2431 N2434 1.384 . S
C2432 H2423 0.929 . S
C2432 C2424 1.378 . S
C2432 C2427 1.350 . S
C2433 H2420 0.929 . S
C2433 C2425 1.433 . S
C2433 N2435 1.384 . S
N2434 C2430 1.427 . S
N2434 C2431 1.384 . S
N2435 C2427 1.427 . S
N2435 C2433 1.384 . S
H2436 C2442 0.930 . S
H2437 C2446 0.930 . S
H2438 C2451 0.929 . S
H2439 C2449 0.929 . S
H2440 C2444 0.929 . S
H2441 C2450 0.929 . S
C2442 H2436 0.930 . S
C2442 C2443 1.367 . S
C2442 C2450 1.378 . S
C2443 C2442 1.367 . S
C2443 C2451 1.433 . S
C2444 H2440 0.929 . S
C2444 C2446 1.378 . S
C2444 C2448 1.350 . S
C2445 C2448 1.463 . S
C2445 C2450 1.350 . S
C2445 N2453 1.427 . S
C2446 H2437 0.930 . S
C2446 C2444 1.378 . S
C2446 C2447 1.367 . S
C2447 C2446 1.367 . S
C2447 C2449 1.433 . S
C2448 C2444 1.350 . S
C2448 C2445 1.463 . S
C2448 N2452 1.427 . S
C2449 H2439 0.929 . S
C2449 C2447 1.433 . S
C2449 N2452 1.384 . S
C2450 H2441 0.929 . S
C2450 C2442 1.378 . S
C2450 C2445 1.350 . S
C2451 H2438 0.929 . S
C2451 C2443 1.433 . S
C2451 N2453 1.384 . S
N2452 C2448 1.427 . S
N2452 C2449 1.384 . S
N2453 C2445 1.427 . S
N2453 C2451 1.384 . S
H2454 C2460 0.930 . S
H2455 C2464 0.930 . S
H2456 C2469 0.929 . S
H2457 C2467 0.929 . S
H2458 C2462 0.929 . S
H2459 C2468 0.929 . S
C2460 H2454 0.930 . S
C2460 C2461 1.367 . S
C2460 C2468 1.378 . S
C2461 C2460 1.367 . S
C2461 C2469 1.433 1_556 S
C2462 H2458 0.929 . S
C2462 C2464 1.378 . S
C2462 C2466 1.350 . S
C2463 C2466 1.463 . S
C2463 C2468 1.350 . S
C2463 N2471 1.427 . S
C2464 H2455 0.930 . S
C2464 C2462 1.378 . S
C2464 C2465 1.367 . S
C2465 C2464 1.367 . S
C2465 C2467 1.433 . S
C2466 C2462 1.350 . S
C2466 C2463 1.463 . S
C2466 N2470 1.427 . S
C2467 H2457 0.929 . S
C2467 C2465 1.433 . S
C2467 N2470 1.384 . S
C2468 H2459 0.929 . S
C2468 C2460 1.378 . S
C2468 C2463 1.350 . S
C2469 H2456 0.929 . S
C2469 C2461 1.433 1_554 S
C2469 N2471 1.384 1_554 S
N2470 C2466 1.427 . S
N2470 C2467 1.384 . S
N2471 C2463 1.427 . S
N2471 C2469 1.384 1_556 S
H2472 C2478 0.930 . S
H2473 C2482 0.930 . S
H2474 C2487 0.929 . S
H2475 C2485 0.929 . S
H2476 C2480 0.929 . S
H2477 C2486 0.929 . S
C2478 H2472 0.930 . S
C2478 C2479 1.367 . S
C2478 C2486 1.378 . S
C2479 C2478 1.367 . S
C2479 C2487 1.433 . S
C2480 H2476 0.929 . S
C2480 C2482 1.378 . S
C2480 C2484 1.350 . S
C2481 C2484 1.463 . S
C2481 C2486 1.350 . S
C2481 N2489 1.427 . S
C2482 H2473 0.930 . S
C2482 C2480 1.378 . S
C2482 C2483 1.367 . S
C2483 C2482 1.367 . S
C2483 C2485 1.433 . S
C2484 C2480 1.350 . S
C2484 C2481 1.463 . S
C2484 N2488 1.427 . S
C2485 H2475 0.929 . S
C2485 C2483 1.433 . S
C2485 N2488 1.384 . S
C2486 H2477 0.929 . S
C2486 C2478 1.378 . S
C2486 C2481 1.350 . S
C2487 H2474 0.929 . S
C2487 C2479 1.433 . S
C2487 N2489 1.384 . S
N2488 C2484 1.427 . S
N2488 C2485 1.384 . S
N2489 C2481 1.427 . S
N2489 C2487 1.384 . S
H2490 C2496 0.930 . S
H2491 C2500 0.930 . S
H2492 C2505 0.929 . S
H2493 C2503 0.929 . S
H2494 C2498 0.929 . S
H2495 C2504 0.929 . S
C2496 H2490 0.930 . S
C2496 C2497 1.367 . S
C2496 C2504 1.378 . S
C2497 C2496 1.367 . S
C2497 C2505 1.433 . S
C2498 H2494 0.929 . S
C2498 C2500 1.378 . S
C2498 C2502 1.350 . S
C2499 C2502 1.463 . S
C2499 C2504 1.350 . S
C2499 N2507 1.427 . S
C2500 H2491 0.930 . S
C2500 C2498 1.378 . S
C2500 C2501 1.367 . S
C2501 C2500 1.367 . S
C2501 C2503 1.433 . S
C2502 C2498 1.350 . S
C2502 C2499 1.463 . S
C2502 N2506 1.427 . S
C2503 H2493 0.929 . S
C2503 C2501 1.433 . S
C2503 N2506 1.384 . S
C2504 H2495 0.929 . S
C2504 C2496 1.378 . S
C2504 C2499 1.350 . S
C2505 H2492 0.929 . S
C2505 C2497 1.433 . S
C2505 N2507 1.384 . S
N2506 C2502 1.427 . S
N2506 C2503 1.384 . S
N2507 C2499 1.427 . S
N2507 C2505 1.384 . S
H2508 C2514 0.930 . S
H2509 C2518 0.930 . S
H2510 C2523 0.929 . S
H2511 C2521 0.929 . S
H2512 C2516 0.929 . S
H2513 C2522 0.929 . S
C2514 H2508 0.930 . S
C2514 C2515 1.367 . S
C2514 C2522 1.378 . S
C2515 C2514 1.367 . S
C2515 C2523 1.433 . S
C2516 H2512 0.929 . S
C2516 C2518 1.378 . S
C2516 C2520 1.350 . S
C2517 C2520 1.463 . S
C2517 C2522 1.350 . S
C2517 N2525 1.427 . S
C2518 H2509 0.930 . S
C2518 C2516 1.378 . S
C2518 C2519 1.367 . S
C2519 C2518 1.367 . S
C2519 C2521 1.433 . S
C2520 C2516 1.350 . S
C2520 C2517 1.463 . S
C2520 N2524 1.427 . S
C2521 H2511 0.929 . S
C2521 C2519 1.433 . S
C2521 N2524 1.384 . S
C2522 H2513 0.929 . S
C2522 C2514 1.378 . S
C2522 C2517 1.350 . S
C2523 H2510 0.929 . S
C2523 C2515 1.433 . S
C2523 N2525 1.384 . S
N2524 C2520 1.427 . S
N2524 C2521 1.384 . S
N2525 C2517 1.427 . S
N2525 C2523 1.384 . S
H2526 C2532 0.930 . S
H2527 C2536 0.930 . S
H2528 C2541 0.929 . S
H2529 C2539 0.929 . S
H2530 C2534 0.929 . S
H2531 C2540 0.929 . S
C2532 H2526 0.930 . S
C2532 C2533 1.367 . S
C2532 C2540 1.378 . S
C2533 C2532 1.367 . S
C2533 C2541 1.433 . S
C2534 H2530 0.929 . S
C2534 C2536 1.378 . S
C2534 C2538 1.350 . S
C2535 C2538 1.463 . S
C2535 C2540 1.350 . S
C2535 N2543 1.427 . S
C2536 H2527 0.930 . S
C2536 C2534 1.378 . S
C2536 C2537 1.367 . S
C2537 C2536 1.367 . S
C2537 C2539 1.433 . S
C2538 C2534 1.350 . S
C2538 C2535 1.463 . S
C2538 N2542 1.427 . S
C2539 H2529 0.929 . S
C2539 C2537 1.433 . S
C2539 N2542 1.384 . S
C2540 H2531 0.929 . S
C2540 C2532 1.378 . S
C2540 C2535 1.350 . S
C2541 H2528 0.929 . S
C2541 C2533 1.433 . S
C2541 N2543 1.384 . S
N2542 C2538 1.427 . S
N2542 C2539 1.384 . S
N2543 C2535 1.427 . S
N2543 C2541 1.384 . S
H2544 C2550 0.930 . S
H2545 C2554 0.930 . S
H2546 C2559 0.929 . S
H2547 C2557 0.929 . S
H2548 C2552 0.929 . S
H2549 C2558 0.929 . S
C2550 H2544 0.930 . S
C2550 C2551 1.367 . S
C2550 C2558 1.378 . S
C2551 C2550 1.367 . S
C2551 C2559 1.433 . S
C2552 H2548 0.929 . S
C2552 C2554 1.378 . S
C2552 C2556 1.350 . S
C2553 C2556 1.463 . S
C2553 C2558 1.350 . S
C2553 N2561 1.427 . S
C2554 H2545 0.930 . S
C2554 C2552 1.378 . S
C2554 C2555 1.367 . S
C2555 C2554 1.367 . S
C2555 C2557 1.433 . S
C2556 C2552 1.350 . S
C2556 C2553 1.463 . S
C2556 N2560 1.427 . S
C2557 H2547 0.929 . S
C2557 C2555 1.433 . S
C2557 N2560 1.384 . S
C2558 H2549 0.929 . S
C2558 C2550 1.378 . S
C2558 C2553 1.350 . S
C2559 H2546 0.929 . S
C2559 C2551 1.433 . S
C2559 N2561 1.384 . S
N2560 C2556 1.427 . S
N2560 C2557 1.384 . S
N2561 C2553 1.427 . S
N2561 C2559 1.384 . S
H2562 C2568 0.930 . S
H2563 C2572 0.930 . S
H2564 C2577 0.929 . S
H2565 C2575 0.929 . S
H2566 C2570 0.929 . S
H2567 C2576 0.929 . S
C2568 H2562 0.930 . S
C2568 C2569 1.367 . S
C2568 C2576 1.378 . S
C2569 C2568 1.367 . S
C2569 C2577 1.433 . S
C2570 H2566 0.929 . S
C2570 C2572 1.378 . S
C2570 C2574 1.350 . S
C2571 C2574 1.463 . S
C2571 C2576 1.350 . S
C2571 N2579 1.427 . S
C2572 H2563 0.930 . S
C2572 C2570 1.378 . S
C2572 C2573 1.367 . S
C2573 C2572 1.367 . S
C2573 C2575 1.433 . S
C2574 C2570 1.350 . S
C2574 C2571 1.463 . S
C2574 N2578 1.427 . S
C2575 H2565 0.929 . S
C2575 C2573 1.433 . S
C2575 N2578 1.384 . S
C2576 H2567 0.929 . S
C2576 C2568 1.378 . S
C2576 C2571 1.350 . S
C2577 H2564 0.929 . S
C2577 C2569 1.433 . S
C2577 N2579 1.384 . S
N2578 C2574 1.427 . S
N2578 C2575 1.384 . S
N2579 C2571 1.427 . S
N2579 C2577 1.384 . S
H2580 C2586 0.930 . S
H2581 C2590 0.930 . S
H2582 C2595 0.929 . S
H2583 C2593 0.929 . S
H2584 C2588 0.929 . S
H2585 C2594 0.929 . S
C2586 H2580 0.930 . S
C2586 C2587 1.367 . S
C2586 C2594 1.378 . S
C2587 C2586 1.367 . S
C2587 C2595 1.433 . S
C2588 H2584 0.929 . S
C2588 C2590 1.378 . S
C2588 C2592 1.350 . S
C2589 C2592 1.463 . S
C2589 C2594 1.350 . S
C2589 N2597 1.427 . S
C2590 H2581 0.930 . S
C2590 C2588 1.378 . S
C2590 C2591 1.367 . S
C2591 C2590 1.367 . S
C2591 C2593 1.433 . S
C2592 C2588 1.350 . S
C2592 C2589 1.463 . S
C2592 N2596 1.427 . S
C2593 H2583 0.929 . S
C2593 C2591 1.433 . S
C2593 N2596 1.384 . S
C2594 H2585 0.929 . S
C2594 C2586 1.378 . S
C2594 C2589 1.350 . S
C2595 H2582 0.929 . S
C2595 C2587 1.433 . S
C2595 N2597 1.384 . S
N2596 C2592 1.427 . S
N2596 C2593 1.384 . S
N2597 C2589 1.427 . S
N2597 C2595 1.384 . S
H2598 C2604 0.930 . S
H2599 C2608 0.930 . S
H2600 C2613 0.929 . S
H2601 C2611 0.929 . S
H2602 C2606 0.929 . S
H2603 C2612 0.929 . S
C2604 H2598 0.930 . S
C2604 C2605 1.367 . S
C2604 C2612 1.378 . S
C2605 C2604 1.367 . S
C2605 C2613 1.433 . S
C2606 H2602 0.929 . S
C2606 C2608 1.378 . S
C2606 C2610 1.350 . S
C2607 C2610 1.463 . S
C2607 C2612 1.350 . S
C2607 N2615 1.427 . S
C2608 H2599 0.930 . S
C2608 C2606 1.378 . S
C2608 C2609 1.367 . S
C2609 C2608 1.367 . S
C2609 C2611 1.433 . S
C2610 C2606 1.350 . S
C2610 C2607 1.463 . S
C2610 N2614 1.427 . S
C2611 H2601 0.929 . S
C2611 C2609 1.433 . S
C2611 N2614 1.384 . S
C2612 H2603 0.929 . S
C2612 C2604 1.378 . S
C2612 C2607 1.350 . S
C2613 H2600 0.929 . S
C2613 C2605 1.433 . S
C2613 N2615 1.384 . S
N2614 C2610 1.427 . S
N2614 C2611 1.384 . S
N2615 C2607 1.427 . S
N2615 C2613 1.384 . S
H2616 C2622 0.930 . S
H2617 C2626 0.930 . S
H2618 C2631 0.929 . S
H2619 C2629 0.929 . S
H2620 C2624 0.929 . S
H2621 C2630 0.929 . S
C2622 H2616 0.930 . S
C2622 C2623 1.367 . S
C2622 C2630 1.378 . S
C2623 C2622 1.367 . S
C2623 C2631 1.433 . S
C2624 H2620 0.929 . S
C2624 C2626 1.378 . S
C2624 C2628 1.350 . S
C2625 C2628 1.463 . S
C2625 C2630 1.350 . S
C2625 N2633 1.427 . S
C2626 H2617 0.930 . S
C2626 C2624 1.378 . S
C2626 C2627 1.367 . S
C2627 C2626 1.367 . S
C2627 C2629 1.433 . S
C2628 C2624 1.350 . S
C2628 C2625 1.463 . S
C2628 N2632 1.427 . S
C2629 H2619 0.929 . S
C2629 C2627 1.433 . S
C2629 N2632 1.384 . S
C2630 H2621 0.929 . S
C2630 C2622 1.378 . S
C2630 C2625 1.350 . S
C2631 H2618 0.929 . S
C2631 C2623 1.433 . S
C2631 N2633 1.384 . S
N2632 C2628 1.427 . S
N2632 C2629 1.384 . S
N2633 C2625 1.427 . S
N2633 C2631 1.384 . S
H2634 C2640 0.930 . S
H2635 C2644 0.930 . S
H2636 C2649 0.929 . S
H2637 C2647 0.929 . S
H2638 C2642 0.929 . S
H2639 C2648 0.929 . S
C2640 H2634 0.930 . S
C2640 C2641 1.367 . S
C2640 C2648 1.378 . S
C2641 C2640 1.367 . S
C2641 C2649 1.433 . S
C2642 H2638 0.929 . S
C2642 C2644 1.378 . S
C2642 C2646 1.350 . S
C2643 C2646 1.463 . S
C2643 C2648 1.350 . S
C2643 N2651 1.427 . S
C2644 H2635 0.930 . S
C2644 C2642 1.378 . S
C2644 C2645 1.367 . S
C2645 C2644 1.367 . S
C2645 C2647 1.433 . S
C2646 C2642 1.350 . S
C2646 C2643 1.463 . S
C2646 N2650 1.427 . S
C2647 H2637 0.929 . S
C2647 C2645 1.433 . S
C2647 N2650 1.384 . S
C2648 H2639 0.929 . S
C2648 C2640 1.378 . S
C2648 C2643 1.350 . S
C2649 H2636 0.929 . S
C2649 C2641 1.433 . S
C2649 N2651 1.384 . S
N2650 C2646 1.427 . S
N2650 C2647 1.384 . S
N2651 C2643 1.427 . S
N2651 C2649 1.384 . S
H2652 C2658 0.930 . S
H2653 C2662 0.930 . S
H2654 C2667 0.929 . S
H2655 C2665 0.929 . S
H2656 C2660 0.929 . S
H2657 C2666 0.929 . S
C2658 H2652 0.930 . S
C2658 C2659 1.367 . S
C2658 C2666 1.378 . S
C2659 C2658 1.367 . S
C2659 C2667 1.433 . S
C2660 H2656 0.929 . S
C2660 C2662 1.378 . S
C2660 C2664 1.350 . S
C2661 C2664 1.463 . S
C2661 C2666 1.350 . S
C2661 N2669 1.427 . S
C2662 H2653 0.930 . S
C2662 C2660 1.378 . S
C2662 C2663 1.367 . S
C2663 C2662 1.367 . S
C2663 C2665 1.433 . S
C2664 C2660 1.350 . S
C2664 C2661 1.463 . S
C2664 N2668 1.427 . S
C2665 H2655 0.929 . S
C2665 C2663 1.433 . S
C2665 N2668 1.384 . S
C2666 H2657 0.929 . S
C2666 C2658 1.378 . S
C2666 C2661 1.350 . S
C2667 H2654 0.929 . S
C2667 C2659 1.433 . S
C2667 N2669 1.384 . S
N2668 C2664 1.427 . S
N2668 C2665 1.384 . S
N2669 C2661 1.427 . S
N2669 C2667 1.384 . S
H2670 C2676 0.930 . S
H2671 C2680 0.930 . S
H2672 C2685 0.929 . S
H2673 C2683 0.929 . S
H2674 C2678 0.929 . S
H2675 C2684 0.929 . S
C2676 H2670 0.930 . S
C2676 C2677 1.367 . S
C2676 C2684 1.378 . S
C2677 C2676 1.367 . S
C2677 C2685 1.433 . S
C2678 H2674 0.929 . S
C2678 C2680 1.378 . S
C2678 C2682 1.350 . S
C2679 C2682 1.463 . S
C2679 C2684 1.350 . S
C2679 N2687 1.427 . S
C2680 H2671 0.930 . S
C2680 C2678 1.378 . S
C2680 C2681 1.367 . S
C2681 C2680 1.367 . S
C2681 C2683 1.433 . S
C2682 C2678 1.350 . S
C2682 C2679 1.463 . S
C2682 N2686 1.427 . S
C2683 H2673 0.929 . S
C2683 C2681 1.433 . S
C2683 N2686 1.384 . S
C2684 H2675 0.929 . S
C2684 C2676 1.378 . S
C2684 C2679 1.350 . S
C2685 H2672 0.929 . S
C2685 C2677 1.433 . S
C2685 N2687 1.384 . S
N2686 C2682 1.427 . S
N2686 C2683 1.384 . S
N2687 C2679 1.427 . S
N2687 C2685 1.384 . S
H2688 C2694 0.930 . S
H2689 C2698 0.930 . S
H2690 C2703 0.929 . S
H2691 C2701 0.929 . S
H2692 C2696 0.929 . S
H2693 C2702 0.929 . S
C2694 H2688 0.930 . S
C2694 C2695 1.367 . S
C2694 C2702 1.378 . S
C2695 C2694 1.367 . S
C2695 C2703 1.433 . S
C2696 H2692 0.929 . S
C2696 C2698 1.378 . S
C2696 C2700 1.350 . S
C2697 C2700 1.463 . S
C2697 C2702 1.350 . S
C2697 N2705 1.427 . S
C2698 H2689 0.930 . S
C2698 C2696 1.378 . S
C2698 C2699 1.367 . S
C2699 C2698 1.367 . S
C2699 C2701 1.433 . S
C2700 C2696 1.350 . S
C2700 C2697 1.463 . S
C2700 N2704 1.427 . S
C2701 H2691 0.929 . S
C2701 C2699 1.433 . S
C2701 N2704 1.384 . S
C2702 H2693 0.929 . S
C2702 C2694 1.378 . S
C2702 C2697 1.350 . S
C2703 H2690 0.929 . S
C2703 C2695 1.433 . S
C2703 N2705 1.384 . S
N2704 C2700 1.427 . S
N2704 C2701 1.384 . S
N2705 C2697 1.427 . S
N2705 C2703 1.384 . S
H2706 C2712 0.930 . S
H2707 C2716 0.930 . S
H2708 C2721 0.929 . S
H2709 C2719 0.929 . S
H2710 C2714 0.929 . S
H2711 C2720 0.929 . S
C2712 H2706 0.930 . S
C2712 C2713 1.367 . S
C2712 C2720 1.378 . S
C2713 C2712 1.367 . S
C2713 C2721 1.433 . S
C2714 H2710 0.929 . S
C2714 C2716 1.378 . S
C2714 C2718 1.350 . S
C2715 C2718 1.463 . S
C2715 C2720 1.350 . S
C2715 N2723 1.427 . S
C2716 H2707 0.930 . S
C2716 C2714 1.378 . S
C2716 C2717 1.367 . S
C2717 C2716 1.367 . S
C2717 C2719 1.433 . S
C2718 C2714 1.350 . S
C2718 C2715 1.463 . S
C2718 N2722 1.427 . S
C2719 H2709 0.929 . S
C2719 C2717 1.433 . S
C2719 N2722 1.384 . S
C2720 H2711 0.929 . S
C2720 C2712 1.378 . S
C2720 C2715 1.350 . S
C2721 H2708 0.929 . S
C2721 C2713 1.433 . S
C2721 N2723 1.384 . S
N2722 C2718 1.427 . S
N2722 C2719 1.384 . S
N2723 C2715 1.427 . S
N2723 C2721 1.384 . S
H2724 C2730 0.930 . S
H2725 C2734 0.930 . S
H2726 C2739 0.929 . S
H2727 C2737 0.929 . S
H2728 C2732 0.929 . S
H2729 C2738 0.929 . S
C2730 H2724 0.930 . S
C2730 C2731 1.367 . S
C2730 C2738 1.378 . S
C2731 C2730 1.367 . S
C2731 C2739 1.433 . S
C2732 H2728 0.929 . S
C2732 C2734 1.378 . S
C2732 C2736 1.350 . S
C2733 C2736 1.463 . S
C2733 C2738 1.350 . S
C2733 N2741 1.427 . S
C2734 H2725 0.930 . S
C2734 C2732 1.378 . S
C2734 C2735 1.367 . S
C2735 C2734 1.367 . S
C2735 C2737 1.433 . S
C2736 C2732 1.350 . S
C2736 C2733 1.463 . S
C2736 N2740 1.427 . S
C2737 H2727 0.929 . S
C2737 C2735 1.433 . S
C2737 N2740 1.384 . S
C2738 H2729 0.929 . S
C2738 C2730 1.378 . S
C2738 C2733 1.350 . S
C2739 H2726 0.929 . S
C2739 C2731 1.433 . S
C2739 N2741 1.384 . S
N2740 C2736 1.427 . S
N2740 C2737 1.384 . S
N2741 C2733 1.427 . S
N2741 C2739 1.384 . S
H2742 C2748 0.930 . S
H2743 C2752 0.930 . S
H2744 C2757 0.929 . S
H2745 C2755 0.929 . S
H2746 C2750 0.929 . S
H2747 C2756 0.929 . S
C2748 H2742 0.930 . S
C2748 C2749 1.367 . S
C2748 C2756 1.378 . S
C2749 C2748 1.367 . S
C2749 C2757 1.433 . S
C2750 H2746 0.929 . S
C2750 C2752 1.378 . S
C2750 C2754 1.350 . S
C2751 C2754 1.463 . S
C2751 C2756 1.350 . S
C2751 N2759 1.427 . S
C2752 H2743 0.930 . S
C2752 C2750 1.378 . S
C2752 C2753 1.367 . S
C2753 C2752 1.367 . S
C2753 C2755 1.433 . S
C2754 C2750 1.350 . S
C2754 C2751 1.463 . S
C2754 N2758 1.427 . S
C2755 H2745 0.929 . S
C2755 C2753 1.433 . S
C2755 N2758 1.384 . S
C2756 H2747 0.929 . S
C2756 C2748 1.378 . S
C2756 C2751 1.350 . S
C2757 H2744 0.929 . S
C2757 C2749 1.433 . S
C2757 N2759 1.384 . S
N2758 C2754 1.427 . S
N2758 C2755 1.384 . S
N2759 C2751 1.427 . S
N2759 C2757 1.384 . S
H2760 C2766 0.930 . S
H2761 C2770 0.930 . S
H2762 C2775 0.929 . S
H2763 C2773 0.929 . S
H2764 C2768 0.929 . S
H2765 C2774 0.929 . S
C2766 H2760 0.930 . S
C2766 C2767 1.367 . S
C2766 C2774 1.378 . S
C2767 C2766 1.367 . S
C2767 C2775 1.433 . S
C2768 H2764 0.929 . S
C2768 C2770 1.378 . S
C2768 C2772 1.350 . S
C2769 C2772 1.463 . S
C2769 C2774 1.350 . S
C2769 N2777 1.427 . S
C2770 H2761 0.930 . S
C2770 C2768 1.378 . S
C2770 C2771 1.367 . S
C2771 C2770 1.367 . S
C2771 C2773 1.433 . S
C2772 C2768 1.350 . S
C2772 C2769 1.463 . S
C2772 N2776 1.427 . S
C2773 H2763 0.929 . S
C2773 C2771 1.433 . S
C2773 N2776 1.384 . S
C2774 H2765 0.929 . S
C2774 C2766 1.378 . S
C2774 C2769 1.350 . S
C2775 H2762 0.929 . S
C2775 C2767 1.433 . S
C2775 N2777 1.384 . S
N2776 C2772 1.427 . S
N2776 C2773 1.384 . S
N2777 C2769 1.427 . S
N2777 C2775 1.384 . S
H2778 C2784 0.930 . S
H2779 C2788 0.930 . S
H2780 C2793 0.929 . S
H2781 C2791 0.929 . S
H2782 C2786 0.929 . S
H2783 C2792 0.929 . S
C2784 H2778 0.930 . S
C2784 C2785 1.367 . S
C2784 C2792 1.378 . S
C2785 C2784 1.367 . S
C2785 C2793 1.433 . S
C2786 H2782 0.929 . S
C2786 C2788 1.378 . S
C2786 C2790 1.350 . S
C2787 C2790 1.463 . S
C2787 C2792 1.350 . S
C2787 N2795 1.427 . S
C2788 H2779 0.930 . S
C2788 C2786 1.378 . S
C2788 C2789 1.367 . S
C2789 C2788 1.367 . S
C2789 C2791 1.433 . S
C2790 C2786 1.350 . S
C2790 C2787 1.463 . S
C2790 N2794 1.427 . S
C2791 H2781 0.929 . S
C2791 C2789 1.433 . S
C2791 N2794 1.384 . S
C2792 H2783 0.929 . S
C2792 C2784 1.378 . S
C2792 C2787 1.350 . S
C2793 H2780 0.929 . S
C2793 C2785 1.433 . S
C2793 N2795 1.384 . S
N2794 C2790 1.427 . S
N2794 C2791 1.384 . S
N2795 C2787 1.427 . S
N2795 C2793 1.384 . S
H2796 C2802 0.930 . S
H2797 C2806 0.930 . S
H2798 C2811 0.929 . S
H2799 C2809 0.929 . S
H2800 C2804 0.929 . S
H2801 C2810 0.929 . S
C2802 H2796 0.930 . S
C2802 C2803 1.367 . S
C2802 C2810 1.378 . S
C2803 C2802 1.367 . S
C2803 C2811 1.433 . S
C2804 H2800 0.929 . S
C2804 C2806 1.378 . S
C2804 C2808 1.350 . S
C2805 C2808 1.463 . S
C2805 C2810 1.350 . S
C2805 N2813 1.427 . S
C2806 H2797 0.930 . S
C2806 C2804 1.378 . S
C2806 C2807 1.367 . S
C2807 C2806 1.367 . S
C2807 C2809 1.433 . S
C2808 C2804 1.350 . S
C2808 C2805 1.463 . S
C2808 N2812 1.427 . S
C2809 H2799 0.929 . S
C2809 C2807 1.433 . S
C2809 N2812 1.384 . S
C2810 H2801 0.929 . S
C2810 C2802 1.378 . S
C2810 C2805 1.350 . S
C2811 H2798 0.929 . S
C2811 C2803 1.433 . S
C2811 N2813 1.384 . S
N2812 C2808 1.427 . S
N2812 C2809 1.384 . S
N2813 C2805 1.427 . S
N2813 C2811 1.384 . S
H2814 C2820 0.930 . S
H2815 C2824 0.930 . S
H2816 C2829 0.929 . S
H2817 C2827 0.929 . S
H2818 C2822 0.929 . S
H2819 C2828 0.929 . S
C2820 H2814 0.930 . S
C2820 C2821 1.367 . S
C2820 C2828 1.378 . S
C2821 C2820 1.367 . S
C2821 C2829 1.433 . S
C2822 H2818 0.929 . S
C2822 C2824 1.378 . S
C2822 C2826 1.350 . S
C2823 C2826 1.463 . S
C2823 C2828 1.350 . S
C2823 N2831 1.427 . S
C2824 H2815 0.930 . S
C2824 C2822 1.378 . S
C2824 C2825 1.367 . S
C2825 C2824 1.367 . S
C2825 C2827 1.433 . S
C2826 C2822 1.350 . S
C2826 C2823 1.463 . S
C2826 N2830 1.427 . S
C2827 H2817 0.929 . S
C2827 C2825 1.433 . S
C2827 N2830 1.384 . S
C2828 H2819 0.929 . S
C2828 C2820 1.378 . S
C2828 C2823 1.350 . S
C2829 H2816 0.929 . S
C2829 C2821 1.433 . S
C2829 N2831 1.384 . S
N2830 C2826 1.427 . S
N2830 C2827 1.384 . S
N2831 C2823 1.427 . S
N2831 C2829 1.384 . S
H2832 C2838 0.930 . S
H2833 C2842 0.930 . S
H2834 C2847 0.929 . S
H2835 C2845 0.929 . S
H2836 C2840 0.929 . S
H2837 C2846 0.929 . S
C2838 H2832 0.930 . S
C2838 C2839 1.367 . S
C2838 C2846 1.378 . S
C2839 C2838 1.367 . S
C2839 C2847 1.433 . S
C2840 H2836 0.929 . S
C2840 C2842 1.378 . S
C2840 C2844 1.350 . S
C2841 C2844 1.463 . S
C2841 C2846 1.350 . S
C2841 N2849 1.427 . S
C2842 H2833 0.930 . S
C2842 C2840 1.378 . S
C2842 C2843 1.367 . S
C2843 C2842 1.367 . S
C2843 C2845 1.433 . S
C2844 C2840 1.350 . S
C2844 C2841 1.463 . S
C2844 N2848 1.427 . S
C2845 H2835 0.929 . S
C2845 C2843 1.433 . S
C2845 N2848 1.384 . S
C2846 H2837 0.929 . S
C2846 C2838 1.378 . S
C2846 C2841 1.350 . S
C2847 H2834 0.929 . S
C2847 C2839 1.433 . S
C2847 N2849 1.384 . S
N2848 C2844 1.427 . S
N2848 C2845 1.384 . S
N2849 C2841 1.427 . S
N2849 C2847 1.384 . S
H2850 C2856 0.930 . S
H2851 C2860 0.930 . S
H2852 C2865 0.929 . S
H2853 C2863 0.929 . S
H2854 C2858 0.929 . S
H2855 C2864 0.929 . S
C2856 H2850 0.930 . S
C2856 C2857 1.367 . S
C2856 C2864 1.378 . S
C2857 C2856 1.367 . S
C2857 C2865 1.433 . S
C2858 H2854 0.929 . S
C2858 C2860 1.378 . S
C2858 C2862 1.350 . S
C2859 C2862 1.463 . S
C2859 C2864 1.350 . S
C2859 N2867 1.427 . S
C2860 H2851 0.930 . S
C2860 C2858 1.378 . S
C2860 C2861 1.367 . S
C2861 C2860 1.367 . S
C2861 C2863 1.433 . S
C2862 C2858 1.350 . S
C2862 C2859 1.463 . S
C2862 N2866 1.427 . S
C2863 H2853 0.929 . S
C2863 C2861 1.433 . S
C2863 N2866 1.384 . S
C2864 H2855 0.929 . S
C2864 C2856 1.378 . S
C2864 C2859 1.350 . S
C2865 H2852 0.929 . S
C2865 C2857 1.433 . S
C2865 N2867 1.384 . S
N2866 C2862 1.427 . S
N2866 C2863 1.384 . S
N2867 C2859 1.427 . S
N2867 C2865 1.384 . S
H2868 C2874 0.930 . S
H2869 C2878 0.930 . S
H2870 C2883 0.929 . S
H2871 C2881 0.929 . S
H2872 C2876 0.929 . S
H2873 C2882 0.929 . S
C2874 H2868 0.930 . S
C2874 C2875 1.367 . S
C2874 C2882 1.378 . S
C2875 C2874 1.367 . S
C2875 C2883 1.433 . S
C2876 H2872 0.929 . S
C2876 C2878 1.378 . S
C2876 C2880 1.350 . S
C2877 C2880 1.463 . S
C2877 C2882 1.350 . S
C2877 N2885 1.427 . S
C2878 H2869 0.930 . S
C2878 C2876 1.378 . S
C2878 C2879 1.367 . S
C2879 C2878 1.367 . S
C2879 C2881 1.433 . S
C2880 C2876 1.350 . S
C2880 C2877 1.463 . S
C2880 N2884 1.427 . S
C2881 H2871 0.929 . S
C2881 C2879 1.433 . S
C2881 N2884 1.384 . S
C2882 H2873 0.929 . S
C2882 C2874 1.378 . S
C2882 C2877 1.350 . S
C2883 H2870 0.929 . S
C2883 C2875 1.433 . S
C2883 N2885 1.384 . S
N2884 C2880 1.427 . S
N2884 C2881 1.384 . S
N2885 C2877 1.427 . S
N2885 C2883 1.384 . S
H2886 C2892 0.930 . S
H2887 C2896 0.930 . S
H2888 C2901 0.929 . S
H2889 C2899 0.929 . S
H2890 C2894 0.929 . S
H2891 C2900 0.929 . S
C2892 H2886 0.930 . S
C2892 C2893 1.367 . S
C2892 C2900 1.378 . S
C2893 C2892 1.367 . S
C2893 C2901 1.433 . S
C2894 H2890 0.929 . S
C2894 C2896 1.378 . S
C2894 C2898 1.350 . S
C2895 C2898 1.463 . S
C2895 C2900 1.350 . S
C2895 N2903 1.427 . S
C2896 H2887 0.930 . S
C2896 C2894 1.378 . S
C2896 C2897 1.367 . S
C2897 C2896 1.367 . S
C2897 C2899 1.433 . S
C2898 C2894 1.350 . S
C2898 C2895 1.463 . S
C2898 N2902 1.427 . S
C2899 H2889 0.929 . S
C2899 C2897 1.433 . S
C2899 N2902 1.384 . S
C2900 H2891 0.929 . S
C2900 C2892 1.378 . S
C2900 C2895 1.350 . S
C2901 H2888 0.929 . S
C2901 C2893 1.433 . S
C2901 N2903 1.384 . S
N2902 C2898 1.427 . S
N2902 C2899 1.384 . S
N2903 C2895 1.427 . S
N2903 C2901 1.384 . S
H2904 C2910 0.930 . S
H2905 C2914 0.930 . S
H2906 C2919 0.929 . S
H2907 C2917 0.929 . S
H2908 C2912 0.929 . S
H2909 C2918 0.929 . S
C2910 H2904 0.930 . S
C2910 C2911 1.367 . S
C2910 C2918 1.378 . S
C2911 C2910 1.367 . S
C2911 C2919 1.433 . S
C2912 H2908 0.929 . S
C2912 C2914 1.378 . S
C2912 C2916 1.350 . S
C2913 C2916 1.463 . S
C2913 C2918 1.350 . S
C2913 N2921 1.427 . S
C2914 H2905 0.930 . S
C2914 C2912 1.378 . S
C2914 C2915 1.367 . S
C2915 C2914 1.367 . S
C2915 C2917 1.433 . S
C2916 C2912 1.350 . S
C2916 C2913 1.463 . S
C2916 N2920 1.427 . S
C2917 H2907 0.929 . S
C2917 C2915 1.433 . S
C2917 N2920 1.384 . S
C2918 H2909 0.929 . S
C2918 C2910 1.378 . S
C2918 C2913 1.350 . S
C2919 H2906 0.929 . S
C2919 C2911 1.433 . S
C2919 N2921 1.384 . S
N2920 C2916 1.427 . S
N2920 C2917 1.384 . S
N2921 C2913 1.427 . S
N2921 C2919 1.384 . S
H2922 C2928 0.930 . S
H2923 C2932 0.930 . S
H2924 C2937 0.929 . S
H2925 C2935 0.929 . S
H2926 C2930 0.929 . S
H2927 C2936 0.929 . S
C2928 H2922 0.930 . S
C2928 C2929 1.367 . S
C2928 C2936 1.378 . S
C2929 C2928 1.367 . S
C2929 C2937 1.433 . S
C2930 H2926 0.929 . S
C2930 C2932 1.378 . S
C2930 C2934 1.350 . S
C2931 C2934 1.463 . S
C2931 C2936 1.350 . S
C2931 N2939 1.427 . S
C2932 H2923 0.930 . S
C2932 C2930 1.378 . S
C2932 C2933 1.367 . S
C2933 C2932 1.367 . S
C2933 C2935 1.433 . S
C2934 C2930 1.350 . S
C2934 C2931 1.463 . S
C2934 N2938 1.427 . S
C2935 H2925 0.929 . S
C2935 C2933 1.433 . S
C2935 N2938 1.384 . S
C2936 H2927 0.929 . S
C2936 C2928 1.378 . S
C2936 C2931 1.350 . S
C2937 H2924 0.929 . S
C2937 C2929 1.433 . S
C2937 N2939 1.384 . S
N2938 C2934 1.427 . S
N2938 C2935 1.384 . S
N2939 C2931 1.427 . S
N2939 C2937 1.384 . S
H2940 C2946 0.930 . S
H2941 C2950 0.930 . S
H2942 C2955 0.929 . S
H2943 C2953 0.929 . S
H2944 C2948 0.929 . S
H2945 C2954 0.929 . S
C2946 H2940 0.930 . S
C2946 C2947 1.367 . S
C2946 C2954 1.378 . S
C2947 C2946 1.367 . S
C2947 C2955 1.433 . S
C2948 H2944 0.929 . S
C2948 C2950 1.378 . S
C2948 C2952 1.350 . S
C2949 C2952 1.463 . S
C2949 C2954 1.350 . S
C2949 N2957 1.427 . S
C2950 H2941 0.930 . S
C2950 C2948 1.378 . S
C2950 C2951 1.367 . S
C2951 C2950 1.367 . S
C2951 C2953 1.433 . S
C2952 C2948 1.350 . S
C2952 C2949 1.463 . S
C2952 N2956 1.427 . S
C2953 H2943 0.929 . S
C2953 C2951 1.433 . S
C2953 N2956 1.384 . S
C2954 H2945 0.929 . S
C2954 C2946 1.378 . S
C2954 C2949 1.350 . S
C2955 H2942 0.929 . S
C2955 C2947 1.433 . S
C2955 N2957 1.384 . S
N2956 C2952 1.427 . S
N2956 C2953 1.384 . S
N2957 C2949 1.427 . S
N2957 C2955 1.384 . S
H2958 C2964 0.930 . S
H2959 C2968 0.930 . S
H2960 C2973 0.929 . S
H2961 C2971 0.929 . S
H2962 C2966 0.929 . S
H2963 C2972 0.929 . S
C2964 H2958 0.930 . S
C2964 C2965 1.367 . S
C2964 C2972 1.378 . S
C2965 C2964 1.367 . S
C2965 C2973 1.433 . S
C2966 H2962 0.929 . S
C2966 C2968 1.378 . S
C2966 C2970 1.350 . S
C2967 C2970 1.463 . S
C2967 C2972 1.350 . S
C2967 N2975 1.427 . S
C2968 H2959 0.930 . S
C2968 C2966 1.378 . S
C2968 C2969 1.367 . S
C2969 C2968 1.367 . S
C2969 C2971 1.433 . S
C2970 C2966 1.350 . S
C2970 C2967 1.463 . S
C2970 N2974 1.427 . S
C2971 H2961 0.929 . S
C2971 C2969 1.433 . S
C2971 N2974 1.384 . S
C2972 H2963 0.929 . S
C2972 C2964 1.378 . S
C2972 C2967 1.350 . S
C2973 H2960 0.929 . S
C2973 C2965 1.433 . S
C2973 N2975 1.384 . S
N2974 C2970 1.427 . S
N2974 C2971 1.384 . S
N2975 C2967 1.427 . S
N2975 C2973 1.384 . S
H2976 C2982 0.930 . S
H2977 C2986 0.930 . S
H2978 C2991 0.929 . S
H2979 C2989 0.929 . S
H2980 C2984 0.929 . S
H2981 C2990 0.929 . S
C2982 H2976 0.930 . S
C2982 C2983 1.367 . S
C2982 C2990 1.378 . S
C2983 C2982 1.367 . S
C2983 C2991 1.433 . S
C2984 H2980 0.929 . S
C2984 C2986 1.378 . S
C2984 C2988 1.350 . S
C2985 C2988 1.463 . S
C2985 C2990 1.350 . S
C2985 N2993 1.427 . S
C2986 H2977 0.930 . S
C2986 C2984 1.378 . S
C2986 C2987 1.367 . S
C2987 C2986 1.367 . S
C2987 C2989 1.433 . S
C2988 C2984 1.350 . S
C2988 C2985 1.463 . S
C2988 N2992 1.427 . S
C2989 H2979 0.929 . S
C2989 C2987 1.433 . S
C2989 N2992 1.384 . S
C2990 H2981 0.929 . S
C2990 C2982 1.378 . S
C2990 C2985 1.350 . S
C2991 H2978 0.929 . S
C2991 C2983 1.433 . S
C2991 N2993 1.384 . S
N2992 C2988 1.427 . S
N2992 C2989 1.384 . S
N2993 C2985 1.427 . S
N2993 C2991 1.384 . S
H2994 C3000 0.930 . S
H2995 C3004 0.930 . S
H2996 C3009 0.929 . S
H2997 C3007 0.929 . S
H2998 C3002 0.929 . S
H2999 C3008 0.929 . S
C3000 H2994 0.930 . S
C3000 C3001 1.367 . S
C3000 C3008 1.378 . S
C3001 C3000 1.367 . S
C3001 C3009 1.433 . S
C3002 H2998 0.929 . S
C3002 C3004 1.378 . S
C3002 C3006 1.350 . S
C3003 C3006 1.463 . S
C3003 C3008 1.350 . S
C3003 N3011 1.427 . S
C3004 H2995 0.930 . S
C3004 C3002 1.378 . S
C3004 C3005 1.367 . S
C3005 C3004 1.367 . S
C3005 C3007 1.433 . S
C3006 C3002 1.350 . S
C3006 C3003 1.463 . S
C3006 N3010 1.427 . S
C3007 H2997 0.929 . S
C3007 C3005 1.433 . S
C3007 N3010 1.384 . S
C3008 H2999 0.929 . S
C3008 C3000 1.378 . S
C3008 C3003 1.350 . S
C3009 H2996 0.929 . S
C3009 C3001 1.433 . S
C3009 N3011 1.384 . S
N3010 C3006 1.427 . S
N3010 C3007 1.384 . S
N3011 C3003 1.427 . S
N3011 C3009 1.384 . S
H3012 C3018 0.930 . S
H3013 C3022 0.930 1_565 S
H3014 C3027 0.929 . S
H3015 C3025 0.929 . S
H3016 C3020 0.929 . S
H3017 C3026 0.929 . S
C3018 H3012 0.930 . S
C3018 C3019 1.367 . S
C3018 C3026 1.378 . S
C3019 C3018 1.367 . S
C3019 C3027 1.433 . S
C3020 H3016 0.929 . S
C3020 C3022 1.378 . S
C3020 C3024 1.350 . S
C3021 C3024 1.463 . S
C3021 C3026 1.350 . S
C3021 N3029 1.427 . S
C3022 H3013 0.930 1_545 S
C3022 C3020 1.378 . S
C3022 C3023 1.367 . S
C3023 C3022 1.367 . S
C3023 C3025 1.433 . S
C3024 C3020 1.350 . S
C3024 C3021 1.463 . S
C3024 N3028 1.427 . S
C3025 H3015 0.929 . S
C3025 C3023 1.433 . S
C3025 N3028 1.384 . S
C3026 H3017 0.929 . S
C3026 C3018 1.378 . S
C3026 C3021 1.350 . S
C3027 H3014 0.929 . S
C3027 C3019 1.433 . S
C3027 N3029 1.384 . S
N3028 C3024 1.427 . S
N3028 C3025 1.384 . S
N3029 C3021 1.427 . S
N3029 C3027 1.384 . S
H3030 C3036 0.930 1_554 S
H3031 C3040 0.930 . S
H3032 C3045 0.929 . S
H3033 C3043 0.929 . S
H3034 C3038 0.929 . S
H3035 C3044 0.929 . S
C3036 H3030 0.930 1_556 S
C3036 C3037 1.367 . S
C3036 C3044 1.378 . S
C3037 C3036 1.367 . S
C3037 C3045 1.433 . S
C3038 H3034 0.929 . S
C3038 C3040 1.378 . S
C3038 C3042 1.350 . S
C3039 C3042 1.463 . S
C3039 C3044 1.350 . S
C3039 N3047 1.427 . S
C3040 H3031 0.930 . S
C3040 C3038 1.378 . S
C3040 C3041 1.367 . S
C3041 C3040 1.367 . S
C3041 C3043 1.433 . S
C3042 C3038 1.350 . S
C3042 C3039 1.463 . S
C3042 N3046 1.427 . S
C3043 H3033 0.929 . S
C3043 C3041 1.433 . S
C3043 N3046 1.384 . S
C3044 H3035 0.929 . S
C3044 C3036 1.378 . S
C3044 C3039 1.350 . S
C3045 H3032 0.929 . S
C3045 C3037 1.433 . S
C3045 N3047 1.384 . S
N3046 C3042 1.427 . S
N3046 C3043 1.384 . S
N3047 C3039 1.427 . S
N3047 C3045 1.384 . S
H3048 C3054 0.930 . S
H3049 C3058 0.930 . S
H3050 C3063 0.929 . S
H3051 C3061 0.929 . S
H3052 C3056 0.929 . S
H3053 C3062 0.929 . S
C3054 H3048 0.930 . S
C3054 C3055 1.367 . S
C3054 C3062 1.378 . S
C3055 C3054 1.367 . S
C3055 C3063 1.433 . S
C3056 H3052 0.929 . S
C3056 C3058 1.378 . S
C3056 C3060 1.350 . S
C3057 C3060 1.463 . S
C3057 C3062 1.350 . S
C3057 N3065 1.427 . S
C3058 H3049 0.930 . S
C3058 C3056 1.378 . S
C3058 C3059 1.367 . S
C3059 C3058 1.367 . S
C3059 C3061 1.433 . S
C3060 C3056 1.350 . S
C3060 C3057 1.463 . S
C3060 N3064 1.427 . S
C3061 H3051 0.929 . S
C3061 C3059 1.433 . S
C3061 N3064 1.384 . S
C3062 H3053 0.929 . S
C3062 C3054 1.378 . S
C3062 C3057 1.350 . S
C3063 H3050 0.929 . S
C3063 C3055 1.433 . S
C3063 N3065 1.384 . S
N3064 C3060 1.427 . S
N3064 C3061 1.384 . S
N3065 C3057 1.427 . S
N3065 C3063 1.384 . S
H3066 C3072 0.930 . S
H3067 C3076 0.930 . S
H3068 C3081 0.929 . S
H3069 C3079 0.929 . S
H3070 C3074 0.929 . S
H3071 C3080 0.929 . S
C3072 H3066 0.930 . S
C3072 C3073 1.367 . S
C3072 C3080 1.378 . S
C3073 C3072 1.367 . S
C3073 C3081 1.433 . S
C3074 H3070 0.929 . S
C3074 C3076 1.378 . S
C3074 C3078 1.350 . S
C3075 C3078 1.463 . S
C3075 C3080 1.350 . S
C3075 N3083 1.427 . S
C3076 H3067 0.930 . S
C3076 C3074 1.378 . S
C3076 C3077 1.367 . S
C3077 C3076 1.367 . S
C3077 C3079 1.433 . S
C3078 C3074 1.350 . S
C3078 C3075 1.463 . S
C3078 N3082 1.427 . S
C3079 H3069 0.929 . S
C3079 C3077 1.433 . S
C3079 N3082 1.384 . S
C3080 H3071 0.929 . S
C3080 C3072 1.378 . S
C3080 C3075 1.350 . S
C3081 H3068 0.929 . S
C3081 C3073 1.433 . S
C3081 N3083 1.384 . S
N3082 C3078 1.427 . S
N3082 C3079 1.384 . S
N3083 C3075 1.427 . S
N3083 C3081 1.384 . S
H3084 C3090 0.930 . S
H3085 C3094 0.930 . S
H3086 C3099 0.929 . S
H3087 C3097 0.929 . S
H3088 C3092 0.929 . S
H3089 C3098 0.929 . S
C3090 H3084 0.930 . S
C3090 C3091 1.367 . S
C3090 C3098 1.378 . S
C3091 C3090 1.367 . S
C3091 C3099 1.433 . S
C3092 H3088 0.929 . S
C3092 C3094 1.378 . S
C3092 C3096 1.350 . S
C3093 C3096 1.463 . S
C3093 C3098 1.350 . S
C3093 N3101 1.427 . S
C3094 H3085 0.930 . S
C3094 C3092 1.378 . S
C3094 C3095 1.367 . S
C3095 C3094 1.367 . S
C3095 C3097 1.433 . S
C3096 C3092 1.350 . S
C3096 C3093 1.463 . S
C3096 N3100 1.427 . S
C3097 H3087 0.929 . S
C3097 C3095 1.433 . S
C3097 N3100 1.384 . S
C3098 H3089 0.929 . S
C3098 C3090 1.378 . S
C3098 C3093 1.350 . S
C3099 H3086 0.929 . S
C3099 C3091 1.433 . S
C3099 N3101 1.384 . S
N3100 C3096 1.427 . S
N3100 C3097 1.384 . S
N3101 C3093 1.427 . S
N3101 C3099 1.384 . S
H3102 C3108 0.930 . S
H3103 C3112 0.930 . S
H3104 C3117 0.921 1_565 S
H3105 C3115 0.929 . S
H3106 C3110 0.929 . S
H3107 C3116 0.929 . S
C3108 H3102 0.930 . S
C3108 C3109 1.367 1_545 S
C3108 C3116 1.378 . S
C3109 C3108 1.367 1_565 S
C3109 C3117 1.431 1_565 S
C3110 H3106 0.929 . S
C3110 C3112 1.378 . S
C3110 C3114 1.350 . S
C3111 C3114 1.463 . S
C3111 C3116 1.350 . S
C3111 N3119 1.427 . S
C3112 H3103 0.930 . S
C3112 C3110 1.378 . S
C3112 C3113 1.367 . S
C3113 C3112 1.367 . S
C3113 C3115 1.433 . S
C3114 C3110 1.350 . S
C3114 C3111 1.463 . S
C3114 N3118 1.427 . S
C3115 H3105 0.929 . S
C3115 C3113 1.433 . S
C3115 N3118 1.384 . S
C3116 H3107 0.929 . S
C3116 C3108 1.378 . S
C3116 C3111 1.350 . S
C3117 H3104 0.921 1_545 S
C3117 C3109 1.431 1_545 S
C3117 N3119 1.395 . S
N3118 C3114 1.427 . S
N3118 C3115 1.384 . S
N3119 C3111 1.427 . S
N3119 C3117 1.395 . S
H3120 C3126 0.930 . S
H3121 C3130 0.930 . S
H3122 C3135 0.929 . S
H3123 C3133 0.929 . S
H3124 C3128 0.929 . S
H3125 C3134 0.929 . S
C3126 H3120 0.930 . S
C3126 C3127 1.367 . S
C3126 C3134 1.378 . S
C3127 C3126 1.367 . S
C3127 C3135 1.433 . S
C3128 H3124 0.929 . S
C3128 C3130 1.378 . S
C3128 C3132 1.350 . S
C3129 C3132 1.463 . S
C3129 C3134 1.350 . S
C3129 N3137 1.427 . S
C3130 H3121 0.930 . S
C3130 C3128 1.378 . S
C3130 C3131 1.367 . S
C3131 C3130 1.367 . S
C3131 C3133 1.433 . S
C3132 C3128 1.350 . S
C3132 C3129 1.463 . S
C3132 N3136 1.427 . S
C3133 H3123 0.929 . S
C3133 C3131 1.433 . S
C3133 N3136 1.384 . S
C3134 H3125 0.929 . S
C3134 C3126 1.378 . S
C3134 C3129 1.350 . S
C3135 H3122 0.929 . S
C3135 C3127 1.433 . S
C3135 N3137 1.384 . S
N3136 C3132 1.427 . S
N3136 C3133 1.384 . S
N3137 C3129 1.427 . S
N3137 C3135 1.384 . S
H3138 C3144 0.930 . S
H3139 C3148 0.930 . S
H3140 C3153 0.929 . S
H3141 C3151 0.929 . S
H3142 C3146 0.929 . S
H3143 C3152 0.929 . S
C3144 H3138 0.930 . S
C3144 C3145 1.367 . S
C3144 C3152 1.378 . S
C3145 C3144 1.367 . S
C3145 C3153 1.433 . S
C3146 H3142 0.929 . S
C3146 C3148 1.378 . S
C3146 C3150 1.350 . S
C3147 C3150 1.463 . S
C3147 C3152 1.350 . S
C3147 N3155 1.427 . S
C3148 H3139 0.930 . S
C3148 C3146 1.378 . S
C3148 C3149 1.367 . S
C3149 C3148 1.367 . S
C3149 C3151 1.433 . S
C3150 C3146 1.350 . S
C3150 C3147 1.463 . S
C3150 N3154 1.427 . S
C3151 H3141 0.929 . S
C3151 C3149 1.433 . S
C3151 N3154 1.384 . S
C3152 H3143 0.929 . S
C3152 C3144 1.378 . S
C3152 C3147 1.350 . S
C3153 H3140 0.929 . S
C3153 C3145 1.433 . S
C3153 N3155 1.384 . S
N3154 C3150 1.427 . S
N3154 C3151 1.384 . S
N3155 C3147 1.427 . S
N3155 C3153 1.384 . S
H3156 C3162 0.930 . S
H3157 C3166 0.930 . S
H3158 C3171 0.929 . S
H3159 C3169 0.929 . S
H3160 C3164 0.929 . S
H3161 C3170 0.929 . S
C3162 H3156 0.930 . S
C3162 C3163 1.367 . S
C3162 C3170 1.378 . S
C3163 C3162 1.367 . S
C3163 C3171 1.433 . S
C3164 H3160 0.929 . S
C3164 C3166 1.378 . S
C3164 C3168 1.350 . S
C3165 C3168 1.463 . S
C3165 C3170 1.350 . S
C3165 N3173 1.427 . S
C3166 H3157 0.930 . S
C3166 C3164 1.378 . S
C3166 C3167 1.367 . S
C3167 C3166 1.367 . S
C3167 C3169 1.433 . S
C3168 C3164 1.350 . S
C3168 C3165 1.463 . S
C3168 N3172 1.427 . S
C3169 H3159 0.929 . S
C3169 C3167 1.433 . S
C3169 N3172 1.384 . S
C3170 H3161 0.929 . S
C3170 C3162 1.378 . S
C3170 C3165 1.350 . S
C3171 H3158 0.929 . S
C3171 C3163 1.433 . S
C3171 N3173 1.384 . S
N3172 C3168 1.427 . S
N3172 C3169 1.384 . S
N3173 C3165 1.427 . S
N3173 C3171 1.384 . S
H3174 C3180 0.930 . S
H3175 C3184 0.930 . S
H3176 C3189 0.929 . S
H3177 C3187 0.929 . S
H3178 C3182 0.929 . S
H3179 C3188 0.929 . S
C3180 H3174 0.930 . S
C3180 C3181 1.367 . S
C3180 C3188 1.378 . S
C3181 C3180 1.367 . S
C3181 C3189 1.433 . S
C3182 H3178 0.929 . S
C3182 C3184 1.378 . S
C3182 C3186 1.350 . S
C3183 C3186 1.463 . S
C3183 C3188 1.350 . S
C3183 N3191 1.427 . S
C3184 H3175 0.930 . S
C3184 C3182 1.378 . S
C3184 C3185 1.367 . S
C3185 C3184 1.367 . S
C3185 C3187 1.433 . S
C3186 C3182 1.350 . S
C3186 C3183 1.463 . S
C3186 N3190 1.427 . S
C3187 H3177 0.929 . S
C3187 C3185 1.433 . S
C3187 N3190 1.384 . S
C3188 H3179 0.929 . S
C3188 C3180 1.378 . S
C3188 C3183 1.350 . S
C3189 H3176 0.929 . S
C3189 C3181 1.433 . S
C3189 N3191 1.384 . S
N3190 C3186 1.427 . S
N3190 C3187 1.384 . S
N3191 C3183 1.427 . S
N3191 C3189 1.384 . S
H3192 C3198 0.930 . S
H3193 C3202 0.930 . S
H3194 C3207 0.929 . S
H3195 C3205 0.929 . S
H3196 C3200 0.929 . S
H3197 C3206 0.929 . S
C3198 H3192 0.930 . S
C3198 C3199 1.367 . S
C3198 C3206 1.378 . S
C3199 C3198 1.367 . S
C3199 C3207 1.433 . S
C3200 H3196 0.929 . S
C3200 C3202 1.378 . S
C3200 C3204 1.350 . S
C3201 C3204 1.463 . S
C3201 C3206 1.350 . S
C3201 N3209 1.427 . S
C3202 H3193 0.930 . S
C3202 C3200 1.378 . S
C3202 C3203 1.367 . S
C3203 C3202 1.367 . S
C3203 C3205 1.433 . S
C3204 C3200 1.350 . S
C3204 C3201 1.463 . S
C3204 N3208 1.427 . S
C3205 H3195 0.929 . S
C3205 C3203 1.433 . S
C3205 N3208 1.384 . S
C3206 H3197 0.929 . S
C3206 C3198 1.378 . S
C3206 C3201 1.350 . S
C3207 H3194 0.929 . S
C3207 C3199 1.433 . S
C3207 N3209 1.384 . S
N3208 C3204 1.427 . S
N3208 C3205 1.384 . S
N3209 C3201 1.427 . S
N3209 C3207 1.384 . S
H3210 C3216 0.970 . S
H3211 C3220 0.930 . S
H3212 C3225 0.929 . S
H3213 C3223 0.929 . S
H3214 C3218 0.929 . S
H3215 C3224 0.929 . S
C3216 H3210 0.970 . S
C3216 C3217 1.367 . S
C3216 C3224 1.378 . S
C3217 C3216 1.367 . S
C3217 C3225 1.433 . S
C3218 H3214 0.929 . S
C3218 C3220 1.378 . S
C3218 C3222 1.350 . S
C3219 C3222 1.463 . S
C3219 C3224 1.350 . S
C3219 N3227 1.427 . S
C3220 H3211 0.930 . S
C3220 C3218 1.378 . S
C3220 C3221 1.367 . S
C3221 C3220 1.367 . S
C3221 C3223 1.433 . S
C3222 C3218 1.350 . S
C3222 C3219 1.463 . S
C3222 N3226 1.427 . S
C3223 H3213 0.929 . S
C3223 C3221 1.433 . S
C3223 N3226 1.384 . S
C3224 H3215 0.929 . S
C3224 C3216 1.378 . S
C3224 C3219 1.350 . S
C3225 H3212 0.929 . S
C3225 C3217 1.433 . S
C3225 N3227 1.384 . S
N3226 C3222 1.427 . S
N3226 C3223 1.384 . S
N3227 C3219 1.427 . S
N3227 C3225 1.384 . S
H3228 C3234 0.930 . S
H3229 C3238 0.930 . S
H3230 C3243 0.929 . S
H3231 C3241 0.929 . S
H3232 C3236 0.929 . S
H3233 C3242 0.929 . S
C3234 H3228 0.930 . S
C3234 C3235 1.367 . S
C3234 C3242 1.378 . S
C3235 C3234 1.367 . S
C3235 C3243 1.433 . S
C3236 H3232 0.929 . S
C3236 C3238 1.378 . S
C3236 C3240 1.350 . S
C3237 C3240 1.463 . S
C3237 C3242 1.350 . S
C3237 N3245 1.427 . S
C3238 H3229 0.930 . S
C3238 C3236 1.378 . S
C3238 C3239 1.367 . S
C3239 C3238 1.367 . S
C3239 C3241 1.433 . S
C3240 C3236 1.350 . S
C3240 C3237 1.463 . S
C3240 N3244 1.427 . S
C3241 H3231 0.929 . S
C3241 C3239 1.433 . S
C3241 N3244 1.384 . S
C3242 H3233 0.929 . S
C3242 C3234 1.378 . S
C3242 C3237 1.350 . S
C3243 H3230 0.929 . S
C3243 C3235 1.433 . S
C3243 N3245 1.384 . S
N3244 C3240 1.427 . S
N3244 C3241 1.384 . S
N3245 C3237 1.427 . S
N3245 C3243 1.384 . S
H3246 C3252 0.930 . S
H3247 C3256 0.930 . S
H3248 C3261 0.929 . S
H3249 C3259 0.929 . S
H3250 C3254 0.929 . S
H3251 C3260 0.929 . S
C3252 H3246 0.930 . S
C3252 C3253 1.367 . S
C3252 C3260 1.378 . S
C3253 C3252 1.367 . S
C3253 C3261 1.433 . S
C3254 H3250 0.929 . S
C3254 C3256 1.378 . S
C3254 C3258 1.350 . S
C3255 C3258 1.463 . S
C3255 C3260 1.350 . S
C3255 N3263 1.427 . S
C3256 H3247 0.930 . S
C3256 C3254 1.378 . S
C3256 C3257 1.367 . S
C3257 C3256 1.367 . S
C3257 C3259 1.433 . S
C3258 C3254 1.350 . S
C3258 C3255 1.463 . S
C3258 N3262 1.427 . S
C3259 H3249 0.929 . S
C3259 C3257 1.433 . S
C3259 N3262 1.384 . S
C3260 H3251 0.929 . S
C3260 C3252 1.378 . S
C3260 C3255 1.350 . S
C3261 H3248 0.929 . S
C3261 C3253 1.433 . S
C3261 N3263 1.384 . S
N3262 C3258 1.427 . S
N3262 C3259 1.384 . S
N3263 C3255 1.427 . S
N3263 C3261 1.384 . S
H3264 C3270 0.930 . S
H3265 C3274 0.930 . S
H3266 C3279 0.929 . S
H3267 C3277 0.929 . S
H3268 C3272 0.929 . S
H3269 C3278 0.929 . S
C3270 H3264 0.930 . S
C3270 C3271 1.367 . S
C3270 C3278 1.378 . S
C3271 C3270 1.367 . S
C3271 C3279 1.433 . S
C3272 H3268 0.929 . S
C3272 C3274 1.378 . S
C3272 C3276 1.350 . S
C3273 C3276 1.463 . S
C3273 C3278 1.350 . S
C3273 N3281 1.427 . S
C3274 H3265 0.930 . S
C3274 C3272 1.378 . S
C3274 C3275 1.367 . S
C3275 C3274 1.367 . S
C3275 C3277 1.433 . S
C3276 C3272 1.350 . S
C3276 C3273 1.463 . S
C3276 N3280 1.427 . S
C3277 H3267 0.929 . S
C3277 C3275 1.433 . S
C3277 N3280 1.384 . S
C3278 H3269 0.929 . S
C3278 C3270 1.378 . S
C3278 C3273 1.350 . S
C3279 H3266 0.929 . S
C3279 C3271 1.433 . S
C3279 N3281 1.384 . S
N3280 C3276 1.427 . S
N3280 C3277 1.384 . S
N3281 C3273 1.427 . S
N3281 C3279 1.384 . S
H3282 C3288 0.930 . S
H3283 C3292 0.930 . S
H3284 C3297 0.929 . S
H3285 C3295 0.929 . S
H3286 C3290 0.929 . S
H3287 C3296 0.929 . S
C3288 H3282 0.930 . S
C3288 C3289 1.367 . S
C3288 C3296 1.378 . S
C3289 C3288 1.367 . S
C3289 C3297 1.433 . S
C3290 H3286 0.929 . S
C3290 C3292 1.378 . S
C3290 C3294 1.350 . S
C3291 C3294 1.463 . S
C3291 C3296 1.350 . S
C3291 N3299 1.427 . S
C3292 H3283 0.930 . S
C3292 C3290 1.378 . S
C3292 C3293 1.367 . S
C3293 C3292 1.367 . S
C3293 C3295 1.433 . S
C3294 C3290 1.350 . S
C3294 C3291 1.463 . S
C3294 N3298 1.427 . S
C3295 H3285 0.929 . S
C3295 C3293 1.433 . S
C3295 N3298 1.384 . S
C3296 H3287 0.929 . S
C3296 C3288 1.378 . S
C3296 C3291 1.350 . S
C3297 H3284 0.929 . S
C3297 C3289 1.433 . S
C3297 N3299 1.384 . S
N3298 C3294 1.427 . S
N3298 C3295 1.384 . S
N3299 C3291 1.427 . S
N3299 C3297 1.384 . S
H3300 C3306 0.930 . S
H3301 C3310 0.930 . S
H3302 C3315 0.929 . S
H3303 C3313 0.929 . S
H3304 C3308 0.929 . S
H3305 C3314 0.929 . S
C3306 H3300 0.930 . S
C3306 C3307 1.367 . S
C3306 C3314 1.378 . S
C3307 C3306 1.367 . S
C3307 C3315 1.433 . S
C3308 H3304 0.929 . S
C3308 C3310 1.378 . S
C3308 C3312 1.350 . S
C3309 C3312 1.463 . S
C3309 C3314 1.350 . S
C3309 N3317 1.427 . S
C3310 H3301 0.930 . S
C3310 C3308 1.378 . S
C3310 C3311 1.367 . S
C3311 C3310 1.367 . S
C3311 C3313 1.433 . S
C3312 C3308 1.350 . S
C3312 C3309 1.463 . S
C3312 N3316 1.427 . S
C3313 H3303 0.929 . S
C3313 C3311 1.433 . S
C3313 N3316 1.384 . S
C3314 H3305 0.929 . S
C3314 C3306 1.378 . S
C3314 C3309 1.350 . S
C3315 H3302 0.929 . S
C3315 C3307 1.433 . S
C3315 N3317 1.384 . S
N3316 C3312 1.427 . S
N3316 C3313 1.384 . S
N3317 C3309 1.427 . S
N3317 C3315 1.384 . S
H3318 C3324 0.930 . S
H3319 C3328 0.930 . S
H3320 C3333 0.929 . S
H3321 C3331 0.929 . S
H3322 C3326 0.929 . S
H3323 C3332 0.929 . S
C3324 H3318 0.930 . S
C3324 C3325 1.367 . S
C3324 C3332 1.378 . S
C3325 C3324 1.367 . S
C3325 C3333 1.433 . S
C3326 H3322 0.929 . S
C3326 C3328 1.378 . S
C3326 C3330 1.350 . S
C3327 C3330 1.463 . S
C3327 C3332 1.350 . S
C3327 N3335 1.427 . S
C3328 H3319 0.930 . S
C3328 C3326 1.378 . S
C3328 C3329 1.367 . S
C3329 C3328 1.367 . S
C3329 C3331 1.433 . S
C3330 C3326 1.350 . S
C3330 C3327 1.463 . S
C3330 N3334 1.427 . S
C3331 H3321 0.929 . S
C3331 C3329 1.433 . S
C3331 N3334 1.384 . S
C3332 H3323 0.929 . S
C3332 C3324 1.378 . S
C3332 C3327 1.350 . S
C3333 H3320 0.929 . S
C3333 C3325 1.433 . S
C3333 N3335 1.384 . S
N3334 C3330 1.427 . S
N3334 C3331 1.384 . S
N3335 C3327 1.427 . S
N3335 C3333 1.384 . S
H3336 C3342 0.930 . S
H3337 C3346 0.930 . S
H3338 C3351 0.929 . S
H3339 C3349 0.929 . S
H3340 C3344 0.929 . S
H3341 C3350 0.929 . S
C3342 H3336 0.930 . S
C3342 C3343 1.367 . S
C3342 C3350 1.378 . S
C3343 C3342 1.367 . S
C3343 C3351 1.433 . S
C3344 H3340 0.929 . S
C3344 C3346 1.378 . S
C3344 C3348 1.350 . S
C3345 C3348 1.463 . S
C3345 C3350 1.350 . S
C3345 N3353 1.427 . S
C3346 H3337 0.930 . S
C3346 C3344 1.378 . S
C3346 C3347 1.367 . S
C3347 C3346 1.367 . S
C3347 C3349 1.433 . S
C3348 C3344 1.350 . S
C3348 C3345 1.463 . S
C3348 N3352 1.427 . S
C3349 H3339 0.929 . S
C3349 C3347 1.433 . S
C3349 N3352 1.384 . S
C3350 H3341 0.929 . S
C3350 C3342 1.378 . S
C3350 C3345 1.350 . S
C3351 H3338 0.929 . S
C3351 C3343 1.433 . S
C3351 N3353 1.384 . S
N3352 C3348 1.427 . S
N3352 C3349 1.384 . S
N3353 C3345 1.427 . S
N3353 C3351 1.384 . S
H3354 C3360 0.930 . S
H3355 C3364 0.930 . S
H3356 C3369 0.929 . S
H3357 C3367 0.929 . S
H3358 C3362 0.929 . S
H3359 C3368 0.929 . S
C3360 H3354 0.930 . S
C3360 C3361 1.367 . S
C3360 C3368 1.378 . S
C3361 C3360 1.367 . S
C3361 C3369 1.433 . S
C3362 H3358 0.929 . S
C3362 C3364 1.378 . S
C3362 C3366 1.350 . S
C3363 C3366 1.463 . S
C3363 C3368 1.350 . S
C3363 N3371 1.427 . S
C3364 H3355 0.930 . S
C3364 C3362 1.378 . S
C3364 C3365 1.367 . S
C3365 C3364 1.367 . S
C3365 C3367 1.433 . S
C3366 C3362 1.350 . S
C3366 C3363 1.463 . S
C3366 N3370 1.427 . S
C3367 H3357 0.929 . S
C3367 C3365 1.433 . S
C3367 N3370 1.384 . S
C3368 H3359 0.929 . S
C3368 C3360 1.378 . S
C3368 C3363 1.350 . S
C3369 H3356 0.929 . S
C3369 C3361 1.433 . S
C3369 N3371 1.384 . S
N3370 C3366 1.427 . S
N3370 C3367 1.384 . S
N3371 C3363 1.427 . S
N3371 C3369 1.384 . S
H3372 C3378 0.930 . S
H3373 C3382 0.930 . S
H3374 C3387 0.929 . S
H3375 C3385 0.929 . S
H3376 C3380 0.929 . S
H3377 C3386 0.929 . S
C3378 H3372 0.930 . S
C3378 C3379 1.367 . S
C3378 C3386 1.378 . S
C3379 C3378 1.367 . S
C3379 C3387 1.433 . S
C3380 H3376 0.929 . S
C3380 C3382 1.378 . S
C3380 C3384 1.350 . S
C3381 C3384 1.463 . S
C3381 C3386 1.350 . S
C3381 N3389 1.427 . S
C3382 H3373 0.930 . S
C3382 C3380 1.378 . S
C3382 C3383 1.367 . S
C3383 C3382 1.367 . S
C3383 C3385 1.433 . S
C3384 C3380 1.350 . S
C3384 C3381 1.463 . S
C3384 N3388 1.427 . S
C3385 H3375 0.929 . S
C3385 C3383 1.433 . S
C3385 N3388 1.384 . S
C3386 H3377 0.929 . S
C3386 C3378 1.378 . S
C3386 C3381 1.350 . S
C3387 H3374 0.929 . S
C3387 C3379 1.433 . S
C3387 N3389 1.384 . S
N3388 C3384 1.427 . S
N3388 C3385 1.384 . S
N3389 C3381 1.427 . S
N3389 C3387 1.384 . S
H3390 C3396 0.930 . S
H3391 C3400 0.930 . S
H3392 C3405 0.929 . S
H3393 C3403 0.929 . S
H3394 C3398 0.929 . S
H3395 C3404 0.929 . S
C3396 H3390 0.930 . S
C3396 C3397 1.367 . S
C3396 C3404 1.378 . S
C3397 C3396 1.367 . S
C3397 C3405 1.433 . S
C3398 H3394 0.929 . S
C3398 C3400 1.378 . S
C3398 C3402 1.350 . S
C3399 C3402 1.463 . S
C3399 C3404 1.350 . S
C3399 N3407 1.427 . S
C3400 H3391 0.930 . S
C3400 C3398 1.378 . S
C3400 C3401 1.367 . S
C3401 C3400 1.367 . S
C3401 C3403 1.433 . S
C3402 C3398 1.350 . S
C3402 C3399 1.463 . S
C3402 N3406 1.427 . S
C3403 H3393 0.929 . S
C3403 C3401 1.433 . S
C3403 N3406 1.384 . S
C3404 H3395 0.929 . S
C3404 C3396 1.378 . S
C3404 C3399 1.350 . S
C3405 H3392 0.929 . S
C3405 C3397 1.433 . S
C3405 N3407 1.384 . S
N3406 C3402 1.427 . S
N3406 C3403 1.384 . S
N3407 C3399 1.427 . S
N3407 C3405 1.384 . S
H3408 C3414 0.930 . S
H3409 C3418 0.930 . S
H3410 C3423 0.929 . S
H3411 C3421 0.929 . S
H3412 C3416 0.929 . S
H3413 C3422 0.929 . S
C3414 H3408 0.930 . S
C3414 C3415 1.367 . S
C3414 C3422 1.378 . S
C3415 C3414 1.367 . S
C3415 C3423 1.433 . S
C3416 H3412 0.929 . S
C3416 C3418 1.378 . S
C3416 C3420 1.350 . S
C3417 C3420 1.463 . S
C3417 C3422 1.350 . S
C3417 N3425 1.427 . S
C3418 H3409 0.930 . S
C3418 C3416 1.378 . S
C3418 C3419 1.367 . S
C3419 C3418 1.367 . S
C3419 C3421 1.433 . S
C3420 C3416 1.350 . S
C3420 C3417 1.463 . S
C3420 N3424 1.427 . S
C3421 H3411 0.929 . S
C3421 C3419 1.433 . S
C3421 N3424 1.384 . S
C3422 H3413 0.929 . S
C3422 C3414 1.378 . S
C3422 C3417 1.350 . S
C3423 H3410 0.929 . S
C3423 C3415 1.433 . S
C3423 N3425 1.384 . S
N3424 C3420 1.427 . S
N3424 C3421 1.384 . S
N3425 C3417 1.427 . S
N3425 C3423 1.384 . S
H3426 C3432 0.930 . S
H3427 C3436 0.930 . S
H3428 C3441 0.929 . S
H3429 C3439 0.929 . S
H3430 C3434 0.929 . S
H3431 C3440 0.929 . S
C3432 H3426 0.930 . S
C3432 C3433 1.367 . S
C3432 C3440 1.378 . S
C3433 C3432 1.367 . S
C3433 C3441 1.433 . S
C3434 H3430 0.929 . S
C3434 C3436 1.378 . S
C3434 C3438 1.350 . S
C3435 C3438 1.463 . S
C3435 C3440 1.350 . S
C3435 N3443 1.427 . S
C3436 H3427 0.930 . S
C3436 C3434 1.378 . S
C3436 C3437 1.367 . S
C3437 C3436 1.367 . S
C3437 C3439 1.433 . S
C3438 C3434 1.350 . S
C3438 C3435 1.463 . S
C3438 N3442 1.427 . S
C3439 H3429 0.929 . S
C3439 C3437 1.433 . S
C3439 N3442 1.384 . S
C3440 H3431 0.929 . S
C3440 C3432 1.378 . S
C3440 C3435 1.350 . S
C3441 H3428 0.929 . S
C3441 C3433 1.433 . S
C3441 N3443 1.384 . S
N3442 C3438 1.427 . S
N3442 C3439 1.384 . S
N3443 C3435 1.427 . S
N3443 C3441 1.384 . S
H3444 C3450 0.930 . S
H3445 C3454 0.930 . S
H3446 C3459 0.929 . S
H3447 C3457 0.929 . S
H3448 C3452 0.929 . S
H3449 C3458 0.929 . S
C3450 H3444 0.930 . S
C3450 C3451 1.367 . S
C3450 C3458 1.378 . S
C3451 C3450 1.367 . S
C3451 C3459 1.433 . S
C3452 H3448 0.929 . S
C3452 C3454 1.378 . S
C3452 C3456 1.350 . S
C3453 C3456 1.463 . S
C3453 C3458 1.350 . S
C3453 N3461 1.427 . S
C3454 H3445 0.930 . S
C3454 C3452 1.378 . S
C3454 C3455 1.367 . S
C3455 C3454 1.367 . S
C3455 C3457 1.433 . S
C3456 C3452 1.350 . S
C3456 C3453 1.463 . S
C3456 N3460 1.427 . S
C3457 H3447 0.929 . S
C3457 C3455 1.433 . S
C3457 N3460 1.384 . S
C3458 H3449 0.929 . S
C3458 C3450 1.378 . S
C3458 C3453 1.350 . S
C3459 H3446 0.929 . S
C3459 C3451 1.433 . S
C3459 N3461 1.384 . S
N3460 C3456 1.427 . S
N3460 C3457 1.384 . S
N3461 C3453 1.427 . S
N3461 C3459 1.384 . S
H3462 C3468 0.930 . S
H3463 C3472 0.930 1_556 S
H3464 C3477 0.929 . S
H3465 C3475 0.929 . S
H3466 C3470 0.929 . S
H3467 C3476 0.929 . S
C3468 H3462 0.930 . S
C3468 C3469 1.367 . S
C3468 C3476 1.378 . S
C3469 C3468 1.367 . S
C3469 C3477 1.433 . S
C3470 H3466 0.929 . S
C3470 C3472 1.378 . S
C3470 C3474 1.350 . S
C3471 C3474 1.463 . S
C3471 C3476 1.350 . S
C3471 N3479 1.427 . S
C3472 H3463 0.930 1_554 S
C3472 C3470 1.378 . S
C3472 C3473 1.367 . S
C3473 C3472 1.367 . S
C3473 C3475 1.433 . S
C3474 C3470 1.350 . S
C3474 C3471 1.463 . S
C3474 N3478 1.427 . S
C3475 H3465 0.929 . S
C3475 C3473 1.433 . S
C3475 N3478 1.384 . S
C3476 H3467 0.929 . S
C3476 C3468 1.378 . S
C3476 C3471 1.350 . S
C3477 H3464 0.929 . S
C3477 C3469 1.433 . S
C3477 N3479 1.384 . S
N3478 C3474 1.427 . S
N3478 C3475 1.384 . S
N3479 C3471 1.427 . S
N3479 C3477 1.384 . S
H3480 C3486 0.930 . S
H3481 C3490 0.930 . S
H3482 C3495 0.929 . S
H3483 C3493 0.929 . S
H3484 C3488 0.929 . S
H3485 C3494 0.929 . S
C3486 H3480 0.930 . S
C3486 C3487 1.367 . S
C3486 C3494 1.378 . S
C3487 C3486 1.367 . S
C3487 C3495 1.433 . S
C3488 H3484 0.929 . S
C3488 C3490 1.378 . S
C3488 C3492 1.350 . S
C3489 C3492 1.463 . S
C3489 C3494 1.350 . S
C3489 N3497 1.427 . S
C3490 H3481 0.930 . S
C3490 C3488 1.378 . S
C3490 C3491 1.367 . S
C3491 C3490 1.367 . S
C3491 C3493 1.433 . S
C3492 C3488 1.350 . S
C3492 C3489 1.463 . S
C3492 N3496 1.427 . S
C3493 H3483 0.929 . S
C3493 C3491 1.433 . S
C3493 N3496 1.384 . S
C3494 H3485 0.929 . S
C3494 C3486 1.378 . S
C3494 C3489 1.350 . S
C3495 H3482 0.929 . S
C3495 C3487 1.433 . S
C3495 N3497 1.384 . S
N3496 C3492 1.427 . S
N3496 C3493 1.384 . S
N3497 C3489 1.427 . S
N3497 C3495 1.384 . S
H3498 C3504 0.930 . S
H3499 C3508 0.930 . S
H3500 C3513 0.929 . S
H3501 C3511 0.929 . S
H3502 C3506 0.929 . S
H3503 C3512 0.929 . S
C3504 H3498 0.930 . S
C3504 C3505 1.367 . S
C3504 C3512 1.378 . S
C3505 C3504 1.367 . S
C3505 C3513 1.433 . S
C3506 H3502 0.929 . S
C3506 C3508 1.378 . S
C3506 C3510 1.350 . S
C3507 C3510 1.463 . S
C3507 C3512 1.350 . S
C3507 N3515 1.427 . S
C3508 H3499 0.930 . S
C3508 C3506 1.378 . S
C3508 C3509 1.367 . S
C3509 C3508 1.367 . S
C3509 C3511 1.433 . S
C3510 C3506 1.350 . S
C3510 C3507 1.463 . S
C3510 N3514 1.427 . S
C3511 H3501 0.929 . S
C3511 C3509 1.433 . S
C3511 N3514 1.384 . S
C3512 H3503 0.929 . S
C3512 C3504 1.378 . S
C3512 C3507 1.350 . S
C3513 H3500 0.929 . S
C3513 C3505 1.433 . S
C3513 N3515 1.384 . S
N3514 C3510 1.427 . S
N3514 C3511 1.384 . S
N3515 C3507 1.427 . S
N3515 C3513 1.384 . S
H3516 C3522 0.930 . S
H3517 C3526 0.930 . S
H3518 C3531 0.929 . S
H3519 C3529 0.929 . S
H3520 C3524 0.929 . S
H3521 C3530 0.929 . S
C3522 H3516 0.930 . S
C3522 C3523 1.367 . S
C3522 C3530 1.378 . S
C3523 C3522 1.367 . S
C3523 C3531 1.433 . S
C3524 H3520 0.929 . S
C3524 C3526 1.378 . S
C3524 C3528 1.350 . S
C3525 C3528 1.463 . S
C3525 C3530 1.350 . S
C3525 N3533 1.427 . S
C3526 H3517 0.930 . S
C3526 C3524 1.378 . S
C3526 C3527 1.367 . S
C3527 C3526 1.367 . S
C3527 C3529 1.433 . S
C3528 C3524 1.350 . S
C3528 C3525 1.463 . S
C3528 N3532 1.427 . S
C3529 H3519 0.929 . S
C3529 C3527 1.433 . S
C3529 N3532 1.384 . S
C3530 H3521 0.929 . S
C3530 C3522 1.378 . S
C3530 C3525 1.350 . S
C3531 H3518 0.929 . S
C3531 C3523 1.433 . S
C3531 N3533 1.384 . S
N3532 C3528 1.427 . S
N3532 C3529 1.384 . S
N3533 C3525 1.427 . S
N3533 C3531 1.384 . S
H3534 C3540 0.930 . S
H3535 C3544 0.930 . S
H3536 C3549 0.929 . S
H3537 C3547 0.929 . S
H3538 C3542 0.929 . S
H3539 C3548 0.929 1_545 S
C3540 H3534 0.930 . S
C3540 C3541 1.367 . S
C3540 C3548 1.378 1_545 S
C3541 C3540 1.367 . S
C3541 C3549 1.433 1_545 S
C3542 H3538 0.929 . S
C3542 C3544 1.378 . S
C3542 C3546 1.350 . S
C3543 C3546 1.463 . S
C3543 C3548 1.350 . S
C3543 N3551 1.427 . S
C3544 H3535 0.930 . S
C3544 C3542 1.378 . S
C3544 C3545 1.367 . S
C3545 C3544 1.367 . S
C3545 C3547 1.433 . S
C3546 C3542 1.350 . S
C3546 C3543 1.463 . S
C3546 N3550 1.427 . S
C3547 H3537 0.929 . S
C3547 C3545 1.433 . S
C3547 N3550 1.384 . S
C3548 H3539 0.929 1_565 S
C3548 C3540 1.378 1_565 S
C3548 C3543 1.350 . S
C3549 H3536 0.929 . S
C3549 C3541 1.433 1_565 S
C3549 N3551 1.384 . S
N3550 C3546 1.427 . S
N3550 C3547 1.384 . S
N3551 C3543 1.427 . S
N3551 C3549 1.384 . S
C967 C8 2.341 . S
C971 C99 2.263 . S
C985 C39 2.567 . S
C989 C109 2.328 . S
C1003 C139 2.045 . S
C1007 C49 1.911 . S
C1021 C159 1.651 . S
C1025 C69 1.514 . S
C1039 C179 2.057 . S
C1043 C199 2.046 . S
C1057 C189 1.911 . S
C1061 C219 2.038 . S
C1075 C229 1.790 . S
C1079 C209 1.789 . S
C1093 C239 1.983 1_545 S
C1097 C169 1.864 . S
C1111 C249 2.209 . S
C1115 C79 2.379 . S
C1129 C149 1.510 . S
C1133 C679 1.659 . S
C1147 C89 1.826 1_655 S
C1151 C269 1.800 1_455 S
C1165 C119 1.654 . S
C1169 C689 1.493 . S
C1183 C29 2.212 . S
C1187 C299 2.384 . S
C1201 C639 1.991 . S
C1205 C2 1.914 . S
C1219 C602 1.924 . S
C1223 C59 1.998 . S
C1237 C398 2.265 . S
C1241 C309 2.340 . S
C1255 C338 2.566 . S
C1259 C408 2.333 . S
C1273 C348 1.908 . S
C1277 C438 2.044 . S
C1291 C368 1.535 . S
C1295 C458 1.661 . S
C1309 C498 2.054 . S
C1313 C478 2.065 . S
C1327 C488 1.894 . S
C1331 C518 2.028 . S
C1345 C528 1.795 . S
C1349 C508 1.789 . S
C1363 C468 1.859 . S
C1367 C538 1.982 1_565 S
C1381 C378 2.388 . S
C1385 C548 2.223 . S
C1399 C858 1.658 . S
C1403 C448 1.500 . S
C1417 C568 1.818 1_655 S
C1421 C388 1.838 1_455 S
C1435 C418 1.657 . S
C1439 C868 1.499 . S
C1453 C598 2.379 . S
C1457 C328 2.208 . S
C1471 C301 1.918 . S
C1475 C818 1.991 . S
C1489 C358 1.987 . S
C1493 C781 1.912 . S
C1507 C659 2.255 . S
C1511 C608 2.338 . S
C1525 C669 2.341 . S
C1529 C259 2.570 . S
C1543 C629 1.894 . S
C1547 C279 2.033 . S
C1561 C699 1.654 . S
C1565 C289 1.526 . S
C1579 C719 2.061 . S
C1583 C739 2.049 . S
C1597 C729 1.894 . S
C1601 C759 2.030 . S
C1615 C769 1.792 . S
C1619 C749 1.784 . S
C1633 C709 1.849 . S
C1637 C779 1.977 . S
C1651 C129 1.806 . S
C1655 C649 1.827 . S
C1669 C838 2.259 . S
C1673 C789 2.334 . S
C1687 C848 2.334 . S
C1691 C558 2.570 . S
C1705 C578 2.041 . S
C1709 C808 1.903 . S
C1723 C878 1.659 . S
C1727 C588 1.527 . S
C1741 C898 2.065 . S
C1745 C918 2.054 . S
C1759 C908 1.897 . S
C1763 C938 2.029 . S
C1777 C928 1.777 . S
C1781 C948 1.778 . S
C1795 C958 1.982 . S
C1799 C888 1.865 . S
C1813 C828 1.838 . S
C1817 C428 1.819 . S
C1831 C9 0.507 . S
C1835 C321 0.368 . S
C1849 C802 0.838 . S
C1853 C38 0.840 . S
C1867 C48 0.369 . S
C1871 C362 0.452 . S
C1885 C68 1.033 . S
C1889 C799 1.038 . S
C1903 C98 1.230 . S
C1907 C441 1.278 . S
C1921 C108 0.981 . S
C1925 C821 0.978 . S
C1939 C138 1.226 . S
C1943 C402 1.210 . S
C1957 C561 0.920 . S
C1961 C158 0.891 . S
C1975 C178 0.886 . S
C1979 C798 0.892 . S
C1993 C188 0.243 . S
C1997 C322 0.460 . S
C2011 C208 0.636 . S
C2015 C801 0.623 . S
C2029 C361 1.026 1_554 S
C2033 C238 1.029 . S
C2047 C822 1.161 . S
C2051 C228 1.240 . S
C2065 C401 0.517 . S
C2069 C168 0.533 . S
C2083 C198 0.915 . S
C2087 C562 0.912 . S
C2101 C442 1.310 . S
C2105 C218 1.311 . S
C2119 C882 0.551 . S
C2123 C248 0.526 . S
C2137 C521 0.805 . S
C2141 C148 0.808 . S
C2155 C88 0.539 . S
C2159 C881 0.555 . S
C2173 C118 0.745 . S
C2177 C482 0.732 . S
C2191 C268 1.179 . S
C2195 C502 1.126 . S
C2209 C921 0.849 . S
C2213 C298 0.823 . S
C2227 C1 0.624 . S
C2231 C942 0.635 . S
C2245 C58 0.633 . S
C2249 C901 0.618 . S
C2263 C22 0.372 . S
C2267 C308 0.504 . S
C2281 C339 0.837 . S
C2285 C621 0.850 . S
C2299 C349 0.380 . S
C2303 C61 0.419 . S
C2317 C369 1.029 . S
C2321 C618 1.039 . S
C2335 C142 1.278 . S
C2339 C399 1.241 . S
C2353 C642 0.975 . S
C2357 C409 0.972 . S
C2371 C101 1.216 . S
C2375 C439 1.224 . S
C2389 C459 0.886 . S
C2393 C262 0.919 . S
C2407 C479 0.883 . S
C2411 C619 0.891 . S
C2425 C21 0.407 . S
C2429 C489 0.240 . S
C2443 C509 0.632 . S
C2447 C622 0.621 . S
C2461 C62 1.048 1_556 S
C2465 C539 1.030 . S
C2479 C641 1.172 . S
C2483 C529 1.245 . S
C2497 C469 0.533 . S
C2501 C102 0.531 . S
C2515 C499 0.913 . S
C2519 C261 0.907 . S
C2533 C141 1.322 . S
C2537 C519 1.325 . S
C2551 C549 0.528 . S
C2555 C701 0.577 . S
C2569 C222 0.810 . S
C2573 C449 0.805 . S
C2587 C702 0.557 . S
C2591 C389 0.548 . S
C2605 C419 0.732 . S
C2609 C181 0.738 . S
C2623 C569 1.177 . S
C2627 C201 1.110 . S
C2641 C742 0.846 . S
C2645 C599 0.842 . S
C2659 C302 0.633 . S
C2663 C761 0.622 . S
C2677 C722 0.608 . S
C2681 C359 0.638 . S
C2695 C541 0.368 . S
C2699 C609 0.507 . S
C2713 C258 0.841 . S
C2717 C342 0.851 . S
C2731 C582 0.424 . S
C2735 C628 0.377 . S
C2749 C288 1.024 . S
C2753 C319 1.037 . S
C2767 C658 1.225 . S
C2771 C861 1.277 . S
C2785 C381 0.973 . S
C2789 C668 0.975 . S
C2803 C278 1.225 . S
C2807 C842 1.215 . S
C2821 C421 0.919 . S
C2825 C698 0.905 . S
C2839 C718 0.871 . S
C2843 C318 0.889 . S
C2857 C728 0.232 . S
C2861 C542 0.447 . S
C2875 C748 0.633 . S
C2879 C341 0.630 . S
C2893 C581 1.054 . S
C2897 C778 1.020 . S
C2911 C382 1.148 . S
C2915 C768 1.238 . S
C2929 C708 0.529 . S
C2933 C841 0.516 . S
C2947 C422 0.912 . S
C2951 C738 0.915 . S
C2965 C758 1.316 . S
C2969 C862 1.316 . S
C2983 C28 0.533 . S
C2987 C462 0.542 . S
C3001 C941 0.810 . S
C3005 C688 0.803 . S
C3019 C648 0.541 . S
C3023 C461 0.557 . S
C3037 C678 0.744 . S
C3041 C902 0.730 . S
C3055 C922 1.111 . S
C3059 C128 1.172 . S
C3073 C501 0.850 . S
C3077 C78 0.834 . S
C3091 C601 0.594 . S
C3095 C522 0.606 . S
C3109 C481 0.617 . S
C3113 C638 0.634 . S
C3127 C242 0.381 . S
C3131 C788 0.493 . S
C3145 C559 0.847 . S
C3149 C41 0.852 . S
C3163 C281 0.422 . S
C3167 C809 0.378 . S
C3181 C589 1.035 . S
C3185 C18 1.033 . S
C3199 C839 1.227 . S
C3203 C682 1.278 . S
C3217 C82 0.978 . S
C3221 C849 0.972 . S
C3235 C661 1.207 . S
C3239 C579 1.211 . S
C3253 C122 0.917 . S
C3257 C879 0.910 . S
C3271 C19 0.889 . S
C3275 C899 0.864 . S
C3289 C909 0.231 . S
C3293 C241 0.441 . S
C3307 C42 0.627 . S
C3311 C929 0.635 . S
C3325 C282 1.048 . S
C3329 C959 1.038 . S
C3343 C81 1.155 . S
C3347 C949 1.239 . S
C3361 C662 0.516 . S
C3365 C889 0.528 . S
C3379 C919 0.914 . S
C3383 C121 0.915 . S
C3397 C681 1.302 . S
C3401 C939 1.314 . S
C3415 C161 0.567 . S
C3419 C329 0.524 . S
C3433 C869 0.810 . S
C3437 C762 0.808 . S
C3451 C829 0.535 . S
C3455 C162 0.548 . S
C3469 C721 0.727 . S
C3473 C859 0.741 . S
C3487 C429 1.177 . S
C3491 C741 1.126 . S
C3505 C379 0.843 . S
C3509 C202 0.846 . S
C3523 C221 0.632 . S
C3527 C782 0.631 . S
C3541 C182 0.620 . S
C3545 C819 0.611 . S
