# Generated by pormake.
# Topology uof, (4)-cn, num edge types: 1
# Building blocks:
#     Node 0, Type 0, BuildingBlock: QUQFOY_clean_sbu_3, # of connection points: 4
#     Node 1, Type 0, BuildingBlock: QUQFOY_clean_sbu_3, # of connection points: 4
#     Node 2, Type 0, BuildingBlock: QUQFOY_clean_sbu_3, # of connection points: 4
#     Node 3, Type 0, BuildingBlock: QUQFOY_clean_sbu_3, # of connection points: 4
#     Node 4, Type 0, BuildingBlock: QUQFOY_clean_sbu_3, # of connection points: 4
#     Node 5, Type 0, BuildingBlock: QUQFOY_clean_sbu_3, # of connection points: 4
#     Node 6, Type 0, BuildingBlock: QUQFOY_clean_sbu_3, # of connection points: 4
#     Node 7, Type 0, BuildingBlock: QUQFOY_clean_sbu_3, # of connection points: 4
#     Node 8, Type 0, BuildingBlock: QUQFOY_clean_sbu_3, # of connection points: 4
#     Node 9, Type 0, BuildingBlock: QUQFOY_clean_sbu_3, # of connection points: 4
#     Node 10, Type 0, BuildingBlock: QUQFOY_clean_sbu_3, # of connection points: 4
#     Node 11, Type 0, BuildingBlock: QUQFOY_clean_sbu_3, # of connection points: 4
#     Edge 12, Type (0, 0), BuildingBlock: XIVTED_clean_linker_0, # of connection points: 2
#     Edge 13, Type (0, 0), BuildingBlock: XIVTED_clean_linker_0, # of connection points: 2
#     Edge 14, Type (0, 0), BuildingBlock: XIVTED_clean_linker_0, # of connection points: 2
#     Edge 15, Type (0, 0), BuildingBlock: XIVTED_clean_linker_0, # of connection points: 2
#     Edge 16, Type (0, 0), BuildingBlock: XIVTED_clean_linker_0, # of connection points: 2
#     Edge 17, Type (0, 0), BuildingBlock: XIVTED_clean_linker_0, # of connection points: 2
#     Edge 18, Type (0, 0), BuildingBlock: XIVTED_clean_linker_0, # of connection points: 2
#     Edge 19, Type (0, 0), BuildingBlock: XIVTED_clean_linker_0, # of connection points: 2
#     Edge 20, Type (0, 0), BuildingBlock: XIVTED_clean_linker_0, # of connection points: 2
#     Edge 21, Type (0, 0), BuildingBlock: XIVTED_clean_linker_0, # of connection points: 2
#     Edge 22, Type (0, 0), BuildingBlock: XIVTED_clean_linker_0, # of connection points: 2
#     Edge 23, Type (0, 0), BuildingBlock: XIVTED_clean_linker_0, # of connection points: 2
#     Edge 24, Type (0, 0), BuildingBlock: XIVTED_clean_linker_0, # of connection points: 2
#     Edge 25, Type (0, 0), BuildingBlock: XIVTED_clean_linker_0, # of connection points: 2
#     Edge 26, Type (0, 0), BuildingBlock: XIVTED_clean_linker_0, # of connection points: 2
#     Edge 27, Type (0, 0), BuildingBlock: XIVTED_clean_linker_0, # of connection points: 2
#     Edge 28, Type (0, 0), BuildingBlock: XIVTED_clean_linker_0, # of connection points: 2
#     Edge 29, Type (0, 0), BuildingBlock: XIVTED_clean_linker_0, # of connection points: 2
#     Edge 30, Type (0, 0), BuildingBlock: XIVTED_clean_linker_0, # of connection points: 2
#     Edge 31, Type (0, 0), BuildingBlock: XIVTED_clean_linker_0, # of connection points: 2
#     Edge 32, Type (0, 0), BuildingBlock: XIVTED_clean_linker_0, # of connection points: 2
#     Edge 33, Type (0, 0), BuildingBlock: XIVTED_clean_linker_0, # of connection points: 2
#     Edge 34, Type (0, 0), BuildingBlock: XIVTED_clean_linker_0, # of connection points: 2
#     Edge 35, Type (0, 0), BuildingBlock: XIVTED_clean_linker_0, # of connection points: 2
# Relax obj value: 0.202
# Max RMSD: 0.144
# Mean RMSD: 0.144
data_MOF--net-uof--node1-QUQFOY_clean_sbu_3--edge1-XIVTED_clean_linker_0
_symmetry_space_group_name_H-M    P1
_symmetry_Int_Tables_number       1
_symmetry_cell_setting            triclinic
loop_
_symmetry_equiv_pos_as_xyz
'x, y, z'
_cell_length_a     34.773496
_cell_length_b     34.745318
_cell_length_c     68.589989
_cell_angle_alpha  90.182827
_cell_angle_beta   89.513512
_cell_angle_gamma 119.75941
loop_
_atom_site_label
_atom_site_type_symbol
_atom_site_fract_x
_atom_site_fract_y
_atom_site_fract_z
_atom_type_partial_charge
C0 C 0.20578 0.25438 0.23005 0.0
O1 O 0.2282 0.23799 0.22283 0.0
Cd2 Cd 0.25087 0.23474 0.19127 0.0
O3 O 0.1899 0.2735 0.21937 0.0
Cd4 Cd 0.18714 0.2848 0.18214 0.0
C5 C 0.3023 0.34754 0.17945 0.0
O6 O 0.18513 0.21792 0.17672 0.0
O7 O 0.1994 0.25593 0.15042 0.0
O8 O 0.10607 0.24441 0.18142 0.0
C9 C 0.19202 0.22029 0.15866 0.0
O10 O 0.30078 0.3108 0.1828 0.0
C11 C 0.10036 0.27 0.17016 0.0
O12 O 0.26667 0.35022 0.17928 0.0
O13 O 0.13498 0.30671 0.16604 0.0
C14 C 0.921 0.23429 0.56355 0.0
O15 O -0.04083 0.2603 0.55657 0.0
Cd16 Cd -0.01301 0.27537 0.5248 0.0
O17 O 0.88755 0.21077 0.55257 0.0
Cd18 Cd 0.87546 0.20392 0.51522 0.0
C19 C 0.9215 0.31842 0.50908 0.0
O20 O 0.94346 0.20596 0.51161 0.0
O21 O 0.91654 0.21085 0.48423 0.0
O22 O 0.83501 0.12226 0.51559 0.0
C23 C 0.94653 0.20796 0.49333 0.0
O24 O 0.95813 0.3203 0.51285 0.0
C25 C 0.80514 0.11597 0.50342 0.0
O26 O 0.8847 0.28149 0.51007 0.0
O27 O 0.80365 0.15047 0.49834 0.0
C28 C 0.6815 0.94725 0.89292 0.0
O29 O 0.70158 -0.01688 0.88333 0.0
Cd30 Cd 0.70009 -0.00666 0.84992 0.0
O31 O 0.65825 0.9097 0.8844 0.0
Cd32 Cd 0.64448 0.88514 0.84827 0.0
C33 C 0.58523 0.93931 0.84388 0.0
O34 O 0.7159 0.93881 0.83929 0.0
O35 O 0.67051 0.92233 0.81571 0.0
O36 O 0.67492 0.83533 0.85178 0.0
C37 C 0.71039 0.94109 0.82136 0.0
O38 O 0.62356 -0.02631 0.84402 0.0
C39 C 0.65127 0.80699 0.83906 0.0
O40 O 0.58074 0.90061 0.84607 0.0
O41 O 0.61874 0.81032 0.83265 0.0
C42 C 0.71003 0.69634 0.23053 0.0
O43 O 0.68997 0.7143 0.22264 0.0
Cd44 Cd 0.67344 0.71906 0.19047 0.0
O45 O 0.72542 0.67577 0.22028 0.0
Cd46 Cd 0.72943 0.66281 0.183 0.0
C47 C 0.6149 0.60527 0.18042 0.0
O48 O 0.7416 0.73434 0.17797 0.0
O49 O 0.72084 0.69558 0.15196 0.0
O50 O 0.80924 0.68449 0.18533 0.0
C51 C 0.73423 0.73285 0.16004 0.0
O52 O 0.61888 0.64342 0.18286 0.0
C53 C 0.81073 0.66477 0.16996 0.0
O54 O 0.64912 0.60024 0.18067 0.0
O55 O 0.77356 0.63916 0.16211 0.0
C56 C -0.01104 0.72721 0.55877 0.0
O57 O 0.95122 0.71278 0.55113 0.0
Cd58 Cd 0.93232 0.69789 0.51853 0.0
O59 O 0.02391 0.73861 0.54836 0.0
Cd60 Cd 0.03988 0.74594 0.51127 0.0
C61 C -0.01855 0.6327 0.50886 0.0
O62 O -0.01415 0.76528 0.50519 0.0
O63 O -0.00556 0.73119 0.48106 0.0
O64 O 0.09222 0.82555 0.51322 0.0
C65 C -0.02296 0.7531 0.48777 0.0
O66 O 0.94833 0.63852 0.51137 0.0
C67 C 0.11812 0.82802 0.49954 0.0
O68 O 0.02103 0.66589 0.5087 0.0
O69 O 0.11194 0.79114 0.49281 0.0
C70 C 0.2374 0.00569 0.89759 0.0
O71 O 0.21714 0.96664 0.89079 0.0
Cd72 Cd 0.21293 0.94131 0.85919 0.0
O73 O 0.25874 0.03983 0.88651 0.0
Cd74 Cd 0.26846 0.05244 0.8491 0.0
C75 C 0.32731 -0.00343 0.84868 0.0
O76 O 0.19742 -0.00816 0.84463 0.0
O77 O 0.23714 0.00835 0.81873 0.0
O78 O 0.24446 0.10917 0.85057 0.0
C79 C 0.19986 -0.01548 0.82686 0.0
O80 O 0.28944 0.96283 0.85198 0.0
C81 C 0.26446 0.12977 0.83514 0.0
O82 O 0.33177 0.03549 0.84746 0.0
O83 O 0.29104 0.11853 0.82765 0.0
C84 C 0.69155 0.70988 0.37629 0.0
O85 O 0.70739 0.69014 0.38607 0.0
Cd86 Cd 0.70122 0.67306 0.41917 0.0
O87 O 0.67095 0.72763 0.38473 0.0
Cd88 Cd 0.65114 0.73676 0.42039 0.0
C89 C 0.58529 0.62314 0.42085 0.0
O90 O 0.71281 0.73766 0.43402 0.0
O91 O 0.65923 0.71876 0.45468 0.0
O92 O 0.69565 0.81768 0.4198 0.0
C93 C 0.69906 0.72892 0.45139 0.0
O94 O 0.62235 0.62404 0.42103 0.0
C95 C 0.66918 0.82646 0.42906 0.0
O96 O 0.58344 0.65918 0.42025 0.0
O97 O 0.63045 0.79367 0.43219 0.0
C98 C 0.91478 0.67695 0.6984 0.0
O99 O 0.95446 0.69559 0.70429 0.0
Cd100 Cd -0.01509 0.7098 0.73533 0.0
O101 O 0.8816 0.66177 0.71025 0.0
Cd102 Cd 0.87264 0.65786 0.74768 0.0
C103 C 0.92881 0.59861 0.75004 0.0
O104 O 0.93657 0.72695 0.75104 0.0
O105 O 0.91652 0.68976 0.77774 0.0
O106 O 0.82854 0.69506 0.74875 0.0
C107 C 0.94303 0.72535 0.76895 0.0
O108 O -0.03737 0.63544 0.74547 0.0
C109 C 0.79963 0.67012 0.76115 0.0
O110 O 0.89015 0.59487 0.75131 0.0
O111 O 0.80052 0.63508 0.76586 0.0
C112 C 0.22387 0.93513 0.03782 0.0
O113 O 0.24581 -0.02833 0.04672 0.0
Cd114 Cd 0.24362 -0.01237 0.07959 0.0
O115 O 0.1981 0.8991 0.04705 0.0
Cd116 Cd 0.18496 0.88311 0.08392 0.0
C117 C 0.29646 0.93193 0.09357 0.0
O118 O 0.16769 0.94082 0.08641 0.0
O119 O 0.19874 0.93299 0.11181 0.0
O120 O 0.10527 0.82404 0.08147 0.0
C121 C 0.18041 0.95234 0.10366 0.0
O122 O 0.2946 0.96756 0.09349 0.0
C123 C 0.10318 0.8061 0.09786 0.0
O124 O 0.26251 0.89491 0.08886 0.0
O125 O 0.13994 0.81975 0.10646 0.0
C126 C 0.24154 0.23581 0.37298 0.0
O127 O 0.22538 0.25447 0.38349 0.0
Cd128 Cd 0.21769 0.25404 0.41726 0.0
O129 O 0.25769 0.21319 0.38064 0.0
Cd130 Cd 0.26899 0.19769 0.41627 0.0
C131 C 0.33019 0.3098 0.42511 0.0
O132 O 0.19691 0.18016 0.42421 0.0
O133 O 0.24006 0.20521 0.44872 0.0
O134 O 0.24035 0.11795 0.41168 0.0
C135 C 0.20076 0.18613 0.44231 0.0
O136 O 0.29255 0.30743 0.42642 0.0
C137 C 0.26426 0.11342 0.42433 0.0
O138 O 0.33322 0.27566 0.42032 0.0
O139 O 0.29583 0.14921 0.43118 0.0
C140 C -0.00651 0.25416 0.70294 0.0
O141 O 0.95436 0.23686 0.70967 0.0
Cd142 Cd 0.92878 0.23143 0.74151 0.0
O143 O 0.02752 0.27193 0.7141 0.0
Cd144 Cd 0.03918 0.27976 0.75146 0.0
C145 C -0.01211 0.34321 0.75424 0.0
O146 O -0.02532 0.21053 0.75673 0.0
O147 O -0.0011 0.24919 0.78288 0.0
O148 O 0.09262 0.25164 0.74971 0.0
C149 C -0.02845 0.21305 0.77491 0.0
O150 O 0.95251 0.30681 0.75102 0.0
C151 C 0.11598 0.27355 0.76415 0.0
O152 O 0.02584 0.34531 0.75401 0.0
O153 O 0.10742 0.30245 0.77117 0.0
C154 C 0.70361 0.01975 0.03298 0.0
O155 O 0.68446 -0.02009 0.03888 0.0
Cd156 Cd 0.67115 0.94886 0.06988 0.0
O157 O 0.72131 0.05277 0.0448 0.0
Cd158 Cd 0.72873 0.06098 0.08223 0.0
C159 C 0.61377 0.00255 0.08582 0.0
O160 O 0.7366 -0.0019 0.08463 0.0
O161 O 0.71897 0.01624 0.11183 0.0
O162 O 0.80976 0.10674 0.08152 0.0
C163 C 0.72934 -0.00902 0.10261 0.0
O164 O 0.61814 0.96958 0.08086 0.0
C165 C 0.81399 0.134 0.09483 0.0
O166 O 0.64776 0.04166 0.08714 0.0
O167 O 0.77813 0.13174 0.10089 0.0
H168 H 0.84171 0.20637 0.11986 0.0
H169 H 0.03863 0.18451 0.16285 0.0
H170 H 0.88607 0.12272 0.09295 0.0
H171 H 0.06308 0.31761 0.15387 0.0
H172 H -0.02933 0.15606 0.14396 0.0
H173 H 0.9119 0.24377 0.13829 0.0
C174 C 0.86625 0.19622 0.11761 0.0
C175 C 0.85782 0.16142 0.10465 0.0
C176 C -0.00936 0.19147 0.14628 0.0
C177 C 0.93729 0.203 0.12618 0.0
C178 C 0.0294 0.20786 0.1572 0.0
C179 C 0.05685 0.25369 0.1601 0.0
C180 C -0.02203 0.22074 0.13848 0.0
C181 C 0.04304 0.28209 0.15205 0.0
C182 C 0.90623 0.21757 0.12814 0.0
C183 C 0.8909 0.1495 0.10257 0.0
N184 N 0.00434 0.26516 0.14176 0.0
N185 N 0.9285 0.16959 0.1134 0.0
H186 H 0.72765 0.08315 0.48173 0.0
H187 H 0.75511 0.89044 0.43414 0.0
H188 H 0.8235 0.04831 0.50196 0.0
H189 H 0.62223 0.86447 0.4458 0.0
H190 H 0.78416 0.95926 0.45262 0.0
H191 H 0.69093 0.01279 0.46319 0.0
C192 C 0.74071 0.06066 0.48247 0.0
C193 C 0.77865 0.07178 0.49363 0.0
C194 C 0.74864 0.93877 0.45099 0.0
C195 C 0.73774 -0.00786 0.47189 0.0
C196 C 0.73186 0.89946 0.44027 0.0
C197 C 0.68592 0.87122 0.43826 0.0
C198 C 0.71962 0.95114 0.45957 0.0
C199 C 0.65782 0.88506 0.44688 0.0
C200 C 0.71974 0.02057 0.47188 0.0
C201 C 0.7942 0.0413 0.49381 0.0
N202 N 0.67508 0.92414 0.45706 0.0
N203 N 0.77423 0.00354 0.48294 0.0
H204 H 0.6049 0.73153 0.8161 0.0
H205 H 0.81528 0.75472 0.76422 0.0
H206 H 0.7347 0.81883 0.83929 0.0
H207 H 0.72123 0.62162 0.7825 0.0
H208 H 0.7758 0.78272 0.78407 0.0
H209 H 0.63673 0.69311 0.79709 0.0
C210 C 0.63977 0.74217 0.81747 0.0
C211 C 0.66696 0.7783 0.82954 0.0
C212 C 0.7635 0.74733 0.78354 0.0
C213 C 0.70363 0.73571 0.80728 0.0
C214 C 0.7858 0.73114 0.7721 0.0
C215 C 0.77163 0.68554 0.77156 0.0
C216 C 0.72576 0.71789 0.79425 0.0
C217 C 0.73337 0.65695 0.78242 0.0
C218 C 0.65785 0.72028 0.80661 0.0
C219 C 0.71216 0.79092 0.83045 0.0
N220 N 0.71152 0.67354 0.79323 0.0
N221 N 0.72908 0.77036 0.81924 0.0
H222 H 0.89477 0.70847 0.18531 0.0
H223 H 0.01918 0.7644 0.08219 0.0
H224 H 0.82576 0.65048 0.13182 0.0
H225 H 0.08752 0.78124 0.13643 0.0
H226 H 0.94818 0.72445 0.09979 0.0
H227 H -0.0345 0.73711 0.16772 0.0
C228 C 0.89441 0.70109 0.16993 0.0
C229 C 0.85395 0.67657 0.16014 0.0
C230 C -0.0213 0.73637 0.10781 0.0
C231 C 0.93537 0.71055 0.13966 0.0
C232 C 0.01936 0.75913 0.09774 0.0
C233 C 0.05971 0.7761 0.10774 0.0
C234 C -0.02195 0.73114 0.12817 0.0
C235 C 0.05749 0.76852 0.12799 0.0
C236 C 0.93492 0.71762 0.15986 0.0
C237 C 0.85592 0.6687 0.14009 0.0
N238 N 0.0176 0.74721 0.13751 0.0
N239 N 0.89573 0.68604 0.13052 0.0
H240 H 0.31191 0.08675 0.44759 0.0
H241 H 0.11502 0.90456 0.50295 0.0
H242 H 0.1827 0.03942 0.42259 0.0
H243 H 0.18771 0.85071 0.47326 0.0
H244 H 0.15507 -0.02759 0.48362 0.0
H245 H 0.28199 0.01654 0.46612 0.0
C246 C 0.27763 0.06144 0.44568 0.0
C247 C 0.25 0.06904 0.4333 0.0
C248 C 0.16277 0.946 0.48163 0.0
C249 C 0.21555 -0.01034 0.45488 0.0
C250 C 0.14016 0.90726 0.49273 0.0
C251 C 0.14799 0.87159 0.48986 0.0
C252 C 0.19442 0.95001 0.46781 0.0
C253 C 0.18064 0.87726 0.47605 0.0
C254 C 0.26066 0.02152 0.45627 0.0
C255 C 0.20555 0.03508 0.4317 0.0
N256 N 0.20276 0.91577 0.46553 0.0
N257 N 0.1896 -0.00253 0.44261 0.0
H258 H 0.2768 0.15431 0.79654 0.0
H259 H 0.148 0.29247 0.80154 0.0
H260 H 0.2213 0.17218 0.84995 0.0
H261 H 0.15246 0.22456 0.7496 0.0
H262 H 0.18898 0.26266 0.81895 0.0
H263 H 0.24577 0.19387 0.77885 0.0
C264 C 0.25896 0.16738 0.80466 0.0
C265 C 0.25198 0.15997 0.82486 0.0
C266 C 0.18145 0.25472 0.80368 0.0
C267 C 0.21616 0.2055 0.80455 0.0
C268 C 0.15836 0.27207 0.79364 0.0
C269 C 0.14679 0.26129 0.77396 0.0
C270 C 0.19395 0.22688 0.79396 0.0
C271 C 0.16068 0.23399 0.7647 0.0
C272 C 0.24087 0.18963 0.79448 0.0
C273 C 0.22778 0.17717 0.83443 0.0
N274 N 0.1835 0.21788 0.77472 0.0
N275 N 0.2109 0.1991 0.82424 0.0
H276 H 0.53795 0.60837 0.17957 0.0
H277 H 0.37828 0.34668 0.1706 0.0
H278 H 0.58582 0.51518 0.17611 0.0
H279 H 0.3301 0.43778 0.1817 0.0
H280 H 0.45359 0.40852 0.16933 0.0
H281 H 0.46238 0.54742 0.17739 0.0
C282 C 0.53279 0.57506 0.17828 0.0
C283 C 0.56888 0.56719 0.17813 0.0
C284 C 0.4267 0.41519 0.17197 0.0
C285 C 0.48111 0.49656 0.17557 0.0
C286 C 0.38338 0.3798 0.17269 0.0
C287 C 0.34737 0.38675 0.17648 0.0
C288 C 0.43475 0.45841 0.17503 0.0
C289 C 0.35658 0.43067 0.17876 0.0
C290 C 0.48928 0.54016 0.17705 0.0
C291 C 0.55937 0.52306 0.17634 0.0
N292 N 0.39937 0.46479 0.17813 0.0
N293 N 0.51646 0.48947 0.17517 0.0
H294 H 0.03971 0.60212 0.50036 0.0
H295 H 0.85901 0.34491 0.51574 0.0
H296 H 0.9018 0.55633 0.51298 0.0
H297 H -0.00871 0.39151 0.49348 0.0
H298 H 0.87257 0.42155 0.51416 0.0
H299 H 0.02218 0.5246 0.49787 0.0
C300 C 0.00582 0.57594 0.50257 0.0
C301 C -0.02765 0.58609 0.50688 0.0
C302 C 0.89839 0.41477 0.50942 0.0
C303 C 0.95187 0.497 0.50412 0.0
C304 C 0.89043 0.37094 0.51015 0.0
C305 C 0.92407 0.36168 0.50487 0.0
C306 C 0.94029 0.44944 0.50344 0.0
C307 C -0.03555 0.39701 0.49793 0.0
C308 C -0.00428 0.53159 0.5011 0.0
C309 C 0.92889 0.55042 0.50959 0.0
N310 N -0.02848 0.4391 0.49761 0.0
N311 N 0.92001 0.50771 0.50826 0.0
H312 H 0.32665 0.91838 0.85383 0.0
H313 H 0.58558 0.0157 0.83404 0.0
H314 H 0.41575 0.05582 0.83959 0.0
H315 H 0.49613 0.8798 0.85043 0.0
H316 H 0.52379 0.03009 0.83435 0.0
H317 H 0.38778 0.9037 0.85132 0.0
C318 C 0.3591 0.9457 0.8501 0.0
C319 C 0.36573 -0.01135 0.84691 0.0
C320 C 0.51753 -0.00293 0.83781 0.0
C321 C 0.43672 -0.02852 0.84399 0.0
C322 C 0.55286 -0.01136 0.83762 0.0
C323 C 0.54632 0.94633 0.84232 0.0
C324 C 0.4749 0.96306 0.84277 0.0
C325 C 0.50294 0.91284 0.84668 0.0
C326 C 0.39415 0.93708 0.84869 0.0
C327 C 0.40887 0.02228 0.84221 0.0
N328 N 0.46902 0.922 0.84689 0.0
N329 N 0.44268 0.01298 0.84089 0.0
H330 H 0.50017 0.59626 0.43476 0.0
H331 H 0.41608 0.33845 0.41285 0.0
H332 H 0.57931 0.54736 0.407 0.0
H333 H 0.3346 0.38416 0.44097 0.0
H334 H 0.47716 0.41522 0.41167 0.0
H335 H 0.43849 0.51923 0.43722 0.0
C336 C 0.50441 0.56954 0.42899 0.0
C337 C 0.54509 0.57836 0.42079 0.0
C338 C 0.44597 0.40841 0.41823 0.0
C339 C 0.47518 0.49036 0.42371 0.0
C340 C 0.41121 0.36443 0.41906 0.0
C341 C 0.37 0.35464 0.42695 0.0
C342 C 0.43959 0.44299 0.42534 0.0
C343 C 0.36565 0.39001 0.43462 0.0
C344 C 0.4694 0.52555 0.43053 0.0
C345 C 0.5488 0.54227 0.41367 0.0
N346 N 0.39978 0.43246 0.43352 0.0
N347 N 0.51457 0.50016 0.41534 0.0
H348 H 0.86978 0.51216 0.76194 0.0
H349 H 0.04973 0.43187 0.74866 0.0
H350 H 0.00608 0.59773 0.74457 0.0
H351 H 0.91402 0.34506 0.76625 0.0
H352 H 0.03556 0.49447 0.74946 0.0
H353 H 0.88588 0.45106 0.76552 0.0
C354 C 0.90294 0.5182 0.75892 0.0
C355 C 0.93641 0.56031 0.75292 0.0
C356 C 0.00898 0.46172 0.75331 0.0
C357 C 0.95518 0.49067 0.75694 0.0
C358 C 0.01724 0.42607 0.75297 0.0
C359 C -0.01699 0.38305 0.75721 0.0
C360 C -0.03377 0.45432 0.75797 0.0
C361 C 0.94136 0.37753 0.76261 0.0
C362 C 0.91221 0.48337 0.76099 0.0
C363 C -0.02105 0.56605 0.74926 0.0
N364 N 0.9341 0.41253 0.76271 0.0
N365 N -0.01304 0.53182 0.75126 0.0
H366 H 0.32729 0.87571 0.08213 0.0
H367 H 0.58271 0.05541 0.10269 0.0
H368 H 0.36798 0.0002 0.11124 0.0
H369 H 0.53807 0.92777 0.07575 0.0
H370 H 0.50453 0.03553 0.10732 0.0
H371 H 0.40467 0.89264 0.08181 0.0
C372 C 0.35225 0.9061 0.08883 0.0
C373 C 0.34096 0.93657 0.09662 0.0
C374 C 0.5121 0.01194 0.10045 0.0
C375 C 0.43002 0.95685 0.09595 0.0
C376 C 0.55673 0.02341 0.09775 0.0
C377 C 0.56735 -0.00665 0.08888 0.0
C378 C 0.47793 0.97027 0.09412 0.0
C379 C 0.53199 0.95216 0.08281 0.0
C380 C 0.3966 0.91607 0.08848 0.0
C381 C 0.37508 -0.0242 0.1049 0.0
N382 N 0.48928 0.94204 0.0855 0.0
N383 N 0.41792 -0.01504 0.10419 0.0
H384 H 0.16107 0.00964 0.08503 0.0
H385 H 0.20892 0.16138 0.17676 0.0
H386 H 0.21492 -0.00829 0.13856 0.0
H387 H 0.19349 0.20331 0.11953 0.0
H388 H 0.21523 0.10157 0.1623 0.0
H389 H 0.17463 0.08161 0.09668 0.0
C390 C 0.17554 0.02077 0.0993 0.0
C391 C 0.18625 -0.00553 0.11105 0.0
C392 C 0.2111 0.12406 0.15279 0.0
C393 C 0.20224 0.07672 0.12424 0.0
C394 C 0.20747 0.15841 0.16104 0.0
C395 C 0.20035 0.18721 0.14928 0.0
C396 C 0.20626 0.11745 0.13264 0.0
C397 C 0.19868 0.18153 0.12904 0.0
C398 C 0.18375 0.06205 0.1058 0.0
C399 C 0.20559 0.01071 0.1292 0.0
N400 N 0.2008 0.14656 0.1213 0.0
N401 N 0.21269 0.05078 0.13532 0.0
H402 H 0.95296 0.17649 0.45771 0.0
H403 H 0.20533 0.24055 0.47224 0.0
H404 H 0.02943 0.24764 0.50794 0.0
H405 H 0.11397 0.13406 0.43523 0.0
H406 H 0.14421 0.25136 0.48342 0.0
H407 H 0.01697 0.17152 0.44555 0.0
C408 C -0.01648 0.19189 0.46589 0.0
C409 C -0.01391 0.21207 0.48385 0.0
C410 C 0.13758 0.22528 0.47303 0.0
C411 C 0.05839 0.20627 0.4704 0.0
C412 C 0.1722 0.21873 0.46692 0.0
C413 C 0.16432 0.18639 0.45287 0.0
C414 C 0.09535 0.1994 0.46491 0.0
C415 C 0.12114 0.15946 0.44606 0.0
C416 C 0.01971 0.18866 0.45913 0.0
C417 C 0.02609 0.23139 0.49409 0.0
N418 N 0.08822 0.16683 0.45202 0.0
N419 N 0.06074 0.22785 0.48725 0.0
H420 H -0.03109 0.16043 0.80448 0.0
H421 H 0.70725 -0.0003 0.79575 0.0
H422 H 0.8859 0.18827 0.76762 0.0
H423 H 0.796 0.96426 0.82371 0.0
H424 H 0.77126 0.07064 0.78597 0.0
H425 H 0.90326 0.09162 0.81494 0.0
C426 C 0.93666 0.15241 0.79897 0.0
C427 C 0.93248 0.17923 0.78503 0.0
C428 C 0.77668 0.04697 0.79399 0.0
C429 C 0.85817 0.10085 0.7962 0.0
C430 C 0.74032 0.00634 0.79923 0.0
C431 C 0.7468 -0.0235 0.81044 0.0
C432 C 0.81924 0.05731 0.80015 0.0
C433 C 0.78999 -0.01328 0.81504 0.0
C434 C 0.89941 0.11301 0.80465 0.0
C435 C 0.89038 0.16772 0.77808 0.0
N436 N 0.82464 0.02656 0.81005 0.0
N437 N 0.8547 0.12904 0.78361 0.0
H438 H 0.72893 0.9228 0.08301 0.0
H439 H 0.73695 0.80288 0.17869 0.0
H440 H 0.71425 0.96421 0.14074 0.0
H441 H 0.7164 0.74184 0.12188 0.0
H442 H 0.72648 0.86091 0.16488 0.0
H443 H 0.72161 0.85509 0.09669 0.0
C444 C 0.72401 0.91756 0.0986 0.0
C445 C 0.72288 0.9494 0.11087 0.0
C446 C 0.72393 0.83476 0.15541 0.0
C447 C 0.71465 0.87209 0.12653 0.0
C448 C 0.73027 0.8017 0.16323 0.0
C449 C 0.72804 0.76777 0.1513 0.0
C450 C 0.71616 0.83449 0.13543 0.0
C451 C 0.71878 0.7677 0.13149 0.0
C452 C 0.71955 0.87873 0.10635 0.0
C453 C 0.71582 0.94066 0.13085 0.0
N454 N 0.71362 0.80103 0.12407 0.0
N455 N 0.71247 0.90288 0.13813 0.0
H456 H 0.752 0.7862 0.47851 0.0
H457 H 0.91035 0.68211 0.46891 0.0
H458 H 0.70956 0.65713 0.45401 0.0
H459 H 0.94996 0.8128 0.49103 0.0
H460 H 0.8345 0.66872 0.46544 0.0
H461 H 0.82073 0.78994 0.48883 0.0
C462 C 0.75643 0.75777 0.47616 0.0
C463 C 0.72576 0.72152 0.46537 0.0
C464 C 0.85995 0.70046 0.47087 0.0
C465 C 0.8048 0.7265 0.4758 0.0
C466 C 0.90329 0.70842 0.4724 0.0
C467 C 0.93616 0.74878 0.48003 0.0
C468 C 0.84996 0.73317 0.47705 0.0
C469 C 0.92536 0.7814 0.48494 0.0
C470 C 0.79601 0.76024 0.48161 0.0
C471 C 0.733 0.68577 0.46224 0.0
N472 N 0.88309 0.77279 0.48347 0.0
N473 N 0.77247 0.68955 0.467 0.0
H474 H 0.13011 0.91747 0.84574 0.0
H475 H 0.01394 0.79046 0.74977 0.0
H476 H 0.19296 0.95592 0.78905 0.0
H477 H -0.03212 0.73554 0.80727 0.0
H478 H 0.08195 0.84846 0.76381 0.0
H479 H 0.07288 0.84858 0.83203 0.0
C480 C 0.13189 0.91139 0.83035 0.0
C481 C 0.16594 0.94272 0.81838 0.0
C482 C 0.05726 0.82352 0.77336 0.0
C483 C 0.10026 0.86379 0.80263 0.0
C484 C 0.01824 0.79049 0.7654 0.0
C485 C -0.01503 0.75863 0.77749 0.0
C486 C 0.06269 0.82521 0.79359 0.0
C487 C -0.00744 0.75988 0.79752 0.0
C488 C 0.09932 0.8718 0.82258 0.0
C489 C 0.16692 0.93279 0.79867 0.0
N490 N 0.03056 0.79318 0.80503 0.0
N491 N 0.13407 0.89422 0.79131 0.0
H492 H 0.24166 0.30387 0.35374 0.0
H493 H 0.18313 0.18074 0.25091 0.0
H494 H 0.23475 0.17791 0.34377 0.0
H495 H 0.21642 0.31723 0.25746 0.0
H496 H 0.19225 0.17621 0.28585 0.0
H497 H 0.22676 0.30754 0.31936 0.0
C498 C 0.23742 0.27708 0.34423 0.0
C499 C 0.23937 0.24038 0.35165 0.0
C500 C 0.19705 0.20704 0.27977 0.0
C501 C 0.22152 0.24422 0.31221 0.0
C502 C 0.19131 0.20952 0.25987 0.0
C503 C 0.19901 0.24945 0.25133 0.0
C504 C 0.21076 0.24483 0.29134 0.0
C505 C 0.20972 0.28575 0.26352 0.0
C506 C 0.22875 0.27923 0.32461 0.0
C507 C 0.23383 0.20689 0.33865 0.0
N508 N 0.21575 0.28271 0.28296 0.0
N509 N 0.22477 0.20944 0.31956 0.0
H510 H 0.90268 0.16315 0.58667 0.0
H511 H 0.02015 0.32347 0.67791 0.0
H512 H 0.9401 0.30128 0.58844 0.0
H513 H -0.03182 0.18236 0.68008 0.0
H514 H -0.00282 0.31657 0.64378 0.0
H515 H 0.92691 0.16843 0.62064 0.0
C516 C 0.91415 0.19402 0.59451 0.0
C517 C 0.91853 0.2316 0.58496 0.0
C518 C -0.00836 0.28717 0.65157 0.0
C519 C 0.9486 0.2387 0.62326 0.0
C520 C 0.00576 0.29135 0.67089 0.0
C521 C -0.00302 0.25358 0.6816 0.0
C522 C -0.03172 0.24484 0.643 0.0
C523 C -0.02361 0.21236 0.67211 0.0
C524 C 0.92892 0.19735 0.61373 0.0
C525 C 0.93543 0.27137 0.59546 0.0
N526 N -0.0376 0.20898 0.65341 0.0
N527 N 0.95022 0.274 0.61394 0.0
H528 H 0.63252 -0.00283 0.01059 0.0
H529 H 0.75717 -0.00888 0.91324 0.0
H530 H 0.77333 0.04808 0.00763 0.0
H531 H 0.61536 0.91752 0.92056 0.0
H532 H 0.76456 0.01646 0.94698 0.0
H533 H 0.62672 -0.02323 -0.02385 0.0
C534 C 0.66252 0.00581 0.00238 0.0
C535 C 0.70361 0.0252 0.01178 0.0
C536 C 0.73183 -0.00575 0.94136 0.0
C537 C 0.697 -0.00019 -0.02732 0.0
C538 C 0.72762 -0.02068 0.9222 0.0
C539 C 0.68562 0.95164 0.91427 0.0
C540 C 0.69367 -0.01789 0.95263 0.0
C541 C 0.64834 0.93806 0.92629 0.0
C542 C 0.65906 -0.00674 -0.01713 0.0
C543 C 0.74126 0.03427 0.00076 0.0
N544 N 0.6532 0.95384 0.94485 0.0
N545 N 0.73702 0.02107 -0.01821 0.0
H546 H 0.71064 0.76159 0.25233 0.0
H547 H 0.71468 0.65796 0.35514 0.0
H548 H 0.71954 0.64251 0.25777 0.0
H549 H 0.67848 0.75938 0.34812 0.0
H550 H 0.72328 0.65607 0.32006 0.0
H551 H 0.70734 0.76593 0.28753 0.0
C552 C 0.71217 0.73632 0.26096 0.0
C553 C 0.71483 0.70119 0.252 0.0
C554 C 0.71351 0.67877 0.32614 0.0
C555 C 0.71091 0.70619 0.29267 0.0
C556 C 0.70866 0.68011 0.34625 0.0
C557 C 0.69599 0.70919 0.35474 0.0
C558 C 0.70604 0.70692 0.31421 0.0
C559 C 0.68827 0.73651 0.34229 0.0
C560 C 0.71014 0.73888 0.28112 0.0
C561 C 0.7175 0.67009 0.26403 0.0
N562 N 0.6936 0.73481 0.32264 0.0
N563 N 0.71515 0.67315 0.28381 0.0
H564 H 0.00992 0.67899 0.5834 0.0
H565 H 0.89544 0.72788 0.67498 0.0
H566 H -0.03655 0.77303 0.58212 0.0
H567 H 0.92983 0.62473 0.67416 0.0
H568 H 0.91849 0.74415 0.6407 0.0
H569 H -0.01522 0.66168 0.61747 0.0
C570 C -0.00389 0.69728 0.59059 0.0
C571 C -0.01049 0.72808 0.58018 0.0
C572 C 0.91998 0.71719 0.64785 0.0
C573 C -0.04133 0.70707 0.61862 0.0
C574 C 0.90582 0.70727 0.66727 0.0
C575 C 0.9097 0.67419 0.67716 0.0
C576 C 0.93874 0.69423 0.63846 0.0
C577 C 0.92537 0.64978 0.66682 0.0
C578 C -0.01917 0.68673 0.60985 0.0
C579 C -0.03021 0.74963 0.58984 0.0
N580 N 0.93979 0.66059 0.6481 0.0
N581 N 0.95481 0.73855 0.60846 0.0
H582 H 0.29818 -0.02042 0.01602 0.0
H583 H 0.16477 -0.02761 0.92052 0.0
H584 H 0.15626 0.90066 0.01132 0.0
H585 H 0.30726 0.04039 0.92279 0.0
H586 H 0.16118 0.95169 0.95475 0.0
H587 H 0.30251 0.00327 -0.01779 0.0
C588 C 0.26799 0.96622 0.00762 0.0
C589 C 0.22681 0.93774 0.01637 0.0
C590 C 0.1933 -0.02815 0.94794 0.0
C591 C 0.23133 0.96621 -0.02212 0.0
C592 C 0.19537 -0.01558 0.92852 0.0
C593 C 0.2364 0.0087 0.91895 0.0
C594 C 0.2326 -0.01673 0.95788 0.0
C595 C 0.27504 0.02248 0.92977 0.0
C596 C 0.27044 -0.01974 -0.01159 0.0
C597 C 0.18868 0.92199 0.005 0.0
N598 N 0.27221 0.00912 0.94864 0.0
N599 N 0.19181 0.93686 -0.01363 0.0
loop_
_geom_bond_atom_site_label_1
_geom_bond_atom_site_label_2
_geom_bond_distance
_geom_bond_site_symmetry_2
_ccdc_geom_bond_type
C0 O1 1.306 . S
C0 O3 1.160 . S
O1 C0 1.306 . S
O1 Cd2 2.228 . S
Cd2 O1 2.228 . S
Cd2 O6 2.273 . S
Cd2 O10 2.277 . S
O3 C0 1.160 . S
O3 Cd4 2.203 . S
Cd4 O3 2.203 . S
Cd4 O6 2.411 . S
Cd4 O7 2.333 . S
Cd4 O8 2.352 . S
Cd4 O12 2.277 . S
Cd4 O13 2.356 . S
C5 O10 1.209 . S
C5 O12 1.226 . S
O6 Cd2 2.273 . S
O6 Cd4 2.411 . S
O6 C9 1.320 . S
O7 Cd4 2.333 . S
O7 C9 1.214 . S
O8 Cd4 2.352 . S
O8 C11 1.258 . S
C9 O6 1.320 . S
C9 O7 1.214 . S
O10 Cd2 2.277 . S
O10 C5 1.209 . S
C11 O8 1.258 . S
C11 O13 1.282 . S
O12 Cd4 2.277 . S
O12 C5 1.226 . S
O13 Cd4 2.356 . S
O13 C11 1.282 . S
C14 O15 1.306 1_655 S
C14 O17 1.160 . S
O15 C14 1.306 1_455 S
O15 Cd16 2.228 . S
Cd16 O15 2.228 . S
Cd16 O20 2.273 . S
Cd16 O24 2.277 1_455 S
O17 C14 1.160 . S
O17 Cd18 2.203 . S
Cd18 O17 2.203 . S
Cd18 O20 2.411 1_655 S
Cd18 O21 2.333 . S
Cd18 O22 2.352 . S
Cd18 O26 2.277 . S
Cd18 O27 2.356 . S
C19 O24 1.209 . S
C19 O26 1.226 . S
O20 Cd16 2.273 . S
O20 Cd18 2.411 1_455 S
O20 C23 1.320 . S
O21 Cd18 2.333 . S
O21 C23 1.214 1_655 S
O22 Cd18 2.352 . S
O22 C25 1.258 . S
C23 O20 1.320 . S
C23 O21 1.214 1_455 S
O24 Cd16 2.277 1_655 S
O24 C19 1.209 . S
C25 O22 1.258 . S
C25 O27 1.282 . S
O26 Cd18 2.277 . S
O26 C19 1.226 . S
O27 Cd18 2.356 . S
O27 C25 1.282 . S
C28 O29 1.306 1_565 S
C28 O31 1.160 . S
O29 C28 1.306 1_545 S
O29 Cd30 2.228 . S
Cd30 O29 2.228 . S
Cd30 O34 2.273 . S
Cd30 O38 2.277 1_545 S
O31 C28 1.160 . S
O31 Cd32 2.203 . S
Cd32 O31 2.203 . S
Cd32 O34 2.411 1_565 S
Cd32 O35 2.333 . S
Cd32 O36 2.352 . S
Cd32 O40 2.277 . S
Cd32 O41 2.356 . S
C33 O38 1.209 . S
C33 O40 1.226 . S
O34 Cd30 2.273 . S
O34 Cd32 2.411 1_545 S
O34 C37 1.320 . S
O35 Cd32 2.333 . S
O35 C37 1.214 1_565 S
O36 Cd32 2.352 . S
O36 C39 1.258 . S
C37 O34 1.320 . S
C37 O35 1.214 1_545 S
O38 Cd30 2.277 1_565 S
O38 C33 1.209 . S
C39 O36 1.258 . S
C39 O41 1.282 . S
O40 Cd32 2.277 . S
O40 C33 1.226 . S
O41 Cd32 2.356 . S
O41 C39 1.282 . S
C42 O43 1.306 . S
C42 O45 1.160 . S
O43 C42 1.306 . S
O43 Cd44 2.228 . S
Cd44 O43 2.228 . S
Cd44 O48 2.273 . S
Cd44 O52 2.277 . S
O45 C42 1.160 . S
O45 Cd46 2.203 . S
Cd46 O45 2.203 . S
Cd46 O48 2.411 . S
Cd46 O49 2.333 . S
Cd46 O50 2.352 . S
Cd46 O54 2.277 . S
Cd46 O55 2.356 . S
C47 O52 1.209 . S
C47 O54 1.226 . S
O48 Cd44 2.273 . S
O48 Cd46 2.411 . S
O48 C51 1.320 . S
O49 Cd46 2.333 . S
O49 C51 1.214 . S
O50 Cd46 2.352 . S
O50 C53 1.258 . S
C51 O48 1.320 . S
C51 O49 1.214 . S
O52 Cd44 2.277 . S
O52 C47 1.209 . S
C53 O50 1.258 . S
C53 O55 1.282 . S
O54 Cd46 2.277 . S
O54 C47 1.226 . S
O55 Cd46 2.356 . S
O55 C53 1.282 . S
C56 O57 1.306 1_455 S
C56 O59 1.160 . S
O57 C56 1.306 1_655 S
O57 Cd58 2.228 . S
Cd58 O57 2.228 . S
Cd58 O62 2.273 . S
Cd58 O66 2.277 1_655 S
O59 C56 1.160 . S
O59 Cd60 2.203 . S
Cd60 O59 2.203 . S
Cd60 O62 2.411 1_455 S
Cd60 O63 2.333 . S
Cd60 O64 2.352 . S
Cd60 O68 2.277 . S
Cd60 O69 2.356 . S
C61 O66 1.209 . S
C61 O68 1.226 . S
O62 Cd58 2.273 . S
O62 Cd60 2.411 1_655 S
O62 C65 1.320 . S
O63 Cd60 2.333 . S
O63 C65 1.214 1_455 S
O64 Cd60 2.352 . S
O64 C67 1.258 . S
C65 O62 1.320 . S
C65 O63 1.214 1_655 S
O66 Cd58 2.277 1_455 S
O66 C61 1.209 . S
C67 O64 1.258 . S
C67 O69 1.282 . S
O68 Cd60 2.277 . S
O68 C61 1.226 . S
O69 Cd60 2.356 . S
O69 C67 1.282 . S
C70 O71 1.306 1_545 S
C70 O73 1.160 . S
O71 C70 1.306 1_565 S
O71 Cd72 2.228 . S
Cd72 O71 2.228 . S
Cd72 O76 2.273 . S
Cd72 O80 2.277 1_565 S
O73 C70 1.160 . S
O73 Cd74 2.203 . S
Cd74 O73 2.203 . S
Cd74 O76 2.411 1_545 S
Cd74 O77 2.333 . S
Cd74 O78 2.352 . S
Cd74 O82 2.277 . S
Cd74 O83 2.356 . S
C75 O80 1.209 . S
C75 O82 1.226 . S
O76 Cd72 2.273 . S
O76 Cd74 2.411 1_565 S
O76 C79 1.320 . S
O77 Cd74 2.333 . S
O77 C79 1.214 1_545 S
O78 Cd74 2.352 . S
O78 C81 1.258 . S
C79 O76 1.320 . S
C79 O77 1.214 1_565 S
O80 Cd72 2.277 1_545 S
O80 C75 1.209 . S
C81 O78 1.258 . S
C81 O83 1.282 . S
O82 Cd74 2.277 . S
O82 C75 1.226 . S
O83 Cd74 2.356 . S
O83 C81 1.282 . S
C84 O85 1.306 . S
C84 O87 1.160 . S
O85 C84 1.306 . S
O85 Cd86 2.228 . S
Cd86 O85 2.228 . S
Cd86 O90 2.273 . S
Cd86 O94 2.277 . S
O87 C84 1.160 . S
O87 Cd88 2.203 . S
Cd88 O87 2.203 . S
Cd88 O90 2.411 . S
Cd88 O91 2.333 . S
Cd88 O92 2.352 . S
Cd88 O96 2.277 . S
Cd88 O97 2.356 . S
C89 O94 1.209 . S
C89 O96 1.226 . S
O90 Cd86 2.273 . S
O90 Cd88 2.411 . S
O90 C93 1.320 . S
O91 Cd88 2.333 . S
O91 C93 1.214 . S
O92 Cd88 2.352 . S
O92 C95 1.258 . S
C93 O90 1.320 . S
C93 O91 1.214 . S
O94 Cd86 2.277 . S
O94 C89 1.209 . S
C95 O92 1.258 . S
C95 O97 1.282 . S
O96 Cd88 2.277 . S
O96 C89 1.226 . S
O97 Cd88 2.356 . S
O97 C95 1.282 . S
C98 O99 1.306 1_655 S
C98 O101 1.160 . S
O99 C98 1.306 1_455 S
O99 Cd100 2.228 . S
Cd100 O99 2.228 . S
Cd100 O104 2.273 . S
Cd100 O108 2.277 1_455 S
O101 C98 1.160 . S
O101 Cd102 2.203 . S
Cd102 O101 2.203 . S
Cd102 O104 2.411 1_655 S
Cd102 O105 2.333 . S
Cd102 O106 2.352 . S
Cd102 O110 2.277 . S
Cd102 O111 2.356 . S
C103 O108 1.209 . S
C103 O110 1.226 . S
O104 Cd100 2.273 . S
O104 Cd102 2.411 1_455 S
O104 C107 1.320 . S
O105 Cd102 2.333 . S
O105 C107 1.214 1_655 S
O106 Cd102 2.352 . S
O106 C109 1.258 . S
C107 O104 1.320 . S
C107 O105 1.214 1_455 S
O108 Cd100 2.277 1_655 S
O108 C103 1.209 . S
C109 O106 1.258 . S
C109 O111 1.282 . S
O110 Cd102 2.277 . S
O110 C103 1.226 . S
O111 Cd102 2.356 . S
O111 C109 1.282 . S
C112 O113 1.306 1_565 S
C112 O115 1.160 . S
O113 C112 1.306 1_545 S
O113 Cd114 2.228 . S
Cd114 O113 2.228 . S
Cd114 O118 2.273 . S
Cd114 O122 2.277 1_545 S
O115 C112 1.160 . S
O115 Cd116 2.203 . S
Cd116 O115 2.203 . S
Cd116 O118 2.411 1_565 S
Cd116 O119 2.333 . S
Cd116 O120 2.352 . S
Cd116 O124 2.277 . S
Cd116 O125 2.356 . S
C117 O122 1.209 . S
C117 O124 1.226 . S
O118 Cd114 2.273 . S
O118 Cd116 2.411 1_545 S
O118 C121 1.320 . S
O119 Cd116 2.333 . S
O119 C121 1.214 1_565 S
O120 Cd116 2.352 . S
O120 C123 1.258 . S
C121 O118 1.320 . S
C121 O119 1.214 1_545 S
O122 Cd114 2.277 1_565 S
O122 C117 1.209 . S
C123 O120 1.258 . S
C123 O125 1.282 . S
O124 Cd116 2.277 . S
O124 C117 1.226 . S
O125 Cd116 2.356 . S
O125 C123 1.282 . S
C126 O127 1.306 . S
C126 O129 1.160 . S
O127 C126 1.306 . S
O127 Cd128 2.228 . S
Cd128 O127 2.228 . S
Cd128 O132 2.273 . S
Cd128 O136 2.277 . S
O129 C126 1.160 . S
O129 Cd130 2.203 . S
Cd130 O129 2.203 . S
Cd130 O132 2.411 . S
Cd130 O133 2.333 . S
Cd130 O134 2.352 . S
Cd130 O138 2.277 . S
Cd130 O139 2.356 . S
C131 O136 1.209 . S
C131 O138 1.226 . S
O132 Cd128 2.273 . S
O132 Cd130 2.411 . S
O132 C135 1.320 . S
O133 Cd130 2.333 . S
O133 C135 1.214 . S
O134 Cd130 2.352 . S
O134 C137 1.258 . S
C135 O132 1.320 . S
C135 O133 1.214 . S
O136 Cd128 2.277 . S
O136 C131 1.209 . S
C137 O134 1.258 . S
C137 O139 1.282 . S
O138 Cd130 2.277 . S
O138 C131 1.226 . S
O139 Cd130 2.356 . S
O139 C137 1.282 . S
C140 O141 1.306 1_455 S
C140 O143 1.160 . S
O141 C140 1.306 1_655 S
O141 Cd142 2.228 . S
Cd142 O141 2.228 . S
Cd142 O146 2.273 . S
Cd142 O150 2.277 1_655 S
O143 C140 1.160 . S
O143 Cd144 2.203 . S
Cd144 O143 2.203 . S
Cd144 O146 2.411 1_455 S
Cd144 O147 2.333 . S
Cd144 O148 2.352 . S
Cd144 O152 2.277 . S
Cd144 O153 2.356 . S
C145 O150 1.209 . S
C145 O152 1.226 . S
O146 Cd142 2.273 . S
O146 Cd144 2.411 1_655 S
O146 C149 1.320 . S
O147 Cd144 2.333 . S
O147 C149 1.214 1_455 S
O148 Cd144 2.352 . S
O148 C151 1.258 . S
C149 O146 1.320 . S
C149 O147 1.214 1_655 S
O150 Cd142 2.277 1_455 S
O150 C145 1.209 . S
C151 O148 1.258 . S
C151 O153 1.282 . S
O152 Cd144 2.277 . S
O152 C145 1.226 . S
O153 Cd144 2.356 . S
O153 C151 1.282 . S
C154 O155 1.306 1_545 S
C154 O157 1.160 . S
O155 C154 1.306 1_565 S
O155 Cd156 2.228 . S
Cd156 O155 2.228 . S
Cd156 O160 2.273 . S
Cd156 O164 2.277 1_565 S
O157 C154 1.160 . S
O157 Cd158 2.203 . S
Cd158 O157 2.203 . S
Cd158 O160 2.411 1_545 S
Cd158 O161 2.333 . S
Cd158 O162 2.352 . S
Cd158 O166 2.277 . S
Cd158 O167 2.356 . S
C159 O164 1.209 . S
C159 O166 1.226 . S
O160 Cd156 2.273 . S
O160 Cd158 2.411 1_565 S
O160 C163 1.320 . S
O161 Cd158 2.333 . S
O161 C163 1.214 1_545 S
O162 Cd158 2.352 . S
O162 C165 1.258 . S
C163 O160 1.320 . S
C163 O161 1.214 1_565 S
O164 Cd156 2.277 1_545 S
O164 C159 1.209 . S
C165 O162 1.258 . S
C165 O167 1.282 . S
O166 Cd158 2.277 . S
O166 C159 1.226 . S
O167 Cd158 2.356 . S
O167 C165 1.282 . S
H168 C174 0.930 . S
H169 C178 0.930 . S
H170 C183 0.929 . S
H171 C181 0.929 . S
H172 C176 0.929 . S
H173 C182 0.929 . S
C174 H168 0.930 . S
C174 C175 1.367 . S
C174 C182 1.378 . S
C175 C174 1.367 . S
C175 C183 1.433 . S
C176 H172 0.929 . S
C176 C178 1.378 . S
C176 C180 1.350 . S
C177 C180 1.463 1_655 S
C177 C182 1.350 . S
C177 N185 1.427 . S
C178 H169 0.930 . S
C178 C176 1.378 . S
C178 C179 1.367 . S
C179 C178 1.367 . S
C179 C181 1.433 . S
C180 C176 1.350 . S
C180 C177 1.463 1_455 S
C180 N184 1.427 . S
C181 H171 0.929 . S
C181 C179 1.433 . S
C181 N184 1.384 . S
C182 H173 0.929 . S
C182 C174 1.378 . S
C182 C177 1.350 . S
C183 H170 0.929 . S
C183 C175 1.433 . S
C183 N185 1.384 . S
N184 C180 1.427 . S
N184 C181 1.384 . S
N185 C177 1.427 . S
N185 C183 1.384 . S
H186 C192 0.930 . S
H187 C196 0.930 . S
H188 C201 0.929 . S
H189 C199 0.929 . S
H190 C194 0.929 . S
H191 C200 0.929 . S
C192 H186 0.930 . S
C192 C193 1.367 . S
C192 C200 1.378 . S
C193 C192 1.367 . S
C193 C201 1.433 . S
C194 H190 0.929 . S
C194 C196 1.378 . S
C194 C198 1.350 . S
C195 C198 1.463 1_545 S
C195 C200 1.350 . S
C195 N203 1.427 . S
C196 H187 0.930 . S
C196 C194 1.378 . S
C196 C197 1.367 . S
C197 C196 1.367 . S
C197 C199 1.433 . S
C198 C194 1.350 . S
C198 C195 1.463 1_565 S
C198 N202 1.427 . S
C199 H189 0.929 . S
C199 C197 1.433 . S
C199 N202 1.384 . S
C200 H191 0.929 . S
C200 C192 1.378 . S
C200 C195 1.350 . S
C201 H188 0.929 . S
C201 C193 1.433 . S
C201 N203 1.384 . S
N202 C198 1.427 . S
N202 C199 1.384 . S
N203 C195 1.427 . S
N203 C201 1.384 . S
H204 C210 0.930 . S
H205 C214 0.930 . S
H206 C219 0.929 . S
H207 C217 0.929 . S
H208 C212 0.929 . S
H209 C218 0.929 . S
C210 H204 0.930 . S
C210 C211 1.367 . S
C210 C218 1.378 . S
C211 C210 1.367 . S
C211 C219 1.433 . S
C212 H208 0.929 . S
C212 C214 1.378 . S
C212 C216 1.350 . S
C213 C216 1.463 . S
C213 C218 1.350 . S
C213 N221 1.427 . S
C214 H205 0.930 . S
C214 C212 1.378 . S
C214 C215 1.367 . S
C215 C214 1.367 . S
C215 C217 1.433 . S
C216 C212 1.350 . S
C216 C213 1.463 . S
C216 N220 1.427 . S
C217 H207 0.929 . S
C217 C215 1.433 . S
C217 N220 1.384 . S
C218 H209 0.929 . S
C218 C210 1.378 . S
C218 C213 1.350 . S
C219 H206 0.929 . S
C219 C211 1.433 . S
C219 N221 1.384 . S
N220 C216 1.427 . S
N220 C217 1.384 . S
N221 C213 1.427 . S
N221 C219 1.384 . S
H222 C228 0.930 . S
H223 C232 0.930 . S
H224 C237 0.929 . S
H225 C235 0.929 . S
H226 C230 0.929 1_655 S
H227 C236 0.929 1_455 S
C228 H222 0.930 . S
C228 C229 1.367 . S
C228 C236 1.378 . S
C229 C228 1.367 . S
C229 C237 1.433 . S
C230 H226 0.929 1_455 S
C230 C232 1.378 . S
C230 C234 1.350 . S
C231 C234 1.463 1_655 S
C231 C236 1.350 . S
C231 N239 1.427 . S
C232 H223 0.930 . S
C232 C230 1.378 . S
C232 C233 1.367 . S
C233 C232 1.367 . S
C233 C235 1.433 . S
C234 C230 1.350 . S
C234 C231 1.463 1_455 S
C234 N238 1.427 . S
C235 H225 0.929 . S
C235 C233 1.433 . S
C235 N238 1.384 . S
C236 H227 0.929 1_655 S
C236 C228 1.378 . S
C236 C231 1.350 . S
C237 H224 0.929 . S
C237 C229 1.433 . S
C237 N239 1.384 . S
N238 C234 1.427 . S
N238 C235 1.384 . S
N239 C231 1.427 . S
N239 C237 1.384 . S
H240 C246 0.930 . S
H241 C250 0.930 . S
H242 C255 0.929 . S
H243 C253 0.929 . S
H244 C248 0.929 . S
H245 C254 0.929 . S
C246 H240 0.930 . S
C246 C247 1.367 . S
C246 C254 1.378 . S
C247 C246 1.367 . S
C247 C255 1.433 . S
C248 H244 0.929 . S
C248 C250 1.378 . S
C248 C252 1.350 . S
C249 C252 1.463 1_545 S
C249 C254 1.350 . S
C249 N257 1.427 . S
C250 H241 0.930 . S
C250 C248 1.378 . S
C250 C251 1.367 . S
C251 C250 1.367 . S
C251 C253 1.433 . S
C252 C248 1.350 . S
C252 C249 1.463 1_565 S
C252 N256 1.427 . S
C253 H243 0.929 . S
C253 C251 1.433 . S
C253 N256 1.384 . S
C254 H245 0.929 . S
C254 C246 1.378 . S
C254 C249 1.350 . S
C255 H242 0.929 . S
C255 C247 1.433 . S
C255 N257 1.384 . S
N256 C252 1.427 . S
N256 C253 1.384 . S
N257 C249 1.427 . S
N257 C255 1.384 . S
H258 C264 0.930 . S
H259 C268 0.930 . S
H260 C273 0.929 . S
H261 C271 0.929 . S
H262 C266 0.929 . S
H263 C272 0.929 . S
C264 H258 0.930 . S
C264 C265 1.367 . S
C264 C272 1.378 . S
C265 C264 1.367 . S
C265 C273 1.433 . S
C266 H262 0.929 . S
C266 C268 1.378 . S
C266 C270 1.350 . S
C267 C270 1.463 . S
C267 C272 1.350 . S
C267 N275 1.427 . S
C268 H259 0.930 . S
C268 C266 1.378 . S
C268 C269 1.367 . S
C269 C268 1.367 . S
C269 C271 1.433 . S
C270 C266 1.350 . S
C270 C267 1.463 . S
C270 N274 1.427 . S
C271 H261 0.929 . S
C271 C269 1.433 . S
C271 N274 1.384 . S
C272 H263 0.929 . S
C272 C264 1.378 . S
C272 C267 1.350 . S
C273 H260 0.929 . S
C273 C265 1.433 . S
C273 N275 1.384 . S
N274 C270 1.427 . S
N274 C271 1.384 . S
N275 C267 1.427 . S
N275 C273 1.384 . S
H276 C282 0.930 . S
H277 C286 0.930 . S
H278 C291 0.929 . S
H279 C289 0.929 . S
H280 C284 0.929 . S
H281 C290 0.929 . S
C282 H276 0.930 . S
C282 C283 1.367 . S
C282 C290 1.378 . S
C283 C282 1.367 . S
C283 C291 1.433 . S
C284 H280 0.929 . S
C284 C286 1.378 . S
C284 C288 1.350 . S
C285 C288 1.463 . S
C285 C290 1.350 . S
C285 N293 1.427 . S
C286 H277 0.930 . S
C286 C284 1.378 . S
C286 C287 1.367 . S
C287 C286 1.367 . S
C287 C289 1.433 . S
C288 C284 1.350 . S
C288 C285 1.463 . S
C288 N292 1.427 . S
C289 H279 0.929 . S
C289 C287 1.433 . S
C289 N292 1.384 . S
C290 H281 0.929 . S
C290 C282 1.378 . S
C290 C285 1.350 . S
C291 H278 0.929 . S
C291 C283 1.433 . S
C291 N293 1.384 . S
N292 C288 1.427 . S
N292 C289 1.384 . S
N293 C285 1.427 . S
N293 C291 1.384 . S
H294 C300 0.930 . S
H295 C304 0.930 . S
H296 C309 0.929 . S
H297 C307 0.929 . S
H298 C302 0.929 . S
H299 C308 0.929 . S
C300 H294 0.930 . S
C300 C301 1.367 . S
C300 C308 1.378 . S
C301 C300 1.367 . S
C301 C309 1.433 1_455 S
C302 H298 0.929 . S
C302 C304 1.378 . S
C302 C306 1.350 . S
C303 C306 1.463 1_455 S
C303 C308 1.350 . S
C303 N311 1.427 1_455 S
C304 H295 0.930 . S
C304 C302 1.378 . S
C304 C305 1.367 . S
C305 C304 1.367 . S
C305 C307 1.433 1_655 S
C306 C302 1.350 . S
C306 C303 1.463 1_655 S
C306 N310 1.427 1_655 S
C307 H297 0.929 . S
C307 C305 1.433 1_455 S
C307 N310 1.384 . S
C308 H299 0.929 . S
C308 C300 1.378 . S
C308 C303 1.350 . S
C309 H296 0.929 . S
C309 C301 1.433 1_655 S
C309 N311 1.384 . S
N310 C306 1.427 1_455 S
N310 C307 1.384 . S
N311 C303 1.427 1_655 S
N311 C309 1.384 . S
H312 C318 0.930 . S
H313 C322 0.930 . S
H314 C327 0.929 . S
H315 C325 0.929 . S
H316 C320 0.929 . S
H317 C326 0.929 . S
C318 H312 0.930 . S
C318 C319 1.367 1_565 S
C318 C326 1.378 . S
C319 C318 1.367 1_545 S
C319 C327 1.433 . S
C320 H316 0.929 . S
C320 C322 1.378 . S
C320 C324 1.350 1_545 S
C321 C324 1.463 1_545 S
C321 C326 1.350 1_545 S
C321 N329 1.427 . S
C322 H313 0.930 . S
C322 C320 1.378 . S
C322 C323 1.367 1_545 S
C323 C322 1.367 1_565 S
C323 C325 1.433 . S
C324 C320 1.350 1_565 S
C324 C321 1.463 1_565 S
C324 N328 1.427 . S
C325 H315 0.929 . S
C325 C323 1.433 . S
C325 N328 1.384 . S
C326 H317 0.929 . S
C326 C318 1.378 . S
C326 C321 1.350 1_565 S
C327 H314 0.929 . S
C327 C319 1.433 . S
C327 N329 1.384 . S
N328 C324 1.427 . S
N328 C325 1.384 . S
N329 C321 1.427 . S
N329 C327 1.384 . S
H330 C336 0.930 . S
H331 C340 0.930 . S
H332 C345 0.929 . S
H333 C343 0.929 . S
H334 C338 0.929 . S
H335 C344 0.929 . S
C336 H330 0.930 . S
C336 C337 1.367 . S
C336 C344 1.378 . S
C337 C336 1.367 . S
C337 C345 1.433 . S
C338 H334 0.929 . S
C338 C340 1.378 . S
C338 C342 1.350 . S
C339 C342 1.463 . S
C339 C344 1.350 . S
C339 N347 1.427 . S
C340 H331 0.930 . S
C340 C338 1.378 . S
C340 C341 1.367 . S
C341 C340 1.367 . S
C341 C343 1.433 . S
C342 C338 1.350 . S
C342 C339 1.463 . S
C342 N346 1.427 . S
C343 H333 0.929 . S
C343 C341 1.433 . S
C343 N346 1.384 . S
C344 H335 0.929 . S
C344 C336 1.378 . S
C344 C339 1.350 . S
C345 H332 0.929 . S
C345 C337 1.433 . S
C345 N347 1.384 . S
N346 C342 1.427 . S
N346 C343 1.384 . S
N347 C339 1.427 . S
N347 C345 1.384 . S
H348 C354 0.930 . S
H349 C358 0.930 . S
H350 C363 0.929 1_455 S
H351 C361 0.929 1_655 S
H352 C356 0.929 . S
H353 C362 0.929 . S
C354 H348 0.930 . S
C354 C355 1.367 . S
C354 C362 1.378 . S
C355 C354 1.367 . S
C355 C363 1.433 . S
C356 H352 0.929 . S
C356 C358 1.378 . S
C356 C360 1.350 . S
C357 C360 1.463 1_655 S
C357 C362 1.350 . S
C357 N365 1.427 1_655 S
C358 H349 0.930 . S
C358 C356 1.378 . S
C358 C359 1.367 . S
C359 C358 1.367 . S
C359 C361 1.433 . S
C360 C356 1.350 . S
C360 C357 1.463 1_455 S
C360 N364 1.427 1_455 S
C361 H351 0.929 1_455 S
C361 C359 1.433 . S
C361 N364 1.384 1_455 S
C362 H353 0.929 . S
C362 C354 1.378 . S
C362 C357 1.350 . S
C363 H350 0.929 1_655 S
C363 C355 1.433 . S
C363 N365 1.384 1_655 S
N364 C360 1.427 1_655 S
N364 C361 1.384 1_655 S
N365 C357 1.427 1_455 S
N365 C363 1.384 1_455 S
H366 C372 0.930 . S
H367 C376 0.930 . S
H368 C381 0.929 . S
H369 C379 0.929 . S
H370 C374 0.929 . S
H371 C380 0.929 . S
C372 H366 0.930 . S
C372 C373 1.367 . S
C372 C380 1.378 . S
C373 C372 1.367 . S
C373 C381 1.433 . S
C374 H370 0.929 . S
C374 C376 1.378 . S
C374 C378 1.350 . S
C375 C378 1.463 1_565 S
C375 C380 1.350 . S
C375 N383 1.435 . S
C376 H367 0.930 . S
C376 C374 1.378 . S
C376 C377 1.367 . S
C377 C376 1.367 . S
C377 C379 1.433 . S
C378 C374 1.350 . S
C378 C375 1.463 1_545 S
C378 N382 1.435 . S
C379 H369 0.929 . S
C379 C377 1.433 . S
C379 N382 1.379 . S
C380 H371 0.929 . S
C380 C372 1.378 . S
C380 C375 1.350 . S
C381 H368 0.929 . S
C381 C373 1.433 . S
C381 N383 1.379 . S
N382 C378 1.435 . S
N382 C379 1.379 . S
N383 C375 1.435 . S
N383 C381 1.379 . S
H384 C390 0.930 . S
H385 C394 0.930 . S
H386 C399 0.929 . S
H387 C397 0.929 . S
H388 C392 0.929 . S
H389 C398 0.929 . S
C390 H384 0.930 . S
C390 C391 1.367 . S
C390 C398 1.378 . S
C391 C390 1.367 . S
C391 C399 1.433 . S
C392 H388 0.929 . S
C392 C394 1.378 . S
C392 C396 1.350 . S
C393 C396 1.463 . S
C393 C398 1.350 . S
C393 N401 1.427 . S
C394 H385 0.930 . S
C394 C392 1.378 . S
C394 C395 1.367 . S
C395 C394 1.367 . S
C395 C397 1.433 . S
C396 C392 1.350 . S
C396 C393 1.463 . S
C396 N400 1.427 . S
C397 H387 0.929 . S
C397 C395 1.433 . S
C397 N400 1.384 . S
C398 H389 0.929 . S
C398 C390 1.378 . S
C398 C393 1.350 . S
C399 H386 0.929 . S
C399 C391 1.433 . S
C399 N401 1.384 . S
N400 C396 1.427 . S
N400 C397 1.384 . S
N401 C393 1.427 . S
N401 C399 1.384 . S
H402 C408 0.930 . S
H403 C412 0.930 . S
H404 C417 0.929 . S
H405 C415 0.929 . S
H406 C410 0.929 . S
H407 C416 0.929 . S
C408 H402 0.930 . S
C408 C409 1.367 . S
C408 C416 1.378 . S
C409 C408 1.367 . S
C409 C417 1.433 . S
C410 H406 0.929 . S
C410 C412 1.378 . S
C410 C414 1.350 . S
C411 C414 1.463 . S
C411 C416 1.350 . S
C411 N419 1.427 . S
C412 H403 0.930 . S
C412 C410 1.378 . S
C412 C413 1.367 . S
C413 C412 1.367 . S
C413 C415 1.433 . S
C414 C410 1.350 . S
C414 C411 1.463 . S
C414 N418 1.427 . S
C415 H405 0.929 . S
C415 C413 1.433 . S
C415 N418 1.384 . S
C416 H407 0.929 . S
C416 C408 1.378 . S
C416 C411 1.350 . S
C417 H404 0.929 . S
C417 C409 1.433 . S
C417 N419 1.384 . S
N418 C414 1.427 . S
N418 C415 1.384 . S
N419 C411 1.427 . S
N419 C417 1.384 . S
H420 C426 0.930 . S
H421 C430 0.930 . S
H422 C435 0.929 . S
H423 C433 0.929 . S
H424 C428 0.929 . S
H425 C434 0.929 . S
C426 H420 0.930 . S
C426 C427 1.367 . S
C426 C434 1.378 . S
C427 C426 1.367 . S
C427 C435 1.433 . S
C428 H424 0.929 . S
C428 C430 1.378 . S
C428 C432 1.350 . S
C429 C432 1.463 . S
C429 C434 1.350 . S
C429 N437 1.427 . S
C430 H421 0.930 . S
C430 C428 1.378 . S
C430 C431 1.367 . S
C431 C430 1.367 . S
C431 C433 1.433 . S
C432 C428 1.350 . S
C432 C429 1.463 . S
C432 N436 1.427 . S
C433 H423 0.929 . S
C433 C431 1.433 . S
C433 N436 1.384 . S
C434 H425 0.929 . S
C434 C426 1.378 . S
C434 C429 1.350 . S
C435 H422 0.929 . S
C435 C427 1.433 . S
C435 N437 1.384 . S
N436 C432 1.427 . S
N436 C433 1.384 . S
N437 C429 1.427 . S
N437 C435 1.384 . S
H438 C444 0.930 . S
H439 C448 0.930 . S
H440 C453 0.929 . S
H441 C451 0.929 . S
H442 C446 0.929 . S
H443 C452 0.929 . S
C444 H438 0.930 . S
C444 C445 1.367 . S
C444 C452 1.378 . S
C445 C444 1.367 . S
C445 C453 1.433 . S
C446 H442 0.929 . S
C446 C448 1.378 . S
C446 C450 1.350 . S
C447 C450 1.463 . S
C447 C452 1.350 . S
C447 N455 1.427 . S
C448 H439 0.930 . S
C448 C446 1.378 . S
C448 C449 1.367 . S
C449 C448 1.367 . S
C449 C451 1.433 . S
C450 C446 1.350 . S
C450 C447 1.463 . S
C450 N454 1.427 . S
C451 H441 0.929 . S
C451 C449 1.433 . S
C451 N454 1.384 . S
C452 H443 0.929 . S
C452 C444 1.378 . S
C452 C447 1.350 . S
C453 H440 0.929 . S
C453 C445 1.433 . S
C453 N455 1.384 . S
N454 C450 1.427 . S
N454 C451 1.384 . S
N455 C447 1.427 . S
N455 C453 1.384 . S
H456 C462 0.930 . S
H457 C466 0.930 . S
H458 C471 0.929 . S
H459 C469 0.929 . S
H460 C464 0.929 . S
H461 C470 0.929 . S
C462 H456 0.930 . S
C462 C463 1.367 . S
C462 C470 1.378 . S
C463 C462 1.367 . S
C463 C471 1.433 . S
C464 H460 0.929 . S
C464 C466 1.378 . S
C464 C468 1.350 . S
C465 C468 1.463 . S
C465 C470 1.350 . S
C465 N473 1.427 . S
C466 H457 0.930 . S
C466 C464 1.378 . S
C466 C467 1.367 . S
C467 C466 1.367 . S
C467 C469 1.433 . S
C468 C464 1.350 . S
C468 C465 1.463 . S
C468 N472 1.427 . S
C469 H459 0.929 . S
C469 C467 1.433 . S
C469 N472 1.384 . S
C470 H461 0.929 . S
C470 C462 1.378 . S
C470 C465 1.350 . S
C471 H458 0.929 . S
C471 C463 1.433 . S
C471 N473 1.384 . S
N472 C468 1.427 . S
N472 C469 1.384 . S
N473 C465 1.427 . S
N473 C471 1.384 . S
H474 C480 0.930 . S
H475 C484 0.930 . S
H476 C489 0.929 . S
H477 C487 0.929 . S
H478 C482 0.929 . S
H479 C488 0.929 . S
C480 H474 0.930 . S
C480 C481 1.367 . S
C480 C488 1.378 . S
C481 C480 1.367 . S
C481 C489 1.433 . S
C482 H478 0.929 . S
C482 C484 1.378 . S
C482 C486 1.350 . S
C483 C486 1.463 . S
C483 C488 1.350 . S
C483 N491 1.427 . S
C484 H475 0.930 . S
C484 C482 1.378 . S
C484 C485 1.367 . S
C485 C484 1.367 . S
C485 C487 1.433 . S
C486 C482 1.350 . S
C486 C483 1.463 . S
C486 N490 1.427 . S
C487 H477 0.929 . S
C487 C485 1.433 . S
C487 N490 1.384 . S
C488 H479 0.929 . S
C488 C480 1.378 . S
C488 C483 1.350 . S
C489 H476 0.929 . S
C489 C481 1.433 . S
C489 N491 1.384 . S
N490 C486 1.427 . S
N490 C487 1.384 . S
N491 C483 1.427 . S
N491 C489 1.384 . S
H492 C498 0.930 . S
H493 C502 0.930 . S
H494 C507 0.929 . S
H495 C505 0.929 . S
H496 C500 0.929 . S
H497 C506 0.929 . S
C498 H492 0.930 . S
C498 C499 1.367 . S
C498 C506 1.378 . S
C499 C498 1.367 . S
C499 C507 1.433 . S
C500 H496 0.929 . S
C500 C502 1.378 . S
C500 C504 1.350 . S
C501 C504 1.463 . S
C501 C506 1.350 . S
C501 N509 1.427 . S
C502 H493 0.930 . S
C502 C500 1.378 . S
C502 C503 1.367 . S
C503 C502 1.367 . S
C503 C505 1.433 . S
C504 C500 1.350 . S
C504 C501 1.463 . S
C504 N508 1.427 . S
C505 H495 0.929 . S
C505 C503 1.433 . S
C505 N508 1.384 . S
C506 H497 0.929 . S
C506 C498 1.378 . S
C506 C501 1.350 . S
C507 H494 0.929 . S
C507 C499 1.433 . S
C507 N509 1.384 . S
N508 C504 1.427 . S
N508 C505 1.384 . S
N509 C501 1.427 . S
N509 C507 1.384 . S
H510 C516 0.930 . S
H511 C520 0.930 . S
H512 C525 0.929 . S
H513 C523 0.929 . S
H514 C518 0.929 . S
H515 C524 0.929 . S
C516 H510 0.930 . S
C516 C517 1.367 . S
C516 C524 1.378 . S
C517 C516 1.367 . S
C517 C525 1.433 . S
C518 H514 0.929 . S
C518 C520 1.378 . S
C518 C522 1.350 . S
C519 C522 1.463 1_655 S
C519 C524 1.350 . S
C519 N527 1.427 . S
C520 H511 0.930 . S
C520 C518 1.378 . S
C520 C521 1.367 . S
C521 C520 1.367 . S
C521 C523 1.433 . S
C522 C518 1.350 . S
C522 C519 1.463 1_455 S
C522 N526 1.427 . S
C523 H513 0.929 . S
C523 C521 1.433 . S
C523 N526 1.384 . S
C524 H515 0.929 . S
C524 C516 1.378 . S
C524 C519 1.350 . S
C525 H512 0.929 . S
C525 C517 1.433 . S
C525 N527 1.384 . S
N526 C522 1.427 . S
N526 C523 1.384 . S
N527 C519 1.427 . S
N527 C525 1.384 . S
H528 C534 0.930 1_565 S
H529 C538 0.930 1_545 S
H530 C543 0.929 . S
H531 C541 0.929 . S
H532 C536 0.929 . S
H533 C542 0.929 . S
C534 H528 0.930 1_545 S
C534 C535 1.367 . S
C534 C542 1.378 1_545 S
C535 C534 1.367 . S
C535 C543 1.433 . S
C536 H532 0.929 . S
C536 C538 1.378 1_545 S
C536 C540 1.350 1_545 S
C537 C540 1.463 1_544 S
C537 C542 1.350 1_545 S
C537 N545 1.427 . S
C538 H529 0.930 1_565 S
C538 C536 1.378 1_565 S
C538 C539 1.367 . S
C539 C538 1.367 . S
C539 C541 1.433 . S
C540 C536 1.350 1_565 S
C540 C537 1.463 1_566 S
C540 N544 1.427 . S
C541 H531 0.929 . S
C541 C539 1.433 . S
C541 N544 1.384 . S
C542 H533 0.929 . S
C542 C534 1.378 1_565 S
C542 C537 1.350 1_565 S
C543 H530 0.929 . S
C543 C535 1.433 . S
C543 N545 1.384 . S
N544 C540 1.427 . S
N544 C541 1.384 . S
N545 C537 1.427 . S
N545 C543 1.384 . S
H546 C552 0.930 . S
H547 C556 0.930 . S
H548 C561 0.929 . S
H549 C559 0.929 . S
H550 C554 0.929 . S
H551 C560 0.929 . S
C552 H546 0.930 . S
C552 C553 1.367 . S
C552 C560 1.378 . S
C553 C552 1.367 . S
C553 C561 1.433 . S
C554 H550 0.929 . S
C554 C556 1.378 . S
C554 C558 1.350 . S
C555 C558 1.463 . S
C555 C560 1.350 . S
C555 N563 1.427 . S
C556 H547 0.930 . S
C556 C554 1.378 . S
C556 C557 1.367 . S
C557 C556 1.367 . S
C557 C559 1.433 . S
C558 C554 1.350 . S
C558 C555 1.463 . S
C558 N562 1.427 . S
C559 H549 0.929 . S
C559 C557 1.433 . S
C559 N562 1.384 . S
C560 H551 0.929 . S
C560 C552 1.378 . S
C560 C555 1.350 . S
C561 H548 0.929 . S
C561 C553 1.433 . S
C561 N563 1.384 . S
N562 C558 1.427 . S
N562 C559 1.384 . S
N563 C555 1.427 . S
N563 C561 1.384 . S
H564 C570 0.930 . S
H565 C574 0.930 . S
H566 C579 0.929 . S
H567 C577 0.929 . S
H568 C572 0.929 . S
H569 C578 0.929 . S
C570 H564 0.930 . S
C570 C571 1.367 . S
C570 C578 1.378 . S
C571 C570 1.367 . S
C571 C579 1.433 . S
C572 H568 0.929 . S
C572 C574 1.378 . S
C572 C576 1.350 . S
C573 C576 1.463 1_455 S
C573 C578 1.350 . S
C573 N581 1.427 . S
C574 H565 0.930 . S
C574 C572 1.378 . S
C574 C575 1.367 . S
C575 C574 1.367 . S
C575 C577 1.433 . S
C576 C572 1.350 . S
C576 C573 1.463 1_655 S
C576 N580 1.427 . S
C577 H567 0.929 . S
C577 C575 1.433 . S
C577 N580 1.384 . S
C578 H569 0.929 . S
C578 C570 1.378 . S
C578 C573 1.350 . S
C579 H566 0.929 . S
C579 C571 1.433 . S
C579 N581 1.384 . S
N580 C576 1.427 . S
N580 C577 1.384 . S
N581 C573 1.427 . S
N581 C579 1.384 . S
H582 C588 0.930 . S
H583 C592 0.930 . S
H584 C597 0.929 . S
H585 C595 0.929 . S
H586 C590 0.929 . S
H587 C596 0.929 . S
C588 H582 0.930 . S
C588 C589 1.367 1_545 S
C588 C596 1.378 . S
C589 C588 1.367 1_565 S
C589 C597 1.433 . S
C590 H586 0.929 . S
C590 C592 1.378 . S
C590 C594 1.350 1_565 S
C591 C594 1.463 1_564 S
C591 C596 1.350 1_565 S
C591 N599 1.427 . S
C592 H583 0.930 . S
C592 C590 1.378 . S
C592 C593 1.367 1_565 S
C593 C592 1.367 1_545 S
C593 C595 1.433 . S
C594 C590 1.350 1_545 S
C594 C591 1.463 1_546 S
C594 N598 1.427 . S
C595 H585 0.929 . S
C595 C593 1.433 . S
C595 N598 1.384 . S
C596 H587 0.929 . S
C596 C588 1.378 . S
C596 C591 1.350 1_545 S
C597 H584 0.929 . S
C597 C589 1.433 . S
C597 N599 1.384 . S
N598 C594 1.427 . S
N598 C595 1.384 . S
N599 C591 1.427 . S
N599 C597 1.384 . S
C175 C165 1.664 . S
C179 C11 1.660 . S
C193 C25 1.664 . S
C197 C95 1.660 . S
C211 C39 1.668 . S
C215 C109 1.663 . S
C229 C53 1.669 . S
C233 C123 1.667 . S
C247 C137 1.668 . S
C251 C67 1.663 . S
C265 C81 1.660 . S
C269 C151 1.661 . S
C283 C47 1.199 . S
C287 C5 1.200 . S
C301 C61 1.208 . S
C305 C19 1.206 . S
C319 C75 1.198 . S
C323 C33 1.202 . S
C337 C89 1.208 . S
C341 C131 1.204 . S
C355 C103 1.208 . S
C359 C145 1.204 . S
C373 C117 1.202 . S
C377 C159 1.207 . S
C391 C121 0.516 . S
C395 C9 0.521 . S
C409 C23 0.517 . S
C413 C135 0.535 . S
C427 C149 0.517 . S
C431 C37 0.535 . S
C445 C163 0.514 . S
C449 C51 0.524 . S
C463 C93 0.516 . S
C467 C65 0.534 . S
C481 C79 0.517 . S
C485 C107 0.520 . S
C499 C126 1.625 . S
C503 C0 1.626 . S
C517 C14 1.634 . S
C521 C140 1.631 . S
C535 C154 1.626 . S
C539 C28 1.629 . S
C553 C42 1.625 . S
C557 C84 1.625 . S
C571 C56 1.629 . S
C575 C98 1.633 . S
C589 C112 1.625 . S
C593 C70 1.627 . S
