# Generated by pormake.
# Topology uog, (4)-cn, num edge types: 1
# Building blocks:
#     Node 0, Type 0, BuildingBlock: QUQFOY_clean_sbu_3, # of connection points: 4
#     Node 1, Type 0, BuildingBlock: QUQFOY_clean_sbu_3, # of connection points: 4
#     Node 2, Type 0, BuildingBlock: QUQFOY_clean_sbu_3, # of connection points: 4
#     Node 3, Type 0, BuildingBlock: QUQFOY_clean_sbu_3, # of connection points: 4
#     Node 4, Type 0, BuildingBlock: QUQFOY_clean_sbu_3, # of connection points: 4
#     Node 5, Type 0, BuildingBlock: QUQFOY_clean_sbu_3, # of connection points: 4
#     Edge 6, Type (0, 0), BuildingBlock: FUNLAD_clean_linker_1, # of connection points: 2
#     Edge 7, Type (0, 0), BuildingBlock: FUNLAD_clean_linker_1, # of connection points: 2
#     Edge 8, Type (0, 0), BuildingBlock: FUNLAD_clean_linker_1, # of connection points: 2
#     Edge 9, Type (0, 0), BuildingBlock: FUNLAD_clean_linker_1, # of connection points: 2
#     Edge 10, Type (0, 0), BuildingBlock: FUNLAD_clean_linker_1, # of connection points: 2
#     Edge 11, Type (0, 0), BuildingBlock: FUNLAD_clean_linker_1, # of connection points: 2
#     Edge 12, Type (0, 0), BuildingBlock: FUNLAD_clean_linker_1, # of connection points: 2
#     Edge 13, Type (0, 0), BuildingBlock: FUNLAD_clean_linker_1, # of connection points: 2
#     Edge 14, Type (0, 0), BuildingBlock: FUNLAD_clean_linker_1, # of connection points: 2
#     Edge 15, Type (0, 0), BuildingBlock: FUNLAD_clean_linker_1, # of connection points: 2
#     Edge 16, Type (0, 0), BuildingBlock: FUNLAD_clean_linker_1, # of connection points: 2
#     Edge 17, Type (0, 0), BuildingBlock: FUNLAD_clean_linker_1, # of connection points: 2
# Relax obj value: 0.081
# Max RMSD: 0.177
# Mean RMSD: 0.177
data_MOF--net-uog--node1-QUQFOY_clean_sbu_3--edge1-FUNLAD_clean_linker_1
_symmetry_space_group_name_H-M    P1
_symmetry_Int_Tables_number       1
_symmetry_cell_setting            triclinic
loop_
_symmetry_equiv_pos_as_xyz
'x, y, z'
_cell_length_a     30.025222
_cell_length_b     30.211481
_cell_length_c     44.61744
_cell_angle_alpha  90.202232
_cell_angle_beta   89.820854
_cell_angle_gamma 120.15071
loop_
_atom_site_label
_atom_site_type_symbol
_atom_site_fract_x
_atom_site_fract_y
_atom_site_fract_z
_atom_type_partial_charge
C0 C 0.72485 0.32638 0.21969 0.0
O1 O 0.75952 0.363 0.20459 0.0
Cd2 Cd 0.72999 0.39114 0.16219 0.0
O3 O 0.67898 0.30151 0.21012 0.0
Cd4 Cd 0.62749 0.29099 0.16592 0.0
C5 C 0.62273 0.39252 0.18944 0.0
O6 O 0.68841 0.32751 0.12365 0.0
O7 O 0.61367 0.32194 0.11976 0.0
O8 O 0.61137 0.20464 0.16091 0.0
C9 C 0.65601 0.33214 0.10762 0.0
O10 O 0.66906 0.41729 0.17995 0.0
C11 C 0.56274 0.18291 0.16322 0.0
O12 O 0.59766 0.34384 0.18928 0.0
O13 O 0.54337 0.21158 0.16655 0.0
C14 C 0.36941 0.71738 0.52654 0.0
O15 O 0.36959 0.74394 0.50454 0.0
Cd16 Cd 0.33787 0.70366 0.45666 0.0
O17 O 0.35958 0.67156 0.52269 0.0
Cd18 Cd 0.34354 0.60646 0.48451 0.0
C19 C 0.22656 0.59662 0.48386 0.0
O20 O 0.3791 0.65848 0.43974 0.0
O21 O 0.32236 0.57825 0.4335 0.0
O22 O 0.42285 0.61415 0.50297 0.0
C23 C 0.35312 0.62135 0.42195 0.0
O24 O 0.25013 0.63912 0.46998 0.0
C25 C 0.40763 0.5667 0.50339 0.0
O26 O 0.25049 0.57459 0.49381 0.0
O27 O 0.36078 0.53609 0.4964 0.0
C28 C 0.59876 0.37573 0.88644 0.0
O29 O 0.56106 0.37257 0.87197 0.0
Cd30 Cd 0.5405 0.32513 0.82539 0.0
O31 O 0.62621 0.359 0.87501 0.0
Cd32 Cd 0.63994 0.32369 0.82938 0.0
C33 C 0.53489 0.21303 0.84692 0.0
O34 O 0.60765 0.35338 0.7877 0.0
O35 O 0.61238 0.28443 0.78168 0.0
O36 O 0.72463 0.39899 0.82719 0.0
C37 C 0.60522 0.31874 0.77028 0.0
O38 O 0.51166 0.23667 0.83918 0.0
C39 C 0.75005 0.3759 0.82823 0.0
O40 O 0.58401 0.23574 0.84746 0.0
O41 O 0.72433 0.32726 0.82978 0.0
C42 C 0.30728 0.61075 0.19363 0.0
O43 O 0.28509 0.5741 0.17515 0.0
Cd44 Cd 0.33006 0.5776 0.1297 0.0
O45 O 0.34936 0.65068 0.18669 0.0
Cd46 Cd 0.41076 0.69142 0.14578 0.0
C47 C 0.44674 0.60583 0.16085 0.0
O48 O 0.35607 0.65481 0.10173 0.0
O49 O 0.43847 0.68787 0.09549 0.0
O50 O 0.40396 0.76783 0.15157 0.0
C51 C 0.394 0.66842 0.08402 0.0
O52 O 0.40481 0.57379 0.14803 0.0
C53 C 0.45185 0.79803 0.15541 0.0
O54 O 0.45873 0.6523 0.1644 0.0
O55 O 0.48085 0.77866 0.15504 0.0
C56 C 0.6763 0.27739 0.54902 0.0
O57 O 0.6853 0.24526 0.536 0.0
Cd58 Cd 0.73265 0.26721 0.48929 0.0
O59 O 0.68667 0.31908 0.53632 0.0
Cd60 Cd 0.71586 0.37195 0.49161 0.0
C61 C 0.83389 0.38859 0.50958 0.0
O62 O 0.69728 0.30383 0.45711 0.0
O63 O 0.7383 0.38055 0.43895 0.0
O64 O 0.63077 0.36102 0.49412 0.0
C65 C 0.72096 0.33296 0.43518 0.0
O66 O 0.81418 0.341 0.504 0.0
C67 C 0.64429 0.40806 0.49498 0.0
O68 O 0.8076 0.41126 0.5077 0.0
O69 O 0.69249 0.4403 0.494 0.0
C70 C 0.30492 0.66445 0.86314 0.0
O71 O 0.34149 0.66949 0.84645 0.0
Cd72 Cd 0.35784 0.7109 0.79863 0.0
O73 O 0.27311 0.67751 0.85407 0.0
Cd74 Cd 0.25039 0.70986 0.8097 0.0
C75 C 0.3605 0.82229 0.82139 0.0
O76 O 0.27989 0.6746 0.77056 0.0
O77 O 0.26521 0.73509 0.75738 0.0
O78 O 0.16593 0.63481 0.81447 0.0
C79 C 0.278 0.70241 0.74995 0.0
O80 O 0.38294 0.79884 0.81162 0.0
C81 C 0.14079 0.65821 0.8157 0.0
O82 O 0.31162 0.79928 0.82474 0.0
O83 O 0.1666 0.70686 0.81437 0.0
H84 H 0.48862 0.10969 0.16351 0.0
C85 C 0.53022 0.12675 0.16238 0.0
H86 H 0.59284 0.11337 0.1606 0.0
H87 H 0.47029 0.89144 0.21502 0.0
H88 H 0.51538 0.93921 0.2595 0.0
H89 H 0.56297 0.03367 0.25946 0.0
H90 H 0.56536 0.08088 0.21499 0.0
C91 C 0.55126 0.09671 0.16066 0.0
C92 C 0.51946 0.04006 0.16111 0.0
C93 C 0.51901 0.01314 0.18715 0.0
C94 C 0.49234 0.95876 0.18702 0.0
C95 C 0.4912 0.93277 0.21362 0.0
C96 C 0.51661 0.95972 0.23938 0.0
C97 C 0.54335 0.01289 0.23937 0.0
C98 C 0.54455 0.03951 0.21366 0.0
H99 H 0.51491 0.87738 0.16205 0.0
C100 C 0.47344 0.85345 0.15947 0.0
H101 H 0.40247 0.85181 0.15562 0.0
H102 H 0.51238 0.08015 0.10749 0.0
H103 H 0.46623 0.03239 0.0633 0.0
H104 H 0.4197 0.93796 0.06311 0.0
H105 H 0.41918 0.89077 0.10709 0.0
C106 C 0.44376 0.87504 0.15919 0.0
C107 C 0.46713 0.93156 0.16061 0.0
C108 C 0.46587 0.95844 0.13494 0.0
C109 C 0.49236 0.01285 0.13512 0.0
C110 C 0.49222 0.03884 0.10879 0.0
C111 C 0.46603 0.01188 0.0832 0.0
C112 C 0.43985 0.95873 0.08309 0.0
C113 C 0.4398 0.93211 0.10853 0.0
H114 H 0.48135 0.57732 0.51994 0.0
C115 C 0.44498 0.54972 0.50969 0.0
H116 H 0.40499 0.47905 0.48687 0.0
H117 H 0.62073 0.50588 0.44485 0.0
H118 H 0.59775 0.53618 0.40048 0.0
H119 H 0.52268 0.54875 0.40076 0.0
H120 H 0.47002 0.53103 0.44536 0.0
C121 C 0.4394 0.5055 0.49922 0.0
C122 C 0.48403 0.49662 0.4992 0.0
C123 C 0.51447 0.50712 0.47294 0.0
C124 C 0.55792 0.50006 0.47281 0.0
C125 C 0.58746 0.51075 0.44622 0.0
C126 C 0.57469 0.52815 0.42059 0.0
C127 C 0.53242 0.53522 0.42074 0.0
C128 C 0.50252 0.5249 0.44652 0.0
H129 H 0.56443 0.39172 0.49832 0.0
C130 C 0.60425 0.42267 0.49721 0.0
H131 H 0.65326 0.5029 0.49567 0.0
H132 H 0.43338 0.47201 0.55288 0.0
H133 H 0.45683 0.44257 0.59753 0.0
H134 H 0.53305 0.43185 0.59768 0.0
H135 H 0.58632 0.45044 0.55325 0.0
C136 C 0.61405 0.47116 0.4978 0.0
C137 C 0.57063 0.48193 0.49882 0.0
C138 C 0.5405 0.47196 0.52521 0.0
C139 C 0.49701 0.47903 0.52532 0.0
C140 C 0.46713 0.4679 0.55176 0.0
C141 C 0.48011 0.4509 0.57749 0.0
C142 C 0.52299 0.44479 0.57756 0.0
C143 C 0.55307 0.4553 0.55184 0.0
H144 H 0.82743 0.3834 0.82745 0.0
C145 C 0.80699 0.40459 0.82757 0.0
H146 H 0.81317 0.47737 0.82637 0.0
H147 H 0.04852 0.54379 0.87172 0.0
H148 H 0.00779 0.49537 0.91674 0.0
H149 H 0.91317 0.44346 0.92064 0.0
H150 H 0.85875 0.43928 0.87948 0.0
C151 C 0.83357 0.45615 0.82706 0.0
C152 C 0.89082 0.4864 0.82488 0.0
C153 C 0.92205 0.48877 0.84933 0.0
C154 C 0.97665 0.51937 0.84725 0.0
C155 C 0.00691 0.52103 0.872 0.0
C156 C 0.98403 0.49358 0.89805 0.0
C157 C 0.93077 0.46432 0.90023 0.0
C158 C 0.89995 0.462 0.87631 0.0
H159 H 0.06378 0.6512 0.81896 0.0
C160 C 0.08399 0.62981 0.8181 0.0
H161 H 0.07732 0.55677 0.81862 0.0
H162 H 0.84227 0.49081 0.77408 0.0
H163 H 0.883 0.53925 0.72909 0.0
H164 H 0.97761 0.59129 0.72524 0.0
H165 H 0.032 0.59553 0.7664 0.0
C166 C 0.05717 0.57825 0.81866 0.0
C167 C 0.99994 0.54829 0.821 0.0
C168 C 0.9687 0.54597 0.79656 0.0
C169 C 0.91412 0.51535 0.79863 0.0
C170 C 0.88387 0.51362 0.77384 0.0
C171 C 0.90675 0.54109 0.7478 0.0
C172 C 0.96 0.57041 0.74565 0.0
C173 C 0.9908 0.57276 0.76958 0.0
H174 H 0.154 0.59663 0.47904 0.0
C175 C 0.17055 0.57451 0.48785 0.0
H176 H 0.15422 0.50678 0.51066 0.0
H177 H 0.94627 0.48371 0.56454 0.0
H178 H 0.99776 0.50011 0.60951 0.0
H179 H 0.08842 0.52139 0.60617 0.0
H180 H 0.12821 0.52644 0.55786 0.0
C181 C 0.13901 0.52928 0.50078 0.0
C182 C 0.08265 0.51087 0.50293 0.0
C183 C 0.05969 0.50724 0.53132 0.0
C184 C 0.00719 0.49444 0.53328 0.0
C185 C 0.98567 0.49233 0.56187 0.0
C186 C 0.01486 0.50194 0.58782 0.0
C187 C 0.06595 0.51402 0.58594 0.0
C188 C 0.08834 0.51683 0.55808 0.0
H189 H 0.90599 0.39396 0.5242 0.0
C190 C 0.8893 0.41666 0.51661 0.0
H191 H 0.90576 0.48769 0.49855 0.0
H192 H 0.11214 0.50717 0.44517 0.0
H193 H 0.06064 0.49066 0.40038 0.0
H194 H 0.97069 0.47166 0.40367 0.0
H195 H 0.93171 0.46881 0.45178 0.0
C196 C 0.92106 0.46545 0.50869 0.0
C197 C 0.9775 0.48468 0.50687 0.0
C198 C 1.00033 0.488 0.47846 0.0
C199 C 0.05259 0.50017 0.47651 0.0
C200 C 0.07334 0.50021 0.44793 0.0
C201 C 0.04401 0.49025 0.42202 0.0
C202 C 0.99336 0.47946 0.42387 0.0
C203 C 0.97148 0.47802 0.45168 0.0
H204 H 0.43437 0.89427 0.82391 0.0
C205 C 0.39321 0.8774 0.82782 0.0
H206 H 0.33448 0.89227 0.84156 0.0
H207 H 0.49718 0.10051 0.90613 0.0
H208 H 0.45154 0.04781 0.94912 0.0
H209 H 0.3872 0.95629 0.94278 0.0
H210 H 0.36786 0.91687 0.89342 0.0
C211 C 0.37513 0.90793 0.83669 0.0
C212 C 0.41118 0.96403 0.84031 0.0
C213 C 0.42162 0.98655 0.86925 0.0
C214 C 0.45871 0.03938 0.87293 0.0
C215 C 0.46897 0.06073 0.90211 0.0
C216 C 0.44321 0.03087 0.92695 0.0
C217 C 0.40699 0.97932 0.92338 0.0
C218 C 0.39624 0.95718 0.89494 0.0
H219 H 0.46175 0.14184 0.85483 0.0
C220 C 0.50313 0.15767 0.85273 0.0
H221 H 0.56229 0.14011 0.84653 0.0
H222 H 0.39547 0.93497 0.78117 0.0
H223 H 0.44154 0.98752 0.73844 0.0
H224 H 0.50858 0.07802 0.74512 0.0
H225 H 0.52957 0.11655 0.79457 0.0
C226 C 0.52161 0.12552 0.85082 0.0
C227 C 0.4852 0.06955 0.84766 0.0
C228 C 0.47461 0.04714 0.8187 0.0
C229 C 0.43691 0.99462 0.81493 0.0
C230 C 0.42513 0.97408 0.78552 0.0
C231 C 0.45096 0.00398 0.76071 0.0
C232 C 0.48862 0.05494 0.76447 0.0
C233 C 0.50031 0.07654 0.79302 0.0
H234 H 0.52024 0.6182 0.17952 0.0
C235 C 0.48278 0.58941 0.17104 0.0
H236 H 0.43437 0.51147 0.15982 0.0
H237 H 0.61714 0.47171 0.13356 0.0
H238 H 0.59385 0.48087 0.08298 0.0
H239 H 0.53278 0.5113 0.07378 0.0
H240 H 0.49412 0.53223 0.1152 0.0
C241 C 0.47111 0.54043 0.16901 0.0
C242 C 0.51015 0.52533 0.17503 0.0
C243 C 0.53286 0.51394 0.15054 0.0
C244 C 0.56849 0.49703 0.15584 0.0
C245 C 0.59009 0.48515 0.13092 0.0
C246 C 0.5771 0.49024 0.10171 0.0
C247 C 0.54263 0.50727 0.09653 0.0
C248 C 0.52066 0.51906 0.12055 0.0
H249 H 0.55423 0.3971 0.20214 0.0
C250 C 0.59488 0.41985 0.19645 0.0
H251 H 0.65516 0.49264 0.18331 0.0
H252 H 0.4731 0.54379 0.22692 0.0
H253 H 0.49708 0.53557 0.27765 0.0
H254 H 0.56016 0.50749 0.28681 0.0
H255 H 0.59956 0.48732 0.24521 0.0
C256 C 0.61534 0.46993 0.1906 0.0
C257 C 0.58107 0.49134 0.18565 0.0
C258 C 0.55915 0.50367 0.21015 0.0
C259 C 0.5234 0.52056 0.20484 0.0
C260 C 0.50107 0.53155 0.22968 0.0
C261 C 0.51439 0.52684 0.25891 0.0
C262 C 0.54986 0.51097 0.26407 0.0
C263 C 0.57208 0.49941 0.24004 0.0
H264 H 0.57499 0.39078 0.93043 0.0
C265 C 0.6067 0.39158 0.91814 0.0
H266 H 0.67954 0.39717 0.92061 0.0
H267 H 0.6548 0.44977 0.06193 0.0
H268 H 0.67044 0.532 0.04358 0.0
H269 H 0.6754 0.54936 0.98931 0.0
H270 H 0.66483 0.48456 0.95301 0.0
C271 C 0.64829 0.39738 0.93288 0.0
C272 C 0.6462 0.38826 0.96555 0.0
C273 C 0.65231 0.4264 0.9863 0.0
C274 C 0.64931 0.41628 0.01754 0.0
C275 C 0.65615 0.45524 0.03792 0.0
C276 C 0.66532 0.50264 0.02769 0.0
C277 C 0.66812 0.51243 -0.00288 0.0
C278 C 0.66186 0.47492 0.97655 0.0
H279 H 0.70077 0.35182 0.0654 0.0
C280 C 0.66659 0.34832 0.07611 0.0
H281 H 0.60007 0.35484 0.07116 0.0
H282 H 0.63359 0.30695 0.93134 0.0
H283 H 0.61538 0.2241 0.94946 0.0
H284 H 0.60644 0.20518 0.00358 0.0
H285 H 0.61622 0.26915 0.03981 0.0
C286 C 0.63334 0.35647 0.06032 0.0
C287 C 0.64002 0.36798 0.02781 0.0
C288 C 0.63349 0.32961 0.00697 0.0
C289 C 0.63743 0.34011 0.97579 0.0
C290 C 0.63097 0.30122 0.95534 0.0
C291 C 0.62033 0.25332 0.96541 0.0
C292 C 0.61537 0.2427 -0.00413 0.0
C293 C 0.62154 0.28009 0.01648 0.0
H294 H 0.25905 0.56574 0.23184 0.0
C295 C 0.28951 0.60346 0.22498 0.0
H296 H 0.34876 0.67609 0.2392 0.0
H297 H 0.23419 0.59502 0.37005 0.0
H298 H 0.16536 0.60587 0.34973 0.0
H299 H 0.1645 0.6258 0.29621 0.0
H300 H 0.23251 0.63488 0.26265 0.0
C301 C 0.31686 0.63902 0.24581 0.0
C302 C 0.31511 0.62464 0.27763 0.0
C303 C 0.27506 0.61932 0.29675 0.0
C304 C 0.27569 0.60799 0.32757 0.0
C305 C 0.23552 0.60341 0.34639 0.0
C306 C 0.19582 0.60962 0.33503 0.0
C307 C 0.19533 0.62083 0.30489 0.0
C308 C 0.2345 0.62584 0.28587 0.0
H309 H 0.38172 0.66634 0.38029 0.0
C310 C 0.35346 0.62944 0.38948 0.0
H311 H 0.2884 0.55684 0.38056 0.0
H312 H 0.39592 0.62875 0.2462 0.0
H313 H 0.46235 0.61386 0.26595 0.0
H314 H 0.46256 0.59275 0.31929 0.0
H315 H 0.39636 0.58659 0.35318 0.0
C316 C 0.31834 0.593 0.37145 0.0
C317 C 0.31657 0.60237 0.33903 0.0
C318 C 0.35552 0.60562 0.31962 0.0
C319 C 0.35502 0.61718 0.28887 0.0
C320 C 0.39441 0.62024 0.26984 0.0
C321 C 0.43277 0.61165 0.28085 0.0
C322 C 0.4329 0.5998 0.31088 0.0
C323 C 0.39481 0.59669 0.33013 0.0
H324 H 0.61028 0.3575 0.72737 0.0
C325 C 0.60116 0.32127 0.73757 0.0
H326 H 0.58475 0.24538 0.73079 0.0
H327 H 0.56844 0.30733 0.59062 0.0
H328 H 0.49145 0.30828 0.60622 0.0
H329 H 0.46619 0.29885 0.65953 0.0
H330 H 0.51808 0.28878 0.69759 0.0
C331 C 0.59304 0.28126 0.72042 0.0
C332 C 0.60766 0.28773 0.68836 0.0
C333 C 0.57679 0.29333 0.66652 0.0
C334 C 0.59124 0.29846 0.63581 0.0
C335 C 0.55953 0.30365 0.61431 0.0
C336 C 0.51511 0.30407 0.62295 0.0
C337 C 0.50091 0.29881 0.65296 0.0
C338 C 0.53111 0.29324 0.67459 0.0
H339 H 0.64674 0.23201 0.59061 0.0
C340 C 0.65566 0.26771 0.57976 0.0
H341 H 0.65964 0.33938 0.58433 0.0
H342 H 0.67595 0.27872 0.72506 0.0
H343 H 0.75523 0.28243 0.70997 0.0
H344 H 0.78267 0.29574 0.65703 0.0
H345 H 0.73065 0.30464 0.61895 0.0
C346 C 0.65156 0.3039 0.59513 0.0
C347 C 0.63639 0.29777 0.62717 0.0
C348 C 0.66826 0.29395 0.64922 0.0
C349 C 0.65327 0.28789 0.67981 0.0
C350 C 0.68536 0.28345 0.70144 0.0
C351 C 0.73119 0.28573 0.69312 0.0
C352 C 0.74657 0.29311 0.66333 0.0
C353 C 0.71588 0.29757 0.64159 0.0
H354 H 0.26911 0.64436 0.90775 0.0
C355 C 0.30129 0.64815 0.89446 0.0
H356 H 0.3733 0.65137 0.8957 0.0
H357 H 0.37989 0.74137 0.02821 0.0
H358 H 0.42068 0.82107 0.00053 0.0
H359 H 0.42659 0.82112 0.94536 0.0
H360 H 0.39112 0.74139 0.9176 0.0
C361 C 0.33946 0.64528 0.90807 0.0
C362 C 0.34087 0.64458 0.94121 0.0
C363 C 0.36364 0.69161 0.95708 0.0
C364 C 0.3618 0.69162 0.98885 0.0
C365 C 0.38209 0.7391 0.00411 0.0
C366 C 0.40522 0.78518 0.98847 0.0
C367 C 0.40843 0.78521 0.95742 0.0
C368 C 0.38783 0.73912 0.94178 0.0
H369 H 0.42259 0.67722 0.03785 0.0
C370 C 0.38791 0.66329 0.05138 0.0
H371 H 0.30678 0.62933 0.05082 0.0
H372 H 0.29355 0.54831 0.91721 0.0
H373 H 0.25312 0.4682 0.94487 0.0
H374 H 0.25206 0.46804 0.00018 0.0
H375 H 0.29108 0.54787 0.02821 0.0
C376 C 0.34214 0.6447 0.03785 0.0
C377 C 0.33925 0.64456 0.00466 0.0
C378 C 0.31613 0.59755 0.98876 0.0
C379 C 0.31691 0.59759 0.95691 0.0
C380 C 0.2938 0.55025 0.94144 0.0
C381 C 0.27061 0.50409 0.95703 0.0
C382 C 0.27003 0.50401 0.98819 0.0
C383 C 0.29255 0.55008 0.004 0.0
H384 H 0.73579 0.27916 0.40926 0.0
C385 C 0.73366 0.31394 0.40799 0.0
H386 H 0.74294 0.37583 0.38212 0.0
H387 H 0.87499 0.40571 0.27458 0.0
H388 H 0.9319 0.48037 0.30442 0.0
H389 H 0.91374 0.48524 0.35795 0.0
H390 H 0.83793 0.41582 0.38178 0.0
C391 C 0.74428 0.34051 0.38238 0.0
C392 C 0.76367 0.32844 0.35463 0.0
C393 C 0.80951 0.36814 0.3415 0.0
C394 C 0.82055 0.36501 0.31085 0.0
C395 C 0.86474 0.40639 0.29774 0.0
C396 C 0.89791 0.44926 0.31469 0.0
C397 C 0.88768 0.45201 0.34483 0.0
C398 C 0.84398 0.4121 0.35819 0.0
H399 H 0.70089 0.29773 0.26476 0.0
C400 C 0.73443 0.31531 0.25015 0.0
H401 H 0.81443 0.34555 0.24653 0.0
H402 H 0.67446 0.24086 0.3728 0.0
H403 H 0.62968 0.16101 0.34559 0.0
H404 H 0.65888 0.15222 0.29528 0.0
H405 H 0.73234 0.22528 0.27144 0.0
C406 C 0.78087 0.32723 0.261 0.0
C407 C 0.78621 0.32164 0.29387 0.0
C408 C 0.74818 0.27751 0.30896 0.0
C409 C 0.73427 0.28159 0.33885 0.0
C410 C 0.68976 0.23933 0.35121 0.0
C411 C 0.66314 0.19316 0.33559 0.0
C412 C 0.67942 0.18824 0.30722 0.0
C413 C 0.72128 0.23006 0.29383 0.0
H414 H 0.30099 0.66817 0.7138 0.0
C415 C 0.29391 0.69922 0.71924 0.0
H416 H 0.2958 0.76616 0.70352 0.0
H417 H 0.45121 0.79034 0.59874 0.0
H418 H 0.50726 0.8617 0.63099 0.0
H419 H 0.47683 0.87341 0.68021 0.0
H420 H 0.39022 0.81378 0.69753 0.0
C421 C 0.30051 0.73362 0.69817 0.0
C422 C 0.31706 0.72939 0.66745 0.0
C423 C 0.36739 0.76521 0.65748 0.0
C424 C 0.38481 0.75874 0.62901 0.0
C425 C 0.43579 0.79402 0.61995 0.0
C426 C 0.46841 0.83499 0.63829 0.0
C427 C 0.45129 0.84156 0.66602 0.0
C428 C 0.40148 0.80709 0.67568 0.0
H429 H 0.37113 0.7718 0.5603 0.0
C430 C 0.37271 0.7369 0.55724 0.0
H431 H 0.3688 0.67247 0.57809 0.0
H432 H 0.21578 0.65839 0.67811 0.0
H433 H 0.15933 0.58786 0.64566 0.0
H434 H 0.19018 0.5753 0.59684 0.0
H435 H 0.277 0.63351 0.57992 0.0
C436 C 0.369 0.70829 0.58112 0.0
C437 C 0.35154 0.7168 0.61058 0.0
C438 C 0.30061 0.68189 0.62019 0.0
C439 C 0.28316 0.68854 0.64854 0.0
C440 C 0.23156 0.65423 0.65717 0.0
C441 C 0.19857 0.61379 0.63865 0.0
C442 C 0.21586 0.60679 0.61114 0.0
C443 C 0.26605 0.64043 0.60179 0.0
loop_
_geom_bond_atom_site_label_1
_geom_bond_atom_site_label_2
_geom_bond_distance
_geom_bond_site_symmetry_2
_ccdc_geom_bond_type
C0 O1 1.306 . S
C0 O3 1.160 . S
O1 C0 1.306 . S
O1 Cd2 2.228 . S
Cd2 O1 2.228 . S
Cd2 O6 2.273 . S
Cd2 O10 2.277 . S
O3 C0 1.160 . S
O3 Cd4 2.203 . S
Cd4 O3 2.203 . S
Cd4 O6 2.411 . S
Cd4 O7 2.333 . S
Cd4 O8 2.352 . S
Cd4 O12 2.277 . S
Cd4 O13 2.356 . S
C5 O10 1.209 . S
C5 O12 1.226 . S
O6 Cd2 2.273 . S
O6 Cd4 2.411 . S
O6 C9 1.320 . S
O7 Cd4 2.333 . S
O7 C9 1.214 . S
O8 Cd4 2.352 . S
O8 C11 1.258 . S
C9 O6 1.320 . S
C9 O7 1.214 . S
O10 Cd2 2.277 . S
O10 C5 1.209 . S
C11 O8 1.258 . S
C11 O13 1.282 . S
O12 Cd4 2.277 . S
O12 C5 1.226 . S
O13 Cd4 2.356 . S
O13 C11 1.282 . S
C14 O15 1.306 . S
C14 O17 1.160 . S
O15 C14 1.306 . S
O15 Cd16 2.228 . S
Cd16 O15 2.228 . S
Cd16 O20 2.273 . S
Cd16 O24 2.277 . S
O17 C14 1.160 . S
O17 Cd18 2.203 . S
Cd18 O17 2.203 . S
Cd18 O20 2.411 . S
Cd18 O21 2.333 . S
Cd18 O22 2.352 . S
Cd18 O26 2.277 . S
Cd18 O27 2.356 . S
C19 O24 1.209 . S
C19 O26 1.226 . S
O20 Cd16 2.273 . S
O20 Cd18 2.411 . S
O20 C23 1.320 . S
O21 Cd18 2.333 . S
O21 C23 1.214 . S
O22 Cd18 2.352 . S
O22 C25 1.258 . S
C23 O20 1.320 . S
C23 O21 1.214 . S
O24 Cd16 2.277 . S
O24 C19 1.209 . S
C25 O22 1.258 . S
C25 O27 1.282 . S
O26 Cd18 2.277 . S
O26 C19 1.226 . S
O27 Cd18 2.356 . S
O27 C25 1.282 . S
C28 O29 1.306 . S
C28 O31 1.160 . S
O29 C28 1.306 . S
O29 Cd30 2.228 . S
Cd30 O29 2.228 . S
Cd30 O34 2.273 . S
Cd30 O38 2.277 . S
O31 C28 1.160 . S
O31 Cd32 2.203 . S
Cd32 O31 2.203 . S
Cd32 O34 2.411 . S
Cd32 O35 2.333 . S
Cd32 O36 2.352 . S
Cd32 O40 2.277 . S
Cd32 O41 2.356 . S
C33 O38 1.209 . S
C33 O40 1.226 . S
O34 Cd30 2.273 . S
O34 Cd32 2.411 . S
O34 C37 1.320 . S
O35 Cd32 2.333 . S
O35 C37 1.214 . S
O36 Cd32 2.352 . S
O36 C39 1.258 . S
C37 O34 1.320 . S
C37 O35 1.214 . S
O38 Cd30 2.277 . S
O38 C33 1.209 . S
C39 O36 1.258 . S
C39 O41 1.282 . S
O40 Cd32 2.277 . S
O40 C33 1.226 . S
O41 Cd32 2.356 . S
O41 C39 1.282 . S
C42 O43 1.306 . S
C42 O45 1.160 . S
O43 C42 1.306 . S
O43 Cd44 2.228 . S
Cd44 O43 2.228 . S
Cd44 O48 2.273 . S
Cd44 O52 2.277 . S
O45 C42 1.160 . S
O45 Cd46 2.203 . S
Cd46 O45 2.203 . S
Cd46 O48 2.411 . S
Cd46 O49 2.333 . S
Cd46 O50 2.352 . S
Cd46 O54 2.277 . S
Cd46 O55 2.356 . S
C47 O52 1.209 . S
C47 O54 1.226 . S
O48 Cd44 2.273 . S
O48 Cd46 2.411 . S
O48 C51 1.320 . S
O49 Cd46 2.333 . S
O49 C51 1.214 . S
O50 Cd46 2.352 . S
O50 C53 1.258 . S
C51 O48 1.320 . S
C51 O49 1.214 . S
O52 Cd44 2.277 . S
O52 C47 1.209 . S
C53 O50 1.258 . S
C53 O55 1.282 . S
O54 Cd46 2.277 . S
O54 C47 1.226 . S
O55 Cd46 2.356 . S
O55 C53 1.282 . S
C56 O57 1.306 . S
C56 O59 1.160 . S
O57 C56 1.306 . S
O57 Cd58 2.228 . S
Cd58 O57 2.228 . S
Cd58 O62 2.273 . S
Cd58 O66 2.277 . S
O59 C56 1.160 . S
O59 Cd60 2.203 . S
Cd60 O59 2.203 . S
Cd60 O62 2.411 . S
Cd60 O63 2.333 . S
Cd60 O64 2.352 . S
Cd60 O68 2.277 . S
Cd60 O69 2.356 . S
C61 O66 1.209 . S
C61 O68 1.226 . S
O62 Cd58 2.273 . S
O62 Cd60 2.411 . S
O62 C65 1.320 . S
O63 Cd60 2.333 . S
O63 C65 1.214 . S
O64 Cd60 2.352 . S
O64 C67 1.258 . S
C65 O62 1.320 . S
C65 O63 1.214 . S
O66 Cd58 2.277 . S
O66 C61 1.209 . S
C67 O64 1.258 . S
C67 O69 1.282 . S
O68 Cd60 2.277 . S
O68 C61 1.226 . S
O69 Cd60 2.356 . S
O69 C67 1.282 . S
C70 O71 1.306 . S
C70 O73 1.160 . S
O71 C70 1.306 . S
O71 Cd72 2.228 . S
Cd72 O71 2.228 . S
Cd72 O76 2.273 . S
Cd72 O80 2.277 . S
O73 C70 1.160 . S
O73 Cd74 2.203 . S
Cd74 O73 2.203 . S
Cd74 O76 2.411 . S
Cd74 O77 2.333 . S
Cd74 O78 2.352 . S
Cd74 O82 2.277 . S
Cd74 O83 2.356 . S
C75 O80 1.209 . S
C75 O82 1.226 . S
O76 Cd72 2.273 . S
O76 Cd74 2.411 . S
O76 C79 1.320 . S
O77 Cd74 2.333 . S
O77 C79 1.214 . S
O78 Cd74 2.352 . S
O78 C81 1.258 . S
C79 O76 1.320 . S
C79 O77 1.214 . S
O80 Cd72 2.277 . S
O80 C75 1.209 . S
C81 O78 1.258 . S
C81 O83 1.282 . S
O82 Cd74 2.277 . S
O82 C75 1.226 . S
O83 Cd74 2.356 . S
O83 C81 1.282 . S
H84 C85 0.951 . S
C85 H84 0.951 . S
C85 C91 1.265 . S
H86 C91 0.950 . S
H87 C95 0.949 . S
H88 C96 0.950 . S
H89 C97 0.951 . S
H90 C98 0.951 . S
C91 C85 1.265 . S
C91 H86 0.950 . S
C91 C92 1.478 . S
C92 C91 1.478 . S
C92 C93 1.397 . S
C92 C109 1.394 . S
C93 C92 1.397 . S
C93 C94 1.438 1_545 S
C93 C98 1.429 . S
C94 C93 1.438 1_565 S
C94 C95 1.428 . S
C94 C107 1.394 . S
C95 H87 0.949 . S
C95 C94 1.428 . S
C95 C96 1.345 . S
C96 H88 0.950 . S
C96 C95 1.345 . S
C96 C97 1.424 1_565 S
C97 H89 0.951 . S
C97 C96 1.424 1_545 S
C97 C98 1.347 . S
C98 H90 0.951 . S
C98 C93 1.429 . S
C98 C97 1.347 . S
H99 C100 0.951 . S
C100 H99 0.951 . S
C100 C106 1.265 . S
H101 C106 0.950 . S
H102 C110 0.949 . S
H103 C111 0.950 . S
H104 C112 0.951 . S
H105 C113 0.951 . S
C106 C100 1.265 . S
C106 H101 0.950 . S
C106 C107 1.478 . S
C107 C94 1.394 . S
C107 C106 1.478 . S
C107 C108 1.397 . S
C108 C107 1.397 . S
C108 C109 1.438 1_565 S
C108 C113 1.429 . S
C109 C92 1.394 . S
C109 C108 1.438 1_545 S
C109 C110 1.428 . S
C110 H102 0.949 . S
C110 C109 1.428 . S
C110 C111 1.345 . S
C111 H103 0.950 . S
C111 C110 1.345 . S
C111 C112 1.424 1_545 S
C112 H104 0.951 . S
C112 C111 1.424 1_565 S
C112 C113 1.347 . S
C113 H105 0.951 . S
C113 C108 1.429 . S
C113 C112 1.347 . S
H114 C115 0.951 . S
C115 H114 0.951 . S
C115 C121 1.265 . S
H116 C121 0.950 . S
H117 C125 0.949 . S
H118 C126 0.950 . S
H119 C127 0.951 . S
H120 C128 0.951 . S
C121 C115 1.265 . S
C121 H116 0.950 . S
C121 C122 1.478 . S
C122 C121 1.478 . S
C122 C123 1.397 . S
C122 C139 1.394 . S
C123 C122 1.397 . S
C123 C124 1.438 . S
C123 C128 1.429 . S
C124 C123 1.438 . S
C124 C125 1.428 . S
C124 C137 1.394 . S
C125 H117 0.949 . S
C125 C124 1.428 . S
C125 C126 1.345 . S
C126 H118 0.950 . S
C126 C125 1.345 . S
C126 C127 1.424 . S
C127 H119 0.951 . S
C127 C126 1.424 . S
C127 C128 1.347 . S
C128 H120 0.951 . S
C128 C123 1.429 . S
C128 C127 1.347 . S
H129 C130 0.951 . S
C130 H129 0.951 . S
C130 C136 1.265 . S
H131 C136 0.950 . S
H132 C140 0.949 . S
H133 C141 0.950 . S
H134 C142 0.951 . S
H135 C143 0.951 . S
C136 C130 1.265 . S
C136 H131 0.950 . S
C136 C137 1.478 . S
C137 C124 1.394 . S
C137 C136 1.478 . S
C137 C138 1.397 . S
C138 C137 1.397 . S
C138 C139 1.438 . S
C138 C143 1.429 . S
C139 C122 1.394 . S
C139 C138 1.438 . S
C139 C140 1.428 . S
C140 H132 0.949 . S
C140 C139 1.428 . S
C140 C141 1.345 . S
C141 H133 0.950 . S
C141 C140 1.345 . S
C141 C142 1.424 . S
C142 H134 0.951 . S
C142 C141 1.424 . S
C142 C143 1.347 . S
C143 H135 0.951 . S
C143 C138 1.429 . S
C143 C142 1.347 . S
H144 C145 0.951 . S
C145 H144 0.951 . S
C145 C151 1.265 . S
H146 C151 0.950 . S
H147 C155 0.949 . S
H148 C156 0.950 . S
H149 C157 0.951 . S
H150 C158 0.951 . S
C151 C145 1.265 . S
C151 H146 0.950 . S
C151 C152 1.478 . S
C152 C151 1.478 . S
C152 C153 1.397 . S
C152 C169 1.394 . S
C153 C152 1.397 . S
C153 C154 1.438 1_655 S
C153 C158 1.429 . S
C154 C153 1.438 1_455 S
C154 C155 1.428 . S
C154 C167 1.394 . S
C155 H147 0.949 . S
C155 C154 1.428 . S
C155 C156 1.345 . S
C156 H148 0.950 . S
C156 C155 1.345 . S
C156 C157 1.424 . S
C157 H149 0.951 . S
C157 C156 1.424 . S
C157 C158 1.347 1_455 S
C158 H150 0.951 . S
C158 C153 1.429 . S
C158 C157 1.347 1_655 S
H159 C160 0.951 . S
C160 H159 0.951 . S
C160 C166 1.265 . S
H161 C166 0.950 . S
H162 C170 0.949 . S
H163 C171 0.950 . S
H164 C172 0.951 . S
H165 C173 0.951 . S
C166 C160 1.265 . S
C166 H161 0.950 . S
C166 C167 1.478 . S
C167 C154 1.394 . S
C167 C166 1.478 . S
C167 C168 1.397 . S
C168 C167 1.397 . S
C168 C169 1.438 1_455 S
C168 C173 1.429 . S
C169 C152 1.394 . S
C169 C168 1.438 1_655 S
C169 C170 1.428 . S
C170 H162 0.949 . S
C170 C169 1.428 . S
C170 C171 1.345 . S
C171 H163 0.950 . S
C171 C170 1.345 . S
C171 C172 1.424 . S
C172 H164 0.951 . S
C172 C171 1.424 . S
C172 C173 1.347 1_655 S
C173 H165 0.951 . S
C173 C168 1.429 . S
C173 C172 1.347 1_455 S
H174 C175 0.951 . S
C175 H174 0.951 . S
C175 C181 1.265 . S
H176 C181 0.950 . S
H177 C185 0.949 . S
H178 C186 0.950 . S
H179 C187 0.951 . S
H180 C188 0.951 . S
C181 C175 1.265 . S
C181 H176 0.950 . S
C181 C182 1.478 . S
C182 C181 1.478 . S
C182 C183 1.397 . S
C182 C199 1.394 . S
C183 C182 1.397 . S
C183 C184 1.438 1_455 S
C183 C188 1.429 . S
C184 C183 1.438 1_655 S
C184 C185 1.428 . S
C184 C197 1.394 . S
C185 H177 0.949 . S
C185 C184 1.428 . S
C185 C186 1.345 . S
C186 H178 0.950 . S
C186 C185 1.345 . S
C186 C187 1.424 1_655 S
C187 H179 0.951 . S
C187 C186 1.424 1_455 S
C187 C188 1.347 . S
C188 H180 0.951 . S
C188 C183 1.429 . S
C188 C187 1.347 . S
H189 C190 0.951 . S
C190 H189 0.951 . S
C190 C196 1.265 . S
H191 C196 0.950 . S
H192 C200 0.949 . S
H193 C201 0.950 . S
H194 C202 0.951 . S
H195 C203 0.951 . S
C196 C190 1.265 . S
C196 H191 0.950 . S
C196 C197 1.478 . S
C197 C184 1.394 . S
C197 C196 1.478 . S
C197 C198 1.397 . S
C198 C197 1.397 . S
C198 C199 1.438 1_655 S
C198 C203 1.429 . S
C199 C182 1.394 . S
C199 C198 1.438 1_455 S
C199 C200 1.428 . S
C200 H192 0.949 . S
C200 C199 1.428 . S
C200 C201 1.345 . S
C201 H193 0.950 . S
C201 C200 1.345 . S
C201 C202 1.424 1_455 S
C202 H194 0.951 . S
C202 C201 1.424 1_655 S
C202 C203 1.347 . S
C203 H195 0.951 . S
C203 C198 1.429 . S
C203 C202 1.347 . S
H204 C205 0.951 . S
C205 H204 0.951 . S
C205 C211 1.265 . S
H206 C211 0.950 . S
H207 C215 0.949 . S
H208 C216 0.950 . S
H209 C217 0.951 . S
H210 C218 0.951 . S
C211 C205 1.265 . S
C211 H206 0.950 . S
C211 C212 1.478 . S
C212 C211 1.478 . S
C212 C213 1.397 . S
C212 C229 1.394 . S
C213 C212 1.397 . S
C213 C214 1.438 1_565 S
C213 C218 1.429 . S
C214 C213 1.438 1_545 S
C214 C215 1.428 . S
C214 C227 1.394 . S
C215 H207 0.949 . S
C215 C214 1.428 . S
C215 C216 1.345 . S
C216 H208 0.950 . S
C216 C215 1.345 . S
C216 C217 1.424 1_545 S
C217 H209 0.951 . S
C217 C216 1.424 1_565 S
C217 C218 1.347 . S
C218 H210 0.951 . S
C218 C213 1.429 . S
C218 C217 1.347 . S
H219 C220 0.951 . S
C220 H219 0.951 . S
C220 C226 1.265 . S
H221 C226 0.950 . S
H222 C230 0.949 . S
H223 C231 0.950 . S
H224 C232 0.951 . S
H225 C233 0.951 . S
C226 C220 1.265 . S
C226 H221 0.950 . S
C226 C227 1.478 . S
C227 C214 1.394 . S
C227 C226 1.478 . S
C227 C228 1.397 . S
C228 C227 1.397 . S
C228 C229 1.438 1_545 S
C228 C233 1.429 . S
C229 C212 1.394 . S
C229 C228 1.438 1_565 S
C229 C230 1.428 . S
C230 H222 0.949 . S
C230 C229 1.428 . S
C230 C231 1.345 . S
C231 H223 0.950 . S
C231 C230 1.345 . S
C231 C232 1.424 1_565 S
C232 H224 0.951 . S
C232 C231 1.424 1_545 S
C232 C233 1.347 . S
C233 H225 0.951 . S
C233 C228 1.429 . S
C233 C232 1.347 . S
H234 C235 0.951 . S
C235 H234 0.951 . S
C235 C241 1.265 . S
H236 C241 0.950 . S
H237 C245 0.949 . S
H238 C246 0.950 . S
H239 C247 0.951 . S
H240 C248 0.951 . S
C241 C235 1.265 . S
C241 H236 0.950 . S
C241 C242 1.478 . S
C242 C241 1.478 . S
C242 C243 1.397 . S
C242 C259 1.394 . S
C243 C242 1.397 . S
C243 C244 1.438 . S
C243 C248 1.429 . S
C244 C243 1.438 . S
C244 C245 1.428 . S
C244 C257 1.394 . S
C245 H237 0.949 . S
C245 C244 1.428 . S
C245 C246 1.345 . S
C246 H238 0.950 . S
C246 C245 1.345 . S
C246 C247 1.424 . S
C247 H239 0.951 . S
C247 C246 1.424 . S
C247 C248 1.347 . S
C248 H240 0.951 . S
C248 C243 1.429 . S
C248 C247 1.347 . S
H249 C250 0.951 . S
C250 H249 0.951 . S
C250 C256 1.265 . S
H251 C256 0.950 . S
H252 C260 0.949 . S
H253 C261 0.950 . S
H254 C262 0.951 . S
H255 C263 0.951 . S
C256 C250 1.265 . S
C256 H251 0.950 . S
C256 C257 1.478 . S
C257 C244 1.394 . S
C257 C256 1.478 . S
C257 C258 1.397 . S
C258 C257 1.397 . S
C258 C259 1.438 . S
C258 C263 1.429 . S
C259 C242 1.394 . S
C259 C258 1.438 . S
C259 C260 1.428 . S
C260 H252 0.949 . S
C260 C259 1.428 . S
C260 C261 1.345 . S
C261 H253 0.950 . S
C261 C260 1.345 . S
C261 C262 1.424 . S
C262 H254 0.951 . S
C262 C261 1.424 . S
C262 C263 1.347 . S
C263 H255 0.951 . S
C263 C258 1.429 . S
C263 C262 1.347 . S
H264 C265 0.951 . S
C265 H264 0.951 . S
C265 C271 1.265 . S
H266 C271 0.950 . S
H267 C275 0.949 . S
H268 C276 0.950 . S
H269 C277 0.951 . S
H270 C278 0.951 . S
C271 C265 1.265 . S
C271 H266 0.950 . S
C271 C272 1.478 . S
C272 C271 1.478 . S
C272 C273 1.397 . S
C272 C289 1.394 . S
C273 C272 1.397 . S
C273 C274 1.438 1_556 S
C273 C278 1.429 . S
C274 C273 1.438 1_554 S
C274 C275 1.428 . S
C274 C287 1.394 . S
C275 H267 0.949 . S
C275 C274 1.428 . S
C275 C276 1.345 . S
C276 H268 0.950 . S
C276 C275 1.345 . S
C276 C277 1.424 1_554 S
C277 H269 0.951 . S
C277 C276 1.424 1_556 S
C277 C278 1.347 . S
C278 H270 0.951 . S
C278 C273 1.429 . S
C278 C277 1.347 . S
H279 C280 0.951 . S
C280 H279 0.951 . S
C280 C286 1.265 . S
H281 C286 0.950 . S
H282 C290 0.949 . S
H283 C291 0.950 . S
H284 C292 0.951 . S
H285 C293 0.951 . S
C286 C280 1.265 . S
C286 H281 0.950 . S
C286 C287 1.478 . S
C287 C274 1.394 . S
C287 C286 1.478 . S
C287 C288 1.397 . S
C288 C287 1.397 . S
C288 C289 1.438 1_554 S
C288 C293 1.429 . S
C289 C272 1.394 . S
C289 C288 1.438 1_556 S
C289 C290 1.428 . S
C290 H282 0.949 . S
C290 C289 1.428 . S
C290 C291 1.345 . S
C291 H283 0.950 . S
C291 C290 1.345 . S
C291 C292 1.424 1_556 S
C292 H284 0.951 . S
C292 C291 1.424 1_554 S
C292 C293 1.347 . S
C293 H285 0.951 . S
C293 C288 1.429 . S
C293 C292 1.347 . S
H294 C295 0.951 . S
C295 H294 0.951 . S
C295 C301 1.265 . S
H296 C301 0.950 . S
H297 C305 0.949 . S
H298 C306 0.950 . S
H299 C307 0.951 . S
H300 C308 0.951 . S
C301 C295 1.265 . S
C301 H296 0.950 . S
C301 C302 1.478 . S
C302 C301 1.478 . S
C302 C303 1.397 . S
C302 C319 1.394 . S
C303 C302 1.397 . S
C303 C304 1.438 . S
C303 C308 1.429 . S
C304 C303 1.438 . S
C304 C305 1.428 . S
C304 C317 1.394 . S
C305 H297 0.949 . S
C305 C304 1.428 . S
C305 C306 1.345 . S
C306 H298 0.950 . S
C306 C305 1.345 . S
C306 C307 1.424 . S
C307 H299 0.951 . S
C307 C306 1.424 . S
C307 C308 1.347 . S
C308 H300 0.951 . S
C308 C303 1.429 . S
C308 C307 1.347 . S
H309 C310 0.951 . S
C310 H309 0.951 . S
C310 C316 1.265 . S
H311 C316 0.950 . S
H312 C320 0.949 . S
H313 C321 0.950 . S
H314 C322 0.951 . S
H315 C323 0.951 . S
C316 C310 1.265 . S
C316 H311 0.950 . S
C316 C317 1.478 . S
C317 C304 1.394 . S
C317 C316 1.478 . S
C317 C318 1.397 . S
C318 C317 1.397 . S
C318 C319 1.438 . S
C318 C323 1.429 . S
C319 C302 1.394 . S
C319 C318 1.438 . S
C319 C320 1.428 . S
C320 H312 0.949 . S
C320 C319 1.428 . S
C320 C321 1.345 . S
C321 H313 0.950 . S
C321 C320 1.345 . S
C321 C322 1.424 . S
C322 H314 0.951 . S
C322 C321 1.424 . S
C322 C323 1.347 . S
C323 H315 0.951 . S
C323 C318 1.429 . S
C323 C322 1.347 . S
H324 C325 0.951 . S
C325 H324 0.951 . S
C325 C331 1.265 . S
H326 C331 0.950 . S
H327 C335 0.949 . S
H328 C336 0.950 . S
H329 C337 0.951 . S
H330 C338 0.951 . S
C331 C325 1.265 . S
C331 H326 0.950 . S
C331 C332 1.478 . S
C332 C331 1.478 . S
C332 C333 1.397 . S
C332 C349 1.394 . S
C333 C332 1.397 . S
C333 C334 1.438 . S
C333 C338 1.429 . S
C334 C333 1.438 . S
C334 C335 1.428 . S
C334 C347 1.394 . S
C335 H327 0.949 . S
C335 C334 1.428 . S
C335 C336 1.345 . S
C336 H328 0.950 . S
C336 C335 1.345 . S
C336 C337 1.424 . S
C337 H329 0.951 . S
C337 C336 1.424 . S
C337 C338 1.347 . S
C338 H330 0.951 . S
C338 C333 1.429 . S
C338 C337 1.347 . S
H339 C340 0.951 . S
C340 H339 0.951 . S
C340 C346 1.265 . S
H341 C346 0.950 . S
H342 C350 0.949 . S
H343 C351 0.950 . S
H344 C352 0.951 . S
H345 C353 0.951 . S
C346 C340 1.265 . S
C346 H341 0.950 . S
C346 C347 1.478 . S
C347 C334 1.394 . S
C347 C346 1.478 . S
C347 C348 1.397 . S
C348 C347 1.397 . S
C348 C349 1.438 . S
C348 C353 1.429 . S
C349 C332 1.394 . S
C349 C348 1.438 . S
C349 C350 1.428 . S
C350 H342 0.949 . S
C350 C349 1.428 . S
C350 C351 1.345 . S
C351 H343 0.950 . S
C351 C350 1.345 . S
C351 C352 1.424 . S
C352 H344 0.951 . S
C352 C351 1.424 . S
C352 C353 1.347 . S
C353 H345 0.951 . S
C353 C348 1.429 . S
C353 C352 1.347 . S
H354 C355 0.951 . S
C355 H354 0.951 . S
C355 C361 1.265 . S
H356 C361 0.950 . S
H357 C365 0.949 . S
H358 C366 0.950 . S
H359 C367 0.951 . S
H360 C368 0.951 . S
C361 C355 1.265 . S
C361 H356 0.950 . S
C361 C362 1.478 . S
C362 C361 1.478 . S
C362 C363 1.397 . S
C362 C379 1.394 . S
C363 C362 1.397 . S
C363 C364 1.438 1_556 S
C363 C368 1.429 . S
C364 C363 1.438 1_554 S
C364 C365 1.428 . S
C364 C377 1.394 . S
C365 H357 0.949 . S
C365 C364 1.428 . S
C365 C366 1.345 . S
C366 H358 0.950 . S
C366 C365 1.345 . S
C366 C367 1.424 1_554 S
C367 H359 0.951 . S
C367 C366 1.424 1_556 S
C367 C368 1.347 . S
C368 H360 0.951 . S
C368 C363 1.429 . S
C368 C367 1.347 . S
H369 C370 0.951 . S
C370 H369 0.951 . S
C370 C376 1.265 . S
H371 C376 0.950 . S
H372 C380 0.949 . S
H373 C381 0.950 . S
H374 C382 0.951 . S
H375 C383 0.951 . S
C376 C370 1.265 . S
C376 H371 0.950 . S
C376 C377 1.478 . S
C377 C364 1.394 . S
C377 C376 1.478 . S
C377 C378 1.397 . S
C378 C377 1.397 . S
C378 C379 1.438 1_554 S
C378 C383 1.429 . S
C379 C362 1.394 . S
C379 C378 1.438 1_556 S
C379 C380 1.428 . S
C380 H372 0.949 . S
C380 C379 1.428 . S
C380 C381 1.345 . S
C381 H373 0.950 . S
C381 C380 1.345 . S
C381 C382 1.424 1_556 S
C382 H374 0.951 . S
C382 C381 1.424 1_554 S
C382 C383 1.347 . S
C383 H375 0.951 . S
C383 C378 1.429 . S
C383 C382 1.347 . S
H384 C385 0.951 . S
C385 H384 0.951 . S
C385 C391 1.265 . S
H386 C391 0.950 . S
H387 C395 0.949 . S
H388 C396 0.950 . S
H389 C397 0.951 . S
H390 C398 0.951 . S
C391 C385 1.265 . S
C391 H386 0.950 . S
C391 C392 1.478 . S
C392 C391 1.478 . S
C392 C393 1.397 . S
C392 C409 1.394 . S
C393 C392 1.397 . S
C393 C394 1.438 . S
C393 C398 1.429 . S
C394 C393 1.438 . S
C394 C395 1.428 . S
C394 C407 1.394 . S
C395 H387 0.949 . S
C395 C394 1.428 . S
C395 C396 1.345 . S
C396 H388 0.950 . S
C396 C395 1.345 . S
C396 C397 1.424 . S
C397 H389 0.951 . S
C397 C396 1.424 . S
C397 C398 1.347 . S
C398 H390 0.951 . S
C398 C393 1.429 . S
C398 C397 1.347 . S
H399 C400 0.951 . S
C400 H399 0.951 . S
C400 C406 1.265 . S
H401 C406 0.950 . S
H402 C410 0.949 . S
H403 C411 0.950 . S
H404 C412 0.951 . S
H405 C413 0.951 . S
C406 C400 1.265 . S
C406 H401 0.950 . S
C406 C407 1.478 . S
C407 C394 1.394 . S
C407 C406 1.478 . S
C407 C408 1.397 . S
C408 C407 1.397 . S
C408 C409 1.438 . S
C408 C413 1.429 . S
C409 C392 1.394 . S
C409 C408 1.438 . S
C409 C410 1.428 . S
C410 H402 0.949 . S
C410 C409 1.428 . S
C410 C411 1.345 . S
C411 H403 0.950 . S
C411 C410 1.345 . S
C411 C412 1.424 . S
C412 H404 0.951 . S
C412 C411 1.424 . S
C412 C413 1.347 . S
C413 H405 0.951 . S
C413 C408 1.429 . S
C413 C412 1.347 . S
H414 C415 0.951 . S
C415 H414 0.951 . S
C415 C421 1.265 . S
H416 C421 0.950 . S
H417 C425 0.949 . S
H418 C426 0.950 . S
H419 C427 0.951 . S
H420 C428 0.951 . S
C421 C415 1.265 . S
C421 H416 0.950 . S
C421 C422 1.478 . S
C422 C421 1.478 . S
C422 C423 1.397 . S
C422 C439 1.394 . S
C423 C422 1.397 . S
C423 C424 1.438 . S
C423 C428 1.429 . S
C424 C423 1.438 . S
C424 C425 1.428 . S
C424 C437 1.394 . S
C425 H417 0.949 . S
C425 C424 1.428 . S
C425 C426 1.345 . S
C426 H418 0.950 . S
C426 C425 1.345 . S
C426 C427 1.424 . S
C427 H419 0.951 . S
C427 C426 1.424 . S
C427 C428 1.347 . S
C428 H420 0.951 . S
C428 C423 1.429 . S
C428 C427 1.347 . S
H429 C430 0.951 . S
C430 H429 0.951 . S
C430 C436 1.265 . S
H431 C436 0.950 . S
H432 C440 0.949 . S
H433 C441 0.950 . S
H434 C442 0.951 . S
H435 C443 0.951 . S
C436 C430 1.265 . S
C436 H431 0.950 . S
C436 C437 1.478 . S
C437 C424 1.394 . S
C437 C436 1.478 . S
C437 C438 1.397 . S
C438 C437 1.397 . S
C438 C439 1.438 . S
C438 C443 1.429 . S
C439 C422 1.394 . S
C439 C438 1.438 . S
C439 C440 1.428 . S
C440 H432 0.949 . S
C440 C439 1.428 . S
C440 C441 1.345 . S
C441 H433 0.950 . S
C441 C440 1.345 . S
C441 C442 1.424 . S
C442 H434 0.951 . S
C442 C441 1.424 . S
C442 C443 1.347 . S
C443 H435 0.951 . S
C443 C438 1.429 . S
C443 C442 1.347 . S
C85 C11 1.347 . S
C100 C53 1.342 . S
C115 C25 1.343 . S
C130 C67 1.339 . S
C145 C39 1.335 . S
C160 C81 1.349 . S
C175 C19 1.531 . S
C190 C61 1.527 . S
C205 C75 1.524 . S
C220 C33 1.525 . S
C235 C47 1.545 . S
C250 C5 1.545 . S
C265 C28 1.223 . S
C280 C9 1.251 . S
C295 C42 1.209 . S
C310 C23 1.217 . S
C325 C37 1.150 . S
C340 C56 1.248 . S
C355 C70 1.218 . S
C370 C51 1.156 . S
C385 C65 1.221 . S
C400 C0 1.210 . S
C415 C79 1.269 . S
C430 C14 1.243 . S
