# Generated by pormake.
# Topology lcy-e, (6)-cn, num edge types: 1
# Building blocks:
#     Node 0, Type 0, BuildingBlock: BETDEL_clean_sbu_0, # of connection points: 6
#     Node 1, Type 0, BuildingBlock: BETDEL_clean_sbu_0, # of connection points: 6
#     Node 2, Type 0, BuildingBlock: BETDEL_clean_sbu_0, # of connection points: 6
#     Node 3, Type 0, BuildingBlock: BETDEL_clean_sbu_0, # of connection points: 6
#     Node 4, Type 0, BuildingBlock: BETDEL_clean_sbu_0, # of connection points: 6
#     Node 5, Type 0, BuildingBlock: BETDEL_clean_sbu_0, # of connection points: 6
#     Node 6, Type 0, BuildingBlock: BETDEL_clean_sbu_0, # of connection points: 6
#     Node 7, Type 0, BuildingBlock: BETDEL_clean_sbu_0, # of connection points: 6
#     Node 8, Type 0, BuildingBlock: BETDEL_clean_sbu_0, # of connection points: 6
#     Node 9, Type 0, BuildingBlock: BETDEL_clean_sbu_0, # of connection points: 6
#     Node 10, Type 0, BuildingBlock: BETDEL_clean_sbu_0, # of connection points: 6
#     Node 11, Type 0, BuildingBlock: BETDEL_clean_sbu_0, # of connection points: 6
#     Edge 12, Type (0, 0), BuildingBlock: XUDNAN_clean_linker_2, # of connection points: 2
#     Edge 13, Type (0, 0), BuildingBlock: XUDNAN_clean_linker_2, # of connection points: 2
#     Edge 14, Type (0, 0), BuildingBlock: XUDNAN_clean_linker_2, # of connection points: 2
#     Edge 15, Type (0, 0), BuildingBlock: XUDNAN_clean_linker_2, # of connection points: 2
#     Edge 16, Type (0, 0), BuildingBlock: XUDNAN_clean_linker_2, # of connection points: 2
#     Edge 17, Type (0, 0), BuildingBlock: XUDNAN_clean_linker_2, # of connection points: 2
#     Edge 18, Type (0, 0), BuildingBlock: XUDNAN_clean_linker_2, # of connection points: 2
#     Edge 19, Type (0, 0), BuildingBlock: XUDNAN_clean_linker_2, # of connection points: 2
#     Edge 20, Type (0, 0), BuildingBlock: XUDNAN_clean_linker_2, # of connection points: 2
#     Edge 21, Type (0, 0), BuildingBlock: XUDNAN_clean_linker_2, # of connection points: 2
#     Edge 22, Type (0, 0), BuildingBlock: XUDNAN_clean_linker_2, # of connection points: 2
#     Edge 23, Type (0, 0), BuildingBlock: XUDNAN_clean_linker_2, # of connection points: 2
#     Edge 24, Type (0, 0), BuildingBlock: XUDNAN_clean_linker_2, # of connection points: 2
#     Edge 25, Type (0, 0), BuildingBlock: XUDNAN_clean_linker_2, # of connection points: 2
#     Edge 26, Type (0, 0), BuildingBlock: XUDNAN_clean_linker_2, # of connection points: 2
#     Edge 27, Type (0, 0), BuildingBlock: XUDNAN_clean_linker_2, # of connection points: 2
#     Edge 28, Type (0, 0), BuildingBlock: XUDNAN_clean_linker_2, # of connection points: 2
#     Edge 29, Type (0, 0), BuildingBlock: XUDNAN_clean_linker_2, # of connection points: 2
#     Edge 30, Type (0, 0), BuildingBlock: XUDNAN_clean_linker_2, # of connection points: 2
#     Edge 31, Type (0, 0), BuildingBlock: XUDNAN_clean_linker_2, # of connection points: 2
#     Edge 32, Type (0, 0), BuildingBlock: XUDNAN_clean_linker_2, # of connection points: 2
#     Edge 33, Type (0, 0), BuildingBlock: XUDNAN_clean_linker_2, # of connection points: 2
#     Edge 34, Type (0, 0), BuildingBlock: XUDNAN_clean_linker_2, # of connection points: 2
#     Edge 35, Type (0, 0), BuildingBlock: XUDNAN_clean_linker_2, # of connection points: 2
#     Edge 36, Type (0, 0), BuildingBlock: XUDNAN_clean_linker_2, # of connection points: 2
#     Edge 37, Type (0, 0), BuildingBlock: XUDNAN_clean_linker_2, # of connection points: 2
#     Edge 38, Type (0, 0), BuildingBlock: XUDNAN_clean_linker_2, # of connection points: 2
#     Edge 39, Type (0, 0), BuildingBlock: XUDNAN_clean_linker_2, # of connection points: 2
#     Edge 40, Type (0, 0), BuildingBlock: XUDNAN_clean_linker_2, # of connection points: 2
#     Edge 41, Type (0, 0), BuildingBlock: XUDNAN_clean_linker_2, # of connection points: 2
#     Edge 42, Type (0, 0), BuildingBlock: XUDNAN_clean_linker_2, # of connection points: 2
#     Edge 43, Type (0, 0), BuildingBlock: XUDNAN_clean_linker_2, # of connection points: 2
#     Edge 44, Type (0, 0), BuildingBlock: XUDNAN_clean_linker_2, # of connection points: 2
#     Edge 45, Type (0, 0), BuildingBlock: XUDNAN_clean_linker_2, # of connection points: 2
#     Edge 46, Type (0, 0), BuildingBlock: XUDNAN_clean_linker_2, # of connection points: 2
#     Edge 47, Type (0, 0), BuildingBlock: XUDNAN_clean_linker_2, # of connection points: 2
# Relax obj value: 0.223
# Max RMSD: 0.280
# Mean RMSD: 0.269
data_MOF--net-lcy-e--node1-BETDEL_clean_sbu_0--edge1-XUDNAN_clean_linker_2
_symmetry_space_group_name_H-M    P1
_symmetry_Int_Tables_number       1
_symmetry_cell_setting            triclinic
loop_
_symmetry_equiv_pos_as_xyz
'x, y, z'
_cell_length_a     37.483099
_cell_length_b     36.587535
_cell_length_c     38.335573
_cell_angle_alpha  89.910841
_cell_angle_beta   91.195247
_cell_angle_gamma 88.485522
loop_
_atom_site_label
_atom_site_type_symbol
_atom_site_fract_x
_atom_site_fract_y
_atom_site_fract_z
_atom_type_partial_charge
Dy0 Dy 0.1216 0.25148 0.4707 0.0
C1 C 0.15695 0.121 0.54435 0.0
C2 C 0.11264 0.30805 0.42436 0.0
Dy3 Dy 0.15364 0.18594 0.50926 0.0
O4 O 0.104 0.27449 0.41893 0.0
O5 O 0.12487 0.31149 0.45623 0.0
O6 O 0.06905 0.22497 0.46842 0.0
O7 O 0.11622 0.19231 0.46458 0.0
C8 C 0.0824 0.19196 0.46619 0.0
C9 C 0.18936 0.24838 0.51729 0.0
O10 O 0.18206 0.17535 0.46047 0.0
O11 O 0.17104 0.23435 0.4403 0.0
O12 O 0.17927 0.14725 0.54897 0.0
O13 O 0.13366 0.13003 0.52019 0.0
O14 O 0.20529 0.2163 0.51739 0.0
O15 O 0.15621 0.24473 0.51582 0.0
O16 O 0.09521 0.26246 0.52245 0.0
O17 O 0.10995 0.20468 0.5444 0.0
C18 C 0.18796 0.20198 0.43833 0.0
C19 C 0.09258 0.23657 0.54676 0.0
Dy20 Dy 1.00061 0.87495 0.69551 0.0
C21 C 0.11977 0.83576 0.78668 0.0
C22 C 0.94859 0.9041 0.65253 0.0
Dy23 Dy 0.06215 0.86319 0.74883 0.0
O24 O 0.95639 0.86945 0.6557 0.0
O25 O 0.96862 0.92281 0.67355 0.0
O26 O 0.00892 0.81954 0.67417 0.0
O27 O 0.05353 0.84748 0.69364 0.0
C28 C 0.04292 0.8174 0.68119 0.0
C29 C 0.01411 0.91796 0.76372 0.0
O30 O 0.08865 0.90313 0.71472 0.0
O31 O 0.03957 0.91662 0.67843 0.0
O32 O 0.09439 0.85643 0.79915 0.0
O33 O 0.11334 0.82983 0.75384 0.0
O34 O 0.0471 0.91719 0.77524 0.0
O35 O 0.00932 0.88809 0.74902 0.0
O36 O 0.97303 0.84779 0.73954 0.0
O37 O 0.02377 0.81942 0.76341 0.0
C38 C 0.07297 0.92191 0.68889 0.0
C39 C 0.98843 0.8237 0.76154 0.0
Dy40 Dy 0.37821 0.79155 0.995 0.0
C41 C 0.36291 0.69909 0.87258 0.0
C42 C 0.39131 0.84044 0.04677 0.0
Dy43 Dy 0.38344 0.73218 0.93281 0.0
O44 O 0.39646 0.84609 0.01385 0.0
O45 O 0.37846 0.80819 0.05151 0.0
O46 O 0.32178 0.80626 0.9771 0.0
O47 O 0.35875 0.78619 0.94138 0.0
C48 C 0.32641 0.79489 0.94536 0.0
C49 C 0.42833 0.71655 0.98757 0.0
O50 O 0.4187 0.7755 0.91335 0.0
O51 O 0.42721 0.80733 0.96564 0.0
O52 O 0.396 0.70485 0.8817 0.0
O53 O 0.34151 0.71048 0.89674 0.0
O54 O 0.42528 0.69487 0.96063 0.0
O55 O 0.40826 0.74374 0.9816 0.0
O56 O 0.35892 0.73995 0.01957 0.0
O57 O 0.34274 0.70949 0.96836 0.0
C58 C 0.43559 0.79995 0.93271 0.0
C59 C 0.34297 0.7128 1.00284 0.0
Dy60 Dy 0.50777 0.11838 0.19774 0.0
C61 C 0.38601 0.12238 0.28867 0.0
C62 C 0.55892 0.11075 0.14767 0.0
Dy63 Dy 0.44845 0.10706 0.25503 0.0
O64 O 0.5486 0.14139 0.16191 0.0
O65 O 0.54249 0.08397 0.16209 0.0
O66 O 0.47947 0.16903 0.17694 0.0
O67 O 0.45099 0.12884 0.20237 0.0
C68 C 0.44935 0.16097 0.19055 0.0
C69 C 0.50922 0.06666 0.26299 0.0
O70 O 0.4342 0.06163 0.21993 0.0
O71 O 0.48213 0.06539 0.18195 0.0
O72 O 0.41569 0.11124 0.30414 0.0
O73 O 0.39047 0.12378 0.25524 0.0
O74 O 0.47881 0.05665 0.27568 0.0
O75 O 0.50556 0.09839 0.25077 0.0
O76 O 0.52956 0.1505 0.24377 0.0
O77 O 0.47598 0.15736 0.27344 0.0
C78 C 0.45332 0.04914 0.19365 0.0
C79 C 0.50966 0.16598 0.26857 0.0
Dy80 Dy 0.62571 0.25503 0.56719 0.0
C81 C 0.61817 0.39056 0.48734 0.0
C82 C 0.62586 0.19606 0.61177 0.0
Dy83 Dy 0.62887 0.32443 0.51993 0.0
O84 O 0.59866 0.21763 0.60436 0.0
O85 O 0.65237 0.20492 0.59233 0.0
O86 O 0.60839 0.29344 0.6098 0.0
O87 O 0.59251 0.30472 0.55865 0.0
C88 C 0.59108 0.31616 0.58943 0.0
C89 C 0.66303 0.26485 0.49501 0.0
O90 O 0.67283 0.33624 0.5588 0.0
O91 O 0.67883 0.27745 0.58225 0.0
O92 O 0.62729 0.36005 0.47235 0.0
O93 O 0.61573 0.38537 0.52081 0.0
O94 O 0.64993 0.2911 0.47535 0.0
O95 O 0.66049 0.27392 0.52656 0.0
O96 O 0.59511 0.23819 0.51835 0.0
O97 O 0.57774 0.29777 0.50625 0.0
C98 C 0.69008 0.31132 0.57844 0.0
C99 C 0.57705 0.26255 0.49853 0.0
Dy100 Dy 0.94901 0.38669 0.7609 0.0
C101 C 0.03555 0.39311 0.8852 0.0
C102 C 0.90714 0.37482 0.70343 0.0
Dy103 Dy 1.00131 0.37523 0.82454 0.0
O104 O 0.90463 0.40355 0.7232 0.0
O105 O 0.93256 0.353 0.71494 0.0
O106 O 0.93468 0.44284 0.78086 0.0
O107 O 0.94866 0.40029 0.81593 0.0
C108 C 0.94118 0.43397 0.81332 0.0
C109 C 0.00932 0.32808 0.77129 0.0
O110 O 0.95603 0.34296 0.843 0.0
O111 O 0.92545 0.33902 0.78972 0.0
O112 O 0.03803 0.36115 0.87029 0.0
O113 O 0.01528 0.41511 0.86652 0.0
O114 O 0.01906 0.31965 0.80329 0.0
O115 O 1.0006 0.36129 0.77 0.0
O116 O 0.9983 0.41272 0.74051 0.0
O117 O 0.03016 0.41713 0.79311 0.0
C118 C 0.93113 0.32851 0.8227 0.0
C119 C 0.02597 0.42455 0.7593 0.0
Dy120 Dy 0.8769 0.75697 0.06902 0.0
C121 C 0.89089 0.63144 0.97974 0.0
C122 C 0.87291 0.81704 0.11109 0.0
Dy123 Dy 0.87718 0.69515 0.01454 0.0
O124 O 0.90196 0.80402 0.0974 0.0
O125 O 0.84597 0.79795 0.10078 0.0
O126 O 0.90881 0.72015 0.10538 0.0
O127 O 0.91621 0.71566 0.05204 0.0
C128 C 0.92455 0.70159 0.08111 0.0
C129 C 0.82997 0.74993 1.00064 0.0
O130 O 0.8438 0.67045 0.05572 0.0
O131 O 0.83346 0.72222 0.08961 0.0
O132 O 0.89419 0.63568 0.01328 0.0
O133 O 0.87971 0.66188 0.96527 0.0
O134 O 0.84234 0.72813 0.97676 0.0
O135 O 0.83905 0.73785 0.03035 0.0
O136 O 0.8965 0.7834 0.02009 0.0
O137 O 0.92077 0.73029 0.99713 0.0
C138 C 0.8275 0.68757 0.08157 0.0
C139 C 0.91645 0.76623 0.99674 0.0
Dy140 Dy 0.5611 0.60868 0.24656 0.0
C141 C 0.46085 0.64145 0.3519 0.0
C142 C 0.61077 0.60961 0.19565 0.0
Dy143 Dy 0.50677 0.64259 0.29786 0.0
O144 O 0.6018 0.5804 0.2125 0.0
O145 O 0.59157 0.63751 0.20569 0.0
O146 O 0.57106 0.5596 0.27873 0.0
O147 O 0.557 0.60956 0.30365 0.0
C148 C 0.5619 0.57518 0.30782 0.0
C149 C 0.5028 0.66784 0.23114 0.0
O150 O 0.55157 0.67769 0.31362 0.0
O151 O 0.58939 0.6571 0.26996 0.0
O152 O 0.46381 0.6691 0.3308 0.0
O153 O 0.48276 0.61521 0.34335 0.0
O154 O 0.49119 0.68733 0.25722 0.0
O155 O 0.51089 0.63677 0.2425 0.0
O156 O 0.51165 0.57795 0.22991 0.0
O157 O 0.47948 0.59242 0.27948 0.0
C158 C 0.58152 0.67944 0.29619 0.0
C159 C 0.48367 0.57349 0.25039 0.0
Dy160 Dy 0.23097 0.41979 0.14496 0.0
C161 C 0.13537 0.54646 0.1351 0.0
C162 C 0.27728 0.36434 0.16346 0.0
Dy163 Dy 0.18475 0.49184 0.14823 0.0
O164 O 0.26831 0.37294 0.13147 0.0
O165 O 0.26136 0.38625 0.18507 0.0
O166 O 0.20445 0.40001 0.09681 0.0
O167 O 0.17575 0.43538 0.13042 0.0
C168 C 0.17598 0.42055 0.10045 0.0
C169 C 0.24587 0.48973 0.18723 0.0
O170 O 0.163 0.46448 0.19479 0.0
O171 O 0.19945 0.41181 0.19378 0.0
O172 O 0.16964 0.55087 0.13746 0.0
O173 O 0.12816 0.51245 0.14041 0.0
O174 O 0.21902 0.51161 0.19446 0.0
O175 O 0.23925 0.47528 0.15856 0.0
O176 O 0.26136 0.4601 0.11286 0.0
O177 O 0.21236 0.49644 0.0969 0.0
C178 C 0.17452 0.43292 0.20832 0.0
C179 C 0.24636 0.48661 0.09309 0.0
Dy180 Dy 0.69442 0.99526 0.86511 0.0
C181 C 0.79283 0.11211 0.87847 0.0
C182 C 0.64321 0.94363 0.87061 0.0
Dy183 Dy 0.74921 0.05364 0.88257 0.0
O184 O 0.66257 0.94845 0.84329 0.0
O185 O 0.65225 0.96652 0.89474 0.0
O186 O 0.68472 0.01832 0.81203 0.0
O187 O 0.6976 0.05414 0.85298 0.0
C188 C 0.69292 0.05143 0.82016 0.0
C189 C 0.75238 0.99236 0.92305 0.0
O190 O 0.7037 0.07672 0.91209 0.0
O191 O 0.67299 0.0228 0.91403 0.0
O192 O 0.78764 0.09318 0.90655 0.0
O193 O 0.7745 0.09884 0.85256 0.0
O194 O 0.76466 0.02331 0.93409 0.0
O195 O 0.74457 0.99603 0.89157 0.0
O196 O 0.7464 0.96912 0.84585 0.0
O197 O 0.77625 0.02318 0.83901 0.0
C198 C 0.67896 0.05634 0.9257 0.0
C199 C 0.77343 0.98772 0.83286 0.0
Dy200 Dy 0.76216 0.94729 0.38672 0.0
C201 C 0.87631 0.05178 0.39098 0.0
C202 C 0.7261 0.88455 0.37588 0.0
Dy203 Dy 0.81642 0.01138 0.38154 0.0
O204 O 0.7112 0.91721 0.37494 0.0
O205 O 0.75983 0.88659 0.38363 0.0
O206 O 0.77426 0.94164 0.44371 0.0
O207 O 0.81401 0.96018 0.41064 0.0
C208 C 0.80553 0.95565 0.44201 0.0
C209 C 0.7572 0.01808 0.34073 0.0
O210 O 0.84285 0.9703 0.34637 0.0
O211 O 0.79549 0.93072 0.34122 0.0
O212 O 0.86374 0.04105 0.36091 0.0
O213 O 0.85561 0.04133 0.41562 0.0
O214 O 0.77483 0.04636 0.35155 0.0
O215 O 0.77421 0.98945 0.34958 0.0
O216 O 0.72966 0.99516 0.40601 0.0
O217 O 0.77843 0.03 0.42277 0.0
C218 C 0.82716 0.942 0.33159 0.0
C219 C 0.74376 0.02329 0.42287 0.0
Dy220 Dy 0.31939 0.51396 0.6143 0.0
C221 C 0.21071 0.62795 0.60043 0.0
C222 C 0.37074 0.45999 0.6216 0.0
Dy223 Dy 0.25556 0.56808 0.60021 0.0
O224 O 0.35613 0.4776 0.64723 0.0
O225 O 0.35644 0.47108 0.59224 0.0
O226 O 0.34962 0.56017 0.63887 0.0
O227 O 0.29442 0.55915 0.64229 0.0
C228 C 0.32131 0.57766 0.64946 0.0
C229 C 0.25015 0.50286 0.56889 0.0
O230 O 0.2956 0.59001 0.56341 0.0
O231 O 0.33667 0.5411 0.56537 0.0
O232 O 0.20528 0.59821 0.58281 0.0
O233 O 0.24097 0.62525 0.6174 0.0
O234 O 0.22257 0.52284 0.57779 0.0
O235 O 0.27832 0.52049 0.57381 0.0
O236 O 0.2735 0.4866 0.64014 0.0
O237 O 0.23816 0.53909 0.64758 0.0
C238 C 0.32445 0.57253 0.55199 0.0
C239 C 0.24563 0.50412 0.65398 0.0
H240 H 0.15655 0.3122 0.53665 0.0
H241 H 0.26027 0.26472 0.51241 0.0
H242 H 0.28758 0.32508 0.52224 0.0
H243 H 0.1671 0.39917 0.4968 0.0
H244 H 0.14385 0.42418 0.53026 0.0
H245 H 0.13293 0.37746 0.52122 0.0
H246 H 0.14516 0.3605 0.58612 0.0
H247 H 0.15614 0.40715 0.59547 0.0
H248 H 0.18772 0.37065 0.6061 0.0
H249 H 0.3028 0.39192 0.53333 0.0
H250 H 0.3051 0.45788 0.54752 0.0
H251 H 0.19162 0.45988 0.56711 0.0
C252 C 0.18504 0.31447 0.53338 0.0
C253 C 0.20638 0.28388 0.52362 0.0
C254 C 0.24354 0.28786 0.5199 0.0
C255 C 0.25919 0.32202 0.52537 0.0
C256 C 0.23731 0.35171 0.53493 0.0
C257 C 0.20106 0.34808 0.53922 0.0
C258 C 0.18338 0.38381 0.55027 0.0
C259 C 0.15516 0.39693 0.52301 0.0
C260 C 0.16715 0.3803 0.58664 0.0
C261 C 0.21524 0.40841 0.55114 0.0
C262 C 0.24613 0.3895 0.54215 0.0
C263 C 0.2788 0.40682 0.5407 0.0
C264 C 0.27992 0.44423 0.54893 0.0
C265 C 0.24868 0.46385 0.55877 0.0
C266 C 0.21597 0.4456 0.55968 0.0
H267 H 0.81611 0.99993 0.77682 0.0
H268 H 0.80767 0.93442 0.87043 0.0
H269 H 0.87099 0.91465 0.86572 0.0
H270 H 0.87579 0.9319 0.73166 0.0
H271 H 0.89961 0.96742 0.71026 0.0
H272 H 0.85332 0.97468 0.72063 0.0
H273 H 0.87018 0.03338 0.75428 0.0
H274 H 0.91668 0.02544 0.74516 0.0
H275 H 0.90262 0.0303 0.78963 0.0
H276 H 0.93711 0.90873 0.85509 0.0
H277 H 0.997 0.90136 0.82979 0.0
H278 H 0.96157 0.96525 0.73979 0.0
C279 C 0.82736 0.98043 0.79556 0.0
C280 C 0.80697 0.96827 0.82373 0.0
C281 C 0.82263 0.94334 0.84821 0.0
C282 C 0.85873 0.93246 0.84607 0.0
C283 C 0.87857 0.94613 0.81881 0.0
C284 C 0.86309 0.96827 0.79311 0.0
C285 C 0.89007 0.97766 0.76568 0.0
C286 C 0.87904 0.96197 0.72995 0.0
C287 C 0.89517 0.01917 0.76358 0.0
C288 C 0.92329 0.95817 0.78047 0.0
C289 C 0.91623 0.94089 0.81157 0.0
C290 C 0.94285 0.92187 0.8306 0.0
C291 C 0.977 0.91846 0.81641 0.0
C292 C 0.98414 0.9337 0.78341 0.0
C293 C 0.9571 0.95436 0.76557 0.0
H294 H 0.28482 0.67055 0.9899 0.0
H295 H 0.37615 0.68242 0.0599 0.0
H296 H 0.36428 0.62254 0.08656 0.0
H297 H 0.22867 0.62848 0.05584 0.0
H298 H 0.20717 0.59943 0.02431 0.0
H299 H 0.22325 0.64317 0.01108 0.0
H300 H 0.26052 0.61091 0.96334 0.0
H301 H 0.24533 0.56697 0.97712 0.0
H302 H 0.29247 0.57526 0.97566 0.0
H303 H 0.34572 0.55903 0.1017 0.0
H304 H 0.3136 0.50301 0.11491 0.0
H305 H 0.23056 0.53462 0.03934 0.0
C306 C 0.30185 0.66075 0.01128 0.0
C307 C 0.33137 0.681 0.02293 0.0
C308 C 0.35317 0.66748 0.05091 0.0
C309 C 0.34689 0.6333 0.06589 0.0
C310 C 0.31825 0.61342 0.05307 0.0
C311 C 0.29533 0.62716 0.02725 0.0
C312 C 0.26528 0.60116 0.01969 0.0
C313 C 0.22895 0.61912 0.02825 0.0
C314 C 0.26596 0.58779 0.98169 0.0
C315 C 0.27518 0.57042 0.04494 0.0
C316 C 0.30628 0.57772 0.06333 0.0
C317 C 0.32118 0.55316 0.08768 0.0
C318 C 0.30292 0.52111 0.09466 0.0
C319 C 0.26965 0.51428 0.07798 0.0
C320 C 0.2561 0.53894 0.05222 0.0
H321 H 0.56873 0.10429 0.27895 0.0
H322 H 0.52932 0.99424 0.27127 0.0
H323 H 0.58992 0.96956 0.28757 0.0
H324 H 0.65706 0.08686 0.2458 0.0
H325 H 0.67767 0.11784 0.27617 0.0
H326 H 0.63208 0.12591 0.26178 0.0
H327 H 0.61261 0.12746 0.3257 0.0
H328 H 0.65759 0.11807 0.34122 0.0
H329 H 0.62203 0.08852 0.35345 0.0
H330 H 0.6558 0.9578 0.30231 0.0
H331 H 0.71895 0.95917 0.3217 0.0
H332 H 0.7129 0.07757 0.32504 0.0
C333 C 0.57285 0.07496 0.2801 0.0
C334 C 0.54459 0.05103 0.27324 0.0
C335 C 0.55079 0.0129 0.27628 0.0
C336 C 0.58508 0.99876 0.28531 0.0
C337 C 0.61248 0.02328 0.29162 0.0
C338 C 0.60651 0.0606 0.28952 0.0
C339 C 0.63952 0.08138 0.29975 0.0
C340 C 0.65234 0.10435 0.26904 0.0
C341 C 0.63256 0.10528 0.33196 0.0
C342 C 0.66536 0.04992 0.30804 0.0
C343 C 0.6494 0.01664 0.30256 0.0
C344 C 0.66829 0.98368 0.30722 0.0
C345 C 0.70409 0.98474 0.31842 0.0
C346 C 0.72049 0.0184 0.32574 0.0
C347 C 0.70096 0.05144 0.31996 0.0
H348 H 0.70545 0.20963 0.52429 0.0
H349 H 0.63578 0.23625 0.43563 0.0
H350 H 0.6419 0.17312 0.41475 0.0
H351 H 0.76527 0.15762 0.47167 0.0
H352 H 0.77784 0.12487 0.5052 0.0
H353 H 0.76359 0.17046 0.51701 0.0
H354 H 0.71487 0.14363 0.55588 0.0
H355 H 0.72871 0.09791 0.5437 0.0
H356 H 0.68292 0.11304 0.53699 0.0
H357 H 0.6501 0.10647 0.40624 0.0
H358 H 0.68091 0.0475 0.39403 0.0
H359 H 0.75425 0.06596 0.48092 0.0
C360 C 0.69079 0.20167 0.50099 0.0
C361 C 0.66879 0.22724 0.48239 0.0
C362 C 0.65158 0.21669 0.451 0.0
C363 C 0.65434 0.1807 0.4392 0.0
C364 C 0.67496 0.15565 0.45866 0.0
C365 C 0.69435 0.16594 0.48793 0.0
C366 C 0.72015 0.13541 0.49961 0.0
C367 C 0.75901 0.14783 0.49827 0.0
C368 C 0.71112 0.12169 0.53622 0.0
C369 C 0.71233 0.10675 0.47202 0.0
C370 C 0.68489 0.11851 0.44987 0.0
C371 C 0.67218 0.097 0.42268 0.0
C372 C 0.68958 0.06345 0.41627 0.0
C373 C 0.72004 0.05246 0.43636 0.0
C374 C 0.73091 0.07384 0.46525 0.0
H375 H 0.06519 0.48764 0.75848 0.0
H376 H 0.062 0.37633 0.72062 0.0
H377 H 0.12023 0.38287 0.69337 0.0
H378 H 0.10635 0.52476 0.68135 0.0
H379 H 0.13329 0.55625 0.70577 0.0
H380 H 0.09114 0.54252 0.72246 0.0
H381 H 0.1232 0.52116 0.77981 0.0
H382 H 0.16555 0.53418 0.76294 0.0
H383 H 0.15962 0.48807 0.77795 0.0
H384 H 0.17898 0.40056 0.67113 0.0
H385 H 0.23174 0.43139 0.64877 0.0
H386 H 0.19749 0.53165 0.7001 0.0
C387 C 0.07669 0.46501 0.74398 0.0
C388 C 0.05875 0.4318 0.74055 0.0
C389 C 0.07472 0.40239 0.72215 0.0
C390 C 0.10808 0.40564 0.70713 0.0
C391 C 0.12528 0.43858 0.71087 0.0
C392 C 0.11004 0.46799 0.72835 0.0
C393 C 0.13392 0.50069 0.72728 0.0
C394 C 0.11505 0.53296 0.70806 0.0
C395 C 0.1463 0.51166 0.7642 0.0
C396 C 0.16468 0.48495 0.70649 0.0
C397 C 0.15936 0.44891 0.69773 0.0
C398 C 0.18365 0.42876 0.6779 0.0
C399 C 0.2137 0.44635 0.66562 0.0
C400 C 0.2188 0.48374 0.67297 0.0
C401 C 0.19436 0.50293 0.69432 0.0
H402 H 0.79485 0.96515 0.9792 0.0
H403 H 0.71374 0.93586 0.90272 0.0
H404 H 0.71904 0.87202 0.92076 0.0
H405 H 0.85017 0.88965 0.96486 0.0
H406 H 0.86446 0.88128 0.00942 0.0
H407 H 0.85053 0.92666 0.99586 0.0
H408 H 0.80335 0.92928 0.04416 0.0
H409 H 0.81742 0.88402 0.05831 0.0
H410 H 0.77123 0.89362 0.04686 0.0
H411 H 0.74031 0.81102 0.93712 0.0
H412 H 0.77346 0.75513 0.95626 0.0
H413 H 0.83813 0.81972 0.02665 0.0
C414 C 0.77732 0.94541 0.96738 0.0
C415 C 0.75316 0.95583 0.93999 0.0
C416 C 0.7317 0.92892 0.92423 0.0
C417 C 0.73464 0.89233 0.93419 0.0
C418 C 0.75928 0.88255 0.96026 0.0
C419 C 0.78001 0.90811 0.97717 0.0
C420 C 0.80658 0.88895 1.00216 0.0
C421 C 0.84522 0.89712 0.99249 0.0
C422 C 0.7992 0.89961 0.04014 0.0
C423 C 0.79817 0.84901 0.99548 0.0
C424 C 0.77077 0.8462 0.9711 0.0
C425 C 0.76102 0.81267 0.9571 0.0
C426 C 0.77998 0.78109 0.96803 0.0
C427 C 0.80776 0.78305 0.9933 0.0
C428 C 0.8164 0.81734 0.00788 0.0
H429 H 0.41486 0.59041 0.26417 0.0
H430 H 0.48121 0.51119 0.20952 0.0
H431 H 0.42676 0.47739 0.19259 0.0
H432 H 0.34976 0.52942 0.29675 0.0
H433 H 0.31282 0.56124 0.28943 0.0
H434 H 0.35677 0.57793 0.29871 0.0
H435 H 0.35445 0.61614 0.24181 0.0
H436 H 0.31018 0.6004 0.23257 0.0
H437 H 0.34462 0.59401 0.20086 0.0
H438 H 0.36493 0.45312 0.18201 0.0
H439 H 0.30093 0.44412 0.1712 0.0
H440 H 0.27519 0.54143 0.23105 0.0
C441 C 0.41817 0.56564 0.249 0.0
C442 C 0.45232 0.55289 0.23862 0.0
C443 C 0.45531 0.52115 0.21787 0.0
C444 C 0.42459 0.50179 0.20841 0.0
C445 C 0.39137 0.51497 0.21965 0.0
C446 C 0.38803 0.54652 0.23903 0.0
C447 C 0.34933 0.5567 0.24572 0.0
C448 C 0.34174 0.55628 0.28499 0.0
C449 C 0.33905 0.59401 0.22925 0.0
C450 C 0.33101 0.52587 0.22699 0.0
C451 C 0.35581 0.50183 0.21258 0.0
C452 C 0.34541 0.47173 0.19323 0.0
C453 C 0.30889 0.4668 0.18739 0.0
C454 C 0.28305 0.49203 0.20041 0.0
C455 C 0.29427 0.52145 0.22123 0.0
H456 H 0.51896 0.14002 0.3339 0.0
H457 H 0.53651 0.23492 0.2694 0.0
H458 H 0.55526 0.2695 0.32214 0.0
H459 H 0.48286 0.18817 0.40661 0.0
H460 H 0.50357 0.15815 0.43889 0.0
H461 H 0.49272 0.14106 0.39602 0.0
H462 H 0.55671 0.11843 0.39142 0.0
H463 H 0.57218 0.13861 0.43167 0.0
H464 H 0.59231 0.15003 0.39079 0.0
H465 H 0.56386 0.2952 0.38179 0.0
H466 H 0.57368 0.30907 0.44351 0.0
H467 H 0.55616 0.19559 0.47055 0.0
C468 C 0.5275 0.1679 0.33095 0.0
C469 C 0.5268 0.185 0.29784 0.0
C470 C 0.53755 0.22145 0.29459 0.0
C471 C 0.54784 0.24122 0.32439 0.0
C472 C 0.54734 0.22385 0.3569 0.0
C473 C 0.53802 0.18783 0.36032 0.0
C474 C 0.53962 0.17565 0.39825 0.0
C475 C 0.50248 0.16514 0.41066 0.0
C476 C 0.56685 0.14385 0.40346 0.0
C477 C 0.55163 0.21055 0.41583 0.0
C478 C 0.55485 0.23813 0.39139 0.0
C479 C 0.56214 0.27371 0.40107 0.0
C480 C 0.56722 0.28133 0.43649 0.0
C481 C 0.56583 0.25339 0.4622 0.0
C482 C 0.55768 0.21745 0.45162 0.0
H483 H 0.05933 0.30051 0.57165 0.0
H484 H 0.08173 0.18632 0.59755 0.0
H485 H 0.05862 0.19617 0.65595 0.0
H486 H 0.08303 0.33785 0.65214 0.0
H487 H 0.04717 0.37164 0.65318 0.0
H488 H 0.06294 0.35501 0.61203 0.0
H489 H 0.99827 0.33682 0.59527 0.0
H490 H 0.98279 0.35285 0.63691 0.0
H491 H 0.97481 0.30658 0.62343 0.0
H492 H 0.04253 0.21966 0.71464 0.0
H493 H 0.02696 0.25495 0.76759 0.0
H494 H 0.0072 0.35141 0.70342 0.0
C495 C 0.05853 0.27744 0.5893 0.0
C496 C 0.07289 0.24279 0.57974 0.0
C497 C 0.07141 0.21336 0.60393 0.0
C498 C 0.05818 0.21853 0.63741 0.0
C499 C 0.04549 0.25309 0.64649 0.0
C500 C 0.04458 0.2819 0.62297 0.0
C501 C 0.03005 0.31643 0.64012 0.0
C502 C 0.05745 0.34701 0.63933 0.0
C503 C 0.99436 0.3289 0.6229 0.0
C504 C 0.02469 0.3027 0.67705 0.0
C505 C 0.03384 0.26609 0.68018 0.0
C506 C 0.03443 0.24819 0.71243 0.0
C507 C 0.02568 0.26838 0.74238 0.0
C508 C 0.01601 0.30586 0.73972 0.0
C509 C 0.01456 0.32278 0.70641 0.0
H510 H 0.00929 0.77538 0.81334 0.0
H511 H 0.92233 0.84925 0.78031 0.0
H512 H 0.89705 0.84594 0.83884 0.0
H513 H 0.95434 0.71863 0.87086 0.0
H514 H 0.99074 0.71202 0.90188 0.0
H515 H 0.99978 0.71803 0.85631 0.0
H516 H 0.04057 0.77184 0.87258 0.0
H517 H 0.0305 0.76699 0.91804 0.0
H518 H 0.02236 0.81025 0.89635 0.0
H519 H 0.88584 0.84153 0.9031 0.0
H520 H 0.88019 0.82278 0.96462 0.0
H521 H 0.97256 0.74985 0.95502 0.0
C522 C 0.98434 0.78995 0.81805 0.0
C523 C 0.96801 0.81271 0.79221 0.0
C524 C 0.93536 0.83141 0.79951 0.0
C525 C 0.92095 0.83012 0.83289 0.0
C526 C 0.93914 0.80951 0.85843 0.0
C527 C 0.96933 0.78865 0.85109 0.0
C528 C 0.98347 0.7684 0.88314 0.0
C529 C 0.98197 0.72681 0.87773 0.0
C530 C 0.02148 0.78008 0.8931 0.0
C531 C 0.95682 0.7816 0.90973 0.0
C532 C 0.93185 0.80583 0.89511 0.0
C533 C 0.90497 0.82222 0.91476 0.0
C534 C 0.90231 0.81187 0.94982 0.0
C535 C 0.92604 0.78503 0.96448 0.0
C536 C 0.95424 0.77062 0.94445 0.0
H537 H 0.46576 0.72474 0.19503 0.0
H538 H 0.52966 0.6254 0.18055 0.0
H539 H 0.5216 0.6306 0.11749 0.0
H540 H 0.40174 0.70438 0.1282 0.0
H541 H 0.39519 0.75062 0.11262 0.0
H542 H 0.40875 0.74229 0.15734 0.0
H543 H 0.46371 0.78271 0.14932 0.0
H544 H 0.45008 0.79115 0.1046 0.0
H545 H 0.49414 0.77257 0.11461 0.0
H546 H 0.50278 0.64148 0.05686 0.0
H547 H 0.4746 0.65968 1.0005 0.0
H548 H 0.42303 0.75257 0.05054 0.0
C549 C 0.47869 0.70471 0.17843 0.0
C550 C 0.49919 0.67512 0.19301 0.0
C551 C 0.5147 0.64884 0.17035 0.0
C552 C 0.51011 0.65137 0.13424 0.0
C553 C 0.48956 0.68027 0.12064 0.0
C554 C 0.47406 0.70666 0.14174 0.0
C555 C 0.4513 0.73338 0.11968 0.0
C556 C 0.41191 0.7326 0.13009 0.0
C557 C 0.46568 0.77226 0.12221 0.0
C558 C 0.45643 0.71744 0.08336 0.0
C559 C 0.4786 0.68677 0.08475 0.0
C560 C 0.48575 0.66579 0.05524 0.0
C561 C 0.46961 0.67627 0.02335 0.0
C562 C 0.4468 0.70756 0.02111 0.0
C563 C 0.44057 0.72869 0.05145 0.0
H564 H 0.12812 0.2915 0.35781 0.0
H565 H 0.10932 0.38345 0.42674 0.0
H566 H 0.11945 0.42611 0.37747 0.0
H567 H 0.20091 0.33107 0.31499 0.0
H568 H 0.19057 0.3107 0.27335 0.0
H569 H 0.17831 0.28822 0.31297 0.0
H570 H 0.11245 0.28735 0.29105 0.0
H571 H 0.12447 0.30988 0.25135 0.0
H572 H 0.09001 0.32957 0.27812 0.0
H573 H 0.13102 0.45809 0.31939 0.0
H574 H 0.15018 0.47692 0.26078 0.0
H575 H 0.1673 0.36311 0.23273 0.0
C576 C 0.12547 0.32065 0.3624 0.0
C577 C 0.11705 0.33439 0.39571 0.0
C578 C 0.1152 0.37257 0.40117 0.0
C579 C 0.12087 0.39686 0.37337 0.0
C580 C 0.1292 0.38231 0.34071 0.0
C581 C 0.13209 0.34502 0.33541 0.0
C582 C 0.14442 0.33604 0.29898 0.0
C583 C 0.1807 0.31529 0.30016 0.0
C584 C 0.11614 0.31444 0.27868 0.0
C585 C 0.14774 0.37412 0.28424 0.0
C586 C 0.1383 0.40049 0.30845 0.0
C587 C 0.13863 0.43764 0.30038 0.0
C588 C 0.14936 0.44806 0.26697 0.0
C589 C 0.16028 0.42146 0.24226 0.0
C590 C 0.15927 0.38405 0.25112 0.0
H591 H 0.9085 0.86721 0.60511 0.0
H592 H 0.93771 0.97642 0.63656 0.0
H593 H 0.90521 0.00208 0.58479 0.0
H594 H 0.9188 0.87947 0.51465 0.0
H595 H 0.88125 0.85235 0.50198 0.0
H596 H 0.90504 0.84282 0.54239 0.0
H597 H 0.84633 0.85029 0.57657 0.0
H598 H 0.82224 0.85917 0.53619 0.0
H599 H 0.81947 0.89163 0.57141 0.0
H600 H 0.87163 0.01515 0.52783 0.0
H601 H 0.83517 0.01484 0.47314 0.0
H602 H 0.82884 0.89709 0.47956 0.0
C603 C 0.90755 0.89657 0.6014 0.0
C604 C 0.92543 0.91993 0.6247 0.0
C605 C 0.92391 0.95816 0.61897 0.0
C606 C 0.90572 0.97292 0.58961 0.0
C607 C 0.88916 0.94898 0.56652 0.0
C608 C 0.88952 0.91167 0.57238 0.0
C609 C 0.87001 0.89174 0.54356 0.0
C610 C 0.8953 0.86503 0.52453 0.0
C611 C 0.83758 0.87206 0.55779 0.0
C612 C 0.85869 0.92361 0.52043 0.0
C613 C 0.87014 0.95642 0.53391 0.0
C614 C 0.86274 0.9896 0.51694 0.0
C615 C 0.84257 0.98919 0.48567 0.0
C616 C 0.83039 0.95587 0.47192 0.0
C617 C 0.83852 0.9228 0.48947 0.0
H618 H 0.37931 0.60241 0.6867 0.0
H619 H 0.26365 0.60971 0.67981 0.0
H620 H 0.2625 0.64586 0.73379 0.0
H621 H 0.38444 0.58691 0.77597 0.0
H622 H 0.42375 0.61309 0.78447 0.0
H623 H 0.41653 0.59297 0.74219 0.0
H624 H 0.42133 0.65642 0.71283 0.0
H625 H 0.42909 0.67673 0.75503 0.0
H626 H 0.39319 0.69399 0.72711 0.0
H627 H 0.27284 0.67453 0.79143 0.0
H628 H 0.29449 0.69677 0.84853 0.0
H629 H 0.40353 0.67013 0.81994 0.0
C630 C 0.35387 0.61263 0.69601 0.0
C631 C 0.32159 0.60395 0.67862 0.0
C632 C 0.28873 0.61683 0.69215 0.0
C633 C 0.28778 0.6372 0.72298 0.0
C634 C 0.31993 0.64433 0.74011 0.0
C635 C 0.35243 0.63275 0.72708 0.0
C636 C 0.38278 0.64155 0.75223 0.0
C637 C 0.40305 0.60654 0.76443 0.0
C638 C 0.40809 0.6688 0.73582 0.0
C639 C 0.36212 0.65898 0.78173 0.0
C640 C 0.32593 0.66052 0.77399 0.0
C641 C 0.30115 0.67387 0.79767 0.0
C642 C 0.31367 0.6862 0.8301 0.0
C643 C 0.35062 0.68504 0.83855 0.0
C644 C 0.37515 0.67139 0.81401 0.0
H645 H 0.57168 0.05032 0.10589 0.0
H646 H 0.59441 0.16546 0.11677 0.0
H647 H 0.62547 0.16394 0.06066 0.0
H648 H 0.6561 0.02336 0.06554 0.0
H649 H 0.63585 0.99084 0.03649 0.0
H650 H 0.6163 1.00052 0.07812 0.0
H651 H 0.55611 0.01715 0.04697 0.0
H652 H 0.5756 0.00794 1.00522 0.0
H653 H 0.55456 0.05186 0.0135 0.0
H654 H 0.6522 0.15108 1.00299 0.0
H655 H 0.67725 0.1268 0.94876 0.0
H656 H 0.63811 0.01929 0.97351 0.0
C657 C 0.5837 0.07503 0.09665 0.0
C658 C 0.58082 0.10805 0.11586 0.0
C659 C 0.59644 0.13989 0.10267 0.0
C660 C 0.61401 0.13932 0.07071 0.0
C661 C 0.61578 0.10666 0.05207 0.0
C662 C 0.60138 0.07496 0.06457 0.0
C663 C 0.60709 0.04363 0.03899 0.0
C664 C 0.63022 0.01276 0.05579 0.0
C665 C 0.5712 0.02931 0.02537 0.0
C666 C 0.62691 0.06277 0.01022 0.0
C667 C 0.6314 0.09916 0.01842 0.0
C668 C 0.64896 0.12261 0.99634 0.0
C669 C 0.66308 0.10847 0.96545 0.0
C670 C 0.65975 0.07106 0.9566 0.0
C671 C 0.64088 0.04806 0.97922 0.0
H672 H 0.67494 0.14092 0.63006 0.0
H673 H 0.58674 0.20654 0.66977 0.0
H674 H 0.59829 0.18115 0.72867 0.0
H675 H 0.65601 0.06045 0.68283 0.0
H676 H 0.70248 0.0476 0.68897 0.0
H677 H 0.68781 0.07196 0.65019 0.0
H678 H 0.73409 0.12162 0.66368 0.0
H679 H 0.74832 0.09779 0.70294 0.0
H680 H 0.73321 0.1449 0.70508 0.0
H681 H 0.62208 0.15174 0.78461 0.0
H682 H 0.64764 0.11018 0.83044 0.0
H683 H 0.71597 0.05889 0.75393 0.0
C684 C 0.65782 0.1495 0.6511 0.0
C685 C 0.62993 0.17575 0.64527 0.0
C686 C 0.60807 0.18627 0.67348 0.0
C687 C 0.61467 0.17229 0.70719 0.0
C688 C 0.64284 0.14716 0.71234 0.0
C689 C 0.66339 0.13496 0.6849 0.0
C690 C 0.69041 0.10584 0.69721 0.0
C691 C 0.68377 0.0693 0.67871 0.0
C692 C 0.72878 0.1183 0.6919 0.0
C693 C 0.68193 0.10378 0.73576 0.0
C694 C 0.65501 0.12851 0.74414 0.0
C695 C 0.64303 0.13209 0.7783 0.0
C696 C 0.65794 0.10873 0.80427 0.0
C697 C 0.68395 0.08173 0.79571 0.0
C698 C 0.69638 0.07967 0.76115 0.0
H699 H 0.16406 0.3692 0.05146 0.0
H700 H 0.12362 0.47376 0.08841 0.0
H701 H 0.08066 0.47699 0.03846 0.0
H702 H 0.16269 0.39066 0.96323 0.0
H703 H 0.14928 0.34625 0.94845 0.0
H704 H 0.17382 0.35054 0.989 0.0
H705 H 0.12387 0.31794 0.02177 0.0
H706 H 0.09932 0.31306 0.98121 0.0
H707 H 0.07848 0.33523 0.01778 0.0
H708 H 0.04671 0.47096 0.98077 0.0
H709 H 0.02157 0.45466 0.92288 0.0
H710 H 0.08436 0.35337 0.92467 0.0
C711 C 0.14568 0.3925 0.04947 0.0
C712 C 0.14679 0.42118 0.07404 0.0
C713 C 0.12261 0.45126 0.07038 0.0
C714 C 0.09837 0.45335 0.04189 0.0
C715 C 0.09861 0.42489 0.01764 0.0
C716 C 0.12136 0.39479 0.02149 0.0
C717 C 0.11761 0.36848 0.9913 0.0
C718 C 0.15295 0.36373 0.97186 0.0
C719 C 0.104 0.33149 1.00377 0.0
C720 C 0.0897 0.38881 0.96926 0.0
C721 C 0.07901 0.42127 0.98487 0.0
C722 C 0.0546 0.44543 0.96857 0.0
C723 C 0.04064 0.43603 0.93565 0.0
C724 C 0.05109 0.40275 0.91947 0.0
C725 C 0.07581 0.37886 0.93658 0.0
H726 H 0.79393 0.89687 0.28549 0.0
H727 H 0.8941 0.95114 0.30461 0.0
H728 H 0.91625 0.92767 0.2482 0.0
H729 H 0.82958 0.81651 0.24435 0.0
H730 H 0.79269 0.81388 0.21363 0.0
H731 H 0.78602 0.83415 0.25581 0.0
H732 H 0.76081 0.89323 0.22586 0.0
H733 H 0.76798 0.87337 0.18354 0.0
H734 H 0.78747 0.91646 0.19458 0.0
H735 H 0.92725 0.89687 0.18943 0.0
H736 H 0.92656 0.86051 0.13489 0.0
H737 H 0.81757 0.83059 0.15418 0.0
C738 C 0.82075 0.90358 0.27822 0.0
C739 C 0.84242 0.92562 0.29971 0.0
C740 C 0.8771 0.9341 0.2887 0.0
C741 C 0.88982 0.92104 0.25664 0.0
C742 C 0.86735 0.89995 0.23583 0.0
C743 C 0.83355 0.89132 0.24631 0.0
C744 C 0.81425 0.86873 0.21927 0.0
C745 C 0.80512 0.83109 0.23415 0.0
C746 C 0.78064 0.88918 0.20497 0.0
C747 C 0.84259 0.86552 0.19193 0.0
C748 C 0.87308 0.88365 0.20184 0.0
C749 C 0.90339 0.8829 0.18131 0.0
C750 C 0.90272 0.86236 0.15036 0.0
C751 C 0.87188 0.8432 0.14024 0.0
C752 C 0.84129 0.84553 0.16097 0.0
H753 H 0.36752 0.62985 0.53567 0.0
H754 H 0.31147 0.53787 0.49209 0.0
H755 H 0.33383 0.55223 0.43367 0.0
H756 H 0.35749 0.69107 0.45784 0.0
H757 H 0.4019 0.7083 0.46303 0.0
H758 H 0.37776 0.69423 0.50076 0.0
H759 H 0.42983 0.64954 0.51845 0.0
H760 H 0.45415 0.66367 0.48101 0.0
H761 H 0.4453 0.61597 0.48748 0.0
H762 H 0.36576 0.5719 0.3822 0.0
H763 H 0.40969 0.59339 0.34035 0.0
H764 H 0.44694 0.67275 0.41557 0.0
C765 C 0.35962 0.61334 0.51355 0.0
C766 C 0.33764 0.58302 0.51785 0.0
C767 C 0.32821 0.5613 0.48887 0.0
C768 C 0.34056 0.56939 0.45568 0.0
C769 C 0.3624 0.59927 0.45204 0.0
C770 C 0.37215 0.62085 0.48009 0.0
C771 C 0.39886 0.64902 0.4693 0.0
C772 C 0.38305 0.68797 0.47295 0.0
C773 C 0.43412 0.64424 0.4903 0.0
C774 C 0.40347 0.63896 0.43121 0.0
C775 C 0.3815 0.61065 0.42179 0.0
C776 C 0.38258 0.59452 0.38897 0.0
C777 C 0.40747 0.60692 0.36538 0.0
C778 C 0.43077 0.63516 0.37468 0.0
C779 C 0.42842 0.65195 0.40767 0.0
H780 H 0.24697 0.15627 0.44231 0.0
H781 H 0.19054 0.2334 0.3735 0.0
H782 H 0.23464 0.22047 0.3276 0.0
H783 H 0.33575 0.18089 0.41618 0.0
H784 H 0.35373 0.13485 0.42007 0.0
H785 H 0.31736 0.1497 0.44706 0.0
H786 H 0.2799 0.09578 0.42453 0.0
H787 H 0.31607 0.08087 0.39732 0.0
H788 H 0.27242 0.09027 0.37825 0.0
H789 H 0.2827 0.19597 0.2881 0.0
H790 H 0.33511 0.16767 0.25995 0.0
H791 H 0.36385 0.11049 0.3561 0.0
C792 C 0.24386 0.17039 0.41754 0.0
C793 C 0.21509 0.19556 0.41127 0.0
C794 C 0.21232 0.21399 0.3788 0.0
C795 C 0.23717 0.2067 0.35257 0.0
C796 C 0.26501 0.18144 0.35948 0.0
C797 C 0.26887 0.16406 0.39139 0.0
C798 C 0.30195 0.13916 0.39262 0.0
C799 C 0.32878 0.15193 0.42064 0.0
C800 C 0.29197 0.09915 0.39853 0.0
C801 C 0.31591 0.1448 0.35621 0.0
C802 C 0.2939 0.16897 0.33743 0.0
C803 C 0.3003 0.17738 0.30272 0.0
C804 C 0.33011 0.16105 0.28693 0.0
C805 C 0.35368 0.1371 0.30592 0.0
C806 C 0.34643 0.1289 0.34105 0.0
H807 H 0.10318 0.07296 0.54409 0.0
H808 H 0.20378 0.09692 0.5959 0.0
H809 H 0.19507 0.04584 0.63725 0.0
H810 H 0.05646 0.05569 0.62011 0.0
H811 H 0.03014 0.01978 0.60153 0.0
H812 H 0.0463 0.05527 0.57393 0.0
H813 H 0.07713 0.00666 0.53484 0.0
H814 H 0.06077 0.97093 0.56214 0.0
H815 H 0.1079 0.97346 0.55431 0.0
H816 H 0.173 0.99421 0.67494 0.0
H817 H 0.13965 0.94707 0.7059 0.0
H818 H 0.05282 0.95948 0.62965 0.0
C819 C 0.12377 0.06698 0.56367 0.0
C820 C 0.15434 0.08848 0.56671 0.0
C821 C 0.18033 0.08042 0.59307 0.0
C822 C 0.17557 0.05154 0.61661 0.0
C823 C 0.14464 0.03129 0.61335 0.0
C824 C 0.11924 0.03868 0.58745 0.0
C825 C 0.08727 0.01468 0.59075 0.0
C826 C 0.05304 0.03774 0.59696 0.0
C827 C 0.08304 0.98996 0.5586 0.0
C828 C 0.0984 0.99279 0.6228 0.0
C829 C 0.13166 0.00247 0.63535 0.0
C830 C 0.14703 0.9863 0.6652 0.0
C831 C 0.12786 0.95957 0.68262 0.0
C832 C 0.09357 0.94956 0.67027 0.0
C833 C 0.07891 0.96645 0.63988 0.0
H834 H 0.13535 0.84195 0.8568 0.0
H835 H 0.17869 0.80276 0.75927 0.0
H836 H 0.23576 0.78654 0.78956 0.0
H837 H 0.21407 0.88176 0.89026 0.0
H838 H 0.20769 0.8681 0.93484 0.0
H839 H 0.16966 0.87524 0.90593 0.0
H840 H 0.14895 0.80964 0.91868 0.0
H841 H 0.18682 0.80237 0.94783 0.0
H842 H 0.17931 0.77134 0.9121 0.0
H843 H 0.28979 0.78008 0.82918 0.0
H844 H 0.3354 0.77848 0.87661 0.0
H845 H 0.25609 0.81708 0.94964 0.0
C846 C 0.15677 0.8296 0.84196 0.0
C847 C 0.15271 0.82366 0.8057 0.0
C848 C 0.18126 0.80748 0.78709 0.0
C849 C 0.21379 0.79825 0.80405 0.0
C850 C 0.2172 0.80496 0.83972 0.0
C851 C 0.18933 0.81978 0.8586 0.0
C852 C 0.20012 0.82432 0.89668 0.0
C853 C 0.19775 0.86476 0.90755 0.0
C854 C 0.17746 0.80049 0.92021 0.0
C855 C 0.23857 0.81035 0.89612 0.0
C856 C 0.24791 0.79951 0.86294 0.0
C857 C 0.28256 0.78771 0.85542 0.0
C858 C 0.30824 0.78665 0.88257 0.0
C859 C 0.29902 0.79648 0.91699 0.0
C860 C 0.26373 0.80866 0.92372 0.0
H861 H 0.46586 0.02499 0.12703 0.0
H862 H 0.41589 0.99524 0.22384 0.0
H863 H 0.39701 0.93728 0.1975 0.0
H864 H 0.39747 0.99044 0.07104 0.0
H865 H 0.42762 0.97436 0.03805 0.0
H866 H 0.43935 0.01253 0.06514 0.0
H867 H 0.49833 0.97885 0.08392 0.0
H868 H 0.48676 0.94052 0.05689 0.0
H869 H 0.49681 0.9337 0.10266 0.0
H870 H 0.38351 0.88263 0.16104 0.0
H871 H 0.37236 0.8368 0.11494 0.0
H872 H 0.42807 0.9034 0.041 0.0
C873 C 0.4512 0.00611 0.14272 0.0
C874 C 0.44238 0.01453 0.17746 0.0
C875 C 0.42275 0.98941 0.19708 0.0
C876 C 0.41209 0.95632 0.18245 0.0
C877 C 0.421 0.94889 0.14809 0.0
C878 C 0.43984 0.97314 0.12833 0.0
C879 C 0.44424 0.95932 0.09141 0.0
C880 C 0.42607 0.98573 0.06485 0.0
C881 C 0.48389 0.9527 0.08326 0.0
C882 C 0.42472 0.92368 0.09354 0.0
C883 C 0.41197 0.91795 0.1266 0.0
C884 C 0.39323 0.88683 0.135 0.0
C885 C 0.38702 0.86101 0.10873 0.0
C886 C 0.39907 0.86689 0.07453 0.0
C887 C 0.41833 0.89846 0.06695 0.0
H888 H 0.84412 0.41021 0.6853 0.0
H889 H 0.91217 0.31655 0.66018 0.0
H890 H 0.86525 0.2936 0.62059 0.0
H891 H 0.76603 0.3641 0.69054 0.0
H892 H 0.73701 0.39875 0.67088 0.0
H893 H 0.77768 0.41155 0.69278 0.0
H894 H 0.79815 0.44425 0.63697 0.0
H895 H 0.75721 0.43204 0.61494 0.0
H896 H 0.79959 0.41954 0.59635 0.0
H897 H 0.80891 0.27549 0.59265 0.0
H898 H 0.74715 0.26593 0.57215 0.0
H899 H 0.71491 0.37228 0.6123 0.0
C900 C 0.84946 0.38553 0.67053 0.0
C901 C 0.88165 0.36511 0.67557 0.0
C902 C 0.88765 0.33256 0.6565 0.0
C903 C 0.8612 0.31936 0.63396 0.0
C904 C 0.82916 0.33929 0.63056 0.0
C905 C 0.82329 0.372 0.64776 0.0
C906 C 0.78537 0.38643 0.64146 0.0
C907 C 0.76536 0.39042 0.67597 0.0
C908 C 0.78507 0.42272 0.62121 0.0
C909 C 0.7705 0.35592 0.61927 0.0
C910 C 0.79638 0.32914 0.61328 0.0
C911 C 0.78859 0.2966 0.59641 0.0
C912 C 0.75343 0.29129 0.5852 0.0
C913 C 0.72659 0.31848 0.59063 0.0
C914 C 0.73524 0.35142 0.60744 0.0
H915 H 0.9233 0.507 0.81192 0.0
H916 H 0.9455 0.41602 0.88248 0.0
H917 H 0.9364 0.45692 0.9329 0.0
H918 H 0.96498 0.5768 0.864 0.0
H919 H 0.93137 0.61137 0.85325 0.0
H920 H 0.94104 0.5752 0.82278 0.0
H921 H 0.87439 0.55799 0.82145 0.0
H922 H 0.86452 0.59408 0.85193 0.0
H923 H 0.85279 0.54778 0.86176 0.0
H924 H 0.92485 0.50788 0.97568 0.0
H925 H 0.9097 0.5648 0.00757 0.0
H926 H 0.89237 0.62177 0.90911 0.0
C927 C 0.92636 0.49577 0.838 0.0
C928 C 0.93565 0.45852 0.84337 0.0
C929 C 0.93899 0.44465 0.87783 0.0
C930 C 0.93374 0.46763 0.90662 0.0
C931 C 0.92469 0.50429 0.90047 0.0
C932 C 0.92081 0.51825 0.86702 0.0
C933 C 0.90994 0.55841 0.86756 0.0
C934 C 0.93854 0.58182 0.85092 0.0
C935 C 0.87323 0.56493 0.84962 0.0
C936 C 0.90822 0.56483 0.90651 0.0
C937 C 0.91705 0.53334 0.92506 0.0
C938 C 0.91774 0.53267 0.96143 0.0
C939 C 0.90909 0.56506 0.97931 0.0
C940 C 0.89966 0.59747 0.96075 0.0
C941 C 0.89924 0.59727 0.92392 0.0
H942 H 0.77093 0.71798 0.11619 0.0
H943 H 0.81845 0.61369 0.08577 0.0
H944 H 0.7674 0.58178 0.1105 0.0
H945 H 0.73304 0.68773 0.19731 0.0
H946 H 0.69327 0.71605 0.19159 0.0
H947 H 0.73462 0.73004 0.17329 0.0
H948 H 0.70366 0.73504 0.11229 0.0
H949 H 0.66235 0.72054 0.1303 0.0
H950 H 0.6816 0.6959 0.0943 0.0
H951 H 0.71057 0.56133 0.13883 0.0
H952 H 0.65297 0.5545 0.16867 0.0
H953 H 0.64182 0.67245 0.17662 0.0
C954 C 0.77093 0.6884 0.11524 0.0
C955 C 0.7988 0.66829 0.09933 0.0
C956 C 0.7974 0.62964 0.09796 0.0
C957 C 0.76851 0.61127 0.11188 0.0
C958 C 0.74108 0.63199 0.12675 0.0
C959 C 0.74209 0.66971 0.12852 0.0
C960 C 0.70877 0.68574 0.14477 0.0
C961 C 0.71798 0.70608 0.17876 0.0
C962 C 0.68787 0.71078 0.11886 0.0
C963 C 0.68886 0.65118 0.15192 0.0
C964 C 0.70794 0.62038 0.14159 0.0
C965 C 0.69529 0.58528 0.1468 0.0
C966 C 0.66256 0.58162 0.16359 0.0
C967 C 0.64286 0.61292 0.17445 0.0
C968 C 0.65604 0.64803 0.16803 0.0
H969 H 0.6123 0.39784 0.41742 0.0
H970 H 0.6016 0.45948 0.5132 0.0
H971 H 0.58418 0.51503 0.47857 0.0
H972 H 0.64877 0.46763 0.36563 0.0
H973 H 0.6247 0.45431 0.3267 0.0
H974 H 0.63638 0.42074 0.35961 0.0
H975 H 0.56981 0.40379 0.36366 0.0
H976 H 0.5579 0.43746 0.33087 0.0
H977 H 0.53679 0.43904 0.37268 0.0
H978 H 0.56888 0.56489 0.43054 0.0
H979 H 0.55749 0.60126 0.37612 0.0
H980 H 0.57635 0.5033 0.31498 0.0
C981 C 0.60651 0.42304 0.43124 0.0
C982 C 0.60863 0.42453 0.46792 0.0
C983 C 0.60036 0.45791 0.485 0.0
C984 C 0.59038 0.48951 0.46553 0.0
C985 C 0.58846 0.48699 0.42914 0.0
C986 C 0.59621 0.45433 0.4124 0.0
C987 C 0.59194 0.45781 0.37335 0.0
C988 C 0.62756 0.44966 0.35528 0.0
C989 C 0.56235 0.43307 0.35933 0.0
C990 C 0.58102 0.49768 0.37035 0.0
C991 C 0.57905 0.51446 0.40254 0.0
C992 C 0.57023 0.55179 0.40529 0.0
C993 C 0.56374 0.57226 0.37435 0.0
C994 C 0.56609 0.55515 0.34134 0.0
C995 C 0.57436 0.51736 0.33974 0.0
H996 H 0.31643 0.31891 0.12148 0.0
H997 H 0.29063 0.33997 0.22954 0.0
H998 H 0.32904 0.28725 0.24801 0.0
H999 H 0.31979 0.21977 0.12729 0.0
H1000 H 0.35707 0.21481 0.09858 0.0
H1001 H 0.3263 0.25322 0.09359 0.0
H1002 H 0.37867 0.29781 0.09963 0.0
H1003 H 0.4096 0.25957 0.10441 0.0
H1004 H 0.40812 0.29463 0.13737 0.0
H1005 H 0.37182 0.23423 0.25494 0.0
H1006 H 0.41804 0.18547 0.24995 0.0
H1007 H 0.41611 0.19829 0.13764 0.0
C1008 C 0.31882 0.31227 0.14898 0.0
C1009 C 0.30064 0.33327 0.17414 0.0
C1010 C 0.30446 0.32409 0.20992 0.0
C1011 C 0.32606 0.29418 0.22063 0.0
C1012 C 0.34362 0.2739 0.19519 0.0
C1013 C 0.34043 0.2826 0.16014 0.0
C1014 C 0.36334 0.25722 0.13829 0.0
C1015 C 0.34024 0.23494 0.11294 0.0
C1016 C 0.39161 0.27859 0.11879 0.0
C1017 C 0.38019 0.23317 0.1666 0.0
C1018 C 0.36817 0.24304 0.19919 0.0
C1019 C 0.3809 0.22574 0.22951 0.0
C1020 C 0.40677 0.19768 0.22643 0.0
C1021 C 0.4193 0.18715 0.19336 0.0
C1022 C 0.40605 0.20527 0.16314 0.0
H1023 H 0.88552 0.28176 0.78834 0.0
H1024 H 0.9288 0.30793 0.89107 0.0
H1025 H 0.89759 0.25613 0.91611 0.0
H1026 H 0.79833 0.25277 0.81783 0.0
H1027 H 0.79559 0.21633 0.78638 0.0
H1028 H 0.81999 0.2567 0.7765 0.0
H1029 H 0.87617 0.21637 0.76428 0.0
H1030 H 0.85204 0.17591 0.77439 0.0
H1031 H 0.89321 0.18517 0.79745 0.0
H1032 H 0.86438 0.2001 0.93004 0.0
H1033 H 0.82875 0.14431 0.93212 0.0
H1034 H 0.80633 0.15388 0.82093 0.0
C1035 C 0.88802 0.27691 0.81617 0.0
C1036 C 0.90967 0.29905 0.83767 0.0
C1037 C 0.9125 0.29144 0.87393 0.0
C1038 C 0.89484 0.26203 0.88849 0.0
C1039 C 0.87432 0.24038 0.86655 0.0
C1040 C 0.87056 0.2475 0.83122 0.0
C1041 C 0.84744 0.2193 0.81347 0.0
C1042 C 0.81331 0.23736 0.79762 0.0
C1043 C 0.86848 0.19793 0.78577 0.0
C1044 C 0.83913 0.19516 0.84432 0.0
C1045 C 0.85493 0.20789 0.87467 0.0
C1046 C 0.85169 0.18995 0.9065 0.0
C1047 C 0.83151 0.15826 0.90742 0.0
C1048 C 0.81484 0.14489 0.87674 0.0
C1049 C 0.81879 0.16358 0.8448 0.0
H1050 H 0.06443 0.53811 0.12067 0.0
H1051 H 0.14598 0.61972 0.12965 0.0
H1052 H 0.10078 0.66824 0.11528 0.0
H1053 H 0.01603 0.58079 0.04743 0.0
H1054 H 0.97291 0.56827 0.06281 0.0
H1055 H 0.01177 0.53995 0.07322 0.0
H1056 H 0.99848 0.54565 0.1391 0.0
H1057 H 0.95961 0.57394 0.12892 0.0
H1058 H 0.99368 0.5904 0.15835 0.0
H1059 H 0.04667 0.70776 0.10166 0.0
H1060 H 0.98693 0.73587 0.08905 0.0
H1061 H 0.94064 0.62863 0.08799 0.0
C1062 C 0.07272 0.56622 0.11961 0.0
C1063 C 0.10856 0.57538 0.12644 0.0
C1064 C 0.11858 0.6123 0.12457 0.0
C1065 C 0.09314 0.63996 0.1164 0.0
C1066 C 0.05795 0.63007 0.10989 0.0
C1067 C 0.04773 0.59409 0.11121 0.0
C1068 C 0.00816 0.59083 0.1032 0.0
C1069 C 1.00186 0.56864 0.06968 0.0
C1070 C 0.98885 0.57423 0.13425 0.0
C1071 C 0.99756 0.6307 0.0979 0.0
C1072 C 0.02677 0.65283 0.10167 0.0
C1073 C 0.02366 0.69072 0.09849 0.0
C1074 C 0.98979 0.70641 0.09139 0.0
C1075 C 0.95968 0.68422 0.08764 0.0
C1076 C 0.96352 0.64596 0.09074 0.0
H1077 H 0.65428 0.86926 0.36974 0.0
H1078 H 0.76082 0.82265 0.35643 0.0
H1079 H 0.73524 0.76565 0.33453 0.0
H1080 H 0.61574 0.78458 0.40022 0.0
H1081 H 0.57329 0.79314 0.37837 0.0
H1082 H 0.59976 0.83089 0.39271 0.0
H1083 H 0.59814 0.85704 0.32983 0.0
H1084 H 0.57176 0.81932 0.31529 0.0
H1085 H 0.61318 0.82866 0.29437 0.0
H1086 H 0.69908 0.71543 0.31079 0.0
H1087 H 0.6536 0.67164 0.29204 0.0
H1088 H 0.56985 0.7475 0.32472 0.0
C1089 C 0.67207 0.84691 0.36236 0.0
C1090 C 0.70949 0.85029 0.36472 0.0
C1091 C 0.73205 0.82054 0.35498 0.0
C1092 C 0.71781 0.78808 0.34237 0.0
C1093 C 0.6809 0.78553 0.34017 0.0
C1094 C 0.65823 0.8138 0.35034 0.0
C1095 C 0.61951 0.80318 0.34604 0.0
C1096 C 0.60099 0.80293 0.38145 0.0
C1097 C 0.59947 0.82856 0.31982 0.0
C1098 C 0.62415 0.76478 0.33159 0.0
C1099 C 0.65983 0.75544 0.32805 0.0
C1100 C 0.67103 0.72217 0.31381 0.0
C1101 C 0.64503 0.69756 0.30312 0.0
C1102 C 0.60833 0.70609 0.30726 0.0
C1103 C 0.59779 0.74011 0.32177 0.0
H1104 H 0.54063 0.35242 0.54946 0.0
H1105 H 0.57609 0.33473 0.65674 0.0
H1106 H 0.52292 0.36942 0.67717 0.0
H1107 H 0.50254 0.44442 0.56111 0.0
H1108 H 0.46597 0.43657 0.531 0.0
H1109 H 0.50821 0.4129 0.52544 0.0
H1110 H 0.4761 0.35102 0.52645 0.0
H1111 H 0.43387 0.37443 0.53271 0.0
H1112 H 0.44935 0.33978 0.56332 0.0
H1113 H 0.46399 0.40336 0.68564 0.0
H1114 H 0.406 0.43735 0.68132 0.0
H1115 H 0.40898 0.43066 0.56846 0.0
C1116 C 0.53754 0.35639 0.57724 0.0
C1117 C 0.5624 0.34101 0.60159 0.0
C1118 C 0.55734 0.34648 0.63771 0.0
C1119 C 0.52719 0.36598 0.64952 0.0
C1120 C 0.5025 0.37976 0.62482 0.0
C1121 C 0.50757 0.37549 0.58942 0.0
C1122 C 0.47665 0.39191 0.56822 0.0
C1123 C 0.48909 0.42332 0.54509 0.0
C1124 C 0.45789 0.36252 0.5464 0.0
C1125 C 0.4532 0.40587 0.5972 0.0
C1126 C 0.46854 0.39868 0.62968 0.0
C1127 C 0.45176 0.40919 0.66035 0.0
C1128 C 0.4188 0.42825 0.65768 0.0
C1129 C 0.40306 0.43634 0.6246 0.0
C1130 C 0.42031 0.42455 0.5941 0.0
H1131 H 0.21255 0.68528 0.64654 0.0
H1132 H 0.14892 0.6378 0.56317 0.0
H1133 H 0.10123 0.68416 0.57282 0.0
H1134 H 0.14169 0.70305 0.70302 0.0
H1135 H 0.15759 0.74591 0.71945 0.0
H1136 H 0.18883 0.71171 0.704 0.0
H1137 H 0.21401 0.75823 0.6606 0.0
H1138 H 0.18311 0.79275 0.67623 0.0
H1139 H 0.18406 0.78202 0.63037 0.0
H1140 H 0.05854 0.73003 0.59486 0.0
H1141 H 0.02311 0.77625 0.62602 0.0
H1142 H 0.11387 0.79714 0.69469 0.0
C1143 C 0.18888 0.68527 0.62985 0.0
C1144 C 0.18435 0.65819 0.60393 0.0
C1145 C 0.15286 0.65844 0.58301 0.0
C1146 C 0.12568 0.68465 0.5883 0.0
C1147 C 0.13052 0.71046 0.61452 0.0
C1148 C 0.16136 0.71133 0.63483 0.0
C1149 C 0.15861 0.74093 0.66252 0.0
C1150 C 0.16187 0.7244 0.69942 0.0
C1151 C 0.18661 0.77023 0.65708 0.0
C1152 C 0.12113 0.75599 0.65491 0.0
C1153 C 0.10562 0.73785 0.6271 0.0
C1154 C 0.07051 0.74485 0.61632 0.0
C1155 C 0.05056 0.77109 0.6344 0.0
C1156 C 0.06575 0.79044 0.66283 0.0
C1157 C 0.10168 0.78304 0.67297 0.0
H1158 H 0.47918 0.85128 0.96292 0.0
H1159 H 0.46122 0.79115 0.86674 0.0
H1160 H 0.51283 0.82043 0.84089 0.0
H1161 H 0.50559 0.93521 0.9225 0.0
H1162 H 0.53906 0.94464 0.95548 0.0
H1163 H 0.50051 0.91901 0.96652 0.0
H1164 H 0.54179 0.86626 0.98997 0.0
H1165 H 0.58048 0.89165 0.97883 0.0
H1166 H 0.57496 0.84615 0.96194 0.0
H1167 H 0.56693 0.85572 0.82533 0.0
H1168 H 0.61846 0.8964 0.82097 0.0
H1169 H 0.60117 0.93345 0.92686 0.0
C1170 C 0.48596 0.84432 0.93639 0.0
C1171 C 0.46598 0.81881 0.91696 0.0
C1172 C 0.47595 0.81056 0.88228 0.0
C1173 C 0.50533 0.82701 0.8673 0.0
C1174 C 0.52457 0.85175 0.88723 0.0
C1175 C 0.51524 0.86052 0.92097 0.0
C1176 C 0.54038 0.88811 0.93668 0.0
C1177 C 0.52017 0.92386 0.94582 0.0
C1178 C 0.5606 0.87207 0.96875 0.0
C1179 C 0.56519 0.89347 0.90647 0.0
C1180 C 0.5557 0.87216 0.87823 0.0
C1181 C 0.57463 0.87255 0.84727 0.0
C1182 C 0.60386 0.89562 0.84503 0.0
C1183 C 0.61373 0.91793 0.87354 0.0
C1184 C 0.59424 0.91659 0.90466 0.0
H1185 H 0.89705 0.09287 0.44698 0.0
H1186 H 0.93397 0.0495 0.34859 0.0
H1187 H 0.99366 0.07486 0.36048 0.0
H1188 H 0.94179 0.17765 0.44011 0.0
H1189 H 0.95136 0.18092 0.48626 0.0
H1190 H 0.91291 0.15674 0.47097 0.0
H1191 H 0.93556 0.09919 0.50522 0.0
H1192 H 0.97439 0.12313 0.52016 0.0
H1193 H 0.97958 0.0804 0.49726 0.0
H1194 H 0.05003 0.10443 0.38409 0.0
H1195 H 0.09441 0.14493 0.41191 0.0
H1196 H 0.01864 0.17331 0.49187 0.0
C1197 C 0.91777 0.0887 0.428 0.0
C1198 C 0.9111 0.06911 0.39696 0.0
C1199 C 0.93861 0.06455 0.37249 0.0
C1200 C 0.97265 0.07855 0.37919 0.0
C1201 C 0.97855 0.09749 0.41026 0.0
C1202 C 0.9516 0.10324 0.43391 0.0
C1203 C 0.96384 0.12711 0.46387 0.0
C1204 C 0.94113 0.16271 0.46537 0.0
C1205 C 0.96331 0.1062 0.49868 0.0
C1206 C 1.00174 0.13428 0.45324 0.0
C1207 C 0.01012 0.11616 0.42275 0.0
C1208 C 0.04371 0.11875 0.40794 0.0
C1209 C 0.06887 0.14151 0.42403 0.0
C1210 C 0.05987 0.16189 0.45405 0.0
C1211 C 0.02617 0.15767 0.46907 0.0
loop_
_geom_bond_atom_site_label_1
_geom_bond_atom_site_label_2
_geom_bond_distance
_geom_bond_site_symmetry_2
_ccdc_geom_bond_type
Dy0 O4 2.398 . S
Dy0 O5 2.491 . S
Dy0 O6 2.403 . S
Dy0 O7 2.664 . S
Dy0 O11 2.326 . S
Dy0 O15 2.310 . S
Dy0 O16 2.351 . S
C1 O12 1.185 . S
C1 O13 1.355 . S
C2 O4 1.185 . S
C2 O5 1.355 . S
Dy3 O7 2.310 . S
Dy3 O10 2.351 . S
Dy3 O12 2.398 . S
Dy3 O13 2.491 . S
Dy3 O14 2.403 . S
Dy3 O15 2.664 . S
Dy3 O17 2.326 . S
O4 Dy0 2.398 . S
O4 C2 1.185 . S
O5 Dy0 2.491 . S
O5 C2 1.355 . S
O6 Dy0 2.403 . S
O6 C8 1.254 . S
O7 Dy0 2.664 . S
O7 Dy3 2.310 . S
O7 C8 1.268 . S
C8 O6 1.254 . S
C8 O7 1.268 . S
C9 O14 1.254 . S
C9 O15 1.268 . S
O10 Dy3 2.351 . S
O10 C18 1.249 . S
O11 Dy0 2.326 . S
O11 C18 1.267 . S
O12 C1 1.185 . S
O12 Dy3 2.398 . S
O13 C1 1.355 . S
O13 Dy3 2.491 . S
O14 Dy3 2.403 . S
O14 C9 1.254 . S
O15 Dy0 2.310 . S
O15 Dy3 2.664 . S
O15 C9 1.268 . S
O16 Dy0 2.351 . S
O16 C19 1.249 . S
O17 Dy3 2.326 . S
O17 C19 1.267 . S
C18 O10 1.249 . S
C18 O11 1.267 . S
C19 O16 1.249 . S
C19 O17 1.267 . S
Dy20 O24 2.398 . S
Dy20 O25 2.491 . S
Dy20 O26 2.403 1_655 S
Dy20 O27 2.664 1_655 S
Dy20 O31 2.326 1_655 S
Dy20 O35 2.310 . S
Dy20 O36 2.351 . S
C21 O32 1.185 . S
C21 O33 1.355 . S
C22 O24 1.185 . S
C22 O25 1.355 . S
Dy23 O27 2.310 . S
Dy23 O30 2.351 . S
Dy23 O32 2.398 . S
Dy23 O33 2.491 . S
Dy23 O34 2.403 . S
Dy23 O35 2.664 1_455 S
Dy23 O37 2.326 . S
O24 Dy20 2.398 . S
O24 C22 1.185 . S
O25 Dy20 2.491 . S
O25 C22 1.355 . S
O26 Dy20 2.403 1_455 S
O26 C28 1.254 . S
O27 Dy20 2.664 1_455 S
O27 Dy23 2.310 . S
O27 C28 1.268 . S
C28 O26 1.254 . S
C28 O27 1.268 . S
C29 O34 1.254 1_655 S
C29 O35 1.268 . S
O30 Dy23 2.351 . S
O30 C38 1.249 . S
O31 Dy20 2.326 1_455 S
O31 C38 1.267 . S
O32 C21 1.185 . S
O32 Dy23 2.398 . S
O33 C21 1.355 . S
O33 Dy23 2.491 . S
O34 Dy23 2.403 . S
O34 C29 1.254 1_455 S
O35 Dy20 2.310 . S
O35 Dy23 2.664 1_655 S
O35 C29 1.268 . S
O36 Dy20 2.351 . S
O36 C39 1.249 1_655 S
O37 Dy23 2.326 . S
O37 C39 1.267 . S
C38 O30 1.249 . S
C38 O31 1.267 . S
C39 O36 1.249 1_455 S
C39 O37 1.267 . S
Dy40 O44 2.398 . S
Dy40 O45 2.491 . S
Dy40 O46 2.403 1_554 S
Dy40 O47 2.664 1_554 S
Dy40 O51 2.326 1_554 S
Dy40 O55 2.310 1_554 S
Dy40 O56 2.351 . S
C41 O52 1.185 . S
C41 O53 1.355 . S
C42 O44 1.185 . S
C42 O45 1.355 . S
Dy43 O47 2.310 . S
Dy43 O50 2.351 . S
Dy43 O52 2.398 . S
Dy43 O53 2.491 . S
Dy43 O54 2.403 . S
Dy43 O55 2.664 . S
Dy43 O57 2.326 . S
O44 Dy40 2.398 . S
O44 C42 1.185 . S
O45 Dy40 2.491 . S
O45 C42 1.355 . S
O46 Dy40 2.403 1_556 S
O46 C48 1.254 . S
O47 Dy40 2.664 1_556 S
O47 Dy43 2.310 . S
O47 C48 1.268 . S
C48 O46 1.254 . S
C48 O47 1.268 . S
C49 O54 1.254 1_554 S
C49 O55 1.268 1_554 S
O50 Dy43 2.351 . S
O50 C58 1.249 . S
O51 Dy40 2.326 1_556 S
O51 C58 1.267 . S
O52 C41 1.185 . S
O52 Dy43 2.398 . S
O53 C41 1.355 . S
O53 Dy43 2.491 . S
O54 Dy43 2.403 . S
O54 C49 1.254 1_556 S
O55 Dy40 2.310 1_556 S
O55 Dy43 2.664 . S
O55 C49 1.268 1_556 S
O56 Dy40 2.351 . S
O56 C59 1.249 1_554 S
O57 Dy43 2.326 . S
O57 C59 1.267 . S
C58 O50 1.249 . S
C58 O51 1.267 . S
C59 O56 1.249 1_556 S
C59 O57 1.267 . S
Dy60 O64 2.398 . S
Dy60 O65 2.491 . S
Dy60 O66 2.403 . S
Dy60 O67 2.664 . S
Dy60 O71 2.326 . S
Dy60 O75 2.310 . S
Dy60 O76 2.351 . S
C61 O72 1.185 . S
C61 O73 1.355 . S
C62 O64 1.185 . S
C62 O65 1.355 . S
Dy63 O67 2.310 . S
Dy63 O70 2.351 . S
Dy63 O72 2.398 . S
Dy63 O73 2.491 . S
Dy63 O74 2.403 . S
Dy63 O75 2.664 . S
Dy63 O77 2.326 . S
O64 Dy60 2.398 . S
O64 C62 1.185 . S
O65 Dy60 2.491 . S
O65 C62 1.355 . S
O66 Dy60 2.403 . S
O66 C68 1.254 . S
O67 Dy60 2.664 . S
O67 Dy63 2.310 . S
O67 C68 1.268 . S
C68 O66 1.254 . S
C68 O67 1.268 . S
C69 O74 1.254 . S
C69 O75 1.268 . S
O70 Dy63 2.351 . S
O70 C78 1.249 . S
O71 Dy60 2.326 . S
O71 C78 1.267 . S
O72 C61 1.185 . S
O72 Dy63 2.398 . S
O73 C61 1.355 . S
O73 Dy63 2.491 . S
O74 Dy63 2.403 . S
O74 C69 1.254 . S
O75 Dy60 2.310 . S
O75 Dy63 2.664 . S
O75 C69 1.268 . S
O76 Dy60 2.351 . S
O76 C79 1.249 . S
O77 Dy63 2.326 . S
O77 C79 1.267 . S
C78 O70 1.249 . S
C78 O71 1.267 . S
C79 O76 1.249 . S
C79 O77 1.267 . S
Dy80 O84 2.398 . S
Dy80 O85 2.491 . S
Dy80 O86 2.403 . S
Dy80 O87 2.664 . S
Dy80 O91 2.326 . S
Dy80 O95 2.310 . S
Dy80 O96 2.351 . S
C81 O92 1.185 . S
C81 O93 1.355 . S
C82 O84 1.185 . S
C82 O85 1.355 . S
Dy83 O87 2.310 . S
Dy83 O90 2.351 . S
Dy83 O92 2.398 . S
Dy83 O93 2.491 . S
Dy83 O94 2.403 . S
Dy83 O95 2.664 . S
Dy83 O97 2.326 . S
O84 Dy80 2.398 . S
O84 C82 1.185 . S
O85 Dy80 2.491 . S
O85 C82 1.355 . S
O86 Dy80 2.403 . S
O86 C88 1.254 . S
O87 Dy80 2.664 . S
O87 Dy83 2.310 . S
O87 C88 1.268 . S
C88 O86 1.254 . S
C88 O87 1.268 . S
C89 O94 1.254 . S
C89 O95 1.268 . S
O90 Dy83 2.351 . S
O90 C98 1.249 . S
O91 Dy80 2.326 . S
O91 C98 1.267 . S
O92 C81 1.185 . S
O92 Dy83 2.398 . S
O93 C81 1.355 . S
O93 Dy83 2.491 . S
O94 Dy83 2.403 . S
O94 C89 1.254 . S
O95 Dy80 2.310 . S
O95 Dy83 2.664 . S
O95 C89 1.268 . S
O96 Dy80 2.351 . S
O96 C99 1.249 . S
O97 Dy83 2.326 . S
O97 C99 1.267 . S
C98 O90 1.249 . S
C98 O91 1.267 . S
C99 O96 1.249 . S
C99 O97 1.267 . S
Dy100 O104 2.398 . S
Dy100 O105 2.491 . S
Dy100 O106 2.403 . S
Dy100 O107 2.664 . S
Dy100 O111 2.326 . S
Dy100 O115 2.310 . S
Dy100 O116 2.351 1_655 S
C101 O112 1.185 . S
C101 O113 1.355 . S
C102 O104 1.185 . S
C102 O105 1.355 . S
Dy103 O107 2.310 1_455 S
Dy103 O110 2.351 1_455 S
Dy103 O112 2.398 . S
Dy103 O113 2.491 . S
Dy103 O114 2.403 . S
Dy103 O115 2.664 1_455 S
Dy103 O117 2.326 . S
O104 Dy100 2.398 . S
O104 C102 1.185 . S
O105 Dy100 2.491 . S
O105 C102 1.355 . S
O106 Dy100 2.403 . S
O106 C108 1.254 . S
O107 Dy100 2.664 . S
O107 Dy103 2.310 1_655 S
O107 C108 1.268 . S
C108 O106 1.254 . S
C108 O107 1.268 . S
C109 O114 1.254 . S
C109 O115 1.268 1_455 S
O110 Dy103 2.351 1_655 S
O110 C118 1.249 . S
O111 Dy100 2.326 . S
O111 C118 1.267 . S
O112 C101 1.185 . S
O112 Dy103 2.398 . S
O113 C101 1.355 . S
O113 Dy103 2.491 . S
O114 Dy103 2.403 . S
O114 C109 1.254 . S
O115 Dy100 2.310 . S
O115 Dy103 2.664 1_655 S
O115 C109 1.268 1_655 S
O116 Dy100 2.351 1_455 S
O116 C119 1.249 . S
O117 Dy103 2.326 . S
O117 C119 1.267 . S
C118 O110 1.249 . S
C118 O111 1.267 . S
C119 O116 1.249 . S
C119 O117 1.267 . S
Dy120 O124 2.398 . S
Dy120 O125 2.491 . S
Dy120 O126 2.403 . S
Dy120 O127 2.664 . S
Dy120 O131 2.326 . S
Dy120 O135 2.310 . S
Dy120 O136 2.351 . S
C121 O132 1.185 . S
C121 O133 1.355 . S
C122 O124 1.185 . S
C122 O125 1.355 . S
Dy123 O127 2.310 . S
Dy123 O130 2.351 . S
Dy123 O132 2.398 1_554 S
Dy123 O133 2.491 1_554 S
Dy123 O134 2.403 1_554 S
Dy123 O135 2.664 . S
Dy123 O137 2.326 1_554 S
O124 Dy120 2.398 . S
O124 C122 1.185 . S
O125 Dy120 2.491 . S
O125 C122 1.355 . S
O126 Dy120 2.403 . S
O126 C128 1.254 . S
O127 Dy120 2.664 . S
O127 Dy123 2.310 . S
O127 C128 1.268 . S
C128 O126 1.254 . S
C128 O127 1.268 . S
C129 O134 1.250 1_554 S
C129 O135 1.273 . S
O130 Dy123 2.351 . S
O130 C138 1.249 . S
O131 Dy120 2.326 . S
O131 C138 1.267 . S
O132 C121 1.185 . S
O132 Dy123 2.398 1_556 S
O133 C121 1.355 . S
O133 Dy123 2.491 1_556 S
O134 Dy123 2.403 1_556 S
O134 C129 1.250 1_556 S
O135 Dy120 2.310 . S
O135 Dy123 2.664 . S
O135 C129 1.273 . S
O136 Dy120 2.351 . S
O136 C139 1.249 1_554 S
O137 Dy123 2.326 1_556 S
O137 C139 1.267 . S
C138 O130 1.249 . S
C138 O131 1.267 . S
C139 O136 1.249 1_556 S
C139 O137 1.267 . S
Dy140 O144 2.398 . S
Dy140 O145 2.491 . S
Dy140 O146 2.403 . S
Dy140 O147 2.664 . S
Dy140 O151 2.326 . S
Dy140 O155 2.310 . S
Dy140 O156 2.351 . S
C141 O152 1.185 . S
C141 O153 1.355 . S
C142 O144 1.185 . S
C142 O145 1.355 . S
Dy143 O147 2.310 . S
Dy143 O150 2.351 . S
Dy143 O152 2.398 . S
Dy143 O153 2.491 . S
Dy143 O154 2.403 . S
Dy143 O155 2.664 . S
Dy143 O157 2.326 . S
O144 Dy140 2.398 . S
O144 C142 1.185 . S
O145 Dy140 2.491 . S
O145 C142 1.355 . S
O146 Dy140 2.403 . S
O146 C148 1.254 . S
O147 Dy140 2.664 . S
O147 Dy143 2.310 . S
O147 C148 1.268 . S
C148 O146 1.254 . S
C148 O147 1.268 . S
C149 O154 1.254 . S
C149 O155 1.268 . S
O150 Dy143 2.351 . S
O150 C158 1.249 . S
O151 Dy140 2.326 . S
O151 C158 1.267 . S
O152 C141 1.185 . S
O152 Dy143 2.398 . S
O153 C141 1.355 . S
O153 Dy143 2.491 . S
O154 Dy143 2.403 . S
O154 C149 1.254 . S
O155 Dy140 2.310 . S
O155 Dy143 2.664 . S
O155 C149 1.268 . S
O156 Dy140 2.351 . S
O156 C159 1.249 . S
O157 Dy143 2.326 . S
O157 C159 1.267 . S
C158 O150 1.249 . S
C158 O151 1.267 . S
C159 O156 1.249 . S
C159 O157 1.267 . S
Dy160 O164 2.398 . S
Dy160 O165 2.491 . S
Dy160 O166 2.403 . S
Dy160 O167 2.664 . S
Dy160 O171 2.326 . S
Dy160 O175 2.310 . S
Dy160 O176 2.351 . S
C161 O172 1.185 . S
C161 O173 1.355 . S
C162 O164 1.185 . S
C162 O165 1.355 . S
Dy163 O167 2.310 . S
Dy163 O170 2.351 . S
Dy163 O172 2.398 . S
Dy163 O173 2.491 . S
Dy163 O174 2.403 . S
Dy163 O175 2.664 . S
Dy163 O177 2.326 . S
O164 Dy160 2.398 . S
O164 C162 1.185 . S
O165 Dy160 2.491 . S
O165 C162 1.355 . S
O166 Dy160 2.403 . S
O166 C168 1.254 . S
O167 Dy160 2.664 . S
O167 Dy163 2.310 . S
O167 C168 1.268 . S
C168 O166 1.254 . S
C168 O167 1.268 . S
C169 O174 1.254 . S
C169 O175 1.268 . S
O170 Dy163 2.351 . S
O170 C178 1.249 . S
O171 Dy160 2.326 . S
O171 C178 1.267 . S
O172 C161 1.185 . S
O172 Dy163 2.398 . S
O173 C161 1.355 . S
O173 Dy163 2.491 . S
O174 Dy163 2.403 . S
O174 C169 1.254 . S
O175 Dy160 2.310 . S
O175 Dy163 2.664 . S
O175 C169 1.268 . S
O176 Dy160 2.351 . S
O176 C179 1.249 . S
O177 Dy163 2.326 . S
O177 C179 1.267 . S
C178 O170 1.249 . S
C178 O171 1.267 . S
C179 O176 1.249 . S
C179 O177 1.267 . S
Dy180 O184 2.398 . S
Dy180 O185 2.491 . S
Dy180 O186 2.403 1_565 S
Dy180 O187 2.664 1_565 S
Dy180 O191 2.326 1_565 S
Dy180 O195 2.310 1_565 S
Dy180 O196 2.351 . S
C181 O192 1.185 . S
C181 O193 1.355 . S
C182 O184 1.185 . S
C182 O185 1.355 . S
Dy183 O187 2.310 . S
Dy183 O190 2.351 . S
Dy183 O192 2.398 . S
Dy183 O193 2.491 . S
Dy183 O194 2.403 . S
Dy183 O195 2.664 . S
Dy183 O197 2.326 . S
O184 Dy180 2.398 . S
O184 C182 1.185 . S
O185 Dy180 2.491 . S
O185 C182 1.355 . S
O186 Dy180 2.403 1_545 S
O186 C188 1.254 . S
O187 Dy180 2.664 1_545 S
O187 Dy183 2.310 . S
O187 C188 1.268 . S
C188 O186 1.254 . S
C188 O187 1.268 . S
C189 O194 1.254 1_565 S
C189 O195 1.268 1_565 S
O190 Dy183 2.351 . S
O190 C198 1.249 . S
O191 Dy180 2.326 1_545 S
O191 C198 1.267 . S
O192 C181 1.185 . S
O192 Dy183 2.398 . S
O193 C181 1.355 . S
O193 Dy183 2.491 . S
O194 Dy183 2.403 . S
O194 C189 1.254 1_545 S
O195 Dy180 2.310 1_545 S
O195 Dy183 2.664 . S
O195 C189 1.268 1_545 S
O196 Dy180 2.351 . S
O196 C199 1.249 1_565 S
O197 Dy183 2.326 . S
O197 C199 1.267 . S
C198 O190 1.249 . S
C198 O191 1.267 . S
C199 O196 1.249 1_545 S
C199 O197 1.267 . S
Dy200 O204 2.398 . S
Dy200 O205 2.491 . S
Dy200 O206 2.403 . S
Dy200 O207 2.664 . S
Dy200 O211 2.326 . S
Dy200 O215 2.310 . S
Dy200 O216 2.349 . S
C201 O212 1.185 . S
C201 O213 1.355 . S
C202 O204 1.185 . S
C202 O205 1.355 . S
Dy203 O207 2.310 1_545 S
Dy203 O210 2.351 1_545 S
Dy203 O212 2.398 . S
Dy203 O213 2.491 . S
Dy203 O214 2.403 . S
Dy203 O215 2.664 1_545 S
Dy203 O217 2.326 . S
O204 Dy200 2.398 . S
O204 C202 1.185 . S
O205 Dy200 2.491 . S
O205 C202 1.355 . S
O206 Dy200 2.403 . S
O206 C208 1.254 . S
O207 Dy200 2.664 . S
O207 Dy203 2.310 1_565 S
O207 C208 1.268 . S
C208 O206 1.254 . S
C208 O207 1.268 . S
C209 O214 1.254 . S
C209 O215 1.268 1_545 S
O210 Dy203 2.351 1_565 S
O210 C218 1.249 . S
O211 Dy200 2.326 . S
O211 C218 1.267 . S
O212 C201 1.185 . S
O212 Dy203 2.398 . S
O213 C201 1.355 . S
O213 Dy203 2.491 . S
O214 Dy203 2.403 . S
O214 C209 1.254 . S
O215 Dy200 2.310 . S
O215 Dy203 2.664 1_565 S
O215 C209 1.268 1_565 S
O216 Dy200 2.349 . S
O216 C219 1.251 1_565 S
O217 Dy203 2.326 . S
O217 C219 1.267 . S
C218 O210 1.249 . S
C218 O211 1.267 . S
C219 O216 1.251 1_545 S
C219 O217 1.267 . S
Dy220 O224 2.398 . S
Dy220 O225 2.491 . S
Dy220 O226 2.403 . S
Dy220 O227 2.664 . S
Dy220 O231 2.326 . S
Dy220 O235 2.310 . S
Dy220 O236 2.351 . S
C221 O232 1.185 . S
C221 O233 1.355 . S
C222 O224 1.185 . S
C222 O225 1.355 . S
Dy223 O227 2.310 . S
Dy223 O230 2.351 . S
Dy223 O232 2.398 . S
Dy223 O233 2.491 . S
Dy223 O234 2.403 . S
Dy223 O235 2.664 . S
Dy223 O237 2.326 . S
O224 Dy220 2.398 . S
O224 C222 1.185 . S
O225 Dy220 2.491 . S
O225 C222 1.355 . S
O226 Dy220 2.403 . S
O226 C228 1.254 . S
O227 Dy220 2.664 . S
O227 Dy223 2.310 . S
O227 C228 1.268 . S
C228 O226 1.254 . S
C228 O227 1.268 . S
C229 O234 1.254 . S
C229 O235 1.268 . S
O230 Dy223 2.351 . S
O230 C238 1.249 . S
O231 Dy220 2.326 . S
O231 C238 1.267 . S
O232 C221 1.185 . S
O232 Dy223 2.398 . S
O233 C221 1.355 . S
O233 Dy223 2.491 . S
O234 Dy223 2.403 . S
O234 C229 1.254 . S
O235 Dy220 2.310 . S
O235 Dy223 2.664 . S
O235 C229 1.268 . S
O236 Dy220 2.351 . S
O236 C239 1.249 . S
O237 Dy223 2.326 . S
O237 C239 1.267 . S
C238 O230 1.249 . S
C238 O231 1.267 . S
C239 O236 1.249 . S
C239 O237 1.267 . S
H240 C252 0.930 . S
H241 C254 0.930 . S
H242 C255 0.930 . S
H243 C259 0.959 . S
H244 C259 0.959 . S
H245 C259 0.961 . S
H246 C260 0.960 . S
H247 C260 0.961 . S
H248 C260 0.959 . S
H249 C263 0.929 . S
H250 C264 0.931 . S
H251 C266 0.930 . S
C252 H240 0.930 . S
C252 C253 1.399 . S
C252 C257 1.399 . S
C253 C252 1.399 . S
C253 C254 1.376 . S
C254 H241 0.930 . S
C254 C253 1.376 . S
C254 C255 1.388 . S
C255 H242 0.930 . S
C255 C254 1.388 . S
C255 C256 1.390 . S
C256 C255 1.390 . S
C256 C257 1.394 . S
C256 C262 1.465 . S
C257 C252 1.399 . S
C257 C256 1.394 . S
C257 C258 1.516 . S
C258 C257 1.516 . S
C258 C259 1.502 . S
C258 C260 1.561 . S
C258 C261 1.526 . S
C259 H243 0.959 . S
C259 H244 0.959 . S
C259 H245 0.961 . S
C259 C258 1.502 . S
C260 H246 0.960 . S
C260 H247 0.961 . S
C260 H248 0.959 . S
C260 C258 1.561 . S
C261 C258 1.526 . S
C261 C262 1.396 . S
C261 C266 1.390 . S
C262 C256 1.465 . S
C262 C261 1.396 . S
C262 C263 1.399 . S
C263 H249 0.929 . S
C263 C262 1.399 . S
C263 C264 1.385 . S
C264 H250 0.931 . S
C264 C263 1.385 . S
C264 C265 1.389 . S
C265 C264 1.389 . S
C265 C266 1.387 . S
C266 H251 0.930 . S
C266 C261 1.390 . S
C266 C265 1.387 . S
H267 C279 0.930 . S
H268 C281 0.930 1_545 S
H269 C282 0.930 . S
H270 C286 0.959 . S
H271 C286 0.959 . S
H272 C286 0.961 . S
H273 C287 0.960 . S
H274 C287 0.961 . S
H275 C287 0.959 . S
H276 C290 0.929 . S
H277 C291 0.931 . S
H278 C293 0.930 . S
C279 H267 0.930 . S
C279 C280 1.393 1_565 S
C279 C284 1.399 . S
C280 C279 1.393 1_545 S
C280 C281 1.375 1_545 S
C281 H268 0.930 1_565 S
C281 C280 1.375 1_565 S
C281 C282 1.388 . S
C282 H269 0.930 . S
C282 C281 1.388 . S
C282 C283 1.390 . S
C283 C282 1.390 . S
C283 C284 1.394 . S
C283 C289 1.465 . S
C284 C279 1.399 . S
C284 C283 1.394 . S
C284 C285 1.516 . S
C285 C284 1.516 . S
C285 C286 1.502 . S
C285 C287 1.561 1_565 S
C285 C288 1.526 . S
C286 H270 0.959 . S
C286 H271 0.959 . S
C286 H272 0.961 . S
C286 C285 1.502 . S
C287 H273 0.960 . S
C287 H274 0.961 . S
C287 H275 0.959 . S
C287 C285 1.561 1_545 S
C288 C285 1.526 . S
C288 C289 1.396 . S
C288 C293 1.390 . S
C289 C283 1.465 . S
C289 C288 1.396 . S
C289 C290 1.399 . S
C290 H276 0.929 . S
C290 C289 1.399 . S
C290 C291 1.385 . S
C291 H277 0.931 . S
C291 C290 1.385 . S
C291 C292 1.389 . S
C292 C291 1.389 . S
C292 C293 1.387 . S
C293 H278 0.930 . S
C293 C288 1.390 . S
C293 C292 1.387 . S
H294 C306 0.930 . S
H295 C308 0.930 . S
H296 C309 0.930 . S
H297 C313 0.959 . S
H298 C313 0.959 . S
H299 C313 0.961 . S
H300 C314 0.960 . S
H301 C314 0.961 . S
H302 C314 0.959 1_554 S
H303 C317 0.929 . S
H304 C318 0.931 . S
H305 C320 0.930 . S
C306 H294 0.930 . S
C306 C307 1.399 . S
C306 C311 1.401 . S
C307 C306 1.399 . S
C307 C308 1.376 1_556 S
C308 H295 0.930 . S
C308 C307 1.376 1_554 S
C308 C309 1.388 . S
C309 H296 0.930 . S
C309 C308 1.388 . S
C309 C310 1.390 . S
C310 C309 1.390 . S
C310 C311 1.390 1_554 S
C310 C316 1.465 . S
C311 C306 1.401 . S
C311 C310 1.390 1_556 S
C311 C312 1.517 . S
C312 C311 1.517 . S
C312 C313 1.502 . S
C312 C314 1.561 . S
C312 C315 1.526 1_556 S
C313 H297 0.959 . S
C313 H298 0.959 . S
C313 H299 0.961 . S
C313 C312 1.502 . S
C314 H300 0.960 . S
C314 H301 0.961 . S
C314 H302 0.959 1_556 S
C314 C312 1.561 . S
C315 C312 1.526 1_554 S
C315 C316 1.396 . S
C315 C320 1.390 . S
C316 C310 1.465 . S
C316 C315 1.396 . S
C316 C317 1.399 . S
C317 H303 0.929 . S
C317 C316 1.399 . S
C317 C318 1.385 . S
C318 H304 0.931 . S
C318 C317 1.385 . S
C318 C319 1.389 . S
C319 C318 1.389 . S
C319 C320 1.387 . S
C320 H305 0.930 . S
C320 C315 1.390 . S
C320 C319 1.387 . S
H321 C333 0.930 . S
H322 C335 0.930 . S
H323 C336 0.930 1_565 S
H324 C340 0.959 . S
H325 C340 0.959 . S
H326 C340 0.961 . S
H327 C341 0.960 . S
H328 C341 0.961 . S
H329 C341 0.959 . S
H330 C344 0.929 . S
H331 C345 0.931 . S
H332 C347 0.930 . S
C333 H321 0.930 . S
C333 C334 1.399 . S
C333 C338 1.399 . S
C334 C333 1.399 . S
C334 C335 1.376 . S
C335 H322 0.930 . S
C335 C334 1.376 . S
C335 C336 1.388 . S
C336 H323 0.930 1_545 S
C336 C335 1.388 . S
C336 C337 1.390 . S
C337 C336 1.390 . S
C337 C338 1.394 . S
C337 C343 1.465 . S
C338 C333 1.399 . S
C338 C337 1.394 . S
C338 C339 1.516 . S
C339 C338 1.516 . S
C339 C340 1.502 . S
C339 C341 1.561 . S
C339 C342 1.526 . S
C340 H324 0.959 . S
C340 H325 0.959 . S
C340 H326 0.961 . S
C340 C339 1.502 . S
C341 H327 0.960 . S
C341 H328 0.961 . S
C341 H329 0.959 . S
C341 C339 1.561 . S
C342 C339 1.526 . S
C342 C343 1.396 . S
C342 C347 1.390 . S
C343 C337 1.465 . S
C343 C342 1.396 . S
C343 C344 1.399 1_545 S
C344 H330 0.929 . S
C344 C343 1.399 1_565 S
C344 C345 1.385 . S
C345 H331 0.931 . S
C345 C344 1.385 . S
C345 C346 1.389 1_565 S
C346 C345 1.389 1_545 S
C346 C347 1.387 . S
C347 H332 0.930 . S
C347 C342 1.390 . S
C347 C346 1.387 . S
H348 C360 0.930 . S
H349 C362 0.930 . S
H350 C363 0.930 . S
H351 C367 0.959 . S
H352 C367 0.959 . S
H353 C367 0.961 . S
H354 C368 0.960 . S
H355 C368 0.961 . S
H356 C368 0.959 . S
H357 C371 0.929 . S
H358 C372 0.931 . S
H359 C374 0.930 . S
C360 H348 0.930 . S
C360 C361 1.399 . S
C360 C365 1.399 . S
C361 C360 1.399 . S
C361 C362 1.376 . S
C362 H349 0.930 . S
C362 C361 1.376 . S
C362 C363 1.388 . S
C363 H350 0.930 . S
C363 C362 1.388 . S
C363 C364 1.390 . S
C364 C363 1.390 . S
C364 C365 1.394 . S
C364 C370 1.465 . S
C365 C360 1.399 . S
C365 C364 1.394 . S
C365 C366 1.516 . S
C366 C365 1.516 . S
C366 C367 1.502 . S
C366 C368 1.561 . S
C366 C369 1.526 . S
C367 H351 0.959 . S
C367 H352 0.959 . S
C367 H353 0.961 . S
C367 C366 1.502 . S
C368 H354 0.960 . S
C368 H355 0.961 . S
C368 H356 0.959 . S
C368 C366 1.561 . S
C369 C366 1.526 . S
C369 C370 1.396 . S
C369 C374 1.390 . S
C370 C364 1.465 . S
C370 C369 1.396 . S
C370 C371 1.399 . S
C371 H357 0.929 . S
C371 C370 1.399 . S
C371 C372 1.385 . S
C372 H358 0.931 . S
C372 C371 1.385 . S
C372 C373 1.389 . S
C373 C372 1.389 . S
C373 C374 1.387 . S
C374 H359 0.930 . S
C374 C369 1.390 . S
C374 C373 1.387 . S
H375 C387 0.930 . S
H376 C389 0.930 . S
H377 C390 0.930 . S
H378 C394 0.959 . S
H379 C394 0.959 . S
H380 C394 0.961 . S
H381 C395 0.960 . S
H382 C395 0.961 . S
H383 C395 0.959 . S
H384 C398 0.929 . S
H385 C399 0.931 . S
H386 C401 0.930 . S
C387 H375 0.930 . S
C387 C388 1.399 . S
C387 C392 1.399 . S
C388 C387 1.399 . S
C388 C389 1.376 . S
C389 H376 0.930 . S
C389 C388 1.376 . S
C389 C390 1.388 . S
C390 H377 0.930 . S
C390 C389 1.388 . S
C390 C391 1.390 . S
C391 C390 1.390 . S
C391 C392 1.394 . S
C391 C397 1.465 . S
C392 C387 1.399 . S
C392 C391 1.394 . S
C392 C393 1.516 . S
C393 C392 1.516 . S
C393 C394 1.502 . S
C393 C395 1.561 . S
C393 C396 1.526 . S
C394 H378 0.959 . S
C394 H379 0.959 . S
C394 H380 0.961 . S
C394 C393 1.502 . S
C395 H381 0.960 . S
C395 H382 0.961 . S
C395 H383 0.959 . S
C395 C393 1.561 . S
C396 C393 1.526 . S
C396 C397 1.396 . S
C396 C401 1.390 . S
C397 C391 1.465 . S
C397 C396 1.396 . S
C397 C398 1.399 . S
C398 H384 0.929 . S
C398 C397 1.399 . S
C398 C399 1.385 . S
C399 H385 0.931 . S
C399 C398 1.385 . S
C399 C400 1.389 . S
C400 C399 1.389 . S
C400 C401 1.387 . S
C401 H386 0.930 . S
C401 C396 1.390 . S
C401 C400 1.387 . S
H402 C414 0.930 . S
H403 C416 0.930 . S
H404 C417 0.930 . S
H405 C421 0.959 . S
H406 C421 0.959 1_554 S
H407 C421 0.961 . S
H408 C422 0.960 . S
H409 C422 0.961 . S
H410 C422 0.959 . S
H411 C425 0.929 . S
H412 C426 0.931 . S
H413 C428 0.910 1_554 S
C414 H402 0.930 . S
C414 C415 1.399 . S
C414 C419 1.399 . S
C415 C414 1.399 . S
C415 C416 1.376 . S
C416 H403 0.930 . S
C416 C415 1.376 . S
C416 C417 1.388 . S
C417 H404 0.930 . S
C417 C416 1.388 . S
C417 C418 1.390 . S
C418 C417 1.390 . S
C418 C419 1.394 . S
C418 C424 1.465 . S
C419 C414 1.399 . S
C419 C418 1.394 . S
C419 C420 1.516 . S
C420 C419 1.516 . S
C420 C421 1.502 . S
C420 C422 1.561 1_556 S
C420 C423 1.526 . S
C421 H405 0.959 . S
C421 H406 0.959 1_556 S
C421 H407 0.961 . S
C421 C420 1.502 . S
C422 H408 0.960 . S
C422 H409 0.961 . S
C422 H410 0.959 . S
C422 C420 1.561 1_554 S
C423 C420 1.526 . S
C423 C424 1.396 . S
C423 C428 1.401 . S
C424 C418 1.465 . S
C424 C423 1.396 . S
C424 C425 1.399 . S
C425 H411 0.929 . S
C425 C424 1.399 . S
C425 C426 1.385 . S
C426 H412 0.931 . S
C426 C425 1.385 . S
C426 C427 1.389 . S
C427 C426 1.389 . S
C427 C428 1.395 . S
C428 H413 0.910 1_556 S
C428 C423 1.401 . S
C428 C427 1.395 . S
H429 C441 0.930 . S
H430 C443 0.930 . S
H431 C444 0.930 . S
H432 C448 0.959 . S
H433 C448 0.959 . S
H434 C448 0.961 . S
H435 C449 0.960 . S
H436 C449 0.961 . S
H437 C449 0.959 . S
H438 C452 0.929 . S
H439 C453 0.931 . S
H440 C455 0.930 . S
C441 H429 0.930 . S
C441 C442 1.399 . S
C441 C446 1.399 . S
C442 C441 1.399 . S
C442 C443 1.376 . S
C443 H430 0.930 . S
C443 C442 1.376 . S
C443 C444 1.388 . S
C444 H431 0.930 . S
C444 C443 1.388 . S
C444 C445 1.390 . S
C445 C444 1.390 . S
C445 C446 1.394 . S
C445 C451 1.465 . S
C446 C441 1.399 . S
C446 C445 1.394 . S
C446 C447 1.516 . S
C447 C446 1.516 . S
C447 C448 1.502 . S
C447 C449 1.561 . S
C447 C450 1.526 . S
C448 H432 0.959 . S
C448 H433 0.959 . S
C448 H434 0.961 . S
C448 C447 1.502 . S
C449 H435 0.960 . S
C449 H436 0.961 . S
C449 H437 0.959 . S
C449 C447 1.561 . S
C450 C447 1.526 . S
C450 C451 1.396 . S
C450 C455 1.390 . S
C451 C445 1.465 . S
C451 C450 1.396 . S
C451 C452 1.399 . S
C452 H438 0.929 . S
C452 C451 1.399 . S
C452 C453 1.385 . S
C453 H439 0.931 . S
C453 C452 1.385 . S
C453 C454 1.389 . S
C454 C453 1.389 . S
C454 C455 1.387 . S
C455 H440 0.930 . S
C455 C450 1.390 . S
C455 C454 1.387 . S
H456 C468 0.930 . S
H457 C470 0.930 . S
H458 C471 0.930 . S
H459 C475 0.959 . S
H460 C475 0.959 . S
H461 C475 0.961 . S
H462 C476 0.960 . S
H463 C476 0.961 . S
H464 C476 0.959 . S
H465 C479 0.929 . S
H466 C480 0.931 . S
H467 C482 0.930 . S
C468 H456 0.930 . S
C468 C469 1.399 . S
C468 C473 1.399 . S
C469 C468 1.399 . S
C469 C470 1.376 . S
C470 H457 0.930 . S
C470 C469 1.376 . S
C470 C471 1.388 . S
C471 H458 0.930 . S
C471 C470 1.388 . S
C471 C472 1.390 . S
C472 C471 1.390 . S
C472 C473 1.394 . S
C472 C478 1.465 . S
C473 C468 1.399 . S
C473 C472 1.394 . S
C473 C474 1.516 . S
C474 C473 1.516 . S
C474 C475 1.502 . S
C474 C476 1.561 . S
C474 C477 1.526 . S
C475 H459 0.959 . S
C475 H460 0.959 . S
C475 H461 0.961 . S
C475 C474 1.502 . S
C476 H462 0.960 . S
C476 H463 0.961 . S
C476 H464 0.959 . S
C476 C474 1.561 . S
C477 C474 1.526 . S
C477 C478 1.396 . S
C477 C482 1.390 . S
C478 C472 1.465 . S
C478 C477 1.396 . S
C478 C479 1.399 . S
C479 H465 0.929 . S
C479 C478 1.399 . S
C479 C480 1.385 . S
C480 H466 0.931 . S
C480 C479 1.385 . S
C480 C481 1.389 . S
C481 C480 1.389 . S
C481 C482 1.387 . S
C482 H467 0.930 . S
C482 C477 1.390 . S
C482 C481 1.387 . S
H483 C495 0.930 . S
H484 C497 0.930 . S
H485 C498 0.930 . S
H486 C502 0.959 . S
H487 C502 0.959 . S
H488 C502 0.961 . S
H489 C503 0.960 . S
H490 C503 0.961 . S
H491 C503 0.959 . S
H492 C506 0.929 . S
H493 C507 0.931 . S
H494 C509 0.930 . S
C495 H483 0.930 . S
C495 C496 1.399 . S
C495 C500 1.399 . S
C496 C495 1.399 . S
C496 C497 1.376 . S
C497 H484 0.930 . S
C497 C496 1.376 . S
C497 C498 1.388 . S
C498 H485 0.930 . S
C498 C497 1.388 . S
C498 C499 1.390 . S
C499 C498 1.390 . S
C499 C500 1.394 . S
C499 C505 1.465 . S
C500 C495 1.399 . S
C500 C499 1.394 . S
C500 C501 1.516 . S
C501 C500 1.516 . S
C501 C502 1.502 . S
C501 C503 1.561 1_455 S
C501 C504 1.526 . S
C502 H486 0.959 . S
C502 H487 0.959 . S
C502 H488 0.961 . S
C502 C501 1.502 . S
C503 H489 0.960 . S
C503 H490 0.961 . S
C503 H491 0.959 . S
C503 C501 1.561 1_655 S
C504 C501 1.526 . S
C504 C505 1.396 . S
C504 C509 1.390 . S
C505 C499 1.465 . S
C505 C504 1.396 . S
C505 C506 1.399 . S
C506 H492 0.929 . S
C506 C505 1.399 . S
C506 C507 1.385 . S
C507 H493 0.931 . S
C507 C506 1.385 . S
C507 C508 1.389 . S
C508 C507 1.389 . S
C508 C509 1.387 . S
C509 H494 0.930 . S
C509 C504 1.390 . S
C509 C508 1.387 . S
H510 C522 0.930 . S
H511 C524 0.930 . S
H512 C525 0.930 . S
H513 C529 0.959 . S
H514 C529 0.959 . S
H515 C529 0.961 . S
H516 C530 0.960 . S
H517 C530 0.961 . S
H518 C530 0.959 . S
H519 C533 0.929 . S
H520 C534 0.931 . S
H521 C536 0.930 . S
C522 H510 0.930 . S
C522 C523 1.399 1_455 S
C522 C527 1.399 1_455 S
C523 C522 1.399 1_655 S
C523 C524 1.376 . S
C524 H511 0.930 . S
C524 C523 1.376 . S
C524 C525 1.388 . S
C525 H512 0.930 . S
C525 C524 1.388 . S
C525 C526 1.390 . S
C526 C525 1.390 . S
C526 C527 1.394 . S
C526 C532 1.465 . S
C527 C522 1.399 1_655 S
C527 C526 1.394 . S
C527 C528 1.516 . S
C528 C527 1.516 . S
C528 C529 1.502 1_655 S
C528 C530 1.561 . S
C528 C531 1.526 . S
C529 H513 0.959 . S
C529 H514 0.959 . S
C529 H515 0.961 . S
C529 C528 1.502 1_455 S
C530 H516 0.960 . S
C530 H517 0.961 . S
C530 H518 0.959 . S
C530 C528 1.561 . S
C531 C528 1.526 . S
C531 C532 1.396 . S
C531 C536 1.390 . S
C532 C526 1.465 . S
C532 C531 1.396 . S
C532 C533 1.399 . S
C533 H519 0.929 . S
C533 C532 1.399 . S
C533 C534 1.385 . S
C534 H520 0.931 . S
C534 C533 1.385 . S
C534 C535 1.389 . S
C535 C534 1.389 . S
C535 C536 1.387 . S
C536 H521 0.930 . S
C536 C531 1.390 . S
C536 C535 1.387 . S
H537 C549 0.930 . S
H538 C551 0.930 . S
H539 C552 0.930 . S
H540 C556 0.959 . S
H541 C556 0.959 . S
H542 C556 0.961 . S
H543 C557 0.960 . S
H544 C557 0.961 . S
H545 C557 0.959 . S
H546 C560 0.929 . S
H547 C561 0.931 . S
H548 C563 0.930 . S
C549 H537 0.930 . S
C549 C550 1.399 . S
C549 C554 1.399 . S
C550 C549 1.399 . S
C550 C551 1.376 . S
C551 H538 0.930 . S
C551 C550 1.376 . S
C551 C552 1.388 . S
C552 H539 0.930 . S
C552 C551 1.388 . S
C552 C553 1.390 . S
C553 C552 1.390 . S
C553 C554 1.394 . S
C553 C559 1.465 . S
C554 C549 1.399 . S
C554 C553 1.394 . S
C554 C555 1.516 . S
C555 C554 1.516 . S
C555 C556 1.502 . S
C555 C557 1.561 . S
C555 C558 1.526 . S
C556 H540 0.959 . S
C556 H541 0.959 . S
C556 H542 0.961 . S
C556 C555 1.502 . S
C557 H543 0.960 . S
C557 H544 0.961 . S
C557 H545 0.959 . S
C557 C555 1.561 . S
C558 C555 1.526 . S
C558 C559 1.396 . S
C558 C563 1.390 . S
C559 C553 1.465 . S
C559 C558 1.396 . S
C559 C560 1.399 . S
C560 H546 0.929 . S
C560 C559 1.399 . S
C560 C561 1.385 . S
C561 H547 0.931 . S
C561 C560 1.385 . S
C561 C562 1.389 . S
C562 C561 1.389 . S
C562 C563 1.387 . S
C563 H548 0.930 . S
C563 C558 1.390 . S
C563 C562 1.387 . S
H564 C576 0.930 . S
H565 C578 0.930 . S
H566 C579 0.930 . S
H567 C583 0.959 . S
H568 C583 0.959 . S
H569 C583 0.961 . S
H570 C584 0.960 . S
H571 C584 0.961 . S
H572 C584 0.959 . S
H573 C587 0.929 . S
H574 C588 0.931 . S
H575 C590 0.930 . S
C576 H564 0.930 . S
C576 C577 1.399 . S
C576 C581 1.399 . S
C577 C576 1.399 . S
C577 C578 1.376 . S
C578 H565 0.930 . S
C578 C577 1.376 . S
C578 C579 1.388 . S
C579 H566 0.930 . S
C579 C578 1.388 . S
C579 C580 1.390 . S
C580 C579 1.390 . S
C580 C581 1.394 . S
C580 C586 1.465 . S
C581 C576 1.399 . S
C581 C580 1.394 . S
C581 C582 1.516 . S
C582 C581 1.516 . S
C582 C583 1.502 . S
C582 C584 1.561 . S
C582 C585 1.526 . S
C583 H567 0.959 . S
C583 H568 0.959 . S
C583 H569 0.961 . S
C583 C582 1.502 . S
C584 H570 0.960 . S
C584 H571 0.961 . S
C584 H572 0.959 . S
C584 C582 1.561 . S
C585 C582 1.526 . S
C585 C586 1.396 . S
C585 C590 1.390 . S
C586 C580 1.465 . S
C586 C585 1.396 . S
C586 C587 1.399 . S
C587 H573 0.929 . S
C587 C586 1.399 . S
C587 C588 1.385 . S
C588 H574 0.931 . S
C588 C587 1.385 . S
C588 C589 1.389 . S
C589 C588 1.389 . S
C589 C590 1.387 . S
C590 H575 0.930 . S
C590 C585 1.390 . S
C590 C589 1.387 . S
H591 C603 0.930 . S
H592 C605 0.930 . S
H593 C606 0.930 . S
H594 C610 0.959 . S
H595 C610 0.959 . S
H596 C610 0.961 . S
H597 C611 0.960 . S
H598 C611 0.961 . S
H599 C611 0.959 . S
H600 C614 0.929 . S
H601 C615 0.931 . S
H602 C617 0.930 . S
C603 H591 0.930 . S
C603 C604 1.399 . S
C603 C608 1.399 . S
C604 C603 1.399 . S
C604 C605 1.376 . S
C605 H592 0.930 . S
C605 C604 1.376 . S
C605 C606 1.388 . S
C606 H593 0.930 . S
C606 C605 1.388 . S
C606 C607 1.390 . S
C607 C606 1.390 . S
C607 C608 1.394 . S
C607 C613 1.465 . S
C608 C603 1.399 . S
C608 C607 1.394 . S
C608 C609 1.516 . S
C609 C608 1.516 . S
C609 C610 1.502 . S
C609 C611 1.561 . S
C609 C612 1.526 . S
C610 H594 0.959 . S
C610 H595 0.959 . S
C610 H596 0.961 . S
C610 C609 1.502 . S
C611 H597 0.960 . S
C611 H598 0.961 . S
C611 H599 0.959 . S
C611 C609 1.561 . S
C612 C609 1.526 . S
C612 C613 1.396 . S
C612 C617 1.390 . S
C613 C607 1.465 . S
C613 C612 1.396 . S
C613 C614 1.399 . S
C614 H600 0.929 . S
C614 C613 1.399 . S
C614 C615 1.385 . S
C615 H601 0.931 . S
C615 C614 1.385 . S
C615 C616 1.389 . S
C616 C615 1.389 . S
C616 C617 1.387 . S
C617 H602 0.930 . S
C617 C612 1.390 . S
C617 C616 1.387 . S
H618 C630 0.930 . S
H619 C632 0.930 . S
H620 C633 0.930 . S
H621 C637 0.959 . S
H622 C637 0.959 . S
H623 C637 0.961 . S
H624 C638 0.960 . S
H625 C638 0.961 . S
H626 C638 0.959 . S
H627 C641 0.929 . S
H628 C642 0.931 . S
H629 C644 0.930 . S
C630 H618 0.930 . S
C630 C631 1.399 . S
C630 C635 1.399 . S
C631 C630 1.399 . S
C631 C632 1.376 . S
C632 H619 0.930 . S
C632 C631 1.376 . S
C632 C633 1.388 . S
C633 H620 0.930 . S
C633 C632 1.388 . S
C633 C634 1.390 . S
C634 C633 1.390 . S
C634 C635 1.394 . S
C634 C640 1.465 . S
C635 C630 1.399 . S
C635 C634 1.394 . S
C635 C636 1.516 . S
C636 C635 1.516 . S
C636 C637 1.502 . S
C636 C638 1.561 . S
C636 C639 1.526 . S
C637 H621 0.959 . S
C637 H622 0.959 . S
C637 H623 0.961 . S
C637 C636 1.502 . S
C638 H624 0.960 . S
C638 H625 0.961 . S
C638 H626 0.959 . S
C638 C636 1.561 . S
C639 C636 1.526 . S
C639 C640 1.396 . S
C639 C644 1.390 . S
C640 C634 1.465 . S
C640 C639 1.396 . S
C640 C641 1.399 . S
C641 H627 0.929 . S
C641 C640 1.399 . S
C641 C642 1.385 . S
C642 H628 0.931 . S
C642 C641 1.385 . S
C642 C643 1.389 . S
C643 C642 1.389 . S
C643 C644 1.387 . S
C644 H629 0.930 . S
C644 C639 1.390 . S
C644 C643 1.387 . S
H645 C657 0.930 . S
H646 C659 0.930 . S
H647 C660 0.930 . S
H648 C664 0.959 . S
H649 C664 0.959 1_556 S
H650 C664 0.961 . S
H651 C665 0.960 . S
H652 C665 0.961 . S
H653 C665 0.959 . S
H654 C668 0.929 1_554 S
H655 C669 0.931 . S
H656 C671 0.930 . S
C657 H645 0.930 . S
C657 C658 1.399 . S
C657 C662 1.399 . S
C658 C657 1.399 . S
C658 C659 1.376 . S
C659 H646 0.930 . S
C659 C658 1.376 . S
C659 C660 1.388 . S
C660 H647 0.930 . S
C660 C659 1.388 . S
C660 C661 1.390 . S
C661 C660 1.390 . S
C661 C662 1.394 . S
C661 C667 1.465 . S
C662 C657 1.399 . S
C662 C661 1.394 . S
C662 C663 1.516 . S
C663 C662 1.516 . S
C663 C664 1.502 . S
C663 C665 1.561 1_554 S
C663 C666 1.526 1_554 S
C664 H648 0.959 . S
C664 H649 0.959 1_554 S
C664 H650 0.961 . S
C664 C663 1.502 . S
C665 H651 0.960 . S
C665 H652 0.961 . S
C665 H653 0.959 . S
C665 C663 1.561 1_556 S
C666 C663 1.526 1_556 S
C666 C667 1.396 1_556 S
C666 C671 1.390 . S
C667 C661 1.465 . S
C667 C666 1.396 1_554 S
C667 C668 1.399 1_554 S
C668 H654 0.929 1_556 S
C668 C667 1.399 1_556 S
C668 C669 1.385 . S
C669 H655 0.931 . S
C669 C668 1.385 . S
C669 C670 1.389 . S
C670 C669 1.389 . S
C670 C671 1.387 . S
C671 H656 0.930 . S
C671 C666 1.390 . S
C671 C670 1.387 . S
H672 C684 0.930 . S
H673 C686 0.930 . S
H674 C687 0.930 . S
H675 C691 0.959 . S
H676 C691 0.959 . S
H677 C691 0.961 . S
H678 C692 0.960 . S
H679 C692 0.961 . S
H680 C692 0.959 . S
H681 C695 0.929 . S
H682 C696 0.931 . S
H683 C698 0.930 . S
C684 H672 0.930 . S
C684 C685 1.399 . S
C684 C689 1.399 . S
C685 C684 1.399 . S
C685 C686 1.376 . S
C686 H673 0.930 . S
C686 C685 1.376 . S
C686 C687 1.388 . S
C687 H674 0.930 . S
C687 C686 1.388 . S
C687 C688 1.390 . S
C688 C687 1.390 . S
C688 C689 1.394 . S
C688 C694 1.465 . S
C689 C684 1.399 . S
C689 C688 1.394 . S
C689 C690 1.516 . S
C690 C689 1.516 . S
C690 C691 1.502 . S
C690 C692 1.561 . S
C690 C693 1.526 . S
C691 H675 0.959 . S
C691 H676 0.959 . S
C691 H677 0.961 . S
C691 C690 1.502 . S
C692 H678 0.960 . S
C692 H679 0.961 . S
C692 H680 0.959 . S
C692 C690 1.561 . S
C693 C690 1.526 . S
C693 C694 1.396 . S
C693 C698 1.390 . S
C694 C688 1.465 . S
C694 C693 1.396 . S
C694 C695 1.399 . S
C695 H681 0.929 . S
C695 C694 1.399 . S
C695 C696 1.385 . S
C696 H682 0.931 . S
C696 C695 1.385 . S
C696 C697 1.389 . S
C697 C696 1.389 . S
C697 C698 1.387 . S
C698 H683 0.930 . S
C698 C693 1.390 . S
C698 C697 1.387 . S
H699 C711 0.930 . S
H700 C713 0.930 . S
H701 C714 0.930 . S
H702 C718 0.959 . S
H703 C718 0.959 . S
H704 C718 0.961 . S
H705 C719 0.960 1_554 S
H706 C719 0.961 . S
H707 C719 0.959 . S
H708 C722 0.929 . S
H709 C723 0.931 . S
H710 C725 0.930 . S
C711 H699 0.930 . S
C711 C712 1.399 . S
C711 C716 1.399 1_554 S
C712 C711 1.399 . S
C712 C713 1.376 . S
C713 H700 0.930 . S
C713 C712 1.376 . S
C713 C714 1.388 1_554 S
C714 H701 0.930 . S
C714 C713 1.388 1_556 S
C714 C715 1.390 . S
C715 C714 1.390 . S
C715 C716 1.394 . S
C715 C721 1.465 . S
C716 C711 1.399 1_556 S
C716 C715 1.394 . S
C716 C717 1.516 . S
C717 C716 1.516 . S
C717 C718 1.502 . S
C717 C719 1.561 . S
C717 C720 1.526 . S
C718 H702 0.959 . S
C718 H703 0.959 . S
C718 H704 0.961 . S
C718 C717 1.502 . S
C719 H705 0.960 1_556 S
C719 H706 0.961 . S
C719 H707 0.959 . S
C719 C717 1.561 . S
C720 C717 1.526 . S
C720 C721 1.396 . S
C720 C725 1.390 . S
C721 C715 1.465 . S
C721 C720 1.396 . S
C721 C722 1.399 . S
C722 H708 0.929 . S
C722 C721 1.399 . S
C722 C723 1.385 . S
C723 H709 0.931 . S
C723 C722 1.385 . S
C723 C724 1.389 . S
C724 C723 1.389 . S
C724 C725 1.387 . S
C725 H710 0.930 . S
C725 C720 1.390 . S
C725 C724 1.387 . S
H726 C738 0.930 . S
H727 C740 0.930 . S
H728 C741 0.930 . S
H729 C745 0.959 . S
H730 C745 0.959 . S
H731 C745 0.961 . S
H732 C746 0.960 . S
H733 C746 0.961 . S
H734 C746 0.959 . S
H735 C749 0.929 . S
H736 C750 0.931 . S
H737 C752 0.930 . S
C738 H726 0.930 . S
C738 C739 1.399 . S
C738 C743 1.399 . S
C739 C738 1.399 . S
C739 C740 1.376 . S
C740 H727 0.930 . S
C740 C739 1.376 . S
C740 C741 1.388 . S
C741 H728 0.930 . S
C741 C740 1.388 . S
C741 C742 1.390 . S
C742 C741 1.390 . S
C742 C743 1.394 . S
C742 C748 1.465 . S
C743 C738 1.399 . S
C743 C742 1.394 . S
C743 C744 1.516 . S
C744 C743 1.516 . S
C744 C745 1.502 . S
C744 C746 1.561 . S
C744 C747 1.526 . S
C745 H729 0.959 . S
C745 H730 0.959 . S
C745 H731 0.961 . S
C745 C744 1.502 . S
C746 H732 0.960 . S
C746 H733 0.961 . S
C746 H734 0.959 . S
C746 C744 1.561 . S
C747 C744 1.526 . S
C747 C748 1.396 . S
C747 C752 1.390 . S
C748 C742 1.465 . S
C748 C747 1.396 . S
C748 C749 1.399 . S
C749 H735 0.929 . S
C749 C748 1.399 . S
C749 C750 1.385 . S
C750 H736 0.931 . S
C750 C749 1.385 . S
C750 C751 1.389 . S
C751 C750 1.389 . S
C751 C752 1.387 . S
C752 H737 0.930 . S
C752 C747 1.390 . S
C752 C751 1.387 . S
H753 C765 0.930 . S
H754 C767 0.930 . S
H755 C768 0.930 . S
H756 C772 0.959 . S
H757 C772 0.959 . S
H758 C772 0.961 . S
H759 C773 0.960 . S
H760 C773 0.961 . S
H761 C773 0.959 . S
H762 C776 0.929 . S
H763 C777 0.931 . S
H764 C779 0.930 . S
C765 H753 0.930 . S
C765 C766 1.399 . S
C765 C770 1.399 . S
C766 C765 1.399 . S
C766 C767 1.376 . S
C767 H754 0.930 . S
C767 C766 1.376 . S
C767 C768 1.388 . S
C768 H755 0.930 . S
C768 C767 1.388 . S
C768 C769 1.390 . S
C769 C768 1.390 . S
C769 C770 1.394 . S
C769 C775 1.465 . S
C770 C765 1.399 . S
C770 C769 1.394 . S
C770 C771 1.516 . S
C771 C770 1.516 . S
C771 C772 1.502 . S
C771 C773 1.561 . S
C771 C774 1.526 . S
C772 H756 0.959 . S
C772 H757 0.959 . S
C772 H758 0.961 . S
C772 C771 1.502 . S
C773 H759 0.960 . S
C773 H760 0.961 . S
C773 H761 0.959 . S
C773 C771 1.561 . S
C774 C771 1.526 . S
C774 C775 1.396 . S
C774 C779 1.390 . S
C775 C769 1.465 . S
C775 C774 1.396 . S
C775 C776 1.399 . S
C776 H762 0.929 . S
C776 C775 1.399 . S
C776 C777 1.385 . S
C777 H763 0.931 . S
C777 C776 1.385 . S
C777 C778 1.389 . S
C778 C777 1.389 . S
C778 C779 1.387 . S
C779 H764 0.930 . S
C779 C774 1.390 . S
C779 C778 1.387 . S
H780 C792 0.930 . S
H781 C794 0.930 . S
H782 C795 0.930 . S
H783 C799 0.959 . S
H784 C799 0.959 . S
H785 C799 0.961 . S
H786 C800 0.960 . S
H787 C800 0.961 . S
H788 C800 0.959 . S
H789 C803 0.929 . S
H790 C804 0.931 . S
H791 C806 0.930 . S
C792 H780 0.930 . S
C792 C793 1.399 . S
C792 C797 1.399 . S
C793 C792 1.399 . S
C793 C794 1.376 . S
C794 H781 0.930 . S
C794 C793 1.376 . S
C794 C795 1.388 . S
C795 H782 0.930 . S
C795 C794 1.388 . S
C795 C796 1.390 . S
C796 C795 1.390 . S
C796 C797 1.394 . S
C796 C802 1.465 . S
C797 C792 1.399 . S
C797 C796 1.394 . S
C797 C798 1.516 . S
C798 C797 1.516 . S
C798 C799 1.502 . S
C798 C800 1.561 . S
C798 C801 1.526 . S
C799 H783 0.959 . S
C799 H784 0.959 . S
C799 H785 0.961 . S
C799 C798 1.502 . S
C800 H786 0.960 . S
C800 H787 0.961 . S
C800 H788 0.959 . S
C800 C798 1.561 . S
C801 C798 1.526 . S
C801 C802 1.396 . S
C801 C806 1.390 . S
C802 C796 1.465 . S
C802 C801 1.396 . S
C802 C803 1.399 . S
C803 H789 0.929 . S
C803 C802 1.399 . S
C803 C804 1.385 . S
C804 H790 0.931 . S
C804 C803 1.385 . S
C804 C805 1.389 . S
C805 C804 1.389 . S
C805 C806 1.387 . S
C806 H791 0.930 . S
C806 C801 1.390 . S
C806 C805 1.387 . S
H807 C819 0.930 . S
H808 C821 0.930 . S
H809 C822 0.930 . S
H810 C826 0.959 . S
H811 C826 0.959 . S
H812 C826 0.961 . S
H813 C827 0.960 . S
H814 C827 0.961 1_565 S
H815 C827 0.959 1_565 S
H816 C830 0.929 . S
H817 C831 0.931 . S
H818 C833 0.930 . S
C819 H807 0.930 . S
C819 C820 1.399 . S
C819 C824 1.399 . S
C820 C819 1.399 . S
C820 C821 1.376 . S
C821 H808 0.930 . S
C821 C820 1.376 . S
C821 C822 1.388 . S
C822 H809 0.930 . S
C822 C821 1.388 . S
C822 C823 1.390 . S
C823 C822 1.390 . S
C823 C824 1.394 . S
C823 C829 1.465 . S
C824 C819 1.399 . S
C824 C823 1.394 . S
C824 C825 1.516 . S
C825 C824 1.516 . S
C825 C826 1.502 . S
C825 C827 1.561 . S
C825 C828 1.540 . S
C826 H810 0.959 . S
C826 H811 0.959 . S
C826 H812 0.961 . S
C826 C825 1.502 . S
C827 H813 0.960 . S
C827 H814 0.961 1_545 S
C827 H815 0.959 1_545 S
C827 C825 1.561 . S
C828 C825 1.540 . S
C828 C829 1.410 . S
C828 C833 1.365 1_545 S
C829 C823 1.465 . S
C829 C828 1.410 . S
C829 C830 1.399 . S
C830 H816 0.929 . S
C830 C829 1.399 . S
C830 C831 1.385 1_545 S
C831 H817 0.931 . S
C831 C830 1.385 1_565 S
C831 C832 1.389 . S
C832 C831 1.389 . S
C832 C833 1.387 . S
C833 H818 0.930 . S
C833 C828 1.365 1_565 S
C833 C832 1.387 . S
H834 C846 0.930 . S
H835 C848 0.930 . S
H836 C849 0.930 . S
H837 C853 0.959 . S
H838 C853 0.959 . S
H839 C853 0.961 . S
H840 C854 0.960 . S
H841 C854 0.961 . S
H842 C854 0.959 . S
H843 C857 0.929 . S
H844 C858 0.931 . S
H845 C860 0.930 . S
C846 H834 0.930 . S
C846 C847 1.399 . S
C846 C851 1.399 . S
C847 C846 1.399 . S
C847 C848 1.376 . S
C848 H835 0.930 . S
C848 C847 1.376 . S
C848 C849 1.388 . S
C849 H836 0.930 . S
C849 C848 1.388 . S
C849 C850 1.390 . S
C850 C849 1.390 . S
C850 C851 1.394 . S
C850 C856 1.465 . S
C851 C846 1.399 . S
C851 C850 1.394 . S
C851 C852 1.516 . S
C852 C851 1.516 . S
C852 C853 1.502 . S
C852 C854 1.561 . S
C852 C855 1.526 . S
C853 H837 0.959 . S
C853 H838 0.959 . S
C853 H839 0.961 . S
C853 C852 1.502 . S
C854 H840 0.960 . S
C854 H841 0.961 . S
C854 H842 0.959 . S
C854 C852 1.561 . S
C855 C852 1.526 . S
C855 C856 1.396 . S
C855 C860 1.390 . S
C856 C850 1.465 . S
C856 C855 1.396 . S
C856 C857 1.399 . S
C857 H843 0.929 . S
C857 C856 1.399 . S
C857 C858 1.385 . S
C858 H844 0.931 . S
C858 C857 1.385 . S
C858 C859 1.389 . S
C859 C858 1.389 . S
C859 C860 1.387 . S
C860 H845 0.930 . S
C860 C855 1.390 . S
C860 C859 1.387 . S
H861 C873 0.930 . S
H862 C875 0.930 . S
H863 C876 0.930 . S
H864 C880 0.959 . S
H865 C880 0.959 . S
H866 C880 0.961 . S
H867 C881 0.960 . S
H868 C881 0.961 . S
H869 C881 0.959 1_565 S
H870 C884 0.929 . S
H871 C885 0.931 . S
H872 C887 0.930 . S
C873 H861 0.930 . S
C873 C874 1.399 . S
C873 C878 1.399 . S
C874 C873 1.399 . S
C874 C875 1.376 . S
C875 H862 0.930 . S
C875 C874 1.376 . S
C875 C876 1.388 1_545 S
C876 H863 0.930 . S
C876 C875 1.388 1_565 S
C876 C877 1.390 . S
C877 C876 1.390 . S
C877 C878 1.394 1_565 S
C877 C883 1.465 . S
C878 C873 1.399 . S
C878 C877 1.394 1_545 S
C878 C879 1.516 . S
C879 C878 1.516 . S
C879 C880 1.502 . S
C879 C881 1.561 . S
C879 C882 1.526 1_545 S
C880 H864 0.959 . S
C880 H865 0.959 . S
C880 H866 0.961 . S
C880 C879 1.502 . S
C881 H867 0.960 . S
C881 H868 0.961 . S
C881 H869 0.959 1_545 S
C881 C879 1.561 . S
C882 C879 1.526 1_565 S
C882 C883 1.396 . S
C882 C887 1.390 . S
C883 C877 1.465 . S
C883 C882 1.396 . S
C883 C884 1.399 . S
C884 H870 0.929 . S
C884 C883 1.399 . S
C884 C885 1.385 . S
C885 H871 0.931 . S
C885 C884 1.385 . S
C885 C886 1.389 . S
C886 C885 1.389 . S
C886 C887 1.387 . S
C887 H872 0.930 . S
C887 C882 1.390 . S
C887 C886 1.387 . S
H888 C900 0.930 . S
H889 C902 0.930 . S
H890 C903 0.930 . S
H891 C907 0.959 . S
H892 C907 0.959 . S
H893 C907 0.961 . S
H894 C908 0.960 . S
H895 C908 0.961 . S
H896 C908 0.959 . S
H897 C911 0.929 . S
H898 C912 0.931 . S
H899 C914 0.930 . S
C900 H888 0.930 . S
C900 C901 1.399 . S
C900 C905 1.399 . S
C901 C900 1.399 . S
C901 C902 1.376 . S
C902 H889 0.930 . S
C902 C901 1.376 . S
C902 C903 1.388 . S
C903 H890 0.930 . S
C903 C902 1.388 . S
C903 C904 1.390 . S
C904 C903 1.390 . S
C904 C905 1.394 . S
C904 C910 1.465 . S
C905 C900 1.399 . S
C905 C904 1.394 . S
C905 C906 1.516 . S
C906 C905 1.516 . S
C906 C907 1.502 . S
C906 C908 1.561 . S
C906 C909 1.526 . S
C907 H891 0.959 . S
C907 H892 0.959 . S
C907 H893 0.961 . S
C907 C906 1.502 . S
C908 H894 0.960 . S
C908 H895 0.961 . S
C908 H896 0.959 . S
C908 C906 1.561 . S
C909 C906 1.526 . S
C909 C910 1.396 . S
C909 C914 1.390 . S
C910 C904 1.465 . S
C910 C909 1.396 . S
C910 C911 1.399 . S
C911 H897 0.929 . S
C911 C910 1.399 . S
C911 C912 1.385 . S
C912 H898 0.931 . S
C912 C911 1.385 . S
C912 C913 1.389 . S
C913 C912 1.389 . S
C913 C914 1.387 . S
C914 H899 0.930 . S
C914 C909 1.390 . S
C914 C913 1.387 . S
H915 C927 0.930 . S
H916 C929 0.930 . S
H917 C930 0.930 . S
H918 C934 0.959 . S
H919 C934 0.959 . S
H920 C934 0.961 . S
H921 C935 0.960 . S
H922 C935 0.961 . S
H923 C935 0.959 . S
H924 C938 0.929 . S
H925 C939 0.931 . S
H926 C941 0.930 . S
C927 H915 0.930 . S
C927 C928 1.399 . S
C927 C932 1.399 . S
C928 C927 1.399 . S
C928 C929 1.376 . S
C929 H916 0.930 . S
C929 C928 1.376 . S
C929 C930 1.388 . S
C930 H917 0.930 . S
C930 C929 1.388 . S
C930 C931 1.390 . S
C931 C930 1.390 . S
C931 C932 1.394 . S
C931 C937 1.465 . S
C932 C927 1.399 . S
C932 C931 1.394 . S
C932 C933 1.516 . S
C933 C932 1.516 . S
C933 C934 1.502 . S
C933 C935 1.561 . S
C933 C936 1.526 . S
C934 H918 0.959 . S
C934 H919 0.959 . S
C934 H920 0.961 . S
C934 C933 1.502 . S
C935 H921 0.960 . S
C935 H922 0.961 . S
C935 H923 0.959 . S
C935 C933 1.561 . S
C936 C933 1.526 . S
C936 C937 1.396 . S
C936 C941 1.390 . S
C937 C931 1.465 . S
C937 C936 1.396 . S
C937 C938 1.399 . S
C938 H924 0.929 . S
C938 C937 1.399 . S
C938 C939 1.385 . S
C939 H925 0.931 . S
C939 C938 1.385 . S
C939 C940 1.389 . S
C940 C939 1.389 . S
C940 C941 1.387 . S
C941 H926 0.930 . S
C941 C936 1.390 . S
C941 C940 1.387 . S
H942 C954 0.930 . S
H943 C956 0.930 . S
H944 C957 0.930 . S
H945 C961 0.959 . S
H946 C961 0.959 . S
H947 C961 0.961 . S
H948 C962 0.960 . S
H949 C962 0.961 . S
H950 C962 0.959 . S
H951 C965 0.929 . S
H952 C966 0.931 . S
H953 C968 0.930 . S
C954 H942 0.930 . S
C954 C955 1.399 . S
C954 C959 1.399 . S
C955 C954 1.399 . S
C955 C956 1.376 . S
C956 H943 0.930 . S
C956 C955 1.376 . S
C956 C957 1.388 . S
C957 H944 0.930 . S
C957 C956 1.388 . S
C957 C958 1.390 . S
C958 C957 1.390 . S
C958 C959 1.394 . S
C958 C964 1.465 . S
C959 C954 1.399 . S
C959 C958 1.394 . S
C959 C960 1.516 . S
C960 C959 1.516 . S
C960 C961 1.502 . S
C960 C962 1.561 . S
C960 C963 1.526 . S
C961 H945 0.959 . S
C961 H946 0.959 . S
C961 H947 0.961 . S
C961 C960 1.502 . S
C962 H948 0.960 . S
C962 H949 0.961 . S
C962 H950 0.959 . S
C962 C960 1.561 . S
C963 C960 1.526 . S
C963 C964 1.396 . S
C963 C968 1.390 . S
C964 C958 1.465 . S
C964 C963 1.396 . S
C964 C965 1.399 . S
C965 H951 0.929 . S
C965 C964 1.399 . S
C965 C966 1.385 . S
C966 H952 0.931 . S
C966 C965 1.385 . S
C966 C967 1.389 . S
C967 C966 1.389 . S
C967 C968 1.387 . S
C968 H953 0.930 . S
C968 C963 1.390 . S
C968 C967 1.387 . S
H969 C981 0.930 . S
H970 C983 0.930 . S
H971 C984 0.930 . S
H972 C988 0.959 . S
H973 C988 0.959 . S
H974 C988 0.961 . S
H975 C989 0.960 . S
H976 C989 0.961 . S
H977 C989 0.959 . S
H978 C992 0.929 . S
H979 C993 0.931 . S
H980 C995 0.930 . S
C981 H969 0.930 . S
C981 C982 1.399 . S
C981 C986 1.399 . S
C982 C981 1.399 . S
C982 C983 1.376 . S
C983 H970 0.930 . S
C983 C982 1.376 . S
C983 C984 1.388 . S
C984 H971 0.930 . S
C984 C983 1.388 . S
C984 C985 1.390 . S
C985 C984 1.390 . S
C985 C986 1.394 . S
C985 C991 1.465 . S
C986 C981 1.399 . S
C986 C985 1.394 . S
C986 C987 1.516 . S
C987 C986 1.516 . S
C987 C988 1.502 . S
C987 C989 1.561 . S
C987 C990 1.526 . S
C988 H972 0.959 . S
C988 H973 0.959 . S
C988 H974 0.961 . S
C988 C987 1.502 . S
C989 H975 0.960 . S
C989 H976 0.961 . S
C989 H977 0.959 . S
C989 C987 1.561 . S
C990 C987 1.526 . S
C990 C991 1.396 . S
C990 C995 1.390 . S
C991 C985 1.465 . S
C991 C990 1.396 . S
C991 C992 1.399 . S
C992 H978 0.929 . S
C992 C991 1.399 . S
C992 C993 1.385 . S
C993 H979 0.931 . S
C993 C992 1.385 . S
C993 C994 1.389 . S
C994 C993 1.389 . S
C994 C995 1.387 . S
C995 H980 0.930 . S
C995 C990 1.390 . S
C995 C994 1.387 . S
H996 C1008 0.930 . S
H997 C1010 0.930 . S
H998 C1011 0.930 . S
H999 C1015 0.959 . S
H1000 C1015 0.959 . S
H1001 C1015 0.961 . S
H1002 C1016 0.960 . S
H1003 C1016 0.961 . S
H1004 C1016 0.959 . S
H1005 C1019 0.929 . S
H1006 C1020 0.931 . S
H1007 C1022 0.930 . S
C1008 H996 0.930 . S
C1008 C1009 1.399 . S
C1008 C1013 1.399 . S
C1009 C1008 1.399 . S
C1009 C1010 1.376 . S
C1010 H997 0.930 . S
C1010 C1009 1.376 . S
C1010 C1011 1.388 . S
C1011 H998 0.930 . S
C1011 C1010 1.388 . S
C1011 C1012 1.390 . S
C1012 C1011 1.390 . S
C1012 C1013 1.394 . S
C1012 C1018 1.465 . S
C1013 C1008 1.399 . S
C1013 C1012 1.394 . S
C1013 C1014 1.516 . S
C1014 C1013 1.516 . S
C1014 C1015 1.502 . S
C1014 C1016 1.561 . S
C1014 C1017 1.526 . S
C1015 H999 0.959 . S
C1015 H1000 0.959 . S
C1015 H1001 0.961 . S
C1015 C1014 1.502 . S
C1016 H1002 0.960 . S
C1016 H1003 0.961 . S
C1016 H1004 0.959 . S
C1016 C1014 1.561 . S
C1017 C1014 1.526 . S
C1017 C1018 1.396 . S
C1017 C1022 1.390 . S
C1018 C1012 1.465 . S
C1018 C1017 1.396 . S
C1018 C1019 1.399 . S
C1019 H1005 0.929 . S
C1019 C1018 1.399 . S
C1019 C1020 1.385 . S
C1020 H1006 0.931 . S
C1020 C1019 1.385 . S
C1020 C1021 1.389 . S
C1021 C1020 1.389 . S
C1021 C1022 1.387 . S
C1022 H1007 0.930 . S
C1022 C1017 1.390 . S
C1022 C1021 1.387 . S
H1023 C1035 0.930 . S
H1024 C1037 0.930 . S
H1025 C1038 0.930 . S
H1026 C1042 0.959 . S
H1027 C1042 0.959 . S
H1028 C1042 0.961 . S
H1029 C1043 0.960 . S
H1030 C1043 0.961 . S
H1031 C1043 0.959 . S
H1032 C1046 0.929 . S
H1033 C1047 0.931 . S
H1034 C1049 0.930 . S
C1035 H1023 0.930 . S
C1035 C1036 1.399 . S
C1035 C1040 1.399 . S
C1036 C1035 1.399 . S
C1036 C1037 1.376 . S
C1037 H1024 0.930 . S
C1037 C1036 1.376 . S
C1037 C1038 1.388 . S
C1038 H1025 0.930 . S
C1038 C1037 1.388 . S
C1038 C1039 1.390 . S
C1039 C1038 1.390 . S
C1039 C1040 1.394 . S
C1039 C1045 1.465 . S
C1040 C1035 1.399 . S
C1040 C1039 1.394 . S
C1040 C1041 1.516 . S
C1041 C1040 1.516 . S
C1041 C1042 1.502 . S
C1041 C1043 1.561 . S
C1041 C1044 1.526 . S
C1042 H1026 0.959 . S
C1042 H1027 0.959 . S
C1042 H1028 0.961 . S
C1042 C1041 1.502 . S
C1043 H1029 0.960 . S
C1043 H1030 0.961 . S
C1043 H1031 0.959 . S
C1043 C1041 1.561 . S
C1044 C1041 1.526 . S
C1044 C1045 1.396 . S
C1044 C1049 1.390 . S
C1045 C1039 1.465 . S
C1045 C1044 1.396 . S
C1045 C1046 1.399 . S
C1046 H1032 0.929 . S
C1046 C1045 1.399 . S
C1046 C1047 1.385 . S
C1047 H1033 0.931 . S
C1047 C1046 1.385 . S
C1047 C1048 1.389 . S
C1048 C1047 1.389 . S
C1048 C1049 1.387 . S
C1049 H1034 0.930 . S
C1049 C1044 1.390 . S
C1049 C1048 1.387 . S
H1050 C1062 0.930 . S
H1051 C1064 0.930 . S
H1052 C1065 0.930 . S
H1053 C1069 0.959 . S
H1054 C1069 0.959 . S
H1055 C1069 0.961 . S
H1056 C1070 0.960 . S
H1057 C1070 0.961 1_655 S
H1058 C1070 0.959 . S
H1059 C1073 0.929 . S
H1060 C1074 0.931 . S
H1061 C1076 0.930 . S
C1062 H1050 0.930 . S
C1062 C1063 1.399 . S
C1062 C1067 1.399 . S
C1063 C1062 1.399 . S
C1063 C1064 1.376 . S
C1064 H1051 0.930 . S
C1064 C1063 1.376 . S
C1064 C1065 1.388 . S
C1065 H1052 0.930 . S
C1065 C1064 1.388 . S
C1065 C1066 1.390 . S
C1066 C1065 1.390 . S
C1066 C1067 1.394 . S
C1066 C1072 1.465 . S
C1067 C1062 1.399 . S
C1067 C1066 1.394 . S
C1067 C1068 1.516 . S
C1068 C1067 1.516 . S
C1068 C1069 1.502 . S
C1068 C1070 1.561 . S
C1068 C1071 1.526 . S
C1069 H1053 0.959 . S
C1069 H1054 0.959 . S
C1069 H1055 0.961 . S
C1069 C1068 1.502 . S
C1070 H1056 0.960 . S
C1070 H1057 0.961 1_455 S
C1070 H1058 0.959 . S
C1070 C1068 1.561 . S
C1071 C1068 1.526 . S
C1071 C1072 1.396 . S
C1071 C1076 1.390 1_455 S
C1072 C1066 1.465 . S
C1072 C1071 1.396 . S
C1072 C1073 1.399 . S
C1073 H1059 0.929 . S
C1073 C1072 1.399 . S
C1073 C1074 1.385 1_455 S
C1074 H1060 0.931 . S
C1074 C1073 1.385 1_655 S
C1074 C1075 1.389 . S
C1075 C1074 1.389 . S
C1075 C1076 1.387 . S
C1076 H1061 0.930 . S
C1076 C1071 1.390 1_655 S
C1076 C1075 1.387 . S
H1077 C1089 0.930 . S
H1078 C1091 0.930 . S
H1079 C1092 0.930 . S
H1080 C1096 0.959 . S
H1081 C1096 0.959 . S
H1082 C1096 0.961 . S
H1083 C1097 0.960 . S
H1084 C1097 0.961 . S
H1085 C1097 0.959 . S
H1086 C1100 0.929 . S
H1087 C1101 0.931 . S
H1088 C1103 0.930 . S
C1089 H1077 0.930 . S
C1089 C1090 1.399 . S
C1089 C1094 1.399 . S
C1090 C1089 1.399 . S
C1090 C1091 1.376 . S
C1091 H1078 0.930 . S
C1091 C1090 1.376 . S
C1091 C1092 1.388 . S
C1092 H1079 0.930 . S
C1092 C1091 1.388 . S
C1092 C1093 1.390 . S
C1093 C1092 1.390 . S
C1093 C1094 1.394 . S
C1093 C1099 1.465 . S
C1094 C1089 1.399 . S
C1094 C1093 1.394 . S
C1094 C1095 1.516 . S
C1095 C1094 1.516 . S
C1095 C1096 1.502 . S
C1095 C1097 1.561 . S
C1095 C1098 1.526 . S
C1096 H1080 0.959 . S
C1096 H1081 0.959 . S
C1096 H1082 0.961 . S
C1096 C1095 1.502 . S
C1097 H1083 0.960 . S
C1097 H1084 0.961 . S
C1097 H1085 0.959 . S
C1097 C1095 1.561 . S
C1098 C1095 1.526 . S
C1098 C1099 1.396 . S
C1098 C1103 1.390 . S
C1099 C1093 1.465 . S
C1099 C1098 1.396 . S
C1099 C1100 1.399 . S
C1100 H1086 0.929 . S
C1100 C1099 1.399 . S
C1100 C1101 1.385 . S
C1101 H1087 0.931 . S
C1101 C1100 1.385 . S
C1101 C1102 1.389 . S
C1102 C1101 1.389 . S
C1102 C1103 1.387 . S
C1103 H1088 0.930 . S
C1103 C1098 1.390 . S
C1103 C1102 1.387 . S
H1104 C1116 0.930 . S
H1105 C1118 0.930 . S
H1106 C1119 0.930 . S
H1107 C1123 0.959 . S
H1108 C1123 0.959 . S
H1109 C1123 0.961 . S
H1110 C1124 0.960 . S
H1111 C1124 0.961 . S
H1112 C1124 0.959 . S
H1113 C1127 0.929 . S
H1114 C1128 0.931 . S
H1115 C1130 0.930 . S
C1116 H1104 0.930 . S
C1116 C1117 1.399 . S
C1116 C1121 1.399 . S
C1117 C1116 1.399 . S
C1117 C1118 1.376 . S
C1118 H1105 0.930 . S
C1118 C1117 1.376 . S
C1118 C1119 1.388 . S
C1119 H1106 0.930 . S
C1119 C1118 1.388 . S
C1119 C1120 1.390 . S
C1120 C1119 1.390 . S
C1120 C1121 1.394 . S
C1120 C1126 1.465 . S
C1121 C1116 1.399 . S
C1121 C1120 1.394 . S
C1121 C1122 1.516 . S
C1122 C1121 1.516 . S
C1122 C1123 1.502 . S
C1122 C1124 1.561 . S
C1122 C1125 1.526 . S
C1123 H1107 0.959 . S
C1123 H1108 0.959 . S
C1123 H1109 0.961 . S
C1123 C1122 1.502 . S
C1124 H1110 0.960 . S
C1124 H1111 0.961 . S
C1124 H1112 0.959 . S
C1124 C1122 1.561 . S
C1125 C1122 1.526 . S
C1125 C1126 1.396 . S
C1125 C1130 1.390 . S
C1126 C1120 1.465 . S
C1126 C1125 1.396 . S
C1126 C1127 1.399 . S
C1127 H1113 0.929 . S
C1127 C1126 1.399 . S
C1127 C1128 1.385 . S
C1128 H1114 0.931 . S
C1128 C1127 1.385 . S
C1128 C1129 1.389 . S
C1129 C1128 1.389 . S
C1129 C1130 1.387 . S
C1130 H1115 0.930 . S
C1130 C1125 1.390 . S
C1130 C1129 1.387 . S
H1131 C1143 0.930 . S
H1132 C1145 0.930 . S
H1133 C1146 0.930 . S
H1134 C1150 0.959 . S
H1135 C1150 0.959 . S
H1136 C1150 0.961 . S
H1137 C1151 0.960 . S
H1138 C1151 0.961 . S
H1139 C1151 0.959 . S
H1140 C1154 0.929 . S
H1141 C1155 0.931 . S
H1142 C1157 0.930 . S
C1143 H1131 0.930 . S
C1143 C1144 1.399 . S
C1143 C1148 1.399 . S
C1144 C1143 1.399 . S
C1144 C1145 1.376 . S
C1145 H1132 0.930 . S
C1145 C1144 1.376 . S
C1145 C1146 1.388 . S
C1146 H1133 0.930 . S
C1146 C1145 1.388 . S
C1146 C1147 1.390 . S
C1147 C1146 1.390 . S
C1147 C1148 1.394 . S
C1147 C1153 1.465 . S
C1148 C1143 1.399 . S
C1148 C1147 1.394 . S
C1148 C1149 1.516 . S
C1149 C1148 1.516 . S
C1149 C1150 1.502 . S
C1149 C1151 1.561 . S
C1149 C1152 1.526 . S
C1150 H1134 0.959 . S
C1150 H1135 0.959 . S
C1150 H1136 0.961 . S
C1150 C1149 1.502 . S
C1151 H1137 0.960 . S
C1151 H1138 0.961 . S
C1151 H1139 0.959 . S
C1151 C1149 1.561 . S
C1152 C1149 1.526 . S
C1152 C1153 1.396 . S
C1152 C1157 1.390 . S
C1153 C1147 1.465 . S
C1153 C1152 1.396 . S
C1153 C1154 1.399 . S
C1154 H1140 0.929 . S
C1154 C1153 1.399 . S
C1154 C1155 1.385 . S
C1155 H1141 0.931 . S
C1155 C1154 1.385 . S
C1155 C1156 1.389 . S
C1156 C1155 1.389 . S
C1156 C1157 1.387 . S
C1157 H1142 0.930 . S
C1157 C1152 1.390 . S
C1157 C1156 1.387 . S
H1158 C1170 0.930 . S
H1159 C1172 0.930 . S
H1160 C1173 0.930 . S
H1161 C1177 0.959 . S
H1162 C1177 0.959 . S
H1163 C1177 0.961 . S
H1164 C1178 0.945 1_554 S
H1165 C1178 0.961 . S
H1166 C1178 0.959 . S
H1167 C1181 0.929 . S
H1168 C1182 0.931 . S
H1169 C1184 0.930 . S
C1170 H1158 0.930 . S
C1170 C1171 1.399 . S
C1170 C1175 1.399 . S
C1171 C1170 1.399 . S
C1171 C1172 1.376 . S
C1172 H1159 0.930 . S
C1172 C1171 1.376 . S
C1172 C1173 1.388 . S
C1173 H1160 0.930 . S
C1173 C1172 1.388 . S
C1173 C1174 1.390 . S
C1174 C1173 1.390 . S
C1174 C1175 1.394 . S
C1174 C1180 1.465 . S
C1175 C1170 1.399 . S
C1175 C1174 1.394 . S
C1175 C1176 1.516 . S
C1176 C1175 1.516 . S
C1176 C1177 1.502 . S
C1176 C1178 1.561 . S
C1176 C1179 1.526 . S
C1177 H1161 0.959 . S
C1177 H1162 0.959 . S
C1177 H1163 0.961 . S
C1177 C1176 1.502 . S
C1178 H1164 0.945 1_556 S
C1178 H1165 0.961 . S
C1178 H1166 0.959 . S
C1178 C1176 1.561 . S
C1179 C1176 1.526 . S
C1179 C1180 1.396 . S
C1179 C1184 1.390 . S
C1180 C1174 1.465 . S
C1180 C1179 1.396 . S
C1180 C1181 1.399 . S
C1181 H1167 0.929 . S
C1181 C1180 1.399 . S
C1181 C1182 1.385 . S
C1182 H1168 0.931 . S
C1182 C1181 1.385 . S
C1182 C1183 1.389 . S
C1183 C1182 1.389 . S
C1183 C1184 1.387 . S
C1184 H1169 0.930 . S
C1184 C1179 1.390 . S
C1184 C1183 1.387 . S
H1185 C1197 0.930 . S
H1186 C1199 0.930 . S
H1187 C1200 0.930 . S
H1188 C1204 0.959 . S
H1189 C1204 0.959 . S
H1190 C1204 0.961 . S
H1191 C1205 0.960 . S
H1192 C1205 0.961 . S
H1193 C1205 0.959 . S
H1194 C1208 0.929 . S
H1195 C1209 0.931 . S
H1196 C1211 0.930 . S
C1197 H1185 0.930 . S
C1197 C1198 1.399 . S
C1197 C1202 1.399 . S
C1198 C1197 1.399 . S
C1198 C1199 1.376 . S
C1199 H1186 0.930 . S
C1199 C1198 1.376 . S
C1199 C1200 1.388 . S
C1200 H1187 0.930 . S
C1200 C1199 1.388 . S
C1200 C1201 1.390 . S
C1201 C1200 1.390 . S
C1201 C1202 1.394 . S
C1201 C1207 1.465 . S
C1202 C1197 1.399 . S
C1202 C1201 1.394 . S
C1202 C1203 1.516 . S
C1203 C1202 1.516 . S
C1203 C1204 1.502 . S
C1203 C1205 1.561 . S
C1203 C1206 1.526 . S
C1204 H1188 0.959 . S
C1204 H1189 0.959 . S
C1204 H1190 0.961 . S
C1204 C1203 1.502 . S
C1205 H1191 0.960 . S
C1205 H1192 0.961 . S
C1205 H1193 0.959 . S
C1205 C1203 1.561 . S
C1206 C1203 1.526 . S
C1206 C1207 1.396 . S
C1206 C1211 1.390 1_655 S
C1207 C1201 1.465 . S
C1207 C1206 1.396 . S
C1207 C1208 1.399 1_655 S
C1208 H1194 0.929 . S
C1208 C1207 1.399 1_455 S
C1208 C1209 1.385 . S
C1209 H1195 0.931 . S
C1209 C1208 1.385 . S
C1209 C1210 1.389 . S
C1210 C1209 1.389 . S
C1210 C1211 1.387 . S
C1211 H1196 0.930 . S
C1211 C1206 1.390 1_455 S
C1211 C1210 1.387 . S
C253 C9 1.278 . S
C265 C229 1.283 . S
C280 C199 1.408 . S
C292 C29 1.497 . S
C307 C59 1.268 . S
C319 C179 1.245 . S
C334 C69 1.774 . S
C346 C209 1.771 . S
C361 C89 1.533 . S
C373 C219 1.457 . S
C388 C119 1.250 . S
C400 C239 1.266 . S
C415 C189 1.623 . S
C427 C129 1.617 1_556 S
C442 C159 1.396 . S
C454 C169 1.527 . S
C469 C79 1.617 . S
C481 C99 1.613 . S
C496 C19 1.457 . S
C508 C109 1.525 . S
C523 C39 1.344 1_655 S
C535 C139 1.304 . S
C550 C149 1.676 . S
C562 C49 1.668 . S
C577 C2 1.607 . S
C589 C178 1.564 . S
C604 C22 1.526 . S
C616 C208 1.450 . S
C631 C228 1.487 . S
C643 C41 1.557 . S
C658 C62 1.373 . S
C670 C198 1.354 . S
C685 C82 1.334 . S
C697 C188 1.333 . S
C712 C168 1.285 . S
C724 C101 1.266 . S
C739 C218 1.225 . S
C751 C122 1.244 . S
C766 C238 2.123 . S
C778 C141 2.031 . S
C793 C18 1.676 . S
C805 C61 1.565 . S
C820 C1 1.573 . S
C832 C38 1.578 . S
C847 C21 1.391 . S
C859 C48 1.334 . S
C874 C78 1.339 . S
C886 C42 1.342 . S
C901 C102 1.370 . S
C913 C98 1.374 . S
C928 C108 1.607 . S
C940 C121 1.530 . S
C955 C138 1.510 . S
C967 C142 1.540 . S
C982 C81 1.123 . S
C994 C148 1.193 . S
C1009 C162 0.727 . S
C1021 C68 0.709 . S
C1036 C118 1.295 . S
C1048 C181 1.295 . S
C1063 C161 1.263 . S
C1075 C128 1.235 . S
C1090 C202 1.573 . S
C1102 C158 1.572 . S
C1117 C88 1.159 . S
C1129 C222 1.157 . S
C1144 C221 1.425 . S
C1156 C28 1.418 . S
C1171 C58 1.440 . S
C1183 C182 1.461 . S
C1198 C201 1.400 . S
C1210 C8 1.436 . S
