# Generated by pormake.
# Topology upc, (4)-cn, num edge types: 1
# Building blocks:
#     Node 0, Type 0, BuildingBlock: CEKHIL_clean_sbu_0, # of connection points: 4
#     Node 1, Type 0, BuildingBlock: CEKHIL_clean_sbu_0, # of connection points: 4
#     Node 2, Type 0, BuildingBlock: CEKHIL_clean_sbu_0, # of connection points: 4
#     Node 3, Type 0, BuildingBlock: CEKHIL_clean_sbu_0, # of connection points: 4
#     Node 4, Type 0, BuildingBlock: CEKHIL_clean_sbu_0, # of connection points: 4
#     Node 5, Type 0, BuildingBlock: CEKHIL_clean_sbu_0, # of connection points: 4
#     Node 6, Type 0, BuildingBlock: CEKHIL_clean_sbu_0, # of connection points: 4
#     Node 7, Type 0, BuildingBlock: CEKHIL_clean_sbu_0, # of connection points: 4
#     Node 8, Type 0, BuildingBlock: CEKHIL_clean_sbu_0, # of connection points: 4
#     Node 9, Type 0, BuildingBlock: CEKHIL_clean_sbu_0, # of connection points: 4
#     Node 10, Type 0, BuildingBlock: CEKHIL_clean_sbu_0, # of connection points: 4
#     Node 11, Type 0, BuildingBlock: CEKHIL_clean_sbu_0, # of connection points: 4
#     Node 12, Type 0, BuildingBlock: CEKHIL_clean_sbu_0, # of connection points: 4
#     Node 13, Type 0, BuildingBlock: CEKHIL_clean_sbu_0, # of connection points: 4
#     Node 14, Type 0, BuildingBlock: CEKHIL_clean_sbu_0, # of connection points: 4
#     Node 15, Type 0, BuildingBlock: CEKHIL_clean_sbu_0, # of connection points: 4
#     Edge 16, Type (0, 0), BuildingBlock: XIVTED_clean_linker_0, # of connection points: 2
#     Edge 17, Type (0, 0), BuildingBlock: XIVTED_clean_linker_0, # of connection points: 2
#     Edge 18, Type (0, 0), BuildingBlock: XIVTED_clean_linker_0, # of connection points: 2
#     Edge 19, Type (0, 0), BuildingBlock: XIVTED_clean_linker_0, # of connection points: 2
#     Edge 20, Type (0, 0), BuildingBlock: XIVTED_clean_linker_0, # of connection points: 2
#     Edge 21, Type (0, 0), BuildingBlock: XIVTED_clean_linker_0, # of connection points: 2
#     Edge 22, Type (0, 0), BuildingBlock: XIVTED_clean_linker_0, # of connection points: 2
#     Edge 23, Type (0, 0), BuildingBlock: XIVTED_clean_linker_0, # of connection points: 2
#     Edge 24, Type (0, 0), BuildingBlock: XIVTED_clean_linker_0, # of connection points: 2
#     Edge 25, Type (0, 0), BuildingBlock: XIVTED_clean_linker_0, # of connection points: 2
#     Edge 26, Type (0, 0), BuildingBlock: XIVTED_clean_linker_0, # of connection points: 2
#     Edge 27, Type (0, 0), BuildingBlock: XIVTED_clean_linker_0, # of connection points: 2
#     Edge 28, Type (0, 0), BuildingBlock: XIVTED_clean_linker_0, # of connection points: 2
#     Edge 29, Type (0, 0), BuildingBlock: XIVTED_clean_linker_0, # of connection points: 2
#     Edge 30, Type (0, 0), BuildingBlock: XIVTED_clean_linker_0, # of connection points: 2
#     Edge 31, Type (0, 0), BuildingBlock: XIVTED_clean_linker_0, # of connection points: 2
#     Edge 32, Type (0, 0), BuildingBlock: XIVTED_clean_linker_0, # of connection points: 2
#     Edge 33, Type (0, 0), BuildingBlock: XIVTED_clean_linker_0, # of connection points: 2
#     Edge 34, Type (0, 0), BuildingBlock: XIVTED_clean_linker_0, # of connection points: 2
#     Edge 35, Type (0, 0), BuildingBlock: XIVTED_clean_linker_0, # of connection points: 2
#     Edge 36, Type (0, 0), BuildingBlock: XIVTED_clean_linker_0, # of connection points: 2
#     Edge 37, Type (0, 0), BuildingBlock: XIVTED_clean_linker_0, # of connection points: 2
#     Edge 38, Type (0, 0), BuildingBlock: XIVTED_clean_linker_0, # of connection points: 2
#     Edge 39, Type (0, 0), BuildingBlock: XIVTED_clean_linker_0, # of connection points: 2
#     Edge 40, Type (0, 0), BuildingBlock: XIVTED_clean_linker_0, # of connection points: 2
#     Edge 41, Type (0, 0), BuildingBlock: XIVTED_clean_linker_0, # of connection points: 2
#     Edge 42, Type (0, 0), BuildingBlock: XIVTED_clean_linker_0, # of connection points: 2
#     Edge 43, Type (0, 0), BuildingBlock: XIVTED_clean_linker_0, # of connection points: 2
#     Edge 44, Type (0, 0), BuildingBlock: XIVTED_clean_linker_0, # of connection points: 2
#     Edge 45, Type (0, 0), BuildingBlock: XIVTED_clean_linker_0, # of connection points: 2
#     Edge 46, Type (0, 0), BuildingBlock: XIVTED_clean_linker_0, # of connection points: 2
#     Edge 47, Type (0, 0), BuildingBlock: XIVTED_clean_linker_0, # of connection points: 2
# Relax obj value: 0.268
# Max RMSD: 0.292
# Mean RMSD: 0.292
data_MOF--net-upc--node1-CEKHIL_clean_sbu_0--edge1-XIVTED_clean_linker_0
_symmetry_space_group_name_H-M    P1
_symmetry_Int_Tables_number       1
_symmetry_cell_setting            triclinic
loop_
_symmetry_equiv_pos_as_xyz
'x, y, z'
_cell_length_a     33.25125
_cell_length_b     33.25423
_cell_length_c     43.143781
_cell_angle_alpha  89.981862
_cell_angle_beta   89.989073
_cell_angle_gamma 89.99153
loop_
_atom_site_label
_atom_site_type_symbol
_atom_site_fract_x
_atom_site_fract_y
_atom_site_fract_z
_atom_type_partial_charge
Co0 Co 0.12135 0.5787 0.124 0.0
O1 O 0.12339 0.541 0.09029 0.0
O2 O 0.06747 0.56409 0.11189 0.0
C3 C 0.1657 0.62354 0.10498 0.0
O4 O 0.10737 0.61911 0.15774 0.0
Co5 Co 0.19669 0.59461 0.16455 0.0
O6 O 0.16625 0.64418 0.17467 0.0
C7 C 0.1456 0.52448 0.17843 0.0
C8 C 0.08435 0.54224 0.09053 0.0
C9 C 0.12808 0.64555 0.17247 0.0
O10 O 0.12264 0.5338 0.15549 0.0
O11 O 0.17741 0.54416 0.18545 0.0
O12 O 0.12874 0.62315 0.09536 0.0
O13 O 0.17599 0.59362 0.12254 0.0
Co14 Co 0.91122 0.11755 0.12387 0.0
O15 O 0.94595 0.12038 0.08809 0.0
O16 O 0.92194 0.06419 0.10852 0.0
C17 C 0.86695 0.16567 0.11006 0.0
O18 O 0.87328 0.10271 0.15916 0.0
Co19 Co 0.90546 0.19083 0.16867 0.0
O20 O 0.86596 0.15647 0.19054 0.0
C21 C 0.97473 0.1366 0.17368 0.0
C22 C 0.94302 0.08145 0.0869 0.0
C23 C 0.85808 0.12029 0.18301 0.0
O24 O 0.95917 0.11381 0.15271 0.0
O25 O 0.9595 0.17039 0.18162 0.0
O26 O 0.86465 0.1299 0.09817 0.0
O27 O 0.89893 0.17272 0.12629 0.0
Co28 Co 0.36895 0.92327 0.12522 0.0
O29 O 0.36821 0.96139 0.09167 0.0
O30 O 0.42326 0.93808 0.11436 0.0
C31 C 0.32519 0.87866 0.10523 0.0
O32 O 0.3815 0.88247 0.15917 0.0
Co33 Co 0.29205 0.90775 0.16413 0.0
O34 O 0.32182 0.8581 0.17509 0.0
C35 C 0.34317 0.97724 0.17939 0.0
C36 C 0.40721 0.96046 0.09293 0.0
C37 C 0.36004 0.85635 0.17366 0.0
O38 O 0.36673 0.96791 0.15684 0.0
O39 O 0.311 0.95777 0.18578 0.0
O40 O 0.36245 0.87904 0.09626 0.0
O41 O 0.31437 0.90857 0.12259 0.0
Co42 Co 0.5736 0.37868 0.12986 0.0
O43 O 0.53607 0.37642 0.09592 0.0
O44 O 0.56229 0.43217 0.11563 0.0
C45 C 0.61602 0.33039 0.11309 0.0
O46 O 0.61464 0.39355 0.16275 0.0
Co47 Co 0.58537 0.3063 0.17437 0.0
O48 O 0.63553 0.33573 0.18448 0.0
C49 C 0.51613 0.36011 0.18372 0.0
C50 C 0.53986 0.41531 0.09469 0.0
C51 C 0.63933 0.37324 0.17938 0.0
O52 O 0.52839 0.38218 0.16107 0.0
O53 O 0.53353 0.32738 0.19175 0.0
O54 O 0.61752 0.36643 0.10163 0.0
O55 O 0.58584 0.32334 0.13134 0.0
Co56 Co 0.1084 0.91641 0.37187 0.0
O57 O 0.10933 0.9513 0.40725 0.0
O58 O 0.05405 0.92935 0.38406 0.0
C59 C 0.15304 0.8709 0.38935 0.0
O60 O 0.09575 0.87874 0.33607 0.0
Co61 Co 0.18613 0.90591 0.33238 0.0
O62 O 0.15398 0.86346 0.31193 0.0
C63 C 0.13388 0.97593 0.32111 0.0
C64 C 0.07034 0.94966 0.40656 0.0
C65 C 0.11622 0.85928 0.31575 0.0
O66 O 0.10973 0.96379 0.34251 0.0
O67 O 0.16692 0.95815 0.3145 0.0
O68 O 0.11583 0.86971 0.39836 0.0
O69 O 0.16318 0.90236 0.37351 0.0
Co70 Co 0.57509 0.12162 0.36951 0.0
O71 O 0.54147 0.12496 0.40587 0.0
O72 O 0.56583 0.06858 0.38598 0.0
C73 C 0.61885 0.17075 0.38199 0.0
O74 O 0.61225 0.10628 0.33389 0.0
Co75 Co 0.57893 0.19355 0.32337 0.0
O76 O 0.61858 0.15926 0.30161 0.0
C77 C 0.50965 0.1389 0.32091 0.0
C78 C 0.54538 0.08617 0.4078 0.0
C79 C 0.62693 0.12334 0.30963 0.0
O80 O 0.5263 0.11649 0.34165 0.0
O81 O 0.52432 0.17267 0.31231 0.0
O82 O 0.62212 0.13527 0.39422 0.0
O83 O 0.58647 0.17694 0.36602 0.0
Co84 Co 0.3786 0.58567 0.37609 0.0
O85 O 0.37877 0.55078 0.41156 0.0
O86 O 0.43332 0.57364 0.38784 0.0
C87 C 0.33329 0.63049 0.39346 0.0
O88 O 0.39 0.62348 0.34001 0.0
Co89 Co 0.30034 0.59379 0.33697 0.0
O90 O 0.33118 0.63686 0.31604 0.0
C91 C 0.35356 0.52452 0.3263 0.0
C92 C 0.41773 0.55269 0.41031 0.0
C93 C 0.36883 0.6422 0.31966 0.0
O94 O 0.3779 0.53804 0.34704 0.0
O95 O 0.31993 0.54125 0.31985 0.0
O96 O 0.3705 0.63236 0.40243 0.0
O97 O 0.32361 0.59862 0.37794 0.0
Co98 Co 0.91251 0.38818 0.36881 0.0
O99 O 0.94345 0.38524 0.40636 0.0
O100 O 0.92303 0.44164 0.38383 0.0
C101 C 0.86587 0.34157 0.38087 0.0
O102 O 0.87887 0.40304 0.33128 0.0
Co103 Co 0.90983 0.31348 0.32527 0.0
O104 O 0.87383 0.34842 0.30056 0.0
C105 C 0.98016 0.36668 0.32296 0.0
C106 C 0.94149 0.42425 0.40677 0.0
C107 C 0.86614 0.38507 0.30684 0.0
O108 O 0.96318 0.39009 0.34282 0.0
O109 O 0.96513 0.33295 0.31464 0.0
O110 O 0.86324 0.37776 0.3919 0.0
O111 O 0.89914 0.33326 0.36665 0.0
Co112 Co 0.89557 0.4163 0.86719 0.0
O113 O 0.8912 0.44978 0.90348 0.0
O114 O 0.94823 0.42639 0.88389 0.0
C115 C 0.84709 0.37164 0.87926 0.0
O116 O 0.91215 0.37952 0.8319 0.0
Co117 Co 0.8246 0.41111 0.82036 0.0
O118 O 0.85987 0.37174 0.79921 0.0
C119 C 0.87831 0.4811 0.81805 0.0
C120 C 0.93005 0.44645 0.90562 0.0
C121 C 0.89584 0.36431 0.80761 0.0
O122 O 0.90033 0.46509 0.8393 0.0
O123 O 0.84503 0.46579 0.80899 0.0
O124 O 0.88244 0.36904 0.89179 0.0
O125 O 0.84048 0.40393 0.86324 0.0
Co126 Co 0.08329 0.87619 0.87636 0.0
O127 O 0.05034 0.87769 0.91285 0.0
O128 O 0.07222 0.93153 0.88781 0.0
C129 C 0.12863 0.83088 0.89335 0.0
O130 O 0.11908 0.88547 0.83857 0.0
Co131 Co 0.08711 0.79558 0.83953 0.0
O132 O 0.12744 0.82545 0.81494 0.0
C133 C 0.01955 0.85088 0.82852 0.0
C134 C 0.05226 0.91656 0.91109 0.0
C135 C 0.1344 0.86303 0.81728 0.0
O136 O 0.03418 0.87536 0.84872 0.0
O137 O 0.03503 0.81651 0.82256 0.0
O138 O 0.13138 0.86839 0.90135 0.0
O139 O 0.09575 0.82109 0.87922 0.0
Co140 Co 0.61362 0.09121 0.8798 0.0
O141 O 0.61353 0.06213 0.91827 0.0
O142 O 0.55931 0.08718 0.89549 0.0
C143 C 0.66512 0.1331 0.89018 0.0
O144 O 0.60283 0.12387 0.8408 0.0
Co145 Co 0.68843 0.08096 0.83695 0.0
O146 O 0.65766 0.11841 0.81022 0.0
C147 C 0.62661 0.01841 0.8366 0.0
C148 C 0.57494 0.06791 0.91882 0.0
C149 C 0.62234 0.13157 0.81573 0.0
O150 O 0.60569 0.03996 0.85542 0.0
O151 O 0.66243 0.02763 0.8284 0.0
O152 O 0.62951 0.14025 0.90118 0.0
O153 O 0.66967 0.09824 0.87729 0.0
Co154 Co 0.41553 0.60755 0.8744 0.0
O155 O 0.45237 0.60896 0.90868 0.0
O156 O 0.42829 0.55354 0.8869 0.0
C157 C 0.37176 0.65354 0.89262 0.0
O158 O 0.37598 0.59372 0.84031 0.0
Co159 Co 0.40052 0.68206 0.83282 0.0
O160 O 0.35073 0.65196 0.82247 0.0
C161 C 0.4704 0.62958 0.82006 0.0
C162 C 0.44993 0.56995 0.90856 0.0
C163 C 0.34964 0.61385 0.82513 0.0
O164 O 0.46104 0.60735 0.84343 0.0
O165 O 0.45087 0.66133 0.81254 0.0
O166 O 0.37054 0.61664 0.90237 0.0
O167 O 0.40207 0.66254 0.8751 0.0
Co168 Co 0.88533 0.07707 0.63049 0.0
O169 O 0.88065 0.04121 0.59555 0.0
O170 O 0.93795 0.06364 0.61534 0.0
C171 C 0.83912 0.1227 0.61549 0.0
O172 O 0.9027 0.11568 0.66433 0.0
Co173 Co 0.81361 0.08966 0.6758 0.0
O174 O 0.8503 0.12864 0.69591 0.0
C175 C 0.86407 0.01763 0.6826 0.0
C176 C 0.91967 0.043 0.59402 0.0
C177 C 0.88677 0.13353 0.68768 0.0
O178 O 0.88711 0.03034 0.66065 0.0
O179 O 0.83157 0.03548 0.69051 0.0
O180 O 0.87492 0.12291 0.60356 0.0
O181 O 0.83075 0.09209 0.63289 0.0
Co182 Co 0.4195 0.88392 0.623 0.0
O183 O 0.45977 0.8876 0.59127 0.0
O184 O 0.42758 0.93965 0.61153 0.0
C185 C 0.38254 0.83436 0.60174 0.0
O186 O 0.37497 0.89079 0.65505 0.0
Co187 Co 0.41417 0.80525 0.66171 0.0
O188 O 0.36085 0.8284 0.67239 0.0
C189 C 0.47528 0.86526 0.67801 0.0
C190 C 0.45323 0.92606 0.59128 0.0
C191 C 0.35272 0.86576 0.67003 0.0
O192 O 0.46126 0.88846 0.65671 0.0
O193 O 0.46277 0.8293 0.68242 0.0
O194 O 0.37898 0.87117 0.59221 0.0
O195 O 0.41246 0.82782 0.62034 0.0
Co196 Co 0.62199 0.41178 0.62031 0.0
O197 O 0.62278 0.44974 0.58657 0.0
O198 O 0.5681 0.42052 0.60547 0.0
C199 C 0.67284 0.37202 0.60401 0.0
O200 O 0.60927 0.36983 0.65327 0.0
Co201 Co 0.69494 0.40473 0.66504 0.0
O202 O 0.66787 0.35367 0.67627 0.0
C203 C 0.63668 0.47026 0.67431 0.0
C204 C 0.58412 0.44436 0.58503 0.0
C205 C 0.63078 0.34726 0.67087 0.0
O206 O 0.61547 0.45659 0.65165 0.0
O207 O 0.67057 0.45516 0.68224 0.0
O208 O 0.63717 0.36864 0.5921 0.0
O209 O 0.67785 0.40267 0.62214 0.0
Co210 Co 0.09405 0.61351 0.61857 0.0
O211 O 0.05752 0.61714 0.58416 0.0
O212 O 0.07706 0.56043 0.6067 0.0
C213 C 0.14125 0.65576 0.60024 0.0
O214 O 0.13209 0.59739 0.65309 0.0
Co215 Co 0.11382 0.68765 0.65938 0.0
O216 O 0.16069 0.65395 0.67115 0.0
C217 C 0.04048 0.64048 0.6724 0.0
C218 C 0.05643 0.5781 0.58503 0.0
C219 C 0.15917 0.61583 0.66873 0.0
O220 O 0.04842 0.61734 0.64926 0.0
O221 O 0.06213 0.67086 0.67978 0.0
O222 O 0.14 0.6187 0.59085 0.0
O223 O 0.11144 0.66727 0.61737 0.0
H224 H 0.24683 0.63185 0.11442 0.0
H225 H 0.24377 0.87045 0.11293 0.0
H226 H 0.14045 0.69884 0.0896 0.0
H227 H 0.35103 0.80312 0.09111 0.0
H228 H 0.20486 0.80769 0.11081 0.0
H229 H 0.28587 0.69456 0.11236 0.0
C230 C 0.23181 0.65966 0.10834 0.0
C231 C 0.19049 0.66017 0.10196 0.0
C232 C 0.23688 0.80684 0.10626 0.0
C233 C 0.2345 0.73174 0.10024 0.0
C234 C 0.25901 0.84255 0.10747 0.0
C235 C 0.30054 0.84197 0.10196 0.0
C236 C 0.25666 0.77032 0.10022 0.0
C237 C 0.31896 0.80497 0.0952 0.0
C238 C 0.25402 0.69533 0.10714 0.0
C239 C 0.17236 0.69704 0.09439 0.0
N240 N 0.29698 0.77055 0.09483 0.0
N241 N 0.19438 0.73143 0.09404 0.0
H242 H 0.84129 0.21828 0.15484 0.0
H243 H 0.67279 0.33059 0.0677 0.0
H244 H 0.8126 0.17408 0.0635 0.0
H245 H 0.639 0.2685 0.1516 0.0
H246 H 0.73497 0.29073 0.06588 0.0
H247 H 0.77785 0.25638 0.15495 0.0
C248 C 0.822 0.21705 0.13469 0.0
C249 C 0.832 0.19294 0.10915 0.0
C250 C 0.71374 0.28599 0.08458 0.0
C251 C 0.76045 0.23673 0.109 0.0
C252 C 0.67835 0.3085 0.08565 0.0
C253 C 0.65085 0.30306 0.10999 0.0
C254 C 0.72219 0.25891 0.10854 0.0
C255 C 0.6595 0.27394 0.1326 0.0
C256 C 0.78583 0.23847 0.1349 0.0
C257 C 0.80582 0.19229 0.08364 0.0
N258 N 0.6949 0.25341 0.13168 0.0
N259 N 0.77132 0.21423 0.08404 0.0
H260 H 0.13135 0.79425 0.40402 0.0
H261 H 0.35429 0.70763 0.40711 0.0
H262 H 0.23477 0.8673 0.38203 0.0
H263 H 0.25168 0.63349 0.3851 0.0
H264 H 0.31046 0.76668 0.40798 0.0
H265 H 0.175 0.73516 0.40704 0.0
C266 C 0.16332 0.79791 0.40009 0.0
C267 C 0.17958 0.83568 0.39275 0.0
C268 C 0.29758 0.73745 0.40308 0.0
C269 C 0.22948 0.76834 0.39637 0.0
C270 C 0.32244 0.70371 0.40276 0.0
C271 C 0.30649 0.66564 0.396 0.0
C272 C 0.25638 0.73298 0.39712 0.0
C273 C 0.26512 0.66235 0.39034 0.0
C274 C 0.1881 0.76416 0.40166 0.0
C275 C 0.2211 0.83867 0.38768 0.0
N276 N 0.24137 0.69563 0.39114 0.0
N277 N 0.24474 0.8054 0.38972 0.0
H278 H 0.84149 0.28797 0.33639 0.0
H279 H 0.67008 0.18317 0.42989 0.0
H280 H 0.81022 0.33448 0.42652 0.0
H281 H 0.64554 0.22162 0.33633 0.0
H282 H 0.73083 0.22522 0.43003 0.0
H283 H 0.77883 0.24849 0.33639 0.0
C284 C 0.82175 0.28942 0.3563 0.0
C285 C 0.83089 0.31438 0.38152 0.0
C286 C 0.71194 0.22448 0.40958 0.0
C287 C 0.76016 0.26922 0.38181 0.0
C288 C 0.6774 0.20069 0.40948 0.0
C289 C 0.65279 0.1992 0.38312 0.0
C290 C 0.72263 0.24566 0.38275 0.0
C291 C 0.66361 0.22221 0.35716 0.0
C292 C 0.786 0.26727 0.35614 0.0
C293 C 0.80414 0.31553 0.40666 0.0
N294 N 0.69823 0.24408 0.35741 0.0
N295 N 0.77013 0.29289 0.40636 0.0
H296 H 0.79476 0.34496 0.83453 0.0
H297 H 0.68094 0.18672 0.93568 0.0
H298 H 0.8363 0.32023 0.92727 0.0
H299 H 0.71734 0.15313 0.84334 0.0
H300 H 0.72602 0.24506 0.93302 0.0
H301 H 0.75295 0.28382 0.83678 0.0
C302 C 0.79467 0.32698 0.85544 0.0
C303 C 0.81882 0.33754 0.88081 0.0
C304 C 0.72426 0.2247 0.91346 0.0
C305 C 0.77113 0.26853 0.88359 0.0
C306 C 0.69875 0.19149 0.91497 0.0
C307 C 0.69581 0.16503 0.88979 0.0
C308 C 0.74577 0.23227 0.88616 0.0
C309 C 0.71915 0.17266 0.86334 0.0
C310 C 0.77123 0.29205 0.85657 0.0
C311 C 0.81802 0.31303 0.90726 0.0
N312 N 0.74278 0.20609 0.86196 0.0
N313 N 0.79417 0.27988 0.90814 0.0
H314 H 0.36884 0.73491 0.88405 0.0
H315 H 0.13042 0.74889 0.88618 0.0
H316 H 0.2947 0.63289 0.90756 0.0
H317 H 0.20627 0.85103 0.90586 0.0
H318 H 0.19001 0.70523 0.88828 0.0
H319 H 0.30907 0.77806 0.88624 0.0
C320 C 0.34003 0.7217 0.88987 0.0
C321 C 0.33669 0.68041 0.89582 0.0
C322 C 0.19342 0.73719 0.89233 0.0
C323 C 0.26831 0.72921 0.89775 0.0
C324 C 0.15953 0.76205 0.89107 0.0
C325 C 0.16346 0.80355 0.89592 0.0
C326 C 0.23146 0.75418 0.89784 0.0
C327 C 0.20187 0.81914 0.90212 0.0
C328 C 0.30601 0.74626 0.89115 0.0
C329 C 0.29864 0.66469 0.9031 0.0
N330 N 0.23443 0.79451 0.90261 0.0
N331 N 0.26581 0.68904 0.90357 0.0
H332 H 0.67518 0.3121 0.56099 0.0
H333 H 0.78821 0.1545 0.65898 0.0
H334 H 0.73543 0.35422 0.64341 0.0
H335 H 0.83113 0.17191 0.5656 0.0
H336 H 0.75057 0.21804 0.65496 0.0
H337 H 0.71644 0.25083 0.56257 0.0
C338 C 0.6972 0.3086 0.5793 0.0
C339 C 0.70153 0.33809 0.60235 0.0
C340 C 0.76814 0.2076 0.6354 0.0
C341 C 0.7473 0.2678 0.60477 0.0
C342 C 0.78924 0.17136 0.63754 0.0
C343 C 0.81274 0.15812 0.61257 0.0
C344 C 0.76959 0.22978 0.60778 0.0
C345 C 0.81333 0.18125 0.58535 0.0
C346 C 0.72052 0.27371 0.58016 0.0
C347 C 0.73068 0.33208 0.62544 0.0
N348 N 0.79166 0.21584 0.58349 0.0
N349 N 0.75192 0.29713 0.62648 0.0
H350 H 0.21863 0.62989 0.59225 0.0
H351 H 0.30944 0.84983 0.57642 0.0
H352 H 0.14703 0.73739 0.60153 0.0
H353 H 0.37907 0.75389 0.61725 0.0
H354 H 0.25156 0.80514 0.57367 0.0
H355 H 0.27959 0.67169 0.59034 0.0
C356 C 0.21574 0.6623 0.59345 0.0
C357 C 0.17783 0.68039 0.59688 0.0
C358 C 0.27957 0.7938 0.58305 0.0
C359 C 0.24698 0.72794 0.59448 0.0
C360 C 0.31276 0.81917 0.58449 0.0
C361 C 0.34915 0.8056 0.59724 0.0
C362 C 0.28279 0.75428 0.59397 0.0
C363 C 0.35152 0.76553 0.60734 0.0
C364 C 0.25046 0.68598 0.59261 0.0
C365 C 0.17571 0.72236 0.59883 0.0
N366 N 0.31867 0.74113 0.60547 0.0
N367 N 0.20981 0.74477 0.59738 0.0
H368 H 0.02906 0.43081 0.33726 0.0
H369 H 0.09744 0.45989 0.16534 0.0
H370 H 0.01117 0.33826 0.26842 0.0
H371 H 0.16107 0.5173 0.24042 0.0
H372 H 0.06579 0.41451 0.20277 0.0
H373 H 0.07829 0.46282 0.30297 0.0
C374 C 0.03599 0.41678 0.31524 0.0
C375 C 0.01557 0.38197 0.30564 0.0
C376 C 0.08726 0.43656 0.21098 0.0
C377 C 0.07122 0.4189 0.26611 0.0
C378 C 0.10526 0.46248 0.18963 0.0
C379 C 0.13181 0.49248 0.19978 0.0
C380 C 0.09502 0.44136 0.24277 0.0
C381 C 0.14088 0.4945 0.23156 0.0
C382 C 0.06412 0.43506 0.2957 0.0
C383 C 0.02595 0.36512 0.27683 0.0
N384 N 0.1219 0.46983 0.25202 0.0
N385 N 0.05242 0.38417 0.25786 0.0
H386 H 0.02535 0.07342 0.1604 0.0
H387 H 0.08111 0.03707 0.33404 0.0
H388 H 0.00031 0.16275 0.23044 0.0
H389 H 0.15418 0.98801 0.2605 0.0
H390 H 0.05032 0.08317 0.29661 0.0
H391 H 0.07245 0.04088 0.19618 0.0
C392 C 0.03023 0.0866 0.18305 0.0
C393 C 0.00853 0.1207 0.19247 0.0
C394 C 0.07364 0.0628 0.28882 0.0
C395 C 0.06166 0.08317 0.23363 0.0
C396 C 0.09116 0.03649 0.31015 0.0
C397 C 0.12018 0.00864 0.30038 0.0
C398 C 0.08441 0.06042 0.25738 0.0
C399 C 0.13205 0.00914 0.2691 0.0
C400 C 0.05715 0.06805 0.20343 0.0
C401 C 0.01621 0.13648 0.22213 0.0
N402 N 0.11355 0.03404 0.24858 0.0
N403 N 0.04152 0.11715 0.24185 0.0
H404 H 0.47805 0.16736 0.26657 0.0
H405 H 0.32755 0.98326 0.24145 0.0
H406 H 0.46227 0.0732 0.3345 0.0
H407 H 0.39074 0.04243 0.1669 0.0
H408 H 0.36032 0.02858 0.2785 0.0
H409 H 0.42909 0.13405 0.23321 0.0
C410 C 0.46377 0.14012 0.27483 0.0
C411 C 0.47481 0.1228 0.30333 0.0
C412 C 0.36637 0.032 0.25397 0.0
C413 C 0.41854 0.0847 0.26506 0.0
C414 C 0.34751 0.00643 0.23278 0.0
C415 C 0.35664 0.00898 0.20104 0.0
C416 C 0.39391 0.06077 0.24325 0.0
C417 C 0.38308 0.03927 0.19118 0.0
C418 C 0.43595 0.12107 0.25563 0.0
C419 C 0.45506 0.08743 0.31262 0.0
N420 N 0.40089 0.06392 0.21222 0.0
N421 N 0.42805 0.06937 0.29343 0.0
H422 H 0.49672 0.33702 0.24278 0.0
H423 H 0.33108 0.50806 0.2667 0.0
H424 H 0.46056 0.41872 0.1701 0.0
H425 H 0.40893 0.46601 0.33992 0.0
H426 H 0.3635 0.46094 0.23097 0.0
H427 H 0.44939 0.36997 0.27793 0.0
C428 C 0.47831 0.36135 0.23398 0.0
C429 C 0.48301 0.37543 0.20347 0.0
C430 C 0.37292 0.46162 0.25499 0.0
C431 C 0.42874 0.41302 0.24367 0.0
C432 C 0.35429 0.48824 0.27548 0.0
C433 C 0.36754 0.49116 0.30633 0.0
C434 C 0.40453 0.43728 0.26555 0.0
C435 C 0.39802 0.46497 0.31629 0.0
C436 C 0.45148 0.38023 0.25415 0.0
C437 C 0.45829 0.40715 0.19349 0.0
N438 N 0.41562 0.43923 0.29591 0.0
N439 N 0.43235 0.42504 0.2136 0.0
H440 H 0.97389 0.59495 0.65946 0.0
H441 H 0.94332 0.52906 0.83209 0.0
H442 H 0.0339 0.65663 0.73432 0.0
H443 H 0.85119 0.51139 0.76285 0.0
H444 H 0.97645 0.57713 0.79748 0.0
H445 H 0.92768 0.56494 0.69705 0.0
C446 C 0.97688 0.60275 0.68373 0.0
C447 C 0.00788 0.62821 0.69376 0.0
C448 C 0.94856 0.56325 0.79016 0.0
C449 C 0.95578 0.59322 0.73696 0.0
C450 C 0.92964 0.53576 0.80989 0.0
C451 C 0.89461 0.51571 0.8003 0.0
C452 C 0.93278 0.57011 0.76041 0.0
C453 C 0.87824 0.52583 0.77126 0.0
C454 C 0.95049 0.58565 0.70518 0.0
C455 C 0.01035 0.63727 0.72553 0.0
N456 N 0.89785 0.5517 0.75215 0.0
N457 N 0.98517 0.61916 0.74609 0.0
H458 H 0.00342 0.82786 0.76905 0.0
H459 H 0.83771 0.99719 0.74056 0.0
H460 H 0.96294 0.90888 0.84073 0.0
H461 H 0.92327 0.96185 0.6703 0.0
H462 H 0.86857 0.94943 0.77636 0.0
H463 H 0.95888 0.86175 0.73216 0.0
C464 C 0.98439 0.85206 0.77727 0.0
C465 C 0.98703 0.8657 0.80805 0.0
C466 C 0.88012 0.95177 0.75295 0.0
C467 C 0.9361 0.90435 0.76591 0.0
C468 C 0.86243 0.97883 0.73236 0.0
C469 C 0.87815 0.98389 0.70234 0.0
C470 C 0.91334 0.92903 0.7434 0.0
C471 C 0.91037 0.95923 0.69325 0.0
C472 C 0.9593 0.87154 0.75611 0.0
C473 C 0.962 0.89753 0.81722 0.0
N474 N 0.92704 0.93296 0.71376 0.0
N475 N 0.93765 0.91588 0.7962 0.0
H476 H 0.54577 0.00507 0.83279 0.0
H477 H 0.5337 0.82807 0.71344 0.0
H478 H 0.65948 0.95842 0.80024 0.0
H479 H 0.47771 0.9431 0.69642 0.0
H480 H 0.57294 0.85904 0.75587 0.0
H481 H 0.51123 0.96291 0.79496 0.0
C482 C 0.56353 0.9852 0.81836 0.0
C483 C 0.60576 0.9858 0.81947 0.0
C484 C 0.55218 0.87723 0.74254 0.0
C485 C 0.56605 0.93732 0.77636 0.0
C486 C 0.52996 0.85977 0.71842 0.0
C487 C 0.5027 0.88317 0.70122 0.0
C488 C 0.54576 0.91776 0.75002 0.0
C489 C 0.49871 0.92403 0.70875 0.0
C490 C 0.54371 0.96139 0.79666 0.0
C491 C 0.62694 0.95924 0.79997 0.0
N492 N 0.51951 0.93985 0.73287 0.0
N493 N 0.60684 0.93618 0.77895 0.0
H494 H 0.66002 0.49223 0.73277 0.0
H495 H 0.48007 0.64767 0.75864 0.0
H496 H 0.57299 0.52055 0.66172 0.0
H497 H 0.53243 0.57755 0.83258 0.0
H498 H 0.52585 0.61526 0.72192 0.0
H499 H 0.62507 0.53773 0.76813 0.0
C500 C 0.634 0.50851 0.72436 0.0
C501 C 0.61924 0.50221 0.69421 0.0
C502 C 0.52763 0.60746 0.74625 0.0
C503 C 0.57925 0.55442 0.73473 0.0
C504 C 0.50176 0.62613 0.76731 0.0
C505 C 0.50227 0.61516 0.79877 0.0
C506 C 0.55467 0.57812 0.75679 0.0
C507 C 0.53081 0.58673 0.80853 0.0
C508 C 0.61398 0.53429 0.74467 0.0
C509 C 0.58527 0.52417 0.68479 0.0
N510 N 0.5558 0.56911 0.78759 0.0
N511 N 0.56631 0.54919 0.70503 0.0
H512 H 0.06702 0.64099 0.21487 0.0
H513 H 0.08184 0.78678 0.32876 0.0
H514 H 0.14389 0.72452 0.16667 0.0
H515 H 0.10699 0.86942 0.2544 0.0
H516 H 0.06701 0.73435 0.29049 0.0
H517 H 0.04489 0.69586 0.24919 0.0
C518 C 0.07839 0.67114 0.21114 0.0
C519 C 0.10764 0.67854 0.18845 0.0
C520 C 0.07389 0.76438 0.28242 0.0
C521 C 0.08336 0.74064 0.22741 0.0
C522 C 0.08241 0.79421 0.30431 0.0
C523 C 0.09567 0.83204 0.29442 0.0
C524 C 0.07913 0.77284 0.25069 0.0
C525 C 0.09695 0.84036 0.26269 0.0
C526 C 0.06617 0.70224 0.23086 0.0
C527 C 0.12167 0.71777 0.18429 0.0
N528 N 0.08954 0.81075 0.24192 0.0
N529 N 0.10959 0.74731 0.20375 0.0
H530 H 0.8567 0.11368 0.24555 0.0
H531 H 0.62865 0.11676 0.24706 0.0
H532 H 0.79068 0.08132 0.16334 0.0
H533 H 0.69367 0.08331 0.32952 0.0
H534 H 0.68629 0.09636 0.21562 0.0
H535 H 0.79863 0.09499 0.27717 0.0
C536 C 0.83024 0.10147 0.23431 0.0
C537 C 0.82808 0.09922 0.20194 0.0
C538 C 0.68761 0.09229 0.24051 0.0
C539 C 0.76131 0.07913 0.23768 0.0
C540 C 0.6548 0.10404 0.25841 0.0
C541 C 0.65682 0.10194 0.29079 0.0
C542 C 0.72312 0.0798 0.25524 0.0
C543 C 0.69117 0.08533 0.30454 0.0
C544 C 0.79717 0.09073 0.25231 0.0
C545 C 0.7933 0.08338 0.18831 0.0
N546 N 0.72356 0.07591 0.28671 0.0
N547 N 0.76071 0.07497 0.20623 0.0
H548 H 0.40297 0.71501 0.33237 0.0
H549 H 0.41918 0.86086 0.21767 0.0
H550 H 0.376 0.63295 0.25805 0.0
H551 H 0.34365 0.77743 0.16821 0.0
H552 H 0.43903 0.80633 0.25312 0.0
H553 H 0.41722 0.76765 0.29407 0.0
C554 C 0.40182 0.70776 0.3079 0.0
C555 C 0.38837 0.66996 0.29808 0.0
C556 C 0.4185 0.79987 0.23432 0.0
C557 C 0.40432 0.72942 0.25427 0.0
C558 C 0.40765 0.83078 0.21391 0.0
C559 C 0.37949 0.82336 0.19043 0.0
C560 C 0.40104 0.7616 0.23079 0.0
C561 C 0.36512 0.78422 0.18635 0.0
C562 C 0.40998 0.73772 0.28599 0.0
C563 C 0.38626 0.66194 0.26632 0.0
N564 N 0.37587 0.75487 0.20647 0.0
N565 N 0.39348 0.69162 0.24555 0.0
H566 H 0.64311 0.43984 0.21677 0.0
H567 H 0.80074 0.4316 0.32047 0.0
H568 H 0.71594 0.35115 0.17037 0.0
H569 H 0.87092 0.38549 0.24441 0.0
H570 H 0.74636 0.44748 0.28428 0.0
H571 H 0.70328 0.46357 0.24462 0.0
C572 C 0.67198 0.426 0.21213 0.0
C573 C 0.67492 0.39306 0.19201 0.0
C574 C 0.77425 0.43561 0.27518 0.0
C575 C 0.74298 0.41931 0.22347 0.0
C576 C 0.80526 0.42649 0.29592 0.0
C577 C 0.83963 0.40642 0.28528 0.0
C578 C 0.77819 0.42444 0.24385 0.0
C579 C 0.8443 0.40016 0.25344 0.0
C580 C 0.70613 0.43924 0.22812 0.0
C581 C 0.71261 0.37613 0.1863 0.0
N582 N 0.81354 0.40837 0.23391 0.0
N583 N 0.74513 0.38928 0.20213 0.0
H584 H 0.93109 0.19521 0.66426 0.0
H585 H 0.9379 0.3003 0.82975 0.0
H586 H 0.89504 0.13923 0.75 0.0
H587 H 0.90259 0.35935 0.74506 0.0
H588 H 0.9572 0.24072 0.79952 0.0
H589 H 0.95526 0.25371 0.69375 0.0
C590 C 0.92969 0.1947 0.68935 0.0
C591 C 0.91055 0.16306 0.7049 0.0
C592 C 0.94663 0.26735 0.78756 0.0
C593 C 0.93835 0.22879 0.73837 0.0
C594 C 0.93576 0.30123 0.8047 0.0
C595 C 0.91803 0.33414 0.78972 0.0
C596 C 0.94019 0.26701 0.7554 0.0
C597 C 0.91557 0.33408 0.75733 0.0
C598 C 0.94338 0.22792 0.70607 0.0
C599 C 0.90912 0.16357 0.73732 0.0
N600 N 0.92602 0.30069 0.74118 0.0
N601 N 0.92242 0.19625 0.75305 0.0
H602 H 0.34414 0.93193 0.70756 0.0
H603 H 0.19857 0.91455 0.82433 0.0
H604 H 0.27957 0.83101 0.6695 0.0
H605 H 0.12985 0.84984 0.75592 0.0
H606 H 0.24977 0.92885 0.78476 0.0
H607 H 0.28652 0.94606 0.74174 0.0
C608 C 0.31746 0.91334 0.70604 0.0
C609 C 0.3165 0.87999 0.68615 0.0
C610 C 0.22285 0.91281 0.77807 0.0
C611 C 0.25132 0.89525 0.72515 0.0
C612 C 0.1937 0.90463 0.80071 0.0
C613 C 0.16046 0.88058 0.79329 0.0
C614 C 0.21821 0.8968 0.74803 0.0
C615 C 0.15548 0.86798 0.76258 0.0
C616 C 0.28486 0.92104 0.72578 0.0
C617 C 0.28155 0.85667 0.68489 0.0
N618 N 0.18431 0.87571 0.74124 0.0
N619 N 0.2505 0.86464 0.70423 0.0
H620 H 0.57568 0.19901 0.82361 0.0
H621 H 0.56359 0.34365 0.70763 0.0
H622 H 0.62903 0.12329 0.7537 0.0
H623 H 0.65815 0.27138 0.66809 0.0
H624 H 0.54414 0.28642 0.74064 0.0
H625 H 0.56155 0.24961 0.78374 0.0
C626 C 0.5831 0.19254 0.79968 0.0
C627 C 0.60435 0.15756 0.7919 0.0
C628 C 0.56883 0.28298 0.72453 0.0
C629 C 0.58808 0.21462 0.74625 0.0
C630 C 0.57955 0.31539 0.7055 0.0
C631 C 0.61278 0.312 0.68568 0.0
C632 C 0.59158 0.24733 0.72327 0.0
C633 C 0.63268 0.2751 0.6835 0.0
C634 C 0.57492 0.22134 0.77684 0.0
C635 C 0.61345 0.15042 0.76069 0.0
N636 N 0.62192 0.24429 0.70224 0.0
N637 N 0.60594 0.17902 0.73913 0.0
H638 H 0.26875 0.61819 0.83069 0.0
H639 H 0.23986 0.60896 0.6624 0.0
H640 H 0.36333 0.56286 0.7774 0.0
H641 H 0.14014 0.57258 0.71964 0.0
H642 H 0.28636 0.58633 0.70287 0.0
H643 H 0.21986 0.59632 0.79173 0.0
C644 C 0.27884 0.6003 0.81119 0.0
C645 C 0.31972 0.59234 0.80683 0.0
C646 C 0.25436 0.58186 0.70611 0.0
C647 C 0.26485 0.56869 0.76203 0.0
C648 C 0.228 0.59486 0.68313 0.0
C649 C 0.18654 0.59257 0.68809 0.0
C650 C 0.23881 0.56831 0.73452 0.0
C651 C 0.17215 0.57464 0.71526 0.0
C652 C 0.25109 0.58768 0.78909 0.0
C653 C 0.33182 0.56941 0.78127 0.0
N654 N 0.19832 0.56427 0.73805 0.0
N655 N 0.30457 0.55941 0.75914 0.0
H656 H 0.11209 0.49557 0.04311 0.0
H657 H 0.8998 0.48665 0.95585 0.0
H658 H 0.00307 0.54664 0.08054 0.0
H659 H 0.01048 0.44027 0.91767 0.0
H660 H 0.93636 0.50716 0.00242 0.0
H661 H 0.07424 0.47171 -0.00166 0.0
C662 C 0.08007 0.5014 0.04208 0.0
C663 C 0.06072 0.52329 0.06553 0.0
C664 C 0.95265 0.49259 0.98382 0.0
C665 C 0.01725 0.49648 0.01408 0.0
C666 C 0.93184 0.48105 0.95716 0.0
C667 C 0.95216 0.46182 0.93281 0.0
C668 C 0.99406 0.48477 0.98615 0.0
C669 C 0.99363 0.45511 0.93583 0.0
C670 C 0.05849 0.48792 0.01641 0.0
C671 C 0.01918 0.52991 0.06296 0.0
N672 N 0.01317 0.46651 0.96203 0.0
N673 N -0.00116 0.51677 0.03757 0.0
H674 H 0.00617 0.89174 0.95956 0.0
H675 H 0.98656 0.10947 0.03738 0.0
H676 H 0.05749 -0.00134 0.91889 0.0
H677 H 0.93937 0.00029 0.07743 0.0
H678 H 0.01232 0.07035 0.99355 0.0
H679 H 0.98011 0.93206 0.00208 0.0
C680 C 0.01182 0.92382 0.95948 0.0
C681 C 0.03417 0.94184 0.93563 0.0
C682 C 0.99642 0.05498 0.01197 0.0
C683 C 0.00449 0.98838 0.98464 0.0
C684 C 0.98181 0.07725 0.03705 0.0
C685 C 0.96081 0.05809 0.06114 0.0
C686 C 0.98992 0.01326 0.01096 0.0
C687 C 0.95542 0.01633 0.05944 0.0
C688 C 0.99697 0.94686 0.98388 0.0
C689 C 0.04039 0.98356 0.9368 0.0
N690 N 0.9698 0.99538 0.03478 0.0
N691 N 0.02574 0.00545 0.96099 0.0
H692 H 0.38135 0.00734 0.04483 0.0
H693 H 0.60091 0.02907 0.97077 0.0
H694 H 0.48922 0.96044 0.08715 0.0
H695 H 0.49342 0.07517 0.92737 0.0
H696 H 0.56066 0.00651 0.01468 0.0
H697 H 0.42211 0.03593 0.00318 0.0
C698 C 0.41367 0.00337 0.04552 0.0
C699 C 0.43192 0.98129 0.06943 0.0
C700 C 0.54581 0.02159 0.9956 0.0
C701 C 0.47872 0.01366 0.02165 0.0
C702 C 0.56878 0.03441 0.97045 0.0
C703 C 0.55045 0.05389 0.94528 0.0
C704 C 0.50411 0.02818 0.99566 0.0
C705 C 0.50874 0.06015 0.94623 0.0
C706 C 0.43691 0.0196 0.02166 0.0
C707 C 0.47389 0.97714 0.06914 0.0
N708 N 0.48694 0.04725 0.971 0.0
N709 N 0.49584 0.99297 0.04552 0.0
H710 H 0.44543 0.48851 0.91678 0.0
H711 H 0.54468 0.49639 0.08563 0.0
H712 H 0.49212 0.59669 0.95875 0.0
H713 H 0.49902 0.38757 0.04397 0.0
H714 H 0.52482 0.53369 0.03942 0.0
H715 H 0.46619 0.45055 0.96258 0.0
C716 C 0.46047 0.50419 0.93547 0.0
C717 C 0.46696 0.54582 0.93403 0.0
C718 C 0.51895 0.50169 0.04041 0.0
C719 C 0.49021 0.50275 0.98663 0.0
C720 C 0.53006 0.48041 0.06688 0.0
C721 C 0.52349 0.43882 0.06862 0.0
C722 C 0.5012 0.48122 0.01545 0.0
C723 C 0.50456 0.41964 0.04361 0.0
C724 C 0.47209 0.48255 0.96169 0.0
C725 C 0.48649 0.56463 0.95892 0.0
N726 N 0.49423 0.44099 0.01797 0.0
N727 N 0.49722 0.54298 0.98428 0.0
H728 H 0.98875 0.94472 0.41556 0.0
H729 H 0.00069 0.04444 0.58424 0.0
H730 H 0.09738 0.99222 0.45629 0.0
H731 H 0.88946 0.00443 0.54292 0.0
H732 H 0.03658 0.02342 0.53775 0.0
H733 H 0.95132 0.9663 0.46158 0.0
C734 C 0.00462 0.96007 0.43401 0.0
C735 C 0.04624 0.96658 0.43216 0.0
C736 C 0.00433 0.01906 0.53883 0.0
C737 C 0.00385 0.99075 0.48492 0.0
C738 C 0.98384 0.03085 0.56549 0.0
C739 C 0.94201 0.02619 0.56745 0.0
C740 C 0.98289 0.00246 0.51388 0.0
C741 C 0.92175 0.0085 0.54238 0.0
C742 C 0.9833 0.97217 0.46032 0.0
C743 C 0.06534 0.98647 0.45676 0.0
N744 N 0.94238 0.99738 0.51655 0.0
N745 N 0.04404 0.99764 0.48215 0.0
H746 H 0.50093 0.11446 0.45671 0.0
H747 H 0.50824 0.90466 0.54754 0.0
H748 H 0.55606 0.00652 0.42093 0.0
H749 H 0.43781 0.00577 0.57898 0.0
H750 H 0.53076 0.9442 0.50333 0.0
H751 H 0.48061 0.07721 0.50314 0.0
C752 C 0.50853 0.08287 0.45852 0.0
C753 C 0.53016 0.06353 0.43487 0.0
C754 C 0.51053 0.9579 0.51993 0.0
C755 C 0.50749 0.02095 0.48806 0.0
C756 C 0.49781 0.93538 0.54533 0.0
C757 C 0.47093 0.95188 0.56693 0.0
C758 C 0.49631 0.99732 0.51597 0.0
C759 C 0.45854 0.99189 0.56286 0.0
C760 C 0.49703 0.06169 0.48507 0.0
C761 C 0.53932 0.02263 0.4385 0.0
N762 N 0.47117 0.01322 0.53773 0.0
N763 N 0.52807 0.00278 0.46462 0.0
H764 H 0.61011 0.49168 0.53713 0.0
H765 H 0.39271 0.50525 0.45813 0.0
H766 H 0.50329 0.43671 0.57506 0.0
H767 H 0.49938 0.55821 0.4183 0.0
H768 H 0.43319 0.47914 0.50072 0.0
H769 H 0.57028 0.51673 0.49357 0.0
C770 C 0.57822 0.48512 0.53642 0.0
C771 C 0.55996 0.46213 0.55979 0.0
C772 C 0.44784 0.49634 0.48264 0.0
C773 C 0.5143 0.49038 0.50989 0.0
C774 C 0.42474 0.51118 0.45824 0.0
C775 C 0.4427 0.53405 0.43468 0.0
C776 C 0.48925 0.50451 0.48361 0.0
C777 C 0.48433 0.54072 0.436 0.0
C778 C 0.55554 0.49928 0.51147 0.0
C779 C 0.51859 0.45439 0.5576 0.0
N780 N 0.50619 0.52616 0.46017 0.0
N781 N 0.49719 0.46843 0.53307 0.0
H782 H 0.9402 0.50583 0.41498 0.0
H783 H 0.05102 0.49637 0.57955 0.0
H784 H 0.97916 0.39556 0.45847 0.0
H785 H 0.01432 0.60698 0.53542 0.0
H786 H 0.02152 0.45867 0.53663 0.0
H787 H 0.96505 0.54338 0.45974 0.0
C788 C 0.95413 0.48954 0.43389 0.0
C789 C 0.95778 0.44755 0.43298 0.0
C790 C 0.01973 0.49118 0.53641 0.0
C791 C 0.98598 0.49022 0.48432 0.0
C792 C 0.03644 0.51271 0.56096 0.0
C793 C 0.03528 0.55485 0.56095 0.0
C794 C 0.00183 0.51198 0.51164 0.0
C795 C 0.01599 0.57449 0.5363 0.0
C796 C 0.96818 0.51097 0.45948 0.0
C797 C 0.97588 0.42795 0.45817 0.0
N798 N 0.00021 0.55288 0.51254 0.0
N799 N 0.98931 0.44946 0.48281 0.0
loop_
_geom_bond_atom_site_label_1
_geom_bond_atom_site_label_2
_geom_bond_distance
_geom_bond_site_symmetry_2
_ccdc_geom_bond_type
Co0 O1 2.216 . S
Co0 O2 2.091 . S
Co0 O4 2.004 . S
Co0 O10 2.021 . S
Co0 O12 2.137 . S
Co0 O13 2.244 . S
O1 Co0 2.216 . S
O1 C8 1.247 . S
O2 Co0 2.091 . S
O2 C8 1.261 . S
C3 O12 1.247 . S
C3 O13 1.272 . S
O4 Co0 2.004 . S
O4 C9 1.259 . S
Co5 O6 2.061 . S
Co5 O11 2.052 . S
Co5 O13 2.135 . S
O6 Co5 2.061 . S
O6 C9 1.235 . S
C7 O10 1.238 . S
C7 O11 1.241 . S
C8 O1 1.247 . S
C8 O2 1.261 . S
C9 O4 1.259 . S
C9 O6 1.235 . S
O10 Co0 2.021 . S
O10 C7 1.238 . S
O11 Co5 2.052 . S
O11 C7 1.241 . S
O12 Co0 2.137 . S
O12 C3 1.247 . S
O13 Co0 2.244 . S
O13 C3 1.272 . S
O13 Co5 2.135 . S
Co14 O15 2.216 . S
Co14 O16 2.091 . S
Co14 O18 2.004 . S
Co14 O24 2.021 . S
Co14 O26 2.137 . S
Co14 O27 2.244 . S
O15 Co14 2.216 . S
O15 C22 1.247 . S
O16 Co14 2.091 . S
O16 C22 1.261 . S
C17 O26 1.247 . S
C17 O27 1.272 . S
O18 Co14 2.004 . S
O18 C23 1.259 . S
Co19 O20 2.061 . S
Co19 O25 2.052 . S
Co19 O27 2.135 . S
O20 Co19 2.061 . S
O20 C23 1.235 . S
C21 O24 1.238 . S
C21 O25 1.241 . S
C22 O15 1.247 . S
C22 O16 1.261 . S
C23 O18 1.259 . S
C23 O20 1.235 . S
O24 Co14 2.021 . S
O24 C21 1.238 . S
O25 Co19 2.052 . S
O25 C21 1.241 . S
O26 Co14 2.137 . S
O26 C17 1.247 . S
O27 Co14 2.244 . S
O27 C17 1.272 . S
O27 Co19 2.135 . S
Co28 O29 2.216 . S
Co28 O30 2.091 . S
Co28 O32 2.004 . S
Co28 O38 2.021 . S
Co28 O40 2.137 . S
Co28 O41 2.244 . S
O29 Co28 2.216 . S
O29 C36 1.247 . S
O30 Co28 2.091 . S
O30 C36 1.261 . S
C31 O40 1.247 . S
C31 O41 1.272 . S
O32 Co28 2.004 . S
O32 C37 1.259 . S
Co33 O34 2.061 . S
Co33 O39 2.052 . S
Co33 O41 2.135 . S
O34 Co33 2.061 . S
O34 C37 1.235 . S
C35 O38 1.238 . S
C35 O39 1.241 . S
C36 O29 1.247 . S
C36 O30 1.261 . S
C37 O32 1.259 . S
C37 O34 1.235 . S
O38 Co28 2.021 . S
O38 C35 1.238 . S
O39 Co33 2.052 . S
O39 C35 1.241 . S
O40 Co28 2.137 . S
O40 C31 1.247 . S
O41 Co28 2.244 . S
O41 C31 1.272 . S
O41 Co33 2.135 . S
Co42 O43 2.216 . S
Co42 O44 2.091 . S
Co42 O46 2.004 . S
Co42 O52 2.021 . S
Co42 O54 2.137 . S
Co42 O55 2.244 . S
O43 Co42 2.216 . S
O43 C50 1.247 . S
O44 Co42 2.091 . S
O44 C50 1.261 . S
C45 O54 1.247 . S
C45 O55 1.272 . S
O46 Co42 2.004 . S
O46 C51 1.259 . S
Co47 O48 2.061 . S
Co47 O53 2.052 . S
Co47 O55 2.135 . S
O48 Co47 2.061 . S
O48 C51 1.235 . S
C49 O52 1.238 . S
C49 O53 1.241 . S
C50 O43 1.247 . S
C50 O44 1.261 . S
C51 O46 1.259 . S
C51 O48 1.235 . S
O52 Co42 2.021 . S
O52 C49 1.238 . S
O53 Co47 2.052 . S
O53 C49 1.241 . S
O54 Co42 2.137 . S
O54 C45 1.247 . S
O55 Co42 2.244 . S
O55 C45 1.272 . S
O55 Co47 2.135 . S
Co56 O57 2.216 . S
Co56 O58 2.091 . S
Co56 O60 2.004 . S
Co56 O66 2.021 . S
Co56 O68 2.137 . S
Co56 O69 2.244 . S
O57 Co56 2.216 . S
O57 C64 1.247 . S
O58 Co56 2.091 . S
O58 C64 1.261 . S
C59 O68 1.247 . S
C59 O69 1.272 . S
O60 Co56 2.004 . S
O60 C65 1.259 . S
Co61 O62 2.061 . S
Co61 O67 2.052 . S
Co61 O69 2.135 . S
O62 Co61 2.061 . S
O62 C65 1.235 . S
C63 O66 1.238 . S
C63 O67 1.241 . S
C64 O57 1.247 . S
C64 O58 1.261 . S
C65 O60 1.259 . S
C65 O62 1.235 . S
O66 Co56 2.021 . S
O66 C63 1.238 . S
O67 Co61 2.052 . S
O67 C63 1.241 . S
O68 Co56 2.137 . S
O68 C59 1.247 . S
O69 Co56 2.244 . S
O69 C59 1.272 . S
O69 Co61 2.135 . S
Co70 O71 2.216 . S
Co70 O72 2.091 . S
Co70 O74 2.004 . S
Co70 O80 2.021 . S
Co70 O82 2.137 . S
Co70 O83 2.244 . S
O71 Co70 2.216 . S
O71 C78 1.247 . S
O72 Co70 2.091 . S
O72 C78 1.261 . S
C73 O82 1.247 . S
C73 O83 1.272 . S
O74 Co70 2.004 . S
O74 C79 1.259 . S
Co75 O76 2.061 . S
Co75 O81 2.052 . S
Co75 O83 2.135 . S
O76 Co75 2.061 . S
O76 C79 1.235 . S
C77 O80 1.238 . S
C77 O81 1.241 . S
C78 O71 1.247 . S
C78 O72 1.261 . S
C79 O74 1.259 . S
C79 O76 1.235 . S
O80 Co70 2.021 . S
O80 C77 1.238 . S
O81 Co75 2.052 . S
O81 C77 1.241 . S
O82 Co70 2.137 . S
O82 C73 1.247 . S
O83 Co70 2.244 . S
O83 C73 1.272 . S
O83 Co75 2.135 . S
Co84 O85 2.216 . S
Co84 O86 2.091 . S
Co84 O88 2.004 . S
Co84 O94 2.021 . S
Co84 O96 2.137 . S
Co84 O97 2.244 . S
O85 Co84 2.216 . S
O85 C92 1.247 . S
O86 Co84 2.091 . S
O86 C92 1.261 . S
C87 O96 1.247 . S
C87 O97 1.272 . S
O88 Co84 2.004 . S
O88 C93 1.259 . S
Co89 O90 2.061 . S
Co89 O95 2.052 . S
Co89 O97 2.135 . S
O90 Co89 2.061 . S
O90 C93 1.235 . S
C91 O94 1.238 . S
C91 O95 1.241 . S
C92 O85 1.247 . S
C92 O86 1.261 . S
C93 O88 1.259 . S
C93 O90 1.235 . S
O94 Co84 2.021 . S
O94 C91 1.238 . S
O95 Co89 2.052 . S
O95 C91 1.241 . S
O96 Co84 2.137 . S
O96 C87 1.247 . S
O97 Co84 2.244 . S
O97 C87 1.272 . S
O97 Co89 2.135 . S
Co98 O99 2.216 . S
Co98 O100 2.091 . S
Co98 O102 2.004 . S
Co98 O108 2.021 . S
Co98 O110 2.137 . S
Co98 O111 2.244 . S
O99 Co98 2.216 . S
O99 C106 1.247 . S
O100 Co98 2.091 . S
O100 C106 1.261 . S
C101 O110 1.247 . S
C101 O111 1.272 . S
O102 Co98 2.004 . S
O102 C107 1.259 . S
Co103 O104 2.061 . S
Co103 O109 2.052 . S
Co103 O111 2.135 . S
O104 Co103 2.061 . S
O104 C107 1.235 . S
C105 O108 1.238 . S
C105 O109 1.241 . S
C106 O99 1.247 . S
C106 O100 1.261 . S
C107 O102 1.259 . S
C107 O104 1.235 . S
O108 Co98 2.021 . S
O108 C105 1.238 . S
O109 Co103 2.052 . S
O109 C105 1.241 . S
O110 Co98 2.137 . S
O110 C101 1.247 . S
O111 Co98 2.244 . S
O111 C101 1.272 . S
O111 Co103 2.135 . S
Co112 O113 2.216 . S
Co112 O114 2.091 . S
Co112 O116 2.004 . S
Co112 O122 2.021 . S
Co112 O124 2.137 . S
Co112 O125 2.244 . S
O113 Co112 2.216 . S
O113 C120 1.247 . S
O114 Co112 2.091 . S
O114 C120 1.261 . S
C115 O124 1.247 . S
C115 O125 1.272 . S
O116 Co112 2.004 . S
O116 C121 1.259 . S
Co117 O118 2.061 . S
Co117 O123 2.052 . S
Co117 O125 2.135 . S
O118 Co117 2.061 . S
O118 C121 1.235 . S
C119 O122 1.238 . S
C119 O123 1.241 . S
C120 O113 1.247 . S
C120 O114 1.261 . S
C121 O116 1.259 . S
C121 O118 1.235 . S
O122 Co112 2.021 . S
O122 C119 1.238 . S
O123 Co117 2.052 . S
O123 C119 1.241 . S
O124 Co112 2.137 . S
O124 C115 1.247 . S
O125 Co112 2.244 . S
O125 C115 1.272 . S
O125 Co117 2.135 . S
Co126 O127 2.216 . S
Co126 O128 2.091 . S
Co126 O130 2.004 . S
Co126 O136 2.021 . S
Co126 O138 2.137 . S
Co126 O139 2.244 . S
O127 Co126 2.216 . S
O127 C134 1.247 . S
O128 Co126 2.091 . S
O128 C134 1.261 . S
C129 O138 1.247 . S
C129 O139 1.272 . S
O130 Co126 2.004 . S
O130 C135 1.259 . S
Co131 O132 2.061 . S
Co131 O137 2.052 . S
Co131 O139 2.135 . S
O132 Co131 2.061 . S
O132 C135 1.235 . S
C133 O136 1.238 . S
C133 O137 1.241 . S
C134 O127 1.247 . S
C134 O128 1.261 . S
C135 O130 1.259 . S
C135 O132 1.235 . S
O136 Co126 2.021 . S
O136 C133 1.238 . S
O137 Co131 2.052 . S
O137 C133 1.241 . S
O138 Co126 2.137 . S
O138 C129 1.247 . S
O139 Co126 2.244 . S
O139 C129 1.272 . S
O139 Co131 2.135 . S
Co140 O141 2.216 . S
Co140 O142 2.091 . S
Co140 O144 2.004 . S
Co140 O150 2.021 . S
Co140 O152 2.137 . S
Co140 O153 2.244 . S
O141 Co140 2.216 . S
O141 C148 1.247 . S
O142 Co140 2.091 . S
O142 C148 1.261 . S
C143 O152 1.247 . S
C143 O153 1.272 . S
O144 Co140 2.004 . S
O144 C149 1.259 . S
Co145 O146 2.061 . S
Co145 O151 2.052 . S
Co145 O153 2.135 . S
O146 Co145 2.061 . S
O146 C149 1.235 . S
C147 O150 1.238 . S
C147 O151 1.241 . S
C148 O141 1.247 . S
C148 O142 1.261 . S
C149 O144 1.259 . S
C149 O146 1.235 . S
O150 Co140 2.021 . S
O150 C147 1.238 . S
O151 Co145 2.052 . S
O151 C147 1.241 . S
O152 Co140 2.137 . S
O152 C143 1.247 . S
O153 Co140 2.244 . S
O153 C143 1.272 . S
O153 Co145 2.135 . S
Co154 O155 2.216 . S
Co154 O156 2.091 . S
Co154 O158 2.004 . S
Co154 O164 2.021 . S
Co154 O166 2.137 . S
Co154 O167 2.244 . S
O155 Co154 2.216 . S
O155 C162 1.247 . S
O156 Co154 2.091 . S
O156 C162 1.261 . S
C157 O166 1.247 . S
C157 O167 1.272 . S
O158 Co154 2.004 . S
O158 C163 1.259 . S
Co159 O160 2.061 . S
Co159 O165 2.052 . S
Co159 O167 2.135 . S
O160 Co159 2.061 . S
O160 C163 1.235 . S
C161 O164 1.238 . S
C161 O165 1.241 . S
C162 O155 1.247 . S
C162 O156 1.261 . S
C163 O158 1.259 . S
C163 O160 1.235 . S
O164 Co154 2.021 . S
O164 C161 1.238 . S
O165 Co159 2.052 . S
O165 C161 1.241 . S
O166 Co154 2.137 . S
O166 C157 1.247 . S
O167 Co154 2.244 . S
O167 C157 1.272 . S
O167 Co159 2.135 . S
Co168 O169 2.216 . S
Co168 O170 2.091 . S
Co168 O172 2.004 . S
Co168 O178 2.021 . S
Co168 O180 2.137 . S
Co168 O181 2.244 . S
O169 Co168 2.216 . S
O169 C176 1.247 . S
O170 Co168 2.091 . S
O170 C176 1.261 . S
C171 O180 1.247 . S
C171 O181 1.272 . S
O172 Co168 2.004 . S
O172 C177 1.259 . S
Co173 O174 2.061 . S
Co173 O179 2.052 . S
Co173 O181 2.135 . S
O174 Co173 2.061 . S
O174 C177 1.235 . S
C175 O178 1.238 . S
C175 O179 1.241 . S
C176 O169 1.247 . S
C176 O170 1.261 . S
C177 O172 1.259 . S
C177 O174 1.235 . S
O178 Co168 2.021 . S
O178 C175 1.238 . S
O179 Co173 2.052 . S
O179 C175 1.241 . S
O180 Co168 2.137 . S
O180 C171 1.247 . S
O181 Co168 2.244 . S
O181 C171 1.272 . S
O181 Co173 2.135 . S
Co182 O183 2.216 . S
Co182 O184 2.091 . S
Co182 O186 2.004 . S
Co182 O192 2.021 . S
Co182 O194 2.137 . S
Co182 O195 2.244 . S
O183 Co182 2.216 . S
O183 C190 1.247 . S
O184 Co182 2.091 . S
O184 C190 1.261 . S
C185 O194 1.247 . S
C185 O195 1.272 . S
O186 Co182 2.004 . S
O186 C191 1.259 . S
Co187 O188 2.061 . S
Co187 O193 2.052 . S
Co187 O195 2.135 . S
O188 Co187 2.061 . S
O188 C191 1.235 . S
C189 O192 1.238 . S
C189 O193 1.241 . S
C190 O183 1.247 . S
C190 O184 1.261 . S
C191 O186 1.259 . S
C191 O188 1.235 . S
O192 Co182 2.021 . S
O192 C189 1.238 . S
O193 Co187 2.052 . S
O193 C189 1.241 . S
O194 Co182 2.137 . S
O194 C185 1.247 . S
O195 Co182 2.244 . S
O195 C185 1.272 . S
O195 Co187 2.135 . S
Co196 O197 2.216 . S
Co196 O198 2.091 . S
Co196 O200 2.004 . S
Co196 O206 2.021 . S
Co196 O208 2.137 . S
Co196 O209 2.244 . S
O197 Co196 2.216 . S
O197 C204 1.247 . S
O198 Co196 2.091 . S
O198 C204 1.261 . S
C199 O208 1.247 . S
C199 O209 1.272 . S
O200 Co196 2.004 . S
O200 C205 1.259 . S
Co201 O202 2.061 . S
Co201 O207 2.052 . S
Co201 O209 2.135 . S
O202 Co201 2.061 . S
O202 C205 1.235 . S
C203 O206 1.238 . S
C203 O207 1.241 . S
C204 O197 1.247 . S
C204 O198 1.261 . S
C205 O200 1.259 . S
C205 O202 1.235 . S
O206 Co196 2.021 . S
O206 C203 1.238 . S
O207 Co201 2.052 . S
O207 C203 1.241 . S
O208 Co196 2.137 . S
O208 C199 1.247 . S
O209 Co196 2.244 . S
O209 C199 1.272 . S
O209 Co201 2.135 . S
Co210 O211 2.216 . S
Co210 O212 2.091 . S
Co210 O214 2.004 . S
Co210 O220 2.021 . S
Co210 O222 2.137 . S
Co210 O223 2.244 . S
O211 Co210 2.216 . S
O211 C218 1.247 . S
O212 Co210 2.091 . S
O212 C218 1.261 . S
C213 O222 1.247 . S
C213 O223 1.272 . S
O214 Co210 2.004 . S
O214 C219 1.259 . S
Co215 O216 2.061 . S
Co215 O221 2.052 . S
Co215 O223 2.135 . S
O216 Co215 2.061 . S
O216 C219 1.235 . S
C217 O220 1.238 . S
C217 O221 1.241 . S
C218 O211 1.247 . S
C218 O212 1.261 . S
C219 O214 1.259 . S
C219 O216 1.235 . S
O220 Co210 2.021 . S
O220 C217 1.238 . S
O221 Co215 2.052 . S
O221 C217 1.241 . S
O222 Co210 2.137 . S
O222 C213 1.247 . S
O223 Co210 2.244 . S
O223 C213 1.272 . S
O223 Co215 2.135 . S
H224 C230 0.930 . S
H225 C234 0.930 . S
H226 C239 0.929 . S
H227 C237 0.929 . S
H228 C232 0.929 . S
H229 C238 0.929 . S
C230 H224 0.930 . S
C230 C231 1.367 . S
C230 C238 1.378 . S
C231 C230 1.367 . S
C231 C239 1.433 . S
C232 H228 0.929 . S
C232 C234 1.378 . S
C232 C236 1.350 . S
C233 C236 1.463 . S
C233 C238 1.350 . S
C233 N241 1.427 . S
C234 H225 0.930 . S
C234 C232 1.378 . S
C234 C235 1.367 . S
C235 C234 1.367 . S
C235 C237 1.433 . S
C236 C232 1.350 . S
C236 C233 1.463 . S
C236 N240 1.427 . S
C237 H227 0.929 . S
C237 C235 1.433 . S
C237 N240 1.384 . S
C238 H229 0.929 . S
C238 C230 1.378 . S
C238 C233 1.350 . S
C239 H226 0.929 . S
C239 C231 1.433 . S
C239 N241 1.384 . S
N240 C236 1.427 . S
N240 C237 1.384 . S
N241 C233 1.427 . S
N241 C239 1.384 . S
H242 C248 0.930 . S
H243 C252 0.930 . S
H244 C257 0.929 . S
H245 C255 0.929 . S
H246 C250 0.929 . S
H247 C256 0.929 . S
C248 H242 0.930 . S
C248 C249 1.367 . S
C248 C256 1.378 . S
C249 C248 1.367 . S
C249 C257 1.433 . S
C250 H246 0.929 . S
C250 C252 1.378 . S
C250 C254 1.350 . S
C251 C254 1.463 . S
C251 C256 1.350 . S
C251 N259 1.427 . S
C252 H243 0.930 . S
C252 C250 1.378 . S
C252 C253 1.367 . S
C253 C252 1.367 . S
C253 C255 1.433 . S
C254 C250 1.350 . S
C254 C251 1.463 . S
C254 N258 1.427 . S
C255 H245 0.929 . S
C255 C253 1.433 . S
C255 N258 1.384 . S
C256 H247 0.929 . S
C256 C248 1.378 . S
C256 C251 1.350 . S
C257 H244 0.929 . S
C257 C249 1.433 . S
C257 N259 1.384 . S
N258 C254 1.427 . S
N258 C255 1.384 . S
N259 C251 1.427 . S
N259 C257 1.384 . S
H260 C266 0.930 . S
H261 C270 0.930 . S
H262 C275 0.929 . S
H263 C273 0.929 . S
H264 C268 0.929 . S
H265 C274 0.929 . S
C266 H260 0.930 . S
C266 C267 1.367 . S
C266 C274 1.378 . S
C267 C266 1.367 . S
C267 C275 1.433 . S
C268 H264 0.929 . S
C268 C270 1.378 . S
C268 C272 1.350 . S
C269 C272 1.463 . S
C269 C274 1.350 . S
C269 N277 1.427 . S
C270 H261 0.930 . S
C270 C268 1.378 . S
C270 C271 1.367 . S
C271 C270 1.367 . S
C271 C273 1.433 . S
C272 C268 1.350 . S
C272 C269 1.463 . S
C272 N276 1.427 . S
C273 H263 0.929 . S
C273 C271 1.433 . S
C273 N276 1.384 . S
C274 H265 0.929 . S
C274 C266 1.378 . S
C274 C269 1.350 . S
C275 H262 0.929 . S
C275 C267 1.433 . S
C275 N277 1.384 . S
N276 C272 1.427 . S
N276 C273 1.384 . S
N277 C269 1.427 . S
N277 C275 1.384 . S
H278 C284 0.930 . S
H279 C288 0.930 . S
H280 C293 0.929 . S
H281 C291 0.929 . S
H282 C286 0.929 . S
H283 C292 0.929 . S
C284 H278 0.930 . S
C284 C285 1.367 . S
C284 C292 1.378 . S
C285 C284 1.367 . S
C285 C293 1.433 . S
C286 H282 0.929 . S
C286 C288 1.378 . S
C286 C290 1.350 . S
C287 C290 1.463 . S
C287 C292 1.350 . S
C287 N295 1.427 . S
C288 H279 0.930 . S
C288 C286 1.378 . S
C288 C289 1.367 . S
C289 C288 1.367 . S
C289 C291 1.433 . S
C290 C286 1.350 . S
C290 C287 1.463 . S
C290 N294 1.427 . S
C291 H281 0.929 . S
C291 C289 1.433 . S
C291 N294 1.384 . S
C292 H283 0.929 . S
C292 C284 1.378 . S
C292 C287 1.350 . S
C293 H280 0.929 . S
C293 C285 1.433 . S
C293 N295 1.384 . S
N294 C290 1.427 . S
N294 C291 1.384 . S
N295 C287 1.427 . S
N295 C293 1.384 . S
H296 C302 0.930 . S
H297 C306 0.930 . S
H298 C311 0.929 . S
H299 C309 0.929 . S
H300 C304 0.929 . S
H301 C310 0.929 . S
C302 H296 0.930 . S
C302 C303 1.367 . S
C302 C310 1.378 . S
C303 C302 1.367 . S
C303 C311 1.433 . S
C304 H300 0.929 . S
C304 C306 1.378 . S
C304 C308 1.350 . S
C305 C308 1.463 . S
C305 C310 1.350 . S
C305 N313 1.427 . S
C306 H297 0.930 . S
C306 C304 1.378 . S
C306 C307 1.367 . S
C307 C306 1.367 . S
C307 C309 1.433 . S
C308 C304 1.350 . S
C308 C305 1.463 . S
C308 N312 1.427 . S
C309 H299 0.929 . S
C309 C307 1.433 . S
C309 N312 1.384 . S
C310 H301 0.929 . S
C310 C302 1.378 . S
C310 C305 1.350 . S
C311 H298 0.929 . S
C311 C303 1.433 . S
C311 N313 1.384 . S
N312 C308 1.427 . S
N312 C309 1.384 . S
N313 C305 1.427 . S
N313 C311 1.384 . S
H314 C320 0.930 . S
H315 C324 0.930 . S
H316 C329 0.929 . S
H317 C327 0.929 . S
H318 C322 0.929 . S
H319 C328 0.929 . S
C320 H314 0.930 . S
C320 C321 1.367 . S
C320 C328 1.378 . S
C321 C320 1.367 . S
C321 C329 1.433 . S
C322 H318 0.929 . S
C322 C324 1.378 . S
C322 C326 1.350 . S
C323 C326 1.463 . S
C323 C328 1.350 . S
C323 N331 1.427 . S
C324 H315 0.930 . S
C324 C322 1.378 . S
C324 C325 1.367 . S
C325 C324 1.367 . S
C325 C327 1.433 . S
C326 C322 1.350 . S
C326 C323 1.463 . S
C326 N330 1.427 . S
C327 H317 0.929 . S
C327 C325 1.433 . S
C327 N330 1.384 . S
C328 H319 0.929 . S
C328 C320 1.378 . S
C328 C323 1.350 . S
C329 H316 0.929 . S
C329 C321 1.433 . S
C329 N331 1.384 . S
N330 C326 1.427 . S
N330 C327 1.384 . S
N331 C323 1.427 . S
N331 C329 1.384 . S
H332 C338 0.930 . S
H333 C342 0.930 . S
H334 C347 0.929 . S
H335 C345 0.929 . S
H336 C340 0.929 . S
H337 C346 0.929 . S
C338 H332 0.930 . S
C338 C339 1.367 . S
C338 C346 1.378 . S
C339 C338 1.367 . S
C339 C347 1.433 . S
C340 H336 0.929 . S
C340 C342 1.378 . S
C340 C344 1.350 . S
C341 C344 1.463 . S
C341 C346 1.350 . S
C341 N349 1.427 . S
C342 H333 0.930 . S
C342 C340 1.378 . S
C342 C343 1.367 . S
C343 C342 1.367 . S
C343 C345 1.433 . S
C344 C340 1.350 . S
C344 C341 1.463 . S
C344 N348 1.427 . S
C345 H335 0.929 . S
C345 C343 1.433 . S
C345 N348 1.384 . S
C346 H337 0.929 . S
C346 C338 1.378 . S
C346 C341 1.350 . S
C347 H334 0.929 . S
C347 C339 1.433 . S
C347 N349 1.384 . S
N348 C344 1.427 . S
N348 C345 1.384 . S
N349 C341 1.427 . S
N349 C347 1.384 . S
H350 C356 0.930 . S
H351 C360 0.930 . S
H352 C365 0.929 . S
H353 C363 0.929 . S
H354 C358 0.929 . S
H355 C364 0.929 . S
C356 H350 0.930 . S
C356 C357 1.367 . S
C356 C364 1.378 . S
C357 C356 1.367 . S
C357 C365 1.433 . S
C358 H354 0.929 . S
C358 C360 1.378 . S
C358 C362 1.350 . S
C359 C362 1.463 . S
C359 C364 1.350 . S
C359 N367 1.427 . S
C360 H351 0.930 . S
C360 C358 1.378 . S
C360 C361 1.367 . S
C361 C360 1.367 . S
C361 C363 1.433 . S
C362 C358 1.350 . S
C362 C359 1.463 . S
C362 N366 1.427 . S
C363 H353 0.929 . S
C363 C361 1.433 . S
C363 N366 1.384 . S
C364 H355 0.929 . S
C364 C356 1.378 . S
C364 C359 1.350 . S
C365 H352 0.929 . S
C365 C357 1.433 . S
C365 N367 1.384 . S
N366 C362 1.427 . S
N366 C363 1.384 . S
N367 C359 1.427 . S
N367 C365 1.384 . S
H368 C374 0.930 . S
H369 C378 0.930 . S
H370 C383 0.929 . S
H371 C381 0.929 . S
H372 C376 0.929 . S
H373 C382 0.929 . S
C374 H368 0.930 . S
C374 C375 1.367 . S
C374 C382 1.378 . S
C375 C374 1.367 . S
C375 C383 1.433 . S
C376 H372 0.929 . S
C376 C378 1.378 . S
C376 C380 1.350 . S
C377 C380 1.463 . S
C377 C382 1.350 . S
C377 N385 1.427 . S
C378 H369 0.930 . S
C378 C376 1.378 . S
C378 C379 1.367 1_655 S
C379 C378 1.367 1_455 S
C379 C381 1.433 . S
C380 C376 1.350 . S
C380 C377 1.463 . S
C380 N384 1.427 1_655 S
C381 H371 0.929 . S
C381 C379 1.433 . S
C381 N384 1.384 . S
C382 H373 0.929 . S
C382 C374 1.378 . S
C382 C377 1.350 . S
C383 H370 0.929 . S
C383 C375 1.433 . S
C383 N385 1.384 . S
N384 C380 1.427 1_455 S
N384 C381 1.384 . S
N385 C377 1.427 . S
N385 C383 1.384 . S
H386 C392 0.930 . S
H387 C396 0.930 . S
H388 C401 0.929 . S
H389 C399 0.929 . S
H390 C394 0.929 1_455 S
H391 C400 0.929 . S
C392 H386 0.930 . S
C392 C393 1.367 1_565 S
C392 C400 1.378 . S
C393 C392 1.367 1_545 S
C393 C401 1.433 . S
C394 H390 0.929 1_655 S
C394 C396 1.378 1_655 S
C394 C398 1.350 . S
C395 C398 1.463 . S
C395 C400 1.350 . S
C395 N403 1.427 1_565 S
C396 H387 0.930 . S
C396 C394 1.378 1_455 S
C396 C397 1.367 . S
C397 C396 1.367 . S
C397 C399 1.433 1_455 S
C398 C394 1.350 . S
C398 C395 1.463 . S
C398 N402 1.427 . S
C399 H389 0.929 . S
C399 C397 1.433 1_655 S
C399 N402 1.384 . S
C400 H391 0.929 . S
C400 C392 1.378 . S
C400 C395 1.350 . S
C401 H388 0.929 . S
C401 C393 1.433 . S
C401 N403 1.384 . S
N402 C398 1.427 . S
N402 C399 1.384 . S
N403 C395 1.427 1_545 S
N403 C401 1.384 . S
H404 C410 0.930 . S
H405 C414 0.930 . S
H406 C419 0.929 . S
H407 C417 0.929 . S
H408 C412 0.929 . S
H409 C418 0.929 . S
C410 H404 0.930 . S
C410 C411 1.367 . S
C410 C418 1.378 . S
C411 C410 1.367 . S
C411 C419 1.433 1_545 S
C412 H408 0.929 . S
C412 C414 1.378 . S
C412 C416 1.350 . S
C413 C416 1.463 . S
C413 C418 1.350 1_565 S
C413 N421 1.427 . S
C414 H405 0.930 . S
C414 C412 1.378 . S
C414 C415 1.367 . S
C415 C414 1.367 . S
C415 C417 1.433 . S
C416 C412 1.350 . S
C416 C413 1.463 . S
C416 N420 1.427 . S
C417 H407 0.929 . S
C417 C415 1.433 . S
C417 N420 1.384 . S
C418 H409 0.929 . S
C418 C410 1.378 . S
C418 C413 1.350 1_545 S
C419 H406 0.929 . S
C419 C411 1.433 1_565 S
C419 N421 1.384 . S
N420 C416 1.427 . S
N420 C417 1.384 . S
N421 C413 1.427 . S
N421 C419 1.384 . S
H422 C428 0.930 . S
H423 C432 0.930 . S
H424 C437 0.929 . S
H425 C435 0.929 . S
H426 C430 0.929 . S
H427 C436 0.929 . S
C428 H422 0.930 . S
C428 C429 1.367 . S
C428 C436 1.378 . S
C429 C428 1.367 . S
C429 C437 1.433 . S
C430 H426 0.929 . S
C430 C432 1.378 . S
C430 C434 1.350 . S
C431 C434 1.463 . S
C431 C436 1.350 . S
C431 N439 1.427 . S
C432 H423 0.930 . S
C432 C430 1.378 . S
C432 C433 1.367 . S
C433 C432 1.367 . S
C433 C435 1.433 . S
C434 C430 1.350 . S
C434 C431 1.463 . S
C434 N438 1.427 . S
C435 H425 0.929 . S
C435 C433 1.433 . S
C435 N438 1.384 . S
C436 H427 0.929 . S
C436 C428 1.378 . S
C436 C431 1.350 . S
C437 H424 0.929 . S
C437 C429 1.433 . S
C437 N439 1.384 . S
N438 C434 1.427 . S
N438 C435 1.384 . S
N439 C431 1.427 . S
N439 C437 1.384 . S
H440 C446 0.930 . S
H441 C450 0.930 . S
H442 C455 0.929 . S
H443 C453 0.929 . S
H444 C448 0.929 . S
H445 C454 0.929 . S
C446 H440 0.930 . S
C446 C447 1.367 . S
C446 C454 1.378 . S
C447 C446 1.367 . S
C447 C455 1.433 . S
C448 H444 0.929 . S
C448 C450 1.378 . S
C448 C452 1.350 . S
C449 C452 1.463 . S
C449 C454 1.350 . S
C449 N457 1.427 . S
C450 H441 0.930 . S
C450 C448 1.378 . S
C450 C451 1.367 1_455 S
C451 C450 1.367 1_655 S
C451 C453 1.433 . S
C452 C448 1.350 . S
C452 C449 1.463 . S
C452 N456 1.427 1_455 S
C453 H443 0.929 . S
C453 C451 1.433 . S
C453 N456 1.384 . S
C454 H445 0.929 . S
C454 C446 1.378 . S
C454 C449 1.350 . S
C455 H442 0.929 . S
C455 C447 1.433 . S
C455 N457 1.384 . S
N456 C452 1.427 1_655 S
N456 C453 1.384 . S
N457 C449 1.427 . S
N457 C455 1.384 . S
H458 C464 0.930 . S
H459 C468 0.930 1_655 S
H460 C473 0.929 . S
H461 C471 0.929 . S
H462 C466 0.929 . S
H463 C472 0.929 . S
C464 H458 0.930 . S
C464 C465 1.367 . S
C464 C472 1.378 . S
C465 C464 1.367 . S
C465 C473 1.433 1_565 S
C466 H462 0.929 . S
C466 C468 1.378 . S
C466 C470 1.350 . S
C467 C470 1.463 . S
C467 C472 1.350 1_545 S
C467 N475 1.427 . S
C468 H459 0.930 1_455 S
C468 C466 1.378 . S
C468 C469 1.367 1_455 S
C469 C468 1.367 1_655 S
C469 C471 1.433 1_655 S
C470 C466 1.350 . S
C470 C467 1.463 . S
C470 N474 1.427 . S
C471 H461 0.929 . S
C471 C469 1.433 1_455 S
C471 N474 1.384 . S
C472 H463 0.929 . S
C472 C464 1.378 . S
C472 C467 1.350 1_565 S
C473 H460 0.929 . S
C473 C465 1.433 1_545 S
C473 N475 1.384 . S
N474 C470 1.427 . S
N474 C471 1.384 . S
N475 C467 1.427 . S
N475 C473 1.384 . S
H476 C482 0.930 . S
H477 C486 0.930 . S
H478 C491 0.929 . S
H479 C489 0.929 . S
H480 C484 0.929 1_565 S
H481 C490 0.929 . S
C482 H476 0.930 . S
C482 C483 1.367 . S
C482 C490 1.378 . S
C483 C482 1.367 . S
C483 C491 1.433 . S
C484 H480 0.929 1_545 S
C484 C486 1.378 1_545 S
C484 C488 1.350 . S
C485 C488 1.463 . S
C485 C490 1.350 . S
C485 N493 1.427 . S
C486 H477 0.930 . S
C486 C484 1.378 1_565 S
C486 C487 1.367 . S
C487 C486 1.367 . S
C487 C489 1.433 1_565 S
C488 C484 1.350 . S
C488 C485 1.463 . S
C488 N492 1.427 . S
C489 H479 0.929 . S
C489 C487 1.433 1_545 S
C489 N492 1.384 . S
C490 H481 0.929 . S
C490 C482 1.378 . S
C490 C485 1.350 . S
C491 H478 0.929 . S
C491 C483 1.433 . S
C491 N493 1.384 . S
N492 C488 1.427 . S
N492 C489 1.384 . S
N493 C485 1.427 . S
N493 C491 1.384 . S
H494 C500 0.930 . S
H495 C504 0.930 . S
H496 C509 0.929 . S
H497 C507 0.929 . S
H498 C502 0.929 . S
H499 C508 0.929 . S
C500 H494 0.930 . S
C500 C501 1.367 . S
C500 C508 1.378 . S
C501 C500 1.367 . S
C501 C509 1.433 . S
C502 H498 0.929 . S
C502 C504 1.378 . S
C502 C506 1.350 . S
C503 C506 1.463 . S
C503 C508 1.350 . S
C503 N511 1.427 . S
C504 H495 0.930 . S
C504 C502 1.378 . S
C504 C505 1.367 . S
C505 C504 1.367 . S
C505 C507 1.433 . S
C506 C502 1.350 . S
C506 C503 1.463 . S
C506 N510 1.427 . S
C507 H497 0.929 . S
C507 C505 1.433 . S
C507 N510 1.384 . S
C508 H499 0.929 . S
C508 C500 1.378 . S
C508 C503 1.350 . S
C509 H496 0.929 . S
C509 C501 1.433 . S
C509 N511 1.384 . S
N510 C506 1.427 . S
N510 C507 1.384 . S
N511 C503 1.427 . S
N511 C509 1.384 . S
H512 C518 0.930 . S
H513 C522 0.930 . S
H514 C527 0.929 . S
H515 C525 0.929 . S
H516 C520 0.929 . S
H517 C526 0.929 . S
C518 H512 0.930 . S
C518 C519 1.367 1_655 S
C518 C526 1.378 . S
C519 C518 1.367 1_455 S
C519 C527 1.433 . S
C520 H516 0.929 . S
C520 C522 1.378 . S
C520 C524 1.350 . S
C521 C524 1.463 . S
C521 C526 1.350 1_455 S
C521 N529 1.427 . S
C522 H513 0.930 . S
C522 C520 1.378 . S
C522 C523 1.367 . S
C523 C522 1.367 . S
C523 C525 1.433 1_455 S
C524 C520 1.350 . S
C524 C521 1.463 . S
C524 N528 1.427 1_455 S
C525 H515 0.929 . S
C525 C523 1.433 1_655 S
C525 N528 1.384 . S
C526 H517 0.929 . S
C526 C518 1.378 . S
C526 C521 1.350 1_655 S
C527 H514 0.929 . S
C527 C519 1.433 . S
C527 N529 1.384 . S
N528 C524 1.427 1_655 S
N528 C525 1.384 . S
N529 C521 1.427 . S
N529 C527 1.384 . S
H530 C536 0.930 . S
H531 C540 0.930 1_565 S
H532 C545 0.929 1_565 S
H533 C543 0.929 . S
H534 C538 0.929 1_565 S
H535 C544 0.929 . S
C536 H530 0.930 . S
C536 C537 1.367 . S
C536 C544 1.378 . S
C537 C536 1.367 . S
C537 C545 1.433 . S
C538 H534 0.929 1_545 S
C538 C540 1.378 . S
C538 C542 1.350 . S
C539 C542 1.463 . S
C539 C544 1.350 . S
C539 N547 1.427 . S
C540 H531 0.930 1_545 S
C540 C538 1.378 . S
C540 C541 1.367 . S
C541 C540 1.367 . S
C541 C543 1.433 . S
C542 C538 1.350 . S
C542 C539 1.463 . S
C542 N546 1.427 . S
C543 H533 0.929 . S
C543 C541 1.433 . S
C543 N546 1.384 . S
C544 H535 0.929 . S
C544 C536 1.378 . S
C544 C539 1.350 . S
C545 H532 0.929 1_545 S
C545 C537 1.433 . S
C545 N547 1.384 . S
N546 C542 1.427 . S
N546 C543 1.384 . S
N547 C539 1.427 . S
N547 C545 1.384 . S
H548 C554 0.930 . S
H549 C558 0.930 . S
H550 C563 0.929 . S
H551 C561 0.929 . S
H552 C556 0.929 . S
H553 C562 0.929 . S
C554 H548 0.930 . S
C554 C555 1.367 . S
C554 C562 1.378 . S
C555 C554 1.367 . S
C555 C563 1.433 . S
C556 H552 0.929 . S
C556 C558 1.378 . S
C556 C560 1.350 . S
C557 C560 1.463 . S
C557 C562 1.350 . S
C557 N565 1.427 . S
C558 H549 0.930 . S
C558 C556 1.378 . S
C558 C559 1.367 . S
C559 C558 1.367 . S
C559 C561 1.433 . S
C560 C556 1.350 . S
C560 C557 1.463 . S
C560 N564 1.427 . S
C561 H551 0.929 . S
C561 C559 1.433 . S
C561 N564 1.384 . S
C562 H553 0.929 . S
C562 C554 1.378 . S
C562 C557 1.350 . S
C563 H550 0.929 . S
C563 C555 1.433 . S
C563 N565 1.384 . S
N564 C560 1.427 . S
N564 C561 1.384 . S
N565 C557 1.427 . S
N565 C563 1.384 . S
H566 C572 0.930 . S
H567 C576 0.930 . S
H568 C581 0.929 . S
H569 C579 0.929 . S
H570 C574 0.929 . S
H571 C580 0.929 . S
C572 H566 0.930 . S
C572 C573 1.367 . S
C572 C580 1.378 . S
C573 C572 1.367 . S
C573 C581 1.433 . S
C574 H570 0.929 . S
C574 C576 1.378 . S
C574 C578 1.350 . S
C575 C578 1.463 . S
C575 C580 1.350 . S
C575 N583 1.427 . S
C576 H567 0.930 . S
C576 C574 1.378 . S
C576 C577 1.367 . S
C577 C576 1.367 . S
C577 C579 1.433 . S
C578 C574 1.350 . S
C578 C575 1.463 . S
C578 N582 1.427 . S
C579 H569 0.929 . S
C579 C577 1.433 . S
C579 N582 1.384 . S
C580 H571 0.929 . S
C580 C572 1.378 . S
C580 C575 1.350 . S
C581 H568 0.929 . S
C581 C573 1.433 . S
C581 N583 1.384 . S
N582 C578 1.427 . S
N582 C579 1.384 . S
N583 C575 1.427 . S
N583 C581 1.384 . S
H584 C590 0.930 1_455 S
H585 C594 0.930 . S
H586 C599 0.929 . S
H587 C597 0.929 1_455 S
H588 C592 0.929 . S
H589 C598 0.929 1_455 S
C590 H584 0.930 1_655 S
C590 C591 1.367 . S
C590 C598 1.378 . S
C591 C590 1.367 . S
C591 C599 1.433 . S
C592 H588 0.929 . S
C592 C594 1.378 . S
C592 C596 1.350 . S
C593 C596 1.463 . S
C593 C598 1.350 . S
C593 N601 1.427 . S
C594 H585 0.930 . S
C594 C592 1.378 . S
C594 C595 1.367 . S
C595 C594 1.367 . S
C595 C597 1.433 . S
C596 C592 1.350 . S
C596 C593 1.463 . S
C596 N600 1.427 . S
C597 H587 0.929 1_655 S
C597 C595 1.433 . S
C597 N600 1.384 . S
C598 H589 0.929 1_655 S
C598 C590 1.378 . S
C598 C593 1.350 . S
C599 H586 0.929 . S
C599 C591 1.433 . S
C599 N601 1.384 . S
N600 C596 1.427 . S
N600 C597 1.384 . S
N601 C593 1.427 . S
N601 C599 1.384 . S
H602 C608 0.930 . S
H603 C612 0.930 . S
H604 C617 0.929 . S
H605 C615 0.929 . S
H606 C610 0.929 . S
H607 C616 0.929 . S
C608 H602 0.930 . S
C608 C609 1.367 1_545 S
C608 C616 1.378 . S
C609 C608 1.367 1_565 S
C609 C617 1.433 . S
C610 H606 0.929 . S
C610 C612 1.378 . S
C610 C614 1.350 . S
C611 C614 1.463 . S
C611 C616 1.350 1_565 S
C611 N619 1.427 . S
C612 H603 0.930 . S
C612 C610 1.378 . S
C612 C613 1.367 . S
C613 C612 1.367 . S
C613 C615 1.433 1_565 S
C614 C610 1.350 . S
C614 C611 1.463 . S
C614 N618 1.427 1_565 S
C615 H605 0.929 . S
C615 C613 1.433 1_545 S
C615 N618 1.384 . S
C616 H607 0.929 . S
C616 C608 1.378 . S
C616 C611 1.350 1_545 S
C617 H604 0.929 . S
C617 C609 1.433 . S
C617 N619 1.384 . S
N618 C614 1.427 1_545 S
N618 C615 1.384 . S
N619 C611 1.427 . S
N619 C617 1.384 . S
H620 C626 0.930 . S
H621 C630 0.930 . S
H622 C635 0.929 . S
H623 C633 0.929 . S
H624 C628 0.929 . S
H625 C634 0.929 . S
C626 H620 0.930 . S
C626 C627 1.367 . S
C626 C634 1.378 . S
C627 C626 1.367 . S
C627 C635 1.433 . S
C628 H624 0.929 . S
C628 C630 1.378 . S
C628 C632 1.350 . S
C629 C632 1.463 . S
C629 C634 1.350 . S
C629 N637 1.427 . S
C630 H621 0.930 . S
C630 C628 1.378 . S
C630 C631 1.367 . S
C631 C630 1.367 . S
C631 C633 1.433 . S
C632 C628 1.350 . S
C632 C629 1.463 . S
C632 N636 1.427 . S
C633 H623 0.929 . S
C633 C631 1.433 . S
C633 N636 1.384 . S
C634 H625 0.929 . S
C634 C626 1.378 . S
C634 C629 1.350 . S
C635 H622 0.929 . S
C635 C627 1.433 . S
C635 N637 1.384 . S
N636 C632 1.427 . S
N636 C633 1.384 . S
N637 C629 1.427 . S
N637 C635 1.384 . S
H638 C644 0.930 . S
H639 C648 0.930 . S
H640 C653 0.929 . S
H641 C651 0.929 . S
H642 C646 0.929 . S
H643 C652 0.929 . S
C644 H638 0.930 . S
C644 C645 1.367 . S
C644 C652 1.378 . S
C645 C644 1.367 . S
C645 C653 1.433 . S
C646 H642 0.929 . S
C646 C648 1.378 . S
C646 C650 1.350 . S
C647 C650 1.463 . S
C647 C652 1.350 . S
C647 N655 1.427 . S
C648 H639 0.930 . S
C648 C646 1.378 . S
C648 C649 1.367 . S
C649 C648 1.367 . S
C649 C651 1.433 . S
C650 C646 1.350 . S
C650 C647 1.463 . S
C650 N654 1.427 . S
C651 H641 0.929 . S
C651 C649 1.433 . S
C651 N654 1.384 . S
C652 H643 0.929 . S
C652 C644 1.378 . S
C652 C647 1.350 . S
C653 H640 0.929 . S
C653 C645 1.433 . S
C653 N655 1.384 . S
N654 C650 1.427 . S
N654 C651 1.384 . S
N655 C647 1.427 . S
N655 C653 1.384 . S
H656 C662 0.930 . S
H657 C666 0.930 . S
H658 C671 0.929 . S
H659 C669 0.929 . S
H660 C664 0.929 1_554 S
H661 C670 0.929 1_556 S
C662 H656 0.930 . S
C662 C663 1.367 . S
C662 C670 1.378 . S
C663 C662 1.367 . S
C663 C671 1.433 1_455 S
C664 H660 0.929 1_556 S
C664 C666 1.378 . S
C664 C668 1.350 . S
C665 C668 1.463 1_454 S
C665 C670 1.350 . S
C665 N673 1.427 1_455 S
C666 H657 0.930 . S
C666 C664 1.378 . S
C666 C667 1.367 . S
C667 C666 1.367 . S
C667 C669 1.433 1_655 S
C668 C664 1.350 . S
C668 C665 1.463 1_656 S
C668 N672 1.427 1_655 S
C669 H659 0.929 . S
C669 C667 1.433 1_455 S
C669 N672 1.384 . S
C670 H661 0.929 1_554 S
C670 C662 1.378 . S
C670 C665 1.350 . S
C671 H658 0.929 . S
C671 C663 1.433 1_655 S
C671 N673 1.384 . S
N672 C668 1.427 1_455 S
N672 C669 1.384 . S
N673 C665 1.427 1_655 S
N673 C671 1.384 . S
H674 C680 0.930 . S
H675 C684 0.930 . S
H676 C689 0.929 . S
H677 C687 0.929 . S
H678 C682 0.929 . S
H679 C688 0.929 . S
C680 H674 0.930 . S
C680 C681 1.367 . S
C680 C688 1.378 . S
C681 C680 1.367 . S
C681 C689 1.433 1_565 S
C682 H678 0.929 . S
C682 C684 1.378 . S
C682 C686 1.350 . S
C683 C686 1.463 1_466 S
C683 C688 1.350 . S
C683 N691 1.427 1_565 S
C684 H675 0.930 . S
C684 C682 1.378 . S
C684 C685 1.367 . S
C685 C684 1.367 . S
C685 C687 1.433 1_545 S
C686 C682 1.350 . S
C686 C683 1.463 1_644 S
C686 N690 1.427 1_545 S
C687 H677 0.929 . S
C687 C685 1.433 1_565 S
C687 N690 1.384 . S
C688 H679 0.929 . S
C688 C680 1.378 . S
C688 C683 1.350 . S
C689 H676 0.929 . S
C689 C681 1.433 1_545 S
C689 N691 1.384 . S
N690 C686 1.427 1_565 S
N690 C687 1.384 . S
N691 C683 1.427 1_545 S
N691 C689 1.384 . S
H692 C698 0.930 . S
H693 C702 0.930 . S
H694 C707 0.929 . S
H695 C705 0.929 . S
H696 C700 0.929 . S
H697 C706 0.929 . S
C698 H692 0.930 . S
C698 C699 1.367 . S
C698 C706 1.378 . S
C699 C698 1.367 . S
C699 C707 1.433 . S
C700 H696 0.929 . S
C700 C702 1.378 . S
C700 C704 1.350 . S
C701 C704 1.463 1_564 S
C701 C706 1.350 . S
C701 N709 1.427 . S
C702 H693 0.930 . S
C702 C700 1.378 . S
C702 C703 1.367 . S
C703 C702 1.367 . S
C703 C705 1.433 . S
C704 C700 1.350 . S
C704 C701 1.463 1_546 S
C704 N708 1.427 . S
C705 H695 0.929 . S
C705 C703 1.433 . S
C705 N708 1.384 . S
C706 H697 0.929 . S
C706 C698 1.378 . S
C706 C701 1.350 . S
C707 H694 0.929 . S
C707 C699 1.433 . S
C707 N709 1.384 . S
N708 C704 1.427 . S
N708 C705 1.384 . S
N709 C701 1.427 . S
N709 C707 1.384 . S
H710 C716 0.930 . S
H711 C720 0.930 . S
H712 C725 0.929 . S
H713 C723 0.929 . S
H714 C718 0.929 . S
H715 C724 0.929 . S
C716 H710 0.930 . S
C716 C717 1.367 . S
C716 C724 1.378 1_556 S
C717 C716 1.367 . S
C717 C725 1.433 . S
C718 H714 0.929 . S
C718 C720 1.378 1_556 S
C718 C722 1.350 1_556 S
C719 C722 1.463 1_556 S
C719 C724 1.350 1_556 S
C719 N727 1.427 . S
C720 H711 0.930 . S
C720 C718 1.378 1_554 S
C720 C721 1.367 . S
C721 C720 1.367 . S
C721 C723 1.433 . S
C722 C718 1.350 1_554 S
C722 C719 1.463 1_554 S
C722 N726 1.427 . S
C723 H713 0.929 . S
C723 C721 1.433 . S
C723 N726 1.384 . S
C724 H715 0.929 . S
C724 C716 1.378 1_554 S
C724 C719 1.350 1_554 S
C725 H712 0.929 . S
C725 C717 1.433 . S
C725 N727 1.384 . S
N726 C722 1.427 . S
N726 C723 1.384 . S
N727 C719 1.427 . S
N727 C725 1.384 . S
H728 C734 0.930 . S
H729 C738 0.930 . S
H730 C743 0.929 . S
H731 C741 0.929 . S
H732 C736 0.924 1_565 S
H733 C742 0.924 1_545 S
C734 H728 0.930 . S
C734 C735 1.367 1_655 S
C734 C742 1.378 . S
C735 C734 1.367 1_455 S
C735 C743 1.433 . S
C736 H732 0.924 1_545 S
C736 C738 1.378 . S
C736 C740 1.350 1_455 S
C737 C740 1.463 1_465 S
C737 C742 1.350 1_455 S
C737 N745 1.427 . S
C738 H729 0.930 . S
C738 C736 1.378 . S
C738 C739 1.367 1_455 S
C739 C738 1.367 1_655 S
C739 C741 1.433 . S
C740 C736 1.350 1_655 S
C740 C737 1.463 1_645 S
C740 N744 1.427 . S
C741 H731 0.929 . S
C741 C739 1.433 . S
C741 N744 1.384 . S
C742 H733 0.924 1_565 S
C742 C734 1.378 . S
C742 C737 1.350 1_655 S
C743 H730 0.929 . S
C743 C735 1.433 . S
C743 N745 1.384 . S
N744 C740 1.427 . S
N744 C741 1.384 . S
N745 C737 1.427 . S
N745 C743 1.384 . S
H746 C752 0.930 1_565 S
H747 C756 0.930 1_545 S
H748 C761 0.929 . S
H749 C759 0.929 . S
H750 C754 0.929 . S
H751 C760 0.929 . S
C752 H746 0.930 1_545 S
C752 C753 1.367 . S
C752 C760 1.378 1_545 S
C753 C752 1.367 . S
C753 C761 1.433 . S
C754 H750 0.929 . S
C754 C756 1.378 1_545 S
C754 C758 1.350 1_545 S
C755 C758 1.463 1_545 S
C755 C760 1.350 1_545 S
C755 N763 1.427 . S
C756 H747 0.930 1_565 S
C756 C754 1.378 1_565 S
C756 C757 1.367 . S
C757 C756 1.367 . S
C757 C759 1.433 . S
C758 C754 1.350 1_565 S
C758 C755 1.463 1_565 S
C758 N762 1.427 . S
C759 H749 0.929 . S
C759 C757 1.433 . S
C759 N762 1.384 . S
C760 H751 0.929 . S
C760 C752 1.378 1_565 S
C760 C755 1.350 1_565 S
C761 H748 0.929 . S
C761 C753 1.433 . S
C761 N763 1.384 . S
N762 C758 1.427 . S
N762 C759 1.384 . S
N763 C755 1.427 . S
N763 C761 1.384 . S
H764 C770 0.930 . S
H765 C774 0.930 . S
H766 C779 0.929 . S
H767 C777 0.929 . S
H768 C772 0.929 . S
H769 C778 0.929 . S
C770 H764 0.930 . S
C770 C771 1.367 . S
C770 C778 1.378 . S
C771 C770 1.367 . S
C771 C779 1.433 . S
C772 H768 0.929 . S
C772 C774 1.378 . S
C772 C776 1.350 . S
C773 C776 1.463 . S
C773 C778 1.350 . S
C773 N781 1.427 . S
C774 H765 0.930 . S
C774 C772 1.378 . S
C774 C775 1.367 . S
C775 C774 1.367 . S
C775 C777 1.433 . S
C776 C772 1.350 . S
C776 C773 1.463 . S
C776 N780 1.427 . S
C777 H767 0.929 . S
C777 C775 1.433 . S
C777 N780 1.384 . S
C778 H769 0.929 . S
C778 C770 1.378 . S
C778 C773 1.350 . S
C779 H766 0.929 . S
C779 C771 1.433 . S
C779 N781 1.384 . S
N780 C776 1.427 . S
N780 C777 1.384 . S
N781 C773 1.427 . S
N781 C779 1.384 . S
H782 C788 0.930 . S
H783 C792 0.930 . S
H784 C797 0.929 . S
H785 C795 0.929 . S
H786 C790 0.929 . S
H787 C796 0.929 . S
C788 H782 0.930 . S
C788 C789 1.367 . S
C788 C796 1.378 . S
C789 C788 1.367 . S
C789 C797 1.433 . S
C790 H786 0.929 . S
C790 C792 1.378 . S
C790 C794 1.350 . S
C791 C794 1.463 1_655 S
C791 C796 1.350 . S
C791 N799 1.427 . S
C792 H783 0.930 . S
C792 C790 1.378 . S
C792 C793 1.367 . S
C793 C792 1.367 . S
C793 C795 1.433 . S
C794 C790 1.350 . S
C794 C791 1.463 1_455 S
C794 N798 1.427 . S
C795 H785 0.929 . S
C795 C793 1.433 . S
C795 N798 1.384 . S
C796 H787 0.929 . S
C796 C788 1.378 . S
C796 C791 1.350 . S
C797 H784 0.929 . S
C797 C789 1.433 . S
C797 N799 1.384 . S
N798 C794 1.427 . S
N798 C795 1.384 . S
N799 C791 1.427 . S
N799 C797 1.384 . S
C231 C3 1.659 . S
C235 C31 1.659 . S
C249 C17 1.656 . S
C253 C45 1.657 . S
C267 C59 1.648 . S
C271 C87 1.649 . S
C285 C101 1.653 . S
C289 C73 1.655 . S
C303 C115 1.656 . S
C307 C143 1.657 . S
C321 C157 1.657 . S
C325 C129 1.658 . S
C339 C199 1.655 . S
C343 C171 1.653 . S
C357 C213 1.649 . S
C361 C185 1.650 . S
C375 C105 1.182 . S
C379 C7 1.181 . S
C393 C21 1.171 . S
C397 C63 1.176 . S
C411 C77 1.161 . S
C415 C35 1.160 . S
C429 C49 1.160 . S
C433 C91 1.160 . S
C447 C217 1.175 . S
C451 C119 1.170 . S
C465 C133 1.163 . S
C469 C175 1.160 . S
C483 C147 1.171 . S
C487 C189 1.176 . S
C501 C203 1.159 . S
C505 C161 1.161 . S
C519 C9 0.801 . S
C523 C65 0.784 . S
C537 C23 0.752 . S
C541 C79 0.760 . S
C555 C93 0.752 . S
C559 C37 0.768 . S
C573 C51 0.778 . S
C577 C107 0.756 . S
C591 C177 0.803 . S
C595 C121 0.792 . S
C609 C191 0.792 . S
C613 C135 0.768 . S
C627 C149 0.785 . S
C631 C205 0.802 . S
C645 C163 0.800 . S
C649 C219 0.799 . S
C663 C8 1.732 . S
C667 C120 1.732 . S
C681 C134 1.729 . S
C685 C22 1.729 . S
C699 C36 1.729 . S
C703 C148 1.729 . S
C717 C162 1.735 . S
C721 C50 1.735 . S
C735 C64 1.727 . S
C739 C176 1.727 . S
C753 C78 1.726 . S
C757 C190 1.726 . S
C771 C204 1.725 . S
C775 C92 1.725 . S
C789 C106 1.734 . S
C793 C218 1.734 . S
