# Generated by pormake.
# Topology lta, (4)-cn, num edge types: 1
# Building blocks:
#     Node 0, Type 0, BuildingBlock: CEKHIL_clean_sbu_0, # of connection points: 4
#     Node 1, Type 0, BuildingBlock: CEKHIL_clean_sbu_0, # of connection points: 4
#     Node 2, Type 0, BuildingBlock: CEKHIL_clean_sbu_0, # of connection points: 4
#     Node 3, Type 0, BuildingBlock: CEKHIL_clean_sbu_0, # of connection points: 4
#     Node 4, Type 0, BuildingBlock: CEKHIL_clean_sbu_0, # of connection points: 4
#     Node 5, Type 0, BuildingBlock: CEKHIL_clean_sbu_0, # of connection points: 4
#     Node 6, Type 0, BuildingBlock: CEKHIL_clean_sbu_0, # of connection points: 4
#     Node 7, Type 0, BuildingBlock: CEKHIL_clean_sbu_0, # of connection points: 4
#     Node 8, Type 0, BuildingBlock: CEKHIL_clean_sbu_0, # of connection points: 4
#     Node 9, Type 0, BuildingBlock: CEKHIL_clean_sbu_0, # of connection points: 4
#     Node 10, Type 0, BuildingBlock: CEKHIL_clean_sbu_0, # of connection points: 4
#     Node 11, Type 0, BuildingBlock: CEKHIL_clean_sbu_0, # of connection points: 4
#     Node 12, Type 0, BuildingBlock: CEKHIL_clean_sbu_0, # of connection points: 4
#     Node 13, Type 0, BuildingBlock: CEKHIL_clean_sbu_0, # of connection points: 4
#     Node 14, Type 0, BuildingBlock: CEKHIL_clean_sbu_0, # of connection points: 4
#     Node 15, Type 0, BuildingBlock: CEKHIL_clean_sbu_0, # of connection points: 4
#     Node 16, Type 0, BuildingBlock: CEKHIL_clean_sbu_0, # of connection points: 4
#     Node 17, Type 0, BuildingBlock: CEKHIL_clean_sbu_0, # of connection points: 4
#     Node 18, Type 0, BuildingBlock: CEKHIL_clean_sbu_0, # of connection points: 4
#     Node 19, Type 0, BuildingBlock: CEKHIL_clean_sbu_0, # of connection points: 4
#     Node 20, Type 0, BuildingBlock: CEKHIL_clean_sbu_0, # of connection points: 4
#     Node 21, Type 0, BuildingBlock: CEKHIL_clean_sbu_0, # of connection points: 4
#     Node 22, Type 0, BuildingBlock: CEKHIL_clean_sbu_0, # of connection points: 4
#     Node 23, Type 0, BuildingBlock: CEKHIL_clean_sbu_0, # of connection points: 4
#     Edge 24, Type (0, 0), BuildingBlock: TEMPAE_clean_linker_10, # of connection points: 2
#     Edge 25, Type (0, 0), BuildingBlock: TEMPAE_clean_linker_10, # of connection points: 2
#     Edge 26, Type (0, 0), BuildingBlock: TEMPAE_clean_linker_10, # of connection points: 2
#     Edge 27, Type (0, 0), BuildingBlock: TEMPAE_clean_linker_10, # of connection points: 2
#     Edge 28, Type (0, 0), BuildingBlock: TEMPAE_clean_linker_10, # of connection points: 2
#     Edge 29, Type (0, 0), BuildingBlock: TEMPAE_clean_linker_10, # of connection points: 2
#     Edge 30, Type (0, 0), BuildingBlock: TEMPAE_clean_linker_10, # of connection points: 2
#     Edge 31, Type (0, 0), BuildingBlock: TEMPAE_clean_linker_10, # of connection points: 2
#     Edge 32, Type (0, 0), BuildingBlock: TEMPAE_clean_linker_10, # of connection points: 2
#     Edge 33, Type (0, 0), BuildingBlock: TEMPAE_clean_linker_10, # of connection points: 2
#     Edge 34, Type (0, 0), BuildingBlock: TEMPAE_clean_linker_10, # of connection points: 2
#     Edge 35, Type (0, 0), BuildingBlock: TEMPAE_clean_linker_10, # of connection points: 2
#     Edge 36, Type (0, 0), BuildingBlock: TEMPAE_clean_linker_10, # of connection points: 2
#     Edge 37, Type (0, 0), BuildingBlock: TEMPAE_clean_linker_10, # of connection points: 2
#     Edge 38, Type (0, 0), BuildingBlock: TEMPAE_clean_linker_10, # of connection points: 2
#     Edge 39, Type (0, 0), BuildingBlock: TEMPAE_clean_linker_10, # of connection points: 2
#     Edge 40, Type (0, 0), BuildingBlock: TEMPAE_clean_linker_10, # of connection points: 2
#     Edge 41, Type (0, 0), BuildingBlock: TEMPAE_clean_linker_10, # of connection points: 2
#     Edge 42, Type (0, 0), BuildingBlock: TEMPAE_clean_linker_10, # of connection points: 2
#     Edge 43, Type (0, 0), BuildingBlock: TEMPAE_clean_linker_10, # of connection points: 2
#     Edge 44, Type (0, 0), BuildingBlock: TEMPAE_clean_linker_10, # of connection points: 2
#     Edge 45, Type (0, 0), BuildingBlock: TEMPAE_clean_linker_10, # of connection points: 2
#     Edge 46, Type (0, 0), BuildingBlock: TEMPAE_clean_linker_10, # of connection points: 2
#     Edge 47, Type (0, 0), BuildingBlock: TEMPAE_clean_linker_10, # of connection points: 2
#     Edge 48, Type (0, 0), BuildingBlock: TEMPAE_clean_linker_10, # of connection points: 2
#     Edge 49, Type (0, 0), BuildingBlock: TEMPAE_clean_linker_10, # of connection points: 2
#     Edge 50, Type (0, 0), BuildingBlock: TEMPAE_clean_linker_10, # of connection points: 2
#     Edge 51, Type (0, 0), BuildingBlock: TEMPAE_clean_linker_10, # of connection points: 2
#     Edge 52, Type (0, 0), BuildingBlock: TEMPAE_clean_linker_10, # of connection points: 2
#     Edge 53, Type (0, 0), BuildingBlock: TEMPAE_clean_linker_10, # of connection points: 2
#     Edge 54, Type (0, 0), BuildingBlock: TEMPAE_clean_linker_10, # of connection points: 2
#     Edge 55, Type (0, 0), BuildingBlock: TEMPAE_clean_linker_10, # of connection points: 2
#     Edge 56, Type (0, 0), BuildingBlock: TEMPAE_clean_linker_10, # of connection points: 2
#     Edge 57, Type (0, 0), BuildingBlock: TEMPAE_clean_linker_10, # of connection points: 2
#     Edge 58, Type (0, 0), BuildingBlock: TEMPAE_clean_linker_10, # of connection points: 2
#     Edge 59, Type (0, 0), BuildingBlock: TEMPAE_clean_linker_10, # of connection points: 2
#     Edge 60, Type (0, 0), BuildingBlock: TEMPAE_clean_linker_10, # of connection points: 2
#     Edge 61, Type (0, 0), BuildingBlock: TEMPAE_clean_linker_10, # of connection points: 2
#     Edge 62, Type (0, 0), BuildingBlock: TEMPAE_clean_linker_10, # of connection points: 2
#     Edge 63, Type (0, 0), BuildingBlock: TEMPAE_clean_linker_10, # of connection points: 2
#     Edge 64, Type (0, 0), BuildingBlock: TEMPAE_clean_linker_10, # of connection points: 2
#     Edge 65, Type (0, 0), BuildingBlock: TEMPAE_clean_linker_10, # of connection points: 2
#     Edge 66, Type (0, 0), BuildingBlock: TEMPAE_clean_linker_10, # of connection points: 2
#     Edge 67, Type (0, 0), BuildingBlock: TEMPAE_clean_linker_10, # of connection points: 2
#     Edge 68, Type (0, 0), BuildingBlock: TEMPAE_clean_linker_10, # of connection points: 2
#     Edge 69, Type (0, 0), BuildingBlock: TEMPAE_clean_linker_10, # of connection points: 2
#     Edge 70, Type (0, 0), BuildingBlock: TEMPAE_clean_linker_10, # of connection points: 2
#     Edge 71, Type (0, 0), BuildingBlock: TEMPAE_clean_linker_10, # of connection points: 2
# Relax obj value: 0.293
# Max RMSD: 0.167
# Mean RMSD: 0.167
data_MOF--net-lta--node1-CEKHIL_clean_sbu_0--edge1-TEMPAE_clean_linker_10
_symmetry_space_group_name_H-M    P1
_symmetry_Int_Tables_number       1
_symmetry_cell_setting            triclinic
loop_
_symmetry_equiv_pos_as_xyz
'x, y, z'
_cell_length_a     56.666581
_cell_length_b     56.673337
_cell_length_c     56.666544
_cell_angle_alpha  89.975419
_cell_angle_beta   89.963996
_cell_angle_gamma 89.990444
loop_
_atom_site_label
_atom_site_type_symbol
_atom_site_fract_x
_atom_site_fract_y
_atom_site_fract_z
_atom_type_partial_charge
Co0 Co 0.14474 0.32092 0.48347 0.0
O1 O 0.17778 0.31347 0.48622 0.0
O2 O 0.14866 0.2897 0.49688 0.0
C3 C 0.14869 0.33523 0.44636 0.0
O4 O 0.10871 0.32157 0.48259 0.0
Co5 Co 0.12583 0.37129 0.47266 0.0
O6 O 0.09526 0.35538 0.46696 0.0
C7 C 0.14057 0.35808 0.52158 0.0
C8 C 0.17121 0.29304 0.4942 0.0
C9 C 0.09177 0.33467 0.47497 0.0
O10 O 0.14433 0.33633 0.51581 0.0
O11 O 0.13509 0.37408 0.50659 0.0
O12 O 0.146 0.31268 0.4496 0.0
O13 O 0.14921 0.34789 0.46515 0.0
Co14 Co 0.68052 0.14173 0.4922 0.0
O15 O 0.693 0.17331 0.49358 0.0
O16 O 0.71395 0.14073 0.49925 0.0
C17 C 0.66004 0.14652 0.45817 0.0
O18 O 0.6739 0.1063 0.49179 0.0
Co19 Co 0.62607 0.13366 0.49434 0.0
O20 O 0.63465 0.09986 0.49142 0.0
C21 C 0.65202 0.14817 0.53685 0.0
C22 C 0.71328 0.16363 0.49791 0.0
C23 C 0.65589 0.09241 0.49158 0.0
O24 O 0.67191 0.14324 0.52695 0.0
O25 O 0.63236 0.14849 0.52576 0.0
O26 O 0.6825 0.14193 0.45749 0.0
O27 O 0.65154 0.15007 0.47894 0.0
Co28 Co 0.86072 0.68456 0.48865 0.0
O29 O 0.82875 0.69582 0.48928 0.0
O30 O 0.86003 0.71745 0.49821 0.0
C31 C 0.85665 0.6662 0.45337 0.0
O32 O 0.89641 0.6794 0.48904 0.0
Co33 Co 0.87237 0.63087 0.48611 0.0
O34 O 0.90479 0.64198 0.47879 0.0
C35 C 0.85607 0.65242 0.53094 0.0
C36 C 0.83728 0.71616 0.49536 0.0
C37 C 0.91119 0.66302 0.48353 0.0
O38 O 0.85834 0.67347 0.52259 0.0
O39 O 0.8586 0.63367 0.51859 0.0
O40 O 0.86143 0.68863 0.45404 0.0
O41 O 0.85364 0.65627 0.47355 0.0
Co42 Co 0.31709 0.85897 0.48297 0.0
O43 O 0.30863 0.82611 0.48262 0.0
O44 O 0.28618 0.85474 0.49695 0.0
C45 C 0.3301 0.85938 0.44534 0.0
O46 O 0.31899 0.89481 0.48534 0.0
Co47 Co 0.36853 0.87602 0.474 0.0
O48 O 0.35394 0.90774 0.4718 0.0
C49 C 0.35527 0.85563 0.52043 0.0
C50 C 0.28871 0.83249 0.49195 0.0
C51 C 0.33311 0.91159 0.4794 0.0
O52 O 0.33319 0.85549 0.51481 0.0
O53 O 0.37171 0.86109 0.50588 0.0
O54 O 0.30769 0.86157 0.44959 0.0
O55 O 0.34339 0.85578 0.46337 0.0
Co56 Co 0.13709 0.67739 0.50847 0.0
O57 O 0.16961 0.68677 0.51021 0.0
O58 O 0.14017 0.71058 0.50062 0.0
C59 C 0.13737 0.65724 0.54299 0.0
O60 O 0.10124 0.6741 0.50585 0.0
Co61 Co 0.12345 0.6241 0.50681 0.0
O62 O 0.09113 0.63628 0.51263 0.0
C63 C 0.14385 0.64745 0.46485 0.0
C64 C 0.16262 0.70783 0.50462 0.0
C65 C 0.08567 0.65785 0.50927 0.0
O66 O 0.14099 0.66799 0.47417 0.0
O67 O 0.14033 0.6281 0.47597 0.0
O68 O 0.1345 0.68 0.54306 0.0
O69 O 0.14153 0.64807 0.52264 0.0
Co70 Co 0.31772 0.13329 0.51686 0.0
O71 O 0.31234 0.16685 0.51618 0.0
O72 O 0.28579 0.13985 0.50659 0.0
C73 C 0.33549 0.1333 0.55265 0.0
O74 O 0.31629 0.0972 0.51632 0.0
Co75 Co 0.3682 0.11163 0.5205 0.0
O76 O 0.3509 0.08256 0.52897 0.0
C77 C 0.34964 0.12748 0.47404 0.0
C78 C 0.29093 0.162 0.50967 0.0
C79 C 0.32941 0.07986 0.52301 0.0
O80 O 0.32961 0.13356 0.48304 0.0
O81 O 0.36699 0.11964 0.4862 0.0
O82 O 0.31261 0.13348 0.55128 0.0
O83 O 0.34655 0.13469 0.53284 0.0
Co84 Co 0.86946 0.313 0.50786 0.0
O85 O 0.83662 0.30436 0.50555 0.0
O86 O 0.86663 0.27978 0.50049 0.0
C87 C 0.86571 0.33355 0.54198 0.0
O88 O 0.90551 0.31503 0.50912 0.0
Co89 Co 0.88622 0.36537 0.50819 0.0
O90 O 0.91681 0.35193 0.51816 0.0
C91 C 0.87325 0.34206 0.46303 0.0
C92 C 0.84395 0.28308 0.50134 0.0
C93 C 0.92153 0.33027 0.51448 0.0
O94 O 0.86982 0.32201 0.47322 0.0
O95 O 0.87851 0.36107 0.47403 0.0
O96 O 0.86782 0.31073 0.54248 0.0
O97 O 0.8644 0.3428 0.52125 0.0
Co98 Co 0.68223 0.86655 0.51242 0.0
O99 O 0.69352 0.83468 0.51527 0.0
O100 O 0.71581 0.86537 0.50582 0.0
C101 C 0.66056 0.86614 0.54602 0.0
O102 O 0.67692 0.90202 0.50879 0.0
Co103 Co 0.62815 0.87588 0.50724 0.0
O104 O 0.63789 0.90947 0.50589 0.0
C105 C 0.65507 0.85612 0.46764 0.0
C106 C 0.71426 0.84286 0.5101 0.0
C107 C 0.65934 0.91624 0.50629 0.0
O108 O 0.67467 0.86159 0.47777 0.0
O109 O 0.63503 0.85734 0.47798 0.0
O110 O 0.68316 0.86994 0.54705 0.0
O111 O 0.65255 0.86079 0.52547 0.0
Co112 Co 0.48538 0.14385 0.31884 0.0
O113 O 0.48628 0.17586 0.3076 0.0
O114 O 0.49402 0.14434 0.28579 0.0
C115 C 0.45074 0.14811 0.33838 0.0
O116 O 0.48536 0.10819 0.3236 0.0
Co117 Co 0.48412 0.13127 0.37239 0.0
O118 O 0.47665 0.09899 0.36116 0.0
C119 C 0.52925 0.14487 0.34939 0.0
C120 C 0.49172 0.16713 0.28713 0.0
C121 C 0.48063 0.09302 0.33984 0.0
O122 O 0.51972 0.14539 0.32874 0.0
O123 O 0.51779 0.14127 0.36853 0.0
O124 O 0.45071 0.14376 0.31585 0.0
O125 O 0.47124 0.15081 0.34774 0.0
Co126 Co 0.85965 0.48842 0.31968 0.0
O127 O 0.82653 0.49136 0.31264 0.0
O128 O 0.85548 0.49889 0.28746 0.0
C129 C 0.85611 0.45282 0.33766 0.0
O130 O 0.89561 0.48653 0.31976 0.0
Co131 Co 0.87907 0.4829 0.37086 0.0
O132 O 0.90892 0.47421 0.35496 0.0
C133 C 0.86725 0.53056 0.35184 0.0
C134 C 0.83294 0.49735 0.29147 0.0
C135 C 0.91242 0.47973 0.33345 0.0
O136 O 0.86123 0.5222 0.33153 0.0
O137 O 0.87346 0.51769 0.36936 0.0
O138 O 0.85752 0.45404 0.31479 0.0
O139 O 0.85567 0.47278 0.34845 0.0
Co140 Co 0.51512 0.86912 0.32427 0.0
O141 O 0.5158 0.83614 0.31619 0.0
O142 O 0.50305 0.8646 0.29263 0.0
C143 C 0.55195 0.86969 0.33972 0.0
O144 O 0.51262 0.90505 0.32584 0.0
Co145 Co 0.52076 0.88655 0.37614 0.0
O146 O 0.52526 0.91783 0.36121 0.0
C147 C 0.47522 0.86631 0.35995 0.0
C148 C 0.50759 0.84231 0.29573 0.0
C149 C 0.51843 0.92172 0.34015 0.0
O150 O 0.48232 0.86588 0.33831 0.0
O151 O 0.48862 0.87198 0.37725 0.0
O152 O 0.54912 0.87128 0.31702 0.0
O153 O 0.53299 0.86633 0.35177 0.0
Co154 Co 0.13443 0.51046 0.3143 0.0
O155 O 0.16798 0.509 0.309 0.0
O156 O 0.14083 0.50001 0.2824 0.0
C157 C 0.13538 0.54631 0.33197 0.0
O158 O 0.09838 0.51069 0.31271 0.0
Co159 Co 0.11242 0.51508 0.36451 0.0
O160 O 0.08372 0.52428 0.34695 0.0
C161 C 0.12761 0.46806 0.34648 0.0
C162 C 0.16303 0.50268 0.28756 0.0
C163 C 0.08109 0.51799 0.32555 0.0
O164 O 0.1338 0.47669 0.32632 0.0
O165 O 0.12016 0.4807 0.36369 0.0
O166 O 0.13551 0.54486 0.30909 0.0
O167 O 0.13613 0.52651 0.34308 0.0
Co168 Co 0.48302 0.85617 0.68312 0.0
O169 O 0.48297 0.82336 0.69217 0.0
O170 O 0.49351 0.85274 0.71557 0.0
C171 C 0.44712 0.8552 0.6657 0.0
O172 O 0.48448 0.89213 0.68049 0.0
Co173 Co 0.47996 0.87123 0.63017 0.0
O174 O 0.47594 0.90341 0.64337 0.0
C175 C 0.52484 0.85319 0.64979 0.0
C176 C 0.48994 0.83022 0.71286 0.0
C177 C 0.48046 0.9082 0.66488 0.0
O178 O 0.51663 0.85385 0.67101 0.0
O179 O 0.51237 0.85709 0.63138 0.0
O180 O 0.44863 0.85761 0.68844 0.0
O181 O 0.46672 0.85188 0.65477 0.0
Co182 Co 0.13787 0.48461 0.68473 0.0
O183 O 0.16963 0.48828 0.69605 0.0
O184 O 0.13738 0.49386 0.71759 0.0
C185 C 0.14468 0.44973 0.66673 0.0
O186 O 0.10235 0.48237 0.67952 0.0
Co187 Co 0.12632 0.481 0.63126 0.0
O188 O 0.09396 0.47303 0.64194 0.0
C189 C 0.13722 0.52745 0.65292 0.0
C190 C 0.16029 0.49356 0.71627 0.0
C191 C 0.08756 0.47707 0.66311 0.0
O192 O 0.13749 0.51861 0.67385 0.0
O193 O 0.13481 0.51524 0.63408 0.0
O194 O 0.1397 0.45025 0.6891 0.0
O195 O 0.14641 0.46989 0.65639 0.0
Co196 Co 0.51143 0.13236 0.6863 0.0
O197 O 0.5106 0.16517 0.69509 0.0
O198 O 0.50262 0.13542 0.71921 0.0
C199 C 0.54654 0.13409 0.6672 0.0
O200 O 0.51077 0.09635 0.6836 0.0
Co201 Co 0.5121 0.11766 0.63326 0.0
O202 O 0.51838 0.0857 0.64608 0.0
C203 C 0.46875 0.13695 0.65491 0.0
C204 C 0.50476 0.15806 0.71606 0.0
C205 C 0.5148 0.08057 0.6677 0.0
O206 O 0.47732 0.13425 0.67579 0.0
O207 O 0.48074 0.13384 0.636 0.0
O208 O 0.54603 0.13187 0.69002 0.0
O209 O 0.52631 0.13698 0.65728 0.0
Co210 Co 0.86309 0.50812 0.68035 0.0
O211 O 0.83041 0.50748 0.68993 0.0
O212 O 0.8608 0.4999 0.71339 0.0
C213 C 0.86116 0.54299 0.66087 0.0
O214 O 0.89897 0.50727 0.67722 0.0
Co215 Co 0.87773 0.50846 0.62726 0.0
O216 O 0.90978 0.51488 0.63976 0.0
C217 C 0.86026 0.46458 0.64961 0.0
C218 C 0.83812 0.50219 0.71083 0.0
C219 C 0.9148 0.51116 0.66136 0.0
O220 O 0.86125 0.47383 0.67035 0.0
O221 O 0.86393 0.47607 0.6305 0.0
O222 O 0.86366 0.5427 0.68366 0.0
O223 O 0.85814 0.52268 0.65113 0.0
Co224 Co 0.32044 0.48813 0.13774 0.0
O225 O 0.31316 0.48927 0.17092 0.0
O226 O 0.28789 0.49752 0.14227 0.0
C227 C 0.33926 0.45288 0.13969 0.0
O228 O 0.32105 0.488 0.10166 0.0
Co229 Co 0.37198 0.48525 0.11869 0.0
O230 O 0.35655 0.47575 0.08891 0.0
C231 C 0.35116 0.53167 0.13198 0.0
C232 C 0.29186 0.49495 0.16473 0.0
C233 C 0.33514 0.48139 0.08507 0.0
O234 O 0.33123 0.52228 0.13775 0.0
O235 O 0.36916 0.51976 0.12526 0.0
O236 O 0.31638 0.4536 0.13841 0.0
O237 O 0.34962 0.47305 0.14115 0.0
Co238 Co 0.31623 0.51568 0.86318 0.0
O239 O 0.30531 0.51379 0.83105 0.0
O240 O 0.28385 0.50511 0.86269 0.0
C241 C 0.33297 0.55165 0.85965 0.0
O242 O 0.32072 0.51575 0.89878 0.0
Co243 Co 0.36949 0.52009 0.87582 0.0
O244 O 0.35807 0.52463 0.90863 0.0
C245 C 0.34984 0.47432 0.85999 0.0
C246 C 0.28525 0.50714 0.8399 0.0
C247 C 0.33676 0.52009 0.91424 0.0
O248 O 0.32855 0.48217 0.86139 0.0
O249 O 0.36819 0.48716 0.86289 0.0
O250 O 0.31047 0.54989 0.86361 0.0
O251 O 0.34413 0.5321 0.85653 0.0
Co252 Co 0.49155 0.31962 0.86007 0.0
O253 O 0.49152 0.30852 0.8279 0.0
O254 O 0.49819 0.28616 0.85934 0.0
C255 C 0.45777 0.34094 0.85782 0.0
O256 O 0.49258 0.32441 0.89575 0.0
Co257 Co 0.49516 0.37354 0.87087 0.0
O258 O 0.49412 0.36326 0.9043 0.0
C259 C 0.53637 0.34768 0.85305 0.0
C260 C 0.49605 0.28782 0.83658 0.0
C261 C 0.49364 0.34165 0.9105 0.0
O262 O 0.52638 0.32774 0.85755 0.0
O263 O 0.52566 0.3675 0.85416 0.0
O264 O 0.4568 0.31826 0.86113 0.0
O265 O 0.47853 0.34927 0.85383 0.0
Co266 Co 0.68392 0.49062 0.86257 0.0
O267 O 0.69326 0.49222 0.8299 0.0
O268 O 0.71683 0.49941 0.8603 0.0
C269 C 0.66498 0.4555 0.85987 0.0
O270 O 0.68089 0.49036 0.8985 0.0
Co271 Co 0.63085 0.48933 0.87701 0.0
O272 O 0.64341 0.48244 0.90895 0.0
C273 C 0.65239 0.5335 0.85941 0.0
C274 C 0.71412 0.49765 0.83759 0.0
C275 C 0.665 0.48596 0.91418 0.0
O276 O 0.67331 0.52481 0.86149 0.0
O277 O 0.63354 0.52135 0.86224 0.0
O278 O 0.68777 0.45607 0.86233 0.0
O279 O 0.65497 0.47575 0.85731 0.0
Co280 Co 0.51565 0.68073 0.8701 0.0
O281 O 0.51663 0.68779 0.83681 0.0
O282 O 0.50237 0.71174 0.86411 0.0
C283 C 0.55306 0.66673 0.87185 0.0
O284 O 0.51262 0.68019 0.90618 0.0
Co285 Co 0.52316 0.62943 0.88902 0.0
O286 O 0.52547 0.64526 0.92006 0.0
C287 C 0.47774 0.64303 0.86679 0.0
C288 C 0.50746 0.70811 0.84202 0.0
C289 C 0.51827 0.6663 0.92333 0.0
O290 O 0.48355 0.66507 0.86664 0.0
O291 O 0.49195 0.62654 0.87288 0.0
O292 O 0.54938 0.68936 0.87258 0.0
O293 O 0.53465 0.65393 0.86855 0.0
Co294 Co 0.68039 0.52149 0.13799 0.0
O295 O 0.68842 0.52275 0.17094 0.0
O296 O 0.71217 0.50978 0.14273 0.0
C297 C 0.66449 0.55804 0.13668 0.0
O298 O 0.67862 0.51847 0.1021 0.0
Co299 Co 0.62786 0.52569 0.12173 0.0
O300 O 0.64204 0.52792 0.08977 0.0
C301 C 0.64526 0.48157 0.14337 0.0
C302 C 0.70894 0.51457 0.16495 0.0
C303 C 0.66347 0.52249 0.08562 0.0
O304 O 0.66682 0.48862 0.14171 0.0
O305 O 0.62744 0.49472 0.13886 0.0
O306 O 0.68723 0.55553 0.13523 0.0
O307 O 0.65271 0.53904 0.1406 0.0
Co308 Co 0.48477 0.68601 0.14623 0.0
O309 O 0.48514 0.69539 0.17879 0.0
O310 O 0.49448 0.71873 0.14885 0.0
C311 C 0.44939 0.66765 0.14907 0.0
O312 O 0.48546 0.68287 0.11029 0.0
Co313 Co 0.48212 0.63306 0.13174 0.0
O314 O 0.47597 0.64583 0.09972 0.0
C315 C 0.52676 0.65343 0.14998 0.0
C316 C 0.4914 0.71614 0.17147 0.0
C317 C 0.48055 0.66724 0.09451 0.0
O318 O 0.51862 0.67462 0.14832 0.0
O319 O 0.51417 0.63496 0.14656 0.0
O320 O 0.45018 0.6903 0.14548 0.0
O321 O 0.4695 0.65748 0.15164 0.0
Co322 Co 0.51395 0.32023 0.13584 0.0
O323 O 0.51634 0.30883 0.16765 0.0
O324 O 0.50635 0.28687 0.13688 0.0
C325 C 0.54809 0.3408 0.13637 0.0
O326 O 0.51061 0.32592 0.1004 0.0
Co327 Co 0.51043 0.3746 0.12699 0.0
O328 O 0.51046 0.36507 0.09331 0.0
C329 C 0.46976 0.34856 0.14593 0.0
C330 C 0.51057 0.28829 0.15942 0.0
C331 C 0.50962 0.34372 0.08624 0.0
O332 O 0.47955 0.32873 0.14073 0.0
O333 O 0.4804 0.36843 0.14462 0.0
O334 O 0.54854 0.31821 0.13252 0.0
O335 O 0.52781 0.34943 0.14177 0.0
C336 C 0.11373 0.43269 0.36806 0.0
C337 C 0.12882 0.44233 0.35096 0.0
C338 C 0.11742 0.41005 0.3771 0.0
C339 C 0.13657 0.39644 0.36861 0.0
C340 C 0.14994 0.40482 0.34916 0.0
C341 C 0.14605 0.42788 0.34062 0.0
C342 C 0.10239 0.40193 0.39762 0.0
C343 C 0.16958 0.3903 0.33862 0.0
C344 C 0.16319 0.36795 0.42184 0.0
C345 C 0.15035 0.34689 0.42315 0.0
C346 C 0.16097 0.3831 0.40253 0.0
C347 C 0.14549 0.37701 0.38391 0.0
C348 C 0.13475 0.35437 0.38376 0.0
C349 C 0.13718 0.3395 0.40359 0.0
C350 C 0.17312 0.40683 0.40352 0.0
C351 C 0.11914 0.34664 0.36368 0.0
H352 H 0.09979 0.44347 0.37553 0.0
H353 H 0.15745 0.43503 0.32701 0.0
H354 H 0.09565 0.38386 0.39444 0.0
H355 H 0.11323 0.40143 0.41392 0.0
H356 H 0.08708 0.41376 0.40079 0.0
H357 H 0.17217 0.39472 0.31969 0.0
H358 H 0.18631 0.39421 0.34799 0.0
H359 H 0.16599 0.37112 0.34028 0.0
H360 H 0.17388 0.37338 0.43676 0.0
H361 H 0.12748 0.32304 0.40444 0.0
H362 H 0.15976 0.42093 0.40608 0.0
H363 H 0.18246 0.41047 0.38673 0.0
H364 H 0.18609 0.40792 0.41817 0.0
H365 H 0.10069 0.35207 0.36732 0.0
H366 H 0.11936 0.32713 0.36178 0.0
H367 H 0.12469 0.35478 0.34674 0.0
C368 C 0.65412 0.14671 0.41411 0.0
C369 C 0.6447 0.1466 0.43703 0.0
C370 C 0.63921 0.1473 0.39421 0.0
C371 C 0.61441 0.1474 0.39741 0.0
C372 C 0.60493 0.14711 0.42056 0.0
C373 C 0.62016 0.14693 0.43998 0.0
C374 C 0.64992 0.148 0.36984 0.0
C375 C 0.5786 0.14685 0.42491 0.0
C376 C 0.56545 0.16789 0.35755 0.0
C377 C 0.55496 0.14626 0.35203 0.0
C378 C 0.58703 0.16867 0.36975 0.0
C379 C 0.59783 0.14729 0.37701 0.0
C380 C 0.58862 0.12552 0.36893 0.0
C381 C 0.56723 0.12529 0.35649 0.0
C382 C 0.59657 0.19229 0.37745 0.0
C383 C 0.5994 0.10228 0.37622 0.0
H384 H 0.6731 0.14662 0.41175 0.0
H385 H 0.61271 0.14687 0.45758 0.0
H386 H 0.6437 0.13272 0.35932 0.0
H387 H 0.64408 0.16419 0.3605 0.0
H388 H 0.66952 0.14774 0.37033 0.0
H389 H 0.57416 0.14614 0.444 0.0
H390 H 0.5704 0.16291 0.41728 0.0
H391 H 0.5705 0.13135 0.41612 0.0
H392 H 0.55575 0.18408 0.35437 0.0
H393 H 0.55884 0.10856 0.35249 0.0
H394 H 0.61613 0.19245 0.37697 0.0
H395 H 0.591 0.19579 0.3959 0.0
H396 H 0.58979 0.20681 0.36615 0.0
H397 H 0.61894 0.10307 0.37569 0.0
H398 H 0.59334 0.08758 0.36476 0.0
H399 H 0.5941 0.09825 0.39465 0.0
C400 C 0.86598 0.65922 0.41036 0.0
C401 C 0.85537 0.65201 0.43152 0.0
C402 C 0.86711 0.64376 0.39087 0.0
C403 C 0.85752 0.62071 0.39285 0.0
C404 C 0.84519 0.61425 0.41361 0.0
C405 C 0.84429 0.62994 0.43258 0.0
C406 C 0.8798 0.65164 0.36885 0.0
C407 C 0.8345 0.58998 0.41663 0.0
C408 C 0.8494 0.57116 0.34894 0.0
C409 C 0.86782 0.55629 0.35606 0.0
C410 C 0.84726 0.594 0.3586 0.0
C411 C 0.86375 0.60171 0.37579 0.0
C412 C 0.88386 0.58774 0.38063 0.0
C413 C 0.88563 0.56525 0.37067 0.0
C414 C 0.82618 0.60887 0.35213 0.0
C415 C 0.90211 0.59521 0.39858 0.0
H416 H 0.87432 0.6764 0.40936 0.0
H417 H 0.83557 0.62449 0.44873 0.0
H418 H 0.89858 0.6462 0.36991 0.0
H419 H 0.87205 0.64349 0.35283 0.0
H420 H 0.8793 0.67114 0.36698 0.0
H421 H 0.824 0.58844 0.43312 0.0
H422 H 0.82287 0.58571 0.4015 0.0
H423 H 0.84875 0.57654 0.41713 0.0
H424 H 0.83576 0.56439 0.33737 0.0
H425 H 0.90024 0.55394 0.3757 0.0
H426 H 0.8308 0.62791 0.35196 0.0
H427 H 0.81205 0.60623 0.36542 0.0
H428 H 0.81905 0.60387 0.33457 0.0
H429 H 0.90765 0.61371 0.39549 0.0
H430 H 0.91803 0.58377 0.39813 0.0
H431 H 0.89434 0.59424 0.41655 0.0
C432 C 0.35092 0.88228 0.41473 0.0
C433 C 0.34068 0.86098 0.42178 0.0
C434 C 0.36924 0.88253 0.39803 0.0
C435 C 0.3775 0.86091 0.38853 0.0
C436 C 0.3649 0.83985 0.39324 0.0
C437 C 0.34673 0.8401 0.4101 0.0
C438 C 0.38182 0.90548 0.39318 0.0
C439 C 0.37263 0.81654 0.38299 0.0
C440 C 0.43207 0.86388 0.34896 0.0
C441 C 0.45012 0.86154 0.36578 0.0
C442 C 0.40813 0.86276 0.35574 0.0
C443 C 0.40227 0.85945 0.37984 0.0
C444 C 0.42048 0.85587 0.39657 0.0
C445 C 0.44403 0.8568 0.38931 0.0
C446 C 0.38928 0.86623 0.33729 0.0
C447 C 0.41521 0.85206 0.42248 0.0
H448 H 0.34627 0.89839 0.42394 0.0
H449 H 0.33887 0.82359 0.41578 0.0
H450 H 0.3983 0.90614 0.40374 0.0
H451 H 0.38678 0.90685 0.3743 0.0
H452 H 0.37079 0.92096 0.398 0.0
H453 H 0.35821 0.80327 0.38366 0.0
H454 H 0.37853 0.81865 0.36443 0.0
H455 H 0.38776 0.80963 0.39333 0.0
H456 H 0.43659 0.86753 0.33074 0.0
H457 H 0.4578 0.85455 0.4024 0.0
H458 H 0.38308 0.88479 0.33782 0.0
H459 H 0.37382 0.8547 0.3407 0.0
H460 H 0.39609 0.8626 0.31926 0.0
H461 H 0.4059 0.86768 0.42975 0.0
H462 H 0.43144 0.84911 0.43307 0.0
H463 H 0.40347 0.83658 0.42479 0.0
C464 C 0.15907 0.56398 0.64335 0.0
C465 C 0.13784 0.5531 0.64963 0.0
C466 C 0.15905 0.58559 0.6312 0.0
C467 C 0.13723 0.59605 0.6248 0.0
C468 C 0.11592 0.58645 0.63367 0.0
C469 C 0.1165 0.56496 0.64597 0.0
C470 C 0.18221 0.59545 0.62253 0.0
C471 C 0.09228 0.59696 0.62739 0.0
C472 C 0.13645 0.652 0.58714 0.0
C473 C 0.136 0.64231 0.56436 0.0
C474 C 0.13676 0.63729 0.60722 0.0
C475 C 0.13638 0.61246 0.60429 0.0
C476 C 0.13539 0.60274 0.58129 0.0
C477 C 0.13532 0.61775 0.56172 0.0
C478 C 0.13798 0.64824 0.63144 0.0
C479 C 0.1347 0.57637 0.57722 0.0
H480 H 0.17554 0.55459 0.64598 0.0
H481 H 0.10007 0.55629 0.65061 0.0
H482 H 0.18497 0.59006 0.60391 0.0
H483 H 0.18217 0.61501 0.62314 0.0
H484 H 0.19729 0.58878 0.63314 0.0
H485 H 0.07819 0.59084 0.63958 0.0
H486 H 0.09292 0.61651 0.62774 0.0
H487 H 0.08744 0.5915 0.60921 0.0
H488 H 0.13711 0.67099 0.58925 0.0
H489 H 0.13492 0.6101 0.54421 0.0
H490 H 0.15491 0.64337 0.63999 0.0
H491 H 0.12359 0.64131 0.64278 0.0
H492 H 0.13667 0.66779 0.6308 0.0
H493 H 0.15093 0.56809 0.58437 0.0
H494 H 0.1333 0.57176 0.55822 0.0
H495 H 0.11943 0.5685 0.58663 0.0
C496 C 0.3703 0.11947 0.57499 0.0
C497 C 0.34867 0.13136 0.575 0.0
C498 C 0.38565 0.12087 0.59422 0.0
C499 C 0.37944 0.13496 0.61392 0.0
C500 C 0.35682 0.14562 0.61483 0.0
C501 C 0.34154 0.14358 0.5953 0.0
C502 C 0.40935 0.10871 0.59255 0.0
C503 C 0.34937 0.16058 0.63553 0.0
C504 C 0.42651 0.12598 0.65997 0.0
C505 C 0.44348 0.1419 0.65163 0.0
C506 C 0.40383 0.12535 0.64987 0.0
C507 C 0.39828 0.14104 0.6312 0.0
C508 C 0.41436 0.15924 0.62524 0.0
C509 C 0.43689 0.15926 0.63536 0.0
C510 C 0.38699 0.1061 0.65718 0.0
C511 C 0.40903 0.17676 0.60589 0.0
H512 H 0.37572 0.10974 0.55949 0.0
H513 H 0.32479 0.15282 0.59531 0.0
H514 H 0.4235 0.12213 0.59075 0.0
H515 H 0.41293 0.09842 0.6088 0.0
H516 H 0.41041 0.09659 0.57718 0.0
H517 H 0.32984 0.16175 0.63684 0.0
H518 H 0.35647 0.15353 0.65236 0.0
H519 H 0.35638 0.1787 0.63319 0.0
H520 H 0.43166 0.1125 0.67255 0.0
H521 H 0.45005 0.17167 0.62907 0.0
H522 H 0.38863 0.09106 0.64475 0.0
H523 H 0.36844 0.11236 0.6566 0.0
H524 H 0.39097 0.09956 0.67523 0.0
H525 H 0.41078 0.16793 0.58849 0.0
H526 H 0.42131 0.19203 0.60628 0.0
H527 H 0.39068 0.1834 0.60741 0.0
C528 C 0.87712 0.42449 0.6485 0.0
C529 C 0.85721 0.43902 0.6468 0.0
C530 C 0.87799 0.40282 0.6365 0.0
C531 C 0.85843 0.39567 0.62267 0.0
C532 C 0.83719 0.40884 0.62372 0.0
C533 C 0.83696 0.43061 0.63551 0.0
C534 C 0.90094 0.38933 0.63604 0.0
C535 C 0.81569 0.40157 0.60982 0.0
C536 C 0.87054 0.3726 0.56121 0.0
C537 C 0.8656 0.34849 0.5634 0.0
C538 C 0.86906 0.38778 0.58061 0.0
C539 C 0.86199 0.37877 0.60285 0.0
C540 C 0.85749 0.3543 0.60539 0.0
C541 C 0.85951 0.33936 0.5856 0.0
C542 C 0.87449 0.41366 0.57705 0.0
C543 C 0.84965 0.34407 0.62869 0.0
H544 H 0.8929 0.43122 0.65699 0.0
H545 H 0.82166 0.44202 0.63404 0.0
H546 H 0.89777 0.37002 0.63607 0.0
H547 H 0.91067 0.39375 0.61961 0.0
H548 H 0.91231 0.39393 0.65132 0.0
H549 H 0.79951 0.41053 0.61633 0.0
H550 H 0.81823 0.40639 0.591 0.0
H551 H 0.81302 0.3822 0.61073 0.0
H552 H 0.87539 0.37978 0.54418 0.0
H553 H 0.85555 0.32072 0.58733 0.0
H554 H 0.88796 0.41958 0.58995 0.0
H555 H 0.85833 0.4243 0.58007 0.0
H556 H 0.88111 0.41751 0.55899 0.0
H557 H 0.86051 0.35108 0.64339 0.0
H558 H 0.85068 0.3245 0.62882 0.0
H559 H 0.8311 0.34931 0.63213 0.0
C560 C 0.56472 0.87079 0.65001 0.0
C561 C 0.55037 0.85114 0.64572 0.0
C562 C 0.58643 0.87343 0.63827 0.0
C563 C 0.59393 0.8558 0.62221 0.0
C564 C 0.58075 0.83464 0.62016 0.0
C565 C 0.55887 0.83275 0.63163 0.0
C566 C 0.59978 0.89631 0.64092 0.0
C567 C 0.58839 0.81509 0.60377 0.0
C568 C 0.62114 0.87301 0.56367 0.0
C569 C 0.64481 0.86671 0.56677 0.0
C570 C 0.6048 0.87073 0.58207 0.0
C571 C 0.61217 0.86134 0.60405 0.0
C572 C 0.6363 0.85581 0.60762 0.0
C573 C 0.65245 0.8588 0.58892 0.0
C574 C 0.57938 0.87744 0.57757 0.0
C575 C 0.64482 0.84551 0.63064 0.0
H576 H 0.55788 0.88521 0.66059 0.0
H577 H 0.5476 0.81769 0.62815 0.0
H578 H 0.61909 0.89319 0.64124 0.0
H579 H 0.5959 0.90783 0.62556 0.0
H580 H 0.59459 0.90586 0.65723 0.0
H581 H 0.5789 0.79835 0.60752 0.0
H582 H 0.58462 0.8203 0.58527 0.0
H583 H 0.60765 0.81192 0.60525 0.0
H584 H 0.61525 0.87936 0.54662 0.0
H585 H 0.67076 0.85374 0.59126 0.0
H586 H 0.57286 0.8893 0.59172 0.0
H587 H 0.5682 0.86137 0.57774 0.0
H588 H 0.57701 0.88644 0.56031 0.0
H589 H 0.63732 0.85529 0.64585 0.0
H590 H 0.66437 0.84571 0.63195 0.0
H591 H 0.63871 0.82696 0.63205 0.0
C592 C 0.36713 0.11141 0.43751 0.0
C593 C 0.3537 0.12913 0.44836 0.0
C594 C 0.37718 0.11485 0.41524 0.0
C595 C 0.37376 0.13663 0.40351 0.0
C596 C 0.35775 0.15336 0.41304 0.0
C597 C 0.34788 0.14945 0.43555 0.0
C598 C 0.3938 0.0963 0.40571 0.0
C599 C 0.35291 0.17637 0.4006 0.0
C600 C 0.43141 0.15605 0.37674 0.0
C601 C 0.42937 0.14815 0.3534 0.0
C602 C 0.41273 0.15392 0.39269 0.0
C603 C 0.39121 0.1437 0.38516 0.0
C604 C 0.38837 0.13726 0.36114 0.0
C605 C 0.4076 0.13945 0.34548 0.0
C606 C 0.41671 0.16112 0.41807 0.0
C607 C 0.36557 0.12685 0.35223 0.0
H608 H 0.37119 0.09543 0.44725 0.0
H609 H 0.33728 0.16307 0.44381 0.0
H610 H 0.39058 0.09325 0.38667 0.0
H611 H 0.41228 0.1025 0.40768 0.0
H612 H 0.39198 0.07923 0.41519 0.0
H613 H 0.33619 0.1845 0.40682 0.0
H614 H 0.36752 0.1889 0.40423 0.0
H615 H 0.35196 0.17378 0.38121 0.0
H616 H 0.44804 0.16322 0.38289 0.0
H617 H 0.40584 0.13355 0.32737 0.0
H618 H 0.41637 0.14525 0.42956 0.0
H619 H 0.40244 0.17308 0.42409 0.0
H620 H 0.43389 0.17021 0.42064 0.0
H621 H 0.3655 0.10757 0.35564 0.0
H622 H 0.36359 0.12957 0.33291 0.0
H623 H 0.3501 0.13464 0.36138 0.0
C624 C 0.84903 0.34465 0.42664 0.0
C625 C 0.8713 0.3443 0.43728 0.0
C626 C 0.84562 0.3565 0.40508 0.0
C627 C 0.86491 0.36832 0.39435 0.0
C628 C 0.88794 0.36491 0.40342 0.0
C629 C 0.89082 0.35302 0.42491 0.0
C630 C 0.82087 0.35914 0.39569 0.0
C631 C 0.90911 0.37691 0.39258 0.0
C632 C 0.85983 0.40845 0.34035 0.0
C633 C 0.85689 0.4305 0.35124 0.0
C634 C 0.86156 0.38767 0.35398 0.0
C635 C 0.86049 0.38916 0.37894 0.0
C636 C 0.85685 0.41136 0.38982 0.0
C637 C 0.85503 0.4316 0.37588 0.0
C638 C 0.86503 0.36428 0.34178 0.0
C639 C 0.85561 0.41398 0.41637 0.0
H640 H 0.83391 0.33799 0.43631 0.0
H641 H 0.90804 0.35273 0.43326 0.0
H642 H 0.81322 0.37591 0.40231 0.0
H643 H 0.82077 0.3598 0.37613 0.0
H644 H 0.80937 0.34443 0.40168 0.0
H645 H 0.92589 0.36859 0.39839 0.0
H646 H 0.90828 0.37645 0.37304 0.0
H647 H 0.90937 0.3957 0.3981 0.0
H648 H 0.86111 0.40748 0.3213 0.0
H649 H 0.85249 0.4485 0.38446 0.0
H650 H 0.85232 0.35108 0.34865 0.0
H651 H 0.88301 0.3575 0.3455 0.0
H652 H 0.86284 0.36572 0.32235 0.0
H653 H 0.84141 0.40264 0.42363 0.0
H654 H 0.85216 0.43246 0.42193 0.0
H655 H 0.8725 0.40819 0.42443 0.0
C656 C 0.59523 0.86044 0.34209 0.0
C657 C 0.57502 0.87098 0.3517 0.0
C658 C 0.6156 0.8571 0.356 0.0
C659 C 0.61552 0.86456 0.37988 0.0
C660 C 0.5958 0.87712 0.3888 0.0
C661 C 0.57584 0.88003 0.37464 0.0
C662 C 0.63634 0.84411 0.34556 0.0
C663 C 0.59493 0.88594 0.41398 0.0
C664 C 0.63927 0.83453 0.43331 0.0
C665 C 0.65416 0.85221 0.44198 0.0
C666 C 0.62923 0.8364 0.41079 0.0
C667 C 0.6339 0.8567 0.39696 0.0
C668 C 0.65186 0.87253 0.40413 0.0
C669 C 0.66187 0.87009 0.42672 0.0
C670 C 0.61087 0.81855 0.40351 0.0
C671 C 0.65808 0.89385 0.38949 0.0
H672 H 0.59463 0.85342 0.3243 0.0
H673 H 0.56038 0.88855 0.38197 0.0
H674 H 0.65325 0.84982 0.3536 0.0
H675 H 0.63422 0.82493 0.34888 0.0
H676 H 0.63728 0.84678 0.32616 0.0
H677 H 0.57904 0.89688 0.4175 0.0
H678 H 0.59474 0.87071 0.4263 0.0
H679 H 0.6108 0.89664 0.418 0.0
H680 H 0.63348 0.82058 0.44508 0.0
H681 H 0.67344 0.88379 0.4334 0.0
H682 H 0.61242 0.81441 0.38445 0.0
H683 H 0.59302 0.826 0.40661 0.0
H684 H 0.61246 0.8019 0.41375 0.0
H685 H 0.65729 0.88974 0.37036 0.0
H686 H 0.67598 0.90052 0.39387 0.0
H687 H 0.64519 0.90814 0.39311 0.0
C688 C 0.16604 0.62896 0.43226 0.0
C689 C 0.14881 0.64511 0.43946 0.0
C690 C 0.16544 0.61904 0.40963 0.0
C691 C 0.14679 0.62508 0.39412 0.0
C692 C 0.13136 0.6438 0.40018 0.0
C693 C 0.13256 0.65369 0.42294 0.0
C694 C 0.18277 0.5997 0.4037 0.0
C695 C 0.11168 0.65126 0.38392 0.0
C696 C 0.14669 0.58882 0.33749 0.0
C697 C 0.13439 0.56876 0.34514 0.0
C698 C 0.14964 0.60838 0.35259 0.0
C699 C 0.13989 0.60771 0.37563 0.0
C700 C 0.12574 0.58825 0.38247 0.0
C701 C 0.12334 0.56904 0.36722 0.0
C702 C 0.16456 0.62884 0.34444 0.0
C703 C 0.11451 0.58683 0.40665 0.0
H704 H 0.17869 0.62245 0.44508 0.0
H705 H 0.11917 0.66617 0.42854 0.0
H706 H 0.174 0.5823 0.40579 0.0
H707 H 0.18876 0.6012 0.38512 0.0
H708 H 0.19846 0.60012 0.41544 0.0
H709 H 0.1054 0.66934 0.38812 0.0
H710 H 0.11741 0.65066 0.3652 0.0
H711 H 0.0966 0.63893 0.38598 0.0
H712 H 0.15527 0.58863 0.32038 0.0
H713 H 0.11351 0.55374 0.37305 0.0
H714 H 0.18301 0.62612 0.35041 0.0
H715 H 0.15824 0.64577 0.35197 0.0
H716 H 0.1647 0.63021 0.32488 0.0
H717 H 0.12846 0.58514 0.42028 0.0
H718 H 0.10239 0.57151 0.40834 0.0
H719 H 0.1044 0.60314 0.41047 0.0
C720 C 0.38612 0.84432 0.54951 0.0
C721 C 0.3627 0.85108 0.54514 0.0
C722 C 0.39536 0.84414 0.5724 0.0
C723 C 0.38084 0.85075 0.59164 0.0
C724 C 0.35671 0.85603 0.58761 0.0
C725 C 0.34789 0.85616 0.56434 0.0
C726 C 0.42116 0.83817 0.57576 0.0
C727 C 0.34058 0.86283 0.60767 0.0
C728 C 0.41193 0.83561 0.6487 0.0
C729 C 0.42487 0.8563 0.65245 0.0
C730 C 0.39531 0.83423 0.63033 0.0
C731 C 0.39192 0.85393 0.6153 0.0
C732 C 0.40336 0.87554 0.6206 0.0
C733 C 0.41984 0.8764 0.63907 0.0
C734 C 0.38328 0.81097 0.62556 0.0
C735 C 0.4002 0.89705 0.60522 0.0
H736 H 0.39761 0.84003 0.53483 0.0
H737 H 0.32979 0.86144 0.56111 0.0
H738 H 0.43078 0.85394 0.58224 0.0
H739 H 0.42317 0.82411 0.58922 0.0
H740 H 0.42966 0.83215 0.55915 0.0
H741 H 0.32171 0.86208 0.60242 0.0
H742 H 0.34335 0.85111 0.62311 0.0
H743 H 0.34467 0.88111 0.61334 0.0
H744 H 0.41612 0.81998 0.65893 0.0
H745 H 0.42998 0.89235 0.64195 0.0
H746 H 0.39239 0.80189 0.6108 0.0
H747 H 0.36464 0.81372 0.62025 0.0
H748 H 0.38375 0.79922 0.64125 0.0
H749 H 0.40964 0.89435 0.58827 0.0
H750 H 0.40728 0.91324 0.61371 0.0
H751 H 0.38128 0.89987 0.60107 0.0
C752 C 0.12904 0.41147 0.65164 0.0
C753 C 0.14743 0.42786 0.6531 0.0
C754 C 0.12896 0.39429 0.6337 0.0
C755 C 0.14782 0.39356 0.61723 0.0
C756 C 0.1677 0.40831 0.62064 0.0
C757 C 0.16706 0.42557 0.63831 0.0
C758 C 0.10745 0.37891 0.63075 0.0
C759 C 0.18838 0.40796 0.60385 0.0
C760 C 0.15083 0.35136 0.56467 0.0
C761 C 0.1416 0.36569 0.54669 0.0
C762 C 0.15223 0.35966 0.58813 0.0
C763 C 0.14421 0.38275 0.59356 0.0
C764 C 0.13417 0.39686 0.5756 0.0
C765 C 0.13298 0.3882 0.55259 0.0
C766 C 0.16285 0.34407 0.60689 0.0
C767 C 0.12531 0.4216 0.58044 0.0
H768 H 0.11382 0.41339 0.66309 0.0
H769 H 0.18133 0.43825 0.63964 0.0
H770 H 0.09575 0.38677 0.61715 0.0
H771 H 0.11241 0.36097 0.62471 0.0
H772 H 0.09728 0.37745 0.64746 0.0
H773 H 0.20412 0.41675 0.61153 0.0
H774 H 0.19314 0.38962 0.59899 0.0
H775 H 0.18351 0.41742 0.5874 0.0
H776 H 0.15735 0.33388 0.56036 0.0
H777 H 0.12539 0.3994 0.5391 0.0
H778 H 0.15158 0.34395 0.6229 0.0
H779 H 0.18033 0.35115 0.61211 0.0
H780 H 0.16523 0.32564 0.60065 0.0
H781 H 0.11226 0.42142 0.59504 0.0
H782 H 0.11687 0.42976 0.56474 0.0
H783 H 0.14022 0.43301 0.58598 0.0
C784 C 0.56709 0.12795 0.62906 0.0
C785 C 0.56846 0.13369 0.65304 0.0
C786 C 0.58666 0.13026 0.61419 0.0
C787 C 0.60823 0.13889 0.62341 0.0
C788 C 0.61015 0.14359 0.64791 0.0
C789 C 0.59018 0.14081 0.66252 0.0
C790 C 0.58379 0.12454 0.58828 0.0
C791 C 0.63275 0.1528 0.65847 0.0
C792 C 0.65436 0.12994 0.57646 0.0
C793 C 0.65018 0.15003 0.56267 0.0
C794 C 0.64306 0.12715 0.5984 0.0
C795 C 0.62751 0.14496 0.60655 0.0
C796 C 0.62626 0.1667 0.59426 0.0
C797 C 0.6374 0.16885 0.57226 0.0
C798 C 0.64527 0.10388 0.61113 0.0
C799 C 0.61049 0.18646 0.6026 0.0
H800 H 0.55045 0.12214 0.62169 0.0
H801 H 0.59129 0.14531 0.68108 0.0
H802 H 0.58537 0.14093 0.57769 0.0
H803 H 0.5979 0.11231 0.58241 0.0
H804 H 0.56643 0.11632 0.58435 0.0
H805 H 0.63328 0.15004 0.67788 0.0
H806 H 0.64839 0.14421 0.6504 0.0
H807 H 0.6341 0.17202 0.655 0.0
H808 H 0.6641 0.11528 0.56894 0.0
H809 H 0.63417 0.18437 0.56153 0.0
H810 H 0.63006 0.09249 0.6064 0.0
H811 H 0.64501 0.10641 0.63054 0.0
H812 H 0.66174 0.0945 0.60612 0.0
H813 H 0.59187 0.18214 0.59831 0.0
H814 H 0.615 0.20347 0.59395 0.0
H815 H 0.61178 0.18868 0.622 0.0
C816 C 0.86946 0.5633 0.62298 0.0
C817 C 0.8622 0.56477 0.64654 0.0
C818 C 0.86833 0.58289 0.60799 0.0
C819 C 0.85917 0.60451 0.61659 0.0
C820 C 0.85267 0.60643 0.64068 0.0
C821 C 0.85446 0.5865 0.65549 0.0
C822 C 0.87601 0.58006 0.58259 0.0
C823 C 0.84268 0.62906 0.65049 0.0
C824 C 0.87185 0.65195 0.57164 0.0
C825 C 0.85272 0.64862 0.55637 0.0
C826 C 0.87308 0.63968 0.59319 0.0
C827 C 0.85467 0.62395 0.59945 0.0
C828 C 0.83396 0.62312 0.58547 0.0
C829 C 0.83339 0.63523 0.56389 0.0
C830 C 0.89539 0.64128 0.60761 0.0
C831 C 0.81365 0.60705 0.5917 0.0
H832 H 0.87574 0.54665 0.61605 0.0
H833 H 0.84875 0.58765 0.67371 0.0
H834 H 0.86047 0.58165 0.57079 0.0
H835 H 0.88863 0.59419 0.57767 0.0
H836 H 0.88453 0.56271 0.57927 0.0
H837 H 0.84271 0.62914 0.6701 0.0
H838 H 0.85278 0.64454 0.64405 0.0
H839 H 0.82421 0.63115 0.64436 0.0
H840 H 0.88695 0.66206 0.56563 0.0
H841 H 0.81868 0.63254 0.55194 0.0
H842 H 0.90691 0.62603 0.60334 0.0
H843 H 0.89145 0.64058 0.62677 0.0
H844 H 0.90531 0.65773 0.60371 0.0
H845 H 0.8184 0.58859 0.58722 0.0
H846 H 0.79738 0.61178 0.58185 0.0
H847 H 0.80985 0.60774 0.61089 0.0
C848 C 0.37695 0.432 0.13242 0.0
C849 C 0.35318 0.43083 0.13902 0.0
C850 C 0.39172 0.41235 0.13417 0.0
C851 C 0.38262 0.39084 0.14312 0.0
C852 C 0.35831 0.38912 0.14879 0.0
C853 C 0.34377 0.40921 0.14657 0.0
C854 C 0.41741 0.41504 0.12741 0.0
C855 C 0.34787 0.3666 0.15838 0.0
C856 C 0.42906 0.34542 0.13072 0.0
C857 C 0.44415 0.34982 0.14978 0.0
C858 C 0.40673 0.35618 0.12961 0.0
C859 C 0.39954 0.37136 0.14813 0.0
C860 C 0.41319 0.37252 0.16903 0.0
C861 C 0.43561 0.36207 0.16943 0.0
C862 C 0.39257 0.35409 0.10719 0.0
C863 C 0.40575 0.38769 0.1896 0.0
H864 H 0.3843 0.44855 0.12633 0.0
H865 H 0.32538 0.40826 0.15176 0.0
H866 H 0.42865 0.41326 0.14334 0.0
H867 H 0.42267 0.401 0.11484 0.0
H868 H 0.42119 0.43243 0.11916 0.0
H869 H 0.32845 0.36602 0.15578 0.0
H870 H 0.3559 0.35085 0.14998 0.0
H871 H 0.35144 0.36556 0.1776 0.0
H872 H 0.43576 0.33603 0.11544 0.0
H873 H 0.44733 0.3654 0.18418 0.0
H874 H 0.39638 0.3695 0.09572 0.0
H875 H 0.37336 0.35403 0.11097 0.0
H876 H 0.3972 0.33781 0.09729 0.0
H877 H 0.40973 0.40644 0.18555 0.0
H878 H 0.4153 0.38278 0.206 0.0
H879 H 0.38649 0.38618 0.19278 0.0
C880 C 0.43396 0.65101 0.86361 0.0
C881 C 0.45322 0.63561 0.86124 0.0
C882 C 0.4106 0.6425 0.86209 0.0
C883 C 0.40659 0.61808 0.85835 0.0
C884 C 0.42602 0.60283 0.85464 0.0
C885 C 0.44895 0.61181 0.85593 0.0
C886 C 0.39035 0.6594 0.86559 0.0
C887 C 0.42272 0.57667 0.85048 0.0
C888 C 0.3565 0.58109 0.88157 0.0
C889 C 0.34591 0.57404 0.86046 0.0
C890 C 0.37478 0.59781 0.88154 0.0
C891 C 0.38253 0.60756 0.85982 0.0
C892 C 0.37001 0.60234 0.83884 0.0
C893 C 0.35198 0.58533 0.83936 0.0
C894 C 0.38754 0.60285 0.90435 0.0
C895 C 0.37728 0.61275 0.81543 0.0
H896 H 0.43707 0.66944 0.86768 0.0
H897 H 0.46368 0.59981 0.85361 0.0
H898 H 0.37581 0.65558 0.85306 0.0
H899 H 0.38323 0.65732 0.88371 0.0
H900 H 0.39598 0.67804 0.8633 0.0
H901 H 0.43971 0.56737 0.84738 0.0
H902 H 0.41399 0.56853 0.86602 0.0
H903 H 0.41116 0.57369 0.83499 0.0
H904 H 0.35178 0.57218 0.89784 0.0
H905 H 0.34381 0.57966 0.82301 0.0
H906 H 0.39142 0.62195 0.90603 0.0
H907 H 0.40464 0.5933 0.90443 0.0
H908 H 0.37717 0.59709 0.91997 0.0
H909 H 0.38226 0.63158 0.81739 0.0
H910 H 0.36295 0.6113 0.80214 0.0
H911 H 0.39292 0.60313 0.80863 0.0
C912 C 0.44031 0.38059 0.86434 0.0
C913 C 0.43696 0.35664 0.85932 0.0
C914 C 0.42139 0.39645 0.8644 0.0
C915 C 0.39843 0.3883 0.85878 0.0
C916 C 0.39475 0.364 0.8542 0.0
C917 C 0.4141 0.34835 0.85473 0.0
C918 C 0.42615 0.42211 0.86994 0.0
C919 C 0.37064 0.3547 0.84785 0.0
C920 C 0.35405 0.43445 0.87708 0.0
C921 C 0.35421 0.44895 0.85708 0.0
C922 C 0.36637 0.41292 0.87719 0.0
C923 C 0.37896 0.40588 0.85676 0.0
C924 C 0.37672 0.41922 0.83572 0.0
C925 C 0.36466 0.44085 0.83624 0.0
C926 C 0.36827 0.39934 0.90002 0.0
C927 C 0.38937 0.41211 0.81338 0.0
H928 H 0.45787 0.38709 0.86814 0.0
H929 H 0.41147 0.32983 0.85074 0.0
H930 H 0.42247 0.43309 0.85415 0.0
H931 H 0.41432 0.42824 0.88428 0.0
H932 H 0.44471 0.42523 0.87543 0.0
H933 H 0.3701 0.33511 0.84774 0.0
H934 H 0.35714 0.36134 0.86039 0.0
H935 H 0.3657 0.36116 0.83004 0.0
H936 H 0.34626 0.44098 0.8933 0.0
H937 H 0.36497 0.45227 0.82088 0.0
H938 H 0.38541 0.40347 0.90853 0.0
H939 H 0.36774 0.38005 0.89681 0.0
H940 H 0.35391 0.4041 0.9125 0.0
H941 H 0.40837 0.41655 0.81499 0.0
H942 H 0.38219 0.42144 0.7977 0.0
H943 H 0.38799 0.39281 0.81047 0.0
C944 C 0.66076 0.41168 0.8541 0.0
C945 C 0.65094 0.43351 0.86041 0.0
C946 C 0.64648 0.39139 0.85213 0.0
C947 C 0.62198 0.39308 0.85689 0.0
C948 C 0.61236 0.41489 0.86448 0.0
C949 C 0.62689 0.43478 0.86591 0.0
C950 C 0.65742 0.36858 0.84387 0.0
C951 C 0.58643 0.41754 0.87025 0.0
C952 C 0.57087 0.361 0.83015 0.0
C953 C 0.56207 0.34924 0.85 0.0
C954 C 0.59268 0.37267 0.83097 0.0
C955 C 0.60554 0.37305 0.8524 0.0
C956 C 0.59823 0.35845 0.87136 0.0
C957 C 0.57649 0.34657 0.86989 0.0
C958 C 0.60014 0.38735 0.81005 0.0
C959 C 0.61153 0.35803 0.89439 0.0
H960 H 0.67937 0.41066 0.84975 0.0
H961 H 0.61923 0.4515 0.87105 0.0
H962 H 0.65003 0.35328 0.8536 0.0
H963 H 0.65338 0.36603 0.82489 0.0
H964 H 0.6769 0.36868 0.84602 0.0
H965 H 0.58216 0.43525 0.87747 0.0
H966 H 0.57575 0.41477 0.85408 0.0
H967 H 0.58097 0.40405 0.88334 0.0
H968 H 0.55961 0.36313 0.81482 0.0
H969 H 0.56954 0.33769 0.88536 0.0
H970 H 0.61954 0.38656 0.80753 0.0
H971 H 0.59527 0.40606 0.81322 0.0
H972 H 0.59135 0.38144 0.79356 0.0
H973 H 0.63086 0.35855 0.89138 0.0
H974 H 0.60712 0.3421 0.90494 0.0
H975 H 0.60668 0.37384 0.90489 0.0
C976 C 0.63046 0.56639 0.84105 0.0
C977 C 0.64894 0.55904 0.85569 0.0
C978 C 0.62109 0.58917 0.84284 0.0
C979 C 0.63031 0.60493 0.85992 0.0
C980 C 0.65095 0.5986 0.87256 0.0
C981 C 0.66007 0.57557 0.87033 0.0
C982 C 0.59941 0.5952 0.82856 0.0
C983 C 0.66185 0.61514 0.89029 0.0
C984 C 0.59518 0.66196 0.85942 0.0
C985 C 0.57639 0.65548 0.87414 0.0
C986 C 0.6146 0.6467 0.85627 0.0
C987 C 0.61496 0.62466 0.86815 0.0
C988 C 0.59725 0.61952 0.88504 0.0
C989 C 0.57814 0.63491 0.88766 0.0
C990 C 0.63342 0.65322 0.83864 0.0
C991 C 0.59699 0.5965 0.89853 0.0
H992 H 0.62205 0.55365 0.82951 0.0
H993 H 0.67442 0.56992 0.88165 0.0
H994 H 0.58365 0.59486 0.8402 0.0
H995 H 0.60088 0.6132 0.82103 0.0
H996 H 0.59652 0.58252 0.8139 0.0
H997 H 0.68072 0.61079 0.8934 0.0
H998 H 0.66046 0.63376 0.88439 0.0
H999 H 0.65236 0.6135 0.90735 0.0
H1000 H 0.5938 0.67787 0.84888 0.0
H1001 H 0.56373 0.63 0.8992 0.0
H1002 H 0.62877 0.64572 0.82116 0.0
H1003 H 0.65087 0.64602 0.84384 0.0
H1004 H 0.63484 0.67267 0.83667 0.0
H1005 H 0.59293 0.58179 0.88626 0.0
H1006 H 0.58357 0.59646 0.91284 0.0
H1007 H 0.61452 0.59296 0.90645 0.0
C1008 C 0.65668 0.59866 0.15159 0.0
C1009 C 0.65222 0.58084 0.13508 0.0
C1010 C 0.64031 0.61706 0.15502 0.0
C1011 C 0.61928 0.61747 0.14149 0.0
C1012 C 0.61626 0.60095 0.12297 0.0
C1013 C 0.63263 0.58266 0.12023 0.0
C1014 C 0.64444 0.63452 0.17465 0.0
C1015 C 0.59442 0.60094 0.10769 0.0
C1016 C 0.55904 0.62922 0.16655 0.0
C1017 C 0.55219 0.64924 0.15378 0.0
C1018 C 0.5819 0.6201 0.16462 0.0
C1019 C 0.59835 0.63126 0.14945 0.0
C1020 C 0.59236 0.65303 0.13868 0.0
C1021 C 0.56921 0.66183 0.14096 0.0
C1022 C 0.58749 0.59702 0.17678 0.0
C1023 C 0.60954 0.66582 0.12289 0.0
H1024 H 0.67181 0.5971 0.1632 0.0
H1025 H 0.62927 0.56889 0.10742 0.0
H1026 H 0.63781 0.6523 0.16979 0.0
H1027 H 0.63473 0.6287 0.19063 0.0
H1028 H 0.66346 0.63581 0.17921 0.0
H1029 H 0.59633 0.58912 0.09216 0.0
H1030 H 0.57909 0.59481 0.11825 0.0
H1031 H 0.59043 0.61901 0.10134 0.0
H1032 H 0.54593 0.61964 0.1767 0.0
H1033 H 0.56396 0.67733 0.13105 0.0
H1034 H 0.60495 0.5979 0.18555 0.0
H1035 H 0.58826 0.58267 0.16347 0.0
H1036 H 0.57398 0.59227 0.19018 0.0
H1037 H 0.62788 0.66415 0.12954 0.0
H1038 H 0.60501 0.68483 0.12133 0.0
H1039 H 0.60894 0.65795 0.10497 0.0
C1040 C 0.36862 0.56778 0.11505 0.0
C1041 C 0.35429 0.55753 0.13242 0.0
C1042 C 0.37772 0.59052 0.11782 0.0
C1043 C 0.37227 0.60341 0.1385 0.0
C1044 C 0.35515 0.59445 0.15445 0.0
C1045 C 0.34639 0.57137 0.15131 0.0
C1046 C 0.39553 0.5994 0.10006 0.0
C1047 C 0.34789 0.60822 0.176 0.0
C1048 C 0.42848 0.63105 0.15999 0.0
C1049 C 0.4275 0.65352 0.14974 0.0
C1050 C 0.40958 0.61536 0.15827 0.0
C1051 C 0.38897 0.62226 0.14595 0.0
C1052 C 0.38699 0.6457 0.13735 0.0
C1053 C 0.40642 0.66114 0.13927 0.0
C1054 C 0.4126 0.59066 0.16795 0.0
C1055 C 0.36507 0.65409 0.12484 0.0
H1056 H 0.37418 0.55729 0.10004 0.0
H1057 H 0.33496 0.56362 0.16456 0.0
H1058 H 0.39182 0.61799 0.09528 0.0
H1059 H 0.41346 0.59874 0.10792 0.0
H1060 H 0.39561 0.58864 0.08367 0.0
H1061 H 0.33028 0.60253 0.18249 0.0
H1062 H 0.36088 0.6052 0.19032 0.0
H1063 H 0.34743 0.62744 0.17223 0.0
H1064 H 0.44454 0.62528 0.16865 0.0
H1065 H 0.40548 0.67864 0.13162 0.0
H1066 H 0.41321 0.57783 0.15317 0.0
H1067 H 0.39743 0.58588 0.17934 0.0
H1068 H 0.42904 0.58871 0.17844 0.0
H1069 H 0.36679 0.65048 0.10568 0.0
H1070 H 0.36268 0.67342 0.12707 0.0
H1071 H 0.34906 0.64489 0.13139 0.0
C1072 C 0.65014 0.43897 0.13376 0.0
C1073 C 0.64005 0.45652 0.14796 0.0
C1074 C 0.63993 0.41637 0.13249 0.0
C1075 C 0.61949 0.41133 0.146 0.0
C1076 C 0.61105 0.42824 0.16236 0.0
C1077 C 0.62125 0.45074 0.16291 0.0
C1078 C 0.64952 0.39888 0.11487 0.0
C1079 C 0.58969 0.42346 0.17758 0.0
C1080 C 0.56781 0.37689 0.12199 0.0
C1081 C 0.56902 0.35604 0.1351 0.0
C1082 C 0.58538 0.39415 0.12393 0.0
C1083 C 0.60421 0.39079 0.14004 0.0
C1084 C 0.60619 0.36913 0.15239 0.0
C1085 C 0.5886 0.35181 0.14957 0.0
C1086 C 0.58282 0.41669 0.10991 0.0
C1087 C 0.62577 0.36495 0.16992 0.0
H1088 H 0.66457 0.44353 0.12204 0.0
H1089 H 0.61352 0.46435 0.17393 0.0
H1090 H 0.64907 0.38068 0.12206 0.0
H1091 H 0.63835 0.39918 0.09879 0.0
H1092 H 0.66792 0.4032 0.10964 0.0
H1093 H 0.5878 0.43668 0.19193 0.0
H1094 H 0.57355 0.42407 0.16651 0.0
H1095 H 0.59074 0.40562 0.18557 0.0
H1096 H 0.55264 0.38007 0.1108 0.0
H1097 H 0.5893 0.33573 0.15992 0.0
H1098 H 0.59978 0.42139 0.10133 0.0
H1099 H 0.57799 0.43136 0.12195 0.0
H1100 H 0.569 0.41526 0.09609 0.0
H1101 H 0.64288 0.3715 0.16303 0.0
H1102 H 0.62757 0.34596 0.17443 0.0
H1103 H 0.62187 0.37483 0.18637 0.0
C1104 C 0.04861 0.33818 0.46647 0.0
C1105 C 0.06701 0.32691 0.47858 0.0
C1106 C 0.02495 0.33422 0.47264 0.0
C1107 C 0.01952 0.31883 0.49159 0.0
C1108 C 0.0379 0.30624 0.50289 0.0
C1109 C 0.06145 0.31034 0.49617 0.0
C1110 C 0.00587 0.3477 0.45982 0.0
C1111 C 0.03288 0.28967 0.52313 0.0
C1112 C 0.96396 0.33808 0.52328 0.0
C1113 C 0.9468 0.32367 0.51278 0.0
C1114 C 0.98793 0.33555 0.51772 0.0
C1115 C 0.99499 0.31826 0.50111 0.0
C1116 C 0.97801 0.30244 0.49184 0.0
C1117 C 0.95408 0.30528 0.49786 0.0
C1118 C 0.00549 0.35253 0.52838 0.0
C1119 C 0.98482 0.28367 0.47423 0.0
H1120 H 0.05273 0.3508 0.45269 0.0
H1121 H 0.07554 0.30157 0.50568 0.0
H1122 H 0.99154 0.3356 0.45425 0.0
H1123 H 0.99799 0.36097 0.47188 0.0
H1124 H 0.01273 0.35702 0.44399 0.0
H1125 H 0.04839 0.2785 0.52749 0.0
H1126 H 0.02811 0.30009 0.53901 0.0
H1127 H 0.01769 0.27804 0.51899 0.0
H1128 H 0.95851 0.35216 0.53504 0.0
H1129 H 0.94095 0.29408 0.48962 0.0
H1130 H 0.012 0.36475 0.51452 0.0
H1131 H 0.02097 0.34284 0.53542 0.0
H1132 H 0.99763 0.36318 0.54284 0.0
H1133 H 0.98848 0.29206 0.45692 0.0
H1134 H 0.97057 0.27043 0.47181 0.0
H1135 H 0.00114 0.27444 0.47984 0.0
C1136 C 0.64304 0.05274 0.50532 0.0
C1137 C 0.65964 0.0666 0.49328 0.0
C1138 C 0.64595 0.02829 0.50753 0.0
C1139 C 0.66566 0.01721 0.4969 0.0
C1140 C 0.68262 0.03109 0.48481 0.0
C1141 C 0.67957 0.05573 0.48342 0.0
C1142 C 0.6277 0.01427 0.52103 0.0
C1143 C 0.70355 0.01985 0.47277 0.0
C1144 C 0.67764 0.95461 0.51826 0.0
C1145 C 0.66385 0.94157 0.50247 0.0
C1146 C 0.6793 0.97932 0.51615 0.0
C1147 C 0.66744 0.99096 0.49742 0.0
C1148 C 0.65484 0.97751 0.48057 0.0
C1149 C 0.65286 0.95303 0.48355 0.0
C1150 C 0.69245 0.99304 0.53477 0.0
C1151 C 0.64247 0.98907 0.45998 0.0
H1152 H 0.6278 0.06109 0.51333 0.0
H1153 H 0.69244 0.0664 0.47411 0.0
H1154 H 0.61827 0.00222 0.50884 0.0
H1155 H 0.63639 0.00321 0.53465 0.0
H1156 H 0.61447 0.02577 0.52982 0.0
H1157 H 0.71572 0.03316 0.46508 0.0
H1158 H 0.71352 0.00876 0.48544 0.0
H1159 H 0.69731 0.00807 0.45844 0.0
H1160 H 0.68605 0.94567 0.53293 0.0
H1161 H 0.6424 0.94282 0.4712 0.0
H1162 H 0.67966 0.0032 0.54558 0.0
H1163 H 0.70463 0.00594 0.5265 0.0
H1164 H 0.70275 0.98135 0.54667 0.0
H1165 H 0.627 0.99917 0.46646 0.0
H1166 H 0.63622 0.97595 0.44683 0.0
H1167 H 0.65444 0.00173 0.45103 0.0
C1168 C 0.94567 0.68371 0.50186 0.0
C1169 C 0.93684 0.66789 0.48499 0.0
C1170 C 0.97007 0.68556 0.50605 0.0
C1171 C 0.98598 0.67163 0.49271 0.0
C1172 C 0.97719 0.65686 0.47457 0.0
C1173 C 0.95273 0.65495 0.47113 0.0
C1174 C 0.97866 0.70126 0.52577 0.0
C1175 C 0.99354 0.64213 0.45954 0.0
C1176 C 0.05242 0.68227 0.49306 0.0
C1177 C 0.06023 0.66372 0.50749 0.0
C1178 C 0.0282 0.68568 0.48865 0.0
C1179 C 0.01146 0.6704 0.49923 0.0
C1180 C 0.01924 0.65253 0.51488 0.0
C1181 C 0.04349 0.6493 0.51865 0.0
C1182 C 0.02065 0.70478 0.47171 0.0
C1183 C 0.00201 0.63614 0.52693 0.0
H1184 H 0.93345 0.69363 0.51274 0.0
H1185 H 0.94599 0.64287 0.45792 0.0
H1186 H 0.98515 0.69016 0.54054 0.0
H1187 H 0.99366 0.7123 0.51974 0.0
H1188 H 0.9645 0.71299 0.53257 0.0
H1189 H 0.98421 0.63374 0.44449 0.0
H1190 H 0.00814 0.65314 0.45252 0.0
H1191 H 0.00157 0.62802 0.4705 0.0
H1192 H 0.06526 0.6934 0.48427 0.0
H1193 H 0.04939 0.63508 0.53002 0.0
H1194 H 0.00613 0.71543 0.47938 0.0
H1195 H 0.0138 0.69658 0.4553 0.0
H1196 H 0.03545 0.71674 0.46697 0.0
H1197 H 0.98794 0.64643 0.53585 0.0
H1198 H 0.01072 0.62462 0.54019 0.0
H1199 H 0.99336 0.62474 0.51357 0.0
C1200 C 0.33182 0.03723 0.53318 0.0
C1201 C 0.32099 0.05531 0.52023 0.0
C1202 C 0.32887 0.01351 0.5269 0.0
C1203 C 0.31485 0.00772 0.50706 0.0
C1204 C 0.30211 0.02571 0.49526 0.0
C1205 C 0.30528 0.04938 0.50205 0.0
C1206 C 0.34247 0.99487 0.54025 0.0
C1207 C 0.28676 0.02025 0.47422 0.0
C1208 C 0.33965 0.95496 0.47456 0.0
C1209 C 0.32587 0.93644 0.48351 0.0
C1210 C 0.33524 0.97842 0.481 0.0
C1211 C 0.3166 0.98358 0.49683 0.0
C1212 C 0.30164 0.9652 0.50473 0.0
C1213 C 0.30644 0.94181 0.49796 0.0
C1214 C 0.35147 0.99753 0.47191 0.0
C1215 C 0.28145 0.97001 0.52142 0.0
H1216 H 0.34375 0.04172 0.54746 0.0
H1217 H 0.29687 0.06327 0.49195 0.0
H1218 H 0.33091 0.97969 0.54458 0.0
H1219 H 0.35707 0.98817 0.52903 0.0
H1220 H 0.35016 0.00183 0.55688 0.0
H1221 H 0.27459 0.03505 0.47006 0.0
H1222 H 0.29812 0.01706 0.45859 0.0
H1223 H 0.27622 0.00404 0.47728 0.0
H1224 H 0.35447 0.95107 0.4631 0.0
H1225 H 0.2956 0.92766 0.5049 0.0
H1226 H 0.36206 0.00472 0.48673 0.0
H1227 H 0.34107 0.01232 0.46441 0.0
H1228 H 0.36378 0.99093 0.45814 0.0
H1229 H 0.28853 0.97366 0.5393 0.0
H1230 H 0.26917 0.95478 0.52265 0.0
H1231 H 0.27138 0.98582 0.51576 0.0
C1232 C 0.52819 0.96444 0.34337 0.0
C1233 C 0.51448 0.94656 0.33322 0.0
C1234 C 0.52222 0.98827 0.34046 0.0
C1235 C 0.50174 0.99435 0.3275 0.0
C1236 C 0.48858 0.97644 0.31609 0.0
C1237 C 0.49524 0.95271 0.31892 0.0
C1238 C 0.53709 0.00684 0.35246 0.0
C1239 C 0.46656 0.98218 0.30225 0.0
C1240 C 0.47388 0.05066 0.35029 0.0
C1241 C 0.48257 0.06749 0.33435 0.0
C1242 C 0.47881 0.02658 0.34739 0.0
C1243 C 0.49297 0.01912 0.32818 0.0
C1244 C 0.50061 0.03581 0.31124 0.0
C1245 C 0.49523 0.05981 0.31446 0.0
C1246 C 0.46996 0.0093 0.36565 0.0
C1247 C 0.51574 0.02857 0.29054 0.0
H1248 H 0.5432 0.95974 0.35427 0.0
H1249 H 0.48449 0.93891 0.31117 0.0
H1250 H 0.54149 0.02122 0.33992 0.0
H1251 H 0.52697 0.01479 0.36723 0.0
H1252 H 0.55378 0.99946 0.35964 0.0
H1253 H 0.46031 0.96687 0.29173 0.0
H1254 H 0.45231 0.98741 0.31463 0.0
H1255 H 0.46967 0.99728 0.2902 0.0
H1256 H 0.46385 0.05638 0.36555 0.0
H1257 H 0.50204 0.07266 0.30203 0.0
H1258 H 0.48508 0.00238 0.376 0.0
H1259 H 0.46132 0.99403 0.35697 0.0
H1260 H 0.45719 0.01751 0.37807 0.0
H1261 H 0.53366 0.02392 0.2969 0.0
H1262 H 0.5174 0.04291 0.27726 0.0
H1263 H 0.50835 0.0127 0.28179 0.0
C1264 C 0.94278 0.49375 0.30429 0.0
C1265 C 0.93721 0.48148 0.32511 0.0
C1266 C 0.96628 0.49947 0.29871 0.0
C1267 C 0.98456 0.49278 0.31435 0.0
C1268 C 0.9792 0.47887 0.33442 0.0
C1269 C 0.95564 0.47336 0.33951 0.0
C1270 C 0.97132 0.514 0.27697 0.0
C1271 C 0.99818 0.47114 0.35147 0.0
C1272 C 0.05041 0.49587 0.30293 0.0
C1273 C 0.05659 0.51523 0.31705 0.0
C1274 C 0.02666 0.48925 0.30021 0.0
C1275 C 0.00883 0.50249 0.31169 0.0
C1276 C 0.01491 0.52342 0.32389 0.0
C1277 C 0.03874 0.52945 0.32656 0.0
C1278 C 0.0209 0.46694 0.28689 0.0
C1279 C 0.99643 0.53835 0.336 0.0
H1280 H 0.92872 0.50003 0.29294 0.0
H1281 H 0.95161 0.46358 0.35546 0.0
H1282 H 0.97487 0.53252 0.28224 0.0
H1283 H 0.98722 0.50738 0.26767 0.0
H1284 H 0.95619 0.51395 0.2645 0.0
H1285 H 0.99141 0.45864 0.36498 0.0
H1286 H 0.01293 0.46257 0.34186 0.0
H1287 H 0.00547 0.48681 0.36067 0.0
H1288 H 0.06417 0.48477 0.2956 0.0
H1289 H 0.04347 0.54457 0.33728 0.0
H1290 H 0.00479 0.46925 0.27601 0.0
H1291 H 0.01738 0.45252 0.29967 0.0
H1292 H 0.03569 0.46139 0.27526 0.0
H1293 H 0.98135 0.54172 0.324 0.0
H1294 H 0.00364 0.55556 0.34201 0.0
H1295 H 0.98952 0.52875 0.35162 0.0
C1296 C 0.49903 0.9403 0.6891 0.0
C1297 C 0.48326 0.93342 0.67129 0.0
C1298 C 0.50472 0.96423 0.69257 0.0
C1299 C 0.49411 0.98167 0.67811 0.0
C1300 C 0.47704 0.97488 0.66118 0.0
C1301 C 0.47198 0.95087 0.65785 0.0
C1302 C 0.52311 0.97069 0.71069 0.0
C1303 C 0.46496 0.99288 0.64567 0.0
C1304 C 0.49639 0.04762 0.69079 0.0
C1305 C 0.51273 0.05522 0.6738 0.0
C1306 C 0.49091 0.02352 0.69333 0.0
C1307 C 0.50236 0.00667 0.67882 0.0
C1308 C 0.52014 0.01418 0.66291 0.0
C1309 C 0.52493 0.03834 0.66044 0.0
C1310 C 0.47175 0.0163 0.71037 0.0
C1311 C 0.53316 0.99681 0.64744 0.0
H1312 H 0.50793 0.92691 0.69947 0.0
H1313 H 0.45959 0.94571 0.64423 0.0
H1314 H 0.53952 0.97628 0.70157 0.0
H1315 H 0.51706 0.98579 0.72159 0.0
H1316 H 0.52739 0.95566 0.72253 0.0
H1317 H 0.45045 0.98502 0.6351 0.0
H1318 H 0.45761 0.00741 0.65655 0.0
H1319 H 0.47801 0.00076 0.63337 0.0
H1320 H 0.48677 0.06059 0.70106 0.0
H1321 H 0.53772 0.04411 0.64743 0.0
H1322 H 0.47732 0.00076 0.72089 0.0
H1323 H 0.45577 0.01112 0.70031 0.0
H1324 H 0.46692 0.03083 0.7226 0.0
H1325 H 0.53986 0.98184 0.65813 0.0
H1326 H 0.54825 0.00511 0.63807 0.0
H1327 H 0.52087 0.98946 0.63409 0.0
C1328 C 0.95725 0.52125 0.65553 0.0
C1329 C 0.93998 0.50825 0.66753 0.0
C1330 C 0.98131 0.51605 0.65828 0.0
C1331 C 0.98821 0.49693 0.67284 0.0
C1332 C 0.97089 0.48438 0.68579 0.0
C1333 C 0.94696 0.49039 0.68318 0.0
C1334 C 0.99925 0.53032 0.64467 0.0
C1335 C 0.97746 0.46366 0.70118 0.0
C1336 C 0.04547 0.46871 0.65265 0.0
C1337 C 0.06191 0.47883 0.66812 0.0
C1338 C 0.02126 0.47344 0.65486 0.0
C1339 C 0.01328 0.48896 0.67276 0.0
C1340 C 0.02962 0.49828 0.68918 0.0
C1341 C 0.05373 0.49296 0.68677 0.0
C1342 C 0.00435 0.46272 0.63729 0.0
C1343 C 0.02187 0.51503 0.70839 0.0
H1344 H 0.95189 0.53514 0.6435 0.0
H1345 H 0.93361 0.48011 0.69228 0.0
H1346 H 0.01368 0.53618 0.65653 0.0
H1347 H 0.00728 0.51919 0.63071 0.0
H1348 H 0.99128 0.5461 0.6362 0.0
H1349 H 0.96236 0.45745 0.71205 0.0
H1350 H 0.9835 0.44885 0.68989 0.0
H1351 H 0.99228 0.46832 0.71307 0.0
H1352 H 0.05161 0.45762 0.63832 0.0
H1353 H 0.0663 0.50098 0.69875 0.0
H1354 H 0.99717 0.47677 0.62568 0.0
H1355 H 0.98921 0.45447 0.64658 0.0
H1356 H 0.01296 0.44919 0.62603 0.0
H1357 H 0.01643 0.53204 0.70035 0.0
H1358 H 0.03618 0.51856 0.72131 0.0
H1359 H 0.00636 0.50789 0.71796 0.0
C1360 C 0.3459 0.52638 0.95696 0.0
C1361 C 0.33092 0.51716 0.93957 0.0
C1362 C 0.34256 0.52087 0.98087 0.0
C1363 C 0.32399 0.50551 0.98755 0.0
C1364 C 0.30807 0.49714 0.97025 0.0
C1365 C 0.31163 0.50319 0.94646 0.0
C1366 C 0.35968 0.53055 0.99885 0.0
C1367 C 0.28814 0.48066 0.97662 0.0
C1368 C 0.33926 0.47095 0.04258 0.0
C1369 C 0.3279 0.48413 0.06016 0.0
C1370 C 0.33677 0.47678 0.01867 0.0
C1371 C 0.32287 0.49652 0.01221 0.0
C1372 C 0.31006 0.5089 0.02973 0.0
C1373 C 0.3126 0.50244 0.05355 0.0
C1374 C 0.35031 0.46276 0.00049 0.0
C1375 C 0.29512 0.53007 0.02357 0.0
H1376 H 0.36067 0.53739 0.95182 0.0
H1377 H 0.29999 0.49593 0.93315 0.0
H1378 H 0.34997 0.53857 0.01385 0.0
H1379 H 0.37058 0.51596 0.00604 0.0
H1380 H 0.37165 0.54404 0.99117 0.0
H1381 H 0.27557 0.47821 0.96178 0.0
H1382 H 0.29548 0.46317 0.98148 0.0
H1383 H 0.2783 0.48736 0.99217 0.0
H1384 H 0.35096 0.45667 0.04761 0.0
H1385 H 0.30391 0.51281 0.06708 0.0
H1386 H 0.36484 0.47372 0.99325 0.0
H1387 H 0.33865 0.45786 0.98555 0.0
H1388 H 0.35806 0.4464 0.00803 0.0
H1389 H 0.30679 0.5451 0.01896 0.0
H1390 H 0.2836 0.53551 0.03848 0.0
H1391 H 0.28392 0.52637 0.00796 0.0
C1392 C 0.51684 0.34449 0.9473 0.0
C1393 C 0.49655 0.33648 0.93575 0.0
C1394 C 0.51937 0.34198 0.97176 0.0
C1395 C 0.50079 0.33189 0.98509 0.0
C1396 C 0.48058 0.32295 0.97333 0.0
C1397 C 0.47882 0.32511 0.94864 0.0
C1398 C 0.54143 0.35127 0.98346 0.0
C1399 C 0.46021 0.31248 0.98693 0.0
C1400 C 0.51346 0.3185 0.04983 0.0
C1401 C 0.50644 0.33967 0.06058 0.0
C1402 C 0.51123 0.31534 0.02528 0.0
C1403 C 0.50137 0.33362 0.01132 0.0
C1404 C 0.49347 0.35462 0.02228 0.0
C1405 C 0.49627 0.35744 0.04666 0.0
C1406 C 0.52014 0.29285 0.01417 0.0
C1407 C 0.48252 0.37442 0.00815 0.0
H1408 H 0.53061 0.3531 0.93715 0.0
H1409 H 0.46312 0.31901 0.93958 0.0
H1410 H 0.53712 0.36741 0.99367 0.0
H1411 H 0.54857 0.33809 0.99605 0.0
H1412 H 0.55539 0.35574 0.97042 0.0
H1413 H 0.44714 0.30387 0.97514 0.0
H1414 H 0.46664 0.29932 0.99992 0.0
H1415 H 0.45114 0.32663 0.99697 0.0
H1416 H 0.52129 0.30469 0.0605 0.0
H1417 H 0.49042 0.37371 0.05485 0.0
H1418 H 0.53546 0.29687 0.00264 0.0
H1419 H 0.50631 0.2849 0.00285 0.0
H1420 H 0.52569 0.27966 0.02758 0.0
H1421 H 0.49587 0.38205 0.99603 0.0
H1422 H 0.47561 0.38878 0.01957 0.0
H1423 H 0.46785 0.36759 0.99716 0.0
C1424 C 0.6567 0.47685 0.9565 0.0
C1425 C 0.67117 0.48762 0.93955 0.0
C1426 C 0.65957 0.48157 0.98063 0.0
C1427 C 0.67713 0.49774 0.98801 0.0
C1428 C 0.69279 0.5075 0.97114 0.0
C1429 C 0.68972 0.5022 0.94708 0.0
C1430 C 0.64277 0.47039 0.99806 0.0
C1431 C 0.7117 0.52483 0.97826 0.0
C1432 C 0.65838 0.53106 0.0428 0.0
C1433 C 0.67027 0.51877 0.06066 0.0
C1434 C 0.66167 0.52532 0.01897 0.0
C1435 C 0.67693 0.5065 0.01281 0.0
C1436 C 0.68996 0.49482 0.03068 0.0
C1437 C 0.6866 0.50123 0.05444 0.0
C1438 C 0.64779 0.53858 0.00047 0.0
C1439 C 0.70627 0.47459 0.02487 0.0
H1440 H 0.64251 0.46534 0.95084 0.0
H1441 H 0.70095 0.51065 0.93409 0.0
H1442 H 0.65263 0.46289 0.01321 0.0
H1443 H 0.63063 0.48404 0.00511 0.0
H1444 H 0.63203 0.45617 0.9899 0.0
H1445 H 0.72458 0.528 0.96381 0.0
H1446 H 0.70337 0.54191 0.98298 0.0
H1447 H 0.72135 0.51846 0.99405 0.0
H1448 H 0.64592 0.5448 0.04752 0.0
H1449 H 0.69573 0.49158 0.0682 0.0
H1450 H 0.63438 0.5267 0.99259 0.0
H1451 H 0.65961 0.54452 0.98603 0.0
H1452 H 0.6386 0.55422 0.0079 0.0
H1453 H 0.69563 0.45897 0.01974 0.0
H1454 H 0.71756 0.46965 0.04011 0.0
H1455 H 0.71776 0.47909 0.00967 0.0
C1456 C 0.52742 0.66299 0.9662 0.0
C1457 C 0.51441 0.67377 0.94811 0.0
C1458 C 0.52146 0.66627 0.98998 0.0
C1459 C 0.50183 0.68054 0.99593 0.0
C1460 C 0.48955 0.69274 0.97787 0.0
C1461 C 0.49607 0.68929 0.95411 0.0
C1462 C 0.53533 0.65321 0.00864 0.0
C1463 C 0.46859 0.70817 0.98347 0.0
C1464 C 0.47257 0.65871 0.05195 0.0
C1465 C 0.48258 0.67346 0.06911 0.0
C1466 C 0.47741 0.66192 0.02788 0.0
C1467 C 0.49282 0.68024 0.02069 0.0
C1468 C 0.50176 0.69617 0.03775 0.0
C1469 C 0.49646 0.69265 0.06177 0.0
C1470 C 0.46718 0.64472 0.01028 0.0
C1471 C 0.51818 0.71596 0.03084 0.0
H1472 H 0.54181 0.65121 0.96169 0.0
H1473 H 0.4859 0.69764 0.94023 0.0
H1474 H 0.54058 0.6654 0.02302 0.0
H1475 H 0.52411 0.63926 0.01657 0.0
H1476 H 0.55147 0.64479 0.00135 0.0
H1477 H 0.46346 0.71936 0.9682 0.0
H1478 H 0.45333 0.69688 0.98827 0.0
H1479 H 0.47237 0.71972 0.9988 0.0
H1480 H 0.46155 0.64404 0.05739 0.0
H1481 H 0.50428 0.70417 0.07487 0.0
H1482 H 0.48148 0.63341 0.00313 0.0
H1483 H 0.45919 0.65432 0.99521 0.0
H1484 H 0.45354 0.63315 0.01831 0.0
H1485 H 0.53574 0.70855 0.02635 0.0
H1486 H 0.52047 0.72896 0.04533 0.0
H1487 H 0.51153 0.72529 0.01497 0.0
C1488 C 0.20933 0.27366 0.48423 0.0
C1489 C 0.18855 0.27386 0.49768 0.0
C1490 C 0.22548 0.25498 0.4859 0.0
C1491 C 0.22115 0.23637 0.502 0.0
C1492 C 0.2004 0.2367 0.51601 0.0
C1493 C 0.18411 0.25527 0.51337 0.0
C1494 C 0.24702 0.25501 0.47019 0.0
C1495 C 0.19553 0.21757 0.5339 0.0
C1496 C 0.25328 0.17799 0.49285 0.0
C1497 C 0.27299 0.18083 0.50748 0.0
C1498 C 0.23624 0.19594 0.49084 0.0
C1499 C 0.23863 0.21684 0.50438 0.0
C1500 C 0.25826 0.21949 0.51958 0.0
C1501 C 0.27538 0.20162 0.52066 0.0
C1502 C 0.21594 0.19274 0.4739 0.0
C1503 C 0.26118 0.24119 0.53477 0.0
H1504 H 0.21265 0.28785 0.47182 0.0
H1505 H 0.16807 0.25542 0.52379 0.0
H1506 H 0.26325 0.25559 0.48109 0.0
H1507 H 0.24766 0.23849 0.4597 0.0
H1508 H 0.24725 0.27026 0.45787 0.0
H1509 H 0.17896 0.22077 0.54389 0.0
H1510 H 0.19419 0.20023 0.52495 0.0
H1511 H 0.21039 0.2164 0.54659 0.0
H1512 H 0.25143 0.16194 0.48261 0.0
H1513 H 0.29045 0.20374 0.53224 0.0
H1514 H 0.21609 0.20712 0.4606 0.0
H1515 H 0.19892 0.1939 0.4835 0.0
H1516 H 0.2167 0.17554 0.46454 0.0
H1517 H 0.26342 0.257 0.52344 0.0
H1518 H 0.27665 0.23987 0.54673 0.0
H1519 H 0.2451 0.24401 0.54559 0.0
C1520 C 0.75393 0.17428 0.48507 0.0
C1521 C 0.73464 0.17824 0.5 0.0
C1522 C 0.77304 0.1901 0.48457 0.0
C1523 C 0.77318 0.20975 0.50005 0.0
C1524 C 0.75419 0.21303 0.51601 0.0
C1525 C 0.73487 0.19754 0.51537 0.0
C1526 C 0.79245 0.18647 0.46668 0.0
C1527 C 0.75401 0.2332 0.53341 0.0
C1528 C 0.83078 0.24239 0.51158 0.0
C1529 C 0.82709 0.26341 0.49912 0.0
C1530 C 0.81346 0.22463 0.51196 0.0
C1531 C 0.79244 0.22764 0.49876 0.0
C1532 C 0.78925 0.24842 0.48519 0.0
C1533 C 0.80638 0.2663 0.486 0.0
C1534 C 0.81714 0.20321 0.52738 0.0
C1535 C 0.76754 0.25197 0.47017 0.0
H1536 H 0.75347 0.15951 0.47293 0.0
H1537 H 0.71986 0.20052 0.52688 0.0
H1538 H 0.79265 0.2015 0.45412 0.0
H1539 H 0.8099 0.18609 0.4755 0.0
H1540 H 0.79019 0.16986 0.45653 0.0
H1541 H 0.73932 0.23171 0.54632 0.0
H1542 H 0.77095 0.23384 0.54321 0.0
H1543 H 0.75214 0.25018 0.52385 0.0
H1544 H 0.8467 0.24037 0.522 0.0
H1545 H 0.80362 0.28258 0.47632 0.0
H1546 H 0.81525 0.18683 0.51686 0.0
H1547 H 0.8034 0.20276 0.54133 0.0
H1548 H 0.83477 0.20317 0.53594 0.0
H1549 H 0.76453 0.2363 0.45883 0.0
H1550 H 0.76897 0.26784 0.45873 0.0
H1551 H 0.75181 0.25402 0.48164 0.0
C1552 C 0.82735 0.75585 0.51242 0.0
C1553 C 0.82161 0.73689 0.49763 0.0
C1554 C 0.81169 0.77496 0.51521 0.0
C1555 C 0.79021 0.77532 0.50239 0.0
C1556 C 0.78487 0.75659 0.48677 0.0
C1557 C 0.80046 0.73749 0.48485 0.0
C1558 C 0.81773 0.79432 0.53246 0.0
C1559 C 0.76245 0.75647 0.47236 0.0
C1560 C 0.73517 0.80677 0.52369 0.0
C1561 C 0.73496 0.82701 0.5095 0.0
C1562 C 0.75382 0.79056 0.52255 0.0
C1563 C 0.77242 0.7943 0.50628 0.0
C1564 C 0.7726 0.81505 0.49228 0.0
C1565 C 0.75398 0.83137 0.49431 0.0
C1566 C 0.75319 0.76899 0.53821 0.0
C1567 C 0.7918 0.81941 0.47433 0.0
H1568 H 0.84369 0.75539 0.52234 0.0
H1569 H 0.79611 0.72299 0.47315 0.0
H1570 H 0.81678 0.81178 0.52368 0.0
H1571 H 0.80463 0.79444 0.54702 0.0
H1572 H 0.83562 0.79208 0.54014 0.0
H1573 H 0.76191 0.74163 0.45956 0.0
H1574 H 0.74695 0.75496 0.48424 0.0
H1575 H 0.76065 0.7733 0.4625 0.0
H1576 H 0.7206 0.80352 0.53568 0.0
H1577 H 0.75379 0.847 0.48327 0.0
H1578 H 0.77037 0.76668 0.54731 0.0
H1579 H 0.75015 0.75303 0.52731 0.0
H1580 H 0.73901 0.77005 0.55172 0.0
H1581 H 0.80944 0.81755 0.48259 0.0
H1582 H 0.79046 0.83721 0.46622 0.0
H1583 H 0.79061 0.80598 0.46013 0.0
C1584 C 0.20147 0.7254 0.51514 0.0
C1585 C 0.17963 0.72762 0.50373 0.0
C1586 C 0.2182 0.7436 0.5144 0.0
C1587 C 0.21322 0.76438 0.50148 0.0
C1588 C 0.19107 0.76688 0.49012 0.0
C1589 C 0.1744 0.74853 0.4916 0.0
C1590 C 0.24141 0.74038 0.52711 0.0
C1591 C 0.18531 0.78858 0.4758 0.0
C1592 C 0.25202 0.81825 0.51221 0.0
C1593 C 0.26923 0.81541 0.49468 0.0
C1594 C 0.23354 0.80183 0.51465 0.0
C1595 C 0.23189 0.78267 0.49865 0.0
C1596 C 0.2489 0.7802 0.48052 0.0
C1597 C 0.26756 0.79637 0.47901 0.0
C1598 C 0.21614 0.80465 0.53462 0.0
C1599 C 0.24749 0.76038 0.46275 0.0
H1600 H 0.20551 0.70939 0.5248 0.0
H1601 H 0.15753 0.75029 0.48275 0.0
H1602 H 0.25602 0.73949 0.51411 0.0
H1603 H 0.2449 0.7557 0.53878 0.0
H1604 H 0.24176 0.72404 0.53795 0.0
H1605 H 0.16697 0.78826 0.46889 0.0
H1606 H 0.18764 0.80468 0.48666 0.0
H1607 H 0.19768 0.78994 0.46067 0.0
H1608 H 0.25332 0.83298 0.52433 0.0
H1609 H 0.28065 0.79435 0.46519 0.0
H1610 H 0.21705 0.78904 0.54641 0.0
H1611 H 0.1979 0.80555 0.52761 0.0
H1612 H 0.21959 0.82075 0.54526 0.0
H1613 H 0.24985 0.74318 0.47179 0.0
H1614 H 0.26112 0.76196 0.44873 0.0
H1615 H 0.22983 0.76017 0.45431 0.0
C1616 C 0.50874 0.17617 0.24731 0.0
C1617 C 0.49424 0.18258 0.2663 0.0
C1618 C 0.51188 0.19147 0.228 0.0
C1619 C 0.49969 0.21331 0.22747 0.0
C1620 C 0.48429 0.21933 0.24621 0.0
C1621 C 0.48204 0.20406 0.26554 0.0
C1622 C 0.52889 0.1847 0.20865 0.0
C1623 C 0.47054 0.24217 0.24611 0.0
C1624 C 0.52322 0.26714 0.19564 0.0
C1625 C 0.50917 0.2677 0.17531 0.0
C1626 C 0.52122 0.24875 0.21204 0.0
C1627 C 0.50424 0.2308 0.20839 0.0
C1628 C 0.4904 0.23093 0.18755 0.0
C1629 C 0.49326 0.24927 0.17105 0.0
C1630 C 0.53674 0.24899 0.23371 0.0
C1631 C 0.47177 0.21239 0.18329 0.0
H1632 H 0.51821 0.15956 0.24791 0.0
H1633 H 0.47056 0.2089 0.28006 0.0
H1634 H 0.52017 0.18593 0.19118 0.0
H1635 H 0.54395 0.19723 0.20849 0.0
H1636 H 0.5359 0.16654 0.21095 0.0
H1637 H 0.4577 0.24318 0.2609 0.0
H1638 H 0.48286 0.25731 0.24755 0.0
H1639 H 0.46081 0.24414 0.22923 0.0
H1640 H 0.53575 0.28124 0.19881 0.0
H1641 H 0.48234 0.24976 0.15536 0.0
H1642 H 0.54524 0.23153 0.23619 0.0
H1643 H 0.52583 0.25251 0.24959 0.0
H1644 H 0.55073 0.26269 0.23264 0.0
H1645 H 0.47932 0.19447 0.18542 0.0
H1646 H 0.46387 0.21383 0.16541 0.0
H1647 H 0.45751 0.2143 0.19658 0.0
C1648 C 0.79357 0.48886 0.27395 0.0
C1649 C 0.81534 0.5005 0.27249 0.0
C1650 C 0.77693 0.49059 0.25571 0.0
C1651 C 0.78188 0.50491 0.23583 0.0
C1652 C 0.80375 0.51696 0.2344 0.0
C1653 C 0.8204 0.5143 0.25261 0.0
C1654 C 0.75409 0.47699 0.25767 0.0
C1655 C 0.8094 0.53293 0.21383 0.0
C1656 C 0.746 0.49547 0.17976 0.0
C1657 C 0.72795 0.5121 0.18263 0.0
C1658 C 0.76374 0.49288 0.19694 0.0
C1659 C 0.76377 0.50783 0.217 0.0
C1660 C 0.74589 0.52509 0.21958 0.0
C1661 C 0.72801 0.52675 0.20255 0.0
C1662 C 0.78211 0.47383 0.19391 0.0
C1663 C 0.74561 0.54177 0.24035 0.0
H1664 H 0.78972 0.47791 0.28917 0.0
H1665 H 0.83723 0.52334 0.25148 0.0
H1666 H 0.73897 0.4894 0.25837 0.0
H1667 H 0.75164 0.46572 0.24184 0.0
H1668 H 0.75353 0.46561 0.27362 0.0
H1669 H 0.8271 0.5412 0.21547 0.0
H1670 H 0.80876 0.52281 0.1971 0.0
H1671 H 0.79594 0.5471 0.21256 0.0
H1672 H 0.74592 0.48409 0.16439 0.0
H1673 H 0.71422 0.53985 0.20467 0.0
H1674 H 0.78124 0.46137 0.209 0.0
H1675 H 0.80003 0.48168 0.19389 0.0
H1676 H 0.77968 0.46373 0.17729 0.0
H1677 H 0.74298 0.53171 0.25694 0.0
H1678 H 0.73139 0.5552 0.23893 0.0
H1679 H 0.76282 0.55099 0.24179 0.0
C1680 C 0.48046 0.73546 0.20927 0.0
C1681 C 0.49358 0.73592 0.1883 0.0
C1682 C 0.48209 0.7538 0.22577 0.0
C1683 C 0.49776 0.77278 0.22154 0.0
C1684 C 0.51106 0.77338 0.20034 0.0
C1685 C 0.50854 0.75506 0.18375 0.0
C1686 C 0.46717 0.75273 0.24785 0.0
C1687 C 0.52841 0.79299 0.1955 0.0
C1688 C 0.48951 0.82885 0.25767 0.0
C1689 C 0.50501 0.82486 0.27652 0.0
C1690 C 0.48705 0.81213 0.2395 0.0
C1691 C 0.50091 0.79131 0.23991 0.0
C1692 C 0.51701 0.78755 0.25863 0.0
C1693 C 0.51861 0.8042 0.27686 0.0
C1694 C 0.46924 0.81646 0.22018 0.0
C1695 C 0.53247 0.76585 0.25949 0.0
H1696 H 0.46864 0.72081 0.2127 0.0
H1697 H 0.51873 0.75539 0.16756 0.0
H1698 H 0.47869 0.751 0.26358 0.0
H1699 H 0.45697 0.76932 0.2499 0.0
H1700 H 0.45464 0.73766 0.24766 0.0
H1701 H 0.5371 0.79111 0.17802 0.0
H1702 H 0.51936 0.81033 0.19617 0.0
H1703 H 0.54223 0.79313 0.20937 0.0
H1704 H 0.47896 0.84481 0.2574 0.0
H1705 H 0.53084 0.80119 0.29125 0.0
H1706 H 0.45581 0.8022 0.22028 0.0
H1707 H 0.47802 0.81603 0.20269 0.0
H1708 H 0.4601 0.83368 0.2222 0.0
H1709 H 0.52136 0.74985 0.26147 0.0
H1710 H 0.54524 0.76639 0.27435 0.0
H1711 H 0.54242 0.764 0.24273 0.0
C1712 C 0.20257 0.51383 0.27196 0.0
C1713 C 0.18175 0.5007 0.26948 0.0
C1714 C 0.2201 0.51344 0.25446 0.0
C1715 C 0.21708 0.49898 0.23432 0.0
C1716 C 0.19625 0.48533 0.23193 0.0
C1717 C 0.17863 0.48667 0.24938 0.0
C1718 C 0.24173 0.52874 0.25741 0.0
C1719 C 0.19271 0.46914 0.21109 0.0
C1720 C 0.25355 0.51162 0.1792 0.0
C1721 C 0.27276 0.49641 0.1824 0.0
C1722 C 0.23535 0.51283 0.19606 0.0
C1723 C 0.23602 0.49781 0.21608 0.0
C1724 C 0.25517 0.48204 0.21904 0.0
C1725 C 0.2735 0.48185 0.20239 0.0
C1726 C 0.21565 0.53043 0.19268 0.0
C1727 C 0.25623 0.46524 0.23971 0.0
H1728 H 0.20491 0.52495 0.28734 0.0
H1729 H 0.16255 0.47648 0.24747 0.0
H1730 H 0.25775 0.51754 0.25844 0.0
H1731 H 0.24381 0.54044 0.24184 0.0
H1732 H 0.24084 0.53984 0.27353 0.0
H1733 H 0.17582 0.45924 0.21216 0.0
H1734 H 0.19288 0.47947 0.19447 0.0
H1735 H 0.20746 0.45629 0.21007 0.0
H1736 H 0.25301 0.52291 0.16375 0.0
H1737 H 0.28821 0.46983 0.20471 0.0
H1738 H 0.21481 0.54249 0.20809 0.0
H1739 H 0.19845 0.52115 0.19167 0.0
H1740 H 0.21795 0.54115 0.17643 0.0
H1741 H 0.25732 0.47531 0.25645 0.0
H1742 H 0.27163 0.45316 0.2387 0.0
H1743 H 0.23987 0.4545 0.24046 0.0
C1744 C 0.51827 0.72598 0.80322 0.0
C1745 C 0.50442 0.7266 0.82374 0.0
C1746 C 0.51636 0.74359 0.78589 0.0
C1747 C 0.4997 0.762 0.78876 0.0
C1748 C 0.48549 0.76262 0.80936 0.0
C1749 C 0.48826 0.74509 0.82678 0.0
C1750 C 0.53224 0.74252 0.7645 0.0
C1751 C 0.46708 0.78156 0.81281 0.0
C1752 C 0.50699 0.81799 0.75193 0.0
C1753 C 0.49244 0.81315 0.73253 0.0
C1754 C 0.50954 0.80154 0.77041 0.0
C1755 C 0.4967 0.78007 0.76977 0.0
C1756 C 0.48155 0.77541 0.75045 0.0
C1757 C 0.47988 0.79183 0.73195 0.0
C1758 C 0.52633 0.80691 0.79035 0.0
C1759 C 0.46712 0.75304 0.74928 0.0
H1760 H 0.531 0.71188 0.80089 0.0
H1761 H 0.47749 0.74561 0.84258 0.0
H1762 H 0.52149 0.74019 0.74832 0.0
H1763 H 0.54206 0.75935 0.76258 0.0
H1764 H 0.54516 0.7278 0.76554 0.0
H1765 H 0.45738 0.77952 0.82973 0.0
H1766 H 0.47549 0.79922 0.81249 0.0
H1767 H 0.45419 0.78102 0.79809 0.0
H1768 H 0.51677 0.83442 0.75242 0.0
H1769 H 0.46839 0.7881 0.71713 0.0
H1770 H 0.54023 0.79313 0.79119 0.0
H1771 H 0.5168 0.80657 0.80745 0.0
H1772 H 0.53495 0.8244 0.78831 0.0
H1773 H 0.47898 0.73751 0.74823 0.0
H1774 H 0.4551 0.75275 0.7338 0.0
H1775 H 0.45641 0.75109 0.76557 0.0
C1776 C 0.26592 0.48822 0.80547 0.0
C1777 C 0.26461 0.50364 0.82466 0.0
C1778 C 0.24702 0.48616 0.78962 0.0
C1779 C 0.22689 0.50074 0.79249 0.0
C1780 C 0.22548 0.51622 0.81206 0.0
C1781 C 0.24424 0.51713 0.82822 0.0
C1782 C 0.24885 0.4688 0.7695 0.0
C1783 C 0.20479 0.5327 0.81523 0.0
C1784 C 0.19504 0.51248 0.73487 0.0
C1785 C 0.17538 0.49772 0.73692 0.0
C1786 C 0.21122 0.51465 0.75346 0.0
C1787 C 0.20817 0.50085 0.77409 0.0
C1788 C 0.18805 0.48617 0.77635 0.0
C1789 C 0.1716 0.48513 0.75783 0.0
C1790 C 0.23193 0.53119 0.7507 0.0
C1791 C 0.18461 0.47057 0.79767 0.0
H1792 H 0.28177 0.47781 0.80286 0.0
H1793 H 0.24352 0.52928 0.84299 0.0
H1794 H 0.23261 0.45791 0.76845 0.0
H1795 H 0.25054 0.47847 0.75256 0.0
H1796 H 0.26431 0.45689 0.77139 0.0
H1797 H 0.20582 0.54277 0.83202 0.0
H1798 H 0.20426 0.54542 0.80034 0.0
H1799 H 0.18796 0.52273 0.81493 0.0
H1800 H 0.19785 0.52219 0.71862 0.0
H1801 H 0.1565 0.47345 0.75914 0.0
H1802 H 0.24847 0.52086 0.74902 0.0
H1803 H 0.2337 0.54255 0.76655 0.0
H1804 H 0.23019 0.54267 0.7349 0.0
H1805 H 0.19893 0.45722 0.79833 0.0
H1806 H 0.16737 0.46125 0.79735 0.0
H1807 H 0.18574 0.48108 0.81413 0.0
C1808 C 0.51056 0.17056 0.75791 0.0
C1809 C 0.50151 0.17517 0.73539 0.0
C1810 C 0.5099 0.18791 0.77565 0.0
C1811 C 0.49912 0.20999 0.77093 0.0
C1812 C 0.48898 0.21422 0.74847 0.0
C1813 C 0.49075 0.19694 0.73083 0.0
C1814 C 0.52162 0.183 0.79906 0.0
C1815 C 0.47657 0.23715 0.74295 0.0
C1816 C 0.48075 0.24932 0.82223 0.0
C1817 C 0.49787 0.26707 0.82114 0.0
C1818 C 0.48096 0.2305 0.80607 0.0
C1819 C 0.49924 0.22908 0.78904 0.0
C1820 C 0.51709 0.24661 0.78857 0.0
C1821 C 0.51589 0.26569 0.80434 0.0
C1822 C 0.46115 0.2127 0.80662 0.0
C1823 C 0.53726 0.2454 0.77119 0.0
H1824 H 0.51914 0.15379 0.7613 0.0
H1825 H 0.48367 0.20042 0.7134 0.0
H1826 H 0.53629 0.19567 0.80182 0.0
H1827 H 0.50889 0.18559 0.8137 0.0
H1828 H 0.52879 0.16478 0.80012 0.0
H1829 H 0.46771 0.23676 0.72547 0.0
H1830 H 0.46318 0.24107 0.7567 0.0
H1831 H 0.48948 0.25186 0.743 0.0
H1832 H 0.46667 0.25068 0.83513 0.0
H1833 H 0.52909 0.27953 0.80361 0.0
H1834 H 0.46833 0.1946 0.80852 0.0
H1835 H 0.45134 0.2133 0.78968 0.0
H1836 H 0.44855 0.21603 0.82127 0.0
H1837 H 0.54579 0.22779 0.77197 0.0
H1838 H 0.55083 0.25912 0.77462 0.0
H1839 H 0.53049 0.24781 0.75299 0.0
C1840 C 0.75437 0.48635 0.82423 0.0
C1841 C 0.73407 0.50007 0.82113 0.0
C1842 C 0.77231 0.48618 0.80709 0.0
C1843 C 0.77024 0.50084 0.78692 0.0
C1844 C 0.75018 0.51556 0.78436 0.0
C1845 C 0.73203 0.51454 0.80123 0.0
C1846 C 0.7929 0.46953 0.81002 0.0
C1847 C 0.74769 0.53214 0.76365 0.0
C1848 C 0.82563 0.51402 0.75121 0.0
C1849 C 0.82182 0.5004 0.73097 0.0
C1850 C 0.80894 0.51445 0.76957 0.0
C1851 C 0.78852 0.5001 0.768 0.0
C1852 C 0.78517 0.48556 0.74793 0.0
C1853 C 0.8016 0.48634 0.72937 0.0
C1854 C 0.81269 0.53093 0.79015 0.0
C1855 C 0.76414 0.46932 0.74595 0.0
H1856 H 0.75566 0.47489 0.8395 0.0
H1857 H 0.71625 0.52511 0.79893 0.0
H1858 H 0.7932 0.45678 0.79515 0.0
H1859 H 0.80977 0.47941 0.80948 0.0
H1860 H 0.79203 0.45951 0.82685 0.0
H1861 H 0.73232 0.54414 0.76558 0.0
H1862 H 0.76391 0.54295 0.76165 0.0
H1863 H 0.74548 0.52186 0.74715 0.0
H1864 H 0.84116 0.52515 0.75218 0.0
H1865 H 0.79875 0.47581 0.71365 0.0
H1866 H 0.81273 0.52092 0.80696 0.0
H1867 H 0.7979 0.54374 0.79109 0.0
H1868 H 0.82952 0.54088 0.78873 0.0
H1869 H 0.7626 0.45828 0.76206 0.0
H1870 H 0.76533 0.45754 0.73033 0.0
H1871 H 0.74772 0.47987 0.74452 0.0
loop_
_geom_bond_atom_site_label_1
_geom_bond_atom_site_label_2
_geom_bond_distance
_geom_bond_site_symmetry_2
_ccdc_geom_bond_type
Co0 O1 2.216 . S
Co0 O2 2.091 . S
Co0 O4 2.004 . S
Co0 O10 2.021 . S
Co0 O12 2.137 . S
Co0 O13 2.244 . S
O1 Co0 2.216 . S
O1 C8 1.247 . S
O2 Co0 2.091 . S
O2 C8 1.261 . S
C3 O12 1.247 . S
C3 O13 1.272 . S
O4 Co0 2.004 . S
O4 C9 1.259 . S
Co5 O6 2.061 . S
Co5 O11 2.052 . S
Co5 O13 2.135 . S
O6 Co5 2.061 . S
O6 C9 1.235 . S
C7 O10 1.238 . S
C7 O11 1.241 . S
C8 O1 1.247 . S
C8 O2 1.261 . S
C9 O4 1.259 . S
C9 O6 1.235 . S
O10 Co0 2.021 . S
O10 C7 1.238 . S
O11 Co5 2.052 . S
O11 C7 1.241 . S
O12 Co0 2.137 . S
O12 C3 1.247 . S
O13 Co0 2.244 . S
O13 C3 1.272 . S
O13 Co5 2.135 . S
Co14 O15 2.216 . S
Co14 O16 2.091 . S
Co14 O18 2.004 . S
Co14 O24 2.021 . S
Co14 O26 2.137 . S
Co14 O27 2.244 . S
O15 Co14 2.216 . S
O15 C22 1.247 . S
O16 Co14 2.091 . S
O16 C22 1.261 . S
C17 O26 1.247 . S
C17 O27 1.272 . S
O18 Co14 2.004 . S
O18 C23 1.259 . S
Co19 O20 2.061 . S
Co19 O25 2.052 . S
Co19 O27 2.135 . S
O20 Co19 2.061 . S
O20 C23 1.235 . S
C21 O24 1.238 . S
C21 O25 1.241 . S
C22 O15 1.247 . S
C22 O16 1.261 . S
C23 O18 1.259 . S
C23 O20 1.235 . S
O24 Co14 2.021 . S
O24 C21 1.238 . S
O25 Co19 2.052 . S
O25 C21 1.241 . S
O26 Co14 2.137 . S
O26 C17 1.247 . S
O27 Co14 2.244 . S
O27 C17 1.272 . S
O27 Co19 2.135 . S
Co28 O29 2.216 . S
Co28 O30 2.091 . S
Co28 O32 2.004 . S
Co28 O38 2.021 . S
Co28 O40 2.137 . S
Co28 O41 2.244 . S
O29 Co28 2.216 . S
O29 C36 1.247 . S
O30 Co28 2.091 . S
O30 C36 1.261 . S
C31 O40 1.247 . S
C31 O41 1.272 . S
O32 Co28 2.004 . S
O32 C37 1.259 . S
Co33 O34 2.061 . S
Co33 O39 2.052 . S
Co33 O41 2.135 . S
O34 Co33 2.061 . S
O34 C37 1.235 . S
C35 O38 1.238 . S
C35 O39 1.241 . S
C36 O29 1.247 . S
C36 O30 1.261 . S
C37 O32 1.259 . S
C37 O34 1.235 . S
O38 Co28 2.021 . S
O38 C35 1.238 . S
O39 Co33 2.052 . S
O39 C35 1.241 . S
O40 Co28 2.137 . S
O40 C31 1.247 . S
O41 Co28 2.244 . S
O41 C31 1.272 . S
O41 Co33 2.135 . S
Co42 O43 2.216 . S
Co42 O44 2.091 . S
Co42 O46 2.004 . S
Co42 O52 2.021 . S
Co42 O54 2.137 . S
Co42 O55 2.244 . S
O43 Co42 2.216 . S
O43 C50 1.247 . S
O44 Co42 2.091 . S
O44 C50 1.261 . S
C45 O54 1.247 . S
C45 O55 1.272 . S
O46 Co42 2.004 . S
O46 C51 1.259 . S
Co47 O48 2.061 . S
Co47 O53 2.052 . S
Co47 O55 2.135 . S
O48 Co47 2.061 . S
O48 C51 1.235 . S
C49 O52 1.238 . S
C49 O53 1.241 . S
C50 O43 1.247 . S
C50 O44 1.261 . S
C51 O46 1.259 . S
C51 O48 1.235 . S
O52 Co42 2.021 . S
O52 C49 1.238 . S
O53 Co47 2.052 . S
O53 C49 1.241 . S
O54 Co42 2.137 . S
O54 C45 1.247 . S
O55 Co42 2.244 . S
O55 C45 1.272 . S
O55 Co47 2.135 . S
Co56 O57 2.216 . S
Co56 O58 2.091 . S
Co56 O60 2.004 . S
Co56 O66 2.021 . S
Co56 O68 2.137 . S
Co56 O69 2.244 . S
O57 Co56 2.216 . S
O57 C64 1.247 . S
O58 Co56 2.091 . S
O58 C64 1.261 . S
C59 O68 1.247 . S
C59 O69 1.272 . S
O60 Co56 2.004 . S
O60 C65 1.259 . S
Co61 O62 2.061 . S
Co61 O67 2.052 . S
Co61 O69 2.135 . S
O62 Co61 2.061 . S
O62 C65 1.235 . S
C63 O66 1.238 . S
C63 O67 1.241 . S
C64 O57 1.247 . S
C64 O58 1.261 . S
C65 O60 1.259 . S
C65 O62 1.235 . S
O66 Co56 2.021 . S
O66 C63 1.238 . S
O67 Co61 2.052 . S
O67 C63 1.241 . S
O68 Co56 2.137 . S
O68 C59 1.247 . S
O69 Co56 2.244 . S
O69 C59 1.272 . S
O69 Co61 2.135 . S
Co70 O71 2.216 . S
Co70 O72 2.091 . S
Co70 O74 2.004 . S
Co70 O80 2.021 . S
Co70 O82 2.137 . S
Co70 O83 2.244 . S
O71 Co70 2.216 . S
O71 C78 1.247 . S
O72 Co70 2.091 . S
O72 C78 1.261 . S
C73 O82 1.247 . S
C73 O83 1.272 . S
O74 Co70 2.004 . S
O74 C79 1.259 . S
Co75 O76 2.061 . S
Co75 O81 2.052 . S
Co75 O83 2.135 . S
O76 Co75 2.061 . S
O76 C79 1.235 . S
C77 O80 1.238 . S
C77 O81 1.241 . S
C78 O71 1.247 . S
C78 O72 1.261 . S
C79 O74 1.259 . S
C79 O76 1.235 . S
O80 Co70 2.021 . S
O80 C77 1.238 . S
O81 Co75 2.052 . S
O81 C77 1.241 . S
O82 Co70 2.137 . S
O82 C73 1.247 . S
O83 Co70 2.244 . S
O83 C73 1.272 . S
O83 Co75 2.135 . S
Co84 O85 2.216 . S
Co84 O86 2.091 . S
Co84 O88 2.004 . S
Co84 O94 2.021 . S
Co84 O96 2.137 . S
Co84 O97 2.244 . S
O85 Co84 2.216 . S
O85 C92 1.247 . S
O86 Co84 2.091 . S
O86 C92 1.261 . S
C87 O96 1.247 . S
C87 O97 1.272 . S
O88 Co84 2.004 . S
O88 C93 1.259 . S
Co89 O90 2.061 . S
Co89 O95 2.052 . S
Co89 O97 2.135 . S
O90 Co89 2.061 . S
O90 C93 1.235 . S
C91 O94 1.238 . S
C91 O95 1.241 . S
C92 O85 1.247 . S
C92 O86 1.261 . S
C93 O88 1.259 . S
C93 O90 1.235 . S
O94 Co84 2.021 . S
O94 C91 1.238 . S
O95 Co89 2.052 . S
O95 C91 1.241 . S
O96 Co84 2.137 . S
O96 C87 1.247 . S
O97 Co84 2.244 . S
O97 C87 1.272 . S
O97 Co89 2.135 . S
Co98 O99 2.216 . S
Co98 O100 2.091 . S
Co98 O102 2.004 . S
Co98 O108 2.021 . S
Co98 O110 2.137 . S
Co98 O111 2.244 . S
O99 Co98 2.216 . S
O99 C106 1.247 . S
O100 Co98 2.091 . S
O100 C106 1.261 . S
C101 O110 1.247 . S
C101 O111 1.272 . S
O102 Co98 2.004 . S
O102 C107 1.259 . S
Co103 O104 2.061 . S
Co103 O109 2.052 . S
Co103 O111 2.135 . S
O104 Co103 2.061 . S
O104 C107 1.235 . S
C105 O108 1.238 . S
C105 O109 1.241 . S
C106 O99 1.247 . S
C106 O100 1.261 . S
C107 O102 1.259 . S
C107 O104 1.235 . S
O108 Co98 2.021 . S
O108 C105 1.238 . S
O109 Co103 2.052 . S
O109 C105 1.241 . S
O110 Co98 2.137 . S
O110 C101 1.247 . S
O111 Co98 2.244 . S
O111 C101 1.272 . S
O111 Co103 2.135 . S
Co112 O113 2.216 . S
Co112 O114 2.091 . S
Co112 O116 2.004 . S
Co112 O122 2.021 . S
Co112 O124 2.137 . S
Co112 O125 2.244 . S
O113 Co112 2.216 . S
O113 C120 1.247 . S
O114 Co112 2.091 . S
O114 C120 1.261 . S
C115 O124 1.247 . S
C115 O125 1.272 . S
O116 Co112 2.004 . S
O116 C121 1.259 . S
Co117 O118 2.061 . S
Co117 O123 2.052 . S
Co117 O125 2.135 . S
O118 Co117 2.061 . S
O118 C121 1.235 . S
C119 O122 1.238 . S
C119 O123 1.241 . S
C120 O113 1.247 . S
C120 O114 1.261 . S
C121 O116 1.259 . S
C121 O118 1.235 . S
O122 Co112 2.021 . S
O122 C119 1.238 . S
O123 Co117 2.052 . S
O123 C119 1.241 . S
O124 Co112 2.137 . S
O124 C115 1.247 . S
O125 Co112 2.244 . S
O125 C115 1.272 . S
O125 Co117 2.135 . S
Co126 O127 2.216 . S
Co126 O128 2.091 . S
Co126 O130 2.004 . S
Co126 O136 2.021 . S
Co126 O138 2.137 . S
Co126 O139 2.244 . S
O127 Co126 2.216 . S
O127 C134 1.247 . S
O128 Co126 2.091 . S
O128 C134 1.261 . S
C129 O138 1.247 . S
C129 O139 1.272 . S
O130 Co126 2.004 . S
O130 C135 1.259 . S
Co131 O132 2.061 . S
Co131 O137 2.052 . S
Co131 O139 2.135 . S
O132 Co131 2.061 . S
O132 C135 1.235 . S
C133 O136 1.238 . S
C133 O137 1.241 . S
C134 O127 1.247 . S
C134 O128 1.261 . S
C135 O130 1.259 . S
C135 O132 1.235 . S
O136 Co126 2.021 . S
O136 C133 1.238 . S
O137 Co131 2.052 . S
O137 C133 1.241 . S
O138 Co126 2.137 . S
O138 C129 1.247 . S
O139 Co126 2.244 . S
O139 C129 1.272 . S
O139 Co131 2.135 . S
Co140 O141 2.216 . S
Co140 O142 2.091 . S
Co140 O144 2.004 . S
Co140 O150 2.021 . S
Co140 O152 2.137 . S
Co140 O153 2.244 . S
O141 Co140 2.216 . S
O141 C148 1.247 . S
O142 Co140 2.091 . S
O142 C148 1.261 . S
C143 O152 1.247 . S
C143 O153 1.272 . S
O144 Co140 2.004 . S
O144 C149 1.259 . S
Co145 O146 2.061 . S
Co145 O151 2.052 . S
Co145 O153 2.135 . S
O146 Co145 2.061 . S
O146 C149 1.235 . S
C147 O150 1.238 . S
C147 O151 1.241 . S
C148 O141 1.247 . S
C148 O142 1.261 . S
C149 O144 1.259 . S
C149 O146 1.235 . S
O150 Co140 2.021 . S
O150 C147 1.238 . S
O151 Co145 2.052 . S
O151 C147 1.241 . S
O152 Co140 2.137 . S
O152 C143 1.247 . S
O153 Co140 2.244 . S
O153 C143 1.272 . S
O153 Co145 2.135 . S
Co154 O155 2.216 . S
Co154 O156 2.091 . S
Co154 O158 2.004 . S
Co154 O164 2.021 . S
Co154 O166 2.137 . S
Co154 O167 2.244 . S
O155 Co154 2.216 . S
O155 C162 1.247 . S
O156 Co154 2.091 . S
O156 C162 1.261 . S
C157 O166 1.247 . S
C157 O167 1.272 . S
O158 Co154 2.004 . S
O158 C163 1.259 . S
Co159 O160 2.061 . S
Co159 O165 2.052 . S
Co159 O167 2.135 . S
O160 Co159 2.061 . S
O160 C163 1.235 . S
C161 O164 1.238 . S
C161 O165 1.241 . S
C162 O155 1.247 . S
C162 O156 1.261 . S
C163 O158 1.259 . S
C163 O160 1.235 . S
O164 Co154 2.021 . S
O164 C161 1.238 . S
O165 Co159 2.052 . S
O165 C161 1.241 . S
O166 Co154 2.137 . S
O166 C157 1.247 . S
O167 Co154 2.244 . S
O167 C157 1.272 . S
O167 Co159 2.135 . S
Co168 O169 2.216 . S
Co168 O170 2.091 . S
Co168 O172 2.004 . S
Co168 O178 2.021 . S
Co168 O180 2.137 . S
Co168 O181 2.244 . S
O169 Co168 2.216 . S
O169 C176 1.247 . S
O170 Co168 2.091 . S
O170 C176 1.261 . S
C171 O180 1.247 . S
C171 O181 1.272 . S
O172 Co168 2.004 . S
O172 C177 1.259 . S
Co173 O174 2.061 . S
Co173 O179 2.052 . S
Co173 O181 2.135 . S
O174 Co173 2.061 . S
O174 C177 1.235 . S
C175 O178 1.238 . S
C175 O179 1.241 . S
C176 O169 1.247 . S
C176 O170 1.261 . S
C177 O172 1.259 . S
C177 O174 1.235 . S
O178 Co168 2.021 . S
O178 C175 1.238 . S
O179 Co173 2.052 . S
O179 C175 1.241 . S
O180 Co168 2.137 . S
O180 C171 1.247 . S
O181 Co168 2.244 . S
O181 C171 1.272 . S
O181 Co173 2.135 . S
Co182 O183 2.216 . S
Co182 O184 2.091 . S
Co182 O186 2.004 . S
Co182 O192 2.021 . S
Co182 O194 2.137 . S
Co182 O195 2.244 . S
O183 Co182 2.216 . S
O183 C190 1.247 . S
O184 Co182 2.091 . S
O184 C190 1.261 . S
C185 O194 1.247 . S
C185 O195 1.272 . S
O186 Co182 2.004 . S
O186 C191 1.259 . S
Co187 O188 2.061 . S
Co187 O193 2.052 . S
Co187 O195 2.135 . S
O188 Co187 2.061 . S
O188 C191 1.235 . S
C189 O192 1.238 . S
C189 O193 1.241 . S
C190 O183 1.247 . S
C190 O184 1.261 . S
C191 O186 1.259 . S
C191 O188 1.235 . S
O192 Co182 2.021 . S
O192 C189 1.238 . S
O193 Co187 2.052 . S
O193 C189 1.241 . S
O194 Co182 2.137 . S
O194 C185 1.247 . S
O195 Co182 2.244 . S
O195 C185 1.272 . S
O195 Co187 2.135 . S
Co196 O197 2.216 . S
Co196 O198 2.091 . S
Co196 O200 2.004 . S
Co196 O206 2.021 . S
Co196 O208 2.137 . S
Co196 O209 2.244 . S
O197 Co196 2.216 . S
O197 C204 1.247 . S
O198 Co196 2.091 . S
O198 C204 1.261 . S
C199 O208 1.247 . S
C199 O209 1.272 . S
O200 Co196 2.004 . S
O200 C205 1.259 . S
Co201 O202 2.061 . S
Co201 O207 2.052 . S
Co201 O209 2.135 . S
O202 Co201 2.061 . S
O202 C205 1.235 . S
C203 O206 1.238 . S
C203 O207 1.241 . S
C204 O197 1.247 . S
C204 O198 1.261 . S
C205 O200 1.259 . S
C205 O202 1.235 . S
O206 Co196 2.021 . S
O206 C203 1.238 . S
O207 Co201 2.052 . S
O207 C203 1.241 . S
O208 Co196 2.137 . S
O208 C199 1.247 . S
O209 Co196 2.244 . S
O209 C199 1.272 . S
O209 Co201 2.135 . S
Co210 O211 2.216 . S
Co210 O212 2.091 . S
Co210 O214 2.004 . S
Co210 O220 2.021 . S
Co210 O222 2.137 . S
Co210 O223 2.244 . S
O211 Co210 2.216 . S
O211 C218 1.247 . S
O212 Co210 2.091 . S
O212 C218 1.261 . S
C213 O222 1.247 . S
C213 O223 1.272 . S
O214 Co210 2.004 . S
O214 C219 1.259 . S
Co215 O216 2.061 . S
Co215 O221 2.052 . S
Co215 O223 2.135 . S
O216 Co215 2.061 . S
O216 C219 1.235 . S
C217 O220 1.238 . S
C217 O221 1.241 . S
C218 O211 1.247 . S
C218 O212 1.261 . S
C219 O214 1.259 . S
C219 O216 1.235 . S
O220 Co210 2.021 . S
O220 C217 1.238 . S
O221 Co215 2.052 . S
O221 C217 1.241 . S
O222 Co210 2.137 . S
O222 C213 1.247 . S
O223 Co210 2.244 . S
O223 C213 1.272 . S
O223 Co215 2.135 . S
Co224 O225 2.216 . S
Co224 O226 2.091 . S
Co224 O228 2.004 . S
Co224 O234 2.021 . S
Co224 O236 2.137 . S
Co224 O237 2.244 . S
O225 Co224 2.216 . S
O225 C232 1.247 . S
O226 Co224 2.091 . S
O226 C232 1.261 . S
C227 O236 1.247 . S
C227 O237 1.272 . S
O228 Co224 2.004 . S
O228 C233 1.259 . S
Co229 O230 2.061 . S
Co229 O235 2.052 . S
Co229 O237 2.135 . S
O230 Co229 2.061 . S
O230 C233 1.235 . S
C231 O234 1.238 . S
C231 O235 1.241 . S
C232 O225 1.247 . S
C232 O226 1.261 . S
C233 O228 1.259 . S
C233 O230 1.235 . S
O234 Co224 2.021 . S
O234 C231 1.238 . S
O235 Co229 2.052 . S
O235 C231 1.241 . S
O236 Co224 2.137 . S
O236 C227 1.247 . S
O237 Co224 2.244 . S
O237 C227 1.272 . S
O237 Co229 2.135 . S
Co238 O239 2.216 . S
Co238 O240 2.091 . S
Co238 O242 2.004 . S
Co238 O248 2.021 . S
Co238 O250 2.137 . S
Co238 O251 2.244 . S
O239 Co238 2.216 . S
O239 C246 1.247 . S
O240 Co238 2.091 . S
O240 C246 1.261 . S
C241 O250 1.247 . S
C241 O251 1.272 . S
O242 Co238 2.004 . S
O242 C247 1.259 . S
Co243 O244 2.061 . S
Co243 O249 2.052 . S
Co243 O251 2.135 . S
O244 Co243 2.061 . S
O244 C247 1.235 . S
C245 O248 1.238 . S
C245 O249 1.241 . S
C246 O239 1.247 . S
C246 O240 1.261 . S
C247 O242 1.259 . S
C247 O244 1.235 . S
O248 Co238 2.021 . S
O248 C245 1.238 . S
O249 Co243 2.052 . S
O249 C245 1.241 . S
O250 Co238 2.137 . S
O250 C241 1.247 . S
O251 Co238 2.244 . S
O251 C241 1.272 . S
O251 Co243 2.135 . S
Co252 O253 2.216 . S
Co252 O254 2.091 . S
Co252 O256 2.004 . S
Co252 O262 2.021 . S
Co252 O264 2.137 . S
Co252 O265 2.244 . S
O253 Co252 2.216 . S
O253 C260 1.247 . S
O254 Co252 2.091 . S
O254 C260 1.261 . S
C255 O264 1.247 . S
C255 O265 1.272 . S
O256 Co252 2.004 . S
O256 C261 1.259 . S
Co257 O258 2.061 . S
Co257 O263 2.052 . S
Co257 O265 2.135 . S
O258 Co257 2.061 . S
O258 C261 1.235 . S
C259 O262 1.238 . S
C259 O263 1.241 . S
C260 O253 1.247 . S
C260 O254 1.261 . S
C261 O256 1.259 . S
C261 O258 1.235 . S
O262 Co252 2.021 . S
O262 C259 1.238 . S
O263 Co257 2.052 . S
O263 C259 1.241 . S
O264 Co252 2.137 . S
O264 C255 1.247 . S
O265 Co252 2.244 . S
O265 C255 1.272 . S
O265 Co257 2.135 . S
Co266 O267 2.216 . S
Co266 O268 2.091 . S
Co266 O270 2.004 . S
Co266 O276 2.021 . S
Co266 O278 2.137 . S
Co266 O279 2.244 . S
O267 Co266 2.216 . S
O267 C274 1.247 . S
O268 Co266 2.091 . S
O268 C274 1.261 . S
C269 O278 1.247 . S
C269 O279 1.272 . S
O270 Co266 2.004 . S
O270 C275 1.259 . S
Co271 O272 2.061 . S
Co271 O277 2.052 . S
Co271 O279 2.135 . S
O272 Co271 2.061 . S
O272 C275 1.235 . S
C273 O276 1.238 . S
C273 O277 1.241 . S
C274 O267 1.247 . S
C274 O268 1.261 . S
C275 O270 1.259 . S
C275 O272 1.235 . S
O276 Co266 2.021 . S
O276 C273 1.238 . S
O277 Co271 2.052 . S
O277 C273 1.241 . S
O278 Co266 2.137 . S
O278 C269 1.247 . S
O279 Co266 2.244 . S
O279 C269 1.272 . S
O279 Co271 2.135 . S
Co280 O281 2.216 . S
Co280 O282 2.091 . S
Co280 O284 2.004 . S
Co280 O290 2.021 . S
Co280 O292 2.137 . S
Co280 O293 2.244 . S
O281 Co280 2.216 . S
O281 C288 1.247 . S
O282 Co280 2.091 . S
O282 C288 1.261 . S
C283 O292 1.247 . S
C283 O293 1.272 . S
O284 Co280 2.004 . S
O284 C289 1.259 . S
Co285 O286 2.061 . S
Co285 O291 2.052 . S
Co285 O293 2.135 . S
O286 Co285 2.061 . S
O286 C289 1.235 . S
C287 O290 1.238 . S
C287 O291 1.241 . S
C288 O281 1.247 . S
C288 O282 1.261 . S
C289 O284 1.259 . S
C289 O286 1.235 . S
O290 Co280 2.021 . S
O290 C287 1.238 . S
O291 Co285 2.052 . S
O291 C287 1.241 . S
O292 Co280 2.137 . S
O292 C283 1.247 . S
O293 Co280 2.244 . S
O293 C283 1.272 . S
O293 Co285 2.135 . S
Co294 O295 2.216 . S
Co294 O296 2.091 . S
Co294 O298 2.004 . S
Co294 O304 2.021 . S
Co294 O306 2.137 . S
Co294 O307 2.244 . S
O295 Co294 2.216 . S
O295 C302 1.247 . S
O296 Co294 2.091 . S
O296 C302 1.261 . S
C297 O306 1.247 . S
C297 O307 1.272 . S
O298 Co294 2.004 . S
O298 C303 1.259 . S
Co299 O300 2.061 . S
Co299 O305 2.052 . S
Co299 O307 2.135 . S
O300 Co299 2.061 . S
O300 C303 1.235 . S
C301 O304 1.238 . S
C301 O305 1.241 . S
C302 O295 1.247 . S
C302 O296 1.261 . S
C303 O298 1.259 . S
C303 O300 1.235 . S
O304 Co294 2.021 . S
O304 C301 1.238 . S
O305 Co299 2.052 . S
O305 C301 1.241 . S
O306 Co294 2.137 . S
O306 C297 1.247 . S
O307 Co294 2.244 . S
O307 C297 1.272 . S
O307 Co299 2.135 . S
Co308 O309 2.216 . S
Co308 O310 2.091 . S
Co308 O312 2.004 . S
Co308 O318 2.021 . S
Co308 O320 2.137 . S
Co308 O321 2.244 . S
O309 Co308 2.216 . S
O309 C316 1.247 . S
O310 Co308 2.091 . S
O310 C316 1.261 . S
C311 O320 1.247 . S
C311 O321 1.272 . S
O312 Co308 2.004 . S
O312 C317 1.259 . S
Co313 O314 2.061 . S
Co313 O319 2.052 . S
Co313 O321 2.135 . S
O314 Co313 2.061 . S
O314 C317 1.235 . S
C315 O318 1.238 . S
C315 O319 1.241 . S
C316 O309 1.247 . S
C316 O310 1.261 . S
C317 O312 1.259 . S
C317 O314 1.235 . S
O318 Co308 2.021 . S
O318 C315 1.238 . S
O319 Co313 2.052 . S
O319 C315 1.241 . S
O320 Co308 2.137 . S
O320 C311 1.247 . S
O321 Co308 2.244 . S
O321 C311 1.272 . S
O321 Co313 2.135 . S
Co322 O323 2.216 . S
Co322 O324 2.091 . S
Co322 O326 2.004 . S
Co322 O332 2.021 . S
Co322 O334 2.137 . S
Co322 O335 2.244 . S
O323 Co322 2.216 . S
O323 C330 1.247 . S
O324 Co322 2.091 . S
O324 C330 1.261 . S
C325 O334 1.247 . S
C325 O335 1.272 . S
O326 Co322 2.004 . S
O326 C331 1.259 . S
Co327 O328 2.061 . S
Co327 O333 2.052 . S
Co327 O335 2.135 . S
O328 Co327 2.061 . S
O328 C331 1.235 . S
C329 O332 1.238 . S
C329 O333 1.241 . S
C330 O323 1.247 . S
C330 O324 1.261 . S
C331 O326 1.259 . S
C331 O328 1.235 . S
O332 Co322 2.021 . S
O332 C329 1.238 . S
O333 Co327 2.052 . S
O333 C329 1.241 . S
O334 Co322 2.137 . S
O334 C325 1.247 . S
O335 Co322 2.244 . S
O335 C325 1.272 . S
O335 Co327 2.135 . S
C336 C337 1.391 . S
C336 C338 1.394 . S
C336 H352 0.931 . S
C337 C336 1.391 . S
C337 C341 1.376 . S
C338 C336 1.394 . S
C338 C339 1.369 . S
C338 C342 1.531 . S
C339 C338 1.369 . S
C339 C340 1.410 . S
C339 C347 1.503 . S
C340 C339 1.410 . S
C340 C341 1.392 . S
C340 C343 1.511 . S
C341 C337 1.376 . S
C341 C340 1.392 . S
C341 H353 0.929 . S
C342 C338 1.531 . S
C342 H354 0.960 . S
C342 H355 0.962 . S
C342 H356 0.960 . S
C343 C340 1.511 . S
C343 H357 0.961 . S
C343 H358 0.961 . S
C343 H359 0.961 . S
C344 C345 1.370 . S
C344 C346 1.363 . S
C344 H360 0.931 . S
C345 C344 1.370 . S
C345 C349 1.408 . S
C346 C344 1.363 . S
C346 C347 1.370 . S
C346 C350 1.524 . S
C347 C339 1.503 . S
C347 C346 1.370 . S
C347 C348 1.403 . S
C348 C347 1.403 . S
C348 C349 1.404 . S
C348 C351 1.539 . S
C349 C345 1.408 . S
C349 C348 1.404 . S
C349 H361 0.930 . S
C350 C346 1.524 . S
C350 H362 0.956 . S
C350 H363 0.961 . S
C350 H364 0.961 . S
C351 C348 1.539 . S
C351 H365 0.958 . S
C351 H366 0.961 . S
C351 H367 0.960 . S
H352 C336 0.931 . S
H353 C341 0.929 . S
H354 C342 0.960 . S
H355 C342 0.962 . S
H356 C342 0.960 . S
H357 C343 0.961 . S
H358 C343 0.961 . S
H359 C343 0.961 . S
H360 C344 0.931 . S
H361 C349 0.930 . S
H362 C350 0.956 . S
H363 C350 0.961 . S
H364 C350 0.961 . S
H365 C351 0.958 . S
H366 C351 0.961 . S
H367 C351 0.960 . S
C368 C369 1.391 . S
C368 C370 1.394 . S
C368 H384 0.931 . S
C369 C368 1.391 . S
C369 C373 1.376 . S
C370 C368 1.394 . S
C370 C371 1.369 . S
C370 C374 1.531 . S
C371 C370 1.369 . S
C371 C372 1.410 . S
C371 C379 1.503 . S
C372 C371 1.410 . S
C372 C373 1.392 . S
C372 C375 1.511 . S
C373 C369 1.376 . S
C373 C372 1.392 . S
C373 H385 0.929 . S
C374 C370 1.531 . S
C374 H386 0.960 . S
C374 H387 0.962 . S
C374 H388 0.960 . S
C375 C372 1.511 . S
C375 H389 0.961 . S
C375 H390 0.961 . S
C375 H391 0.961 . S
C376 C377 1.370 . S
C376 C378 1.363 . S
C376 H392 0.931 . S
C377 C376 1.370 . S
C377 C381 1.408 . S
C378 C376 1.363 . S
C378 C379 1.370 . S
C378 C382 1.524 . S
C379 C371 1.503 . S
C379 C378 1.370 . S
C379 C380 1.403 . S
C380 C379 1.403 . S
C380 C381 1.404 . S
C380 C383 1.539 . S
C381 C377 1.408 . S
C381 C380 1.404 . S
C381 H393 0.930 . S
C382 C378 1.524 . S
C382 H394 0.956 . S
C382 H395 0.961 . S
C382 H396 0.961 . S
C383 C380 1.539 . S
C383 H397 0.958 . S
C383 H398 0.961 . S
C383 H399 0.960 . S
H384 C368 0.931 . S
H385 C373 0.929 . S
H386 C374 0.960 . S
H387 C374 0.962 . S
H388 C374 0.960 . S
H389 C375 0.961 . S
H390 C375 0.961 . S
H391 C375 0.961 . S
H392 C376 0.931 . S
H393 C381 0.930 . S
H394 C382 0.956 . S
H395 C382 0.961 . S
H396 C382 0.961 . S
H397 C383 0.958 . S
H398 C383 0.961 . S
H399 C383 0.960 . S
C400 C401 1.391 . S
C400 C402 1.394 . S
C400 H416 0.931 . S
C401 C400 1.391 . S
C401 C405 1.376 . S
C402 C400 1.394 . S
C402 C403 1.369 . S
C402 C406 1.531 . S
C403 C402 1.369 . S
C403 C404 1.410 . S
C403 C411 1.503 . S
C404 C403 1.410 . S
C404 C405 1.392 . S
C404 C407 1.511 . S
C405 C401 1.376 . S
C405 C404 1.392 . S
C405 H417 0.929 . S
C406 C402 1.531 . S
C406 H418 0.960 . S
C406 H419 0.962 . S
C406 H420 0.960 . S
C407 C404 1.511 . S
C407 H421 0.961 . S
C407 H422 0.961 . S
C407 H423 0.961 . S
C408 C409 1.370 . S
C408 C410 1.363 . S
C408 H424 0.931 . S
C409 C408 1.370 . S
C409 C413 1.408 . S
C410 C408 1.363 . S
C410 C411 1.370 . S
C410 C414 1.524 . S
C411 C403 1.503 . S
C411 C410 1.370 . S
C411 C412 1.403 . S
C412 C411 1.403 . S
C412 C413 1.404 . S
C412 C415 1.539 . S
C413 C409 1.408 . S
C413 C412 1.404 . S
C413 H425 0.930 . S
C414 C410 1.524 . S
C414 H426 0.956 . S
C414 H427 0.961 . S
C414 H428 0.961 . S
C415 C412 1.539 . S
C415 H429 0.958 . S
C415 H430 0.961 . S
C415 H431 0.960 . S
H416 C400 0.931 . S
H417 C405 0.929 . S
H418 C406 0.960 . S
H419 C406 0.962 . S
H420 C406 0.960 . S
H421 C407 0.961 . S
H422 C407 0.961 . S
H423 C407 0.961 . S
H424 C408 0.931 . S
H425 C413 0.930 . S
H426 C414 0.956 . S
H427 C414 0.961 . S
H428 C414 0.961 . S
H429 C415 0.958 . S
H430 C415 0.961 . S
H431 C415 0.960 . S
C432 C433 1.391 . S
C432 C434 1.394 . S
C432 H448 0.931 . S
C433 C432 1.391 . S
C433 C437 1.376 . S
C434 C432 1.394 . S
C434 C435 1.369 . S
C434 C438 1.531 . S
C435 C434 1.369 . S
C435 C436 1.410 . S
C435 C443 1.503 . S
C436 C435 1.410 . S
C436 C437 1.392 . S
C436 C439 1.511 . S
C437 C433 1.376 . S
C437 C436 1.392 . S
C437 H449 0.929 . S
C438 C434 1.531 . S
C438 H450 0.960 . S
C438 H451 0.962 . S
C438 H452 0.960 . S
C439 C436 1.511 . S
C439 H453 0.961 . S
C439 H454 0.961 . S
C439 H455 0.961 . S
C440 C441 1.370 . S
C440 C442 1.363 . S
C440 H456 0.931 . S
C441 C440 1.370 . S
C441 C445 1.408 . S
C442 C440 1.363 . S
C442 C443 1.370 . S
C442 C446 1.524 . S
C443 C435 1.503 . S
C443 C442 1.370 . S
C443 C444 1.403 . S
C444 C443 1.403 . S
C444 C445 1.404 . S
C444 C447 1.539 . S
C445 C441 1.408 . S
C445 C444 1.404 . S
C445 H457 0.930 . S
C446 C442 1.524 . S
C446 H458 0.956 . S
C446 H459 0.961 . S
C446 H460 0.961 . S
C447 C444 1.539 . S
C447 H461 0.958 . S
C447 H462 0.961 . S
C447 H463 0.960 . S
H448 C432 0.931 . S
H449 C437 0.929 . S
H450 C438 0.960 . S
H451 C438 0.962 . S
H452 C438 0.960 . S
H453 C439 0.961 . S
H454 C439 0.961 . S
H455 C439 0.961 . S
H456 C440 0.931 . S
H457 C445 0.930 . S
H458 C446 0.956 . S
H459 C446 0.961 . S
H460 C446 0.961 . S
H461 C447 0.958 . S
H462 C447 0.961 . S
H463 C447 0.960 . S
C464 C465 1.391 . S
C464 C466 1.394 . S
C464 H480 0.931 . S
C465 C464 1.391 . S
C465 C469 1.376 . S
C466 C464 1.394 . S
C466 C467 1.369 . S
C466 C470 1.531 . S
C467 C466 1.369 . S
C467 C468 1.410 . S
C467 C475 1.503 . S
C468 C467 1.410 . S
C468 C469 1.392 . S
C468 C471 1.511 . S
C469 C465 1.376 . S
C469 C468 1.392 . S
C469 H481 0.929 . S
C470 C466 1.531 . S
C470 H482 0.960 . S
C470 H483 0.962 . S
C470 H484 0.960 . S
C471 C468 1.511 . S
C471 H485 0.961 . S
C471 H486 0.961 . S
C471 H487 0.961 . S
C472 C473 1.370 . S
C472 C474 1.363 . S
C472 H488 0.931 . S
C473 C472 1.370 . S
C473 C477 1.408 . S
C474 C472 1.363 . S
C474 C475 1.370 . S
C474 C478 1.524 . S
C475 C467 1.503 . S
C475 C474 1.370 . S
C475 C476 1.403 . S
C476 C475 1.403 . S
C476 C477 1.404 . S
C476 C479 1.539 . S
C477 C473 1.408 . S
C477 C476 1.404 . S
C477 H489 0.930 . S
C478 C474 1.524 . S
C478 H490 0.956 . S
C478 H491 0.961 . S
C478 H492 0.961 . S
C479 C476 1.539 . S
C479 H493 0.958 . S
C479 H494 0.961 . S
C479 H495 0.960 . S
H480 C464 0.931 . S
H481 C469 0.929 . S
H482 C470 0.960 . S
H483 C470 0.962 . S
H484 C470 0.960 . S
H485 C471 0.961 . S
H486 C471 0.961 . S
H487 C471 0.961 . S
H488 C472 0.931 . S
H489 C477 0.930 . S
H490 C478 0.956 . S
H491 C478 0.961 . S
H492 C478 0.961 . S
H493 C479 0.958 . S
H494 C479 0.961 . S
H495 C479 0.960 . S
C496 C497 1.391 . S
C496 C498 1.394 . S
C496 H512 0.931 . S
C497 C496 1.391 . S
C497 C501 1.376 . S
C498 C496 1.394 . S
C498 C499 1.369 . S
C498 C502 1.531 . S
C499 C498 1.369 . S
C499 C500 1.410 . S
C499 C507 1.503 . S
C500 C499 1.410 . S
C500 C501 1.392 . S
C500 C503 1.511 . S
C501 C497 1.376 . S
C501 C500 1.392 . S
C501 H513 0.929 . S
C502 C498 1.531 . S
C502 H514 0.960 . S
C502 H515 0.962 . S
C502 H516 0.960 . S
C503 C500 1.511 . S
C503 H517 0.961 . S
C503 H518 0.961 . S
C503 H519 0.961 . S
C504 C505 1.370 . S
C504 C506 1.363 . S
C504 H520 0.931 . S
C505 C504 1.370 . S
C505 C509 1.408 . S
C506 C504 1.363 . S
C506 C507 1.370 . S
C506 C510 1.524 . S
C507 C499 1.503 . S
C507 C506 1.370 . S
C507 C508 1.403 . S
C508 C507 1.403 . S
C508 C509 1.404 . S
C508 C511 1.539 . S
C509 C505 1.408 . S
C509 C508 1.404 . S
C509 H521 0.930 . S
C510 C506 1.524 . S
C510 H522 0.956 . S
C510 H523 0.961 . S
C510 H524 0.961 . S
C511 C508 1.539 . S
C511 H525 0.958 . S
C511 H526 0.961 . S
C511 H527 0.960 . S
H512 C496 0.931 . S
H513 C501 0.929 . S
H514 C502 0.960 . S
H515 C502 0.962 . S
H516 C502 0.960 . S
H517 C503 0.961 . S
H518 C503 0.961 . S
H519 C503 0.961 . S
H520 C504 0.931 . S
H521 C509 0.930 . S
H522 C510 0.956 . S
H523 C510 0.961 . S
H524 C510 0.961 . S
H525 C511 0.958 . S
H526 C511 0.961 . S
H527 C511 0.960 . S
C528 C529 1.391 . S
C528 C530 1.394 . S
C528 H544 0.931 . S
C529 C528 1.391 . S
C529 C533 1.376 . S
C530 C528 1.394 . S
C530 C531 1.369 . S
C530 C534 1.531 . S
C531 C530 1.369 . S
C531 C532 1.410 . S
C531 C539 1.503 . S
C532 C531 1.410 . S
C532 C533 1.392 . S
C532 C535 1.511 . S
C533 C529 1.376 . S
C533 C532 1.392 . S
C533 H545 0.929 . S
C534 C530 1.531 . S
C534 H546 0.960 . S
C534 H547 0.962 . S
C534 H548 0.960 . S
C535 C532 1.511 . S
C535 H549 0.961 . S
C535 H550 0.961 . S
C535 H551 0.961 . S
C536 C537 1.370 . S
C536 C538 1.363 . S
C536 H552 0.931 . S
C537 C536 1.370 . S
C537 C541 1.408 . S
C538 C536 1.363 . S
C538 C539 1.370 . S
C538 C542 1.524 . S
C539 C531 1.503 . S
C539 C538 1.370 . S
C539 C540 1.403 . S
C540 C539 1.403 . S
C540 C541 1.404 . S
C540 C543 1.539 . S
C541 C537 1.408 . S
C541 C540 1.404 . S
C541 H553 0.930 . S
C542 C538 1.524 . S
C542 H554 0.956 . S
C542 H555 0.961 . S
C542 H556 0.961 . S
C543 C540 1.539 . S
C543 H557 0.958 . S
C543 H558 0.961 . S
C543 H559 0.960 . S
H544 C528 0.931 . S
H545 C533 0.929 . S
H546 C534 0.960 . S
H547 C534 0.962 . S
H548 C534 0.960 . S
H549 C535 0.961 . S
H550 C535 0.961 . S
H551 C535 0.961 . S
H552 C536 0.931 . S
H553 C541 0.930 . S
H554 C542 0.956 . S
H555 C542 0.961 . S
H556 C542 0.961 . S
H557 C543 0.958 . S
H558 C543 0.961 . S
H559 C543 0.960 . S
C560 C561 1.391 . S
C560 C562 1.394 . S
C560 H576 0.931 . S
C561 C560 1.391 . S
C561 C565 1.376 . S
C562 C560 1.394 . S
C562 C563 1.369 . S
C562 C566 1.531 . S
C563 C562 1.369 . S
C563 C564 1.410 . S
C563 C571 1.503 . S
C564 C563 1.410 . S
C564 C565 1.392 . S
C564 C567 1.511 . S
C565 C561 1.376 . S
C565 C564 1.392 . S
C565 H577 0.929 . S
C566 C562 1.531 . S
C566 H578 0.960 . S
C566 H579 0.962 . S
C566 H580 0.960 . S
C567 C564 1.511 . S
C567 H581 0.961 . S
C567 H582 0.961 . S
C567 H583 0.961 . S
C568 C569 1.370 . S
C568 C570 1.363 . S
C568 H584 0.931 . S
C569 C568 1.370 . S
C569 C573 1.408 . S
C570 C568 1.363 . S
C570 C571 1.370 . S
C570 C574 1.524 . S
C571 C563 1.503 . S
C571 C570 1.370 . S
C571 C572 1.403 . S
C572 C571 1.403 . S
C572 C573 1.404 . S
C572 C575 1.539 . S
C573 C569 1.408 . S
C573 C572 1.404 . S
C573 H585 0.930 . S
C574 C570 1.524 . S
C574 H586 0.956 . S
C574 H587 0.961 . S
C574 H588 0.961 . S
C575 C572 1.539 . S
C575 H589 0.958 . S
C575 H590 0.961 . S
C575 H591 0.960 . S
H576 C560 0.931 . S
H577 C565 0.929 . S
H578 C566 0.960 . S
H579 C566 0.962 . S
H580 C566 0.960 . S
H581 C567 0.961 . S
H582 C567 0.961 . S
H583 C567 0.961 . S
H584 C568 0.931 . S
H585 C573 0.930 . S
H586 C574 0.956 . S
H587 C574 0.961 . S
H588 C574 0.961 . S
H589 C575 0.958 . S
H590 C575 0.961 . S
H591 C575 0.960 . S
C592 C593 1.391 . S
C592 C594 1.394 . S
C592 H608 0.931 . S
C593 C592 1.391 . S
C593 C597 1.376 . S
C594 C592 1.394 . S
C594 C595 1.369 . S
C594 C598 1.531 . S
C595 C594 1.369 . S
C595 C596 1.410 . S
C595 C603 1.503 . S
C596 C595 1.410 . S
C596 C597 1.392 . S
C596 C599 1.511 . S
C597 C593 1.376 . S
C597 C596 1.392 . S
C597 H609 0.929 . S
C598 C594 1.531 . S
C598 H610 0.960 . S
C598 H611 0.962 . S
C598 H612 0.960 . S
C599 C596 1.511 . S
C599 H613 0.961 . S
C599 H614 0.961 . S
C599 H615 0.961 . S
C600 C601 1.370 . S
C600 C602 1.363 . S
C600 H616 0.931 . S
C601 C600 1.370 . S
C601 C605 1.408 . S
C602 C600 1.363 . S
C602 C603 1.370 . S
C602 C606 1.524 . S
C603 C595 1.503 . S
C603 C602 1.370 . S
C603 C604 1.403 . S
C604 C603 1.403 . S
C604 C605 1.404 . S
C604 C607 1.539 . S
C605 C601 1.408 . S
C605 C604 1.404 . S
C605 H617 0.930 . S
C606 C602 1.524 . S
C606 H618 0.956 . S
C606 H619 0.961 . S
C606 H620 0.961 . S
C607 C604 1.539 . S
C607 H621 0.958 . S
C607 H622 0.961 . S
C607 H623 0.960 . S
H608 C592 0.931 . S
H609 C597 0.929 . S
H610 C598 0.960 . S
H611 C598 0.962 . S
H612 C598 0.960 . S
H613 C599 0.961 . S
H614 C599 0.961 . S
H615 C599 0.961 . S
H616 C600 0.931 . S
H617 C605 0.930 . S
H618 C606 0.956 . S
H619 C606 0.961 . S
H620 C606 0.961 . S
H621 C607 0.958 . S
H622 C607 0.961 . S
H623 C607 0.960 . S
C624 C625 1.391 . S
C624 C626 1.394 . S
C624 H640 0.931 . S
C625 C624 1.391 . S
C625 C629 1.376 . S
C626 C624 1.394 . S
C626 C627 1.369 . S
C626 C630 1.531 . S
C627 C626 1.369 . S
C627 C628 1.410 . S
C627 C635 1.503 . S
C628 C627 1.410 . S
C628 C629 1.392 . S
C628 C631 1.511 . S
C629 C625 1.376 . S
C629 C628 1.392 . S
C629 H641 0.929 . S
C630 C626 1.531 . S
C630 H642 0.960 . S
C630 H643 0.962 . S
C630 H644 0.960 . S
C631 C628 1.511 . S
C631 H645 0.961 . S
C631 H646 0.961 . S
C631 H647 0.961 . S
C632 C633 1.370 . S
C632 C634 1.363 . S
C632 H648 0.931 . S
C633 C632 1.370 . S
C633 C637 1.408 . S
C634 C632 1.363 . S
C634 C635 1.370 . S
C634 C638 1.524 . S
C635 C627 1.503 . S
C635 C634 1.370 . S
C635 C636 1.403 . S
C636 C635 1.403 . S
C636 C637 1.404 . S
C636 C639 1.539 . S
C637 C633 1.408 . S
C637 C636 1.404 . S
C637 H649 0.930 . S
C638 C634 1.524 . S
C638 H650 0.956 . S
C638 H651 0.961 . S
C638 H652 0.961 . S
C639 C636 1.539 . S
C639 H653 0.958 . S
C639 H654 0.961 . S
C639 H655 0.960 . S
H640 C624 0.931 . S
H641 C629 0.929 . S
H642 C630 0.960 . S
H643 C630 0.962 . S
H644 C630 0.960 . S
H645 C631 0.961 . S
H646 C631 0.961 . S
H647 C631 0.961 . S
H648 C632 0.931 . S
H649 C637 0.930 . S
H650 C638 0.956 . S
H651 C638 0.961 . S
H652 C638 0.961 . S
H653 C639 0.958 . S
H654 C639 0.961 . S
H655 C639 0.960 . S
C656 C657 1.391 . S
C656 C658 1.394 . S
C656 H672 0.931 . S
C657 C656 1.391 . S
C657 C661 1.376 . S
C658 C656 1.394 . S
C658 C659 1.369 . S
C658 C662 1.531 . S
C659 C658 1.369 . S
C659 C660 1.410 . S
C659 C667 1.503 . S
C660 C659 1.410 . S
C660 C661 1.392 . S
C660 C663 1.511 . S
C661 C657 1.376 . S
C661 C660 1.392 . S
C661 H673 0.929 . S
C662 C658 1.531 . S
C662 H674 0.960 . S
C662 H675 0.962 . S
C662 H676 0.960 . S
C663 C660 1.511 . S
C663 H677 0.961 . S
C663 H678 0.961 . S
C663 H679 0.961 . S
C664 C665 1.370 . S
C664 C666 1.363 . S
C664 H680 0.931 . S
C665 C664 1.370 . S
C665 C669 1.408 . S
C666 C664 1.363 . S
C666 C667 1.370 . S
C666 C670 1.524 . S
C667 C659 1.503 . S
C667 C666 1.370 . S
C667 C668 1.403 . S
C668 C667 1.403 . S
C668 C669 1.404 . S
C668 C671 1.539 . S
C669 C665 1.408 . S
C669 C668 1.404 . S
C669 H681 0.930 . S
C670 C666 1.524 . S
C670 H682 0.956 . S
C670 H683 0.961 . S
C670 H684 0.961 . S
C671 C668 1.539 . S
C671 H685 0.958 . S
C671 H686 0.961 . S
C671 H687 0.960 . S
H672 C656 0.931 . S
H673 C661 0.929 . S
H674 C662 0.960 . S
H675 C662 0.962 . S
H676 C662 0.960 . S
H677 C663 0.961 . S
H678 C663 0.961 . S
H679 C663 0.961 . S
H680 C664 0.931 . S
H681 C669 0.930 . S
H682 C670 0.956 . S
H683 C670 0.961 . S
H684 C670 0.961 . S
H685 C671 0.958 . S
H686 C671 0.961 . S
H687 C671 0.960 . S
C688 C689 1.391 . S
C688 C690 1.394 . S
C688 H704 0.931 . S
C689 C688 1.391 . S
C689 C693 1.376 . S
C690 C688 1.394 . S
C690 C691 1.369 . S
C690 C694 1.531 . S
C691 C690 1.369 . S
C691 C692 1.410 . S
C691 C699 1.503 . S
C692 C691 1.410 . S
C692 C693 1.392 . S
C692 C695 1.511 . S
C693 C689 1.376 . S
C693 C692 1.392 . S
C693 H705 0.929 . S
C694 C690 1.531 . S
C694 H706 0.960 . S
C694 H707 0.962 . S
C694 H708 0.960 . S
C695 C692 1.511 . S
C695 H709 0.961 . S
C695 H710 0.961 . S
C695 H711 0.961 . S
C696 C697 1.370 . S
C696 C698 1.363 . S
C696 H712 0.931 . S
C697 C696 1.370 . S
C697 C701 1.408 . S
C698 C696 1.363 . S
C698 C699 1.370 . S
C698 C702 1.524 . S
C699 C691 1.503 . S
C699 C698 1.370 . S
C699 C700 1.403 . S
C700 C699 1.403 . S
C700 C701 1.404 . S
C700 C703 1.539 . S
C701 C697 1.408 . S
C701 C700 1.404 . S
C701 H713 0.930 . S
C702 C698 1.524 . S
C702 H714 0.956 . S
C702 H715 0.961 . S
C702 H716 0.961 . S
C703 C700 1.539 . S
C703 H717 0.958 . S
C703 H718 0.961 . S
C703 H719 0.960 . S
H704 C688 0.931 . S
H705 C693 0.929 . S
H706 C694 0.960 . S
H707 C694 0.962 . S
H708 C694 0.960 . S
H709 C695 0.961 . S
H710 C695 0.961 . S
H711 C695 0.961 . S
H712 C696 0.931 . S
H713 C701 0.930 . S
H714 C702 0.956 . S
H715 C702 0.961 . S
H716 C702 0.961 . S
H717 C703 0.958 . S
H718 C703 0.961 . S
H719 C703 0.960 . S
C720 C721 1.391 . S
C720 C722 1.394 . S
C720 H736 0.931 . S
C721 C720 1.391 . S
C721 C725 1.376 . S
C722 C720 1.394 . S
C722 C723 1.369 . S
C722 C726 1.531 . S
C723 C722 1.369 . S
C723 C724 1.410 . S
C723 C731 1.503 . S
C724 C723 1.410 . S
C724 C725 1.392 . S
C724 C727 1.511 . S
C725 C721 1.376 . S
C725 C724 1.392 . S
C725 H737 0.929 . S
C726 C722 1.531 . S
C726 H738 0.960 . S
C726 H739 0.962 . S
C726 H740 0.960 . S
C727 C724 1.511 . S
C727 H741 0.961 . S
C727 H742 0.961 . S
C727 H743 0.961 . S
C728 C729 1.370 . S
C728 C730 1.363 . S
C728 H744 0.931 . S
C729 C728 1.370 . S
C729 C733 1.408 . S
C730 C728 1.363 . S
C730 C731 1.370 . S
C730 C734 1.524 . S
C731 C723 1.503 . S
C731 C730 1.370 . S
C731 C732 1.403 . S
C732 C731 1.403 . S
C732 C733 1.404 . S
C732 C735 1.539 . S
C733 C729 1.408 . S
C733 C732 1.404 . S
C733 H745 0.930 . S
C734 C730 1.524 . S
C734 H746 0.956 . S
C734 H747 0.961 . S
C734 H748 0.961 . S
C735 C732 1.539 . S
C735 H749 0.958 . S
C735 H750 0.961 . S
C735 H751 0.960 . S
H736 C720 0.931 . S
H737 C725 0.929 . S
H738 C726 0.960 . S
H739 C726 0.962 . S
H740 C726 0.960 . S
H741 C727 0.961 . S
H742 C727 0.961 . S
H743 C727 0.961 . S
H744 C728 0.931 . S
H745 C733 0.930 . S
H746 C734 0.956 . S
H747 C734 0.961 . S
H748 C734 0.961 . S
H749 C735 0.958 . S
H750 C735 0.961 . S
H751 C735 0.960 . S
C752 C753 1.391 . S
C752 C754 1.394 . S
C752 H768 0.931 . S
C753 C752 1.391 . S
C753 C757 1.376 . S
C754 C752 1.394 . S
C754 C755 1.369 . S
C754 C758 1.531 . S
C755 C754 1.369 . S
C755 C756 1.410 . S
C755 C763 1.503 . S
C756 C755 1.410 . S
C756 C757 1.392 . S
C756 C759 1.511 . S
C757 C753 1.376 . S
C757 C756 1.392 . S
C757 H769 0.929 . S
C758 C754 1.531 . S
C758 H770 0.960 . S
C758 H771 0.962 . S
C758 H772 0.960 . S
C759 C756 1.511 . S
C759 H773 0.961 . S
C759 H774 0.961 . S
C759 H775 0.961 . S
C760 C761 1.370 . S
C760 C762 1.363 . S
C760 H776 0.931 . S
C761 C760 1.370 . S
C761 C765 1.408 . S
C762 C760 1.363 . S
C762 C763 1.370 . S
C762 C766 1.524 . S
C763 C755 1.503 . S
C763 C762 1.370 . S
C763 C764 1.403 . S
C764 C763 1.403 . S
C764 C765 1.404 . S
C764 C767 1.539 . S
C765 C761 1.408 . S
C765 C764 1.404 . S
C765 H777 0.930 . S
C766 C762 1.524 . S
C766 H778 0.956 . S
C766 H779 0.961 . S
C766 H780 0.961 . S
C767 C764 1.539 . S
C767 H781 0.958 . S
C767 H782 0.961 . S
C767 H783 0.960 . S
H768 C752 0.931 . S
H769 C757 0.929 . S
H770 C758 0.960 . S
H771 C758 0.962 . S
H772 C758 0.960 . S
H773 C759 0.961 . S
H774 C759 0.961 . S
H775 C759 0.961 . S
H776 C760 0.931 . S
H777 C765 0.930 . S
H778 C766 0.956 . S
H779 C766 0.961 . S
H780 C766 0.961 . S
H781 C767 0.958 . S
H782 C767 0.961 . S
H783 C767 0.960 . S
C784 C785 1.391 . S
C784 C786 1.394 . S
C784 H800 0.931 . S
C785 C784 1.391 . S
C785 C789 1.376 . S
C786 C784 1.394 . S
C786 C787 1.369 . S
C786 C790 1.531 . S
C787 C786 1.369 . S
C787 C788 1.410 . S
C787 C795 1.503 . S
C788 C787 1.410 . S
C788 C789 1.392 . S
C788 C791 1.511 . S
C789 C785 1.376 . S
C789 C788 1.392 . S
C789 H801 0.929 . S
C790 C786 1.531 . S
C790 H802 0.960 . S
C790 H803 0.962 . S
C790 H804 0.960 . S
C791 C788 1.511 . S
C791 H805 0.961 . S
C791 H806 0.961 . S
C791 H807 0.961 . S
C792 C793 1.370 . S
C792 C794 1.363 . S
C792 H808 0.931 . S
C793 C792 1.370 . S
C793 C797 1.408 . S
C794 C792 1.363 . S
C794 C795 1.370 . S
C794 C798 1.524 . S
C795 C787 1.503 . S
C795 C794 1.370 . S
C795 C796 1.403 . S
C796 C795 1.403 . S
C796 C797 1.404 . S
C796 C799 1.539 . S
C797 C793 1.408 . S
C797 C796 1.404 . S
C797 H809 0.930 . S
C798 C794 1.524 . S
C798 H810 0.956 . S
C798 H811 0.961 . S
C798 H812 0.961 . S
C799 C796 1.539 . S
C799 H813 0.958 . S
C799 H814 0.961 . S
C799 H815 0.960 . S
H800 C784 0.931 . S
H801 C789 0.929 . S
H802 C790 0.960 . S
H803 C790 0.962 . S
H804 C790 0.960 . S
H805 C791 0.961 . S
H806 C791 0.961 . S
H807 C791 0.961 . S
H808 C792 0.931 . S
H809 C797 0.930 . S
H810 C798 0.956 . S
H811 C798 0.961 . S
H812 C798 0.961 . S
H813 C799 0.958 . S
H814 C799 0.961 . S
H815 C799 0.960 . S
C816 C817 1.391 . S
C816 C818 1.394 . S
C816 H832 0.931 . S
C817 C816 1.391 . S
C817 C821 1.376 . S
C818 C816 1.394 . S
C818 C819 1.369 . S
C818 C822 1.531 . S
C819 C818 1.369 . S
C819 C820 1.410 . S
C819 C827 1.503 . S
C820 C819 1.410 . S
C820 C821 1.392 . S
C820 C823 1.511 . S
C821 C817 1.376 . S
C821 C820 1.392 . S
C821 H833 0.929 . S
C822 C818 1.531 . S
C822 H834 0.960 . S
C822 H835 0.962 . S
C822 H836 0.960 . S
C823 C820 1.511 . S
C823 H837 0.961 . S
C823 H838 0.961 . S
C823 H839 0.961 . S
C824 C825 1.370 . S
C824 C826 1.363 . S
C824 H840 0.931 . S
C825 C824 1.370 . S
C825 C829 1.408 . S
C826 C824 1.363 . S
C826 C827 1.370 . S
C826 C830 1.524 . S
C827 C819 1.503 . S
C827 C826 1.370 . S
C827 C828 1.403 . S
C828 C827 1.403 . S
C828 C829 1.404 . S
C828 C831 1.539 . S
C829 C825 1.408 . S
C829 C828 1.404 . S
C829 H841 0.930 . S
C830 C826 1.524 . S
C830 H842 0.956 . S
C830 H843 0.961 . S
C830 H844 0.961 . S
C831 C828 1.539 . S
C831 H845 0.958 . S
C831 H846 0.961 . S
C831 H847 0.960 . S
H832 C816 0.931 . S
H833 C821 0.929 . S
H834 C822 0.960 . S
H835 C822 0.962 . S
H836 C822 0.960 . S
H837 C823 0.961 . S
H838 C823 0.961 . S
H839 C823 0.961 . S
H840 C824 0.931 . S
H841 C829 0.930 . S
H842 C830 0.956 . S
H843 C830 0.961 . S
H844 C830 0.961 . S
H845 C831 0.958 . S
H846 C831 0.961 . S
H847 C831 0.960 . S
C848 C849 1.391 . S
C848 C850 1.394 . S
C848 H864 0.931 . S
C849 C848 1.391 . S
C849 C853 1.376 . S
C850 C848 1.394 . S
C850 C851 1.369 . S
C850 C854 1.531 . S
C851 C850 1.369 . S
C851 C852 1.410 . S
C851 C859 1.503 . S
C852 C851 1.410 . S
C852 C853 1.392 . S
C852 C855 1.511 . S
C853 C849 1.376 . S
C853 C852 1.392 . S
C853 H865 0.929 . S
C854 C850 1.531 . S
C854 H866 0.960 . S
C854 H867 0.962 . S
C854 H868 0.960 . S
C855 C852 1.511 . S
C855 H869 0.961 . S
C855 H870 0.961 . S
C855 H871 0.961 . S
C856 C857 1.370 . S
C856 C858 1.363 . S
C856 H872 0.931 . S
C857 C856 1.370 . S
C857 C861 1.408 . S
C858 C856 1.363 . S
C858 C859 1.370 . S
C858 C862 1.524 . S
C859 C851 1.503 . S
C859 C858 1.370 . S
C859 C860 1.403 . S
C860 C859 1.403 . S
C860 C861 1.404 . S
C860 C863 1.539 . S
C861 C857 1.408 . S
C861 C860 1.404 . S
C861 H873 0.930 . S
C862 C858 1.524 . S
C862 H874 0.956 . S
C862 H875 0.961 . S
C862 H876 0.961 . S
C863 C860 1.539 . S
C863 H877 0.958 . S
C863 H878 0.961 . S
C863 H879 0.960 . S
H864 C848 0.931 . S
H865 C853 0.929 . S
H866 C854 0.960 . S
H867 C854 0.962 . S
H868 C854 0.960 . S
H869 C855 0.961 . S
H870 C855 0.961 . S
H871 C855 0.961 . S
H872 C856 0.931 . S
H873 C861 0.930 . S
H874 C862 0.956 . S
H875 C862 0.961 . S
H876 C862 0.961 . S
H877 C863 0.958 . S
H878 C863 0.961 . S
H879 C863 0.960 . S
C880 C881 1.391 . S
C880 C882 1.394 . S
C880 H896 0.931 . S
C881 C880 1.391 . S
C881 C885 1.376 . S
C882 C880 1.394 . S
C882 C883 1.369 . S
C882 C886 1.531 . S
C883 C882 1.369 . S
C883 C884 1.410 . S
C883 C891 1.503 . S
C884 C883 1.410 . S
C884 C885 1.392 . S
C884 C887 1.511 . S
C885 C881 1.376 . S
C885 C884 1.392 . S
C885 H897 0.929 . S
C886 C882 1.531 . S
C886 H898 0.960 . S
C886 H899 0.962 . S
C886 H900 0.960 . S
C887 C884 1.511 . S
C887 H901 0.961 . S
C887 H902 0.961 . S
C887 H903 0.961 . S
C888 C889 1.370 . S
C888 C890 1.363 . S
C888 H904 0.931 . S
C889 C888 1.370 . S
C889 C893 1.408 . S
C890 C888 1.363 . S
C890 C891 1.370 . S
C890 C894 1.524 . S
C891 C883 1.503 . S
C891 C890 1.370 . S
C891 C892 1.403 . S
C892 C891 1.403 . S
C892 C893 1.404 . S
C892 C895 1.539 . S
C893 C889 1.408 . S
C893 C892 1.404 . S
C893 H905 0.930 . S
C894 C890 1.524 . S
C894 H906 0.956 . S
C894 H907 0.961 . S
C894 H908 0.961 . S
C895 C892 1.539 . S
C895 H909 0.958 . S
C895 H910 0.961 . S
C895 H911 0.960 . S
H896 C880 0.931 . S
H897 C885 0.929 . S
H898 C886 0.960 . S
H899 C886 0.962 . S
H900 C886 0.960 . S
H901 C887 0.961 . S
H902 C887 0.961 . S
H903 C887 0.961 . S
H904 C888 0.931 . S
H905 C893 0.930 . S
H906 C894 0.956 . S
H907 C894 0.961 . S
H908 C894 0.961 . S
H909 C895 0.958 . S
H910 C895 0.961 . S
H911 C895 0.960 . S
C912 C913 1.391 . S
C912 C914 1.394 . S
C912 H928 0.931 . S
C913 C912 1.391 . S
C913 C917 1.376 . S
C914 C912 1.394 . S
C914 C915 1.369 . S
C914 C918 1.531 . S
C915 C914 1.369 . S
C915 C916 1.410 . S
C915 C923 1.503 . S
C916 C915 1.410 . S
C916 C917 1.392 . S
C916 C919 1.511 . S
C917 C913 1.376 . S
C917 C916 1.392 . S
C917 H929 0.929 . S
C918 C914 1.531 . S
C918 H930 0.960 . S
C918 H931 0.962 . S
C918 H932 0.960 . S
C919 C916 1.511 . S
C919 H933 0.961 . S
C919 H934 0.961 . S
C919 H935 0.961 . S
C920 C921 1.370 . S
C920 C922 1.363 . S
C920 H936 0.931 . S
C921 C920 1.370 . S
C921 C925 1.408 . S
C922 C920 1.363 . S
C922 C923 1.370 . S
C922 C926 1.524 . S
C923 C915 1.503 . S
C923 C922 1.370 . S
C923 C924 1.403 . S
C924 C923 1.403 . S
C924 C925 1.404 . S
C924 C927 1.539 . S
C925 C921 1.408 . S
C925 C924 1.404 . S
C925 H937 0.930 . S
C926 C922 1.524 . S
C926 H938 0.956 . S
C926 H939 0.961 . S
C926 H940 0.961 . S
C927 C924 1.539 . S
C927 H941 0.958 . S
C927 H942 0.961 . S
C927 H943 0.960 . S
H928 C912 0.931 . S
H929 C917 0.929 . S
H930 C918 0.960 . S
H931 C918 0.962 . S
H932 C918 0.960 . S
H933 C919 0.961 . S
H934 C919 0.961 . S
H935 C919 0.961 . S
H936 C920 0.931 . S
H937 C925 0.930 . S
H938 C926 0.956 . S
H939 C926 0.961 . S
H940 C926 0.961 . S
H941 C927 0.958 . S
H942 C927 0.961 . S
H943 C927 0.960 . S
C944 C945 1.391 . S
C944 C946 1.394 . S
C944 H960 0.931 . S
C945 C944 1.391 . S
C945 C949 1.376 . S
C946 C944 1.394 . S
C946 C947 1.369 . S
C946 C950 1.531 . S
C947 C946 1.369 . S
C947 C948 1.410 . S
C947 C955 1.503 . S
C948 C947 1.410 . S
C948 C949 1.392 . S
C948 C951 1.511 . S
C949 C945 1.376 . S
C949 C948 1.392 . S
C949 H961 0.929 . S
C950 C946 1.531 . S
C950 H962 0.960 . S
C950 H963 0.962 . S
C950 H964 0.960 . S
C951 C948 1.511 . S
C951 H965 0.961 . S
C951 H966 0.961 . S
C951 H967 0.961 . S
C952 C953 1.370 . S
C952 C954 1.363 . S
C952 H968 0.931 . S
C953 C952 1.370 . S
C953 C957 1.408 . S
C954 C952 1.363 . S
C954 C955 1.370 . S
C954 C958 1.524 . S
C955 C947 1.503 . S
C955 C954 1.370 . S
C955 C956 1.403 . S
C956 C955 1.403 . S
C956 C957 1.404 . S
C956 C959 1.539 . S
C957 C953 1.408 . S
C957 C956 1.404 . S
C957 H969 0.930 . S
C958 C954 1.524 . S
C958 H970 0.956 . S
C958 H971 0.961 . S
C958 H972 0.961 . S
C959 C956 1.539 . S
C959 H973 0.958 . S
C959 H974 0.961 . S
C959 H975 0.960 . S
H960 C944 0.931 . S
H961 C949 0.929 . S
H962 C950 0.960 . S
H963 C950 0.962 . S
H964 C950 0.960 . S
H965 C951 0.961 . S
H966 C951 0.961 . S
H967 C951 0.961 . S
H968 C952 0.931 . S
H969 C957 0.930 . S
H970 C958 0.956 . S
H971 C958 0.961 . S
H972 C958 0.961 . S
H973 C959 0.958 . S
H974 C959 0.961 . S
H975 C959 0.960 . S
C976 C977 1.391 . S
C976 C978 1.394 . S
C976 H992 0.931 . S
C977 C976 1.391 . S
C977 C981 1.376 . S
C978 C976 1.394 . S
C978 C979 1.369 . S
C978 C982 1.531 . S
C979 C978 1.369 . S
C979 C980 1.410 . S
C979 C987 1.503 . S
C980 C979 1.410 . S
C980 C981 1.392 . S
C980 C983 1.511 . S
C981 C977 1.376 . S
C981 C980 1.392 . S
C981 H993 0.929 . S
C982 C978 1.531 . S
C982 H994 0.960 . S
C982 H995 0.962 . S
C982 H996 0.960 . S
C983 C980 1.511 . S
C983 H997 0.961 . S
C983 H998 0.961 . S
C983 H999 0.961 . S
C984 C985 1.370 . S
C984 C986 1.363 . S
C984 H1000 0.931 . S
C985 C984 1.370 . S
C985 C989 1.408 . S
C986 C984 1.363 . S
C986 C987 1.370 . S
C986 C990 1.524 . S
C987 C979 1.503 . S
C987 C986 1.370 . S
C987 C988 1.403 . S
C988 C987 1.403 . S
C988 C989 1.404 . S
C988 C991 1.539 . S
C989 C985 1.408 . S
C989 C988 1.404 . S
C989 H1001 0.930 . S
C990 C986 1.524 . S
C990 H1002 0.956 . S
C990 H1003 0.961 . S
C990 H1004 0.961 . S
C991 C988 1.539 . S
C991 H1005 0.958 . S
C991 H1006 0.961 . S
C991 H1007 0.960 . S
H992 C976 0.931 . S
H993 C981 0.929 . S
H994 C982 0.960 . S
H995 C982 0.962 . S
H996 C982 0.960 . S
H997 C983 0.961 . S
H998 C983 0.961 . S
H999 C983 0.961 . S
H1000 C984 0.931 . S
H1001 C989 0.930 . S
H1002 C990 0.956 . S
H1003 C990 0.961 . S
H1004 C990 0.961 . S
H1005 C991 0.958 . S
H1006 C991 0.961 . S
H1007 C991 0.960 . S
C1008 C1009 1.391 . S
C1008 C1010 1.394 . S
C1008 H1024 0.931 . S
C1009 C1008 1.391 . S
C1009 C1013 1.376 . S
C1010 C1008 1.394 . S
C1010 C1011 1.369 . S
C1010 C1014 1.531 . S
C1011 C1010 1.369 . S
C1011 C1012 1.410 . S
C1011 C1019 1.503 . S
C1012 C1011 1.410 . S
C1012 C1013 1.392 . S
C1012 C1015 1.511 . S
C1013 C1009 1.376 . S
C1013 C1012 1.392 . S
C1013 H1025 0.929 . S
C1014 C1010 1.531 . S
C1014 H1026 0.960 . S
C1014 H1027 0.962 . S
C1014 H1028 0.960 . S
C1015 C1012 1.511 . S
C1015 H1029 0.961 . S
C1015 H1030 0.961 . S
C1015 H1031 0.961 . S
C1016 C1017 1.370 . S
C1016 C1018 1.363 . S
C1016 H1032 0.931 . S
C1017 C1016 1.370 . S
C1017 C1021 1.408 . S
C1018 C1016 1.363 . S
C1018 C1019 1.370 . S
C1018 C1022 1.524 . S
C1019 C1011 1.503 . S
C1019 C1018 1.370 . S
C1019 C1020 1.403 . S
C1020 C1019 1.403 . S
C1020 C1021 1.404 . S
C1020 C1023 1.539 . S
C1021 C1017 1.408 . S
C1021 C1020 1.404 . S
C1021 H1033 0.930 . S
C1022 C1018 1.524 . S
C1022 H1034 0.956 . S
C1022 H1035 0.961 . S
C1022 H1036 0.961 . S
C1023 C1020 1.539 . S
C1023 H1037 0.958 . S
C1023 H1038 0.961 . S
C1023 H1039 0.960 . S
H1024 C1008 0.931 . S
H1025 C1013 0.929 . S
H1026 C1014 0.960 . S
H1027 C1014 0.962 . S
H1028 C1014 0.960 . S
H1029 C1015 0.961 . S
H1030 C1015 0.961 . S
H1031 C1015 0.961 . S
H1032 C1016 0.931 . S
H1033 C1021 0.930 . S
H1034 C1022 0.956 . S
H1035 C1022 0.961 . S
H1036 C1022 0.961 . S
H1037 C1023 0.958 . S
H1038 C1023 0.961 . S
H1039 C1023 0.960 . S
C1040 C1041 1.391 . S
C1040 C1042 1.394 . S
C1040 H1056 0.931 . S
C1041 C1040 1.391 . S
C1041 C1045 1.376 . S
C1042 C1040 1.394 . S
C1042 C1043 1.369 . S
C1042 C1046 1.531 . S
C1043 C1042 1.369 . S
C1043 C1044 1.410 . S
C1043 C1051 1.503 . S
C1044 C1043 1.410 . S
C1044 C1045 1.392 . S
C1044 C1047 1.511 . S
C1045 C1041 1.376 . S
C1045 C1044 1.392 . S
C1045 H1057 0.929 . S
C1046 C1042 1.531 . S
C1046 H1058 0.960 . S
C1046 H1059 0.962 . S
C1046 H1060 0.960 . S
C1047 C1044 1.511 . S
C1047 H1061 0.961 . S
C1047 H1062 0.961 . S
C1047 H1063 0.961 . S
C1048 C1049 1.370 . S
C1048 C1050 1.363 . S
C1048 H1064 0.931 . S
C1049 C1048 1.370 . S
C1049 C1053 1.408 . S
C1050 C1048 1.363 . S
C1050 C1051 1.370 . S
C1050 C1054 1.524 . S
C1051 C1043 1.503 . S
C1051 C1050 1.370 . S
C1051 C1052 1.403 . S
C1052 C1051 1.403 . S
C1052 C1053 1.404 . S
C1052 C1055 1.539 . S
C1053 C1049 1.408 . S
C1053 C1052 1.404 . S
C1053 H1065 0.930 . S
C1054 C1050 1.524 . S
C1054 H1066 0.956 . S
C1054 H1067 0.961 . S
C1054 H1068 0.961 . S
C1055 C1052 1.539 . S
C1055 H1069 0.958 . S
C1055 H1070 0.961 . S
C1055 H1071 0.960 . S
H1056 C1040 0.931 . S
H1057 C1045 0.929 . S
H1058 C1046 0.960 . S
H1059 C1046 0.962 . S
H1060 C1046 0.960 . S
H1061 C1047 0.961 . S
H1062 C1047 0.961 . S
H1063 C1047 0.961 . S
H1064 C1048 0.931 . S
H1065 C1053 0.930 . S
H1066 C1054 0.956 . S
H1067 C1054 0.961 . S
H1068 C1054 0.961 . S
H1069 C1055 0.958 . S
H1070 C1055 0.961 . S
H1071 C1055 0.960 . S
C1072 C1073 1.391 . S
C1072 C1074 1.394 . S
C1072 H1088 0.931 . S
C1073 C1072 1.391 . S
C1073 C1077 1.376 . S
C1074 C1072 1.394 . S
C1074 C1075 1.369 . S
C1074 C1078 1.531 . S
C1075 C1074 1.369 . S
C1075 C1076 1.410 . S
C1075 C1083 1.503 . S
C1076 C1075 1.410 . S
C1076 C1077 1.392 . S
C1076 C1079 1.511 . S
C1077 C1073 1.376 . S
C1077 C1076 1.392 . S
C1077 H1089 0.929 . S
C1078 C1074 1.531 . S
C1078 H1090 0.960 . S
C1078 H1091 0.962 . S
C1078 H1092 0.960 . S
C1079 C1076 1.511 . S
C1079 H1093 0.961 . S
C1079 H1094 0.961 . S
C1079 H1095 0.961 . S
C1080 C1081 1.370 . S
C1080 C1082 1.363 . S
C1080 H1096 0.931 . S
C1081 C1080 1.370 . S
C1081 C1085 1.408 . S
C1082 C1080 1.363 . S
C1082 C1083 1.370 . S
C1082 C1086 1.524 . S
C1083 C1075 1.503 . S
C1083 C1082 1.370 . S
C1083 C1084 1.403 . S
C1084 C1083 1.403 . S
C1084 C1085 1.404 . S
C1084 C1087 1.539 . S
C1085 C1081 1.408 . S
C1085 C1084 1.404 . S
C1085 H1097 0.930 . S
C1086 C1082 1.524 . S
C1086 H1098 0.956 . S
C1086 H1099 0.961 . S
C1086 H1100 0.961 . S
C1087 C1084 1.539 . S
C1087 H1101 0.958 . S
C1087 H1102 0.961 . S
C1087 H1103 0.960 . S
H1088 C1072 0.931 . S
H1089 C1077 0.929 . S
H1090 C1078 0.960 . S
H1091 C1078 0.962 . S
H1092 C1078 0.960 . S
H1093 C1079 0.961 . S
H1094 C1079 0.961 . S
H1095 C1079 0.961 . S
H1096 C1080 0.931 . S
H1097 C1085 0.930 . S
H1098 C1086 0.956 . S
H1099 C1086 0.961 . S
H1100 C1086 0.961 . S
H1101 C1087 0.958 . S
H1102 C1087 0.961 . S
H1103 C1087 0.960 . S
C1104 C1105 1.391 . S
C1104 C1106 1.394 . S
C1104 H1120 0.931 . S
C1105 C1104 1.391 . S
C1105 C1109 1.376 . S
C1106 C1104 1.394 . S
C1106 C1107 1.369 . S
C1106 C1110 1.531 . S
C1107 C1106 1.369 . S
C1107 C1108 1.410 . S
C1107 C1115 1.503 1_455 S
C1108 C1107 1.410 . S
C1108 C1109 1.392 . S
C1108 C1111 1.511 . S
C1109 C1105 1.376 . S
C1109 C1108 1.392 . S
C1109 H1121 0.929 . S
C1110 C1106 1.531 . S
C1110 H1122 0.960 1_455 S
C1110 H1123 0.962 . S
C1110 H1124 0.960 . S
C1111 C1108 1.511 . S
C1111 H1125 0.961 . S
C1111 H1126 0.961 1_455 S
C1111 H1127 0.961 . S
C1112 C1113 1.370 . S
C1112 C1114 1.363 . S
C1112 H1128 0.931 . S
C1113 C1112 1.370 . S
C1113 C1117 1.408 . S
C1114 C1112 1.363 . S
C1114 C1115 1.370 . S
C1114 C1118 1.524 . S
C1115 C1107 1.503 1_655 S
C1115 C1114 1.370 . S
C1115 C1116 1.403 . S
C1116 C1115 1.403 . S
C1116 C1117 1.404 . S
C1116 C1119 1.539 . S
C1117 C1113 1.408 . S
C1117 C1116 1.404 . S
C1117 H1129 0.930 . S
C1118 C1114 1.524 . S
C1118 H1130 0.956 . S
C1118 H1131 0.961 1_655 S
C1118 H1132 0.961 . S
C1119 C1116 1.539 . S
C1119 H1133 0.958 . S
C1119 H1134 0.961 . S
C1119 H1135 0.958 1_655 S
H1120 C1104 0.931 . S
H1121 C1109 0.929 . S
H1122 C1110 0.960 1_655 S
H1123 C1110 0.962 . S
H1124 C1110 0.960 . S
H1125 C1111 0.961 . S
H1126 C1111 0.961 1_655 S
H1127 C1111 0.961 . S
H1128 C1112 0.931 . S
H1129 C1117 0.930 . S
H1130 C1118 0.956 . S
H1131 C1118 0.961 1_455 S
H1132 C1118 0.961 . S
H1133 C1119 0.958 . S
H1134 C1119 0.961 . S
H1135 C1119 0.958 1_455 S
C1136 C1137 1.391 . S
C1136 C1138 1.394 . S
C1136 H1152 0.931 . S
C1137 C1136 1.391 . S
C1137 C1141 1.376 . S
C1138 C1136 1.394 . S
C1138 C1139 1.369 . S
C1138 C1142 1.531 . S
C1139 C1138 1.369 . S
C1139 C1140 1.410 . S
C1139 C1147 1.503 1_545 S
C1140 C1139 1.410 . S
C1140 C1141 1.392 . S
C1140 C1143 1.511 . S
C1141 C1137 1.376 . S
C1141 C1140 1.392 . S
C1141 H1153 0.929 . S
C1142 C1138 1.531 . S
C1142 H1154 0.960 1_545 S
C1142 H1155 0.962 . S
C1142 H1156 0.960 . S
C1143 C1140 1.511 . S
C1143 H1157 0.961 . S
C1143 H1158 0.961 1_545 S
C1143 H1159 0.961 . S
C1144 C1145 1.370 . S
C1144 C1146 1.363 . S
C1144 H1160 0.931 . S
C1145 C1144 1.370 . S
C1145 C1149 1.408 . S
C1146 C1144 1.363 . S
C1146 C1147 1.370 . S
C1146 C1150 1.524 . S
C1147 C1139 1.503 1_565 S
C1147 C1146 1.370 . S
C1147 C1148 1.403 . S
C1148 C1147 1.403 . S
C1148 C1149 1.404 . S
C1148 C1151 1.539 . S
C1149 C1145 1.408 . S
C1149 C1148 1.404 . S
C1149 H1161 0.930 . S
C1150 C1146 1.524 . S
C1150 H1162 0.957 1_565 S
C1150 H1163 0.961 1_565 S
C1150 H1164 0.961 . S
C1151 C1148 1.539 . S
C1151 H1165 0.958 . S
C1151 H1166 0.961 . S
C1151 H1167 0.960 . S
H1152 C1136 0.931 . S
H1153 C1141 0.929 . S
H1154 C1142 0.960 1_565 S
H1155 C1142 0.962 . S
H1156 C1142 0.960 . S
H1157 C1143 0.961 . S
H1158 C1143 0.961 1_565 S
H1159 C1143 0.961 . S
H1160 C1144 0.931 . S
H1161 C1149 0.930 . S
H1162 C1150 0.957 1_545 S
H1163 C1150 0.961 1_545 S
H1164 C1150 0.961 . S
H1165 C1151 0.958 . S
H1166 C1151 0.961 . S
H1167 C1151 0.960 . S
C1168 C1169 1.391 . S
C1168 C1170 1.394 . S
C1168 H1184 0.931 . S
C1169 C1168 1.391 . S
C1169 C1173 1.376 . S
C1170 C1168 1.394 . S
C1170 C1171 1.369 . S
C1170 C1174 1.531 . S
C1171 C1170 1.369 . S
C1171 C1172 1.410 . S
C1171 C1179 1.503 1_655 S
C1172 C1171 1.410 . S
C1172 C1173 1.392 . S
C1172 C1175 1.511 . S
C1173 C1169 1.376 . S
C1173 C1172 1.392 . S
C1173 H1185 0.929 . S
C1174 C1170 1.531 . S
C1174 H1186 0.960 1_655 S
C1174 H1187 0.962 . S
C1174 H1188 0.960 . S
C1175 C1172 1.511 . S
C1175 H1189 0.961 . S
C1175 H1190 0.961 1_655 S
C1175 H1191 0.961 . S
C1176 C1177 1.370 . S
C1176 C1178 1.363 . S
C1176 H1192 0.931 . S
C1177 C1176 1.370 . S
C1177 C1181 1.408 . S
C1178 C1176 1.363 . S
C1178 C1179 1.370 . S
C1178 C1182 1.524 . S
C1179 C1171 1.503 1_455 S
C1179 C1178 1.370 . S
C1179 C1180 1.403 . S
C1180 C1179 1.403 . S
C1180 C1181 1.404 . S
C1180 C1183 1.539 . S
C1181 C1177 1.408 . S
C1181 C1180 1.404 . S
C1181 H1193 0.930 . S
C1182 C1178 1.524 . S
C1182 H1194 0.971 . S
C1182 H1195 0.961 1_455 S
C1182 H1196 0.961 . S
C1183 C1180 1.539 . S
C1183 H1197 0.958 . S
C1183 H1198 0.961 . S
C1183 H1199 0.987 . S
H1184 C1168 0.931 . S
H1185 C1173 0.929 . S
H1186 C1174 0.960 1_455 S
H1187 C1174 0.962 . S
H1188 C1174 0.960 . S
H1189 C1175 0.961 . S
H1190 C1175 0.961 1_455 S
H1191 C1175 0.961 . S
H1192 C1176 0.931 . S
H1193 C1181 0.930 . S
H1194 C1182 0.971 . S
H1195 C1182 0.961 1_655 S
H1196 C1182 0.961 . S
H1197 C1183 0.958 . S
H1198 C1183 0.961 . S
H1199 C1183 0.987 . S
C1200 C1201 1.391 . S
C1200 C1202 1.394 . S
C1200 H1216 0.931 . S
C1201 C1200 1.391 . S
C1201 C1205 1.376 . S
C1202 C1200 1.394 . S
C1202 C1203 1.369 . S
C1202 C1206 1.531 . S
C1203 C1202 1.369 . S
C1203 C1204 1.410 . S
C1203 C1211 1.503 1_545 S
C1204 C1203 1.410 . S
C1204 C1205 1.392 . S
C1204 C1207 1.511 . S
C1205 C1201 1.376 . S
C1205 C1204 1.392 . S
C1205 H1217 0.929 . S
C1206 C1202 1.531 . S
C1206 H1218 0.960 1_545 S
C1206 H1219 0.962 . S
C1206 H1220 0.960 . S
C1207 C1204 1.511 . S
C1207 H1221 0.961 . S
C1207 H1222 0.961 1_545 S
C1207 H1223 0.961 . S
C1208 C1209 1.370 . S
C1208 C1210 1.363 . S
C1208 H1224 0.931 . S
C1209 C1208 1.370 . S
C1209 C1213 1.408 . S
C1210 C1208 1.363 . S
C1210 C1211 1.370 . S
C1210 C1214 1.524 . S
C1211 C1203 1.503 1_565 S
C1211 C1210 1.370 . S
C1211 C1212 1.403 . S
C1212 C1211 1.403 . S
C1212 C1213 1.404 . S
C1212 C1215 1.539 . S
C1213 C1209 1.408 . S
C1213 C1212 1.404 . S
C1213 H1225 0.930 . S
C1214 C1210 1.524 . S
C1214 H1226 0.956 . S
C1214 H1227 0.961 1_565 S
C1214 H1228 0.961 . S
C1215 C1212 1.539 . S
C1215 H1229 0.958 . S
C1215 H1230 0.961 . S
C1215 H1231 0.978 . S
H1216 C1200 0.931 . S
H1217 C1205 0.929 . S
H1218 C1206 0.960 1_565 S
H1219 C1206 0.962 . S
H1220 C1206 0.960 . S
H1221 C1207 0.961 . S
H1222 C1207 0.961 1_565 S
H1223 C1207 0.961 . S
H1224 C1208 0.931 . S
H1225 C1213 0.930 . S
H1226 C1214 0.956 . S
H1227 C1214 0.961 1_545 S
H1228 C1214 0.961 . S
H1229 C1215 0.958 . S
H1230 C1215 0.961 . S
H1231 C1215 0.978 . S
C1232 C1233 1.391 . S
C1232 C1234 1.394 . S
C1232 H1248 0.931 . S
C1233 C1232 1.391 . S
C1233 C1237 1.376 . S
C1234 C1232 1.394 . S
C1234 C1235 1.369 . S
C1234 C1238 1.531 . S
C1235 C1234 1.369 . S
C1235 C1236 1.410 . S
C1235 C1243 1.503 1_565 S
C1236 C1235 1.410 . S
C1236 C1237 1.392 . S
C1236 C1239 1.511 . S
C1237 C1233 1.376 . S
C1237 C1236 1.392 . S
C1237 H1249 0.929 . S
C1238 C1234 1.531 . S
C1238 H1250 0.960 1_565 S
C1238 H1251 0.962 . S
C1238 H1252 0.960 . S
C1239 C1236 1.511 . S
C1239 H1253 0.961 . S
C1239 H1254 0.961 1_565 S
C1239 H1255 0.961 . S
C1240 C1241 1.370 . S
C1240 C1242 1.363 . S
C1240 H1256 0.931 . S
C1241 C1240 1.370 . S
C1241 C1245 1.408 . S
C1242 C1240 1.363 . S
C1242 C1243 1.370 . S
C1242 C1246 1.524 . S
C1243 C1235 1.503 1_545 S
C1243 C1242 1.370 . S
C1243 C1244 1.403 . S
C1244 C1243 1.403 . S
C1244 C1245 1.404 . S
C1244 C1247 1.539 . S
C1245 C1241 1.408 . S
C1245 C1244 1.404 . S
C1245 H1257 0.930 . S
C1246 C1242 1.524 . S
C1246 H1258 0.956 . S
C1246 H1259 0.961 1_545 S
C1246 H1260 0.961 . S
C1247 C1244 1.539 . S
C1247 H1261 0.958 . S
C1247 H1262 0.961 . S
C1247 H1263 0.946 1_545 S
H1248 C1232 0.931 . S
H1249 C1237 0.929 . S
H1250 C1238 0.960 1_545 S
H1251 C1238 0.962 . S
H1252 C1238 0.960 . S
H1253 C1239 0.961 . S
H1254 C1239 0.961 1_545 S
H1255 C1239 0.961 . S
H1256 C1240 0.931 . S
H1257 C1245 0.930 . S
H1258 C1246 0.956 . S
H1259 C1246 0.961 1_565 S
H1260 C1246 0.961 . S
H1261 C1247 0.958 . S
H1262 C1247 0.961 . S
H1263 C1247 0.946 1_565 S
C1264 C1265 1.391 . S
C1264 C1266 1.394 . S
C1264 H1280 0.931 . S
C1265 C1264 1.391 . S
C1265 C1269 1.376 . S
C1266 C1264 1.394 . S
C1266 C1267 1.369 . S
C1266 C1270 1.531 . S
C1267 C1266 1.369 . S
C1267 C1268 1.410 . S
C1267 C1275 1.503 1_655 S
C1268 C1267 1.410 . S
C1268 C1269 1.392 . S
C1268 C1271 1.511 . S
C1269 C1265 1.376 . S
C1269 C1268 1.392 . S
C1269 H1281 0.929 . S
C1270 C1266 1.531 . S
C1270 H1282 0.960 1_655 S
C1270 H1283 0.962 . S
C1270 H1284 0.960 . S
C1271 C1268 1.511 . S
C1271 H1285 0.961 . S
C1271 H1286 0.961 1_655 S
C1271 H1287 0.961 . S
C1272 C1273 1.370 . S
C1272 C1274 1.363 . S
C1272 H1288 0.931 . S
C1273 C1272 1.370 . S
C1273 C1277 1.408 . S
C1274 C1272 1.363 . S
C1274 C1275 1.370 . S
C1274 C1278 1.524 . S
C1275 C1267 1.503 1_455 S
C1275 C1274 1.370 . S
C1275 C1276 1.403 . S
C1276 C1275 1.403 . S
C1276 C1277 1.404 . S
C1276 C1279 1.539 . S
C1277 C1273 1.408 . S
C1277 C1276 1.404 . S
C1277 H1289 0.930 . S
C1278 C1274 1.524 . S
C1278 H1290 0.956 . S
C1278 H1291 0.941 1_455 S
C1278 H1292 0.961 . S
C1279 C1276 1.539 . S
C1279 H1293 0.958 . S
C1279 H1294 0.961 . S
C1279 H1295 0.921 1_455 S
H1280 C1264 0.931 . S
H1281 C1269 0.929 . S
H1282 C1270 0.960 1_455 S
H1283 C1270 0.962 . S
H1284 C1270 0.960 . S
H1285 C1271 0.961 . S
H1286 C1271 0.961 1_455 S
H1287 C1271 0.961 . S
H1288 C1272 0.931 . S
H1289 C1277 0.930 . S
H1290 C1278 0.956 . S
H1291 C1278 0.941 1_655 S
H1292 C1278 0.961 . S
H1293 C1279 0.958 . S
H1294 C1279 0.961 . S
H1295 C1279 0.921 1_655 S
C1296 C1297 1.391 . S
C1296 C1298 1.394 . S
C1296 H1312 0.931 . S
C1297 C1296 1.391 . S
C1297 C1301 1.376 . S
C1298 C1296 1.394 . S
C1298 C1299 1.369 . S
C1298 C1302 1.531 . S
C1299 C1298 1.369 . S
C1299 C1300 1.410 . S
C1299 C1307 1.503 1_565 S
C1300 C1299 1.410 . S
C1300 C1301 1.392 . S
C1300 C1303 1.511 . S
C1301 C1297 1.376 . S
C1301 C1300 1.392 . S
C1301 H1313 0.929 . S
C1302 C1298 1.531 . S
C1302 H1314 0.960 1_565 S
C1302 H1315 0.962 . S
C1302 H1316 0.960 . S
C1303 C1300 1.511 . S
C1303 H1317 0.961 . S
C1303 H1318 0.961 1_565 S
C1303 H1319 0.961 . S
C1304 C1305 1.370 . S
C1304 C1306 1.363 . S
C1304 H1320 0.931 . S
C1305 C1304 1.370 . S
C1305 C1309 1.408 . S
C1306 C1304 1.363 . S
C1306 C1307 1.370 . S
C1306 C1310 1.524 . S
C1307 C1299 1.503 1_545 S
C1307 C1306 1.370 . S
C1307 C1308 1.403 . S
C1308 C1307 1.403 . S
C1308 C1309 1.404 . S
C1308 C1311 1.539 . S
C1309 C1305 1.408 . S
C1309 C1308 1.404 . S
C1309 H1321 0.930 . S
C1310 C1306 1.524 . S
C1310 H1322 0.956 . S
C1310 H1323 0.953 1_545 S
C1310 H1324 0.961 . S
C1311 C1308 1.539 . S
C1311 H1325 0.958 . S
C1311 H1326 0.961 . S
C1311 H1327 0.919 1_545 S
H1312 C1296 0.931 . S
H1313 C1301 0.929 . S
H1314 C1302 0.960 1_545 S
H1315 C1302 0.962 . S
H1316 C1302 0.960 . S
H1317 C1303 0.961 . S
H1318 C1303 0.961 1_545 S
H1319 C1303 0.961 . S
H1320 C1304 0.931 . S
H1321 C1309 0.930 . S
H1322 C1310 0.956 . S
H1323 C1310 0.953 1_565 S
H1324 C1310 0.961 . S
H1325 C1311 0.958 . S
H1326 C1311 0.961 . S
H1327 C1311 0.919 1_565 S
C1328 C1329 1.391 . S
C1328 C1330 1.394 . S
C1328 H1344 0.931 . S
C1329 C1328 1.391 . S
C1329 C1333 1.376 . S
C1330 C1328 1.394 . S
C1330 C1331 1.369 . S
C1330 C1334 1.531 . S
C1331 C1330 1.369 . S
C1331 C1332 1.410 . S
C1331 C1339 1.503 1_655 S
C1332 C1331 1.410 . S
C1332 C1333 1.392 . S
C1332 C1335 1.511 . S
C1333 C1329 1.376 . S
C1333 C1332 1.392 . S
C1333 H1345 0.929 . S
C1334 C1330 1.531 . S
C1334 H1346 0.960 1_655 S
C1334 H1347 0.962 . S
C1334 H1348 0.960 . S
C1335 C1332 1.511 . S
C1335 H1349 0.961 . S
C1335 H1350 0.961 1_655 S
C1335 H1351 0.961 . S
C1336 C1337 1.370 . S
C1336 C1338 1.363 . S
C1336 H1352 0.931 . S
C1337 C1336 1.370 . S
C1337 C1341 1.408 . S
C1338 C1336 1.363 . S
C1338 C1339 1.370 . S
C1338 C1342 1.524 . S
C1339 C1331 1.503 1_455 S
C1339 C1338 1.370 . S
C1339 C1340 1.403 . S
C1340 C1339 1.403 . S
C1340 C1341 1.404 . S
C1340 C1343 1.539 . S
C1341 C1337 1.408 . S
C1341 C1340 1.404 . S
C1341 H1353 0.930 . S
C1342 C1338 1.524 . S
C1342 H1354 0.956 . S
C1342 H1355 0.961 1_455 S
C1342 H1356 0.961 . S
C1343 C1340 1.539 . S
C1343 H1357 0.958 . S
C1343 H1358 0.961 . S
C1343 H1359 0.951 1_455 S
H1344 C1328 0.931 . S
H1345 C1333 0.929 . S
H1346 C1334 0.960 1_455 S
H1347 C1334 0.962 . S
H1348 C1334 0.960 . S
H1349 C1335 0.961 . S
H1350 C1335 0.961 1_455 S
H1351 C1335 0.961 . S
H1352 C1336 0.931 . S
H1353 C1341 0.930 . S
H1354 C1342 0.956 . S
H1355 C1342 0.961 1_655 S
H1356 C1342 0.961 . S
H1357 C1343 0.958 . S
H1358 C1343 0.961 . S
H1359 C1343 0.951 1_655 S
C1360 C1361 1.391 . S
C1360 C1362 1.394 . S
C1360 H1376 0.931 . S
C1361 C1360 1.391 . S
C1361 C1365 1.376 . S
C1362 C1360 1.394 . S
C1362 C1363 1.369 . S
C1362 C1366 1.531 . S
C1363 C1362 1.369 . S
C1363 C1364 1.410 . S
C1363 C1371 1.503 1_556 S
C1364 C1363 1.410 . S
C1364 C1365 1.392 . S
C1364 C1367 1.511 . S
C1365 C1361 1.376 . S
C1365 C1364 1.392 . S
C1365 H1377 0.929 . S
C1366 C1362 1.531 . S
C1366 H1378 0.960 1_556 S
C1366 H1379 0.962 . S
C1366 H1380 0.960 . S
C1367 C1364 1.511 . S
C1367 H1381 0.961 . S
C1367 H1382 0.961 1_556 S
C1367 H1383 0.961 . S
C1368 C1369 1.370 . S
C1368 C1370 1.363 . S
C1368 H1384 0.931 . S
C1369 C1368 1.370 . S
C1369 C1373 1.408 . S
C1370 C1368 1.363 . S
C1370 C1371 1.370 . S
C1370 C1374 1.524 . S
C1371 C1363 1.503 1_554 S
C1371 C1370 1.370 . S
C1371 C1372 1.403 . S
C1372 C1371 1.403 . S
C1372 C1373 1.404 . S
C1372 C1375 1.539 . S
C1373 C1369 1.408 . S
C1373 C1372 1.404 . S
C1373 H1385 0.930 . S
C1374 C1370 1.524 . S
C1374 H1386 0.966 . S
C1374 H1387 0.961 1_554 S
C1374 H1388 0.961 . S
C1375 C1372 1.539 . S
C1375 H1389 0.958 . S
C1375 H1390 0.961 . S
C1375 H1391 0.960 . S
H1376 C1360 0.931 . S
H1377 C1365 0.929 . S
H1378 C1366 0.960 1_554 S
H1379 C1366 0.962 . S
H1380 C1366 0.960 . S
H1381 C1367 0.961 . S
H1382 C1367 0.961 1_554 S
H1383 C1367 0.961 . S
H1384 C1368 0.931 . S
H1385 C1373 0.930 . S
H1386 C1374 0.966 . S
H1387 C1374 0.961 1_556 S
H1388 C1374 0.961 . S
H1389 C1375 0.958 . S
H1390 C1375 0.961 . S
H1391 C1375 0.960 . S
C1392 C1393 1.391 . S
C1392 C1394 1.394 . S
C1392 H1408 0.931 . S
C1393 C1392 1.391 . S
C1393 C1397 1.376 . S
C1394 C1392 1.394 . S
C1394 C1395 1.369 . S
C1394 C1398 1.531 . S
C1395 C1394 1.369 . S
C1395 C1396 1.410 . S
C1395 C1403 1.503 1_556 S
C1396 C1395 1.410 . S
C1396 C1397 1.392 . S
C1396 C1399 1.511 . S
C1397 C1393 1.376 . S
C1397 C1396 1.392 . S
C1397 H1409 0.929 . S
C1398 C1394 1.531 . S
C1398 H1410 0.960 1_556 S
C1398 H1411 0.962 . S
C1398 H1412 0.960 . S
C1399 C1396 1.511 . S
C1399 H1413 0.961 . S
C1399 H1414 0.961 1_556 S
C1399 H1415 0.961 . S
C1400 C1401 1.370 . S
C1400 C1402 1.363 . S
C1400 H1416 0.931 . S
C1401 C1400 1.370 . S
C1401 C1405 1.408 . S
C1402 C1400 1.363 . S
C1402 C1403 1.370 . S
C1402 C1406 1.524 . S
C1403 C1395 1.503 1_554 S
C1403 C1402 1.370 . S
C1403 C1404 1.403 . S
C1404 C1403 1.403 . S
C1404 C1405 1.404 . S
C1404 C1407 1.539 . S
C1405 C1401 1.408 . S
C1405 C1404 1.404 . S
C1405 H1417 0.930 . S
C1406 C1402 1.524 . S
C1406 H1418 0.962 . S
C1406 H1419 0.961 1_554 S
C1406 H1420 0.961 . S
C1407 C1404 1.539 . S
C1407 H1421 0.958 . S
C1407 H1422 0.961 . S
C1407 H1423 1.003 . S
H1408 C1392 0.931 . S
H1409 C1397 0.929 . S
H1410 C1398 0.960 1_554 S
H1411 C1398 0.962 . S
H1412 C1398 0.960 . S
H1413 C1399 0.961 . S
H1414 C1399 0.961 1_554 S
H1415 C1399 0.961 . S
H1416 C1400 0.931 . S
H1417 C1405 0.930 . S
H1418 C1406 0.962 . S
H1419 C1406 0.961 1_556 S
H1420 C1406 0.961 . S
H1421 C1407 0.958 . S
H1422 C1407 0.961 . S
H1423 C1407 1.003 . S
C1424 C1425 1.391 . S
C1424 C1426 1.394 . S
C1424 H1440 0.931 . S
C1425 C1424 1.391 . S
C1425 C1429 1.376 . S
C1426 C1424 1.394 . S
C1426 C1427 1.369 . S
C1426 C1430 1.531 . S
C1427 C1426 1.369 . S
C1427 C1428 1.410 . S
C1427 C1435 1.503 1_556 S
C1428 C1427 1.410 . S
C1428 C1429 1.392 . S
C1428 C1431 1.511 . S
C1429 C1425 1.376 . S
C1429 C1428 1.392 . S
C1429 H1441 0.929 . S
C1430 C1426 1.531 . S
C1430 H1442 0.960 1_556 S
C1430 H1443 0.962 . S
C1430 H1444 0.960 . S
C1431 C1428 1.511 . S
C1431 H1445 0.961 . S
C1431 H1446 0.961 1_556 S
C1431 H1447 0.961 . S
C1432 C1433 1.370 . S
C1432 C1434 1.363 . S
C1432 H1448 0.931 . S
C1433 C1432 1.370 . S
C1433 C1437 1.408 . S
C1434 C1432 1.363 . S
C1434 C1435 1.370 . S
C1434 C1438 1.524 . S
C1435 C1427 1.503 1_554 S
C1435 C1434 1.370 . S
C1435 C1436 1.403 . S
C1436 C1435 1.403 . S
C1436 C1437 1.404 . S
C1436 C1439 1.539 . S
C1437 C1433 1.408 . S
C1437 C1436 1.404 . S
C1437 H1449 0.930 . S
C1438 C1434 1.524 . S
C1438 H1450 0.957 . S
C1438 H1451 0.961 1_554 S
C1438 H1452 0.961 . S
C1439 C1436 1.539 . S
C1439 H1453 0.958 . S
C1439 H1454 0.961 . S
C1439 H1455 0.960 . S
H1440 C1424 0.931 . S
H1441 C1429 0.929 . S
H1442 C1430 0.960 1_554 S
H1443 C1430 0.962 . S
H1444 C1430 0.960 . S
H1445 C1431 0.961 . S
H1446 C1431 0.961 1_554 S
H1447 C1431 0.961 . S
H1448 C1432 0.931 . S
H1449 C1437 0.930 . S
H1450 C1438 0.957 . S
H1451 C1438 0.961 1_556 S
H1452 C1438 0.961 . S
H1453 C1439 0.958 . S
H1454 C1439 0.961 . S
H1455 C1439 0.960 . S
C1456 C1457 1.391 . S
C1456 C1458 1.394 . S
C1456 H1472 0.931 . S
C1457 C1456 1.391 . S
C1457 C1461 1.376 . S
C1458 C1456 1.394 . S
C1458 C1459 1.369 . S
C1458 C1462 1.531 . S
C1459 C1458 1.369 . S
C1459 C1460 1.410 . S
C1459 C1467 1.503 1_556 S
C1460 C1459 1.410 . S
C1460 C1461 1.392 . S
C1460 C1463 1.511 . S
C1461 C1457 1.376 . S
C1461 C1460 1.392 . S
C1461 H1473 0.929 . S
C1462 C1458 1.531 . S
C1462 H1474 0.960 1_556 S
C1462 H1475 0.962 . S
C1462 H1476 0.960 . S
C1463 C1460 1.511 . S
C1463 H1477 0.961 . S
C1463 H1478 0.961 1_556 S
C1463 H1479 0.961 . S
C1464 C1465 1.370 . S
C1464 C1466 1.363 . S
C1464 H1480 0.931 . S
C1465 C1464 1.370 . S
C1465 C1469 1.408 . S
C1466 C1464 1.363 . S
C1466 C1467 1.370 . S
C1466 C1470 1.524 . S
C1467 C1459 1.503 1_554 S
C1467 C1466 1.370 . S
C1467 C1468 1.403 . S
C1468 C1467 1.403 . S
C1468 C1469 1.404 . S
C1468 C1471 1.539 . S
C1469 C1465 1.408 . S
C1469 C1468 1.404 . S
C1469 H1481 0.930 . S
C1470 C1466 1.524 . S
C1470 H1482 0.956 . S
C1470 H1483 0.961 1_554 S
C1470 H1484 0.961 . S
C1471 C1468 1.539 . S
C1471 H1485 0.958 . S
C1471 H1486 0.961 . S
C1471 H1487 0.979 . S
H1472 C1456 0.931 . S
H1473 C1461 0.929 . S
H1474 C1462 0.960 1_554 S
H1475 C1462 0.962 . S
H1476 C1462 0.960 . S
H1477 C1463 0.961 . S
H1478 C1463 0.961 1_554 S
H1479 C1463 0.961 . S
H1480 C1464 0.931 . S
H1481 C1469 0.930 . S
H1482 C1470 0.956 . S
H1483 C1470 0.961 1_556 S
H1484 C1470 0.961 . S
H1485 C1471 0.958 . S
H1486 C1471 0.961 . S
H1487 C1471 0.979 . S
C1488 C1489 1.391 . S
C1488 C1490 1.394 . S
C1488 H1504 0.931 . S
C1489 C1488 1.391 . S
C1489 C1493 1.376 . S
C1490 C1488 1.394 . S
C1490 C1491 1.369 . S
C1490 C1494 1.531 . S
C1491 C1490 1.369 . S
C1491 C1492 1.410 . S
C1491 C1499 1.503 . S
C1492 C1491 1.410 . S
C1492 C1493 1.392 . S
C1492 C1495 1.511 . S
C1493 C1489 1.376 . S
C1493 C1492 1.392 . S
C1493 H1505 0.929 . S
C1494 C1490 1.531 . S
C1494 H1506 0.960 . S
C1494 H1507 0.962 . S
C1494 H1508 0.960 . S
C1495 C1492 1.511 . S
C1495 H1509 0.961 . S
C1495 H1510 0.961 . S
C1495 H1511 0.961 . S
C1496 C1497 1.370 . S
C1496 C1498 1.363 . S
C1496 H1512 0.931 . S
C1497 C1496 1.370 . S
C1497 C1501 1.408 . S
C1498 C1496 1.363 . S
C1498 C1499 1.370 . S
C1498 C1502 1.524 . S
C1499 C1491 1.503 . S
C1499 C1498 1.370 . S
C1499 C1500 1.403 . S
C1500 C1499 1.403 . S
C1500 C1501 1.404 . S
C1500 C1503 1.539 . S
C1501 C1497 1.408 . S
C1501 C1500 1.404 . S
C1501 H1513 0.930 . S
C1502 C1498 1.524 . S
C1502 H1514 0.956 . S
C1502 H1515 0.961 . S
C1502 H1516 0.961 . S
C1503 C1500 1.539 . S
C1503 H1517 0.958 . S
C1503 H1518 0.961 . S
C1503 H1519 0.960 . S
H1504 C1488 0.931 . S
H1505 C1493 0.929 . S
H1506 C1494 0.960 . S
H1507 C1494 0.962 . S
H1508 C1494 0.960 . S
H1509 C1495 0.961 . S
H1510 C1495 0.961 . S
H1511 C1495 0.961 . S
H1512 C1496 0.931 . S
H1513 C1501 0.930 . S
H1514 C1502 0.956 . S
H1515 C1502 0.961 . S
H1516 C1502 0.961 . S
H1517 C1503 0.958 . S
H1518 C1503 0.961 . S
H1519 C1503 0.960 . S
C1520 C1521 1.391 . S
C1520 C1522 1.394 . S
C1520 H1536 0.931 . S
C1521 C1520 1.391 . S
C1521 C1525 1.376 . S
C1522 C1520 1.394 . S
C1522 C1523 1.369 . S
C1522 C1526 1.531 . S
C1523 C1522 1.369 . S
C1523 C1524 1.410 . S
C1523 C1531 1.503 . S
C1524 C1523 1.410 . S
C1524 C1525 1.392 . S
C1524 C1527 1.511 . S
C1525 C1521 1.376 . S
C1525 C1524 1.392 . S
C1525 H1537 0.929 . S
C1526 C1522 1.531 . S
C1526 H1538 0.960 . S
C1526 H1539 0.962 . S
C1526 H1540 0.960 . S
C1527 C1524 1.511 . S
C1527 H1541 0.961 . S
C1527 H1542 0.961 . S
C1527 H1543 0.961 . S
C1528 C1529 1.370 . S
C1528 C1530 1.363 . S
C1528 H1544 0.931 . S
C1529 C1528 1.370 . S
C1529 C1533 1.408 . S
C1530 C1528 1.363 . S
C1530 C1531 1.370 . S
C1530 C1534 1.524 . S
C1531 C1523 1.503 . S
C1531 C1530 1.370 . S
C1531 C1532 1.403 . S
C1532 C1531 1.403 . S
C1532 C1533 1.404 . S
C1532 C1535 1.539 . S
C1533 C1529 1.408 . S
C1533 C1532 1.404 . S
C1533 H1545 0.930 . S
C1534 C1530 1.524 . S
C1534 H1546 0.956 . S
C1534 H1547 0.961 . S
C1534 H1548 0.961 . S
C1535 C1532 1.539 . S
C1535 H1549 0.958 . S
C1535 H1550 0.961 . S
C1535 H1551 0.960 . S
H1536 C1520 0.931 . S
H1537 C1525 0.929 . S
H1538 C1526 0.960 . S
H1539 C1526 0.962 . S
H1540 C1526 0.960 . S
H1541 C1527 0.961 . S
H1542 C1527 0.961 . S
H1543 C1527 0.961 . S
H1544 C1528 0.931 . S
H1545 C1533 0.930 . S
H1546 C1534 0.956 . S
H1547 C1534 0.961 . S
H1548 C1534 0.961 . S
H1549 C1535 0.958 . S
H1550 C1535 0.961 . S
H1551 C1535 0.960 . S
C1552 C1553 1.391 . S
C1552 C1554 1.394 . S
C1552 H1568 0.931 . S
C1553 C1552 1.391 . S
C1553 C1557 1.376 . S
C1554 C1552 1.394 . S
C1554 C1555 1.369 . S
C1554 C1558 1.531 . S
C1555 C1554 1.369 . S
C1555 C1556 1.410 . S
C1555 C1563 1.503 . S
C1556 C1555 1.410 . S
C1556 C1557 1.392 . S
C1556 C1559 1.511 . S
C1557 C1553 1.376 . S
C1557 C1556 1.392 . S
C1557 H1569 0.929 . S
C1558 C1554 1.531 . S
C1558 H1570 0.960 . S
C1558 H1571 0.962 . S
C1558 H1572 0.960 . S
C1559 C1556 1.511 . S
C1559 H1573 0.961 . S
C1559 H1574 0.961 . S
C1559 H1575 0.961 . S
C1560 C1561 1.370 . S
C1560 C1562 1.363 . S
C1560 H1576 0.931 . S
C1561 C1560 1.370 . S
C1561 C1565 1.408 . S
C1562 C1560 1.363 . S
C1562 C1563 1.370 . S
C1562 C1566 1.524 . S
C1563 C1555 1.503 . S
C1563 C1562 1.370 . S
C1563 C1564 1.403 . S
C1564 C1563 1.403 . S
C1564 C1565 1.404 . S
C1564 C1567 1.539 . S
C1565 C1561 1.408 . S
C1565 C1564 1.404 . S
C1565 H1577 0.930 . S
C1566 C1562 1.524 . S
C1566 H1578 0.956 . S
C1566 H1579 0.961 . S
C1566 H1580 0.961 . S
C1567 C1564 1.539 . S
C1567 H1581 0.958 . S
C1567 H1582 0.961 . S
C1567 H1583 0.960 . S
H1568 C1552 0.931 . S
H1569 C1557 0.929 . S
H1570 C1558 0.960 . S
H1571 C1558 0.962 . S
H1572 C1558 0.960 . S
H1573 C1559 0.961 . S
H1574 C1559 0.961 . S
H1575 C1559 0.961 . S
H1576 C1560 0.931 . S
H1577 C1565 0.930 . S
H1578 C1566 0.956 . S
H1579 C1566 0.961 . S
H1580 C1566 0.961 . S
H1581 C1567 0.958 . S
H1582 C1567 0.961 . S
H1583 C1567 0.960 . S
C1584 C1585 1.391 . S
C1584 C1586 1.394 . S
C1584 H1600 0.931 . S
C1585 C1584 1.391 . S
C1585 C1589 1.376 . S
C1586 C1584 1.394 . S
C1586 C1587 1.369 . S
C1586 C1590 1.531 . S
C1587 C1586 1.369 . S
C1587 C1588 1.410 . S
C1587 C1595 1.503 . S
C1588 C1587 1.410 . S
C1588 C1589 1.392 . S
C1588 C1591 1.511 . S
C1589 C1585 1.376 . S
C1589 C1588 1.392 . S
C1589 H1601 0.929 . S
C1590 C1586 1.531 . S
C1590 H1602 0.960 . S
C1590 H1603 0.962 . S
C1590 H1604 0.960 . S
C1591 C1588 1.511 . S
C1591 H1605 0.961 . S
C1591 H1606 0.961 . S
C1591 H1607 0.961 . S
C1592 C1593 1.370 . S
C1592 C1594 1.363 . S
C1592 H1608 0.931 . S
C1593 C1592 1.370 . S
C1593 C1597 1.408 . S
C1594 C1592 1.363 . S
C1594 C1595 1.370 . S
C1594 C1598 1.524 . S
C1595 C1587 1.503 . S
C1595 C1594 1.370 . S
C1595 C1596 1.403 . S
C1596 C1595 1.403 . S
C1596 C1597 1.404 . S
C1596 C1599 1.539 . S
C1597 C1593 1.408 . S
C1597 C1596 1.404 . S
C1597 H1609 0.930 . S
C1598 C1594 1.524 . S
C1598 H1610 0.956 . S
C1598 H1611 0.961 . S
C1598 H1612 0.961 . S
C1599 C1596 1.539 . S
C1599 H1613 0.958 . S
C1599 H1614 0.961 . S
C1599 H1615 0.960 . S
H1600 C1584 0.931 . S
H1601 C1589 0.929 . S
H1602 C1590 0.960 . S
H1603 C1590 0.962 . S
H1604 C1590 0.960 . S
H1605 C1591 0.961 . S
H1606 C1591 0.961 . S
H1607 C1591 0.961 . S
H1608 C1592 0.931 . S
H1609 C1597 0.930 . S
H1610 C1598 0.956 . S
H1611 C1598 0.961 . S
H1612 C1598 0.961 . S
H1613 C1599 0.958 . S
H1614 C1599 0.961 . S
H1615 C1599 0.960 . S
C1616 C1617 1.391 . S
C1616 C1618 1.394 . S
C1616 H1632 0.931 . S
C1617 C1616 1.391 . S
C1617 C1621 1.376 . S
C1618 C1616 1.394 . S
C1618 C1619 1.369 . S
C1618 C1622 1.531 . S
C1619 C1618 1.369 . S
C1619 C1620 1.410 . S
C1619 C1627 1.503 . S
C1620 C1619 1.410 . S
C1620 C1621 1.392 . S
C1620 C1623 1.511 . S
C1621 C1617 1.376 . S
C1621 C1620 1.392 . S
C1621 H1633 0.929 . S
C1622 C1618 1.531 . S
C1622 H1634 0.960 . S
C1622 H1635 0.962 . S
C1622 H1636 0.960 . S
C1623 C1620 1.511 . S
C1623 H1637 0.961 . S
C1623 H1638 0.961 . S
C1623 H1639 0.961 . S
C1624 C1625 1.370 . S
C1624 C1626 1.363 . S
C1624 H1640 0.931 . S
C1625 C1624 1.370 . S
C1625 C1629 1.408 . S
C1626 C1624 1.363 . S
C1626 C1627 1.370 . S
C1626 C1630 1.524 . S
C1627 C1619 1.503 . S
C1627 C1626 1.370 . S
C1627 C1628 1.403 . S
C1628 C1627 1.403 . S
C1628 C1629 1.404 . S
C1628 C1631 1.539 . S
C1629 C1625 1.408 . S
C1629 C1628 1.404 . S
C1629 H1641 0.930 . S
C1630 C1626 1.524 . S
C1630 H1642 0.956 . S
C1630 H1643 0.961 . S
C1630 H1644 0.961 . S
C1631 C1628 1.539 . S
C1631 H1645 0.958 . S
C1631 H1646 0.961 . S
C1631 H1647 0.960 . S
H1632 C1616 0.931 . S
H1633 C1621 0.929 . S
H1634 C1622 0.960 . S
H1635 C1622 0.962 . S
H1636 C1622 0.960 . S
H1637 C1623 0.961 . S
H1638 C1623 0.961 . S
H1639 C1623 0.961 . S
H1640 C1624 0.931 . S
H1641 C1629 0.930 . S
H1642 C1630 0.956 . S
H1643 C1630 0.961 . S
H1644 C1630 0.961 . S
H1645 C1631 0.958 . S
H1646 C1631 0.961 . S
H1647 C1631 0.960 . S
C1648 C1649 1.391 . S
C1648 C1650 1.394 . S
C1648 H1664 0.931 . S
C1649 C1648 1.391 . S
C1649 C1653 1.376 . S
C1650 C1648 1.394 . S
C1650 C1651 1.369 . S
C1650 C1654 1.531 . S
C1651 C1650 1.369 . S
C1651 C1652 1.410 . S
C1651 C1659 1.503 . S
C1652 C1651 1.410 . S
C1652 C1653 1.392 . S
C1652 C1655 1.511 . S
C1653 C1649 1.376 . S
C1653 C1652 1.392 . S
C1653 H1665 0.929 . S
C1654 C1650 1.531 . S
C1654 H1666 0.960 . S
C1654 H1667 0.962 . S
C1654 H1668 0.960 . S
C1655 C1652 1.511 . S
C1655 H1669 0.961 . S
C1655 H1670 0.961 . S
C1655 H1671 0.961 . S
C1656 C1657 1.370 . S
C1656 C1658 1.363 . S
C1656 H1672 0.931 . S
C1657 C1656 1.370 . S
C1657 C1661 1.408 . S
C1658 C1656 1.363 . S
C1658 C1659 1.370 . S
C1658 C1662 1.524 . S
C1659 C1651 1.503 . S
C1659 C1658 1.370 . S
C1659 C1660 1.403 . S
C1660 C1659 1.403 . S
C1660 C1661 1.404 . S
C1660 C1663 1.539 . S
C1661 C1657 1.408 . S
C1661 C1660 1.404 . S
C1661 H1673 0.930 . S
C1662 C1658 1.524 . S
C1662 H1674 0.956 . S
C1662 H1675 0.961 . S
C1662 H1676 0.961 . S
C1663 C1660 1.539 . S
C1663 H1677 0.958 . S
C1663 H1678 0.961 . S
C1663 H1679 0.960 . S
H1664 C1648 0.931 . S
H1665 C1653 0.929 . S
H1666 C1654 0.960 . S
H1667 C1654 0.962 . S
H1668 C1654 0.960 . S
H1669 C1655 0.961 . S
H1670 C1655 0.961 . S
H1671 C1655 0.961 . S
H1672 C1656 0.931 . S
H1673 C1661 0.930 . S
H1674 C1662 0.956 . S
H1675 C1662 0.961 . S
H1676 C1662 0.961 . S
H1677 C1663 0.958 . S
H1678 C1663 0.961 . S
H1679 C1663 0.960 . S
C1680 C1681 1.391 . S
C1680 C1682 1.394 . S
C1680 H1696 0.931 . S
C1681 C1680 1.391 . S
C1681 C1685 1.376 . S
C1682 C1680 1.394 . S
C1682 C1683 1.369 . S
C1682 C1686 1.531 . S
C1683 C1682 1.369 . S
C1683 C1684 1.410 . S
C1683 C1691 1.503 . S
C1684 C1683 1.410 . S
C1684 C1685 1.392 . S
C1684 C1687 1.511 . S
C1685 C1681 1.376 . S
C1685 C1684 1.392 . S
C1685 H1697 0.929 . S
C1686 C1682 1.531 . S
C1686 H1698 0.960 . S
C1686 H1699 0.962 . S
C1686 H1700 0.960 . S
C1687 C1684 1.511 . S
C1687 H1701 0.961 . S
C1687 H1702 0.961 . S
C1687 H1703 0.961 . S
C1688 C1689 1.370 . S
C1688 C1690 1.363 . S
C1688 H1704 0.931 . S
C1689 C1688 1.370 . S
C1689 C1693 1.408 . S
C1690 C1688 1.363 . S
C1690 C1691 1.370 . S
C1690 C1694 1.524 . S
C1691 C1683 1.503 . S
C1691 C1690 1.370 . S
C1691 C1692 1.403 . S
C1692 C1691 1.403 . S
C1692 C1693 1.404 . S
C1692 C1695 1.539 . S
C1693 C1689 1.408 . S
C1693 C1692 1.404 . S
C1693 H1705 0.930 . S
C1694 C1690 1.524 . S
C1694 H1706 0.956 . S
C1694 H1707 0.961 . S
C1694 H1708 0.961 . S
C1695 C1692 1.539 . S
C1695 H1709 0.958 . S
C1695 H1710 0.961 . S
C1695 H1711 0.960 . S
H1696 C1680 0.931 . S
H1697 C1685 0.929 . S
H1698 C1686 0.960 . S
H1699 C1686 0.962 . S
H1700 C1686 0.960 . S
H1701 C1687 0.961 . S
H1702 C1687 0.961 . S
H1703 C1687 0.961 . S
H1704 C1688 0.931 . S
H1705 C1693 0.930 . S
H1706 C1694 0.956 . S
H1707 C1694 0.961 . S
H1708 C1694 0.961 . S
H1709 C1695 0.958 . S
H1710 C1695 0.961 . S
H1711 C1695 0.960 . S
C1712 C1713 1.391 . S
C1712 C1714 1.394 . S
C1712 H1728 0.931 . S
C1713 C1712 1.391 . S
C1713 C1717 1.376 . S
C1714 C1712 1.394 . S
C1714 C1715 1.369 . S
C1714 C1718 1.531 . S
C1715 C1714 1.369 . S
C1715 C1716 1.410 . S
C1715 C1723 1.503 . S
C1716 C1715 1.410 . S
C1716 C1717 1.392 . S
C1716 C1719 1.511 . S
C1717 C1713 1.376 . S
C1717 C1716 1.392 . S
C1717 H1729 0.929 . S
C1718 C1714 1.531 . S
C1718 H1730 0.960 . S
C1718 H1731 0.962 . S
C1718 H1732 0.960 . S
C1719 C1716 1.511 . S
C1719 H1733 0.961 . S
C1719 H1734 0.961 . S
C1719 H1735 0.961 . S
C1720 C1721 1.370 . S
C1720 C1722 1.363 . S
C1720 H1736 0.931 . S
C1721 C1720 1.370 . S
C1721 C1725 1.408 . S
C1722 C1720 1.363 . S
C1722 C1723 1.370 . S
C1722 C1726 1.524 . S
C1723 C1715 1.503 . S
C1723 C1722 1.370 . S
C1723 C1724 1.403 . S
C1724 C1723 1.403 . S
C1724 C1725 1.404 . S
C1724 C1727 1.539 . S
C1725 C1721 1.408 . S
C1725 C1724 1.404 . S
C1725 H1737 0.930 . S
C1726 C1722 1.524 . S
C1726 H1738 0.956 . S
C1726 H1739 0.961 . S
C1726 H1740 0.961 . S
C1727 C1724 1.539 . S
C1727 H1741 0.958 . S
C1727 H1742 0.961 . S
C1727 H1743 0.960 . S
H1728 C1712 0.931 . S
H1729 C1717 0.929 . S
H1730 C1718 0.960 . S
H1731 C1718 0.962 . S
H1732 C1718 0.960 . S
H1733 C1719 0.961 . S
H1734 C1719 0.961 . S
H1735 C1719 0.961 . S
H1736 C1720 0.931 . S
H1737 C1725 0.930 . S
H1738 C1726 0.956 . S
H1739 C1726 0.961 . S
H1740 C1726 0.961 . S
H1741 C1727 0.958 . S
H1742 C1727 0.961 . S
H1743 C1727 0.960 . S
C1744 C1745 1.391 . S
C1744 C1746 1.394 . S
C1744 H1760 0.931 . S
C1745 C1744 1.391 . S
C1745 C1749 1.376 . S
C1746 C1744 1.394 . S
C1746 C1747 1.369 . S
C1746 C1750 1.531 . S
C1747 C1746 1.369 . S
C1747 C1748 1.410 . S
C1747 C1755 1.503 . S
C1748 C1747 1.410 . S
C1748 C1749 1.392 . S
C1748 C1751 1.511 . S
C1749 C1745 1.376 . S
C1749 C1748 1.392 . S
C1749 H1761 0.929 . S
C1750 C1746 1.531 . S
C1750 H1762 0.960 . S
C1750 H1763 0.962 . S
C1750 H1764 0.960 . S
C1751 C1748 1.511 . S
C1751 H1765 0.961 . S
C1751 H1766 0.961 . S
C1751 H1767 0.961 . S
C1752 C1753 1.370 . S
C1752 C1754 1.363 . S
C1752 H1768 0.931 . S
C1753 C1752 1.370 . S
C1753 C1757 1.408 . S
C1754 C1752 1.363 . S
C1754 C1755 1.370 . S
C1754 C1758 1.524 . S
C1755 C1747 1.503 . S
C1755 C1754 1.370 . S
C1755 C1756 1.403 . S
C1756 C1755 1.403 . S
C1756 C1757 1.404 . S
C1756 C1759 1.539 . S
C1757 C1753 1.408 . S
C1757 C1756 1.404 . S
C1757 H1769 0.930 . S
C1758 C1754 1.524 . S
C1758 H1770 0.956 . S
C1758 H1771 0.961 . S
C1758 H1772 0.961 . S
C1759 C1756 1.539 . S
C1759 H1773 0.958 . S
C1759 H1774 0.961 . S
C1759 H1775 0.960 . S
H1760 C1744 0.931 . S
H1761 C1749 0.929 . S
H1762 C1750 0.960 . S
H1763 C1750 0.962 . S
H1764 C1750 0.960 . S
H1765 C1751 0.961 . S
H1766 C1751 0.961 . S
H1767 C1751 0.961 . S
H1768 C1752 0.931 . S
H1769 C1757 0.930 . S
H1770 C1758 0.956 . S
H1771 C1758 0.961 . S
H1772 C1758 0.961 . S
H1773 C1759 0.958 . S
H1774 C1759 0.961 . S
H1775 C1759 0.960 . S
C1776 C1777 1.391 . S
C1776 C1778 1.394 . S
C1776 H1792 0.931 . S
C1777 C1776 1.391 . S
C1777 C1781 1.376 . S
C1778 C1776 1.394 . S
C1778 C1779 1.369 . S
C1778 C1782 1.531 . S
C1779 C1778 1.369 . S
C1779 C1780 1.410 . S
C1779 C1787 1.503 . S
C1780 C1779 1.410 . S
C1780 C1781 1.392 . S
C1780 C1783 1.511 . S
C1781 C1777 1.376 . S
C1781 C1780 1.392 . S
C1781 H1793 0.929 . S
C1782 C1778 1.531 . S
C1782 H1794 0.960 . S
C1782 H1795 0.962 . S
C1782 H1796 0.960 . S
C1783 C1780 1.511 . S
C1783 H1797 0.961 . S
C1783 H1798 0.961 . S
C1783 H1799 0.961 . S
C1784 C1785 1.370 . S
C1784 C1786 1.363 . S
C1784 H1800 0.931 . S
C1785 C1784 1.370 . S
C1785 C1789 1.408 . S
C1786 C1784 1.363 . S
C1786 C1787 1.370 . S
C1786 C1790 1.524 . S
C1787 C1779 1.503 . S
C1787 C1786 1.370 . S
C1787 C1788 1.403 . S
C1788 C1787 1.403 . S
C1788 C1789 1.404 . S
C1788 C1791 1.539 . S
C1789 C1785 1.408 . S
C1789 C1788 1.404 . S
C1789 H1801 0.930 . S
C1790 C1786 1.524 . S
C1790 H1802 0.956 . S
C1790 H1803 0.961 . S
C1790 H1804 0.961 . S
C1791 C1788 1.539 . S
C1791 H1805 0.958 . S
C1791 H1806 0.961 . S
C1791 H1807 0.960 . S
H1792 C1776 0.931 . S
H1793 C1781 0.929 . S
H1794 C1782 0.960 . S
H1795 C1782 0.962 . S
H1796 C1782 0.960 . S
H1797 C1783 0.961 . S
H1798 C1783 0.961 . S
H1799 C1783 0.961 . S
H1800 C1784 0.931 . S
H1801 C1789 0.930 . S
H1802 C1790 0.956 . S
H1803 C1790 0.961 . S
H1804 C1790 0.961 . S
H1805 C1791 0.958 . S
H1806 C1791 0.961 . S
H1807 C1791 0.960 . S
C1808 C1809 1.391 . S
C1808 C1810 1.394 . S
C1808 H1824 0.931 . S
C1809 C1808 1.391 . S
C1809 C1813 1.376 . S
C1810 C1808 1.394 . S
C1810 C1811 1.369 . S
C1810 C1814 1.531 . S
C1811 C1810 1.369 . S
C1811 C1812 1.410 . S
C1811 C1819 1.503 . S
C1812 C1811 1.410 . S
C1812 C1813 1.392 . S
C1812 C1815 1.511 . S
C1813 C1809 1.376 . S
C1813 C1812 1.392 . S
C1813 H1825 0.929 . S
C1814 C1810 1.531 . S
C1814 H1826 0.960 . S
C1814 H1827 0.962 . S
C1814 H1828 0.960 . S
C1815 C1812 1.511 . S
C1815 H1829 0.961 . S
C1815 H1830 0.961 . S
C1815 H1831 0.961 . S
C1816 C1817 1.370 . S
C1816 C1818 1.363 . S
C1816 H1832 0.931 . S
C1817 C1816 1.370 . S
C1817 C1821 1.408 . S
C1818 C1816 1.363 . S
C1818 C1819 1.370 . S
C1818 C1822 1.524 . S
C1819 C1811 1.503 . S
C1819 C1818 1.370 . S
C1819 C1820 1.403 . S
C1820 C1819 1.403 . S
C1820 C1821 1.404 . S
C1820 C1823 1.539 . S
C1821 C1817 1.408 . S
C1821 C1820 1.404 . S
C1821 H1833 0.930 . S
C1822 C1818 1.524 . S
C1822 H1834 0.956 . S
C1822 H1835 0.961 . S
C1822 H1836 0.961 . S
C1823 C1820 1.539 . S
C1823 H1837 0.958 . S
C1823 H1838 0.961 . S
C1823 H1839 0.960 . S
H1824 C1808 0.931 . S
H1825 C1813 0.929 . S
H1826 C1814 0.960 . S
H1827 C1814 0.962 . S
H1828 C1814 0.960 . S
H1829 C1815 0.961 . S
H1830 C1815 0.961 . S
H1831 C1815 0.961 . S
H1832 C1816 0.931 . S
H1833 C1821 0.930 . S
H1834 C1822 0.956 . S
H1835 C1822 0.961 . S
H1836 C1822 0.961 . S
H1837 C1823 0.958 . S
H1838 C1823 0.961 . S
H1839 C1823 0.960 . S
C1840 C1841 1.391 . S
C1840 C1842 1.394 . S
C1840 H1856 0.931 . S
C1841 C1840 1.391 . S
C1841 C1845 1.376 . S
C1842 C1840 1.394 . S
C1842 C1843 1.369 . S
C1842 C1846 1.531 . S
C1843 C1842 1.369 . S
C1843 C1844 1.410 . S
C1843 C1851 1.503 . S
C1844 C1843 1.410 . S
C1844 C1845 1.392 . S
C1844 C1847 1.511 . S
C1845 C1841 1.376 . S
C1845 C1844 1.392 . S
C1845 H1857 0.929 . S
C1846 C1842 1.531 . S
C1846 H1858 0.960 . S
C1846 H1859 0.962 . S
C1846 H1860 0.960 . S
C1847 C1844 1.511 . S
C1847 H1861 0.961 . S
C1847 H1862 0.961 . S
C1847 H1863 0.961 . S
C1848 C1849 1.370 . S
C1848 C1850 1.363 . S
C1848 H1864 0.931 . S
C1849 C1848 1.370 . S
C1849 C1853 1.408 . S
C1850 C1848 1.363 . S
C1850 C1851 1.370 . S
C1850 C1854 1.524 . S
C1851 C1843 1.503 . S
C1851 C1850 1.370 . S
C1851 C1852 1.403 . S
C1852 C1851 1.403 . S
C1852 C1853 1.404 . S
C1852 C1855 1.539 . S
C1853 C1849 1.408 . S
C1853 C1852 1.404 . S
C1853 H1865 0.930 . S
C1854 C1850 1.524 . S
C1854 H1866 0.956 . S
C1854 H1867 0.961 . S
C1854 H1868 0.961 . S
C1855 C1852 1.539 . S
C1855 H1869 0.958 . S
C1855 H1870 0.961 . S
C1855 H1871 0.960 . S
H1856 C1840 0.931 . S
H1857 C1845 0.929 . S
H1858 C1846 0.960 . S
H1859 C1846 0.962 . S
H1860 C1846 0.960 . S
H1861 C1847 0.961 . S
H1862 C1847 0.961 . S
H1863 C1847 0.961 . S
H1864 C1848 0.931 . S
H1865 C1853 0.930 . S
H1866 C1854 0.956 . S
H1867 C1854 0.961 . S
H1868 C1854 0.961 . S
H1869 C1855 0.958 . S
H1870 C1855 0.961 . S
H1871 C1855 0.960 . S
C337 C161 1.351 . S
C345 C3 1.439 . S
C369 C17 1.424 . S
C377 C119 1.333 . S
C401 C31 1.416 . S
C409 C133 1.330 . S
C433 C45 1.416 . S
C441 C147 1.330 . S
C465 C189 1.310 . S
C473 C59 1.430 . S
C497 C73 1.426 . S
C505 C203 1.347 . S
C529 C217 1.389 . S
C537 C87 1.442 . S
C561 C175 1.386 . S
C569 C101 1.442 . S
C593 C77 1.348 . S
C601 C115 1.438 . S
C625 C91 1.311 . S
C633 C129 1.430 . S
C657 C143 1.427 . S
C665 C105 1.336 . S
C689 C63 1.299 . S
C697 C157 1.430 . S
C721 C49 1.327 . S
C729 C171 1.435 . S
C753 C185 1.416 . S
C761 C7 1.331 . S
C785 C199 1.435 . S
C793 C21 1.357 . S
C817 C213 1.430 . S
C825 C35 1.352 . S
C849 C227 1.439 . S
C857 C329 1.361 . S
C881 C287 1.358 . S
C889 C241 1.435 . S
C913 C255 1.433 . S
C921 C245 1.355 . S
C945 C269 1.434 . S
C953 C259 1.343 . S
C977 C273 1.300 . S
C985 C283 1.430 . S
C1009 C297 1.445 . S
C1017 C315 1.359 . S
C1041 C231 1.336 . S
C1049 C311 1.437 . S
C1073 C301 1.374 . S
C1081 C325 1.438 . S
C1105 C9 1.534 . S
C1113 C93 1.525 . S
C1137 C23 1.500 . S
C1145 C107 1.513 . S
C1169 C37 1.490 . S
C1177 C65 1.507 . S
C1201 C79 1.533 . S
C1209 C51 1.525 . S
C1233 C149 1.533 . S
C1241 C121 1.524 . S
C1265 C135 1.524 . S
C1273 C163 1.519 . S
C1297 C177 1.513 . S
C1305 C205 1.514 . S
C1329 C219 1.533 . S
C1337 C191 1.524 . S
C1361 C247 1.526 . S
C1369 C233 1.523 . S
C1393 C261 1.491 . S
C1401 C331 1.508 . S
C1425 C275 1.519 . S
C1433 C303 1.521 . S
C1457 C289 1.533 . S
C1465 C317 1.525 . S
C1489 C8 1.040 . S
C1497 C78 1.032 . S
C1521 C22 1.032 . S
C1529 C92 1.035 . S
C1553 C36 1.017 . S
C1561 C106 1.030 . S
C1585 C64 1.031 . S
C1593 C50 1.026 . S
C1617 C120 1.015 . S
C1625 C330 1.028 . S
C1649 C134 1.038 . S
C1657 C302 1.029 . S
C1681 C316 1.039 . S
C1689 C148 1.031 . S
C1713 C162 1.034 . S
C1721 C232 1.027 . S
C1745 C288 1.040 . S
C1753 C176 1.031 . S
C1777 C246 1.023 . S
C1785 C190 1.024 . S
C1809 C204 1.028 . S
C1817 C260 1.034 . S
C1841 C274 1.031 . S
C1849 C218 1.035 . S
