# Generated by pormake.
# Topology sxb, (6)-cn, num edge types: 1
# Building blocks:
#     Node 0, Type 0, BuildingBlock: PAMTUU_clean_sbu_0, # of connection points: 6
#     Node 1, Type 0, BuildingBlock: PAMTUU_clean_sbu_0, # of connection points: 6
#     Node 2, Type 0, BuildingBlock: PAMTUU_clean_sbu_0, # of connection points: 6
#     Node 3, Type 0, BuildingBlock: PAMTUU_clean_sbu_0, # of connection points: 6
#     Edge 4, Type (0, 0), BuildingBlock: TEMPAE_clean_linker_10, # of connection points: 2
#     Edge 5, Type (0, 0), BuildingBlock: TEMPAE_clean_linker_10, # of connection points: 2
#     Edge 6, Type (0, 0), BuildingBlock: TEMPAE_clean_linker_10, # of connection points: 2
#     Edge 7, Type (0, 0), BuildingBlock: TEMPAE_clean_linker_10, # of connection points: 2
#     Edge 8, Type (0, 0), BuildingBlock: TEMPAE_clean_linker_10, # of connection points: 2
#     Edge 9, Type (0, 0), BuildingBlock: TEMPAE_clean_linker_10, # of connection points: 2
#     Edge 10, Type (0, 0), BuildingBlock: TEMPAE_clean_linker_10, # of connection points: 2
#     Edge 11, Type (0, 0), BuildingBlock: TEMPAE_clean_linker_10, # of connection points: 2
#     Edge 12, Type (0, 0), BuildingBlock: TEMPAE_clean_linker_10, # of connection points: 2
#     Edge 13, Type (0, 0), BuildingBlock: TEMPAE_clean_linker_10, # of connection points: 2
#     Edge 14, Type (0, 0), BuildingBlock: TEMPAE_clean_linker_10, # of connection points: 2
#     Edge 15, Type (0, 0), BuildingBlock: TEMPAE_clean_linker_10, # of connection points: 2
# Relax obj value: 0.116
# Max RMSD: 0.198
# Mean RMSD: 0.198
data_MOF--net-sxb--node1-PAMTUU_clean_sbu_0--edge1-TEMPAE_clean_linker_10
_symmetry_space_group_name_H-M    P1
_symmetry_Int_Tables_number       1
_symmetry_cell_setting            triclinic
loop_
_symmetry_equiv_pos_as_xyz
'x, y, z'
_cell_length_a     24.40657
_cell_length_b     17.184816
_cell_length_c     30.589465
_cell_angle_alpha  89.840172
_cell_angle_beta   99.250598
_cell_angle_gamma 89.901182
loop_
_atom_site_label
_atom_site_type_symbol
_atom_site_fract_x
_atom_site_fract_y
_atom_site_fract_z
_atom_type_partial_charge
Tb0 Tb 0.07247 0.06644 -0.00519 0.0
Tb1 Tb 0.97213 0.9322 0.97652 0.0
C2 C 1.02496 0.98289 0.0708 0.0
C3 C 0.21312 0.14229 -0.00049 0.0
C4 C 0.32356 0.09956 -0.00776 0.0
C5 C 0.31254 0.15066 0.02576 0.0
C6 C 0.25791 0.17166 0.02934 0.0
C7 C 0.22388 0.0926 0.96547 0.0
C8 C 0.27842 0.07184 0.96173 0.0
C9 C 0.15563 0.15573 0.00734 0.0
O10 O 0.10984 0.95969 0.97814 0.0
O11 O 0.04794 0.86439 -0.00697 0.0
O12 O 1.01103 0.93213 0.91784 0.0
O13 O 0.04316 0.05843 0.92346 0.0
O14 O 0.92127 0.84659 -0.00135 0.0
O15 O 0.902 0.89452 0.93272 0.0
O16 O 0.94712 0.04873 0.95698 0.0
O17 O 0.9975 0.12126 0.00986 0.0
O18 O 0.07037 0.00146 0.05544 0.0
O19 O 0.97783 0.97314 0.04408 0.0
C20 C 0.09729 0.88722 0.98593 0.0
O21 O 0.11695 0.15972 0.97259 0.0
O22 O 0.14046 0.11197 0.03799 0.0
C23 C 0.02947 -0.00524 0.90018 0.0
C24 C 0.82629 0.87174 0.96971 0.0
C25 C 0.71647 0.91722 0.97707 0.0
C26 C 0.72778 0.87678 0.93957 0.0
C27 C 0.78205 0.85446 0.93595 0.0
C28 C 0.81526 0.91172 0.00742 0.0
C29 C 0.76089 0.93385 0.01115 0.0
C30 C 0.88377 0.85359 0.96324 0.0
C31 C 0.94959 0.10403 0.98613 0.0
H32 H 0.34595 0.1726 0.05018 0.0
H33 H 0.25055 0.20921 0.0562 0.0
H34 H 0.19001 0.06814 0.94237 0.0
H35 H 0.28509 0.03336 0.9351 0.0
H36 H 0.69458 0.86225 0.91292 0.0
H37 H 0.78957 0.8243 0.90641 0.0
H38 H 0.84875 0.92747 0.03358 0.0
H39 H 0.75393 0.96618 0.0401 0.0
Tb40 Tb 0.97989 0.03382 0.47908 0.0
Tb41 Tb 0.07987 0.89725 0.4949 0.0
C42 C 0.03048 0.96553 0.40048 0.0
C43 C 0.83591 0.10408 0.47737 0.0
C44 C 0.72528 0.06798 0.48846 0.0
C45 C 0.73634 0.10773 0.45045 0.0
C46 C 0.79087 0.12568 0.4451 0.0
C47 C 0.82526 0.0654 0.51568 0.0
C48 C 0.77066 0.04808 0.52129 0.0
C49 C 0.89338 0.11755 0.46901 0.0
O50 O 0.95094 0.91877 0.4601 0.0
O51 O 1.00558 0.83993 0.50869 0.0
O52 O 0.07898 0.96252 0.55558 0.0
O53 O 0.98621 -0.01227 0.54554 0.0
O54 O 0.12789 0.80987 0.47087 0.0
O55 O 0.14643 0.84799 0.53852 0.0
O56 O 0.11556 0.00219 0.47503 0.0
O57 O 0.05712 0.09925 0.49304 0.0
O58 O 1.0143 0.02948 0.41828 0.0
O59 O 0.04569 0.90253 0.42425 0.0
C60 C 0.95676 0.85886 0.48675 0.0
O61 O 0.93268 0.12181 0.50336 0.0
O62 O 0.90857 0.07534 0.43773 0.0
C63 C 0.03365 0.97826 0.57178 0.0
C64 C 0.22299 0.829 0.50183 0.0
C65 C 0.33272 0.87939 0.4982 0.0
C66 C 0.32055 0.83733 0.53497 0.0
C67 C 0.26633 0.81209 0.53664 0.0
C68 C 0.23528 0.87007 0.46471 0.0
C69 C 0.28964 0.89441 0.46279 0.0
C70 C 0.16484 0.81097 0.50678 0.0
C71 C 0.10491 0.0749 0.48322 0.0
H72 H 0.70303 0.12305 0.42401 0.0
H73 H 0.79799 0.15501 0.41513 0.0
H74 H 0.85916 0.04739 0.54104 0.0
H75 H 0.76418 0.01852 0.55132 0.0
H76 H 0.353 0.82434 0.56257 0.0
H77 H 0.25793 0.78104 0.56571 0.0
H78 H 0.20269 0.88525 0.43763 0.0
H79 H 0.29767 0.92725 0.43422 0.0
Tb80 Tb 0.57367 0.56901 0.99023 0.0
Tb81 Tb 0.47765 0.42931 0.98491 0.0
C82 C 0.53008 0.5063 0.07296 0.0
C83 C 0.71589 0.64098 -0.00364 0.0
C84 C 0.82835 0.59606 -0.00243 0.0
C85 C 0.79825 0.56883 0.03014 0.0
C86 C 0.7428 0.59086 0.02952 0.0
C87 C 0.74589 0.66869 0.96405 0.0
C88 C 0.80148 0.64698 0.96475 0.0
C89 C 0.65573 0.65924 -0.00712 0.0
O90 O 0.61435 0.45963 0.98513 0.0
O91 O 0.55492 0.36695 0.00636 0.0
O92 O 0.51507 0.41769 0.92552 0.0
O93 O 0.5395 0.54635 0.92105 0.0
O94 O 0.43039 0.35017 0.01597 0.0
O95 O 0.40824 0.37698 0.94657 0.0
O96 O 0.44575 0.53707 0.95527 0.0
O97 O 0.49666 0.62783 -0.00252 0.0
O98 O 0.5751 0.52007 0.05593 0.0
O99 O 0.48296 0.49109 0.04729 0.0
C100 C 0.60403 0.38934 -0.00151 0.0
O101 O 0.62474 0.63773 0.95626 0.0
O102 O 0.63207 0.64342 0.02715 0.0
C103 C 0.52901 0.47749 0.9027 0.0
C104 C 0.33467 0.36496 0.98714 0.0
C105 C 0.22413 0.41086 -0.00759 0.0
C106 C 0.23492 0.34576 0.96711 0.0
C107 C 0.28958 0.32326 0.96444 0.0
C108 C 0.32424 0.42917 0.01292 0.0
C109 C 0.26971 0.45153 0.01572 0.0
C110 C 0.39203 0.34535 0.98103 0.0
C111 C 0.44883 0.60304 0.97637 0.0
H112 H 0.81752 0.53024 0.05622 0.0
H113 H 0.72078 0.56738 0.05462 0.0
H114 H 0.72576 0.70557 0.93748 0.0
H115 H 0.82284 0.66826 0.93871 0.0
H116 H 0.20112 0.31201 0.94932 0.0
H117 H 0.29661 0.27374 0.94419 0.0
H118 H 0.3583 0.46326 0.03014 0.0
H119 H 0.26339 0.50243 0.03501 0.0
Tb120 Tb 0.48553 0.52575 0.48462 0.0
Tb121 Tb 0.58382 0.38796 0.49376 0.0
C122 C 0.54023 0.47685 0.40375 0.0
C123 C 0.34272 0.59309 0.48441 0.0
C124 C 0.23149 0.55156 0.48915 0.0
C125 C 0.24419 0.62514 0.47295 0.0
C126 C 0.2993 0.64563 0.47057 0.0
C127 C 0.33041 0.52028 0.50127 0.0
C128 C 0.27554 0.4999 0.50376 0.0
C129 C 0.4002 0.61152 0.47856 0.0
O130 O 0.45579 0.41696 0.4553 0.0
O131 O 0.50744 0.3272 0.49899 0.0
O132 O 0.57819 0.4337 0.55904 0.0
O133 O 0.48597 0.46319 0.54636 0.0
O134 O 0.63016 0.30351 0.46566 0.0
O135 O 0.65136 0.33456 0.53425 0.0
O136 O 0.62089 0.4973 0.48306 0.0
O137 O 0.56245 0.58734 0.5076 0.0
O138 O 0.5231 0.53618 0.42519 0.0
O139 O 0.55433 0.40963 0.42344 0.0
C140 C 0.46028 0.34969 0.47554 0.0
O141 O 0.43786 0.60688 0.51395 0.0
O142 O 0.41681 0.5777 0.44496 0.0
C143 C 0.53144 0.44654 0.57377 0.0
C144 C 0.7254 0.32024 0.49481 0.0
C145 C 0.83547 0.37012 0.4917 0.0
C146 C 0.82524 0.30229 0.51519 0.0
C147 C 0.77076 0.27804 0.517 0.0
C148 C 0.73538 0.38677 0.47051 0.0
C149 C 0.78963 0.41161 0.46913 0.0
C150 C 0.66814 0.30045 0.50087 0.0
C151 C 0.61071 0.56658 0.49744 0.0
H152 H 0.21141 0.666 0.46084 0.0
H153 H 0.30788 0.70185 0.45707 0.0
H154 H 0.36325 0.47858 0.51191 0.0
H155 H 0.26761 0.44335 0.51696 0.0
H156 H 0.85931 0.26797 0.5324 0.0
H157 H 0.76406 0.22706 0.53634 0.0
H158 H 0.70112 0.42086 0.45342 0.0
H159 H 0.79546 0.4647 0.45133 0.0
C160 C 0.34652 0.60889 0.95842 0.0
C161 C 0.39625 0.64255 0.97951 0.0
C162 C 0.29525 0.64037 0.96305 0.0
C163 C 0.29364 0.70822 0.9885 0.0
C164 C 0.34329 0.74202 0.01064 0.0
C165 C 0.3944 0.70833 0.00606 0.0
C166 C 0.24281 0.60223 0.93976 0.0
C167 C 0.3422 0.81367 0.03889 0.0
C168 C 0.17475 0.84323 0.95086 0.0
C169 C 0.14098 0.83083 0.98305 0.0
C170 C 0.22454 0.80323 0.95248 0.0
C171 C 0.24039 0.74888 0.98695 0.0
C172 C 0.2049 0.7329 0.0183 0.0
C173 C 0.15511 0.77454 0.01592 0.0
C174 C 0.261 0.82116 0.91815 0.0
C175 C 0.21965 0.67523 0.05562 0.0
H176 H 0.34731 0.55713 0.93836 0.0
H177 H 0.43262 0.73326 0.02324 0.0
H178 H 0.21285 0.59414 0.96313 0.0
H179 H 0.22269 0.64044 0.91252 0.0
H180 H 0.25103 0.54475 0.92555 0.0
H181 H 0.38456 0.8351 0.05206 0.0
H182 H 0.31869 0.86106 0.01948 0.0
H183 H 0.32029 0.80014 0.0671 0.0
H184 H 0.16317 0.8869 0.92532 0.0
H185 H 0.12902 0.76615 0.0411 0.0
H186 H 0.26775 0.76764 0.89951 0.0
H187 H 0.30228 0.84154 0.93464 0.0
H188 H 0.24275 0.86649 0.89416 0.0
H189 H 0.18354 0.637 0.05783 0.0
H190 H 0.22886 0.70738 0.08737 0.0
H191 H 0.256 0.63843 0.05219 0.0
C192 C 0.65453 0.2696 0.03003 0.0
C193 C 0.65057 0.33457 0.00202 0.0
C194 C 0.70208 0.22219 0.03513 0.0
C195 C 0.74592 0.24149 0.01186 0.0
C196 C 0.74169 0.30692 0.98347 0.0
C197 C 0.6939 0.35194 0.9786 0.0
C198 C 0.70504 0.15143 0.06475 0.0
C199 C 0.78706 0.32884 0.95727 0.0
C200 C 0.8958 0.18412 0.03257 0.0
C201 C 0.89703 0.1342 -0.00329 0.0
C202 C 0.84513 0.2132 0.04156 0.0
C203 C 0.79533 0.19183 0.01379 0.0
C204 C 0.79617 0.1366 0.97989 0.0
C205 C 0.84706 0.10859 0.97169 0.0
C206 C 0.84525 0.272 0.07812 0.0
C207 C 0.74399 0.11323 0.94919 0.0
H208 H 0.62128 0.25694 0.04851 0.0
H209 H 0.69074 0.40148 0.95629 0.0
H210 H 0.69857 0.09837 0.04402 0.0
H211 H 0.74654 0.14648 0.08559 0.0
H212 H 0.67278 0.15276 0.08655 0.0
H213 H 0.77919 0.38584 0.94015 0.0
H214 H 0.82783 0.33186 0.97919 0.0
H215 H 0.79028 0.28373 0.93192 0.0
H216 H 0.93428 0.20209 0.05278 0.0
H217 H 0.84748 0.06828 0.94454 0.0
H218 H 0.81083 0.26035 0.09691 0.0
H219 H 0.8387 0.3311 0.06344 0.0
H220 H 0.88518 0.27178 0.10142 0.0
H221 H 0.70923 0.10388 0.96786 0.0
H222 H 0.75017 0.05951 0.93044 0.0
H223 H 0.73156 0.1607 0.92494 0.0
C224 C 0.18292 0.11055 0.44669 0.0
C225 C 0.14954 0.12864 0.47848 0.0
C226 C 0.23463 0.14463 0.448 0.0
C227 C 0.25206 0.2012 0.48058 0.0
C228 C 0.2171 0.22335 0.51131 0.0
C229 C 0.16593 0.1859 0.51008 0.0
C230 C 0.27129 0.11807 0.41543 0.0
C231 C 0.23346 0.28366 0.54674 0.0
C232 C 0.40543 0.24486 0.50483 0.0
C233 C 0.40901 0.30533 0.47475 0.0
C234 C 0.35402 0.21067 0.50756 0.0
C235 C 0.30575 0.23911 0.48017 0.0
C236 C 0.30948 0.29947 0.44942 0.0
C237 C 0.36117 0.33092 0.44671 0.0
C238 C 0.35121 0.14415 0.53942 0.0
C239 C 0.25996 0.33101 0.41825 0.0
H240 H 0.16978 0.06606 0.42213 0.0
H241 H 0.14028 0.19868 0.53503 0.0
H242 H 0.27663 0.16625 0.3923 0.0
H243 H 0.31308 0.10194 0.43321 0.0
H244 H 0.25372 0.06726 0.39561 0.0
H245 H 0.20078 0.32921 0.54438 0.0
H246 H 0.23571 0.25587 0.5798 0.0
H247 H 0.27387 0.31178 0.54504 0.0
H248 H 0.44233 0.2255 0.52677 0.0
H249 H 0.36353 0.37733 0.42298 0.0
H250 H 0.33328 0.0921 0.52102 0.0
H251 H 0.32344 0.15991 0.56341 0.0
H252 H 0.39266 0.12863 0.5581 0.0
H253 H 0.26339 0.31348 0.38389 0.0
H254 H 0.26037 0.39565 0.41891 0.0
H255 H 0.21946 0.31061 0.42574 0.0
C256 C 0.85482 0.85198 0.4766 0.0
C257 C 0.90625 0.81832 0.4937 0.0
C258 C 0.80544 0.81609 0.48192 0.0
C259 C 0.80758 0.74467 0.50493 0.0
C260 C 0.85916 0.71103 0.52344 0.0
C261 C 0.90832 0.74894 0.51788 0.0
C262 C 0.75146 0.85201 0.4596 0.0
C263 C 0.86239 0.63328 0.54687 0.0
C264 C 0.67197 0.67104 0.53349 0.0
C265 C 0.6553 0.62237 0.49736 0.0
C266 C 0.72257 0.71085 0.53704 0.0
C267 C 0.75604 0.70067 0.50371 0.0
C268 C 0.73816 0.6534 0.46656 0.0
C269 C 0.68754 0.61564 0.46361 0.0
C270 C 0.7407 0.76282 0.57636 0.0
C271 C 0.77269 0.64176 0.43019 0.0
H272 H 0.85272 0.90636 0.45832 0.0
H273 H 0.94808 0.72361 0.53156 0.0
H274 H 0.74051 0.82733 0.42586 0.0
H275 H 0.71669 0.83951 0.47778 0.0
H276 H 0.75527 0.91596 0.45598 0.0
H277 H 0.90531 0.61904 0.56308 0.0
H278 H 0.83459 0.63268 0.57221 0.0
H279 H 0.84805 0.58676 0.52263 0.0
H280 H 0.64695 0.67508 0.55966 0.0
H281 H 0.674 0.57805 0.4355 0.0
H282 H 0.74642 0.82312 0.56483 0.0
H283 H 0.78138 0.74288 0.59446 0.0
H284 H 0.71019 0.76365 0.59968 0.0
H285 H 0.77742 0.69788 0.41322 0.0
H286 H 0.75387 0.59901 0.40501 0.0
H287 H 0.81492 0.62113 0.44442 0.0
C288 C 0.42654 0.12468 -0.00025 0.0
C289 C 0.38157 0.0733 0.98995 0.0
C290 C 0.48129 0.10025 -0.00163 0.0
C291 C 0.49165 0.02248 0.98674 0.0
C292 C 0.44654 0.97028 0.97674 0.0
C293 C 0.39227 -0.00379 0.97857 0.0
C294 C 0.52806 0.15789 0.00917 0.0
C295 C 0.45556 0.8868 0.96429 0.0
C296 C 0.6254 0.97648 0.9425 0.0
C297 C 0.6589 0.94421 0.9798 0.0
C298 C 0.57119 0.00248 0.94439 0.0
C299 C 0.54955 -0.00405 0.98451 0.0
C300 C 0.58319 0.9638 0.02236 0.0
C301 C 0.63741 0.93849 0.01958 0.0
C302 C 0.537 0.03692 0.90335 0.0
C303 C 0.56181 0.95591 0.0658 0.0
H304 H 0.41895 0.18446 0.00811 0.0
H305 H 0.35821 0.9555 0.97162 0.0
H306 H 0.56036 0.13425 0.03556 0.0
H307 H 0.54803 0.16794 0.97953 0.0
H308 H 0.51357 0.2147 0.0203 0.0
H309 H 0.41589 0.85475 0.95523 0.0
H310 H 0.47865 0.88454 0.9359 0.0
H311 H 0.48116 0.8563 -0.00755 0.0
H312 H 0.64194 0.9826 0.91185 0.0
H313 H 0.66276 0.91317 0.04847 0.0
H314 H 0.52463 0.09733 0.91004 0.0
H315 H 0.49831 0.00286 0.8941 0.0
H316 H 0.55982 0.03784 0.87472 0.0
H317 H 0.54953 0.01384 0.07695 0.0
H318 H 0.59319 0.93015 0.09223 0.0
H319 H 0.52422 0.91873 0.06139 0.0
C320 C 0.418 0.9512 0.53336 0.0
C321 C 0.38984 0.90929 0.49733 0.0
C322 C 0.47174 0.98049 0.53293 0.0
C323 C 0.49856 0.96634 0.49591 0.0
C324 C 0.47028 0.92389 0.45946 0.0
C325 C 0.41613 0.89656 0.46043 0.0
C326 C 0.4998 0.02678 0.57206 0.0
C327 C 0.49751 0.90649 0.41962 0.0
C328 C 0.62141 0.09134 0.47569 0.0
C329 C 0.66711 0.04421 0.49267 0.0
C330 C 0.56655 0.0677 0.47737 0.0
C331 C 0.55666 -0.00572 0.49576 0.0
C332 C 0.60243 0.9469 0.51357 0.0
C333 C 0.65682 0.97271 0.51223 0.0
C334 C 0.51916 0.12087 0.45872 0.0
C335 C 0.59396 0.8678 0.53301 0.0
H336 H 0.39755 0.96213 0.56169 0.0
H337 H 0.39464 0.86383 0.43262 0.0
H338 H 0.53965 -0.00126 0.58644 0.0
H339 H 0.50962 0.08601 0.56106 0.0
H340 H 0.47357 0.03224 0.59841 0.0
H341 H 0.46998 0.87297 0.39395 0.0
H342 H 0.50935 0.96155 0.40462 0.0
H343 H 0.5362 0.87261 0.42997 0.0
H344 H 0.62839 0.14708 0.46105 0.0
H345 H 0.69129 0.9355 0.52555 0.0
H346 H 0.48958 0.12694 0.48248 0.0
H347 H 0.496 0.09522 0.42797 0.0
H348 H 0.53371 0.17971 0.4508 0.0
H349 H 0.56535 0.87183 0.55766 0.0
H350 H 0.63355 0.84146 0.54932 0.0
H351 H 0.57468 0.82816 0.50635 0.0
C352 C 0.90251 0.49217 0.00734 0.0
C353 C 0.88687 0.56969 -0.00282 0.0
C354 C 0.95708 0.46606 0.00673 0.0
C355 C 0.99752 0.5186 -0.00422 0.0
C356 C 0.98213 0.59697 0.98553 0.0
C357 C 0.92715 0.62146 0.98632 0.0
C358 C 0.97133 0.38192 0.01758 0.0
C359 C 1.02384 0.65517 0.97394 0.0
C360 C 0.15059 0.468 0.03245 0.0
C361 C 0.16583 0.43774 -0.00653 0.0
C362 C 0.09632 0.49501 0.03357 0.0
C363 C 0.05576 0.49139 -0.00511 0.0
C364 C 0.07077 0.46097 0.95545 0.0
C365 C 0.12544 0.43485 0.95517 0.0
C366 C 0.08233 0.52727 0.0763 0.0
C367 C 0.02905 0.45634 0.91337 0.0
H368 H 0.87176 0.4513 0.01518 0.0
H369 H 0.91589 0.68161 0.97892 0.0
H370 H 0.98514 0.35327 0.98875 0.0
H371 H 1.0062 0.37818 0.04566 0.0
H372 H 0.93552 0.34906 0.02642 0.0
H373 H 1.00501 0.71329 0.96551 0.0
H374 H 0.05808 0.66165 0.00227 0.0
H375 H 0.04254 0.63402 0.94541 0.0
H376 H 0.18102 0.46995 0.0624 0.0
H377 H 0.13674 0.41325 0.92459 0.0
H378 H 0.04818 0.49305 0.08683 0.0
H379 H 0.06748 0.58818 0.07118 0.0
H380 H 0.1185 0.52632 0.10346 0.0
H381 H 0.99313 0.42033 0.91899 0.0
H382 H 0.0471 0.43093 0.88549 0.0
H383 H 1.01294 0.51532 0.90358 0.0
C384 C 0.13347 0.57986 0.5016 0.0
C385 C 0.17265 0.52745 0.48956 0.0
C386 C 0.07814 0.55706 0.50214 0.0
C387 C 0.06133 0.48 0.49021 0.0
C388 C 0.10051 0.42718 0.47759 0.0
C389 C 0.15547 0.45139 0.47767 0.0
C390 C 0.03769 0.61535 0.51564 0.0
C391 C 0.08451 0.34476 0.46415 0.0
C392 C 0.93399 0.39258 0.52947 0.0
C393 C 0.89341 0.39864 0.49141 0.0
C394 C 0.98846 0.41956 0.52968 0.0
C395 C 1.00296 0.45412 0.49104 0.0
C396 C 0.96218 0.46123 0.45268 0.0
C397 C 0.90816 0.43322 0.45326 0.0
C398 C 0.03065 0.41068 0.57127 0.0
C399 C 0.97586 0.49731 0.41069 0.0
H400 H 0.14627 0.63846 0.51134 0.0
H401 H 0.185 0.41064 0.46794 0.0
H402 H 1.00207 0.62311 0.48848 0.0
H403 H 1.02078 0.5934 0.5449 0.0
H404 H 0.05711 0.67303 0.52383 0.0
H405 H 0.0743 0.31227 0.49317 0.0
H406 H 0.04692 0.3444 0.43839 0.0
H407 H 0.11826 0.31345 0.45108 0.0
H408 H 0.92308 0.36748 0.55943 0.0
H409 H 0.87765 0.43739 0.42342 0.0
H410 H 0.0482 0.46832 0.58204 0.0
H411 H 0.06557 0.37357 0.5645 0.0
H412 H 1.01257 0.3842 0.5989 0.0
H413 H 0.99289 0.55665 0.41751 0.0
H414 H 0.93903 0.50121 0.3842 0.0
H415 H 1.00832 0.4623 0.39825 0.0
C416 C 1.01757 0.03241 0.327 0.0
C417 C 0.03088 0.96462 0.35219 0.0
C418 C 1.01714 0.03288 0.28118 0.0
C419 C 0.03025 0.96387 0.25996 0.0
C420 C 0.04394 0.89527 0.28508 0.0
C421 C 0.04419 0.89647 0.33099 0.0
C422 C 1.0026 0.10731 0.25546 0.0
C423 C 0.05814 0.82065 0.26343 0.0
C424 C 0.97908 0.95344 0.13637 0.0
C425 C 1.02682 0.97471 0.11912 0.0
C426 C 0.97997 0.94779 0.18221 0.0
C427 C 0.02971 0.96404 0.2114 0.0
C428 C 0.07825 -0.01578 0.19422 0.0
C429 C 0.07625 -0.01079 0.14826 0.0
C430 C 0.92742 0.92595 0.19943 0.0
C431 C 0.13199 0.00224 0.2244 0.0
H432 H 1.00745 0.08549 0.34304 0.0
H433 H 0.05457 0.84385 0.35018 0.0
H434 H 0.03736 0.12467 0.23821 0.0
H435 H 0.96571 0.09801 0.22969 0.0
H436 H 0.99362 0.15606 0.27703 0.0
H437 H 0.06793 0.77237 0.28767 0.0
H438 H 1.02287 0.80276 0.23791 0.0
H439 H 0.09439 0.82993 0.24632 0.0
H440 H 0.94077 0.94184 0.11409 0.0
H441 H 0.11337 0.00553 0.13523 0.0
H442 H 0.91397 0.97492 0.21879 0.0
H443 H 0.93517 0.87521 0.2221 0.0
H444 H 0.89296 0.91144 0.17232 0.0
H445 H 0.12642 0.05413 0.24475 0.0
H446 H 0.16662 0.0137 0.20573 0.0
H447 H 0.14391 0.95305 0.24756 0.0
C448 C 1.02468 0.9245 0.82833 0.0
C449 C 0.03384 -0.0062 0.85253 0.0
C450 C 1.02703 0.92275 0.7829 0.0
C451 C 0.03867 -0.00798 0.76109 0.0
C452 C 0.04889 0.06192 0.78536 0.0
C453 C 0.04649 0.06195 0.83088 0.0
C454 C 1.01618 0.84699 0.7581 0.0
C455 C 0.06135 0.1369 0.76308 0.0
C456 C 0.0855 0.97148 0.64925 0.0
C457 C 0.03565 -0.01586 0.6202 0.0
C458 C 0.08734 0.975 0.69528 0.0
C459 C 0.03818 -0.00838 0.71253 0.0
C460 C 0.98793 0.00546 0.68339 0.0
C461 C 0.98726 0.00153 0.63758 0.0
C462 C 0.14164 0.9598 0.72545 0.0
C463 C 0.93464 0.02332 0.70061 0.0
H464 H 1.01534 0.87137 0.84481 0.0
H465 H 0.05375 0.11572 0.84933 0.0
H466 H 0.97879 0.85284 0.73235 0.0
H467 H 0.05157 0.8326 0.74088 0.0
H468 H 1.00967 0.79773 0.78028 0.0
H469 H 0.07026 0.18561 0.78695 0.0
H470 H 0.09756 0.12892 0.74577 0.0
H471 H 1.02547 0.15341 0.73766 0.0
H472 H 0.12308 0.95809 0.63608 0.0
H473 H 0.94856 0.01158 0.61539 0.0
H474 H 0.13769 0.90779 0.74628 0.0
H475 H 0.15215 0.00968 0.74818 0.0
H476 H 0.17647 0.95008 0.70675 0.0
H477 H 0.9234 0.97357 0.72057 0.0
H478 H 0.89948 0.03502 0.6735 0.0
H479 H 0.94037 0.07475 0.72271 0.0
C480 C 0.52946 0.5561 0.33391 0.0
C481 C 0.5418 0.48468 0.35568 0.0
C482 C 0.52882 0.56332 0.28809 0.0
C483 C 0.54062 0.49751 0.26344 0.0
C484 C 0.55397 0.42563 0.2853 0.0
C485 C 0.55452 0.42012 0.33113 0.0
C486 C 0.51476 0.64107 0.26595 0.0
C487 C 0.56673 0.3541 0.26013 0.0
C488 C 0.48495 0.48955 0.14027 0.0
C489 C 0.53245 0.50694 0.12167 0.0
C490 C 0.48691 0.48734 0.18635 0.0
C491 C 0.53754 0.50304 0.21456 0.0
C492 C 0.58542 0.52182 0.19605 0.0
C493 C 0.58233 0.52346 0.14981 0.0
C494 C 0.43495 0.46701 0.20485 0.0
C495 C 0.6401 0.53915 0.22509 0.0
H496 H 0.51986 0.60645 0.35257 0.0
H497 H 0.56421 0.36469 0.34757 0.0
H498 H 0.54836 0.65941 0.2477 0.0
H499 H 0.47624 0.63599 0.24135 0.0
H500 H 0.50862 0.68725 0.29006 0.0
H501 H 0.57774 0.3031 0.28222 0.0
H502 H 0.5302 0.33876 0.23515 0.0
H503 H 0.60168 0.36599 0.24196 0.0
H504 H 0.44619 0.47679 0.11884 0.0
H505 H 0.61922 0.53713 0.13577 0.0
H506 H 0.42495 0.51388 0.22718 0.0
H507 H 0.44185 0.41292 0.22488 0.0
H508 H 0.39857 0.45829 0.17843 0.0
H509 H 0.63491 0.58734 0.24814 0.0
H510 H 0.67297 0.55544 0.20553 0.0
H511 H 0.65431 0.48739 0.24559 0.0
C512 C 0.57716 0.41991 0.65167 0.0
C513 C 0.53033 0.44444 0.62202 0.0
C514 C 0.57744 0.42079 0.69759 0.0
C515 C 0.5299 0.44729 0.71426 0.0
C516 C 0.48216 0.47077 0.68451 0.0
C517 C 0.48288 0.46883 0.63875 0.0
C518 C 0.629 0.39479 0.72829 0.0
C519 C 0.43074 0.49969 0.70104 0.0
C520 C 0.51323 0.39903 0.83278 0.0
C521 C 0.53044 0.46856 0.85472 0.0
C522 C 0.51318 0.39098 0.78709 0.0
C523 C 0.53091 0.45383 0.76285 0.0
C524 C 0.54899 0.52372 0.78489 0.0
C525 C 0.54849 0.53026 0.83051 0.0
C526 C 0.49365 0.31554 0.76468 0.0
C527 C 0.56844 0.59195 0.76021 0.0
H528 H 0.61389 0.40052 0.63905 0.0
H529 H 0.4465 0.48789 0.61612 0.0
H530 H 0.64654 0.44435 0.74912 0.0
H531 H 0.61848 0.34867 0.75099 0.0
H532 H 0.66145 0.37212 0.71001 0.0
H533 H 0.39633 0.51286 0.67356 0.0
H534 H 0.4162 0.45563 0.72312 0.0
H535 H 0.44061 0.55329 0.72087 0.0
H536 H 0.49924 0.35101 0.85118 0.0
H537 H 0.56219 0.58407 0.84715 0.0
H538 H 0.52658 0.29081 0.7477 0.0
H539 H 0.45689 0.3265 0.73896 0.0
H540 H 0.48237 0.27161 0.78841 0.0
H541 H 0.6036 0.57401 0.74357 0.0
H542 H 0.58198 0.64178 0.78237 0.0
H543 H 0.53447 0.61191 0.73402 0.0
loop_
_geom_bond_atom_site_label_1
_geom_bond_atom_site_label_2
_geom_bond_distance
_geom_bond_site_symmetry_2
_ccdc_geom_bond_type
Tb0 C9 2.764 . S
Tb0 O10 2.325 1_545 S
Tb0 O13 2.303 1_554 S
Tb0 O17 2.322 1_455 S
Tb0 O18 2.349 . S
Tb0 O21 2.415 1_554 S
Tb0 O22 2.399 . S
Tb1 O11 2.322 1_655 S
Tb1 O12 2.349 . S
Tb1 O14 2.415 1_556 S
Tb1 O15 2.399 . S
Tb1 O16 2.325 1_565 S
Tb1 O19 2.303 1_556 S
Tb1 C30 2.764 . S
C2 O18 1.261 . S
C2 O19 1.257 1_445 S
C3 C6 1.358 . S
C3 C7 1.332 1_554 S
C3 C9 1.504 . S
C4 C5 1.382 . S
C4 C8 1.301 1_554 S
C5 C4 1.382 . S
C5 C6 1.429 . S
C5 H32 0.932 . S
C6 C3 1.358 . S
C6 C5 1.429 . S
C6 H33 0.930 . S
C7 C3 1.332 1_556 S
C7 C8 1.394 . S
C7 H34 0.932 . S
C8 C4 1.301 1_556 S
C8 C7 1.394 . S
C8 H35 0.929 . S
C9 Tb0 2.764 . S
C9 C3 1.504 . S
C9 O21 1.239 1_554 S
C9 O22 1.263 . S
O10 Tb0 2.325 1_565 S
O10 C20 1.236 . S
O11 Tb1 2.322 1_455 S
O11 C20 1.257 1_556 S
O12 Tb1 2.349 . S
O12 C23 1.261 . S
O13 Tb0 2.303 1_556 S
O13 C23 1.257 1_445 S
O14 Tb1 2.415 1_554 S
O14 C30 1.239 1_554 S
O15 Tb1 2.399 . S
O15 C30 1.263 . S
O16 Tb1 2.325 1_545 S
O16 C31 1.236 . S
O17 Tb0 2.322 1_655 S
O17 C31 1.257 1_554 S
O18 Tb0 2.349 . S
O18 C2 1.261 . S
O19 Tb1 2.303 1_554 S
O19 C2 1.257 1_665 S
C20 O10 1.236 . S
C20 O11 1.257 1_554 S
O21 Tb0 2.415 1_556 S
O21 C9 1.239 1_556 S
O22 Tb0 2.399 . S
O22 C9 1.263 . S
C23 O12 1.261 . S
C23 O13 1.257 1_665 S
C24 C27 1.358 . S
C24 C28 1.332 1_556 S
C24 C30 1.504 . S
C25 C26 1.373 . S
C25 C29 1.308 1_556 S
C26 C25 1.373 . S
C26 C27 1.429 . S
C26 H36 0.932 . S
C27 C24 1.358 . S
C27 C26 1.429 . S
C27 H37 0.930 . S
C28 C24 1.332 1_554 S
C28 C29 1.394 . S
C28 H38 0.932 . S
C29 C25 1.308 1_554 S
C29 C28 1.394 . S
C29 H39 0.929 . S
C30 Tb1 2.764 . S
C30 O14 1.239 1_556 S
C30 O15 1.263 . S
C30 C24 1.504 . S
C31 O16 1.236 . S
C31 O17 1.257 1_556 S
H32 C5 0.932 . S
H33 C6 0.930 . S
H34 C7 0.932 . S
H35 C8 0.929 . S
H36 C26 0.932 . S
H37 C27 0.930 . S
H38 C28 0.932 . S
H39 C29 0.929 . S
Tb40 C49 2.764 . S
Tb40 O50 2.325 1_545 S
Tb40 O53 2.303 . S
Tb40 O57 2.322 1_655 S
Tb40 O58 2.349 . S
Tb40 O61 2.415 . S
Tb40 O62 2.399 . S
Tb41 O51 2.322 1_455 S
Tb41 O52 2.349 . S
Tb41 O54 2.415 . S
Tb41 O55 2.399 . S
Tb41 O56 2.325 1_565 S
Tb41 O59 2.303 . S
Tb41 C70 2.764 . S
C42 O58 1.261 . S
C42 O59 1.257 1_645 S
C43 C46 1.358 . S
C43 C47 1.332 . S
C43 C49 1.504 . S
C44 C45 1.373 . S
C44 C48 1.308 . S
C45 C44 1.373 . S
C45 C46 1.429 . S
C45 H72 0.932 . S
C46 C43 1.358 . S
C46 C45 1.429 . S
C46 H73 0.930 . S
C47 C43 1.332 . S
C47 C48 1.394 . S
C47 H74 0.932 . S
C48 C44 1.308 . S
C48 C47 1.394 . S
C48 H75 0.929 . S
C49 Tb40 2.764 . S
C49 C43 1.504 . S
C49 O61 1.239 . S
C49 O62 1.263 . S
O50 Tb40 2.325 1_565 S
O50 C60 1.236 . S
O51 Tb41 2.322 1_655 S
O51 C60 1.257 . S
O52 Tb41 2.349 . S
O52 C63 1.261 . S
O53 Tb40 2.303 . S
O53 C63 1.257 1_645 S
O54 Tb41 2.415 . S
O54 C70 1.239 . S
O55 Tb41 2.399 . S
O55 C70 1.263 . S
O56 Tb41 2.325 1_545 S
O56 C71 1.236 . S
O57 Tb40 2.322 1_455 S
O57 C71 1.257 . S
O58 Tb40 2.349 . S
O58 C42 1.261 . S
O59 Tb41 2.303 . S
O59 C42 1.257 1_465 S
C60 O50 1.236 . S
C60 O51 1.257 . S
O61 Tb40 2.415 . S
O61 C49 1.239 . S
O62 Tb40 2.399 . S
O62 C49 1.263 . S
C63 O52 1.261 . S
C63 O53 1.257 1_465 S
C64 C67 1.358 . S
C64 C68 1.332 . S
C64 C70 1.504 . S
C65 C66 1.373 . S
C65 C69 1.308 . S
C66 C65 1.373 . S
C66 C67 1.429 . S
C66 H76 0.932 . S
C67 C64 1.358 . S
C67 C66 1.429 . S
C67 H77 0.930 . S
C68 C64 1.332 . S
C68 C69 1.394 . S
C68 H78 0.932 . S
C69 C65 1.308 . S
C69 C68 1.394 . S
C69 H79 0.929 . S
C70 Tb41 2.764 . S
C70 O54 1.239 . S
C70 O55 1.263 . S
C70 C64 1.504 . S
C71 O56 1.236 . S
C71 O57 1.257 . S
H72 C45 0.932 . S
H73 C46 0.930 . S
H74 C47 0.932 . S
H75 C48 0.929 . S
H76 C66 0.932 . S
H77 C67 0.930 . S
H78 C68 0.932 . S
H79 C69 0.929 . S
Tb80 C89 2.764 . S
Tb80 O90 2.325 . S
Tb80 O93 2.303 1_554 S
Tb80 O97 2.322 . S
Tb80 O98 2.349 . S
Tb80 O101 2.415 1_554 S
Tb80 O102 2.399 . S
Tb81 O91 2.322 . S
Tb81 O92 2.349 . S
Tb81 O94 2.415 1_556 S
Tb81 O95 2.399 . S
Tb81 O96 2.325 . S
Tb81 O99 2.303 1_556 S
Tb81 C110 2.764 . S
C82 O98 1.261 . S
C82 O99 1.257 . S
C83 C86 1.358 . S
C83 C87 1.332 1_554 S
C83 C89 1.504 . S
C84 C85 1.382 . S
C84 C88 1.301 1_554 S
C85 C84 1.382 . S
C85 C86 1.429 . S
C85 H112 0.932 . S
C86 C83 1.358 . S
C86 C85 1.429 . S
C86 H113 0.930 . S
C87 C83 1.332 1_556 S
C87 C88 1.394 . S
C87 H114 0.932 . S
C88 C84 1.301 1_556 S
C88 C87 1.394 . S
C88 H115 0.929 . S
C89 Tb80 2.764 . S
C89 C83 1.504 . S
C89 O101 1.239 1_554 S
C89 O102 1.263 . S
O90 Tb80 2.325 . S
O90 C100 1.236 . S
O91 Tb81 2.322 . S
O91 C100 1.257 1_556 S
O92 Tb81 2.349 . S
O92 C103 1.261 . S
O93 Tb80 2.303 1_556 S
O93 C103 1.257 . S
O94 Tb81 2.415 1_554 S
O94 C110 1.239 1_554 S
O95 Tb81 2.399 . S
O95 C110 1.263 . S
O96 Tb81 2.325 . S
O96 C111 1.236 . S
O97 Tb80 2.322 . S
O97 C111 1.257 1_554 S
O98 Tb80 2.349 . S
O98 C82 1.261 . S
O99 Tb81 2.303 1_554 S
O99 C82 1.257 . S
C100 O90 1.236 . S
C100 O91 1.257 1_554 S
O101 Tb80 2.415 1_556 S
O101 C89 1.239 1_556 S
O102 Tb80 2.399 . S
O102 C89 1.263 . S
C103 O92 1.261 . S
C103 O93 1.257 . S
C104 C107 1.358 . S
C104 C108 1.332 1_556 S
C104 C110 1.504 . S
C105 C106 1.373 . S
C105 C109 1.308 1_556 S
C106 C105 1.373 . S
C106 C107 1.429 . S
C106 H116 0.932 . S
C107 C104 1.358 . S
C107 C106 1.429 . S
C107 H117 0.930 . S
C108 C104 1.332 1_554 S
C108 C109 1.394 . S
C108 H118 0.932 . S
C109 C105 1.308 1_554 S
C109 C108 1.394 . S
C109 H119 0.929 . S
C110 Tb81 2.764 . S
C110 O94 1.239 1_556 S
C110 O95 1.263 . S
C110 C104 1.504 . S
C111 O96 1.236 . S
C111 O97 1.257 1_556 S
H112 C85 0.932 . S
H113 C86 0.930 . S
H114 C87 0.932 . S
H115 C88 0.929 . S
H116 C106 0.932 . S
H117 C107 0.930 . S
H118 C108 0.932 . S
H119 C109 0.929 . S
Tb120 C129 2.764 . S
Tb120 O130 2.325 . S
Tb120 O133 2.303 . S
Tb120 O137 2.322 . S
Tb120 O138 2.349 . S
Tb120 O141 2.415 . S
Tb120 O142 2.399 . S
Tb121 O131 2.322 . S
Tb121 O132 2.349 . S
Tb121 O134 2.415 . S
Tb121 O135 2.399 . S
Tb121 O136 2.325 . S
Tb121 O139 2.303 . S
Tb121 C150 2.764 . S
C122 O138 1.261 . S
C122 O139 1.257 . S
C123 C126 1.358 . S
C123 C127 1.332 . S
C123 C129 1.504 . S
C124 C125 1.373 . S
C124 C128 1.308 . S
C125 C124 1.373 . S
C125 C126 1.429 . S
C125 H152 0.932 . S
C126 C123 1.358 . S
C126 C125 1.429 . S
C126 H153 0.930 . S
C127 C123 1.332 . S
C127 C128 1.394 . S
C127 H154 0.932 . S
C128 C124 1.308 . S
C128 C127 1.394 . S
C128 H155 0.929 . S
C129 Tb120 2.764 . S
C129 C123 1.504 . S
C129 O141 1.239 . S
C129 O142 1.263 . S
O130 Tb120 2.325 . S
O130 C140 1.236 . S
O131 Tb121 2.322 . S
O131 C140 1.257 . S
O132 Tb121 2.349 . S
O132 C143 1.261 . S
O133 Tb120 2.303 . S
O133 C143 1.257 . S
O134 Tb121 2.415 . S
O134 C150 1.239 . S
O135 Tb121 2.399 . S
O135 C150 1.263 . S
O136 Tb121 2.325 . S
O136 C151 1.236 . S
O137 Tb120 2.322 . S
O137 C151 1.257 . S
O138 Tb120 2.349 . S
O138 C122 1.261 . S
O139 Tb121 2.303 . S
O139 C122 1.257 . S
C140 O130 1.236 . S
C140 O131 1.257 . S
O141 Tb120 2.415 . S
O141 C129 1.239 . S
O142 Tb120 2.399 . S
O142 C129 1.263 . S
C143 O132 1.261 . S
C143 O133 1.257 . S
C144 C147 1.358 . S
C144 C148 1.332 . S
C144 C150 1.504 . S
C145 C146 1.373 . S
C145 C149 1.308 . S
C146 C145 1.373 . S
C146 C147 1.429 . S
C146 H156 0.932 . S
C147 C144 1.358 . S
C147 C146 1.429 . S
C147 H157 0.930 . S
C148 C144 1.332 . S
C148 C149 1.394 . S
C148 H158 0.932 . S
C149 C145 1.308 . S
C149 C148 1.394 . S
C149 H159 0.929 . S
C150 Tb121 2.764 . S
C150 O134 1.239 . S
C150 O135 1.263 . S
C150 C144 1.504 . S
C151 O136 1.236 . S
C151 O137 1.257 . S
H152 C125 0.932 . S
H153 C126 0.930 . S
H154 C127 0.932 . S
H155 C128 0.929 . S
H156 C146 0.932 . S
H157 C147 0.930 . S
H158 C148 0.932 . S
H159 C149 0.929 . S
C160 C161 1.391 1_556 S
C160 C162 1.394 . S
C160 H176 0.931 . S
C161 C160 1.391 1_554 S
C161 C165 1.376 . S
C162 C160 1.394 . S
C162 C163 1.369 1_556 S
C162 C166 1.531 . S
C163 C162 1.369 1_554 S
C163 C164 1.410 . S
C163 C171 1.503 . S
C164 C163 1.410 . S
C164 C165 1.392 . S
C164 C167 1.511 . S
C165 C161 1.376 . S
C165 C164 1.392 . S
C165 H177 0.929 . S
C166 C162 1.531 . S
C166 H178 0.960 . S
C166 H179 0.962 . S
C166 H180 0.960 . S
C167 C164 1.511 . S
C167 H181 0.961 . S
C167 H182 0.961 . S
C167 H183 0.961 . S
C168 C169 1.349 1_556 S
C168 C170 1.363 . S
C168 H184 0.931 . S
C169 C168 1.349 1_554 S
C169 C173 1.428 . S
C170 C168 1.363 . S
C170 C171 1.370 1_556 S
C170 C174 1.524 . S
C171 C163 1.503 . S
C171 C170 1.370 1_554 S
C171 C172 1.403 . S
C172 C171 1.403 . S
C172 C173 1.404 . S
C172 C175 1.539 . S
C173 C169 1.428 . S
C173 C172 1.404 . S
C173 H185 0.930 . S
C174 C170 1.524 . S
C174 H186 0.956 . S
C174 H187 0.961 . S
C174 H188 0.961 . S
C175 C172 1.539 . S
C175 H189 0.958 . S
C175 H190 0.961 . S
C175 H191 0.960 . S
H176 C160 0.931 . S
H177 C165 0.929 . S
H178 C166 0.960 . S
H179 C166 0.962 . S
H180 C166 0.960 . S
H181 C167 0.961 . S
H182 C167 0.961 . S
H183 C167 0.961 . S
H184 C168 0.931 . S
H185 C173 0.930 . S
H186 C174 0.956 . S
H187 C174 0.961 . S
H188 C174 0.961 . S
H189 C175 0.958 . S
H190 C175 0.961 . S
H191 C175 0.960 . S
C192 C193 1.391 1_554 S
C192 C194 1.394 . S
C192 H208 0.931 . S
C193 C192 1.391 1_556 S
C193 C197 1.376 . S
C194 C192 1.394 . S
C194 C195 1.369 1_554 S
C194 C198 1.531 . S
C195 C194 1.369 1_556 S
C195 C196 1.410 . S
C195 C203 1.503 . S
C196 C195 1.410 . S
C196 C197 1.392 . S
C196 C199 1.511 . S
C197 C193 1.376 . S
C197 C196 1.392 . S
C197 H209 0.929 . S
C198 C194 1.531 . S
C198 H210 0.960 . S
C198 H211 0.962 . S
C198 H212 0.960 . S
C199 C196 1.511 . S
C199 H213 0.961 . S
C199 H214 0.961 . S
C199 H215 0.961 . S
C200 C201 1.357 1_554 S
C200 C202 1.363 . S
C200 H216 0.931 . S
C201 C200 1.357 1_556 S
C201 C205 1.421 . S
C202 C200 1.363 . S
C202 C203 1.370 1_554 S
C202 C206 1.524 . S
C203 C195 1.503 . S
C203 C202 1.370 1_556 S
C203 C204 1.403 . S
C204 C203 1.403 . S
C204 C205 1.404 . S
C204 C207 1.539 . S
C205 C201 1.421 . S
C205 C204 1.404 . S
C205 H217 0.930 . S
C206 C202 1.524 . S
C206 H218 0.956 . S
C206 H219 0.961 . S
C206 H220 0.961 . S
C207 C204 1.539 . S
C207 H221 0.958 . S
C207 H222 0.961 . S
C207 H223 0.960 . S
H208 C192 0.931 . S
H209 C197 0.929 . S
H210 C198 0.960 . S
H211 C198 0.962 . S
H212 C198 0.960 . S
H213 C199 0.961 . S
H214 C199 0.961 . S
H215 C199 0.961 . S
H216 C200 0.931 . S
H217 C205 0.930 . S
H218 C206 0.956 . S
H219 C206 0.961 . S
H220 C206 0.961 . S
H221 C207 0.958 . S
H222 C207 0.961 . S
H223 C207 0.960 . S
C224 C225 1.391 . S
C224 C226 1.394 . S
C224 H240 0.931 . S
C225 C224 1.391 . S
C225 C229 1.376 . S
C226 C224 1.394 . S
C226 C227 1.369 . S
C226 C230 1.531 . S
C227 C226 1.369 . S
C227 C228 1.410 . S
C227 C235 1.503 . S
C228 C227 1.410 . S
C228 C229 1.392 . S
C228 C231 1.511 . S
C229 C225 1.376 . S
C229 C228 1.392 . S
C229 H241 0.929 . S
C230 C226 1.531 . S
C230 H242 0.960 . S
C230 H243 0.962 . S
C230 H244 0.960 . S
C231 C228 1.511 . S
C231 H245 0.961 . S
C231 H246 0.961 . S
C231 H247 0.961 . S
C232 C233 1.370 . S
C232 C234 1.363 . S
C232 H248 0.931 . S
C233 C232 1.370 . S
C233 C237 1.408 . S
C234 C232 1.363 . S
C234 C235 1.370 . S
C234 C238 1.524 . S
C235 C227 1.503 . S
C235 C234 1.370 . S
C235 C236 1.403 . S
C236 C235 1.403 . S
C236 C237 1.404 . S
C236 C239 1.539 . S
C237 C233 1.408 . S
C237 C236 1.404 . S
C237 H249 0.930 . S
C238 C234 1.524 . S
C238 H250 0.956 . S
C238 H251 0.961 . S
C238 H252 0.961 . S
C239 C236 1.539 . S
C239 H253 0.958 . S
C239 H254 0.961 . S
C239 H255 0.960 . S
H240 C224 0.931 . S
H241 C229 0.929 . S
H242 C230 0.960 . S
H243 C230 0.962 . S
H244 C230 0.960 . S
H245 C231 0.961 . S
H246 C231 0.961 . S
H247 C231 0.961 . S
H248 C232 0.931 . S
H249 C237 0.930 . S
H250 C238 0.956 . S
H251 C238 0.961 . S
H252 C238 0.961 . S
H253 C239 0.958 . S
H254 C239 0.961 . S
H255 C239 0.960 . S
C256 C257 1.391 . S
C256 C258 1.394 . S
C256 H272 0.931 . S
C257 C256 1.391 . S
C257 C261 1.376 . S
C258 C256 1.394 . S
C258 C259 1.369 . S
C258 C262 1.531 . S
C259 C258 1.369 . S
C259 C260 1.410 . S
C259 C267 1.503 . S
C260 C259 1.410 . S
C260 C261 1.392 . S
C260 C263 1.511 . S
C261 C257 1.376 . S
C261 C260 1.392 . S
C261 H273 0.929 . S
C262 C258 1.531 . S
C262 H274 0.960 . S
C262 H275 0.962 . S
C262 H276 0.960 . S
C263 C260 1.511 . S
C263 H277 0.961 . S
C263 H278 0.961 . S
C263 H279 0.961 . S
C264 C265 1.370 . S
C264 C266 1.363 . S
C264 H280 0.931 . S
C265 C264 1.370 . S
C265 C269 1.408 . S
C266 C264 1.363 . S
C266 C267 1.370 . S
C266 C270 1.524 . S
C267 C259 1.503 . S
C267 C266 1.370 . S
C267 C268 1.403 . S
C268 C267 1.403 . S
C268 C269 1.404 . S
C268 C271 1.539 . S
C269 C265 1.408 . S
C269 C268 1.404 . S
C269 H281 0.930 . S
C270 C266 1.524 . S
C270 H282 0.956 . S
C270 H283 0.961 . S
C270 H284 0.961 . S
C271 C268 1.539 . S
C271 H285 0.958 . S
C271 H286 0.961 . S
C271 H287 0.960 . S
H272 C256 0.931 . S
H273 C261 0.929 . S
H274 C262 0.960 . S
H275 C262 0.962 . S
H276 C262 0.960 . S
H277 C263 0.961 . S
H278 C263 0.961 . S
H279 C263 0.961 . S
H280 C264 0.931 . S
H281 C269 0.930 . S
H282 C270 0.956 . S
H283 C270 0.961 . S
H284 C270 0.961 . S
H285 C271 0.958 . S
H286 C271 0.961 . S
H287 C271 0.960 . S
C288 C289 1.391 . S
C288 C290 1.394 . S
C288 H304 0.931 . S
C289 C288 1.391 . S
C289 C293 1.376 1_554 S
C290 C288 1.394 . S
C290 C291 1.369 . S
C290 C294 1.531 . S
C291 C290 1.369 . S
C291 C292 1.410 1_545 S
C291 C299 1.503 1_545 S
C292 C291 1.410 1_565 S
C292 C293 1.393 1_564 S
C292 C295 1.510 1_554 S
C293 C289 1.376 1_556 S
C293 C292 1.393 1_546 S
C293 H305 0.929 . S
C294 C290 1.531 . S
C294 H306 0.960 . S
C294 H307 0.962 . S
C294 H308 0.960 . S
C295 C292 1.510 1_556 S
C295 H309 0.961 . S
C295 H310 0.961 . S
C295 H311 0.961 1_556 S
C296 C297 1.357 1_556 S
C296 C298 1.363 . S
C296 H312 0.931 . S
C297 C296 1.357 1_554 S
C297 C301 1.426 . S
C298 C296 1.363 . S
C298 C299 1.370 1_556 S
C298 C302 1.524 1_565 S
C299 C291 1.503 1_565 S
C299 C298 1.370 1_554 S
C299 C300 1.403 . S
C300 C299 1.403 . S
C300 C301 1.404 . S
C300 C303 1.539 . S
C301 C297 1.426 . S
C301 C300 1.404 . S
C301 H313 0.930 . S
C302 C298 1.524 1_545 S
C302 H314 0.956 . S
C302 H315 0.961 1_545 S
C302 H316 0.961 1_545 S
C303 C300 1.539 . S
C303 H317 0.958 . S
C303 H318 0.961 . S
C303 H319 0.960 . S
H304 C288 0.931 . S
H305 C293 0.929 . S
H306 C294 0.960 . S
H307 C294 0.962 . S
H308 C294 0.960 . S
H309 C295 0.961 . S
H310 C295 0.961 . S
H311 C295 0.961 1_554 S
H312 C296 0.931 . S
H313 C301 0.930 . S
H314 C302 0.956 . S
H315 C302 0.961 1_565 S
H316 C302 0.961 1_565 S
H317 C303 0.958 . S
H318 C303 0.961 . S
H319 C303 0.960 . S
C320 C321 1.391 . S
C320 C322 1.394 . S
C320 H336 0.931 . S
C321 C320 1.391 . S
C321 C325 1.376 . S
C322 C320 1.394 . S
C322 C323 1.369 . S
C322 C326 1.531 1_565 S
C323 C322 1.369 . S
C323 C324 1.410 . S
C323 C331 1.503 1_565 S
C324 C323 1.410 . S
C324 C325 1.392 . S
C324 C327 1.511 . S
C325 C321 1.376 . S
C325 C324 1.392 . S
C325 H337 0.929 . S
C326 C322 1.531 1_545 S
C326 H338 0.960 . S
C326 H339 0.962 . S
C326 H340 0.960 . S
C327 C324 1.511 . S
C327 H341 0.961 . S
C327 H342 0.961 . S
C327 H343 0.961 . S
C328 C329 1.370 . S
C328 C330 1.363 . S
C328 H344 0.931 . S
C329 C328 1.370 . S
C329 C333 1.408 . S
C330 C328 1.363 . S
C330 C331 1.370 . S
C330 C334 1.524 . S
C331 C323 1.503 1_545 S
C331 C330 1.370 . S
C331 C332 1.403 1_545 S
C332 C331 1.403 1_565 S
C332 C333 1.404 1_565 S
C332 C335 1.539 . S
C333 C329 1.408 . S
C333 C332 1.404 1_545 S
C333 H345 0.930 . S
C334 C330 1.524 . S
C334 H346 0.956 . S
C334 H347 0.961 . S
C334 H348 0.961 . S
C335 C332 1.539 . S
C335 H349 0.958 . S
C335 H350 0.961 . S
C335 H351 0.960 . S
H336 C320 0.931 . S
H337 C325 0.929 . S
H338 C326 0.960 . S
H339 C326 0.962 . S
H340 C326 0.960 . S
H341 C327 0.961 . S
H342 C327 0.961 . S
H343 C327 0.961 . S
H344 C328 0.931 . S
H345 C333 0.930 . S
H346 C334 0.956 . S
H347 C334 0.961 . S
H348 C334 0.961 . S
H349 C335 0.958 . S
H350 C335 0.961 . S
H351 C335 0.960 . S
C352 C353 1.391 1_554 S
C352 C354 1.394 . S
C352 H368 0.931 . S
C353 C352 1.391 1_556 S
C353 C357 1.376 . S
C354 C352 1.394 . S
C354 C355 1.369 1_554 S
C354 C358 1.531 . S
C355 C354 1.369 1_556 S
C355 C356 1.410 . S
C355 C363 1.503 1_655 S
C356 C355 1.410 . S
C356 C357 1.392 . S
C356 C359 1.511 1_655 S
C357 C353 1.376 . S
C357 C356 1.392 . S
C357 H369 0.929 . S
C358 C354 1.531 . S
C358 H370 0.960 . S
C358 H371 0.962 . S
C358 H372 0.960 . S
C359 C356 1.511 1_455 S
C359 H373 0.961 . S
C359 H374 0.961 . S
C359 H375 0.961 . S
C360 C361 1.370 1_554 S
C360 C362 1.363 . S
C360 H376 0.931 . S
C361 C360 1.370 1_556 S
C361 C365 1.408 . S
C362 C360 1.363 . S
C362 C363 1.370 1_554 S
C362 C366 1.524 . S
C363 C355 1.503 1_455 S
C363 C362 1.370 1_556 S
C363 C364 1.403 . S
C364 C363 1.403 . S
C364 C365 1.404 . S
C364 C367 1.539 1_455 S
C365 C361 1.408 . S
C365 C364 1.404 . S
C365 H377 0.930 . S
C366 C362 1.524 . S
C366 H378 0.956 . S
C366 H379 0.961 . S
C366 H380 0.961 . S
C367 C364 1.539 1_655 S
C367 H381 0.958 . S
C367 H382 0.961 1_655 S
C367 H383 0.960 . S
H368 C352 0.931 . S
H369 C357 0.929 . S
H370 C358 0.960 . S
H371 C358 0.962 . S
H372 C358 0.960 . S
H373 C359 0.961 . S
H374 C359 0.961 . S
H375 C359 0.961 . S
H376 C360 0.931 . S
H377 C365 0.930 . S
H378 C366 0.956 . S
H379 C366 0.961 . S
H380 C366 0.961 . S
H381 C367 0.958 . S
H382 C367 0.961 1_455 S
H383 C367 0.960 . S
C384 C385 1.391 . S
C384 C386 1.394 . S
C384 H400 0.931 . S
C385 C384 1.391 . S
C385 C389 1.376 . S
C386 C384 1.394 . S
C386 C387 1.369 . S
C386 C390 1.531 1_455 S
C387 C386 1.369 . S
C387 C388 1.410 . S
C387 C395 1.503 1_455 S
C388 C387 1.410 . S
C388 C389 1.392 . S
C388 C391 1.511 . S
C389 C385 1.376 . S
C389 C388 1.392 . S
C389 H401 0.929 . S
C390 C386 1.531 1_655 S
C390 H402 0.960 . S
C390 H403 0.962 . S
C390 H404 0.960 . S
C391 C388 1.511 . S
C391 H405 0.961 . S
C391 H406 0.961 . S
C391 H407 0.961 . S
C392 C393 1.370 . S
C392 C394 1.363 . S
C392 H408 0.931 . S
C393 C392 1.370 . S
C393 C397 1.408 . S
C394 C392 1.363 . S
C394 C395 1.370 . S
C394 C398 1.524 . S
C395 C387 1.503 1_655 S
C395 C394 1.370 . S
C395 C396 1.403 . S
C396 C395 1.403 . S
C396 C397 1.404 . S
C396 C399 1.539 . S
C397 C393 1.408 . S
C397 C396 1.404 . S
C397 H409 0.930 . S
C398 C394 1.524 . S
C398 H410 0.956 . S
C398 H411 0.961 1_655 S
C398 H412 0.961 . S
C399 C396 1.539 . S
C399 H413 0.958 . S
C399 H414 0.961 . S
C399 H415 0.960 . S
H400 C384 0.931 . S
H401 C389 0.929 . S
H402 C390 0.960 . S
H403 C390 0.962 . S
H404 C390 0.960 . S
H405 C391 0.961 . S
H406 C391 0.961 . S
H407 C391 0.961 . S
H408 C392 0.931 . S
H409 C397 0.930 . S
H410 C398 0.956 . S
H411 C398 0.961 1_455 S
H412 C398 0.961 . S
H413 C399 0.958 . S
H414 C399 0.961 . S
H415 C399 0.960 . S
C416 C417 1.391 1_655 S
C416 C418 1.394 . S
C416 H432 0.931 . S
C417 C416 1.391 1_455 S
C417 C421 1.376 1_545 S
C418 C416 1.394 . S
C418 C419 1.369 1_655 S
C418 C422 1.531 . S
C419 C418 1.369 1_455 S
C419 C420 1.410 1_545 S
C419 C427 1.503 . S
C420 C419 1.410 1_565 S
C420 C421 1.392 . S
C420 C423 1.511 . S
C421 C417 1.376 1_565 S
C421 C420 1.392 . S
C421 H433 0.929 . S
C422 C418 1.531 . S
C422 H434 0.960 . S
C422 H435 0.962 . S
C422 H436 0.960 . S
C423 C420 1.511 . S
C423 H437 0.961 . S
C423 H438 0.961 . S
C423 H439 0.961 . S
C424 C425 1.370 1_665 S
C424 C426 1.363 . S
C424 H440 0.931 . S
C425 C424 1.370 1_445 S
C425 C429 1.408 . S
C426 C424 1.363 . S
C426 C427 1.370 1_665 S
C426 C430 1.524 . S
C427 C419 1.503 . S
C427 C426 1.370 1_445 S
C427 C428 1.403 . S
C428 C427 1.403 . S
C428 C429 1.404 . S
C428 C431 1.539 . S
C429 C425 1.408 . S
C429 C428 1.404 . S
C429 H441 0.930 . S
C430 C426 1.524 . S
C430 H442 0.956 . S
C430 H443 0.961 . S
C430 H444 0.961 . S
C431 C428 1.539 . S
C431 H445 0.958 . S
C431 H446 0.961 . S
C431 H447 0.960 . S
H432 C416 0.931 . S
H433 C421 0.929 . S
H434 C422 0.960 . S
H435 C422 0.962 . S
H436 C422 0.960 . S
H437 C423 0.961 . S
H438 C423 0.961 . S
H439 C423 0.961 . S
H440 C424 0.931 . S
H441 C429 0.930 . S
H442 C430 0.956 . S
H443 C430 0.961 . S
H444 C430 0.961 . S
H445 C431 0.958 . S
H446 C431 0.961 . S
H447 C431 0.960 . S
C448 C449 1.391 1_455 S
C448 C450 1.394 . S
C448 H464 0.931 . S
C449 C448 1.391 1_655 S
C449 C453 1.376 1_565 S
C450 C448 1.394 . S
C450 C451 1.369 1_455 S
C450 C454 1.531 . S
C451 C450 1.369 1_655 S
C451 C452 1.410 1_565 S
C451 C459 1.503 . S
C452 C451 1.410 1_545 S
C452 C453 1.392 . S
C452 C455 1.511 . S
C453 C449 1.376 1_545 S
C453 C452 1.392 . S
C453 H465 0.929 . S
C454 C450 1.531 . S
C454 H466 0.960 . S
C454 H467 0.962 . S
C454 H468 0.960 . S
C455 C452 1.511 . S
C455 H469 0.961 . S
C455 H470 0.961 . S
C455 H471 0.961 . S
C456 C457 1.370 1_445 S
C456 C458 1.363 . S
C456 H472 0.931 . S
C457 C456 1.370 1_665 S
C457 C461 1.408 . S
C458 C456 1.363 . S
C458 C459 1.370 1_445 S
C458 C462 1.524 . S
C459 C451 1.503 . S
C459 C458 1.370 1_665 S
C459 C460 1.403 . S
C460 C459 1.403 . S
C460 C461 1.404 . S
C460 C463 1.539 . S
C461 C457 1.408 . S
C461 C460 1.404 . S
C461 H473 0.930 . S
C462 C458 1.524 . S
C462 H474 0.956 . S
C462 H475 0.961 . S
C462 H476 0.961 . S
C463 C460 1.539 . S
C463 H477 0.958 . S
C463 H478 0.961 . S
C463 H479 0.960 . S
H464 C448 0.931 . S
H465 C453 0.929 . S
H466 C454 0.960 . S
H467 C454 0.962 . S
H468 C454 0.960 . S
H469 C455 0.961 . S
H470 C455 0.961 . S
H471 C455 0.961 . S
H472 C456 0.931 . S
H473 C461 0.930 . S
H474 C462 0.956 . S
H475 C462 0.961 . S
H476 C462 0.961 . S
H477 C463 0.958 . S
H478 C463 0.961 . S
H479 C463 0.960 . S
C480 C481 1.391 . S
C480 C482 1.394 . S
C480 H496 0.931 . S
C481 C480 1.391 . S
C481 C485 1.376 . S
C482 C480 1.394 . S
C482 C483 1.369 . S
C482 C486 1.531 . S
C483 C482 1.369 . S
C483 C484 1.410 . S
C483 C491 1.503 . S
C484 C483 1.410 . S
C484 C485 1.392 . S
C484 C487 1.511 . S
C485 C481 1.376 . S
C485 C484 1.392 . S
C485 H497 0.929 . S
C486 C482 1.531 . S
C486 H498 0.960 . S
C486 H499 0.962 . S
C486 H500 0.960 . S
C487 C484 1.511 . S
C487 H501 0.961 . S
C487 H502 0.961 . S
C487 H503 0.961 . S
C488 C489 1.370 . S
C488 C490 1.363 . S
C488 H504 0.931 . S
C489 C488 1.370 . S
C489 C493 1.408 . S
C490 C488 1.363 . S
C490 C491 1.370 . S
C490 C494 1.524 . S
C491 C483 1.503 . S
C491 C490 1.370 . S
C491 C492 1.403 . S
C492 C491 1.403 . S
C492 C493 1.404 . S
C492 C495 1.539 . S
C493 C489 1.408 . S
C493 C492 1.404 . S
C493 H505 0.930 . S
C494 C490 1.524 . S
C494 H506 0.956 . S
C494 H507 0.961 . S
C494 H508 0.961 . S
C495 C492 1.539 . S
C495 H509 0.958 . S
C495 H510 0.961 . S
C495 H511 0.960 . S
H496 C480 0.931 . S
H497 C485 0.929 . S
H498 C486 0.960 . S
H499 C486 0.962 . S
H500 C486 0.960 . S
H501 C487 0.961 . S
H502 C487 0.961 . S
H503 C487 0.961 . S
H504 C488 0.931 . S
H505 C493 0.930 . S
H506 C494 0.956 . S
H507 C494 0.961 . S
H508 C494 0.961 . S
H509 C495 0.958 . S
H510 C495 0.961 . S
H511 C495 0.960 . S
C512 C513 1.391 . S
C512 C514 1.394 . S
C512 H528 0.931 . S
C513 C512 1.391 . S
C513 C517 1.376 . S
C514 C512 1.394 . S
C514 C515 1.369 . S
C514 C518 1.531 . S
C515 C514 1.369 . S
C515 C516 1.410 . S
C515 C523 1.503 . S
C516 C515 1.410 . S
C516 C517 1.392 . S
C516 C519 1.511 . S
C517 C513 1.376 . S
C517 C516 1.392 . S
C517 H529 0.929 . S
C518 C514 1.531 . S
C518 H530 0.960 . S
C518 H531 0.962 . S
C518 H532 0.960 . S
C519 C516 1.511 . S
C519 H533 0.961 . S
C519 H534 0.961 . S
C519 H535 0.961 . S
C520 C521 1.370 . S
C520 C522 1.363 . S
C520 H536 0.931 . S
C521 C520 1.370 . S
C521 C525 1.408 . S
C522 C520 1.363 . S
C522 C523 1.370 . S
C522 C526 1.524 . S
C523 C515 1.503 . S
C523 C522 1.370 . S
C523 C524 1.403 . S
C524 C523 1.403 . S
C524 C525 1.404 . S
C524 C527 1.539 . S
C525 C521 1.408 . S
C525 C524 1.404 . S
C525 H537 0.930 . S
C526 C522 1.524 . S
C526 H538 0.956 . S
C526 H539 0.961 . S
C526 H540 0.961 . S
C527 C524 1.539 . S
C527 H541 0.958 . S
C527 H542 0.961 . S
C527 H543 0.960 . S
H528 C512 0.931 . S
H529 C517 0.929 . S
H530 C518 0.960 . S
H531 C518 0.962 . S
H532 C518 0.960 . S
H533 C519 0.961 . S
H534 C519 0.961 . S
H535 C519 0.961 . S
H536 C520 0.931 . S
H537 C525 0.930 . S
H538 C526 0.956 . S
H539 C526 0.961 . S
H540 C526 0.961 . S
H541 C527 0.958 . S
H542 C527 0.961 . S
H543 C527 0.960 . S
C161 C111 1.632 1_554 S
C169 C20 1.645 . S
C193 C100 1.651 1_556 S
C201 C31 1.637 . S
C225 C71 1.653 . S
C233 C140 1.631 . S
C257 C60 1.631 . S
C265 C151 1.641 . S
C289 C4 1.472 . S
C297 C25 1.488 1_554 S
C321 C65 1.519 . S
C329 C44 1.467 . S
C353 C84 1.462 1_556 S
C361 C105 1.489 . S
C385 C124 1.478 . S
C393 C145 1.489 . S
C417 C42 1.466 1_455 S
C425 C2 1.455 . S
C449 C23 1.440 . S
C457 C63 1.466 1_655 S
C481 C122 1.486 . S
C489 C82 1.460 . S
C513 C143 1.435 . S
C521 C103 1.471 . S
