# Generated by pormake.
# Topology whk, (6)-cn, num edge types: 1
# Building blocks:
#     Node 0, Type 0, BuildingBlock: OJICUG_clean_sbu_0, # of connection points: 6
#     Node 1, Type 0, BuildingBlock: OJICUG_clean_sbu_0, # of connection points: 6
#     Node 2, Type 0, BuildingBlock: OJICUG_clean_sbu_0, # of connection points: 6
#     Node 3, Type 0, BuildingBlock: OJICUG_clean_sbu_0, # of connection points: 6
#     Node 4, Type 0, BuildingBlock: OJICUG_clean_sbu_0, # of connection points: 6
#     Node 5, Type 0, BuildingBlock: OJICUG_clean_sbu_0, # of connection points: 6
#     Node 6, Type 0, BuildingBlock: OJICUG_clean_sbu_0, # of connection points: 6
#     Node 7, Type 0, BuildingBlock: OJICUG_clean_sbu_0, # of connection points: 6
#     Node 8, Type 0, BuildingBlock: OJICUG_clean_sbu_0, # of connection points: 6
#     Node 9, Type 0, BuildingBlock: OJICUG_clean_sbu_0, # of connection points: 6
#     Node 10, Type 0, BuildingBlock: OJICUG_clean_sbu_0, # of connection points: 6
#     Node 11, Type 0, BuildingBlock: OJICUG_clean_sbu_0, # of connection points: 6
#     Node 12, Type 0, BuildingBlock: OJICUG_clean_sbu_0, # of connection points: 6
#     Node 13, Type 0, BuildingBlock: OJICUG_clean_sbu_0, # of connection points: 6
#     Node 14, Type 0, BuildingBlock: OJICUG_clean_sbu_0, # of connection points: 6
#     Node 15, Type 0, BuildingBlock: OJICUG_clean_sbu_0, # of connection points: 6
#     Edge 16, Type (0, 0), BuildingBlock: KIFKEQ_clean_linker_1, # of connection points: 2
#     Edge 17, Type (0, 0), BuildingBlock: KIFKEQ_clean_linker_1, # of connection points: 2
#     Edge 18, Type (0, 0), BuildingBlock: KIFKEQ_clean_linker_1, # of connection points: 2
#     Edge 19, Type (0, 0), BuildingBlock: KIFKEQ_clean_linker_1, # of connection points: 2
#     Edge 20, Type (0, 0), BuildingBlock: KIFKEQ_clean_linker_1, # of connection points: 2
#     Edge 21, Type (0, 0), BuildingBlock: KIFKEQ_clean_linker_1, # of connection points: 2
#     Edge 22, Type (0, 0), BuildingBlock: KIFKEQ_clean_linker_1, # of connection points: 2
#     Edge 23, Type (0, 0), BuildingBlock: KIFKEQ_clean_linker_1, # of connection points: 2
#     Edge 24, Type (0, 0), BuildingBlock: KIFKEQ_clean_linker_1, # of connection points: 2
#     Edge 25, Type (0, 0), BuildingBlock: KIFKEQ_clean_linker_1, # of connection points: 2
#     Edge 26, Type (0, 0), BuildingBlock: KIFKEQ_clean_linker_1, # of connection points: 2
#     Edge 27, Type (0, 0), BuildingBlock: KIFKEQ_clean_linker_1, # of connection points: 2
#     Edge 28, Type (0, 0), BuildingBlock: KIFKEQ_clean_linker_1, # of connection points: 2
#     Edge 29, Type (0, 0), BuildingBlock: KIFKEQ_clean_linker_1, # of connection points: 2
#     Edge 30, Type (0, 0), BuildingBlock: KIFKEQ_clean_linker_1, # of connection points: 2
#     Edge 31, Type (0, 0), BuildingBlock: KIFKEQ_clean_linker_1, # of connection points: 2
#     Edge 32, Type (0, 0), BuildingBlock: KIFKEQ_clean_linker_1, # of connection points: 2
#     Edge 33, Type (0, 0), BuildingBlock: KIFKEQ_clean_linker_1, # of connection points: 2
#     Edge 34, Type (0, 0), BuildingBlock: KIFKEQ_clean_linker_1, # of connection points: 2
#     Edge 35, Type (0, 0), BuildingBlock: KIFKEQ_clean_linker_1, # of connection points: 2
#     Edge 36, Type (0, 0), BuildingBlock: KIFKEQ_clean_linker_1, # of connection points: 2
#     Edge 37, Type (0, 0), BuildingBlock: KIFKEQ_clean_linker_1, # of connection points: 2
#     Edge 38, Type (0, 0), BuildingBlock: KIFKEQ_clean_linker_1, # of connection points: 2
#     Edge 39, Type (0, 0), BuildingBlock: KIFKEQ_clean_linker_1, # of connection points: 2
#     Edge 40, Type (0, 0), BuildingBlock: KIFKEQ_clean_linker_1, # of connection points: 2
#     Edge 41, Type (0, 0), BuildingBlock: KIFKEQ_clean_linker_1, # of connection points: 2
#     Edge 42, Type (0, 0), BuildingBlock: KIFKEQ_clean_linker_1, # of connection points: 2
#     Edge 43, Type (0, 0), BuildingBlock: KIFKEQ_clean_linker_1, # of connection points: 2
#     Edge 44, Type (0, 0), BuildingBlock: KIFKEQ_clean_linker_1, # of connection points: 2
#     Edge 45, Type (0, 0), BuildingBlock: KIFKEQ_clean_linker_1, # of connection points: 2
#     Edge 46, Type (0, 0), BuildingBlock: KIFKEQ_clean_linker_1, # of connection points: 2
#     Edge 47, Type (0, 0), BuildingBlock: KIFKEQ_clean_linker_1, # of connection points: 2
#     Edge 48, Type (0, 0), BuildingBlock: KIFKEQ_clean_linker_1, # of connection points: 2
#     Edge 49, Type (0, 0), BuildingBlock: KIFKEQ_clean_linker_1, # of connection points: 2
#     Edge 50, Type (0, 0), BuildingBlock: KIFKEQ_clean_linker_1, # of connection points: 2
#     Edge 51, Type (0, 0), BuildingBlock: KIFKEQ_clean_linker_1, # of connection points: 2
#     Edge 52, Type (0, 0), BuildingBlock: KIFKEQ_clean_linker_1, # of connection points: 2
#     Edge 53, Type (0, 0), BuildingBlock: KIFKEQ_clean_linker_1, # of connection points: 2
#     Edge 54, Type (0, 0), BuildingBlock: KIFKEQ_clean_linker_1, # of connection points: 2
#     Edge 55, Type (0, 0), BuildingBlock: KIFKEQ_clean_linker_1, # of connection points: 2
#     Edge 56, Type (0, 0), BuildingBlock: KIFKEQ_clean_linker_1, # of connection points: 2
#     Edge 57, Type (0, 0), BuildingBlock: KIFKEQ_clean_linker_1, # of connection points: 2
#     Edge 58, Type (0, 0), BuildingBlock: KIFKEQ_clean_linker_1, # of connection points: 2
#     Edge 59, Type (0, 0), BuildingBlock: KIFKEQ_clean_linker_1, # of connection points: 2
#     Edge 60, Type (0, 0), BuildingBlock: KIFKEQ_clean_linker_1, # of connection points: 2
#     Edge 61, Type (0, 0), BuildingBlock: KIFKEQ_clean_linker_1, # of connection points: 2
#     Edge 62, Type (0, 0), BuildingBlock: KIFKEQ_clean_linker_1, # of connection points: 2
#     Edge 63, Type (0, 0), BuildingBlock: KIFKEQ_clean_linker_1, # of connection points: 2
# Relax obj value: 0.277
# Max RMSD: 0.215
# Mean RMSD: 0.215
data_MOF--net-whk--node1-OJICUG_clean_sbu_0--edge1-KIFKEQ_clean_linker_1
_symmetry_space_group_name_H-M    P1
_symmetry_Int_Tables_number       1
_symmetry_cell_setting            triclinic
loop_
_symmetry_equiv_pos_as_xyz
'x, y, z'
_cell_length_a     37.114499
_cell_length_b     37.134197
_cell_length_c     54.904663
_cell_angle_alpha  89.968477
_cell_angle_beta   90.015101
_cell_angle_gamma 89.848038
loop_
_atom_site_label
_atom_site_type_symbol
_atom_site_fract_x
_atom_site_fract_y
_atom_site_fract_z
_atom_type_partial_charge
Sc0 Sc 0.56895 0.13842 0.39873 0.0
Sc1 Sc 0.57799 0.22657 0.37854 0.0
Sc2 Sc 0.51534 0.20508 0.42352 0.0
O3 O 0.55338 0.19021 0.39981 0.0
C4 C 0.48576 0.13197 0.39952 0.0
C5 C 0.57853 0.16246 0.34268 0.0
C6 C 0.49628 0.25563 0.37983 0.0
C7 C 0.64143 0.17835 0.39884 0.0
C8 C 0.55608 0.14808 0.45502 0.0
C9 C 0.57187 0.26971 0.42793 0.0
O10 O 0.51508 0.12301 0.389 0.0
O11 O 0.56852 0.19499 0.34594 0.0
O12 O 0.48573 0.2333 0.3959 0.0
O13 O 0.62207 0.15491 0.4094 0.0
O14 O 0.54392 0.1799 0.45316 0.0
O15 O 0.59087 0.26033 0.40965 0.0
O16 O 0.55817 0.12727 0.43673 0.0
O17 O 0.62935 0.20019 0.38292 0.0
O18 O 0.54243 0.25426 0.43352 0.0
O19 O 0.58326 0.14087 0.36045 0.0
O20 O 0.48387 0.15734 0.41522 0.0
O21 O 0.52892 0.25728 0.37263 0.0
Sc22 Sc 0.35937 0.57073 0.39557 0.0
Sc23 Sc 0.2666 0.58007 0.38147 0.0
Sc24 Sc 0.29485 0.51715 0.42521 0.0
O25 O 0.30696 0.55576 0.40047 0.0
C26 C 0.36347 0.48526 0.39696 0.0
C27 C 0.32931 0.58115 0.34142 0.0
C28 C 0.23922 0.4997 0.38183 0.0
C29 C 0.31683 0.64451 0.39891 0.0
C30 C 0.35766 0.55836 0.45313 0.0
C31 C 0.23018 0.5714 0.43431 0.0
O32 O 0.37603 0.51548 0.39 0.0
O33 O 0.29623 0.58204 0.34747 0.0
O34 O 0.25668 0.49218 0.40114 0.0
O35 O 0.34592 0.62674 0.40149 0.0
O36 O 0.32953 0.53904 0.45307 0.0
O37 O 0.23111 0.5841 0.41279 0.0
O38 O 0.37227 0.56935 0.43365 0.0
O39 O 0.28739 0.63125 0.39134 0.0
O40 O 0.25263 0.54806 0.44183 0.0
O41 O 0.35458 0.57641 0.35666 0.0
O42 O 0.3356 0.48221 0.41031 0.0
O43 O 0.24168 0.52996 0.37103 0.0
Sc44 Sc 0.92716 0.35905 0.39961 0.0
Sc45 Sc 0.92187 0.26928 0.38057 0.0
Sc46 Sc 0.9837 0.29479 0.42554 0.0
O47 O 0.94476 0.30753 0.40157 0.0
C48 C 0.01098 0.36745 0.39978 0.0
C49 C 0.91891 0.33343 0.34374 0.0
C50 C 0.00429 0.24277 0.38226 0.0
C51 C 0.85575 0.31608 0.39964 0.0
C52 C 0.94014 0.35193 0.45636 0.0
C53 C 0.93025 0.22796 0.43104 0.0
O54 O 0.98074 0.37705 0.39083 0.0
O55 O 0.92808 0.30072 0.34735 0.0
O56 O 0.01358 0.26443 0.39907 0.0
O57 O 0.87382 0.34154 0.40901 0.0
O58 O 0.95585 0.32162 0.45504 0.0
O59 O 0.91208 0.23451 0.41182 0.0
O60 O 0.93472 0.37124 0.43764 0.0
O61 O 0.86918 0.29204 0.38583 0.0
O62 O 0.95753 0.24636 0.43735 0.0
O63 O 0.91505 0.35562 0.36119 0.0
O64 O 0.0146 0.34149 0.41484 0.0
O65 O 0.97224 0.24129 0.37397 0.0
Sc66 Sc 0.20679 0.97933 0.42513 0.0
Sc67 Sc 0.22811 0.91466 0.38122 0.0
Sc68 Sc 0.13896 0.92686 0.39999 0.0
O69 O 0.1914 0.94093 0.40166 0.0
C70 C 0.14817 0.93937 0.45655 0.0
C71 C 0.27044 0.9215 0.43105 0.0
C72 C 0.17757 0.85279 0.40086 0.0
C73 C 0.25866 0.99549 0.38139 0.0
C74 C 0.13485 0.01083 0.40015 0.0
C75 C 0.16456 0.91617 0.34422 0.0
O76 O 0.17955 0.95271 0.45495 0.0
O77 O 0.26148 0.90246 0.41273 0.0
O78 O 0.15361 0.87285 0.41029 0.0
O79 O 0.2371 0.00712 0.39763 0.0
O80 O 0.12399 0.98132 0.39086 0.0
O81 O 0.19775 0.92287 0.34804 0.0
O82 O 0.16102 0.01268 0.41521 0.0
O83 O 0.25939 0.96271 0.37455 0.0
O84 O 0.14167 0.91403 0.36145 0.0
O85 O 0.25476 0.95094 0.43644 0.0
O86 O 0.12785 0.93622 0.43806 0.0
O87 O 0.20139 0.86408 0.38613 0.0
Sc88 Sc 0.07032 0.86006 0.12454 0.0
Sc89 Sc 0.08055 0.76175 0.14128 0.0
Sc90 Sc 0.02009 0.79275 0.09546 0.0
O91 O 0.05759 0.80465 0.121 0.0
C92 C 0.98668 0.86293 0.12162 0.0
C93 C 0.08176 0.82852 0.17907 0.0
C94 C 0.99675 0.74043 0.13853 0.0
C95 C 0.12431 0.8163 0.11549 0.0
C96 C 0.06222 0.85374 0.06756 0.0
C97 C 0.07139 0.72315 0.09003 0.0
O98 O 0.01509 0.87209 0.13298 0.0
O99 O 0.07897 0.79493 0.17417 0.0
O100 O 0.98905 0.76042 0.12037 0.0
O101 O 0.1266 0.8499 0.1157 0.0
O102 O 0.04982 0.82191 0.06799 0.0
O103 O 0.08716 0.72596 0.11049 0.0
O104 O 0.06278 0.87343 0.08649 0.0
O105 O 0.09235 0.8046 0.11835 0.0
O106 O 0.04725 0.74502 0.08284 0.0
O107 O 0.08053 0.85327 0.16299 0.0
O108 O 0.98656 0.8386 0.10522 0.0
O109 O 0.02806 0.73903 0.14804 0.0
Sc110 Sc 0.70741 0.01818 0.09492 0.0
Sc111 Sc 0.72842 0.08048 0.14025 0.0
Sc112 Sc 0.6406 0.07185 0.11941 0.0
O113 O 0.69235 0.05615 0.11866 0.0
C114 C 0.65175 0.06049 0.0632 0.0
C115 C 0.77323 0.07337 0.09177 0.0
C116 C 0.68087 0.14427 0.11959 0.0
C117 C 0.75682 -0.00155 0.13901 0.0
C118 C 0.63365 0.98889 0.11786 0.0
C119 C 0.6635 0.08115 0.17563 0.0
O120 O 0.68343 0.04785 0.06512 0.0
O121 O 0.76323 0.09295 0.1096 0.0
O122 O 0.65737 0.125 0.10901 0.0
O123 O 0.73456 0.98784 0.12286 0.0
O124 O 0.62495 0.01789 0.12885 0.0
O125 O 0.69613 0.07125 0.17259 0.0
O126 O 0.65894 0.98734 0.1021 0.0
O127 O 0.75844 0.03109 0.14619 0.0
O128 O 0.64221 0.08591 0.15771 0.0
O129 O 0.75741 0.04427 0.08598 0.0
O130 O 0.63045 0.06141 0.08129 0.0
O131 O 0.70264 0.13213 0.13554 0.0
Sc132 Sc 0.47734 0.70483 0.09336 0.0
Sc133 Sc 0.41611 0.73517 0.1378 0.0
Sc134 Sc 0.42439 0.642 0.12528 0.0
O135 O 0.43939 0.69403 0.11901 0.0
C136 C 0.43266 0.64275 0.06722 0.0
C137 C 0.4232 0.77032 0.08453 0.0
C138 C 0.34986 0.68402 0.12572 0.0
C139 C 0.49745 0.76116 0.13545 0.0
C140 C 0.50965 0.63533 0.12036 0.0
C141 C 0.41885 0.67413 0.17909 0.0
O142 O 0.4523 0.67067 0.06645 0.0
O143 O 0.40962 0.76919 0.10581 0.0
O144 O 0.36764 0.65507 0.12249 0.0
O145 O 0.5052 0.74204 0.1169 0.0
O146 O 0.47973 0.6246 0.12903 0.0
O147 O 0.41714 0.70695 0.17243 0.0
O148 O 0.51229 0.6627 0.10653 0.0
O149 O 0.46675 0.76053 0.14575 0.0
O150 O 0.42254 0.64822 0.16423 0.0
O151 O 0.44723 0.74827 0.07751 0.0
O152 O 0.42255 0.62857 0.08713 0.0
O153 O 0.36388 0.71405 0.13121 0.0
Sc154 Sc 0.78742 0.48114 0.09751 0.0
Sc155 Sc 0.76996 0.41644 0.14174 0.0
Sc156 Sc 0.85693 0.43 0.12081 0.0
O157 O 0.80459 0.44333 0.12059 0.0
C158 C 0.84434 0.44244 0.065 0.0
C159 C 0.72491 0.42228 0.09345 0.0
C160 C 0.82014 0.35603 0.12002 0.0
C161 C 0.73733 0.49697 0.14154 0.0
C162 C 0.86011 0.51312 0.12054 0.0
C163 C 0.83456 0.41772 0.17697 0.0
O164 O 0.81202 0.45303 0.06741 0.0
O165 O 0.73653 0.40247 0.11072 0.0
O166 O 0.84221 0.37675 0.10931 0.0
O167 O 0.75978 0.50931 0.12612 0.0
O168 O 0.87009 0.48422 0.13121 0.0
O169 O 0.8017 0.42702 0.1741 0.0
O170 O 0.83474 0.51395 0.10477 0.0
O171 O 0.73671 0.46387 0.14787 0.0
O172 O 0.85594 0.4141 0.15895 0.0
O173 O 0.73836 0.45293 0.08852 0.0
O174 O 0.86624 0.44276 0.08279 0.0
O175 O 0.79911 0.36658 0.1369 0.0
Sc176 Sc 0.4814 0.78852 0.59555 0.0
Sc177 Sc 0.41665 0.76523 0.63919 0.0
Sc178 Sc 0.42839 0.85553 0.62178 0.0
O179 O 0.4426 0.80293 0.61927 0.0
C180 C 0.51258 0.85985 0.62097 0.0
C181 C 0.49817 0.73569 0.63907 0.0
C182 C 0.41733 0.82872 0.67717 0.0
C183 C 0.42577 0.72364 0.58909 0.0
C184 C 0.44017 0.84769 0.56495 0.0
C185 C 0.3539 0.81667 0.62014 0.0
O186 O 0.51451 0.83383 0.60588 0.0
O187 O 0.46562 0.73533 0.64654 0.0
O188 O 0.41697 0.85225 0.66032 0.0
O189 O 0.45403 0.74095 0.58346 0.0
O190 O 0.4363 0.8673 0.5837 0.0
O191 O 0.36546 0.79029 0.63271 0.0
O192 O 0.45451 0.81664 0.5661 0.0
O193 O 0.40675 0.73119 0.60771 0.0
O194 O 0.37371 0.84207 0.61241 0.0
O195 O 0.50931 0.75706 0.62256 0.0
O196 O 0.48304 0.87049 0.63039 0.0
O197 O 0.422 0.79528 0.67291 0.0
Sc198 Sc 0.64143 0.42199 0.62354 0.0
Sc199 Sc 0.73133 0.41688 0.64271 0.0
Sc200 Sc 0.70644 0.47549 0.5953 0.0
O201 O 0.69322 0.43835 0.62068 0.0
C202 C 0.64947 0.42946 0.56592 0.0
C203 C 0.68213 0.34923 0.62924 0.0
C204 C 0.77315 0.42075 0.59225 0.0
C205 C 0.66676 0.41984 0.67968 0.0
C206 C 0.63303 0.50605 0.61824 0.0
C207 C 0.75814 0.49872 0.63812 0.0
O208 O 0.63091 0.42371 0.58496 0.0
O209 O 0.70826 0.3643 0.64013 0.0
O210 O 0.75509 0.44786 0.58501 0.0
O211 O 0.64421 0.416 0.66246 0.0
O212 O 0.6596 0.50809 0.60359 0.0
O213 O 0.75948 0.46719 0.6472 0.0
O214 O 0.62385 0.47683 0.62866 0.0
O215 O 0.70003 0.42627 0.67572 0.0
O216 O 0.73664 0.5073 0.62098 0.0
O217 O 0.65676 0.36643 0.61886 0.0
O218 O 0.67934 0.44607 0.56662 0.0
O219 O 0.76607 0.40385 0.6119 0.0
Sc220 Sc 0.06939 0.64061 0.61893 0.0
Sc221 Sc 0.08108 0.72765 0.64003 0.0
Sc222 Sc 0.01686 0.70894 0.59562 0.0
O223 O 0.05492 0.69262 0.61879 0.0
C224 C 0.05597 0.65224 0.56333 0.0
C225 C 0.14238 0.67942 0.6176 0.0
C226 C 0.07423 0.77288 0.59163 0.0
C227 C 0.08226 0.66281 0.67492 0.0
C228 C 0.98639 0.63572 0.61905 0.0
C229 C -0.00016 0.75824 0.64012 0.0
O230 O 0.05567 0.63067 0.58125 0.0
O231 O 0.13152 0.69984 0.63472 0.0
O232 O 0.04417 0.75839 0.58638 0.0
O233 O 0.0863 0.64182 0.65678 0.0
O234 O 0.98506 0.66103 0.60323 0.0
O235 O 0.03283 0.75924 0.64667 0.0
O236 O 0.01552 0.62638 0.62974 0.0
O237 O 0.07168 0.6953 0.6723 0.0
O238 O 0.98812 0.73637 0.6241 0.0
O239 O 0.12213 0.65681 0.60694 0.0
O240 O 0.0454 0.68458 0.56555 0.0
O241 O 0.09395 0.76203 0.60919 0.0
Sc242 Sc 0.86182 0.07144 0.62443 0.0
Sc243 Sc 0.76267 0.0786 0.63991 0.0
Sc244 Sc 0.79584 0.02059 0.59377 0.0
O245 O 0.80674 0.05755 0.61984 0.0
C246 C 0.85901 0.06242 0.56709 0.0
C247 C 0.81702 0.12503 0.61592 0.0
C248 C 0.72756 0.07246 0.58688 0.0
C249 C 0.82852 0.08082 0.67867 0.0
C250 C 0.86484 0.98702 0.62153 0.0
C251 C 0.7408 0.9962 0.63587 0.0
O252 O 0.87686 0.06679 0.58658 0.0
O253 O 0.80582 0.09282 0.61786 0.0
O254 O 0.75132 0.0506 0.57916 0.0
O255 O 0.8537 0.07954 0.66292 0.0
O256 O 0.83931 0.98593 0.60598 0.0
O257 O 0.74061 0.02604 0.6473 0.0
O258 O 0.87518 0.01606 0.63167 0.0
O259 O 0.79505 0.07823 0.67328 0.0
O260 O 0.7598 0.99075 0.61691 0.0
O261 O 0.85057 0.12789 0.61682 0.0
O262 O 0.82814 0.04791 0.56699 0.0
O263 O 0.72726 0.08422 0.60866 0.0
Sc264 Sc 0.92533 0.13786 0.89918 0.0
Sc265 Sc 0.91358 0.22927 0.88311 0.0
Sc266 Sc 0.97824 0.20409 0.92677 0.0
O267 O 0.93932 0.19054 0.9027 0.0
C268 C 0.93857 0.14286 0.95643 0.0
C269 C 0.85074 0.17769 0.90209 0.0
C270 C 0.92229 0.26842 0.93481 0.0
C271 C 0.91327 0.16583 0.84426 0.0
C272 C 0.01018 0.13399 0.90001 0.0
C273 C 0.99457 0.25781 0.88269 0.0
O274 O 0.93106 0.12523 0.93731 0.0
O275 O 0.86259 0.20593 0.89175 0.0
O276 O 0.94868 0.24885 0.9413 0.0
O277 O 0.91547 0.14168 0.86058 0.0
O278 O 0.0125 0.16061 0.91457 0.0
O279 O 0.96285 0.25691 0.8738 0.0
O280 O 0.98035 0.12307 0.89124 0.0
O281 O 0.91546 0.19929 0.84913 0.0
O282 O 0.00427 0.23879 0.90087 0.0
O283 O 0.87002 0.1505 0.90746 0.0
O284 O 0.95449 0.17299 0.95567 0.0
O285 O 0.9064 0.26439 0.91444 0.0
Sc286 Sc 0.35816 0.92954 0.89625 0.0
Sc287 Sc 0.26701 0.91862 0.87977 0.0
Sc288 Sc 0.29177 0.98467 0.92217 0.0
O289 O 0.30556 0.94464 0.89905 0.0
C290 C 0.35174 0.94427 0.9531 0.0
C291 C 0.31809 0.85549 0.89866 0.0
C292 C 0.22732 0.92919 0.93086 0.0
C293 C 0.33028 0.91792 0.84116 0.0
C294 C 0.36325 0.01412 0.89577 0.0
C295 C 0.23817 -1e-05 0.87842 0.0
O296 O 0.37018 0.93667 0.93432 0.0
O297 O 0.29081 0.86755 0.88733 0.0
O298 O 0.24529 0.95715 0.93621 0.0
O299 O 0.35429 0.91875 0.85769 0.0
O300 O 0.33618 0.01747 0.90987 0.0
O301 O 0.23804 0.96745 0.87109 0.0
O302 O 0.37438 0.98386 0.88782 0.0
O303 O 0.2968 0.92162 0.84576 0.0
O304 O 0.25872 0.01118 0.89536 0.0
O305 O 0.34461 0.8747 0.90528 0.0
O306 O 0.32146 0.96016 0.95179 0.0
O307 O 0.23325 0.91073 0.91172 0.0
Sc308 Sc 0.5705 0.35973 0.90243 0.0
Sc309 Sc 0.58014 0.27279 0.88022 0.0
Sc310 Sc 0.5182 0.29157 0.92622 0.0
O311 O 0.55539 0.30784 0.90246 0.0
C312 C 0.55865 0.34805 0.95839 0.0
C313 C 0.64283 0.31961 0.90174 0.0
C314 C 0.57594 0.22751 0.92887 0.0
C315 C 0.58017 0.33824 0.84595 0.0
C316 C 0.48706 0.36447 0.90264 0.0
C317 C 0.49917 0.24222 0.88188 0.0
O318 O 0.55938 0.36957 0.94045 0.0
O319 O 0.63091 0.30021 0.88445 0.0
O320 O 0.54661 0.24264 0.93525 0.0
O321 O 0.58533 0.35877 0.86419 0.0
O322 O 0.4856 0.33872 0.91811 0.0
O323 O 0.53161 0.2414 0.87418 0.0
O324 O 0.51637 0.37522 0.89291 0.0
O325 O 0.5693 0.30589 0.84849 0.0
O326 O 0.48872 0.26363 0.89854 0.0
O327 O 0.62342 0.34223 0.91314 0.0
O328 O 0.54674 0.31625 0.95618 0.0
O329 O 0.59431 0.23771 0.9105 0.0
Sc330 Sc 0.19827 0.51332 0.92563 0.0
Sc331 Sc 0.22905 0.57265 0.88025 0.0
Sc332 Sc 0.1368 0.57037 0.89624 0.0
O333 O 0.1881 0.55187 0.90047 0.0
C334 C 0.12842 0.48527 0.89713 0.0
C335 C 0.25399 0.49128 0.88332 0.0
C336 C 0.16577 0.57671 0.84119 0.0
C337 C 0.26447 0.5658 0.93377 0.0
C338 C 0.13725 0.55743 0.95356 0.0
C339 C 0.18316 0.64111 0.89698 0.0
O340 O 0.15573 0.48073 0.91089 0.0
O341 O 0.25285 0.52114 0.87198 0.0
O342 O 0.14188 0.57745 0.85769 0.0
O343 O 0.24166 0.54295 0.94134 0.0
O344 O 0.12306 0.56867 0.93403 0.0
O345 O 0.21028 0.62587 0.88733 0.0
O346 O 0.16495 0.5374 0.95356 0.0
O347 O 0.2642 0.57812 0.91205 0.0
O348 O 0.15424 0.62494 0.9028 0.0
O349 O 0.23543 0.48517 0.90234 0.0
O350 O 0.11742 0.51612 0.88997 0.0
O351 O 0.19903 0.57156 0.84599 0.0
H352 H 0.60879 0.09778 0.33025 0.0
H353 H 0.57114 0.19764 0.2986 0.0
H354 H 0.6288 0.07746 0.29041 0.0
H355 H 0.59138 0.17702 0.25852 0.0
H356 H 0.59858 0.11129 0.18764 0.0
H357 H 0.57729 0.13043 0.22745 0.0
H358 H 0.67616 0.09238 0.26003 0.0
H359 H 0.69774 0.07301 0.21998 0.0
C360 C 0.60451 0.11542 0.3148 0.0
C361 C 0.5882 0.14948 0.31779 0.0
C362 C 0.61634 0.10378 0.29192 0.0
C363 C 0.61196 0.12564 0.27126 0.0
C364 C 0.595 0.15939 0.27406 0.0
C365 C 0.58341 0.17126 0.29705 0.0
C366 C 0.61586 0.1067 0.20324 0.0
C367 C 0.65001 0.09045 0.20046 0.0
C368 C 0.60366 0.11803 0.2261 0.0
C369 C 0.62503 0.11318 0.24695 0.0
C370 C 0.65889 0.09632 0.24435 0.0
C371 C 0.67131 0.08525 0.22137 0.0
H372 H 0.45534 0.63119 0.21135 0.0
H373 H 0.35827 0.69362 0.20263 0.0
H374 H 0.43384 0.60924 0.25059 0.0
H375 H 0.33462 0.66921 0.2402 0.0
H376 H 0.30643 0.6403 0.31733 0.0
H377 H 0.33038 0.66558 0.2801 0.0
H378 H 0.39881 0.57165 0.27148 0.0
H379 H 0.37706 0.54871 0.31036 0.0
C380 C 0.42945 0.64037 0.21805 0.0
C381 C 0.40885 0.66474 0.20434 0.0
C382 C 0.41657 0.62722 0.24037 0.0
C383 C 0.38197 0.63684 0.24902 0.0
C384 C 0.36166 0.66153 0.23502 0.0
C385 C 0.37518 0.67569 0.21327 0.0
C386 C 0.32623 0.62491 0.3072 0.0
C387 C 0.33953 0.59233 0.31652 0.0
C388 C 0.34011 0.63937 0.28563 0.0
C389 C 0.36691 0.62102 0.27218 0.0
C390 C 0.37909 0.5875 0.28127 0.0
C391 C 0.36614 0.57377 0.30341 0.0
H392 H 0.92435 0.29724 0.2998 0.0
H393 H 0.8912 0.39901 0.33087 0.0
H394 H 0.90439 0.31817 0.25963 0.0
H395 H 0.87143 0.41951 0.29106 0.0
H396 H 0.80126 0.42623 0.22155 0.0
H397 H 0.82273 0.40565 0.26136 0.0
H398 H 0.91966 0.36438 0.228 0.0
H399 H 0.89847 0.38483 0.18837 0.0
C400 C 0.91313 0.32407 0.29811 0.0
C401 C 0.90951 0.3463 0.31872 0.0
C402 C 0.9017 0.33611 0.27507 0.0
C403 C 0.88601 0.37046 0.27215 0.0
C404 C 0.88285 0.39274 0.29267 0.0
C405 C 0.89455 0.38095 0.31554 0.0
C406 C 0.82724 0.413 0.22271 0.0
C407 C 0.84808 0.40742 0.20164 0.0
C408 C 0.8396 0.40123 0.24555 0.0
C409 C 0.8729 0.3832 0.24787 0.0
C410 C 0.89374 0.37775 0.22685 0.0
C411 C 0.88163 0.38985 0.20411 0.0
H412 H 0.20447 0.88819 0.30667 0.0
H413 H 0.09647 0.92158 0.32551 0.0
H414 H 0.18242 0.86572 0.26748 0.0
H415 H 0.07467 0.89963 0.28621 0.0
H416 H 0.06388 0.89209 0.20094 0.0
H417 H 0.08356 0.91436 0.24064 0.0
H418 H 0.13911 0.81405 0.25394 0.0
H419 H 0.11893 0.7914 0.21427 0.0
C420 C 0.17617 0.89131 0.3023 0.0
C421 C 0.15227 0.90683 0.31922 0.0
C422 C 0.16349 0.87805 0.27998 0.0
C423 C 0.12676 0.88063 0.27386 0.0
C424 C 0.10311 0.89727 0.2904 0.0
C425 C 0.11563 0.90988 0.31289 0.0
C426 C 0.07985 0.87455 0.21247 0.0
C427 C 0.08972 0.83989 0.20446 0.0
C428 C 0.09112 0.88734 0.23521 0.0
C429 C 0.11316 0.8661 0.2503 0.0
C430 C 0.12245 0.83117 0.24257 0.0
C431 C 0.11055 0.81805 0.21999 0.0
H432 H 0.29212 0.88345 0.80529 0.0
H433 H 0.39605 0.93036 0.8205 0.0
H434 H 0.31495 0.8611 0.76621 0.0
H435 H 0.41857 0.90847 0.78139 0.0
H436 H 0.42849 0.89532 0.6968 0.0
H437 H 0.4071 0.91833 0.7359 0.0
H438 H 0.36305 0.81395 0.75305 0.0
H439 H 0.38491 0.79064 0.71397 0.0
C440 C 0.31958 0.88959 0.80012 0.0
C441 C 0.34219 0.90883 0.81601 0.0
C442 C 0.33279 0.8764 0.77787 0.0
C443 C 0.36867 0.88275 0.77082 0.0
C444 C 0.39082 0.90315 0.78628 0.0
C445 C 0.37786 0.91573 0.80868 0.0
C446 C 0.4147 0.87709 0.70905 0.0
C447 C 0.40858 0.84106 0.70227 0.0
C448 C 0.40242 0.89032 0.73144 0.0
C449 C 0.38307 0.86808 0.74747 0.0
C450 C 0.37751 0.83186 0.74096 0.0
C451 C 0.39043 0.8184 0.71871 0.0
H452 H 0.56775 0.30791 0.80083 0.0
H453 H 0.6178 0.39951 0.83551 0.0
H454 H 0.58882 0.32966 0.7612 0.0
H455 H 0.63882 0.42084 0.79611 0.0
H456 H 0.70469 0.42085 0.72313 0.0
H457 H 0.6831 0.40191 0.76335 0.0
H458 H 0.57754 0.38235 0.73328 0.0
H459 H 0.59856 0.40135 0.69349 0.0
C460 C 0.583 0.33271 0.80004 0.0
C461 C 0.59082 0.35194 0.82145 0.0
C462 C 0.59506 0.34522 0.77734 0.0
C463 C 0.61565 0.37695 0.77553 0.0
C464 C 0.62339 0.39615 0.79688 0.0
C465 C 0.61097 0.38397 0.81948 0.0
C466 C 0.67678 0.413 0.72516 0.0
C467 C 0.65354 0.41266 0.70491 0.0
C468 C 0.6644 0.40207 0.7482 0.0
C469 C 0.62868 0.39016 0.75143 0.0
C470 C 0.60533 0.39072 0.73135 0.0
C471 C 0.61748 0.40198 0.70851 0.0
H472 H 0.06957 0.69285 0.72009 0.0
H473 H 0.12149 0.60228 0.68515 0.0
H474 H 0.0906 0.67085 0.75972 0.0
H475 H 0.14252 0.5807 0.72456 0.0
H476 H 0.20586 0.57873 0.7986 0.0
H477 H 0.18576 0.5994 0.75833 0.0
H478 H 0.07877 0.61704 0.78668 0.0
H479 H 0.09826 0.59631 0.82643 0.0
C480 C 0.08531 0.66827 0.72081 0.0
C481 C 0.09353 0.64931 0.69936 0.0
C482 C 0.09735 0.65562 0.74351 0.0
C483 C 0.11835 0.62404 0.74526 0.0
C484 C 0.12673 0.60526 0.72383 0.0
C485 C 0.1143 0.61756 0.70124 0.0
C486 C 0.17798 0.58662 0.79617 0.0
C487 C 0.15384 0.58574 0.81592 0.0
C488 C 0.16647 0.59852 0.77311 0.0
C489 C 0.13073 0.61029 0.7694 0.0
C490 C 0.10657 0.60877 0.789 0.0
C491 C 0.11785 0.5965 0.81182 0.0
H492 H 0.89266 0.06553 0.70072 0.0
H493 H 0.78965 0.11616 0.71398 0.0
H494 H 0.91423 0.08643 0.7402 0.0
H495 H 0.81144 0.13727 0.75364 0.0
H496 H 0.88017 0.20461 0.80789 0.0
H497 H 0.85844 0.18219 0.76859 0.0
H498 H 0.90312 0.07744 0.78471 0.0
H499 H 0.92468 0.09964 0.82388 0.0
C500 C 0.87442 0.08073 0.71221 0.0
C501 C 0.83934 0.08905 0.70417 0.0
C502 C 0.88682 0.09272 0.73487 0.0
C503 C 0.8647 0.11382 0.74999 0.0
C504 C 0.8293 0.12145 0.74227 0.0
C505 C 0.81666 0.10895 0.71969 0.0
C506 C 0.88585 0.17696 0.80289 0.0
C507 C 0.90431 0.154 0.81906 0.0
C508 C 0.87297 0.16399 0.78051 0.0
C509 C 0.87875 0.12793 0.77361 0.0
C510 C 0.89827 0.10536 0.78942 0.0
C511 C 0.91065 0.11814 0.81189 0.0
H512 H 0.47337 0.08738 0.36053 0.0
H513 H 0.42149 0.13447 0.42345 0.0
H514 H 0.41666 0.05869 0.34914 0.0
H515 H 0.36558 0.10515 0.41257 0.0
H516 H 0.26232 0.06892 0.38485 0.0
H517 H 0.31708 0.10492 0.38425 0.0
H518 H 0.37838 0.01111 0.36265 0.0
H519 H 0.32361 0.97561 0.36227 0.0
C520 C 0.44998 0.09141 0.37202 0.0
C521 C 0.45202 0.11314 0.39295 0.0
C522 C 0.41747 0.07504 0.36546 0.0
C523 C 0.38639 0.07992 0.37976 0.0
C524 C 0.38862 0.10156 0.40071 0.0
C525 C 0.42092 0.11806 0.40715 0.0
C526 C 0.28731 0.05628 0.37922 0.0
C527 C 0.2887 0.01926 0.37406 0.0
C528 C 0.31878 0.07681 0.37912 0.0
C529 C 0.35232 0.06063 0.37418 0.0
C530 C 0.35309 0.02449 0.3666 0.0
C531 C 0.32155 0.00407 0.36639 0.0
H532 H 0.43483 0.47363 0.38685 0.0
H533 H 0.33102 0.42149 0.38743 0.0
H534 H 0.46345 0.41654 0.37614 0.0
H535 H 0.35903 0.36504 0.37536 0.0
H536 H 0.42693 0.26551 0.39512 0.0
H537 H 0.39323 0.32111 0.39441 0.0
H538 H 0.47433 0.3693 0.3483 0.0
H539 H 0.50925 0.3137 0.35001 0.0
C540 C 0.41812 0.45006 0.38425 0.0
C541 C 0.38088 0.45175 0.38849 0.0
C542 C 0.43441 0.41737 0.37785 0.0
C543 C 0.41363 0.38589 0.37508 0.0
C544 C 0.37606 0.38835 0.37796 0.0
C545 C 0.35996 0.42075 0.38485 0.0
C546 C 0.43733 0.28758 0.38433 0.0
C547 C 0.47128 0.28524 0.37308 0.0
C548 C 0.41778 0.31968 0.38382 0.0
C549 C 0.43133 0.35016 0.3717 0.0
C550 C 0.46357 0.34672 0.35841 0.0
C551 C 0.48339 0.31462 0.35914 0.0
H552 H 0.02172 0.43865 0.38869 0.0
H553 H 0.07469 0.33511 0.3905 0.0
H554 H 0.07865 0.46711 0.37734 0.0
H555 H 0.13079 0.36275 0.37766 0.0
H556 H 0.22979 0.43064 0.39718 0.0
H557 H 0.17429 0.39707 0.3965 0.0
H558 H 0.12627 0.4775 0.34953 0.0
H559 H 0.18184 0.51233 0.35127 0.0
C560 C 0.04545 0.42199 0.38625 0.0
C561 C 0.04417 0.38494 0.39108 0.0
C562 C 0.07801 0.43814 0.37946 0.0
C563 C 0.10962 0.41732 0.37684 0.0
C564 C 0.10741 0.37985 0.38019 0.0
C565 C 0.07524 0.36396 0.38754 0.0
C566 C 0.20775 0.44087 0.38621 0.0
C567 C 0.2101 0.4746 0.37473 0.0
C568 C 0.17574 0.42141 0.38569 0.0
C569 C 0.14532 0.43484 0.37334 0.0
C570 C 0.14882 0.46682 0.35978 0.0
C571 C 0.18091 0.48654 0.36047 0.0
H572 H 0.06446 0.0233 0.38741 0.0
H573 H 0.1677 0.07536 0.39469 0.0
H574 H 0.0368 0.0811 0.37714 0.0
H575 H 0.14093 0.13253 0.38296 0.0
H576 H 0.07216 0.23198 0.40015 0.0
H577 H 0.1053 0.17608 0.4004 0.0
H578 H 0.02828 0.12972 0.35038 0.0
H579 H 0.99373 0.18559 0.35119 0.0
C580 C 0.08128 0.04705 0.38643 0.0
C581 C 0.11799 0.04504 0.39237 0.0
C582 C 0.06558 0.08019 0.38028 0.0
C583 C 0.08649 0.11184 0.3794 0.0
C584 C 0.12366 0.10914 0.3841 0.0
C585 C 0.13909 0.0763 0.39079 0.0
C586 C 0.06258 0.21026 0.38871 0.0
C587 C 0.02975 0.21323 0.37606 0.0
C588 C 0.08181 0.17794 0.38877 0.0
C589 C 0.06919 0.14782 0.3758 0.0
C590 C 0.03827 0.15192 0.3612 0.0
C591 C 0.0187 0.18423 0.36137 0.0
H592 H 0.92359 0.8607 0.09609 0.0
H593 H 0.97104 0.90475 0.16146 0.0
H594 H 0.8667 0.88934 0.10603 0.0
H595 H 0.91345 0.9325 0.17195 0.0
H596 H 0.82112 0.01605 0.16006 0.0
H597 H 0.87594 0.98052 0.15925 0.0
H598 H 0.81607 0.88923 0.13219 0.0
H599 H 0.76124 0.92542 0.132 0.0
C600 C 0.92181 0.87624 0.11274 0.0
C601 C 0.95203 0.88063 0.12786 0.0
C602 C 0.88895 0.89236 0.11863 0.0
C603 C 0.88522 0.91304 0.13995 0.0
C604 C 0.91536 0.91708 0.15527 0.0
C605 C 0.94842 0.90118 0.14924 0.0
C606 C 0.81932 0.9881 0.15457 0.0
C607 C 0.78681 0.97384 0.14563 0.0
C608 C 0.85094 0.96762 0.15411 0.0
C609 C 0.85071 0.93223 0.14503 0.0
C610 C 0.81747 0.91679 0.13853 0.0
C611 C 0.7859 0.93742 0.1387 0.0
H612 H 0.48171 0.82384 0.15908 0.0
H613 H 0.56969 0.76531 0.12591 0.0
H614 H 0.51722 0.87854 0.15832 0.0
H615 H 0.60603 0.81983 0.12623 0.0
H616 H 0.63114 0.92766 0.09077 0.0
H617 H 0.60263 0.87104 0.10087 0.0
H618 H 0.56636 0.91572 0.16936 0.0
H619 H 0.59403 0.97326 0.1587 0.0
C620 C 0.50919 0.82228 0.15251 0.0
C621 C 0.52263 0.79037 0.14207 0.0
C622 C 0.52963 0.85379 0.15208 0.0
C623 C 0.56414 0.85389 0.14154 0.0
C624 C 0.57904 0.82099 0.13368 0.0
C625 C 0.55839 0.78961 0.13375 0.0
C626 C 0.61708 0.9255 0.10799 0.0
C627 C 0.61473 0.95504 0.12388 0.0
C628 C 0.60108 0.89278 0.11397 0.0
C629 C 0.58264 0.88849 0.13615 0.0
C630 C 0.5802 0.91809 0.15207 0.0
C631 C 0.59595 0.9511 0.14595 0.0
H632 H 0.57573 0.64093 0.09896 0.0
H633 H 0.51987 0.58651 0.15736 0.0
H634 H 0.63109 0.61033 0.11003 0.0
H635 H 0.57593 0.55663 0.16907 0.0
H636 H 0.67079 0.47565 0.15694 0.0
H637 H 0.61574 0.51094 0.15535 0.0
H638 H 0.6778 0.60633 0.13914 0.0
H639 H 0.7329 0.57054 0.13967 0.0
C640 C 0.57531 0.62265 0.11434 0.0
C641 C 0.54324 0.61606 0.12716 0.0
C642 C 0.60728 0.60535 0.12091 0.0
C643 C 0.60824 0.58123 0.14067 0.0
C644 C 0.57619 0.57479 0.15364 0.0
C645 C 0.54402 0.59191 0.14691 0.0
C646 C 0.67288 0.50436 0.15375 0.0
C647 C 0.70624 0.52015 0.14803 0.0
C648 C 0.64115 0.52468 0.15281 0.0
C649 C 0.64214 0.56136 0.14646 0.0
C650 C 0.67591 0.57788 0.14327 0.0
C651 C 0.70758 0.55746 0.14387 0.0
H652 H 0.92455 0.73737 0.128 0.0
H653 H 0.01024 0.67814 0.16338 0.0
H654 H 0.88737 0.68342 0.12818 0.0
H655 H 0.97406 0.62408 0.16241 0.0
H656 H 0.89831 0.52956 0.16179 0.0
H657 H 0.92515 0.58733 0.1726 0.0
H658 H 0.88948 0.63165 0.1038 0.0
H659 H 0.86149 0.57473 0.09364 0.0
C660 C 0.93517 0.71309 0.1363 0.0
C661 C 0.97063 0.71199 0.14526 0.0
C662 C 0.91405 0.68198 0.13612 0.0
C663 C 0.92811 0.64898 0.14454 0.0
C664 C 0.9622 0.64884 0.15572 0.0
C665 C 0.98308 0.68006 0.15627 0.0
C666 C 0.89627 0.55172 0.14902 0.0
C667 C 0.87792 0.54751 0.12681 0.0
C668 C 0.9116 0.58488 0.15522 0.0
C669 C 0.90932 0.61443 0.1392 0.0
C670 C 0.891 0.60998 0.11696 0.0
C671 C 0.8753 0.57708 0.11095 0.0
H672 H 0.73025 0.93067 0.61449 0.0
H673 H 0.68656 0.00103 0.66989 0.0
H674 H 0.67563 0.89557 0.61513 0.0
H675 H 0.63208 0.9646 0.67133 0.0
H676 H 0.52363 0.92936 0.63615 0.0
H677 H 0.58125 0.95786 0.6455 0.0
H678 H 0.6357 0.85621 0.63374 0.0
H679 H 0.57858 0.82857 0.62319 0.0
C680 C 0.70947 0.93803 0.62743 0.0
C681 C 0.71267 0.96921 0.64177 0.0
C682 C 0.67797 0.91766 0.62788 0.0
C683 C 0.64894 0.92757 0.64296 0.0
C684 C 0.65346 0.95676 0.659 0.0
C685 C 0.68498 0.97738 0.6584 0.0
C686 C 0.54797 0.91321 0.63568 0.0
C687 C 0.54674 0.87701 0.62842 0.0
C688 C 0.58101 0.92939 0.64128 0.0
C689 C 0.61337 0.90946 0.64017 0.0
C690 C 0.61161 0.8727 0.63418 0.0
C691 C 0.5788 0.85681 0.62814 0.0
H692 H 0.5879 0.51877 0.65689 0.0
H693 H 0.63481 0.57001 0.59376 0.0
H694 H 0.5595 0.57565 0.6683 0.0
H695 H 0.60559 0.62623 0.60462 0.0
H696 H 0.47826 0.67081 0.65818 0.0
H697 H 0.51257 0.61523 0.65619 0.0
H698 H 0.60628 0.67469 0.63267 0.0
H699 H 0.57138 0.7303 0.63367 0.0
C700 C 0.59183 0.54204 0.64529 0.0
C701 C 0.61358 0.53977 0.62437 0.0
C702 C 0.5756 0.5747 0.65187 0.0
C703 C 0.58054 0.60576 0.63758 0.0
C704 C 0.60195 0.60323 0.6165 0.0
C705 C 0.61838 0.57077 0.61006 0.0
C706 C 0.50649 0.67229 0.6533 0.0
C707 C 0.52186 0.70499 0.64564 0.0
C708 C 0.52623 0.64024 0.65212 0.0
C709 C 0.56194 0.64025 0.64357 0.0
C710 C 0.57845 0.67352 0.63851 0.0
C711 C 0.55857 0.70551 0.63939 0.0
H712 H 0.97088 0.59558 0.65971 0.0
H713 H 0.92446 0.6345 0.59247 0.0
H714 H 0.91344 0.56776 0.67036 0.0
H715 H 0.8679 0.60572 0.60251 0.0
H716 H 0.76219 0.57095 0.62795 0.0
H717 H 0.81663 0.60742 0.6276 0.0
H718 H 0.87633 0.51905 0.65944 0.0
H719 H 0.82181 0.48344 0.66089 0.0
C720 C 0.94854 0.5979 0.64711 0.0
C721 C 0.95229 0.61718 0.62522 0.0
C722 C 0.91557 0.582 0.65322 0.0
C723 C 0.88575 0.58472 0.63744 0.0
C724 C 0.88979 0.60384 0.61549 0.0
C725 C 0.92249 0.62003 0.60955 0.0
C726 C 0.7867 0.55973 0.63556 0.0
C727 C 0.78767 0.52405 0.64407 0.0
C728 C 0.81807 0.58048 0.63509 0.0
C729 C 0.85123 0.56583 0.64277 0.0
C730 C 0.85143 0.53135 0.65335 0.0
C731 C 0.81997 0.51081 0.65416 0.0
H732 H 0.90905 0.97366 0.66062 0.0
H733 H 0.86011 0.92233 0.59824 0.0
H734 H 0.93699 0.91655 0.67207 0.0
H735 H 0.88885 0.86592 0.60912 0.0
H736 H 0.92632 0.7623 0.6364 0.0
H737 H 0.89022 0.81717 0.63692 0.0
H738 H 0.98398 0.87802 0.65866 0.0
H739 H 0.01952 0.82318 0.65916 0.0
C740 C 0.90441 0.95028 0.64927 0.0
C741 C 0.88248 0.95265 0.62843 0.0
C742 C 0.9204 0.91751 0.65586 0.0
C743 C 0.91503 0.88646 0.64165 0.0
C744 C 0.89292 0.88894 0.62089 0.0
C745 C 0.87673 0.92151 0.61445 0.0
C746 C 0.93892 0.78722 0.64204 0.0
C747 C 0.97595 0.78841 0.64732 0.0
C748 C 0.91833 0.81877 0.64207 0.0
C749 C 0.93443 0.85224 0.64708 0.0
C750 C 0.9706 0.85283 0.65469 0.0
C751 C 0.99107 0.82121 0.65497 0.0
H752 H 0.07573 0.13846 0.92206 0.0
H753 H 0.02159 0.0893 0.86088 0.0
H754 H 0.13171 0.11006 0.91003 0.0
H755 H 0.07836 0.06167 0.84819 0.0
H756 H 0.17337 0.98007 0.85933 0.0
H757 H 0.11829 0.01524 0.86032 0.0
H758 H 0.17911 0.1093 0.88147 0.0
H759 H 0.23419 0.07348 0.88162 0.0
C760 C 0.07585 0.12184 0.90585 0.0
C761 C 0.04408 0.11599 0.89254 0.0
C762 C 0.10818 0.10586 0.89873 0.0
C763 C 0.10983 0.08388 0.8779 0.0
C764 C 0.07808 0.07823 0.86441 0.0
C765 C 0.04551 0.094 0.87171 0.0
C766 C 0.17525 0.00853 0.86344 0.0
C767 C 0.20809 0.02379 0.87093 0.0
C768 C 0.1435 0.02879 0.86402 0.0
C769 C 0.14402 0.06489 0.87173 0.0
C770 C 0.17754 0.08121 0.87632 0.0
C771 C 0.20922 0.0608 0.87612 0.0
H772 H 0.4349 0.0243 0.8861 0.0
H773 H 0.33206 0.07878 0.88673 0.0
H774 H 0.46472 0.08104 0.87633 0.0
H775 H 0.36119 0.1349 0.87546 0.0
H776 H 0.42948 0.2328 0.89636 0.0
H777 H 0.39539 0.17769 0.89497 0.0
H778 H 0.47739 0.12896 0.84966 0.0
H779 H 0.51275 0.18407 0.85217 0.0
C780 C 0.41867 0.04833 0.88368 0.0
C781 C 0.38135 0.04739 0.88769 0.0
C782 C 0.43564 0.08085 0.87783 0.0
C783 C 0.41548 0.11289 0.87534 0.0
C784 C 0.37781 0.11117 0.87791 0.0
C785 C 0.36104 0.07895 0.88431 0.0
C786 C 0.44005 0.21069 0.88564 0.0
C787 C 0.47431 0.21277 0.87481 0.0
C788 C 0.42026 0.17888 0.88471 0.0
C789 C 0.43383 0.14836 0.87256 0.0
C790 C 0.46654 0.15153 0.85977 0.0
C791 C 0.48662 0.18337 0.86093 0.0
H792 H 0.42295 0.33057 0.89863 0.0
H793 H 0.47353 0.43395 0.88808 0.0
H794 H 0.36525 0.3558 0.88656 0.0
H795 H 0.41513 0.46009 0.87733 0.0
H796 H 0.30952 0.49938 0.85061 0.0
H797 H 0.36574 0.46532 0.8502 0.0
H798 H 0.32209 0.3925 0.90406 0.0
H799 H 0.26584 0.42518 0.90358 0.0
C800 C 0.42157 0.35891 0.89396 0.0
C801 C 0.45254 0.38053 0.89477 0.0
C802 C 0.38845 0.3734 0.88703 0.0
C803 C 0.3852 0.41016 0.88127 0.0
C804 C 0.41654 0.43158 0.88133 0.0
C805 C 0.44998 0.41678 0.88777 0.0
C806 C 0.31151 0.47535 0.86173 0.0
C807 C 0.28329 0.46545 0.87747 0.0
C808 C 0.344 0.45612 0.86176 0.0
C809 C 0.34895 0.42665 0.87754 0.0
C810 C 0.31949 0.41491 0.89156 0.0
C811 C 0.28703 0.43386 0.89136 0.0
H812 H 0.05645 0.47488 0.88821 0.0
H813 H 0.16008 0.42208 0.88527 0.0
H814 H 0.0271 0.41817 0.87749 0.0
H815 H 0.13135 0.36617 0.87322 0.0
H816 H 0.06477 0.26733 0.89589 0.0
H817 H 0.09842 0.32275 0.89388 0.0
H818 H 0.01466 0.3707 0.84963 0.0
H819 H 0.97994 0.31523 0.85259 0.0
C820 C 0.07292 0.45129 0.88478 0.0
C821 C 0.11035 0.45254 0.88814 0.0
C822 C 0.05622 0.41885 0.8784 0.0
C823 C 0.07681 0.38731 0.87478 0.0
C824 C 0.11451 0.38952 0.87653 0.0
C825 C 0.13102 0.42159 0.88341 0.0
C826 C 0.05378 0.28931 0.88522 0.0
C827 C 0.01924 0.28696 0.87486 0.0
C828 C 0.07328 0.32127 0.88394 0.0
C829 C 0.059 0.35164 0.87197 0.0
C830 C 0.02604 0.34817 0.85955 0.0
C831 C 0.00634 0.31614 0.86097 0.0
H832 H 0.7033 0.17211 0.37381 0.0
H833 H 0.65859 0.20613 0.44257 0.0
H834 H 0.75474 0.21171 0.3801 0.0
H835 H 0.70985 0.24669 0.4487 0.0
H836 H 0.83524 0.29228 0.44378 0.0
H837 H 0.78326 0.25262 0.44982 0.0
H838 H 0.74363 0.28179 0.37852 0.0
H839 H 0.79581 0.3205 0.37237 0.0
C840 C 0.70559 0.18662 0.39086 0.0
C841 C 0.67745 0.18615 0.40777 0.0
C842 C 0.7345 0.20977 0.39426 0.0
C843 C 0.73525 0.23299 0.41444 0.0
C844 C 0.70948 0.2292 0.43291 0.0
C845 C 0.68057 0.20567 0.42958 0.0
C846 C 0.81422 0.29172 0.43008 0.0
C847 C 0.81906 0.30929 0.40765 0.0
C848 C 0.78489 0.26872 0.4334 0.0
C849 C 0.76045 0.26346 0.41428 0.0
C850 C 0.76284 0.28488 0.39324 0.0
C851 C 0.79216 0.30752 0.38988 0.0
H852 H 0.30056 0.66537 0.44434 0.0
H853 H 0.32218 0.70468 0.37193 0.0
H854 H 0.26005 0.71633 0.45159 0.0
H855 H 0.28248 0.75595 0.37925 0.0
H856 H 0.17022 0.78993 0.37714 0.0
H857 H 0.21322 0.74092 0.38275 0.0
H858 H 0.24872 0.78841 0.45035 0.0
H859 H 0.20486 0.83717 0.44492 0.0
C860 C 0.29863 0.68635 0.43066 0.0
C861 C 0.31415 0.68137 0.40756 0.0
C862 C 0.27501 0.71507 0.43467 0.0
C863 C 0.26725 0.73888 0.41559 0.0
C864 C 0.28744 0.7371 0.39396 0.0
C865 C 0.31079 0.70835 0.38994 0.0
C866 C 0.18549 0.78854 0.39395 0.0
C867 C 0.18445 0.81702 0.41058 0.0
C868 C 0.2107 0.76114 0.39688 0.0
C869 C 0.23514 0.76213 0.41641 0.0
C870 C 0.23045 0.78759 0.43497 0.0
C871 C 0.20491 0.81498 0.43209 0.0
H872 H 0.30438 0.69131 0.16292 0.0
H873 H 0.30893 0.68095 0.08481 0.0
H874 H 0.24547 0.71889 0.16001 0.0
H875 H 0.24851 0.70722 0.08157 0.0
H876 H 0.18099 0.81197 0.08471 0.0
H877 H 0.23041 0.76832 0.08601 0.0
H878 H 0.18492 0.72174 0.15138 0.0
H879 H 0.13865 0.76773 0.1514 0.0
C880 C 0.29159 0.69306 0.14519 0.0
C881 C 0.31073 0.68405 0.1241 0.0
C882 C 0.2578 0.70905 0.14343 0.0
C883 C 0.24252 0.7161 0.12046 0.0
C884 C 0.26002 0.70303 0.09948 0.0
C885 C 0.29416 0.68728 0.10129 0.0
C886 C 0.18213 0.79262 0.09947 0.0
C887 C 0.15572 0.79259 0.11765 0.0
C888 C 0.20983 0.76707 0.09995 0.0
C889 C 0.21128 0.74093 0.11855 0.0
C890 C 0.18471 0.74131 0.13676 0.0
C891 C 0.15767 0.7673 0.13654 0.0
H892 H 0.82759 0.29274 0.14329 0.0
H893 H 0.79172 0.34108 0.07604 0.0
H894 H 0.78828 0.24137 0.13599 0.0
H895 H 0.75147 0.28982 0.06894 0.0
H896 H 0.67678 0.20612 0.14484 0.0
H897 H 0.71627 0.25738 0.13753 0.0
H898 H 0.74724 0.21251 0.0681 0.0
H899 H 0.7068 0.16137 0.07524 0.0
C900 C 0.81281 0.29129 0.12629 0.0
C901 C 0.81256 0.32046 0.11019 0.0
C902 C 0.78993 0.26233 0.12229 0.0
C903 C 0.76628 0.26256 0.10232 0.0
C904 C 0.76941 0.2894 0.08451 0.0
C905 C 0.79272 0.31835 0.08842 0.0
C906 C 0.69034 0.20837 0.12743 0.0
C907 C 0.68884 0.18024 0.11055 0.0
C908 C 0.71333 0.23723 0.1234 0.0
C909 C 0.73538 0.23794 0.10262 0.0
C910 C 0.73056 0.21219 0.08428 0.0
C911 C 0.70715 0.18333 0.08824 0.0
H912 H 0.15601 0.71093 0.57439 0.0
H913 H 0.20617 0.67176 0.64017 0.0
H914 H 0.20606 0.7531 0.56837 0.0
H915 H 0.25623 0.71315 0.634 0.0
H916 H 0.33479 0.79724 0.57479 0.0
H917 H 0.28263 0.75862 0.5668 0.0
H918 H 0.24026 0.78463 0.63785 0.0
H919 H 0.29259 0.82234 0.64597 0.0
C920 C 0.17891 0.70973 0.58663 0.0
C921 C 0.17765 0.68823 0.6077 0.0
C922 C 0.20711 0.73419 0.58339 0.0
C923 C 0.234 0.73692 0.60119 0.0
C924 C 0.23513 0.71191 0.62037 0.0
C925 C 0.20699 0.68778 0.62367 0.0
C926 C 0.3131 0.79645 0.58799 0.0
C927 C 0.31735 0.81257 0.61097 0.0
C928 C 0.28364 0.77401 0.58354 0.0
C929 C 0.2584 0.76802 0.60206 0.0
C930 C 0.26 0.78846 0.62355 0.0
C931 C 0.28948 0.81051 0.62804 0.0
H932 H 0.767 0.13666 0.65128 0.0
H933 H 0.81261 0.18288 0.58619 0.0
H934 H 0.72092 0.18293 0.65199 0.0
H935 H 0.76832 0.23177 0.58807 0.0
H936 H 0.67839 0.3085 0.58814 0.0
H937 H 0.70515 0.2484 0.58393 0.0
H938 H 0.72119 0.24427 0.66196 0.0
H939 H 0.69379 0.30316 0.66593 0.0
C940 C 0.76684 0.15649 0.63692 0.0
C941 C 0.79269 0.15584 0.61835 0.0
C942 C 0.74072 0.18338 0.63751 0.0
C943 C 0.74063 0.21083 0.61993 0.0
C944 C 0.76704 0.21047 0.60152 0.0
C945 C 0.79287 0.18309 0.60073 0.0
C946 C 0.68602 0.29372 0.60437 0.0
C947 C 0.68438 0.31011 0.62733 0.0
C948 C 0.70188 0.25972 0.60198 0.0
C949 C 0.71606 0.242 0.62254 0.0
C950 C 0.71049 0.25697 0.64573 0.0
C951 C 0.69476 0.29074 0.64808 0.0
H952 H 0.78962 0.16872 0.87651 0.0
H953 H 0.83121 0.19769 0.94714 0.0
H954 H 0.73707 0.20686 0.88351 0.0
H955 H 0.77899 0.2368 0.95396 0.0
H956 H 0.65686 0.29095 0.94589 0.0
H957 H 0.70481 0.24639 0.95268 0.0
H958 H 0.75357 0.27702 0.88439 0.0
H959 H 0.70568 0.32086 0.87753 0.0
C960 C 0.78627 0.1814 0.89415 0.0
C961 C 0.81413 0.18057 0.91127 0.0
C962 C 0.75667 0.20372 0.898 0.0
C963 C 0.75506 0.22557 0.91886 0.0
C964 C 0.78003 0.22039 0.93766 0.0
C965 C 0.80955 0.19768 0.93388 0.0
C966 C 0.67907 0.28951 0.93311 0.0
C967 C 0.67794 0.3091 0.9112 0.0
C968 C 0.70598 0.26365 0.93678 0.0
C969 C 0.73165 0.25754 0.91853 0.0
C970 C 0.73319 0.28066 0.89831 0.0
C971 C 0.70638 0.30623 0.89462 0.0
H972 H 0.32922 0.79504 0.87279 0.0
H973 H 0.29382 0.83502 0.94251 0.0
H974 H 0.2903 0.74273 0.87748 0.0
H975 H 0.25392 0.78316 0.94702 0.0
H976 H 0.20297 0.66346 0.94148 0.0
H977 H 0.24426 0.71399 0.94757 0.0
H978 H 0.22219 0.75049 0.87434 0.0
H979 H 0.18178 0.69963 0.86823 0.0
C980 C 0.31478 0.79142 0.88977 0.0
C981 C 0.31436 0.81871 0.9073 0.0
C982 C 0.29181 0.76209 0.89221 0.0
C983 C 0.26808 0.76003 0.91211 0.0
C984 C 0.27163 0.78452 0.93137 0.0
C985 C 0.29492 0.81378 0.92899 0.0
C986 C 0.20541 0.6836 0.92728 0.0
C987 C 0.18926 0.67812 0.90445 0.0
C988 C 0.2295 0.71201 0.9306 0.0
C989 C 0.23738 0.735 0.91106 0.0
C990 C 0.21738 0.73224 0.8894 0.0
C991 C 0.19356 0.70382 0.88607 0.0
H992 H 0.57711 0.18953 0.49381 0.0
H993 H 0.57312 0.07937 0.46866 0.0
H994 H 0.61522 0.17098 0.52786 0.0
H995 H 0.61035 0.06079 0.50293 0.0
H996 H 0.71984 0.05218 0.53946 0.0
H997 H 0.6736 0.06978 0.51078 0.0
H998 H 0.62325 0.1361 0.56575 0.0
H999 H 0.67044 0.11887 0.59477 0.0
C1000 C 0.58349 0.16122 0.49591 0.0
C1001 C 0.57244 0.136 0.4783 0.0
C1002 C 0.60535 0.15059 0.51546 0.0
C1003 C 0.61645 0.11452 0.51785 0.0
C1004 C 0.60308 0.08896 0.50127 0.0
C1005 C 0.5815 0.09958 0.48169 0.0
C1006 C 0.69897 0.07045 0.54563 0.0
C1007 C 0.69892 0.08394 0.56957 0.0
C1008 C 0.67215 0.08032 0.52914 0.0
C1009 C 0.64433 0.10393 0.53603 0.0
C1010 C 0.64431 0.11784 0.55988 0.0
C1011 C 0.6713 0.10788 0.57651 0.0
H1012 H 0.35805 0.69924 0.57721 0.0
H1013 H 0.47121 0.67883 0.56531 0.0
H1014 H 0.34304 0.65307 0.54699 0.0
H1015 H 0.45653 0.63192 0.53619 0.0
H1016 H 0.41945 0.59637 0.46067 0.0
H1017 H 0.4354 0.63168 0.496 0.0
H1018 H 0.34245 0.59077 0.53439 0.0
H1019 H 0.3256 0.55606 0.49835 0.0
C1020 C 0.37963 0.68436 0.5685 0.0
C1021 C 0.41576 0.69304 0.57325 0.0
C1022 C 0.37111 0.65776 0.55128 0.0
C1023 C 0.3986 0.63905 0.5388 0.0
C1024 C 0.43464 0.6464 0.54485 0.0
C1025 C 0.44309 0.67324 0.56163 0.0
C1026 C 0.40265 0.59427 0.47673 0.0
C1027 C 0.3711 0.57342 0.47651 0.0
C1028 C 0.41194 0.61451 0.49717 0.0
C1029 C 0.39015 0.61434 0.51815 0.0
C1030 C 0.35957 0.59201 0.51845 0.0
C1031 C 0.35016 0.57171 0.49787 0.0
H1032 H 0.9374 0.31559 0.50021 0.0
H1033 H 0.90374 0.41447 0.46533 0.0
H1034 H 0.90227 0.33179 0.5363 0.0
H1035 H 0.86789 0.42974 0.50051 0.0
H1036 H 0.82061 0.46455 0.56981 0.0
H1037 H 0.8673 0.44858 0.54075 0.0
H1038 H 0.84104 0.33596 0.54972 0.0
H1039 H 0.79535 0.35228 0.58008 0.0
C1040 C 0.92299 0.34098 0.50032 0.0
C1041 C 0.92356 0.3637 0.47977 0.0
C1042 C 0.90247 0.35008 0.52093 0.0
C1043 C 0.88201 0.38208 0.52146 0.0
C1044 C 0.88368 0.40521 0.50117 0.0
C1045 C 0.90425 0.39629 0.48077 0.0
C1046 C 0.82517 0.43633 0.5658 0.0
C1047 C 0.8041 0.40967 0.57696 0.0
C1048 C 0.8518 0.42712 0.54898 0.0
C1049 C 0.85756 0.39098 0.54231 0.0
C1050 C 0.8376 0.36407 0.55442 0.0
C1051 C 0.8113 0.37334 0.57176 0.0
H1052 H 0.03213 0.82355 0.57024 0.0
H1053 H 0.14318 0.79089 0.57804 0.0
H1054 H 0.04972 0.86985 0.54137 0.0
H1055 H 0.16094 0.83617 0.54794 0.0
H1056 H 0.18563 0.93253 0.49975 0.0
H1057 H 0.16839 0.89729 0.53551 0.0
H1058 H 0.06718 0.87122 0.50085 0.0
H1059 H 0.08359 0.90726 0.466 0.0
C1060 C 0.06041 0.82633 0.56573 0.0
C1061 C 0.08623 0.80331 0.57618 0.0
C1062 C 0.07054 0.85277 0.54901 0.0
C1063 C 0.10672 0.85646 0.54177 0.0
C1064 C 0.13285 0.83443 0.5531 0.0
C1065 C 0.12271 0.80831 0.57029 0.0
C1066 C 0.15935 0.91995 0.50006 0.0
C1067 C 0.13604 0.92289 0.4799 0.0
C1068 C 0.14962 0.89934 0.52047 0.0
C1069 C 0.11638 0.88112 0.52121 0.0
C1070 C 0.0927 0.88523 0.50136 0.0
C1071 C 0.10227 0.90591 0.48114 0.0
H1072 H 0.20307 0.86095 0.94122 0.0
H1073 H 0.18619 0.97287 0.95911 0.0
H1074 H 0.15952 0.84363 0.97254 0.0
H1075 H 0.14156 0.95603 0.98932 0.0
H1076 H 0.10318 0.91426 0.06248 0.0
H1077 H 0.1399 0.9318 0.02812 0.0
H1078 H 0.09939 0.84145 0.98682 0.0
H1079 H 0.06357 0.82286 0.02194 0.0
C1080 C 0.18952 0.88185 0.95153 0.0
C1081 C 0.19837 0.91823 0.94792 0.0
C1082 C 0.16439 0.87199 0.96944 0.0
C1083 C 0.14715 0.89836 0.98384 0.0
C1084 C 0.15491 0.93481 0.97923 0.0
C1085 C 0.1804 0.94455 0.96174 0.0
C1086 C 0.10156 0.89832 0.04599 0.0
C1087 C 0.08025 0.86711 0.04508 0.0
C1088 C 0.12266 0.90853 0.0261 0.0
C1089 C 0.12281 0.88815 1.00447 0.0
C1090 C 0.10052 0.85756 1.00324 0.0
C1091 C 0.07962 0.84708 0.02332 0.0
H1092 H 0.68956 0.06809 0.02022 0.0
H1093 H 0.58755 0.09368 0.05407 0.0
H1094 H 0.67212 0.10341 0.98446 0.0
H1095 H 0.57098 0.1298 0.01928 0.0
H1096 H 0.53474 0.17647 0.95016 0.0
H1097 H 0.55318 0.13019 0.97886 0.0
H1098 H 0.66399 0.16435 0.97162 0.0
H1099 H 0.64533 0.20949 0.94155 0.0
C1100 C 0.66329 0.08084 0.01996 0.0
C1101 C 0.63996 0.07783 0.04008 0.0
C1102 C 0.65343 0.10144 0.99954 0.0
C1103 C 0.62008 0.11961 0.99882 0.0
C1104 C 0.59654 0.11572 0.01875 0.0
C1105 C 0.60621 0.09501 0.03893 0.0
C1106 C 0.56312 0.17374 0.95446 0.0
C1107 C 0.58856 0.19688 0.94391 0.0
C1108 C 0.57373 0.14735 0.97109 0.0
C1109 C 0.61003 0.14393 0.97816 0.0
C1110 C 0.63582 0.16597 0.96662 0.0
C1111 C 0.62519 0.19199 0.94947 0.0
H1112 H 0.26409 0.5563 0.98286 0.0
H1113 H 0.32772 0.60297 0.92502 0.0
H1114 H 0.30936 0.57327 0.01224 0.0
H1115 H 0.37409 0.61951 0.95486 0.0
H1116 H 0.4233 0.6782 0.02381 0.0
H1117 H 0.38573 0.65929 0.9896 0.0
H1118 H 0.36868 0.5565 0.02459 0.0
H1119 H 0.4051 0.5758 0.059 0.0
C1120 C 0.28796 0.56996 0.9763 0.0
C1121 C 0.29231 0.57792 0.95143 0.0
C1122 C 0.31418 0.57948 0.99325 0.0
C1123 C 0.34584 0.59709 0.98593 0.0
C1124 C 0.35005 0.60588 0.96112 0.0
C1125 C 0.32351 0.5964 0.94402 0.0
C1126 C 0.41218 0.65126 0.02393 0.0
C1127 C 0.41681 0.62867 0.04431 0.0
C1128 C 0.39061 0.64042 1.00429 0.0
C1129 C 0.37346 0.60668 1.00457 0.0
C1130 C 0.38057 0.5831 0.02408 0.0
C1131 C 0.40172 0.59404 0.04376 0.0
H1132 H 0.91306 0.42876 0.04963 0.0
H1133 H 0.80176 0.41565 0.02848 0.0
H1134 H 0.93171 0.3906 0.01588 0.0
H1135 H 0.82038 0.37649 0.99506 0.0
H1136 H 0.87006 0.32064 0.92791 0.0
H1137 H 0.85171 0.36792 0.95647 0.0
H1138 H 0.92808 0.32722 1.00919 0.0
H1139 H 0.94682 0.28103 0.98084 0.0
C1140 C 0.89258 0.41813 0.03758 0.0
C1141 C 0.8559 0.42508 0.04192 0.0
C1142 C 0.90324 0.39596 0.01832 0.0
C1143 C 0.87752 0.37978 1.00302 0.0
C1144 C 0.84096 0.38854 1.0064 0.0
C1145 C 0.83027 0.41104 0.0256 0.0
C1146 C 0.88298 0.32192 0.94558 0.0
C1147 C 0.91011 0.29705 0.95193 0.0
C1148 C 0.87239 0.34897 0.96198 0.0
C1149 C 0.88873 0.35175 0.98506 0.0
C1150 C 0.91553 0.32661 0.99138 0.0
C1151 C 0.92609 0.29979 0.9751 0.0
H1152 H 0.43389 0.81143 0.52124 0.0
H1153 H 0.406 0.91165 0.55658 0.0
H1154 H 0.39743 0.82884 0.48601 0.0
H1155 H 0.36873 0.92811 0.52234 0.0
H1156 H 0.31898 0.96419 0.45374 0.0
H1157 H 0.36587 0.94692 0.4823 0.0
H1158 H 0.33611 0.83509 0.47387 0.0
H1159 H 0.29025 0.85263 0.44399 0.0
C1160 C 0.42047 0.83736 0.5214 0.0
C1161 C 0.42306 0.8601 0.54185 0.0
C1162 C 0.39915 0.84717 0.50129 0.0
C1163 C 0.37982 0.87989 0.50119 0.0
C1164 C 0.38356 0.90302 0.52133 0.0
C1165 C 0.40497 0.89341 0.54121 0.0
C1166 C 0.32268 0.93587 0.45782 0.0
C1167 C 0.30066 0.9098 0.44686 0.0
C1168 C 0.34948 0.92591 0.47436 0.0
C1169 C 0.35452 0.8896 0.48094 0.0
C1170 C 0.33334 0.86329 0.4692 0.0
C1171 C 0.30688 0.87329 0.45217 0.0
H1172 H 0.68414 0.42693 0.52143 0.0
H1173 H 0.58677 0.39314 0.55795 0.0
H1174 H 0.6659 0.39323 0.48518 0.0
H1175 H 0.56944 0.35884 0.52252 0.0
H1176 H 0.53007 0.31744 0.45239 0.0
H1177 H 0.54852 0.36172 0.48242 0.0
H1178 H 0.65996 0.33204 0.47102 0.0
H1179 H 0.64126 0.28863 0.43991 0.0
C1180 C 0.65871 0.41273 0.52168 0.0
C1181 C 0.63697 0.41291 0.5427 0.0
C1182 C 0.64841 0.39308 0.50096 0.0
C1183 C 0.61614 0.37319 0.50079 0.0
C1184 C 0.59411 0.37427 0.52163 0.0
C1185 C 0.60425 0.3939 0.54216 0.0
C1186 C 0.55856 0.32068 0.45608 0.0
C1187 C 0.58418 0.2993 0.44399 0.0
C1188 C 0.56918 0.34595 0.47344 0.0
C1189 C 0.60573 0.35007 0.47964 0.0
C1190 C 0.6316 0.32984 0.46668 0.0
C1191 C 0.62092 0.30484 0.4489 0.0
H1192 H 0.1763 0.62129 0.4263 0.0
H1193 H 0.21935 0.54967 0.48127 0.0
H1194 H 0.12914 0.64034 0.45469 0.0
H1195 H 0.17297 0.56906 0.50943 0.0
H1196 H 0.07012 0.58325 0.54905 0.0
H1197 H 0.10873 0.56378 0.51575 0.0
H1198 H 0.12158 0.67433 0.49292 0.0
H1199 H 0.08218 0.69386 0.52605 0.0
C1200 C 0.17579 0.60961 0.44438 0.0
C1201 C 0.20163 0.58377 0.45139 0.0
C1202 C 0.14881 0.62064 0.46066 0.0
C1203 C 0.14699 0.60593 0.48425 0.0
C1204 C 0.173 0.58035 0.49124 0.0
C1205 C 0.19988 0.56943 0.47508 0.0
C1206 C 0.08057 0.6034 0.53667 0.0
C1207 C 0.07329 0.64016 0.54038 0.0
C1208 C 0.10297 0.59225 0.51767 0.0
C1209 C 0.11888 0.61755 0.50197 0.0
C1210 C 0.10972 0.65412 0.50465 0.0
C1211 C 0.08709 0.66531 0.52365 0.0
H1212 H 0.91964 0.10316 0.56122 0.0
H1213 H 0.82867 0.06086 0.52137 0.0
H1214 H 0.93649 0.13896 0.52622 0.0
H1215 H 0.84643 0.09597 0.48577 0.0
H1216 H 0.86249 0.2024 0.44149 0.0
H1217 H 0.84668 0.15734 0.47227 0.0
H1218 H 0.95986 0.13932 0.48668 0.0
H1219 H 0.97525 0.18519 0.45694 0.0
C1220 C 0.90368 0.10074 0.54478 0.0
C1221 C 0.87269 0.07908 0.54426 0.0
C1222 C 0.91346 0.1213 0.52455 0.0
C1223 C 0.8928 0.12057 0.50304 0.0
C1224 C 0.86267 0.0977 0.50211 0.0
C1225 C 0.8527 0.07723 0.52248 0.0
C1226 C 0.88386 0.1884 0.45109 0.0
C1227 C 0.92005 0.19764 0.4471 0.0
C1228 C 0.87489 0.16247 0.46867 0.0
C1229 C 0.90199 0.14496 0.48232 0.0
C1230 C 0.9382 0.15289 0.47712 0.0
C1231 C 0.94707 0.17908 0.45995 0.0
H1232 H 0.93753 0.17776 1.00065 0.0
H1233 H 0.90388 0.07942 0.96532 0.0
H1234 H 0.90315 0.16103 0.03683 0.0
H1235 H 0.86888 0.06346 1.00085 0.0
H1236 H 0.8222 0.02927 0.07068 0.0
H1237 H 0.86918 0.04494 0.04178 0.0
H1238 H 0.84066 0.15743 0.04875 0.0
H1239 H 0.7944 0.14157 0.0787 0.0
C1240 C 0.92338 0.1523 1.00071 0.0
C1241 C 0.92348 0.13001 0.97996 0.0
C1242 C 0.9033 0.14291 0.02138 0.0
C1243 C 0.88295 0.11101 0.02179 0.0
C1244 C 0.88454 0.088 1.00146 0.0
C1245 C 0.90459 0.09728 0.98091 0.0
C1246 C 0.82629 0.05741 0.06627 0.0
C1247 C 0.80439 0.08418 0.07669 0.0
C1248 C 0.85313 0.06641 0.0496 0.0
C1249 C 0.85835 0.10239 0.04248 0.0
C1250 C 0.83761 0.12945 0.05388 0.0
C1251 C 0.811 0.12042 0.07097 0.0
H1252 H 0.41989 0.92419 0.96605 0.0
H1253 H 0.31062 0.92748 0.99302 0.0
H1254 H 0.43729 0.88596 1.0001 0.0
H1255 H 0.32788 0.88829 0.02685 0.0
H1256 H 0.37892 0.82898 0.09281 0.0
H1257 H 0.36296 0.87694 0.06405 0.0
H1258 H 0.42508 0.82359 1.00812 0.0
H1259 H 0.4414 0.77654 0.03658 0.0
C1260 C 0.39969 0.91729 0.9795 0.0
C1261 C 0.36379 0.92866 0.97665 0.0
C1262 C 0.40959 0.89505 0.99892 0.0
C1263 C 0.38379 0.88323 0.01589 0.0
C1264 C 0.34845 0.89683 0.01413 0.0
C1265 C 0.33857 0.91941 0.99474 0.0
C1266 C 0.38911 0.82753 0.07436 0.0
C1267 C 0.41167 0.79891 0.06714 0.0
C1268 C 0.37994 0.85502 0.05787 0.0
C1269 C 0.3932 0.8545 0.03385 0.0
C1270 C 0.41516 0.82551 0.02662 0.0
C1271 C 0.42429 0.79823 0.04298 0.0
H1272 H 0.70954 0.35332 0.07865 0.0
H1273 H 0.67232 0.46321 0.07326 0.0
H1274 H 0.66456 0.33507 0.04847 0.0
H1275 H 0.62637 0.44503 0.04429 0.0
H1276 H 0.58949 0.41295 0.96849 0.0
H1277 H 0.62566 0.42915 1.00335 0.0
H1278 H 0.60334 0.32594 0.03644 0.0
H1279 H 0.56795 0.30899 1.00069 0.0
C1280 C 0.69118 0.37337 0.07142 0.0
C1281 C 0.69476 0.40975 0.07799 0.0
C1282 C 0.66526 0.36296 0.05419 0.0
C1283 C 0.64206 0.38866 0.04351 0.0
C1284 C 0.64437 0.42462 0.05144 0.0
C1285 C 0.67059 0.43506 0.0682 0.0
C1286 C 0.59173 0.39376 0.98329 0.0
C1287 C 0.5757 0.35959 0.98165 0.0
C1288 C 0.61246 0.40319 1.0035 0.0
C1289 C 0.61757 0.37894 0.02291 0.0
C1290 C 0.60045 0.34517 0.02174 0.0
C1291 C 0.57979 0.33559 1.00133 0.0
H1292 H 0.13758 0.693 0.08069 0.0
H1293 H 0.02464 0.68412 0.06321 0.0
H1294 H 0.15158 0.64683 0.05024 0.0
H1295 H 0.03795 0.63671 0.0341 0.0
H1296 H 0.07746 0.599 0.96012 0.0
H1297 H 0.06157 0.63432 0.99533 0.0
H1298 H 0.14962 0.58656 0.03569 0.0
H1299 H 0.1668 0.55207 0.99956 0.0
C1300 C 0.11574 0.68058 0.07067 0.0
C1301 C 0.08014 0.69252 0.0739 0.0
C1302 C 0.12365 0.65394 0.05334 0.0
C1303 C 0.09597 0.63828 0.03929 0.0
C1304 C 0.06016 0.64883 0.04388 0.0
C1305 C 0.05243 0.67592 0.06068 0.0
C1306 C 0.09324 0.59544 0.97656 0.0
C1307 C 0.12363 0.57276 0.97683 0.0
C1308 C 0.08391 0.61568 0.99698 0.0
C1309 C 0.10432 0.61358 0.01854 0.0
C1310 C 0.13361 0.58939 0.01932 0.0
C1311 C 0.14319 0.56922 0.99868 0.0
loop_
_geom_bond_atom_site_label_1
_geom_bond_atom_site_label_2
_geom_bond_distance
_geom_bond_site_symmetry_2
_ccdc_geom_bond_type
Sc0 O3 2.025 . S
Sc0 O10 2.105 . S
Sc0 O13 2.105 . S
Sc0 O16 2.105 . S
Sc0 O19 2.105 . S
Sc1 O3 2.025 . S
Sc1 O11 2.105 . S
Sc1 O15 2.105 . S
Sc1 O17 2.105 . S
Sc1 O21 2.105 . S
Sc2 O3 2.025 . S
Sc2 O12 2.105 . S
Sc2 O14 2.105 . S
Sc2 O18 2.105 . S
Sc2 O20 2.105 . S
O3 Sc0 2.025 . S
O3 Sc1 2.025 . S
O3 Sc2 2.025 . S
C4 O10 1.268 . S
C4 O20 1.268 . S
C5 O11 1.268 . S
C5 O19 1.268 . S
C6 O12 1.268 . S
C6 O21 1.268 . S
C7 O13 1.268 . S
C7 O17 1.268 . S
C8 O14 1.268 . S
C8 O16 1.268 . S
C9 O15 1.268 . S
C9 O18 1.268 . S
O10 Sc0 2.105 . S
O10 C4 1.268 . S
O11 Sc1 2.105 . S
O11 C5 1.268 . S
O12 Sc2 2.105 . S
O12 C6 1.268 . S
O13 Sc0 2.105 . S
O13 C7 1.268 . S
O14 Sc2 2.105 . S
O14 C8 1.268 . S
O15 Sc1 2.105 . S
O15 C9 1.268 . S
O16 Sc0 2.105 . S
O16 C8 1.268 . S
O17 Sc1 2.105 . S
O17 C7 1.268 . S
O18 Sc2 2.105 . S
O18 C9 1.268 . S
O19 Sc0 2.105 . S
O19 C5 1.268 . S
O20 Sc2 2.105 . S
O20 C4 1.268 . S
O21 Sc1 2.105 . S
O21 C6 1.268 . S
Sc22 O25 2.025 . S
Sc22 O32 2.105 . S
Sc22 O35 2.105 . S
Sc22 O38 2.105 . S
Sc22 O41 2.105 . S
Sc23 O25 2.025 . S
Sc23 O33 2.105 . S
Sc23 O37 2.105 . S
Sc23 O39 2.105 . S
Sc23 O43 2.105 . S
Sc24 O25 2.025 . S
Sc24 O34 2.105 . S
Sc24 O36 2.105 . S
Sc24 O40 2.105 . S
Sc24 O42 2.105 . S
O25 Sc22 2.025 . S
O25 Sc23 2.025 . S
O25 Sc24 2.025 . S
C26 O32 1.268 . S
C26 O42 1.268 . S
C27 O33 1.268 . S
C27 O41 1.268 . S
C28 O34 1.268 . S
C28 O43 1.268 . S
C29 O35 1.268 . S
C29 O39 1.268 . S
C30 O36 1.268 . S
C30 O38 1.268 . S
C31 O37 1.268 . S
C31 O40 1.268 . S
O32 Sc22 2.105 . S
O32 C26 1.268 . S
O33 Sc23 2.105 . S
O33 C27 1.268 . S
O34 Sc24 2.105 . S
O34 C28 1.268 . S
O35 Sc22 2.105 . S
O35 C29 1.268 . S
O36 Sc24 2.105 . S
O36 C30 1.268 . S
O37 Sc23 2.105 . S
O37 C31 1.268 . S
O38 Sc22 2.105 . S
O38 C30 1.268 . S
O39 Sc23 2.105 . S
O39 C29 1.268 . S
O40 Sc24 2.105 . S
O40 C31 1.268 . S
O41 Sc22 2.105 . S
O41 C27 1.268 . S
O42 Sc24 2.105 . S
O42 C26 1.268 . S
O43 Sc23 2.105 . S
O43 C28 1.268 . S
Sc44 O47 2.025 . S
Sc44 O54 2.105 . S
Sc44 O57 2.105 . S
Sc44 O60 2.105 . S
Sc44 O63 2.105 . S
Sc45 O47 2.025 . S
Sc45 O55 2.105 . S
Sc45 O59 2.105 . S
Sc45 O61 2.105 . S
Sc45 O65 2.105 . S
Sc46 O47 2.025 . S
Sc46 O56 2.105 1_655 S
Sc46 O58 2.105 . S
Sc46 O62 2.105 . S
Sc46 O64 2.105 1_655 S
O47 Sc44 2.025 . S
O47 Sc45 2.025 . S
O47 Sc46 2.025 . S
C48 O54 1.268 . S
C48 O64 1.268 1_655 S
C49 O55 1.268 . S
C49 O63 1.268 . S
C50 O56 1.268 1_655 S
C50 O65 1.268 . S
C51 O57 1.268 . S
C51 O61 1.268 . S
C52 O58 1.268 . S
C52 O60 1.268 . S
C53 O59 1.268 . S
C53 O62 1.268 . S
O54 Sc44 2.105 . S
O54 C48 1.268 . S
O55 Sc45 2.105 . S
O55 C49 1.268 . S
O56 Sc46 2.105 1_455 S
O56 C50 1.268 1_455 S
O57 Sc44 2.105 . S
O57 C51 1.268 . S
O58 Sc46 2.105 . S
O58 C52 1.268 . S
O59 Sc45 2.105 . S
O59 C53 1.268 . S
O60 Sc44 2.105 . S
O60 C52 1.268 . S
O61 Sc45 2.105 . S
O61 C51 1.268 . S
O62 Sc46 2.105 . S
O62 C53 1.268 . S
O63 Sc44 2.105 . S
O63 C49 1.268 . S
O64 Sc46 2.105 1_455 S
O64 C48 1.268 1_455 S
O65 Sc45 2.105 . S
O65 C50 1.268 . S
Sc66 O69 2.025 . S
Sc66 O76 2.105 . S
Sc66 O79 2.105 1_565 S
Sc66 O82 2.105 1_565 S
Sc66 O85 2.105 . S
Sc67 O69 2.025 . S
Sc67 O77 2.105 . S
Sc67 O81 2.105 . S
Sc67 O83 2.105 . S
Sc67 O87 2.105 . S
Sc68 O69 2.025 . S
Sc68 O78 2.105 . S
Sc68 O80 2.105 . S
Sc68 O84 2.105 . S
Sc68 O86 2.105 . S
O69 Sc66 2.025 . S
O69 Sc67 2.025 . S
O69 Sc68 2.025 . S
C70 O76 1.268 . S
C70 O86 1.268 . S
C71 O77 1.268 . S
C71 O85 1.268 . S
C72 O78 1.268 . S
C72 O87 1.268 . S
C73 O79 1.268 1_565 S
C73 O83 1.268 . S
C74 O80 1.268 . S
C74 O82 1.268 1_565 S
C75 O81 1.268 . S
C75 O84 1.268 . S
O76 Sc66 2.105 . S
O76 C70 1.268 . S
O77 Sc67 2.105 . S
O77 C71 1.268 . S
O78 Sc68 2.105 . S
O78 C72 1.268 . S
O79 Sc66 2.105 1_545 S
O79 C73 1.268 1_545 S
O80 Sc68 2.105 . S
O80 C74 1.268 . S
O81 Sc67 2.105 . S
O81 C75 1.268 . S
O82 Sc66 2.105 1_545 S
O82 C74 1.268 1_545 S
O83 Sc67 2.105 . S
O83 C73 1.268 . S
O84 Sc68 2.105 . S
O84 C75 1.268 . S
O85 Sc66 2.105 . S
O85 C71 1.268 . S
O86 Sc68 2.105 . S
O86 C70 1.268 . S
O87 Sc67 2.105 . S
O87 C72 1.268 . S
Sc88 O91 2.025 . S
Sc88 O98 2.105 . S
Sc88 O101 2.105 . S
Sc88 O104 2.105 . S
Sc88 O107 2.105 . S
Sc89 O91 2.025 . S
Sc89 O99 2.105 . S
Sc89 O103 2.105 . S
Sc89 O105 2.105 . S
Sc89 O109 2.105 . S
Sc90 O91 2.025 . S
Sc90 O100 2.105 1_455 S
Sc90 O102 2.105 . S
Sc90 O106 2.105 . S
Sc90 O108 2.105 1_455 S
O91 Sc88 2.025 . S
O91 Sc89 2.025 . S
O91 Sc90 2.025 . S
C92 O98 1.268 . S
C92 O108 1.268 1_455 S
C93 O99 1.268 . S
C93 O107 1.268 . S
C94 O100 1.268 1_455 S
C94 O109 1.268 . S
C95 O101 1.268 . S
C95 O105 1.268 . S
C96 O102 1.268 . S
C96 O104 1.268 . S
C97 O103 1.268 . S
C97 O106 1.268 . S
O98 Sc88 2.105 . S
O98 C92 1.268 . S
O99 Sc89 2.105 . S
O99 C93 1.268 . S
O100 Sc90 2.105 1_655 S
O100 C94 1.268 1_655 S
O101 Sc88 2.105 . S
O101 C95 1.268 . S
O102 Sc90 2.105 . S
O102 C96 1.268 . S
O103 Sc89 2.105 . S
O103 C97 1.268 . S
O104 Sc88 2.105 . S
O104 C96 1.268 . S
O105 Sc89 2.105 . S
O105 C95 1.268 . S
O106 Sc90 2.105 . S
O106 C97 1.268 . S
O107 Sc88 2.105 . S
O107 C93 1.268 . S
O108 Sc90 2.105 1_655 S
O108 C92 1.268 1_655 S
O109 Sc89 2.105 . S
O109 C94 1.268 . S
Sc110 O113 2.025 . S
Sc110 O120 2.105 . S
Sc110 O123 2.105 1_545 S
Sc110 O126 2.105 1_545 S
Sc110 O129 2.105 . S
Sc111 O113 2.025 . S
Sc111 O121 2.105 . S
Sc111 O125 2.105 . S
Sc111 O127 2.105 . S
Sc111 O131 2.105 . S
Sc112 O113 2.025 . S
Sc112 O122 2.105 . S
Sc112 O124 2.105 . S
Sc112 O128 2.105 . S
Sc112 O130 2.105 . S
O113 Sc110 2.025 . S
O113 Sc111 2.025 . S
O113 Sc112 2.025 . S
C114 O120 1.268 . S
C114 O130 1.268 . S
C115 O121 1.268 . S
C115 O129 1.268 . S
C116 O122 1.268 . S
C116 O131 1.268 . S
C117 O123 1.268 1_545 S
C117 O127 1.268 . S
C118 O124 1.268 . S
C118 O126 1.268 1_545 S
C119 O125 1.268 . S
C119 O128 1.268 . S
O120 Sc110 2.105 . S
O120 C114 1.268 . S
O121 Sc111 2.105 . S
O121 C115 1.268 . S
O122 Sc112 2.105 . S
O122 C116 1.268 . S
O123 Sc110 2.105 1_565 S
O123 C117 1.268 1_565 S
O124 Sc112 2.105 . S
O124 C118 1.268 . S
O125 Sc111 2.105 . S
O125 C119 1.268 . S
O126 Sc110 2.105 1_565 S
O126 C118 1.268 1_565 S
O127 Sc111 2.105 . S
O127 C117 1.268 . S
O128 Sc112 2.105 . S
O128 C119 1.268 . S
O129 Sc110 2.105 . S
O129 C115 1.268 . S
O130 Sc112 2.105 . S
O130 C114 1.268 . S
O131 Sc111 2.105 . S
O131 C116 1.268 . S
Sc132 O135 2.025 . S
Sc132 O142 2.105 . S
Sc132 O145 2.105 . S
Sc132 O148 2.105 . S
Sc132 O151 2.105 . S
Sc133 O135 2.025 . S
Sc133 O143 2.105 . S
Sc133 O147 2.105 . S
Sc133 O149 2.105 . S
Sc133 O153 2.105 . S
Sc134 O135 2.025 . S
Sc134 O144 2.105 . S
Sc134 O146 2.105 . S
Sc134 O150 2.105 . S
Sc134 O152 2.105 . S
O135 Sc132 2.025 . S
O135 Sc133 2.025 . S
O135 Sc134 2.025 . S
C136 O142 1.268 . S
C136 O152 1.268 . S
C137 O143 1.268 . S
C137 O151 1.268 . S
C138 O144 1.268 . S
C138 O153 1.268 . S
C139 O145 1.268 . S
C139 O149 1.268 . S
C140 O146 1.268 . S
C140 O148 1.268 . S
C141 O147 1.268 . S
C141 O150 1.268 . S
O142 Sc132 2.105 . S
O142 C136 1.268 . S
O143 Sc133 2.105 . S
O143 C137 1.268 . S
O144 Sc134 2.105 . S
O144 C138 1.268 . S
O145 Sc132 2.105 . S
O145 C139 1.268 . S
O146 Sc134 2.105 . S
O146 C140 1.268 . S
O147 Sc133 2.105 . S
O147 C141 1.268 . S
O148 Sc132 2.105 . S
O148 C140 1.268 . S
O149 Sc133 2.105 . S
O149 C139 1.268 . S
O150 Sc134 2.105 . S
O150 C141 1.268 . S
O151 Sc132 2.105 . S
O151 C137 1.268 . S
O152 Sc134 2.105 . S
O152 C136 1.268 . S
O153 Sc133 2.105 . S
O153 C138 1.268 . S
Sc154 O157 2.025 . S
Sc154 O164 2.105 . S
Sc154 O167 2.105 . S
Sc154 O170 2.105 . S
Sc154 O173 2.105 . S
Sc155 O157 2.025 . S
Sc155 O165 2.105 . S
Sc155 O169 2.105 . S
Sc155 O171 2.105 . S
Sc155 O175 2.105 . S
Sc156 O157 2.025 . S
Sc156 O166 2.105 . S
Sc156 O168 2.105 . S
Sc156 O172 2.105 . S
Sc156 O174 2.105 . S
O157 Sc154 2.025 . S
O157 Sc155 2.025 . S
O157 Sc156 2.025 . S
C158 O164 1.268 . S
C158 O174 1.268 . S
C159 O165 1.268 . S
C159 O173 1.268 . S
C160 O166 1.268 . S
C160 O175 1.268 . S
C161 O167 1.268 . S
C161 O171 1.268 . S
C162 O168 1.268 . S
C162 O170 1.268 . S
C163 O169 1.268 . S
C163 O172 1.268 . S
O164 Sc154 2.105 . S
O164 C158 1.268 . S
O165 Sc155 2.105 . S
O165 C159 1.268 . S
O166 Sc156 2.105 . S
O166 C160 1.268 . S
O167 Sc154 2.105 . S
O167 C161 1.268 . S
O168 Sc156 2.105 . S
O168 C162 1.268 . S
O169 Sc155 2.105 . S
O169 C163 1.268 . S
O170 Sc154 2.105 . S
O170 C162 1.268 . S
O171 Sc155 2.105 . S
O171 C161 1.268 . S
O172 Sc156 2.105 . S
O172 C163 1.268 . S
O173 Sc154 2.105 . S
O173 C159 1.268 . S
O174 Sc156 2.105 . S
O174 C158 1.268 . S
O175 Sc155 2.105 . S
O175 C160 1.268 . S
Sc176 O179 2.025 . S
Sc176 O186 2.105 . S
Sc176 O189 2.105 . S
Sc176 O192 2.105 . S
Sc176 O195 2.105 . S
Sc177 O179 2.025 . S
Sc177 O187 2.105 . S
Sc177 O191 2.105 . S
Sc177 O193 2.105 . S
Sc177 O197 2.105 . S
Sc178 O179 2.025 . S
Sc178 O188 2.105 . S
Sc178 O190 2.105 . S
Sc178 O194 2.105 . S
Sc178 O196 2.105 . S
O179 Sc176 2.025 . S
O179 Sc177 2.025 . S
O179 Sc178 2.025 . S
C180 O186 1.268 . S
C180 O196 1.268 . S
C181 O187 1.268 . S
C181 O195 1.268 . S
C182 O188 1.268 . S
C182 O197 1.268 . S
C183 O189 1.268 . S
C183 O193 1.268 . S
C184 O190 1.268 . S
C184 O192 1.268 . S
C185 O191 1.268 . S
C185 O194 1.268 . S
O186 Sc176 2.105 . S
O186 C180 1.268 . S
O187 Sc177 2.105 . S
O187 C181 1.268 . S
O188 Sc178 2.105 . S
O188 C182 1.268 . S
O189 Sc176 2.105 . S
O189 C183 1.268 . S
O190 Sc178 2.105 . S
O190 C184 1.268 . S
O191 Sc177 2.105 . S
O191 C185 1.268 . S
O192 Sc176 2.105 . S
O192 C184 1.268 . S
O193 Sc177 2.105 . S
O193 C183 1.268 . S
O194 Sc178 2.105 . S
O194 C185 1.268 . S
O195 Sc176 2.105 . S
O195 C181 1.268 . S
O196 Sc178 2.105 . S
O196 C180 1.268 . S
O197 Sc177 2.105 . S
O197 C182 1.268 . S
Sc198 O201 2.025 . S
Sc198 O208 2.105 . S
Sc198 O211 2.105 . S
Sc198 O214 2.105 . S
Sc198 O217 2.105 . S
Sc199 O201 2.025 . S
Sc199 O209 2.105 . S
Sc199 O213 2.105 . S
Sc199 O215 2.105 . S
Sc199 O219 2.105 . S
Sc200 O201 2.025 . S
Sc200 O210 2.105 . S
Sc200 O212 2.105 . S
Sc200 O216 2.105 . S
Sc200 O218 2.105 . S
O201 Sc198 2.025 . S
O201 Sc199 2.025 . S
O201 Sc200 2.025 . S
C202 O208 1.268 . S
C202 O218 1.268 . S
C203 O209 1.268 . S
C203 O217 1.268 . S
C204 O210 1.268 . S
C204 O219 1.268 . S
C205 O211 1.268 . S
C205 O215 1.268 . S
C206 O212 1.268 . S
C206 O214 1.268 . S
C207 O213 1.268 . S
C207 O216 1.268 . S
O208 Sc198 2.105 . S
O208 C202 1.268 . S
O209 Sc199 2.105 . S
O209 C203 1.268 . S
O210 Sc200 2.105 . S
O210 C204 1.268 . S
O211 Sc198 2.105 . S
O211 C205 1.268 . S
O212 Sc200 2.105 . S
O212 C206 1.268 . S
O213 Sc199 2.105 . S
O213 C207 1.268 . S
O214 Sc198 2.105 . S
O214 C206 1.268 . S
O215 Sc199 2.105 . S
O215 C205 1.268 . S
O216 Sc200 2.105 . S
O216 C207 1.268 . S
O217 Sc198 2.105 . S
O217 C203 1.268 . S
O218 Sc200 2.105 . S
O218 C202 1.268 . S
O219 Sc199 2.105 . S
O219 C204 1.268 . S
Sc220 O223 2.025 . S
Sc220 O230 2.105 . S
Sc220 O233 2.105 . S
Sc220 O236 2.105 . S
Sc220 O239 2.105 . S
Sc221 O223 2.025 . S
Sc221 O231 2.105 . S
Sc221 O235 2.105 . S
Sc221 O237 2.105 . S
Sc221 O241 2.105 . S
Sc222 O223 2.025 . S
Sc222 O232 2.105 . S
Sc222 O234 2.105 1_455 S
Sc222 O238 2.105 1_455 S
Sc222 O240 2.105 . S
O223 Sc220 2.025 . S
O223 Sc221 2.025 . S
O223 Sc222 2.025 . S
C224 O230 1.268 . S
C224 O240 1.268 . S
C225 O231 1.268 . S
C225 O239 1.268 . S
C226 O232 1.268 . S
C226 O241 1.268 . S
C227 O233 1.268 . S
C227 O237 1.268 . S
C228 O234 1.268 1_455 S
C228 O236 1.268 . S
C229 O235 1.268 . S
C229 O238 1.268 1_455 S
O230 Sc220 2.105 . S
O230 C224 1.268 . S
O231 Sc221 2.105 . S
O231 C225 1.268 . S
O232 Sc222 2.105 . S
O232 C226 1.268 . S
O233 Sc220 2.105 . S
O233 C227 1.268 . S
O234 Sc222 2.105 1_655 S
O234 C228 1.268 1_655 S
O235 Sc221 2.105 . S
O235 C229 1.268 . S
O236 Sc220 2.105 . S
O236 C228 1.268 . S
O237 Sc221 2.105 . S
O237 C227 1.268 . S
O238 Sc222 2.105 1_655 S
O238 C229 1.268 1_655 S
O239 Sc220 2.105 . S
O239 C225 1.268 . S
O240 Sc222 2.105 . S
O240 C224 1.268 . S
O241 Sc221 2.105 . S
O241 C226 1.268 . S
Sc242 O245 2.025 . S
Sc242 O252 2.105 . S
Sc242 O255 2.105 . S
Sc242 O258 2.105 . S
Sc242 O261 2.105 . S
Sc243 O245 2.025 . S
Sc243 O253 2.105 . S
Sc243 O257 2.105 . S
Sc243 O259 2.105 . S
Sc243 O263 2.105 . S
Sc244 O245 2.025 . S
Sc244 O254 2.105 . S
Sc244 O256 2.105 1_545 S
Sc244 O260 2.105 1_545 S
Sc244 O262 2.105 . S
O245 Sc242 2.025 . S
O245 Sc243 2.025 . S
O245 Sc244 2.025 . S
C246 O252 1.268 . S
C246 O262 1.268 . S
C247 O253 1.268 . S
C247 O261 1.268 . S
C248 O254 1.268 . S
C248 O263 1.268 . S
C249 O255 1.268 . S
C249 O259 1.268 . S
C250 O256 1.268 1_545 S
C250 O258 1.268 . S
C251 O257 1.268 . S
C251 O260 1.268 1_545 S
O252 Sc242 2.105 . S
O252 C246 1.268 . S
O253 Sc243 2.105 . S
O253 C247 1.268 . S
O254 Sc244 2.105 . S
O254 C248 1.268 . S
O255 Sc242 2.105 . S
O255 C249 1.268 . S
O256 Sc244 2.105 1_565 S
O256 C250 1.268 1_565 S
O257 Sc243 2.105 . S
O257 C251 1.268 . S
O258 Sc242 2.105 . S
O258 C250 1.268 . S
O259 Sc243 2.105 . S
O259 C249 1.268 . S
O260 Sc244 2.105 1_565 S
O260 C251 1.268 1_565 S
O261 Sc242 2.105 . S
O261 C247 1.268 . S
O262 Sc244 2.105 . S
O262 C246 1.268 . S
O263 Sc243 2.105 . S
O263 C248 1.268 . S
Sc264 O267 2.025 . S
Sc264 O274 2.105 . S
Sc264 O277 2.105 . S
Sc264 O280 2.105 . S
Sc264 O283 2.105 . S
Sc265 O267 2.025 . S
Sc265 O275 2.105 . S
Sc265 O279 2.105 . S
Sc265 O281 2.105 . S
Sc265 O285 2.105 . S
Sc266 O267 2.025 . S
Sc266 O276 2.105 . S
Sc266 O278 2.105 1_655 S
Sc266 O282 2.105 1_655 S
Sc266 O284 2.105 . S
O267 Sc264 2.025 . S
O267 Sc265 2.025 . S
O267 Sc266 2.025 . S
C268 O274 1.268 . S
C268 O284 1.268 . S
C269 O275 1.268 . S
C269 O283 1.268 . S
C270 O276 1.268 . S
C270 O285 1.268 . S
C271 O277 1.268 . S
C271 O281 1.268 . S
C272 O278 1.268 1_655 S
C272 O280 1.268 . S
C273 O279 1.268 . S
C273 O282 1.268 1_655 S
O274 Sc264 2.105 . S
O274 C268 1.268 . S
O275 Sc265 2.105 . S
O275 C269 1.268 . S
O276 Sc266 2.105 . S
O276 C270 1.268 . S
O277 Sc264 2.105 . S
O277 C271 1.268 . S
O278 Sc266 2.105 1_455 S
O278 C272 1.268 1_455 S
O279 Sc265 2.105 . S
O279 C273 1.268 . S
O280 Sc264 2.105 . S
O280 C272 1.268 . S
O281 Sc265 2.105 . S
O281 C271 1.268 . S
O282 Sc266 2.105 1_455 S
O282 C273 1.268 1_455 S
O283 Sc264 2.105 . S
O283 C269 1.268 . S
O284 Sc266 2.105 . S
O284 C268 1.268 . S
O285 Sc265 2.105 . S
O285 C270 1.268 . S
Sc286 O289 2.025 . S
Sc286 O296 2.105 . S
Sc286 O299 2.105 . S
Sc286 O302 2.105 . S
Sc286 O305 2.105 . S
Sc287 O289 2.025 . S
Sc287 O297 2.105 . S
Sc287 O301 2.105 . S
Sc287 O303 2.105 . S
Sc287 O307 2.105 . S
Sc288 O289 2.025 . S
Sc288 O298 2.105 . S
Sc288 O300 2.105 1_565 S
Sc288 O304 2.105 1_565 S
Sc288 O306 2.105 . S
O289 Sc286 2.025 . S
O289 Sc287 2.025 . S
O289 Sc288 2.025 . S
C290 O296 1.268 . S
C290 O306 1.268 . S
C291 O297 1.268 . S
C291 O305 1.268 . S
C292 O298 1.268 . S
C292 O307 1.268 . S
C293 O299 1.268 . S
C293 O303 1.268 . S
C294 O300 1.268 1_565 S
C294 O302 1.268 . S
C295 O301 1.268 . S
C295 O304 1.268 1_565 S
O296 Sc286 2.105 . S
O296 C290 1.268 . S
O297 Sc287 2.105 . S
O297 C291 1.268 . S
O298 Sc288 2.105 . S
O298 C292 1.268 . S
O299 Sc286 2.105 . S
O299 C293 1.268 . S
O300 Sc288 2.105 1_545 S
O300 C294 1.268 1_545 S
O301 Sc287 2.105 . S
O301 C295 1.268 . S
O302 Sc286 2.105 . S
O302 C294 1.268 . S
O303 Sc287 2.105 . S
O303 C293 1.268 . S
O304 Sc288 2.105 1_545 S
O304 C295 1.268 1_545 S
O305 Sc286 2.105 . S
O305 C291 1.268 . S
O306 Sc288 2.105 . S
O306 C290 1.268 . S
O307 Sc287 2.105 . S
O307 C292 1.268 . S
Sc308 O311 2.025 . S
Sc308 O318 2.105 . S
Sc308 O321 2.105 . S
Sc308 O324 2.105 . S
Sc308 O327 2.105 . S
Sc309 O311 2.025 . S
Sc309 O319 2.105 . S
Sc309 O323 2.105 . S
Sc309 O325 2.105 . S
Sc309 O329 2.105 . S
Sc310 O311 2.025 . S
Sc310 O320 2.105 . S
Sc310 O322 2.105 . S
Sc310 O326 2.105 . S
Sc310 O328 2.105 . S
O311 Sc308 2.025 . S
O311 Sc309 2.025 . S
O311 Sc310 2.025 . S
C312 O318 1.268 . S
C312 O328 1.268 . S
C313 O319 1.268 . S
C313 O327 1.268 . S
C314 O320 1.268 . S
C314 O329 1.268 . S
C315 O321 1.268 . S
C315 O325 1.268 . S
C316 O322 1.268 . S
C316 O324 1.268 . S
C317 O323 1.268 . S
C317 O326 1.268 . S
O318 Sc308 2.105 . S
O318 C312 1.268 . S
O319 Sc309 2.105 . S
O319 C313 1.268 . S
O320 Sc310 2.105 . S
O320 C314 1.268 . S
O321 Sc308 2.105 . S
O321 C315 1.268 . S
O322 Sc310 2.105 . S
O322 C316 1.268 . S
O323 Sc309 2.105 . S
O323 C317 1.268 . S
O324 Sc308 2.105 . S
O324 C316 1.268 . S
O325 Sc309 2.105 . S
O325 C315 1.268 . S
O326 Sc310 2.105 . S
O326 C317 1.268 . S
O327 Sc308 2.105 . S
O327 C313 1.268 . S
O328 Sc310 2.105 . S
O328 C312 1.268 . S
O329 Sc309 2.105 . S
O329 C314 1.268 . S
Sc330 O333 2.025 . S
Sc330 O340 2.105 . S
Sc330 O343 2.105 . S
Sc330 O346 2.105 . S
Sc330 O349 2.105 . S
Sc331 O333 2.025 . S
Sc331 O341 2.105 . S
Sc331 O345 2.105 . S
Sc331 O347 2.105 . S
Sc331 O351 2.105 . S
Sc332 O333 2.025 . S
Sc332 O342 2.105 . S
Sc332 O344 2.105 . S
Sc332 O348 2.105 . S
Sc332 O350 2.105 . S
O333 Sc330 2.025 . S
O333 Sc331 2.025 . S
O333 Sc332 2.025 . S
C334 O340 1.268 . S
C334 O350 1.268 . S
C335 O341 1.268 . S
C335 O349 1.268 . S
C336 O342 1.268 . S
C336 O351 1.268 . S
C337 O343 1.268 . S
C337 O347 1.268 . S
C338 O344 1.268 . S
C338 O346 1.268 . S
C339 O345 1.268 . S
C339 O348 1.268 . S
O340 Sc330 2.105 . S
O340 C334 1.268 . S
O341 Sc331 2.105 . S
O341 C335 1.268 . S
O342 Sc332 2.105 . S
O342 C336 1.268 . S
O343 Sc330 2.105 . S
O343 C337 1.268 . S
O344 Sc332 2.105 . S
O344 C338 1.268 . S
O345 Sc331 2.105 . S
O345 C339 1.268 . S
O346 Sc330 2.105 . S
O346 C338 1.268 . S
O347 Sc331 2.105 . S
O347 C337 1.268 . S
O348 Sc332 2.105 . S
O348 C339 1.268 . S
O349 Sc330 2.105 . S
O349 C335 1.268 . S
O350 Sc332 2.105 . S
O350 C334 1.268 . S
O351 Sc331 2.105 . S
O351 C336 1.268 . S
H352 C360 0.950 . S
H353 C365 0.950 . S
H354 C362 0.950 . S
H355 C364 0.950 . S
H356 C366 0.950 . S
H357 C368 0.950 . S
H358 C370 0.950 . S
H359 C371 0.950 . S
C360 H352 0.950 . S
C360 C361 1.386 . S
C360 C362 1.391 . S
C361 C360 1.386 . S
C361 C365 1.393 . S
C362 H354 0.950 . S
C362 C360 1.391 . S
C362 C363 1.400 . S
C363 C362 1.400 . S
C363 C364 1.398 . S
C363 C369 1.491 . S
C364 H355 0.950 . S
C364 C363 1.398 . S
C364 C365 1.391 . S
C365 H353 0.950 . S
C365 C361 1.393 . S
C365 C364 1.391 . S
C366 H356 0.950 . S
C366 C367 1.386 . S
C366 C368 1.391 . S
C367 C366 1.386 . S
C367 C371 1.393 . S
C368 H357 0.950 . S
C368 C366 1.391 . S
C368 C369 1.400 . S
C369 C363 1.491 . S
C369 C368 1.400 . S
C369 C370 1.398 . S
C370 H358 0.950 . S
C370 C369 1.398 . S
C370 C371 1.391 . S
C371 H359 0.950 . S
C371 C367 1.393 . S
C371 C370 1.391 . S
H372 C380 0.950 . S
H373 C385 0.950 . S
H374 C382 0.950 . S
H375 C384 0.950 . S
H376 C386 0.950 . S
H377 C388 0.950 . S
H378 C390 0.950 . S
H379 C391 0.950 . S
C380 H372 0.950 . S
C380 C381 1.386 . S
C380 C382 1.391 . S
C381 C380 1.386 . S
C381 C385 1.393 . S
C382 H374 0.950 . S
C382 C380 1.391 . S
C382 C383 1.400 . S
C383 C382 1.400 . S
C383 C384 1.398 . S
C383 C389 1.491 . S
C384 H375 0.950 . S
C384 C383 1.398 . S
C384 C385 1.391 . S
C385 H373 0.950 . S
C385 C381 1.393 . S
C385 C384 1.391 . S
C386 H376 0.950 . S
C386 C387 1.386 . S
C386 C388 1.391 . S
C387 C386 1.386 . S
C387 C391 1.393 . S
C388 H377 0.950 . S
C388 C386 1.391 . S
C388 C389 1.400 . S
C389 C383 1.491 . S
C389 C388 1.400 . S
C389 C390 1.398 . S
C390 H378 0.950 . S
C390 C389 1.398 . S
C390 C391 1.391 . S
C391 H379 0.950 . S
C391 C387 1.393 . S
C391 C390 1.391 . S
H392 C400 0.950 . S
H393 C405 0.950 . S
H394 C402 0.950 . S
H395 C404 0.950 . S
H396 C406 0.950 . S
H397 C408 0.950 . S
H398 C410 0.950 . S
H399 C411 0.950 . S
C400 H392 0.950 . S
C400 C401 1.386 . S
C400 C402 1.391 . S
C401 C400 1.386 . S
C401 C405 1.393 . S
C402 H394 0.950 . S
C402 C400 1.391 . S
C402 C403 1.400 . S
C403 C402 1.400 . S
C403 C404 1.398 . S
C403 C409 1.491 . S
C404 H395 0.950 . S
C404 C403 1.398 . S
C404 C405 1.391 . S
C405 H393 0.950 . S
C405 C401 1.393 . S
C405 C404 1.391 . S
C406 H396 0.950 . S
C406 C407 1.386 . S
C406 C408 1.391 . S
C407 C406 1.386 . S
C407 C411 1.393 . S
C408 H397 0.950 . S
C408 C406 1.391 . S
C408 C409 1.400 . S
C409 C403 1.491 . S
C409 C408 1.400 . S
C409 C410 1.398 . S
C410 H398 0.950 . S
C410 C409 1.398 . S
C410 C411 1.391 . S
C411 H399 0.950 . S
C411 C407 1.393 . S
C411 C410 1.391 . S
H412 C420 0.950 . S
H413 C425 0.950 . S
H414 C422 0.950 . S
H415 C424 0.950 . S
H416 C426 0.950 . S
H417 C428 0.950 . S
H418 C430 0.950 . S
H419 C431 0.950 . S
C420 H412 0.950 . S
C420 C421 1.386 . S
C420 C422 1.391 . S
C421 C420 1.386 . S
C421 C425 1.393 . S
C422 H414 0.950 . S
C422 C420 1.391 . S
C422 C423 1.400 . S
C423 C422 1.400 . S
C423 C424 1.398 . S
C423 C429 1.491 . S
C424 H415 0.950 . S
C424 C423 1.398 . S
C424 C425 1.391 . S
C425 H413 0.950 . S
C425 C421 1.393 . S
C425 C424 1.391 . S
C426 H416 0.950 . S
C426 C427 1.386 . S
C426 C428 1.391 . S
C427 C426 1.386 . S
C427 C431 1.393 . S
C428 H417 0.950 . S
C428 C426 1.391 . S
C428 C429 1.400 . S
C429 C423 1.491 . S
C429 C428 1.400 . S
C429 C430 1.398 . S
C430 H418 0.950 . S
C430 C429 1.398 . S
C430 C431 1.391 . S
C431 H419 0.950 . S
C431 C427 1.393 . S
C431 C430 1.391 . S
H432 C440 0.950 . S
H433 C445 0.950 . S
H434 C442 0.950 . S
H435 C444 0.950 . S
H436 C446 0.950 . S
H437 C448 0.950 . S
H438 C450 0.950 . S
H439 C451 0.950 . S
C440 H432 0.950 . S
C440 C441 1.386 . S
C440 C442 1.391 . S
C441 C440 1.386 . S
C441 C445 1.393 . S
C442 H434 0.950 . S
C442 C440 1.391 . S
C442 C443 1.400 . S
C443 C442 1.400 . S
C443 C444 1.398 . S
C443 C449 1.491 . S
C444 H435 0.950 . S
C444 C443 1.398 . S
C444 C445 1.391 . S
C445 H433 0.950 . S
C445 C441 1.393 . S
C445 C444 1.391 . S
C446 H436 0.950 . S
C446 C447 1.386 . S
C446 C448 1.391 . S
C447 C446 1.386 . S
C447 C451 1.393 . S
C448 H437 0.950 . S
C448 C446 1.391 . S
C448 C449 1.400 . S
C449 C443 1.491 . S
C449 C448 1.400 . S
C449 C450 1.398 . S
C450 H438 0.950 . S
C450 C449 1.398 . S
C450 C451 1.391 . S
C451 H439 0.950 . S
C451 C447 1.393 . S
C451 C450 1.391 . S
H452 C460 0.950 . S
H453 C465 0.950 . S
H454 C462 0.950 . S
H455 C464 0.950 . S
H456 C466 0.950 . S
H457 C468 0.950 . S
H458 C470 0.950 . S
H459 C471 0.950 . S
C460 H452 0.950 . S
C460 C461 1.386 . S
C460 C462 1.391 . S
C461 C460 1.386 . S
C461 C465 1.393 . S
C462 H454 0.950 . S
C462 C460 1.391 . S
C462 C463 1.400 . S
C463 C462 1.400 . S
C463 C464 1.398 . S
C463 C469 1.491 . S
C464 H455 0.950 . S
C464 C463 1.398 . S
C464 C465 1.391 . S
C465 H453 0.950 . S
C465 C461 1.393 . S
C465 C464 1.391 . S
C466 H456 0.950 . S
C466 C467 1.386 . S
C466 C468 1.391 . S
C467 C466 1.386 . S
C467 C471 1.393 . S
C468 H457 0.950 . S
C468 C466 1.391 . S
C468 C469 1.400 . S
C469 C463 1.491 . S
C469 C468 1.400 . S
C469 C470 1.398 . S
C470 H458 0.950 . S
C470 C469 1.398 . S
C470 C471 1.391 . S
C471 H459 0.950 . S
C471 C467 1.393 . S
C471 C470 1.391 . S
H472 C480 0.950 . S
H473 C485 0.950 . S
H474 C482 0.950 . S
H475 C484 0.950 . S
H476 C486 0.950 . S
H477 C488 0.950 . S
H478 C490 0.950 . S
H479 C491 0.950 . S
C480 H472 0.950 . S
C480 C481 1.386 . S
C480 C482 1.391 . S
C481 C480 1.386 . S
C481 C485 1.393 . S
C482 H474 0.950 . S
C482 C480 1.391 . S
C482 C483 1.400 . S
C483 C482 1.400 . S
C483 C484 1.398 . S
C483 C489 1.491 . S
C484 H475 0.950 . S
C484 C483 1.398 . S
C484 C485 1.391 . S
C485 H473 0.950 . S
C485 C481 1.393 . S
C485 C484 1.391 . S
C486 H476 0.950 . S
C486 C487 1.386 . S
C486 C488 1.391 . S
C487 C486 1.386 . S
C487 C491 1.393 . S
C488 H477 0.950 . S
C488 C486 1.391 . S
C488 C489 1.400 . S
C489 C483 1.491 . S
C489 C488 1.400 . S
C489 C490 1.398 . S
C490 H478 0.950 . S
C490 C489 1.398 . S
C490 C491 1.391 . S
C491 H479 0.950 . S
C491 C487 1.393 . S
C491 C490 1.391 . S
H492 C500 0.950 . S
H493 C505 0.950 . S
H494 C502 0.950 . S
H495 C504 0.950 . S
H496 C506 0.950 . S
H497 C508 0.950 . S
H498 C510 0.950 . S
H499 C511 0.950 . S
C500 H492 0.950 . S
C500 C501 1.386 . S
C500 C502 1.391 . S
C501 C500 1.386 . S
C501 C505 1.393 . S
C502 H494 0.950 . S
C502 C500 1.391 . S
C502 C503 1.400 . S
C503 C502 1.400 . S
C503 C504 1.398 . S
C503 C509 1.491 . S
C504 H495 0.950 . S
C504 C503 1.398 . S
C504 C505 1.391 . S
C505 H493 0.950 . S
C505 C501 1.393 . S
C505 C504 1.391 . S
C506 H496 0.950 . S
C506 C507 1.386 . S
C506 C508 1.391 . S
C507 C506 1.386 . S
C507 C511 1.393 . S
C508 H497 0.950 . S
C508 C506 1.391 . S
C508 C509 1.400 . S
C509 C503 1.491 . S
C509 C508 1.400 . S
C509 C510 1.398 . S
C510 H498 0.950 . S
C510 C509 1.398 . S
C510 C511 1.391 . S
C511 H499 0.950 . S
C511 C507 1.393 . S
C511 C510 1.391 . S
H512 C520 0.950 . S
H513 C525 0.950 . S
H514 C522 0.950 . S
H515 C524 0.950 . S
H516 C526 0.950 . S
H517 C528 0.950 . S
H518 C530 0.950 . S
H519 C531 0.967 . S
C520 H512 0.950 . S
C520 C521 1.386 . S
C520 C522 1.391 . S
C521 C520 1.386 . S
C521 C525 1.393 . S
C522 H514 0.950 . S
C522 C520 1.391 . S
C522 C523 1.400 . S
C523 C522 1.400 . S
C523 C524 1.398 . S
C523 C529 1.491 . S
C524 H515 0.950 . S
C524 C523 1.398 . S
C524 C525 1.391 . S
C525 H513 0.950 . S
C525 C521 1.393 . S
C525 C524 1.391 . S
C526 H516 0.950 . S
C526 C527 1.386 . S
C526 C528 1.391 . S
C527 C526 1.386 . S
C527 C531 1.393 . S
C528 H517 0.950 . S
C528 C526 1.391 . S
C528 C529 1.400 . S
C529 C523 1.491 . S
C529 C528 1.400 . S
C529 C530 1.398 . S
C530 H518 0.950 . S
C530 C529 1.398 . S
C530 C531 1.391 . S
C531 H519 0.967 . S
C531 C527 1.393 . S
C531 C530 1.391 . S
H532 C540 0.950 . S
H533 C545 0.950 . S
H534 C542 0.950 . S
H535 C544 0.950 . S
H536 C546 0.950 . S
H537 C548 0.950 . S
H538 C550 0.950 . S
H539 C551 0.950 . S
C540 H532 0.950 . S
C540 C541 1.386 . S
C540 C542 1.391 . S
C541 C540 1.386 . S
C541 C545 1.393 . S
C542 H534 0.950 . S
C542 C540 1.391 . S
C542 C543 1.400 . S
C543 C542 1.400 . S
C543 C544 1.398 . S
C543 C549 1.491 . S
C544 H535 0.950 . S
C544 C543 1.398 . S
C544 C545 1.391 . S
C545 H533 0.950 . S
C545 C541 1.393 . S
C545 C544 1.391 . S
C546 H536 0.950 . S
C546 C547 1.386 . S
C546 C548 1.391 . S
C547 C546 1.386 . S
C547 C551 1.393 . S
C548 H537 0.950 . S
C548 C546 1.391 . S
C548 C549 1.400 . S
C549 C543 1.491 . S
C549 C548 1.400 . S
C549 C550 1.398 . S
C550 H538 0.950 . S
C550 C549 1.398 . S
C550 C551 1.391 . S
C551 H539 0.950 . S
C551 C547 1.393 . S
C551 C550 1.391 . S
H552 C560 0.950 . S
H553 C565 0.950 . S
H554 C562 0.950 . S
H555 C564 0.950 . S
H556 C566 0.950 . S
H557 C568 0.950 . S
H558 C570 0.950 . S
H559 C571 0.950 . S
C560 H552 0.950 . S
C560 C561 1.386 . S
C560 C562 1.391 . S
C561 C560 1.386 . S
C561 C565 1.393 . S
C562 H554 0.950 . S
C562 C560 1.391 . S
C562 C563 1.400 . S
C563 C562 1.400 . S
C563 C564 1.398 . S
C563 C569 1.491 . S
C564 H555 0.950 . S
C564 C563 1.398 . S
C564 C565 1.391 . S
C565 H553 0.950 . S
C565 C561 1.393 . S
C565 C564 1.391 . S
C566 H556 0.950 . S
C566 C567 1.386 . S
C566 C568 1.391 . S
C567 C566 1.386 . S
C567 C571 1.393 . S
C568 H557 0.950 . S
C568 C566 1.391 . S
C568 C569 1.400 . S
C569 C563 1.491 . S
C569 C568 1.400 . S
C569 C570 1.398 . S
C570 H558 0.950 . S
C570 C569 1.398 . S
C570 C571 1.391 . S
C571 H559 0.950 . S
C571 C567 1.393 . S
C571 C570 1.391 . S
H572 C580 0.950 . S
H573 C585 0.950 . S
H574 C582 0.950 . S
H575 C584 0.950 . S
H576 C586 0.950 . S
H577 C588 0.950 . S
H578 C590 0.950 . S
H579 C591 0.950 1_655 S
C580 H572 0.950 . S
C580 C581 1.386 . S
C580 C582 1.391 . S
C581 C580 1.386 . S
C581 C585 1.393 . S
C582 H574 0.950 . S
C582 C580 1.391 . S
C582 C583 1.400 . S
C583 C582 1.400 . S
C583 C584 1.398 . S
C583 C589 1.491 . S
C584 H575 0.950 . S
C584 C583 1.398 . S
C584 C585 1.391 . S
C585 H573 0.950 . S
C585 C581 1.393 . S
C585 C584 1.391 . S
C586 H576 0.950 . S
C586 C587 1.386 . S
C586 C588 1.391 . S
C587 C586 1.386 . S
C587 C591 1.393 . S
C588 H577 0.950 . S
C588 C586 1.391 . S
C588 C589 1.400 . S
C589 C583 1.491 . S
C589 C588 1.400 . S
C589 C590 1.398 . S
C590 H578 0.950 . S
C590 C589 1.398 . S
C590 C591 1.391 . S
C591 H579 0.950 1_455 S
C591 C587 1.393 . S
C591 C590 1.391 . S
H592 C600 0.950 . S
H593 C605 0.950 . S
H594 C602 0.950 . S
H595 C604 0.950 . S
H596 C606 0.950 1_545 S
H597 C608 0.950 . S
H598 C610 0.950 . S
H599 C611 0.950 . S
C600 H592 0.950 . S
C600 C601 1.386 . S
C600 C602 1.391 . S
C601 C600 1.386 . S
C601 C605 1.393 . S
C602 H594 0.950 . S
C602 C600 1.391 . S
C602 C603 1.400 . S
C603 C602 1.400 . S
C603 C604 1.398 . S
C603 C609 1.491 . S
C604 H595 0.950 . S
C604 C603 1.398 . S
C604 C605 1.391 . S
C605 H593 0.950 . S
C605 C601 1.393 . S
C605 C604 1.391 . S
C606 H596 0.950 1_565 S
C606 C607 1.386 . S
C606 C608 1.391 . S
C607 C606 1.386 . S
C607 C611 1.393 . S
C608 H597 0.950 . S
C608 C606 1.391 . S
C608 C609 1.400 . S
C609 C603 1.491 . S
C609 C608 1.400 . S
C609 C610 1.398 . S
C610 H598 0.950 . S
C610 C609 1.398 . S
C610 C611 1.391 . S
C611 H599 0.950 . S
C611 C607 1.393 . S
C611 C610 1.391 . S
H612 C620 0.950 . S
H613 C625 0.950 . S
H614 C622 0.950 . S
H615 C624 0.950 . S
H616 C626 0.950 . S
H617 C628 0.950 . S
H618 C630 0.950 . S
H619 C631 0.950 . S
C620 H612 0.950 . S
C620 C621 1.386 . S
C620 C622 1.391 . S
C621 C620 1.386 . S
C621 C625 1.393 . S
C622 H614 0.950 . S
C622 C620 1.391 . S
C622 C623 1.400 . S
C623 C622 1.400 . S
C623 C624 1.398 . S
C623 C629 1.491 . S
C624 H615 0.950 . S
C624 C623 1.398 . S
C624 C625 1.391 . S
C625 H613 0.950 . S
C625 C621 1.393 . S
C625 C624 1.391 . S
C626 H616 0.950 . S
C626 C627 1.386 . S
C626 C628 1.391 . S
C627 C626 1.386 . S
C627 C631 1.393 . S
C628 H617 0.950 . S
C628 C626 1.391 . S
C628 C629 1.400 . S
C629 C623 1.491 . S
C629 C628 1.400 . S
C629 C630 1.398 . S
C630 H618 0.950 . S
C630 C629 1.398 . S
C630 C631 1.391 . S
C631 H619 0.950 . S
C631 C627 1.393 . S
C631 C630 1.391 . S
H632 C640 0.950 . S
H633 C645 0.950 . S
H634 C642 0.950 . S
H635 C644 0.950 . S
H636 C646 0.950 . S
H637 C648 0.950 . S
H638 C650 0.950 . S
H639 C651 0.950 . S
C640 H632 0.950 . S
C640 C641 1.386 . S
C640 C642 1.391 . S
C641 C640 1.386 . S
C641 C645 1.393 . S
C642 H634 0.950 . S
C642 C640 1.391 . S
C642 C643 1.400 . S
C643 C642 1.400 . S
C643 C644 1.398 . S
C643 C649 1.491 . S
C644 H635 0.950 . S
C644 C643 1.398 . S
C644 C645 1.391 . S
C645 H633 0.950 . S
C645 C641 1.393 . S
C645 C644 1.391 . S
C646 H636 0.950 . S
C646 C647 1.386 . S
C646 C648 1.391 . S
C647 C646 1.386 . S
C647 C651 1.393 . S
C648 H637 0.950 . S
C648 C646 1.391 . S
C648 C649 1.400 . S
C649 C643 1.491 . S
C649 C648 1.400 . S
C649 C650 1.398 . S
C650 H638 0.950 . S
C650 C649 1.398 . S
C650 C651 1.391 . S
C651 H639 0.950 . S
C651 C647 1.393 . S
C651 C650 1.391 . S
H652 C660 0.950 . S
H653 C665 0.950 1_455 S
H654 C662 0.950 . S
H655 C664 0.950 . S
H656 C666 0.950 . S
H657 C668 0.950 . S
H658 C670 0.950 . S
H659 C671 0.950 . S
C660 H652 0.950 . S
C660 C661 1.386 . S
C660 C662 1.391 . S
C661 C660 1.386 . S
C661 C665 1.393 . S
C662 H654 0.950 . S
C662 C660 1.391 . S
C662 C663 1.400 . S
C663 C662 1.400 . S
C663 C664 1.398 . S
C663 C669 1.491 . S
C664 H655 0.950 . S
C664 C663 1.398 . S
C664 C665 1.391 . S
C665 H653 0.950 1_655 S
C665 C661 1.393 . S
C665 C664 1.391 . S
C666 H656 0.950 . S
C666 C667 1.386 . S
C666 C668 1.391 . S
C667 C666 1.386 . S
C667 C671 1.393 . S
C668 H657 0.950 . S
C668 C666 1.391 . S
C668 C669 1.400 . S
C669 C663 1.491 . S
C669 C668 1.400 . S
C669 C670 1.398 . S
C670 H658 0.950 . S
C670 C669 1.398 . S
C670 C671 1.391 . S
C671 H659 0.950 . S
C671 C667 1.393 . S
C671 C670 1.391 . S
H672 C680 0.950 . S
H673 C685 0.950 1_545 S
H674 C682 0.950 . S
H675 C684 0.950 . S
H676 C686 0.950 . S
H677 C688 0.950 . S
H678 C690 0.950 . S
H679 C691 0.950 . S
C680 H672 0.950 . S
C680 C681 1.386 . S
C680 C682 1.391 . S
C681 C680 1.386 . S
C681 C685 1.393 . S
C682 H674 0.950 . S
C682 C680 1.391 . S
C682 C683 1.400 . S
C683 C682 1.400 . S
C683 C684 1.398 . S
C683 C689 1.491 . S
C684 H675 0.950 . S
C684 C683 1.398 . S
C684 C685 1.391 . S
C685 H673 0.950 1_565 S
C685 C681 1.393 . S
C685 C684 1.391 . S
C686 H676 0.950 . S
C686 C687 1.386 . S
C686 C688 1.391 . S
C687 C686 1.386 . S
C687 C691 1.393 . S
C688 H677 0.950 . S
C688 C686 1.391 . S
C688 C689 1.400 . S
C689 C683 1.491 . S
C689 C688 1.400 . S
C689 C690 1.398 . S
C690 H678 0.950 . S
C690 C689 1.398 . S
C690 C691 1.391 . S
C691 H679 0.950 . S
C691 C687 1.393 . S
C691 C690 1.391 . S
H692 C700 0.950 . S
H693 C705 0.950 . S
H694 C702 0.950 . S
H695 C704 0.950 . S
H696 C706 0.950 . S
H697 C708 0.950 . S
H698 C710 0.950 . S
H699 C711 0.950 . S
C700 H692 0.950 . S
C700 C701 1.386 . S
C700 C702 1.391 . S
C701 C700 1.386 . S
C701 C705 1.393 . S
C702 H694 0.950 . S
C702 C700 1.391 . S
C702 C703 1.400 . S
C703 C702 1.400 . S
C703 C704 1.398 . S
C703 C709 1.491 . S
C704 H695 0.950 . S
C704 C703 1.398 . S
C704 C705 1.391 . S
C705 H693 0.950 . S
C705 C701 1.393 . S
C705 C704 1.391 . S
C706 H696 0.950 . S
C706 C707 1.386 . S
C706 C708 1.391 . S
C707 C706 1.386 . S
C707 C711 1.393 . S
C708 H697 0.950 . S
C708 C706 1.391 . S
C708 C709 1.400 . S
C709 C703 1.491 . S
C709 C708 1.400 . S
C709 C710 1.398 . S
C710 H698 0.950 . S
C710 C709 1.398 . S
C710 C711 1.391 . S
C711 H699 0.950 . S
C711 C707 1.393 . S
C711 C710 1.391 . S
H712 C720 0.950 . S
H713 C725 0.950 . S
H714 C722 0.950 . S
H715 C724 0.950 . S
H716 C726 0.950 . S
H717 C728 0.950 . S
H718 C730 0.950 . S
H719 C731 0.950 . S
C720 H712 0.950 . S
C720 C721 1.386 . S
C720 C722 1.391 . S
C721 C720 1.386 . S
C721 C725 1.393 . S
C722 H714 0.950 . S
C722 C720 1.391 . S
C722 C723 1.400 . S
C723 C722 1.400 . S
C723 C724 1.398 . S
C723 C729 1.491 . S
C724 H715 0.950 . S
C724 C723 1.398 . S
C724 C725 1.391 . S
C725 H713 0.950 . S
C725 C721 1.393 . S
C725 C724 1.391 . S
C726 H716 0.950 . S
C726 C727 1.386 . S
C726 C728 1.391 . S
C727 C726 1.386 . S
C727 C731 1.393 . S
C728 H717 0.950 . S
C728 C726 1.391 . S
C728 C729 1.400 . S
C729 C723 1.491 . S
C729 C728 1.400 . S
C729 C730 1.398 . S
C730 H718 0.950 . S
C730 C729 1.398 . S
C730 C731 1.391 . S
C731 H719 0.950 . S
C731 C727 1.393 . S
C731 C730 1.391 . S
H732 C740 0.950 . S
H733 C745 0.950 . S
H734 C742 0.950 . S
H735 C744 0.950 . S
H736 C746 0.950 . S
H737 C748 0.950 . S
H738 C750 0.950 . S
H739 C751 0.950 . S
C740 H732 0.950 . S
C740 C741 1.386 . S
C740 C742 1.391 . S
C741 C740 1.386 . S
C741 C745 1.393 . S
C742 H734 0.950 . S
C742 C740 1.391 . S
C742 C743 1.400 . S
C743 C742 1.400 . S
C743 C744 1.398 . S
C743 C749 1.491 . S
C744 H735 0.950 . S
C744 C743 1.398 . S
C744 C745 1.391 . S
C745 H733 0.950 . S
C745 C741 1.393 . S
C745 C744 1.391 . S
C746 H736 0.950 . S
C746 C747 1.386 . S
C746 C748 1.391 . S
C747 C746 1.386 . S
C747 C751 1.393 . S
C748 H737 0.950 . S
C748 C746 1.391 . S
C748 C749 1.400 . S
C749 C743 1.491 . S
C749 C748 1.400 . S
C749 C750 1.398 . S
C750 H738 0.950 . S
C750 C749 1.398 . S
C750 C751 1.391 . S
C751 H739 0.950 . S
C751 C747 1.393 . S
C751 C750 1.391 . S
H752 C760 0.950 . S
H753 C765 0.950 . S
H754 C762 0.950 . S
H755 C764 0.950 . S
H756 C766 0.950 . S
H757 C768 0.950 . S
H758 C770 0.950 . S
H759 C771 0.950 . S
C760 H752 0.950 . S
C760 C761 1.386 . S
C760 C762 1.391 . S
C761 C760 1.386 . S
C761 C765 1.393 . S
C762 H754 0.950 . S
C762 C760 1.391 . S
C762 C763 1.400 . S
C763 C762 1.400 . S
C763 C764 1.398 . S
C763 C769 1.491 . S
C764 H755 0.950 . S
C764 C763 1.398 . S
C764 C765 1.391 . S
C765 H753 0.950 . S
C765 C761 1.393 . S
C765 C764 1.391 . S
C766 H756 0.950 . S
C766 C767 1.386 . S
C766 C768 1.391 . S
C767 C766 1.386 . S
C767 C771 1.393 . S
C768 H757 0.950 . S
C768 C766 1.391 . S
C768 C769 1.400 . S
C769 C763 1.491 . S
C769 C768 1.400 . S
C769 C770 1.398 . S
C770 H758 0.950 . S
C770 C769 1.398 . S
C770 C771 1.391 . S
C771 H759 0.950 . S
C771 C767 1.393 . S
C771 C770 1.391 . S
H772 C780 0.950 . S
H773 C785 0.950 . S
H774 C782 0.950 . S
H775 C784 0.950 . S
H776 C786 0.950 . S
H777 C788 0.950 . S
H778 C790 0.950 . S
H779 C791 0.950 . S
C780 H772 0.950 . S
C780 C781 1.386 . S
C780 C782 1.391 . S
C781 C780 1.386 . S
C781 C785 1.393 . S
C782 H774 0.950 . S
C782 C780 1.391 . S
C782 C783 1.400 . S
C783 C782 1.400 . S
C783 C784 1.398 . S
C783 C789 1.491 . S
C784 H775 0.950 . S
C784 C783 1.398 . S
C784 C785 1.391 . S
C785 H773 0.950 . S
C785 C781 1.393 . S
C785 C784 1.391 . S
C786 H776 0.950 . S
C786 C787 1.386 . S
C786 C788 1.391 . S
C787 C786 1.386 . S
C787 C791 1.393 . S
C788 H777 0.950 . S
C788 C786 1.391 . S
C788 C789 1.400 . S
C789 C783 1.491 . S
C789 C788 1.400 . S
C789 C790 1.398 . S
C790 H778 0.950 . S
C790 C789 1.398 . S
C790 C791 1.391 . S
C791 H779 0.950 . S
C791 C787 1.393 . S
C791 C790 1.391 . S
H792 C800 0.950 . S
H793 C805 0.950 . S
H794 C802 0.950 . S
H795 C804 0.950 . S
H796 C806 0.950 . S
H797 C808 0.950 . S
H798 C810 0.950 . S
H799 C811 0.950 . S
C800 H792 0.950 . S
C800 C801 1.386 . S
C800 C802 1.391 . S
C801 C800 1.386 . S
C801 C805 1.393 . S
C802 H794 0.950 . S
C802 C800 1.391 . S
C802 C803 1.400 . S
C803 C802 1.400 . S
C803 C804 1.398 . S
C803 C809 1.491 . S
C804 H795 0.950 . S
C804 C803 1.398 . S
C804 C805 1.391 . S
C805 H793 0.950 . S
C805 C801 1.393 . S
C805 C804 1.391 . S
C806 H796 0.950 . S
C806 C807 1.386 . S
C806 C808 1.391 . S
C807 C806 1.386 . S
C807 C811 1.393 . S
C808 H797 0.950 . S
C808 C806 1.391 . S
C808 C809 1.400 . S
C809 C803 1.491 . S
C809 C808 1.400 . S
C809 C810 1.398 . S
C810 H798 0.950 . S
C810 C809 1.398 . S
C810 C811 1.391 . S
C811 H799 0.950 . S
C811 C807 1.393 . S
C811 C810 1.391 . S
H812 C820 0.950 . S
H813 C825 0.950 . S
H814 C822 0.950 . S
H815 C824 0.950 . S
H816 C826 0.950 . S
H817 C828 0.950 . S
H818 C830 0.950 . S
H819 C831 0.950 1_655 S
C820 H812 0.950 . S
C820 C821 1.386 . S
C820 C822 1.391 . S
C821 C820 1.386 . S
C821 C825 1.393 . S
C822 H814 0.950 . S
C822 C820 1.391 . S
C822 C823 1.400 . S
C823 C822 1.400 . S
C823 C824 1.398 . S
C823 C829 1.491 . S
C824 H815 0.950 . S
C824 C823 1.398 . S
C824 C825 1.391 . S
C825 H813 0.950 . S
C825 C821 1.393 . S
C825 C824 1.391 . S
C826 H816 0.950 . S
C826 C827 1.386 . S
C826 C828 1.391 . S
C827 C826 1.386 . S
C827 C831 1.393 . S
C828 H817 0.950 . S
C828 C826 1.391 . S
C828 C829 1.400 . S
C829 C823 1.491 . S
C829 C828 1.400 . S
C829 C830 1.398 . S
C830 H818 0.950 . S
C830 C829 1.398 . S
C830 C831 1.391 . S
C831 H819 0.950 1_455 S
C831 C827 1.393 . S
C831 C830 1.391 . S
H832 C840 0.950 . S
H833 C845 0.950 . S
H834 C842 0.950 . S
H835 C844 0.950 . S
H836 C846 0.950 . S
H837 C848 0.950 . S
H838 C850 0.950 . S
H839 C851 0.950 . S
C840 H832 0.950 . S
C840 C841 1.386 . S
C840 C842 1.391 . S
C841 C840 1.386 . S
C841 C845 1.393 . S
C842 H834 0.950 . S
C842 C840 1.391 . S
C842 C843 1.400 . S
C843 C842 1.400 . S
C843 C844 1.398 . S
C843 C849 1.491 . S
C844 H835 0.950 . S
C844 C843 1.398 . S
C844 C845 1.391 . S
C845 H833 0.950 . S
C845 C841 1.393 . S
C845 C844 1.391 . S
C846 H836 0.950 . S
C846 C847 1.386 . S
C846 C848 1.391 . S
C847 C846 1.386 . S
C847 C851 1.393 . S
C848 H837 0.950 . S
C848 C846 1.391 . S
C848 C849 1.400 . S
C849 C843 1.491 . S
C849 C848 1.400 . S
C849 C850 1.398 . S
C850 H838 0.950 . S
C850 C849 1.398 . S
C850 C851 1.391 . S
C851 H839 0.950 . S
C851 C847 1.393 . S
C851 C850 1.391 . S
H852 C860 0.950 . S
H853 C865 0.950 . S
H854 C862 0.950 . S
H855 C864 0.950 . S
H856 C866 0.950 . S
H857 C868 0.950 . S
H858 C870 0.950 . S
H859 C871 0.950 . S
C860 H852 0.950 . S
C860 C861 1.386 . S
C860 C862 1.391 . S
C861 C860 1.386 . S
C861 C865 1.393 . S
C862 H854 0.950 . S
C862 C860 1.391 . S
C862 C863 1.400 . S
C863 C862 1.400 . S
C863 C864 1.398 . S
C863 C869 1.491 . S
C864 H855 0.950 . S
C864 C863 1.398 . S
C864 C865 1.391 . S
C865 H853 0.950 . S
C865 C861 1.393 . S
C865 C864 1.391 . S
C866 H856 0.950 . S
C866 C867 1.386 . S
C866 C868 1.391 . S
C867 C866 1.386 . S
C867 C871 1.393 . S
C868 H857 0.950 . S
C868 C866 1.391 . S
C868 C869 1.400 . S
C869 C863 1.491 . S
C869 C868 1.400 . S
C869 C870 1.398 . S
C870 H858 0.950 . S
C870 C869 1.398 . S
C870 C871 1.391 . S
C871 H859 0.950 . S
C871 C867 1.393 . S
C871 C870 1.391 . S
H872 C880 0.950 . S
H873 C885 0.950 . S
H874 C882 0.950 . S
H875 C884 0.950 . S
H876 C886 0.950 . S
H877 C888 0.950 . S
H878 C890 0.950 . S
H879 C891 0.950 . S
C880 H872 0.950 . S
C880 C881 1.386 . S
C880 C882 1.391 . S
C881 C880 1.386 . S
C881 C885 1.393 . S
C882 H874 0.950 . S
C882 C880 1.391 . S
C882 C883 1.400 . S
C883 C882 1.400 . S
C883 C884 1.398 . S
C883 C889 1.491 . S
C884 H875 0.950 . S
C884 C883 1.398 . S
C884 C885 1.391 . S
C885 H873 0.950 . S
C885 C881 1.393 . S
C885 C884 1.391 . S
C886 H876 0.950 . S
C886 C887 1.386 . S
C886 C888 1.391 . S
C887 C886 1.386 . S
C887 C891 1.393 . S
C888 H877 0.950 . S
C888 C886 1.391 . S
C888 C889 1.400 . S
C889 C883 1.491 . S
C889 C888 1.400 . S
C889 C890 1.398 . S
C890 H878 0.950 . S
C890 C889 1.398 . S
C890 C891 1.391 . S
C891 H879 0.950 . S
C891 C887 1.393 . S
C891 C890 1.391 . S
H892 C900 0.950 . S
H893 C905 0.950 . S
H894 C902 0.950 . S
H895 C904 0.950 . S
H896 C906 0.950 . S
H897 C908 0.950 . S
H898 C910 0.950 . S
H899 C911 0.950 . S
C900 H892 0.950 . S
C900 C901 1.386 . S
C900 C902 1.391 . S
C901 C900 1.386 . S
C901 C905 1.393 . S
C902 H894 0.950 . S
C902 C900 1.391 . S
C902 C903 1.400 . S
C903 C902 1.400 . S
C903 C904 1.398 . S
C903 C909 1.491 . S
C904 H895 0.950 . S
C904 C903 1.398 . S
C904 C905 1.391 . S
C905 H893 0.950 . S
C905 C901 1.393 . S
C905 C904 1.391 . S
C906 H896 0.950 . S
C906 C907 1.386 . S
C906 C908 1.391 . S
C907 C906 1.386 . S
C907 C911 1.393 . S
C908 H897 0.950 . S
C908 C906 1.391 . S
C908 C909 1.400 . S
C909 C903 1.491 . S
C909 C908 1.400 . S
C909 C910 1.398 . S
C910 H898 0.950 . S
C910 C909 1.398 . S
C910 C911 1.391 . S
C911 H899 0.950 . S
C911 C907 1.393 . S
C911 C910 1.391 . S
H912 C920 0.950 . S
H913 C925 0.950 . S
H914 C922 0.950 . S
H915 C924 0.950 . S
H916 C926 0.950 . S
H917 C928 0.950 . S
H918 C930 0.950 . S
H919 C931 0.950 . S
C920 H912 0.950 . S
C920 C921 1.386 . S
C920 C922 1.391 . S
C921 C920 1.386 . S
C921 C925 1.393 . S
C922 H914 0.950 . S
C922 C920 1.391 . S
C922 C923 1.400 . S
C923 C922 1.400 . S
C923 C924 1.398 . S
C923 C929 1.491 . S
C924 H915 0.950 . S
C924 C923 1.398 . S
C924 C925 1.391 . S
C925 H913 0.950 . S
C925 C921 1.393 . S
C925 C924 1.391 . S
C926 H916 0.950 . S
C926 C927 1.386 . S
C926 C928 1.391 . S
C927 C926 1.386 . S
C927 C931 1.393 . S
C928 H917 0.950 . S
C928 C926 1.391 . S
C928 C929 1.400 . S
C929 C923 1.491 . S
C929 C928 1.400 . S
C929 C930 1.398 . S
C930 H918 0.950 . S
C930 C929 1.398 . S
C930 C931 1.391 . S
C931 H919 0.950 . S
C931 C927 1.393 . S
C931 C930 1.391 . S
H932 C940 0.950 . S
H933 C945 0.950 . S
H934 C942 0.950 . S
H935 C944 0.950 . S
H936 C946 0.950 . S
H937 C948 0.950 . S
H938 C950 0.950 . S
H939 C951 0.950 . S
C940 H932 0.950 . S
C940 C941 1.386 . S
C940 C942 1.391 . S
C941 C940 1.386 . S
C941 C945 1.393 . S
C942 H934 0.950 . S
C942 C940 1.391 . S
C942 C943 1.400 . S
C943 C942 1.400 . S
C943 C944 1.398 . S
C943 C949 1.491 . S
C944 H935 0.950 . S
C944 C943 1.398 . S
C944 C945 1.391 . S
C945 H933 0.950 . S
C945 C941 1.393 . S
C945 C944 1.391 . S
C946 H936 0.950 . S
C946 C947 1.386 . S
C946 C948 1.391 . S
C947 C946 1.386 . S
C947 C951 1.393 . S
C948 H937 0.950 . S
C948 C946 1.391 . S
C948 C949 1.400 . S
C949 C943 1.491 . S
C949 C948 1.400 . S
C949 C950 1.398 . S
C950 H938 0.950 . S
C950 C949 1.398 . S
C950 C951 1.391 . S
C951 H939 0.950 . S
C951 C947 1.393 . S
C951 C950 1.391 . S
H952 C960 0.950 . S
H953 C965 0.950 . S
H954 C962 0.950 . S
H955 C964 0.950 . S
H956 C966 0.950 . S
H957 C968 0.950 . S
H958 C970 0.950 . S
H959 C971 0.950 . S
C960 H952 0.950 . S
C960 C961 1.386 . S
C960 C962 1.391 . S
C961 C960 1.386 . S
C961 C965 1.393 . S
C962 H954 0.950 . S
C962 C960 1.391 . S
C962 C963 1.400 . S
C963 C962 1.400 . S
C963 C964 1.398 . S
C963 C969 1.491 . S
C964 H955 0.950 . S
C964 C963 1.398 . S
C964 C965 1.391 . S
C965 H953 0.950 . S
C965 C961 1.393 . S
C965 C964 1.391 . S
C966 H956 0.950 . S
C966 C967 1.386 . S
C966 C968 1.391 . S
C967 C966 1.386 . S
C967 C971 1.393 . S
C968 H957 0.950 . S
C968 C966 1.391 . S
C968 C969 1.400 . S
C969 C963 1.491 . S
C969 C968 1.400 . S
C969 C970 1.398 . S
C970 H958 0.950 . S
C970 C969 1.398 . S
C970 C971 1.391 . S
C971 H959 0.950 . S
C971 C967 1.393 . S
C971 C970 1.391 . S
H972 C980 0.950 . S
H973 C985 0.950 . S
H974 C982 0.950 . S
H975 C984 0.950 . S
H976 C986 0.950 . S
H977 C988 0.950 . S
H978 C990 0.950 . S
H979 C991 0.950 . S
C980 H972 0.950 . S
C980 C981 1.386 . S
C980 C982 1.391 . S
C981 C980 1.386 . S
C981 C985 1.393 . S
C982 H974 0.950 . S
C982 C980 1.391 . S
C982 C983 1.400 . S
C983 C982 1.400 . S
C983 C984 1.398 . S
C983 C989 1.491 . S
C984 H975 0.950 . S
C984 C983 1.398 . S
C984 C985 1.391 . S
C985 H973 0.950 . S
C985 C981 1.393 . S
C985 C984 1.391 . S
C986 H976 0.950 . S
C986 C987 1.386 . S
C986 C988 1.391 . S
C987 C986 1.386 . S
C987 C991 1.393 . S
C988 H977 0.950 . S
C988 C986 1.391 . S
C988 C989 1.400 . S
C989 C983 1.491 . S
C989 C988 1.400 . S
C989 C990 1.398 . S
C990 H978 0.950 . S
C990 C989 1.398 . S
C990 C991 1.391 . S
C991 H979 0.950 . S
C991 C987 1.393 . S
C991 C990 1.391 . S
H992 C1000 0.950 . S
H993 C1005 0.950 . S
H994 C1002 0.950 . S
H995 C1004 0.950 . S
H996 C1006 0.950 . S
H997 C1008 0.950 . S
H998 C1010 0.950 . S
H999 C1011 0.950 . S
C1000 H992 0.950 . S
C1000 C1001 1.386 . S
C1000 C1002 1.391 . S
C1001 C1000 1.386 . S
C1001 C1005 1.393 . S
C1002 H994 0.950 . S
C1002 C1000 1.391 . S
C1002 C1003 1.400 . S
C1003 C1002 1.400 . S
C1003 C1004 1.398 . S
C1003 C1009 1.491 . S
C1004 H995 0.950 . S
C1004 C1003 1.398 . S
C1004 C1005 1.391 . S
C1005 H993 0.950 . S
C1005 C1001 1.393 . S
C1005 C1004 1.391 . S
C1006 H996 0.950 . S
C1006 C1007 1.386 . S
C1006 C1008 1.391 . S
C1007 C1006 1.386 . S
C1007 C1011 1.393 . S
C1008 H997 0.950 . S
C1008 C1006 1.391 . S
C1008 C1009 1.400 . S
C1009 C1003 1.491 . S
C1009 C1008 1.400 . S
C1009 C1010 1.398 . S
C1010 H998 0.950 . S
C1010 C1009 1.398 . S
C1010 C1011 1.391 . S
C1011 H999 0.950 . S
C1011 C1007 1.393 . S
C1011 C1010 1.391 . S
H1012 C1020 0.950 . S
H1013 C1025 0.950 . S
H1014 C1022 0.950 . S
H1015 C1024 0.950 . S
H1016 C1026 0.950 . S
H1017 C1028 0.950 . S
H1018 C1030 0.950 . S
H1019 C1031 0.950 . S
C1020 H1012 0.950 . S
C1020 C1021 1.386 . S
C1020 C1022 1.391 . S
C1021 C1020 1.386 . S
C1021 C1025 1.393 . S
C1022 H1014 0.950 . S
C1022 C1020 1.391 . S
C1022 C1023 1.400 . S
C1023 C1022 1.400 . S
C1023 C1024 1.398 . S
C1023 C1029 1.491 . S
C1024 H1015 0.950 . S
C1024 C1023 1.398 . S
C1024 C1025 1.391 . S
C1025 H1013 0.950 . S
C1025 C1021 1.393 . S
C1025 C1024 1.391 . S
C1026 H1016 0.950 . S
C1026 C1027 1.386 . S
C1026 C1028 1.391 . S
C1027 C1026 1.386 . S
C1027 C1031 1.393 . S
C1028 H1017 0.950 . S
C1028 C1026 1.391 . S
C1028 C1029 1.400 . S
C1029 C1023 1.491 . S
C1029 C1028 1.400 . S
C1029 C1030 1.398 . S
C1030 H1018 0.950 . S
C1030 C1029 1.398 . S
C1030 C1031 1.391 . S
C1031 H1019 0.950 . S
C1031 C1027 1.393 . S
C1031 C1030 1.391 . S
H1032 C1040 0.950 . S
H1033 C1045 0.950 . S
H1034 C1042 0.950 . S
H1035 C1044 0.950 . S
H1036 C1046 0.950 . S
H1037 C1048 0.950 . S
H1038 C1050 0.950 . S
H1039 C1051 0.950 . S
C1040 H1032 0.950 . S
C1040 C1041 1.386 . S
C1040 C1042 1.391 . S
C1041 C1040 1.386 . S
C1041 C1045 1.393 . S
C1042 H1034 0.950 . S
C1042 C1040 1.391 . S
C1042 C1043 1.400 . S
C1043 C1042 1.400 . S
C1043 C1044 1.398 . S
C1043 C1049 1.491 . S
C1044 H1035 0.950 . S
C1044 C1043 1.398 . S
C1044 C1045 1.391 . S
C1045 H1033 0.950 . S
C1045 C1041 1.393 . S
C1045 C1044 1.391 . S
C1046 H1036 0.950 . S
C1046 C1047 1.386 . S
C1046 C1048 1.391 . S
C1047 C1046 1.386 . S
C1047 C1051 1.393 . S
C1048 H1037 0.950 . S
C1048 C1046 1.391 . S
C1048 C1049 1.400 . S
C1049 C1043 1.491 . S
C1049 C1048 1.400 . S
C1049 C1050 1.398 . S
C1050 H1038 0.950 . S
C1050 C1049 1.398 . S
C1050 C1051 1.391 . S
C1051 H1039 0.950 . S
C1051 C1047 1.393 . S
C1051 C1050 1.391 . S
H1052 C1060 0.950 . S
H1053 C1065 0.950 . S
H1054 C1062 0.950 . S
H1055 C1064 0.950 . S
H1056 C1066 0.950 . S
H1057 C1068 0.950 . S
H1058 C1070 0.950 . S
H1059 C1071 0.950 . S
C1060 H1052 0.950 . S
C1060 C1061 1.386 . S
C1060 C1062 1.391 . S
C1061 C1060 1.386 . S
C1061 C1065 1.393 . S
C1062 H1054 0.950 . S
C1062 C1060 1.391 . S
C1062 C1063 1.400 . S
C1063 C1062 1.400 . S
C1063 C1064 1.398 . S
C1063 C1069 1.491 . S
C1064 H1055 0.950 . S
C1064 C1063 1.398 . S
C1064 C1065 1.391 . S
C1065 H1053 0.950 . S
C1065 C1061 1.393 . S
C1065 C1064 1.391 . S
C1066 H1056 0.950 . S
C1066 C1067 1.386 . S
C1066 C1068 1.391 . S
C1067 C1066 1.386 . S
C1067 C1071 1.393 . S
C1068 H1057 0.950 . S
C1068 C1066 1.391 . S
C1068 C1069 1.400 . S
C1069 C1063 1.491 . S
C1069 C1068 1.400 . S
C1069 C1070 1.398 . S
C1070 H1058 0.950 . S
C1070 C1069 1.398 . S
C1070 C1071 1.391 . S
C1071 H1059 0.950 . S
C1071 C1067 1.393 . S
C1071 C1070 1.391 . S
H1072 C1080 0.950 . S
H1073 C1085 0.950 . S
H1074 C1082 0.950 . S
H1075 C1084 0.950 . S
H1076 C1086 0.950 . S
H1077 C1088 0.950 . S
H1078 C1090 0.950 . S
H1079 C1091 0.950 . S
C1080 H1072 0.950 . S
C1080 C1081 1.386 . S
C1080 C1082 1.391 . S
C1081 C1080 1.386 . S
C1081 C1085 1.393 . S
C1082 H1074 0.950 . S
C1082 C1080 1.391 . S
C1082 C1083 1.400 . S
C1083 C1082 1.400 . S
C1083 C1084 1.398 . S
C1083 C1089 1.491 1_556 S
C1084 H1075 0.950 . S
C1084 C1083 1.398 . S
C1084 C1085 1.391 . S
C1085 H1073 0.950 . S
C1085 C1081 1.393 . S
C1085 C1084 1.391 . S
C1086 H1076 0.950 . S
C1086 C1087 1.386 . S
C1086 C1088 1.391 . S
C1087 C1086 1.386 . S
C1087 C1091 1.393 . S
C1088 H1077 0.950 . S
C1088 C1086 1.391 . S
C1088 C1089 1.400 . S
C1089 C1083 1.491 1_554 S
C1089 C1088 1.400 . S
C1089 C1090 1.398 . S
C1090 H1078 0.950 . S
C1090 C1089 1.398 . S
C1090 C1091 1.391 . S
C1091 H1079 0.950 . S
C1091 C1087 1.393 . S
C1091 C1090 1.391 . S
H1092 C1100 0.950 . S
H1093 C1105 0.950 . S
H1094 C1102 0.950 . S
H1095 C1104 0.950 . S
H1096 C1106 0.950 . S
H1097 C1108 0.950 . S
H1098 C1110 0.950 . S
H1099 C1111 0.950 . S
C1100 H1092 0.950 . S
C1100 C1101 1.386 . S
C1100 C1102 1.391 . S
C1101 C1100 1.386 . S
C1101 C1105 1.393 . S
C1102 H1094 0.950 . S
C1102 C1100 1.391 . S
C1102 C1103 1.400 . S
C1103 C1102 1.400 . S
C1103 C1104 1.398 . S
C1103 C1109 1.491 1_554 S
C1104 H1095 0.950 . S
C1104 C1103 1.398 . S
C1104 C1105 1.391 . S
C1105 H1093 0.950 . S
C1105 C1101 1.393 . S
C1105 C1104 1.391 . S
C1106 H1096 0.950 . S
C1106 C1107 1.386 . S
C1106 C1108 1.391 . S
C1107 C1106 1.386 . S
C1107 C1111 1.393 . S
C1108 H1097 0.950 . S
C1108 C1106 1.391 . S
C1108 C1109 1.400 . S
C1109 C1103 1.491 1_556 S
C1109 C1108 1.400 . S
C1109 C1110 1.398 . S
C1110 H1098 0.950 . S
C1110 C1109 1.398 . S
C1110 C1111 1.391 . S
C1111 H1099 0.950 . S
C1111 C1107 1.393 . S
C1111 C1110 1.391 . S
H1112 C1120 0.950 . S
H1113 C1125 0.950 . S
H1114 C1122 0.935 1_554 S
H1115 C1124 0.950 . S
H1116 C1126 0.950 . S
H1117 C1128 0.950 1_556 S
H1118 C1130 0.950 . S
H1119 C1131 0.950 . S
C1120 H1112 0.950 . S
C1120 C1121 1.386 . S
C1120 C1122 1.391 . S
C1121 C1120 1.386 . S
C1121 C1125 1.393 . S
C1122 H1114 0.935 1_556 S
C1122 C1120 1.391 . S
C1122 C1123 1.400 . S
C1123 C1122 1.400 . S
C1123 C1124 1.398 . S
C1123 C1129 1.491 1_556 S
C1124 H1115 0.950 . S
C1124 C1123 1.398 . S
C1124 C1125 1.391 . S
C1125 H1113 0.950 . S
C1125 C1121 1.393 . S
C1125 C1124 1.391 . S
C1126 H1116 0.950 . S
C1126 C1127 1.386 . S
C1126 C1128 1.391 . S
C1127 C1126 1.386 . S
C1127 C1131 1.393 . S
C1128 H1117 0.950 1_554 S
C1128 C1126 1.391 . S
C1128 C1129 1.400 . S
C1129 C1123 1.491 1_554 S
C1129 C1128 1.400 . S
C1129 C1130 1.398 . S
C1130 H1118 0.950 . S
C1130 C1129 1.398 . S
C1130 C1131 1.391 . S
C1131 H1119 0.950 . S
C1131 C1127 1.393 . S
C1131 C1130 1.391 . S
H1132 C1140 0.950 . S
H1133 C1145 0.950 . S
H1134 C1142 0.950 . S
H1135 C1144 0.950 1_556 S
H1136 C1146 0.950 . S
H1137 C1148 0.950 . S
H1138 C1150 0.935 1_554 S
H1139 C1151 0.950 . S
C1140 H1132 0.950 . S
C1140 C1141 1.386 . S
C1140 C1142 1.391 . S
C1141 C1140 1.386 . S
C1141 C1145 1.393 . S
C1142 H1134 0.950 . S
C1142 C1140 1.391 . S
C1142 C1143 1.400 . S
C1143 C1142 1.400 . S
C1143 C1144 1.398 . S
C1143 C1149 1.491 1_554 S
C1144 H1135 0.950 1_554 S
C1144 C1143 1.398 . S
C1144 C1145 1.391 . S
C1145 H1133 0.950 . S
C1145 C1141 1.393 . S
C1145 C1144 1.391 . S
C1146 H1136 0.950 . S
C1146 C1147 1.386 . S
C1146 C1148 1.391 . S
C1147 C1146 1.386 . S
C1147 C1151 1.393 . S
C1148 H1137 0.950 . S
C1148 C1146 1.391 . S
C1148 C1149 1.400 . S
C1149 C1143 1.491 1_556 S
C1149 C1148 1.400 . S
C1149 C1150 1.398 . S
C1150 H1138 0.935 1_556 S
C1150 C1149 1.398 . S
C1150 C1151 1.391 . S
C1151 H1139 0.950 . S
C1151 C1147 1.393 . S
C1151 C1150 1.391 . S
H1152 C1160 0.950 . S
H1153 C1165 0.950 . S
H1154 C1162 0.950 . S
H1155 C1164 0.950 . S
H1156 C1166 0.950 . S
H1157 C1168 0.950 . S
H1158 C1170 0.950 . S
H1159 C1171 0.950 . S
C1160 H1152 0.950 . S
C1160 C1161 1.386 . S
C1160 C1162 1.391 . S
C1161 C1160 1.386 . S
C1161 C1165 1.393 . S
C1162 H1154 0.950 . S
C1162 C1160 1.391 . S
C1162 C1163 1.400 . S
C1163 C1162 1.400 . S
C1163 C1164 1.398 . S
C1163 C1169 1.491 . S
C1164 H1155 0.950 . S
C1164 C1163 1.398 . S
C1164 C1165 1.391 . S
C1165 H1153 0.950 . S
C1165 C1161 1.393 . S
C1165 C1164 1.391 . S
C1166 H1156 0.950 . S
C1166 C1167 1.386 . S
C1166 C1168 1.391 . S
C1167 C1166 1.386 . S
C1167 C1171 1.393 . S
C1168 H1157 0.950 . S
C1168 C1166 1.391 . S
C1168 C1169 1.400 . S
C1169 C1163 1.491 . S
C1169 C1168 1.400 . S
C1169 C1170 1.398 . S
C1170 H1158 0.950 . S
C1170 C1169 1.398 . S
C1170 C1171 1.391 . S
C1171 H1159 0.950 . S
C1171 C1167 1.393 . S
C1171 C1170 1.391 . S
H1172 C1180 0.950 . S
H1173 C1185 0.950 . S
H1174 C1182 0.950 . S
H1175 C1184 0.950 . S
H1176 C1186 0.950 . S
H1177 C1188 0.950 . S
H1178 C1190 0.950 . S
H1179 C1191 0.950 . S
C1180 H1172 0.950 . S
C1180 C1181 1.386 . S
C1180 C1182 1.391 . S
C1181 C1180 1.386 . S
C1181 C1185 1.393 . S
C1182 H1174 0.950 . S
C1182 C1180 1.391 . S
C1182 C1183 1.400 . S
C1183 C1182 1.400 . S
C1183 C1184 1.398 . S
C1183 C1189 1.491 . S
C1184 H1175 0.950 . S
C1184 C1183 1.398 . S
C1184 C1185 1.391 . S
C1185 H1173 0.950 . S
C1185 C1181 1.393 . S
C1185 C1184 1.391 . S
C1186 H1176 0.950 . S
C1186 C1187 1.386 . S
C1186 C1188 1.391 . S
C1187 C1186 1.386 . S
C1187 C1191 1.393 . S
C1188 H1177 0.950 . S
C1188 C1186 1.391 . S
C1188 C1189 1.400 . S
C1189 C1183 1.491 . S
C1189 C1188 1.400 . S
C1189 C1190 1.398 . S
C1190 H1178 0.950 . S
C1190 C1189 1.398 . S
C1190 C1191 1.391 . S
C1191 H1179 0.950 . S
C1191 C1187 1.393 . S
C1191 C1190 1.391 . S
H1192 C1200 0.950 . S
H1193 C1205 0.950 . S
H1194 C1202 0.950 . S
H1195 C1204 0.950 . S
H1196 C1206 0.950 . S
H1197 C1208 0.950 . S
H1198 C1210 0.950 . S
H1199 C1211 0.950 . S
C1200 H1192 0.950 . S
C1200 C1201 1.386 . S
C1200 C1202 1.391 . S
C1201 C1200 1.386 . S
C1201 C1205 1.393 . S
C1202 H1194 0.950 . S
C1202 C1200 1.391 . S
C1202 C1203 1.400 . S
C1203 C1202 1.400 . S
C1203 C1204 1.398 . S
C1203 C1209 1.491 . S
C1204 H1195 0.950 . S
C1204 C1203 1.398 . S
C1204 C1205 1.391 . S
C1205 H1193 0.950 . S
C1205 C1201 1.393 . S
C1205 C1204 1.391 . S
C1206 H1196 0.950 . S
C1206 C1207 1.386 . S
C1206 C1208 1.391 . S
C1207 C1206 1.386 . S
C1207 C1211 1.393 . S
C1208 H1197 0.950 . S
C1208 C1206 1.391 . S
C1208 C1209 1.400 . S
C1209 C1203 1.491 . S
C1209 C1208 1.400 . S
C1209 C1210 1.398 . S
C1210 H1198 0.950 . S
C1210 C1209 1.398 . S
C1210 C1211 1.391 . S
C1211 H1199 0.950 . S
C1211 C1207 1.393 . S
C1211 C1210 1.391 . S
H1212 C1220 0.950 . S
H1213 C1225 0.950 . S
H1214 C1222 0.950 . S
H1215 C1224 0.950 . S
H1216 C1226 0.950 . S
H1217 C1228 0.950 . S
H1218 C1230 0.950 . S
H1219 C1231 0.950 . S
C1220 H1212 0.950 . S
C1220 C1221 1.386 . S
C1220 C1222 1.391 . S
C1221 C1220 1.386 . S
C1221 C1225 1.393 . S
C1222 H1214 0.950 . S
C1222 C1220 1.391 . S
C1222 C1223 1.400 . S
C1223 C1222 1.400 . S
C1223 C1224 1.398 . S
C1223 C1229 1.491 . S
C1224 H1215 0.950 . S
C1224 C1223 1.398 . S
C1224 C1225 1.391 . S
C1225 H1213 0.950 . S
C1225 C1221 1.393 . S
C1225 C1224 1.391 . S
C1226 H1216 0.950 . S
C1226 C1227 1.386 . S
C1226 C1228 1.391 . S
C1227 C1226 1.386 . S
C1227 C1231 1.393 . S
C1228 H1217 0.950 . S
C1228 C1226 1.391 . S
C1228 C1229 1.400 . S
C1229 C1223 1.491 . S
C1229 C1228 1.400 . S
C1229 C1230 1.398 . S
C1230 H1218 0.950 . S
C1230 C1229 1.398 . S
C1230 C1231 1.391 . S
C1231 H1219 0.950 . S
C1231 C1227 1.393 . S
C1231 C1230 1.391 . S
H1232 C1240 0.950 . S
H1233 C1245 0.950 . S
H1234 C1242 0.977 . S
H1235 C1244 0.950 . S
H1236 C1246 0.950 . S
H1237 C1248 0.950 . S
H1238 C1250 0.950 . S
H1239 C1251 0.950 . S
C1240 H1232 0.950 . S
C1240 C1241 1.386 . S
C1240 C1242 1.391 . S
C1241 C1240 1.386 . S
C1241 C1245 1.393 . S
C1242 H1234 0.977 . S
C1242 C1240 1.391 . S
C1242 C1243 1.400 . S
C1243 C1242 1.400 . S
C1243 C1244 1.398 . S
C1243 C1249 1.491 1_556 S
C1244 H1235 0.950 . S
C1244 C1243 1.398 . S
C1244 C1245 1.391 . S
C1245 H1233 0.950 . S
C1245 C1241 1.393 . S
C1245 C1244 1.391 . S
C1246 H1236 0.950 . S
C1246 C1247 1.386 . S
C1246 C1248 1.391 . S
C1247 C1246 1.386 . S
C1247 C1251 1.393 . S
C1248 H1237 0.950 . S
C1248 C1246 1.391 . S
C1248 C1249 1.400 . S
C1249 C1243 1.491 1_554 S
C1249 C1248 1.400 . S
C1249 C1250 1.398 . S
C1250 H1238 0.950 . S
C1250 C1249 1.398 . S
C1250 C1251 1.391 . S
C1251 H1239 0.950 . S
C1251 C1247 1.393 . S
C1251 C1250 1.391 . S
H1252 C1260 0.950 . S
H1253 C1265 0.950 . S
H1254 C1262 0.950 . S
H1255 C1264 0.950 1_554 S
H1256 C1266 0.950 . S
H1257 C1268 0.950 . S
H1258 C1270 0.992 . S
H1259 C1271 0.950 . S
C1260 H1252 0.950 . S
C1260 C1261 1.386 . S
C1260 C1262 1.391 . S
C1261 C1260 1.386 . S
C1261 C1265 1.393 . S
C1262 H1254 0.950 . S
C1262 C1260 1.391 . S
C1262 C1263 1.400 . S
C1263 C1262 1.400 . S
C1263 C1264 1.398 . S
C1263 C1269 1.491 1_556 S
C1264 H1255 0.950 1_556 S
C1264 C1263 1.398 . S
C1264 C1265 1.391 . S
C1265 H1253 0.950 . S
C1265 C1261 1.393 . S
C1265 C1264 1.391 . S
C1266 H1256 0.950 . S
C1266 C1267 1.386 . S
C1266 C1268 1.391 . S
C1267 C1266 1.386 . S
C1267 C1271 1.393 . S
C1268 H1257 0.950 . S
C1268 C1266 1.391 . S
C1268 C1269 1.400 . S
C1269 C1263 1.491 1_554 S
C1269 C1268 1.400 . S
C1269 C1270 1.398 . S
C1270 H1258 0.992 . S
C1270 C1269 1.398 . S
C1270 C1271 1.391 . S
C1271 H1259 0.950 . S
C1271 C1267 1.393 . S
C1271 C1270 1.391 . S
H1272 C1280 0.950 . S
H1273 C1285 0.950 . S
H1274 C1282 0.950 . S
H1275 C1284 0.951 . S
H1276 C1286 0.950 . S
H1277 C1288 0.950 . S
H1278 C1290 0.950 1_554 S
H1279 C1291 0.950 . S
C1280 H1272 0.950 . S
C1280 C1281 1.386 . S
C1280 C1282 1.391 . S
C1281 C1280 1.386 . S
C1281 C1285 1.393 . S
C1282 H1274 0.950 . S
C1282 C1280 1.391 . S
C1282 C1283 1.400 . S
C1283 C1282 1.400 . S
C1283 C1284 1.398 . S
C1283 C1289 1.491 1_554 S
C1284 H1275 0.951 . S
C1284 C1283 1.398 . S
C1284 C1285 1.391 . S
C1285 H1273 0.950 . S
C1285 C1281 1.393 . S
C1285 C1284 1.391 . S
C1286 H1276 0.950 . S
C1286 C1287 1.386 . S
C1286 C1288 1.391 . S
C1287 C1286 1.386 . S
C1287 C1291 1.393 . S
C1288 H1277 0.950 . S
C1288 C1286 1.391 . S
C1288 C1289 1.400 . S
C1289 C1283 1.491 1_556 S
C1289 C1288 1.400 . S
C1289 C1290 1.398 . S
C1290 H1278 0.950 1_556 S
C1290 C1289 1.398 . S
C1290 C1291 1.391 . S
C1291 H1279 0.950 . S
C1291 C1287 1.393 . S
C1291 C1290 1.391 . S
H1292 C1300 0.950 . S
H1293 C1305 0.950 . S
H1294 C1302 0.950 . S
H1295 C1304 0.950 . S
H1296 C1306 0.950 . S
H1297 C1308 0.950 . S
H1298 C1310 0.950 1_554 S
H1299 C1311 0.950 . S
C1300 H1292 0.950 . S
C1300 C1301 1.386 . S
C1300 C1302 1.391 . S
C1301 C1300 1.386 . S
C1301 C1305 1.393 . S
C1302 H1294 0.950 . S
C1302 C1300 1.391 . S
C1302 C1303 1.400 . S
C1303 C1302 1.400 . S
C1303 C1304 1.398 . S
C1303 C1309 1.491 1_554 S
C1304 H1295 0.950 . S
C1304 C1303 1.398 . S
C1304 C1305 1.391 . S
C1305 H1293 0.950 . S
C1305 C1301 1.393 . S
C1305 C1304 1.391 . S
C1306 H1296 0.950 . S
C1306 C1307 1.386 . S
C1306 C1308 1.391 . S
C1307 C1306 1.386 . S
C1307 C1311 1.393 . S
C1308 H1297 0.950 . S
C1308 C1306 1.391 . S
C1308 C1309 1.400 . S
C1309 C1303 1.491 1_556 S
C1309 C1308 1.400 . S
C1309 C1310 1.398 . S
C1310 H1298 0.950 1_556 S
C1310 C1309 1.398 . S
C1310 C1311 1.391 . S
C1311 H1299 0.950 . S
C1311 C1307 1.393 . S
C1311 C1310 1.391 . S
C361 C5 2.285 . S
C367 C119 2.275 . S
C381 C141 2.284 . S
C387 C27 2.292 . S
C401 C49 2.267 . S
C407 C163 2.269 . S
C421 C75 2.268 . S
C427 C93 2.267 . S
C441 C293 2.292 . S
C447 C182 2.293 . S
C461 C315 2.275 . S
C467 C205 2.268 . S
C481 C227 2.279 . S
C487 C336 2.270 . S
C501 C249 2.270 . S
C507 C271 2.267 . S
C521 C4 1.618 . S
C527 C73 1.521 1_545 S
C541 C26 1.616 . S
C547 C6 1.532 . S
C561 C48 1.616 1_455 S
C567 C28 1.528 . S
C581 C74 1.616 1_545 S
C587 C50 1.530 1_455 S
C601 C92 1.627 1_655 S
C607 C117 1.519 1_565 S
C621 C139 1.540 . S
C627 C118 1.619 1_565 S
C641 C140 1.627 . S
C647 C161 1.517 . S
C661 C94 1.515 1_655 S
C667 C162 1.628 . S
C681 C251 1.528 1_565 S
C687 C180 1.616 . S
C701 C206 1.618 . S
C707 C181 1.522 . S
C721 C228 1.625 1_655 S
C727 C207 1.509 . S
C741 C250 1.623 1_565 S
C747 C229 1.512 1_655 S
C761 C272 1.618 1_455 S
C767 C295 1.541 1_545 S
C781 C294 1.628 1_545 S
C787 C317 1.512 . S
C801 C316 1.616 . S
C807 C335 1.542 . S
C821 C334 1.627 . S
C827 C273 1.511 1_455 S
C841 C7 0.257 . S
C847 C51 0.231 . S
C861 C29 0.302 . S
C867 C72 0.325 . S
C881 C138 0.236 . S
C887 C95 0.282 . S
C901 C160 0.248 . S
C907 C116 0.298 . S
C921 C225 0.260 . S
C927 C185 0.309 . S
C941 C247 0.274 . S
C947 C203 0.318 . S
C961 C269 0.291 . S
C967 C313 0.324 . S
C981 C291 0.301 . S
C987 C339 0.325 . S
C1001 C8 1.216 . S
C1007 C248 1.214 . S
C1021 C183 1.209 . S
C1027 C30 1.214 . S
C1041 C52 1.213 . S
C1047 C204 1.204 . S
C1061 C226 1.213 . S
C1067 C70 1.216 . S
C1081 C292 1.204 . S
C1087 C96 1.213 . S
C1101 C114 1.213 . S
C1107 C314 1.205 . S
C1121 C337 1.204 . S
C1127 C136 1.214 . S
C1141 C158 1.214 . S
C1147 C270 1.205 . S
C1161 C184 1.216 . S
C1167 C71 1.214 . S
C1181 C202 1.216 . S
C1187 C9 1.212 . S
C1201 C31 1.202 . S
C1207 C224 1.213 . S
C1221 C246 1.213 . S
C1227 C53 1.204 . S
C1241 C268 1.216 . S
C1247 C115 1.212 . S
C1261 C290 1.216 . S
C1267 C137 1.213 . S
C1281 C159 1.205 . S
C1287 C312 1.215 . S
C1301 C97 1.207 . S
C1307 C338 1.215 . S
