# Generated by pormake.
# Topology wna, (6)-cn, num edge types: 1
# Building blocks:
#     Node 0, Type 0, BuildingBlock: BETGAK_clean_sbu_0, # of connection points: 6
#     Node 1, Type 0, BuildingBlock: BETGAK_clean_sbu_0, # of connection points: 6
#     Node 2, Type 0, BuildingBlock: BETGAK_clean_sbu_0, # of connection points: 6
#     Node 3, Type 0, BuildingBlock: BETGAK_clean_sbu_0, # of connection points: 6
#     Node 4, Type 0, BuildingBlock: BETGAK_clean_sbu_0, # of connection points: 6
#     Node 5, Type 0, BuildingBlock: BETGAK_clean_sbu_0, # of connection points: 6
#     Node 6, Type 0, BuildingBlock: BETGAK_clean_sbu_0, # of connection points: 6
#     Node 7, Type 0, BuildingBlock: BETGAK_clean_sbu_0, # of connection points: 6
#     Node 8, Type 0, BuildingBlock: BETGAK_clean_sbu_0, # of connection points: 6
#     Node 9, Type 0, BuildingBlock: BETGAK_clean_sbu_0, # of connection points: 6
#     Node 10, Type 0, BuildingBlock: BETGAK_clean_sbu_0, # of connection points: 6
#     Node 11, Type 0, BuildingBlock: BETGAK_clean_sbu_0, # of connection points: 6
#     Node 12, Type 0, BuildingBlock: BETGAK_clean_sbu_0, # of connection points: 6
#     Node 13, Type 0, BuildingBlock: BETGAK_clean_sbu_0, # of connection points: 6
#     Node 14, Type 0, BuildingBlock: BETGAK_clean_sbu_0, # of connection points: 6
#     Node 15, Type 0, BuildingBlock: BETGAK_clean_sbu_0, # of connection points: 6
#     Node 16, Type 0, BuildingBlock: BETGAK_clean_sbu_0, # of connection points: 6
#     Node 17, Type 0, BuildingBlock: BETGAK_clean_sbu_0, # of connection points: 6
#     Node 18, Type 0, BuildingBlock: BETGAK_clean_sbu_0, # of connection points: 6
#     Node 19, Type 0, BuildingBlock: BETGAK_clean_sbu_0, # of connection points: 6
#     Node 20, Type 0, BuildingBlock: BETGAK_clean_sbu_0, # of connection points: 6
#     Node 21, Type 0, BuildingBlock: BETGAK_clean_sbu_0, # of connection points: 6
#     Node 22, Type 0, BuildingBlock: BETGAK_clean_sbu_0, # of connection points: 6
#     Node 23, Type 0, BuildingBlock: BETGAK_clean_sbu_0, # of connection points: 6
#     Node 24, Type 0, BuildingBlock: BETGAK_clean_sbu_0, # of connection points: 6
#     Node 25, Type 0, BuildingBlock: BETGAK_clean_sbu_0, # of connection points: 6
#     Node 26, Type 0, BuildingBlock: BETGAK_clean_sbu_0, # of connection points: 6
#     Node 27, Type 0, BuildingBlock: BETGAK_clean_sbu_0, # of connection points: 6
#     Node 28, Type 0, BuildingBlock: BETGAK_clean_sbu_0, # of connection points: 6
#     Node 29, Type 0, BuildingBlock: BETGAK_clean_sbu_0, # of connection points: 6
#     Node 30, Type 0, BuildingBlock: BETGAK_clean_sbu_0, # of connection points: 6
#     Node 31, Type 0, BuildingBlock: BETGAK_clean_sbu_0, # of connection points: 6
#     Node 32, Type 0, BuildingBlock: BETGAK_clean_sbu_0, # of connection points: 6
#     Node 33, Type 0, BuildingBlock: BETGAK_clean_sbu_0, # of connection points: 6
#     Node 34, Type 0, BuildingBlock: BETGAK_clean_sbu_0, # of connection points: 6
#     Node 35, Type 0, BuildingBlock: BETGAK_clean_sbu_0, # of connection points: 6
#     Edge 36, Type (0, 0), BuildingBlock: EZIPEK_clean_linker_0, # of connection points: 2
#     Edge 37, Type (0, 0), BuildingBlock: EZIPEK_clean_linker_0, # of connection points: 2
#     Edge 38, Type (0, 0), BuildingBlock: EZIPEK_clean_linker_0, # of connection points: 2
#     Edge 39, Type (0, 0), BuildingBlock: EZIPEK_clean_linker_0, # of connection points: 2
#     Edge 40, Type (0, 0), BuildingBlock: EZIPEK_clean_linker_0, # of connection points: 2
#     Edge 41, Type (0, 0), BuildingBlock: EZIPEK_clean_linker_0, # of connection points: 2
#     Edge 42, Type (0, 0), BuildingBlock: EZIPEK_clean_linker_0, # of connection points: 2
#     Edge 43, Type (0, 0), BuildingBlock: EZIPEK_clean_linker_0, # of connection points: 2
#     Edge 44, Type (0, 0), BuildingBlock: EZIPEK_clean_linker_0, # of connection points: 2
#     Edge 45, Type (0, 0), BuildingBlock: EZIPEK_clean_linker_0, # of connection points: 2
#     Edge 46, Type (0, 0), BuildingBlock: EZIPEK_clean_linker_0, # of connection points: 2
#     Edge 47, Type (0, 0), BuildingBlock: EZIPEK_clean_linker_0, # of connection points: 2
#     Edge 48, Type (0, 0), BuildingBlock: EZIPEK_clean_linker_0, # of connection points: 2
#     Edge 49, Type (0, 0), BuildingBlock: EZIPEK_clean_linker_0, # of connection points: 2
#     Edge 50, Type (0, 0), BuildingBlock: EZIPEK_clean_linker_0, # of connection points: 2
#     Edge 51, Type (0, 0), BuildingBlock: EZIPEK_clean_linker_0, # of connection points: 2
#     Edge 52, Type (0, 0), BuildingBlock: EZIPEK_clean_linker_0, # of connection points: 2
#     Edge 53, Type (0, 0), BuildingBlock: EZIPEK_clean_linker_0, # of connection points: 2
#     Edge 54, Type (0, 0), BuildingBlock: EZIPEK_clean_linker_0, # of connection points: 2
#     Edge 55, Type (0, 0), BuildingBlock: EZIPEK_clean_linker_0, # of connection points: 2
#     Edge 56, Type (0, 0), BuildingBlock: EZIPEK_clean_linker_0, # of connection points: 2
#     Edge 57, Type (0, 0), BuildingBlock: EZIPEK_clean_linker_0, # of connection points: 2
#     Edge 58, Type (0, 0), BuildingBlock: EZIPEK_clean_linker_0, # of connection points: 2
#     Edge 59, Type (0, 0), BuildingBlock: EZIPEK_clean_linker_0, # of connection points: 2
#     Edge 60, Type (0, 0), BuildingBlock: EZIPEK_clean_linker_0, # of connection points: 2
#     Edge 61, Type (0, 0), BuildingBlock: EZIPEK_clean_linker_0, # of connection points: 2
#     Edge 62, Type (0, 0), BuildingBlock: EZIPEK_clean_linker_0, # of connection points: 2
#     Edge 63, Type (0, 0), BuildingBlock: EZIPEK_clean_linker_0, # of connection points: 2
#     Edge 64, Type (0, 0), BuildingBlock: EZIPEK_clean_linker_0, # of connection points: 2
#     Edge 65, Type (0, 0), BuildingBlock: EZIPEK_clean_linker_0, # of connection points: 2
#     Edge 66, Type (0, 0), BuildingBlock: EZIPEK_clean_linker_0, # of connection points: 2
#     Edge 67, Type (0, 0), BuildingBlock: EZIPEK_clean_linker_0, # of connection points: 2
#     Edge 68, Type (0, 0), BuildingBlock: EZIPEK_clean_linker_0, # of connection points: 2
#     Edge 69, Type (0, 0), BuildingBlock: EZIPEK_clean_linker_0, # of connection points: 2
#     Edge 70, Type (0, 0), BuildingBlock: EZIPEK_clean_linker_0, # of connection points: 2
#     Edge 71, Type (0, 0), BuildingBlock: EZIPEK_clean_linker_0, # of connection points: 2
#     Edge 72, Type (0, 0), BuildingBlock: EZIPEK_clean_linker_0, # of connection points: 2
#     Edge 73, Type (0, 0), BuildingBlock: EZIPEK_clean_linker_0, # of connection points: 2
#     Edge 74, Type (0, 0), BuildingBlock: EZIPEK_clean_linker_0, # of connection points: 2
#     Edge 75, Type (0, 0), BuildingBlock: EZIPEK_clean_linker_0, # of connection points: 2
#     Edge 76, Type (0, 0), BuildingBlock: EZIPEK_clean_linker_0, # of connection points: 2
#     Edge 77, Type (0, 0), BuildingBlock: EZIPEK_clean_linker_0, # of connection points: 2
#     Edge 78, Type (0, 0), BuildingBlock: EZIPEK_clean_linker_0, # of connection points: 2
#     Edge 79, Type (0, 0), BuildingBlock: EZIPEK_clean_linker_0, # of connection points: 2
#     Edge 80, Type (0, 0), BuildingBlock: EZIPEK_clean_linker_0, # of connection points: 2
#     Edge 81, Type (0, 0), BuildingBlock: EZIPEK_clean_linker_0, # of connection points: 2
#     Edge 82, Type (0, 0), BuildingBlock: EZIPEK_clean_linker_0, # of connection points: 2
#     Edge 83, Type (0, 0), BuildingBlock: EZIPEK_clean_linker_0, # of connection points: 2
#     Edge 84, Type (0, 0), BuildingBlock: EZIPEK_clean_linker_0, # of connection points: 2
#     Edge 85, Type (0, 0), BuildingBlock: EZIPEK_clean_linker_0, # of connection points: 2
#     Edge 86, Type (0, 0), BuildingBlock: EZIPEK_clean_linker_0, # of connection points: 2
#     Edge 87, Type (0, 0), BuildingBlock: EZIPEK_clean_linker_0, # of connection points: 2
#     Edge 88, Type (0, 0), BuildingBlock: EZIPEK_clean_linker_0, # of connection points: 2
#     Edge 89, Type (0, 0), BuildingBlock: EZIPEK_clean_linker_0, # of connection points: 2
#     Edge 90, Type (0, 0), BuildingBlock: EZIPEK_clean_linker_0, # of connection points: 2
#     Edge 91, Type (0, 0), BuildingBlock: EZIPEK_clean_linker_0, # of connection points: 2
#     Edge 92, Type (0, 0), BuildingBlock: EZIPEK_clean_linker_0, # of connection points: 2
#     Edge 93, Type (0, 0), BuildingBlock: EZIPEK_clean_linker_0, # of connection points: 2
#     Edge 94, Type (0, 0), BuildingBlock: EZIPEK_clean_linker_0, # of connection points: 2
#     Edge 95, Type (0, 0), BuildingBlock: EZIPEK_clean_linker_0, # of connection points: 2
#     Edge 96, Type (0, 0), BuildingBlock: EZIPEK_clean_linker_0, # of connection points: 2
#     Edge 97, Type (0, 0), BuildingBlock: EZIPEK_clean_linker_0, # of connection points: 2
#     Edge 98, Type (0, 0), BuildingBlock: EZIPEK_clean_linker_0, # of connection points: 2
#     Edge 99, Type (0, 0), BuildingBlock: EZIPEK_clean_linker_0, # of connection points: 2
#     Edge 100, Type (0, 0), BuildingBlock: EZIPEK_clean_linker_0, # of connection points: 2
#     Edge 101, Type (0, 0), BuildingBlock: EZIPEK_clean_linker_0, # of connection points: 2
#     Edge 102, Type (0, 0), BuildingBlock: EZIPEK_clean_linker_0, # of connection points: 2
#     Edge 103, Type (0, 0), BuildingBlock: EZIPEK_clean_linker_0, # of connection points: 2
#     Edge 104, Type (0, 0), BuildingBlock: EZIPEK_clean_linker_0, # of connection points: 2
#     Edge 105, Type (0, 0), BuildingBlock: EZIPEK_clean_linker_0, # of connection points: 2
#     Edge 106, Type (0, 0), BuildingBlock: EZIPEK_clean_linker_0, # of connection points: 2
#     Edge 107, Type (0, 0), BuildingBlock: EZIPEK_clean_linker_0, # of connection points: 2
#     Edge 108, Type (0, 0), BuildingBlock: EZIPEK_clean_linker_0, # of connection points: 2
#     Edge 109, Type (0, 0), BuildingBlock: EZIPEK_clean_linker_0, # of connection points: 2
#     Edge 110, Type (0, 0), BuildingBlock: EZIPEK_clean_linker_0, # of connection points: 2
#     Edge 111, Type (0, 0), BuildingBlock: EZIPEK_clean_linker_0, # of connection points: 2
#     Edge 112, Type (0, 0), BuildingBlock: EZIPEK_clean_linker_0, # of connection points: 2
#     Edge 113, Type (0, 0), BuildingBlock: EZIPEK_clean_linker_0, # of connection points: 2
#     Edge 114, Type (0, 0), BuildingBlock: EZIPEK_clean_linker_0, # of connection points: 2
#     Edge 115, Type (0, 0), BuildingBlock: EZIPEK_clean_linker_0, # of connection points: 2
#     Edge 116, Type (0, 0), BuildingBlock: EZIPEK_clean_linker_0, # of connection points: 2
#     Edge 117, Type (0, 0), BuildingBlock: EZIPEK_clean_linker_0, # of connection points: 2
#     Edge 118, Type (0, 0), BuildingBlock: EZIPEK_clean_linker_0, # of connection points: 2
#     Edge 119, Type (0, 0), BuildingBlock: EZIPEK_clean_linker_0, # of connection points: 2
#     Edge 120, Type (0, 0), BuildingBlock: EZIPEK_clean_linker_0, # of connection points: 2
#     Edge 121, Type (0, 0), BuildingBlock: EZIPEK_clean_linker_0, # of connection points: 2
#     Edge 122, Type (0, 0), BuildingBlock: EZIPEK_clean_linker_0, # of connection points: 2
#     Edge 123, Type (0, 0), BuildingBlock: EZIPEK_clean_linker_0, # of connection points: 2
#     Edge 124, Type (0, 0), BuildingBlock: EZIPEK_clean_linker_0, # of connection points: 2
#     Edge 125, Type (0, 0), BuildingBlock: EZIPEK_clean_linker_0, # of connection points: 2
#     Edge 126, Type (0, 0), BuildingBlock: EZIPEK_clean_linker_0, # of connection points: 2
#     Edge 127, Type (0, 0), BuildingBlock: EZIPEK_clean_linker_0, # of connection points: 2
#     Edge 128, Type (0, 0), BuildingBlock: EZIPEK_clean_linker_0, # of connection points: 2
#     Edge 129, Type (0, 0), BuildingBlock: EZIPEK_clean_linker_0, # of connection points: 2
#     Edge 130, Type (0, 0), BuildingBlock: EZIPEK_clean_linker_0, # of connection points: 2
#     Edge 131, Type (0, 0), BuildingBlock: EZIPEK_clean_linker_0, # of connection points: 2
#     Edge 132, Type (0, 0), BuildingBlock: EZIPEK_clean_linker_0, # of connection points: 2
#     Edge 133, Type (0, 0), BuildingBlock: EZIPEK_clean_linker_0, # of connection points: 2
#     Edge 134, Type (0, 0), BuildingBlock: EZIPEK_clean_linker_0, # of connection points: 2
#     Edge 135, Type (0, 0), BuildingBlock: EZIPEK_clean_linker_0, # of connection points: 2
#     Edge 136, Type (0, 0), BuildingBlock: EZIPEK_clean_linker_0, # of connection points: 2
#     Edge 137, Type (0, 0), BuildingBlock: EZIPEK_clean_linker_0, # of connection points: 2
#     Edge 138, Type (0, 0), BuildingBlock: EZIPEK_clean_linker_0, # of connection points: 2
#     Edge 139, Type (0, 0), BuildingBlock: EZIPEK_clean_linker_0, # of connection points: 2
#     Edge 140, Type (0, 0), BuildingBlock: EZIPEK_clean_linker_0, # of connection points: 2
#     Edge 141, Type (0, 0), BuildingBlock: EZIPEK_clean_linker_0, # of connection points: 2
#     Edge 142, Type (0, 0), BuildingBlock: EZIPEK_clean_linker_0, # of connection points: 2
#     Edge 143, Type (0, 0), BuildingBlock: EZIPEK_clean_linker_0, # of connection points: 2
# Relax obj value: 0.146
# Max RMSD: 0.226
# Mean RMSD: 0.209
data_MOF--net-wna--node1-BETGAK_clean_sbu_0--edge1-EZIPEK_clean_linker_0
_symmetry_space_group_name_H-M    P1
_symmetry_Int_Tables_number       1
_symmetry_cell_setting            triclinic
loop_
_symmetry_equiv_pos_as_xyz
'x, y, z'
_cell_length_a     30.310624
_cell_length_b     30.382594
_cell_length_c     128.50315
_cell_angle_alpha  89.626307
_cell_angle_beta   90.259063
_cell_angle_gamma 119.85338
loop_
_atom_site_label
_atom_site_type_symbol
_atom_site_fract_x
_atom_site_fract_y
_atom_site_fract_z
_atom_type_partial_charge
La0 La 0.13934 0.25694 0.18436 0.0
La1 La 0.14021 0.2637 0.20715 0.0
C2 C 0.12414 0.26727 0.1653 0.0
C3 C 0.14625 0.28365 0.15469 0.0
C4 C 0.12703 0.24848 0.14649 0.0
C5 C 0.13996 0.2643 0.13612 0.0
C6 C 0.17237 0.31573 0.1337 0.0
C7 C 0.19332 0.35077 0.14187 0.0
C8 C 0.18035 0.33495 0.15226 0.0
C9 C 0.17313 0.19933 0.19342 0.0
C10 C 0.24635 0.32392 0.19542 0.0
C11 C 0.13254 0.25903 0.22684 0.0
C12 C 0.11014 0.23376 0.23697 0.0
C13 C 0.14321 0.23965 0.24522 0.0
C14 C 0.12504 0.22656 0.25543 0.0
C15 C 0.07324 0.20708 0.25767 0.0
C16 C 0.03951 0.19863 0.24937 0.0
C17 C 0.0578 0.2121 0.23912 0.0
C18 C 0.12212 0.3322 0.1972 0.0
C19 C 0.04087 0.17355 0.19631 0.0
O20 O 0.12005 0.22558 0.16926 0.0
O21 O 0.13536 0.30218 0.17239 0.0
O22 O 0.18876 0.22332 0.18459 0.0
O23 O 0.13873 0.20785 0.19668 0.0
O24 O 0.21879 0.31891 0.18697 0.0
O25 O 0.22328 0.30083 0.20421 0.0
O26 O 0.10533 0.27026 0.22063 0.0
O27 O 0.16397 0.24915 0.22175 0.0
O28 O 0.1533 0.34173 0.20488 0.0
O29 O 0.10591 0.28619 0.19502 0.0
O30 O 0.06573 0.19379 0.20514 0.0
O31 O 0.06138 0.19387 0.18717 0.0
H32 H 0.10012 0.2089 0.14807 0.0
H33 H 0.12317 0.23665 0.12995 0.0
H34 H 0.21823 0.39066 0.14018 0.0
H35 H 0.19549 0.36323 0.15835 0.0
H36 H 0.18374 0.25693 0.24385 0.0
H37 H 0.15181 0.2334 0.26168 0.0
H38 H 0.99939 0.18357 0.25089 0.0
H39 H 0.03133 0.20757 0.23297 0.0
La40 La 0.79002 0.8843 0.18402 0.0
La41 La 0.78488 0.88484 0.20661 0.0
C42 C 0.76751 0.86139 0.16499 0.0
C43 C 0.74738 0.86977 0.15498 0.0
C44 C 0.77993 0.90641 0.14778 0.0
C45 C 0.76305 0.90914 0.13772 0.0
C46 C 0.712 0.87687 0.13449 0.0
C47 C 0.68108 0.83765 0.14162 0.0
C48 C 0.69795 0.83493 0.15168 0.0
C49 C 0.86469 0.96924 0.19201 0.0
C50 C 0.7256 0.93165 0.19466 0.0
C51 C 0.80299 0.89945 0.22603 0.0
C52 C 0.81438 0.88153 0.23602 0.0
C53 C 0.77691 0.86073 0.24383 0.0
C54 C 0.7887 0.85116 0.25387 0.0
C55 C 0.8383 0.86224 0.25638 0.0
C56 C 0.87563 0.88174 0.24855 0.0
C57 C 0.8639 0.89154 0.2385 0.0
C58 C 0.7175 0.7938 0.19812 0.0
C59 C 0.86263 0.85495 0.1961 0.0
O60 O 0.81196 0.89679 0.16829 0.0
O61 O 0.73605 0.83842 0.17271 0.0
O62 O 0.86768 0.9477 0.18359 0.0
O63 O 0.81886 0.9455 0.19527 0.0
O64 O 0.73619 0.91426 0.18606 0.0
O65 O 0.74425 0.92721 0.20371 0.0
O66 O 0.75748 0.87319 0.22203 0.0
O67 O 0.83793 0.91873 0.21881 0.0
O68 O 0.71002 0.81436 0.2062 0.0
O69 O 0.76294 0.82405 0.19541 0.0
O70 O 0.84897 0.87052 0.20447 0.0
O71 O 0.83964 0.85195 0.18711 0.0
H72 H 0.81948 0.93175 0.14973 0.0
H73 H 0.79178 0.93535 0.13245 0.0
H74 H 0.64431 0.8067 0.13946 0.0
H75 H 0.67282 0.80379 0.15672 0.0
H76 H 0.73871 0.85348 0.24229 0.0
H77 H 0.75931 0.83617 0.25977 0.0
H78 H 0.91418 0.89066 0.25031 0.0
H79 H 0.89403 0.90845 0.23278 0.0
La80 La 0.15728 0.90719 0.18417 0.0
La81 La 0.15752 0.90251 0.20682 0.0
C82 C 0.18603 0.91127 0.16545 0.0
C83 C 0.18176 0.88621 0.15527 0.0
C84 C 0.1346 0.85581 0.15034 0.0
C85 C 0.13249 0.83985 0.14 0.0
C86 C 0.17739 0.85422 0.13434 0.0
C87 C 0.22438 0.88319 0.13937 0.0
C88 C 0.22649 0.89892 0.14971 0.0
C89 C 0.0676 0.88715 0.19158 0.0
C90 C 0.11539 0.79692 0.19506 0.0
C91 C 0.14742 0.90393 0.22654 0.0
C92 C 0.16343 0.93394 0.23641 0.0
C93 C 0.21255 0.95309 0.24066 0.0
C94 C 0.22399 0.97432 0.25071 0.0
C95 C 0.18655 0.97652 0.25678 0.0
C96 C 0.13798 0.9586 0.25242 0.0
C97 C 0.12661 0.93762 0.24239 0.0
C98 C 0.24927 0.93053 0.19798 0.0
C99 C 0.17052 1.00406 0.19595 0.0
O100 O 0.14874 0.91839 0.16832 0.0
O101 O 0.20713 0.90157 0.1734 0.0
O102 O 0.08708 0.90901 0.18276 0.0
O103 O 0.09597 0.8711 0.19551 0.0
O104 O 0.13131 0.82458 0.18636 0.0
O105 O 0.11774 0.81945 0.20403 0.0
O106 O 0.17881 0.89263 0.22195 0.0
O107 O 0.12079 0.91302 0.21976 0.0
O108 O 0.22931 0.90031 0.20583 0.0
O109 O 0.2175 0.94449 0.19548 0.0
O110 O 0.16282 0.97758 0.20467 0.0
O111 O 0.17575 0.98606 0.18695 0.0
H112 H 0.09944 0.84574 0.15435 0.0
H113 H 0.09577 0.81747 0.1363 0.0
H114 H 0.25948 0.89475 0.1352 0.0
H115 H 0.26335 0.92282 0.15325 0.0
H116 H 0.24178 0.95046 0.23636 0.0
H117 H 0.26178 0.98792 0.25386 0.0
H118 H 0.10839 0.95979 0.2569 0.0
H119 H 0.08826 0.92261 0.23944 0.0
La120 La 0.26413 0.11893 0.3726 0.0
La121 La 0.26355 0.122 0.35002 0.0
C122 C 0.28715 0.1169 0.39155 0.0
C123 C 0.30182 0.14035 0.40208 0.0
C124 C 0.26401 0.13047 0.40955 0.0
C125 C 0.27669 0.14245 0.42006 0.0
C126 C 0.32746 0.16453 0.42339 0.0
C127 C 0.3656 0.17664 0.41591 0.0
C128 C 0.35291 0.16444 0.40538 0.0
C129 C 0.19025 0.13474 0.36525 0.0
C130 C 0.32832 0.22795 0.36164 0.0
C131 C 0.24415 0.11703 0.33055 0.0
C132 C 0.23899 0.09052 0.32044 0.0
C133 C 0.27643 0.11447 0.31269 0.0
C134 C 0.26893 0.09465 0.30257 0.0
C135 C 0.22363 0.05043 0.29987 0.0
C136 C 0.18663 0.02558 0.30764 0.0
C137 C 0.19411 0.04543 0.31779 0.0
C138 C 0.33211 0.09747 0.35807 0.0
C139 C 0.18487 0.01934 0.36183 0.0
O140 O 0.24111 0.10198 0.38818 0.0
O141 O 0.32048 0.13324 0.38397 0.0
O142 O 0.18921 0.112 0.37385 0.0
O143 O 0.2346 0.15283 0.36142 0.0
O144 O 0.322 0.20019 0.37012 0.0
O145 O 0.3037 0.2052 0.35295 0.0
O146 O 0.28941 0.14411 0.33459 0.0
O147 O 0.20976 0.09431 0.33777 0.0
O148 O 0.33764 0.12395 0.34978 0.0
O149 O 0.28735 0.08326 0.3611 0.0
O150 O 0.19365 0.0483 0.35344 0.0
O151 O 0.21742 0.03714 0.36966 0.0
H152 H 0.22419 0.1111 0.40737 0.0
H153 H 0.24661 0.13259 0.42568 0.0
H154 H 0.40503 0.19354 0.41829 0.0
H155 H 0.38293 0.17171 0.39992 0.0
H156 H 0.31099 0.14969 0.31435 0.0
H157 H 0.29803 0.11461 0.29675 0.0
H158 H 0.15133 0.99147 0.30578 0.0
H159 H 0.16402 0.02625 0.32345 0.0
La160 La 0.91103 0.14216 0.37338 0.0
La161 La 0.91302 0.14179 0.34841 0.0
C162 C 0.92125 0.17885 0.39144 0.0
C163 C 0.90163 0.1739 0.40222 0.0
C164 C 0.88038 0.12799 0.40786 0.0
C165 C 0.86864 0.12674 0.41849 0.0
C166 C 0.87842 0.17141 0.42369 0.0
C167 C 0.8984 0.21684 0.41796 0.0
C168 C 0.90979 0.21802 0.40736 0.0
C169 C 0.88565 0.0494 0.36615 0.0
C170 C 0.80519 0.09735 0.36111 0.0
C171 C 0.90957 0.11832 0.32938 0.0
C172 C 0.93869 0.13639 0.31945 0.0
C173 C 0.9489 0.18192 0.31457 0.0
C174 C 0.97531 0.19677 0.30505 0.0
C175 C 0.99539 0.16829 0.30031 0.0
C176 C 0.97923 0.11981 0.30479 0.0
C177 C 0.95285 0.10491 0.31426 0.0
C178 C 0.94666 0.23676 0.35607 0.0
C179 C 1.01222 0.16178 0.3613 0.0
O180 O 0.9387 0.14896 0.38862 0.0
O181 O 0.89805 0.18813 0.3838 0.0
O182 O 0.88658 0.06106 0.37594 0.0
O183 O 0.89674 0.08987 0.36109 0.0
O184 O 0.82971 0.11364 0.37016 0.0
O185 O 0.82984 0.10305 0.35212 0.0
O186 O 0.88767 0.1428 0.33314 0.0
O187 O 0.9298 0.10406 0.33674 0.0
O188 O 0.94237 0.22475 0.34631 0.0
O189 O 0.93094 0.19471 0.36077 0.0
O190 O 0.98973 0.15489 0.35206 0.0
O191 O 0.99057 0.16344 0.37017 0.0
H192 H 0.874 0.09344 0.40413 0.0
H193 H 0.85304 0.09119 0.42273 0.0
H194 H 0.90619 0.25173 0.42175 0.0
H195 H 0.9266 0.25398 0.40324 0.0
H196 H 0.93565 0.20576 0.31798 0.0
H197 H 0.97793 0.23002 0.30141 0.0
H198 H 0.98538 0.09184 0.30096 0.0
H199 H 0.94257 0.06793 0.31746 0.0
La200 La 0.89399 0.76936 0.37241 0.0
La201 La 0.89007 0.76671 0.34979 0.0
C202 C 0.86864 0.75664 0.39145 0.0
C203 C 0.87659 0.74215 0.40213 0.0
C204 C 0.89651 0.77925 0.40997 0.0
C205 C 0.89582 0.76555 0.42045 0.0
C206 C 0.87501 0.71438 0.42335 0.0
C207 C 0.85689 0.67733 0.41551 0.0
C208 C 0.8575 0.691 0.40502 0.0
C209 C 0.98636 0.82875 0.36417 0.0
C210 C 0.93685 0.70552 0.36091 0.0
C211 C 0.88675 0.77409 0.33009 0.0
C212 C 0.88536 0.80017 0.32028 0.0
C213 C 0.83863 0.79329 0.31646 0.0
C214 C 0.83431 0.80747 0.30626 0.0
C215 C 0.87653 0.829 0.29959 0.0
C216 C 0.9238 0.83815 0.30348 0.0
C217 C 0.9281 0.82359 0.31369 0.0
C218 C 0.80267 0.69567 0.35908 0.0
C219 C 0.87614 0.85274 0.36113 0.0
O220 O 0.90356 0.79983 0.3875 0.0
O221 O 0.8473 0.72122 0.38435 0.0
O222 O 0.97648 0.80207 0.37267 0.0
O223 O 0.94415 0.82174 0.36063 0.0
O224 O 0.91364 0.7089 0.36939 0.0
O225 O 0.93671 0.72977 0.3523 0.0
O226 O 0.84739 0.75596 0.33623 0.0
O227 O 0.92909 0.78892 0.33528 0.0
O228 O 0.82614 0.68769 0.35158 0.0
O229 O 0.8316 0.74147 0.36159 0.0
O230 O 0.88275 0.83494 0.35219 0.0
O231 O 0.87676 0.83131 0.37012 0.0
H232 H 0.91065 0.81882 0.40806 0.0
H233 H 0.90979 0.79477 0.42635 0.0
H234 H 0.8405 0.6376 0.41756 0.0
H235 H 0.8412 0.66128 0.39924 0.0
H236 H 0.80459 0.77461 0.32119 0.0
H237 H 0.79749 0.80005 0.30345 0.0
H238 H 0.95691 0.85468 0.29848 0.0
H239 H 0.96438 0.82857 0.31626 0.0
La240 La 0.91342 0.77801 0.848 0.0
La241 La 0.91119 0.77266 0.87284 0.0
C242 C 0.91597 0.80125 0.82893 0.0
C243 C 0.93834 0.80106 0.8186 0.0
C244 C 0.90645 0.77349 0.81026 0.0
C245 C 0.92588 0.77925 0.80012 0.0
C246 C 0.97758 0.81318 0.79807 0.0
C247 C 1.0098 0.83954 0.80643 0.0
C248 C 0.99051 0.83358 0.81656 0.0
C249 C 0.94845 0.71643 0.85556 0.0
C250 C 1.00765 0.86135 0.86121 0.0
C251 C 0.9199 0.74428 0.89089 0.0
C252 C 0.89802 0.73062 0.90157 0.0
C253 C 0.9061 0.76842 0.90885 0.0
C254 C 0.89379 0.75606 0.91938 0.0
C255 C 0.87325 0.70573 0.92285 0.0
C256 C 0.86322 0.66764 0.91556 0.0
C257 C 0.87563 0.67997 0.90504 0.0
C258 C 0.87883 0.83579 0.86601 0.0
C259 C 0.80593 0.71271 0.86028 0.0
O260 O 0.88059 0.75817 0.83294 0.0
O261 O 0.94731 0.83148 0.83603 0.0
O262 O 0.94282 0.72397 0.84585 0.0
O263 O 0.93351 0.7432 0.8602 0.0
O264 O 0.98164 0.84941 0.85235 0.0
O265 O 0.99001 0.83322 0.86978 0.0
O266 O 0.94061 0.79191 0.88795 0.0
O267 O 0.8961 0.7127 0.88322 0.0
O268 O 0.88226 0.82531 0.87574 0.0
O269 O 0.89347 0.80993 0.86076 0.0
O270 O 0.83063 0.71814 0.86923 0.0
O271 O 0.8302 0.7349 0.85141 0.0
H272 H 0.86607 0.74874 0.81152 0.0
H273 H 0.90028 0.75844 0.7938 0.0
H274 H 0.04977 0.86586 0.80506 0.0
H275 H 1.01632 0.8559 0.82273 0.0
H276 H 0.92389 0.80792 0.90653 0.0
H277 H 0.90204 0.78604 0.92489 0.0
H278 H 0.84769 0.62862 0.91809 0.0
H279 H 0.86972 0.65009 0.89969 0.0
La280 La 0.26459 0.1463 0.84994 0.0
La281 La 0.26207 0.14596 0.87386 0.0
C282 C 0.24458 0.12375 0.83084 0.0
C283 C 0.23886 0.14334 0.82048 0.0
C284 C 0.26978 0.14559 0.81211 0.0
C285 C 0.26166 0.15819 0.802 0.0
C286 C 0.22235 0.16889 0.79998 0.0
C287 C 0.192 0.16776 0.80835 0.0
C288 C 0.2 0.15496 0.81847 0.0
C289 C 0.32679 0.24247 0.85714 0.0
C290 C 0.18934 0.17593 0.86154 0.0
C291 C 0.28423 0.16793 0.89293 0.0
C292 C 0.30702 0.16203 0.9028 0.0
C293 C 0.27834 0.12178 0.9097 0.0
C294 C 0.29642 0.12059 0.91972 0.0
C295 C 0.34522 0.15839 0.9232 0.0
C296 C 0.37174 0.2005 0.91638 0.0
C297 C 0.35365 0.2017 0.90636 0.0
C298 C 0.18539 0.0645 0.86523 0.0
C299 C 0.3255 0.09989 0.8625 0.0
O300 O 0.29039 0.14344 0.83485 0.0
O301 O 0.21002 0.11365 0.838 0.0
O302 O 0.31949 0.22872 0.84749 0.0
O303 O 0.29942 0.20145 0.86207 0.0
O304 O 0.19968 0.1579 0.85306 0.0
O305 O 0.21378 0.17944 0.87037 0.0
O306 O 0.24189 0.12931 0.88959 0.0
O307 O 0.31403 0.1945 0.88522 0.0
O308 O 0.18337 0.085 0.8739 0.0
O309 O 0.23123 0.088 0.86193 0.0
O310 O 0.31119 0.11155 0.87141 0.0
O311 O 0.31152 0.11007 0.85333 0.0
H312 H 0.29955 0.13622 0.81333 0.0
H313 H 0.2855 0.15861 0.7957 0.0
H314 H 0.16131 0.17565 0.807 0.0
H315 H 0.17497 0.15302 0.82465 0.0
H316 H 0.24052 0.09213 0.90756 0.0
H317 H 0.26994 0.09081 0.92478 0.0
H318 H 0.40552 0.23457 0.91878 0.0
H319 H 0.37521 0.23518 0.90157 0.0
La320 La 0.89261 0.12831 0.85078 0.0
La321 La 0.8957 0.12412 0.87308 0.0
C322 C 0.90278 0.12243 0.83122 0.0
C323 C 0.88307 0.09236 0.82144 0.0
C324 C 0.83455 0.07774 0.81732 0.0
C325 C 0.82013 0.05473 0.80745 0.0
C326 C 0.85407 0.04632 0.80146 0.0
C327 C 0.90197 0.05993 0.80569 0.0
C328 C 0.91621 0.08258 0.81553 0.0
C329 C 0.80157 0.10222 0.85971 0.0
C330 C 0.87493 0.02503 0.86163 0.0
C331 C 0.87501 0.12158 0.89229 0.0
C332 C 0.87848 0.14701 0.90237 0.0
C333 C 0.92549 0.17959 0.90714 0.0
C334 C 0.92744 0.19546 0.91747 0.0
C335 C 0.88252 0.17879 0.92326 0.0
C336 C 0.83557 0.14781 0.91838 0.0
C337 C 0.8336 0.13215 0.90806 0.0
C338 C 0.98357 0.14145 0.86469 0.0
C339 C 0.93708 0.2344 0.86226 0.0
O340 O 0.87838 0.14323 0.8354 0.0
O341 O 0.92199 0.10589 0.8383 0.0
O342 O 0.82114 0.13074 0.85161 0.0
O343 O 0.83296 0.08791 0.86229 0.0
O344 O 0.88415 0.05212 0.85298 0.0
O345 O 0.87136 0.04401 0.87061 0.0
O346 O 0.91549 0.12206 0.88869 0.0
O347 O 0.84633 0.12315 0.88482 0.0
O348 O 0.96141 0.11308 0.87272 0.0
O349 O 0.95624 0.16022 0.86163 0.0
O350 O 0.91956 0.20634 0.87089 0.0
O351 O 0.93471 0.21151 0.85333 0.0
H352 H 0.80817 0.08498 0.82162 0.0
H353 H 0.7829 0.04447 0.80439 0.0
H354 H 0.92885 0.0539 0.80128 0.0
H355 H 0.954 0.09383 0.81842 0.0
H356 H 0.9608 0.19134 0.90304 0.0
H357 H 0.9641 0.21942 0.92107 0.0
H358 H 0.80048 0.13448 0.92268 0.0
H359 H 0.79689 0.10651 0.90465 0.0
La360 La 0.79137 0.90748 0.70845 0.0
La361 La 0.78491 0.90445 0.68431 0.0
C362 C 0.81546 0.91211 0.72758 0.0
C363 C 0.8142 0.9335 0.738 0.0
C364 C 0.77337 0.90723 0.74496 0.0
C365 C 0.77592 0.92479 0.7552 0.0
C366 C 0.81955 0.96872 0.75875 0.0
C367 C 0.85987 0.99541 0.75176 0.0
C368 C 0.85731 0.97803 0.74155 0.0
C369 C 0.72907 0.94283 0.70148 0.0
C370 C 0.87027 1.0029 0.69511 0.0
C371 C 0.75395 0.9053 0.66597 0.0
C372 C 0.73653 0.88098 0.65563 0.0
C373 C 0.75663 0.853 0.65097 0.0
C374 C 0.74525 0.83752 0.64053 0.0
C375 C 0.71402 0.85015 0.63456 0.0
C376 C 0.69277 0.87672 0.63933 0.0
C377 C 0.70386 0.89187 0.64975 0.0
C378 C 0.85939 0.88991 0.69161 0.0
C379 C 0.72368 0.79844 0.69693 0.0
O380 O 0.77337 0.87528 0.72358 0.0
O381 O 0.84438 0.94433 0.72043 0.0
O382 O 0.73761 0.93678 0.71108 0.0
O383 O 0.75521 0.92796 0.69658 0.0
O384 O 0.86318 0.97483 0.70355 0.0
O385 O 0.83684 0.98558 0.68737 0.0
O386 O 0.80155 0.92227 0.66851 0.0
O387 O 0.72351 0.88712 0.67402 0.0
O388 O 0.85679 0.90552 0.68233 0.0
O389 O 0.81691 0.87649 0.69608 0.0
O390 O 0.73465 0.82245 0.68775 0.0
O391 O 0.743 0.8237 0.70584 0.0
H392 H 0.73992 0.87242 0.7426 0.0
H393 H 0.74426 0.90348 0.76043 0.0
H394 H 0.89396 0.02927 0.75428 0.0
H395 H 0.88993 0.99887 0.73652 0.0
H396 H 0.7823 0.84448 0.65527 0.0
H397 H 0.76202 0.81698 0.63702 0.0
H398 H 0.66861 0.88686 0.6349 0.0
H399 H 0.68836 0.91389 0.65312 0.0
La400 La 0.14057 0.89077 0.70819 0.0
La401 La 0.14204 0.88781 0.68393 0.0
C402 C 0.14452 0.91704 0.72702 0.0
C403 C 0.11712 0.89795 0.73703 0.0
C404 C 0.0834 0.84607 0.73887 0.0
C405 C 0.05872 0.8295 0.74854 0.0
C406 C 0.0674 0.86453 0.75651 0.0
C407 C 0.10083 0.91632 0.7546 0.0
C408 C 0.12538 0.93281 0.74497 0.0
C409 C 0.11066 0.79486 0.70147 0.0
C410 C 0.0397 0.86817 0.69595 0.0
C411 C 0.12625 0.85452 0.66548 0.0
C412 C 0.14744 0.85968 0.6548 0.0
C413 C 0.14593 0.89374 0.6475 0.0
C414 C 0.15722 0.89195 0.63698 0.0
C415 C 0.17001 0.85596 0.63353 0.0
C416 C 0.17338 0.82321 0.64084 0.0
C417 C 0.16208 0.82494 0.65135 0.0
C418 C 0.17177 0.97955 0.69187 0.0
C419 C 0.24828 0.93542 0.69562 0.0
O420 O 0.16873 0.89476 0.72337 0.0
O421 O 0.12104 0.92732 0.71965 0.0
O422 O 0.112 0.8084 0.71105 0.0
O423 O 0.12658 0.83614 0.69645 0.0
O424 O 0.06216 0.87312 0.70512 0.0
O425 O 0.06278 0.86997 0.687 0.0
O426 O 0.11645 0.88948 0.66878 0.0
O427 O 0.14337 0.83728 0.67294 0.0
O428 O 0.1857 0.97082 0.68287 0.0
O429 O 0.13917 0.93671 0.6955 0.0
O430 O 0.22334 0.91473 0.68683 0.0
O431 O 0.22371 0.93314 0.7044 0.0
H432 H 0.07629 0.81847 0.73286 0.0
H433 H 0.03297 0.78939 0.74982 0.0
H434 H 0.10803 0.94404 0.76059 0.0
H435 H 0.15109 0.97298 0.74373 0.0
H436 H 0.13402 0.92045 0.64982 0.0
H437 H 0.1541 0.91737 0.63146 0.0
H438 H 0.18288 0.79496 0.63834 0.0
H439 H 0.16271 0.79753 0.65669 0.0
La440 La 0.15302 0.25043 0.70808 0.0
La441 La 0.15586 0.25951 0.68395 0.0
C442 C 0.12684 0.22649 0.72698 0.0
C443 C 0.14505 0.22097 0.73744 0.0
C444 C 0.19599 0.23467 0.73944 0.0
C445 C 0.211 0.22765 0.74945 0.0
C446 C 0.17535 0.20676 0.75761 0.0
C447 C 0.12461 0.19329 0.75556 0.0
C448 C 0.10972 0.20033 0.74561 0.0
C449 C 0.24958 0.31609 0.70142 0.0
C450 C 0.17243 0.17266 0.69524 0.0
C451 C 0.18566 0.27625 0.66515 0.0
C452 C 0.17966 0.29498 0.65472 0.0
C453 C 0.14425 0.26169 0.64744 0.0
C454 C 0.14269 0.27768 0.63722 0.0
C455 C 0.17478 0.32856 0.63388 0.0
C456 C 0.21329 0.36001 0.64107 0.0
C457 C 0.2149 0.34404 0.65129 0.0
C458 C 0.06281 0.19897 0.69179 0.0
C459 C 0.11343 0.31987 0.69629 0.0
O460 O 0.14445 0.2723 0.72316 0.0
O461 O 0.12252 0.19428 0.7198 0.0
O462 O 0.23584 0.30341 0.71099 0.0
O463 O 0.20853 0.29175 0.69636 0.0
O464 O 0.16532 0.1869 0.70453 0.0
O465 O 0.17256 0.19677 0.6865 0.0
O466 O 0.14842 0.23305 0.6686 0.0
O467 O 0.20755 0.30913 0.67269 0.0
O468 O 0.07301 0.22756 0.68353 0.0
O469 O 0.10506 0.20572 0.69523 0.0
O470 O 0.13646 0.31851 0.68762 0.0
O471 O 0.11137 0.29255 0.70467 0.0
H472 H 0.22397 0.25048 0.73328 0.0
H473 H 0.25032 0.2382 0.75081 0.0
H474 H 0.09637 0.17704 0.76167 0.0
H475 H 0.07022 0.18929 0.74428 0.0
H476 H 0.1188 0.22235 0.6495 0.0
H477 H 0.11738 0.24849 0.63194 0.0
H478 H 0.24434 0.39666 0.63886 0.0
H479 H 0.24528 0.36975 0.65639 0.0
La480 La 0.80142 0.58974 0.51785 0.0
La481 La 0.80197 0.58867 0.54183 0.0
C482 C 0.79924 0.61699 0.49924 0.0
C483 C 0.82348 0.63562 0.48887 0.0
C484 C 0.83503 0.60572 0.48231 0.0
C485 C 0.84797 0.6194 0.47182 0.0
C486 C 0.84938 0.66302 0.46767 0.0
C487 C 0.83994 0.69393 0.4743 0.0
C488 C 0.82714 0.68038 0.48477 0.0
C489 C 0.81474 0.5156 0.52574 0.0
C490 C 0.90961 0.65255 0.52956 0.0
C491 C 0.80054 0.56878 0.56113 0.0
C492 C 0.78005 0.57128 0.57156 0.0
C493 C 0.81253 0.60447 0.57928 0.0
C494 C 0.7955 0.60141 0.58957 0.0
C495 C 0.74573 0.56464 0.59244 0.0
C496 C 0.71281 0.53243 0.5847 0.0
C497 C 0.72967 0.53564 0.57441 0.0
C498 C 0.76485 0.64921 0.53458 0.0
C499 C 0.70454 0.50749 0.52949 0.0
O500 O 0.78572 0.57053 0.50207 0.0
O501 O 0.81412 0.64819 0.50716 0.0
O502 O 0.79613 0.51576 0.51664 0.0
O503 O 0.83092 0.5595 0.52973 0.0
O504 O 0.8842 0.63999 0.52057 0.0
O505 O 0.88554 0.63546 0.53867 0.0
O506 O 0.83616 0.61052 0.55675 0.0
O507 O 0.76787 0.53813 0.55428 0.0
O508 O 0.77207 0.64204 0.5442 0.0
O509 O 0.77981 0.62287 0.52978 0.0
O510 O 0.73416 0.51597 0.53771 0.0
O511 O 0.72049 0.54028 0.52164 0.0
H512 H 0.83198 0.57067 0.48514 0.0
H513 H 0.85489 0.59486 0.46683 0.0
H514 H 0.84054 0.72758 0.47127 0.0
H515 H 0.81763 0.70373 0.48955 0.0
H516 H 0.8517 0.63175 0.57743 0.0
H517 H 0.82165 0.62673 0.59538 0.0
H518 H 0.67431 0.50378 0.58668 0.0
H519 H 0.70355 0.50887 0.56879 0.0
La520 La 0.45462 0.21957 0.51801 0.0
La521 La 0.44864 0.21686 0.54164 0.0
C522 C 0.43989 0.20331 0.49862 0.0
C523 C 0.41368 0.20084 0.4886 0.0
C524 C 0.43739 0.24118 0.48142 0.0
C525 C 0.41994 0.23593 0.47113 0.0
C526 C 0.37826 0.19023 0.46775 0.0
C527 C 0.35289 0.15061 0.47501 0.0
C528 C 0.37062 0.15571 0.48531 0.0
C529 C 0.52851 0.30292 0.52696 0.0
C530 C 0.38715 0.2612 0.52903 0.0
C531 C 0.46734 0.23635 0.56088 0.0
C532 C 0.47134 0.21473 0.57112 0.0
C533 C 0.42839 0.18585 0.57745 0.0
C534 C 0.43374 0.17108 0.58757 0.0
C535 C 0.48214 0.18519 0.59165 0.0
C536 C 0.52489 0.21317 0.58529 0.0
C537 C 0.5196 0.22784 0.57519 0.0
C538 C 0.38636 0.12147 0.5343 0.0
C539 C 0.53282 0.19846 0.53023 0.0
O540 O 0.46933 0.24781 0.50273 0.0
O541 O 0.41784 0.16766 0.50571 0.0
O542 O 0.53299 0.28001 0.5189 0.0
O543 O 0.48224 0.27774 0.53 0.0
O544 O 0.39999 0.24738 0.52024 0.0
O545 O 0.40374 0.25488 0.53824 0.0
O546 O 0.42229 0.21989 0.55667 0.0
O547 O 0.50192 0.24478 0.55385 0.0
O548 O 0.39231 0.13499 0.54394 0.0
O549 O 0.41449 0.16224 0.52936 0.0
O550 O 0.5152 0.20733 0.53893 0.0
O551 O 0.51035 0.19517 0.52116 0.0
H552 H 0.47122 0.27612 0.48359 0.0
H553 H 0.44024 0.26695 0.46569 0.0
H554 H 0.32069 0.11494 0.47258 0.0
H555 H 0.35196 0.12354 0.49055 0.0
H556 H 0.3907 0.17563 0.57468 0.0
H557 H 0.40015 0.14952 0.59231 0.0
H558 H 0.56261 0.22462 0.58824 0.0
H559 H 0.55361 0.25071 0.57064 0.0
La560 La 0.82014 0.23584 0.51843 0.0
La561 La 0.82528 0.2374 0.54221 0.0
C562 C 0.83579 0.23523 0.49907 0.0
C563 C 0.84406 0.21521 0.48914 0.0
C564 C 0.80479 0.17151 0.48437 0.0
C565 C 0.80966 0.15943 0.47404 0.0
C566 C 0.85364 0.19101 0.46824 0.0
C567 C 0.89366 0.23334 0.47314 0.0
C568 C 0.8889 0.2453 0.48346 0.0
C569 C 0.7365 0.22564 0.52761 0.0
C570 C 0.78068 0.12947 0.53048 0.0
C571 C 0.80732 0.23954 0.56144 0.0
C572 C 0.82876 0.26387 0.57173 0.0
C573 C 0.84641 0.24126 0.57902 0.0
C574 C 0.85951 0.26022 0.58921 0.0
C575 C 0.85478 0.30191 0.5924 0.0
C576 C 0.83822 0.32516 0.5851 0.0
C577 C 0.82528 0.30637 0.57492 0.0
C578 C 0.92063 0.27071 0.53469 0.0
C579 C 0.83825 0.33587 0.5296 0.0
O580 O 0.79072 0.2125 0.50338 0.0
O581 O 0.87248 0.25713 0.50593 0.0
O582 O 0.75536 0.24839 0.51882 0.0
O583 O 0.76401 0.20745 0.53084 0.0
O584 O 0.79681 0.15505 0.52154 0.0
O585 O 0.78566 0.15385 0.53942 0.0
O586 O 0.82068 0.20825 0.55744 0.0
O587 O 0.8023 0.26759 0.55427 0.0
O588 O 0.9075 0.26443 0.54435 0.0
O589 O 0.87926 0.25629 0.52973 0.0
O590 O 0.83031 0.31102 0.53857 0.0
O591 O 0.84173 0.31569 0.52073 0.0
H592 H 0.76943 0.14781 0.48844 0.0
H593 H 0.77831 0.12651 0.47044 0.0
H594 H 0.92794 0.25826 0.46885 0.0
H595 H 0.91947 0.27964 0.48682 0.0
H596 H 0.84872 0.20799 0.57694 0.0
H597 H 0.87217 0.24159 0.59469 0.0
H598 H 0.83415 0.35726 0.58735 0.0
H599 H 0.81096 0.32432 0.56965 0.0
La600 La 0.9372 0.46151 0.70642 0.0
La601 La 0.93839 0.46371 0.68387 0.0
C602 C 0.96483 0.45973 0.72503 0.0
C603 C 0.98506 0.48492 0.73523 0.0
C604 C 0.96685 0.51417 0.74007 0.0
C605 C 0.97925 0.52923 0.7505 0.0
C606 C 1.00979 0.5151 0.7563 0.0
C607 C 0.02955 0.48761 0.75134 0.0
C608 C 1.01733 0.47274 0.74092 0.0
C609 C 0.86183 0.47339 0.69934 0.0
C610 C 1.001 0.57118 0.69499 0.0
C611 C 0.91951 0.4586 0.66444 0.0
C612 C 0.90746 0.42689 0.65488 0.0
C613 C 0.94094 0.41149 0.65092 0.0
C614 C 0.93236 0.38831 0.6411 0.0
C615 C 0.89033 0.38025 0.635 0.0
C616 C 0.85611 0.39419 0.63908 0.0
C617 C 0.86462 0.41725 0.64889 0.0
C618 C 1.00379 0.4365 0.69222 0.0
C619 C 0.8563 0.36087 0.6951 0.0
O620 O 0.91937 0.45022 0.72229 0.0
O621 O 0.99529 0.47096 0.71702 0.0
O622 O 0.86274 0.45282 0.70814 0.0
O623 O 0.90613 0.49301 0.69516 0.0
O624 O 0.98951 0.54469 0.70385 0.0
O625 O 0.98291 0.54675 0.6861 0.0
O626 O 0.96501 0.47758 0.66844 0.0
O627 O 0.8848 0.44484 0.67166 0.0
O628 O 1.012 0.46484 0.6841 0.0
O629 O 0.95929 0.42393 0.6952 0.0
O630 O 0.87397 0.38645 0.68629 0.0
O631 O 0.87943 0.38136 0.70402 0.0
H632 H 0.9415 0.52374 0.73595 0.0
H633 H 0.96361 0.55048 0.75416 0.0
H634 H 0.05314 0.47629 0.75564 0.0
H635 H 0.03132 0.44965 0.73743 0.0
H636 H 0.97454 0.41861 0.65526 0.0
H637 H 0.95925 0.37782 0.63814 0.0
H638 H 0.82344 0.38839 0.63455 0.0
H639 H 0.83847 0.42915 0.65164 0.0
La640 La 0.58093 0.47997 0.70684 0.0
La641 La 0.58172 0.48412 0.68412 0.0
C642 C 0.58003 0.50392 0.72566 0.0
C643 C 0.55367 0.49544 0.73585 0.0
C644 C 0.55173 0.45901 0.74297 0.0
C645 C 0.53792 0.45895 0.75338 0.0
C646 C 0.52587 0.49534 0.75692 0.0
C647 C 0.52517 0.53003 0.74973 0.0
C648 C 0.53907 0.53018 0.73932 0.0
C649 C 0.56692 0.39363 0.69875 0.0
C650 C 0.47297 0.43708 0.69525 0.0
C651 C 0.58743 0.47638 0.66448 0.0
C652 C 0.6192 0.49476 0.65489 0.0
C653 C 0.64606 0.54636 0.65197 0.0
C654 C 0.6701 0.56113 0.64219 0.0
C655 C 0.66737 0.52463 0.63511 0.0
C656 C 0.64164 0.47336 0.63816 0.0
C657 C 0.61793 0.45868 0.64791 0.0
C658 C 0.6057 0.57351 0.69337 0.0
C659 C 0.68231 0.50045 0.69614 0.0
O660 O 0.59316 0.47109 0.7226 0.0
O661 O 0.56751 0.52347 0.71784 0.0
O662 O 0.58348 0.40992 0.70801 0.0
O663 O 0.54989 0.42116 0.69493 0.0
O664 O 0.49899 0.45404 0.70408 0.0
O665 O 0.49775 0.44125 0.68644 0.0
O666 O 0.57312 0.50569 0.66895 0.0
O667 O 0.59739 0.45062 0.67132 0.0
O668 O 0.57792 0.55481 0.68516 0.0
O669 O 0.61955 0.54188 0.69595 0.0
O670 O 0.65752 0.49162 0.68716 0.0
O671 O 0.66222 0.50658 0.70474 0.0
H672 H 0.56345 0.43216 0.74066 0.0
H673 H 0.53894 0.43201 0.7588 0.0
H674 H 0.51624 0.5586 0.75229 0.0
H675 H 0.54104 0.55932 0.73412 0.0
H676 H 0.64753 0.57511 0.65713 0.0
H677 H 0.68987 0.60094 0.64005 0.0
H678 H 0.63902 0.44448 0.63289 0.0
H679 H 0.59716 0.41867 0.64989 0.0
La680 La 0.56611 0.11223 0.70669 0.0
La681 La 0.56519 0.10883 0.68408 0.0
C682 C 0.54086 0.08789 0.7256 0.0
C683 C 0.54624 0.06621 0.73569 0.0
C684 C 0.58313 0.09682 0.74303 0.0
C685 C 0.58291 0.07907 0.75316 0.0
C686 C 0.54721 0.02887 0.75636 0.0
C687 C 0.50806 1.00015 0.74906 0.0
C688 C 0.50828 0.0179 0.73892 0.0
C689 C 0.6553 0.18231 0.6989 0.0
C690 C 0.60925 0.04606 0.69559 0.0
C691 C 0.57517 0.12649 0.66452 0.0
C692 C 0.55294 0.13296 0.65462 0.0
C693 C 0.51085 0.0924 0.64968 0.0
C694 C 0.49531 0.09874 0.63969 0.0
C695 C 0.52179 0.14555 0.63439 0.0
C696 C 0.56303 0.18619 0.63943 0.0
C697 C 0.57838 0.17996 0.64938 0.0
C698 C 0.47396 0.04409 0.69279 0.0
C699 C 0.54941 0.19397 0.6953 0.0
O700 O 0.5779 0.13196 0.72253 0.0
O701 O 0.51799 0.0576 0.71774 0.0
O702 O 0.63514 0.18594 0.70749 0.0
O703 O 0.62712 0.13792 0.69525 0.0
O704 O 0.59072 0.0548 0.70423 0.0
O705 O 0.6081 0.0684 0.68674 0.0
O706 O 0.55706 0.0814 0.66868 0.0
O707 O 0.58816 0.16123 0.67163 0.0
O708 O 0.49311 0.03578 0.6846 0.0
O709 O 0.50549 0.08905 0.69549 0.0
O710 O 0.56213 0.17895 0.68674 0.0
O711 O 0.54108 0.16796 0.70407 0.0
H712 H 0.61099 0.13569 0.74112 0.0
H713 H 0.6097 0.10668 0.75852 0.0
H714 H 0.47503 0.96463 0.75113 0.0
H715 H 0.47699 0.9945 0.73376 0.0
H716 H 0.49067 0.05553 0.65341 0.0
H717 H 0.46331 0.06681 0.63599 0.0
H718 H 0.5841 0.22261 0.63555 0.0
H719 H 0.61134 0.21174 0.65289 0.0
La720 La 0.5836 0.11278 0.18219 0.0
La721 La 0.58337 0.10554 0.20691 0.0
C722 C 0.58232 0.13734 0.16333 0.0
C723 C 0.60266 0.1382 0.15279 0.0
C724 C 0.61978 0.10478 0.1498 0.0
C725 C 0.63947 0.10786 0.13974 0.0
C726 C 0.64236 0.14439 0.13254 0.0
C727 C 0.62516 0.17757 0.13558 0.0
C728 C 0.60556 0.17448 0.14558 0.0
C729 C 0.61783 0.04913 0.18887 0.0
C730 C 0.68165 0.19258 0.19522 0.0
C731 C 0.59167 0.07381 0.22468 0.0
C732 C 0.57011 0.05922 0.23532 0.0
C733 C 0.54427 0.0813 0.24013 0.0
C734 C 0.52931 0.07048 0.25061 0.0
C735 C 0.54014 0.03766 0.25647 0.0
C736 C 0.56493 0.01481 0.25159 0.0
C737 C 0.57971 0.02547 0.24112 0.0
C738 C 0.55479 0.17281 0.20079 0.0
C739 C 0.47599 0.0483 0.19469 0.0
O740 O 0.5491 0.09339 0.16737 0.0
O741 O 0.61498 0.16758 0.17025 0.0
O742 O 0.61268 0.05925 0.1793 0.0
O743 O 0.60287 0.07493 0.19395 0.0
O744 O 0.65558 0.1812 0.18634 0.0
O745 O 0.66309 0.16428 0.20377 0.0
O746 O 0.61284 0.12188 0.22208 0.0
O747 O 0.56652 0.04367 0.21692 0.0
O748 O 0.55967 0.16173 0.21038 0.0
O749 O 0.56697 0.14574 0.19525 0.0
O750 O 0.50109 0.05458 0.20365 0.0
O751 O 0.50026 0.06948 0.18577 0.0
H752 H 0.61817 0.07662 0.15523 0.0
H753 H 0.65273 0.08201 0.13758 0.0
H754 H 0.62715 0.20611 0.1302 0.0
H755 H 0.59279 0.20077 0.14771 0.0
H756 H 0.53665 0.10765 0.23586 0.0
H757 H 0.51017 0.0885 0.25422 0.0
H758 H 0.57365 0.98941 0.25593 0.0
H759 H 0.5999 1.00827 0.23762 0.0
La760 La 0.93835 0.48176 0.18244 0.0
La761 La 0.93949 0.48225 0.20614 0.0
C762 C 0.92029 0.46952 0.16297 0.0
C763 C 0.91227 0.49165 0.15322 0.0
C764 C 0.95337 0.52306 0.14667 0.0
C765 C 0.94486 0.53688 0.13673 0.0
C766 C 0.89509 0.51927 0.13307 0.0
C767 C 0.85409 0.48925 0.13969 0.0
C768 C 0.86255 0.4755 0.14963 0.0
C769 C 1.00611 0.57189 0.19117 0.0
C770 C 0.85504 0.49781 0.19457 0.0
C771 C 0.96608 0.51565 0.22445 0.0
C772 C 0.97983 0.50659 0.23509 0.0
C773 C 0.94285 0.47111 0.24195 0.0
C774 C 0.95421 0.46978 0.25252 0.0
C775 C 1.00267 0.5039 0.25648 0.0
C776 C 0.0402 0.53788 0.24957 0.0
C777 C 0.02887 0.53928 0.23902 0.0
C778 C 0.874 0.38682 0.19987 0.0
C779 C 1.00095 0.43772 0.19413 0.0
O780 O 0.96581 0.49026 0.16705 0.0
O781 O 0.88531 0.4538 0.17014 0.0
O782 O 1.01198 0.55343 0.1826 0.0
O783 O 0.96158 0.54026 0.19423 0.0
O784 O 0.87256 0.49245 0.18548 0.0
O785 O 0.87905 0.50103 0.20345 0.0
O786 O 0.91872 0.48809 0.22139 0.0
O787 O 0.99845 0.52585 0.2168 0.0
O788 O 0.88506 0.40143 0.20948 0.0
O789 O 0.90175 0.42605 0.19438 0.0
O790 O 0.99828 0.46114 0.20263 0.0
O791 O 0.97464 0.43537 0.18564 0.0
H792 H 0.99211 0.53555 0.14908 0.0
H793 H 0.97707 0.56004 0.13175 0.0
H794 H 0.81539 0.47514 0.13704 0.0
H795 H 0.82993 0.45058 0.15436 0.0
H796 H 0.90449 0.44573 0.23927 0.0
H797 H 0.9246 0.44341 0.25771 0.0
H798 H 0.07776 0.56471 0.25245 0.0
H799 H 0.05795 0.56757 0.23401 0.0
La800 La 0.56509 0.46241 0.18323 0.0
La801 La 0.56188 0.45825 0.2061 0.0
C802 C 0.58058 0.4594 0.16381 0.0
C803 C 0.56191 0.43005 0.15389 0.0
C804 C 0.5159 0.42036 0.14914 0.0
C805 C 0.50301 0.39955 0.13907 0.0
C806 C 0.53589 0.3882 0.13346 0.0
C807 C 0.58113 0.39661 0.1383 0.0
C808 C 0.59395 0.41727 0.14836 0.0
C809 C 0.47264 0.43692 0.19121 0.0
C810 C 0.54272 0.35856 0.19452 0.0
C811 C 0.53274 0.45478 0.22474 0.0
C812 C 0.53894 0.47884 0.23515 0.0
C813 C 0.57322 0.47828 0.24254 0.0
C814 C 0.57141 0.49041 0.253 0.0
C815 C 0.5353 0.50334 0.25634 0.0
C816 C 0.50261 0.50626 0.24892 0.0
C817 C 0.50424 0.49392 0.23846 0.0
C818 C 0.6499 0.47173 0.199 0.0
C819 C 0.60847 0.56823 0.19518 0.0
O820 O 0.55501 0.4794 0.16779 0.0
O821 O 0.59933 0.44306 0.17107 0.0
O822 O 0.49338 0.46483 0.18308 0.0
O823 O 0.50363 0.42319 0.19438 0.0
O824 O 0.55325 0.38513 0.18575 0.0
O825 O 0.53779 0.37817 0.20334 0.0
O826 O 0.56655 0.44263 0.22184 0.0
O827 O 0.51493 0.46873 0.21683 0.0
O828 O 0.62966 0.45213 0.20792 0.0
O829 O 0.62413 0.49036 0.19495 0.0
O830 O 0.59014 0.54081 0.20382 0.0
O831 O 0.60661 0.54544 0.18625 0.0
H832 H 0.49044 0.43012 0.15307 0.0
H833 H 0.46786 0.39337 0.13555 0.0
H834 H 0.60717 0.38823 0.13418 0.0
H835 H 0.62994 0.42486 0.15169 0.0
H836 H 0.59993 0.46608 0.24037 0.0
H837 H 0.59691 0.48772 0.25857 0.0
H838 H 0.47432 0.51599 0.25131 0.0
H839 H 0.47665 0.49383 0.23306 0.0
La840 La 0.45058 0.2399 0.04032 0.0
La841 La 0.44782 0.24165 1.01785 0.0
C842 C 0.47217 0.24663 0.05971 0.0
C843 C 0.47865 0.27424 0.06975 0.0
C844 C 0.43849 0.25644 0.077 0.0
C845 C 0.44653 0.27647 0.08712 0.0
C846 C 0.49503 0.3146 0.09033 0.0
C847 C 0.53491 0.33349 0.08304 0.0
C848 C 0.52689 0.31351 0.07291 0.0
C849 C 0.38103 0.26409 0.03264 0.0
C850 C 0.52832 0.34168 1.02834 0.0
C851 C 0.4234 0.24226 0.99892 0.0
C852 C 0.40748 0.21701 0.98861 0.0
C853 C 0.43393 0.19581 0.98369 0.0
C854 C 0.42413 0.18082 0.97322 0.0
C855 C 0.38798 0.18698 0.96745 0.0
C856 C 0.36025 0.20633 0.97247 0.0
C857 C 0.36991 0.22116 0.98294 0.0
C858 C 0.52307 0.22694 1.02484 0.0
C859 C 0.38418 0.13326 0.02923 0.0
O860 O 0.4265 0.21915 0.05588 0.0
O861 O 0.50573 0.26863 0.05233 0.0
O862 O 0.37677 0.23831 0.04096 0.0
O863 O 0.42537 0.27817 0.02931 0.0
O864 O 0.52041 0.31282 0.03669 0.0
O865 O 0.4949 0.3237 1.02065 0.0
O866 O 0.46947 0.2566 1.00217 0.0
O867 O 0.39074 0.2271 1.0066 0.0
O868 O 0.52322 0.24991 1.01634 0.0
O869 O 0.47886 0.20835 0.02883 0.0
O870 O 0.38949 0.16061 1.02072 0.0
O871 O 0.4102 0.15653 0.03775 0.0
H872 H 0.40108 0.22566 0.07498 0.0
H873 H 0.41511 0.26115 0.09257 0.0
H874 H 0.57269 0.3628 0.08529 0.0
H875 H 0.55901 0.32766 0.06766 0.0
H876 H 0.46343 0.19251 0.9878 0.0
H877 H 0.44594 0.16592 0.9695 0.0
H878 H 0.33221 0.21142 0.96819 0.0
H879 H 0.34944 0.23798 0.98648 0.0
La880 La 0.80098 0.2148 0.04064 0.0
La881 La 0.80228 0.21606 1.01689 0.0
C882 C 0.79439 0.22572 0.06013 0.0
C883 C 0.766 0.20215 0.06997 0.0
C884 C 0.78704 0.18424 0.07755 0.0
C885 C 0.76566 0.17035 0.08754 0.0
C886 C 0.72293 0.17442 0.09023 0.0
C887 C 0.70072 0.19058 0.08258 0.0
C888 C 0.72203 0.2044 0.07259 0.0
C889 C 0.77946 0.12527 0.03175 0.0
C890 C 0.70156 0.19876 1.02823 0.0
C891 C 0.79694 0.18435 0.99847 0.0
C892 C 0.82229 0.19467 0.98808 0.0
C893 C 0.81985 0.22855 0.98094 0.0
C894 C 0.83836 0.23321 0.97075 0.0
C895 C 0.86252 0.20604 0.96734 0.0
C896 C 0.86039 0.16892 0.97441 0.0
C897 C 0.84191 0.16425 0.98459 0.0
C898 C 0.83178 0.31083 1.02353 0.0
C899 C 0.90819 0.26112 0.02914 0.0
O900 O 0.82226 0.20854 0.05605 0.0
O901 O 0.77222 0.23851 0.05296 0.0
O902 O 0.80337 0.1435 0.0404 0.0
O903 O 0.76657 0.15704 1.02866 0.0
O904 O 0.72432 0.20371 0.03737 0.0
O905 O 0.72299 0.19726 1.01934 0.0
O906 O 0.77785 0.21263 1.00143 0.0
O907 O 0.81716 0.17243 1.00627 0.0
O908 O 0.82827 0.29713 1.01387 0.0
O909 O 0.82013 0.27107 0.02886 0.0
O910 O 0.88248 0.23819 1.02054 0.0
O911 O 0.8837 0.26221 0.03762 0.0
H912 H 0.82133 0.18285 0.07589 0.0
H913 H 0.78353 0.15811 0.0933 0.0
H914 H 0.66785 0.19415 0.08447 0.0
H915 H 0.70513 0.2187 0.06705 0.0
H916 H 0.80177 0.25024 0.98307 0.0
H917 H 0.83093 0.25672 0.96555 0.0
H918 H 0.87069 0.14114 0.97214 0.0
H919 H 0.84109 0.1351 0.98963 0.0
La920 La 0.81855 0.58578 0.04115 0.0
La921 La 0.82014 0.59052 1.01718 0.0
C922 C 0.79353 0.56417 0.06009 0.0
C923 C 0.81395 0.55995 0.07038 0.0
C924 C 0.8579 0.6005 0.07481 0.0
C925 C 0.87389 0.59596 0.08485 0.0
C926 C 0.84624 0.55092 0.09065 0.0
C927 C 0.80286 0.51031 0.08616 0.0
C928 C 0.78688 0.51483 0.07616 0.0
C929 C 0.91468 0.65279 0.0344 0.0
C930 C 0.8401 0.50734 0.02903 0.0
C931 C 0.84989 0.60422 0.99846 0.0
C932 C 0.84384 0.61888 0.98772 0.0
C933 C 0.83975 0.58683 0.97949 0.0
C934 C 0.84113 0.60199 0.96913 0.0
C935 C 0.84654 0.64956 0.96677 0.0
C936 C 0.84891 0.68115 0.97496 0.0
C937 C 0.84772 0.66602 0.98537 0.0
C938 C 0.72723 0.53121 1.02531 0.0
C939 C 0.77723 0.65235 0.02888 0.0
O940 O 0.8103 0.60942 0.05603 0.0
O941 O 0.7874 0.53068 0.05304 0.0
O942 O 0.90083 0.64084 0.044 0.0
O943 O 0.87393 0.6264 0.02932 0.0
O944 O 0.83329 0.52314 0.03818 0.0
O945 O 0.83956 0.52994 1.02015 0.0
O946 O 0.81396 0.56085 1.00213 0.0
O947 O 0.86953 0.63943 1.00563 0.0
O948 O 0.7371 0.55669 1.01661 0.0
O949 O 0.76967 0.53843 1.02876 0.0
O950 O 0.79942 0.64928 1.02022 0.0
O951 O 0.77612 0.62664 0.03744 0.0
H952 H 0.87957 0.63582 0.07058 0.0
H953 H 0.90756 0.62772 0.08815 0.0
H954 H 0.781 0.47523 0.09047 0.0
H955 H 0.75276 0.48313 0.07297 0.0
H956 H 0.83729 0.5506 0.98107 0.0
H957 H 0.83945 0.57717 0.96294 0.0
H958 H 0.85331 0.71811 0.97329 0.0
H959 H 0.85133 0.69173 0.99154 0.0
La960 La 0.46846 0.92596 0.85065 0.0
La961 La 0.46726 0.91763 0.87469 0.0
C962 C 0.45271 0.94166 0.83194 0.0
C963 C 0.47601 0.95793 0.82142 0.0
C964 C 0.50533 0.93881 0.81694 0.0
C965 C 0.52139 0.95005 0.80652 0.0
C966 C 0.50845 0.98051 0.80039 0.0
C967 C 0.48035 1.00065 0.80494 0.0
C968 C 0.46431 0.98945 0.81534 0.0
C969 C 0.50345 0.86625 0.85813 0.0
C970 C 0.57399 0.98693 0.86211 0.0
C971 C 0.47215 0.89419 0.89353 0.0
C972 C 0.44783 0.88636 0.90398 0.0
C973 C 0.43406 0.9204 0.90825 0.0
C974 C 0.41381 0.91275 0.91839 0.0
C975 C 0.40697 0.87101 0.92447 0.0
C976 C 0.42016 0.83681 0.92012 0.0
C977 C 0.44033 0.84443 0.91003 0.0
C978 C 0.43312 0.98212 0.86849 0.0
C979 C 0.36758 0.83895 0.86239 0.0
O980 O 0.44515 0.89802 0.83553 0.0
O981 O 0.46715 0.97596 0.83927 0.0
O982 O 0.51897 0.89369 0.84972 0.0
O983 O 0.46835 0.87263 0.86182 0.0
O984 O 0.54681 0.98665 0.85394 0.0
O985 O 0.55056 0.95913 0.87057 0.0
O986 O 0.49804 0.94041 0.88976 0.0
O987 O 0.44601 0.86126 0.88629 0.0
O988 O 0.43614 0.96929 0.87798 0.0
O989 O 0.44945 0.95805 0.86324 0.0
O990 O 0.39156 0.85246 0.87149 0.0
O991 O 0.389 0.86458 0.85364 0.0
H992 H 0.51479 0.91422 0.82138 0.0
H993 H 0.54306 0.9341 0.80318 0.0
H994 H 0.46991 0.02418 0.80038 0.0
H995 H 0.44141 1.00432 0.81856 0.0
H996 H 0.43936 0.95309 0.90381 0.0
H997 H 0.40391 0.93967 0.92155 0.0
H998 H 0.41529 0.80436 0.92461 0.0
H999 H 0.45076 0.8177 0.90698 0.0
La1000 La 0.11417 0.5528 0.85084 0.0
La1001 La 0.11691 0.55441 0.87501 0.0
C1002 C 0.10007 0.52382 0.83203 0.0
C1003 C 0.08351 0.53168 0.82153 0.0
C1004 C 0.11838 0.56775 0.81452 0.0
C1005 C 0.10403 0.57127 0.80427 0.0
C1006 C 0.05337 0.54056 0.80065 0.0
C1007 C 1.0203 0.50136 0.80756 0.0
C1008 C 0.03461 0.4978 0.8178 0.0
C1009 C 0.17446 0.64486 0.85914 0.0
C1010 C 0.05193 0.59659 0.86223 0.0
C1011 C 0.13895 0.58007 0.89394 0.0
C1012 C 0.14705 0.56243 0.90431 0.0
C1013 C 0.11486 0.55689 0.91268 0.0
C1014 C 0.12517 0.5464 0.92279 0.0
C1015 C 0.16809 0.5414 0.9248 0.0
C1016 C 0.1999 0.54602 0.91643 0.0
C1017 C 0.1896 0.5565 0.90631 0.0
C1018 C 0.0519 0.45835 0.86817 0.0
C1019 C 0.19607 0.5325 0.86316 0.0
O1020 O 0.14347 0.55961 0.83573 0.0
O1021 O 0.06557 0.50262 0.83935 0.0
O1022 O 0.15027 0.63608 0.85029 0.0
O1023 O 0.16517 0.60192 0.8626 0.0
O1024 O 0.05599 0.5747 0.85362 0.0
O1025 O 0.07598 0.59663 0.87098 0.0
O1026 O 0.09261 0.55903 0.89017 0.0
O1027 O 0.17253 0.58965 0.88663 0.0
O1028 O 0.06264 0.47216 0.87779 0.0
O1029 O 0.07798 0.4993 0.86309 0.0
O1030 O 0.17887 0.53845 0.87224 0.0
O1031 O 0.17505 0.53398 0.85412 0.0
H1032 H 0.1576 0.59224 0.81682 0.0
H1033 H 0.13424 0.59699 0.7992 0.0
H1034 H 0.98357 0.47128 0.80511 0.0
H1035 H 1.0077 0.46703 0.82271 0.0
H1036 H 0.08227 0.56195 0.91147 0.0
H1037 H 0.10005 0.54299 0.9291 0.0
H1038 H 0.23323 0.54235 0.91777 0.0
H1039 H 0.21567 0.56106 0.90011 0.0
La1040 La 0.48679 0.57243 0.85145 0.0
La1041 La 0.48976 0.57368 0.87418 0.0
C1042 C 0.51008 0.57143 0.83257 0.0
C1043 C 0.50121 0.54542 0.82234 0.0
C1044 C 0.46718 0.54709 0.81505 0.0
C1045 C 0.46733 0.53354 0.80464 0.0
C1046 C 0.50153 0.51813 0.80127 0.0
C1047 C 0.53365 0.51382 0.80863 0.0
C1048 C 0.53363 0.5275 0.81904 0.0
C1049 C 0.39958 0.55812 0.85953 0.0
C1050 C 0.44464 0.46538 0.86311 0.0
C1051 C 0.48062 0.58023 0.89379 0.0
C1052 C 0.50319 0.60786 0.90375 0.0
C1053 C 0.52581 0.58946 0.91087 0.0
C1054 C 0.53878 0.6092 0.92099 0.0
C1055 C 0.52908 0.64758 0.92432 0.0
C1056 C 0.50799 0.66717 0.91715 0.0
C1057 C 0.49508 0.64751 0.90701 0.0
C1058 C 0.58098 0.59989 0.86534 0.0
C1059 C 0.50649 0.67318 0.86176 0.0
O1060 O 0.47757 0.58493 0.83572 0.0
O1061 O 0.52962 0.55851 0.84034 0.0
O1062 O 0.41669 0.57565 0.85035 0.0
O1063 O 0.42716 0.54114 0.86332 0.0
O1064 O 0.46312 0.49148 0.85435 0.0
O1065 O 0.44643 0.48996 0.87179 0.0
O1066 O 0.49925 0.55408 0.88953 0.0
O1067 O 0.4662 0.60149 0.88673 0.0
O1068 O 0.56283 0.57376 0.87377 0.0
O1069 O 0.54821 0.61152 0.86239 0.0
O1070 O 0.49306 0.64707 0.87062 0.0
O1071 O 0.51708 0.65401 0.85357 0.0
H1072 H 0.44226 0.56148 0.81724 0.0
H1073 H 0.4424 0.53738 0.7991 0.0
H1074 H 0.56052 0.50225 0.8062 0.0
H1075 H 0.56097 0.52662 0.82437 0.0
H1076 H 0.53175 0.55836 0.90874 0.0
H1077 H 0.55495 0.59339 0.92636 0.0
H1078 H 0.50005 0.69669 0.91951 0.0
H1079 H 0.47695 0.66212 0.90186 0.0
La1080 La 0.59826 0.79177 0.04018 0.0
La1081 La 0.59899 0.79279 1.01743 0.0
C1082 C 0.6221 0.7907 0.05912 0.0
C1083 C 0.64083 0.81609 0.06935 0.0
C1084 C 0.62019 0.84329 0.07416 0.0
C1085 C 0.63215 0.85895 0.08457 0.0
C1086 C 0.66465 0.84747 0.09038 0.0
C1087 C 0.68662 0.82193 0.08547 0.0
C1088 C 0.67484 0.80644 0.07507 0.0
C1089 C 0.52471 0.80678 0.03223 0.0
C1090 C 0.66306 0.8993 0.029 0.0
C1091 C 0.58334 0.78906 0.99783 0.0
C1092 C 0.57471 0.76057 0.98788 0.0
C1093 C 0.61237 0.75255 0.98334 0.0
C1094 C 0.60569 0.73208 0.97327 0.0
C1095 C 0.56147 0.71963 0.96747 0.0
C1096 C 0.52346 0.72654 0.9721 0.0
C1097 C 0.53001 0.74673 0.98216 0.0
C1098 C 0.66648 0.76852 1.02613 0.0
C1099 C 0.51761 0.69126 0.02948 0.0
O1100 O 0.5772 0.78113 0.05592 0.0
O1101 O 0.65401 0.80162 0.0514 0.0
O1102 O 0.52499 0.78913 0.04137 0.0
O1103 O 0.56928 0.82412 1.02851 0.0
O1104 O 0.65901 0.87131 0.03729 0.0
O1105 O 0.63683 0.87611 1.02046 0.0
O1106 O 0.62834 0.81049 1.00215 0.0
O1107 O 0.54737 0.77096 1.00481 0.0
O1108 O 0.67304 0.79524 1.01781 0.0
O1109 O 0.62136 0.75463 0.02895 0.0
O1110 O 0.53121 0.71722 1.0206 0.0
O1111 O 0.54592 0.71056 0.03789 0.0
H1112 H 0.59353 0.85095 0.07001 0.0
H1113 H 0.61481 0.8787 0.0882 0.0
H1114 H 0.71177 0.81267 0.08977 0.0
H1115 H 0.69075 0.78498 0.07161 0.0
H1116 H 0.64753 0.76323 0.98745 0.0
H1117 H 0.63554 0.72703 0.96989 0.0
H1118 H 0.48904 0.71728 0.96783 0.0
H1119 H 0.50061 0.75307 0.98534 0.0
La1120 La 0.2457 0.81353 0.03974 0.0
La1121 La 0.24627 0.82121 1.01682 0.0
C1122 C 0.25825 0.83682 0.05892 0.0
C1123 C 0.23355 0.82921 0.06935 0.0
C1124 C 0.23582 0.79616 0.07674 0.0
C1125 C 0.21848 0.79367 0.08698 0.0
C1126 C 0.19569 0.82238 0.09024 0.0
C1127 C 0.1982 0.85878 0.08291 0.0
C1128 C 0.21546 0.86125 0.07268 0.0
C1129 C 0.21297 0.72315 0.03053 0.0
C1130 C 0.13911 0.77459 1.02831 0.0
C1131 C 0.25619 0.82498 0.99706 0.0
C1132 C 0.28573 0.82796 0.98749 0.0
C1133 C 0.32551 0.87517 0.98396 0.0
C1134 C 0.34643 0.88052 0.97398 0.0
C1135 C 0.32828 0.8389 0.96722 0.0
C1136 C 0.28998 0.79124 0.97084 0.0
C1137 C 0.26876 0.78591 0.98083 0.0
C1138 C 0.26351 0.90685 1.02694 0.0
C1139 C 0.34595 0.83175 1.0281 0.0
O1140 O 0.26342 0.80003 0.05494 0.0
O1141 O 0.24801 0.86136 0.05174 0.0
O1142 O 0.19651 0.73068 0.0393 0.0
O1143 O 0.24745 0.76639 1.02742 0.0
O1144 O 0.16625 0.796 0.03685 0.0
O1145 O 0.16292 0.77603 1.01953 0.0
O1146 O 0.27485 0.86428 1.00317 0.0
O1147 O 0.23088 0.78253 1.00232 0.0
O1148 O 0.23342 0.88626 1.01908 0.0
O1149 O 0.27984 0.87681 0.0291 0.0
O1150 O 0.32177 0.82786 1.01918 0.0
O1151 O 0.32434 0.82963 0.0372 0.0
H1152 H 0.25304 0.7735 0.07473 0.0
H1153 H 0.22573 0.77057 0.09234 0.0
H1154 H 0.18921 0.88769 0.08502 0.0
H1155 H 0.21655 0.89001 0.06749 0.0
H1156 H 0.33916 0.90873 0.98874 0.0
H1157 H 0.37585 0.91765 0.97141 0.0
H1158 H 0.2753 0.75847 0.96581 0.0
H1159 H 0.23761 0.74925 0.98316 0.0
La1160 La 0.22588 0.4438 0.03991 0.0
La1161 La 0.22443 0.44031 1.01744 0.0
C1162 C 0.19996 0.43318 0.05891 0.0
C1163 C 0.20683 0.41759 0.06953 0.0
C1164 C 0.21465 0.45022 0.07792 0.0
C1165 C 0.21295 0.43395 0.08822 0.0
C1166 C 0.20342 0.38462 0.09039 0.0
C1167 C 0.19756 0.35247 0.08203 0.0
C1168 C 0.19916 0.36874 0.07169 0.0
C1169 C 0.31996 0.49939 0.03197 0.0
C1170 C 0.26505 0.37579 0.02934 0.0
C1171 C 0.22109 0.4464 0.99769 0.0
C1172 C 0.22049 0.47382 0.98802 0.0
C1173 C 0.17627 0.47526 0.9851 0.0
C1174 C 0.17083 0.49008 0.97502 0.0
C1175 C 0.20945 0.5041 0.96759 0.0
C1176 C 0.2547 0.50524 0.9706 0.0
C1177 C 0.26001 0.48995 0.98068 0.0
C1178 C 0.1355 0.37146 1.02659 0.0
C1179 C 0.21385 0.52964 1.02804 0.0
O1180 O 0.23653 0.47535 0.05496 0.0
O1181 O 0.17729 0.3979 0.05185 0.0
O1182 O 0.30781 0.47141 0.04027 0.0
O1183 O 0.27894 0.49482 1.0283 0.0
O1184 O 0.23815 0.37848 0.0372 0.0
O1185 O 0.26931 0.40196 1.02071 0.0
O1186 O 0.18201 0.42959 1.00388 0.0
O1187 O 0.26325 0.45983 1.00286 0.0
O1188 O 0.15906 0.36203 1.01934 0.0
O1189 O 0.16477 0.41733 0.02893 0.0
O1190 O 0.22265 0.5119 1.01934 0.0
O1191 O 0.2103 0.5066 0.03707 0.0
H1192 H 0.22002 0.48778 0.07651 0.0
H1193 H 0.21737 0.45931 0.09453 0.0
H1194 H 0.18997 0.31419 0.08352 0.0
H1195 H 0.19263 0.3425 0.06543 0.0
H1196 H 0.14462 0.46253 0.99043 0.0
H1197 H 0.13564 0.48892 0.9729 0.0
H1198 H 0.28503 0.51589 0.96501 0.0
H1199 H 0.29411 0.48846 0.98256 0.0
La1200 La 0.24886 0.43892 0.51656 0.0
La1201 La 0.25619 0.44635 0.53919 0.0
C1202 C 0.25056 0.45279 0.49694 0.0
C1203 C 0.2806 0.46433 0.48711 0.0
C1204 C 0.29496 0.43058 0.48289 0.0
C1205 C 0.31633 0.43872 0.47287 0.0
C1206 C 0.32355 0.48055 0.46681 0.0
C1207 C 0.31055 0.51496 0.47112 0.0
C1208 C 0.28934 0.50692 0.48113 0.0
C1209 C 0.27342 0.37305 0.52552 0.0
C1210 C 0.35615 0.51992 0.5268 0.0
C1211 C 0.26004 0.42629 0.5583 0.0
C1212 C 0.23519 0.40547 0.56856 0.0
C1213 C 0.2067 0.42386 0.57369 0.0
C1214 C 0.19161 0.41034 0.58411 0.0
C1215 C 0.20491 0.37847 0.58964 0.0
C1216 C 0.23183 0.35876 0.58441 0.0
C1217 C 0.24676 0.3721 0.574 0.0
C1218 C 0.24376 0.51942 0.53071 0.0
C1219 C 0.14444 0.37994 0.52875 0.0
O1220 O 0.23435 0.40865 0.50141 0.0
O1221 O 0.26389 0.4888 0.5038 0.0
O1222 O 0.24386 0.36402 0.51758 0.0
O1223 O 0.28905 0.4188 0.52796 0.0
O1224 O 0.32714 0.50326 0.51838 0.0
O1225 O 0.33718 0.49856 0.53595 0.0
O1226 O 0.26296 0.46824 0.55485 0.0
O1227 O 0.25451 0.39528 0.55073 0.0
O1228 O 0.26883 0.52342 0.53917 0.0
O1229 O 0.22205 0.4733 0.52773 0.0
O1230 O 0.17307 0.3904 0.53729 0.0
O1231 O 0.16637 0.39934 0.51968 0.0
H1232 H 0.28842 0.39713 0.48721 0.0
H1233 H 0.32614 0.41169 0.46974 0.0
H1234 H 0.31573 0.54749 0.46664 0.0
H1235 H 0.27813 0.53325 0.48407 0.0
H1236 H 0.19757 0.45004 0.5698 0.0
H1237 H 0.17082 0.42601 0.58796 0.0
H1238 H 0.24256 0.33417 0.58849 0.0
H1239 H 0.26929 0.35792 0.57032 0.0
La1240 La 0.59673 0.81265 0.51593 0.0
La1241 La 0.59829 0.81184 0.54085 0.0
C1242 C 0.57709 0.79011 0.49687 0.0
C1243 C 0.57107 0.81009 0.48663 0.0
C1244 C 0.59951 0.80981 0.47803 0.0
C1245 C 0.59083 0.82296 0.46804 0.0
C1246 C 0.55332 0.83658 0.46638 0.0
C1247 C 0.52551 0.83798 0.47498 0.0
C1248 C 0.53422 0.82486 0.485 0.0
C1249 C 0.65766 0.90756 0.52376 0.0
C1250 C 0.51427 0.82786 0.52864 0.0
C1251 C 0.62499 0.84566 0.55913 0.0
C1252 C 0.64048 0.83579 0.56956 0.0
C1253 C 0.60503 0.79994 0.57651 0.0
C1254 C 0.61922 0.79524 0.58672 0.0
C1255 C 0.67016 0.82445 0.59031 0.0
C1256 C 0.70401 0.86329 0.58342 0.0
C1257 C 0.68986 0.86798 0.57324 0.0
C1258 C 0.53411 0.71873 0.5334 0.0
C1259 C 0.65986 0.76775 0.52868 0.0
O1260 O 0.62299 0.81006 0.50087 0.0
O1261 O 0.54243 0.77969 0.50402 0.0
O1262 O 0.65044 0.89574 0.51399 0.0
O1263 O 0.63097 0.86542 0.5284 0.0
O1264 O 0.53078 0.82184 0.51947 0.0
O1265 O 0.538 0.83058 0.53758 0.0
O1266 O 0.57755 0.81698 0.55618 0.0
O1267 O 0.65696 0.85737 0.55135 0.0
O1268 O 0.54393 0.73009 0.54323 0.0
O1269 O 0.56195 0.75983 0.52844 0.0
O1270 O 0.65175 0.78412 0.53769 0.0
O1271 O 0.64063 0.77329 0.51967 0.0
H1272 H 0.62771 0.7981 0.479 0.0
H1273 H 0.61269 0.82147 0.46154 0.0
H1274 H 0.49637 0.84833 0.47391 0.0
H1275 H 0.51134 0.82525 0.49141 0.0
H1276 H 0.56561 0.77657 0.57423 0.0
H1277 H 0.58874 0.76991 0.59178 0.0
H1278 H 0.74131 0.89231 0.58586 0.0
H1279 H 0.71733 0.89842 0.56835 0.0
La1280 La 0.22662 0.79427 0.51571 0.0
La1281 La 0.22265 0.79012 0.53963 0.0
C1282 C 0.24376 0.79223 0.4964 0.0
C1283 C 0.22423 0.76356 0.48647 0.0
C1284 C 0.18048 0.75842 0.48144 0.0
C1285 C 0.16695 0.73723 0.47143 0.0
C1286 C 0.19698 0.72101 0.46619 0.0
C1287 C 0.23993 0.72506 0.47129 0.0
C1288 C 0.25341 0.74613 0.48129 0.0
C1289 C 0.13432 0.76641 0.5242 0.0
C1290 C 0.21324 0.69457 0.52737 0.0
C1291 C 0.18506 0.779 0.55763 0.0
C1292 C 0.19195 0.80158 0.56819 0.0
C1293 C 0.22527 0.79878 0.57551 0.0
C1294 C 0.22486 0.81187 0.58595 0.0
C1295 C 0.19111 0.8279 0.5893 0.0
C1296 C 0.15926 0.83264 0.58195 0.0
C1297 C 0.15957 0.81948 0.57152 0.0
C1298 C 0.31778 0.81944 0.53347 0.0
C1299 C 0.26908 0.89858 0.52834 0.0
O1300 O 0.22062 0.81496 0.50032 0.0
O1301 O 0.25939 0.77291 0.50368 0.0
O1302 O 0.15212 0.79156 0.51562 0.0
O1303 O 0.16744 0.75554 0.52731 0.0
O1304 O 0.21834 0.71896 0.51844 0.0
O1305 O 0.20911 0.71304 0.53646 0.0
O1306 O 0.21546 0.76203 0.55484 0.0
O1307 O 0.17398 0.80006 0.54983 0.0
O1308 O 0.30324 0.8163 0.5431 0.0
O1309 O 0.27933 0.81107 0.52803 0.0
O1310 O 0.24566 0.87092 0.53673 0.0
O1311 O 0.27097 0.8763 0.51957 0.0
H1312 H 0.15734 0.77185 0.48512 0.0
H1313 H 0.1336 0.73443 0.46767 0.0
H1314 H 0.2637 0.71285 0.46744 0.0
H1315 H 0.28767 0.75016 0.48486 0.0
H1316 H 0.25029 0.78457 0.57328 0.0
H1317 H 0.24958 0.80771 0.59149 0.0
H1318 H 0.13277 0.84471 0.58438 0.0
H1319 H 0.13289 0.82131 0.56614 0.0
La1320 La 0.11536 0.56574 0.37392 0.0
La1321 La 0.11965 0.56788 0.35141 0.0
C1322 C 0.12811 0.56943 0.39361 0.0
C1323 C 0.13706 0.59959 0.40334 0.0
C1324 C 0.09634 0.58855 0.41011 0.0
C1325 C 0.10514 0.61031 0.42006 0.0
C1326 C 0.1549 0.6434 0.42353 0.0
C1327 C 0.19558 0.65572 0.4167 0.0
C1328 C 0.18681 0.63398 0.40674 0.0
C1329 C 0.05002 0.5916 0.36494 0.0
C1330 C 0.20315 0.6662 0.36262 0.0
C1331 C 0.09578 0.57029 0.33253 0.0
C1332 C 0.07704 0.54563 0.3222 0.0
C1333 C 0.11117 0.54514 0.31484 0.0
C1334 C 0.09673 0.533 0.3044 0.0
C1335 C 0.04791 0.52117 0.30104 0.0
C1336 C 1.01289 0.51907 0.30844 0.0
C1337 C 0.02735 0.53137 0.31889 0.0
C1338 C 0.18942 0.54834 0.35942 0.0
C1339 C 0.05271 0.45892 0.36244 0.0
O1340 O 0.08384 0.55023 0.38904 0.0
O1341 O 0.16475 0.58457 0.38682 0.0
O1342 O 0.04111 0.56274 0.37298 0.0
O1343 O 0.09566 0.60592 0.36232 0.0
O1344 O 0.1849 0.64084 0.37147 0.0
O1345 O 0.17935 0.64711 0.35372 0.0
O1346 O 0.14081 0.58007 0.33567 0.0
O1347 O 0.06401 0.55906 0.3403 0.0
O1348 O 0.19127 0.56788 0.35033 0.0
O1349 O 0.14505 0.53291 0.36309 0.0
O1350 O 0.06207 0.48611 0.35374 0.0
O1351 O 0.07454 0.48237 0.37128 0.0
H1352 H 0.05765 0.56158 0.40787 0.0
H1353 H 0.07315 0.60014 0.42518 0.0
H1354 H 0.2343 0.68104 0.4192 0.0
H1355 H 0.21923 0.64278 0.40186 0.0
H1356 H 0.14999 0.55672 0.31702 0.0
H1357 H 0.12444 0.53506 0.29883 0.0
H1358 H 0.97507 0.51023 0.30603 0.0
H1359 H 1.00038 0.53226 0.32427 0.0
La1360 La 0.47124 0.54384 0.37386 0.0
La1361 La 0.46336 0.54524 0.35144 0.0
C1362 C 0.46983 0.5547 0.39351 0.0
C1363 C 0.44088 0.53509 0.40347 0.0
C1364 C 0.45638 0.51094 0.41083 0.0
C1365 C 0.43556 0.49964 0.4209 0.0
C1366 C 0.39874 0.5123 0.42388 0.0
C1367 C 0.38205 0.53513 0.41648 0.0
C1368 C 0.40302 0.54664 0.40641 0.0
C1369 C 0.44588 0.45333 0.36494 0.0
C1370 C 0.36332 0.51799 0.36384 0.0
C1371 C 0.45926 0.52511 0.33217 0.0
C1372 C 0.48412 0.53017 0.32188 0.0
C1373 C 0.48759 0.56667 0.31459 0.0
C1374 C 0.50037 0.56494 0.30417 0.0
C1375 C 0.50986 0.52661 0.30076 0.0
C1376 C 0.50869 0.49147 0.30809 0.0
C1377 C 0.49575 0.49307 0.31851 0.0
C1378 C 0.47484 0.62993 0.3599 0.0
C1379 C 0.57531 0.58825 0.36171 0.0
O1380 O 0.48787 0.52857 0.389 0.0
O1381 O 0.45447 0.57614 0.38666 0.0
O1382 O 0.47587 0.47363 0.37281 0.0
O1383 O 0.43035 0.48381 0.36255 0.0
O1384 O 0.39317 0.53131 0.37214 0.0
O1385 O 0.38211 0.51541 0.35471 0.0
O1386 O 0.4575 0.56409 0.33591 0.0
O1387 O 0.46346 0.4975 0.33955 0.0
O1388 O 0.44864 0.60833 0.35164 0.0
O1389 O 0.4977 0.60614 0.3628 0.0
O1390 O 0.54635 0.57013 0.35324 0.0
O1391 O 0.55376 0.58699 0.37073 0.0
H1392 H 0.4861 0.5024 0.40894 0.0
H1393 H 0.44917 0.48217 0.42646 0.0
H1394 H 0.35382 0.54542 0.4186 0.0
H1395 H 0.39078 0.56615 0.40107 0.0
H1396 H 0.47797 0.59519 0.31681 0.0
H1397 H 0.50082 0.59233 0.29867 0.0
H1398 H 0.51569 0.46144 0.30563 0.0
H1399 H 0.49252 0.46376 0.32382 0.0
La1400 La 0.48598 0.91809 0.37446 0.0
La1401 La 0.48797 0.91865 0.35008 0.0
C1402 C 0.46203 0.89954 0.39354 0.0
C1403 C 0.48211 0.89415 0.40382 0.0
C1404 C 0.48085 0.92218 0.41238 0.0
C1405 C 0.49443 0.9142 0.42239 0.0
C1406 C 0.50947 0.87784 0.4241 0.0
C1407 C 0.51182 0.85046 0.41554 0.0
C1408 C 0.49827 0.85846 0.40551 0.0
C1409 C 0.58184 0.98178 0.3672 0.0
C1410 C 0.50488 0.83572 0.36299 0.0
C1411 C 0.52052 0.93502 0.33152 0.0
C1412 C 0.51463 0.95374 0.32111 0.0
C1413 C 0.47725 0.92158 0.31401 0.0
C1414 C 0.47526 0.9382 0.30387 0.0
C1415 C 0.50904 0.98863 0.30049 0.0
C1416 C 0.54925 0.01864 0.30747 0.0
C1417 C 0.55127 1.00207 0.31759 0.0
C1418 C 0.39591 0.85945 0.35841 0.0
C1419 C 0.44104 0.9796 0.36121 0.0
O1420 O 0.48211 0.94497 0.38938 0.0
O1421 O 0.45179 0.86467 0.38652 0.0
O1422 O 0.56889 0.97203 0.37689 0.0
O1423 O 0.54025 0.95566 0.36238 0.0
O1424 O 0.49981 0.85442 0.37196 0.0
O1425 O 0.50479 0.85671 0.35381 0.0
O1426 O 0.48374 0.89124 0.3349 0.0
O1427 O 0.54078 0.96828 0.33905 0.0
O1428 O 0.4048 0.87995 0.34914 0.0
O1429 O 0.43891 0.86987 0.36208 0.0
O1430 O 0.46149 0.97388 0.35251 0.0
O1431 O 0.4435 0.95848 0.3702 0.0
H1432 H 0.46811 0.94953 0.41136 0.0
H1433 H 0.49221 0.93573 0.42885 0.0
H1434 H 0.52328 0.8222 0.41666 0.0
H1435 H 0.49948 0.83596 0.39913 0.0
H1436 H 0.45037 0.88273 0.31615 0.0
H1437 H 0.44813 0.90978 0.2987 0.0
H1438 H 0.58116 0.05456 0.30516 0.0
H1439 H 0.58289 0.02672 0.32257 0.0
C1440 C 0.13723 0.10699 0.18835 0.0
C1441 C 0.16973 0.14832 0.19486 0.0
C1442 C 0.20288 0.09538 0.20245 0.0
C1443 C 0.16926 0.05355 0.19611 0.0
N1444 N 0.09059 0.0161 0.1865 0.0
N1445 N 0.22131 0.17545 0.21033 0.0
C1446 C 0.13274 0.05849 0.18998 0.0
C1447 C 0.1989 0.14058 0.20259 0.0
N1448 N 0.1095 0.1133 0.18068 0.0
N1449 N 0.23963 0.09274 0.20812 0.0
H1450 H 0.21716 0.20744 0.21087 0.0
H1451 H 0.23928 0.16998 0.21673 0.0
H1452 H 0.24319 0.06043 0.20829 0.0
H1453 H 0.2687 0.12375 0.21197 0.0
H1454 H 0.09045 0.08639 0.17491 0.0
H1455 H 0.10779 0.1464 0.1797 0.0
H1456 H 0.06014 0.01663 0.18283 0.0
H1457 H 0.08252 0.98023 0.18886 0.0
C1458 C 0.94666 0.11538 0.19224 0.0
C1459 C 0.99311 0.12217 0.19652 0.0
C1460 C 0.95294 0.02934 0.19891 0.0
C1461 C 0.906 0.02223 0.19487 0.0
N1462 N 0.85683 0.05882 0.18832 0.0
N1463 N 0.03804 0.08546 0.20531 0.0
C1464 C 0.90241 0.06552 0.19182 0.0
C1465 C 0.99525 0.07917 0.20035 0.0
N1466 N 0.94533 0.15669 0.18834 0.0
N1467 N 0.95817 0.98798 0.20089 0.0
H1468 H 0.07194 0.11979 0.20572 0.0
H1469 H 0.03937 0.05699 0.20961 0.0
H1470 H 0.92772 0.95129 0.20064 0.0
H1471 H 0.99291 0.9896 0.20213 0.0
H1472 H 0.91512 0.15484 0.18411 0.0
H1473 H 0.97589 0.19356 0.18897 0.0
H1474 H 0.84931 0.08821 0.18694 0.0
H1475 H 0.82493 0.02313 0.18729 0.0
C1476 C 0.99691 0.88363 0.20296 0.0
C1477 C 1.01172 0.86752 0.19391 0.0
C1478 C 0.92183 0.82677 0.18786 0.0
C1479 C 0.90912 0.84764 0.19645 0.0
N1480 N 0.92837 0.86746 0.21467 0.0
N1481 N 0.9869 0.82278 0.17755 0.0
C1482 C 0.94461 0.86725 0.2048 0.0
C1483 C 0.97352 0.83823 0.18636 0.0
N1484 N 0.03297 0.91838 0.20942 0.0
N1485 N 0.8835 0.79211 0.18172 0.0
H1486 H 1.02262 0.82638 0.17649 0.0
H1487 H 0.96338 0.80802 0.17107 0.0
H1488 H 0.84527 0.77834 0.18349 0.0
H1489 H 0.88861 0.77198 0.17578 0.0
H1490 H 1.0245 0.9355 0.2155 0.0
H1491 H 0.07149 0.9346 0.20786 0.0
H1492 H 0.9526 0.87862 0.2211 0.0
H1493 H 0.89 0.84835 0.21669 0.0
C1494 C 0.09683 0.10295 0.3643 0.0
C1495 C 0.14654 0.14328 0.36214 0.0
C1496 C 0.10756 0.19649 0.358 0.0
C1497 C 0.05989 0.15797 0.36197 0.0
N1498 N 1.01384 0.07761 0.37109 0.0
N1499 N 0.1993 0.23106 0.35709 0.0
C1500 C 0.05616 0.11245 0.36586 0.0
C1501 C 0.15204 0.19087 0.35893 0.0
N1502 N 0.08753 0.05431 0.36419 0.0
N1503 N 0.11043 0.23851 0.35342 0.0
H1504 H 0.2318 0.22779 0.35708 0.0
H1505 H 0.20653 0.26806 0.35601 0.0
H1506 H 0.07948 0.24465 0.35313 0.0
H1507 H 0.14234 0.26559 0.34941 0.0
H1508 H 0.05146 0.02267 0.36507 0.0
H1509 H 0.11495 0.04609 0.36162 0.0
H1510 H 1.01197 0.04644 0.37496 0.0
H1511 H 0.98251 0.08195 0.37244 0.0
C1512 C 0.83347 0.90448 0.36577 0.0
C1513 C 0.87483 0.90192 0.36121 0.0
C1514 C 0.91445 0.9931 0.35678 0.0
C1515 C 0.87705 0.99773 0.3626 0.0
N1516 N 0.79907 0.9562 0.3724 0.0
N1517 N 0.95855 0.94628 0.35357 0.0
C1518 C 0.83591 0.95272 0.36698 0.0
C1519 C 0.91597 0.94677 0.35691 0.0
N1520 N 0.79106 0.86046 0.36869 0.0
N1521 N 0.94918 0.03322 0.35111 0.0
H1522 H 0.96275 0.91433 0.35392 0.0
H1523 H 0.99192 0.97862 0.35131 0.0
H1524 H 0.94995 0.06739 0.35121 0.0
H1525 H 0.97352 0.0313 0.34568 0.0
H1526 H 0.7572 0.85832 0.37101 0.0
H1527 H 0.78833 0.82501 0.36805 0.0
H1528 H 0.77189 0.92712 0.377 0.0
H1529 H 0.79648 0.98918 0.37251 0.0
C1530 C 0.05252 0.91373 0.37161 0.0
C1531 C 0.03596 0.87875 0.36321 0.0
C1532 C 0.11885 0.93284 0.35446 0.0
C1533 C 0.13537 0.96852 0.36278 0.0
N1534 N 0.11575 0.99284 0.37933 0.0
N1535 N 0.05046 0.8577 0.34608 0.0
C1536 C 0.10194 0.9583 0.37146 0.0
C1537 C 0.06835 0.88929 0.35447 0.0
N1538 N 1.02019 0.90456 0.37977 0.0
N1539 N 0.15269 0.93913 0.3468 0.0
H1540 H 1.01484 0.82496 0.34604 0.0
H1541 H 0.06899 0.86526 0.33895 0.0
H1542 H 0.1901 0.96902 0.34676 0.0
H1543 H 0.14564 0.91282 0.34098 0.0
H1544 H 0.03133 0.92151 0.38704 0.0
H1545 H 0.9813 0.87905 0.37931 0.0
H1546 H 0.09106 0.99257 0.38495 0.0
H1547 H 0.15167 0.02405 0.38018 0.0
C1548 C 0.83302 0.88618 0.86895 0.0
C1549 C 0.86575 0.87626 0.86268 0.0
C1550 C 0.9009 0.9615 0.85497 0.0
C1551 C 0.86901 0.97236 0.86133 0.0
N1552 N 0.79216 0.93682 0.87155 0.0
N1553 N 0.90878 0.89524 0.8463 0.0
C1554 C 0.83132 0.93223 0.86752 0.0
C1555 C 0.89255 0.91093 0.85456 0.0
N1556 N 0.80253 0.85102 0.87615 0.0
N1557 N 0.94136 0.99947 0.8498 0.0
H1558 H 0.89603 0.85685 0.84532 0.0
H1559 H 0.92641 0.91806 0.83982 0.0
H1560 H 0.95251 0.0377 0.85055 0.0
H1561 H 0.96761 0.99336 0.84577 0.0
H1562 H 0.78336 0.85856 0.88196 0.0
H1563 H 0.79705 0.81429 0.87638 0.0
H1564 H 0.76112 0.90741 0.87535 0.0
H1565 H 0.78758 0.96807 0.87003 0.0
C1566 C 0.09334 1.00536 0.86116 0.0
C1567 C 0.14298 1.01217 0.86236 0.0
C1568 C 0.10455 0.9186 0.86177 0.0
C1569 C 0.05497 0.91265 0.86191 0.0
N1570 N 1.00408 0.95188 0.86483 0.0
N1571 N 0.19393 0.973 0.866 0.0
C1572 C 0.04996 0.95649 0.86244 0.0
C1573 C 0.14827 0.96813 0.86317 0.0
N1574 N 0.08729 0.04571 0.85867 0.0
N1575 N 0.10999 0.87711 0.86031 0.0
H1576 H 0.226 1.00798 0.86748 0.0
H1577 H 0.1988 0.94215 0.86774 0.0
H1578 H 0.07887 0.84065 0.85947 0.0
H1579 H 0.14512 0.87952 0.85913 0.0
H1580 H 0.0522 0.04232 0.85684 0.0
H1581 H 0.11807 0.08138 0.8572 0.0
H1582 H 0.99931 0.98285 0.86642 0.0
H1583 H 0.97245 0.917 0.86657 0.0
C1584 C 0.06272 0.16997 0.85329 0.0
C1585 C 0.04088 0.16565 0.86327 0.0
C1586 C 0.12613 0.19525 0.87097 0.0
C1587 C 0.14337 0.18452 0.86154 0.0
N1588 N 0.13411 0.1806 0.84284 0.0
N1589 N 0.05568 0.18516 0.88157 0.0
C1590 C 0.11337 0.17749 0.85241 0.0
C1591 C 0.07381 0.18145 0.8721 0.0
N1592 N 0.03607 0.16985 0.84471 0.0
N1593 N 0.16069 0.22353 0.87845 0.0
H1594 H 1.02137 0.1849 0.88245 0.0
H1595 H 0.07467 0.18821 0.88854 0.0
H1596 H 0.19971 0.24186 0.8771 0.0
H1597 H 0.15143 0.23577 0.88521 0.0
H1598 H 0.04936 0.17466 0.83711 0.0
H1599 H 1.00234 0.1707 0.84534 0.0
H1600 H 0.11299 0.16751 0.83602 0.0
H1601 H 0.17332 0.19889 0.84169 0.0
C1602 C 0.93174 0.89548 0.70248 0.0
C1603 C 0.89741 0.87269 0.69414 0.0
C1604 C 0.9501 0.83566 0.68855 0.0
C1605 C 0.98939 0.86748 0.6956 0.0
N1606 N 1.02008 0.93875 0.70744 0.0
N1607 N 0.87568 0.82123 0.67865 0.0
C1608 C 0.98084 0.90025 0.70213 0.0
C1609 C 0.90718 0.84283 0.68698 0.0
N1610 N 0.91716 0.91201 0.71086 0.0
N1611 N 0.95254 0.79721 0.68364 0.0
H1612 H 0.84174 0.82166 0.67767 0.0
H1613 H 0.8844 0.80465 0.67251 0.0
H1614 H 0.98173 0.78923 0.68502 0.0
H1615 H 0.92292 0.76991 0.67917 0.0
H1616 H 0.93956 0.92668 0.71751 0.0
H1617 H 0.87942 0.90261 0.7116 0.0
H1618 H 1.01575 0.96565 0.71162 0.0
H1619 H 0.05792 0.94817 0.70653 0.0
C1620 C 0.13293 0.0818 0.68889 0.0
C1621 C 0.17232 0.12302 0.6945 0.0
C1622 C 0.20399 0.06593 0.70027 0.0
C1623 C 0.16921 0.02732 0.69348 0.0
N1624 N 0.10255 1.00028 0.6806 0.0
N1625 N 0.24907 0.15565 0.70467 0.0
C1626 C 0.13433 0.03587 0.68758 0.0
C1627 C 0.20876 0.11532 0.7 0.0
N1628 N 0.09225 0.08523 0.68531 0.0
N1629 N 0.23157 0.05503 0.70718 0.0
H1630 H 0.25405 0.1922 0.70452 0.0
H1631 H 0.27978 0.15389 0.70787 0.0
H1632 H 0.22799 0.01915 0.70771 0.0
H1633 H 0.25406 0.07977 0.71302 0.0
H1634 H 0.05944 0.05462 0.68229 0.0
H1635 H 0.08895 0.11734 0.68636 0.0
H1636 H 0.08121 1.0071 0.67512 0.0
H1637 H 0.09976 0.9649 0.6798 0.0
C1638 C 0.94966 0.06635 0.68502 0.0
C1639 C 0.9187 0.05404 0.69409 0.0
C1640 C 0.98527 0.13409 0.7021 0.0
C1641 C 1.01362 0.14856 0.69267 0.0
N1642 N 1.0194 0.12854 0.67466 0.0
N1643 N 0.90347 0.08206 0.71051 0.0
C1644 C 0.99441 0.11501 0.68398 0.0
C1645 C 0.93574 0.08948 0.70245 0.0
N1646 N 0.93891 0.03027 0.67762 0.0
N1647 N 1.00572 0.16281 0.7108 0.0
H1648 H 0.86639 0.05153 0.71084 0.0
H1649 H 0.91137 0.10878 0.71631 0.0
H1650 H 0.04073 0.19628 0.71077 0.0
H1651 H 0.99 0.15144 0.71819 0.0
H1652 H 0.9639 0.03421 0.67168 0.0
H1653 H 0.90729 0.99427 0.67786 0.0
H1654 H 1.00248 0.11078 0.66768 0.0
H1655 H 0.05669 0.15775 0.67377 0.0
C1656 C 0.80394 0.39325 0.53581 0.0
C1657 C 0.83813 0.38604 0.52939 0.0
C1658 C 0.86394 0.46991 0.52132 0.0
C1659 C 0.83212 0.47774 0.52828 0.0
N1660 N 0.78863 0.45435 0.54459 0.0
N1661 N 0.9112 0.42627 0.51806 0.0
C1662 C 0.80772 0.44181 0.53632 0.0
C1663 C 0.8712 0.42696 0.5227 0.0
N1664 N 0.765 0.35324 0.54086 0.0
N1665 N 0.8875 0.50356 0.51337 0.0
H1666 H 0.91965 0.39757 0.51946 0.0
H1667 H 0.93921 0.45681 0.51387 0.0
H1668 H 0.88675 0.53741 0.51266 0.0
H1669 H 0.90593 0.49678 0.50729 0.0
H1670 H 0.73697 0.35634 0.54491 0.0
H1671 H 0.75653 0.31601 0.53981 0.0
H1672 H 0.77308 0.43107 0.5511 0.0
H1673 H 0.79659 0.49144 0.54543 0.0
C1674 C 0.58104 0.38504 0.5376 0.0
C1675 C 0.56389 0.35985 0.52792 0.0
C1676 C 0.63593 0.43198 0.51921 0.0
C1677 C 0.65388 0.45827 0.52884 0.0
N1678 N 0.63235 0.46498 0.54663 0.0
N1679 N 0.56145 0.37342 0.50949 0.0
C1680 C 0.62317 0.43624 0.5379 0.0
C1681 C 0.58701 0.38792 0.51873 0.0
N1682 N 0.55702 0.3604 0.5465 0.0
N1683 N 0.66619 0.44613 0.51059 0.0
H1684 H 0.52373 0.34418 0.50905 0.0
H1685 H 0.57511 0.39486 0.50269 0.0
H1686 H 0.70398 0.47474 0.51053 0.0
H1687 H 0.65544 0.42481 0.50377 0.0
H1688 H 0.57147 0.37327 0.55392 0.0
H1689 H 0.52259 0.3265 0.5463 0.0
H1690 H 0.60917 0.45255 0.55319 0.0
H1691 H 0.65969 0.50338 0.54689 0.0
C1692 C 0.62116 0.22562 0.53803 0.0
C1693 C 0.58248 0.1972 0.5305 0.0
C1694 C 0.64345 0.177 0.52197 0.0
C1695 C 0.6804 0.204 0.52977 0.0
N1696 N 0.69098 0.22798 0.54766 0.0
N1697 N 0.55385 0.13105 0.51754 0.0
C1698 C 0.66484 0.21979 0.53861 0.0
C1699 C 0.59272 0.16847 0.52309 0.0
N1700 N 0.61932 0.26142 0.54408 0.0
N1701 N 0.65643 0.15862 0.51357 0.0
H1702 H 0.51607 0.12036 0.51889 0.0
H1703 H 0.55841 0.10636 0.51266 0.0
H1704 H 0.69109 0.15922 0.5131 0.0
H1705 H 0.63342 0.14432 0.507 0.0
H1706 H 0.64842 0.28391 0.54926 0.0
H1707 H 0.59363 0.27424 0.54288 0.0
H1708 H 0.67985 0.23741 0.55458 0.0
H1709 H 0.7184 0.21709 0.54833 0.0
C1710 C 0.76806 0.44264 0.70012 0.0
C1711 C 0.81709 0.48135 0.69686 0.0
C1712 C 0.77682 0.53235 0.69187 0.0
C1713 C 0.73045 0.49674 0.6968 0.0
N1714 N 0.69221 0.42668 0.70903 0.0
N1715 N 0.86864 0.56962 0.69211 0.0
C1716 C 0.72897 0.45439 0.7019 0.0
C1717 C 0.82174 0.52803 0.69328 0.0
N1718 N 0.75837 0.39418 0.70167 0.0
N1719 N 0.77877 0.57125 0.68618 0.0
H1720 H 0.90165 0.56923 0.69415 0.0
H1721 H 0.87419 0.6056 0.6904 0.0
H1722 H 0.74757 0.57667 0.68544 0.0
H1723 H 0.81018 0.59563 0.68168 0.0
H1724 H 0.72201 0.36395 0.70318 0.0
H1725 H 0.78526 0.38333 0.70027 0.0
H1726 H 0.69146 0.39706 0.71332 0.0
H1727 H 0.66871 0.43902 0.71206 0.0
C1728 C 0.59258 0.28826 0.6912 0.0
C1729 C 0.54958 0.24391 0.69519 0.0
C1730 C 0.51222 0.29718 0.70014 0.0
C1731 C 0.55414 0.3407 0.69559 0.0
N1732 N 0.62645 0.37291 0.68425 0.0
N1733 N 0.46337 0.20493 0.70147 0.0
C1734 C 0.59157 0.33446 0.69028 0.0
C1735 C 0.5078 0.24801 0.69908 0.0
N1736 N 0.63623 0.28766 0.68892 0.0
N1737 N 0.47731 0.30303 0.70573 0.0
H1738 H 0.45863 0.16871 0.70061 0.0
H1739 H 0.42998 0.20485 0.70338 0.0
H1740 H 0.47822 0.33775 0.70624 0.0
H1741 H 0.44919 0.27428 0.71026 0.0
H1742 H 0.67043 0.32016 0.6871 0.0
H1743 H 0.64013 0.25589 0.68998 0.0
H1744 H 0.65195 0.36949 0.67937 0.0
H1745 H 0.62506 0.40591 0.68316 0.0
C1746 C 0.7692 0.29549 0.6873 0.0
C1747 C 0.80807 0.30892 0.69503 0.0
C1748 C 0.74875 0.23021 0.70453 0.0
C1749 C 0.71128 0.21729 0.69664 0.0
N1750 N 0.69871 0.22525 0.67851 0.0
N1751 N 0.83883 0.27601 0.70872 0.0
C1752 C 0.72599 0.24571 0.68733 0.0
C1753 C 0.79909 0.27237 0.703 0.0
N1754 N 0.7702 0.33052 0.68045 0.0
N1755 N 0.73672 0.2017 0.71341 0.0
H1756 H 0.87656 0.30283 0.70713 0.0
H1757 H 0.83503 0.24844 0.71408 0.0
H1758 H 0.70241 0.16776 0.71428 0.0
H1759 H 0.76019 0.21271 0.71995 0.0
H1760 H 0.74069 0.32198 0.6752 0.0
H1761 H 0.79555 0.36924 0.68095 0.0
H1762 H 0.70916 0.24342 0.67129 0.0
H1763 H 0.67087 0.1871 0.67833 0.0
C1764 C 0.55796 0.24123 0.18838 0.0
C1765 C 0.54029 0.21284 0.19773 0.0
C1766 C 0.50649 0.26969 0.20236 0.0
C1767 C 0.53778 0.30596 0.19473 0.0
N1768 N 0.60084 0.32559 0.18111 0.0
N1769 N 0.49173 0.19957 0.21358 0.0
C1770 C 0.56532 0.29149 0.18782 0.0
C1771 C 0.51303 0.2271 0.20474 0.0
N1772 N 0.56562 0.2197 0.17986 0.0
N1773 N 0.4679 0.2737 0.20687 0.0
H1774 H 0.48723 0.16381 0.21498 0.0
H1775 H 0.47868 0.21289 0.21961 0.0
H1776 H 0.45844 0.30096 0.20459 0.0
H1777 H 0.44101 0.24598 0.21178 0.0
H1778 H 0.57592 0.23789 0.17264 0.0
H1779 H 0.55283 0.18098 0.17972 0.0
H1780 H 0.6234 0.31649 0.1765 0.0
H1781 H 0.61278 0.3641 0.18103 0.0
C1782 C 0.82254 0.28997 0.20162 0.0
C1783 C 0.82875 0.3354 0.19688 0.0
C1784 C 0.73791 0.28755 0.19179 0.0
C1785 C 0.73282 0.24134 0.1957 0.0
N1786 N 0.77563 0.19767 0.20204 0.0
N1787 N 0.79369 0.37099 0.18481 0.0
C1788 C 0.77672 0.24233 0.19998 0.0
C1789 C 0.787 0.33195 0.19107 0.0
N1790 N 0.8603 0.29203 0.2078 0.0
N1791 N 0.6955 0.29043 0.18937 0.0
H1792 H 0.82903 0.40258 0.18383 0.0
H1793 H 0.76601 0.36907 0.1797 0.0
H1794 H 0.65879 0.26038 0.19053 0.0
H1795 H 0.69668 0.32436 0.18745 0.0
H1796 H 0.85559 0.26183 0.21247 0.0
H1797 H 0.89554 0.32478 0.2087 0.0
H1798 H 0.80769 0.19554 0.2042 0.0
H1799 H 0.74392 0.16253 0.20046 0.0
C1800 C 0.76271 0.44913 0.20009 0.0
C1801 C 0.80259 0.49225 0.19502 0.0
C1802 C 0.74153 0.52252 0.19124 0.0
C1803 C 0.70122 0.47792 0.19596 0.0
N1804 N 0.67262 0.3918 0.20159 0.0
N1805 N 0.82749 0.56569 0.18414 0.0
C1806 C 0.71178 0.43936 0.19939 0.0
C1807 C 0.79105 0.52738 0.19003 0.0
N1808 N 0.77291 0.41683 0.2057 0.0
N1809 N 0.73379 0.56141 0.18833 0.0
H1810 H 0.86444 0.57201 0.18358 0.0
H1811 H 0.82025 0.58896 0.17929 0.0
H1812 H 0.69845 0.55899 0.18851 0.0
H1813 H 0.76307 0.59732 0.18625 0.0
H1814 H 0.7468 0.38937 0.21076 0.0
H1815 H 0.80826 0.41927 0.20594 0.0
H1816 H 0.67739 0.36064 0.20302 0.0
H1817 H 0.63472 0.38179 0.20079 0.0
C1818 C 0.60632 0.16499 0.03171 0.0
C1819 C 0.65417 0.20349 1.0278 0.0
C1820 C 0.61711 0.25866 1.02538 0.0
C1821 C 0.56728 0.21831 1.02762 0.0
N1822 N 0.51453 0.13019 0.03244 0.0
N1823 N 0.70128 0.28463 1.01906 0.0
C1824 C 0.56185 0.17065 0.03077 0.0
C1825 C 0.65817 0.24931 1.02401 0.0
N1826 N 0.60321 0.12283 0.03627 0.0
N1827 N 0.62617 0.30727 1.02519 0.0
H1828 H 0.73319 0.28083 1.01806 0.0
H1829 H 0.70367 0.31584 1.01512 0.0
H1830 H 0.5984 0.31566 1.02739 0.0
H1831 H 0.66222 0.33903 1.0244 0.0
H1832 H 0.57127 0.09586 0.04029 0.0
H1833 H 0.63403 0.11654 0.03657 0.0
H1834 H 0.50744 0.09321 0.03347 0.0
H1835 H 0.48178 0.13302 0.03226 0.0
C1836 C 0.80355 0.3671 0.03308 0.0
C1837 C 0.83971 0.36258 1.02679 0.0
C1838 C 0.88222 0.45577 1.02371 0.0
C1839 C 0.84152 0.45816 1.02861 0.0
N1840 N 0.75798 0.41238 0.03633 0.0
N1841 N 0.91326 0.40443 1.01559 0.0
C1842 C 0.80095 0.41289 0.03293 0.0
C1843 C 0.87894 0.40756 1.02196 0.0
N1844 N 0.77118 0.32768 0.03924 0.0
N1845 N 0.92518 0.49986 1.02112 0.0
H1846 H 0.91545 0.37145 1.01479 0.0
H1847 H 0.93825 0.434 1.01077 0.0
H1848 H 0.92922 0.53529 1.02264 0.0
H1849 H 0.95844 0.50151 1.0185 0.0
H1850 H 0.74765 0.3302 0.0448 0.0
H1851 H 0.77206 0.29424 0.03954 0.0
H1852 H 0.72506 0.37939 0.03854 0.0
H1853 H 0.75293 0.44385 0.03594 0.0
C1854 C 0.60977 0.40347 1.01835 0.0
C1855 C 0.57796 0.39228 1.02733 0.0
C1856 C 0.64665 0.4709 0.03556 0.0
C1857 C 0.67758 0.48159 1.02657 0.0
N1858 N 0.69493 0.44853 1.01114 0.0
N1859 N 0.56366 0.42061 0.04378 0.0
C1860 C 0.66064 0.44546 1.01841 0.0
C1861 C 0.59613 0.42729 0.03579 0.0
N1862 N 0.59215 0.37414 1.00963 0.0
N1863 N 0.66648 0.50152 0.04404 0.0
H1864 H 0.52603 0.39112 0.04394 0.0
H1865 H 0.57196 0.44644 0.04977 0.0
H1866 H 0.70299 0.53304 0.04407 0.0
H1867 H 0.64891 0.4939 0.05128 0.0
H1868 H 0.61024 0.3854 1.00244 0.0
H1869 H 0.55819 0.34012 1.00921 0.0
H1870 H 0.68733 0.42009 1.00577 0.0
H1871 H 0.73323 0.47636 1.01128 0.0
C1872 C 0.48829 0.78215 0.85067 0.0
C1873 C 0.50404 0.81683 0.85913 0.0
C1874 C 0.52711 0.76041 0.8689 0.0
C1875 C 0.50713 0.72355 0.8608 0.0
N1876 N 0.45747 0.6967 0.84487 0.0
N1877 N 0.53172 0.83489 0.87696 0.0
C1878 C 0.48522 0.73399 0.8519 0.0
C1879 C 0.52111 0.80447 0.86846 0.0
N1880 N 0.47516 0.79417 0.84131 0.0
N1881 N 0.55448 0.75508 0.8768 0.0
H1882 H 0.53033 0.86845 0.87678 0.0
H1883 H 0.53812 0.82497 0.88435 0.0
H1884 H 0.56155 0.72494 0.87729 0.0
H1885 H 0.57465 0.78307 0.8823 0.0
H1886 H 0.47338 0.77532 0.83444 0.0
H1887 H 0.46698 0.82326 0.84022 0.0
H1888 H 0.4341 0.6996 0.83926 0.0
H1889 H 0.45325 0.66085 0.84512 0.0
C1890 C 0.23373 0.72661 0.86886 0.0
C1891 C 0.22549 0.69256 0.86058 0.0
C1892 C 0.31354 0.75065 0.85468 0.0
C1893 C 0.31811 0.78875 0.86173 0.0
N1894 N 0.27872 0.81379 0.87492 0.0
N1895 N 0.25924 0.67236 0.84551 0.0
C1896 C 0.27718 0.77679 0.8687 0.0
C1897 C 0.26582 0.7049 0.85343 0.0
N1898 N 0.20119 0.71044 0.87712 0.0
N1899 N 0.35584 0.75619 0.84974 0.0
H1900 H 0.228 0.63589 0.845 0.0
H1901 H 0.28401 0.68237 0.83922 0.0
H1902 H 0.39189 0.78721 0.85093 0.0
H1903 H 0.35646 0.72757 0.84544 0.0
H1904 H 0.2076 0.73176 0.88385 0.0
H1905 H 0.17068 0.67345 0.87766 0.0
H1906 H 0.24793 0.80868 0.8794 0.0
H1907 H 0.30894 0.85105 0.87483 0.0
C1908 C 0.30336 0.50151 0.85773 0.0
C1909 C 0.34574 0.54349 0.86252 0.0
C1910 C 0.29011 0.57783 0.86733 0.0
C1911 C 0.24694 0.53464 0.8631 0.0
N1912 N 0.2112 0.45078 0.85594 0.0
N1913 N 0.37472 0.61314 0.8744 0.0
C1914 C 0.25322 0.49505 0.85878 0.0
C1915 C 0.33744 0.57883 0.8681 0.0
N1916 N 0.31121 0.46843 0.85197 0.0
N1917 N 0.28712 0.61965 0.87011 0.0
H1918 H 0.40803 0.61233 0.87555 0.0
H1919 H 0.36981 0.63703 0.87946 0.0
H1920 H 0.25396 0.6217 0.86957 0.0
H1921 H 0.31888 0.65438 0.87195 0.0
H1922 H 0.28343 0.44047 0.84728 0.0
H1923 H 0.34662 0.47059 0.85153 0.0
H1924 H 0.21232 0.41856 0.85364 0.0
H1925 H 0.17452 0.44501 0.85678 0.0
C1926 C 0.44104 0.78491 1.02345 0.0
C1927 C 0.48451 0.82048 0.02914 0.0
C1928 C 0.4401 0.86912 0.03245 0.0
C1929 C 0.39468 0.82973 1.02795 0.0
N1930 N 0.3504 0.74571 1.02053 0.0
N1931 N 0.52406 0.89572 0.03962 0.0
C1932 C 0.39491 0.78668 1.02374 0.0
C1933 C 0.48366 0.86261 0.03374 0.0
N1934 N 0.44398 0.74956 1.01752 0.0
N1935 N 0.44196 0.91329 0.03528 0.0
H1936 H 0.55694 0.89321 0.04022 0.0
H1937 H 0.52407 0.92373 0.04425 0.0
H1938 H 0.411 0.91912 0.0344 0.0
H1939 H 0.47511 0.94552 0.03765 0.0
H1940 H 0.41583 0.72574 1.01232 0.0
H1941 H 0.47747 0.74878 1.01689 0.0
H1942 H 0.34687 0.71062 1.01883 0.0
H1943 H 0.31571 0.74489 1.02044 0.0
C1944 C 0.19195 0.6418 1.0208 0.0
C1945 C 0.21712 0.67581 0.02913 0.0
C1946 C 0.24919 0.61917 0.03502 0.0
C1947 C 0.21602 0.58072 1.02799 0.0
N1948 N 0.1531 0.55548 1.01434 0.0
N1949 N 0.27143 0.6967 0.04425 0.0
C1950 C 0.18693 0.59222 1.02086 0.0
C1951 C 0.24598 0.66422 0.03629 0.0
N1952 N 0.17457 0.65755 1.01258 0.0
N1953 N 0.28678 0.61458 0.03993 0.0
H1954 H 0.2755 0.73267 0.04483 0.0
H1955 H 0.28682 0.68703 0.05054 0.0
H1956 H 0.29283 0.58428 0.03859 0.0
H1957 H 0.31572 0.64345 0.04426 0.0
H1958 H 0.16013 0.63659 1.00579 0.0
H1959 H 0.17982 0.69412 1.01213 0.0
H1960 H 0.12674 0.55973 1.00986 0.0
H1961 H 0.14862 0.51927 1.014 0.0
C1962 C 0.4021 0.55996 1.02232 0.0
C1963 C 0.37064 0.54833 0.03127 0.0
C1964 C 0.43392 0.63085 0.03876 0.0
C1965 C 0.46785 0.64086 0.03024 0.0
N1966 N 0.487 0.60824 1.0149 0.0
N1967 N 0.36228 0.57101 0.04892 0.0
C1968 C 0.45248 0.60362 1.02225 0.0
C1969 C 0.38854 0.58296 0.03976 0.0
N1970 N 0.38399 0.52907 1.01384 0.0
N1971 N 0.44233 0.66822 0.04567 0.0
H1972 H 0.32509 0.5418 0.04979 0.0
H1973 H 0.37839 0.58994 0.05586 0.0
H1974 H 0.47434 0.70369 0.04567 0.0
H1975 H 0.41497 0.66565 0.0509 0.0
H1976 H 0.40211 0.53825 1.00664 0.0
H1977 H 0.34883 0.49576 1.01382 0.0
H1978 H 0.48003 0.58024 1.00946 0.0
H1979 H 0.52468 0.63763 1.01493 0.0
C1980 C 0.2626 0.60184 0.52214 0.0
C1981 C 0.22854 0.55852 0.52803 0.0
C1982 C 0.17861 0.60083 0.53193 0.0
C1983 C 0.21671 0.64659 0.52721 0.0
N1984 N 0.29978 0.69203 0.51916 0.0
N1985 N 0.15539 0.51786 0.53923 0.0
C1986 C 0.2597 0.64726 0.52258 0.0
C1987 C 0.18661 0.5582 0.53306 0.0
N1988 N 0.29785 0.59948 0.51598 0.0
N1989 N 0.13409 0.59758 0.53508 0.0
H1990 H 0.15888 0.48549 0.53989 0.0
H1991 H 0.1279 0.51755 0.54411 0.0
H1992 H 0.12695 0.62766 0.53431 0.0
H1993 H 0.10266 0.56397 0.53758 0.0
H1994 H 0.32017 0.62743 0.51058 0.0
H1995 H 0.30069 0.5669 0.5155 0.0
H1996 H 0.33475 0.69607 0.51705 0.0
H1997 H 0.30036 0.72652 0.51937 0.0
C1998 C 0.49247 0.62272 0.53476 0.0
C1999 C 0.49553 0.66586 0.52959 0.0
C2000 C 0.42135 0.60651 0.51908 0.0
C2001 C 0.40971 0.56608 0.52621 0.0
N2002 N 0.4416 0.5337 0.53967 0.0
N2003 N 0.45583 0.69654 0.51745 0.0
C2004 C 0.44762 0.57369 0.53372 0.0
C2005 C 0.45842 0.65709 0.52183 0.0
N2006 N 0.5335 0.62822 0.5403 0.0
N2007 N 0.39952 0.59721 0.50945 0.0
H2008 H 0.48038 0.73357 0.51957 0.0
H2009 H 0.42602 0.69174 0.51261 0.0
H2010 H 0.3785 0.56093 0.50638 0.0
H2011 H 0.40948 0.6257 0.50387 0.0
H2012 H 0.53592 0.59799 0.54353 0.0
H2013 H 0.56762 0.66261 0.54071 0.0
H2014 H 0.46325 0.53767 0.54628 0.0
H2015 H 0.41457 0.49626 0.53794 0.0
C2016 C 0.42347 0.78459 0.53531 0.0
C2017 C 0.46233 0.82352 0.52911 0.0
C2018 C 0.39853 0.8456 0.52267 0.0
C2019 C 0.36368 0.81471 0.53049 0.0
N2020 N 0.34057 0.74847 0.54336 0.0
N2021 N 0.48685 0.89333 0.51715 0.0
C2022 C 0.37569 0.78256 0.53656 0.0
C2023 C 0.44966 0.8543 0.52277 0.0
N2024 N 0.43071 0.74709 0.53946 0.0
N2025 N 0.38238 0.86487 0.51489 0.0
H2026 H 0.52461 0.90154 0.51719 0.0
H2027 H 0.48112 0.9202 0.51322 0.0
H2028 H 0.34468 0.85645 0.51431 0.0
H2029 H 0.40462 0.88411 0.50846 0.0
H2030 H 0.40197 0.71417 0.54289 0.0
H2031 H 0.46416 0.74595 0.53859 0.0
H2032 H 0.34956 0.73083 0.54931 0.0
H2033 H 0.3022 0.73786 0.54308 0.0
C2034 C 0.22939 0.49359 0.35568 0.0
C2035 C 0.22548 0.52907 0.36225 0.0
C2036 C 0.29705 0.53493 0.37256 0.0
C2037 C 0.30967 0.51105 0.36452 0.0
N2038 N 0.27882 0.45526 0.34973 0.0
N2039 N 0.26108 0.58798 0.37648 0.0
C2040 C 0.27296 0.48657 0.35645 0.0
C2041 C 0.26057 0.5506 0.37061 0.0
N2042 N 0.1906 0.46565 0.3489 0.0
N2043 N 0.31695 0.53989 0.38231 0.0
H2044 H 0.23593 0.60121 0.37517 0.0
H2045 H 0.28959 0.60891 0.38189 0.0
H2046 H 0.33604 0.521 0.38467 0.0
H2047 H 0.30662 0.55479 0.38852 0.0
H2048 H 0.18832 0.43632 0.34438 0.0
H2049 H 0.15805 0.46907 0.34844 0.0
H2050 H 0.2586 0.44203 0.34281 0.0
H2051 H 0.30373 0.44164 0.35125 0.0
C2052 C 0.52943 0.72531 0.35668 0.0
C2053 C 0.4897 0.68423 0.3623 0.0
C2054 C 0.45935 0.74204 0.36806 0.0
C2055 C 0.50151 0.78419 0.36316 0.0
N2056 N 0.58229 0.8167 0.35457 0.0
N2057 N 0.42256 0.65647 0.37491 0.0
C2058 C 0.53822 0.77597 0.35799 0.0
C2059 C 0.45682 0.69381 0.36853 0.0
N2060 N 0.55741 0.71575 0.34969 0.0
N2061 N 0.41944 0.74666 0.37166 0.0
H2062 H 0.41923 0.6208 0.37531 0.0
H2063 H 0.40124 0.66235 0.3805 0.0
H2064 H 0.41805 0.78014 0.37124 0.0
H2065 H 0.38506 0.71587 0.37406 0.0
H2066 H 0.58284 0.74288 0.3445 0.0
H2067 H 0.55267 0.67964 0.34861 0.0
H2068 H 0.61278 0.81382 0.35166 0.0
H2069 H 0.59022 0.85389 0.35563 0.0
C2070 C 0.29657 0.71756 0.35743 0.0
C2071 C 0.25389 0.71559 0.36249 0.0
C2072 C 0.30853 0.80672 0.36677 0.0
C2073 C 0.34807 0.80961 0.36037 0.0
N2074 N 0.37648 0.76765 0.34847 0.0
N2075 N 0.21914 0.76023 0.37163 0.0
C2076 C 0.34097 0.76504 0.35535 0.0
C2077 C 0.26004 0.76076 0.36713 0.0
N2078 N 0.2964 0.67369 0.35526 0.0
N2079 N 0.31758 0.84765 0.37265 0.0
H2080 H 0.18416 0.72719 0.37227 0.0
H2081 H 0.2189 0.7927 0.37409 0.0
H2082 H 0.35231 0.88141 0.37253 0.0
H2083 H 0.29249 0.84685 0.37826 0.0
H2084 H 0.32818 0.67231 0.35264 0.0
H2085 H 0.26676 0.63879 0.35753 0.0
H2086 H 0.37021 0.73771 0.34362 0.0
H2087 H 0.41075 0.80069 0.347 0.0
C2088 C 0.33256 0.4074 0.19441 0.0
C2089 C 0.30475 0.35332 0.19481 0.0
C2090 C 0.38634 0.35389 0.19206 0.0
C2091 C 0.41485 0.4078 0.19275 0.0
N2092 N 0.41434 0.4856 0.19585 0.0
N2093 N 0.30858 0.27605 0.19597 0.0
C2094 C 0.38757 0.43439 0.19424 0.0
C2095 C 0.33284 0.3271 0.1943 0.0
N2096 N 0.30639 0.43322 0.19411 0.0
N2097 N 0.40917 0.3279 0.18846 0.0
H2098 H 0.26981 0.25499 0.19726 0.0
H2099 H 0.32757 0.25567 0.19701 0.0
H2100 H 0.44673 0.34561 0.18594 0.0
H2101 H 0.38929 0.2893 0.18676 0.0
H2102 H 0.32335 0.47198 0.1926 0.0
H2103 H 0.26687 0.4151 0.1947 0.0
H2104 H 0.39764 0.50683 0.19808 0.0
H2105 H 0.45401 0.50641 0.19579 0.0
C2106 C 0.62337 0.968 0.18653 0.0
C2107 C 0.63842 1.01384 0.19217 0.0
C2108 C 0.71019 1.00583 0.19952 0.0
C2109 C 0.69465 0.95934 0.19406 0.0
N2110 N 0.6272 0.89021 0.18462 0.0
N2111 N 0.68665 0.06528 0.20664 0.0
C2112 C 0.64867 0.93891 0.18817 0.0
C2113 C 0.67865 0.02904 0.19951 0.0
N2114 N 0.58389 0.9514 0.17964 0.0
N2115 N 0.75679 0.03016 0.20423 0.0
H2116 H 0.66367 0.08163 0.20706 0.0
H2117 H 0.712 0.07465 0.21284 0.0
H2118 H 0.78226 0.0166 0.20416 0.0
H2119 H 0.77254 0.06669 0.20724 0.0
H2120 H 0.57589 0.92343 0.17413 0.0
H2121 H 0.55974 0.96661 0.17926 0.0
H2122 H 0.59128 0.87089 0.18122 0.0
H2123 H 0.64276 0.86693 0.18605 0.0
C2124 C 0.10958 0.71014 0.19805 0.0
C2125 C 0.08693 0.7389 0.19449 0.0
C2126 C 1.01202 0.65854 0.1886 0.0
C2127 C 0.03275 0.62924 0.19283 0.0
N2128 N 0.09951 0.62745 0.20266 0.0
N2129 N 1.01074 0.73777 0.18873 0.0
C2130 C 0.08109 0.65529 0.19787 0.0
C2131 C 0.03648 0.71219 0.19044 0.0
N2132 N 0.15904 0.73535 0.20132 0.0
N2133 N 0.96994 0.63562 0.18238 0.0
H2134 H 0.02662 0.77624 0.19033 0.0
H2135 H 0.97222 0.71995 0.18684 0.0
H2136 H 0.9515 0.59704 0.18065 0.0
H2137 H 0.95627 0.65566 0.17813 0.0
H2138 H 0.18009 0.71761 0.20297 0.0
H2139 H 0.18031 0.77486 0.2017 0.0
H2140 H 0.13167 0.64309 0.20739 0.0
H2141 H 0.0803 0.58786 0.20251 0.0
C2142 C 0.40203 0.31525 0.35603 0.0
C2143 C 0.35808 0.28597 0.3623 0.0
C2144 C 0.37199 0.36629 0.37039 0.0
C2145 C 0.41435 0.39572 0.36374 0.0
N2146 N 0.4671 0.39824 0.34958 0.0
N2147 N 0.29702 0.28508 0.37439 0.0
C2148 C 0.42842 0.37003 0.35636 0.0
C2149 C 0.34214 0.31202 0.36921 0.0
N2150 N 0.42011 0.29051 0.35009 0.0
N2151 N 0.36094 0.39011 0.37809 0.0
H2152 H 0.27445 0.24576 0.37395 0.0
H2153 H 0.27962 0.30179 0.37847 0.0
H2154 H 0.38003 0.42942 0.37898 0.0
H2155 H 0.33527 0.37099 0.38407 0.0
H2156 H 0.45468 0.30854 0.34617 0.0
H2157 H 0.40216 0.25104 0.34967 0.0
H2158 H 0.47593 0.38319 0.3432 0.0
H2159 H 0.48879 0.43769 0.34998 0.0
C2160 C 0.66725 0.06449 0.36796 0.0
C2161 C 0.63687 0.01537 0.36349 0.0
C2162 C 0.71652 0.02076 0.3569 0.0
C2163 C 0.74684 0.07027 0.36122 0.0
N2164 N 0.74825 0.14366 0.36853 0.0
N2165 N 0.63306 0.95414 0.35124 0.0
C2166 C 0.72125 0.09327 0.36609 0.0
C2167 C 0.6617 0.9961 0.35713 0.0
N2168 N 0.6444 0.08397 0.37408 0.0
N2169 N 0.73978 0.99542 0.35318 0.0
H2170 H 0.59353 0.93565 0.35121 0.0
H2171 H 0.64839 0.94101 0.34564 0.0
H2172 H 0.77911 1.01083 0.35312 0.0
H2173 H 0.72001 0.95729 0.35109 0.0
H2174 H 0.66447 0.11563 0.37879 0.0
H2175 H 0.60499 0.06724 0.37474 0.0
H2176 H 0.73158 0.16441 0.3711 0.0
H2177 H 0.78701 0.1662 0.36698 0.0
C2178 C 1.01829 0.70095 0.3645 0.0
C2179 C 0.96635 0.67637 0.36128 0.0
C2180 C 0.97183 0.5977 0.35889 0.0
C2181 C 1.02178 0.62132 0.36329 0.0
N2182 N 0.08449 0.69191 0.37318 0.0
N2183 N 0.89224 0.59852 0.35623 0.0
C2184 C 0.04271 0.67199 0.36688 0.0
C2185 C 0.94277 0.62383 0.3587 0.0
N2186 N 0.04555 0.75254 0.36492 0.0
N2187 N 0.95237 0.55044 0.35469 0.0
H2188 H 0.8707 0.6166 0.35573 0.0
H2189 H 0.87099 0.55932 0.35535 0.0
H2190 H 0.97212 0.53045 0.3548 0.0
H2191 H 0.9187 0.53274 0.35043 0.0
H2192 H 0.08455 0.77273 0.36639 0.0
H2193 H 0.03061 0.77487 0.36236 0.0
H2194 H 0.09857 0.72685 0.37687 0.0
H2195 H 0.10115 0.67086 0.37571 0.0
C2196 C 0.66635 0.68327 0.8623 0.0
C2197 C 0.63826 0.62914 0.86308 0.0
C2198 C 0.72066 0.62964 0.86208 0.0
C2199 C 0.74785 0.68316 0.86046 0.0
N2200 N 0.74369 0.75897 0.85684 0.0
N2201 N 0.63946 0.55066 0.86182 0.0
C2202 C 0.71964 0.70912 0.85979 0.0
C2203 C 0.66583 0.60242 0.86244 0.0
N2204 N 0.64359 0.71087 0.8648 0.0
N2205 N 0.74727 0.60457 0.86336 0.0
H2206 H 0.59982 0.52954 0.86192 0.0
H2207 H 0.65645 0.52892 0.86026 0.0
H2208 H 0.7867 0.62237 0.86254 0.0
H2209 H 0.73073 0.56697 0.86583 0.0
H2210 H 0.66333 0.75025 0.86548 0.0
H2211 H 0.60646 0.6945 0.86748 0.0
H2212 H 0.72437 0.77845 0.8551 0.0
H2213 H 0.78242 0.77967 0.8552 0.0
C2214 C 0.40152 0.09187 0.86911 0.0
C2215 C 0.35659 0.07235 0.86291 0.0
C2216 C 0.37089 1.00091 0.85793 0.0
C2217 C 0.41117 0.01642 0.86531 0.0
N2218 N 0.46507 0.07852 0.87796 0.0
N2219 N 0.29603 1.00407 0.85208 0.0
C2220 C 0.4263 0.06241 0.87089 0.0
C2221 C 0.34108 0.02608 0.8574 0.0
N2222 N 0.42244 0.14019 0.87287 0.0
N2223 N 0.36083 0.96203 0.85133 0.0
H2224 H 0.27303 0.02038 0.85137 0.0
H2225 H 0.279 0.96743 0.8491 0.0
H2226 H 0.38095 0.94265 0.85153 0.0
H2227 H 0.33622 0.95235 0.845 0.0
H2228 H 0.45784 0.15925 0.87648 0.0
H2229 H 0.40683 0.16346 0.87145 0.0
H2230 H 0.47297 0.10655 0.88345 0.0
H2231 H 0.48861 0.06268 0.87857 0.0
C2232 C 1.01314 0.32368 0.85815 0.0
C2233 C 0.96434 0.29271 0.86283 0.0
C2234 C 0.97027 0.37185 0.86979 0.0
C2235 C 1.01814 0.40284 0.86477 0.0
N2236 N 0.07648 0.40684 0.85168 0.0
N2237 N 0.89194 0.29026 0.87104 0.0
C2238 C 0.03655 0.37827 0.85812 0.0
C2239 C 0.94177 0.31776 0.86808 0.0
N2240 N 0.03938 0.30145 0.85438 0.0
N2241 N 0.95153 0.39423 0.87624 0.0
H2242 H 0.86952 0.25145 0.86966 0.0
H2243 H 0.87128 0.3065 0.87391 0.0
H2244 H 0.96752 0.43349 0.87679 0.0
H2245 H 0.92125 0.37392 0.88131 0.0
H2246 H 0.07707 0.32208 0.85192 0.0
H2247 H 0.02582 0.26254 0.85478 0.0
H2248 H 0.08844 0.39129 0.84589 0.0
H2249 H 0.09408 0.4462 0.8514 0.0
C2250 C 0.68628 0.65975 0.6905 0.0
C2251 C 0.63708 0.63085 0.69501 0.0
C2252 C 0.64368 0.71208 0.70086 0.0
C2253 C 0.6943 0.74034 0.69696 0.0
N2254 N 0.76749 0.73812 0.6905 0.0
N2255 N 0.57122 0.6297 0.70557 0.0
C2256 C 0.71652 0.71317 0.69248 0.0
C2257 C 0.61657 0.65723 0.70053 0.0
N2258 N 0.7035 0.63679 0.68384 0.0
N2259 N 0.62073 0.73775 0.70456 0.0
H2260 H 0.55009 0.59017 0.70526 0.0
H2261 H 0.55625 0.64549 0.71064 0.0
H2262 H 0.63959 0.77725 0.70508 0.0
H2263 H 0.58233 0.72044 0.70646 0.0
H2264 H 0.73642 0.65677 0.67941 0.0
H2265 H 0.68241 0.59843 0.68195 0.0
H2266 H 0.78721 0.71985 0.68821 0.0
H2267 H 0.79095 0.77627 0.69231 0.0
C2268 C 0.38819 0.0399 0.69016 0.0
C2269 C 0.41657 0.01805 0.69429 0.0
C2270 C 0.33475 0.94109 0.69906 0.0
C2271 C 0.30659 0.96443 0.69552 0.0
N2272 N 0.30918 0.04144 0.68984 0.0
N2273 N 0.41686 0.95003 0.7039 0.0
C2274 C 0.33421 0.01535 0.69169 0.0
C2275 C 0.38969 0.96921 0.69909 0.0
N2276 N 0.4123 0.0832 0.68428 0.0
N2277 N 0.30892 0.89139 0.70212 0.0
H2278 H 0.45655 0.96908 0.70395 0.0
H2279 H 0.4005 0.91738 0.70849 0.0
H2280 H 0.26929 0.87037 0.70244 0.0
H2281 H 0.32633 0.86996 0.7037 0.0
H2282 H 0.39304 0.09759 0.67998 0.0
H2283 H 0.45133 0.10247 0.68288 0.0
H2284 H 0.32744 0.08026 0.68829 0.0
H2285 H 0.2704 0.02532 0.69094 0.0
C2286 C 0.08533 0.43204 0.69523 0.0
C2287 C 0.03134 0.40625 0.69398 0.0
C2288 C 0.03105 0.32474 0.69623 0.0
C2289 C 0.08532 0.35011 0.69625 0.0
N2290 N 0.16424 0.429 0.69483 0.0
N2291 N 0.95539 0.32619 0.69058 0.0
C2292 C 0.11237 0.40411 0.69544 0.0
C2293 C 1.00484 0.35209 0.69385 0.0
N2294 N 0.11087 0.48346 0.69657 0.0
N2295 N 1.0039 0.27405 0.69841 0.0
H2296 H 0.93594 0.34403 0.68783 0.0
H2297 H 0.93562 0.28718 0.68932 0.0
H2298 H 1.02091 0.25227 0.6999 0.0
H2299 H 0.96478 0.25473 0.69971 0.0
H2300 H 0.14914 0.50424 0.69861 0.0
H2301 H 0.09274 0.505 0.69653 0.0
H2302 H 0.18618 0.46734 0.69295 0.0
H2303 H 0.18533 0.41055 0.69562 0.0
C2304 C 0.99486 0.65524 0.52737 0.0
C2305 C 0.96774 0.68157 0.52921 0.0
C2306 C 0.05076 0.7622 0.52948 0.0
C2307 C 0.07721 0.73636 0.52651 0.0
N2308 N 0.07118 0.65813 0.52072 0.0
N2309 N 0.97007 0.76128 0.5312 0.0
C2310 C 0.04837 0.68276 0.52501 0.0
C2311 C 0.99591 0.73542 0.53007 0.0
N2312 N 0.9696 0.60352 0.52807 0.0
N2313 N 0.07831 0.81241 0.53202 0.0
H2314 H 0.9306 0.74299 0.532 0.0
H2315 H 0.98714 0.8006 0.53069 0.0
H2316 H 0.11794 0.83297 0.53165 0.0
H2317 H 0.06251 0.83266 0.53529 0.0
H2318 H 0.98773 0.58205 0.52792 0.0
H2319 H 0.93098 0.58234 0.52984 0.0
H2320 H 0.05123 0.62041 0.51835 0.0
H2321 H 0.10933 0.67647 0.51856 0.0
C2322 C 0.38026 0.33833 0.52324 0.0
C2323 C 0.35831 0.29041 0.52843 0.0
C2324 C 0.28405 0.30045 0.53294 0.0
C2325 C 0.30395 0.34594 0.52693 0.0
N2326 N 0.36797 0.40363 0.51495 0.0
N2327 N 0.28632 0.22331 0.53732 0.0
C2328 C 0.35129 0.36362 0.52172 0.0
C2329 C 0.30947 0.271 0.5331 0.0
N2330 N 0.4299 0.36105 0.52012 0.0
N2331 N 0.24104 0.28574 0.53868 0.0
H2332 H 0.30358 0.20097 0.53759 0.0
H2333 H 0.24872 0.20425 0.53985 0.0
H2334 H 0.22109 0.30553 0.53857 0.0
H2335 H 0.2272 0.2564 0.54413 0.0
H2336 H 0.45012 0.39828 0.5174 0.0
H2337 H 0.45257 0.34448 0.52117 0.0
H2338 H 0.39877 0.41459 0.50997 0.0
H2339 H 0.34852 0.42337 0.51362 0.0
C2340 C 0.67276 0.98802 0.53345 0.0
C2341 C 0.69256 0.96167 0.52775 0.0
C2342 C 0.77379 0.044 0.52584 0.0
C2343 C 0.75136 0.07121 0.53021 0.0
N2344 N 0.67559 0.06803 0.53693 0.0
N2345 N 0.76318 0.96566 0.51843 0.0
C2346 C 0.69999 0.04278 0.53381 0.0
C2347 C 0.74354 0.99018 0.52396 0.0
N2348 N 0.62757 0.96076 0.53852 0.0
N2349 N 0.82482 0.0694 0.52382 0.0
H2350 H 0.74473 0.92623 0.51779 0.0
H2351 H 0.79676 0.98431 0.51417 0.0
H2352 H 0.84798 0.10811 0.52522 0.0
H2353 H 0.84514 0.05164 0.52164 0.0
H2354 H 0.61306 0.97673 0.54366 0.0
H2355 H 0.60728 0.92133 0.53842 0.0
H2356 H 0.63673 0.05013 0.53845 0.0
H2357 H 0.69296 0.10746 0.53707 0.0
C2358 C 0.05158 0.71686 0.69008 0.0
C2359 C 0.08907 0.73941 0.69803 0.0
C2360 C 0.07723 0.65335 0.7018 0.0
C2361 C 0.03375 0.62968 0.69518 0.0
N2362 N 0.98021 0.64175 0.6827 0.0
N2363 N 0.13907 0.72778 0.71128 0.0
C2364 C 1.02174 0.6623 0.6891 0.0
C2365 C 0.10207 0.70706 0.70382 0.0
N2366 N 0.04427 0.74746 0.68332 0.0
N2367 N 0.09729 0.62499 0.70565 0.0
H2368 H 0.16334 0.76677 0.71203 0.0
H2369 H 0.14478 0.70634 0.71692 0.0
H2370 H 0.08274 0.58684 0.70381 0.0
H2371 H 0.13171 0.64024 0.70965 0.0
H2372 H 1.0233 0.7347 0.67647 0.0
H2373 H 0.06276 0.78659 0.68407 0.0
H2374 H 0.96444 0.66244 0.67953 0.0
H2375 H 0.95894 0.6035 0.68094 0.0
C2376 C 0.33389 0.40002 0.70227 0.0
C2377 C 0.30472 0.35052 0.69791 0.0
C2378 C 0.38554 0.35789 0.69151 0.0
C2379 C 0.4146 0.40817 0.69556 0.0
N2380 N 0.41363 0.48055 0.70279 0.0
N2381 N 0.30301 0.28787 0.68633 0.0
C2382 C 0.38782 0.43008 0.70038 0.0
C2383 C 0.33068 0.33151 0.69182 0.0
N2384 N 0.30997 0.41853 0.70834 0.0
N2385 N 0.41015 0.33349 0.688 0.0
H2386 H 0.26349 0.26785 0.68642 0.0
H2387 H 0.31884 0.27447 0.68089 0.0
H2388 H 0.44959 0.35007 0.68786 0.0
H2389 H 0.39159 0.29506 0.68616 0.0
H2390 H 0.32926 0.45071 0.71295 0.0
H2391 H 0.27051 0.40033 0.70913 0.0
H2392 H 0.39604 0.50052 0.7053 0.0
H2393 H 0.45236 0.50385 0.70131 0.0
C2394 C 0.70968 1.00389 0.69111 0.0
C2395 C 0.69291 0.96148 0.69789 0.0
C2396 C 0.61551 0.96808 0.70132 0.0
C2397 C 0.63732 0.01595 0.69612 0.0
N2398 N 0.71197 0.08355 0.68776 0.0
N2399 N 0.62731 0.90188 0.70935 0.0
C2400 C 0.68609 0.03477 0.6914 0.0
C2401 C 0.64506 0.94337 0.70298 0.0
N2402 N 0.74759 1.01442 0.68419 0.0
N2403 N 0.56561 0.94484 0.70427 0.0
H2404 H 0.64407 0.87912 0.70975 0.0
H2405 H 0.59692 0.89091 0.71444 0.0
H2406 H 0.54241 0.96057 0.70287 0.0
H2407 H 0.54574 0.90788 0.70715 0.0
H2408 H 0.75912 0.04268 0.67852 0.0
H2409 H 0.7617 0.98984 0.68315 0.0
H2410 H 0.74952 0.10062 0.6852 0.0
H2411 H 0.69854 0.10897 0.68846 0.0
C2412 C 0.33399 0.94134 0.1911 0.0
C2413 C 0.30714 0.9617 0.19652 0.0
C2414 C 0.38981 0.04054 0.19928 0.0
C2415 C 0.41745 0.01866 0.19485 0.0
N2416 N 0.41491 0.94536 0.18725 0.0
N2417 N 0.31292 0.0269 0.20793 0.0
C2418 C 0.3891 0.96825 0.19091 0.0
C2419 C 0.3361 1.01032 0.20118 0.0
N2420 N 0.30668 0.89636 0.18598 0.0
N2421 N 0.41453 0.09123 0.2013 0.0
H2422 H 0.27459 1.00518 0.20989 0.0
H2423 H 0.33279 0.05953 0.2124 0.0
H2424 H 0.45276 0.11452 0.19952 0.0
H2425 H 0.39601 0.11077 0.20354 0.0
H2426 H 0.32281 0.88155 0.18097 0.0
H2427 H 0.26703 0.87538 0.1862 0.0
H2428 H 0.39755 0.90712 0.18531 0.0
H2429 H 0.45452 0.96406 0.18681 0.0
C2430 C 1.00805 0.35703 0.19444 0.0
C2431 C 0.03238 0.41098 0.19435 0.0
C2432 C 0.11558 0.41303 0.19475 0.0
C2433 C 0.09091 0.35923 0.1961 0.0
N2434 N 1.01183 0.28359 0.20057 0.0
N2435 N 0.11061 0.49069 0.19549 0.0
C2436 C 0.03662 0.33211 0.19678 0.0
C2437 C 0.08657 0.439 0.19488 0.0
N2438 N 0.95725 0.32892 0.19234 0.0
N2439 N 0.16679 0.4394 0.19298 0.0
H2440 H 0.09123 0.51097 0.195 0.0
H2441 H 0.14922 0.5132 0.19713 0.0
H2442 H 0.18896 0.42199 0.19274 0.0
H2443 H 0.18652 0.47757 0.19086 0.0
H2444 H 0.93873 0.28979 0.1912 0.0
H2445 H 0.93456 0.34504 0.19082 0.0
H2446 H 0.97293 0.26394 0.20213 0.0
H2447 H 0.03051 0.26538 0.20356 0.0
C2448 C 0.61943 0.6553 0.19014 0.0
C2449 C 0.63696 0.62627 0.19576 0.0
C2450 C 0.70688 0.70692 0.20304 0.0
C2451 C 0.69105 0.73612 0.19697 0.0
N2452 N 0.63491 0.73796 0.18393 0.0
N2453 N 0.70272 0.62589 0.2063 0.0
C2454 C 0.64809 0.71009 0.19028 0.0
C2455 C 0.68209 0.65261 0.20188 0.0
N2456 N 0.57386 0.63038 0.18503 0.0
N2457 N 0.74487 0.73095 0.21021 0.0
H2458 H 0.68583 0.58655 0.20583 0.0
H2459 H 0.73864 0.64282 0.20972 0.0
H2460 H 0.76501 0.77024 0.2111 0.0
H2461 H 0.75411 0.71193 0.2158 0.0
H2462 H 0.55562 0.64837 0.18172 0.0
H2463 H 0.55205 0.59089 0.18478 0.0
H2464 H 0.60814 0.72246 0.17798 0.0
H2465 H 0.65332 0.77749 0.18416 0.0
C2466 C 0.27984 0.99201 0.03452 0.0
C2467 C 0.29563 0.96486 1.0279 0.0
C2468 C 0.36881 0.04774 1.02215 0.0
C2469 C 0.35346 0.07503 0.02883 0.0
N2470 N 0.29274 0.07333 0.04102 0.0
N2471 N 0.36043 0.96737 1.01668 0.0
C2472 C 0.3087 0.04697 0.035 0.0
C2473 C 0.34152 0.99301 1.02206 0.0
N2474 N 0.23748 0.96476 0.04053 0.0
N2475 N 0.40928 0.07426 1.01563 0.0
H2476 H 0.34155 0.92808 1.01604 0.0
H2477 H 0.39668 0.98444 1.01345 0.0
H2478 H 0.43258 0.11353 1.01589 0.0
H2479 H 0.41835 0.05798 1.00951 0.0
H2480 H 0.22407 0.98021 0.04601 0.0
H2481 H 0.21584 0.92525 0.04028 0.0
H2482 H 0.2596 0.05707 0.04541 0.0
H2483 H 0.31223 0.11286 0.04141 0.0
C2484 C 0.04875 0.28895 1.02827 0.0
C2485 C 0.07704 0.34308 1.02752 0.0
C2486 C 0.99524 0.34292 0.02957 0.0
C2487 C 0.96652 0.28897 0.02903 0.0
N2488 N 0.96713 0.21067 1.02679 0.0
N2489 N 0.07182 0.41894 1.02426 0.0
C2490 C 0.99375 0.26212 1.028 0.0
C2491 C 0.04885 0.36938 1.02739 0.0
N2492 N 0.07433 0.26292 0.02966 0.0
N2493 N 0.97156 0.36964 0.03208 0.0
H2494 H 0.10863 0.43837 1.02136 0.0
H2495 H 0.05209 0.43852 1.02308 0.0
H2496 H 0.93261 0.35263 0.0334 0.0
H2497 H 0.99139 0.40833 0.03373 0.0
H2498 H 0.05642 0.22427 0.03136 0.0
H2499 H 0.1139 0.28076 0.03008 0.0
H2500 H 0.98404 0.18937 1.02474 0.0
H2501 H 0.92753 0.18954 1.02719 0.0
C2502 C 0.69894 0.66253 0.03227 0.0
C2503 C 0.75037 0.68389 0.02888 0.0
C2504 C 0.74948 0.76394 1.02495 0.0
C2505 C 0.69799 0.74231 1.02851 0.0
N2506 N 0.6355 0.67854 0.03993 0.0
N2507 N 0.82781 0.75972 1.02422 0.0
C2508 C 0.67619 0.69386 0.03347 0.0
C2509 C 0.77641 0.73594 1.02578 0.0
N2510 N 0.67043 0.6115 0.03395 0.0
N2511 N 0.77368 0.81223 1.02105 0.0
H2512 H 0.84887 0.7413 1.02506 0.0
H2513 H 0.85053 0.79862 1.02304 0.0
H2514 H 0.76022 0.83746 1.02213 0.0
H2515 H 0.8071 0.82733 1.01673 0.0
H2516 H 0.63144 0.59315 0.0354 0.0
H2517 H 0.68437 0.5869 0.03269 0.0
H2518 H 0.62021 0.64507 0.04427 0.0
H2519 H 0.62292 0.70302 0.04232 0.0
C2520 C 0.71739 0.08265 0.86856 0.0
C2521 C 0.74373 0.0704 0.86098 0.0
C2522 C 0.65999 1.00886 0.85336 0.0
C2523 C 0.63282 0.01701 0.86157 0.0
N2524 N 0.63831 0.06075 0.87755 0.0
N2525 N 0.73854 1.01388 0.84743 0.0
C2526 C 0.6625 0.05329 0.86938 0.0
C2527 C 0.71442 0.03104 0.85381 0.0
N2528 N 0.74474 0.12402 0.87474 0.0
N2529 N 0.63464 0.98147 0.84479 0.0
H2530 H 0.77793 0.02941 0.84732 0.0
H2531 H 0.7193 0.9811 0.84298 0.0
H2532 H 0.5958 0.9651 0.84372 0.0
H2533 H 0.65297 0.97964 0.8381 0.0
H2534 H 0.72831 0.13902 0.87963 0.0
H2535 H 0.78429 0.1459 0.87437 0.0
H2536 H 0.65716 0.08117 0.88417 0.0
H2537 H 0.59892 0.04458 0.87796 0.0
C2538 C 1.01433 0.70173 0.86527 0.0
C2539 C 0.96829 0.68175 0.85951 0.0
C2540 C 0.97158 0.6017 0.85759 0.0
C2541 C 1.02185 0.6251 0.86178 0.0
N2542 N 0.09423 0.703 0.86762 0.0
N2543 N 0.90297 0.61121 0.84999 0.0
C2544 C 0.04375 0.67644 0.86522 0.0
C2545 C 0.94702 0.63124 0.85562 0.0
N2546 N 0.03055 0.7453 0.87078 0.0
N2547 N 0.94624 0.55058 0.85587 0.0
H2548 H 0.8814 0.62918 0.84926 0.0
H2549 H 0.88891 0.57784 0.84572 0.0
H2550 H 0.96209 0.5277 0.85751 0.0
H2551 H 0.90796 0.53003 0.85381 0.0
H2552 H 0.06143 0.75959 0.87587 0.0
H2553 H 1.00938 0.7636 0.87118 0.0
H2554 H 0.1137 0.74175 0.86919 0.0
H2555 H 0.11791 0.68775 0.86671 0.0
C2556 C 0.41035 0.32758 0.85598 0.0
C2557 C 0.36178 0.29737 0.86077 0.0
C2558 C 0.3679 0.37696 0.86735 0.0
C2559 C 0.41712 0.4072 0.86284 0.0
N2560 N 0.48988 0.40818 0.85513 0.0
N2561 N 0.3053 0.29465 0.87415 0.0
C2562 C 0.43958 0.38149 0.85779 0.0
C2563 C 0.34413 0.32249 0.86745 0.0
N2564 N 0.42917 0.30462 0.84972 0.0
N2565 N 0.34183 0.39964 0.87097 0.0
H2566 H 0.2904 0.25584 0.875 0.0
H2567 H 0.29344 0.31084 0.87983 0.0
H2568 H 0.35587 0.43862 0.8706 0.0
H2569 H 0.30388 0.37919 0.87328 0.0
H2570 H 0.46015 0.32455 0.84479 0.0
H2571 H 0.41276 0.2653 0.84925 0.0
H2572 H 0.51021 0.39133 0.8524 0.0
H2573 H 0.51285 0.44676 0.85668 0.0
C2574 C 0.6836 0.98423 0.03767 0.0
C2575 C 0.69327 0.9576 0.02963 0.0
C2576 C 0.76125 0.04175 1.02304 0.0
C2577 C 0.74749 0.06784 0.03036 0.0
N2578 N 0.68857 0.06263 0.04345 0.0
N2579 N 0.74041 0.96324 1.0141 0.0
C2580 C 0.70657 0.03856 0.03728 0.0
C2581 C 0.73147 0.9872 1.02209 0.0
N2582 N 0.65363 0.95834 0.04596 0.0
N2583 N 0.80456 0.06888 1.01732 0.0
H2584 H 0.72384 0.92392 1.01365 0.0
H2585 H 0.7625 0.98229 1.00765 0.0
H2586 H 0.82732 0.10816 1.01794 0.0
H2587 H 0.82031 0.05236 1.01266 0.0
H2588 H 0.65093 0.9762 0.05263 0.0
H2589 H 0.63471 0.91915 0.04676 0.0
H2590 H 0.65486 0.04349 0.04767 0.0
H2591 H 0.70453 0.10195 0.0436 0.0
C2592 C 0.99571 0.67192 1.02421 0.0
C2593 C 0.96991 0.68851 0.03095 0.0
C2594 C 0.05366 0.76703 0.03399 0.0
C2595 C 0.08036 0.74595 0.0288 0.0
N2596 N 0.0738 0.67108 1.02087 0.0
N2597 N 0.97622 0.7537 0.04247 0.0
C2598 C 0.05044 0.69671 1.0243 0.0
C2599 C 0.99966 0.73659 0.03591 0.0
N2600 N 0.96825 0.63215 1.01771 0.0
N2601 N 0.07932 0.81713 0.03668 0.0
H2602 H 0.93678 0.73588 0.04324 0.0
H2603 H 0.996 0.7844 0.04744 0.0
H2604 H 0.11771 0.84101 0.03499 0.0
H2605 H 0.06157 0.83636 0.03954 0.0
H2606 H 0.98491 0.62142 1.01192 0.0
H2607 H 0.92874 0.61351 1.01739 0.0
H2608 H 0.05401 0.63341 1.01844 0.0
H2609 H 0.11257 0.68511 1.02177 0.0
C2610 C 0.28692 0.30831 1.02279 0.0
C2611 C 0.29327 0.34531 0.03038 0.0
C2612 C 0.36201 0.33354 0.03841 0.0
C2613 C 0.35275 0.29391 0.03138 0.0
N2614 N 0.29934 0.23758 1.01798 0.0
N2615 N 0.33029 0.38261 0.0471 0.0
C2616 C 0.31336 0.27987 1.02385 0.0
C2617 C 0.32881 0.35475 0.03867 0.0
N2618 N 0.25464 0.29929 1.01461 0.0
N2619 N 0.40358 0.35207 0.0448 0.0
H2620 H 0.30674 0.39792 0.04802 0.0
H2621 H 0.351 0.38572 0.05381 0.0
H2622 H 0.42824 0.33744 0.04499 0.0
H2623 H 0.41643 0.38501 0.04917 0.0
H2624 H 0.2532 0.27831 1.00811 0.0
H2625 H 0.23066 0.31462 1.01408 0.0
H2626 H 0.2676 0.22156 1.01313 0.0
H2627 H 0.31709 0.21581 1.01866 0.0
C2628 C 0.06114 0.30043 0.53432 0.0
C2629 C 0.08622 0.34912 0.52944 0.0
C2630 C 1.00078 0.33679 0.52486 0.0
C2631 C 0.97596 0.29226 0.53112 0.0
N2632 N 0.98388 0.23108 0.54181 0.0
N2633 N 0.07785 0.41677 0.52145 0.0
C2634 C 1.00677 0.2741 0.53584 0.0
C2635 C 0.05539 0.36781 0.52498 0.0
N2636 N 0.08896 0.27798 0.53708 0.0
N2637 N 0.97232 0.34965 0.51868 0.0
H2638 H 0.11693 0.44167 0.52179 0.0
H2639 H 0.05735 0.43444 0.51922 0.0
H2640 H 0.93291 0.32793 0.51839 0.0
H2641 H 0.98796 0.37832 0.51308 0.0
H2642 H 0.0729 0.24058 0.53965 0.0
H2643 H 0.12809 0.29518 0.53588 0.0
H2644 H 1.00376 0.2196 0.54671 0.0
H2645 H 0.9445 0.20746 0.54209 0.0
C2646 C 0.67222 0.6918 0.52412 0.0
C2647 C 0.6908 0.74034 0.52884 0.0
C2648 C 0.76366 0.73289 0.53575 0.0
C2649 C 0.74537 0.68471 0.53088 0.0
N2650 N 0.69202 0.62909 0.51738 0.0
N2651 N 0.76208 0.81216 0.53682 0.0
C2652 C 0.7028 0.66766 0.52409 0.0
C2653 C 0.7388 0.76223 0.534 0.0
N2654 N 0.62398 0.66688 0.52016 0.0
N2655 N 0.80554 0.75119 0.54204 0.0
H2656 H 0.74631 0.83523 0.53531 0.0
H2657 H 0.79912 0.83219 0.53966 0.0
H2658 H 0.82867 0.73482 0.54244 0.0
H2659 H 0.81657 0.78175 0.54704 0.0
H2660 H 0.60641 0.62929 0.5177 0.0
H2661 H 0.5995 0.68166 0.52032 0.0
H2662 H 0.66389 0.61726 0.51168 0.0
H2663 H 0.7162 0.61435 0.51655 0.0
C2664 C 0.27282 0.9831 0.53297 0.0
C2665 C 0.29702 0.95679 0.52896 0.0
C2666 C 0.37256 0.04083 0.52505 0.0
C2667 C 0.35218 0.0667 0.53066 0.0
N2668 N 0.28103 0.06093 0.54012 0.0
N2669 N 0.3761 0.96334 0.52356 0.0
C2670 C 0.30173 0.03718 0.53468 0.0
C2671 C 0.34838 0.9865 0.52552 0.0
N2672 N 0.22161 0.9569 0.53475 0.0
N2673 N 0.41526 0.06788 0.51924 0.0
H2674 H 0.3619 0.92501 0.5251 0.0
H2675 H 0.41488 0.98317 0.52189 0.0
H2676 H 0.43276 0.10709 0.51851 0.0
H2677 H 0.42917 0.05085 0.51421 0.0
H2678 H 0.20053 0.97421 0.53667 0.0
H2679 H 0.19921 0.91816 0.53331 0.0
H2680 H 0.24777 0.04155 0.54447 0.0
H2681 H 0.29827 0.10035 0.54059 0.0
C2682 C 0.04269 0.37065 0.36597 0.0
C2683 C 1.02228 0.40085 0.36198 0.0
C2684 C 0.94747 0.32139 0.35564 0.0
C2685 C 0.9672 0.29118 0.35994 0.0
N2686 N 0.02681 0.28775 0.37182 0.0
N2687 N 0.94917 0.40247 0.35507 0.0
C2688 C 1.01252 0.3161 0.36597 0.0
C2689 C 0.97289 0.37537 0.3574 0.0
N2690 N 0.09231 0.39369 0.36913 0.0
N2691 N 0.90402 0.29837 0.34981 0.0
H2692 H 0.96586 0.44132 0.35643 0.0
H2693 H 0.91134 0.38593 0.35273 0.0
H2694 H 0.88153 0.25901 0.34926 0.0
H2695 H 0.89124 0.31818 0.34523 0.0
H2696 H 0.11103 0.37374 0.37098 0.0
H2697 H 0.11655 0.43282 0.36886 0.0
H2698 H 0.05697 0.3033 0.37708 0.0
H2699 H 1.0043 0.24859 0.37236 0.0
C2700 C 0.7152 0.61395 0.36097 0.0
C2701 C 0.7441 0.66784 0.35968 0.0
C2702 C 0.66279 0.66926 0.36073 0.0
C2703 C 0.63353 0.61529 0.36097 0.0
N2704 N 0.6328 0.53595 0.36001 0.0
N2705 N 0.7402 0.74292 0.35482 0.0
C2706 C 0.66014 0.58763 0.36066 0.0
C2707 C 0.71647 0.69447 0.35864 0.0
N2708 N 0.7403 0.5878 0.36286 0.0
N2709 N 0.63959 0.6971 0.36259 0.0
H2710 H 0.77747 0.76132 0.35211 0.0
H2711 H 0.72086 0.76232 0.35301 0.0
H2712 H 0.60087 0.68053 0.36418 0.0
H2713 H 0.65972 0.73635 0.36357 0.0
H2714 H 0.72206 0.54962 0.36496 0.0
H2715 H 0.77988 0.60534 0.36316 0.0
H2716 H 0.6492 0.5135 0.35861 0.0
H2717 H 0.59311 0.51571 0.36011 0.0
C2718 C 0.34054 0.01952 0.35405 0.0
C2719 C 0.35902 0.06652 0.35931 0.0
C2720 C 0.43288 0.05832 0.36544 0.0
C2721 C 0.41228 1.00941 0.36079 0.0
N2722 N 0.33883 0.93928 0.3529 0.0
N2723 N 0.42042 0.12815 0.37102 0.0
C2724 C 0.36407 0.98906 0.3557 0.0
C2725 C 0.40454 0.08508 0.3653 0.0
N2726 N 0.30108 1.00424 0.34719 0.0
N2727 N 0.48048 0.08008 0.3697 0.0
H2728 H 0.40168 0.14911 0.37085 0.0
H2729 H 0.44977 0.14119 0.37645 0.0
H2730 H 0.50168 0.06161 0.37006 0.0
H2731 H 0.50046 0.11753 0.37221 0.0
H2732 H 0.28978 0.97366 0.34217 0.0
H2733 H 0.28244 0.02474 0.3458 0.0
H2734 H 0.30139 0.92044 0.35023 0.0
H2735 H 0.35312 0.91531 0.35445 0.0
C2736 C 0.23557 0.36466 0.10702 0.0
C2737 C 0.19556 0.36565 0.10141 0.0
C2738 C 0.14231 0.33785 0.11716 0.0
C2739 C 0.18086 0.3333 0.12257 0.0
N2740 N 0.26151 0.33583 0.12236 0.0
N2741 N 0.10795 0.34532 0.10056 0.0
C2742 C 0.22682 0.34494 0.11741 0.0
C2743 C 0.14809 0.34997 0.10633 0.0
N2744 N 0.28237 0.3839 0.1025 0.0
N2745 N 0.1008 0.33227 0.12246 0.0
H2746 H 0.11072 0.35428 0.09266 0.0
H2747 H 0.07088 0.32861 0.10337 0.0
H2748 H 0.09492 0.32311 0.13036 0.0
H2749 H 0.07427 0.34081 0.11929 0.0
H2750 H 0.31474 0.38959 0.1065 0.0
H2751 H 0.28974 0.3976 0.09487 0.0
H2752 H 0.29322 0.3382 0.11871 0.0
H2753 H 0.25663 0.32218 0.12998 0.0
C2754 C 0.71885 0.9039 0.10513 0.0
C2755 C 0.67379 0.86014 0.10174 0.0
C2756 C 0.64388 0.84428 0.11985 0.0
C2757 C 0.69365 0.87946 0.1234 0.0
N2758 N 0.75634 0.96523 0.11894 0.0
N2759 N 0.59224 0.78789 0.10612 0.0
C2760 C 0.72579 0.91617 0.11593 0.0
C2761 C 0.63578 0.8303 0.10917 0.0
N2762 N 0.75523 0.93388 0.09808 0.0
N2763 N 0.60322 0.8312 0.1262 0.0
H2764 H 0.58448 0.77627 0.09839 0.0
H2765 H 0.5659 0.76236 0.11144 0.0
H2766 H 0.60741 0.84896 0.13335 0.0
H2767 H 0.56563 0.80927 0.12372 0.0
H2768 H 0.79103 0.96303 0.10031 0.0
H2769 H 0.75072 0.92752 0.09008 0.0
H2770 H 0.77728 0.99477 0.11373 0.0
H2771 H 0.75428 0.97716 0.12644 0.0
C2772 C 0.1825 0.80013 0.1199 0.0
C2773 C 0.17511 0.84077 0.12303 0.0
C2774 C 0.15617 0.85066 0.10482 0.0
C2775 C 0.17614 0.81955 0.10145 0.0
N2776 N 0.16423 0.73793 0.10651 0.0
N2777 N 0.15531 0.90595 0.11815 0.0
C2778 C 0.17746 0.78635 0.10917 0.0
C2779 C 0.16173 0.86618 0.1154 0.0
N2780 N 0.19415 0.77435 0.12712 0.0
N2781 N 0.12426 0.85795 0.09844 0.0
H2782 H 0.159 0.91875 0.12579 0.0
H2783 H 0.15042 0.9286 0.11266 0.0
H2784 H 0.1114 0.83852 0.09141 0.0
H2785 H 0.10489 0.87647 0.10081 0.0
H2786 H 0.20529 0.74816 0.12508 0.0
H2787 H 0.19574 0.78149 0.13509 0.0
H2788 H 0.16002 0.71039 0.11192 0.0
H2789 H 0.14957 0.7235 0.09916 0.0
C2790 C 0.34302 0.21083 0.45164 0.0
C2791 C 0.36386 0.18288 0.45643 0.0
C2792 C 0.35587 0.13953 0.43982 0.0
C2793 C 0.34011 0.17121 0.43479 0.0
N2794 N 0.32592 0.24241 0.43559 0.0
N2795 N 0.39955 0.12789 0.4545 0.0
C2796 C 0.33563 0.20837 0.44063 0.0
C2797 C 0.37284 0.14918 0.45036 0.0
N2798 N 0.32882 0.23855 0.45768 0.0
N2799 N 0.35298 0.09895 0.43467 0.0
H2800 H 0.41345 0.13447 0.4621 0.0
H2801 H 0.41213 0.1076 0.4501 0.0
H2802 H 0.34026 0.09009 0.427 0.0
H2803 H 0.35855 0.07132 0.43829 0.0
H2804 H 0.30863 0.25552 0.45483 0.0
H2805 H 0.33327 0.24088 0.46574 0.0
H2806 H 0.32757 0.27376 0.43922 0.0
H2807 H 0.32046 0.24184 0.42756 0.0
C2808 C 0.90098 0.1658 0.44253 0.0
C2809 C 0.86903 0.17158 0.43517 0.0
C2810 C 0.82749 0.19092 0.44945 0.0
C2811 C 0.85703 0.18175 0.45686 0.0
N2812 N 0.91467 0.15064 0.46054 0.0
N2813 N 0.79483 0.17913 0.43179 0.0
C2814 C 0.89159 0.16617 0.45341 0.0
C2815 C 0.83011 0.18093 0.4387 0.0
N2816 N 0.94185 0.16232 0.43917 0.0
N2817 N 0.79864 0.21148 0.4526 0.0
H2818 H 0.79532 0.17155 0.4239 0.0
H2819 H 0.76247 0.18035 0.43403 0.0
H2820 H 0.79591 0.21982 0.46035 0.0
H2821 H 0.78093 0.22441 0.44744 0.0
H2822 H 0.9698 0.16385 0.44414 0.0
H2823 H 0.95031 0.16217 0.43132 0.0
H2824 H 0.93607 0.1338 0.4585 0.0
H2825 H 0.90859 0.1503 0.46853 0.0
C2826 C 0.9113 0.70778 0.44075 0.0
C2827 C 0.86861 0.69948 0.43464 0.0
C2828 C 0.81305 0.66148 0.44988 0.0
C2829 C 0.8563 0.67421 0.45621 0.0
N2830 N 0.94729 0.71448 0.45802 0.0
N2831 N 0.77996 0.6757 0.43376 0.0
C2832 C 0.90567 0.69865 0.45173 0.0
C2833 C 0.81974 0.67814 0.43931 0.0
N2834 N 0.95696 0.72313 0.43599 0.0
N2835 N 0.76535 0.63228 0.45392 0.0
H2836 H 0.78309 0.68742 0.42603 0.0
H2837 H 0.74498 0.66612 0.43706 0.0
H2838 H 0.7588 0.61968 0.46162 0.0
H2839 H 0.73236 0.61682 0.44943 0.0
H2840 H 0.98828 0.72487 0.43974 0.0
H2841 H 0.9624 0.73038 0.42801 0.0
H2842 H 0.98451 0.73745 0.45547 0.0
H2843 H 0.94449 0.70758 0.46602 0.0
C2844 C 0.9088 0.70135 0.94035 0.0
C2845 C 0.86633 0.69349 0.93424 0.0
C2846 C 0.81044 0.65706 0.94948 0.0
C2847 C 0.85335 0.66724 0.95569 0.0
N2848 N 0.9443 0.70627 0.95757 0.0
N2849 N 0.77824 0.67093 0.93313 0.0
C2850 C 0.90284 0.69164 0.95127 0.0
C2851 C 0.81752 0.67337 0.93886 0.0
N2852 N 0.95454 0.71631 0.93564 0.0
N2853 N 0.76279 0.63059 0.95368 0.0
H2854 H 0.78202 0.68182 0.92532 0.0
H2855 H 0.74305 0.66172 0.93626 0.0
H2856 H 0.75641 0.61966 0.96149 0.0
H2857 H 0.72946 0.61675 0.94934 0.0
H2858 H 0.98537 0.71694 0.93939 0.0
H2859 H 0.96077 0.72458 0.92771 0.0
H2860 H 0.98163 0.72928 0.95509 0.0
H2861 H 0.94146 0.69876 0.96554 0.0
C2862 C 0.41178 0.19755 0.93803 0.0
C2863 C 0.36471 0.15761 0.93427 0.0
C2864 C 0.34059 0.12872 0.95238 0.0
C2865 C 0.38109 0.17558 0.95603 0.0
N2866 N 0.45652 0.25543 0.9521 0.0
N2867 N 0.31229 0.06877 0.93824 0.0
C2868 C 0.4173 0.21009 0.9488 0.0
C2869 C 0.33612 0.1179 0.94152 0.0
N2870 N 0.45359 0.21745 0.93178 0.0
N2871 N 0.30621 0.09443 0.95924 0.0
H2872 H 0.31733 0.05944 0.9307 0.0
H2873 H 0.29464 0.0378 0.94329 0.0
H2874 H 0.30928 0.09996 0.96727 0.0
H2875 H 0.27305 0.06215 0.95683 0.0
H2876 H 0.49002 0.24346 0.93438 0.0
H2877 H 0.45263 0.2019 0.9245 0.0
H2878 H 0.48078 0.28376 0.94695 0.0
H2879 H 0.46233 0.26614 0.95991 0.0
C2880 C 0.89981 0.16698 0.94206 0.0
C2881 C 0.88488 0.19167 0.93457 0.0
C2882 C 0.88056 0.24409 0.94861 0.0
C2883 C 0.88311 0.21101 0.95618 0.0
N2884 N 0.93732 0.17513 0.95903 0.0
N2885 N 0.86282 0.25623 0.93075 0.0
C2886 C 0.90479 0.18163 0.95269 0.0
C2887 C 0.87583 0.23105 0.93785 0.0
N2888 N 0.90816 0.12861 0.93914 0.0
N2889 N 0.89229 0.2919 0.95143 0.0
H2890 H 0.86122 0.2495 0.92276 0.0
H2891 H 0.8506 0.28144 0.93291 0.0
H2892 H 0.90668 0.30604 0.95881 0.0
H2893 H 0.89555 0.31943 0.94612 0.0
H2894 H 0.91418 0.10631 0.94453 0.0
H2895 H 0.90503 0.11652 0.93146 0.0
H2896 H 0.95791 0.158 0.95658 0.0
H2897 H 0.94914 0.19377 0.96616 0.0
C2898 C 0.65138 0.78424 0.60885 0.0
C2899 C 0.68612 0.81949 0.60148 0.0
C2900 C 0.7448 0.86481 0.61588 0.0
C2901 C 0.70523 0.83744 0.62319 0.0
N2902 N 0.62051 0.76826 0.6266 0.0
N2903 N 0.77673 0.86067 0.59898 0.0
C2904 C 0.6584 0.79621 0.61967 0.0
C2905 C 0.73651 0.85103 0.60519 0.0
N2906 N 0.61781 0.73601 0.60577 0.0
N2907 N 0.78998 0.90493 0.61902 0.0
H2908 H 0.77147 0.84295 0.59178 0.0
H2909 H 0.81431 0.87958 0.60159 0.0
H2910 H 0.79785 0.91659 0.62675 0.0
H2911 H 0.81788 0.9289 0.61376 0.0
H2912 H 0.59453 0.70714 0.61092 0.0
H2913 H 0.61942 0.72334 0.59832 0.0
H2914 H 0.58383 0.74147 0.62428 0.0
H2915 H 0.62496 0.77401 0.63462 0.0
C2916 C 0.14326 0.79858 0.60625 0.0
C2917 C 0.18612 0.83569 0.60064 0.0
C2918 C 0.2206 0.88456 0.61677 0.0
C2919 C 0.17569 0.84961 0.62215 0.0
N2920 N 0.09023 0.77838 0.62159 0.0
N2921 N 0.26226 0.91757 0.60013 0.0
C2922 C 0.13588 0.80802 0.61676 0.0
C2923 C 0.22394 0.87972 0.60579 0.0
N2924 N 0.11046 0.75337 0.60165 0.0
N2925 N 0.26063 0.9215 0.62221 0.0
H2926 H 0.26602 0.9151 0.59212 0.0
H2927 H 0.28795 0.95292 0.60318 0.0
H2928 H 0.25928 0.9264 0.63021 0.0
H2929 H 0.29641 0.94475 0.61899 0.0
H2930 H 0.08189 0.7226 0.60569 0.0
H2931 H 0.11448 0.7448 0.59399 0.0
H2932 H 0.0579 0.75117 0.61773 0.0
H2933 H 0.08319 0.78393 0.62927 0.0
C2934 C 0.22139 0.40566 0.60852 0.0
C2935 C 0.19266 0.36783 0.60102 0.0
C2936 C 0.13696 0.31395 0.61514 0.0
C2937 C 0.17271 0.34649 0.62269 0.0
N2938 N 0.21851 0.43671 0.62557 0.0
N2939 N 0.12107 0.28525 0.59726 0.0
C2940 C 0.20696 0.39667 0.61919 0.0
C2941 C 0.14981 0.32173 0.60435 0.0
N2942 N 0.26316 0.45002 0.60554 0.0
N2943 N 0.08779 0.2822 0.61803 0.0
H2944 H 0.12779 0.29025 0.58926 0.0
H2945 H 0.09276 0.24894 0.59943 0.0
H2946 H 0.07486 0.28386 0.62546 0.0
H2947 H 0.05881 0.26076 0.61276 0.0
H2948 H 0.28803 0.47645 0.6109 0.0
H2949 H 0.27508 0.45842 0.59782 0.0
H2950 H 0.2396 0.47441 0.62313 0.0
H2951 H 0.20018 0.43173 0.6327 0.0
C2952 C 0.06488 0.5687 0.77126 0.0
C2953 C 1.01871 0.52679 0.7677 0.0
C2954 C 0.98714 0.51175 0.78569 0.0
C2955 C 0.03719 0.54461 0.78944 0.0
N2956 N 0.10362 0.62914 0.78518 0.0
N2957 N 0.93483 0.45747 0.77177 0.0
C2958 C 0.07137 0.58056 0.78209 0.0
C2959 C 0.97938 0.49825 0.77498 0.0
N2960 N 0.10266 0.5974 0.76436 0.0
N2961 N 0.94642 0.50059 0.79187 0.0
H2962 H 0.92731 0.44621 0.76401 0.0
H2963 H 0.90723 0.43269 0.77699 0.0
H2964 H 0.95094 0.51816 0.79907 0.0
H2965 H 0.90891 0.48059 0.78925 0.0
H2966 H 0.13896 0.62496 0.76673 0.0
H2967 H 0.09864 0.5914 0.75635 0.0
H2968 H 0.12631 0.65833 0.78003 0.0
H2969 H 0.10132 0.64151 0.79261 0.0
C2970 C 0.55868 0.54116 0.77394 0.0
C2971 C 0.51912 0.50047 0.76831 0.0
C2972 C 0.46976 0.4683 0.78451 0.0
C2973 C 0.50732 0.51156 0.78991 0.0
N2974 N 0.58293 0.5941 0.78929 0.0
N2975 N 0.43403 0.42889 0.76784 0.0
C2976 C 0.55052 0.54936 0.78449 0.0
C2977 C 0.47379 0.46494 0.77349 0.0
N2978 N 0.60486 0.57107 0.76933 0.0
N2979 N 0.43101 0.42978 0.78996 0.0
H2980 H 0.43586 0.4252 0.75981 0.0
H2981 H 0.39804 0.40527 0.77093 0.0
H2982 H 0.42684 0.43116 0.79798 0.0
H2983 H 0.40538 0.39492 0.78671 0.0
H2984 H 0.6369 0.59756 0.77338 0.0
H2985 H 0.61263 0.56634 0.76165 0.0
H2986 H 0.6117 0.6253 0.7854 0.0
H2987 H 0.57832 0.60191 0.79698 0.0
C2988 C 0.50844 0.96055 0.77095 0.0
C2989 C 0.54645 1.00954 0.76754 0.0
C2990 C 0.56855 0.03335 0.78592 0.0
C2991 C 0.52279 0.98969 0.7891 0.0
N2992 N 0.44874 0.9103 0.78444 0.0
N2993 N 0.63284 0.06792 0.77254 0.0
C2994 C 0.49274 0.95271 0.78156 0.0
C2995 C 0.58279 0.0399 0.77521 0.0
N2996 N 0.49398 0.91984 0.76459 0.0
N2997 N 0.59852 0.06883 0.79307 0.0
H2998 H 0.6456 0.06491 0.76519 0.0
H2999 H 0.66185 0.08729 0.77795 0.0
H3000 H 0.59038 0.06466 0.80102 0.0
H3001 H 0.62947 0.10376 0.79096 0.0
H3002 H 0.46983 0.88251 0.76697 0.0
H3003 H 0.51247 0.92323 0.75754 0.0
H3004 H 0.42306 0.88493 0.77903 0.0
H3005 H 0.43621 0.90256 0.79213 0.0
C3006 C 0.55667 0.06586 0.27527 0.0
C3007 C 0.52687 0.02834 0.2678 0.0
C3008 C 0.47008 0.976 0.28193 0.0
C3009 C 0.50683 1.00744 0.28942 0.0
N3010 N 0.55592 0.09744 0.2924 0.0
N3011 N 0.45266 0.94753 0.26405 0.0
C3012 C 0.54242 0.05723 0.28595 0.0
C3013 C 0.48272 0.98336 0.27114 0.0
N3014 N 0.59936 0.10934 0.27228 0.0
N3015 N 0.42069 0.94598 0.28489 0.0
H3016 H 0.45917 0.95242 0.25605 0.0
H3017 H 0.4232 0.91181 0.26623 0.0
H3018 H 0.40853 0.94827 0.29235 0.0
H3019 H 0.39119 0.92554 0.27965 0.0
H3020 H 0.62492 0.1353 0.27762 0.0
H3021 H 0.61116 0.11747 0.26454 0.0
H3022 H 0.57811 0.13507 0.29 0.0
H3023 H 0.53845 0.09293 0.29962 0.0
C3024 C 0.03212 0.55516 0.28429 0.0
C3025 C 0.03515 0.51567 0.28965 0.0
C3026 C 1.02013 0.46956 0.27311 0.0
C3027 C 1.01301 0.50711 0.26796 0.0
N3028 N 1.00242 0.58053 0.26908 0.0
N3029 N 1.02472 0.43173 0.28953 0.0
C3030 C 1.01619 0.54844 0.27369 0.0
C3031 C 0.0271 0.47182 0.28415 0.0
N3032 N 0.04645 0.6001 0.28921 0.0
N3033 N 1.02181 0.43261 0.26741 0.0
H3034 H 0.02977 0.43221 0.29757 0.0
H3035 H 1.01374 0.39663 0.28619 0.0
H3036 H 1.01646 0.42961 0.25936 0.0
H3037 H 0.03232 0.40738 0.27049 0.0
H3038 H 0.05064 0.63228 0.28538 0.0
H3039 H 0.0587 0.6069 0.29692 0.0
H3040 H 0.99841 0.60783 0.27316 0.0
H3041 H 0.99042 0.57693 0.26136 0.0
C3042 C 0.4858 0.47207 0.27315 0.0
C3043 C 0.52909 0.50983 0.26773 0.0
C3044 C 0.56245 0.55618 0.2842 0.0
C3045 C 0.51692 0.5209 0.28937 0.0
N3046 N 0.43104 0.45066 0.28824 0.0
N3047 N 0.6052 0.59179 0.26776 0.0
C3048 C 0.47742 0.48034 0.28369 0.0
C3049 C 0.56654 0.55302 0.27318 0.0
N3050 N 0.45352 0.42728 0.26835 0.0
N3051 N 0.60242 0.59179 0.28988 0.0
H3052 H 0.60933 0.59078 0.25973 0.0
H3053 H 0.63065 0.6266 0.27106 0.0
H3054 H 0.60075 0.59521 0.29792 0.0
H3055 H 0.63848 0.61511 0.28678 0.0
H3056 H 0.42464 0.39615 0.27224 0.0
H3057 H 0.45841 0.41936 0.26069 0.0
H3058 H 0.39909 0.42428 0.28415 0.0
H3059 H 0.42306 0.45555 0.29589 0.0
C3060 C 0.04719 0.15638 0.28566 0.0
C3061 C 0.02737 0.1855 0.29024 0.0
C3062 C 0.04767 0.23534 0.27398 0.0
C3063 C 0.05583 0.19874 0.26881 0.0
N3064 N 0.06216 0.12275 0.26988 0.0
N3065 N 0.05322 0.27431 0.29056 0.0
C3066 C 0.05537 0.15886 0.27471 0.0
C3067 C 0.03936 0.23142 0.28495 0.0
N3068 N 0.06682 0.13378 0.29188 0.0
N3069 N 0.0488 0.2746 0.26852 0.0
H3070 H 0.05961 0.27538 0.29857 0.0
H3071 H 0.06659 0.31001 0.28719 0.0
H3072 H 0.05754 0.28081 0.26062 0.0
H3073 H 0.03769 0.29894 0.27177 0.0
H3074 H 0.0861 0.11606 0.28899 0.0
H3075 H 0.07064 0.13986 0.2999 0.0
H3076 H 0.05739 0.09035 0.27374 0.0
H3077 H 0.0682 0.12308 0.26189 0.0
C3078 C 0.86088 0.80181 0.28072 0.0
C3079 C 0.87012 0.83911 0.28837 0.0
C3080 C 0.86463 0.89395 0.27479 0.0
C3081 C 0.85122 0.85492 0.26732 0.0
N3082 N 0.83197 0.76999 0.26323 0.0
N3083 N 0.87682 0.91887 0.293 0.0
C3084 C 0.84835 0.80845 0.2703 0.0
C3085 C 0.87101 0.88477 0.28547 0.0
N3086 N 0.86464 0.76017 0.28341 0.0
N3087 N 0.87231 0.94028 0.2716 0.0
H3088 H 0.88376 0.91448 0.30079 0.0
H3089 H 0.87185 0.94997 0.2917 0.0
H3090 H 0.86701 0.94801 0.26392 0.0
H3091 H 0.88741 0.97219 0.27633 0.0
H3092 H 0.86423 0.73443 0.27806 0.0
H3093 H 0.87168 0.75292 0.291 0.0
H3094 H 0.82316 0.73315 0.26512 0.0
H3095 H 0.82395 0.77398 0.25549 0.0
C3096 C 0.217 0.98746 0.28615 0.0
C3097 C 0.21431 0.0314 0.28882 0.0
C3098 C 0.19931 0.04252 0.27032 0.0
C3099 C 0.19738 0.99607 0.26781 0.0
N3100 N 0.19579 0.91981 0.27374 0.0
N3101 N 0.19428 0.09595 0.2837 0.0
C3102 C 0.20399 0.96735 0.27584 0.0
C3103 C 0.20309 0.05761 0.28096 0.0
N3104 N 0.2334 0.96567 0.29339 0.0
N3105 N 0.19921 0.07317 0.2625 0.0
H3106 H 0.19663 0.10808 0.29137 0.0
H3107 H 0.1803 0.11272 0.27856 0.0
H3108 H 0.19688 0.06368 0.25465 0.0
H3109 H 0.20599 0.10988 0.26371 0.0
H3110 H 0.24174 0.93718 0.29164 0.0
H3111 H 0.24283 0.97897 0.301 0.0
H3112 H 0.19438 0.89473 0.27946 0.0
H3113 H 0.18592 0.90356 0.26637 0.0
C3114 C 0.03239 0.80684 0.784 0.0
C3115 C 0.99788 0.82306 0.78715 0.0
C3116 C 1.00261 0.85844 0.76961 0.0
C3117 C 0.04156 0.84758 0.76688 0.0
N3118 N 0.09848 0.81727 0.77196 0.0
N3119 N 0.95582 0.87113 0.78342 0.0
C3120 C 0.05765 0.82313 0.7742 0.0
C3121 C 0.98432 0.85052 0.78006 0.0
N3122 N 0.04004 0.77474 0.79027 0.0
N3123 N 0.98224 0.8753 0.76214 0.0
H3124 H 0.94204 0.86673 0.79099 0.0
H3125 H 0.94945 0.89622 0.77897 0.0
H3126 H 0.99454 0.88139 0.75443 0.0
H3127 H 0.95014 0.87875 0.76334 0.0
H3128 H 0.0605 0.75727 0.78798 0.0
H3129 H 1.02207 0.76189 0.79745 0.0
H3130 H 0.11575 0.80513 0.7774 0.0
H3131 H 0.11782 0.82843 0.76489 0.0
C3132 C 0.17606 0.14761 0.77154 0.0
C3133 C 0.19026 0.19778 0.7683 0.0
C3134 C 0.23012 0.22967 0.78547 0.0
C3135 C 0.21164 0.17905 0.78902 0.0
N3136 N 0.16156 0.08921 0.78585 0.0
N3137 N 0.22566 0.28615 0.77254 0.0
C3138 C 0.18318 0.13786 0.78215 0.0
C3139 C 0.21611 0.23875 0.77536 0.0
N3140 N 0.15704 0.10938 0.76439 0.0
N3141 N 0.26213 0.26919 0.7917 0.0
H3142 H 0.21667 0.29439 0.76521 0.0
H3143 H 0.23905 0.31651 0.77767 0.0
H3144 H 0.27238 0.26399 0.79917 0.0
H3145 H 0.28163 0.30682 0.7892 0.0
H3146 H 0.15104 0.07312 0.76591 0.0
H3147 H 0.1513 0.11504 0.75659 0.0
H3148 H 0.13559 0.05764 0.78163 0.0
H3149 H 0.16649 0.08048 0.79347 0.0
C3150 C 0.83434 0.97574 0.7886 0.0
C3151 C 0.84061 0.02449 0.79063 0.0
C3152 C 0.82411 0.03224 0.77207 0.0
C3153 C 0.8241 0.98645 0.76985 0.0
N3154 N 0.83685 0.91826 0.7759 0.0
N3155 N 0.84892 0.10261 0.78392 0.0
C3156 C 0.83105 0.95904 0.7781 0.0
C3157 C 0.83723 0.05358 0.78226 0.0
N3158 N 0.83026 0.94475 0.79674 0.0
N3159 N 0.81043 0.05484 0.76447 0.0
H3160 H 0.85907 0.11987 0.7912 0.0
H3161 H 0.85285 0.12759 0.77794 0.0
H3162 H 0.80045 0.04026 0.75696 0.0
H3163 H 0.80442 0.08518 0.76585 0.0
H3164 H 0.8204 0.9069 0.79584 0.0
H3165 H 0.83199 0.95545 0.8045 0.0
H3166 H 0.84788 0.90034 0.78141 0.0
H3167 H 0.83494 0.9049 0.76836 0.0
C3168 C 0.66796 0.55593 0.61667 0.0
C3169 C 0.69025 0.53925 0.62439 0.0
C3170 C 0.74818 0.53803 0.61113 0.0
C3171 C 0.72835 0.55814 0.60359 0.0
N3172 N 0.67641 0.59578 0.59979 0.0
N3173 N 0.75856 0.52461 0.62942 0.0
C3174 C 0.69033 0.56997 0.60656 0.0
C3175 C 0.73252 0.53342 0.62174 0.0
N3176 N 0.62397 0.55617 0.61883 0.0
N3177 N 0.78024 0.52105 0.60808 0.0
H3178 H 0.7485 0.52144 0.63725 0.0
H3179 H 0.7928 0.52524 0.62816 0.0
H3180 H 0.79225 0.52314 0.60042 0.0
H3181 H 0.79139 0.50083 0.61296 0.0
H3182 H 0.60277 0.56234 0.61321 0.0
H3183 H 0.60615 0.54593 0.62607 0.0
H3184 H 0.65294 0.61027 0.60185 0.0
H3185 H 0.6921 0.60687 0.59237 0.0
C3186 C 0.5181 0.12935 0.61493 0.0
C3187 C 0.50766 0.15229 0.62348 0.0
C3188 C 0.48151 0.19775 0.61117 0.0
C3189 C 0.48864 0.17216 0.60267 0.0
N3190 N 0.50418 0.10619 0.59666 0.0
N3191 N 0.46994 0.20048 0.62981 0.0
C3192 C 0.50407 0.1357 0.60463 0.0
C3193 C 0.48649 0.18415 0.6216 0.0
N3194 N 0.54355 0.10333 0.61658 0.0
N3195 N 0.47213 0.23668 0.60929 0.0
H3196 H 0.47267 0.19105 0.63751 0.0
H3197 H 0.44933 0.21931 0.62893 0.0
H3198 H 0.46836 0.24796 0.60181 0.0
H3199 H 0.47236 0.26061 0.61508 0.0
H3200 H 0.55742 0.09074 0.61058 0.0
H3201 H 0.55467 0.09794 0.62395 0.0
H3202 H 0.50974 0.07529 0.59775 0.0
H3203 H 0.49408 0.10968 0.58905 0.0
C3204 C 0.91495 0.38935 0.61592 0.0
C3205 C 0.88291 0.35899 0.62418 0.0
C3206 C 0.83132 0.29174 0.61157 0.0
C3207 C 0.86557 0.32056 0.60345 0.0
N3208 N 0.94524 0.39272 0.5983 0.0
N3209 N 0.81617 0.27768 0.63017 0.0
C3210 C 0.90896 0.3682 0.60576 0.0
C3211 C 0.84272 0.30908 0.62208 0.0
N3212 N 0.94983 0.43917 0.61767 0.0
N3213 N 0.78672 0.24878 0.6092 0.0
H3214 H 0.82343 0.28902 0.63793 0.0
H3215 H 0.79017 0.23922 0.62927 0.0
H3216 H 0.77685 0.23486 0.60164 0.0
H3217 H 0.7576 0.22927 0.61456 0.0
H3218 H 0.97024 0.46481 0.61176 0.0
H3219 H 0.95539 0.45616 0.62495 0.0
H3220 H 0.9803 0.42478 0.59979 0.0
H3221 H 0.94224 0.3784 0.59082 0.0
C3222 C 0.65673 0.12048 0.10371 0.0
C3223 C 0.70332 0.16489 0.1012 0.0
C3224 C 0.71355 0.19073 0.1196 0.0
C3225 C 0.66444 0.14932 0.12187 0.0
N3226 N 0.5864 0.07778 0.11584 0.0
N3227 N 0.77271 0.2462 0.10647 0.0
C3228 C 0.63531 0.11484 0.11386 0.0
C3229 C 0.73093 0.20099 0.10909 0.0
N3230 N 0.63356 0.08306 0.09645 0.0
N3231 N 0.74413 0.21967 0.12756 0.0
H3232 H 0.78669 0.25533 0.09889 0.0
H3233 H 0.79104 0.27641 0.11161 0.0
H3234 H 0.73272 0.21331 0.13533 0.0
H3235 H 0.78226 0.24692 0.12659 0.0
H3236 H 0.60253 0.04749 0.09809 0.0
H3237 H 0.64801 0.08604 0.08897 0.0
H3238 H 0.56113 0.05515 0.11008 0.0
H3239 H 0.5697 0.07204 0.12317 0.0
C3240 C 0.89237 0.5039 0.11368 0.0
C3241 C 0.88552 0.52993 0.12212 0.0
C3242 C 0.8521 0.56932 0.10996 0.0
C3243 C 0.8621 0.54588 0.10146 0.0
N3244 N 0.90051 0.49855 0.09501 0.0
N3245 N 0.86739 0.59418 0.12814 0.0
C3246 C 0.8849 0.51547 0.10327 0.0
C3247 C 0.86788 0.56468 0.1202 0.0
N3248 N 0.90394 0.46649 0.11563 0.0
N3249 N 0.82572 0.59442 0.10832 0.0
H3250 H 0.87855 0.5917 0.13571 0.0
H3251 H 0.86017 0.624 0.12706 0.0
H3252 H 0.81393 0.59903 0.10095 0.0
H3253 H 0.81206 0.60727 0.11431 0.0
H3254 H 0.90369 0.44218 0.10993 0.0
H3255 H 0.90968 0.45677 0.12311 0.0
H3256 H 0.92229 0.48091 0.09578 0.0
H3257 H 0.89557 0.50617 0.08729 0.0
C3258 C 0.5273 0.40187 0.11416 0.0
C3259 C 0.52391 0.3689 0.12242 0.0
C3260 C 0.50538 0.30173 0.10958 0.0
C3261 C 0.50453 0.33325 0.10142 0.0
N3262 N 0.50635 0.41047 0.09625 0.0
N3263 N 0.50109 0.28456 0.12815 0.0
C3264 C 0.51315 0.38255 0.10381 0.0
C3265 C 0.5105 0.31798 0.12016 0.0
N3266 N 0.546 0.45227 0.1161 0.0
N3267 N 0.50319 0.25691 0.10718 0.0
H3268 H 0.50429 0.29494 0.13596 0.0
H3269 H 0.48582 0.24571 0.12709 0.0
H3270 H 0.4996 0.24372 0.09958 0.0
H3271 H 0.50936 0.23492 0.11261 0.0
H3272 H 0.55482 0.47933 0.11027 0.0
H3273 H 0.55691 0.46795 0.1235 0.0
H3274 H 0.50645 0.44417 0.09772 0.0
H3275 H 0.49621 0.39774 0.08862 0.0
C3276 C 0.33444 0.84629 0.93725 0.0
C3277 C 0.38671 0.86316 0.93543 0.0
C3278 C 0.39912 0.85821 0.95432 0.0
C3279 C 0.34808 0.84604 0.95622 0.0
N3280 N 0.26971 0.83739 0.94949 0.0
N3281 N 0.47081 0.89331 0.94242 0.0
C3282 C 0.3164 0.84244 0.94767 0.0
C3283 C 0.41959 0.87135 0.94403 0.0
N3284 N 0.30152 0.83235 0.92902 0.0
N3285 N 0.42765 0.85556 0.96231 0.0
H3286 H 0.48723 0.90364 0.93505 0.0
H3287 H 0.4974 0.90542 0.94843 0.0
H3288 H 0.41392 0.84571 0.96989 0.0
H3289 H 0.46311 0.8586 0.96126 0.0
H3290 H 0.26217 0.8143 0.92987 0.0
H3291 H 0.31318 0.83478 0.92131 0.0
H3292 H 0.2472 0.84018 0.94367 0.0
H3293 H 0.25524 0.83495 0.95695 0.0
C3294 C 0.20867 0.563 0.95358 0.0
C3295 C 0.2009 0.51446 0.95651 0.0
C3296 C 0.1696 0.48294 0.9388 0.0
C3297 C 0.18014 0.53223 0.9357 0.0
N3298 N 0.21677 0.62108 0.93963 0.0
N3299 N 0.18002 0.42973 0.95165 0.0
C3300 C 0.20159 0.57279 0.94297 0.0
C3301 C 0.18327 0.47494 0.94902 0.0
N3302 N 0.22201 0.59957 0.96099 0.0
N3303 N 0.1446 0.44325 0.93208 0.0
H3304 H 0.18734 0.42149 0.95914 0.0
H3305 H 0.17346 0.40156 0.94629 0.0
H3306 H 0.13442 0.44765 0.92455 0.0
H3307 H 0.13046 0.40543 0.93418 0.0
H3308 H 0.2224 0.63363 0.95972 0.0
H3309 H 0.22971 0.59458 0.9687 0.0
H3310 H 0.23758 0.65321 0.94418 0.0
H3311 H 0.21201 0.62965 0.93198 0.0
C3312 C 0.57933 0.71479 0.93789 0.0
C3313 C 0.53872 0.66559 0.93544 0.0
C3314 C 0.51798 0.64955 0.95413 0.0
C3315 C 0.55508 0.70051 0.95645 0.0
N3316 N 0.61586 0.7842 0.95025 0.0
N3317 N 0.46406 0.58893 0.94108 0.0
C3318 C 0.58448 0.7338 0.94825 0.0
C3319 C 0.50665 0.63368 0.94353 0.0
N3320 N 0.61392 0.74293 0.93038 0.0
N3321 N 0.49448 0.61578 0.96208 0.0
H3322 H 0.45422 0.57602 0.93346 0.0
H3323 H 0.43613 0.56675 0.94649 0.0
H3324 H 0.50197 0.62587 0.9699 0.0
H3325 H 0.47117 0.57694 0.96095 0.0
H3326 H 0.64744 0.77662 0.93191 0.0
H3327 H 0.61135 0.73037 0.92275 0.0
H3328 H 0.63388 0.81141 0.94444 0.0
H3329 H 0.62057 0.7997 0.95766 0.0
C3330 C 0.39316 0.52759 0.45345 0.0
C3331 C 0.34328 0.48779 0.45583 0.0
C3332 C 0.33139 0.46132 0.43742 0.0
C3333 C 0.37947 0.50374 0.4349 0.0
N3334 N 0.45313 0.58169 0.44024 0.0
N3335 N 0.26178 0.42146 0.44978 0.0
C3336 C 0.40953 0.5381 0.44286 0.0
C3337 C 0.31157 0.45583 0.44772 0.0
N3338 N 0.42557 0.5544 0.46137 0.0
N3339 N 0.30514 0.42551 0.43001 0.0
H3340 H 0.24582 0.41629 0.45717 0.0
H3341 H 0.23517 0.40102 0.44403 0.0
H3342 H 0.31801 0.42867 0.42238 0.0
H3343 H 0.27277 0.39085 0.4316 0.0
H3344 H 0.46407 0.58013 0.46029 0.0
H3345 H 0.41504 0.54778 0.46919 0.0
H3346 H 0.47372 0.61108 0.44545 0.0
H3347 H 0.46664 0.59046 0.43263 0.0
C3348 C 0.48511 0.82264 0.4403 0.0
C3349 C 0.52098 0.86726 0.43493 0.0
C3350 C 0.57582 0.89409 0.45054 0.0
C3351 C 0.54199 0.84749 0.45556 0.0
N3352 N 0.46856 0.76369 0.45457 0.0
N3353 N 0.60396 0.94202 0.43436 0.0
C3354 C 0.49773 0.81075 0.45025 0.0
C3355 C 0.56733 0.90208 0.43991 0.0
N3356 N 0.43815 0.79238 0.43602 0.0
N3357 N 0.61531 0.93139 0.45603 0.0
H3358 H 0.59901 0.94917 0.42661 0.0
H3359 H 0.64067 0.96564 0.43712 0.0
H3360 H 0.62282 0.92682 0.46378 0.0
H3361 H 0.6381 0.96817 0.45324 0.0
H3362 H 0.40829 0.76262 0.44002 0.0
H3363 H 0.42749 0.79958 0.42876 0.0
H3364 H 0.43926 0.73337 0.45061 0.0
H3365 H 0.47629 0.75355 0.46184 0.0
C3366 C 0.19349 0.73449 0.44675 0.0
C3367 C 0.18443 0.70088 0.45527 0.0
C3368 C 0.15944 0.63049 0.44294 0.0
C3369 C 0.16459 0.66322 0.43449 0.0
N3370 N 0.17848 0.74444 0.42852 0.0
N3371 N 0.15047 0.61525 0.46159 0.0
C3372 C 0.17934 0.71471 0.43645 0.0
C3373 C 0.16501 0.64837 0.45338 0.0
N3374 N 0.21747 0.78563 0.44844 0.0
N3375 N 0.15106 0.58276 0.44096 0.0
H3376 H 0.15393 0.62688 0.46932 0.0
H3377 H 0.13092 0.57597 0.46075 0.0
H3378 H 0.14679 0.56824 0.43346 0.0
H3379 H 0.15265 0.5591 0.44667 0.0
H3380 H 0.23035 0.8125 0.44247 0.0
H3381 H 0.22837 0.8016 0.45582 0.0
H3382 H 0.1833 0.7805 0.42962 0.0
H3383 H 0.16865 0.73141 0.4209 0.0
loop_
_geom_bond_atom_site_label_1
_geom_bond_atom_site_label_2
_geom_bond_distance
_geom_bond_site_symmetry_2
_ccdc_geom_bond_type
La0 C2 2.928 . S
La0 O20 2.521 . S
La0 O21 2.628 . S
La0 O22 2.554 . S
La0 O23 2.757 . S
La0 O24 2.470 . S
La0 O29 2.482 . S
La0 O31 2.503 . S
La1 C11 2.928 . S
La1 O23 2.482 . S
La1 O25 2.503 . S
La1 O26 2.521 . S
La1 O27 2.628 . S
La1 O28 2.554 . S
La1 O29 2.757 . S
La1 O30 2.470 . S
C2 La0 2.928 . S
C2 C3 1.503 . S
C2 O20 1.261 . S
C2 O21 1.243 . S
C3 C2 1.503 . S
C3 C4 1.394 . S
C3 C8 1.373 . S
C4 C3 1.394 . S
C4 C5 1.380 . S
C4 H32 0.930 . S
C5 C4 1.380 . S
C5 C6 1.376 . S
C5 H33 0.930 . S
C6 C5 1.376 . S
C6 C7 1.370 . S
C7 C6 1.370 . S
C7 C8 1.396 . S
C7 H34 0.929 . S
C8 C3 1.373 . S
C8 C7 1.396 . S
C8 H35 0.929 . S
C9 O22 1.240 . S
C9 O23 1.289 . S
C10 O24 1.258 . S
C10 O25 1.256 . S
C11 La1 2.928 . S
C11 C12 1.503 . S
C11 O26 1.261 . S
C11 O27 1.243 . S
C12 C11 1.503 . S
C12 C13 1.394 . S
C12 C17 1.373 . S
C13 C12 1.394 . S
C13 C14 1.380 . S
C13 H36 0.930 . S
C14 C13 1.380 . S
C14 C15 1.376 . S
C14 H37 0.930 . S
C15 C14 1.376 . S
C15 C16 1.370 . S
C16 C15 1.370 . S
C16 C17 1.396 . S
C16 H38 0.929 . S
C17 C12 1.373 . S
C17 C16 1.396 . S
C17 H39 0.929 . S
C18 O28 1.240 . S
C18 O29 1.289 . S
C19 O30 1.258 . S
C19 O31 1.256 . S
O20 La0 2.521 . S
O20 C2 1.261 . S
O21 La0 2.628 . S
O21 C2 1.243 . S
O22 La0 2.554 . S
O22 C9 1.240 . S
O23 La0 2.757 . S
O23 La1 2.482 . S
O23 C9 1.289 . S
O24 La0 2.470 . S
O24 C10 1.258 . S
O25 La1 2.503 . S
O25 C10 1.256 . S
O26 La1 2.521 . S
O26 C11 1.261 . S
O27 La1 2.628 . S
O27 C11 1.243 . S
O28 La1 2.554 . S
O28 C18 1.240 . S
O29 La0 2.482 . S
O29 La1 2.757 . S
O29 C18 1.289 . S
O30 La1 2.470 . S
O30 C19 1.258 . S
O31 La0 2.503 . S
O31 C19 1.256 . S
H32 C4 0.930 . S
H33 C5 0.930 . S
H34 C7 0.929 . S
H35 C8 0.929 . S
H36 C13 0.930 . S
H37 C14 0.930 . S
H38 C16 0.929 . S
H39 C17 0.929 . S
La40 C42 2.928 . S
La40 O60 2.521 . S
La40 O61 2.628 . S
La40 O62 2.557 . S
La40 O63 2.757 . S
La40 O64 2.470 . S
La40 O69 2.482 . S
La40 O71 2.503 . S
La41 C51 2.928 . S
La41 O63 2.482 . S
La41 O65 2.503 . S
La41 O66 2.521 . S
La41 O67 2.628 . S
La41 O68 2.554 . S
La41 O69 2.757 . S
La41 O70 2.470 . S
C42 La40 2.928 . S
C42 C43 1.503 . S
C42 O60 1.261 . S
C42 O61 1.243 . S
C43 C42 1.503 . S
C43 C44 1.394 . S
C43 C48 1.373 . S
C44 C43 1.394 . S
C44 C45 1.380 . S
C44 H72 0.930 . S
C45 C44 1.380 . S
C45 C46 1.376 . S
C45 H73 0.930 . S
C46 C45 1.376 . S
C46 C47 1.370 . S
C47 C46 1.370 . S
C47 C48 1.396 . S
C47 H74 0.929 . S
C48 C43 1.373 . S
C48 C47 1.396 . S
C48 H75 0.929 . S
C49 O62 1.240 . S
C49 O63 1.289 . S
C50 O64 1.258 . S
C50 O65 1.256 . S
C51 La41 2.928 . S
C51 C52 1.503 . S
C51 O66 1.261 . S
C51 O67 1.243 . S
C52 C51 1.503 . S
C52 C53 1.394 . S
C52 C57 1.373 . S
C53 C52 1.394 . S
C53 C54 1.380 . S
C53 H76 0.930 . S
C54 C53 1.380 . S
C54 C55 1.376 . S
C54 H77 0.930 . S
C55 C54 1.376 . S
C55 C56 1.370 . S
C56 C55 1.370 . S
C56 C57 1.396 . S
C56 H78 0.929 . S
C57 C52 1.373 . S
C57 C56 1.396 . S
C57 H79 0.929 . S
C58 O68 1.240 . S
C58 O69 1.289 . S
C59 O70 1.258 . S
C59 O71 1.256 . S
O60 La40 2.521 . S
O60 C42 1.261 . S
O61 La40 2.628 . S
O61 C42 1.243 . S
O62 La40 2.557 . S
O62 C49 1.240 . S
O63 La40 2.757 . S
O63 La41 2.482 . S
O63 C49 1.289 . S
O64 La40 2.470 . S
O64 C50 1.258 . S
O65 La41 2.503 . S
O65 C50 1.256 . S
O66 La41 2.521 . S
O66 C51 1.261 . S
O67 La41 2.628 . S
O67 C51 1.243 . S
O68 La41 2.554 . S
O68 C58 1.240 . S
O69 La40 2.482 . S
O69 La41 2.757 . S
O69 C58 1.289 . S
O70 La41 2.470 . S
O70 C59 1.258 . S
O71 La40 2.503 . S
O71 C59 1.256 . S
H72 C44 0.930 . S
H73 C45 0.930 . S
H74 C47 0.929 . S
H75 C48 0.929 . S
H76 C53 0.930 . S
H77 C54 0.930 . S
H78 C56 0.929 . S
H79 C57 0.929 . S
La80 C82 2.928 . S
La80 O100 2.521 . S
La80 O101 2.628 . S
La80 O102 2.556 . S
La80 O103 2.757 . S
La80 O104 2.470 . S
La80 O109 2.482 . S
La80 O111 2.503 . S
La81 C91 2.928 . S
La81 O103 2.482 . S
La81 O105 2.503 . S
La81 O106 2.521 . S
La81 O107 2.628 . S
La81 O108 2.554 . S
La81 O109 2.757 . S
La81 O110 2.470 . S
C82 La80 2.928 . S
C82 C83 1.503 . S
C82 O100 1.261 . S
C82 O101 1.243 . S
C83 C82 1.503 . S
C83 C84 1.394 . S
C83 C88 1.373 . S
C84 C83 1.394 . S
C84 C85 1.380 . S
C84 H112 0.930 . S
C85 C84 1.380 . S
C85 C86 1.376 . S
C85 H113 0.930 . S
C86 C85 1.376 . S
C86 C87 1.370 . S
C87 C86 1.370 . S
C87 C88 1.396 . S
C87 H114 0.929 . S
C88 C83 1.373 . S
C88 C87 1.396 . S
C88 H115 0.929 . S
C89 O102 1.240 . S
C89 O103 1.289 . S
C90 O104 1.258 . S
C90 O105 1.256 . S
C91 La81 2.928 . S
C91 C92 1.503 . S
C91 O106 1.261 . S
C91 O107 1.243 . S
C92 C91 1.503 . S
C92 C93 1.394 . S
C92 C97 1.373 . S
C93 C92 1.394 . S
C93 C94 1.380 . S
C93 H116 0.930 . S
C94 C93 1.380 . S
C94 C95 1.376 . S
C94 H117 0.930 . S
C95 C94 1.376 . S
C95 C96 1.370 . S
C96 C95 1.370 . S
C96 C97 1.396 . S
C96 H118 0.929 . S
C97 C92 1.373 . S
C97 C96 1.396 . S
C97 H119 0.929 . S
C98 O108 1.240 . S
C98 O109 1.289 . S
C99 O110 1.258 . S
C99 O111 1.256 . S
O100 La80 2.521 . S
O100 C82 1.261 . S
O101 La80 2.628 . S
O101 C82 1.243 . S
O102 La80 2.556 . S
O102 C89 1.240 . S
O103 La80 2.757 . S
O103 La81 2.482 . S
O103 C89 1.289 . S
O104 La80 2.470 . S
O104 C90 1.258 . S
O105 La81 2.503 . S
O105 C90 1.256 . S
O106 La81 2.521 . S
O106 C91 1.261 . S
O107 La81 2.628 . S
O107 C91 1.243 . S
O108 La81 2.554 . S
O108 C98 1.240 . S
O109 La80 2.482 . S
O109 La81 2.757 . S
O109 C98 1.289 . S
O110 La81 2.470 . S
O110 C99 1.258 . S
O111 La80 2.503 . S
O111 C99 1.256 . S
H112 C84 0.930 . S
H113 C85 0.930 . S
H114 C87 0.929 . S
H115 C88 0.929 . S
H116 C93 0.930 . S
H117 C94 0.930 . S
H118 C96 0.929 . S
H119 C97 0.929 . S
La120 C122 2.928 . S
La120 O140 2.521 . S
La120 O141 2.628 . S
La120 O142 2.554 . S
La120 O143 2.757 . S
La120 O144 2.470 . S
La120 O149 2.482 . S
La120 O151 2.503 . S
La121 C131 2.928 . S
La121 O143 2.482 . S
La121 O145 2.503 . S
La121 O146 2.521 . S
La121 O147 2.628 . S
La121 O148 2.554 . S
La121 O149 2.757 . S
La121 O150 2.470 . S
C122 La120 2.928 . S
C122 C123 1.503 . S
C122 O140 1.261 . S
C122 O141 1.243 . S
C123 C122 1.503 . S
C123 C124 1.394 . S
C123 C128 1.373 . S
C124 C123 1.394 . S
C124 C125 1.380 . S
C124 H152 0.930 . S
C125 C124 1.380 . S
C125 C126 1.376 . S
C125 H153 0.930 . S
C126 C125 1.376 . S
C126 C127 1.370 . S
C127 C126 1.370 . S
C127 C128 1.396 . S
C127 H154 0.929 . S
C128 C123 1.373 . S
C128 C127 1.396 . S
C128 H155 0.929 . S
C129 O142 1.240 . S
C129 O143 1.289 . S
C130 O144 1.258 . S
C130 O145 1.256 . S
C131 La121 2.928 . S
C131 C132 1.503 . S
C131 O146 1.261 . S
C131 O147 1.243 . S
C132 C131 1.503 . S
C132 C133 1.394 . S
C132 C137 1.373 . S
C133 C132 1.394 . S
C133 C134 1.380 . S
C133 H156 0.930 . S
C134 C133 1.380 . S
C134 C135 1.376 . S
C134 H157 0.930 . S
C135 C134 1.376 . S
C135 C136 1.370 . S
C136 C135 1.370 . S
C136 C137 1.396 . S
C136 H158 0.929 . S
C137 C132 1.373 . S
C137 C136 1.396 . S
C137 H159 0.929 . S
C138 O148 1.240 . S
C138 O149 1.289 . S
C139 O150 1.258 . S
C139 O151 1.256 . S
O140 La120 2.521 . S
O140 C122 1.261 . S
O141 La120 2.628 . S
O141 C122 1.243 . S
O142 La120 2.554 . S
O142 C129 1.240 . S
O143 La120 2.757 . S
O143 La121 2.482 . S
O143 C129 1.289 . S
O144 La120 2.470 . S
O144 C130 1.258 . S
O145 La121 2.503 . S
O145 C130 1.256 . S
O146 La121 2.521 . S
O146 C131 1.261 . S
O147 La121 2.628 . S
O147 C131 1.243 . S
O148 La121 2.554 . S
O148 C138 1.240 . S
O149 La120 2.482 . S
O149 La121 2.757 . S
O149 C138 1.289 . S
O150 La121 2.470 . S
O150 C139 1.258 . S
O151 La120 2.503 . S
O151 C139 1.256 . S
H152 C124 0.930 . S
H153 C125 0.930 . S
H154 C127 0.929 . S
H155 C128 0.929 . S
H156 C133 0.930 . S
H157 C134 0.930 . S
H158 C136 0.929 . S
H159 C137 0.929 . S
La160 C162 2.928 . S
La160 O180 2.521 . S
La160 O181 2.628 . S
La160 O182 2.554 . S
La160 O183 2.757 . S
La160 O184 2.470 . S
La160 O189 2.482 . S
La160 O191 2.503 . S
La161 C171 2.928 . S
La161 O183 2.482 . S
La161 O185 2.503 . S
La161 O186 2.521 . S
La161 O187 2.628 . S
La161 O188 2.554 . S
La161 O189 2.757 . S
La161 O190 2.470 . S
C162 La160 2.928 . S
C162 C163 1.503 . S
C162 O180 1.261 . S
C162 O181 1.243 . S
C163 C162 1.503 . S
C163 C164 1.394 . S
C163 C168 1.373 . S
C164 C163 1.394 . S
C164 C165 1.380 . S
C164 H192 0.930 . S
C165 C164 1.380 . S
C165 C166 1.376 . S
C165 H193 0.930 . S
C166 C165 1.376 . S
C166 C167 1.370 . S
C167 C166 1.370 . S
C167 C168 1.396 . S
C167 H194 0.929 . S
C168 C163 1.373 . S
C168 C167 1.396 . S
C168 H195 0.929 . S
C169 O182 1.240 . S
C169 O183 1.289 . S
C170 O184 1.258 . S
C170 O185 1.256 . S
C171 La161 2.928 . S
C171 C172 1.503 . S
C171 O186 1.261 . S
C171 O187 1.243 . S
C172 C171 1.503 . S
C172 C173 1.394 . S
C172 C177 1.373 . S
C173 C172 1.394 . S
C173 C174 1.380 . S
C173 H196 0.930 . S
C174 C173 1.380 . S
C174 C175 1.376 . S
C174 H197 0.930 . S
C175 C174 1.376 . S
C175 C176 1.370 . S
C176 C175 1.370 . S
C176 C177 1.396 . S
C176 H198 0.929 . S
C177 C172 1.373 . S
C177 C176 1.396 . S
C177 H199 0.929 . S
C178 O188 1.240 . S
C178 O189 1.289 . S
C179 O190 1.258 . S
C179 O191 1.256 . S
O180 La160 2.521 . S
O180 C162 1.261 . S
O181 La160 2.628 . S
O181 C162 1.243 . S
O182 La160 2.554 . S
O182 C169 1.240 . S
O183 La160 2.757 . S
O183 La161 2.482 . S
O183 C169 1.289 . S
O184 La160 2.470 . S
O184 C170 1.258 . S
O185 La161 2.503 . S
O185 C170 1.256 . S
O186 La161 2.521 . S
O186 C171 1.261 . S
O187 La161 2.628 . S
O187 C171 1.243 . S
O188 La161 2.554 . S
O188 C178 1.240 . S
O189 La160 2.482 . S
O189 La161 2.757 . S
O189 C178 1.289 . S
O190 La161 2.470 . S
O190 C179 1.258 . S
O191 La160 2.503 . S
O191 C179 1.256 . S
H192 C164 0.930 . S
H193 C165 0.930 . S
H194 C167 0.929 . S
H195 C168 0.929 . S
H196 C173 0.930 . S
H197 C174 0.930 . S
H198 C176 0.929 . S
H199 C177 0.929 . S
La200 C202 2.928 . S
La200 O220 2.521 . S
La200 O221 2.628 . S
La200 O222 2.554 . S
La200 O223 2.757 . S
La200 O224 2.470 . S
La200 O229 2.482 . S
La200 O231 2.503 . S
La201 C211 2.928 . S
La201 O223 2.482 . S
La201 O225 2.503 . S
La201 O226 2.521 . S
La201 O227 2.628 . S
La201 O228 2.554 . S
La201 O229 2.757 . S
La201 O230 2.470 . S
C202 La200 2.928 . S
C202 C203 1.503 . S
C202 O220 1.261 . S
C202 O221 1.243 . S
C203 C202 1.503 . S
C203 C204 1.394 . S
C203 C208 1.373 . S
C204 C203 1.394 . S
C204 C205 1.380 . S
C204 H232 0.930 . S
C205 C204 1.380 . S
C205 C206 1.376 . S
C205 H233 0.930 . S
C206 C205 1.376 . S
C206 C207 1.370 . S
C207 C206 1.370 . S
C207 C208 1.396 . S
C207 H234 0.929 . S
C208 C203 1.373 . S
C208 C207 1.396 . S
C208 H235 0.929 . S
C209 O222 1.240 . S
C209 O223 1.289 . S
C210 O224 1.258 . S
C210 O225 1.256 . S
C211 La201 2.928 . S
C211 C212 1.503 . S
C211 O226 1.261 . S
C211 O227 1.243 . S
C212 C211 1.503 . S
C212 C213 1.394 . S
C212 C217 1.373 . S
C213 C212 1.394 . S
C213 C214 1.380 . S
C213 H236 0.930 . S
C214 C213 1.380 . S
C214 C215 1.376 . S
C214 H237 0.930 . S
C215 C214 1.376 . S
C215 C216 1.370 . S
C216 C215 1.370 . S
C216 C217 1.396 . S
C216 H238 0.929 . S
C217 C212 1.373 . S
C217 C216 1.396 . S
C217 H239 0.929 . S
C218 O228 1.240 . S
C218 O229 1.289 . S
C219 O230 1.258 . S
C219 O231 1.256 . S
O220 La200 2.521 . S
O220 C202 1.261 . S
O221 La200 2.628 . S
O221 C202 1.243 . S
O222 La200 2.554 . S
O222 C209 1.240 . S
O223 La200 2.757 . S
O223 La201 2.482 . S
O223 C209 1.289 . S
O224 La200 2.470 . S
O224 C210 1.258 . S
O225 La201 2.503 . S
O225 C210 1.256 . S
O226 La201 2.521 . S
O226 C211 1.261 . S
O227 La201 2.628 . S
O227 C211 1.243 . S
O228 La201 2.554 . S
O228 C218 1.240 . S
O229 La200 2.482 . S
O229 La201 2.757 . S
O229 C218 1.289 . S
O230 La201 2.470 . S
O230 C219 1.258 . S
O231 La200 2.503 . S
O231 C219 1.256 . S
H232 C204 0.930 . S
H233 C205 0.930 . S
H234 C207 0.929 . S
H235 C208 0.929 . S
H236 C213 0.930 . S
H237 C214 0.930 . S
H238 C216 0.929 . S
H239 C217 0.929 . S
La240 C242 2.928 . S
La240 O260 2.521 . S
La240 O261 2.628 . S
La240 O262 2.554 . S
La240 O263 2.757 . S
La240 O264 2.470 . S
La240 O269 2.482 . S
La240 O271 2.503 . S
La241 C251 2.928 . S
La241 O263 2.482 . S
La241 O265 2.503 . S
La241 O266 2.521 . S
La241 O267 2.628 . S
La241 O268 2.554 . S
La241 O269 2.757 . S
La241 O270 2.470 . S
C242 La240 2.928 . S
C242 C243 1.503 . S
C242 O260 1.261 . S
C242 O261 1.243 . S
C243 C242 1.503 . S
C243 C244 1.394 . S
C243 C248 1.373 . S
C244 C243 1.394 . S
C244 C245 1.380 . S
C244 H272 0.930 . S
C245 C244 1.380 . S
C245 C246 1.376 . S
C245 H273 0.930 . S
C246 C245 1.376 . S
C246 C247 1.370 . S
C247 C246 1.370 . S
C247 C248 1.396 . S
C247 H274 0.929 . S
C248 C243 1.373 . S
C248 C247 1.396 . S
C248 H275 0.929 . S
C249 O262 1.240 . S
C249 O263 1.289 . S
C250 O264 1.258 . S
C250 O265 1.256 . S
C251 La241 2.928 . S
C251 C252 1.503 . S
C251 O266 1.261 . S
C251 O267 1.243 . S
C252 C251 1.503 . S
C252 C253 1.394 . S
C252 C257 1.373 . S
C253 C252 1.394 . S
C253 C254 1.380 . S
C253 H276 0.930 . S
C254 C253 1.380 . S
C254 C255 1.376 . S
C254 H277 0.930 . S
C255 C254 1.376 . S
C255 C256 1.370 . S
C256 C255 1.370 . S
C256 C257 1.396 . S
C256 H278 0.929 . S
C257 C252 1.373 . S
C257 C256 1.396 . S
C257 H279 0.929 . S
C258 O268 1.240 . S
C258 O269 1.289 . S
C259 O270 1.258 . S
C259 O271 1.256 . S
O260 La240 2.521 . S
O260 C242 1.261 . S
O261 La240 2.628 . S
O261 C242 1.243 . S
O262 La240 2.554 . S
O262 C249 1.240 . S
O263 La240 2.757 . S
O263 La241 2.482 . S
O263 C249 1.289 . S
O264 La240 2.470 . S
O264 C250 1.258 . S
O265 La241 2.503 . S
O265 C250 1.256 . S
O266 La241 2.521 . S
O266 C251 1.261 . S
O267 La241 2.628 . S
O267 C251 1.243 . S
O268 La241 2.554 . S
O268 C258 1.240 . S
O269 La240 2.482 . S
O269 La241 2.757 . S
O269 C258 1.289 . S
O270 La241 2.470 . S
O270 C259 1.258 . S
O271 La240 2.503 . S
O271 C259 1.256 . S
H272 C244 0.930 . S
H273 C245 0.930 . S
H274 C247 0.929 . S
H275 C248 0.929 . S
H276 C253 0.930 . S
H277 C254 0.930 . S
H278 C256 0.929 . S
H279 C257 0.929 . S
La280 C282 2.928 . S
La280 O300 2.521 . S
La280 O301 2.628 . S
La280 O302 2.554 . S
La280 O303 2.757 . S
La280 O304 2.470 . S
La280 O309 2.482 . S
La280 O311 2.503 . S
La281 C291 2.928 . S
La281 O303 2.482 . S
La281 O305 2.503 . S
La281 O306 2.521 . S
La281 O307 2.628 . S
La281 O308 2.557 . S
La281 O309 2.757 . S
La281 O310 2.470 . S
C282 La280 2.928 . S
C282 C283 1.503 . S
C282 O300 1.261 . S
C282 O301 1.243 . S
C283 C282 1.503 . S
C283 C284 1.394 . S
C283 C288 1.373 . S
C284 C283 1.394 . S
C284 C285 1.380 . S
C284 H312 0.930 . S
C285 C284 1.380 . S
C285 C286 1.376 . S
C285 H313 0.930 . S
C286 C285 1.376 . S
C286 C287 1.370 . S
C287 C286 1.370 . S
C287 C288 1.396 . S
C287 H314 0.929 . S
C288 C283 1.373 . S
C288 C287 1.396 . S
C288 H315 0.929 . S
C289 O302 1.240 . S
C289 O303 1.289 . S
C290 O304 1.258 . S
C290 O305 1.256 . S
C291 La281 2.928 . S
C291 C292 1.503 . S
C291 O306 1.261 . S
C291 O307 1.243 . S
C292 C291 1.503 . S
C292 C293 1.394 . S
C292 C297 1.373 . S
C293 C292 1.394 . S
C293 C294 1.380 . S
C293 H316 0.930 . S
C294 C293 1.380 . S
C294 C295 1.376 . S
C294 H317 0.930 . S
C295 C294 1.376 . S
C295 C296 1.370 . S
C296 C295 1.370 . S
C296 C297 1.396 . S
C296 H318 0.929 . S
C297 C292 1.373 . S
C297 C296 1.396 . S
C297 H319 0.929 . S
C298 O308 1.240 . S
C298 O309 1.289 . S
C299 O310 1.258 . S
C299 O311 1.256 . S
O300 La280 2.521 . S
O300 C282 1.261 . S
O301 La280 2.628 . S
O301 C282 1.243 . S
O302 La280 2.554 . S
O302 C289 1.240 . S
O303 La280 2.757 . S
O303 La281 2.482 . S
O303 C289 1.289 . S
O304 La280 2.470 . S
O304 C290 1.258 . S
O305 La281 2.503 . S
O305 C290 1.256 . S
O306 La281 2.521 . S
O306 C291 1.261 . S
O307 La281 2.628 . S
O307 C291 1.243 . S
O308 La281 2.557 . S
O308 C298 1.240 . S
O309 La280 2.482 . S
O309 La281 2.757 . S
O309 C298 1.289 . S
O310 La281 2.470 . S
O310 C299 1.258 . S
O311 La280 2.503 . S
O311 C299 1.256 . S
H312 C284 0.930 . S
H313 C285 0.930 . S
H314 C287 0.929 . S
H315 C288 0.929 . S
H316 C293 0.930 . S
H317 C294 0.930 . S
H318 C296 0.929 . S
H319 C297 0.929 . S
La320 C322 2.928 . S
La320 O340 2.521 . S
La320 O341 2.628 . S
La320 O342 2.554 . S
La320 O343 2.757 . S
La320 O344 2.470 . S
La320 O349 2.482 . S
La320 O351 2.503 . S
La321 C331 2.928 . S
La321 O343 2.482 . S
La321 O345 2.503 . S
La321 O346 2.521 . S
La321 O347 2.628 . S
La321 O348 2.556 . S
La321 O349 2.757 . S
La321 O350 2.470 . S
C322 La320 2.928 . S
C322 C323 1.503 . S
C322 O340 1.261 . S
C322 O341 1.243 . S
C323 C322 1.503 . S
C323 C324 1.394 . S
C323 C328 1.373 . S
C324 C323 1.394 . S
C324 C325 1.380 . S
C324 H352 0.930 . S
C325 C324 1.380 . S
C325 C326 1.376 . S
C325 H353 0.930 . S
C326 C325 1.376 . S
C326 C327 1.370 . S
C327 C326 1.370 . S
C327 C328 1.396 . S
C327 H354 0.929 . S
C328 C323 1.373 . S
C328 C327 1.396 . S
C328 H355 0.929 . S
C329 O342 1.240 . S
C329 O343 1.289 . S
C330 O344 1.258 . S
C330 O345 1.256 . S
C331 La321 2.928 . S
C331 C332 1.503 . S
C331 O346 1.261 . S
C331 O347 1.243 . S
C332 C331 1.503 . S
C332 C333 1.394 . S
C332 C337 1.373 . S
C333 C332 1.394 . S
C333 C334 1.380 . S
C333 H356 0.930 . S
C334 C333 1.380 . S
C334 C335 1.376 . S
C334 H357 0.930 . S
C335 C334 1.376 . S
C335 C336 1.370 . S
C336 C335 1.370 . S
C336 C337 1.396 . S
C336 H358 0.929 . S
C337 C332 1.373 . S
C337 C336 1.396 . S
C337 H359 0.929 . S
C338 O348 1.240 . S
C338 O349 1.289 . S
C339 O350 1.258 . S
C339 O351 1.256 . S
O340 La320 2.521 . S
O340 C322 1.261 . S
O341 La320 2.628 . S
O341 C322 1.243 . S
O342 La320 2.554 . S
O342 C329 1.240 . S
O343 La320 2.757 . S
O343 La321 2.482 . S
O343 C329 1.289 . S
O344 La320 2.470 . S
O344 C330 1.258 . S
O345 La321 2.503 . S
O345 C330 1.256 . S
O346 La321 2.521 . S
O346 C331 1.261 . S
O347 La321 2.628 . S
O347 C331 1.243 . S
O348 La321 2.556 . S
O348 C338 1.240 . S
O349 La320 2.482 . S
O349 La321 2.757 . S
O349 C338 1.289 . S
O350 La321 2.470 . S
O350 C339 1.258 . S
O351 La320 2.503 . S
O351 C339 1.256 . S
H352 C324 0.930 . S
H353 C325 0.930 . S
H354 C327 0.929 . S
H355 C328 0.929 . S
H356 C333 0.930 . S
H357 C334 0.930 . S
H358 C336 0.929 . S
H359 C337 0.929 . S
La360 C362 2.928 . S
La360 O380 2.521 . S
La360 O381 2.628 . S
La360 O382 2.554 . S
La360 O383 2.757 . S
La360 O384 2.470 . S
La360 O389 2.482 . S
La360 O391 2.503 . S
La361 C371 2.928 . S
La361 O383 2.482 . S
La361 O385 2.503 . S
La361 O386 2.521 . S
La361 O387 2.628 . S
La361 O388 2.554 . S
La361 O389 2.757 . S
La361 O390 2.470 . S
C362 La360 2.928 . S
C362 C363 1.503 . S
C362 O380 1.261 . S
C362 O381 1.243 . S
C363 C362 1.503 . S
C363 C364 1.394 . S
C363 C368 1.373 . S
C364 C363 1.394 . S
C364 C365 1.380 . S
C364 H392 0.930 . S
C365 C364 1.380 . S
C365 C366 1.376 . S
C365 H393 0.930 . S
C366 C365 1.376 . S
C366 C367 1.370 . S
C367 C366 1.370 . S
C367 C368 1.396 . S
C367 H394 0.929 . S
C368 C363 1.373 . S
C368 C367 1.396 . S
C368 H395 0.929 . S
C369 O382 1.240 . S
C369 O383 1.289 . S
C370 O384 1.258 . S
C370 O385 1.256 . S
C371 La361 2.928 . S
C371 C372 1.503 . S
C371 O386 1.261 . S
C371 O387 1.243 . S
C372 C371 1.503 . S
C372 C373 1.394 . S
C372 C377 1.373 . S
C373 C372 1.394 . S
C373 C374 1.380 . S
C373 H396 0.930 . S
C374 C373 1.380 . S
C374 C375 1.376 . S
C374 H397 0.930 . S
C375 C374 1.376 . S
C375 C376 1.370 . S
C376 C375 1.370 . S
C376 C377 1.396 . S
C376 H398 0.929 . S
C377 C372 1.373 . S
C377 C376 1.396 . S
C377 H399 0.929 . S
C378 O388 1.240 . S
C378 O389 1.289 . S
C379 O390 1.258 . S
C379 O391 1.256 . S
O380 La360 2.521 . S
O380 C362 1.261 . S
O381 La360 2.628 . S
O381 C362 1.243 . S
O382 La360 2.554 . S
O382 C369 1.240 . S
O383 La360 2.757 . S
O383 La361 2.482 . S
O383 C369 1.289 . S
O384 La360 2.470 . S
O384 C370 1.258 . S
O385 La361 2.503 . S
O385 C370 1.256 . S
O386 La361 2.521 . S
O386 C371 1.261 . S
O387 La361 2.628 . S
O387 C371 1.243 . S
O388 La361 2.554 . S
O388 C378 1.240 . S
O389 La360 2.482 . S
O389 La361 2.757 . S
O389 C378 1.289 . S
O390 La361 2.470 . S
O390 C379 1.258 . S
O391 La360 2.503 . S
O391 C379 1.256 . S
H392 C364 0.930 . S
H393 C365 0.930 . S
H394 C367 0.929 . S
H395 C368 0.929 . S
H396 C373 0.930 . S
H397 C374 0.930 . S
H398 C376 0.929 . S
H399 C377 0.929 . S
La400 C402 2.928 . S
La400 O420 2.521 . S
La400 O421 2.628 . S
La400 O422 2.554 . S
La400 O423 2.757 . S
La400 O424 2.470 . S
La400 O429 2.482 . S
La400 O431 2.503 . S
La401 C411 2.928 . S
La401 O423 2.482 . S
La401 O425 2.503 . S
La401 O426 2.521 . S
La401 O427 2.628 . S
La401 O428 2.554 . S
La401 O429 2.757 . S
La401 O430 2.470 . S
C402 La400 2.928 . S
C402 C403 1.503 . S
C402 O420 1.261 . S
C402 O421 1.243 . S
C403 C402 1.503 . S
C403 C404 1.394 . S
C403 C408 1.373 . S
C404 C403 1.394 . S
C404 C405 1.380 . S
C404 H432 0.930 . S
C405 C404 1.380 . S
C405 C406 1.376 . S
C405 H433 0.930 . S
C406 C405 1.376 . S
C406 C407 1.370 . S
C407 C406 1.370 . S
C407 C408 1.396 . S
C407 H434 0.929 . S
C408 C403 1.373 . S
C408 C407 1.396 . S
C408 H435 0.929 . S
C409 O422 1.240 . S
C409 O423 1.289 . S
C410 O424 1.258 . S
C410 O425 1.256 . S
C411 La401 2.928 . S
C411 C412 1.503 . S
C411 O426 1.261 . S
C411 O427 1.243 . S
C412 C411 1.503 . S
C412 C413 1.394 . S
C412 C417 1.373 . S
C413 C412 1.394 . S
C413 C414 1.380 . S
C413 H436 0.930 . S
C414 C413 1.380 . S
C414 C415 1.376 . S
C414 H437 0.930 . S
C415 C414 1.376 . S
C415 C416 1.370 . S
C416 C415 1.370 . S
C416 C417 1.396 . S
C416 H438 0.929 . S
C417 C412 1.373 . S
C417 C416 1.396 . S
C417 H439 0.929 . S
C418 O428 1.240 . S
C418 O429 1.289 . S
C419 O430 1.258 . S
C419 O431 1.256 . S
O420 La400 2.521 . S
O420 C402 1.261 . S
O421 La400 2.628 . S
O421 C402 1.243 . S
O422 La400 2.554 . S
O422 C409 1.240 . S
O423 La400 2.757 . S
O423 La401 2.482 . S
O423 C409 1.289 . S
O424 La400 2.470 . S
O424 C410 1.258 . S
O425 La401 2.503 . S
O425 C410 1.256 . S
O426 La401 2.521 . S
O426 C411 1.261 . S
O427 La401 2.628 . S
O427 C411 1.243 . S
O428 La401 2.554 . S
O428 C418 1.240 . S
O429 La400 2.482 . S
O429 La401 2.757 . S
O429 C418 1.289 . S
O430 La401 2.470 . S
O430 C419 1.258 . S
O431 La400 2.503 . S
O431 C419 1.256 . S
H432 C404 0.930 . S
H433 C405 0.930 . S
H434 C407 0.929 . S
H435 C408 0.929 . S
H436 C413 0.930 . S
H437 C414 0.930 . S
H438 C416 0.929 . S
H439 C417 0.929 . S
La440 C442 2.928 . S
La440 O460 2.521 . S
La440 O461 2.628 . S
La440 O462 2.554 . S
La440 O463 2.757 . S
La440 O464 2.470 . S
La440 O469 2.482 . S
La440 O471 2.503 . S
La441 C451 2.928 . S
La441 O463 2.482 . S
La441 O465 2.503 . S
La441 O466 2.521 . S
La441 O467 2.628 . S
La441 O468 2.554 . S
La441 O469 2.757 . S
La441 O470 2.470 . S
C442 La440 2.928 . S
C442 C443 1.503 . S
C442 O460 1.261 . S
C442 O461 1.243 . S
C443 C442 1.503 . S
C443 C444 1.394 . S
C443 C448 1.373 . S
C444 C443 1.394 . S
C444 C445 1.380 . S
C444 H472 0.930 . S
C445 C444 1.380 . S
C445 C446 1.376 . S
C445 H473 0.930 . S
C446 C445 1.376 . S
C446 C447 1.370 . S
C447 C446 1.370 . S
C447 C448 1.396 . S
C447 H474 0.929 . S
C448 C443 1.373 . S
C448 C447 1.396 . S
C448 H475 0.929 . S
C449 O462 1.240 . S
C449 O463 1.289 . S
C450 O464 1.258 . S
C450 O465 1.256 . S
C451 La441 2.928 . S
C451 C452 1.503 . S
C451 O466 1.261 . S
C451 O467 1.243 . S
C452 C451 1.503 . S
C452 C453 1.394 . S
C452 C457 1.373 . S
C453 C452 1.394 . S
C453 C454 1.380 . S
C453 H476 0.930 . S
C454 C453 1.380 . S
C454 C455 1.376 . S
C454 H477 0.930 . S
C455 C454 1.376 . S
C455 C456 1.370 . S
C456 C455 1.370 . S
C456 C457 1.396 . S
C456 H478 0.929 . S
C457 C452 1.373 . S
C457 C456 1.396 . S
C457 H479 0.929 . S
C458 O468 1.240 . S
C458 O469 1.289 . S
C459 O470 1.258 . S
C459 O471 1.256 . S
O460 La440 2.521 . S
O460 C442 1.261 . S
O461 La440 2.628 . S
O461 C442 1.243 . S
O462 La440 2.554 . S
O462 C449 1.240 . S
O463 La440 2.757 . S
O463 La441 2.482 . S
O463 C449 1.289 . S
O464 La440 2.470 . S
O464 C450 1.258 . S
O465 La441 2.503 . S
O465 C450 1.256 . S
O466 La441 2.521 . S
O466 C451 1.261 . S
O467 La441 2.628 . S
O467 C451 1.243 . S
O468 La441 2.554 . S
O468 C458 1.240 . S
O469 La440 2.482 . S
O469 La441 2.757 . S
O469 C458 1.289 . S
O470 La441 2.470 . S
O470 C459 1.258 . S
O471 La440 2.503 . S
O471 C459 1.256 . S
H472 C444 0.930 . S
H473 C445 0.930 . S
H474 C447 0.929 . S
H475 C448 0.929 . S
H476 C453 0.930 . S
H477 C454 0.930 . S
H478 C456 0.929 . S
H479 C457 0.929 . S
La480 C482 2.928 . S
La480 O500 2.521 . S
La480 O501 2.628 . S
La480 O502 2.554 . S
La480 O503 2.757 . S
La480 O504 2.470 . S
La480 O509 2.482 . S
La480 O511 2.503 . S
La481 C491 2.928 . S
La481 O503 2.482 . S
La481 O505 2.503 . S
La481 O506 2.521 . S
La481 O507 2.628 . S
La481 O508 2.554 . S
La481 O509 2.757 . S
La481 O510 2.470 . S
C482 La480 2.928 . S
C482 C483 1.503 . S
C482 O500 1.261 . S
C482 O501 1.243 . S
C483 C482 1.503 . S
C483 C484 1.394 . S
C483 C488 1.373 . S
C484 C483 1.394 . S
C484 C485 1.380 . S
C484 H512 0.930 . S
C485 C484 1.380 . S
C485 C486 1.376 . S
C485 H513 0.930 . S
C486 C485 1.376 . S
C486 C487 1.370 . S
C487 C486 1.370 . S
C487 C488 1.396 . S
C487 H514 0.929 . S
C488 C483 1.373 . S
C488 C487 1.396 . S
C488 H515 0.929 . S
C489 O502 1.240 . S
C489 O503 1.289 . S
C490 O504 1.258 . S
C490 O505 1.256 . S
C491 La481 2.928 . S
C491 C492 1.503 . S
C491 O506 1.261 . S
C491 O507 1.243 . S
C492 C491 1.503 . S
C492 C493 1.394 . S
C492 C497 1.373 . S
C493 C492 1.394 . S
C493 C494 1.380 . S
C493 H516 0.930 . S
C494 C493 1.380 . S
C494 C495 1.376 . S
C494 H517 0.930 . S
C495 C494 1.376 . S
C495 C496 1.370 . S
C496 C495 1.370 . S
C496 C497 1.396 . S
C496 H518 0.929 . S
C497 C492 1.373 . S
C497 C496 1.396 . S
C497 H519 0.929 . S
C498 O508 1.240 . S
C498 O509 1.289 . S
C499 O510 1.258 . S
C499 O511 1.256 . S
O500 La480 2.521 . S
O500 C482 1.261 . S
O501 La480 2.628 . S
O501 C482 1.243 . S
O502 La480 2.554 . S
O502 C489 1.240 . S
O503 La480 2.757 . S
O503 La481 2.482 . S
O503 C489 1.289 . S
O504 La480 2.470 . S
O504 C490 1.258 . S
O505 La481 2.503 . S
O505 C490 1.256 . S
O506 La481 2.521 . S
O506 C491 1.261 . S
O507 La481 2.628 . S
O507 C491 1.243 . S
O508 La481 2.554 . S
O508 C498 1.240 . S
O509 La480 2.482 . S
O509 La481 2.757 . S
O509 C498 1.289 . S
O510 La481 2.470 . S
O510 C499 1.258 . S
O511 La480 2.503 . S
O511 C499 1.256 . S
H512 C484 0.930 . S
H513 C485 0.930 . S
H514 C487 0.929 . S
H515 C488 0.929 . S
H516 C493 0.930 . S
H517 C494 0.930 . S
H518 C496 0.929 . S
H519 C497 0.929 . S
La520 C522 2.928 . S
La520 O540 2.521 . S
La520 O541 2.628 . S
La520 O542 2.554 . S
La520 O543 2.757 . S
La520 O544 2.470 . S
La520 O549 2.482 . S
La520 O551 2.503 . S
La521 C531 2.928 . S
La521 O543 2.482 . S
La521 O545 2.503 . S
La521 O546 2.521 . S
La521 O547 2.628 . S
La521 O548 2.554 . S
La521 O549 2.757 . S
La521 O550 2.470 . S
C522 La520 2.928 . S
C522 C523 1.503 . S
C522 O540 1.261 . S
C522 O541 1.243 . S
C523 C522 1.503 . S
C523 C524 1.394 . S
C523 C528 1.373 . S
C524 C523 1.394 . S
C524 C525 1.380 . S
C524 H552 0.930 . S
C525 C524 1.380 . S
C525 C526 1.376 . S
C525 H553 0.930 . S
C526 C525 1.376 . S
C526 C527 1.370 . S
C527 C526 1.370 . S
C527 C528 1.396 . S
C527 H554 0.929 . S
C528 C523 1.373 . S
C528 C527 1.396 . S
C528 H555 0.929 . S
C529 O542 1.240 . S
C529 O543 1.289 . S
C530 O544 1.258 . S
C530 O545 1.256 . S
C531 La521 2.928 . S
C531 C532 1.503 . S
C531 O546 1.261 . S
C531 O547 1.243 . S
C532 C531 1.503 . S
C532 C533 1.394 . S
C532 C537 1.373 . S
C533 C532 1.394 . S
C533 C534 1.380 . S
C533 H556 0.930 . S
C534 C533 1.380 . S
C534 C535 1.376 . S
C534 H557 0.930 . S
C535 C534 1.376 . S
C535 C536 1.370 . S
C536 C535 1.370 . S
C536 C537 1.396 . S
C536 H558 0.929 . S
C537 C532 1.373 . S
C537 C536 1.396 . S
C537 H559 0.929 . S
C538 O548 1.240 . S
C538 O549 1.289 . S
C539 O550 1.258 . S
C539 O551 1.256 . S
O540 La520 2.521 . S
O540 C522 1.261 . S
O541 La520 2.628 . S
O541 C522 1.243 . S
O542 La520 2.554 . S
O542 C529 1.240 . S
O543 La520 2.757 . S
O543 La521 2.482 . S
O543 C529 1.289 . S
O544 La520 2.470 . S
O544 C530 1.258 . S
O545 La521 2.503 . S
O545 C530 1.256 . S
O546 La521 2.521 . S
O546 C531 1.261 . S
O547 La521 2.628 . S
O547 C531 1.243 . S
O548 La521 2.554 . S
O548 C538 1.240 . S
O549 La520 2.482 . S
O549 La521 2.757 . S
O549 C538 1.289 . S
O550 La521 2.470 . S
O550 C539 1.258 . S
O551 La520 2.503 . S
O551 C539 1.256 . S
H552 C524 0.930 . S
H553 C525 0.930 . S
H554 C527 0.929 . S
H555 C528 0.929 . S
H556 C533 0.930 . S
H557 C534 0.930 . S
H558 C536 0.929 . S
H559 C537 0.929 . S
La560 C562 2.928 . S
La560 O580 2.521 . S
La560 O581 2.628 . S
La560 O582 2.554 . S
La560 O583 2.757 . S
La560 O584 2.470 . S
La560 O589 2.482 . S
La560 O591 2.503 . S
La561 C571 2.928 . S
La561 O583 2.482 . S
La561 O585 2.503 . S
La561 O586 2.521 . S
La561 O587 2.628 . S
La561 O588 2.554 . S
La561 O589 2.757 . S
La561 O590 2.470 . S
C562 La560 2.928 . S
C562 C563 1.503 . S
C562 O580 1.261 . S
C562 O581 1.243 . S
C563 C562 1.503 . S
C563 C564 1.394 . S
C563 C568 1.373 . S
C564 C563 1.394 . S
C564 C565 1.380 . S
C564 H592 0.930 . S
C565 C564 1.380 . S
C565 C566 1.376 . S
C565 H593 0.930 . S
C566 C565 1.376 . S
C566 C567 1.370 . S
C567 C566 1.370 . S
C567 C568 1.396 . S
C567 H594 0.929 . S
C568 C563 1.373 . S
C568 C567 1.396 . S
C568 H595 0.929 . S
C569 O582 1.240 . S
C569 O583 1.289 . S
C570 O584 1.258 . S
C570 O585 1.256 . S
C571 La561 2.928 . S
C571 C572 1.503 . S
C571 O586 1.261 . S
C571 O587 1.243 . S
C572 C571 1.503 . S
C572 C573 1.394 . S
C572 C577 1.373 . S
C573 C572 1.394 . S
C573 C574 1.380 . S
C573 H596 0.930 . S
C574 C573 1.380 . S
C574 C575 1.376 . S
C574 H597 0.930 . S
C575 C574 1.376 . S
C575 C576 1.370 . S
C576 C575 1.370 . S
C576 C577 1.396 . S
C576 H598 0.929 . S
C577 C572 1.373 . S
C577 C576 1.396 . S
C577 H599 0.929 . S
C578 O588 1.240 . S
C578 O589 1.289 . S
C579 O590 1.258 . S
C579 O591 1.256 . S
O580 La560 2.521 . S
O580 C562 1.261 . S
O581 La560 2.628 . S
O581 C562 1.243 . S
O582 La560 2.554 . S
O582 C569 1.240 . S
O583 La560 2.757 . S
O583 La561 2.482 . S
O583 C569 1.289 . S
O584 La560 2.470 . S
O584 C570 1.258 . S
O585 La561 2.503 . S
O585 C570 1.256 . S
O586 La561 2.521 . S
O586 C571 1.261 . S
O587 La561 2.628 . S
O587 C571 1.243 . S
O588 La561 2.554 . S
O588 C578 1.240 . S
O589 La560 2.482 . S
O589 La561 2.757 . S
O589 C578 1.289 . S
O590 La561 2.470 . S
O590 C579 1.258 . S
O591 La560 2.503 . S
O591 C579 1.256 . S
H592 C564 0.930 . S
H593 C565 0.930 . S
H594 C567 0.929 . S
H595 C568 0.929 . S
H596 C573 0.930 . S
H597 C574 0.930 . S
H598 C576 0.929 . S
H599 C577 0.929 . S
La600 C602 2.928 . S
La600 O620 2.521 . S
La600 O621 2.628 . S
La600 O622 2.554 . S
La600 O623 2.757 . S
La600 O624 2.470 . S
La600 O629 2.482 . S
La600 O631 2.503 . S
La601 C611 2.928 . S
La601 O623 2.482 . S
La601 O625 2.503 . S
La601 O626 2.521 . S
La601 O627 2.628 . S
La601 O628 2.554 . S
La601 O629 2.757 . S
La601 O630 2.470 . S
C602 La600 2.928 . S
C602 C603 1.503 . S
C602 O620 1.261 . S
C602 O621 1.243 . S
C603 C602 1.503 . S
C603 C604 1.394 . S
C603 C608 1.373 1_655 S
C604 C603 1.394 . S
C604 C605 1.380 . S
C604 H632 0.930 . S
C605 C604 1.380 . S
C605 C606 1.376 1_655 S
C605 H633 0.930 . S
C606 C605 1.376 1_455 S
C606 C607 1.370 . S
C607 C606 1.370 . S
C607 C608 1.396 . S
C607 H634 0.929 . S
C608 C603 1.373 1_455 S
C608 C607 1.396 . S
C608 H635 0.929 . S
C609 O622 1.240 . S
C609 O623 1.289 . S
C610 O624 1.258 . S
C610 O625 1.256 . S
C611 La601 2.928 . S
C611 C612 1.503 . S
C611 O626 1.261 . S
C611 O627 1.243 . S
C612 C611 1.503 . S
C612 C613 1.394 . S
C612 C617 1.373 . S
C613 C612 1.394 . S
C613 C614 1.380 . S
C613 H636 0.930 . S
C614 C613 1.380 . S
C614 C615 1.376 . S
C614 H637 0.930 . S
C615 C614 1.376 . S
C615 C616 1.370 . S
C616 C615 1.370 . S
C616 C617 1.396 . S
C616 H638 0.929 . S
C617 C612 1.373 . S
C617 C616 1.396 . S
C617 H639 0.929 . S
C618 O628 1.240 . S
C618 O629 1.289 . S
C619 O630 1.258 . S
C619 O631 1.256 . S
O620 La600 2.521 . S
O620 C602 1.261 . S
O621 La600 2.628 . S
O621 C602 1.243 . S
O622 La600 2.554 . S
O622 C609 1.240 . S
O623 La600 2.757 . S
O623 La601 2.482 . S
O623 C609 1.289 . S
O624 La600 2.470 . S
O624 C610 1.258 . S
O625 La601 2.503 . S
O625 C610 1.256 . S
O626 La601 2.521 . S
O626 C611 1.261 . S
O627 La601 2.628 . S
O627 C611 1.243 . S
O628 La601 2.554 . S
O628 C618 1.240 . S
O629 La600 2.482 . S
O629 La601 2.757 . S
O629 C618 1.289 . S
O630 La601 2.470 . S
O630 C619 1.258 . S
O631 La600 2.503 . S
O631 C619 1.256 . S
H632 C604 0.930 . S
H633 C605 0.930 . S
H634 C607 0.929 . S
H635 C608 0.929 . S
H636 C613 0.930 . S
H637 C614 0.930 . S
H638 C616 0.929 . S
H639 C617 0.929 . S
La640 C642 2.928 . S
La640 O660 2.521 . S
La640 O661 2.628 . S
La640 O662 2.554 . S
La640 O663 2.757 . S
La640 O664 2.470 . S
La640 O669 2.482 . S
La640 O671 2.503 . S
La641 C651 2.928 . S
La641 O663 2.482 . S
La641 O665 2.503 . S
La641 O666 2.521 . S
La641 O667 2.628 . S
La641 O668 2.554 . S
La641 O669 2.757 . S
La641 O670 2.470 . S
C642 La640 2.928 . S
C642 C643 1.503 . S
C642 O660 1.261 . S
C642 O661 1.243 . S
C643 C642 1.503 . S
C643 C644 1.394 . S
C643 C648 1.373 . S
C644 C643 1.394 . S
C644 C645 1.380 . S
C644 H672 0.930 . S
C645 C644 1.380 . S
C645 C646 1.376 . S
C645 H673 0.930 . S
C646 C645 1.376 . S
C646 C647 1.370 . S
C647 C646 1.370 . S
C647 C648 1.396 . S
C647 H674 0.929 . S
C648 C643 1.373 . S
C648 C647 1.396 . S
C648 H675 0.929 . S
C649 O662 1.240 . S
C649 O663 1.289 . S
C650 O664 1.258 . S
C650 O665 1.256 . S
C651 La641 2.928 . S
C651 C652 1.503 . S
C651 O666 1.261 . S
C651 O667 1.243 . S
C652 C651 1.503 . S
C652 C653 1.394 . S
C652 C657 1.373 . S
C653 C652 1.394 . S
C653 C654 1.380 . S
C653 H676 0.930 . S
C654 C653 1.380 . S
C654 C655 1.376 . S
C654 H677 0.930 . S
C655 C654 1.376 . S
C655 C656 1.370 . S
C656 C655 1.370 . S
C656 C657 1.396 . S
C656 H678 0.929 . S
C657 C652 1.373 . S
C657 C656 1.396 . S
C657 H679 0.929 . S
C658 O668 1.240 . S
C658 O669 1.289 . S
C659 O670 1.258 . S
C659 O671 1.256 . S
O660 La640 2.521 . S
O660 C642 1.261 . S
O661 La640 2.628 . S
O661 C642 1.243 . S
O662 La640 2.554 . S
O662 C649 1.240 . S
O663 La640 2.757 . S
O663 La641 2.482 . S
O663 C649 1.289 . S
O664 La640 2.470 . S
O664 C650 1.258 . S
O665 La641 2.503 . S
O665 C650 1.256 . S
O666 La641 2.521 . S
O666 C651 1.261 . S
O667 La641 2.628 . S
O667 C651 1.243 . S
O668 La641 2.554 . S
O668 C658 1.240 . S
O669 La640 2.482 . S
O669 La641 2.757 . S
O669 C658 1.289 . S
O670 La641 2.470 . S
O670 C659 1.258 . S
O671 La640 2.503 . S
O671 C659 1.256 . S
H672 C644 0.930 . S
H673 C645 0.930 . S
H674 C647 0.929 . S
H675 C648 0.929 . S
H676 C653 0.930 . S
H677 C654 0.930 . S
H678 C656 0.929 . S
H679 C657 0.929 . S
La680 C682 2.928 . S
La680 O700 2.521 . S
La680 O701 2.628 . S
La680 O702 2.554 . S
La680 O703 2.757 . S
La680 O704 2.470 . S
La680 O709 2.482 . S
La680 O711 2.503 . S
La681 C691 2.928 . S
La681 O703 2.482 . S
La681 O705 2.503 . S
La681 O706 2.521 . S
La681 O707 2.628 . S
La681 O708 2.554 . S
La681 O709 2.757 . S
La681 O710 2.470 . S
C682 La680 2.928 . S
C682 C683 1.503 . S
C682 O700 1.261 . S
C682 O701 1.243 . S
C683 C682 1.503 . S
C683 C684 1.394 . S
C683 C688 1.373 1_545 S
C684 C683 1.394 . S
C684 C685 1.380 . S
C684 H712 0.930 . S
C685 C684 1.380 . S
C685 C686 1.376 1_545 S
C685 H713 0.930 . S
C686 C685 1.376 1_565 S
C686 C687 1.370 . S
C687 C686 1.370 . S
C687 C688 1.396 . S
C687 H714 0.929 . S
C688 C683 1.373 1_565 S
C688 C687 1.396 . S
C688 H715 0.929 . S
C689 O702 1.240 . S
C689 O703 1.289 . S
C690 O704 1.258 . S
C690 O705 1.256 . S
C691 La681 2.928 . S
C691 C692 1.503 . S
C691 O706 1.261 . S
C691 O707 1.243 . S
C692 C691 1.503 . S
C692 C693 1.394 . S
C692 C697 1.373 . S
C693 C692 1.394 . S
C693 C694 1.380 . S
C693 H716 0.930 . S
C694 C693 1.380 . S
C694 C695 1.376 . S
C694 H717 0.930 . S
C695 C694 1.376 . S
C695 C696 1.370 . S
C696 C695 1.370 . S
C696 C697 1.396 . S
C696 H718 0.929 . S
C697 C692 1.373 . S
C697 C696 1.396 . S
C697 H719 0.929 . S
C698 O708 1.240 . S
C698 O709 1.289 . S
C699 O710 1.258 . S
C699 O711 1.256 . S
O700 La680 2.521 . S
O700 C682 1.261 . S
O701 La680 2.628 . S
O701 C682 1.243 . S
O702 La680 2.554 . S
O702 C689 1.240 . S
O703 La680 2.757 . S
O703 La681 2.482 . S
O703 C689 1.289 . S
O704 La680 2.470 . S
O704 C690 1.258 . S
O705 La681 2.503 . S
O705 C690 1.256 . S
O706 La681 2.521 . S
O706 C691 1.261 . S
O707 La681 2.628 . S
O707 C691 1.243 . S
O708 La681 2.554 . S
O708 C698 1.240 . S
O709 La680 2.482 . S
O709 La681 2.757 . S
O709 C698 1.289 . S
O710 La681 2.470 . S
O710 C699 1.258 . S
O711 La680 2.503 . S
O711 C699 1.256 . S
H712 C684 0.930 . S
H713 C685 0.930 . S
H714 C687 0.929 . S
H715 C688 0.929 . S
H716 C693 0.930 . S
H717 C694 0.930 . S
H718 C696 0.929 . S
H719 C697 0.929 . S
La720 C722 2.928 . S
La720 O740 2.521 . S
La720 O741 2.628 . S
La720 O742 2.554 . S
La720 O743 2.757 . S
La720 O744 2.470 . S
La720 O749 2.482 . S
La720 O751 2.503 . S
La721 C731 2.928 . S
La721 O743 2.482 . S
La721 O745 2.503 . S
La721 O746 2.521 . S
La721 O747 2.628 . S
La721 O748 2.554 . S
La721 O749 2.757 . S
La721 O750 2.470 . S
C722 La720 2.928 . S
C722 C723 1.503 . S
C722 O740 1.261 . S
C722 O741 1.243 . S
C723 C722 1.503 . S
C723 C724 1.394 . S
C723 C728 1.373 . S
C724 C723 1.394 . S
C724 C725 1.380 . S
C724 H752 0.930 . S
C725 C724 1.380 . S
C725 C726 1.376 . S
C725 H753 0.930 . S
C726 C725 1.376 . S
C726 C727 1.370 . S
C727 C726 1.370 . S
C727 C728 1.396 . S
C727 H754 0.929 . S
C728 C723 1.373 . S
C728 C727 1.396 . S
C728 H755 0.929 . S
C729 O742 1.240 . S
C729 O743 1.289 . S
C730 O744 1.258 . S
C730 O745 1.256 . S
C731 La721 2.928 . S
C731 C732 1.503 . S
C731 O746 1.261 . S
C731 O747 1.243 . S
C732 C731 1.503 . S
C732 C733 1.394 . S
C732 C737 1.373 1_545 S
C733 C732 1.394 . S
C733 C734 1.380 . S
C733 H756 0.930 . S
C734 C733 1.380 . S
C734 C735 1.376 1_545 S
C734 H757 0.930 . S
C735 C734 1.376 1_565 S
C735 C736 1.370 . S
C736 C735 1.370 . S
C736 C737 1.396 . S
C736 H758 0.929 . S
C737 C732 1.373 1_565 S
C737 C736 1.396 . S
C737 H759 0.929 . S
C738 O748 1.240 . S
C738 O749 1.289 . S
C739 O750 1.258 . S
C739 O751 1.256 . S
O740 La720 2.521 . S
O740 C722 1.261 . S
O741 La720 2.628 . S
O741 C722 1.243 . S
O742 La720 2.554 . S
O742 C729 1.240 . S
O743 La720 2.757 . S
O743 La721 2.482 . S
O743 C729 1.289 . S
O744 La720 2.470 . S
O744 C730 1.258 . S
O745 La721 2.503 . S
O745 C730 1.256 . S
O746 La721 2.521 . S
O746 C731 1.261 . S
O747 La721 2.628 . S
O747 C731 1.243 . S
O748 La721 2.554 . S
O748 C738 1.240 . S
O749 La720 2.482 . S
O749 La721 2.757 . S
O749 C738 1.289 . S
O750 La721 2.470 . S
O750 C739 1.258 . S
O751 La720 2.503 . S
O751 C739 1.256 . S
H752 C724 0.930 . S
H753 C725 0.930 . S
H754 C727 0.929 . S
H755 C728 0.929 . S
H756 C733 0.930 . S
H757 C734 0.930 . S
H758 C736 0.929 . S
H759 C737 0.929 . S
La760 C762 2.928 . S
La760 O780 2.521 . S
La760 O781 2.628 . S
La760 O782 2.554 . S
La760 O783 2.757 . S
La760 O784 2.470 . S
La760 O789 2.482 . S
La760 O791 2.503 . S
La761 C771 2.928 . S
La761 O783 2.482 . S
La761 O785 2.503 . S
La761 O786 2.521 . S
La761 O787 2.628 . S
La761 O788 2.554 . S
La761 O789 2.757 . S
La761 O790 2.470 . S
C762 La760 2.928 . S
C762 C763 1.503 . S
C762 O780 1.261 . S
C762 O781 1.243 . S
C763 C762 1.503 . S
C763 C764 1.394 . S
C763 C768 1.373 . S
C764 C763 1.394 . S
C764 C765 1.380 . S
C764 H792 0.930 . S
C765 C764 1.380 . S
C765 C766 1.376 . S
C765 H793 0.930 . S
C766 C765 1.376 . S
C766 C767 1.370 . S
C767 C766 1.370 . S
C767 C768 1.396 . S
C767 H794 0.929 . S
C768 C763 1.373 . S
C768 C767 1.396 . S
C768 H795 0.929 . S
C769 O782 1.240 . S
C769 O783 1.289 . S
C770 O784 1.258 . S
C770 O785 1.256 . S
C771 La761 2.928 . S
C771 C772 1.503 . S
C771 O786 1.261 . S
C771 O787 1.243 . S
C772 C771 1.503 . S
C772 C773 1.394 . S
C772 C777 1.373 1_655 S
C773 C772 1.394 . S
C773 C774 1.380 . S
C773 H796 0.930 . S
C774 C773 1.380 . S
C774 C775 1.376 1_655 S
C774 H797 0.930 . S
C775 C774 1.376 1_455 S
C775 C776 1.370 . S
C776 C775 1.370 . S
C776 C777 1.396 . S
C776 H798 0.929 . S
C777 C772 1.373 1_455 S
C777 C776 1.396 . S
C777 H799 0.929 . S
C778 O788 1.240 . S
C778 O789 1.289 . S
C779 O790 1.258 . S
C779 O791 1.256 . S
O780 La760 2.521 . S
O780 C762 1.261 . S
O781 La760 2.628 . S
O781 C762 1.243 . S
O782 La760 2.554 . S
O782 C769 1.240 . S
O783 La760 2.757 . S
O783 La761 2.482 . S
O783 C769 1.289 . S
O784 La760 2.470 . S
O784 C770 1.258 . S
O785 La761 2.503 . S
O785 C770 1.256 . S
O786 La761 2.521 . S
O786 C771 1.261 . S
O787 La761 2.628 . S
O787 C771 1.243 . S
O788 La761 2.554 . S
O788 C778 1.240 . S
O789 La760 2.482 . S
O789 La761 2.757 . S
O789 C778 1.289 . S
O790 La761 2.470 . S
O790 C779 1.258 . S
O791 La760 2.503 . S
O791 C779 1.256 . S
H792 C764 0.930 . S
H793 C765 0.930 . S
H794 C767 0.929 . S
H795 C768 0.929 . S
H796 C773 0.930 . S
H797 C774 0.930 . S
H798 C776 0.929 . S
H799 C777 0.929 . S
La800 C802 2.928 . S
La800 O820 2.521 . S
La800 O821 2.628 . S
La800 O822 2.554 . S
La800 O823 2.757 . S
La800 O824 2.470 . S
La800 O829 2.482 . S
La800 O831 2.503 . S
La801 C811 2.928 . S
La801 O823 2.482 . S
La801 O825 2.503 . S
La801 O826 2.521 . S
La801 O827 2.628 . S
La801 O828 2.554 . S
La801 O829 2.757 . S
La801 O830 2.470 . S
C802 La800 2.928 . S
C802 C803 1.503 . S
C802 O820 1.261 . S
C802 O821 1.243 . S
C803 C802 1.503 . S
C803 C804 1.394 . S
C803 C808 1.373 . S
C804 C803 1.394 . S
C804 C805 1.380 . S
C804 H832 0.930 . S
C805 C804 1.380 . S
C805 C806 1.376 . S
C805 H833 0.930 . S
C806 C805 1.376 . S
C806 C807 1.370 . S
C807 C806 1.370 . S
C807 C808 1.396 . S
C807 H834 0.929 . S
C808 C803 1.373 . S
C808 C807 1.396 . S
C808 H835 0.929 . S
C809 O822 1.240 . S
C809 O823 1.289 . S
C810 O824 1.258 . S
C810 O825 1.256 . S
C811 La801 2.928 . S
C811 C812 1.503 . S
C811 O826 1.261 . S
C811 O827 1.243 . S
C812 C811 1.503 . S
C812 C813 1.394 . S
C812 C817 1.373 . S
C813 C812 1.394 . S
C813 C814 1.380 . S
C813 H836 0.930 . S
C814 C813 1.380 . S
C814 C815 1.376 . S
C814 H837 0.930 . S
C815 C814 1.376 . S
C815 C816 1.370 . S
C816 C815 1.370 . S
C816 C817 1.396 . S
C816 H838 0.929 . S
C817 C812 1.373 . S
C817 C816 1.396 . S
C817 H839 0.929 . S
C818 O828 1.240 . S
C818 O829 1.289 . S
C819 O830 1.258 . S
C819 O831 1.256 . S
O820 La800 2.521 . S
O820 C802 1.261 . S
O821 La800 2.628 . S
O821 C802 1.243 . S
O822 La800 2.554 . S
O822 C809 1.240 . S
O823 La800 2.757 . S
O823 La801 2.482 . S
O823 C809 1.289 . S
O824 La800 2.470 . S
O824 C810 1.258 . S
O825 La801 2.503 . S
O825 C810 1.256 . S
O826 La801 2.521 . S
O826 C811 1.261 . S
O827 La801 2.628 . S
O827 C811 1.243 . S
O828 La801 2.554 . S
O828 C818 1.240 . S
O829 La800 2.482 . S
O829 La801 2.757 . S
O829 C818 1.289 . S
O830 La801 2.470 . S
O830 C819 1.258 . S
O831 La800 2.503 . S
O831 C819 1.256 . S
H832 C804 0.930 . S
H833 C805 0.930 . S
H834 C807 0.929 . S
H835 C808 0.929 . S
H836 C813 0.930 . S
H837 C814 0.930 . S
H838 C816 0.929 . S
H839 C817 0.929 . S
La840 C842 2.928 . S
La840 O860 2.521 . S
La840 O861 2.628 . S
La840 O862 2.554 . S
La840 O863 2.757 1_554 S
La840 O864 2.470 . S
La840 O869 2.482 . S
La840 O871 2.503 . S
La841 C851 2.928 . S
La841 O863 2.482 . S
La841 O865 2.503 . S
La841 O866 2.521 . S
La841 O867 2.628 . S
La841 O868 2.554 . S
La841 O869 2.757 1_556 S
La841 O870 2.470 . S
C842 La840 2.928 . S
C842 C843 1.503 . S
C842 O860 1.261 . S
C842 O861 1.243 . S
C843 C842 1.503 . S
C843 C844 1.394 . S
C843 C848 1.373 . S
C844 C843 1.394 . S
C844 C845 1.380 . S
C844 H872 0.930 . S
C845 C844 1.380 . S
C845 C846 1.376 . S
C845 H873 0.930 . S
C846 C845 1.376 . S
C846 C847 1.370 . S
C847 C846 1.370 . S
C847 C848 1.396 . S
C847 H874 0.929 . S
C848 C843 1.373 . S
C848 C847 1.396 . S
C848 H875 0.929 . S
C849 O862 1.240 . S
C849 O863 1.289 1_554 S
C850 O864 1.258 . S
C850 O865 1.256 1_554 S
C851 La841 2.928 . S
C851 C852 1.503 . S
C851 O866 1.261 . S
C851 O867 1.243 . S
C852 C851 1.503 . S
C852 C853 1.394 . S
C852 C857 1.373 . S
C853 C852 1.394 . S
C853 C854 1.380 . S
C853 H876 0.930 . S
C854 C853 1.380 . S
C854 C855 1.376 . S
C854 H877 0.930 . S
C855 C854 1.376 . S
C855 C856 1.370 . S
C856 C855 1.370 . S
C856 C857 1.396 . S
C856 H878 0.929 . S
C857 C852 1.373 . S
C857 C856 1.396 . S
C857 H879 0.929 . S
C858 O868 1.240 . S
C858 O869 1.289 1_556 S
C859 O870 1.258 . S
C859 O871 1.256 1_556 S
O860 La840 2.521 . S
O860 C842 1.261 . S
O861 La840 2.628 . S
O861 C842 1.243 . S
O862 La840 2.554 . S
O862 C849 1.240 . S
O863 La840 2.757 1_556 S
O863 La841 2.482 . S
O863 C849 1.289 1_556 S
O864 La840 2.470 . S
O864 C850 1.258 . S
O865 La841 2.503 . S
O865 C850 1.256 1_556 S
O866 La841 2.521 . S
O866 C851 1.261 . S
O867 La841 2.628 . S
O867 C851 1.243 . S
O868 La841 2.554 . S
O868 C858 1.240 . S
O869 La840 2.482 . S
O869 La841 2.757 1_554 S
O869 C858 1.289 1_554 S
O870 La841 2.470 . S
O870 C859 1.258 . S
O871 La840 2.503 . S
O871 C859 1.256 1_554 S
H872 C844 0.930 . S
H873 C845 0.930 . S
H874 C847 0.929 . S
H875 C848 0.929 . S
H876 C853 0.930 . S
H877 C854 0.930 . S
H878 C856 0.929 . S
H879 C857 0.929 . S
La880 C882 2.928 . S
La880 O900 2.521 . S
La880 O901 2.628 . S
La880 O902 2.554 . S
La880 O903 2.757 1_554 S
La880 O904 2.470 . S
La880 O909 2.482 . S
La880 O911 2.503 . S
La881 C891 2.928 . S
La881 O903 2.482 . S
La881 O905 2.503 . S
La881 O906 2.521 . S
La881 O907 2.628 . S
La881 O908 2.554 . S
La881 O909 2.757 1_556 S
La881 O910 2.470 . S
C882 La880 2.928 . S
C882 C883 1.503 . S
C882 O900 1.261 . S
C882 O901 1.243 . S
C883 C882 1.503 . S
C883 C884 1.394 . S
C883 C888 1.373 . S
C884 C883 1.394 . S
C884 C885 1.380 . S
C884 H912 0.930 . S
C885 C884 1.380 . S
C885 C886 1.376 . S
C885 H913 0.930 . S
C886 C885 1.376 . S
C886 C887 1.370 . S
C887 C886 1.370 . S
C887 C888 1.396 . S
C887 H914 0.929 . S
C888 C883 1.373 . S
C888 C887 1.396 . S
C888 H915 0.929 . S
C889 O902 1.240 . S
C889 O903 1.289 1_554 S
C890 O904 1.258 . S
C890 O905 1.256 1_554 S
C891 La881 2.928 . S
C891 C892 1.503 . S
C891 O906 1.261 . S
C891 O907 1.243 . S
C892 C891 1.503 . S
C892 C893 1.394 . S
C892 C897 1.373 . S
C893 C892 1.394 . S
C893 C894 1.380 . S
C893 H916 0.930 . S
C894 C893 1.380 . S
C894 C895 1.376 . S
C894 H917 0.930 . S
C895 C894 1.376 . S
C895 C896 1.370 . S
C896 C895 1.370 . S
C896 C897 1.396 . S
C896 H918 0.929 . S
C897 C892 1.373 . S
C897 C896 1.396 . S
C897 H919 0.929 . S
C898 O908 1.240 . S
C898 O909 1.289 1_556 S
C899 O910 1.258 . S
C899 O911 1.256 1_556 S
O900 La880 2.521 . S
O900 C882 1.261 . S
O901 La880 2.628 . S
O901 C882 1.243 . S
O902 La880 2.554 . S
O902 C889 1.240 . S
O903 La880 2.757 1_556 S
O903 La881 2.482 . S
O903 C889 1.289 1_556 S
O904 La880 2.470 . S
O904 C890 1.258 . S
O905 La881 2.503 . S
O905 C890 1.256 1_556 S
O906 La881 2.521 . S
O906 C891 1.261 . S
O907 La881 2.628 . S
O907 C891 1.243 . S
O908 La881 2.554 . S
O908 C898 1.240 . S
O909 La880 2.482 . S
O909 La881 2.757 1_554 S
O909 C898 1.289 1_554 S
O910 La881 2.470 . S
O910 C899 1.258 . S
O911 La880 2.503 . S
O911 C899 1.256 1_554 S
H912 C884 0.930 . S
H913 C885 0.930 . S
H914 C887 0.929 . S
H915 C888 0.929 . S
H916 C893 0.930 . S
H917 C894 0.930 . S
H918 C896 0.929 . S
H919 C897 0.929 . S
La920 C922 2.928 . S
La920 O940 2.521 . S
La920 O941 2.628 . S
La920 O942 2.554 . S
La920 O943 2.757 1_554 S
La920 O944 2.470 . S
La920 O949 2.482 . S
La920 O951 2.503 . S
La921 C931 2.928 . S
La921 O943 2.482 . S
La921 O945 2.503 . S
La921 O946 2.521 . S
La921 O947 2.628 . S
La921 O948 2.554 . S
La921 O949 2.757 1_556 S
La921 O950 2.470 . S
C922 La920 2.928 . S
C922 C923 1.503 . S
C922 O940 1.261 . S
C922 O941 1.243 . S
C923 C922 1.503 . S
C923 C924 1.394 . S
C923 C928 1.373 . S
C924 C923 1.394 . S
C924 C925 1.380 . S
C924 H952 0.930 . S
C925 C924 1.380 . S
C925 C926 1.376 . S
C925 H953 0.930 . S
C926 C925 1.376 . S
C926 C927 1.370 . S
C927 C926 1.370 . S
C927 C928 1.396 . S
C927 H954 0.929 . S
C928 C923 1.373 . S
C928 C927 1.396 . S
C928 H955 0.929 . S
C929 O942 1.240 . S
C929 O943 1.289 1_554 S
C930 O944 1.258 . S
C930 O945 1.256 1_554 S
C931 La921 2.928 . S
C931 C932 1.503 . S
C931 O946 1.261 . S
C931 O947 1.243 . S
C932 C931 1.503 . S
C932 C933 1.394 . S
C932 C937 1.373 . S
C933 C932 1.394 . S
C933 C934 1.380 . S
C933 H956 0.930 . S
C934 C933 1.380 . S
C934 C935 1.376 . S
C934 H957 0.930 . S
C935 C934 1.376 . S
C935 C936 1.370 . S
C936 C935 1.370 . S
C936 C937 1.396 . S
C936 H958 0.929 . S
C937 C932 1.373 . S
C937 C936 1.396 . S
C937 H959 0.929 . S
C938 O948 1.240 . S
C938 O949 1.289 1_556 S
C939 O950 1.258 . S
C939 O951 1.256 1_556 S
O940 La920 2.521 . S
O940 C922 1.261 . S
O941 La920 2.628 . S
O941 C922 1.243 . S
O942 La920 2.554 . S
O942 C929 1.240 . S
O943 La920 2.757 1_556 S
O943 La921 2.482 . S
O943 C929 1.289 1_556 S
O944 La920 2.470 . S
O944 C930 1.258 . S
O945 La921 2.503 . S
O945 C930 1.256 1_556 S
O946 La921 2.521 . S
O946 C931 1.261 . S
O947 La921 2.628 . S
O947 C931 1.243 . S
O948 La921 2.554 . S
O948 C938 1.240 . S
O949 La920 2.482 . S
O949 La921 2.757 1_554 S
O949 C938 1.289 1_554 S
O950 La921 2.470 . S
O950 C939 1.258 . S
O951 La920 2.503 . S
O951 C939 1.256 1_554 S
H952 C924 0.930 . S
H953 C925 0.930 . S
H954 C927 0.929 . S
H955 C928 0.929 . S
H956 C933 0.930 . S
H957 C934 0.930 . S
H958 C936 0.929 . S
H959 C937 0.929 . S
La960 C962 2.928 . S
La960 O980 2.521 . S
La960 O981 2.628 . S
La960 O982 2.554 . S
La960 O983 2.757 . S
La960 O984 2.470 . S
La960 O989 2.482 . S
La960 O991 2.503 . S
La961 C971 2.928 . S
La961 O983 2.482 . S
La961 O985 2.503 . S
La961 O986 2.521 . S
La961 O987 2.628 . S
La961 O988 2.554 . S
La961 O989 2.757 . S
La961 O990 2.470 . S
C962 La960 2.928 . S
C962 C963 1.503 . S
C962 O980 1.261 . S
C962 O981 1.243 . S
C963 C962 1.503 . S
C963 C964 1.394 . S
C963 C968 1.373 1_565 S
C964 C963 1.394 . S
C964 C965 1.380 . S
C964 H992 0.930 . S
C965 C964 1.380 . S
C965 C966 1.376 1_565 S
C965 H993 0.930 . S
C966 C965 1.376 1_545 S
C966 C967 1.370 . S
C967 C966 1.370 . S
C967 C968 1.396 . S
C967 H994 0.929 . S
C968 C963 1.373 1_545 S
C968 C967 1.396 . S
C968 H995 0.929 . S
C969 O982 1.240 . S
C969 O983 1.289 . S
C970 O984 1.258 . S
C970 O985 1.256 . S
C971 La961 2.928 . S
C971 C972 1.503 . S
C971 O986 1.261 . S
C971 O987 1.243 . S
C972 C971 1.503 . S
C972 C973 1.394 . S
C972 C977 1.373 . S
C973 C972 1.394 . S
C973 C974 1.380 . S
C973 H996 0.930 . S
C974 C973 1.380 . S
C974 C975 1.376 . S
C974 H997 0.930 . S
C975 C974 1.376 . S
C975 C976 1.370 . S
C976 C975 1.370 . S
C976 C977 1.396 . S
C976 H998 0.929 . S
C977 C972 1.373 . S
C977 C976 1.396 . S
C977 H999 0.929 . S
C978 O988 1.240 . S
C978 O989 1.289 . S
C979 O990 1.258 . S
C979 O991 1.256 . S
O980 La960 2.521 . S
O980 C962 1.261 . S
O981 La960 2.628 . S
O981 C962 1.243 . S
O982 La960 2.554 . S
O982 C969 1.240 . S
O983 La960 2.757 . S
O983 La961 2.482 . S
O983 C969 1.289 . S
O984 La960 2.470 . S
O984 C970 1.258 . S
O985 La961 2.503 . S
O985 C970 1.256 . S
O986 La961 2.521 . S
O986 C971 1.261 . S
O987 La961 2.628 . S
O987 C971 1.243 . S
O988 La961 2.554 . S
O988 C978 1.240 . S
O989 La960 2.482 . S
O989 La961 2.757 . S
O989 C978 1.289 . S
O990 La961 2.470 . S
O990 C979 1.258 . S
O991 La960 2.503 . S
O991 C979 1.256 . S
H992 C964 0.930 . S
H993 C965 0.930 . S
H994 C967 0.929 . S
H995 C968 0.929 . S
H996 C973 0.930 . S
H997 C974 0.930 . S
H998 C976 0.929 . S
H999 C977 0.929 . S
La1000 C1002 2.928 . S
La1000 O1020 2.521 . S
La1000 O1021 2.628 . S
La1000 O1022 2.554 . S
La1000 O1023 2.757 . S
La1000 O1024 2.470 . S
La1000 O1029 2.482 . S
La1000 O1031 2.503 . S
La1001 C1011 2.928 . S
La1001 O1023 2.482 . S
La1001 O1025 2.503 . S
La1001 O1026 2.521 . S
La1001 O1027 2.628 . S
La1001 O1028 2.554 . S
La1001 O1029 2.757 . S
La1001 O1030 2.470 . S
C1002 La1000 2.928 . S
C1002 C1003 1.503 . S
C1002 O1020 1.261 . S
C1002 O1021 1.243 . S
C1003 C1002 1.503 . S
C1003 C1004 1.394 . S
C1003 C1008 1.373 1_455 S
C1004 C1003 1.394 . S
C1004 C1005 1.380 . S
C1004 H1032 0.930 . S
C1005 C1004 1.380 . S
C1005 C1006 1.376 1_455 S
C1005 H1033 0.930 . S
C1006 C1005 1.376 1_655 S
C1006 C1007 1.370 . S
C1007 C1006 1.370 . S
C1007 C1008 1.396 . S
C1007 H1034 0.929 . S
C1008 C1003 1.373 1_655 S
C1008 C1007 1.396 . S
C1008 H1035 0.929 . S
C1009 O1022 1.240 . S
C1009 O1023 1.289 . S
C1010 O1024 1.258 . S
C1010 O1025 1.256 . S
C1011 La1001 2.928 . S
C1011 C1012 1.503 . S
C1011 O1026 1.261 . S
C1011 O1027 1.243 . S
C1012 C1011 1.503 . S
C1012 C1013 1.394 . S
C1012 C1017 1.373 . S
C1013 C1012 1.394 . S
C1013 C1014 1.380 . S
C1013 H1036 0.930 . S
C1014 C1013 1.380 . S
C1014 C1015 1.376 . S
C1014 H1037 0.930 . S
C1015 C1014 1.376 . S
C1015 C1016 1.370 . S
C1016 C1015 1.370 . S
C1016 C1017 1.396 . S
C1016 H1038 0.929 . S
C1017 C1012 1.373 . S
C1017 C1016 1.396 . S
C1017 H1039 0.929 . S
C1018 O1028 1.240 . S
C1018 O1029 1.289 . S
C1019 O1030 1.258 . S
C1019 O1031 1.256 . S
O1020 La1000 2.521 . S
O1020 C1002 1.261 . S
O1021 La1000 2.628 . S
O1021 C1002 1.243 . S
O1022 La1000 2.554 . S
O1022 C1009 1.240 . S
O1023 La1000 2.757 . S
O1023 La1001 2.482 . S
O1023 C1009 1.289 . S
O1024 La1000 2.470 . S
O1024 C1010 1.258 . S
O1025 La1001 2.503 . S
O1025 C1010 1.256 . S
O1026 La1001 2.521 . S
O1026 C1011 1.261 . S
O1027 La1001 2.628 . S
O1027 C1011 1.243 . S
O1028 La1001 2.554 . S
O1028 C1018 1.240 . S
O1029 La1000 2.482 . S
O1029 La1001 2.757 . S
O1029 C1018 1.289 . S
O1030 La1001 2.470 . S
O1030 C1019 1.258 . S
O1031 La1000 2.503 . S
O1031 C1019 1.256 . S
H1032 C1004 0.930 . S
H1033 C1005 0.930 . S
H1034 C1007 0.929 . S
H1035 C1008 0.929 . S
H1036 C1013 0.930 . S
H1037 C1014 0.930 . S
H1038 C1016 0.929 . S
H1039 C1017 0.929 . S
La1040 C1042 2.928 . S
La1040 O1060 2.521 . S
La1040 O1061 2.628 . S
La1040 O1062 2.554 . S
La1040 O1063 2.757 . S
La1040 O1064 2.470 . S
La1040 O1069 2.482 . S
La1040 O1071 2.503 . S
La1041 C1051 2.928 . S
La1041 O1063 2.482 . S
La1041 O1065 2.503 . S
La1041 O1066 2.521 . S
La1041 O1067 2.628 . S
La1041 O1068 2.554 . S
La1041 O1069 2.757 . S
La1041 O1070 2.470 . S
C1042 La1040 2.928 . S
C1042 C1043 1.503 . S
C1042 O1060 1.261 . S
C1042 O1061 1.243 . S
C1043 C1042 1.503 . S
C1043 C1044 1.394 . S
C1043 C1048 1.373 . S
C1044 C1043 1.394 . S
C1044 C1045 1.380 . S
C1044 H1072 0.930 . S
C1045 C1044 1.380 . S
C1045 C1046 1.376 . S
C1045 H1073 0.930 . S
C1046 C1045 1.376 . S
C1046 C1047 1.370 . S
C1047 C1046 1.370 . S
C1047 C1048 1.396 . S
C1047 H1074 0.929 . S
C1048 C1043 1.373 . S
C1048 C1047 1.396 . S
C1048 H1075 0.929 . S
C1049 O1062 1.240 . S
C1049 O1063 1.289 . S
C1050 O1064 1.258 . S
C1050 O1065 1.256 . S
C1051 La1041 2.928 . S
C1051 C1052 1.503 . S
C1051 O1066 1.261 . S
C1051 O1067 1.243 . S
C1052 C1051 1.503 . S
C1052 C1053 1.394 . S
C1052 C1057 1.373 . S
C1053 C1052 1.394 . S
C1053 C1054 1.380 . S
C1053 H1076 0.930 . S
C1054 C1053 1.380 . S
C1054 C1055 1.376 . S
C1054 H1077 0.930 . S
C1055 C1054 1.376 . S
C1055 C1056 1.370 . S
C1056 C1055 1.370 . S
C1056 C1057 1.396 . S
C1056 H1078 0.929 . S
C1057 C1052 1.373 . S
C1057 C1056 1.396 . S
C1057 H1079 0.929 . S
C1058 O1068 1.240 . S
C1058 O1069 1.289 . S
C1059 O1070 1.258 . S
C1059 O1071 1.256 . S
O1060 La1040 2.521 . S
O1060 C1042 1.261 . S
O1061 La1040 2.628 . S
O1061 C1042 1.243 . S
O1062 La1040 2.554 . S
O1062 C1049 1.240 . S
O1063 La1040 2.757 . S
O1063 La1041 2.482 . S
O1063 C1049 1.289 . S
O1064 La1040 2.470 . S
O1064 C1050 1.258 . S
O1065 La1041 2.503 . S
O1065 C1050 1.256 . S
O1066 La1041 2.521 . S
O1066 C1051 1.261 . S
O1067 La1041 2.628 . S
O1067 C1051 1.243 . S
O1068 La1041 2.554 . S
O1068 C1058 1.240 . S
O1069 La1040 2.482 . S
O1069 La1041 2.757 . S
O1069 C1058 1.289 . S
O1070 La1041 2.470 . S
O1070 C1059 1.258 . S
O1071 La1040 2.503 . S
O1071 C1059 1.256 . S
H1072 C1044 0.930 . S
H1073 C1045 0.930 . S
H1074 C1047 0.929 . S
H1075 C1048 0.929 . S
H1076 C1053 0.930 . S
H1077 C1054 0.930 . S
H1078 C1056 0.929 . S
H1079 C1057 0.929 . S
La1080 C1082 2.928 . S
La1080 O1100 2.521 . S
La1080 O1101 2.628 . S
La1080 O1102 2.554 . S
La1080 O1103 2.757 1_554 S
La1080 O1104 2.470 . S
La1080 O1109 2.482 . S
La1080 O1111 2.503 . S
La1081 C1091 2.928 . S
La1081 O1103 2.482 . S
La1081 O1105 2.503 . S
La1081 O1106 2.521 . S
La1081 O1107 2.628 . S
La1081 O1108 2.554 . S
La1081 O1109 2.757 1_556 S
La1081 O1110 2.470 . S
C1082 La1080 2.928 . S
C1082 C1083 1.503 . S
C1082 O1100 1.261 . S
C1082 O1101 1.243 . S
C1083 C1082 1.503 . S
C1083 C1084 1.394 . S
C1083 C1088 1.373 . S
C1084 C1083 1.394 . S
C1084 C1085 1.380 . S
C1084 H1112 0.930 . S
C1085 C1084 1.380 . S
C1085 C1086 1.376 . S
C1085 H1113 0.930 . S
C1086 C1085 1.376 . S
C1086 C1087 1.370 . S
C1087 C1086 1.370 . S
C1087 C1088 1.396 . S
C1087 H1114 0.929 . S
C1088 C1083 1.373 . S
C1088 C1087 1.396 . S
C1088 H1115 0.929 . S
C1089 O1102 1.240 . S
C1089 O1103 1.289 1_554 S
C1090 O1104 1.258 . S
C1090 O1105 1.256 1_554 S
C1091 La1081 2.928 . S
C1091 C1092 1.503 . S
C1091 O1106 1.261 . S
C1091 O1107 1.243 . S
C1092 C1091 1.503 . S
C1092 C1093 1.394 . S
C1092 C1097 1.373 . S
C1093 C1092 1.394 . S
C1093 C1094 1.380 . S
C1093 H1116 0.930 . S
C1094 C1093 1.380 . S
C1094 C1095 1.376 . S
C1094 H1117 0.930 . S
C1095 C1094 1.376 . S
C1095 C1096 1.370 . S
C1096 C1095 1.370 . S
C1096 C1097 1.396 . S
C1096 H1118 0.929 . S
C1097 C1092 1.373 . S
C1097 C1096 1.396 . S
C1097 H1119 0.929 . S
C1098 O1108 1.240 . S
C1098 O1109 1.289 1_556 S
C1099 O1110 1.258 . S
C1099 O1111 1.256 1_556 S
O1100 La1080 2.521 . S
O1100 C1082 1.261 . S
O1101 La1080 2.628 . S
O1101 C1082 1.243 . S
O1102 La1080 2.554 . S
O1102 C1089 1.240 . S
O1103 La1080 2.757 1_556 S
O1103 La1081 2.482 . S
O1103 C1089 1.289 1_556 S
O1104 La1080 2.470 . S
O1104 C1090 1.258 . S
O1105 La1081 2.503 . S
O1105 C1090 1.256 1_556 S
O1106 La1081 2.521 . S
O1106 C1091 1.261 . S
O1107 La1081 2.628 . S
O1107 C1091 1.243 . S
O1108 La1081 2.554 . S
O1108 C1098 1.240 . S
O1109 La1080 2.482 . S
O1109 La1081 2.757 1_554 S
O1109 C1098 1.289 1_554 S
O1110 La1081 2.470 . S
O1110 C1099 1.258 . S
O1111 La1080 2.503 . S
O1111 C1099 1.256 1_554 S
H1112 C1084 0.930 . S
H1113 C1085 0.930 . S
H1114 C1087 0.929 . S
H1115 C1088 0.929 . S
H1116 C1093 0.930 . S
H1117 C1094 0.930 . S
H1118 C1096 0.929 . S
H1119 C1097 0.929 . S
La1120 C1122 2.928 . S
La1120 O1140 2.521 . S
La1120 O1141 2.628 . S
La1120 O1142 2.554 . S
La1120 O1143 2.757 1_554 S
La1120 O1144 2.470 . S
La1120 O1149 2.482 . S
La1120 O1151 2.503 . S
La1121 C1131 2.928 . S
La1121 O1143 2.482 . S
La1121 O1145 2.503 . S
La1121 O1146 2.521 . S
La1121 O1147 2.628 . S
La1121 O1148 2.554 . S
La1121 O1149 2.757 1_556 S
La1121 O1150 2.470 . S
C1122 La1120 2.928 . S
C1122 C1123 1.503 . S
C1122 O1140 1.261 . S
C1122 O1141 1.243 . S
C1123 C1122 1.503 . S
C1123 C1124 1.394 . S
C1123 C1128 1.373 . S
C1124 C1123 1.394 . S
C1124 C1125 1.380 . S
C1124 H1152 0.930 . S
C1125 C1124 1.380 . S
C1125 C1126 1.376 . S
C1125 H1153 0.930 . S
C1126 C1125 1.376 . S
C1126 C1127 1.370 . S
C1127 C1126 1.370 . S
C1127 C1128 1.396 . S
C1127 H1154 0.929 . S
C1128 C1123 1.373 . S
C1128 C1127 1.396 . S
C1128 H1155 0.929 . S
C1129 O1142 1.240 . S
C1129 O1143 1.289 1_554 S
C1130 O1144 1.258 . S
C1130 O1145 1.256 1_554 S
C1131 La1121 2.928 . S
C1131 C1132 1.503 . S
C1131 O1146 1.261 . S
C1131 O1147 1.243 . S
C1132 C1131 1.503 . S
C1132 C1133 1.394 . S
C1132 C1137 1.373 . S
C1133 C1132 1.394 . S
C1133 C1134 1.380 . S
C1133 H1156 0.930 . S
C1134 C1133 1.380 . S
C1134 C1135 1.376 . S
C1134 H1157 0.930 . S
C1135 C1134 1.376 . S
C1135 C1136 1.370 . S
C1136 C1135 1.370 . S
C1136 C1137 1.396 . S
C1136 H1158 0.929 . S
C1137 C1132 1.373 . S
C1137 C1136 1.396 . S
C1137 H1159 0.929 . S
C1138 O1148 1.240 . S
C1138 O1149 1.289 1_556 S
C1139 O1150 1.258 . S
C1139 O1151 1.256 1_556 S
O1140 La1120 2.521 . S
O1140 C1122 1.261 . S
O1141 La1120 2.628 . S
O1141 C1122 1.243 . S
O1142 La1120 2.554 . S
O1142 C1129 1.240 . S
O1143 La1120 2.757 1_556 S
O1143 La1121 2.482 . S
O1143 C1129 1.289 1_556 S
O1144 La1120 2.470 . S
O1144 C1130 1.258 . S
O1145 La1121 2.503 . S
O1145 C1130 1.256 1_556 S
O1146 La1121 2.521 . S
O1146 C1131 1.261 . S
O1147 La1121 2.628 . S
O1147 C1131 1.243 . S
O1148 La1121 2.554 . S
O1148 C1138 1.240 . S
O1149 La1120 2.482 . S
O1149 La1121 2.757 1_554 S
O1149 C1138 1.289 1_554 S
O1150 La1121 2.470 . S
O1150 C1139 1.258 . S
O1151 La1120 2.503 . S
O1151 C1139 1.256 1_554 S
H1152 C1124 0.930 . S
H1153 C1125 0.930 . S
H1154 C1127 0.929 . S
H1155 C1128 0.929 . S
H1156 C1133 0.930 . S
H1157 C1134 0.930 . S
H1158 C1136 0.929 . S
H1159 C1137 0.929 . S
La1160 C1162 2.928 . S
La1160 O1180 2.521 . S
La1160 O1181 2.628 . S
La1160 O1182 2.554 . S
La1160 O1183 2.757 1_554 S
La1160 O1184 2.470 . S
La1160 O1189 2.482 . S
La1160 O1191 2.503 . S
La1161 C1171 2.928 . S
La1161 O1183 2.482 . S
La1161 O1185 2.503 . S
La1161 O1186 2.521 . S
La1161 O1187 2.628 . S
La1161 O1188 2.554 . S
La1161 O1189 2.757 1_556 S
La1161 O1190 2.470 . S
C1162 La1160 2.928 . S
C1162 C1163 1.503 . S
C1162 O1180 1.261 . S
C1162 O1181 1.243 . S
C1163 C1162 1.503 . S
C1163 C1164 1.394 . S
C1163 C1168 1.373 . S
C1164 C1163 1.394 . S
C1164 C1165 1.380 . S
C1164 H1192 0.930 . S
C1165 C1164 1.380 . S
C1165 C1166 1.376 . S
C1165 H1193 0.930 . S
C1166 C1165 1.376 . S
C1166 C1167 1.370 . S
C1167 C1166 1.370 . S
C1167 C1168 1.396 . S
C1167 H1194 0.929 . S
C1168 C1163 1.373 . S
C1168 C1167 1.396 . S
C1168 H1195 0.929 . S
C1169 O1182 1.240 . S
C1169 O1183 1.289 1_554 S
C1170 O1184 1.258 . S
C1170 O1185 1.256 1_554 S
C1171 La1161 2.928 . S
C1171 C1172 1.503 . S
C1171 O1186 1.261 . S
C1171 O1187 1.243 . S
C1172 C1171 1.503 . S
C1172 C1173 1.394 . S
C1172 C1177 1.373 . S
C1173 C1172 1.394 . S
C1173 C1174 1.380 . S
C1173 H1196 0.930 . S
C1174 C1173 1.380 . S
C1174 C1175 1.376 . S
C1174 H1197 0.930 . S
C1175 C1174 1.376 . S
C1175 C1176 1.370 . S
C1176 C1175 1.370 . S
C1176 C1177 1.396 . S
C1176 H1198 0.929 . S
C1177 C1172 1.373 . S
C1177 C1176 1.396 . S
C1177 H1199 0.929 . S
C1178 O1188 1.240 . S
C1178 O1189 1.289 1_556 S
C1179 O1190 1.258 . S
C1179 O1191 1.256 1_556 S
O1180 La1160 2.521 . S
O1180 C1162 1.261 . S
O1181 La1160 2.628 . S
O1181 C1162 1.243 . S
O1182 La1160 2.554 . S
O1182 C1169 1.240 . S
O1183 La1160 2.757 1_556 S
O1183 La1161 2.482 . S
O1183 C1169 1.289 1_556 S
O1184 La1160 2.470 . S
O1184 C1170 1.258 . S
O1185 La1161 2.503 . S
O1185 C1170 1.256 1_556 S
O1186 La1161 2.521 . S
O1186 C1171 1.261 . S
O1187 La1161 2.628 . S
O1187 C1171 1.243 . S
O1188 La1161 2.554 . S
O1188 C1178 1.240 . S
O1189 La1160 2.482 . S
O1189 La1161 2.757 1_554 S
O1189 C1178 1.289 1_554 S
O1190 La1161 2.470 . S
O1190 C1179 1.258 . S
O1191 La1160 2.503 . S
O1191 C1179 1.256 1_554 S
H1192 C1164 0.930 . S
H1193 C1165 0.930 . S
H1194 C1167 0.929 . S
H1195 C1168 0.929 . S
H1196 C1173 0.930 . S
H1197 C1174 0.930 . S
H1198 C1176 0.929 . S
H1199 C1177 0.929 . S
La1200 C1202 2.928 . S
La1200 O1220 2.521 . S
La1200 O1221 2.628 . S
La1200 O1222 2.554 . S
La1200 O1223 2.757 . S
La1200 O1224 2.470 . S
La1200 O1229 2.482 . S
La1200 O1231 2.503 . S
La1201 C1211 2.928 . S
La1201 O1223 2.482 . S
La1201 O1225 2.503 . S
La1201 O1226 2.521 . S
La1201 O1227 2.628 . S
La1201 O1228 2.554 . S
La1201 O1229 2.757 . S
La1201 O1230 2.470 . S
C1202 La1200 2.928 . S
C1202 C1203 1.503 . S
C1202 O1220 1.261 . S
C1202 O1221 1.243 . S
C1203 C1202 1.503 . S
C1203 C1204 1.394 . S
C1203 C1208 1.373 . S
C1204 C1203 1.394 . S
C1204 C1205 1.380 . S
C1204 H1232 0.930 . S
C1205 C1204 1.380 . S
C1205 C1206 1.376 . S
C1205 H1233 0.930 . S
C1206 C1205 1.376 . S
C1206 C1207 1.370 . S
C1207 C1206 1.370 . S
C1207 C1208 1.396 . S
C1207 H1234 0.929 . S
C1208 C1203 1.373 . S
C1208 C1207 1.396 . S
C1208 H1235 0.929 . S
C1209 O1222 1.240 . S
C1209 O1223 1.289 . S
C1210 O1224 1.258 . S
C1210 O1225 1.256 . S
C1211 La1201 2.928 . S
C1211 C1212 1.503 . S
C1211 O1226 1.261 . S
C1211 O1227 1.243 . S
C1212 C1211 1.503 . S
C1212 C1213 1.394 . S
C1212 C1217 1.373 . S
C1213 C1212 1.394 . S
C1213 C1214 1.380 . S
C1213 H1236 0.930 . S
C1214 C1213 1.380 . S
C1214 C1215 1.376 . S
C1214 H1237 0.930 . S
C1215 C1214 1.376 . S
C1215 C1216 1.370 . S
C1216 C1215 1.370 . S
C1216 C1217 1.396 . S
C1216 H1238 0.929 . S
C1217 C1212 1.373 . S
C1217 C1216 1.396 . S
C1217 H1239 0.929 . S
C1218 O1228 1.240 . S
C1218 O1229 1.289 . S
C1219 O1230 1.258 . S
C1219 O1231 1.256 . S
O1220 La1200 2.521 . S
O1220 C1202 1.261 . S
O1221 La1200 2.628 . S
O1221 C1202 1.243 . S
O1222 La1200 2.554 . S
O1222 C1209 1.240 . S
O1223 La1200 2.757 . S
O1223 La1201 2.482 . S
O1223 C1209 1.289 . S
O1224 La1200 2.470 . S
O1224 C1210 1.258 . S
O1225 La1201 2.503 . S
O1225 C1210 1.256 . S
O1226 La1201 2.521 . S
O1226 C1211 1.261 . S
O1227 La1201 2.628 . S
O1227 C1211 1.243 . S
O1228 La1201 2.554 . S
O1228 C1218 1.240 . S
O1229 La1200 2.482 . S
O1229 La1201 2.757 . S
O1229 C1218 1.289 . S
O1230 La1201 2.470 . S
O1230 C1219 1.258 . S
O1231 La1200 2.503 . S
O1231 C1219 1.256 . S
H1232 C1204 0.930 . S
H1233 C1205 0.930 . S
H1234 C1207 0.929 . S
H1235 C1208 0.929 . S
H1236 C1213 0.930 . S
H1237 C1214 0.930 . S
H1238 C1216 0.929 . S
H1239 C1217 0.929 . S
La1240 C1242 2.928 . S
La1240 O1260 2.521 . S
La1240 O1261 2.628 . S
La1240 O1262 2.554 . S
La1240 O1263 2.757 . S
La1240 O1264 2.470 . S
La1240 O1269 2.482 . S
La1240 O1271 2.503 . S
La1241 C1251 2.928 . S
La1241 O1263 2.482 . S
La1241 O1265 2.503 . S
La1241 O1266 2.521 . S
La1241 O1267 2.628 . S
La1241 O1268 2.554 . S
La1241 O1269 2.757 . S
La1241 O1270 2.470 . S
C1242 La1240 2.928 . S
C1242 C1243 1.503 . S
C1242 O1260 1.261 . S
C1242 O1261 1.243 . S
C1243 C1242 1.503 . S
C1243 C1244 1.394 . S
C1243 C1248 1.373 . S
C1244 C1243 1.394 . S
C1244 C1245 1.380 . S
C1244 H1272 0.930 . S
C1245 C1244 1.380 . S
C1245 C1246 1.376 . S
C1245 H1273 0.930 . S
C1246 C1245 1.376 . S
C1246 C1247 1.370 . S
C1247 C1246 1.370 . S
C1247 C1248 1.396 . S
C1247 H1274 0.929 . S
C1248 C1243 1.373 . S
C1248 C1247 1.396 . S
C1248 H1275 0.929 . S
C1249 O1262 1.240 . S
C1249 O1263 1.289 . S
C1250 O1264 1.258 . S
C1250 O1265 1.256 . S
C1251 La1241 2.928 . S
C1251 C1252 1.503 . S
C1251 O1266 1.261 . S
C1251 O1267 1.243 . S
C1252 C1251 1.503 . S
C1252 C1253 1.394 . S
C1252 C1257 1.373 . S
C1253 C1252 1.394 . S
C1253 C1254 1.380 . S
C1253 H1276 0.930 . S
C1254 C1253 1.380 . S
C1254 C1255 1.376 . S
C1254 H1277 0.930 . S
C1255 C1254 1.376 . S
C1255 C1256 1.370 . S
C1256 C1255 1.370 . S
C1256 C1257 1.396 . S
C1256 H1278 0.929 . S
C1257 C1252 1.373 . S
C1257 C1256 1.396 . S
C1257 H1279 0.929 . S
C1258 O1268 1.240 . S
C1258 O1269 1.289 . S
C1259 O1270 1.258 . S
C1259 O1271 1.256 . S
O1260 La1240 2.521 . S
O1260 C1242 1.261 . S
O1261 La1240 2.628 . S
O1261 C1242 1.243 . S
O1262 La1240 2.554 . S
O1262 C1249 1.240 . S
O1263 La1240 2.757 . S
O1263 La1241 2.482 . S
O1263 C1249 1.289 . S
O1264 La1240 2.470 . S
O1264 C1250 1.258 . S
O1265 La1241 2.503 . S
O1265 C1250 1.256 . S
O1266 La1241 2.521 . S
O1266 C1251 1.261 . S
O1267 La1241 2.628 . S
O1267 C1251 1.243 . S
O1268 La1241 2.554 . S
O1268 C1258 1.240 . S
O1269 La1240 2.482 . S
O1269 La1241 2.757 . S
O1269 C1258 1.289 . S
O1270 La1241 2.470 . S
O1270 C1259 1.258 . S
O1271 La1240 2.503 . S
O1271 C1259 1.256 . S
H1272 C1244 0.930 . S
H1273 C1245 0.930 . S
H1274 C1247 0.929 . S
H1275 C1248 0.929 . S
H1276 C1253 0.930 . S
H1277 C1254 0.930 . S
H1278 C1256 0.929 . S
H1279 C1257 0.929 . S
La1280 C1282 2.928 . S
La1280 O1300 2.521 . S
La1280 O1301 2.628 . S
La1280 O1302 2.554 . S
La1280 O1303 2.757 . S
La1280 O1304 2.470 . S
La1280 O1309 2.482 . S
La1280 O1311 2.503 . S
La1281 C1291 2.928 . S
La1281 O1303 2.482 . S
La1281 O1305 2.503 . S
La1281 O1306 2.521 . S
La1281 O1307 2.628 . S
La1281 O1308 2.554 . S
La1281 O1309 2.757 . S
La1281 O1310 2.470 . S
C1282 La1280 2.928 . S
C1282 C1283 1.503 . S
C1282 O1300 1.261 . S
C1282 O1301 1.243 . S
C1283 C1282 1.503 . S
C1283 C1284 1.394 . S
C1283 C1288 1.373 . S
C1284 C1283 1.394 . S
C1284 C1285 1.380 . S
C1284 H1312 0.930 . S
C1285 C1284 1.380 . S
C1285 C1286 1.376 . S
C1285 H1313 0.930 . S
C1286 C1285 1.376 . S
C1286 C1287 1.370 . S
C1287 C1286 1.370 . S
C1287 C1288 1.396 . S
C1287 H1314 0.929 . S
C1288 C1283 1.373 . S
C1288 C1287 1.396 . S
C1288 H1315 0.929 . S
C1289 O1302 1.240 . S
C1289 O1303 1.289 . S
C1290 O1304 1.258 . S
C1290 O1305 1.256 . S
C1291 La1281 2.928 . S
C1291 C1292 1.503 . S
C1291 O1306 1.261 . S
C1291 O1307 1.243 . S
C1292 C1291 1.503 . S
C1292 C1293 1.394 . S
C1292 C1297 1.373 . S
C1293 C1292 1.394 . S
C1293 C1294 1.380 . S
C1293 H1316 0.930 . S
C1294 C1293 1.380 . S
C1294 C1295 1.376 . S
C1294 H1317 0.930 . S
C1295 C1294 1.376 . S
C1295 C1296 1.370 . S
C1296 C1295 1.370 . S
C1296 C1297 1.396 . S
C1296 H1318 0.929 . S
C1297 C1292 1.373 . S
C1297 C1296 1.396 . S
C1297 H1319 0.929 . S
C1298 O1308 1.240 . S
C1298 O1309 1.289 . S
C1299 O1310 1.258 . S
C1299 O1311 1.256 . S
O1300 La1280 2.521 . S
O1300 C1282 1.261 . S
O1301 La1280 2.628 . S
O1301 C1282 1.243 . S
O1302 La1280 2.554 . S
O1302 C1289 1.240 . S
O1303 La1280 2.757 . S
O1303 La1281 2.482 . S
O1303 C1289 1.289 . S
O1304 La1280 2.470 . S
O1304 C1290 1.258 . S
O1305 La1281 2.503 . S
O1305 C1290 1.256 . S
O1306 La1281 2.521 . S
O1306 C1291 1.261 . S
O1307 La1281 2.628 . S
O1307 C1291 1.243 . S
O1308 La1281 2.554 . S
O1308 C1298 1.240 . S
O1309 La1280 2.482 . S
O1309 La1281 2.757 . S
O1309 C1298 1.289 . S
O1310 La1281 2.470 . S
O1310 C1299 1.258 . S
O1311 La1280 2.503 . S
O1311 C1299 1.256 . S
H1312 C1284 0.930 . S
H1313 C1285 0.930 . S
H1314 C1287 0.929 . S
H1315 C1288 0.929 . S
H1316 C1293 0.930 . S
H1317 C1294 0.930 . S
H1318 C1296 0.929 . S
H1319 C1297 0.929 . S
La1320 C1322 2.928 . S
La1320 O1340 2.521 . S
La1320 O1341 2.628 . S
La1320 O1342 2.554 . S
La1320 O1343 2.757 . S
La1320 O1344 2.470 . S
La1320 O1349 2.482 . S
La1320 O1351 2.503 . S
La1321 C1331 2.928 . S
La1321 O1343 2.482 . S
La1321 O1345 2.503 . S
La1321 O1346 2.521 . S
La1321 O1347 2.628 . S
La1321 O1348 2.554 . S
La1321 O1349 2.757 . S
La1321 O1350 2.470 . S
C1322 La1320 2.928 . S
C1322 C1323 1.503 . S
C1322 O1340 1.261 . S
C1322 O1341 1.243 . S
C1323 C1322 1.503 . S
C1323 C1324 1.394 . S
C1323 C1328 1.373 . S
C1324 C1323 1.394 . S
C1324 C1325 1.380 . S
C1324 H1352 0.930 . S
C1325 C1324 1.380 . S
C1325 C1326 1.376 . S
C1325 H1353 0.930 . S
C1326 C1325 1.376 . S
C1326 C1327 1.370 . S
C1327 C1326 1.370 . S
C1327 C1328 1.396 . S
C1327 H1354 0.929 . S
C1328 C1323 1.373 . S
C1328 C1327 1.396 . S
C1328 H1355 0.929 . S
C1329 O1342 1.240 . S
C1329 O1343 1.289 . S
C1330 O1344 1.258 . S
C1330 O1345 1.256 . S
C1331 La1321 2.928 . S
C1331 C1332 1.503 . S
C1331 O1346 1.261 . S
C1331 O1347 1.243 . S
C1332 C1331 1.503 . S
C1332 C1333 1.394 . S
C1332 C1337 1.373 1_455 S
C1333 C1332 1.394 . S
C1333 C1334 1.380 . S
C1333 H1356 0.930 . S
C1334 C1333 1.380 . S
C1334 C1335 1.376 1_455 S
C1334 H1357 0.930 . S
C1335 C1334 1.376 1_655 S
C1335 C1336 1.370 . S
C1336 C1335 1.370 . S
C1336 C1337 1.396 . S
C1336 H1358 0.929 . S
C1337 C1332 1.373 1_655 S
C1337 C1336 1.396 . S
C1337 H1359 0.929 . S
C1338 O1348 1.240 . S
C1338 O1349 1.289 . S
C1339 O1350 1.258 . S
C1339 O1351 1.256 . S
O1340 La1320 2.521 . S
O1340 C1322 1.261 . S
O1341 La1320 2.628 . S
O1341 C1322 1.243 . S
O1342 La1320 2.554 . S
O1342 C1329 1.240 . S
O1343 La1320 2.757 . S
O1343 La1321 2.482 . S
O1343 C1329 1.289 . S
O1344 La1320 2.470 . S
O1344 C1330 1.258 . S
O1345 La1321 2.503 . S
O1345 C1330 1.256 . S
O1346 La1321 2.521 . S
O1346 C1331 1.261 . S
O1347 La1321 2.628 . S
O1347 C1331 1.243 . S
O1348 La1321 2.554 . S
O1348 C1338 1.240 . S
O1349 La1320 2.482 . S
O1349 La1321 2.757 . S
O1349 C1338 1.289 . S
O1350 La1321 2.470 . S
O1350 C1339 1.258 . S
O1351 La1320 2.503 . S
O1351 C1339 1.256 . S
H1352 C1324 0.930 . S
H1353 C1325 0.930 . S
H1354 C1327 0.929 . S
H1355 C1328 0.929 . S
H1356 C1333 0.930 . S
H1357 C1334 0.930 . S
H1358 C1336 0.929 . S
H1359 C1337 0.929 . S
La1360 C1362 2.928 . S
La1360 O1380 2.521 . S
La1360 O1381 2.628 . S
La1360 O1382 2.554 . S
La1360 O1383 2.757 . S
La1360 O1384 2.470 . S
La1360 O1389 2.482 . S
La1360 O1391 2.503 . S
La1361 C1371 2.928 . S
La1361 O1383 2.482 . S
La1361 O1385 2.503 . S
La1361 O1386 2.521 . S
La1361 O1387 2.628 . S
La1361 O1388 2.554 . S
La1361 O1389 2.757 . S
La1361 O1390 2.470 . S
C1362 La1360 2.928 . S
C1362 C1363 1.503 . S
C1362 O1380 1.261 . S
C1362 O1381 1.243 . S
C1363 C1362 1.503 . S
C1363 C1364 1.394 . S
C1363 C1368 1.373 . S
C1364 C1363 1.394 . S
C1364 C1365 1.380 . S
C1364 H1392 0.930 . S
C1365 C1364 1.380 . S
C1365 C1366 1.376 . S
C1365 H1393 0.930 . S
C1366 C1365 1.376 . S
C1366 C1367 1.370 . S
C1367 C1366 1.370 . S
C1367 C1368 1.396 . S
C1367 H1394 0.929 . S
C1368 C1363 1.373 . S
C1368 C1367 1.396 . S
C1368 H1395 0.929 . S
C1369 O1382 1.240 . S
C1369 O1383 1.289 . S
C1370 O1384 1.258 . S
C1370 O1385 1.256 . S
C1371 La1361 2.928 . S
C1371 C1372 1.503 . S
C1371 O1386 1.261 . S
C1371 O1387 1.243 . S
C1372 C1371 1.503 . S
C1372 C1373 1.394 . S
C1372 C1377 1.373 . S
C1373 C1372 1.394 . S
C1373 C1374 1.380 . S
C1373 H1396 0.930 . S
C1374 C1373 1.380 . S
C1374 C1375 1.376 . S
C1374 H1397 0.930 . S
C1375 C1374 1.376 . S
C1375 C1376 1.370 . S
C1376 C1375 1.370 . S
C1376 C1377 1.396 . S
C1376 H1398 0.929 . S
C1377 C1372 1.373 . S
C1377 C1376 1.396 . S
C1377 H1399 0.929 . S
C1378 O1388 1.240 . S
C1378 O1389 1.289 . S
C1379 O1390 1.258 . S
C1379 O1391 1.256 . S
O1380 La1360 2.521 . S
O1380 C1362 1.261 . S
O1381 La1360 2.628 . S
O1381 C1362 1.243 . S
O1382 La1360 2.554 . S
O1382 C1369 1.240 . S
O1383 La1360 2.757 . S
O1383 La1361 2.482 . S
O1383 C1369 1.289 . S
O1384 La1360 2.470 . S
O1384 C1370 1.258 . S
O1385 La1361 2.503 . S
O1385 C1370 1.256 . S
O1386 La1361 2.521 . S
O1386 C1371 1.261 . S
O1387 La1361 2.628 . S
O1387 C1371 1.243 . S
O1388 La1361 2.554 . S
O1388 C1378 1.240 . S
O1389 La1360 2.482 . S
O1389 La1361 2.757 . S
O1389 C1378 1.289 . S
O1390 La1361 2.470 . S
O1390 C1379 1.258 . S
O1391 La1360 2.503 . S
O1391 C1379 1.256 . S
H1392 C1364 0.930 . S
H1393 C1365 0.930 . S
H1394 C1367 0.929 . S
H1395 C1368 0.929 . S
H1396 C1373 0.930 . S
H1397 C1374 0.930 . S
H1398 C1376 0.929 . S
H1399 C1377 0.929 . S
La1400 C1402 2.928 . S
La1400 O1420 2.521 . S
La1400 O1421 2.628 . S
La1400 O1422 2.554 . S
La1400 O1423 2.757 . S
La1400 O1424 2.470 . S
La1400 O1429 2.482 . S
La1400 O1431 2.503 . S
La1401 C1411 2.928 . S
La1401 O1423 2.482 . S
La1401 O1425 2.503 . S
La1401 O1426 2.521 . S
La1401 O1427 2.628 . S
La1401 O1428 2.554 . S
La1401 O1429 2.757 . S
La1401 O1430 2.470 . S
C1402 La1400 2.928 . S
C1402 C1403 1.503 . S
C1402 O1420 1.261 . S
C1402 O1421 1.243 . S
C1403 C1402 1.503 . S
C1403 C1404 1.394 . S
C1403 C1408 1.373 . S
C1404 C1403 1.394 . S
C1404 C1405 1.380 . S
C1404 H1432 0.930 . S
C1405 C1404 1.380 . S
C1405 C1406 1.376 . S
C1405 H1433 0.930 . S
C1406 C1405 1.376 . S
C1406 C1407 1.370 . S
C1407 C1406 1.370 . S
C1407 C1408 1.396 . S
C1407 H1434 0.929 . S
C1408 C1403 1.373 . S
C1408 C1407 1.396 . S
C1408 H1435 0.929 . S
C1409 O1422 1.240 . S
C1409 O1423 1.289 . S
C1410 O1424 1.258 . S
C1410 O1425 1.256 . S
C1411 La1401 2.928 . S
C1411 C1412 1.503 . S
C1411 O1426 1.261 . S
C1411 O1427 1.243 . S
C1412 C1411 1.503 . S
C1412 C1413 1.394 . S
C1412 C1417 1.373 1_565 S
C1413 C1412 1.394 . S
C1413 C1414 1.380 . S
C1413 H1436 0.930 . S
C1414 C1413 1.380 . S
C1414 C1415 1.376 1_565 S
C1414 H1437 0.930 . S
C1415 C1414 1.376 1_545 S
C1415 C1416 1.370 . S
C1416 C1415 1.370 . S
C1416 C1417 1.396 . S
C1416 H1438 0.929 . S
C1417 C1412 1.373 1_545 S
C1417 C1416 1.396 . S
C1417 H1439 0.929 . S
C1418 O1428 1.240 . S
C1418 O1429 1.289 . S
C1419 O1430 1.258 . S
C1419 O1431 1.256 . S
O1420 La1400 2.521 . S
O1420 C1402 1.261 . S
O1421 La1400 2.628 . S
O1421 C1402 1.243 . S
O1422 La1400 2.554 . S
O1422 C1409 1.240 . S
O1423 La1400 2.757 . S
O1423 La1401 2.482 . S
O1423 C1409 1.289 . S
O1424 La1400 2.470 . S
O1424 C1410 1.258 . S
O1425 La1401 2.503 . S
O1425 C1410 1.256 . S
O1426 La1401 2.521 . S
O1426 C1411 1.261 . S
O1427 La1401 2.628 . S
O1427 C1411 1.243 . S
O1428 La1401 2.554 . S
O1428 C1418 1.240 . S
O1429 La1400 2.482 . S
O1429 La1401 2.757 . S
O1429 C1418 1.289 . S
O1430 La1401 2.470 . S
O1430 C1419 1.258 . S
O1431 La1400 2.503 . S
O1431 C1419 1.256 . S
H1432 C1404 0.930 . S
H1433 C1405 0.930 . S
H1434 C1407 0.929 . S
H1435 C1408 0.929 . S
H1436 C1413 0.930 . S
H1437 C1414 0.930 . S
H1438 C1416 0.929 . S
H1439 C1417 0.929 . S
C1440 C1441 1.363 . S
C1440 C1446 1.379 . S
C1440 N1448 1.356 . S
C1441 C1440 1.363 . S
C1441 C1447 1.363 . S
C1442 C1443 1.363 . S
C1442 C1447 1.379 . S
C1442 N1449 1.356 . S
C1443 C1442 1.363 . S
C1443 C1446 1.363 . S
N1444 C1446 1.356 1_565 S
N1444 H1456 0.984 . S
N1444 H1457 0.985 . S
N1445 C1447 1.356 . S
N1445 H1450 0.984 . S
N1445 H1451 0.985 . S
C1446 C1440 1.379 . S
C1446 C1443 1.363 . S
C1446 N1444 1.356 1_545 S
C1447 C1441 1.363 . S
C1447 C1442 1.379 . S
C1447 N1445 1.356 . S
N1448 C1440 1.356 . S
N1448 H1454 0.984 . S
N1448 H1455 0.984 . S
N1449 C1442 1.356 . S
N1449 H1452 0.984 1_545 S
N1449 H1453 0.985 . S
H1450 N1445 0.984 . S
H1451 N1445 0.985 . S
H1452 N1449 0.984 1_565 S
H1453 N1449 0.985 . S
H1454 N1448 0.984 . S
H1455 N1448 0.984 . S
H1456 N1444 0.984 . S
H1457 N1444 0.985 . S
C1458 C1459 1.363 . S
C1458 C1464 1.379 . S
C1458 N1466 1.356 . S
C1459 C1458 1.363 . S
C1459 C1465 1.363 . S
C1460 C1461 1.363 . S
C1460 C1465 1.379 . S
C1460 N1467 1.356 1_545 S
C1461 C1460 1.363 . S
C1461 C1464 1.363 . S
N1462 C1464 1.356 . S
N1462 H1474 0.984 . S
N1462 H1475 0.985 . S
N1463 C1465 1.356 1_455 S
N1463 H1468 0.984 . S
N1463 H1469 0.985 . S
C1464 C1458 1.379 . S
C1464 C1461 1.363 . S
C1464 N1462 1.356 . S
C1465 C1459 1.363 . S
C1465 C1460 1.379 . S
C1465 N1463 1.356 1_655 S
N1466 C1458 1.356 . S
N1466 H1472 0.984 . S
N1466 H1473 0.984 1_655 S
N1467 C1460 1.356 1_565 S
N1467 H1470 0.984 . S
N1467 H1471 0.985 . S
H1468 N1463 0.984 . S
H1469 N1463 0.985 . S
H1470 N1467 0.984 . S
H1471 N1467 0.985 . S
H1472 N1466 0.984 . S
H1473 N1466 0.984 1_455 S
H1474 N1462 0.984 . S
H1475 N1462 0.985 . S
C1476 C1477 1.363 . S
C1476 C1482 1.379 . S
C1476 N1484 1.356 1_655 S
C1477 C1476 1.363 . S
C1477 C1483 1.363 . S
C1478 C1479 1.363 . S
C1478 C1483 1.379 . S
C1478 N1485 1.356 . S
C1479 C1478 1.363 . S
C1479 C1482 1.363 . S
N1480 C1482 1.356 . S
N1480 H1492 0.984 . S
N1480 H1493 0.985 . S
N1481 C1483 1.356 . S
N1481 H1486 0.984 . S
N1481 H1487 0.985 . S
C1482 C1476 1.379 . S
C1482 C1479 1.363 . S
C1482 N1480 1.356 . S
C1483 C1477 1.363 . S
C1483 C1478 1.379 . S
C1483 N1481 1.356 . S
N1484 C1476 1.356 1_455 S
N1484 H1490 0.984 . S
N1484 H1491 0.984 . S
N1485 C1478 1.356 . S
N1485 H1488 0.984 . S
N1485 H1489 0.985 . S
H1486 N1481 0.984 . S
H1487 N1481 0.985 . S
H1488 N1485 0.984 . S
H1489 N1485 0.985 . S
H1490 N1484 0.984 . S
H1491 N1484 0.984 . S
H1492 N1480 0.984 . S
H1493 N1480 0.985 . S
C1494 C1495 1.363 . S
C1494 C1500 1.379 . S
C1494 N1502 1.356 . S
C1495 C1494 1.363 . S
C1495 C1501 1.363 . S
C1496 C1497 1.363 . S
C1496 C1501 1.379 . S
C1496 N1503 1.356 . S
C1497 C1496 1.363 . S
C1497 C1500 1.363 . S
N1498 C1500 1.356 1_655 S
N1498 H1510 0.984 . S
N1498 H1511 0.985 . S
N1499 C1501 1.356 . S
N1499 H1504 0.984 . S
N1499 H1505 0.985 . S
C1500 C1494 1.379 . S
C1500 C1497 1.363 . S
C1500 N1498 1.356 1_455 S
C1501 C1495 1.363 . S
C1501 C1496 1.379 . S
C1501 N1499 1.356 . S
N1502 C1494 1.356 . S
N1502 H1508 0.984 . S
N1502 H1509 0.984 . S
N1503 C1496 1.356 . S
N1503 H1506 0.984 1_455 S
N1503 H1507 0.985 . S
H1504 N1499 0.984 . S
H1505 N1499 0.985 . S
H1506 N1503 0.984 1_655 S
H1507 N1503 0.985 . S
H1508 N1502 0.984 . S
H1509 N1502 0.984 . S
H1510 N1498 0.984 . S
H1511 N1498 0.985 . S
C1512 C1513 1.363 . S
C1512 C1518 1.379 . S
C1512 N1520 1.356 . S
C1513 C1512 1.363 . S
C1513 C1519 1.363 . S
C1514 C1515 1.363 . S
C1514 C1519 1.379 . S
C1514 N1521 1.356 . S
C1515 C1514 1.363 . S
C1515 C1518 1.363 . S
N1516 C1518 1.356 . S
N1516 H1528 0.984 . S
N1516 H1529 0.985 . S
N1517 C1519 1.356 . S
N1517 H1522 0.984 . S
N1517 H1523 0.985 . S
C1518 C1512 1.379 . S
C1518 C1515 1.363 . S
C1518 N1516 1.356 . S
C1519 C1513 1.363 . S
C1519 C1514 1.379 . S
C1519 N1517 1.356 . S
N1520 C1512 1.356 . S
N1520 H1526 0.984 . S
N1520 H1527 0.984 . S
N1521 C1514 1.356 . S
N1521 H1524 0.984 1_565 S
N1521 H1525 0.985 1_565 S
H1522 N1517 0.984 . S
H1523 N1517 0.985 . S
H1524 N1521 0.984 1_545 S
H1525 N1521 0.985 1_545 S
H1526 N1520 0.984 . S
H1527 N1520 0.984 . S
H1528 N1516 0.984 . S
H1529 N1516 0.985 . S
C1530 C1531 1.363 . S
C1530 C1536 1.379 . S
C1530 N1538 1.356 . S
C1531 C1530 1.363 . S
C1531 C1537 1.363 . S
C1532 C1533 1.363 . S
C1532 C1537 1.379 . S
C1532 N1539 1.356 . S
C1533 C1532 1.363 . S
C1533 C1536 1.363 . S
N1534 C1536 1.356 1_545 S
N1534 H1546 0.984 . S
N1534 H1547 0.985 . S
N1535 C1537 1.356 . S
N1535 H1540 0.984 . S
N1535 H1541 0.985 . S
C1536 C1530 1.379 . S
C1536 C1533 1.363 . S
C1536 N1534 1.356 1_565 S
C1537 C1531 1.363 . S
C1537 C1532 1.379 . S
C1537 N1535 1.356 . S
N1538 C1530 1.356 . S
N1538 H1544 0.984 . S
N1538 H1545 0.984 1_455 S
N1539 C1532 1.356 . S
N1539 H1542 0.984 1_565 S
N1539 H1543 0.985 . S
H1540 N1535 0.984 . S
H1541 N1535 0.985 . S
H1542 N1539 0.984 1_545 S
H1543 N1539 0.985 . S
H1544 N1538 0.984 . S
H1545 N1538 0.984 1_655 S
H1546 N1534 0.984 . S
H1547 N1534 0.985 . S
C1548 C1549 1.363 . S
C1548 C1554 1.379 . S
C1548 N1556 1.356 . S
C1549 C1548 1.363 . S
C1549 C1555 1.363 . S
C1550 C1551 1.363 . S
C1550 C1555 1.379 . S
C1550 N1557 1.356 . S
C1551 C1550 1.363 . S
C1551 C1554 1.363 . S
N1552 C1554 1.356 . S
N1552 H1564 0.984 . S
N1552 H1565 0.985 1_565 S
N1553 C1555 1.356 . S
N1553 H1558 0.984 . S
N1553 H1559 0.985 . S
C1554 C1548 1.379 . S
C1554 C1551 1.363 . S
C1554 N1552 1.356 . S
C1555 C1549 1.363 . S
C1555 C1550 1.379 . S
C1555 N1553 1.356 . S
N1556 C1548 1.356 . S
N1556 H1562 0.984 . S
N1556 H1563 0.984 . S
N1557 C1550 1.356 . S
N1557 H1560 0.984 1_565 S
N1557 H1561 0.985 . S
H1558 N1553 0.984 . S
H1559 N1553 0.985 . S
H1560 N1557 0.984 1_545 S
H1561 N1557 0.985 . S
H1562 N1556 0.984 . S
H1563 N1556 0.984 . S
H1564 N1552 0.984 . S
H1565 N1552 0.985 1_545 S
C1566 C1567 1.363 . S
C1566 C1572 1.379 . S
C1566 N1574 1.356 . S
C1567 C1566 1.363 . S
C1567 C1573 1.363 . S
C1568 C1569 1.363 . S
C1568 C1573 1.379 . S
C1568 N1575 1.356 . S
C1569 C1568 1.363 . S
C1569 C1572 1.363 . S
N1570 C1572 1.356 . S
N1570 H1582 0.984 . S
N1570 H1583 0.985 1_455 S
N1571 C1573 1.356 . S
N1571 H1576 0.984 . S
N1571 H1577 0.985 . S
C1572 C1566 1.379 . S
C1572 C1569 1.363 . S
C1572 N1570 1.356 . S
C1573 C1567 1.363 . S
C1573 C1568 1.379 . S
C1573 N1571 1.356 . S
N1574 C1566 1.356 . S
N1574 H1580 0.984 . S
N1574 H1581 0.984 1_565 S
N1575 C1568 1.356 . S
N1575 H1578 0.984 1_455 S
N1575 H1579 0.985 . S
H1576 N1571 0.984 . S
H1577 N1571 0.985 . S
H1578 N1575 0.984 1_655 S
H1579 N1575 0.985 . S
H1580 N1574 0.984 . S
H1581 N1574 0.984 1_545 S
H1582 N1570 0.984 . S
H1583 N1570 0.985 1_655 S
C1584 C1585 1.363 . S
C1584 C1590 1.379 . S
C1584 N1592 1.356 . S
C1585 C1584 1.363 . S
C1585 C1591 1.363 . S
C1586 C1587 1.363 . S
C1586 C1591 1.379 . S
C1586 N1593 1.356 . S
C1587 C1586 1.363 . S
C1587 C1590 1.363 . S
N1588 C1590 1.356 . S
N1588 H1600 0.984 . S
N1588 H1601 0.985 . S
N1589 C1591 1.356 . S
N1589 H1594 0.984 . S
N1589 H1595 0.985 . S
C1590 C1584 1.379 . S
C1590 C1587 1.363 . S
C1590 N1588 1.356 . S
C1591 C1585 1.363 . S
C1591 C1586 1.379 . S
C1591 N1589 1.356 . S
N1592 C1584 1.356 . S
N1592 H1598 0.984 . S
N1592 H1599 0.984 . S
N1593 C1586 1.356 . S
N1593 H1596 0.984 . S
N1593 H1597 0.985 . S
H1594 N1589 0.984 . S
H1595 N1589 0.985 . S
H1596 N1593 0.984 . S
H1597 N1593 0.985 . S
H1598 N1592 0.984 . S
H1599 N1592 0.984 . S
H1600 N1588 0.984 . S
H1601 N1588 0.985 . S
C1602 C1603 1.363 . S
C1602 C1608 1.379 . S
C1602 N1610 1.356 . S
C1603 C1602 1.363 . S
C1603 C1609 1.363 . S
C1604 C1605 1.363 . S
C1604 C1609 1.379 . S
C1604 N1611 1.356 . S
C1605 C1604 1.363 . S
C1605 C1608 1.363 . S
N1606 C1608 1.356 . S
N1606 H1618 0.984 . S
N1606 H1619 0.985 1_655 S
N1607 C1609 1.356 . S
N1607 H1612 0.984 . S
N1607 H1613 0.985 . S
C1608 C1602 1.379 . S
C1608 C1605 1.363 . S
C1608 N1606 1.356 . S
C1609 C1603 1.363 . S
C1609 C1604 1.379 . S
C1609 N1607 1.356 . S
N1610 C1602 1.356 . S
N1610 H1616 0.984 . S
N1610 H1617 0.984 . S
N1611 C1604 1.356 . S
N1611 H1614 0.984 1_655 S
N1611 H1615 0.985 . S
H1612 N1607 0.984 . S
H1613 N1607 0.985 . S
H1614 N1611 0.984 1_455 S
H1615 N1611 0.985 . S
H1616 N1610 0.984 . S
H1617 N1610 0.984 . S
H1618 N1606 0.984 . S
H1619 N1606 0.985 1_455 S
C1620 C1621 1.363 . S
C1620 C1626 1.379 . S
C1620 N1628 1.356 . S
C1621 C1620 1.363 . S
C1621 C1627 1.363 . S
C1622 C1623 1.363 . S
C1622 C1627 1.379 . S
C1622 N1629 1.356 . S
C1623 C1622 1.363 . S
C1623 C1626 1.363 . S
N1624 C1626 1.356 . S
N1624 H1636 0.984 . S
N1624 H1637 0.985 1_545 S
N1625 C1627 1.356 . S
N1625 H1630 0.984 . S
N1625 H1631 0.985 . S
C1626 C1620 1.379 . S
C1626 C1623 1.363 . S
C1626 N1624 1.356 . S
C1627 C1621 1.363 . S
C1627 C1622 1.379 . S
C1627 N1625 1.356 . S
N1628 C1620 1.356 . S
N1628 H1634 0.984 . S
N1628 H1635 0.984 . S
N1629 C1622 1.356 . S
N1629 H1632 0.984 . S
N1629 H1633 0.985 . S
H1630 N1625 0.984 . S
H1631 N1625 0.985 . S
H1632 N1629 0.984 . S
H1633 N1629 0.985 . S
H1634 N1628 0.984 . S
H1635 N1628 0.984 . S
H1636 N1624 0.984 . S
H1637 N1624 0.985 1_565 S
C1638 C1639 1.363 . S
C1638 C1644 1.379 . S
C1638 N1646 1.356 1_545 S
C1639 C1638 1.363 . S
C1639 C1645 1.363 . S
C1640 C1641 1.363 . S
C1640 C1645 1.379 . S
C1640 N1647 1.356 . S
C1641 C1640 1.363 . S
C1641 C1644 1.363 . S
N1642 C1644 1.356 . S
N1642 H1654 0.984 . S
N1642 H1655 0.985 1_655 S
N1643 C1645 1.356 . S
N1643 H1648 0.984 1_545 S
N1643 H1649 0.985 . S
C1644 C1638 1.379 . S
C1644 C1641 1.363 . S
C1644 N1642 1.356 . S
C1645 C1639 1.363 . S
C1645 C1640 1.379 . S
C1645 N1643 1.356 . S
N1646 C1638 1.356 1_565 S
N1646 H1652 0.984 . S
N1646 H1653 0.984 . S
N1647 C1640 1.356 . S
N1647 H1650 0.984 . S
N1647 H1651 0.985 . S
H1648 N1643 0.984 1_565 S
H1649 N1643 0.985 . S
H1650 N1647 0.984 . S
H1651 N1647 0.985 . S
H1652 N1646 0.984 . S
H1653 N1646 0.984 . S
H1654 N1642 0.984 . S
H1655 N1642 0.985 1_455 S
C1656 C1657 1.363 . S
C1656 C1662 1.379 . S
C1656 N1664 1.356 . S
C1657 C1656 1.363 . S
C1657 C1663 1.363 . S
C1658 C1659 1.363 . S
C1658 C1663 1.379 . S
C1658 N1665 1.356 . S
C1659 C1658 1.363 . S
C1659 C1662 1.363 . S
N1660 C1662 1.356 . S
N1660 H1672 0.984 . S
N1660 H1673 0.985 . S
N1661 C1663 1.356 . S
N1661 H1666 0.984 . S
N1661 H1667 0.985 . S
C1662 C1656 1.379 . S
C1662 C1659 1.363 . S
C1662 N1660 1.356 . S
C1663 C1657 1.363 . S
C1663 C1658 1.379 . S
C1663 N1661 1.356 . S
N1664 C1656 1.356 . S
N1664 H1670 0.984 . S
N1664 H1671 0.984 . S
N1665 C1658 1.356 . S
N1665 H1668 0.984 . S
N1665 H1669 0.985 . S
H1666 N1661 0.984 . S
H1667 N1661 0.985 . S
H1668 N1665 0.984 . S
H1669 N1665 0.985 . S
H1670 N1664 0.984 . S
H1671 N1664 0.984 . S
H1672 N1660 0.984 . S
H1673 N1660 0.985 . S
C1674 C1675 1.363 . S
C1674 C1680 1.379 . S
C1674 N1682 1.356 . S
C1675 C1674 1.363 . S
C1675 C1681 1.363 . S
C1676 C1677 1.363 . S
C1676 C1681 1.379 . S
C1676 N1683 1.356 . S
C1677 C1676 1.363 . S
C1677 C1680 1.363 . S
N1678 C1680 1.356 . S
N1678 H1690 0.984 . S
N1678 H1691 0.985 . S
N1679 C1681 1.356 . S
N1679 H1684 0.984 . S
N1679 H1685 0.985 . S
C1680 C1674 1.379 . S
C1680 C1677 1.363 . S
C1680 N1678 1.356 . S
C1681 C1675 1.363 . S
C1681 C1676 1.379 . S
C1681 N1679 1.356 . S
N1682 C1674 1.356 . S
N1682 H1688 0.984 . S
N1682 H1689 0.984 . S
N1683 C1676 1.356 . S
N1683 H1686 0.984 . S
N1683 H1687 0.985 . S
H1684 N1679 0.984 . S
H1685 N1679 0.985 . S
H1686 N1683 0.984 . S
H1687 N1683 0.985 . S
H1688 N1682 0.984 . S
H1689 N1682 0.984 . S
H1690 N1678 0.984 . S
H1691 N1678 0.985 . S
C1692 C1693 1.363 . S
C1692 C1698 1.379 . S
C1692 N1700 1.356 . S
C1693 C1692 1.363 . S
C1693 C1699 1.363 . S
C1694 C1695 1.363 . S
C1694 C1699 1.379 . S
C1694 N1701 1.356 . S
C1695 C1694 1.363 . S
C1695 C1698 1.363 . S
N1696 C1698 1.356 . S
N1696 H1708 0.984 . S
N1696 H1709 0.985 . S
N1697 C1699 1.356 . S
N1697 H1702 0.984 . S
N1697 H1703 0.985 . S
C1698 C1692 1.379 . S
C1698 C1695 1.363 . S
C1698 N1696 1.356 . S
C1699 C1693 1.363 . S
C1699 C1694 1.379 . S
C1699 N1697 1.356 . S
N1700 C1692 1.356 . S
N1700 H1706 0.984 . S
N1700 H1707 0.984 . S
N1701 C1694 1.356 . S
N1701 H1704 0.984 . S
N1701 H1705 0.985 . S
H1702 N1697 0.984 . S
H1703 N1697 0.985 . S
H1704 N1701 0.984 . S
H1705 N1701 0.985 . S
H1706 N1700 0.984 . S
H1707 N1700 0.984 . S
H1708 N1696 0.984 . S
H1709 N1696 0.985 . S
C1710 C1711 1.363 . S
C1710 C1716 1.379 . S
C1710 N1718 1.356 . S
C1711 C1710 1.363 . S
C1711 C1717 1.363 . S
C1712 C1713 1.363 . S
C1712 C1717 1.379 . S
C1712 N1719 1.356 . S
C1713 C1712 1.363 . S
C1713 C1716 1.363 . S
N1714 C1716 1.356 . S
N1714 H1726 0.984 . S
N1714 H1727 0.985 . S
N1715 C1717 1.356 . S
N1715 H1720 0.984 . S
N1715 H1721 0.985 . S
C1716 C1710 1.379 . S
C1716 C1713 1.363 . S
C1716 N1714 1.356 . S
C1717 C1711 1.363 . S
C1717 C1712 1.379 . S
C1717 N1715 1.356 . S
N1718 C1710 1.356 . S
N1718 H1724 0.984 . S
N1718 H1725 0.984 . S
N1719 C1712 1.356 . S
N1719 H1722 0.984 . S
N1719 H1723 0.985 . S
H1720 N1715 0.984 . S
H1721 N1715 0.985 . S
H1722 N1719 0.984 . S
H1723 N1719 0.985 . S
H1724 N1718 0.984 . S
H1725 N1718 0.984 . S
H1726 N1714 0.984 . S
H1727 N1714 0.985 . S
C1728 C1729 1.363 . S
C1728 C1734 1.379 . S
C1728 N1736 1.356 . S
C1729 C1728 1.363 . S
C1729 C1735 1.363 . S
C1730 C1731 1.363 . S
C1730 C1735 1.379 . S
C1730 N1737 1.356 . S
C1731 C1730 1.363 . S
C1731 C1734 1.363 . S
N1732 C1734 1.356 . S
N1732 H1744 0.984 . S
N1732 H1745 0.985 . S
N1733 C1735 1.356 . S
N1733 H1738 0.984 . S
N1733 H1739 0.985 . S
C1734 C1728 1.379 . S
C1734 C1731 1.363 . S
C1734 N1732 1.356 . S
C1735 C1729 1.363 . S
C1735 C1730 1.379 . S
C1735 N1733 1.356 . S
N1736 C1728 1.356 . S
N1736 H1742 0.984 . S
N1736 H1743 0.984 . S
N1737 C1730 1.356 . S
N1737 H1740 0.984 . S
N1737 H1741 0.985 . S
H1738 N1733 0.984 . S
H1739 N1733 0.985 . S
H1740 N1737 0.984 . S
H1741 N1737 0.985 . S
H1742 N1736 0.984 . S
H1743 N1736 0.984 . S
H1744 N1732 0.984 . S
H1745 N1732 0.985 . S
C1746 C1747 1.363 . S
C1746 C1752 1.379 . S
C1746 N1754 1.356 . S
C1747 C1746 1.363 . S
C1747 C1753 1.363 . S
C1748 C1749 1.363 . S
C1748 C1753 1.379 . S
C1748 N1755 1.356 . S
C1749 C1748 1.363 . S
C1749 C1752 1.363 . S
N1750 C1752 1.356 . S
N1750 H1762 0.984 . S
N1750 H1763 0.985 . S
N1751 C1753 1.356 . S
N1751 H1756 0.984 . S
N1751 H1757 0.985 . S
C1752 C1746 1.379 . S
C1752 C1749 1.363 . S
C1752 N1750 1.356 . S
C1753 C1747 1.363 . S
C1753 C1748 1.379 . S
C1753 N1751 1.356 . S
N1754 C1746 1.356 . S
N1754 H1760 0.984 . S
N1754 H1761 0.984 . S
N1755 C1748 1.356 . S
N1755 H1758 0.984 . S
N1755 H1759 0.985 . S
H1756 N1751 0.984 . S
H1757 N1751 0.985 . S
H1758 N1755 0.984 . S
H1759 N1755 0.985 . S
H1760 N1754 0.984 . S
H1761 N1754 0.984 . S
H1762 N1750 0.984 . S
H1763 N1750 0.985 . S
C1764 C1765 1.363 . S
C1764 C1770 1.379 . S
C1764 N1772 1.356 . S
C1765 C1764 1.363 . S
C1765 C1771 1.363 . S
C1766 C1767 1.363 . S
C1766 C1771 1.379 . S
C1766 N1773 1.356 . S
C1767 C1766 1.363 . S
C1767 C1770 1.363 . S
N1768 C1770 1.356 . S
N1768 H1780 0.984 . S
N1768 H1781 0.985 . S
N1769 C1771 1.356 . S
N1769 H1774 0.984 . S
N1769 H1775 0.985 . S
C1770 C1764 1.379 . S
C1770 C1767 1.363 . S
C1770 N1768 1.356 . S
C1771 C1765 1.363 . S
C1771 C1766 1.379 . S
C1771 N1769 1.356 . S
N1772 C1764 1.356 . S
N1772 H1778 0.984 . S
N1772 H1779 0.984 . S
N1773 C1766 1.356 . S
N1773 H1776 0.984 . S
N1773 H1777 0.985 . S
H1774 N1769 0.984 . S
H1775 N1769 0.985 . S
H1776 N1773 0.984 . S
H1777 N1773 0.985 . S
H1778 N1772 0.984 . S
H1779 N1772 0.984 . S
H1780 N1768 0.984 . S
H1781 N1768 0.985 . S
C1782 C1783 1.363 . S
C1782 C1788 1.379 . S
C1782 N1790 1.356 . S
C1783 C1782 1.363 . S
C1783 C1789 1.363 . S
C1784 C1785 1.363 . S
C1784 C1789 1.379 . S
C1784 N1791 1.356 . S
C1785 C1784 1.363 . S
C1785 C1788 1.363 . S
N1786 C1788 1.356 . S
N1786 H1798 0.984 . S
N1786 H1799 0.985 . S
N1787 C1789 1.356 . S
N1787 H1792 0.984 . S
N1787 H1793 0.985 . S
C1788 C1782 1.379 . S
C1788 C1785 1.363 . S
C1788 N1786 1.356 . S
C1789 C1783 1.363 . S
C1789 C1784 1.379 . S
C1789 N1787 1.356 . S
N1790 C1782 1.356 . S
N1790 H1796 0.984 . S
N1790 H1797 0.984 . S
N1791 C1784 1.356 . S
N1791 H1794 0.984 . S
N1791 H1795 0.985 . S
H1792 N1787 0.984 . S
H1793 N1787 0.985 . S
H1794 N1791 0.984 . S
H1795 N1791 0.985 . S
H1796 N1790 0.984 . S
H1797 N1790 0.984 . S
H1798 N1786 0.984 . S
H1799 N1786 0.985 . S
C1800 C1801 1.363 . S
C1800 C1806 1.379 . S
C1800 N1808 1.356 . S
C1801 C1800 1.363 . S
C1801 C1807 1.363 . S
C1802 C1803 1.363 . S
C1802 C1807 1.379 . S
C1802 N1809 1.356 . S
C1803 C1802 1.363 . S
C1803 C1806 1.363 . S
N1804 C1806 1.356 . S
N1804 H1816 0.984 . S
N1804 H1817 0.985 . S
N1805 C1807 1.356 . S
N1805 H1810 0.984 . S
N1805 H1811 0.985 . S
C1806 C1800 1.379 . S
C1806 C1803 1.363 . S
C1806 N1804 1.356 . S
C1807 C1801 1.363 . S
C1807 C1802 1.379 . S
C1807 N1805 1.356 . S
N1808 C1800 1.356 . S
N1808 H1814 0.984 . S
N1808 H1815 0.984 . S
N1809 C1802 1.356 . S
N1809 H1812 0.984 . S
N1809 H1813 0.985 . S
H1810 N1805 0.984 . S
H1811 N1805 0.985 . S
H1812 N1809 0.984 . S
H1813 N1809 0.985 . S
H1814 N1808 0.984 . S
H1815 N1808 0.984 . S
H1816 N1804 0.984 . S
H1817 N1804 0.985 . S
C1818 C1819 1.363 . S
C1818 C1824 1.379 . S
C1818 N1826 1.356 . S
C1819 C1818 1.363 . S
C1819 C1825 1.360 1_554 S
C1820 C1821 1.363 1_556 S
C1820 C1825 1.380 . S
C1820 N1827 1.356 . S
C1821 C1820 1.363 1_554 S
C1821 C1824 1.363 . S
N1822 C1824 1.356 . S
N1822 H1834 0.984 . S
N1822 H1835 0.985 . S
N1823 C1825 1.357 . S
N1823 H1828 0.992 . S
N1823 H1829 0.985 . S
C1824 C1818 1.379 . S
C1824 C1821 1.363 . S
C1824 N1822 1.356 . S
C1825 C1819 1.360 1_556 S
C1825 C1820 1.380 . S
C1825 N1823 1.357 . S
N1826 C1818 1.356 . S
N1826 H1832 0.984 . S
N1826 H1833 0.984 . S
N1827 C1820 1.356 . S
N1827 H1830 0.984 . S
N1827 H1831 0.985 . S
H1828 N1823 0.992 . S
H1829 N1823 0.985 . S
H1830 N1827 0.984 . S
H1831 N1827 0.985 . S
H1832 N1826 0.984 . S
H1833 N1826 0.984 . S
H1834 N1822 0.984 . S
H1835 N1822 0.985 . S
C1836 C1837 1.363 . S
C1836 C1842 1.379 . S
C1836 N1844 1.356 . S
C1837 C1836 1.363 . S
C1837 C1843 1.363 1_554 S
C1838 C1839 1.363 1_556 S
C1838 C1843 1.379 . S
C1838 N1845 1.356 . S
C1839 C1838 1.363 1_554 S
C1839 C1842 1.363 . S
N1840 C1842 1.356 . S
N1840 H1852 0.984 . S
N1840 H1853 0.985 . S
N1841 C1843 1.356 . S
N1841 H1846 0.984 . S
N1841 H1847 0.985 . S
C1842 C1836 1.379 . S
C1842 C1839 1.363 . S
C1842 N1840 1.356 . S
C1843 C1837 1.363 1_556 S
C1843 C1838 1.379 . S
C1843 N1841 1.356 . S
N1844 C1836 1.356 . S
N1844 H1850 0.984 . S
N1844 H1851 0.984 . S
N1845 C1838 1.356 . S
N1845 H1848 0.984 . S
N1845 H1849 0.985 . S
H1846 N1841 0.984 . S
H1847 N1841 0.985 . S
H1848 N1845 0.984 . S
H1849 N1845 0.985 . S
H1850 N1844 0.984 . S
H1851 N1844 0.984 . S
H1852 N1840 0.984 . S
H1853 N1840 0.985 . S
C1854 C1855 1.363 1_556 S
C1854 C1860 1.379 . S
C1854 N1862 1.356 . S
C1855 C1854 1.363 1_554 S
C1855 C1861 1.363 . S
C1856 C1857 1.363 . S
C1856 C1861 1.379 . S
C1856 N1863 1.356 . S
C1857 C1856 1.363 . S
C1857 C1860 1.363 1_554 S
N1858 C1860 1.356 . S
N1858 H1870 0.984 . S
N1858 H1871 0.985 . S
N1859 C1861 1.356 . S
N1859 H1864 0.984 . S
N1859 H1865 0.985 . S
C1860 C1854 1.379 . S
C1860 C1857 1.363 1_556 S
C1860 N1858 1.356 . S
C1861 C1855 1.363 . S
C1861 C1856 1.379 . S
C1861 N1859 1.356 . S
N1862 C1854 1.356 . S
N1862 H1868 0.984 . S
N1862 H1869 0.984 . S
N1863 C1856 1.356 . S
N1863 H1866 0.984 . S
N1863 H1867 0.985 . S
H1864 N1859 0.984 . S
H1865 N1859 0.985 . S
H1866 N1863 0.984 . S
H1867 N1863 0.985 . S
H1868 N1862 0.984 . S
H1869 N1862 0.984 . S
H1870 N1858 0.984 . S
H1871 N1858 0.985 . S
C1872 C1873 1.363 . S
C1872 C1878 1.379 . S
C1872 N1880 1.356 . S
C1873 C1872 1.363 . S
C1873 C1879 1.363 . S
C1874 C1875 1.363 . S
C1874 C1879 1.379 . S
C1874 N1881 1.356 . S
C1875 C1874 1.363 . S
C1875 C1878 1.363 . S
N1876 C1878 1.356 . S
N1876 H1888 0.984 . S
N1876 H1889 0.985 . S
N1877 C1879 1.356 . S
N1877 H1882 0.984 . S
N1877 H1883 0.985 . S
C1878 C1872 1.379 . S
C1878 C1875 1.363 . S
C1878 N1876 1.356 . S
C1879 C1873 1.363 . S
C1879 C1874 1.379 . S
C1879 N1877 1.356 . S
N1880 C1872 1.356 . S
N1880 H1886 0.984 . S
N1880 H1887 0.984 . S
N1881 C1874 1.356 . S
N1881 H1884 0.984 . S
N1881 H1885 0.985 . S
H1882 N1877 0.984 . S
H1883 N1877 0.985 . S
H1884 N1881 0.984 . S
H1885 N1881 0.985 . S
H1886 N1880 0.984 . S
H1887 N1880 0.984 . S
H1888 N1876 0.984 . S
H1889 N1876 0.985 . S
C1890 C1891 1.363 . S
C1890 C1896 1.379 . S
C1890 N1898 1.356 . S
C1891 C1890 1.363 . S
C1891 C1897 1.363 . S
C1892 C1893 1.363 . S
C1892 C1897 1.379 . S
C1892 N1899 1.356 . S
C1893 C1892 1.363 . S
C1893 C1896 1.363 . S
N1894 C1896 1.356 . S
N1894 H1906 0.984 . S
N1894 H1907 0.985 . S
N1895 C1897 1.356 . S
N1895 H1900 0.984 . S
N1895 H1901 0.985 . S
C1896 C1890 1.379 . S
C1896 C1893 1.363 . S
C1896 N1894 1.356 . S
C1897 C1891 1.363 . S
C1897 C1892 1.379 . S
C1897 N1895 1.356 . S
N1898 C1890 1.356 . S
N1898 H1904 0.984 . S
N1898 H1905 0.984 . S
N1899 C1892 1.356 . S
N1899 H1902 0.984 . S
N1899 H1903 0.985 . S
H1900 N1895 0.984 . S
H1901 N1895 0.985 . S
H1902 N1899 0.984 . S
H1903 N1899 0.985 . S
H1904 N1898 0.984 . S
H1905 N1898 0.984 . S
H1906 N1894 0.984 . S
H1907 N1894 0.985 . S
C1908 C1909 1.363 . S
C1908 C1914 1.379 . S
C1908 N1916 1.356 . S
C1909 C1908 1.363 . S
C1909 C1915 1.363 . S
C1910 C1911 1.363 . S
C1910 C1915 1.379 . S
C1910 N1917 1.356 . S
C1911 C1910 1.363 . S
C1911 C1914 1.363 . S
N1912 C1914 1.356 . S
N1912 H1924 0.984 . S
N1912 H1925 0.985 . S
N1913 C1915 1.356 . S
N1913 H1918 0.984 . S
N1913 H1919 0.985 . S
C1914 C1908 1.379 . S
C1914 C1911 1.363 . S
C1914 N1912 1.356 . S
C1915 C1909 1.363 . S
C1915 C1910 1.379 . S
C1915 N1913 1.356 . S
N1916 C1908 1.356 . S
N1916 H1922 0.984 . S
N1916 H1923 0.984 . S
N1917 C1910 1.356 . S
N1917 H1920 0.984 . S
N1917 H1921 0.985 . S
H1918 N1913 0.984 . S
H1919 N1913 0.985 . S
H1920 N1917 0.984 . S
H1921 N1917 0.985 . S
H1922 N1916 0.984 . S
H1923 N1916 0.984 . S
H1924 N1912 0.984 . S
H1925 N1912 0.985 . S
C1926 C1927 1.363 . S
C1926 C1932 1.379 . S
C1926 N1934 1.356 . S
C1927 C1926 1.363 . S
C1927 C1933 1.363 1_556 S
C1928 C1929 1.363 1_554 S
C1928 C1933 1.379 . S
C1928 N1935 1.356 . S
C1929 C1928 1.363 1_556 S
C1929 C1932 1.363 . S
N1930 C1932 1.356 . S
N1930 H1942 0.984 . S
N1930 H1943 0.985 . S
N1931 C1933 1.356 . S
N1931 H1936 0.984 . S
N1931 H1937 0.985 . S
C1932 C1926 1.379 . S
C1932 C1929 1.363 . S
C1932 N1930 1.356 . S
C1933 C1927 1.363 1_554 S
C1933 C1928 1.379 . S
C1933 N1931 1.356 . S
N1934 C1926 1.356 . S
N1934 H1940 0.984 . S
N1934 H1941 0.984 . S
N1935 C1928 1.356 . S
N1935 H1938 0.984 . S
N1935 H1939 0.985 . S
H1936 N1931 0.984 . S
H1937 N1931 0.985 . S
H1938 N1935 0.984 . S
H1939 N1935 0.985 . S
H1940 N1934 0.984 . S
H1941 N1934 0.984 . S
H1942 N1930 0.984 . S
H1943 N1930 0.985 . S
C1944 C1945 1.363 . S
C1944 C1950 1.379 . S
C1944 N1952 1.356 . S
C1945 C1944 1.363 . S
C1945 C1951 1.363 1_556 S
C1946 C1947 1.363 1_554 S
C1946 C1951 1.379 . S
C1946 N1953 1.356 . S
C1947 C1946 1.363 1_556 S
C1947 C1950 1.363 . S
N1948 C1950 1.356 . S
N1948 H1960 0.984 . S
N1948 H1961 0.985 . S
N1949 C1951 1.356 . S
N1949 H1954 0.984 . S
N1949 H1955 0.985 . S
C1950 C1944 1.379 . S
C1950 C1947 1.363 . S
C1950 N1948 1.356 . S
C1951 C1945 1.363 1_554 S
C1951 C1946 1.379 . S
C1951 N1949 1.356 . S
N1952 C1944 1.356 . S
N1952 H1958 0.984 . S
N1952 H1959 0.984 . S
N1953 C1946 1.356 . S
N1953 H1956 0.984 . S
N1953 H1957 0.985 . S
H1954 N1949 0.984 . S
H1955 N1949 0.985 . S
H1956 N1953 0.984 . S
H1957 N1953 0.985 . S
H1958 N1952 0.984 . S
H1959 N1952 0.984 . S
H1960 N1948 0.984 . S
H1961 N1948 0.985 . S
C1962 C1963 1.363 . S
C1962 C1968 1.379 . S
C1962 N1970 1.356 . S
C1963 C1962 1.363 . S
C1963 C1969 1.363 1_556 S
C1964 C1965 1.363 1_554 S
C1964 C1969 1.379 . S
C1964 N1971 1.356 . S
C1965 C1964 1.363 1_556 S
C1965 C1968 1.363 . S
N1966 C1968 1.356 . S
N1966 H1978 0.984 . S
N1966 H1979 0.985 . S
N1967 C1969 1.356 . S
N1967 H1972 0.984 . S
N1967 H1973 0.985 . S
C1968 C1962 1.379 . S
C1968 C1965 1.363 . S
C1968 N1966 1.356 . S
C1969 C1963 1.363 1_554 S
C1969 C1964 1.379 . S
C1969 N1967 1.356 . S
N1970 C1962 1.356 . S
N1970 H1976 0.984 . S
N1970 H1977 0.984 . S
N1971 C1964 1.356 . S
N1971 H1974 0.984 . S
N1971 H1975 0.985 . S
H1972 N1967 0.984 . S
H1973 N1967 0.985 . S
H1974 N1971 0.984 . S
H1975 N1971 0.985 . S
H1976 N1970 0.984 . S
H1977 N1970 0.984 . S
H1978 N1966 0.984 . S
H1979 N1966 0.985 . S
C1980 C1981 1.363 . S
C1980 C1986 1.379 . S
C1980 N1988 1.356 . S
C1981 C1980 1.363 . S
C1981 C1987 1.363 . S
C1982 C1983 1.363 . S
C1982 C1987 1.379 . S
C1982 N1989 1.356 . S
C1983 C1982 1.363 . S
C1983 C1986 1.363 . S
N1984 C1986 1.356 . S
N1984 H1996 0.984 . S
N1984 H1997 0.985 . S
N1985 C1987 1.356 . S
N1985 H1990 0.984 . S
N1985 H1991 0.985 . S
C1986 C1980 1.379 . S
C1986 C1983 1.363 . S
C1986 N1984 1.356 . S
C1987 C1981 1.363 . S
C1987 C1982 1.379 . S
C1987 N1985 1.356 . S
N1988 C1980 1.356 . S
N1988 H1994 0.984 . S
N1988 H1995 0.984 . S
N1989 C1982 1.356 . S
N1989 H1992 0.984 . S
N1989 H1993 0.985 . S
H1990 N1985 0.984 . S
H1991 N1985 0.985 . S
H1992 N1989 0.984 . S
H1993 N1989 0.985 . S
H1994 N1988 0.984 . S
H1995 N1988 0.984 . S
H1996 N1984 0.984 . S
H1997 N1984 0.985 . S
C1998 C1999 1.363 . S
C1998 C2004 1.379 . S
C1998 N2006 1.356 . S
C1999 C1998 1.363 . S
C1999 C2005 1.363 . S
C2000 C2001 1.363 . S
C2000 C2005 1.379 . S
C2000 N2007 1.356 . S
C2001 C2000 1.363 . S
C2001 C2004 1.363 . S
N2002 C2004 1.356 . S
N2002 H2014 0.984 . S
N2002 H2015 0.985 . S
N2003 C2005 1.356 . S
N2003 H2008 0.984 . S
N2003 H2009 0.985 . S
C2004 C1998 1.379 . S
C2004 C2001 1.363 . S
C2004 N2002 1.356 . S
C2005 C1999 1.363 . S
C2005 C2000 1.379 . S
C2005 N2003 1.356 . S
N2006 C1998 1.356 . S
N2006 H2012 0.984 . S
N2006 H2013 0.984 . S
N2007 C2000 1.356 . S
N2007 H2010 0.984 . S
N2007 H2011 0.985 . S
H2008 N2003 0.984 . S
H2009 N2003 0.985 . S
H2010 N2007 0.984 . S
H2011 N2007 0.985 . S
H2012 N2006 0.984 . S
H2013 N2006 0.984 . S
H2014 N2002 0.984 . S
H2015 N2002 0.985 . S
C2016 C2017 1.363 . S
C2016 C2022 1.379 . S
C2016 N2024 1.356 . S
C2017 C2016 1.363 . S
C2017 C2023 1.363 . S
C2018 C2019 1.363 . S
C2018 C2023 1.379 . S
C2018 N2025 1.356 . S
C2019 C2018 1.363 . S
C2019 C2022 1.363 . S
N2020 C2022 1.356 . S
N2020 H2032 0.984 . S
N2020 H2033 0.985 . S
N2021 C2023 1.356 . S
N2021 H2026 0.984 . S
N2021 H2027 0.985 . S
C2022 C2016 1.379 . S
C2022 C2019 1.363 . S
C2022 N2020 1.356 . S
C2023 C2017 1.363 . S
C2023 C2018 1.379 . S
C2023 N2021 1.356 . S
N2024 C2016 1.356 . S
N2024 H2030 0.984 . S
N2024 H2031 0.984 . S
N2025 C2018 1.356 . S
N2025 H2028 0.984 . S
N2025 H2029 0.985 . S
H2026 N2021 0.984 . S
H2027 N2021 0.985 . S
H2028 N2025 0.984 . S
H2029 N2025 0.985 . S
H2030 N2024 0.984 . S
H2031 N2024 0.984 . S
H2032 N2020 0.984 . S
H2033 N2020 0.985 . S
C2034 C2035 1.363 . S
C2034 C2040 1.379 . S
C2034 N2042 1.356 . S
C2035 C2034 1.363 . S
C2035 C2041 1.363 . S
C2036 C2037 1.363 . S
C2036 C2041 1.379 . S
C2036 N2043 1.356 . S
C2037 C2036 1.363 . S
C2037 C2040 1.363 . S
N2038 C2040 1.356 . S
N2038 H2050 0.984 . S
N2038 H2051 0.985 . S
N2039 C2041 1.356 . S
N2039 H2044 0.984 . S
N2039 H2045 0.985 . S
C2040 C2034 1.379 . S
C2040 C2037 1.363 . S
C2040 N2038 1.356 . S
C2041 C2035 1.363 . S
C2041 C2036 1.379 . S
C2041 N2039 1.356 . S
N2042 C2034 1.356 . S
N2042 H2048 0.984 . S
N2042 H2049 0.984 . S
N2043 C2036 1.356 . S
N2043 H2046 0.984 . S
N2043 H2047 0.985 . S
H2044 N2039 0.984 . S
H2045 N2039 0.985 . S
H2046 N2043 0.984 . S
H2047 N2043 0.985 . S
H2048 N2042 0.984 . S
H2049 N2042 0.984 . S
H2050 N2038 0.984 . S
H2051 N2038 0.985 . S
C2052 C2053 1.363 . S
C2052 C2058 1.379 . S
C2052 N2060 1.356 . S
C2053 C2052 1.363 . S
C2053 C2059 1.363 . S
C2054 C2055 1.363 . S
C2054 C2059 1.379 . S
C2054 N2061 1.356 . S
C2055 C2054 1.363 . S
C2055 C2058 1.363 . S
N2056 C2058 1.356 . S
N2056 H2068 0.984 . S
N2056 H2069 0.985 . S
N2057 C2059 1.356 . S
N2057 H2062 0.984 . S
N2057 H2063 0.985 . S
C2058 C2052 1.379 . S
C2058 C2055 1.363 . S
C2058 N2056 1.356 . S
C2059 C2053 1.363 . S
C2059 C2054 1.379 . S
C2059 N2057 1.356 . S
N2060 C2052 1.356 . S
N2060 H2066 0.984 . S
N2060 H2067 0.984 . S
N2061 C2054 1.356 . S
N2061 H2064 0.984 . S
N2061 H2065 0.985 . S
H2062 N2057 0.984 . S
H2063 N2057 0.985 . S
H2064 N2061 0.984 . S
H2065 N2061 0.985 . S
H2066 N2060 0.984 . S
H2067 N2060 0.984 . S
H2068 N2056 0.984 . S
H2069 N2056 0.985 . S
C2070 C2071 1.363 . S
C2070 C2076 1.379 . S
C2070 N2078 1.356 . S
C2071 C2070 1.363 . S
C2071 C2077 1.363 . S
C2072 C2073 1.363 . S
C2072 C2077 1.379 . S
C2072 N2079 1.356 . S
C2073 C2072 1.363 . S
C2073 C2076 1.363 . S
N2074 C2076 1.356 . S
N2074 H2086 0.984 . S
N2074 H2087 0.985 . S
N2075 C2077 1.356 . S
N2075 H2080 0.984 . S
N2075 H2081 0.985 . S
C2076 C2070 1.379 . S
C2076 C2073 1.363 . S
C2076 N2074 1.356 . S
C2077 C2071 1.363 . S
C2077 C2072 1.379 . S
C2077 N2075 1.356 . S
N2078 C2070 1.356 . S
N2078 H2084 0.984 . S
N2078 H2085 0.984 . S
N2079 C2072 1.356 . S
N2079 H2082 0.984 . S
N2079 H2083 0.985 . S
H2080 N2075 0.984 . S
H2081 N2075 0.985 . S
H2082 N2079 0.984 . S
H2083 N2079 0.985 . S
H2084 N2078 0.984 . S
H2085 N2078 0.984 . S
H2086 N2074 0.984 . S
H2087 N2074 0.985 . S
C2088 C2089 1.363 . S
C2088 C2094 1.379 . S
C2088 N2096 1.356 . S
C2089 C2088 1.363 . S
C2089 C2095 1.363 . S
C2090 C2091 1.363 . S
C2090 C2095 1.379 . S
C2090 N2097 1.356 . S
C2091 C2090 1.363 . S
C2091 C2094 1.363 . S
N2092 C2094 1.356 . S
N2092 H2104 0.984 . S
N2092 H2105 0.985 . S
N2093 C2095 1.356 . S
N2093 H2098 0.984 . S
N2093 H2099 0.985 . S
C2094 C2088 1.379 . S
C2094 C2091 1.363 . S
C2094 N2092 1.356 . S
C2095 C2089 1.363 . S
C2095 C2090 1.379 . S
C2095 N2093 1.356 . S
N2096 C2088 1.356 . S
N2096 H2102 0.984 . S
N2096 H2103 0.984 . S
N2097 C2090 1.356 . S
N2097 H2100 0.984 . S
N2097 H2101 0.985 . S
H2098 N2093 0.984 . S
H2099 N2093 0.985 . S
H2100 N2097 0.984 . S
H2101 N2097 0.985 . S
H2102 N2096 0.984 . S
H2103 N2096 0.984 . S
H2104 N2092 0.984 . S
H2105 N2092 0.985 . S
C2106 C2107 1.363 . S
C2106 C2112 1.379 . S
C2106 N2114 1.356 . S
C2107 C2106 1.363 . S
C2107 C2113 1.363 1_565 S
C2108 C2109 1.363 . S
C2108 C2113 1.379 1_565 S
C2108 N2115 1.356 . S
C2109 C2108 1.363 . S
C2109 C2112 1.363 . S
N2110 C2112 1.356 . S
N2110 H2122 0.984 . S
N2110 H2123 0.985 . S
N2111 C2113 1.356 . S
N2111 H2116 0.984 . S
N2111 H2117 0.985 . S
C2112 C2106 1.379 . S
C2112 C2109 1.363 . S
C2112 N2110 1.356 . S
C2113 C2107 1.363 1_545 S
C2113 C2108 1.379 1_545 S
C2113 N2111 1.356 . S
N2114 C2106 1.356 . S
N2114 H2120 0.984 . S
N2114 H2121 0.984 . S
N2115 C2108 1.356 . S
N2115 H2118 0.984 . S
N2115 H2119 0.985 1_565 S
H2116 N2111 0.984 . S
H2117 N2111 0.985 . S
H2118 N2115 0.984 . S
H2119 N2115 0.985 1_545 S
H2120 N2114 0.984 . S
H2121 N2114 0.984 . S
H2122 N2110 0.984 . S
H2123 N2110 0.985 . S
C2124 C2125 1.363 . S
C2124 C2130 1.379 . S
C2124 N2132 1.356 . S
C2125 C2124 1.363 . S
C2125 C2131 1.363 . S
C2126 C2127 1.363 1_655 S
C2126 C2131 1.379 1_655 S
C2126 N2133 1.356 . S
C2127 C2126 1.363 1_455 S
C2127 C2130 1.363 . S
N2128 C2130 1.356 . S
N2128 H2140 0.984 . S
N2128 H2141 0.985 . S
N2129 C2131 1.356 1_655 S
N2129 H2134 0.984 1_655 S
N2129 H2135 0.985 . S
C2130 C2124 1.379 . S
C2130 C2127 1.363 . S
C2130 N2128 1.356 . S
C2131 C2125 1.363 . S
C2131 C2126 1.379 1_455 S
C2131 N2129 1.356 1_455 S
N2132 C2124 1.356 . S
N2132 H2138 0.984 . S
N2132 H2139 0.984 . S
N2133 C2126 1.356 . S
N2133 H2136 0.984 . S
N2133 H2137 0.985 . S
H2134 N2129 0.984 1_455 S
H2135 N2129 0.985 . S
H2136 N2133 0.984 . S
H2137 N2133 0.985 . S
H2138 N2132 0.984 . S
H2139 N2132 0.984 . S
H2140 N2128 0.984 . S
H2141 N2128 0.985 . S
C2142 C2143 1.363 . S
C2142 C2148 1.379 . S
C2142 N2150 1.356 . S
C2143 C2142 1.363 . S
C2143 C2149 1.363 . S
C2144 C2145 1.363 . S
C2144 C2149 1.379 . S
C2144 N2151 1.356 . S
C2145 C2144 1.363 . S
C2145 C2148 1.363 . S
N2146 C2148 1.356 . S
N2146 H2158 0.984 . S
N2146 H2159 0.985 . S
N2147 C2149 1.356 . S
N2147 H2152 0.984 . S
N2147 H2153 0.985 . S
C2148 C2142 1.379 . S
C2148 C2145 1.363 . S
C2148 N2146 1.356 . S
C2149 C2143 1.363 . S
C2149 C2144 1.379 . S
C2149 N2147 1.356 . S
N2150 C2142 1.356 . S
N2150 H2156 0.984 . S
N2150 H2157 0.984 . S
N2151 C2144 1.356 . S
N2151 H2154 0.984 . S
N2151 H2155 0.985 . S
H2152 N2147 0.984 . S
H2153 N2147 0.985 . S
H2154 N2151 0.984 . S
H2155 N2151 0.985 . S
H2156 N2150 0.984 . S
H2157 N2150 0.984 . S
H2158 N2146 0.984 . S
H2159 N2146 0.985 . S
C2160 C2161 1.363 . S
C2160 C2166 1.379 . S
C2160 N2168 1.356 . S
C2161 C2160 1.363 . S
C2161 C2167 1.363 . S
C2162 C2163 1.363 . S
C2162 C2167 1.379 . S
C2162 N2169 1.356 . S
C2163 C2162 1.363 . S
C2163 C2166 1.363 . S
N2164 C2166 1.356 . S
N2164 H2176 0.984 . S
N2164 H2177 0.985 . S
N2165 C2167 1.356 1_565 S
N2165 H2170 0.984 . S
N2165 H2171 0.985 . S
C2166 C2160 1.379 . S
C2166 C2163 1.363 . S
C2166 N2164 1.356 . S
C2167 C2161 1.363 . S
C2167 C2162 1.379 . S
C2167 N2165 1.356 1_545 S
N2168 C2160 1.356 . S
N2168 H2174 0.984 . S
N2168 H2175 0.984 . S
N2169 C2162 1.356 . S
N2169 H2172 0.984 . S
N2169 H2173 0.985 . S
H2170 N2165 0.984 . S
H2171 N2165 0.985 . S
H2172 N2169 0.984 . S
H2173 N2169 0.985 . S
H2174 N2168 0.984 . S
H2175 N2168 0.984 . S
H2176 N2164 0.984 . S
H2177 N2164 0.985 . S
C2178 C2179 1.363 . S
C2178 C2184 1.379 1_655 S
C2178 N2186 1.356 . S
C2179 C2178 1.363 . S
C2179 C2185 1.363 . S
C2180 C2181 1.363 . S
C2180 C2185 1.379 . S
C2180 N2187 1.356 . S
C2181 C2180 1.363 . S
C2181 C2184 1.363 1_655 S
N2182 C2184 1.356 . S
N2182 H2194 0.984 . S
N2182 H2195 0.985 . S
N2183 C2185 1.356 . S
N2183 H2188 0.984 . S
N2183 H2189 0.985 . S
C2184 C2178 1.379 1_455 S
C2184 C2181 1.363 1_455 S
C2184 N2182 1.356 . S
C2185 C2179 1.363 . S
C2185 C2180 1.379 . S
C2185 N2183 1.356 . S
N2186 C2178 1.356 . S
N2186 H2192 0.984 1_655 S
N2186 H2193 0.984 . S
N2187 C2180 1.356 . S
N2187 H2190 0.984 . S
N2187 H2191 0.985 . S
H2188 N2183 0.984 . S
H2189 N2183 0.985 . S
H2190 N2187 0.984 . S
H2191 N2187 0.985 . S
H2192 N2186 0.984 1_455 S
H2193 N2186 0.984 . S
H2194 N2182 0.984 . S
H2195 N2182 0.985 . S
C2196 C2197 1.363 . S
C2196 C2202 1.379 . S
C2196 N2204 1.356 . S
C2197 C2196 1.363 . S
C2197 C2203 1.363 . S
C2198 C2199 1.363 . S
C2198 C2203 1.379 . S
C2198 N2205 1.356 . S
C2199 C2198 1.363 . S
C2199 C2202 1.363 . S
N2200 C2202 1.356 . S
N2200 H2212 0.984 . S
N2200 H2213 0.985 . S
N2201 C2203 1.356 . S
N2201 H2206 0.984 . S
N2201 H2207 0.985 . S
C2202 C2196 1.379 . S
C2202 C2199 1.363 . S
C2202 N2200 1.356 . S
C2203 C2197 1.363 . S
C2203 C2198 1.379 . S
C2203 N2201 1.356 . S
N2204 C2196 1.356 . S
N2204 H2210 0.984 . S
N2204 H2211 0.984 . S
N2205 C2198 1.356 . S
N2205 H2208 0.984 . S
N2205 H2209 0.985 . S
H2206 N2201 0.984 . S
H2207 N2201 0.985 . S
H2208 N2205 0.984 . S
H2209 N2205 0.985 . S
H2210 N2204 0.984 . S
H2211 N2204 0.984 . S
H2212 N2200 0.984 . S
H2213 N2200 0.985 . S
C2214 C2215 1.363 . S
C2214 C2220 1.379 . S
C2214 N2222 1.356 . S
C2215 C2214 1.363 . S
C2215 C2221 1.363 . S
C2216 C2217 1.363 1_565 S
C2216 C2221 1.379 1_565 S
C2216 N2223 1.356 . S
C2217 C2216 1.363 1_545 S
C2217 C2220 1.363 . S
N2218 C2220 1.356 . S
N2218 H2230 0.984 . S
N2218 H2231 0.985 . S
N2219 C2221 1.356 1_565 S
N2219 H2224 0.984 1_565 S
N2219 H2225 0.985 . S
C2220 C2214 1.379 . S
C2220 C2217 1.363 . S
C2220 N2218 1.356 . S
C2221 C2215 1.363 . S
C2221 C2216 1.379 1_545 S
C2221 N2219 1.356 1_545 S
N2222 C2214 1.356 . S
N2222 H2228 0.984 . S
N2222 H2229 0.984 . S
N2223 C2216 1.356 . S
N2223 H2226 0.984 . S
N2223 H2227 0.985 . S
H2224 N2219 0.984 1_545 S
H2225 N2219 0.985 . S
H2226 N2223 0.984 . S
H2227 N2223 0.985 . S
H2228 N2222 0.984 . S
H2229 N2222 0.984 . S
H2230 N2218 0.984 . S
H2231 N2218 0.985 . S
C2232 C2233 1.363 . S
C2232 C2238 1.379 1_655 S
C2232 N2240 1.356 . S
C2233 C2232 1.363 . S
C2233 C2239 1.363 . S
C2234 C2235 1.363 . S
C2234 C2239 1.379 . S
C2234 N2241 1.356 . S
C2235 C2234 1.363 . S
C2235 C2238 1.363 1_655 S
N2236 C2238 1.356 . S
N2236 H2248 0.984 . S
N2236 H2249 0.985 . S
N2237 C2239 1.356 . S
N2237 H2242 0.984 . S
N2237 H2243 0.985 . S
C2238 C2232 1.379 1_455 S
C2238 C2235 1.363 1_455 S
C2238 N2236 1.356 . S
C2239 C2233 1.363 . S
C2239 C2234 1.379 . S
C2239 N2237 1.356 . S
N2240 C2232 1.356 . S
N2240 H2246 0.984 1_655 S
N2240 H2247 0.984 . S
N2241 C2234 1.356 . S
N2241 H2244 0.984 . S
N2241 H2245 0.985 . S
H2242 N2237 0.984 . S
H2243 N2237 0.985 . S
H2244 N2241 0.984 . S
H2245 N2241 0.985 . S
H2246 N2240 0.984 1_455 S
H2247 N2240 0.984 . S
H2248 N2236 0.984 . S
H2249 N2236 0.985 . S
C2250 C2251 1.363 . S
C2250 C2256 1.379 . S
C2250 N2258 1.356 . S
C2251 C2250 1.363 . S
C2251 C2257 1.363 . S
C2252 C2253 1.363 . S
C2252 C2257 1.379 . S
C2252 N2259 1.356 . S
C2253 C2252 1.363 . S
C2253 C2256 1.363 . S
N2254 C2256 1.356 . S
N2254 H2266 0.984 . S
N2254 H2267 0.985 . S
N2255 C2257 1.356 . S
N2255 H2260 0.984 . S
N2255 H2261 0.985 . S
C2256 C2250 1.379 . S
C2256 C2253 1.363 . S
C2256 N2254 1.356 . S
C2257 C2251 1.363 . S
C2257 C2252 1.379 . S
C2257 N2255 1.356 . S
N2258 C2250 1.356 . S
N2258 H2264 0.984 . S
N2258 H2265 0.984 . S
N2259 C2252 1.356 . S
N2259 H2262 0.984 . S
N2259 H2263 0.985 . S
H2260 N2255 0.984 . S
H2261 N2255 0.985 . S
H2262 N2259 0.984 . S
H2263 N2259 0.985 . S
H2264 N2258 0.984 . S
H2265 N2258 0.984 . S
H2266 N2254 0.984 . S
H2267 N2254 0.985 . S
C2268 C2269 1.363 1_545 S
C2268 C2274 1.379 1_545 S
C2268 N2276 1.356 . S
C2269 C2268 1.363 1_565 S
C2269 C2275 1.363 . S
C2270 C2271 1.363 . S
C2270 C2275 1.379 . S
C2270 N2277 1.356 . S
C2271 C2270 1.363 . S
C2271 C2274 1.363 . S
N2272 C2274 1.356 . S
N2272 H2284 0.984 1_565 S
N2272 H2285 0.985 . S
N2273 C2275 1.356 . S
N2273 H2278 0.984 . S
N2273 H2279 0.985 . S
C2274 C2268 1.379 1_565 S
C2274 C2271 1.363 . S
C2274 N2272 1.356 . S
C2275 C2269 1.363 . S
C2275 C2270 1.379 . S
C2275 N2273 1.356 . S
N2276 C2268 1.356 . S
N2276 H2282 0.984 . S
N2276 H2283 0.984 . S
N2277 C2270 1.356 . S
N2277 H2280 0.984 . S
N2277 H2281 0.985 . S
H2278 N2273 0.984 . S
H2279 N2273 0.985 . S
H2280 N2277 0.984 . S
H2281 N2277 0.985 . S
H2282 N2276 0.984 . S
H2283 N2276 0.984 . S
H2284 N2272 0.984 1_545 S
H2285 N2272 0.985 . S
C2286 C2287 1.363 . S
C2286 C2292 1.379 . S
C2286 N2294 1.356 . S
C2287 C2286 1.363 . S
C2287 C2293 1.363 . S
C2288 C2289 1.363 . S
C2288 C2293 1.379 . S
C2288 N2295 1.356 . S
C2289 C2288 1.363 . S
C2289 C2292 1.363 . S
N2290 C2292 1.356 . S
N2290 H2302 0.984 . S
N2290 H2303 0.985 . S
N2291 C2293 1.356 1_655 S
N2291 H2296 0.984 . S
N2291 H2297 0.985 . S
C2292 C2286 1.379 . S
C2292 C2289 1.363 . S
C2292 N2290 1.356 . S
C2293 C2287 1.363 . S
C2293 C2288 1.379 . S
C2293 N2291 1.356 1_455 S
N2294 C2286 1.356 . S
N2294 H2300 0.984 . S
N2294 H2301 0.984 . S
N2295 C2288 1.356 . S
N2295 H2298 0.984 . S
N2295 H2299 0.985 1_455 S
H2296 N2291 0.984 . S
H2297 N2291 0.985 . S
H2298 N2295 0.984 . S
H2299 N2295 0.985 1_655 S
H2300 N2294 0.984 . S
H2301 N2294 0.984 . S
H2302 N2290 0.984 . S
H2303 N2290 0.985 . S
C2304 C2305 1.363 1_455 S
C2304 C2310 1.379 . S
C2304 N2312 1.356 1_455 S
C2305 C2304 1.363 1_655 S
C2305 C2311 1.363 1_655 S
C2306 C2307 1.363 . S
C2306 C2311 1.379 . S
C2306 N2313 1.356 . S
C2307 C2306 1.363 . S
C2307 C2310 1.363 . S
N2308 C2310 1.356 . S
N2308 H2320 0.984 . S
N2308 H2321 0.985 . S
N2309 C2311 1.356 1_655 S
N2309 H2314 0.984 . S
N2309 H2315 0.985 . S
C2310 C2304 1.379 . S
C2310 C2307 1.363 . S
C2310 N2308 1.356 . S
C2311 C2305 1.363 1_455 S
C2311 C2306 1.379 . S
C2311 N2309 1.356 1_455 S
N2312 C2304 1.356 1_655 S
N2312 H2318 0.984 . S
N2312 H2319 0.984 . S
N2313 C2306 1.356 . S
N2313 H2316 0.984 . S
N2313 H2317 0.985 . S
H2314 N2309 0.984 . S
H2315 N2309 0.985 . S
H2316 N2313 0.984 . S
H2317 N2313 0.985 . S
H2318 N2312 0.984 . S
H2319 N2312 0.984 . S
H2320 N2308 0.984 . S
H2321 N2308 0.985 . S
C2322 C2323 1.363 . S
C2322 C2328 1.379 . S
C2322 N2330 1.356 . S
C2323 C2322 1.363 . S
C2323 C2329 1.363 . S
C2324 C2325 1.363 . S
C2324 C2329 1.379 . S
C2324 N2331 1.356 . S
C2325 C2324 1.363 . S
C2325 C2328 1.363 . S
N2326 C2328 1.356 . S
N2326 H2338 0.984 . S
N2326 H2339 0.985 . S
N2327 C2329 1.356 . S
N2327 H2332 0.984 . S
N2327 H2333 0.985 . S
C2328 C2322 1.379 . S
C2328 C2325 1.363 . S
C2328 N2326 1.356 . S
C2329 C2323 1.363 . S
C2329 C2324 1.379 . S
C2329 N2327 1.356 . S
N2330 C2322 1.356 . S
N2330 H2336 0.984 . S
N2330 H2337 0.984 . S
N2331 C2324 1.356 . S
N2331 H2334 0.984 . S
N2331 H2335 0.985 . S
H2332 N2327 0.984 . S
H2333 N2327 0.985 . S
H2334 N2331 0.984 . S
H2335 N2331 0.985 . S
H2336 N2330 0.984 . S
H2337 N2330 0.984 . S
H2338 N2326 0.984 . S
H2339 N2326 0.985 . S
C2340 C2341 1.363 . S
C2340 C2346 1.379 . S
C2340 N2348 1.356 . S
C2341 C2340 1.363 . S
C2341 C2347 1.363 . S
C2342 C2343 1.363 . S
C2342 C2347 1.379 1_545 S
C2342 N2349 1.356 . S
C2343 C2342 1.363 . S
C2343 C2346 1.363 1_545 S
N2344 C2346 1.356 1_545 S
N2344 H2356 0.984 . S
N2344 H2357 0.985 . S
N2345 C2347 1.356 . S
N2345 H2350 0.984 . S
N2345 H2351 0.985 . S
C2346 C2340 1.379 . S
C2346 C2343 1.363 1_565 S
C2346 N2344 1.356 1_565 S
C2347 C2341 1.363 . S
C2347 C2342 1.379 1_565 S
C2347 N2345 1.356 . S
N2348 C2340 1.356 . S
N2348 H2354 0.984 . S
N2348 H2355 0.984 . S
N2349 C2342 1.356 . S
N2349 H2352 0.984 . S
N2349 H2353 0.985 . S
H2350 N2345 0.984 . S
H2351 N2345 0.985 . S
H2352 N2349 0.984 . S
H2353 N2349 0.985 . S
H2354 N2348 0.984 . S
H2355 N2348 0.984 . S
H2356 N2344 0.984 . S
H2357 N2344 0.985 . S
C2358 C2359 1.363 . S
C2358 C2364 1.379 . S
C2358 N2366 1.356 . S
C2359 C2358 1.363 . S
C2359 C2365 1.363 . S
C2360 C2361 1.363 . S
C2360 C2365 1.379 . S
C2360 N2367 1.356 . S
C2361 C2360 1.363 . S
C2361 C2364 1.363 . S
N2362 C2364 1.356 1_655 S
N2362 H2374 0.984 . S
N2362 H2375 0.985 . S
N2363 C2365 1.356 . S
N2363 H2368 0.984 . S
N2363 H2369 0.985 . S
C2364 C2358 1.379 . S
C2364 C2361 1.363 . S
C2364 N2362 1.356 1_455 S
C2365 C2359 1.363 . S
C2365 C2360 1.379 . S
C2365 N2363 1.356 . S
N2366 C2358 1.356 . S
N2366 H2372 0.984 . S
N2366 H2373 0.984 . S
N2367 C2360 1.356 . S
N2367 H2370 0.984 . S
N2367 H2371 0.985 . S
H2368 N2363 0.984 . S
H2369 N2363 0.985 . S
H2370 N2367 0.984 . S
H2371 N2367 0.985 . S
H2372 N2366 0.984 . S
H2373 N2366 0.984 . S
H2374 N2362 0.984 . S
H2375 N2362 0.985 . S
C2376 C2377 1.363 . S
C2376 C2382 1.379 . S
C2376 N2384 1.356 . S
C2377 C2376 1.363 . S
C2377 C2383 1.363 . S
C2378 C2379 1.363 . S
C2378 C2383 1.379 . S
C2378 N2385 1.356 . S
C2379 C2378 1.363 . S
C2379 C2382 1.363 . S
N2380 C2382 1.356 . S
N2380 H2392 0.984 . S
N2380 H2393 0.985 . S
N2381 C2383 1.356 . S
N2381 H2386 0.984 . S
N2381 H2387 0.985 . S
C2382 C2376 1.379 . S
C2382 C2379 1.363 . S
C2382 N2380 1.356 . S
C2383 C2377 1.363 . S
C2383 C2378 1.379 . S
C2383 N2381 1.356 . S
N2384 C2376 1.356 . S
N2384 H2390 0.984 . S
N2384 H2391 0.984 . S
N2385 C2378 1.356 . S
N2385 H2388 0.984 . S
N2385 H2389 0.985 . S
H2386 N2381 0.984 . S
H2387 N2381 0.985 . S
H2388 N2385 0.984 . S
H2389 N2385 0.985 . S
H2390 N2384 0.984 . S
H2391 N2384 0.984 . S
H2392 N2380 0.984 . S
H2393 N2380 0.985 . S
C2394 C2395 1.363 . S
C2394 C2400 1.379 . S
C2394 N2402 1.356 . S
C2395 C2394 1.363 . S
C2395 C2401 1.363 . S
C2396 C2397 1.363 . S
C2396 C2401 1.379 . S
C2396 N2403 1.356 . S
C2397 C2396 1.363 . S
C2397 C2400 1.363 . S
N2398 C2400 1.356 1_545 S
N2398 H2410 0.984 . S
N2398 H2411 0.985 . S
N2399 C2401 1.356 . S
N2399 H2404 0.984 . S
N2399 H2405 0.985 . S
C2400 C2394 1.379 . S
C2400 C2397 1.363 . S
C2400 N2398 1.356 1_565 S
C2401 C2395 1.363 . S
C2401 C2396 1.379 . S
C2401 N2399 1.356 . S
N2402 C2394 1.356 . S
N2402 H2408 0.984 . S
N2402 H2409 0.984 . S
N2403 C2396 1.356 . S
N2403 H2406 0.984 . S
N2403 H2407 0.985 . S
H2404 N2399 0.984 . S
H2405 N2399 0.985 . S
H2406 N2403 0.984 . S
H2407 N2403 0.985 . S
H2408 N2402 0.984 . S
H2409 N2402 0.984 . S
H2410 N2398 0.984 . S
H2411 N2398 0.985 . S
C2412 C2413 1.363 . S
C2412 C2418 1.379 . S
C2412 N2420 1.356 . S
C2413 C2412 1.363 . S
C2413 C2419 1.363 . S
C2414 C2415 1.363 . S
C2414 C2419 1.379 . S
C2414 N2421 1.356 1_565 S
C2415 C2414 1.363 . S
C2415 C2418 1.363 . S
N2416 C2418 1.356 . S
N2416 H2428 0.984 . S
N2416 H2429 0.985 . S
N2417 C2419 1.356 . S
N2417 H2422 0.984 . S
N2417 H2423 0.985 . S
C2418 C2412 1.379 . S
C2418 C2415 1.363 . S
C2418 N2416 1.356 . S
C2419 C2413 1.363 . S
C2419 C2414 1.379 . S
C2419 N2417 1.356 . S
N2420 C2412 1.356 . S
N2420 H2426 0.984 . S
N2420 H2427 0.984 . S
N2421 C2414 1.356 1_545 S
N2421 H2424 0.984 . S
N2421 H2425 0.985 . S
H2422 N2417 0.984 . S
H2423 N2417 0.985 . S
H2424 N2421 0.984 . S
H2425 N2421 0.985 . S
H2426 N2420 0.984 . S
H2427 N2420 0.984 . S
H2428 N2416 0.984 . S
H2429 N2416 0.985 . S
C2430 C2431 1.363 . S
C2430 C2436 1.379 . S
C2430 N2438 1.356 1_455 S
C2431 C2430 1.363 . S
C2431 C2437 1.363 . S
C2432 C2433 1.363 . S
C2432 C2437 1.379 . S
C2432 N2439 1.356 . S
C2433 C2432 1.363 . S
C2433 C2436 1.363 . S
N2434 C2436 1.356 . S
N2434 H2446 0.984 . S
N2434 H2447 0.985 . S
N2435 C2437 1.356 . S
N2435 H2440 0.984 . S
N2435 H2441 0.985 . S
C2436 C2430 1.379 . S
C2436 C2433 1.363 . S
C2436 N2434 1.356 . S
C2437 C2431 1.363 . S
C2437 C2432 1.379 . S
C2437 N2435 1.356 . S
N2438 C2430 1.356 1_655 S
N2438 H2444 0.984 . S
N2438 H2445 0.984 . S
N2439 C2432 1.356 . S
N2439 H2442 0.984 . S
N2439 H2443 0.985 . S
H2440 N2435 0.984 . S
H2441 N2435 0.985 . S
H2442 N2439 0.984 . S
H2443 N2439 0.985 . S
H2444 N2438 0.984 . S
H2445 N2438 0.984 . S
H2446 N2434 0.984 . S
H2447 N2434 0.985 . S
C2448 C2449 1.363 . S
C2448 C2454 1.379 . S
C2448 N2456 1.356 . S
C2449 C2448 1.363 . S
C2449 C2455 1.363 . S
C2450 C2451 1.363 . S
C2450 C2455 1.379 . S
C2450 N2457 1.356 . S
C2451 C2450 1.363 . S
C2451 C2454 1.363 . S
N2452 C2454 1.356 . S
N2452 H2464 0.984 . S
N2452 H2465 0.985 . S
N2453 C2455 1.356 . S
N2453 H2458 0.984 . S
N2453 H2459 0.985 . S
C2454 C2448 1.379 . S
C2454 C2451 1.363 . S
C2454 N2452 1.356 . S
C2455 C2449 1.363 . S
C2455 C2450 1.379 . S
C2455 N2453 1.356 . S
N2456 C2448 1.356 . S
N2456 H2462 0.984 . S
N2456 H2463 0.984 . S
N2457 C2450 1.356 . S
N2457 H2460 0.984 . S
N2457 H2461 0.985 . S
H2458 N2453 0.984 . S
H2459 N2453 0.985 . S
H2460 N2457 0.984 . S
H2461 N2457 0.985 . S
H2462 N2456 0.984 . S
H2463 N2456 0.984 . S
H2464 N2452 0.984 . S
H2465 N2452 0.985 . S
C2466 C2467 1.330 1_554 S
C2466 C2472 1.379 1_565 S
C2466 N2474 1.356 . S
C2467 C2466 1.330 1_556 S
C2467 C2473 1.405 . S
C2468 C2469 1.363 1_565 S
C2468 C2473 1.379 . S
C2468 N2475 1.356 1_565 S
C2469 C2468 1.363 1_545 S
C2469 C2472 1.363 1_556 S
N2470 C2472 1.356 . S
N2470 H2482 0.984 . S
N2470 H2483 0.985 . S
N2471 C2473 1.356 . S
N2471 H2476 0.984 . S
N2471 H2477 0.985 . S
C2472 C2466 1.379 1_545 S
C2472 C2469 1.363 1_554 S
C2472 N2470 1.356 . S
C2473 C2467 1.405 . S
C2473 C2468 1.379 . S
C2473 N2471 1.356 . S
N2474 C2466 1.356 . S
N2474 H2480 0.984 . S
N2474 H2481 0.984 . S
N2475 C2468 1.356 1_545 S
N2475 H2478 0.984 . S
N2475 H2479 0.985 . S
H2476 N2471 0.984 . S
H2477 N2471 0.985 . S
H2478 N2475 0.984 . S
H2479 N2475 0.985 . S
H2480 N2474 0.984 . S
H2481 N2474 0.984 . S
H2482 N2470 0.984 . S
H2483 N2470 0.985 . S
C2484 C2485 1.352 1_554 S
C2484 C2490 1.383 1_455 S
C2484 N2492 1.356 . S
C2485 C2484 1.352 1_556 S
C2485 C2491 1.384 . S
C2486 C2487 1.363 1_455 S
C2486 C2491 1.379 . S
C2486 N2493 1.356 1_455 S
C2487 C2486 1.363 1_655 S
C2487 C2490 1.353 1_556 S
N2488 C2490 1.360 . S
N2488 H2500 0.984 . S
N2488 H2501 0.982 1_554 S
N2489 C2491 1.356 . S
N2489 H2494 0.984 . S
N2489 H2495 0.985 . S
C2490 C2484 1.383 1_655 S
C2490 C2487 1.353 1_554 S
C2490 N2488 1.360 . S
C2491 C2485 1.384 . S
C2491 C2486 1.379 . S
C2491 N2489 1.356 . S
N2492 C2484 1.356 . S
N2492 H2498 0.984 . S
N2492 H2499 0.984 . S
N2493 C2486 1.356 1_655 S
N2493 H2496 0.984 . S
N2493 H2497 0.985 . S
H2494 N2489 0.984 . S
H2495 N2489 0.985 . S
H2496 N2493 0.984 . S
H2497 N2493 0.985 . S
H2498 N2492 0.984 . S
H2499 N2492 0.984 . S
H2500 N2488 0.984 . S
H2501 N2488 0.982 1_556 S
C2502 C2503 1.363 . S
C2502 C2508 1.387 . S
C2502 N2510 1.356 . S
C2503 C2502 1.363 . S
C2503 C2509 1.363 . S
C2504 C2505 1.380 . S
C2504 C2509 1.379 . S
C2504 N2511 1.356 . S
C2505 C2504 1.380 . S
C2505 C2508 1.363 . S
N2506 C2508 1.348 1_554 S
N2506 H2518 0.984 . S
N2506 H2519 0.985 . S
N2507 C2509 1.356 . S
N2507 H2512 0.984 . S
N2507 H2513 0.985 . S
C2508 C2502 1.387 . S
C2508 C2505 1.363 . S
C2508 N2506 1.348 1_556 S
C2509 C2503 1.363 . S
C2509 C2504 1.379 . S
C2509 N2507 1.356 . S
N2510 C2502 1.356 . S
N2510 H2516 0.984 . S
N2510 H2517 0.984 . S
N2511 C2504 1.356 . S
N2511 H2514 1.009 . S
N2511 H2515 0.985 . S
H2512 N2507 0.984 . S
H2513 N2507 0.985 . S
H2514 N2511 1.009 . S
H2515 N2511 0.985 . S
H2516 N2510 0.984 . S
H2517 N2510 0.984 . S
H2518 N2506 0.984 . S
H2519 N2506 0.985 . S
C2520 C2521 1.363 . S
C2520 C2526 1.379 . S
C2520 N2528 1.356 . S
C2521 C2520 1.363 . S
C2521 C2527 1.363 . S
C2522 C2523 1.363 . S
C2522 C2527 1.379 . S
C2522 N2529 1.356 . S
C2523 C2522 1.363 . S
C2523 C2526 1.363 . S
N2524 C2526 1.356 . S
N2524 H2536 0.984 . S
N2524 H2537 0.985 . S
N2525 C2527 1.356 . S
N2525 H2530 0.984 . S
N2525 H2531 0.985 . S
C2526 C2520 1.379 . S
C2526 C2523 1.363 . S
C2526 N2524 1.356 . S
C2527 C2521 1.363 . S
C2527 C2522 1.379 . S
C2527 N2525 1.356 . S
N2528 C2520 1.356 . S
N2528 H2534 0.984 . S
N2528 H2535 0.984 . S
N2529 C2522 1.356 . S
N2529 H2532 0.984 1_545 S
N2529 H2533 0.985 . S
H2530 N2525 0.984 . S
H2531 N2525 0.985 . S
H2532 N2529 0.984 1_565 S
H2533 N2529 0.985 . S
H2534 N2528 0.984 . S
H2535 N2528 0.984 . S
H2536 N2524 0.984 . S
H2537 N2524 0.985 . S
C2538 C2539 1.363 . S
C2538 C2544 1.379 . S
C2538 N2546 1.356 . S
C2539 C2538 1.363 . S
C2539 C2545 1.363 . S
C2540 C2541 1.363 . S
C2540 C2545 1.379 . S
C2540 N2547 1.356 . S
C2541 C2540 1.363 . S
C2541 C2544 1.363 . S
N2542 C2544 1.356 1_455 S
N2542 H2554 0.984 . S
N2542 H2555 0.985 . S
N2543 C2545 1.356 . S
N2543 H2548 0.984 . S
N2543 H2549 0.985 . S
C2544 C2538 1.379 . S
C2544 C2541 1.363 . S
C2544 N2542 1.356 1_655 S
C2545 C2539 1.363 . S
C2545 C2540 1.379 . S
C2545 N2543 1.356 . S
N2546 C2538 1.356 . S
N2546 H2552 0.984 . S
N2546 H2553 0.984 . S
N2547 C2540 1.356 . S
N2547 H2550 0.984 . S
N2547 H2551 0.985 . S
H2548 N2543 0.984 . S
H2549 N2543 0.985 . S
H2550 N2547 0.984 . S
H2551 N2547 0.985 . S
H2552 N2546 0.984 . S
H2553 N2546 0.984 . S
H2554 N2542 0.984 . S
H2555 N2542 0.985 . S
C2556 C2557 1.363 . S
C2556 C2562 1.379 . S
C2556 N2564 1.356 . S
C2557 C2556 1.363 . S
C2557 C2563 1.363 . S
C2558 C2559 1.363 . S
C2558 C2563 1.379 . S
C2558 N2565 1.356 . S
C2559 C2558 1.363 . S
C2559 C2562 1.363 . S
N2560 C2562 1.356 . S
N2560 H2572 0.984 . S
N2560 H2573 0.985 . S
N2561 C2563 1.356 . S
N2561 H2566 0.984 . S
N2561 H2567 0.985 . S
C2562 C2556 1.379 . S
C2562 C2559 1.363 . S
C2562 N2560 1.356 . S
C2563 C2557 1.363 . S
C2563 C2558 1.379 . S
C2563 N2561 1.356 . S
N2564 C2556 1.356 . S
N2564 H2570 0.984 . S
N2564 H2571 0.984 . S
N2565 C2558 1.356 . S
N2565 H2568 0.984 . S
N2565 H2569 0.985 . S
H2566 N2561 0.984 . S
H2567 N2561 0.985 . S
H2568 N2565 0.984 . S
H2569 N2565 0.985 . S
H2570 N2564 0.984 . S
H2571 N2564 0.984 . S
H2572 N2560 0.984 . S
H2573 N2560 0.985 . S
C2574 C2575 1.363 1_545 S
C2574 C2580 1.379 . S
C2574 N2582 1.356 1_545 S
C2575 C2574 1.363 1_565 S
C2575 C2581 1.363 1_554 S
C2576 C2577 1.310 1_556 S
C2576 C2581 1.379 1_545 S
C2576 N2583 1.356 . S
C2577 C2576 1.310 1_554 S
C2577 C2580 1.431 . S
N2578 C2580 1.356 . S
N2578 H2590 0.984 . S
N2578 H2591 0.985 . S
N2579 C2581 1.356 . S
N2579 H2584 0.984 . S
N2579 H2585 0.985 . S
C2580 C2574 1.379 . S
C2580 C2577 1.431 . S
C2580 N2578 1.356 . S
C2581 C2575 1.363 1_556 S
C2581 C2576 1.379 1_565 S
C2581 N2579 1.356 . S
N2582 C2574 1.356 1_565 S
N2582 H2588 0.984 . S
N2582 H2589 0.984 . S
N2583 C2576 1.356 . S
N2583 H2586 0.984 . S
N2583 H2587 0.985 . S
H2584 N2579 0.984 . S
H2585 N2579 0.985 . S
H2586 N2583 0.984 . S
H2587 N2583 0.985 . S
H2588 N2582 0.984 . S
H2589 N2582 0.984 . S
H2590 N2578 0.984 . S
H2591 N2578 0.985 . S
C2592 C2593 1.324 1_556 S
C2592 C2598 1.379 1_655 S
C2592 N2600 1.356 . S
C2593 C2592 1.324 1_554 S
C2593 C2599 1.411 . S
C2594 C2595 1.363 1_655 S
C2594 C2599 1.379 . S
C2594 N2601 1.356 1_655 S
C2595 C2594 1.363 1_455 S
C2595 C2598 1.363 1_554 S
N2596 C2598 1.356 . S
N2596 H2608 0.984 . S
N2596 H2609 0.985 . S
N2597 C2599 1.356 . S
N2597 H2602 0.984 . S
N2597 H2603 0.985 . S
C2598 C2592 1.379 1_455 S
C2598 C2595 1.363 1_556 S
C2598 N2596 1.356 . S
C2599 C2593 1.411 . S
C2599 C2594 1.379 . S
C2599 N2597 1.356 . S
N2600 C2592 1.356 . S
N2600 H2606 0.984 . S
N2600 H2607 0.984 . S
N2601 C2594 1.356 1_455 S
N2601 H2604 0.984 . S
N2601 H2605 0.985 . S
H2602 N2597 0.984 . S
H2603 N2597 0.985 . S
H2604 N2601 0.984 . S
H2605 N2601 0.985 . S
H2606 N2600 0.984 . S
H2607 N2600 0.984 . S
H2608 N2596 0.984 . S
H2609 N2596 0.985 . S
C2610 C2611 1.363 1_556 S
C2610 C2616 1.379 . S
C2610 N2618 1.356 . S
C2611 C2610 1.363 1_554 S
C2611 C2617 1.363 . S
C2612 C2613 1.433 . S
C2612 C2617 1.379 . S
C2612 N2619 1.356 . S
C2613 C2612 1.433 . S
C2613 C2616 1.308 1_554 S
N2614 C2616 1.356 . S
N2614 H2626 0.984 . S
N2614 H2627 0.985 . S
N2615 C2617 1.356 . S
N2615 H2620 0.984 . S
N2615 H2621 0.985 . S
C2616 C2610 1.379 . S
C2616 C2613 1.308 1_556 S
C2616 N2614 1.356 . S
C2617 C2611 1.363 . S
C2617 C2612 1.379 . S
C2617 N2615 1.356 . S
N2618 C2610 1.356 . S
N2618 H2624 0.984 . S
N2618 H2625 0.984 . S
N2619 C2612 1.356 . S
N2619 H2622 0.984 . S
N2619 H2623 0.985 . S
H2620 N2615 0.984 . S
H2621 N2615 0.985 . S
H2622 N2619 0.984 . S
H2623 N2619 0.985 . S
H2624 N2618 0.984 . S
H2625 N2618 0.984 . S
H2626 N2614 0.984 . S
H2627 N2614 0.985 . S
C2628 C2629 1.363 . S
C2628 C2634 1.379 1_455 S
C2628 N2636 1.356 . S
C2629 C2628 1.363 . S
C2629 C2635 1.363 1_455 S
C2630 C2631 1.363 . S
C2630 C2635 1.379 . S
C2630 N2637 1.356 . S
C2631 C2630 1.363 . S
C2631 C2634 1.363 . S
N2632 C2634 1.356 . S
N2632 H2644 0.984 . S
N2632 H2645 0.985 . S
N2633 C2635 1.356 1_455 S
N2633 H2638 0.984 . S
N2633 H2639 0.985 . S
C2634 C2628 1.379 1_655 S
C2634 C2631 1.363 . S
C2634 N2632 1.356 . S
C2635 C2629 1.363 1_655 S
C2635 C2630 1.379 . S
C2635 N2633 1.356 1_655 S
N2636 C2628 1.356 . S
N2636 H2642 0.984 . S
N2636 H2643 0.984 . S
N2637 C2630 1.356 . S
N2637 H2640 0.984 . S
N2637 H2641 0.985 . S
H2638 N2633 0.984 . S
H2639 N2633 0.985 . S
H2640 N2637 0.984 . S
H2641 N2637 0.985 . S
H2642 N2636 0.984 . S
H2643 N2636 0.984 . S
H2644 N2632 0.984 . S
H2645 N2632 0.985 . S
C2646 C2647 1.363 . S
C2646 C2652 1.379 . S
C2646 N2654 1.356 . S
C2647 C2646 1.363 . S
C2647 C2653 1.363 . S
C2648 C2649 1.363 . S
C2648 C2653 1.379 . S
C2648 N2655 1.356 . S
C2649 C2648 1.363 . S
C2649 C2652 1.363 . S
N2650 C2652 1.356 . S
N2650 H2662 0.984 . S
N2650 H2663 0.985 . S
N2651 C2653 1.356 . S
N2651 H2656 0.984 . S
N2651 H2657 0.985 . S
C2652 C2646 1.379 . S
C2652 C2649 1.363 . S
C2652 N2650 1.356 . S
C2653 C2647 1.363 . S
C2653 C2648 1.379 . S
C2653 N2651 1.356 . S
N2654 C2646 1.356 . S
N2654 H2660 0.984 . S
N2654 H2661 0.984 . S
N2655 C2648 1.356 . S
N2655 H2658 0.984 . S
N2655 H2659 0.985 . S
H2656 N2651 0.984 . S
H2657 N2651 0.985 . S
H2658 N2655 0.984 . S
H2659 N2655 0.985 . S
H2660 N2654 0.984 . S
H2661 N2654 0.984 . S
H2662 N2650 0.984 . S
H2663 N2650 0.985 . S
C2664 C2665 1.363 . S
C2664 C2670 1.379 1_565 S
C2664 N2672 1.356 . S
C2665 C2664 1.363 . S
C2665 C2671 1.363 1_565 S
C2666 C2667 1.363 . S
C2666 C2671 1.379 . S
C2666 N2673 1.356 . S
C2667 C2666 1.363 . S
C2667 C2670 1.363 . S
N2668 C2670 1.356 . S
N2668 H2680 0.984 . S
N2668 H2681 0.985 . S
N2669 C2671 1.356 1_565 S
N2669 H2674 0.984 . S
N2669 H2675 0.985 . S
C2670 C2664 1.379 1_545 S
C2670 C2667 1.363 . S
C2670 N2668 1.356 . S
C2671 C2665 1.363 1_545 S
C2671 C2666 1.379 . S
C2671 N2669 1.356 1_545 S
N2672 C2664 1.356 . S
N2672 H2678 0.984 . S
N2672 H2679 0.984 . S
N2673 C2666 1.356 . S
N2673 H2676 0.984 . S
N2673 H2677 0.985 . S
H2674 N2669 0.984 . S
H2675 N2669 0.985 . S
H2676 N2673 0.984 . S
H2677 N2673 0.985 . S
H2678 N2672 0.984 . S
H2679 N2672 0.984 . S
H2680 N2668 0.984 . S
H2681 N2668 0.985 . S
C2682 C2683 1.363 . S
C2682 C2688 1.379 . S
C2682 N2690 1.356 1_655 S
C2683 C2682 1.363 . S
C2683 C2689 1.363 . S
C2684 C2685 1.363 . S
C2684 C2689 1.379 . S
C2684 N2691 1.356 . S
C2685 C2684 1.363 . S
C2685 C2688 1.363 . S
N2686 C2688 1.356 . S
N2686 H2698 0.984 . S
N2686 H2699 0.985 . S
N2687 C2689 1.356 . S
N2687 H2692 0.984 . S
N2687 H2693 0.985 . S
C2688 C2682 1.379 . S
C2688 C2685 1.363 . S
C2688 N2686 1.356 . S
C2689 C2683 1.363 . S
C2689 C2684 1.379 . S
C2689 N2687 1.356 . S
N2690 C2682 1.356 1_455 S
N2690 H2696 0.984 . S
N2690 H2697 0.984 . S
N2691 C2684 1.356 . S
N2691 H2694 0.984 . S
N2691 H2695 0.985 . S
H2692 N2687 0.984 . S
H2693 N2687 0.985 . S
H2694 N2691 0.984 . S
H2695 N2691 0.985 . S
H2696 N2690 0.984 . S
H2697 N2690 0.984 . S
H2698 N2686 0.984 . S
H2699 N2686 0.985 . S
C2700 C2701 1.363 . S
C2700 C2706 1.379 . S
C2700 N2708 1.356 . S
C2701 C2700 1.363 . S
C2701 C2707 1.363 . S
C2702 C2703 1.363 . S
C2702 C2707 1.379 . S
C2702 N2709 1.356 . S
C2703 C2702 1.363 . S
C2703 C2706 1.363 . S
N2704 C2706 1.356 . S
N2704 H2716 0.984 . S
N2704 H2717 0.985 . S
N2705 C2707 1.356 . S
N2705 H2710 0.984 . S
N2705 H2711 0.985 . S
C2706 C2700 1.379 . S
C2706 C2703 1.363 . S
C2706 N2704 1.356 . S
C2707 C2701 1.363 . S
C2707 C2702 1.379 . S
C2707 N2705 1.356 . S
N2708 C2700 1.356 . S
N2708 H2714 0.984 . S
N2708 H2715 0.984 . S
N2709 C2702 1.356 . S
N2709 H2712 0.984 . S
N2709 H2713 0.985 . S
H2710 N2705 0.984 . S
H2711 N2705 0.985 . S
H2712 N2709 0.984 . S
H2713 N2709 0.985 . S
H2714 N2708 0.984 . S
H2715 N2708 0.984 . S
H2716 N2704 0.984 . S
H2717 N2704 0.985 . S
C2718 C2719 1.363 . S
C2718 C2724 1.379 . S
C2718 N2726 1.356 . S
C2719 C2718 1.363 . S
C2719 C2725 1.363 . S
C2720 C2721 1.363 . S
C2720 C2725 1.379 . S
C2720 N2727 1.356 . S
C2721 C2720 1.363 . S
C2721 C2724 1.363 . S
N2722 C2724 1.356 1_565 S
N2722 H2734 0.984 . S
N2722 H2735 0.985 . S
N2723 C2725 1.356 . S
N2723 H2728 0.984 . S
N2723 H2729 0.985 . S
C2724 C2718 1.379 . S
C2724 C2721 1.363 . S
C2724 N2722 1.356 1_545 S
C2725 C2719 1.363 . S
C2725 C2720 1.379 . S
C2725 N2723 1.356 . S
N2726 C2718 1.356 . S
N2726 H2732 0.984 . S
N2726 H2733 0.984 . S
N2727 C2720 1.356 . S
N2727 H2730 0.984 . S
N2727 H2731 0.985 . S
H2728 N2723 0.984 . S
H2729 N2723 0.985 . S
H2730 N2727 0.984 . S
H2731 N2727 0.985 . S
H2732 N2726 0.984 . S
H2733 N2726 0.984 . S
H2734 N2722 0.984 . S
H2735 N2722 0.985 . S
C2736 C2737 1.363 . S
C2736 C2742 1.379 . S
C2736 N2744 1.356 . S
C2737 C2736 1.363 . S
C2737 C2743 1.363 . S
C2738 C2739 1.363 . S
C2738 C2743 1.379 . S
C2738 N2745 1.356 . S
C2739 C2738 1.363 . S
C2739 C2742 1.363 . S
N2740 C2742 1.356 . S
N2740 H2752 0.984 . S
N2740 H2753 0.985 . S
N2741 C2743 1.356 . S
N2741 H2746 0.984 . S
N2741 H2747 0.985 . S
C2742 C2736 1.379 . S
C2742 C2739 1.363 . S
C2742 N2740 1.356 . S
C2743 C2737 1.363 . S
C2743 C2738 1.379 . S
C2743 N2741 1.356 . S
N2744 C2736 1.356 . S
N2744 H2750 0.984 . S
N2744 H2751 0.984 . S
N2745 C2738 1.356 . S
N2745 H2748 0.984 . S
N2745 H2749 0.985 . S
H2746 N2741 0.984 . S
H2747 N2741 0.985 . S
H2748 N2745 0.984 . S
H2749 N2745 0.985 . S
H2750 N2744 0.984 . S
H2751 N2744 0.984 . S
H2752 N2740 0.984 . S
H2753 N2740 0.985 . S
C2754 C2755 1.363 . S
C2754 C2760 1.379 . S
C2754 N2762 1.356 1_565 S
C2755 C2754 1.363 . S
C2755 C2761 1.363 . S
C2756 C2757 1.363 . S
C2756 C2761 1.379 . S
C2756 N2763 1.356 . S
C2757 C2756 1.363 . S
C2757 C2760 1.363 . S
N2758 C2760 1.356 . S
N2758 H2770 0.984 1_565 S
N2758 H2771 0.985 . S
N2759 C2761 1.356 . S
N2759 H2764 0.984 . S
N2759 H2765 0.985 . S
C2760 C2754 1.379 . S
C2760 C2757 1.363 . S
C2760 N2758 1.356 . S
C2761 C2755 1.363 . S
C2761 C2756 1.379 . S
C2761 N2759 1.356 . S
N2762 C2754 1.356 1_545 S
N2762 H2768 0.984 . S
N2762 H2769 0.984 1_545 S
N2763 C2756 1.356 . S
N2763 H2766 0.984 . S
N2763 H2767 0.985 . S
H2764 N2759 0.984 . S
H2765 N2759 0.985 . S
H2766 N2763 0.984 . S
H2767 N2763 0.985 . S
H2768 N2762 0.984 . S
H2769 N2762 0.984 1_565 S
H2770 N2758 0.984 1_545 S
H2771 N2758 0.985 . S
C2772 C2773 1.363 . S
C2772 C2778 1.379 . S
C2772 N2780 1.356 . S
C2773 C2772 1.363 . S
C2773 C2779 1.363 . S
C2774 C2775 1.363 . S
C2774 C2779 1.379 . S
C2774 N2781 1.356 . S
C2775 C2774 1.363 . S
C2775 C2778 1.363 . S
N2776 C2778 1.356 . S
N2776 H2788 0.984 . S
N2776 H2789 0.985 . S
N2777 C2779 1.356 . S
N2777 H2782 0.984 . S
N2777 H2783 0.985 . S
C2778 C2772 1.379 . S
C2778 C2775 1.363 . S
C2778 N2776 1.356 . S
C2779 C2773 1.363 . S
C2779 C2774 1.379 . S
C2779 N2777 1.356 . S
N2780 C2772 1.356 . S
N2780 H2786 0.984 . S
N2780 H2787 0.984 . S
N2781 C2774 1.356 . S
N2781 H2784 0.984 . S
N2781 H2785 0.985 . S
H2782 N2777 0.984 . S
H2783 N2777 0.985 . S
H2784 N2781 0.984 . S
H2785 N2781 0.985 . S
H2786 N2780 0.984 . S
H2787 N2780 0.984 . S
H2788 N2776 0.984 . S
H2789 N2776 0.985 . S
C2790 C2791 1.363 . S
C2790 C2796 1.379 . S
C2790 N2798 1.356 . S
C2791 C2790 1.363 . S
C2791 C2797 1.363 . S
C2792 C2793 1.363 . S
C2792 C2797 1.379 . S
C2792 N2799 1.356 . S
C2793 C2792 1.363 . S
C2793 C2796 1.363 . S
N2794 C2796 1.356 . S
N2794 H2806 0.984 . S
N2794 H2807 0.985 . S
N2795 C2797 1.356 . S
N2795 H2800 0.984 . S
N2795 H2801 0.985 . S
C2796 C2790 1.379 . S
C2796 C2793 1.363 . S
C2796 N2794 1.356 . S
C2797 C2791 1.363 . S
C2797 C2792 1.379 . S
C2797 N2795 1.356 . S
N2798 C2790 1.356 . S
N2798 H2804 0.984 . S
N2798 H2805 0.984 . S
N2799 C2792 1.356 . S
N2799 H2802 0.984 . S
N2799 H2803 0.985 . S
H2800 N2795 0.984 . S
H2801 N2795 0.985 . S
H2802 N2799 0.984 . S
H2803 N2799 0.985 . S
H2804 N2798 0.984 . S
H2805 N2798 0.984 . S
H2806 N2794 0.984 . S
H2807 N2794 0.985 . S
C2808 C2809 1.363 . S
C2808 C2814 1.379 . S
C2808 N2816 1.356 . S
C2809 C2808 1.363 . S
C2809 C2815 1.363 . S
C2810 C2811 1.363 . S
C2810 C2815 1.379 . S
C2810 N2817 1.356 . S
C2811 C2810 1.363 . S
C2811 C2814 1.363 . S
N2812 C2814 1.356 . S
N2812 H2824 0.984 1_545 S
N2812 H2825 0.985 . S
N2813 C2815 1.356 . S
N2813 H2818 0.984 . S
N2813 H2819 0.985 . S
C2814 C2808 1.379 . S
C2814 C2811 1.363 . S
C2814 N2812 1.356 . S
C2815 C2809 1.363 . S
C2815 C2810 1.379 . S
C2815 N2813 1.356 . S
N2816 C2808 1.356 . S
N2816 H2822 0.984 . S
N2816 H2823 0.984 . S
N2817 C2810 1.356 . S
N2817 H2820 0.984 . S
N2817 H2821 0.985 . S
H2818 N2813 0.984 . S
H2819 N2813 0.985 . S
H2820 N2817 0.984 . S
H2821 N2817 0.985 . S
H2822 N2816 0.984 . S
H2823 N2816 0.984 . S
H2824 N2812 0.984 1_565 S
H2825 N2812 0.985 . S
C2826 C2827 1.363 . S
C2826 C2832 1.379 . S
C2826 N2834 1.356 1_655 S
C2827 C2826 1.363 . S
C2827 C2833 1.363 . S
C2828 C2829 1.363 . S
C2828 C2833 1.379 . S
C2828 N2835 1.356 . S
C2829 C2828 1.363 . S
C2829 C2832 1.363 . S
N2830 C2832 1.356 1_455 S
N2830 H2842 0.984 . S
N2830 H2843 0.985 . S
N2831 C2833 1.356 . S
N2831 H2836 0.984 . S
N2831 H2837 0.985 . S
C2832 C2826 1.379 . S
C2832 C2829 1.363 . S
C2832 N2830 1.356 1_655 S
C2833 C2827 1.363 . S
C2833 C2828 1.379 . S
C2833 N2831 1.356 . S
N2834 C2826 1.356 1_455 S
N2834 H2840 0.984 . S
N2834 H2841 0.984 1_455 S
N2835 C2828 1.356 . S
N2835 H2838 0.984 . S
N2835 H2839 0.985 . S
H2836 N2831 0.984 . S
H2837 N2831 0.985 . S
H2838 N2835 0.984 . S
H2839 N2835 0.985 . S
H2840 N2834 0.984 . S
H2841 N2834 0.984 1_655 S
H2842 N2830 0.984 . S
H2843 N2830 0.985 . S
C2844 C2845 1.363 . S
C2844 C2850 1.379 . S
C2844 N2852 1.356 . S
C2845 C2844 1.363 . S
C2845 C2851 1.363 . S
C2846 C2847 1.363 . S
C2846 C2851 1.379 . S
C2846 N2853 1.356 . S
C2847 C2846 1.363 . S
C2847 C2850 1.363 . S
N2848 C2850 1.356 . S
N2848 H2860 0.984 . S
N2848 H2861 0.985 . S
N2849 C2851 1.356 . S
N2849 H2854 0.984 . S
N2849 H2855 0.985 . S
C2850 C2844 1.379 . S
C2850 C2847 1.363 . S
C2850 N2848 1.356 . S
C2851 C2845 1.363 . S
C2851 C2846 1.379 . S
C2851 N2849 1.356 . S
N2852 C2844 1.356 . S
N2852 H2858 0.984 . S
N2852 H2859 0.984 . S
N2853 C2846 1.356 . S
N2853 H2856 0.984 . S
N2853 H2857 0.985 . S
H2854 N2849 0.984 . S
H2855 N2849 0.985 . S
H2856 N2853 0.984 . S
H2857 N2853 0.985 . S
H2858 N2852 0.984 . S
H2859 N2852 0.984 . S
H2860 N2848 0.984 . S
H2861 N2848 0.985 . S
C2862 C2863 1.363 . S
C2862 C2868 1.379 . S
C2862 N2870 1.356 . S
C2863 C2862 1.363 . S
C2863 C2869 1.363 . S
C2864 C2865 1.363 . S
C2864 C2869 1.379 . S
C2864 N2871 1.356 1_545 S
C2865 C2864 1.363 . S
C2865 C2868 1.363 . S
N2866 C2868 1.356 . S
N2866 H2878 0.984 . S
N2866 H2879 0.985 . S
N2867 C2869 1.356 . S
N2867 H2872 0.984 . S
N2867 H2873 0.985 1_545 S
C2868 C2862 1.379 . S
C2868 C2865 1.363 . S
C2868 N2866 1.356 . S
C2869 C2863 1.363 . S
C2869 C2864 1.379 . S
C2869 N2867 1.356 . S
N2870 C2862 1.356 . S
N2870 H2876 0.984 . S
N2870 H2877 0.984 . S
N2871 C2864 1.356 1_565 S
N2871 H2874 0.984 1_565 S
N2871 H2875 0.985 . S
H2872 N2867 0.984 . S
H2873 N2867 0.985 1_565 S
H2874 N2871 0.984 1_545 S
H2875 N2871 0.985 . S
H2876 N2870 0.984 . S
H2877 N2870 0.984 . S
H2878 N2866 0.984 . S
H2879 N2866 0.985 . S
C2880 C2881 1.363 . S
C2880 C2886 1.379 . S
C2880 N2888 1.356 . S
C2881 C2880 1.363 . S
C2881 C2887 1.363 . S
C2882 C2883 1.363 . S
C2882 C2887 1.379 . S
C2882 N2889 1.356 . S
C2883 C2882 1.363 . S
C2883 C2886 1.363 . S
N2884 C2886 1.356 . S
N2884 H2896 0.984 . S
N2884 H2897 0.985 . S
N2885 C2887 1.356 . S
N2885 H2890 0.984 . S
N2885 H2891 0.985 . S
C2886 C2880 1.379 . S
C2886 C2883 1.363 . S
C2886 N2884 1.356 . S
C2887 C2881 1.363 . S
C2887 C2882 1.379 . S
C2887 N2885 1.356 . S
N2888 C2880 1.356 . S
N2888 H2894 0.984 . S
N2888 H2895 0.984 . S
N2889 C2882 1.356 . S
N2889 H2892 0.984 . S
N2889 H2893 0.985 . S
H2890 N2885 0.984 . S
H2891 N2885 0.985 . S
H2892 N2889 0.984 . S
H2893 N2889 0.985 . S
H2894 N2888 0.984 . S
H2895 N2888 0.984 . S
H2896 N2884 0.984 . S
H2897 N2884 0.985 . S
C2898 C2899 1.363 . S
C2898 C2904 1.379 . S
C2898 N2906 1.356 . S
C2899 C2898 1.363 . S
C2899 C2905 1.363 . S
C2900 C2901 1.363 . S
C2900 C2905 1.379 . S
C2900 N2907 1.356 . S
C2901 C2900 1.363 . S
C2901 C2904 1.363 . S
N2902 C2904 1.356 . S
N2902 H2914 0.984 . S
N2902 H2915 0.985 . S
N2903 C2905 1.356 . S
N2903 H2908 0.984 . S
N2903 H2909 0.985 . S
C2904 C2898 1.379 . S
C2904 C2901 1.363 . S
C2904 N2902 1.356 . S
C2905 C2899 1.363 . S
C2905 C2900 1.379 . S
C2905 N2903 1.356 . S
N2906 C2898 1.356 . S
N2906 H2912 0.984 . S
N2906 H2913 0.984 . S
N2907 C2900 1.356 . S
N2907 H2910 0.984 . S
N2907 H2911 0.985 . S
H2908 N2903 0.984 . S
H2909 N2903 0.985 . S
H2910 N2907 0.984 . S
H2911 N2907 0.985 . S
H2912 N2906 0.984 . S
H2913 N2906 0.984 . S
H2914 N2902 0.984 . S
H2915 N2902 0.985 . S
C2916 C2917 1.363 . S
C2916 C2922 1.379 . S
C2916 N2924 1.356 . S
C2917 C2916 1.363 . S
C2917 C2923 1.363 . S
C2918 C2919 1.363 . S
C2918 C2923 1.379 . S
C2918 N2925 1.356 . S
C2919 C2918 1.363 . S
C2919 C2922 1.363 . S
N2920 C2922 1.356 . S
N2920 H2932 0.984 . S
N2920 H2933 0.985 . S
N2921 C2923 1.356 1_545 S
N2921 H2926 0.984 1_545 S
N2921 H2927 0.985 . S
C2922 C2916 1.379 . S
C2922 C2919 1.363 . S
C2922 N2920 1.356 . S
C2923 C2917 1.363 . S
C2923 C2918 1.379 . S
C2923 N2921 1.356 1_565 S
N2924 C2916 1.356 . S
N2924 H2930 0.984 . S
N2924 H2931 0.984 . S
N2925 C2918 1.356 . S
N2925 H2928 0.984 . S
N2925 H2929 0.985 1_565 S
H2926 N2921 0.984 1_565 S
H2927 N2921 0.985 . S
H2928 N2925 0.984 . S
H2929 N2925 0.985 1_545 S
H2930 N2924 0.984 . S
H2931 N2924 0.984 . S
H2932 N2920 0.984 . S
H2933 N2920 0.985 . S
C2934 C2935 1.363 . S
C2934 C2940 1.379 . S
C2934 N2942 1.356 . S
C2935 C2934 1.363 . S
C2935 C2941 1.363 . S
C2936 C2937 1.363 . S
C2936 C2941 1.379 . S
C2936 N2943 1.356 . S
C2937 C2936 1.363 . S
C2937 C2940 1.363 . S
N2938 C2940 1.356 . S
N2938 H2950 0.984 . S
N2938 H2951 0.985 . S
N2939 C2941 1.356 1_655 S
N2939 H2944 0.984 1_655 S
N2939 H2945 0.985 . S
C2940 C2934 1.379 . S
C2940 C2937 1.363 . S
C2940 N2938 1.356 . S
C2941 C2935 1.363 . S
C2941 C2936 1.379 . S
C2941 N2939 1.356 1_455 S
N2942 C2934 1.356 . S
N2942 H2948 0.984 . S
N2942 H2949 0.984 . S
N2943 C2936 1.356 . S
N2943 H2946 0.984 . S
N2943 H2947 0.985 1_455 S
H2944 N2939 0.984 1_455 S
H2945 N2939 0.985 . S
H2946 N2943 0.984 . S
H2947 N2943 0.985 1_655 S
H2948 N2942 0.984 . S
H2949 N2942 0.984 . S
H2950 N2938 0.984 . S
H2951 N2938 0.985 . S
C2952 C2953 1.363 . S
C2952 C2958 1.379 . S
C2952 N2960 1.356 . S
C2953 C2952 1.363 . S
C2953 C2959 1.363 1_455 S
C2954 C2955 1.363 . S
C2954 C2959 1.379 . S
C2954 N2961 1.356 . S
C2955 C2954 1.363 . S
C2955 C2958 1.363 1_655 S
N2956 C2958 1.356 . S
N2956 H2968 0.984 . S
N2956 H2969 0.985 . S
N2957 C2959 1.356 . S
N2957 H2962 0.984 . S
N2957 H2963 0.985 . S
C2958 C2952 1.379 . S
C2958 C2955 1.363 1_455 S
C2958 N2956 1.356 . S
C2959 C2953 1.363 1_655 S
C2959 C2954 1.379 . S
C2959 N2957 1.356 . S
N2960 C2952 1.356 . S
N2960 H2966 0.984 . S
N2960 H2967 0.984 . S
N2961 C2954 1.356 . S
N2961 H2964 0.984 . S
N2961 H2965 0.985 . S
H2962 N2957 0.984 . S
H2963 N2957 0.985 . S
H2964 N2961 0.984 . S
H2965 N2961 0.985 . S
H2966 N2960 0.984 . S
H2967 N2960 0.984 . S
H2968 N2956 0.984 . S
H2969 N2956 0.985 . S
C2970 C2971 1.363 . S
C2970 C2976 1.379 . S
C2970 N2978 1.356 . S
C2971 C2970 1.363 . S
C2971 C2977 1.363 . S
C2972 C2973 1.363 . S
C2972 C2977 1.379 . S
C2972 N2979 1.356 . S
C2973 C2972 1.363 . S
C2973 C2976 1.363 . S
N2974 C2976 1.356 . S
N2974 H2986 0.984 . S
N2974 H2987 0.985 . S
N2975 C2977 1.356 . S
N2975 H2980 0.984 . S
N2975 H2981 0.985 . S
C2976 C2970 1.379 . S
C2976 C2973 1.363 . S
C2976 N2974 1.356 . S
C2977 C2971 1.363 . S
C2977 C2972 1.379 . S
C2977 N2975 1.356 . S
N2978 C2970 1.356 . S
N2978 H2984 0.984 . S
N2978 H2985 0.984 . S
N2979 C2972 1.356 . S
N2979 H2982 0.984 . S
N2979 H2983 0.985 . S
H2980 N2975 0.984 . S
H2981 N2975 0.985 . S
H2982 N2979 0.984 . S
H2983 N2979 0.985 . S
H2984 N2978 0.984 . S
H2985 N2978 0.984 . S
H2986 N2974 0.984 . S
H2987 N2974 0.985 . S
C2988 C2989 1.363 . S
C2988 C2994 1.379 . S
C2988 N2996 1.356 . S
C2989 C2988 1.363 . S
C2989 C2995 1.363 1_565 S
C2990 C2991 1.363 . S
C2990 C2995 1.379 . S
C2990 N2997 1.356 . S
C2991 C2990 1.363 . S
C2991 C2994 1.363 1_545 S
N2992 C2994 1.356 . S
N2992 H3004 0.984 . S
N2992 H3005 0.985 . S
N2993 C2995 1.356 . S
N2993 H2998 0.984 . S
N2993 H2999 0.985 . S
C2994 C2988 1.379 . S
C2994 C2991 1.363 1_565 S
C2994 N2992 1.356 . S
C2995 C2989 1.363 1_545 S
C2995 C2990 1.379 . S
C2995 N2993 1.356 . S
N2996 C2988 1.356 . S
N2996 H3002 0.984 . S
N2996 H3003 0.984 . S
N2997 C2990 1.356 . S
N2997 H3000 0.984 . S
N2997 H3001 0.985 . S
H2998 N2993 0.984 . S
H2999 N2993 0.985 . S
H3000 N2997 0.984 . S
H3001 N2997 0.985 . S
H3002 N2996 0.984 . S
H3003 N2996 0.984 . S
H3004 N2992 0.984 . S
H3005 N2992 0.985 . S
C3006 C3007 1.363 1_545 S
C3006 C3012 1.379 . S
C3006 N3014 1.356 . S
C3007 C3006 1.363 1_565 S
C3007 C3013 1.363 . S
C3008 C3009 1.363 1_565 S
C3008 C3013 1.379 . S
C3008 N3015 1.356 . S
C3009 C3008 1.363 1_545 S
C3009 C3012 1.363 . S
N3010 C3012 1.356 . S
N3010 H3022 0.984 . S
N3010 H3023 0.985 . S
N3011 C3013 1.356 . S
N3011 H3016 0.984 . S
N3011 H3017 0.985 . S
C3012 C3006 1.379 . S
C3012 C3009 1.363 . S
C3012 N3010 1.356 . S
C3013 C3007 1.363 . S
C3013 C3008 1.379 . S
C3013 N3011 1.356 . S
N3014 C3006 1.356 . S
N3014 H3020 0.984 . S
N3014 H3021 0.984 . S
N3015 C3008 1.356 . S
N3015 H3018 0.984 . S
N3015 H3019 0.985 . S
H3016 N3011 0.984 . S
H3017 N3011 0.985 . S
H3018 N3015 0.984 . S
H3019 N3015 0.985 . S
H3020 N3014 0.984 . S
H3021 N3014 0.984 . S
H3022 N3010 0.984 . S
H3023 N3010 0.985 . S
C3024 C3025 1.363 . S
C3024 C3030 1.379 . S
C3024 N3032 1.356 . S
C3025 C3024 1.363 . S
C3025 C3031 1.374 . S
C3026 C3027 1.363 . S
C3026 C3031 1.377 1_455 S
C3026 N3033 1.356 . S
C3027 C3026 1.363 . S
C3027 C3030 1.363 1_455 S
N3028 C3030 1.356 . S
N3028 H3040 0.984 . S
N3028 H3041 0.985 . S
N3029 C3031 1.349 . S
N3029 H3034 0.984 . S
N3029 H3035 0.986 1_655 S
C3030 C3024 1.379 . S
C3030 C3027 1.363 1_655 S
C3030 N3028 1.356 . S
C3031 C3025 1.374 . S
C3031 C3026 1.377 1_655 S
C3031 N3029 1.349 . S
N3032 C3024 1.356 . S
N3032 H3038 0.984 . S
N3032 H3039 0.984 . S
N3033 C3026 1.356 . S
N3033 H3036 0.984 . S
N3033 H3037 0.985 . S
H3034 N3029 0.984 . S
H3035 N3029 0.986 1_455 S
H3036 N3033 0.984 . S
H3037 N3033 0.985 . S
H3038 N3032 0.984 . S
H3039 N3032 0.984 . S
H3040 N3028 0.984 . S
H3041 N3028 0.985 . S
C3042 C3043 1.363 . S
C3042 C3048 1.379 . S
C3042 N3050 1.356 . S
C3043 C3042 1.363 . S
C3043 C3049 1.363 . S
C3044 C3045 1.363 . S
C3044 C3049 1.379 . S
C3044 N3051 1.356 . S
C3045 C3044 1.363 . S
C3045 C3048 1.363 . S
N3046 C3048 1.356 . S
N3046 H3058 0.984 . S
N3046 H3059 0.985 . S
N3047 C3049 1.356 . S
N3047 H3052 0.984 . S
N3047 H3053 0.985 . S
C3048 C3042 1.379 . S
C3048 C3045 1.363 . S
C3048 N3046 1.356 . S
C3049 C3043 1.363 . S
C3049 C3044 1.379 . S
C3049 N3047 1.356 . S
N3050 C3042 1.356 . S
N3050 H3056 0.984 . S
N3050 H3057 0.984 . S
N3051 C3044 1.356 . S
N3051 H3054 0.984 . S
N3051 H3055 0.985 . S
H3052 N3047 0.984 . S
H3053 N3047 0.985 . S
H3054 N3051 0.984 . S
H3055 N3051 0.985 . S
H3056 N3050 0.984 . S
H3057 N3050 0.984 . S
H3058 N3046 0.984 . S
H3059 N3046 0.985 . S
C3060 C3061 1.362 1_455 S
C3060 C3066 1.379 . S
C3060 N3068 1.357 1_455 S
C3061 C3060 1.362 1_655 S
C3061 C3067 1.363 . S
C3062 C3063 1.358 1_655 S
C3062 C3067 1.380 . S
C3062 N3069 1.358 1_655 S
C3063 C3062 1.358 1_455 S
C3063 C3066 1.363 . S
N3064 C3066 1.356 . S
N3064 H3076 0.984 . S
N3064 H3077 0.985 . S
N3065 C3067 1.356 . S
N3065 H3070 0.984 . S
N3065 H3071 0.985 . S
C3066 C3060 1.379 . S
C3066 C3063 1.363 . S
C3066 N3064 1.356 . S
C3067 C3061 1.363 . S
C3067 C3062 1.380 . S
C3067 N3065 1.356 . S
N3068 C3060 1.357 1_655 S
N3068 H3074 0.984 1_655 S
N3068 H3075 0.984 . S
N3069 C3062 1.358 1_455 S
N3069 H3072 0.984 . S
N3069 H3073 0.985 1_455 S
H3070 N3065 0.984 . S
H3071 N3065 0.985 . S
H3072 N3069 0.984 . S
H3073 N3069 0.985 1_655 S
H3074 N3068 0.984 1_455 S
H3075 N3068 0.984 . S
H3076 N3064 0.984 . S
H3077 N3064 0.985 . S
C3078 C3079 1.363 . S
C3078 C3084 1.379 . S
C3078 N3086 1.356 . S
C3079 C3078 1.363 . S
C3079 C3085 1.363 . S
C3080 C3081 1.363 . S
C3080 C3085 1.379 . S
C3080 N3087 1.356 . S
C3081 C3080 1.363 . S
C3081 C3084 1.363 . S
N3082 C3084 1.356 . S
N3082 H3094 0.984 . S
N3082 H3095 0.985 . S
N3083 C3085 1.356 . S
N3083 H3088 0.984 . S
N3083 H3089 0.985 . S
C3084 C3078 1.379 . S
C3084 C3081 1.363 . S
C3084 N3082 1.356 . S
C3085 C3079 1.363 . S
C3085 C3080 1.379 . S
C3085 N3083 1.356 . S
N3086 C3078 1.356 . S
N3086 H3092 0.984 . S
N3086 H3093 0.984 . S
N3087 C3080 1.356 . S
N3087 H3090 0.984 . S
N3087 H3091 0.985 . S
H3088 N3083 0.984 . S
H3089 N3083 0.985 . S
H3090 N3087 0.984 . S
H3091 N3087 0.985 . S
H3092 N3086 0.984 . S
H3093 N3086 0.984 . S
H3094 N3082 0.984 . S
H3095 N3082 0.985 . S
C3096 C3097 1.363 1_565 S
C3096 C3102 1.379 . S
C3096 N3104 1.356 . S
C3097 C3096 1.363 1_545 S
C3097 C3103 1.363 . S
C3098 C3099 1.363 1_545 S
C3098 C3103 1.379 . S
C3098 N3105 1.356 . S
C3099 C3098 1.363 1_565 S
C3099 C3102 1.363 . S
N3100 C3102 1.356 . S
N3100 H3112 0.984 . S
N3100 H3113 0.985 . S
N3101 C3103 1.356 . S
N3101 H3106 0.984 . S
N3101 H3107 0.985 . S
C3102 C3096 1.379 . S
C3102 C3099 1.363 . S
C3102 N3100 1.356 . S
C3103 C3097 1.363 . S
C3103 C3098 1.379 . S
C3103 N3101 1.356 . S
N3104 C3096 1.356 . S
N3104 H3110 0.984 . S
N3104 H3111 0.984 . S
N3105 C3098 1.356 . S
N3105 H3108 0.984 . S
N3105 H3109 0.985 . S
H3106 N3101 0.984 . S
H3107 N3101 0.985 . S
H3108 N3105 0.984 . S
H3109 N3105 0.985 . S
H3110 N3104 0.984 . S
H3111 N3104 0.984 . S
H3112 N3100 0.984 . S
H3113 N3100 0.985 . S
C3114 C3115 1.363 1_455 S
C3114 C3120 1.379 . S
C3114 N3122 1.356 . S
C3115 C3114 1.363 1_655 S
C3115 C3121 1.363 . S
C3116 C3117 1.363 1_655 S
C3116 C3121 1.379 . S
C3116 N3123 1.356 . S
C3117 C3116 1.363 1_455 S
C3117 C3120 1.363 . S
N3118 C3120 1.356 . S
N3118 H3130 0.984 . S
N3118 H3131 0.985 . S
N3119 C3121 1.356 . S
N3119 H3124 0.984 . S
N3119 H3125 0.985 . S
C3120 C3114 1.379 . S
C3120 C3117 1.363 . S
C3120 N3118 1.356 . S
C3121 C3115 1.363 . S
C3121 C3116 1.379 . S
C3121 N3119 1.356 . S
N3122 C3114 1.356 . S
N3122 H3128 0.984 . S
N3122 H3129 0.984 1_455 S
N3123 C3116 1.356 . S
N3123 H3126 0.984 1_655 S
N3123 H3127 0.985 . S
H3124 N3119 0.984 . S
H3125 N3119 0.985 . S
H3126 N3123 0.984 1_455 S
H3127 N3123 0.985 . S
H3128 N3122 0.984 . S
H3129 N3122 0.984 1_655 S
H3130 N3118 0.984 . S
H3131 N3118 0.985 . S
C3132 C3133 1.363 . S
C3132 C3138 1.379 . S
C3132 N3140 1.356 . S
C3133 C3132 1.363 . S
C3133 C3139 1.363 . S
C3134 C3135 1.363 . S
C3134 C3139 1.379 . S
C3134 N3141 1.356 . S
C3135 C3134 1.363 . S
C3135 C3138 1.363 . S
N3136 C3138 1.356 . S
N3136 H3148 0.984 . S
N3136 H3149 0.985 . S
N3137 C3139 1.356 . S
N3137 H3142 0.984 . S
N3137 H3143 0.985 . S
C3138 C3132 1.379 . S
C3138 C3135 1.363 . S
C3138 N3136 1.356 . S
C3139 C3133 1.363 . S
C3139 C3134 1.379 . S
C3139 N3137 1.356 . S
N3140 C3132 1.356 . S
N3140 H3146 0.984 . S
N3140 H3147 0.984 . S
N3141 C3134 1.356 . S
N3141 H3144 0.984 . S
N3141 H3145 0.985 . S
H3142 N3137 0.984 . S
H3143 N3137 0.985 . S
H3144 N3141 0.984 . S
H3145 N3141 0.985 . S
H3146 N3140 0.984 . S
H3147 N3140 0.984 . S
H3148 N3136 0.984 . S
H3149 N3136 0.985 . S
C3150 C3151 1.363 1_565 S
C3150 C3156 1.379 . S
C3150 N3158 1.356 . S
C3151 C3150 1.363 1_545 S
C3151 C3157 1.363 . S
C3152 C3153 1.363 1_545 S
C3152 C3157 1.379 . S
C3152 N3159 1.356 . S
C3153 C3152 1.363 1_565 S
C3153 C3156 1.363 . S
N3154 C3156 1.356 . S
N3154 H3166 0.984 . S
N3154 H3167 0.985 . S
N3155 C3157 1.356 . S
N3155 H3160 0.984 . S
N3155 H3161 0.985 . S
C3156 C3150 1.379 . S
C3156 C3153 1.363 . S
C3156 N3154 1.356 . S
C3157 C3151 1.363 . S
C3157 C3152 1.379 . S
C3157 N3155 1.356 . S
N3158 C3150 1.356 . S
N3158 H3164 0.984 . S
N3158 H3165 0.984 . S
N3159 C3152 1.356 . S
N3159 H3162 0.984 . S
N3159 H3163 0.985 . S
H3160 N3155 0.984 . S
H3161 N3155 0.985 . S
H3162 N3159 0.984 . S
H3163 N3159 0.985 . S
H3164 N3158 0.984 . S
H3165 N3158 0.984 . S
H3166 N3154 0.984 . S
H3167 N3154 0.985 . S
C3168 C3169 1.363 . S
C3168 C3174 1.379 . S
C3168 N3176 1.356 . S
C3169 C3168 1.363 . S
C3169 C3175 1.363 . S
C3170 C3171 1.363 . S
C3170 C3175 1.379 . S
C3170 N3177 1.356 . S
C3171 C3170 1.363 . S
C3171 C3174 1.363 . S
N3172 C3174 1.356 . S
N3172 H3184 0.984 . S
N3172 H3185 0.985 . S
N3173 C3175 1.356 . S
N3173 H3178 0.984 . S
N3173 H3179 0.985 . S
C3174 C3168 1.379 . S
C3174 C3171 1.363 . S
C3174 N3172 1.356 . S
C3175 C3169 1.363 . S
C3175 C3170 1.379 . S
C3175 N3173 1.356 . S
N3176 C3168 1.356 . S
N3176 H3182 0.984 . S
N3176 H3183 0.984 . S
N3177 C3170 1.356 . S
N3177 H3180 0.984 . S
N3177 H3181 0.985 . S
H3178 N3173 0.984 . S
H3179 N3173 0.985 . S
H3180 N3177 0.984 . S
H3181 N3177 0.985 . S
H3182 N3176 0.984 . S
H3183 N3176 0.984 . S
H3184 N3172 0.984 . S
H3185 N3172 0.985 . S
C3186 C3187 1.363 . S
C3186 C3192 1.379 . S
C3186 N3194 1.356 . S
C3187 C3186 1.363 . S
C3187 C3193 1.363 . S
C3188 C3189 1.363 . S
C3188 C3193 1.379 . S
C3188 N3195 1.356 . S
C3189 C3188 1.363 . S
C3189 C3192 1.363 . S
N3190 C3192 1.356 . S
N3190 H3202 0.984 . S
N3190 H3203 0.985 . S
N3191 C3193 1.356 . S
N3191 H3196 0.984 . S
N3191 H3197 0.985 . S
C3192 C3186 1.379 . S
C3192 C3189 1.363 . S
C3192 N3190 1.356 . S
C3193 C3187 1.363 . S
C3193 C3188 1.379 . S
C3193 N3191 1.356 . S
N3194 C3186 1.356 . S
N3194 H3200 0.984 . S
N3194 H3201 0.984 . S
N3195 C3188 1.356 . S
N3195 H3198 0.984 . S
N3195 H3199 0.985 . S
H3196 N3191 0.984 . S
H3197 N3191 0.985 . S
H3198 N3195 0.984 . S
H3199 N3195 0.985 . S
H3200 N3194 0.984 . S
H3201 N3194 0.984 . S
H3202 N3190 0.984 . S
H3203 N3190 0.985 . S
C3204 C3205 1.363 . S
C3204 C3210 1.379 . S
C3204 N3212 1.356 . S
C3205 C3204 1.363 . S
C3205 C3211 1.363 . S
C3206 C3207 1.363 . S
C3206 C3211 1.379 . S
C3206 N3213 1.356 . S
C3207 C3206 1.363 . S
C3207 C3210 1.363 . S
N3208 C3210 1.356 . S
N3208 H3220 0.984 . S
N3208 H3221 0.985 . S
N3209 C3211 1.356 . S
N3209 H3214 0.984 . S
N3209 H3215 0.985 . S
C3210 C3204 1.379 . S
C3210 C3207 1.363 . S
C3210 N3208 1.356 . S
C3211 C3205 1.363 . S
C3211 C3206 1.379 . S
C3211 N3209 1.356 . S
N3212 C3204 1.356 . S
N3212 H3218 0.984 . S
N3212 H3219 0.984 . S
N3213 C3206 1.356 . S
N3213 H3216 0.984 . S
N3213 H3217 0.985 . S
H3214 N3209 0.984 . S
H3215 N3209 0.985 . S
H3216 N3213 0.984 . S
H3217 N3213 0.985 . S
H3218 N3212 0.984 . S
H3219 N3212 0.984 . S
H3220 N3208 0.984 . S
H3221 N3208 0.985 . S
C3222 C3223 1.363 . S
C3222 C3228 1.379 . S
C3222 N3230 1.356 . S
C3223 C3222 1.363 . S
C3223 C3229 1.363 . S
C3224 C3225 1.363 . S
C3224 C3229 1.379 . S
C3224 N3231 1.356 . S
C3225 C3224 1.363 . S
C3225 C3228 1.363 . S
N3226 C3228 1.356 . S
N3226 H3238 0.984 . S
N3226 H3239 0.985 . S
N3227 C3229 1.356 . S
N3227 H3232 0.984 . S
N3227 H3233 0.985 . S
C3228 C3222 1.379 . S
C3228 C3225 1.363 . S
C3228 N3226 1.356 . S
C3229 C3223 1.363 . S
C3229 C3224 1.379 . S
C3229 N3227 1.356 . S
N3230 C3222 1.356 . S
N3230 H3236 0.984 . S
N3230 H3237 0.984 . S
N3231 C3224 1.356 . S
N3231 H3234 0.984 . S
N3231 H3235 0.985 . S
H3232 N3227 0.984 . S
H3233 N3227 0.985 . S
H3234 N3231 0.984 . S
H3235 N3231 0.985 . S
H3236 N3230 0.984 . S
H3237 N3230 0.984 . S
H3238 N3226 0.984 . S
H3239 N3226 0.985 . S
C3240 C3241 1.363 . S
C3240 C3246 1.379 . S
C3240 N3248 1.356 . S
C3241 C3240 1.363 . S
C3241 C3247 1.363 . S
C3242 C3243 1.363 . S
C3242 C3247 1.379 . S
C3242 N3249 1.356 . S
C3243 C3242 1.363 . S
C3243 C3246 1.363 . S
N3244 C3246 1.356 . S
N3244 H3256 0.984 . S
N3244 H3257 0.985 . S
N3245 C3247 1.356 . S
N3245 H3250 0.984 . S
N3245 H3251 0.985 . S
C3246 C3240 1.379 . S
C3246 C3243 1.363 . S
C3246 N3244 1.356 . S
C3247 C3241 1.363 . S
C3247 C3242 1.379 . S
C3247 N3245 1.356 . S
N3248 C3240 1.356 . S
N3248 H3254 0.984 . S
N3248 H3255 0.984 . S
N3249 C3242 1.356 . S
N3249 H3252 0.984 . S
N3249 H3253 0.985 . S
H3250 N3245 0.984 . S
H3251 N3245 0.985 . S
H3252 N3249 0.984 . S
H3253 N3249 0.985 . S
H3254 N3248 0.984 . S
H3255 N3248 0.984 . S
H3256 N3244 0.984 . S
H3257 N3244 0.985 . S
C3258 C3259 1.363 . S
C3258 C3264 1.379 . S
C3258 N3266 1.356 . S
C3259 C3258 1.363 . S
C3259 C3265 1.363 . S
C3260 C3261 1.363 . S
C3260 C3265 1.379 . S
C3260 N3267 1.356 . S
C3261 C3260 1.363 . S
C3261 C3264 1.363 . S
N3262 C3264 1.356 . S
N3262 H3274 0.984 . S
N3262 H3275 0.985 . S
N3263 C3265 1.356 . S
N3263 H3268 0.984 . S
N3263 H3269 0.985 . S
C3264 C3258 1.379 . S
C3264 C3261 1.363 . S
C3264 N3262 1.356 . S
C3265 C3259 1.363 . S
C3265 C3260 1.379 . S
C3265 N3263 1.356 . S
N3266 C3258 1.356 . S
N3266 H3272 0.984 . S
N3266 H3273 0.984 . S
N3267 C3260 1.356 . S
N3267 H3270 0.984 . S
N3267 H3271 0.985 . S
H3268 N3263 0.984 . S
H3269 N3263 0.985 . S
H3270 N3267 0.984 . S
H3271 N3267 0.985 . S
H3272 N3266 0.984 . S
H3273 N3266 0.984 . S
H3274 N3262 0.984 . S
H3275 N3262 0.985 . S
C3276 C3277 1.363 . S
C3276 C3282 1.379 . S
C3276 N3284 1.356 . S
C3277 C3276 1.363 . S
C3277 C3283 1.363 . S
C3278 C3279 1.363 . S
C3278 C3283 1.379 . S
C3278 N3285 1.356 . S
C3279 C3278 1.363 . S
C3279 C3282 1.363 . S
N3280 C3282 1.356 . S
N3280 H3292 0.984 . S
N3280 H3293 0.985 . S
N3281 C3283 1.356 . S
N3281 H3286 0.984 . S
N3281 H3287 0.985 . S
C3282 C3276 1.379 . S
C3282 C3279 1.363 . S
C3282 N3280 1.356 . S
C3283 C3277 1.363 . S
C3283 C3278 1.379 . S
C3283 N3281 1.356 . S
N3284 C3276 1.356 . S
N3284 H3290 0.984 . S
N3284 H3291 0.984 . S
N3285 C3278 1.356 . S
N3285 H3288 0.984 . S
N3285 H3289 0.985 . S
H3286 N3281 0.984 . S
H3287 N3281 0.985 . S
H3288 N3285 0.984 . S
H3289 N3285 0.985 . S
H3290 N3284 0.984 . S
H3291 N3284 0.984 . S
H3292 N3280 0.984 . S
H3293 N3280 0.985 . S
C3294 C3295 1.363 . S
C3294 C3300 1.379 . S
C3294 N3302 1.356 . S
C3295 C3294 1.363 . S
C3295 C3301 1.363 . S
C3296 C3297 1.363 . S
C3296 C3301 1.379 . S
C3296 N3303 1.356 . S
C3297 C3296 1.363 . S
C3297 C3300 1.363 . S
N3298 C3300 1.356 . S
N3298 H3310 0.984 . S
N3298 H3311 0.985 . S
N3299 C3301 1.356 . S
N3299 H3304 0.984 . S
N3299 H3305 0.985 . S
C3300 C3294 1.379 . S
C3300 C3297 1.363 . S
C3300 N3298 1.356 . S
C3301 C3295 1.363 . S
C3301 C3296 1.379 . S
C3301 N3299 1.356 . S
N3302 C3294 1.356 . S
N3302 H3308 0.984 . S
N3302 H3309 0.984 . S
N3303 C3296 1.356 . S
N3303 H3306 0.984 . S
N3303 H3307 0.985 . S
H3304 N3299 0.984 . S
H3305 N3299 0.985 . S
H3306 N3303 0.984 . S
H3307 N3303 0.985 . S
H3308 N3302 0.984 . S
H3309 N3302 0.984 . S
H3310 N3298 0.984 . S
H3311 N3298 0.985 . S
C3312 C3313 1.363 . S
C3312 C3318 1.379 . S
C3312 N3320 1.356 . S
C3313 C3312 1.363 . S
C3313 C3319 1.363 . S
C3314 C3315 1.363 . S
C3314 C3319 1.379 . S
C3314 N3321 1.356 . S
C3315 C3314 1.363 . S
C3315 C3318 1.363 . S
N3316 C3318 1.356 . S
N3316 H3328 0.984 . S
N3316 H3329 0.985 . S
N3317 C3319 1.356 . S
N3317 H3322 0.984 . S
N3317 H3323 0.985 . S
C3318 C3312 1.379 . S
C3318 C3315 1.363 . S
C3318 N3316 1.356 . S
C3319 C3313 1.363 . S
C3319 C3314 1.379 . S
C3319 N3317 1.356 . S
N3320 C3312 1.356 . S
N3320 H3326 0.984 . S
N3320 H3327 0.984 . S
N3321 C3314 1.356 . S
N3321 H3324 0.984 . S
N3321 H3325 0.985 . S
H3322 N3317 0.984 . S
H3323 N3317 0.985 . S
H3324 N3321 0.984 . S
H3325 N3321 0.985 . S
H3326 N3320 0.984 . S
H3327 N3320 0.984 . S
H3328 N3316 0.984 . S
H3329 N3316 0.985 . S
C3330 C3331 1.363 . S
C3330 C3336 1.379 . S
C3330 N3338 1.356 . S
C3331 C3330 1.363 . S
C3331 C3337 1.363 . S
C3332 C3333 1.363 . S
C3332 C3337 1.379 . S
C3332 N3339 1.356 . S
C3333 C3332 1.363 . S
C3333 C3336 1.363 . S
N3334 C3336 1.356 . S
N3334 H3346 0.984 . S
N3334 H3347 0.985 . S
N3335 C3337 1.356 . S
N3335 H3340 0.984 . S
N3335 H3341 0.985 . S
C3336 C3330 1.379 . S
C3336 C3333 1.363 . S
C3336 N3334 1.356 . S
C3337 C3331 1.363 . S
C3337 C3332 1.379 . S
C3337 N3335 1.356 . S
N3338 C3330 1.356 . S
N3338 H3344 0.984 . S
N3338 H3345 0.984 . S
N3339 C3332 1.356 . S
N3339 H3342 0.984 . S
N3339 H3343 0.985 . S
H3340 N3335 0.984 . S
H3341 N3335 0.985 . S
H3342 N3339 0.984 . S
H3343 N3339 0.985 . S
H3344 N3338 0.984 . S
H3345 N3338 0.984 . S
H3346 N3334 0.984 . S
H3347 N3334 0.985 . S
C3348 C3349 1.363 . S
C3348 C3354 1.379 . S
C3348 N3356 1.356 . S
C3349 C3348 1.363 . S
C3349 C3355 1.363 . S
C3350 C3351 1.363 . S
C3350 C3355 1.379 . S
C3350 N3357 1.356 . S
C3351 C3350 1.363 . S
C3351 C3354 1.363 . S
N3352 C3354 1.356 . S
N3352 H3364 0.984 . S
N3352 H3365 0.985 . S
N3353 C3355 1.356 . S
N3353 H3358 0.984 . S
N3353 H3359 0.985 . S
C3354 C3348 1.379 . S
C3354 C3351 1.363 . S
C3354 N3352 1.356 . S
C3355 C3349 1.363 . S
C3355 C3350 1.379 . S
C3355 N3353 1.356 . S
N3356 C3348 1.356 . S
N3356 H3362 0.984 . S
N3356 H3363 0.984 . S
N3357 C3350 1.356 . S
N3357 H3360 0.984 . S
N3357 H3361 0.985 . S
H3358 N3353 0.984 . S
H3359 N3353 0.985 . S
H3360 N3357 0.984 . S
H3361 N3357 0.985 . S
H3362 N3356 0.984 . S
H3363 N3356 0.984 . S
H3364 N3352 0.984 . S
H3365 N3352 0.985 . S
C3366 C3367 1.363 . S
C3366 C3372 1.379 . S
C3366 N3374 1.356 . S
C3367 C3366 1.363 . S
C3367 C3373 1.363 . S
C3368 C3369 1.363 . S
C3368 C3373 1.379 . S
C3368 N3375 1.356 . S
C3369 C3368 1.363 . S
C3369 C3372 1.363 . S
N3370 C3372 1.356 . S
N3370 H3382 0.984 . S
N3370 H3383 0.985 . S
N3371 C3373 1.356 . S
N3371 H3376 0.984 . S
N3371 H3377 0.985 . S
C3372 C3366 1.379 . S
C3372 C3369 1.363 . S
C3372 N3370 1.356 . S
C3373 C3367 1.363 . S
C3373 C3368 1.379 . S
C3373 N3371 1.356 . S
N3374 C3366 1.356 . S
N3374 H3380 0.984 . S
N3374 H3381 0.984 . S
N3375 C3368 1.356 . S
N3375 H3378 0.984 . S
N3375 H3379 0.985 . S
H3376 N3371 0.984 . S
H3377 N3371 0.985 . S
H3378 N3375 0.984 . S
H3379 N3375 0.985 . S
H3380 N3374 0.984 . S
H3381 N3374 0.984 . S
H3382 N3370 0.984 . S
H3383 N3370 0.985 . S
C1441 C9 1.770 . S
C1443 C99 1.827 1_545 S
C1459 C19 1.826 1_655 S
C1461 C49 1.769 1_545 S
C1477 C89 1.769 1_655 S
C1479 C59 1.826 . S
C1495 C129 1.835 . S
C1497 C179 1.891 1_455 S
C1513 C219 1.891 . S
C1515 C169 1.834 1_565 S
C1531 C209 1.834 1_455 S
C1533 C139 1.890 1_565 S
C1549 C258 1.770 . S
C1551 C330 1.827 1_565 S
C1567 C298 1.769 1_565 S
C1569 C250 1.826 1_455 S
C1585 C338 1.769 1_455 S
C1587 C290 1.826 . S
C1603 C378 1.835 . S
C1605 C410 1.891 1_655 S
C1621 C450 1.891 . S
C1623 C418 1.834 1_545 S
C1639 C370 1.890 1_545 S
C1641 C458 1.834 1_655 S
C1657 C579 1.882 . S
C1659 C489 1.824 . S
C1675 C529 1.824 . S
C1677 C499 1.882 . S
C1693 C539 1.881 . S
C1695 C569 1.823 . S
C1711 C609 1.850 . S
C1713 C659 1.906 . S
C1729 C699 1.906 . S
C1731 C649 1.849 . S
C1747 C619 1.905 . S
C1749 C689 1.849 . S
C1765 C738 1.796 . S
C1767 C810 1.852 . S
C1783 C778 1.795 . S
C1785 C730 1.852 . S
C1801 C770 1.852 . S
C1803 C818 1.795 . S
C1819 C890 1.757 . S
C1821 C858 1.712 1_554 S
C1837 C898 1.712 1_554 S
C1839 C930 1.757 . S
C1855 C850 1.757 . S
C1857 C938 1.712 1_554 S
C1873 C969 1.796 . S
C1875 C1059 1.852 . S
C1891 C1009 1.795 . S
C1893 C979 1.852 . S
C1909 C1049 1.795 . S
C1911 C1019 1.852 . S
C1927 C1089 1.712 1_556 S
C1929 C1139 1.757 . S
C1945 C1129 1.712 1_556 S
C1947 C1179 1.757 . S
C1963 C1169 1.712 1_556 S
C1965 C1099 1.757 . S
C1981 C1218 1.824 . S
C1983 C1290 1.882 . S
C1999 C1258 1.824 . S
C2001 C1210 1.882 . S
C2017 C1250 1.881 . S
C2019 C1298 1.823 . S
C2035 C1338 1.850 . S
C2037 C1370 1.906 . S
C2053 C1378 1.849 . S
C2055 C1410 1.906 . S
C2071 C1330 1.905 . S
C2073 C1418 1.849 . S
C2089 C10 1.852 . S
C2091 C809 1.831 . S
C2107 C729 1.832 1_565 S
C2109 C50 1.853 . S
C2125 C90 1.852 . S
C2127 C769 1.831 1_455 S
C2143 C130 1.771 . S
C2145 C1369 1.741 . S
C2161 C1409 1.741 1_545 S
C2163 C170 1.771 . S
C2179 C210 1.772 . S
C2181 C1329 1.742 1_655 S
C2197 C1058 1.831 . S
C2199 C259 1.852 . S
C2215 C299 1.853 . S
C2217 C978 1.832 1_545 S
C2233 C339 1.852 . S
C2235 C1018 1.831 1_655 S
C2251 C658 1.741 . S
C2253 C379 1.771 . S
C2269 C698 1.741 1_565 S
C2271 C419 1.771 . S
C2287 C618 1.742 1_455 S
C2289 C459 1.772 . S
C2305 C490 1.813 . S
C2307 C1289 1.788 . S
C2323 C530 1.812 . S
C2325 C1209 1.787 . S
C2341 C1249 1.787 . S
C2343 C570 1.812 . S
C2359 C409 1.778 . S
C2361 C610 1.804 1_455 S
C2377 C449 1.777 . S
C2379 C650 1.804 . S
C2395 C369 1.778 . S
C2397 C690 1.805 1_565 S
C2413 C98 1.828 . S
C2415 C739 1.846 1_565 S
C2431 C779 1.847 1_455 S
C2433 C18 1.829 . S
C2449 C819 1.847 . S
C2451 C58 1.829 . S
C2467 C1138 1.799 . S
C2469 C859 1.828 . S
C2485 C1178 1.798 . S
C2487 C899 1.828 . S
C2503 C939 1.829 . S
C2505 C1098 1.799 . S
C2521 C329 1.828 . S
C2523 C970 1.846 1_545 S
C2539 C249 1.829 . S
C2541 C1010 1.847 1_655 S
C2557 C289 1.829 . S
C2559 C1050 1.847 . S
C2575 C1090 1.829 . S
C2577 C889 1.799 . S
C2593 C929 1.798 . S
C2595 C1130 1.828 . S
C2611 C1170 1.829 . S
C2613 C849 1.799 . S
C2629 C1219 1.813 . S
C2631 C578 1.788 . S
C2647 C1259 1.812 . S
C2649 C498 1.787 . S
C2665 C1299 1.812 . S
C2667 C538 1.787 . S
C2683 C1339 1.804 1_655 S
C2685 C178 1.778 . S
C2701 C218 1.777 . S
C2703 C1379 1.804 . S
C2719 C138 1.778 . S
C2721 C1419 1.804 1_545 S
C2737 C1166 2.258 . S
C2739 C6 2.249 . S
C2755 C1086 2.258 . S
C2757 C46 2.249 . S
C2773 C86 2.263 . S
C2775 C1126 2.245 . S
C2791 C526 2.425 . S
C2793 C126 2.423 . S
C2809 C166 2.423 . S
C2811 C566 2.425 . S
C2827 C206 2.423 . S
C2829 C486 2.425 . S
C2845 C255 2.263 . S
C2847 C935 2.245 . S
C2863 C295 2.263 . S
C2865 C855 2.245 . S
C2881 C335 2.263 . S
C2883 C895 2.245 . S
C2899 C1255 2.425 . S
C2901 C375 2.423 . S
C2917 C1295 2.425 . S
C2919 C415 2.423 . S
C2935 C1215 2.425 . S
C2937 C455 2.423 . S
C2953 C606 2.456 . S
C2955 C1006 2.460 . S
C2971 C646 2.456 . S
C2973 C1046 2.460 . S
C2989 C686 2.456 . S
C2991 C966 2.460 . S
C3007 C735 2.460 . S
C3009 C1415 2.456 . S
C3025 C1335 2.456 . S
C3027 C775 2.460 . S
C3043 C815 2.460 . S
C3045 C1375 2.456 . S
C3061 C175 1.242 . S
C3063 C15 1.244 . S
C3079 C215 1.242 . S
C3081 C55 1.244 . S
C3097 C135 1.242 . S
C3099 C95 1.244 . S
C3115 C246 1.244 . S
C3117 C406 1.243 . S
C3133 C446 1.243 . S
C3135 C286 1.244 . S
C3151 C326 1.244 . S
C3153 C366 1.243 . S
C3169 C655 1.307 . S
C3171 C495 1.308 . S
C3187 C695 1.307 . S
C3189 C535 1.308 . S
C3205 C615 1.307 . S
C3207 C575 1.308 . S
C3223 C886 1.527 . S
C3225 C726 1.557 . S
C3241 C766 1.544 . S
C3243 C926 1.540 . S
C3259 C806 1.544 . S
C3261 C846 1.540 . S
C3277 C975 1.545 . S
C3279 C1135 1.540 . S
C3295 C1175 1.527 . S
C3297 C1015 1.558 . S
C3313 C1055 1.544 . S
C3315 C1095 1.540 . S
C3331 C1206 1.308 . S
C3333 C1366 1.307 . S
C3349 C1406 1.307 . S
C3351 C1246 1.308 . S
C3367 C1286 1.308 . S
C3369 C1326 1.307 . S
