# Generated by pormake.
# Topology lcy-e, (6)-cn, num edge types: 1
# Building blocks:
#     Node 0, Type 0, BuildingBlock: KUMBUR_clean_sbu_0, # of connection points: 6
#     Node 1, Type 0, BuildingBlock: KUMBUR_clean_sbu_0, # of connection points: 6
#     Node 2, Type 0, BuildingBlock: KUMBUR_clean_sbu_0, # of connection points: 6
#     Node 3, Type 0, BuildingBlock: KUMBUR_clean_sbu_0, # of connection points: 6
#     Node 4, Type 0, BuildingBlock: KUMBUR_clean_sbu_0, # of connection points: 6
#     Node 5, Type 0, BuildingBlock: KUMBUR_clean_sbu_0, # of connection points: 6
#     Node 6, Type 0, BuildingBlock: KUMBUR_clean_sbu_0, # of connection points: 6
#     Node 7, Type 0, BuildingBlock: KUMBUR_clean_sbu_0, # of connection points: 6
#     Node 8, Type 0, BuildingBlock: KUMBUR_clean_sbu_0, # of connection points: 6
#     Node 9, Type 0, BuildingBlock: KUMBUR_clean_sbu_0, # of connection points: 6
#     Node 10, Type 0, BuildingBlock: KUMBUR_clean_sbu_0, # of connection points: 6
#     Node 11, Type 0, BuildingBlock: KUMBUR_clean_sbu_0, # of connection points: 6
#     Edge 12, Type (0, 0), BuildingBlock: KIFKEQ_clean_linker_1, # of connection points: 2
#     Edge 13, Type (0, 0), BuildingBlock: KIFKEQ_clean_linker_1, # of connection points: 2
#     Edge 14, Type (0, 0), BuildingBlock: KIFKEQ_clean_linker_1, # of connection points: 2
#     Edge 15, Type (0, 0), BuildingBlock: KIFKEQ_clean_linker_1, # of connection points: 2
#     Edge 16, Type (0, 0), BuildingBlock: KIFKEQ_clean_linker_1, # of connection points: 2
#     Edge 17, Type (0, 0), BuildingBlock: KIFKEQ_clean_linker_1, # of connection points: 2
#     Edge 18, Type (0, 0), BuildingBlock: KIFKEQ_clean_linker_1, # of connection points: 2
#     Edge 19, Type (0, 0), BuildingBlock: KIFKEQ_clean_linker_1, # of connection points: 2
#     Edge 20, Type (0, 0), BuildingBlock: KIFKEQ_clean_linker_1, # of connection points: 2
#     Edge 21, Type (0, 0), BuildingBlock: KIFKEQ_clean_linker_1, # of connection points: 2
#     Edge 22, Type (0, 0), BuildingBlock: KIFKEQ_clean_linker_1, # of connection points: 2
#     Edge 23, Type (0, 0), BuildingBlock: KIFKEQ_clean_linker_1, # of connection points: 2
#     Edge 24, Type (0, 0), BuildingBlock: KIFKEQ_clean_linker_1, # of connection points: 2
#     Edge 25, Type (0, 0), BuildingBlock: KIFKEQ_clean_linker_1, # of connection points: 2
#     Edge 26, Type (0, 0), BuildingBlock: KIFKEQ_clean_linker_1, # of connection points: 2
#     Edge 27, Type (0, 0), BuildingBlock: KIFKEQ_clean_linker_1, # of connection points: 2
#     Edge 28, Type (0, 0), BuildingBlock: KIFKEQ_clean_linker_1, # of connection points: 2
#     Edge 29, Type (0, 0), BuildingBlock: KIFKEQ_clean_linker_1, # of connection points: 2
#     Edge 30, Type (0, 0), BuildingBlock: KIFKEQ_clean_linker_1, # of connection points: 2
#     Edge 31, Type (0, 0), BuildingBlock: KIFKEQ_clean_linker_1, # of connection points: 2
#     Edge 32, Type (0, 0), BuildingBlock: KIFKEQ_clean_linker_1, # of connection points: 2
#     Edge 33, Type (0, 0), BuildingBlock: KIFKEQ_clean_linker_1, # of connection points: 2
#     Edge 34, Type (0, 0), BuildingBlock: KIFKEQ_clean_linker_1, # of connection points: 2
#     Edge 35, Type (0, 0), BuildingBlock: KIFKEQ_clean_linker_1, # of connection points: 2
#     Edge 36, Type (0, 0), BuildingBlock: KIFKEQ_clean_linker_1, # of connection points: 2
#     Edge 37, Type (0, 0), BuildingBlock: KIFKEQ_clean_linker_1, # of connection points: 2
#     Edge 38, Type (0, 0), BuildingBlock: KIFKEQ_clean_linker_1, # of connection points: 2
#     Edge 39, Type (0, 0), BuildingBlock: KIFKEQ_clean_linker_1, # of connection points: 2
#     Edge 40, Type (0, 0), BuildingBlock: KIFKEQ_clean_linker_1, # of connection points: 2
#     Edge 41, Type (0, 0), BuildingBlock: KIFKEQ_clean_linker_1, # of connection points: 2
#     Edge 42, Type (0, 0), BuildingBlock: KIFKEQ_clean_linker_1, # of connection points: 2
#     Edge 43, Type (0, 0), BuildingBlock: KIFKEQ_clean_linker_1, # of connection points: 2
#     Edge 44, Type (0, 0), BuildingBlock: KIFKEQ_clean_linker_1, # of connection points: 2
#     Edge 45, Type (0, 0), BuildingBlock: KIFKEQ_clean_linker_1, # of connection points: 2
#     Edge 46, Type (0, 0), BuildingBlock: KIFKEQ_clean_linker_1, # of connection points: 2
#     Edge 47, Type (0, 0), BuildingBlock: KIFKEQ_clean_linker_1, # of connection points: 2
# Relax obj value: 0.110
# Max RMSD: 0.285
# Mean RMSD: 0.284
data_MOF--net-lcy-e--node1-KUMBUR_clean_sbu_0--edge1-KIFKEQ_clean_linker_1
_symmetry_space_group_name_H-M    P1
_symmetry_Int_Tables_number       1
_symmetry_cell_setting            triclinic
loop_
_symmetry_equiv_pos_as_xyz
'x, y, z'
_cell_length_a     44.008229
_cell_length_b     43.837762
_cell_length_c     44.142705
_cell_angle_alpha  89.882087
_cell_angle_beta   90.02962
_cell_angle_gamma 90.48956
loop_
_atom_site_label
_atom_site_type_symbol
_atom_site_fract_x
_atom_site_fract_y
_atom_site_fract_z
_atom_type_partial_charge
Tb0 Tb 0.15342 0.21173 0.53397 0.0
C1 C 0.06468 0.26472 0.45528 0.0
C2 C 0.06072 0.22842 0.41418 0.0
C3 C 0.01559 0.25436 0.4316 0.0
C4 C 0.0783 0.24398 0.43623 0.0
C5 C 0.03327 0.2708 0.45248 0.0
C6 C 0.02931 0.23326 0.41242 0.0
C7 C 0.0397 0.31212 0.48771 0.0
N8 N 0.08244 0.2804 0.47511 0.0
C9 C 0.07066 0.30557 0.48935 0.0
C10 C 0.02074 0.29418 0.46976 0.0
Tb11 Tb 0.13306 0.26635 0.4773 0.0
N12 N 0.10875 0.23949 0.43878 0.0
C13 C 0.12299 0.22111 0.41806 0.0
C14 C 0.07518 0.20864 0.39424 0.0
C15 C 0.1065 0.20533 0.39594 0.0
H16 H 0.0849 0.32084 0.50242 0.0
H17 H 0.11806 0.19053 0.38018 0.0
H18 H 0.01551 0.22123 0.3959 0.0
H19 H 0.03059 0.33135 0.49998 0.0
H20 H 0.14703 0.21785 0.41787 0.0
H21 H 0.18336 0.29319 0.62072 0.0
H22 H 0.06246 0.19626 0.37713 0.0
H23 H 0.18664 0.14708 0.51492 0.0
H24 H 0.14887 0.26605 0.58574 0.0
H25 H 0.23669 0.12273 0.52191 0.0
H26 H 0.99143 0.25848 0.42946 0.0
H27 H 0.23735 0.27818 0.62426 0.0
H28 H 0.27843 0.24135 0.6095 0.0
H29 H 0.99679 0.29952 0.46823 0.0
H30 H 0.29296 0.19444 0.5827 0.0
N31 N 0.18321 0.2373 0.56818 0.0
C32 C 0.1724 0.25963 0.58668 0.0
C33 C 0.22236 0.26649 0.60854 0.0
C34 C 0.23272 0.24202 0.59117 0.0
C35 C 0.19189 0.27495 0.60669 0.0
C36 C 0.21226 0.2277 0.57104 0.0
H37 H 0.27723 0.1495 0.55056 0.0
N38 N 0.19925 0.18764 0.53842 0.0
C39 C 0.23253 0.14507 0.53135 0.0
C40 C 0.22054 0.20168 0.55581 0.0
C41 C 0.20423 0.15887 0.52748 0.0
C42 C 0.2554 0.1603 0.54745 0.0
C43 C 0.24935 0.18871 0.56047 0.0
O44 O 0.13778 0.16699 0.54453 0.0
O45 O 0.1211 0.22337 0.49866 0.0
O46 O 0.11335 0.2801 0.52177 0.0
O47 O 0.1126 0.23499 0.5492 0.0
O48 O 0.1381 0.18004 0.49878 0.0
O49 O 0.13776 0.20171 0.57817 0.0
O50 O 0.13519 0.31431 0.47557 0.0
O51 O 0.15707 0.26016 0.52014 0.0
O52 O 0.18977 0.21056 0.49986 0.0
O53 O 0.16975 0.23765 0.45891 0.0
O54 O 0.18008 0.27974 0.48517 0.0
O55 O 0.14378 0.28742 0.43503 0.0
C56 C 0.11856 0.19758 0.48608 0.0
C57 C 0.14339 0.15056 0.59582 0.0
C58 C 0.13488 0.10618 0.62975 0.0
C59 C 0.12461 0.1261 0.60641 0.0
C60 C 0.16431 0.11083 0.64141 0.0
C61 C 0.17247 0.15427 0.60833 0.0
C62 C 0.18285 0.13447 0.63073 0.0
C63 C 0.10335 0.26314 0.5448 0.0
C64 C 0.13243 0.17298 0.5728 0.0
C65 C 0.27054 0.2038 0.5791 0.0
C66 C 0.26226 0.23051 0.59437 0.0
C67 C 0.1815 0.27478 0.51381 0.0
C68 C 0.14773 0.34347 0.42979 0.0
C69 C 0.15932 0.34409 0.39971 0.0
C70 C 0.16637 0.37233 0.38541 0.0
C71 C 0.16108 0.39953 0.40124 0.0
C72 C 0.14261 0.37128 0.44466 0.0
C73 C 0.14914 0.39897 0.43045 0.0
C74 C 0.19053 0.21961 0.47122 0.0
C75 C 0.14245 0.31454 0.44695 0.0
H76 H 0.10199 0.1231 0.59716 0.0
H77 H 0.17317 0.09592 0.65885 0.0
H78 H 0.18713 0.17277 0.60109 0.0
H79 H 0.20539 0.13765 0.64009 0.0
H80 H 0.16361 0.32294 0.38788 0.0
H81 H 0.16607 0.42141 0.39083 0.0
H82 H 0.13379 0.37171 0.46756 0.0
H83 H 0.14515 0.42017 0.44228 0.0
Tb84 Tb 1.0002 0.87326 0.74066 0.0
C85 C 0.07446 0.97248 0.80465 0.0
C86 C 0.11139 0.98753 0.76692 0.0
C87 C 0.0941 0.02446 0.80397 0.0
C88 C 0.09179 0.96549 0.77986 0.0
C89 C 0.07606 1.00175 0.81773 0.0
C90 C 0.11177 0.01735 0.77854 0.0
C91 C 0.04534 0.98259 0.85903 0.0
N92 N 0.05814 0.94963 0.81757 0.0
C93 C 0.04491 0.95384 0.84533 0.0
C94 C 0.0606 1.00682 0.84492 0.0
Tb95 Tb 0.05746 0.90342 0.79311 0.0
N96 N 0.09082 0.9364 0.76963 0.0
C97 C 0.11099 0.92717 0.74798 0.0
C98 C 0.13063 0.97865 0.74339 0.0
C99 C 0.1308 0.94818 0.73426 0.0
H100 H 0.03309 0.93518 0.85635 0.0
H101 H 0.14605 0.94088 0.71652 0.0
H102 H 0.12634 0.03476 0.76867 0.0
H103 H 0.03403 0.98601 0.8805 0.0
H104 H 0.11129 0.90378 0.74047 0.0
H105 H 0.90575 0.83029 0.80708 0.0
H106 H 0.14594 0.9949 0.73272 0.0
H107 H 0.03572 0.84365 0.68125 0.0
H108 H 0.94134 0.86926 0.78828 0.0
H109 H 0.03712 0.79464 0.65423 0.0
H110 H 0.09538 0.04723 0.81341 0.0
H111 H 0.90753 0.77772 0.78695 0.0
H112 H 0.92987 0.7409 0.74962 0.0
H113 H 0.06121 0.02899 0.85573 0.0
H114 H 0.96519 0.73135 0.7075 0.0
N115 N 0.96517 0.83889 0.75921 0.0
C116 C 0.94314 0.84638 0.77966 0.0
C117 C 0.92367 0.79469 0.77891 0.0
C118 C 0.9448 0.78766 0.75639 0.0
C119 C 0.92258 0.82432 0.79028 0.0
C120 C 0.96536 0.81058 0.74684 0.0
H121 H 1.00502 0.75139 0.6715 0.0
N122 N 1.00354 0.82838 0.71419 0.0
C123 C 0.0224 0.79728 0.67367 0.0
C124 C 0.98495 0.80525 0.72316 0.0
C125 C 0.02148 0.82512 0.68908 0.0
C126 C 1.00429 0.77291 0.6835 0.0
C127 C 0.98498 0.7768 0.70834 0.0
O128 O 0.99119 0.88952 0.69648 0.0
O129 O 0.03405 0.90867 0.75033 0.0
O130 O 0.01656 0.93371 0.79619 0.0
O131 O 0.97847 0.90504 0.7715 0.0
O132 O 0.03311 0.89194 0.70769 0.0
O133 O 0.95618 0.88906 0.73013 0.0
O134 O 0.07435 0.89122 0.83625 0.0
O135 O 0.01942 0.87281 0.78611 0.0
O136 O 0.03274 0.83713 0.74949 0.0
O137 O 0.07469 0.86716 0.76175 0.0
O138 O 0.03179 0.88228 0.82982 0.0
O139 O 0.1009 0.88317 0.7966 0.0
C140 C 0.04553 0.91248 0.72438 0.0
C141 C 0.94092 0.88377 0.67838 0.0
C142 C 0.91491 0.89032 0.62926 0.0
C143 C 0.93447 0.90166 0.65228 0.0
C144 C 0.90167 0.86126 0.63321 0.0
C145 C 0.92719 0.85495 0.68139 0.0
C146 C 0.90767 0.84388 0.65902 0.0
C147 C 0.98755 0.92845 0.7882 0.0
C148 C 0.96269 0.89471 0.70182 0.0
C149 C 0.9654 0.75345 0.71845 0.0
C150 C 0.94534 0.75887 0.74247 0.0
C151 C 1.01287 0.86688 0.81377 0.0
C152 C 0.12811 0.89319 0.84235 0.0
C153 C 0.15012 0.87289 0.85454 0.0
C154 C 0.17527 0.8843 0.87147 0.0
C155 C 0.17817 0.91597 0.87542 0.0
C156 C 0.13218 0.92463 0.84668 0.0
C157 C 0.15698 0.93587 0.86298 0.0
C158 C 0.06239 0.84079 0.7526 0.0
C159 C 0.10046 0.88192 0.82607 0.0
H160 H 0.94512 0.92387 0.6496 0.0
H161 H 0.88639 0.85196 0.61626 0.0
H162 H 0.9316 0.84088 0.70103 0.0
H163 H 0.89721 0.82159 0.66163 0.0
H164 H 0.14737 0.84852 0.85143 0.0
H165 H 0.19716 0.92541 0.88805 0.0
H166 H 0.11598 0.94061 0.83774 0.0
H167 H 0.15968 0.96022 0.86616 0.0
Tb168 Tb 0.40315 0.74856 0.98193 0.0
C169 C 0.30754 0.8239 0.04863 0.0
C170 C 0.29253 0.86162 1.01167 0.0
C171 C 0.25637 0.84427 0.04972 0.0
C172 C 0.31433 0.84163 0.02382 0.0
C173 C 0.27878 0.82557 0.06251 0.0
C174 C 0.26323 0.86227 0.02428 0.0
C175 C 0.2977 0.79291 0.1023 0.0
N176 N 0.33001 0.80665 0.06045 0.0
C177 C 0.32595 0.79232 0.0878 0.0
C178 C 0.27385 0.80928 0.08938 0.0
Tb179 Tb 0.37541 0.8064 0.03485 0.0
N180 N 0.34288 0.84032 1.01251 0.0
C181 C 0.3519 0.86036 0.99042 0.0
C182 C 0.30113 0.88085 0.98779 0.0
C183 C 0.3311 0.88054 0.97744 0.0
H184 H 0.34427 0.77959 0.09791 0.0
H185 H 0.33818 0.89573 0.95937 0.0
H186 H 0.24602 0.87719 0.01505 0.0
H187 H 0.29438 0.78084 0.12347 0.0
H188 H 0.37495 0.86025 0.98206 0.0
H189 H 0.44265 0.65176 0.04652 0.0
H190 H 0.28504 0.89644 0.97769 0.0
H191 H 0.43439 0.78594 0.92395 0.0
H192 H 0.40499 0.68845 0.02819 0.0
H193 H 0.48379 0.78812 0.89787 0.0
H194 H 0.23399 0.84564 0.05982 0.0
H195 H 0.49524 0.65343 0.02678 0.0
H196 H 0.53301 0.67657 0.99041 0.0
H197 H 0.25207 0.80993 0.10078 0.0
H198 H 0.54407 0.71334 0.94951 0.0
N199 N 0.43616 0.7125 0.99974 0.0
C200 C 0.42792 0.69011 0.01977 0.0
C201 C 0.47886 0.66998 0.01893 0.0
C202 C 0.48668 0.69167 0.99694 0.0
C203 C 0.44921 0.66896 0.0301 0.0
C204 C 0.46448 0.71271 0.98761 0.0
H205 H 0.52577 0.75491 0.91467 0.0
N206 N 0.44817 0.75215 0.95582 0.0
C207 C 0.48041 0.77254 0.91664 0.0
C208 C 0.47062 0.73302 0.96453 0.0
C209 C 0.45234 0.77115 0.93148 0.0
C210 C 0.50406 0.75379 0.92621 0.0
C211 C 0.49924 0.73344 0.95022 0.0
O212 O 0.38727 0.73993 0.93751 0.0
O213 O 0.3697 0.78354 0.99185 0.0
O214 O 0.34261 0.76705 0.03589 0.0
O215 O 0.3707 0.7277 1.01316 0.0
O216 O 0.38546 0.78197 0.949 0.0
O217 O 0.38511 0.70496 0.97134 0.0
O218 O 0.3904 0.82214 0.07755 0.0
O219 O 0.40417 0.76736 0.02755 0.0
O220 O 0.4402 0.78012 0.99213 0.0
O221 O 0.412 0.82313 1.00339 0.0
O222 O 0.39538 0.77964 0.07134 0.0
O223 O 0.39476 0.85074 0.0385 0.0
C224 C 0.36585 0.79508 0.96596 0.0
C225 C 0.38993 0.68908 0.91966 0.0
C226 C 0.38166 0.66153 0.87143 0.0
C227 C 0.3713 0.68187 0.89419 0.0
C228 C 0.41047 0.64834 0.87507 0.0
C229 C 0.41845 0.67533 0.92227 0.0
C230 C 0.42853 0.65508 0.90022 0.0
C231 C 0.34704 0.73777 0.02858 0.0
C232 C 0.3802 0.7116 0.94292 0.0
C233 C 0.52186 0.71329 0.96009 0.0
C234 C 0.51558 0.69242 0.98341 0.0
C235 C 0.40971 0.76026 0.05513 0.0
C236 C 0.38707 0.87571 0.08593 0.0
C237 C 0.40659 0.90035 0.09466 0.0
C238 C 0.39528 0.92505 0.11225 0.0
C239 C 0.3646 0.92394 0.1213 0.0
C240 C 0.35664 0.8761 0.09528 0.0
C241 C 0.3456 0.89987 0.11282 0.0
C242 C 0.43791 0.80997 0.99514 0.0
C243 C 0.39807 0.84922 0.06778 0.0
H244 H 0.3493 0.69251 0.89176 0.0
H245 H 0.41907 0.63254 0.85835 0.0
H246 H 0.43306 0.68031 0.94136 0.0
H247 H 0.45061 0.64464 0.90255 0.0
H248 H 0.43013 0.90046 0.08752 0.0
H249 H 0.35514 0.94175 0.13532 0.0
H250 H 0.34131 0.85778 0.08936 0.0
H251 H 0.32209 0.89958 0.12004 0.0
Tb252 Tb 0.53961 0.15356 0.22422 0.0
C253 C 0.46475 0.04938 0.27961 0.0
C254 C 0.42627 0.03887 0.24197 0.0
C255 C 0.44379 0.99812 0.27483 0.0
C256 C 0.4468 0.05917 0.2562 0.0
C257 C 0.46288 0.01896 0.28994 0.0
C258 C 0.42548 1.00808 0.25084 0.0
C259 C 0.49563 0.03313 0.33156 0.0
N260 N 0.48203 0.07049 0.29403 0.0
C261 C 0.49628 0.06311 0.32066 0.0
C262 C 0.4792 1.01082 0.31588 0.0
Tb263 Tb 0.48309 0.11904 0.27408 0.0
N264 N 0.44827 0.08909 0.24855 0.0
C265 C 0.42791 0.10064 0.22814 0.0
C266 C 0.40667 0.05032 0.21986 0.0
C267 C 0.40719 0.08144 0.21327 0.0
H268 H 0.50902 0.0802 0.333 0.0
H269 H 0.39173 0.09069 0.1966 0.0
H270 H 0.41018 0.99204 0.23991 0.0
H271 H 0.50767 0.0273 0.35213 0.0
H272 H 0.42785 0.12452 0.22245 0.0
H273 H 0.63192 0.19404 0.29489 0.0
H274 H 0.39065 0.03549 0.20827 0.0
H275 H 0.50576 0.18567 0.16506 0.0
H276 H 0.59745 0.15564 0.27313 0.0
H277 H 0.50424 0.23613 0.14049 0.0
H278 H 0.44227 0.97456 0.28216 0.0
H279 H 0.6294 0.24775 0.27786 0.0
H280 H 0.60715 0.28638 0.24214 0.0
H281 H 0.47841 0.98768 0.32455 0.0
H282 H 0.57285 0.29772 0.19955 0.0
N283 N 0.57358 0.18735 0.24542 0.0
C284 C 0.59541 0.17899 0.26579 0.0
C285 C 0.61377 0.23101 0.26851 0.0
C286 C 0.59298 0.23903 0.24596 0.0
C287 C 0.6153 0.20073 0.27812 0.0
C288 C 0.5731 0.21635 0.23466 0.0
H289 H 0.53471 0.27898 0.16115 0.0
N290 N 0.53638 0.19974 0.19988 0.0
C291 C 0.5183 0.23269 0.16031 0.0
C292 C 0.5541 0.2227 0.21072 0.0
C293 C 0.51929 0.20405 0.1743 0.0
C294 C 0.53548 0.25684 0.17206 0.0
C295 C 0.55398 0.25193 0.19737 0.0
O296 O 0.5506 0.1416 0.17917 0.0
O297 O 0.50653 0.11702 0.23138 0.0
O298 O 0.52293 0.08801 0.27252 0.0
O299 O 0.56142 0.12003 0.25332 0.0
O300 O 0.50791 0.13575 0.18955 0.0
O301 O 0.5838 0.13798 0.21453 0.0
O302 O 0.46715 0.12543 0.31876 0.0
O303 O 0.51907 0.153 0.26945 0.0
O304 O 0.50552 0.18827 0.233 0.0
O305 O 0.46468 0.15657 0.24508 0.0
O306 O 0.51228 0.13344 0.31122 0.0
O307 O 0.44151 0.14168 0.28099 0.0
C308 C 0.49544 0.11437 0.20519 0.0
C309 C 0.60218 0.14722 0.16444 0.0
C310 C 0.6343 0.14141 0.11902 0.0
C311 C 0.61107 0.13034 0.13854 0.0
C312 C 0.64785 0.16982 0.12567 0.0
C313 C 0.61623 0.17544 0.17019 0.0
C314 C 0.6388 0.18663 0.15089 0.0
C315 C 0.552 0.09463 0.26661 0.0
C316 C 0.57866 0.13515 0.18555 0.0
C317 C 0.57274 0.27503 0.20933 0.0
C318 C 0.59222 0.26859 0.23361 0.0
C319 C 0.52891 0.15267 0.29677 0.0
C320 C 0.41339 0.12553 0.32382 0.0
C321 C 0.3919 0.14491 0.33774 0.0
C322 C 0.36422 0.1328 0.34919 0.0
C323 C 0.35871 0.10126 0.34683 0.0
C324 C 0.40716 0.09416 0.32225 0.0
C325 C 0.38007 0.08216 0.33363 0.0
C326 C 0.47602 0.18341 0.23615 0.0
C327 C 0.4418 0.13789 0.3102 0.0
H328 H 0.60039 0.10846 0.13398 0.0
H329 H 0.66533 0.17931 0.11108 0.0
H330 H 0.6099 0.1888 0.18972 0.0
H331 H 0.64945 0.20847 0.15556 0.0
H332 H 0.39641 0.16921 0.33914 0.0
H333 H 0.33789 0.09127 0.35561 0.0
H334 H 0.42321 0.07884 0.3122 0.0
H335 H 0.37559 0.05788 0.33217 0.0
Tb336 Tb 0.63391 0.25111 0.54437 0.0
C337 C 0.72316 0.32326 0.47614 0.0
C338 C 0.73835 0.36173 0.51254 0.0
C339 C 0.77524 0.34248 0.47665 0.0
C340 C 0.71618 0.34176 0.50036 0.0
C341 C 0.75251 0.32435 0.46322 0.0
C342 C 0.76817 0.36115 0.50131 0.0
C343 C 0.73353 0.29376 0.42188 0.0
N344 N 0.7004 0.30668 0.46333 0.0
C345 C 0.70476 0.29381 0.43526 0.0
C346 C 0.7577 0.30854 0.43626 0.0
Tb347 Tb 0.65448 0.30702 0.48883 0.0
N348 N 0.68713 0.34176 0.51062 0.0
C349 C 0.67809 0.36355 0.53084 0.0
C350 C 0.72966 0.38239 0.53494 0.0
C351 C 0.69924 0.38375 0.54362 0.0
H352 H 0.68618 0.28235 0.42378 0.0
H353 H 0.69207 0.40025 0.5603 0.0
H354 H 0.78562 0.37589 0.51077 0.0
H355 H 0.73697 0.28248 0.40039 0.0
H356 H 0.65475 0.36512 0.53795 0.0
H357 H 0.60372 0.15695 0.4714 0.0
H358 H 0.74601 0.398 0.54495 0.0
H359 H 0.5995 0.2789 0.605 0.0
H360 H 0.63812 0.19517 0.49416 0.0
H361 H 0.54901 0.27485 0.62935 0.0
H362 H 0.79802 0.34321 0.46735 0.0
H363 H 0.55016 0.15333 0.48824 0.0
H364 H 0.50931 0.17082 0.52409 0.0
H365 H 0.7799 0.30881 0.42566 0.0
H366 H 0.49443 0.20281 0.56737 0.0
N367 N 0.60419 0.21413 0.52258 0.0
C368 C 0.6148 0.19408 0.50153 0.0
C369 C 0.56512 0.17037 0.49811 0.0
C370 C 0.5549 0.18974 0.52105 0.0
C371 C 0.59535 0.17228 0.48863 0.0
C372 C 0.5753 0.21155 0.53299 0.0
H373 H 0.50924 0.24151 0.60707 0.0
N374 N 0.58788 0.24914 0.56866 0.0
C375 C 0.5537 0.2621 0.60893 0.0
C376 C 0.5669 0.22946 0.55717 0.0
C377 C 0.58225 0.26432 0.59513 0.0
C378 C 0.53128 0.24329 0.59626 0.0
C379 C 0.53792 0.22623 0.57035 0.0
O380 O 0.64947 0.244 0.58914 0.0
O381 O 0.66625 0.28702 0.53232 0.0
O382 O 0.67831 0.26296 0.47712 0.0
O383 O 0.67277 0.23287 0.52039 0.0
O384 O 0.64935 0.28745 0.57516 0.0
O385 O 0.64923 0.20743 0.55715 0.0
O386 O 0.64606 0.31949 0.44336 0.0
O387 O 0.63209 0.26293 0.49594 0.0
O388 O 0.59599 0.28221 0.53882 0.0
O389 O 0.62137 0.32559 0.52238 0.0
O390 O 0.61066 0.29346 0.46978 0.0
O391 O 0.6367 0.35072 0.47966 0.0
C392 C 0.66929 0.30002 0.55778 0.0
C393 C 0.6428 0.19433 0.60916 0.0
C394 C 0.64852 0.16955 0.6589 0.0
C395 C 0.66023 0.18843 0.63553 0.0
C396 C 0.61945 0.15648 0.65521 0.0
C397 C 0.61405 0.1806 0.60618 0.0
C398 C 0.6025 0.16187 0.62905 0.0
C399 C 0.6852 0.23829 0.49374 0.0
C400 C 0.65439 0.21513 0.58517 0.0
C401 C 0.51695 0.20549 0.55776 0.0
C402 C 0.52542 0.18729 0.5331 0.0
C403 C 0.60885 0.26587 0.47896 0.0
C404 C 0.64787 0.37288 0.43147 0.0
C405 C 0.62765 0.39591 0.42132 0.0
C406 C 0.63798 0.41968 0.40187 0.0
C407 C 0.66874 0.42023 0.39335 0.0
C408 C 0.67846 0.3746 0.42271 0.0
C409 C 0.68875 0.39806 0.40386 0.0
C410 C 0.59704 0.31187 0.53421 0.0
C411 C 0.6368 0.34683 0.45037 0.0
H412 H 0.68249 0.19889 0.63807 0.0
H413 H 0.6099 0.14171 0.67253 0.0
H414 H 0.60048 0.18428 0.58613 0.0
H415 H 0.58026 0.15145 0.62649 0.0
H416 H 0.60396 0.39497 0.42795 0.0
H417 H 0.67745 0.43815 0.37872 0.0
H418 H 0.69449 0.3577 0.43019 0.0
H419 H 0.71242 0.39899 0.39721 0.0
Tb420 Tb 0.97133 0.40647 0.74515 0.0
C421 C 0.03489 0.31714 0.81905 0.0
C422 C 0.99769 0.30325 0.85719 0.0
C423 C 0.03236 0.26503 0.83824 0.0
C424 C 1.01078 0.32502 0.83735 0.0
C425 C 0.04674 0.28729 0.82026 0.0
C426 C 1.0079 0.27302 0.85674 0.0
C427 C 0.08937 0.30489 0.79055 0.0
N428 N 0.04883 0.33951 0.80276 0.0
C429 C 0.07713 0.33419 0.79059 0.0
C430 C 0.07374 0.28114 0.80485 0.0
Tb431 Tb 0.02501 0.38652 0.8031 0.0
N432 N 1.0015 0.35447 0.83727 0.0
C433 C 0.9813 0.36418 0.85875 0.0
C434 C 0.97541 0.31271 0.87757 0.0
C435 C 0.96767 0.34344 0.87878 0.0
H436 H 0.08974 0.35244 0.77966 0.0
H437 H 0.95109 0.3512 0.89508 0.0
H438 H 0.99779 0.25592 0.87146 0.0
H439 H 0.11099 0.30073 0.77972 0.0
H440 H 0.97496 0.38776 0.86042 0.0
H441 H 0.05143 0.4291 0.65521 0.0
H442 H 0.96475 0.29669 0.89306 0.0
H443 H 0.91024 0.44449 0.76643 0.0
H444 H 0.02399 0.39722 0.69245 0.0
H445 H 0.88901 0.49611 0.75914 0.0
H446 H 0.04086 0.24191 0.83908 0.0
H447 H 0.03875 0.48374 0.64968 0.0
H448 H 1.00475 0.52741 0.66401 0.0
H449 H 0.0835 0.25854 0.8052 0.0
H450 H 0.96023 0.54569 0.69228 0.0
N451 N 0.99707 0.43362 0.70895 0.0
C452 C 0.01844 0.42102 0.69049 0.0
C453 C 0.02684 0.46989 0.66628 0.0
C454 C 1.00354 0.48215 0.68392 0.0
C455 C 0.03398 0.43904 0.66926 0.0
C456 C 0.98889 0.46313 0.70524 0.0
H457 H 0.9165 0.53398 0.72747 0.0
N458 N 0.94984 0.45365 0.74015 0.0
C459 C 0.91029 0.49011 0.74851 0.0
C460 C 0.96416 0.47348 0.72123 0.0
C461 C 0.9223 0.46093 0.75253 0.0
C462 C 0.92593 0.51146 0.7307 0.0
C463 C 0.95291 0.50306 0.71627 0.0
O464 O 0.92568 0.39356 0.73575 0.0
O465 O 0.98171 0.37527 0.78199 0.0
O466 O 0.0376 0.36286 0.76012 0.0
O467 O 0.99371 0.36481 0.73084 0.0
O468 O 0.93873 0.39209 0.78014 0.0
O469 O 0.95988 0.38891 0.70198 0.0
O470 O 0.07092 0.39425 0.81517 0.0
O471 O 0.01968 0.40863 0.75886 0.0
O472 O 0.97439 0.44428 0.77742 0.0
O473 O 0.99111 0.41924 0.82062 0.0
O474 O 0.04305 0.43144 0.79084 0.0
O475 O 0.03513 0.40312 0.84694 0.0
C476 C 0.95567 0.37275 0.79395 0.0
C477 C 0.90909 0.39652 0.68428 0.0
C478 C 0.86458 0.38815 0.65059 0.0
C479 C 0.8841 0.37807 0.67434 0.0
C480 C 0.87025 0.41708 0.63784 0.0
C481 C 0.91368 0.42512 0.67071 0.0
C482 C 0.89436 0.43531 0.64788 0.0
C483 C 0.02073 0.35349 0.73678 0.0
C484 C 0.93101 0.38581 0.70789 0.0
C485 C 0.96829 0.52273 0.69619 0.0
C486 C 0.99363 0.51231 0.68009 0.0
C487 C 0.03626 0.43235 0.76268 0.0
C488 C 0.08323 0.38986 0.86795 0.0
C489 C 0.09473 0.40886 0.89148 0.0
C490 C 0.11384 0.39674 0.91442 0.0
C491 C 0.12075 0.36553 0.91363 0.0
C492 C 0.09035 0.35874 0.86845 0.0
C493 C 0.10893 0.34675 0.89102 0.0
C494 C 0.97844 0.443 0.80703 0.0
C495 C 0.06445 0.4026 0.8428 0.0
H496 H 0.88035 0.35582 0.68446 0.0
H497 H 0.85575 0.42583 0.62004 0.0
H498 H 0.93249 0.43955 0.67753 0.0
H499 H 0.89825 0.45748 0.63768 0.0
H500 H 0.08932 0.43293 0.89164 0.0
H501 H 0.13507 0.35552 0.93091 0.0
H502 H 0.08178 0.34351 0.85138 0.0
H503 H 0.11427 0.32269 0.89093 0.0
Tb504 Tb 0.89154 0.784 0.05947 0.0
C505 C 0.80398 0.70551 1.00703 0.0
C506 C 0.80088 0.66291 0.04191 0.0
C507 C 0.755 0.68155 0.01808 0.0
C508 C 0.81812 0.68561 0.02667 0.0
C509 C 0.77231 0.70308 1.0019 0.0
C510 C 0.76927 0.66146 0.03802 0.0
C511 C 0.77746 0.74051 0.96229 0.0
N512 N 0.82141 0.72592 0.99154 0.0
C513 C 0.80868 0.74181 0.96786 0.0
C514 C 0.75906 0.72155 0.97983 0.0
Tb515 Tb 0.87253 0.72764 1.00444 0.0
N516 N 0.84874 0.68793 0.03032 0.0
C517 C 0.86355 0.66594 0.0468 0.0
C518 C 0.8159 0.642 0.06033 0.0
C519 C 0.8474 0.64323 0.06235 0.0
H520 H 0.82241 0.75559 0.95274 0.0
H521 H 0.85939 0.62646 0.07572 0.0
H522 H 0.75572 0.64449 0.04989 0.0
H523 H 0.7677 0.75382 0.9441 0.0
H524 H 0.88787 0.66483 0.0482 0.0
H525 H 0.91582 0.8748 0.97977 0.0
H526 H 0.80348 0.62435 0.07244 0.0
H527 H 0.92733 0.76936 0.12396 0.0
H528 H 0.88322 0.83894 1.00822 0.0
H529 H 0.97897 0.77621 0.14522 0.0
H530 H 0.73066 0.67968 0.01471 0.0
H531 H 0.97105 0.87713 0.99026 0.0
H532 H 0.0148 0.86091 0.02326 0.0
H533 H 0.73488 0.72033 0.97525 0.0
H534 H 0.03223 0.83377 0.06891 0.0
N535 N 0.9195 0.81974 0.03329 0.0
C536 C 0.90718 0.83933 1.01267 0.0
C537 C 0.95682 0.86106 1.00254 0.0
C538 C 0.96887 0.84276 0.02552 0.0
C539 C 0.92565 0.85991 0.99667 0.0
C540 C 0.94928 0.82227 0.04078 0.0
H541 H 0.01874 0.80268 0.11518 0.0
N542 N 0.93842 0.79004 0.08165 0.0
C543 C 0.97381 0.78468 0.12277 0.0
C544 C 0.95913 0.8069 0.0661 0.0
C545 C 0.94461 0.78093 0.11072 0.0
C546 C 0.99624 0.79949 0.10568 0.0
C547 C 0.98875 0.81172 0.07736 0.0
O548 O 0.87741 0.79425 0.10413 0.0
O549 O 0.85996 0.74752 0.0476 0.0
O550 O 0.85464 0.77351 0.9907 0.0
O551 O 0.84853 0.79526 0.0377 0.0
O552 O 0.87634 0.74808 0.09089 0.0
O553 O 0.8751 0.82797 0.06939 0.0
O554 O 0.86836 0.72012 0.95719 0.0
O555 O 0.89612 0.77128 1.01118 0.0
O556 O 0.92685 0.74944 0.06319 0.0
O557 O 0.90893 0.70918 0.03348 0.0
O558 O 0.91887 0.73773 0.9899 0.0
O559 O 0.89213 0.68849 0.98553 0.0
C560 C 0.85718 0.73461 0.0732 0.0
C561 C 0.8846 0.84557 0.11948 0.0
C562 C 0.88081 0.87645 0.16593 0.0
C563 C 0.86891 0.8537 0.14632 0.0
C564 C 0.90888 0.89017 0.15853 0.0
C565 C 0.91241 0.85997 0.11287 0.0
C566 C 0.92449 0.88191 0.13234 0.0
C567 C 0.84183 0.79423 1.00867 0.0
C568 C 0.87178 0.8226 0.09818 0.0
C569 C 1.00919 0.83015 0.06092 0.0
C570 C 0.99926 0.84562 0.03495 0.0
C571 C 0.9206 0.7661 0.99653 0.0
C572 C 0.86899 0.66733 0.94224 0.0
C573 C 0.88809 0.6443 0.93045 0.0
C574 C 0.87562 0.61772 0.91687 0.0
C575 C 0.8438 0.61499 0.91492 0.0
C576 C 0.83739 0.66372 0.93983 0.0
C577 C 0.82497 0.63778 0.9262 0.0
C578 C 0.92837 0.72114 0.05317 0.0
C579 C 0.88237 0.69401 0.95832 0.0
H580 H 0.8473 0.84289 0.15151 0.0
H581 H 0.91895 0.90726 0.1732 0.0
H582 H 0.92476 0.85446 0.09248 0.0
H583 H 0.94603 0.89275 0.12701 0.0
H584 H 0.91253 0.64674 0.9325 0.0
H585 H 0.83337 0.59525 0.9043 0.0
H586 H 0.82222 0.68078 0.9486 0.0
H587 H 0.80054 0.63527 0.92445 0.0
Tb588 Tb 0.49151 0.64592 0.3037 0.0
C589 C 0.56267 0.55856 0.2316 0.0
C590 C 0.60041 0.5406 0.26722 0.0
C591 C 0.58082 0.50634 0.22859 0.0
C592 C 0.58097 0.56371 0.25651 0.0
C593 C 0.56336 0.53016 0.21659 0.0
C594 C 0.59936 0.51157 0.25388 0.0
C595 C 0.53419 0.5525 0.17606 0.0
N596 N 0.547 0.58244 0.22006 0.0
C597 C 0.53473 0.58033 0.19144 0.0
C598 C 0.548 0.5271 0.189 0.0
Tb599 Tb 0.54843 0.62666 0.24846 0.0
N600 N 0.58153 0.59207 0.26874 0.0
C601 C 0.60337 0.59968 0.28957 0.0
C602 C 0.62115 0.5477 0.29021 0.0
C603 C 0.62307 0.57755 0.30096 0.0
H604 H 0.52401 0.59992 0.18116 0.0
H605 H 0.63962 0.58353 0.31814 0.0
H606 H 0.6137 0.49339 0.26216 0.0
H607 H 0.52331 0.55074 0.15413 0.0
H608 H 0.60528 0.62261 0.2982 0.0
H609 H 0.39934 0.67439 0.22832 0.0
H610 H 0.6364 0.5306 0.2991 0.0
H611 H 0.51788 0.68129 0.36465 0.0
H612 H 0.43668 0.64052 0.25236 0.0
H613 H 0.51371 0.73223 0.38829 0.0
H614 H 0.58125 0.48424 0.21766 0.0
H615 H 0.39583 0.72834 0.24431 0.0
H616 H 0.41293 0.77 0.2799 0.0
H617 H 0.54796 0.50566 0.17682 0.0
H618 H 0.44403 0.78576 0.32369 0.0
N619 N 0.45517 0.67507 0.28086 0.0
C620 C 0.43559 0.66397 0.25946 0.0
C621 C 0.41246 0.71359 0.2548 0.0
C622 C 0.43137 0.72433 0.278 0.0
C623 C 0.4143 0.68314 0.24579 0.0
C624 C 0.45267 0.70419 0.29075 0.0
H625 H 0.48148 0.77167 0.36459 0.0
N626 N 0.48923 0.69234 0.3274 0.0
C627 C 0.50147 0.7272 0.3676 0.0
C628 C 0.47012 0.7131 0.31514 0.0
C629 C 0.50372 0.69839 0.35423 0.0
C630 C 0.4833 0.74943 0.35411 0.0
C631 C 0.46687 0.74233 0.32785 0.0
O632 O 0.48324 0.63157 0.34896 0.0
O633 O 0.52763 0.61454 0.29161 0.0
O634 O 0.50508 0.60166 0.23634 0.0
O635 O 0.4739 0.60681 0.2788 0.0
O636 O 0.52682 0.63 0.33503 0.0
O637 O 0.44819 0.62849 0.31576 0.0
O638 O 0.56224 0.63822 0.20397 0.0
O639 O 0.50443 0.64855 0.25543 0.0
O640 O 0.52375 0.68382 0.29933 0.0
O641 O 0.56675 0.65824 0.28355 0.0
O642 O 0.53538 0.67078 0.23005 0.0
O643 O 0.593 0.64381 0.24138 0.0
C644 C 0.53999 0.61106 0.31727 0.0
C645 C 0.43225 0.63501 0.36716 0.0
C646 C 0.40013 0.62634 0.4127 0.0
C647 C 0.42303 0.61637 0.39219 0.0
C648 C 0.38751 0.65534 0.40796 0.0
C649 C 0.41883 0.66367 0.36354 0.0
C650 C 0.39684 0.67374 0.38381 0.0
C651 C 0.48008 0.59451 0.25226 0.0
C652 C 0.45491 0.62447 0.34423 0.0
C653 C 0.44668 0.76305 0.31447 0.0
C654 C 0.42899 0.75408 0.28953 0.0
C655 C 0.50779 0.67216 0.23882 0.0
C656 C 0.61559 0.63504 0.19287 0.0
C657 C 0.6393 0.65513 0.18298 0.0
C658 C 0.66271 0.64456 0.16345 0.0
C659 C 0.66215 0.61384 0.15454 0.0
C660 C 0.61633 0.60448 0.18359 0.0
C661 C 0.63935 0.59403 0.16468 0.0
C662 C 0.5534 0.68257 0.29529 0.0
C663 C 0.58983 0.64598 0.21207 0.0
H664 H 0.43305 0.59409 0.39522 0.0
H665 H 0.37038 0.66402 0.42323 0.0
H666 H 0.42511 0.67825 0.34476 0.0
H667 H 0.38677 0.69596 0.38066 0.0
H668 H 0.63921 0.67881 0.18992 0.0
H669 H 0.67966 0.60503 0.13977 0.0
H670 H 0.599 0.58856 0.1907 0.0
H671 H 0.63943 0.57038 0.15767 0.0
Tb672 Tb 0.21854 0.52253 0.15151 0.0
C673 C 0.26767 0.4387 0.05472 0.0
C674 C 0.22783 0.40048 0.05379 0.0
C675 C 0.25689 0.4111 1.00815 0.0
C676 C 0.24503 0.42279 0.06935 0.0
C677 C 0.27446 0.4326 0.02411 0.0
C678 C 0.23358 0.39505 0.02298 0.0
C679 C 0.31718 0.4672 0.02829 0.0
N680 N 0.28416 0.45902 0.07104 0.0
C681 C 0.30963 0.47221 0.05864 0.0
C682 C 0.29925 0.4476 1.0108 0.0
Tb683 Tb 0.27047 0.46617 0.12078 0.0
N684 N 0.24006 0.42905 0.09898 0.0
C685 C 0.21896 0.41231 0.11485 0.0
C686 C 0.2056 0.38413 0.06971 0.0
C687 C 0.20136 0.3899 0.10046 0.0
H688 H 0.32388 0.48715 0.07214 0.0
H689 H 0.18437 0.37723 0.1131 0.0
H690 H 0.22042 0.37822 1.01056 0.0
H691 H 0.33693 0.47829 0.0185 0.0
H692 H 0.21472 0.41644 0.13845 0.0
H693 H 0.29214 0.60987 0.19827 0.0
H694 H 0.19184 0.36687 0.05859 0.0
H695 H 0.15186 0.49834 0.17758 0.0
H696 H 0.26843 0.5795 0.15765 0.0
H697 H 0.12482 0.496 0.22655 0.0
H698 H 0.26151 0.40629 0.98454 0.0
H699 H 0.27561 0.60278 0.25141 0.0
H700 H 0.23811 0.57917 0.28786 0.0
H701 H 0.30525 0.44355 0.98735 0.0
H702 H 0.19168 0.54832 0.29556 0.0
N703 N 0.24068 0.55324 0.18755 0.0
C704 C 0.26148 0.57552 0.18076 0.0
C705 C 0.26554 0.58892 0.2337 0.0
C706 C 0.24186 0.56843 0.24008 0.0
C707 C 0.27483 0.59306 0.20374 0.0
C708 C 0.22962 0.55098 0.21613 0.0
H709 H 0.14867 0.5178 0.27255 0.0
N710 N 0.19122 0.52013 0.19589 0.0
C711 C 0.1471 0.50655 0.22521 0.0
C712 C 0.2036 0.53399 0.22045 0.0
C713 C 0.16245 0.50801 0.19748 0.0
C714 C 0.1607 0.51876 0.25115 0.0
C715 C 0.18897 0.53341 0.24882 0.0
O716 O 0.17544 0.53495 0.13441 0.0
O717 O 0.22823 0.48998 0.11599 0.0
O718 O 0.27283 0.50741 0.09058 0.0
O719 O 0.24831 0.54521 0.11902 0.0
O720 O 0.18453 0.49225 0.13018 0.0
O721 O 0.21054 0.56846 0.13963 0.0
O722 O 0.31623 0.45183 0.12177 0.0
O723 O 0.26437 0.50195 0.15447 0.0
O724 O 0.21665 0.4852 0.18385 0.0
O725 O 0.24924 0.44875 0.16334 0.0
O726 O 0.30585 0.49819 0.1323 0.0
O727 O 0.28204 0.42677 0.14582 0.0
C728 C 0.20195 0.47969 0.11062 0.0
C729 C 0.15956 0.58497 0.1458 0.0
C730 C 0.11427 0.61727 0.14075 0.0
C731 C 0.1354 0.59667 0.12805 0.0
C732 C 0.11738 0.62506 0.17154 0.0
C733 C 0.16203 0.59364 0.17626 0.0
C734 C 0.14098 0.61335 0.18903 0.0
C735 C 0.2646 0.53631 0.09557 0.0
C736 C 0.18212 0.56377 0.13269 0.0
C737 C 0.20233 0.54876 0.27343 0.0
C738 C 0.22879 0.56627 0.26906 0.0
C739 C 0.2913 0.51338 0.15241 0.0
C740 C 0.32372 0.3982 0.12746 0.0
C741 C 0.33708 0.37727 0.14812 0.0
C742 C 0.34888 0.34903 0.13779 0.0
C743 C 0.34739 0.34262 0.10658 0.0
C744 C 0.32279 0.39072 0.09661 0.0
C745 C 0.33451 0.36323 0.08632 0.0
C746 C 0.22968 0.45827 0.18419 0.0
C747 C 0.31049 0.42755 0.13793 0.0
H748 H 0.13347 0.59028 0.10442 0.0
H749 H 0.10136 0.64023 0.18228 0.0
H750 H 0.18033 0.58529 0.19022 0.0
H751 H 0.14304 0.61972 0.21262 0.0
H752 H 0.33788 0.38273 0.17203 0.0
H753 H 0.35665 0.32168 0.09761 0.0
H754 H 0.31316 0.40618 0.0803 0.0
H755 H 0.33371 0.35789 0.0624 0.0
Tb756 Tb 0.72706 1.0092 0.88044 0.0
C757 C 0.78224 0.09481 0.97473 0.0
C758 C 0.74334 0.13316 0.97849 0.0
C759 C 0.77548 0.12247 0.02192 0.0
C760 C 0.75884 0.11073 0.96179 0.0
C761 C 0.79143 0.10093 1.00474 0.0
C762 C 0.75146 0.13859 1.00879 0.0
C763 C 0.8332 0.0664 0.99741 0.0
N764 N 0.79715 0.0745 0.95727 0.0
C765 C 0.82332 0.06138 0.9677 0.0
C766 C 0.81693 0.08596 0.01618 0.0
Tb767 Tb 0.77975 0.06761 0.90866 0.0
N768 N 0.75163 0.10457 0.93258 0.0
C769 C 0.73 0.12157 0.91814 0.0
C770 C 0.72045 0.1497 0.96413 0.0
C771 C 0.71399 0.14409 0.93371 0.0
H772 H 0.83622 0.04644 0.95318 0.0
H773 H 0.69652 0.15696 0.92224 0.0
H774 H 0.73963 0.15551 0.02208 0.0
H775 H 0.85346 0.05533 1.00573 0.0
H776 H 0.72416 0.11755 0.89481 0.0
H777 H 0.79901 0.92056 0.83585 0.0
H778 H 0.70792 0.16704 0.97617 0.0
H779 H 0.66014 0.03164 0.85466 0.0
H780 H 0.77617 0.95212 0.87569 0.0
H781 H 0.63231 0.03207 0.80605 0.0
H782 H 0.78197 0.1273 0.04511 0.0
H783 H 0.78171 0.92559 0.78274 0.0
H784 H 0.74383 0.94757 0.74602 0.0
H785 H 0.82474 0.09002 0.03912 0.0
H786 H 0.69757 0.97781 0.73791 0.0
N787 N 0.74821 0.97714 0.84529 0.0
C788 C 0.76891 0.95527 0.85257 0.0
C789 C 0.77203 0.94001 0.80009 0.0
C790 C 0.74844 0.96007 0.79333 0.0
C791 C 0.78177 0.93703 0.83003 0.0
C792 C 0.73674 0.9783 0.81681 0.0
H793 H 0.65522 1.00885 0.76047 0.0
N794 N 0.69907 1.00972 0.83645 0.0
C795 C 0.65454 0.02179 0.8074 0.0
C796 C 0.71088 0.99501 0.81224 0.0
C797 C 0.67035 0.02144 0.83492 0.0
C798 C 0.6676 1.00878 0.78169 0.0
C799 C 0.69578 0.99442 0.7841 0.0
O800 O 0.68442 0.99757 0.89963 0.0
O801 O 0.73744 0.04351 0.91427 0.0
O802 O 0.7808 0.02809 0.9409 0.0
O803 O 0.75817 0.98857 0.91261 0.0
O804 O 0.69351 0.03996 0.90122 0.0
O805 O 0.71825 0.9636 0.89381 0.0
O806 O 0.82541 0.08139 0.90227 0.0
O807 O 0.77291 0.03045 0.87636 0.0
O808 O 0.72532 0.04516 0.84673 0.0
O809 O 0.75537 0.08414 0.86763 0.0
O810 O 0.81531 0.03667 0.8964 0.0
O811 O 0.78917 0.10888 0.88536 0.0
C812 C 0.71138 0.05373 0.9198 0.0
C813 C 0.6664 0.94751 0.89024 0.0
C814 C 0.6202 0.91595 0.89775 0.0
C815 C 0.64264 0.93639 0.90923 0.0
C816 C 0.62164 0.9078 0.86695 0.0
C817 C 0.6671 0.93841 0.85983 0.0
C818 C 0.64479 0.91893 0.84828 0.0
C819 C 0.77356 0.99875 0.93627 0.0
C820 C 0.69029 0.96873 0.90184 0.0
C821 C 0.70857 0.97825 0.75987 0.0
C822 C 0.73493 0.96108 0.76448 0.0
C823 C 0.8002 0.02008 0.87766 0.0
C824 C 0.83465 0.13508 0.89955 0.0
C825 C 0.84565 0.15731 0.87867 0.0
C826 C 0.86247 0.18305 0.88898 0.0
C827 C 0.86758 0.1864 0.92019 0.0
C828 C 0.84011 0.13948 0.93057 0.0
C829 C 0.85633 0.16493 0.94075 0.0
C830 C 0.7366 0.07309 0.84665 0.0
C831 C 0.81843 0.107 0.88905 0.0
H832 H 0.64201 0.94308 0.93284 0.0
H833 H 0.60468 0.89273 0.85715 0.0
H834 H 0.68498 0.94629 0.84491 0.0
H835 H 0.64552 0.91226 0.8247 0.0
H836 H 0.8417 0.15431 0.85462 0.0
H837 H 0.88026 0.20587 0.92872 0.0
H838 H 0.83219 0.12309 0.94706 0.0
H839 H 0.8604 0.1679 0.96475 0.0
Tb840 Tb 0.75479 0.97028 0.4066 0.0
C841 C 0.84221 0.02052 0.31166 0.0
C842 C 0.87953 0.98046 0.31002 0.0
C843 C 0.87032 1.0113 0.26521 0.0
C844 C 0.85733 0.9972 0.32577 0.0
C845 C 0.84893 0.0284 0.28139 0.0
C846 C 0.88561 0.98733 0.27952 0.0
C847 C 0.81507 0.07111 0.28638 0.0
N848 N 0.82194 0.03651 0.32816 0.0
C849 C 0.80941 0.0625 0.31639 0.0
C850 C 0.83463 0.05374 0.26865 0.0
Tb851 Tb 0.81401 0.02114 0.37735 0.0
N852 N 0.85054 0.9912 0.35513 0.0
C853 C 0.86659 0.96953 0.37062 0.0
C854 C 0.89517 0.95763 0.32551 0.0
C855 C 0.88887 0.95236 0.35604 0.0
H856 H 0.79449 0.07626 0.33009 0.0
H857 H 0.90102 0.9349 0.36835 0.0
H858 H 0.90236 0.97455 0.26695 0.0
H859 H 0.80449 0.09125 0.27703 0.0
H860 H 0.86197 0.9646 0.39406 0.0
H861 H 0.66936 0.04631 0.45016 0.0
H862 H 0.91234 0.9442 0.31423 0.0
H863 H 0.7747 0.90273 0.43358 0.0
H864 H 0.69976 0.02133 0.41059 0.0
H865 H 0.77447 0.87577 0.4828 0.0
H866 H 0.87561 0.01677 0.24184 0.0
H867 H 0.67428 0.03006 0.50366 0.0
H868 H 0.6952 0.99212 0.5411 0.0
H869 H 0.83918 0.06057 0.24547 0.0
H870 H 0.72369 0.94479 0.55 0.0
N871 N 0.72403 0.99337 0.44154 0.0
C872 C 0.70284 0.01463 0.43391 0.0
C873 C 0.68819 0.01949 0.48643 0.0
C874 C 0.70745 0.99532 0.49361 0.0
C875 C 0.68528 0.02865 0.45627 0.0
C876 C 0.72503 0.98246 0.47027 0.0
H877 H 0.75275 0.90062 0.52809 0.0
N878 N 0.7547 0.94306 0.45119 0.0
C879 C 0.76514 0.89847 0.48107 0.0
C880 C 0.74075 0.95599 0.47527 0.0
C881 C 0.76517 0.91377 0.45321 0.0
C882 C 0.75298 0.91262 0.50661 0.0
C883 C 0.73981 0.94143 0.50373 0.0
O884 O 0.74181 0.92765 0.38807 0.0
O885 O 0.78939 0.9791 0.37302 0.0
O886 O 0.77535 0.0214 0.34444 0.0
O887 O 0.73503 1.00048 0.3728 0.0
O888 O 0.78417 0.93523 0.38606 0.0
O889 O 0.70888 0.96245 0.39447 0.0
O890 O 0.82757 0.06716 0.38239 0.0
O891 O 0.77661 0.01622 0.40971 0.0
O892 O 0.79095 0.96737 0.43986 0.0
O893 O 0.82964 0.99834 0.41983 0.0
O894 O 0.78294 0.05732 0.38669 0.0
O895 O 0.85522 0.0313 0.40006 0.0
C896 C 0.7987 0.95263 0.36754 0.0
C897 C 0.69192 0.91082 0.39902 0.0
C898 C 0.66009 0.86461 0.39286 0.0
C899 C 0.68036 0.88681 0.38064 0.0
C900 C 0.65258 0.86651 0.42381 0.0
C901 C 0.68337 0.9121 0.42957 0.0
C902 C 0.66408 0.88999 0.44186 0.0
C903 C 0.74594 0.01473 0.34869 0.0
C904 C 0.71319 0.93421 0.3866 0.0
C905 C 0.72438 0.95537 0.52781 0.0
C906 C 0.70821 0.98234 0.52275 0.0
C907 C 0.76623 0.04344 0.40626 0.0
C908 C 0.88096 0.07661 0.38435 0.0
C909 C 0.90331 0.08777 0.4048 0.0
C910 C 0.92885 0.10438 0.39395 0.0
C911 C 0.93191 0.10927 0.36268 0.0
C912 C 0.88498 0.08177 0.35321 0.0
C913 C 0.91025 0.09788 0.34251 0.0
C914 C 0.81856 0.97916 0.44057 0.0
C915 C 0.85319 0.06055 0.39554 0.0
H916 H 0.68661 0.8858 0.35693 0.0
H917 H 0.63774 0.84968 0.43421 0.0
H918 H 0.69157 0.93025 0.44401 0.0
H919 H 0.65788 0.89112 0.46556 0.0
H920 H 0.90061 0.08403 0.42892 0.0
H921 H 0.95128 0.12184 0.35382 0.0
H922 H 0.86848 0.0737 0.33702 0.0
H923 H 0.91294 0.10175 0.31843 0.0
Tb924 Tb 0.30177 0.49418 0.65231 0.0
C925 C 0.24684 0.57656 0.55787 0.0
C926 C 0.28584 0.61551 0.55464 0.0
C927 C 0.25511 0.60368 0.51041 0.0
C928 C 0.26984 0.593 0.57124 0.0
C929 C 0.23859 0.58216 0.52749 0.0
C930 C 0.27873 0.62036 0.52399 0.0
C931 C 0.19649 0.54719 0.53417 0.0
N932 N 0.23135 0.55632 0.57526 0.0
C933 C 0.20547 0.54271 0.56424 0.0
C934 C 0.21339 0.56669 0.51554 0.0
Tb935 Tb 0.24774 0.54953 0.62432 0.0
N936 N 0.2762 0.58721 0.60073 0.0
C937 C 0.29735 0.60485 0.61552 0.0
C938 C 0.30824 0.63266 0.56942 0.0
C939 C 0.31375 0.62752 0.6001 0.0
H940 H 0.19201 0.52783 0.5786 0.0
H941 H 0.33084 0.64087 0.61188 0.0
H942 H 0.29101 0.63727 0.51077 0.0
H943 H 0.17644 0.53573 0.52546 0.0
H944 H 0.30259 0.60128 0.63903 0.0
H945 H 0.23031 0.4067 0.70245 0.0
H946 H 0.3211 0.6501 0.55749 0.0
H947 H 0.36969 0.51813 0.67501 0.0
H948 H 0.25187 0.43725 0.6608 0.0
H949 H 0.39929 0.52003 0.72252 0.0
H950 H 0.24937 0.60808 0.48695 0.0
H951 H 0.24989 0.4131 0.75462 0.0
H952 H 0.28945 0.43619 0.78912 0.0
H953 H 0.20629 0.57033 0.49232 0.0
H954 H 0.33624 0.46695 0.79457 0.0
N955 N 0.28152 0.46307 0.68923 0.0
C956 C 0.26018 0.44101 0.68347 0.0
C957 C 0.25905 0.42708 0.73647 0.0
C958 C 0.28316 0.44739 0.74167 0.0
C959 C 0.24802 0.42334 0.70705 0.0
C960 C 0.29414 0.46502 0.7172 0.0
H961 H 0.37793 0.49776 0.76956 0.0
N962 N 0.33127 0.49635 0.69527 0.0
C963 C 0.37695 0.50953 0.72229 0.0
C964 C 0.32029 0.48208 0.7203 0.0
C965 C 0.36012 0.50837 0.6954 0.0
C966 C 0.36477 0.49704 0.74882 0.0
C967 C 0.33642 0.48236 0.74787 0.0
O968 O 0.34349 0.48356 0.631 0.0
O969 O 0.29012 0.52657 0.61671 0.0
O970 O 0.24372 0.50753 0.59473 0.0
O971 O 0.27101 0.47064 0.62175 0.0
O972 O 0.33401 0.52627 0.63068 0.0
O973 O 0.31202 0.44819 0.64225 0.0
O974 O 0.2025 0.56543 0.62624 0.0
O975 O 0.25523 0.51343 0.65765 0.0
O976 O 0.30485 0.53098 0.68496 0.0
O977 O 0.27145 0.56737 0.66567 0.0
O978 O 0.21283 0.51757 0.63716 0.0
O979 O 0.23745 0.58759 0.65176 0.0
C980 C 0.31597 0.53802 0.61107 0.0
C981 C 0.36485 0.43574 0.64308 0.0
C982 C 0.413 0.40826 0.63484 0.0
C983 C 0.38873 0.42625 0.62357 0.0
C984 C 0.41324 0.40098 0.66591 0.0
C985 C 0.36591 0.4275 0.67377 0.0
C986 C 0.39001 0.41052 0.68507 0.0
C987 C 0.25294 0.47876 0.59934 0.0
C988 C 0.33902 0.45435 0.6317 0.0
C989 C 0.32443 0.46672 0.77303 0.0
C990 C 0.29776 0.44925 0.76994 0.0
C991 C 0.22803 0.50203 0.65659 0.0
C992 C 0.1973 0.6191 0.63452 0.0
C993 C 0.18641 0.64044 0.65621 0.0
C994 C 0.17604 0.66974 0.64698 0.0
C995 C 0.17644 0.67674 0.61583 0.0
C996 C 0.1972 0.62731 0.60381 0.0
C997 C 0.18688 0.6558 0.59462 0.0
C998 C 0.29189 0.55791 0.68583 0.0
C999 C 0.20909 0.58855 0.64364 0.0
H1000 H 0.38803 0.43222 0.59975 0.0
H1001 H 0.43158 0.38776 0.67553 0.0
H1002 H 0.34801 0.4341 0.6891 0.0
H1003 H 0.3906 0.40451 0.70886 0.0
H1004 H 0.18642 0.63444 0.68003 0.0
H1005 H 0.16816 0.69845 0.60766 0.0
H1006 H 0.20495 0.61164 0.58673 0.0
H1007 H 0.18686 0.66167 0.57078 0.0
H1008 H 0.15127 0.31301 0.55325 0.0
H1009 H 0.23771 0.29989 0.51024 0.0
H1010 H 0.16767 0.36321 0.57093 0.0
H1011 H 0.25392 0.35052 0.5261 0.0
H1012 H 0.28681 0.43168 0.58059 0.0
H1013 H 0.27014 0.38218 0.56319 0.0
H1014 H 0.17769 0.41446 0.5587 0.0
H1015 H 0.19478 0.46432 0.57819 0.0
C1016 C 0.17408 0.32049 0.54821 0.0
C1017 C 0.19344 0.30169 0.53122 0.0
C1018 C 0.18339 0.3498 0.55775 0.0
C1019 C 0.21228 0.3617 0.55002 0.0
C1020 C 0.23176 0.34252 0.53334 0.0
C1021 C 0.22254 0.31314 0.52425 0.0
C1022 C 0.26293 0.42855 0.5753 0.0
C1023 C 0.24226 0.45232 0.58057 0.0
C1024 C 0.25324 0.39984 0.56515 0.0
C1025 C 0.22235 0.39355 0.5594 0.0
C1026 C 0.20164 0.41787 0.56328 0.0
C1027 C 0.21146 0.44686 0.5738 0.0
H1028 H 0.82905 0.96887 0.8933 0.0
H1029 H 0.81636 0.03 0.81814 0.0
H1030 H 0.87567 0.95012 0.87087 0.0
H1031 H 0.86353 1.01125 0.79517 0.0
H1032 H 0.94037 0.94914 0.75483 0.0
H1033 H 0.89204 0.96902 0.77279 0.0
H1034 H 0.92704 0.96996 0.86415 0.0
H1035 H 0.97554 0.94968 0.84594 0.0
C1036 C 0.83561 0.97747 0.87128 0.0
C1037 C 0.81825 1.00033 0.85723 0.0
C1038 C 0.86286 0.96719 0.85867 0.0
C1039 C 0.87414 0.97968 0.83154 0.0
C1040 C 0.85575 1.00104 0.81616 0.0
C1041 C 0.82827 1.01141 0.82898 0.0
C1042 C 0.93806 0.95437 0.7787 0.0
C1043 C 0.96208 0.94804 0.79889 0.0
C1044 C 0.91018 0.96571 0.78902 0.0
C1045 C 0.90513 0.97073 0.82003 0.0
C1046 C 0.92974 0.96588 0.84012 0.0
C1047 C 0.95788 0.9548 0.82968 0.0
H1048 H 0.31333 0.70157 0.99217 0.0
H1049 H 0.3358 0.71652 0.08601 0.0
H1050 H 0.29265 0.651 1.00477 0.0
H1051 H 0.31666 0.66501 0.09841 0.0
H1052 H 0.23101 0.57699 0.06436 0.0
H1053 H 0.24724 0.628 0.0477 0.0
H1054 H 0.33954 0.60701 0.07225 0.0
H1055 H 0.32347 0.55521 0.08739 0.0
C1056 C 0.31288 0.69442 0.01568 0.0
C1057 C 0.32573 0.71323 0.03818 0.0
C1058 C 0.30152 0.66528 0.02278 0.0
C1059 C 0.30363 0.65384 0.05242 0.0
C1060 C 0.31512 0.67314 0.07528 0.0
C1061 C 0.32567 0.70275 0.06828 0.0
C1062 C 0.25499 0.58279 0.06487 0.0
C1063 C 0.27607 0.56187 0.0766 0.0
C1064 C 0.26417 0.61215 0.05582 0.0
C1065 C 0.29451 0.62166 0.05924 0.0
C1066 C 0.31591 0.60036 0.06971 0.0
C1067 C 0.30683 0.57059 0.07791 0.0
H1068 H 0.56851 0.08037 0.32449 0.0
H1069 H 0.59307 0.06661 0.23104 0.0
H1070 H 0.61845 0.06104 0.34033 0.0
H1071 H 0.6424 0.04621 0.24688 0.0
H1072 H 0.72967 0.07334 0.3362 0.0
H1073 H 0.68016 0.08917 0.31571 0.0
H1074 H 0.65829 0.9955 0.2949 0.0
H1075 H 0.70709 0.9796 0.3165 0.0
C1076 C 0.58405 0.07201 0.30746 0.0
C1077 C 0.57671 0.07434 0.27659 0.0
C1078 C 0.61274 0.06143 0.31646 0.0
C1079 C 0.63428 0.05249 0.29474 0.0
C1080 C 0.62621 0.05304 0.26401 0.0
C1081 C 0.59788 0.06428 0.25501 0.0
C1082 C 0.71472 0.05633 0.32626 0.0
C1083 C 0.72241 0.02533 0.32736 0.0
C1084 C 0.68627 0.06529 0.31499 0.0
C1085 C 0.66539 0.04344 0.30408 0.0
C1086 C 0.67397 0.01273 0.30325 0.0
C1087 C 0.70202 1.00372 0.31517 0.0
H1088 H 0.71232 0.19298 0.5258 0.0
H1089 H 0.69672 0.22212 0.43369 0.0
H1090 H 0.72854 0.14356 0.50818 0.0
H1091 H 0.71429 0.17247 0.41568 0.0
H1092 H 0.71561 0.07329 0.39094 0.0
H1093 H 0.6986 0.12134 0.41201 0.0
H1094 H 0.76354 0.1119 0.48479 0.0
H1095 H 0.77952 0.0629 0.46389 0.0
C1096 C 0.71295 0.18914 0.50157 0.0
C1097 C 0.7026 0.21176 0.48127 0.0
C1098 C 0.72242 0.16048 0.49141 0.0
C1099 C 0.72227 0.15323 0.46043 0.0
C1100 C 0.71391 0.17658 0.43985 0.0
C1101 C 0.70428 0.20544 0.45011 0.0
C1102 C 0.72519 0.08073 0.4123 0.0
C1103 C 0.74809 0.06343 0.42632 0.0
C1104 C 0.71604 0.1089 0.42399 0.0
C1105 C 0.73008 0.12141 0.44983 0.0
C1106 C 0.75187 0.10328 0.46496 0.0
C1107 C 0.76076 0.07473 0.45333 0.0
H1108 H 0.06211 0.48895 0.7572 0.0
H1109 H 0.07242 0.39676 0.72657 0.0
H1110 H 0.11172 0.50239 0.73553 0.0
H1111 H 0.12209 0.40936 0.70556 0.0
H1112 H 0.19669 0.45108 0.64395 0.0
H1113 H 0.14992 0.43419 0.66795 0.0
H1114 H 0.16547 0.49813 0.7407 0.0
H1115 H 0.21255 0.51538 0.7158 0.0
C1116 C 0.07462 0.47164 0.74511 0.0
C1117 C 0.06252 0.44186 0.74282 0.0
C1118 C 0.10354 0.47916 0.73319 0.0
C1119 C 0.1217 0.45704 0.71882 0.0
C1120 C 0.10915 0.4274 0.716 0.0
C1121 C 0.08028 0.42001 0.72791 0.0
C1122 C 0.19105 0.46044 0.66594 0.0
C1123 C 0.20938 0.48375 0.67845 0.0
C1124 C 0.16372 0.45099 0.67964 0.0
C1125 C 0.15309 0.46485 0.70635 0.0
C1126 C 0.1723 0.48707 0.71992 0.0
C1127 C 0.19994 0.49643 0.70613 0.0
H1128 H 0.83188 0.97983 0.94585 0.0
H1129 H 0.73864 0.9603 0.969 0.0
H1130 H 0.84596 0.92783 0.9614 0.0
H1131 H 0.75279 0.9092 0.98597 0.0
H1132 H 0.80434 0.83158 0.03999 0.0
H1133 H 0.78874 0.88297 0.02642 0.0
H1134 H 0.82792 0.87197 0.93769 0.0
H1135 H 0.84219 0.81948 0.95063 0.0
C1136 C 0.81467 0.96488 0.95544 0.0
C1137 C 0.78424 0.97421 0.95655 0.0
C1138 C 0.8226 0.93499 0.96384 0.0
C1139 C 0.80034 0.91425 0.97434 0.0
C1140 C 0.77041 0.92455 0.97783 0.0
C1141 C 0.7624 0.954 0.96864 0.0
C1142 C 0.80913 0.83971 0.01727 0.0
C1143 C 0.82547 0.82149 0.99674 0.0
C1144 C 0.80035 0.86934 1.00965 0.0
C1145 C 0.80799 0.88188 0.98139 0.0
C1146 C 0.82255 0.86317 0.96002 0.0
C1147 C 0.83063 0.83303 0.9674 0.0
H1148 H 0.46702 0.58308 0.19172 0.0
H1149 H 0.43314 0.56683 0.28212 0.0
H1150 H 0.41864 0.56491 0.17098 0.0
H1151 H 0.38478 0.5498 0.26164 0.0
H1152 H 0.32161 0.56538 0.14134 0.0
H1153 H 0.36811 0.58223 0.16594 0.0
H1154 H 0.355 0.51341 0.235 0.0
H1155 H 0.30753 0.49731 0.21036 0.0
C1156 C 0.44959 0.57516 0.20719 0.0
C1157 C 0.45417 0.57683 0.23865 0.0
C1158 C 0.42148 0.5652 0.19534 0.0
C1159 C 0.39716 0.55652 0.21459 0.0
C1160 C 0.40261 0.55626 0.24595 0.0
C1161 C 0.43059 0.56615 0.25772 0.0
C1162 C 0.32793 0.55474 0.16253 0.0
C1163 C 0.31019 0.53067 0.17436 0.0
C1164 C 0.35514 0.56389 0.1763 0.0
C1165 C 0.36615 0.54871 0.2021 0.0
C1166 C 0.34745 0.52581 0.21519 0.0
C1167 C 0.31984 0.51684 0.20141 0.0
H1168 H 0.57822 0.13669 0.32876 0.0
H1169 H 0.52164 0.21378 0.30915 0.0
H1170 H 0.59825 0.16227 0.37346 0.0
H1171 H 0.54172 0.23992 0.35426 0.0
H1172 H 0.64273 0.2267 0.44405 0.0
H1173 H 0.62765 0.2025 0.39653 0.0
H1174 H 0.53618 0.23485 0.40911 0.0
H1175 H 0.55167 0.25902 0.45672 0.0
C1176 C 0.57112 0.15983 0.33321 0.0
C1177 C 0.54906 0.17349 0.31456 0.0
C1178 C 0.5824 0.17448 0.35923 0.0
C1179 C 0.57143 0.20317 0.36815 0.0
C1180 C 0.55049 0.21766 0.34858 0.0
C1181 C 0.53948 0.20303 0.32217 0.0
C1182 C 0.61921 0.2277 0.4373 0.0
C1183 C 0.59828 0.24397 0.45501 0.0
C1184 C 0.61051 0.2141 0.40967 0.0
C1185 C 0.58063 0.21688 0.39835 0.0
C1186 C 0.55951 0.23255 0.41649 0.0
C1187 C 0.56823 0.2459 0.44424 0.0
H1188 H 0.10097 0.32358 0.56254 0.0
H1189 H 0.06772 0.23354 0.58578 0.0
H1190 H 0.08301 0.34261 0.61161 0.0
H1191 H 0.04868 0.25293 0.63386 0.0
H1192 H 0.08099 0.34608 0.72022 0.0
H1193 H 0.09908 0.32578 0.67173 0.0
H1194 H 1.00803 0.29617 0.64987 0.0
H1195 H 0.98963 0.31767 0.69725 0.0
C1196 C 0.08952 0.30795 0.5778 0.0
C1197 C 0.08636 0.27689 0.57042 0.0
C1198 C 0.07945 0.3188 0.60597 0.0
C1199 C 0.06509 0.29903 0.62674 0.0
C1200 C 0.06002 0.26855 0.61844 0.0
C1201 C 0.07075 0.25756 0.59078 0.0
C1202 C 0.06485 0.33518 0.70519 0.0
C1203 C 0.03371 0.33426 0.71234 0.0
C1204 C 0.0752 0.32371 0.67736 0.0
C1205 C 0.05478 0.31008 0.6568 0.0
C1206 C 0.02417 0.30691 0.66511 0.0
C1207 C 0.01373 0.31906 0.69238 0.0
H1208 H 0.96335 0.88818 0.84257 0.0
H1209 H 1.01272 0.80575 0.82554 0.0
H1210 H 0.94024 0.86512 0.88735 0.0
H1211 H 0.98977 0.78234 0.87068 0.0
H1212 H 0.97833 0.76744 0.97408 0.0
H1213 H 0.99593 0.78889 0.92575 0.0
H1214 H 0.90716 0.82705 0.91068 0.0
H1215 H 0.89006 0.80541 0.95869 0.0
C1216 C 0.96795 0.86443 0.84739 0.0
C1217 C 0.98902 0.84851 0.82946 0.0
C1218 C 0.95505 0.85128 0.87356 0.0
C1219 C 0.9634 0.82189 0.88332 0.0
C1220 C 0.98305 0.80519 0.86437 0.0
C1221 C 0.99561 0.81829 0.83787 0.0
C1222 C 0.96282 0.78113 0.96082 0.0
C1223 C 0.93288 0.78551 0.97108 0.0
C1224 C 0.97274 0.79298 0.93271 0.0
C1225 C 0.95299 0.8096 0.91375 0.0
C1226 C 0.92327 0.81463 0.92443 0.0
C1227 C 0.91337 0.80243 0.95231 0.0
H1228 H 0.46968 0.6383 0.20194 0.0
H1229 H 0.50161 0.72985 0.2179 0.0
H1230 H 0.44834 0.65414 0.15319 0.0
H1231 H 0.4806 0.74592 0.16916 0.0
H1232 H 0.46986 0.76204 0.06908 0.0
H1233 H 0.49148 0.73946 0.115 0.0
H1234 H 0.41003 0.6854 0.12695 0.0
H1235 H 0.3888 0.70812 0.08119 0.0
C1236 C 0.47112 0.66207 0.19564 0.0
C1237 C 0.48657 0.68293 0.21453 0.0
C1238 C 0.45925 0.67116 0.16732 0.0
C1239 C 0.46315 0.70131 0.15659 0.0
C1240 C 0.47761 0.72238 0.17608 0.0
C1241 C 0.48911 0.71332 0.20446 0.0
C1242 C 0.45729 0.74404 0.0805 0.0
C1243 C 0.42784 0.73628 0.07058 0.0
C1244 C 0.46933 0.73166 0.10747 0.0
C1245 C 0.45232 0.71097 0.12543 0.0
C1246 C 0.42398 0.70118 0.11404 0.0
C1247 C 0.41188 0.71393 0.08735 0.0
H1248 H 0.1404 0.35526 0.33139 0.0
H1249 H 0.22083 0.39714 0.36903 0.0
H1250 H 0.157 0.37028 0.28032 0.0
H1251 H 0.23754 0.41213 0.31831 0.0
H1252 H 0.26792 0.42436 0.22012 0.0
H1253 H 0.25485 0.39697 0.2671 0.0
H1254 H 0.16049 0.41984 0.25415 0.0
H1255 H 0.17359 0.44648 0.20737 0.0
C1256 C 0.16208 0.36683 0.32864 0.0
C1257 C 0.17941 0.37479 0.35422 0.0
C1258 C 0.17147 0.37579 0.29943 0.0
C1259 C 0.19859 0.39269 0.29504 0.0
C1260 C 0.21673 0.39896 0.32058 0.0
C1261 C 0.20716 0.39035 0.34973 0.0
C1262 C 0.24436 0.423 0.22711 0.0
C1263 C 0.22184 0.43799 0.21026 0.0
C1264 C 0.23685 0.40752 0.25416 0.0
C1265 C 0.20655 0.40622 0.26468 0.0
C1266 C 0.18398 0.42004 0.24685 0.0
C1267 C 0.19154 0.43574 0.22016 0.0
H1268 H 0.91986 0.87005 0.57124 0.0
H1269 H 0.8938 0.94929 0.62233 0.0
H1270 H 0.90137 0.89367 0.52492 0.0
H1271 H 0.87434 0.97301 0.5757 0.0
H1272 H 0.85491 0.01327 0.47943 0.0
H1273 H 0.8825 0.99479 0.52446 0.0
H1274 H 0.85279 0.90287 0.50433 0.0
H1275 H 0.82678 0.92116 0.4595 0.0
C1276 C 0.91037 0.89274 0.57252 0.0
C1277 C 0.9081 0.9076 0.60064 0.0
C1278 C 0.89949 0.90628 0.5459 0.0
C1279 C 0.88559 0.93511 0.54636 0.0
C1280 C 0.88488 0.95084 0.57426 0.0
C1281 C 0.89606 0.93726 0.60106 0.0
C1282 C 0.8548 0.98909 0.48453 0.0
C1283 C 0.83829 0.96871 0.46606 0.0
C1284 C 0.87032 0.97849 0.51051 0.0
C1285 C 0.87005 0.9472 0.51834 0.0
C1286 C 0.85407 0.927 0.49918 0.0
C1287 C 0.83863 0.93757 0.47355 0.0
H1288 H 0.34978 0.56932 0.70348 0.0
H1289 H 0.25768 0.59339 0.72507 0.0
H1290 H 0.36811 0.59686 0.7475 0.0
H1291 H 0.27616 0.62252 0.76929 0.0
H1292 H 0.32307 0.63817 0.86603 0.0
H1293 H 0.29906 0.61678 0.82027 0.0
H1294 H 0.37655 0.646 0.7674 0.0
H1295 H 0.40043 0.66639 0.81285 0.0
C1296 C 0.33337 0.5806 0.71771 0.0
C1297 C 0.30223 0.57865 0.71085 0.0
C1298 C 0.34395 0.59694 0.7429 0.0
C1299 C 0.3238 0.61228 0.76233 0.0
C1300 C 0.29248 0.61091 0.75516 0.0
C1301 C 0.28185 0.59449 0.7296 0.0
C1302 C 0.3346 0.64054 0.84447 0.0
C1303 C 0.36384 0.65384 0.84326 0.0
C1304 C 0.32086 0.6282 0.81814 0.0
C1305 C 0.33599 0.62892 0.7899 0.0
C1306 C 0.36437 0.64404 0.78863 0.0
C1307 C 0.37805 0.65608 0.81477 0.0
H1308 H 0.60004 0.113 0.07466 0.0
H1309 H 0.69285 0.13107 0.10096 0.0
H1310 H 0.61798 0.08987 0.02744 0.0
H1311 H 0.71073 0.10837 0.05399 0.0
H1312 H 0.73526 0.04364 0.97671 0.0
H1313 H 0.71615 0.06175 0.0254 0.0
H1314 H 0.64127 0.10513 0.9796 0.0
H1315 H 0.66064 0.08694 0.93095 0.0
C1316 C 0.62426 0.11171 0.07058 0.0
C1317 C 0.64492 0.12411 0.09166 0.0
C1318 C 0.6346 0.09875 0.0433 0.0
C1319 C 0.66591 0.09742 0.0365 0.0
C1320 C 0.68652 0.1088 0.05821 0.0
C1321 C 0.6762 0.12202 0.0852 0.0
C1322 C 0.71494 0.05732 0.97701 0.0
C1323 C 0.7001 0.06478 0.94978 0.0
C1324 C 0.70384 0.06767 1.00501 0.0
C1325 C 0.67714 0.08519 1.00669 0.0
C1326 C 0.66172 0.09158 0.97944 0.0
C1327 C 0.67294 0.08135 0.95146 0.0
H1328 H 0.62878 0.17629 0.71687 0.0
H1329 H 0.70665 0.14733 0.66556 0.0
H1330 H 0.65238 0.15819 0.76336 0.0
H1331 H 0.73025 0.12819 0.71227 0.0
H1332 H 0.77086 0.10863 0.80749 0.0
H1333 H 0.75253 0.13679 0.76275 0.0
H1334 H 0.66051 0.10948 0.78452 0.0
H1335 H 0.67873 0.083 0.82917 0.0
C1336 C 0.65116 0.16626 0.7156 0.0
C1337 C 0.66569 0.16303 0.68745 0.0
C1338 C 0.66467 0.15563 0.74229 0.0
C1339 C 0.69304 0.141 0.74173 0.0
C1340 C 0.70845 0.13935 0.71375 0.0
C1341 C 0.69494 0.15032 0.68691 0.0
C1342 C 0.74671 0.10922 0.80281 0.0
C1343 C 0.72623 0.09323 0.82159 0.0
C1344 C 0.73619 0.12505 0.77703 0.0
C1345 C 0.70494 0.12552 0.76975 0.0
C1346 C 0.68464 0.11015 0.78929 0.0
C1347 C 0.69512 0.09443 0.81477 0.0
H1348 H 0.15008 0.44754 0.0997 0.0
H1349 H 0.22509 0.4909 0.05346 0.0
H1350 H 0.12853 0.43177 0.05101 0.0
H1351 H 0.20395 0.47464 1.0046 0.0
H1352 H 0.17357 0.40423 0.92953 0.0
H1353 H 0.19485 0.42666 0.97564 0.0
H1354 H 0.10481 0.45228 1.00406 0.0
H1355 H 0.0836 0.42999 0.95751 0.0
C1356 C 0.16205 0.45358 0.07907 0.0
C1357 C 0.18983 0.46959 0.08056 0.0
C1358 C 0.14959 0.44473 0.0511 0.0
C1359 C 0.16444 0.45181 0.02368 0.0
C1360 C 0.19198 0.46844 0.02517 0.0
C1361 C 0.20424 0.47763 0.05321 0.0
C1362 C 0.15839 0.41529 0.94531 0.0
C1363 C 0.12688 0.4155 0.9397 0.0
C1364 C 0.17061 0.42812 0.97183 0.0
C1365 C 0.15161 0.44107 0.9939 0.0
C1366 C 0.12014 0.4422 0.9878 0.0
C1367 C 0.10797 0.42979 0.96094 0.0
H1368 H 0.83146 0.90145 0.35593 0.0
H1369 H 0.78753 0.97632 0.31083 0.0
H1370 H 0.84864 0.882 0.30687 0.0
H1371 H 0.80448 0.95719 0.26197 0.0
H1372 H 0.85426 0.84137 0.21091 0.0
H1373 H 0.83271 0.85883 0.25909 0.0
H1374 H 0.85012 0.95225 0.23271 0.0
H1375 H 0.87112 0.93487 0.18486 0.0
C1376 C 0.82553 0.9138 0.33552 0.0
C1377 C 0.80914 0.94111 0.33747 0.0
C1378 C 0.83517 0.90255 0.30733 0.0
C1379 C 0.82828 0.91809 0.28023 0.0
C1380 C 0.81087 0.94485 0.28224 0.0
C1381 C 0.80119 0.95599 0.31039 0.0
C1382 C 0.85305 0.86563 0.21529 0.0
C1383 C 0.86459 0.88666 0.19399 0.0
C1384 C 0.84102 0.87568 0.24308 0.0
C1385 C 0.83983 0.90705 0.25014 0.0
C1386 C 0.85045 0.92799 0.22828 0.0
C1387 C 0.8627 0.91797 0.20078 0.0
H1388 H 0.29294 0.52752 0.55343 0.0
H1389 H 0.36703 0.57175 0.6001 0.0
H1390 H 0.31355 0.54529 0.50475 0.0
H1391 H 0.38789 0.58932 0.55171 0.0
H1392 H 0.43255 0.5972 0.45808 0.0
H1393 H 0.41265 0.574 0.50485 0.0
H1394 H 0.3211 0.59126 0.47469 0.0
H1395 H 0.34097 0.61406 0.42822 0.0
C1396 C 0.31348 0.54129 0.55334 0.0
C1397 C 0.32773 0.54902 0.58088 0.0
C1398 C 0.32545 0.55145 0.52535 0.0
C1399 C 0.35256 0.56896 0.52391 0.0
C1400 C 0.36723 0.57574 0.55153 0.0
C1401 C 0.3551 0.56583 0.57943 0.0
C1402 C 0.40819 0.59546 0.46117 0.0
C1403 C 0.3885 0.6076 0.43916 0.0
C1404 C 0.39667 0.58248 0.48825 0.0
C1405 C 0.36507 0.58083 0.49404 0.0
C1406 C 0.34546 0.59179 0.47133 0.0
C1407 C 0.35695 0.60503 0.44455 0.0
H1408 H 0.24482 0.19542 0.49005 0.0
H1409 H 0.1982 0.22521 0.40936 0.0
H1410 H 0.28748 0.17869 0.45936 0.0
H1411 H 0.24103 0.20878 0.37867 0.0
H1412 H 0.30421 0.13605 0.33473 0.0
H1413 H 0.26356 0.16014 0.36334 0.0
H1414 H 0.32965 0.19632 0.42635 0.0
H1415 H 0.37049 0.17192 0.39747 0.0
C1416 C 0.24337 0.19809 0.46578 0.0
C1417 C 0.21727 0.21064 0.45231 0.0
C1418 C 0.2682 0.18895 0.44813 0.0
C1419 C 0.26773 0.19209 0.4164 0.0
C1420 C 0.24204 0.20548 0.40297 0.0
C1421 C 0.21732 0.21486 0.42067 0.0
C1422 C 0.31011 0.14963 0.35439 0.0
C1423 C 0.34058 0.15209 0.36382 0.0
C1424 C 0.28679 0.16353 0.37079 0.0
C1425 C 0.29317 0.18006 0.39736 0.0
C1426 C 0.32383 0.18349 0.40621 0.0
C1427 C 0.34729 0.16983 0.38949 0.0
H1428 H 0.12421 0.09316 0.68951 0.0
H1429 H 0.10357 0.06017 0.59985 0.0
H1430 H 0.10064 0.04772 0.71163 0.0
H1431 H 0.07962 0.01445 0.62204 0.0
H1432 H 0.07807 0.92049 0.67257 0.0
H1433 H 0.09557 0.968 0.64891 0.0
H1434 H 0.05313 0.01936 0.72042 0.0
H1435 H 0.03535 0.97159 0.74382 0.0
C1436 C 0.11419 0.07637 0.67445 0.0
C1437 C 0.11591 0.08049 0.64278 0.0
C1438 C 0.10051 0.05025 0.68722 0.0
C1439 C 0.08824 0.02703 0.66879 0.0
C1440 C 0.08907 0.03156 0.63707 0.0
C1441 C 0.1025 0.05799 0.62427 0.0
C1442 C 0.07245 0.94195 0.68323 0.0
C1443 C 0.05613 0.94209 0.71065 0.0
C1444 C 0.08232 0.9693 0.66952 0.0
C1445 C 0.07602 0.99783 0.68266 0.0
C1446 C 0.05887 0.99797 0.70972 0.0
C1447 C 0.04875 0.97054 0.72328 0.0
H1448 H 0.18881 0.87795 0.93148 0.0
H1449 H 0.21702 0.8477 0.84317 0.0
H1450 H 0.23344 0.854 0.95427 0.0
H1451 H 0.26206 0.8239 0.86586 0.0
H1452 H 0.35746 0.82661 0.91356 0.0
H1453 H 0.30992 0.84367 0.8905 0.0
H1454 H 0.25955 0.80384 0.96472 0.0
H1455 H 0.30723 0.78603 0.98729 0.0
C1456 C 0.2042 0.86547 0.91702 0.0
C1457 C 0.19905 0.86437 0.88553 0.0
C1458 C 0.22989 0.85178 0.93009 0.0
C1459 C 0.25163 0.83707 0.91199 0.0
C1460 C 0.246 0.83521 0.88054 0.0
C1461 C 0.21997 0.8485 0.86752 0.0
C1462 C 0.33623 0.82146 0.92494 0.0
C1463 C 0.33634 0.80578 0.9528 0.0
C1464 C 0.30889 0.83108 0.91161 0.0
C1465 C 0.28069 0.8253 0.92568 0.0
C1466 C 0.28075 0.80903 0.9533 0.0
C1467 C 0.30814 0.79898 0.9664 0.0
H1468 H 0.50455 0.05386 0.22123 0.0
H1469 H 0.46151 0.11029 0.1541 0.0
H1470 H 0.48331 1.00813 0.19691 0.0
H1471 H 0.44165 0.06506 0.12879 0.0
H1472 H 0.37875 0.98496 0.1111 0.0
H1473 H 0.40415 0.02868 0.13312 0.0
H1474 H 0.48092 0.9725 0.15635 0.0
H1475 H 0.45418 0.92776 0.13547 0.0
C1476 C 0.49048 0.05649 0.20128 0.0
C1477 C 0.48359 0.08586 0.19041 0.0
C1478 C 0.47862 0.03017 0.18695 0.0
C1479 C 0.46001 0.03243 0.16095 0.0
C1480 C 0.45482 0.06195 0.14925 0.0
C1481 C 0.46644 0.0881 0.16367 0.0
C1482 C 0.40109 0.98173 0.12083 0.0
C1483 C 0.41412 0.95246 0.1216 0.0
C1484 C 0.416 1.00716 0.13329 0.0
C1485 C 0.44494 1.0047 0.14671 0.0
C1486 C 0.45856 0.97556 0.14666 0.0
C1487 C 0.44341 0.94985 0.13422 0.0
H1488 H 0.85173 0.37538 0.59122 0.0
H1489 H 0.81701 0.35989 0.68124 0.0
H1490 H 0.80578 0.35276 0.56957 0.0
H1491 H 0.77073 0.33687 0.65954 0.0
H1492 H 0.72818 0.2885 0.53907 0.0
H1493 H 0.77589 0.30626 0.56207 0.0
H1494 H 0.72511 0.35248 0.63158 0.0
H1495 H 0.67758 0.33493 0.60828 0.0
C1496 C 0.83444 0.36668 0.60649 0.0
C1497 C 0.83833 0.36954 0.63811 0.0
C1498 C 0.80798 0.35354 0.59399 0.0
C1499 C 0.7841 0.34297 0.6126 0.0
C1500 C 0.78831 0.345 0.64432 0.0
C1501 C 0.81508 0.35788 0.65687 0.0
C1502 C 0.72721 0.30277 0.55904 0.0
C1503 C 0.69889 0.31107 0.57121 0.0
C1504 C 0.75465 0.31291 0.57239 0.0
C1505 C 0.75472 0.33105 0.59883 0.0
C1506 C 0.72629 0.33844 0.61147 0.0
C1507 C 0.69891 0.32854 0.59795 0.0
H1508 H 0.9645 0.44454 0.86799 0.0
H1509 H 0.96726 0.5013 0.78804 0.0
H1510 H 0.94326 0.48699 0.89685 0.0
H1511 H 0.94556 0.54332 0.81653 0.0
H1512 H 0.92676 0.6222 0.88091 0.0
H1513 H 0.95464 0.58073 0.85656 0.0
H1514 H 0.89562 0.51481 0.90004 0.0
H1515 H 0.86824 0.55607 0.92456 0.0
C1516 C 0.96071 0.46605 0.85655 0.0
C1517 C 0.96724 0.46921 0.8255 0.0
C1518 C 0.94833 0.49041 0.87308 0.0
C1519 C 0.94246 0.51875 0.85911 0.0
C1520 C 0.94991 0.52209 0.82826 0.0
C1521 C 0.96206 0.49774 0.81176 0.0
C1522 C 0.92009 0.59884 0.88565 0.0
C1523 C 0.89506 0.5926 0.90457 0.0
C1524 C 0.93588 0.575 0.87144 0.0
C1525 C 0.92734 0.54423 0.87606 0.0
C1526 C 0.9031 0.53806 0.89599 0.0
C1527 C 0.88718 0.56183 0.90991 0.0
H1528 H 0.84894 0.69511 0.12047 0.0
H1529 H 0.79868 0.74952 0.05676 0.0
H1530 H 0.80119 0.67721 0.14327 0.0
H1531 H 0.75083 0.73141 0.07915 0.0
H1532 H 0.67378 0.66089 0.10477 0.0
H1533 H 0.71976 0.68424 0.08347 0.0
H1534 H 0.7568 0.69389 0.1735 0.0
H1535 H 0.71038 0.6707 0.19473 0.0
C1536 C 0.82764 0.70311 0.11121 0.0
C1537 C 0.82772 0.72294 0.08611 0.0
C1538 C 0.80018 0.69304 0.12444 0.0
C1539 C 0.77184 0.70266 0.11312 0.0
C1540 C 0.77201 0.72308 0.08836 0.0
C1541 C 0.79951 0.73338 0.07535 0.0
C1542 C 0.6914 0.66878 0.12008 0.0
C1543 C 0.68807 0.6644 0.15154 0.0
C1544 C 0.71792 0.68209 0.10784 0.0
C1545 C 0.74238 0.69089 0.1266 0.0
C1546 C 0.73871 0.68719 0.15821 0.0
C1547 C 0.71189 0.67429 0.17049 0.0
H1548 H 0.62794 0.43552 0.34284 0.0
H1549 H 0.60339 0.46057 0.43389 0.0
H1550 H 0.60153 0.48028 0.32311 0.0
H1551 H 0.57717 0.50581 0.4142 0.0
H1552 H 0.57475 0.60283 0.36756 0.0
H1553 H 0.59413 0.55515 0.3889 0.0
H1554 H 0.54962 0.50459 0.31756 0.0
H1555 H 0.52965 0.55238 0.29669 0.0
C1556 C 0.6164 0.45035 0.35863 0.0
C1557 C 0.61764 0.4443 0.38997 0.0
C1558 C 0.60122 0.47605 0.3473 0.0
C1559 C 0.58727 0.49688 0.367 0.0
C1560 C 0.58783 0.49042 0.39834 0.0
C1561 C 0.60257 0.46433 0.40965 0.0
C1562 C 0.56904 0.5815 0.3565 0.0
C1563 C 0.55152 0.58155 0.32982 0.0
C1564 C 0.58 0.55411 0.36883 0.0
C1565 C 0.57369 0.52588 0.35491 0.0
C1566 C 0.5553 0.52586 0.32873 0.0
C1567 C 0.54399 0.55328 0.31663 0.0
H1568 H 0.39028 0.35799 0.18429 0.0
H1569 H 0.34048 0.28707 0.13775 0.0
H1570 H 0.41861 0.31911 0.21226 0.0
H1571 H 0.36932 0.24846 0.16443 0.0
H1572 H 0.41383 0.18121 0.22734 0.0
H1573 H 0.38078 0.22169 0.2089 0.0
H1574 H 0.45778 0.28336 0.20493 0.0
H1575 H 0.49023 0.24347 0.22474 0.0
C1576 C 0.38504 0.33416 0.1803 0.0
C1577 C 0.36321 0.32584 0.15846 0.0
C1578 C 0.40162 0.31172 0.19606 0.0
C1579 C 0.39676 0.28028 0.19054 0.0
C1580 C 0.37383 0.27217 0.16973 0.0
C1581 C 0.35736 0.29448 0.15408 0.0
C1582 C 0.42367 0.20347 0.22284 0.0
C1583 C 0.45499 0.20865 0.22705 0.0
C1584 C 0.40469 0.22679 0.21196 0.0
C1585 C 0.41639 0.25608 0.2049 0.0
C1586 C 0.44756 0.26144 0.2102 0.0
C1587 C 0.46642 0.23823 0.22124 0.0
H1588 H 0.90525 0.36563 0.82903 0.0
H1589 H 0.97363 0.31375 0.78263 0.0
H1590 H 0.88179 0.31826 0.84754 0.0
H1591 H 0.95054 0.26625 0.8015 0.0
H1592 H 0.92213 0.19505 0.87719 0.0
H1593 H 0.94404 0.23966 0.85152 0.0
H1594 H 0.85384 0.2713 0.83055 0.0
H1595 H 0.83203 0.22627 0.85606 0.0
C1596 C 0.9153 0.34405 0.82286 0.0
C1597 C 0.94191 0.34354 0.80525 0.0
C1598 C 0.90175 0.31684 0.83329 0.0
C1599 C 0.91429 0.28826 0.82623 0.0
C1600 C 0.94042 0.28776 0.80776 0.0
C1601 C 0.95378 0.31501 0.79706 0.0
C1602 C 0.90703 0.21112 0.86633 0.0
C1603 C 0.87535 0.20687 0.86822 0.0
C1604 C 0.91958 0.23678 0.85168 0.0
C1605 C 0.90079 0.25932 0.83903 0.0
C1606 C 0.86905 0.2546 0.84022 0.0
C1607 C 0.8565 0.22861 0.85448 0.0
H1608 H 0.09718 0.67689 0.14031 0.0
H1609 H 0.07398 0.58994 0.10054 0.0
H1610 H 0.05236 0.69945 0.11758 0.0
H1611 H 0.02857 0.61278 0.07747 0.0
H1612 H 0.96194 0.67818 0.02239 0.0
H1613 H 1.00773 0.65171 0.04035 0.0
H1614 H 0.99799 0.69483 0.12759 0.0
H1615 H 0.95248 0.72025 0.10994 0.0
C1616 C 0.08252 0.66253 0.12659 0.0
C1617 C 0.08904 0.6314 0.12276 0.0
C1618 C 0.05666 0.6755 0.11358 0.0
C1619 C 0.03631 0.65786 0.09619 0.0
C1620 C 0.04364 0.62708 0.09079 0.0
C1621 C 0.06972 0.61398 0.10395 0.0
C1622 C 0.96951 0.68169 0.04549 0.0
C1623 C 0.95409 0.70221 0.06444 0.0
C1624 C 0.99577 0.66656 0.05578 0.0
C1625 C 1.00714 0.67168 0.08523 0.0
C1626 C 0.99066 0.69105 0.10446 0.0
C1627 C 0.96457 0.7059 0.09426 0.0
H1628 H 0.6009 0.84574 0.39334 0.0
H1629 H 0.68659 0.82651 0.35031 0.0
H1630 H 0.57774 0.80237 0.36815 0.0
H1631 H 0.66287 0.78304 0.32383 0.0
H1632 H 0.61443 0.68662 0.31124 0.0
H1633 H 0.64155 0.73137 0.33172 0.0
H1634 H 0.56042 0.78502 0.32078 0.0
H1635 H 0.53366 0.74081 0.30113 0.0
C1636 C 0.61483 0.83234 0.37824 0.0
C1637 C 0.64577 0.83969 0.37413 0.0
C1638 C 0.60139 0.80746 0.36344 0.0
C1639 C 0.61824 0.78893 0.34369 0.0
C1640 C 0.64914 0.79651 0.33903 0.0
C1641 C 0.66269 0.82169 0.35393 0.0
C1642 C 0.60255 0.70808 0.31305 0.0
C1643 C 0.57162 0.70982 0.30509 0.0
C1644 C 0.61812 0.73382 0.32471 0.0
C1645 C 0.60315 0.76195 0.32855 0.0
C1646 C 0.57265 0.76376 0.31914 0.0
C1647 C 0.55721 0.73823 0.30772 0.0
H1648 H 0.53916 0.29045 0.53809 0.0
H1649 H 0.59172 0.37282 0.55156 0.0
H1650 H 0.49453 0.31496 0.5584 0.0
H1651 H 0.54636 0.39777 0.57255 0.0
H1652 H 0.44938 0.43804 0.59231 0.0
H1653 H 0.49349 0.41735 0.56497 0.0
H1654 H 0.47754 0.3297 0.60709 0.0
H1655 H 0.43379 0.34998 0.63338 0.0
C1656 C 0.54127 0.31393 0.54544 0.0
C1657 C 0.56942 0.32937 0.5436 0.0
C1658 C 0.51547 0.32807 0.55725 0.0
C1659 C 0.51663 0.35832 0.56784 0.0
C1660 C 0.54442 0.37447 0.56466 0.0
C1661 C 0.57051 0.36016 0.55265 0.0
C1662 C 0.45508 0.41423 0.59523 0.0
C1663 C 0.43788 0.39573 0.61511 0.0
C1664 C 0.48062 0.40243 0.57985 0.0
C1665 C 0.48935 0.3717 0.58362 0.0
C1666 C 0.47158 0.35328 0.60304 0.0
C1667 C 0.44642 0.36502 0.6184 0.0
H1668 H 0.18805 0.73123 0.64713 0.0
H1669 H 0.13677 0.66265 0.6957 0.0
H1670 H 0.16285 0.77112 0.67541 0.0
H1671 H 0.11225 0.70275 0.72531 0.0
H1672 H 0.0455 0.78138 0.74241 0.0
H1673 H 0.07494 0.74032 0.72081 0.0
H1674 H 0.15443 0.79882 0.71974 0.0
H1675 H 0.12417 0.84068 0.74005 0.0
C1676 C 0.17164 0.72457 0.66424 0.0
C1677 C 0.16426 0.69348 0.66866 0.0
C1678 C 0.15728 0.74765 0.68082 0.0
C1679 C 0.135 0.74064 0.70272 0.0
C1680 C 0.12873 0.7094 0.7083 0.0
C1681 C 0.14316 0.68621 0.69158 0.0
C1682 C 0.06924 0.78569 0.7375 0.0
C1683 C 0.08212 0.81482 0.74254 0.0
C1684 C 0.0864 0.76176 0.72539 0.0
C1685 C 0.11735 0.7658 0.71813 0.0
C1686 C 0.1306 0.79466 0.72434 0.0
C1687 C 0.11328 0.81876 0.73633 0.0
H1688 H 0.44157 0.87064 0.9767 0.0
H1689 H 0.49672 0.79144 0.99329 0.0
H1690 H 0.48643 0.89775 0.95656 0.0
H1691 H 0.54099 0.81818 0.97378 0.0
H1692 H 0.6025 0.85627 0.89996 0.0
H1693 H 0.55916 0.83344 0.92555 0.0
H1694 H 0.53766 0.92053 0.9653 0.0
H1695 H 0.58126 0.94378 0.93863 0.0
C1696 C 0.46326 0.85915 0.9765 0.0
C1697 C 0.46525 0.8286 0.98623 0.0
C1698 C 0.48907 0.87471 0.96497 0.0
C1699 C 0.51751 0.86012 0.96293 0.0
C1700 C 0.51954 0.8301 0.97411 0.0
C1701 C 0.49398 0.81469 0.9855 0.0
C1702 C 0.5887 0.87066 0.91425 0.0
C1703 C 0.5955 0.90198 0.91703 0.0
C1704 C 0.56379 0.85745 0.92923 0.0
C1705 C 0.54461 0.87495 0.94775 0.0
C1706 C 0.55165 0.90628 0.95109 0.0
C1707 C 0.57689 0.91957 0.93609 0.0
H1708 H 0.93881 0.16391 0.40861 0.0
H1709 H 0.97421 0.07375 0.423 0.0
H1710 H 0.98352 0.18613 0.4335 0.0
H1711 H 0.01931 0.09582 0.44767 0.0
H1712 H 0.1113 0.14913 0.44839 0.0
H1713 H 0.06395 0.12575 0.43035 0.0
H1714 H 1.01254 0.19131 0.4816 0.0
H1715 H 0.06009 0.21441 0.49983 0.0
C1716 C 0.95588 0.14884 0.41783 0.0
C1717 C 0.95282 0.11709 0.41431 0.0
C1718 C 0.9816 0.16155 0.43198 0.0
C1719 C 1.00532 0.14286 0.44237 0.0
C1720 C 1.00172 0.11097 0.43965 0.0
C1721 C 0.97573 0.09825 0.42589 0.0
C1722 C 0.08985 0.15853 0.45574 0.0
C1723 C 0.08945 0.18423 0.47468 0.0
C1724 C 0.06267 0.145 0.44561 0.0
C1725 C 0.03427 0.15663 0.45439 0.0
C1726 C 0.03391 0.18194 0.47403 0.0
C1727 C 0.06115 0.19529 0.48437 0.0
loop_
_geom_bond_atom_site_label_1
_geom_bond_atom_site_label_2
_geom_bond_distance
_geom_bond_site_symmetry_2
_ccdc_geom_bond_type
Tb0 N31 2.660 . S
Tb0 N38 2.600 . S
Tb0 O44 2.546 . S
Tb0 O45 2.610 . S
Tb0 O47 2.320 . S
Tb0 O48 2.552 . S
Tb0 O49 2.413 . S
Tb0 O51 2.362 . S
Tb0 O52 2.421 . S
Tb0 C64 2.833 . S
C1 C4 1.432 . S
C1 C5 1.414 . S
C1 N8 1.359 . S
C2 C4 1.417 . S
C2 C6 1.432 . S
C2 C14 1.410 . S
C3 C5 1.444 1_655 S
C3 C6 1.317 1_655 S
C3 H26 0.929 . S
C4 C1 1.432 . S
C4 C2 1.417 . S
C4 N12 1.360 . S
C5 C1 1.414 . S
C5 C3 1.444 1_455 S
C5 C10 1.385 1_455 S
C6 C2 1.432 . S
C6 C3 1.317 1_455 S
C6 H18 0.930 . S
C7 C9 1.392 . S
C7 C10 1.370 1_455 S
C7 H19 0.931 . S
N8 C1 1.359 . S
N8 C9 1.327 . S
N8 Tb11 2.600 . S
C9 C7 1.392 . S
C9 N8 1.327 . S
C9 H16 0.930 . S
C10 C5 1.385 1_655 S
C10 C7 1.370 1_655 S
C10 H29 0.930 . S
Tb11 N8 2.600 . S
Tb11 N12 2.660 . S
Tb11 O45 2.362 . S
Tb11 O46 2.421 . S
Tb11 O50 2.546 . S
Tb11 O51 2.610 . S
Tb11 O53 2.320 . S
Tb11 O54 2.552 . S
Tb11 O55 2.413 . S
Tb11 C75 2.833 . S
N12 C4 1.360 . S
N12 Tb11 2.660 . S
N12 C13 1.305 . S
C13 N12 1.305 . S
C13 C15 1.407 . S
C13 H20 0.930 . S
C14 C2 1.410 . S
C14 C15 1.345 . S
C14 H22 0.930 . S
C15 C13 1.407 . S
C15 C14 1.345 . S
C15 H17 0.930 . S
H16 C9 0.930 . S
H17 C15 0.930 . S
H18 C6 0.930 . S
H19 C7 0.931 . S
H20 C13 0.930 . S
H21 C35 0.930 . S
H22 C14 0.930 . S
H23 C41 0.930 . S
H24 C32 0.930 . S
H25 C39 0.931 . S
H26 C3 0.929 . S
H27 C33 0.930 . S
H28 C66 0.930 . S
H29 C10 0.930 . S
H30 C65 0.929 . S
N31 Tb0 2.660 . S
N31 C32 1.305 . S
N31 C36 1.360 . S
C32 H24 0.930 . S
C32 N31 1.305 . S
C32 C35 1.407 . S
C33 H27 0.930 . S
C33 C34 1.410 . S
C33 C35 1.345 . S
C34 C33 1.410 . S
C34 C36 1.417 . S
C34 C66 1.432 . S
C35 H21 0.930 . S
C35 C32 1.407 . S
C35 C33 1.345 . S
C36 N31 1.360 . S
C36 C34 1.417 . S
C36 C40 1.432 . S
H37 C42 0.930 . S
N38 Tb0 2.600 . S
N38 C40 1.359 . S
N38 C41 1.327 . S
C39 H25 0.931 . S
C39 C41 1.392 . S
C39 C42 1.370 . S
C40 C36 1.432 . S
C40 N38 1.359 . S
C40 C43 1.414 . S
C41 H23 0.930 . S
C41 N38 1.327 . S
C41 C39 1.392 . S
C42 H37 0.930 . S
C42 C39 1.370 . S
C42 C43 1.385 . S
C43 C40 1.414 . S
C43 C42 1.385 . S
C43 C65 1.444 . S
O44 Tb0 2.546 . S
O44 C64 1.251 . S
O45 Tb0 2.610 . S
O45 Tb11 2.362 . S
O45 C56 1.283 . S
O46 Tb11 2.421 . S
O46 C63 1.262 . S
O47 Tb0 2.320 . S
O47 C63 1.260 . S
O48 Tb0 2.552 . S
O48 C56 1.243 . S
O49 Tb0 2.413 . S
O49 C64 1.256 . S
O50 Tb11 2.546 . S
O50 C75 1.251 . S
O51 Tb0 2.362 . S
O51 Tb11 2.610 . S
O51 C67 1.283 . S
O52 Tb0 2.421 . S
O52 C74 1.262 . S
O53 Tb11 2.320 . S
O53 C74 1.260 . S
O54 Tb11 2.552 . S
O54 C67 1.243 . S
O55 Tb11 2.413 . S
O55 C75 1.256 . S
C56 O45 1.283 . S
C56 O48 1.243 . S
C57 C59 1.382 . S
C57 C61 1.393 . S
C57 C64 1.500 . S
C58 C59 1.400 . S
C58 C60 1.384 . S
C59 C57 1.382 . S
C59 C58 1.400 . S
C59 H76 0.930 . S
C60 C58 1.384 . S
C60 C62 1.392 . S
C60 H77 0.931 . S
C61 C57 1.393 . S
C61 C62 1.401 . S
C61 H78 0.930 . S
C62 C60 1.392 . S
C62 C61 1.401 . S
C62 H79 0.930 . S
C63 O46 1.262 . S
C63 O47 1.260 . S
C64 Tb0 2.833 . S
C64 O44 1.251 . S
C64 O49 1.256 . S
C64 C57 1.500 . S
C65 H30 0.929 . S
C65 C43 1.444 . S
C65 C66 1.317 . S
C66 H28 0.930 . S
C66 C34 1.432 . S
C66 C65 1.317 . S
C67 O51 1.283 . S
C67 O54 1.243 . S
C68 C69 1.382 . S
C68 C72 1.393 . S
C68 C75 1.500 . S
C69 C68 1.382 . S
C69 C70 1.400 . S
C69 H80 0.930 . S
C70 C69 1.400 . S
C70 C71 1.384 . S
C71 C70 1.384 . S
C71 C73 1.392 . S
C71 H81 0.931 . S
C72 C68 1.393 . S
C72 C73 1.401 . S
C72 H82 0.930 . S
C73 C71 1.392 . S
C73 C72 1.401 . S
C73 H83 0.930 . S
C74 O52 1.262 . S
C74 O53 1.260 . S
C75 Tb11 2.833 . S
C75 O50 1.251 . S
C75 O55 1.256 . S
C75 C68 1.500 . S
H76 C59 0.930 . S
H77 C60 0.931 . S
H78 C61 0.930 . S
H79 C62 0.930 . S
H80 C69 0.930 . S
H81 C71 0.931 . S
H82 C72 0.930 . S
H83 C73 0.930 . S
Tb84 N115 2.660 . S
Tb84 N122 2.600 . S
Tb84 O128 2.546 . S
Tb84 O129 2.610 1_655 S
Tb84 O131 2.320 . S
Tb84 O132 2.552 1_655 S
Tb84 O133 2.413 . S
Tb84 O135 2.362 1_655 S
Tb84 O136 2.421 1_655 S
Tb84 C148 2.833 . S
C85 C88 1.432 . S
C85 C89 1.414 . S
C85 N92 1.359 . S
C86 C88 1.417 . S
C86 C90 1.432 . S
C86 C98 1.410 . S
C87 C89 1.444 1_545 S
C87 C90 1.317 1_545 S
C87 H110 0.929 . S
C88 C85 1.432 . S
C88 C86 1.417 . S
C88 N96 1.360 . S
C89 C85 1.414 . S
C89 C87 1.444 1_565 S
C89 C94 1.385 1_565 S
C90 C86 1.432 . S
C90 C87 1.317 1_565 S
C90 H102 0.930 . S
C91 C93 1.392 . S
C91 C94 1.370 1_565 S
C91 H103 0.931 . S
N92 C85 1.359 . S
N92 C93 1.327 . S
N92 Tb95 2.600 . S
C93 C91 1.392 . S
C93 N92 1.327 . S
C93 H100 0.930 . S
C94 C89 1.385 1_545 S
C94 C91 1.370 1_545 S
C94 H113 0.930 . S
Tb95 N92 2.600 . S
Tb95 N96 2.660 . S
Tb95 O129 2.362 . S
Tb95 O130 2.421 1_455 S
Tb95 O134 2.546 . S
Tb95 O135 2.610 . S
Tb95 O137 2.320 . S
Tb95 O138 2.552 . S
Tb95 O139 2.413 . S
Tb95 C159 2.833 . S
N96 C88 1.360 . S
N96 Tb95 2.660 . S
N96 C97 1.305 . S
C97 N96 1.305 . S
C97 C99 1.407 . S
C97 H104 0.930 . S
C98 C86 1.410 . S
C98 C99 1.345 . S
C98 H106 0.930 . S
C99 C97 1.407 . S
C99 C98 1.345 . S
C99 H101 0.930 . S
H100 C93 0.930 . S
H101 C99 0.930 . S
H102 C90 0.930 . S
H103 C91 0.931 . S
H104 C97 0.930 . S
H105 C119 0.930 . S
H106 C98 0.930 . S
H107 C125 0.925 1_455 S
H108 C116 0.930 . S
H109 C123 0.931 . S
H110 C87 0.929 . S
H111 C117 0.930 . S
H112 C150 0.930 . S
H113 C94 0.930 . S
H114 C149 0.929 . S
N115 Tb84 2.660 . S
N115 C116 1.305 . S
N115 C120 1.360 . S
C116 H108 0.930 . S
C116 N115 1.305 . S
C116 C119 1.407 . S
C117 H111 0.930 . S
C117 C118 1.410 . S
C117 C119 1.345 . S
C118 C117 1.410 . S
C118 C120 1.417 . S
C118 C150 1.432 . S
C119 H105 0.930 . S
C119 C116 1.407 . S
C119 C117 1.345 . S
C120 N115 1.360 . S
C120 C118 1.417 . S
C120 C124 1.432 . S
H121 C126 0.930 . S
N122 Tb84 2.600 . S
N122 C124 1.359 . S
N122 C125 1.327 . S
C123 H109 0.931 . S
C123 C125 1.392 . S
C123 C126 1.370 . S
C124 C120 1.432 . S
C124 N122 1.359 . S
C124 C127 1.414 . S
C125 H107 0.925 1_655 S
C125 N122 1.327 . S
C125 C123 1.392 . S
C126 H121 0.930 . S
C126 C123 1.370 . S
C126 C127 1.385 . S
C127 C124 1.414 . S
C127 C126 1.385 . S
C127 C149 1.444 . S
O128 Tb84 2.546 . S
O128 C148 1.251 . S
O129 Tb84 2.610 1_455 S
O129 Tb95 2.362 . S
O129 C140 1.283 . S
O130 Tb95 2.421 1_655 S
O130 C147 1.262 . S
O131 Tb84 2.320 . S
O131 C147 1.260 . S
O132 Tb84 2.552 1_455 S
O132 C140 1.243 . S
O133 Tb84 2.413 . S
O133 C148 1.256 . S
O134 Tb95 2.546 . S
O134 C159 1.251 . S
O135 Tb84 2.362 1_455 S
O135 Tb95 2.610 . S
O135 C151 1.283 . S
O136 Tb84 2.421 1_455 S
O136 C158 1.262 . S
O137 Tb95 2.320 . S
O137 C158 1.260 . S
O138 Tb95 2.552 . S
O138 C151 1.243 . S
O139 Tb95 2.413 . S
O139 C159 1.256 . S
C140 O129 1.283 . S
C140 O132 1.243 . S
C141 C143 1.382 . S
C141 C145 1.393 . S
C141 C148 1.500 . S
C142 C143 1.400 . S
C142 C144 1.384 . S
C143 C141 1.382 . S
C143 C142 1.400 . S
C143 H160 0.930 . S
C144 C142 1.384 . S
C144 C146 1.392 . S
C144 H161 0.931 . S
C145 C141 1.393 . S
C145 C146 1.401 . S
C145 H162 0.930 . S
C146 C144 1.392 . S
C146 C145 1.401 . S
C146 H163 0.930 . S
C147 O130 1.262 . S
C147 O131 1.260 . S
C148 Tb84 2.833 . S
C148 O128 1.251 . S
C148 O133 1.256 . S
C148 C141 1.500 . S
C149 H114 0.929 . S
C149 C127 1.444 . S
C149 C150 1.317 . S
C150 H112 0.930 . S
C150 C118 1.432 . S
C150 C149 1.317 . S
C151 O135 1.283 . S
C151 O138 1.243 . S
C152 C153 1.382 . S
C152 C156 1.393 . S
C152 C159 1.500 . S
C153 C152 1.382 . S
C153 C154 1.400 . S
C153 H164 0.930 . S
C154 C153 1.400 . S
C154 C155 1.384 . S
C155 C154 1.384 . S
C155 C157 1.392 . S
C155 H165 0.931 . S
C156 C152 1.393 . S
C156 C157 1.401 . S
C156 H166 0.930 . S
C157 C155 1.392 . S
C157 C156 1.401 . S
C157 H167 0.930 . S
C158 O136 1.262 . S
C158 O137 1.260 . S
C159 Tb95 2.833 . S
C159 O134 1.251 . S
C159 O139 1.256 . S
C159 C152 1.500 . S
H160 C143 0.930 . S
H161 C144 0.931 . S
H162 C145 0.930 . S
H163 C146 0.930 . S
H164 C153 0.930 . S
H165 C155 0.931 . S
H166 C156 0.930 . S
H167 C157 0.930 . S
Tb168 N199 2.660 . S
Tb168 N206 2.600 . S
Tb168 O212 2.546 . S
Tb168 O213 2.610 . S
Tb168 O215 2.320 . S
Tb168 O216 2.552 . S
Tb168 O217 2.413 . S
Tb168 O219 2.362 1_556 S
Tb168 O220 2.421 . S
Tb168 C232 2.833 . S
C169 C172 1.432 1_554 S
C169 C173 1.414 . S
C169 N176 1.359 . S
C170 C172 1.417 . S
C170 C174 1.432 . S
C170 C182 1.410 . S
C171 C173 1.444 . S
C171 C174 1.317 1_554 S
C171 H194 0.929 . S
C172 C169 1.432 1_556 S
C172 C170 1.417 . S
C172 N180 1.360 . S
C173 C169 1.414 . S
C173 C171 1.444 . S
C173 C178 1.385 . S
C174 C170 1.432 . S
C174 C171 1.317 1_556 S
C174 H186 0.930 . S
C175 C177 1.392 . S
C175 C178 1.370 . S
C175 H187 0.931 . S
N176 C169 1.359 . S
N176 C177 1.327 . S
N176 Tb179 2.600 . S
C177 C175 1.392 . S
C177 N176 1.327 . S
C177 H184 0.930 . S
C178 C173 1.385 . S
C178 C175 1.370 . S
C178 H197 0.930 . S
Tb179 N176 2.600 . S
Tb179 N180 2.660 1_554 S
Tb179 O213 2.362 1_554 S
Tb179 O214 2.421 . S
Tb179 O218 2.546 . S
Tb179 O219 2.610 . S
Tb179 O221 2.320 1_554 S
Tb179 O222 2.552 . S
Tb179 O223 2.413 . S
Tb179 C243 2.833 . S
N180 C172 1.360 . S
N180 Tb179 2.660 1_556 S
N180 C181 1.305 . S
C181 N180 1.305 . S
C181 C183 1.407 . S
C181 H188 0.930 . S
C182 C170 1.410 . S
C182 C183 1.345 . S
C182 H190 0.930 . S
C183 C181 1.407 . S
C183 C182 1.345 . S
C183 H185 0.930 . S
H184 C177 0.930 . S
H185 C183 0.930 . S
H186 C174 0.930 . S
H187 C175 0.931 . S
H188 C181 0.930 . S
H189 C203 0.930 . S
H190 C182 0.930 . S
H191 C209 0.930 . S
H192 C200 0.930 . S
H193 C207 0.931 . S
H194 C171 0.929 . S
H195 C201 0.930 . S
H196 C234 0.930 1_554 S
H197 C178 0.930 . S
H198 C233 0.929 . S
N199 Tb168 2.660 . S
N199 C200 1.305 1_556 S
N199 C204 1.360 . S
C200 H192 0.930 . S
C200 N199 1.305 1_554 S
C200 C203 1.407 . S
C201 H195 0.930 . S
C201 C202 1.412 1_554 S
C201 C203 1.345 . S
C202 C201 1.412 1_556 S
C202 C204 1.415 . S
C202 C234 1.431 . S
C203 H189 0.930 . S
C203 C200 1.407 . S
C203 C201 1.345 . S
C204 N199 1.360 . S
C204 C202 1.415 . S
C204 C208 1.432 . S
H205 C210 0.930 . S
N206 Tb168 2.600 . S
N206 C208 1.359 . S
N206 C209 1.327 . S
C207 H193 0.931 . S
C207 C209 1.392 . S
C207 C210 1.370 . S
C208 C204 1.432 . S
C208 N206 1.359 . S
C208 C211 1.414 . S
C209 H191 0.930 . S
C209 N206 1.327 . S
C209 C207 1.392 . S
C210 H205 0.930 . S
C210 C207 1.370 . S
C210 C211 1.385 . S
C211 C208 1.414 . S
C211 C210 1.385 . S
C211 C233 1.444 . S
O212 Tb168 2.546 . S
O212 C232 1.251 . S
O213 Tb168 2.610 . S
O213 Tb179 2.362 1_556 S
O213 C224 1.283 . S
O214 Tb179 2.421 . S
O214 C231 1.262 . S
O215 Tb168 2.320 . S
O215 C231 1.260 1_556 S
O216 Tb168 2.552 . S
O216 C224 1.243 . S
O217 Tb168 2.413 . S
O217 C232 1.256 . S
O218 Tb179 2.546 . S
O218 C243 1.251 . S
O219 Tb168 2.362 1_554 S
O219 Tb179 2.610 . S
O219 C235 1.283 . S
O220 Tb168 2.421 . S
O220 C242 1.262 . S
O221 Tb179 2.320 1_556 S
O221 C242 1.260 . S
O222 Tb179 2.552 . S
O222 C235 1.243 . S
O223 Tb179 2.413 . S
O223 C243 1.256 . S
C224 O213 1.283 . S
C224 O216 1.243 . S
C225 C227 1.382 . S
C225 C229 1.393 . S
C225 C232 1.500 . S
C226 C227 1.400 . S
C226 C228 1.384 . S
C227 C225 1.382 . S
C227 C226 1.400 . S
C227 H244 0.930 . S
C228 C226 1.384 . S
C228 C230 1.392 . S
C228 H245 0.931 . S
C229 C225 1.393 . S
C229 C230 1.401 . S
C229 H246 0.930 . S
C230 C228 1.392 . S
C230 C229 1.401 . S
C230 H247 0.930 . S
C231 O214 1.262 . S
C231 O215 1.260 1_554 S
C232 Tb168 2.833 . S
C232 O212 1.251 . S
C232 O217 1.256 . S
C232 C225 1.500 . S
C233 H198 0.929 . S
C233 C211 1.444 . S
C233 C234 1.317 . S
C234 H196 0.930 1_556 S
C234 C202 1.431 . S
C234 C233 1.317 . S
C235 O219 1.283 . S
C235 O222 1.243 . S
C236 C237 1.382 . S
C236 C240 1.393 . S
C236 C243 1.500 . S
C237 C236 1.382 . S
C237 C238 1.400 . S
C237 H248 0.930 . S
C238 C237 1.400 . S
C238 C239 1.384 . S
C239 C238 1.384 . S
C239 C241 1.392 . S
C239 H249 0.931 . S
C240 C236 1.393 . S
C240 C241 1.401 . S
C240 H250 0.930 . S
C241 C239 1.392 . S
C241 C240 1.401 . S
C241 H251 0.930 . S
C242 O220 1.262 . S
C242 O221 1.260 . S
C243 Tb179 2.833 . S
C243 O218 1.251 . S
C243 O223 1.256 . S
C243 C236 1.500 . S
H244 C227 0.930 . S
H245 C228 0.931 . S
H246 C229 0.930 . S
H247 C230 0.930 . S
H248 C237 0.930 . S
H249 C239 0.931 . S
H250 C240 0.930 . S
H251 C241 0.930 . S
Tb252 N283 2.660 . S
Tb252 N290 2.600 . S
Tb252 O296 2.546 . S
Tb252 O297 2.610 . S
Tb252 O299 2.320 . S
Tb252 O300 2.552 . S
Tb252 O301 2.413 . S
Tb252 O303 2.362 . S
Tb252 O304 2.421 . S
Tb252 C316 2.833 . S
C253 C256 1.432 . S
C253 C257 1.414 . S
C253 N260 1.359 . S
C254 C256 1.417 . S
C254 C258 1.432 . S
C254 C266 1.410 . S
C255 C257 1.444 1_565 S
C255 C258 1.317 1_565 S
C255 H278 0.929 . S
C256 C253 1.432 . S
C256 C254 1.417 . S
C256 N264 1.360 . S
C257 C253 1.414 . S
C257 C255 1.444 1_545 S
C257 C262 1.385 1_545 S
C258 C254 1.432 . S
C258 C255 1.317 1_545 S
C258 H270 0.930 . S
C259 C261 1.392 . S
C259 C262 1.370 1_545 S
C259 H271 0.931 . S
N260 C253 1.359 . S
N260 C261 1.327 . S
N260 Tb263 2.600 . S
C261 C259 1.392 . S
C261 N260 1.327 . S
C261 H268 0.930 . S
C262 C257 1.385 1_565 S
C262 C259 1.370 1_565 S
C262 H281 0.930 . S
Tb263 N260 2.600 . S
Tb263 N264 2.660 . S
Tb263 O297 2.362 . S
Tb263 O298 2.421 . S
Tb263 O302 2.546 . S
Tb263 O303 2.610 . S
Tb263 O305 2.320 . S
Tb263 O306 2.552 . S
Tb263 O307 2.413 . S
Tb263 C327 2.833 . S
N264 C256 1.360 . S
N264 Tb263 2.660 . S
N264 C265 1.305 . S
C265 N264 1.305 . S
C265 C267 1.407 . S
C265 H272 0.930 . S
C266 C254 1.410 . S
C266 C267 1.345 . S
C266 H274 0.930 . S
C267 C265 1.407 . S
C267 C266 1.345 . S
C267 H269 0.930 . S
H268 C261 0.930 . S
H269 C267 0.930 . S
H270 C258 0.930 . S
H271 C259 0.931 . S
H272 C265 0.930 . S
H273 C287 0.930 . S
H274 C266 0.930 . S
H275 C293 0.930 . S
H276 C284 0.930 . S
H277 C291 0.931 . S
H278 C255 0.929 . S
H279 C285 0.930 . S
H280 C318 0.930 . S
H281 C262 0.930 . S
H282 C317 0.929 . S
N283 Tb252 2.660 . S
N283 C284 1.305 . S
N283 C288 1.360 . S
C284 H276 0.930 . S
C284 N283 1.305 . S
C284 C287 1.407 . S
C285 H279 0.930 . S
C285 C286 1.410 . S
C285 C287 1.345 . S
C286 C285 1.410 . S
C286 C288 1.417 . S
C286 C318 1.432 . S
C287 H273 0.930 . S
C287 C284 1.407 . S
C287 C285 1.345 . S
C288 N283 1.360 . S
C288 C286 1.417 . S
C288 C292 1.432 . S
H289 C294 0.930 . S
N290 Tb252 2.600 . S
N290 C292 1.359 . S
N290 C293 1.327 . S
C291 H277 0.931 . S
C291 C293 1.392 . S
C291 C294 1.370 . S
C292 C288 1.432 . S
C292 N290 1.359 . S
C292 C295 1.414 . S
C293 H275 0.930 . S
C293 N290 1.327 . S
C293 C291 1.392 . S
C294 H289 0.930 . S
C294 C291 1.370 . S
C294 C295 1.385 . S
C295 C292 1.414 . S
C295 C294 1.385 . S
C295 C317 1.444 . S
O296 Tb252 2.546 . S
O296 C316 1.251 . S
O297 Tb252 2.610 . S
O297 Tb263 2.362 . S
O297 C308 1.283 . S
O298 Tb263 2.421 . S
O298 C315 1.262 . S
O299 Tb252 2.320 . S
O299 C315 1.260 . S
O300 Tb252 2.552 . S
O300 C308 1.243 . S
O301 Tb252 2.413 . S
O301 C316 1.256 . S
O302 Tb263 2.546 . S
O302 C327 1.251 . S
O303 Tb252 2.362 . S
O303 Tb263 2.610 . S
O303 C319 1.283 . S
O304 Tb252 2.421 . S
O304 C326 1.262 . S
O305 Tb263 2.320 . S
O305 C326 1.260 . S
O306 Tb263 2.552 . S
O306 C319 1.243 . S
O307 Tb263 2.413 . S
O307 C327 1.256 . S
C308 O297 1.283 . S
C308 O300 1.243 . S
C309 C311 1.382 . S
C309 C313 1.393 . S
C309 C316 1.500 . S
C310 C311 1.400 . S
C310 C312 1.384 . S
C311 C309 1.382 . S
C311 C310 1.400 . S
C311 H328 0.930 . S
C312 C310 1.384 . S
C312 C314 1.392 . S
C312 H329 0.931 . S
C313 C309 1.393 . S
C313 C314 1.401 . S
C313 H330 0.930 . S
C314 C312 1.392 . S
C314 C313 1.401 . S
C314 H331 0.930 . S
C315 O298 1.262 . S
C315 O299 1.260 . S
C316 Tb252 2.833 . S
C316 O296 1.251 . S
C316 O301 1.256 . S
C316 C309 1.500 . S
C317 H282 0.929 . S
C317 C295 1.444 . S
C317 C318 1.317 . S
C318 H280 0.930 . S
C318 C286 1.432 . S
C318 C317 1.317 . S
C319 O303 1.283 . S
C319 O306 1.243 . S
C320 C321 1.382 . S
C320 C324 1.393 . S
C320 C327 1.500 . S
C321 C320 1.382 . S
C321 C322 1.400 . S
C321 H332 0.930 . S
C322 C321 1.400 . S
C322 C323 1.384 . S
C323 C322 1.384 . S
C323 C325 1.392 . S
C323 H333 0.931 . S
C324 C320 1.393 . S
C324 C325 1.401 . S
C324 H334 0.930 . S
C325 C323 1.392 . S
C325 C324 1.401 . S
C325 H335 0.930 . S
C326 O304 1.262 . S
C326 O305 1.260 . S
C327 Tb263 2.833 . S
C327 O302 1.251 . S
C327 O307 1.256 . S
C327 C320 1.500 . S
H328 C311 0.930 . S
H329 C312 0.931 . S
H330 C313 0.930 . S
H331 C314 0.930 . S
H332 C321 0.930 . S
H333 C323 0.931 . S
H334 C324 0.930 . S
H335 C325 0.930 . S
Tb336 N367 2.660 . S
Tb336 N374 2.600 . S
Tb336 O380 2.546 . S
Tb336 O381 2.610 . S
Tb336 O383 2.320 . S
Tb336 O384 2.552 . S
Tb336 O385 2.413 . S
Tb336 O387 2.362 . S
Tb336 O388 2.421 . S
Tb336 C400 2.833 . S
C337 C340 1.432 . S
C337 C341 1.414 . S
C337 N344 1.359 . S
C338 C340 1.417 . S
C338 C342 1.432 . S
C338 C350 1.410 . S
C339 C341 1.444 . S
C339 C342 1.317 . S
C339 H362 0.929 . S
C340 C337 1.432 . S
C340 C338 1.417 . S
C340 N348 1.360 . S
C341 C337 1.414 . S
C341 C339 1.444 . S
C341 C346 1.385 . S
C342 C338 1.432 . S
C342 C339 1.317 . S
C342 H354 0.930 . S
C343 C345 1.392 . S
C343 C346 1.370 . S
C343 H355 0.931 . S
N344 C337 1.359 . S
N344 C345 1.327 . S
N344 Tb347 2.600 . S
C345 C343 1.392 . S
C345 N344 1.327 . S
C345 H352 0.930 . S
C346 C341 1.385 . S
C346 C343 1.370 . S
C346 H365 0.930 . S
Tb347 N344 2.600 . S
Tb347 N348 2.660 . S
Tb347 O381 2.362 . S
Tb347 O382 2.421 . S
Tb347 O386 2.546 . S
Tb347 O387 2.610 . S
Tb347 O389 2.320 . S
Tb347 O390 2.552 . S
Tb347 O391 2.413 . S
Tb347 C411 2.833 . S
N348 C340 1.360 . S
N348 Tb347 2.660 . S
N348 C349 1.305 . S
C349 N348 1.305 . S
C349 C351 1.407 . S
C349 H356 0.930 . S
C350 C338 1.410 . S
C350 C351 1.345 . S
C350 H358 0.930 . S
C351 C349 1.407 . S
C351 C350 1.345 . S
C351 H353 0.930 . S
H352 C345 0.930 . S
H353 C351 0.930 . S
H354 C342 0.930 . S
H355 C343 0.931 . S
H356 C349 0.930 . S
H357 C371 0.930 . S
H358 C350 0.930 . S
H359 C377 0.930 . S
H360 C368 0.930 . S
H361 C375 0.931 . S
H362 C339 0.929 . S
H363 C369 0.930 . S
H364 C402 0.930 . S
H365 C346 0.930 . S
H366 C401 0.929 . S
N367 Tb336 2.660 . S
N367 C368 1.305 . S
N367 C372 1.360 . S
C368 H360 0.930 . S
C368 N367 1.305 . S
C368 C371 1.407 . S
C369 H363 0.930 . S
C369 C370 1.410 . S
C369 C371 1.345 . S
C370 C369 1.410 . S
C370 C372 1.417 . S
C370 C402 1.432 . S
C371 H357 0.930 . S
C371 C368 1.407 . S
C371 C369 1.345 . S
C372 N367 1.360 . S
C372 C370 1.417 . S
C372 C376 1.432 . S
H373 C378 0.930 . S
N374 Tb336 2.600 . S
N374 C376 1.359 . S
N374 C377 1.327 . S
C375 H361 0.931 . S
C375 C377 1.392 . S
C375 C378 1.370 . S
C376 C372 1.432 . S
C376 N374 1.359 . S
C376 C379 1.414 . S
C377 H359 0.930 . S
C377 N374 1.327 . S
C377 C375 1.392 . S
C378 H373 0.930 . S
C378 C375 1.370 . S
C378 C379 1.385 . S
C379 C376 1.414 . S
C379 C378 1.385 . S
C379 C401 1.444 . S
O380 Tb336 2.546 . S
O380 C400 1.251 . S
O381 Tb336 2.610 . S
O381 Tb347 2.362 . S
O381 C392 1.283 . S
O382 Tb347 2.421 . S
O382 C399 1.262 . S
O383 Tb336 2.320 . S
O383 C399 1.260 . S
O384 Tb336 2.552 . S
O384 C392 1.243 . S
O385 Tb336 2.413 . S
O385 C400 1.256 . S
O386 Tb347 2.546 . S
O386 C411 1.251 . S
O387 Tb336 2.362 . S
O387 Tb347 2.610 . S
O387 C403 1.283 . S
O388 Tb336 2.421 . S
O388 C410 1.262 . S
O389 Tb347 2.320 . S
O389 C410 1.260 . S
O390 Tb347 2.552 . S
O390 C403 1.243 . S
O391 Tb347 2.413 . S
O391 C411 1.256 . S
C392 O381 1.283 . S
C392 O384 1.243 . S
C393 C395 1.382 . S
C393 C397 1.393 . S
C393 C400 1.500 . S
C394 C395 1.400 . S
C394 C396 1.384 . S
C395 C393 1.382 . S
C395 C394 1.400 . S
C395 H412 0.930 . S
C396 C394 1.384 . S
C396 C398 1.392 . S
C396 H413 0.931 . S
C397 C393 1.393 . S
C397 C398 1.401 . S
C397 H414 0.930 . S
C398 C396 1.392 . S
C398 C397 1.401 . S
C398 H415 0.930 . S
C399 O382 1.262 . S
C399 O383 1.260 . S
C400 Tb336 2.833 . S
C400 O380 1.251 . S
C400 O385 1.256 . S
C400 C393 1.500 . S
C401 H366 0.929 . S
C401 C379 1.444 . S
C401 C402 1.317 . S
C402 H364 0.930 . S
C402 C370 1.432 . S
C402 C401 1.317 . S
C403 O387 1.283 . S
C403 O390 1.243 . S
C404 C405 1.382 . S
C404 C408 1.393 . S
C404 C411 1.500 . S
C405 C404 1.382 . S
C405 C406 1.400 . S
C405 H416 0.930 . S
C406 C405 1.400 . S
C406 C407 1.384 . S
C407 C406 1.384 . S
C407 C409 1.392 . S
C407 H417 0.931 . S
C408 C404 1.393 . S
C408 C409 1.401 . S
C408 H418 0.930 . S
C409 C407 1.392 . S
C409 C408 1.401 . S
C409 H419 0.930 . S
C410 O388 1.262 . S
C410 O389 1.260 . S
C411 Tb347 2.833 . S
C411 O386 1.251 . S
C411 O391 1.256 . S
C411 C404 1.500 . S
H412 C395 0.930 . S
H413 C396 0.931 . S
H414 C397 0.930 . S
H415 C398 0.930 . S
H416 C405 0.930 . S
H417 C407 0.931 . S
H418 C408 0.930 . S
H419 C409 0.930 . S
Tb420 N451 2.660 . S
Tb420 N458 2.600 . S
Tb420 O464 2.546 . S
Tb420 O465 2.610 . S
Tb420 O467 2.320 . S
Tb420 O468 2.552 . S
Tb420 O469 2.413 . S
Tb420 O471 2.362 1_655 S
Tb420 O472 2.421 . S
Tb420 C484 2.833 . S
C421 C424 1.432 1_455 S
C421 C425 1.414 . S
C421 N428 1.359 . S
C422 C424 1.417 . S
C422 C426 1.432 . S
C422 C434 1.410 . S
C423 C425 1.444 . S
C423 C426 1.317 1_455 S
C423 H446 0.929 . S
C424 C421 1.432 1_655 S
C424 C422 1.417 . S
C424 N432 1.360 . S
C425 C421 1.414 . S
C425 C423 1.444 . S
C425 C430 1.385 . S
C426 C422 1.432 . S
C426 C423 1.317 1_655 S
C426 H438 0.930 . S
C427 C429 1.392 . S
C427 C430 1.370 . S
C427 H439 0.931 . S
N428 C421 1.359 . S
N428 C429 1.327 . S
N428 Tb431 2.600 . S
C429 C427 1.392 . S
C429 N428 1.327 . S
C429 H436 0.930 . S
C430 C425 1.385 . S
C430 C427 1.370 . S
C430 H449 0.930 . S
Tb431 N428 2.600 . S
Tb431 N432 2.660 1_455 S
Tb431 O465 2.362 1_455 S
Tb431 O466 2.421 . S
Tb431 O470 2.546 . S
Tb431 O471 2.610 . S
Tb431 O473 2.320 1_455 S
Tb431 O474 2.552 . S
Tb431 O475 2.413 . S
Tb431 C495 2.833 . S
N432 C424 1.360 . S
N432 Tb431 2.660 1_655 S
N432 C433 1.305 . S
C433 N432 1.305 . S
C433 C435 1.407 . S
C433 H440 0.930 . S
C434 C422 1.410 . S
C434 C435 1.345 . S
C434 H442 0.930 . S
C435 C433 1.407 . S
C435 C434 1.345 . S
C435 H437 0.930 . S
H436 C429 0.930 . S
H437 C435 0.930 . S
H438 C426 0.930 . S
H439 C427 0.931 . S
H440 C433 0.930 . S
H441 C455 0.930 . S
H442 C434 0.930 . S
H443 C461 0.930 . S
H444 C452 0.930 . S
H445 C459 0.931 . S
H446 C423 0.929 . S
H447 C453 0.930 . S
H448 C486 0.930 1_455 S
H449 C430 0.930 . S
H450 C485 0.929 . S
N451 Tb420 2.660 . S
N451 C452 1.305 1_655 S
N451 C456 1.360 . S
C452 H444 0.930 . S
C452 N451 1.305 1_455 S
C452 C455 1.407 . S
C453 H447 0.930 . S
C453 C454 1.431 . S
C453 C455 1.345 . S
C454 C453 1.431 . S
C454 C456 1.403 1_455 S
C454 C486 1.424 1_455 S
C455 H441 0.930 . S
C455 C452 1.407 . S
C455 C453 1.345 . S
C456 N451 1.360 . S
C456 C454 1.403 1_655 S
C456 C460 1.432 . S
H457 C462 0.930 . S
N458 Tb420 2.600 . S
N458 C460 1.359 . S
N458 C461 1.327 . S
C459 H445 0.931 . S
C459 C461 1.392 . S
C459 C462 1.370 . S
C460 C456 1.432 . S
C460 N458 1.359 . S
C460 C463 1.414 . S
C461 H443 0.930 . S
C461 N458 1.327 . S
C461 C459 1.392 . S
C462 H457 0.930 . S
C462 C459 1.370 . S
C462 C463 1.385 . S
C463 C460 1.414 . S
C463 C462 1.385 . S
C463 C485 1.444 . S
O464 Tb420 2.546 . S
O464 C484 1.251 . S
O465 Tb420 2.610 . S
O465 Tb431 2.362 1_655 S
O465 C476 1.283 . S
O466 Tb431 2.421 . S
O466 C483 1.262 . S
O467 Tb420 2.320 . S
O467 C483 1.260 1_655 S
O468 Tb420 2.552 . S
O468 C476 1.243 . S
O469 Tb420 2.413 . S
O469 C484 1.256 . S
O470 Tb431 2.546 . S
O470 C495 1.251 . S
O471 Tb420 2.362 1_455 S
O471 Tb431 2.610 . S
O471 C487 1.283 . S
O472 Tb420 2.421 . S
O472 C494 1.262 . S
O473 Tb431 2.320 1_655 S
O473 C494 1.260 . S
O474 Tb431 2.552 . S
O474 C487 1.243 . S
O475 Tb431 2.413 . S
O475 C495 1.256 . S
C476 O465 1.283 . S
C476 O468 1.243 . S
C477 C479 1.382 . S
C477 C481 1.393 . S
C477 C484 1.500 . S
C478 C479 1.400 . S
C478 C480 1.384 . S
C479 C477 1.382 . S
C479 C478 1.400 . S
C479 H496 0.930 . S
C480 C478 1.384 . S
C480 C482 1.392 . S
C480 H497 0.931 . S
C481 C477 1.393 . S
C481 C482 1.401 . S
C481 H498 0.930 . S
C482 C480 1.392 . S
C482 C481 1.401 . S
C482 H499 0.930 . S
C483 O466 1.262 . S
C483 O467 1.260 1_455 S
C484 Tb420 2.833 . S
C484 O464 1.251 . S
C484 O469 1.256 . S
C484 C477 1.500 . S
C485 H450 0.929 . S
C485 C463 1.444 . S
C485 C486 1.317 . S
C486 H448 0.930 1_655 S
C486 C454 1.424 1_655 S
C486 C485 1.317 . S
C487 O471 1.283 . S
C487 O474 1.243 . S
C488 C489 1.382 . S
C488 C492 1.393 . S
C488 C495 1.500 . S
C489 C488 1.382 . S
C489 C490 1.400 . S
C489 H500 0.930 . S
C490 C489 1.400 . S
C490 C491 1.384 . S
C491 C490 1.384 . S
C491 C493 1.392 . S
C491 H501 0.931 . S
C492 C488 1.393 . S
C492 C493 1.401 . S
C492 H502 0.930 . S
C493 C491 1.392 . S
C493 C492 1.401 . S
C493 H503 0.930 . S
C494 O472 1.262 . S
C494 O473 1.260 . S
C495 Tb431 2.833 . S
C495 O470 1.251 . S
C495 O475 1.256 . S
C495 C488 1.500 . S
H496 C479 0.930 . S
H497 C480 0.931 . S
H498 C481 0.930 . S
H499 C482 0.930 . S
H500 C489 0.930 . S
H501 C491 0.931 . S
H502 C492 0.930 . S
H503 C493 0.930 . S
Tb504 N535 2.660 . S
Tb504 N542 2.600 . S
Tb504 O548 2.546 . S
Tb504 O549 2.610 . S
Tb504 O551 2.320 . S
Tb504 O552 2.552 . S
Tb504 O553 2.413 . S
Tb504 O555 2.362 1_554 S
Tb504 O556 2.421 . S
Tb504 C568 2.833 . S
C505 C508 1.432 1_556 S
C505 C509 1.414 . S
C505 N512 1.359 . S
C506 C508 1.417 . S
C506 C510 1.432 . S
C506 C518 1.410 . S
C507 C509 1.444 . S
C507 C510 1.317 1_556 S
C507 H530 0.929 . S
C508 C505 1.432 1_554 S
C508 C506 1.417 . S
C508 N516 1.360 . S
C509 C505 1.414 . S
C509 C507 1.444 . S
C509 C514 1.385 . S
C510 C506 1.432 . S
C510 C507 1.317 1_554 S
C510 H522 0.930 . S
C511 C513 1.392 . S
C511 C514 1.370 . S
C511 H523 0.931 . S
N512 C505 1.359 . S
N512 C513 1.327 . S
N512 Tb515 2.600 . S
C513 C511 1.392 . S
C513 N512 1.327 . S
C513 H520 0.930 . S
C514 C509 1.385 . S
C514 C511 1.370 . S
C514 H533 0.930 . S
Tb515 N512 2.600 . S
Tb515 N516 2.660 1_556 S
Tb515 O549 2.362 1_556 S
Tb515 O550 2.421 . S
Tb515 O554 2.546 . S
Tb515 O555 2.610 . S
Tb515 O557 2.320 1_556 S
Tb515 O558 2.552 . S
Tb515 O559 2.413 . S
Tb515 C579 2.833 . S
N516 C508 1.360 . S
N516 Tb515 2.660 1_554 S
N516 C517 1.305 . S
C517 N516 1.305 . S
C517 C519 1.407 . S
C517 H524 0.930 . S
C518 C506 1.410 . S
C518 C519 1.345 . S
C518 H526 0.930 . S
C519 C517 1.407 . S
C519 C518 1.345 . S
C519 H521 0.930 . S
H520 C513 0.930 . S
H521 C519 0.930 . S
H522 C510 0.930 . S
H523 C511 0.931 . S
H524 C517 0.930 . S
H525 C539 0.930 . S
H526 C518 0.930 . S
H527 C545 0.930 . S
H528 C536 0.930 . S
H529 C543 0.931 . S
H530 C507 0.929 . S
H531 C537 0.930 . S
H532 C570 0.919 1_556 S
H533 C514 0.930 . S
H534 C569 0.962 . S
N535 Tb504 2.660 . S
N535 C536 1.305 1_554 S
N535 C540 1.360 . S
C536 H528 0.930 . S
C536 N535 1.305 1_556 S
C536 C539 1.407 . S
C537 H531 0.930 . S
C537 C538 1.410 1_556 S
C537 C539 1.345 . S
C538 C537 1.410 1_554 S
C538 C540 1.417 . S
C538 C570 1.432 . S
C539 H525 0.930 . S
C539 C536 1.407 . S
C539 C537 1.345 . S
C540 N535 1.360 . S
C540 C538 1.417 . S
C540 C544 1.432 . S
H541 C546 0.930 . S
N542 Tb504 2.600 . S
N542 C544 1.359 . S
N542 C545 1.327 . S
C543 H529 0.931 . S
C543 C545 1.392 . S
C543 C546 1.370 1_655 S
C544 C540 1.432 . S
C544 N542 1.359 . S
C544 C547 1.414 . S
C545 H527 0.930 . S
C545 N542 1.327 . S
C545 C543 1.392 . S
C546 H541 0.930 . S
C546 C543 1.370 1_455 S
C546 C547 1.385 1_455 S
C547 C544 1.414 . S
C547 C546 1.385 1_655 S
C547 C569 1.430 1_655 S
O548 Tb504 2.546 . S
O548 C568 1.251 . S
O549 Tb504 2.610 . S
O549 Tb515 2.362 1_554 S
O549 C560 1.283 . S
O550 Tb515 2.421 . S
O550 C567 1.262 . S
O551 Tb504 2.320 . S
O551 C567 1.260 1_554 S
O552 Tb504 2.552 . S
O552 C560 1.243 . S
O553 Tb504 2.413 . S
O553 C568 1.256 . S
O554 Tb515 2.546 . S
O554 C579 1.251 . S
O555 Tb504 2.362 1_556 S
O555 Tb515 2.610 . S
O555 C571 1.283 . S
O556 Tb504 2.421 . S
O556 C578 1.262 . S
O557 Tb515 2.320 1_554 S
O557 C578 1.260 . S
O558 Tb515 2.552 . S
O558 C571 1.243 . S
O559 Tb515 2.413 . S
O559 C579 1.256 . S
C560 O549 1.283 . S
C560 O552 1.243 . S
C561 C563 1.382 . S
C561 C565 1.393 . S
C561 C568 1.500 . S
C562 C563 1.400 . S
C562 C564 1.384 . S
C563 C561 1.382 . S
C563 C562 1.400 . S
C563 H580 0.930 . S
C564 C562 1.384 . S
C564 C566 1.392 . S
C564 H581 0.931 . S
C565 C561 1.393 . S
C565 C566 1.401 . S
C565 H582 0.930 . S
C566 C564 1.392 . S
C566 C565 1.401 . S
C566 H583 0.930 . S
C567 O550 1.262 . S
C567 O551 1.260 1_556 S
C568 Tb504 2.833 . S
C568 O548 1.251 . S
C568 O553 1.256 . S
C568 C561 1.500 . S
C569 H534 0.962 . S
C569 C547 1.430 1_455 S
C569 C570 1.300 1_455 S
C570 H532 0.919 1_554 S
C570 C538 1.432 . S
C570 C569 1.300 1_655 S
C571 O555 1.283 . S
C571 O558 1.243 . S
C572 C573 1.382 . S
C572 C576 1.393 . S
C572 C579 1.500 . S
C573 C572 1.382 . S
C573 C574 1.400 . S
C573 H584 0.930 . S
C574 C573 1.400 . S
C574 C575 1.384 . S
C575 C574 1.384 . S
C575 C577 1.392 . S
C575 H585 0.931 . S
C576 C572 1.393 . S
C576 C577 1.401 . S
C576 H586 0.930 . S
C577 C575 1.392 . S
C577 C576 1.401 . S
C577 H587 0.930 . S
C578 O556 1.262 . S
C578 O557 1.260 . S
C579 Tb515 2.833 . S
C579 O554 1.251 . S
C579 O559 1.256 . S
C579 C572 1.500 . S
H580 C563 0.930 . S
H581 C564 0.931 . S
H582 C565 0.930 . S
H583 C566 0.930 . S
H584 C573 0.930 . S
H585 C575 0.931 . S
H586 C576 0.930 . S
H587 C577 0.930 . S
Tb588 N619 2.660 . S
Tb588 N626 2.600 . S
Tb588 O632 2.546 . S
Tb588 O633 2.610 . S
Tb588 O635 2.320 . S
Tb588 O636 2.552 . S
Tb588 O637 2.413 . S
Tb588 O639 2.362 . S
Tb588 O640 2.421 . S
Tb588 C652 2.833 . S
C589 C592 1.432 . S
C589 C593 1.414 . S
C589 N596 1.359 . S
C590 C592 1.417 . S
C590 C594 1.432 . S
C590 C602 1.410 . S
C591 C593 1.444 . S
C591 C594 1.317 . S
C591 H614 0.929 . S
C592 C589 1.432 . S
C592 C590 1.417 . S
C592 N600 1.360 . S
C593 C589 1.414 . S
C593 C591 1.444 . S
C593 C598 1.385 . S
C594 C590 1.432 . S
C594 C591 1.317 . S
C594 H606 0.930 . S
C595 C597 1.392 . S
C595 C598 1.370 . S
C595 H607 0.931 . S
N596 C589 1.359 . S
N596 C597 1.327 . S
N596 Tb599 2.600 . S
C597 C595 1.392 . S
C597 N596 1.327 . S
C597 H604 0.930 . S
C598 C593 1.385 . S
C598 C595 1.370 . S
C598 H617 0.930 . S
Tb599 N596 2.600 . S
Tb599 N600 2.660 . S
Tb599 O633 2.362 . S
Tb599 O634 2.421 . S
Tb599 O638 2.546 . S
Tb599 O639 2.610 . S
Tb599 O641 2.320 . S
Tb599 O642 2.552 . S
Tb599 O643 2.413 . S
Tb599 C663 2.833 . S
N600 C592 1.360 . S
N600 Tb599 2.660 . S
N600 C601 1.305 . S
C601 N600 1.305 . S
C601 C603 1.407 . S
C601 H608 0.930 . S
C602 C590 1.410 . S
C602 C603 1.345 . S
C602 H610 0.930 . S
C603 C601 1.407 . S
C603 C602 1.345 . S
C603 H605 0.930 . S
H604 C597 0.930 . S
H605 C603 0.930 . S
H606 C594 0.930 . S
H607 C595 0.931 . S
H608 C601 0.930 . S
H609 C623 0.930 . S
H610 C602 0.930 . S
H611 C629 0.930 . S
H612 C620 0.930 . S
H613 C627 0.931 . S
H614 C591 0.929 . S
H615 C621 0.930 . S
H616 C654 0.930 . S
H617 C598 0.930 . S
H618 C653 0.929 . S
N619 Tb588 2.660 . S
N619 C620 1.305 . S
N619 C624 1.360 . S
C620 H612 0.930 . S
C620 N619 1.305 . S
C620 C623 1.407 . S
C621 H615 0.930 . S
C621 C622 1.410 . S
C621 C623 1.345 . S
C622 C621 1.410 . S
C622 C624 1.417 . S
C622 C654 1.432 . S
C623 H609 0.930 . S
C623 C620 1.407 . S
C623 C621 1.345 . S
C624 N619 1.360 . S
C624 C622 1.417 . S
C624 C628 1.432 . S
H625 C630 0.930 . S
N626 Tb588 2.600 . S
N626 C628 1.359 . S
N626 C629 1.327 . S
C627 H613 0.931 . S
C627 C629 1.392 . S
C627 C630 1.370 . S
C628 C624 1.432 . S
C628 N626 1.359 . S
C628 C631 1.414 . S
C629 H611 0.930 . S
C629 N626 1.327 . S
C629 C627 1.392 . S
C630 H625 0.930 . S
C630 C627 1.370 . S
C630 C631 1.385 . S
C631 C628 1.414 . S
C631 C630 1.385 . S
C631 C653 1.444 . S
O632 Tb588 2.546 . S
O632 C652 1.251 . S
O633 Tb588 2.610 . S
O633 Tb599 2.362 . S
O633 C644 1.283 . S
O634 Tb599 2.421 . S
O634 C651 1.262 . S
O635 Tb588 2.320 . S
O635 C651 1.260 . S
O636 Tb588 2.552 . S
O636 C644 1.243 . S
O637 Tb588 2.413 . S
O637 C652 1.256 . S
O638 Tb599 2.546 . S
O638 C663 1.251 . S
O639 Tb588 2.362 . S
O639 Tb599 2.610 . S
O639 C655 1.283 . S
O640 Tb588 2.421 . S
O640 C662 1.262 . S
O641 Tb599 2.320 . S
O641 C662 1.260 . S
O642 Tb599 2.552 . S
O642 C655 1.243 . S
O643 Tb599 2.413 . S
O643 C663 1.256 . S
C644 O633 1.283 . S
C644 O636 1.243 . S
C645 C647 1.382 . S
C645 C649 1.393 . S
C645 C652 1.500 . S
C646 C647 1.400 . S
C646 C648 1.384 . S
C647 C645 1.382 . S
C647 C646 1.400 . S
C647 H664 0.930 . S
C648 C646 1.384 . S
C648 C650 1.392 . S
C648 H665 0.931 . S
C649 C645 1.393 . S
C649 C650 1.401 . S
C649 H666 0.930 . S
C650 C648 1.392 . S
C650 C649 1.401 . S
C650 H667 0.930 . S
C651 O634 1.262 . S
C651 O635 1.260 . S
C652 Tb588 2.833 . S
C652 O632 1.251 . S
C652 O637 1.256 . S
C652 C645 1.500 . S
C653 H618 0.929 . S
C653 C631 1.444 . S
C653 C654 1.317 . S
C654 H616 0.930 . S
C654 C622 1.432 . S
C654 C653 1.317 . S
C655 O639 1.283 . S
C655 O642 1.243 . S
C656 C657 1.382 . S
C656 C660 1.393 . S
C656 C663 1.500 . S
C657 C656 1.382 . S
C657 C658 1.400 . S
C657 H668 0.930 . S
C658 C657 1.400 . S
C658 C659 1.384 . S
C659 C658 1.384 . S
C659 C661 1.392 . S
C659 H669 0.931 . S
C660 C656 1.393 . S
C660 C661 1.401 . S
C660 H670 0.930 . S
C661 C659 1.392 . S
C661 C660 1.401 . S
C661 H671 0.930 . S
C662 O640 1.262 . S
C662 O641 1.260 . S
C663 Tb599 2.833 . S
C663 O638 1.251 . S
C663 O643 1.256 . S
C663 C656 1.500 . S
H664 C647 0.930 . S
H665 C648 0.931 . S
H666 C649 0.930 . S
H667 C650 0.930 . S
H668 C657 0.930 . S
H669 C659 0.931 . S
H670 C660 0.930 . S
H671 C661 0.930 . S
Tb672 N703 2.660 . S
Tb672 N710 2.600 . S
Tb672 O716 2.546 . S
Tb672 O717 2.610 . S
Tb672 O719 2.320 . S
Tb672 O720 2.552 . S
Tb672 O721 2.413 . S
Tb672 O723 2.362 . S
Tb672 O724 2.421 . S
Tb672 C736 2.833 . S
C673 C676 1.432 . S
C673 C677 1.414 . S
C673 N680 1.359 . S
C674 C676 1.417 . S
C674 C678 1.432 . S
C674 C686 1.410 . S
C675 C677 1.439 1_556 S
C675 C678 1.311 1_556 S
C675 H698 0.942 . S
C676 C673 1.432 . S
C676 C674 1.417 . S
C676 N684 1.360 . S
C677 C673 1.414 . S
C677 C675 1.439 1_554 S
C677 C682 1.374 1_554 S
C678 C674 1.432 . S
C678 C675 1.311 1_554 S
C678 H690 0.930 . S
C679 C681 1.392 . S
C679 C682 1.358 1_554 S
C679 H691 0.931 . S
N680 C673 1.359 . S
N680 C681 1.327 . S
N680 Tb683 2.600 . S
C681 C679 1.392 . S
C681 N680 1.327 . S
C681 H688 0.930 . S
C682 C677 1.374 1_556 S
C682 C679 1.358 1_556 S
C682 H701 0.952 . S
Tb683 N680 2.600 . S
Tb683 N684 2.660 . S
Tb683 O717 2.362 . S
Tb683 O718 2.421 . S
Tb683 O722 2.546 . S
Tb683 O723 2.610 . S
Tb683 O725 2.320 . S
Tb683 O726 2.552 . S
Tb683 O727 2.413 . S
Tb683 C747 2.833 . S
N684 C676 1.360 . S
N684 Tb683 2.660 . S
N684 C685 1.305 . S
C685 N684 1.305 . S
C685 C687 1.407 . S
C685 H692 0.930 . S
C686 C674 1.410 . S
C686 C687 1.345 . S
C686 H694 0.930 . S
C687 C685 1.407 . S
C687 C686 1.345 . S
C687 H689 0.930 . S
H688 C681 0.930 . S
H689 C687 0.930 . S
H690 C678 0.930 . S
H691 C679 0.931 . S
H692 C685 0.930 . S
H693 C707 0.930 . S
H694 C686 0.930 . S
H695 C713 0.930 . S
H696 C704 0.930 . S
H697 C711 0.931 . S
H698 C675 0.942 . S
H699 C705 0.930 . S
H700 C738 0.930 . S
H701 C682 0.952 . S
H702 C737 0.929 . S
N703 Tb672 2.660 . S
N703 C704 1.305 . S
N703 C708 1.360 . S
C704 H696 0.930 . S
C704 N703 1.305 . S
C704 C707 1.407 . S
C705 H699 0.930 . S
C705 C706 1.410 . S
C705 C707 1.345 . S
C706 C705 1.410 . S
C706 C708 1.417 . S
C706 C738 1.432 . S
C707 H693 0.930 . S
C707 C704 1.407 . S
C707 C705 1.345 . S
C708 N703 1.360 . S
C708 C706 1.417 . S
C708 C712 1.432 . S
H709 C714 0.930 . S
N710 Tb672 2.600 . S
N710 C712 1.359 . S
N710 C713 1.327 . S
C711 H697 0.931 . S
C711 C713 1.392 . S
C711 C714 1.370 . S
C712 C708 1.432 . S
C712 N710 1.359 . S
C712 C715 1.414 . S
C713 H695 0.930 . S
C713 N710 1.327 . S
C713 C711 1.392 . S
C714 H709 0.930 . S
C714 C711 1.370 . S
C714 C715 1.385 . S
C715 C712 1.414 . S
C715 C714 1.385 . S
C715 C737 1.444 . S
O716 Tb672 2.546 . S
O716 C736 1.251 . S
O717 Tb672 2.610 . S
O717 Tb683 2.362 . S
O717 C728 1.283 . S
O718 Tb683 2.421 . S
O718 C735 1.262 . S
O719 Tb672 2.320 . S
O719 C735 1.260 . S
O720 Tb672 2.552 . S
O720 C728 1.243 . S
O721 Tb672 2.413 . S
O721 C736 1.256 . S
O722 Tb683 2.546 . S
O722 C747 1.251 . S
O723 Tb672 2.362 . S
O723 Tb683 2.610 . S
O723 C739 1.283 . S
O724 Tb672 2.421 . S
O724 C746 1.262 . S
O725 Tb683 2.320 . S
O725 C746 1.260 . S
O726 Tb683 2.552 . S
O726 C739 1.243 . S
O727 Tb683 2.413 . S
O727 C747 1.256 . S
C728 O717 1.283 . S
C728 O720 1.243 . S
C729 C731 1.382 . S
C729 C733 1.393 . S
C729 C736 1.500 . S
C730 C731 1.400 . S
C730 C732 1.384 . S
C731 C729 1.382 . S
C731 C730 1.400 . S
C731 H748 0.930 . S
C732 C730 1.384 . S
C732 C734 1.392 . S
C732 H749 0.931 . S
C733 C729 1.393 . S
C733 C734 1.401 . S
C733 H750 0.930 . S
C734 C732 1.392 . S
C734 C733 1.401 . S
C734 H751 0.930 . S
C735 O718 1.262 . S
C735 O719 1.260 . S
C736 Tb672 2.833 . S
C736 O716 1.251 . S
C736 O721 1.256 . S
C736 C729 1.500 . S
C737 H702 0.929 . S
C737 C715 1.444 . S
C737 C738 1.317 . S
C738 H700 0.930 . S
C738 C706 1.432 . S
C738 C737 1.317 . S
C739 O723 1.283 . S
C739 O726 1.243 . S
C740 C741 1.382 . S
C740 C744 1.393 . S
C740 C747 1.500 . S
C741 C740 1.382 . S
C741 C742 1.400 . S
C741 H752 0.930 . S
C742 C741 1.400 . S
C742 C743 1.384 . S
C743 C742 1.384 . S
C743 C745 1.392 . S
C743 H753 0.931 . S
C744 C740 1.393 . S
C744 C745 1.401 . S
C744 H754 0.930 . S
C745 C743 1.392 . S
C745 C744 1.401 . S
C745 H755 0.930 . S
C746 O724 1.262 . S
C746 O725 1.260 . S
C747 Tb683 2.833 . S
C747 O722 1.251 . S
C747 O727 1.256 . S
C747 C740 1.500 . S
H748 C731 0.930 . S
H749 C732 0.931 . S
H750 C733 0.930 . S
H751 C734 0.930 . S
H752 C741 0.930 . S
H753 C743 0.931 . S
H754 C744 0.930 . S
H755 C745 0.930 . S
Tb756 N787 2.660 . S
Tb756 N794 2.600 . S
Tb756 O800 2.546 . S
Tb756 O801 2.610 1_565 S
Tb756 O803 2.320 . S
Tb756 O804 2.552 1_565 S
Tb756 O805 2.413 . S
Tb756 O807 2.362 1_565 S
Tb756 O808 2.421 1_565 S
Tb756 C820 2.833 . S
C757 C760 1.432 . S
C757 C761 1.414 . S
C757 N764 1.359 . S
C758 C760 1.417 . S
C758 C762 1.432 . S
C758 C770 1.410 . S
C759 C761 1.444 1_554 S
C759 C762 1.317 1_554 S
C759 H782 0.929 . S
C760 C757 1.432 . S
C760 C758 1.417 . S
C760 N768 1.360 . S
C761 C757 1.414 . S
C761 C759 1.444 1_556 S
C761 C766 1.385 1_556 S
C762 C758 1.432 . S
C762 C759 1.317 1_556 S
C762 H774 0.930 . S
C763 C765 1.392 . S
C763 C766 1.370 1_556 S
C763 H775 0.931 . S
N764 C757 1.359 . S
N764 C765 1.327 . S
N764 Tb767 2.600 . S
C765 C763 1.392 . S
C765 N764 1.327 . S
C765 H772 0.930 . S
C766 C761 1.385 1_554 S
C766 C763 1.370 1_554 S
C766 H785 0.930 . S
Tb767 N764 2.600 . S
Tb767 N768 2.660 . S
Tb767 O801 2.362 . S
Tb767 O802 2.421 1_545 S
Tb767 O806 2.546 . S
Tb767 O807 2.610 . S
Tb767 O809 2.320 . S
Tb767 O810 2.552 . S
Tb767 O811 2.413 . S
Tb767 C831 2.833 . S
N768 C760 1.360 . S
N768 Tb767 2.660 . S
N768 C769 1.305 . S
C769 N768 1.305 . S
C769 C771 1.407 . S
C769 H776 0.930 . S
C770 C758 1.410 . S
C770 C771 1.345 . S
C770 H778 0.930 . S
C771 C769 1.407 . S
C771 C770 1.345 . S
C771 H773 0.930 . S
H772 C765 0.930 . S
H773 C771 0.930 . S
H774 C762 0.930 . S
H775 C763 0.931 . S
H776 C769 0.930 . S
H777 C791 0.930 . S
H778 C770 0.930 . S
H779 C797 0.930 1_545 S
H780 C788 0.930 . S
H781 C795 0.931 . S
H782 C759 0.929 . S
H783 C789 0.930 . S
H784 C822 0.930 . S
H785 C766 0.930 . S
H786 C821 0.929 . S
N787 Tb756 2.660 . S
N787 C788 1.305 . S
N787 C792 1.360 . S
C788 H780 0.930 . S
C788 N787 1.305 . S
C788 C791 1.407 . S
C789 H783 0.930 . S
C789 C790 1.410 . S
C789 C791 1.345 . S
C790 C789 1.410 . S
C790 C792 1.417 . S
C790 C822 1.432 . S
C791 H777 0.930 . S
C791 C788 1.407 . S
C791 C789 1.345 . S
C792 N787 1.360 . S
C792 C790 1.417 . S
C792 C796 1.432 . S
H793 C798 0.930 . S
N794 Tb756 2.600 . S
N794 C796 1.359 . S
N794 C797 1.327 . S
C795 H781 0.931 . S
C795 C797 1.392 . S
C795 C798 1.370 . S
C796 C792 1.432 . S
C796 N794 1.359 . S
C796 C799 1.414 . S
C797 H779 0.930 1_565 S
C797 N794 1.327 . S
C797 C795 1.392 . S
C798 H793 0.930 . S
C798 C795 1.370 . S
C798 C799 1.385 . S
C799 C796 1.414 . S
C799 C798 1.385 . S
C799 C821 1.444 . S
O800 Tb756 2.546 . S
O800 C820 1.251 . S
O801 Tb756 2.610 1_545 S
O801 Tb767 2.362 . S
O801 C812 1.283 . S
O802 Tb767 2.421 1_565 S
O802 C819 1.262 . S
O803 Tb756 2.320 . S
O803 C819 1.260 . S
O804 Tb756 2.552 1_545 S
O804 C812 1.243 . S
O805 Tb756 2.413 . S
O805 C820 1.256 . S
O806 Tb767 2.546 . S
O806 C831 1.251 . S
O807 Tb756 2.362 1_545 S
O807 Tb767 2.610 . S
O807 C823 1.283 . S
O808 Tb756 2.421 1_545 S
O808 C830 1.262 . S
O809 Tb767 2.320 . S
O809 C830 1.260 . S
O810 Tb767 2.552 . S
O810 C823 1.243 . S
O811 Tb767 2.413 . S
O811 C831 1.256 . S
C812 O801 1.283 . S
C812 O804 1.243 . S
C813 C815 1.382 . S
C813 C817 1.393 . S
C813 C820 1.500 . S
C814 C815 1.400 . S
C814 C816 1.384 . S
C815 C813 1.382 . S
C815 C814 1.400 . S
C815 H832 0.930 . S
C816 C814 1.384 . S
C816 C818 1.392 . S
C816 H833 0.931 . S
C817 C813 1.393 . S
C817 C818 1.401 . S
C817 H834 0.930 . S
C818 C816 1.392 . S
C818 C817 1.401 . S
C818 H835 0.930 . S
C819 O802 1.262 . S
C819 O803 1.260 . S
C820 Tb756 2.833 . S
C820 O800 1.251 . S
C820 O805 1.256 . S
C820 C813 1.500 . S
C821 H786 0.929 . S
C821 C799 1.444 . S
C821 C822 1.317 . S
C822 H784 0.930 . S
C822 C790 1.432 . S
C822 C821 1.317 . S
C823 O807 1.283 . S
C823 O810 1.243 . S
C824 C825 1.382 . S
C824 C828 1.393 . S
C824 C831 1.500 . S
C825 C824 1.382 . S
C825 C826 1.400 . S
C825 H836 0.930 . S
C826 C825 1.400 . S
C826 C827 1.384 . S
C827 C826 1.384 . S
C827 C829 1.392 . S
C827 H837 0.931 . S
C828 C824 1.393 . S
C828 C829 1.401 . S
C828 H838 0.930 . S
C829 C827 1.392 . S
C829 C828 1.401 . S
C829 H839 0.930 . S
C830 O808 1.262 . S
C830 O809 1.260 . S
C831 Tb767 2.833 . S
C831 O806 1.251 . S
C831 O811 1.256 . S
C831 C824 1.500 . S
H832 C815 0.930 . S
H833 C816 0.931 . S
H834 C817 0.930 . S
H835 C818 0.930 . S
H836 C825 0.930 . S
H837 C827 0.931 . S
H838 C828 0.930 . S
H839 C829 0.930 . S
Tb840 N871 2.660 . S
Tb840 N878 2.600 . S
Tb840 O884 2.546 . S
Tb840 O885 2.610 . S
Tb840 O887 2.320 . S
Tb840 O888 2.552 . S
Tb840 O889 2.413 . S
Tb840 O891 2.362 1_565 S
Tb840 O892 2.421 . S
Tb840 C904 2.833 . S
C841 C844 1.432 1_545 S
C841 C845 1.414 . S
C841 N848 1.359 . S
C842 C844 1.417 . S
C842 C846 1.432 . S
C842 C854 1.410 . S
C843 C845 1.444 . S
C843 C846 1.317 1_545 S
C843 H866 0.929 . S
C844 C841 1.432 1_565 S
C844 C842 1.417 . S
C844 N852 1.360 . S
C845 C841 1.414 . S
C845 C843 1.444 . S
C845 C850 1.385 . S
C846 C842 1.432 . S
C846 C843 1.317 1_565 S
C846 H858 0.930 . S
C847 C849 1.392 . S
C847 C850 1.370 . S
C847 H859 0.931 . S
N848 C841 1.359 . S
N848 C849 1.327 . S
N848 Tb851 2.600 . S
C849 C847 1.392 . S
C849 N848 1.327 . S
C849 H856 0.930 . S
C850 C845 1.385 . S
C850 C847 1.370 . S
C850 H869 0.930 . S
Tb851 N848 2.600 . S
Tb851 N852 2.660 1_545 S
Tb851 O885 2.362 1_545 S
Tb851 O886 2.421 . S
Tb851 O890 2.546 . S
Tb851 O891 2.610 . S
Tb851 O893 2.320 1_545 S
Tb851 O894 2.552 . S
Tb851 O895 2.413 . S
Tb851 C915 2.833 . S
N852 C844 1.360 . S
N852 Tb851 2.660 1_565 S
N852 C853 1.305 . S
C853 N852 1.305 . S
C853 C855 1.407 . S
C853 H860 0.930 . S
C854 C842 1.410 . S
C854 C855 1.345 . S
C854 H862 0.930 . S
C855 C853 1.407 . S
C855 C854 1.345 . S
C855 H857 0.930 . S
H856 C849 0.930 . S
H857 C855 0.930 . S
H858 C846 0.930 . S
H859 C847 0.931 . S
H860 C853 0.930 . S
H861 C875 0.930 . S
H862 C854 0.930 . S
H863 C881 0.930 . S
H864 C872 0.930 . S
H865 C879 0.931 . S
H866 C843 0.929 . S
H867 C873 0.930 . S
H868 C906 0.947 . S
H869 C850 0.930 . S
H870 C905 0.929 . S
N871 Tb840 2.660 . S
N871 C872 1.305 1_565 S
N871 C876 1.360 . S
C872 H864 0.930 . S
C872 N871 1.305 1_545 S
C872 C875 1.407 . S
C873 H867 0.930 . S
C873 C874 1.410 1_545 S
C873 C875 1.345 . S
C874 C873 1.410 1_565 S
C874 C876 1.417 . S
C874 C906 1.432 . S
C875 H861 0.930 . S
C875 C872 1.407 . S
C875 C873 1.345 . S
C876 N871 1.360 . S
C876 C874 1.417 . S
C876 C880 1.432 . S
H877 C882 0.930 . S
N878 Tb840 2.600 . S
N878 C880 1.359 . S
N878 C881 1.327 . S
C879 H865 0.931 . S
C879 C881 1.392 . S
C879 C882 1.370 . S
C880 C876 1.432 . S
C880 N878 1.359 . S
C880 C883 1.414 . S
C881 H863 0.930 . S
C881 N878 1.327 . S
C881 C879 1.392 . S
C882 H877 0.930 . S
C882 C879 1.370 . S
C882 C883 1.385 . S
C883 C880 1.414 . S
C883 C882 1.385 . S
C883 C905 1.444 . S
O884 Tb840 2.546 . S
O884 C904 1.251 . S
O885 Tb840 2.610 . S
O885 Tb851 2.362 1_565 S
O885 C896 1.283 . S
O886 Tb851 2.421 . S
O886 C903 1.262 . S
O887 Tb840 2.320 . S
O887 C903 1.260 1_565 S
O888 Tb840 2.552 . S
O888 C896 1.243 . S
O889 Tb840 2.413 . S
O889 C904 1.256 . S
O890 Tb851 2.546 . S
O890 C915 1.251 . S
O891 Tb840 2.362 1_545 S
O891 Tb851 2.610 . S
O891 C907 1.283 . S
O892 Tb840 2.421 . S
O892 C914 1.262 . S
O893 Tb851 2.320 1_565 S
O893 C914 1.260 . S
O894 Tb851 2.552 . S
O894 C907 1.243 . S
O895 Tb851 2.413 . S
O895 C915 1.256 . S
C896 O885 1.283 . S
C896 O888 1.243 . S
C897 C899 1.382 . S
C897 C901 1.393 . S
C897 C904 1.500 . S
C898 C899 1.400 . S
C898 C900 1.384 . S
C899 C897 1.382 . S
C899 C898 1.400 . S
C899 H916 0.930 . S
C900 C898 1.384 . S
C900 C902 1.392 . S
C900 H917 0.931 . S
C901 C897 1.393 . S
C901 C902 1.401 . S
C901 H918 0.930 . S
C902 C900 1.392 . S
C902 C901 1.401 . S
C902 H919 0.930 . S
C903 O886 1.262 . S
C903 O887 1.260 1_545 S
C904 Tb840 2.833 . S
C904 O884 1.251 . S
C904 O889 1.256 . S
C904 C897 1.500 . S
C905 H870 0.929 . S
C905 C883 1.444 . S
C905 C906 1.317 . S
C906 H868 0.947 . S
C906 C874 1.432 . S
C906 C905 1.317 . S
C907 O891 1.283 . S
C907 O894 1.243 . S
C908 C909 1.382 . S
C908 C912 1.393 . S
C908 C915 1.500 . S
C909 C908 1.382 . S
C909 C910 1.400 . S
C909 H920 0.930 . S
C910 C909 1.400 . S
C910 C911 1.384 . S
C911 C910 1.384 . S
C911 C913 1.392 . S
C911 H921 0.931 . S
C912 C908 1.393 . S
C912 C913 1.401 . S
C912 H922 0.930 . S
C913 C911 1.392 . S
C913 C912 1.401 . S
C913 H923 0.930 . S
C914 O892 1.262 . S
C914 O893 1.260 . S
C915 Tb851 2.833 . S
C915 O890 1.251 . S
C915 O895 1.256 . S
C915 C908 1.500 . S
H916 C899 0.930 . S
H917 C900 0.931 . S
H918 C901 0.930 . S
H919 C902 0.930 . S
H920 C909 0.930 . S
H921 C911 0.931 . S
H922 C912 0.930 . S
H923 C913 0.930 . S
Tb924 N955 2.660 . S
Tb924 N962 2.600 . S
Tb924 O968 2.546 . S
Tb924 O969 2.610 . S
Tb924 O971 2.320 . S
Tb924 O972 2.552 . S
Tb924 O973 2.413 . S
Tb924 O975 2.362 . S
Tb924 O976 2.421 . S
Tb924 C988 2.833 . S
C925 C928 1.432 . S
C925 C929 1.414 . S
C925 N932 1.359 . S
C926 C928 1.417 . S
C926 C930 1.432 . S
C926 C938 1.410 . S
C927 C929 1.444 . S
C927 C930 1.317 . S
C927 H950 0.929 . S
C928 C925 1.432 . S
C928 C926 1.417 . S
C928 N936 1.360 . S
C929 C925 1.414 . S
C929 C927 1.444 . S
C929 C934 1.385 . S
C930 C926 1.432 . S
C930 C927 1.317 . S
C930 H942 0.930 . S
C931 C933 1.392 . S
C931 C934 1.370 . S
C931 H943 0.931 . S
N932 C925 1.359 . S
N932 C933 1.327 . S
N932 Tb935 2.600 . S
C933 C931 1.392 . S
C933 N932 1.327 . S
C933 H940 0.930 . S
C934 C929 1.385 . S
C934 C931 1.370 . S
C934 H953 0.930 . S
Tb935 N932 2.600 . S
Tb935 N936 2.660 . S
Tb935 O969 2.362 . S
Tb935 O970 2.421 . S
Tb935 O974 2.546 . S
Tb935 O975 2.610 . S
Tb935 O977 2.320 . S
Tb935 O978 2.552 . S
Tb935 O979 2.413 . S
Tb935 C999 2.833 . S
N936 C928 1.360 . S
N936 Tb935 2.660 . S
N936 C937 1.305 . S
C937 N936 1.305 . S
C937 C939 1.407 . S
C937 H944 0.930 . S
C938 C926 1.410 . S
C938 C939 1.345 . S
C938 H946 0.930 . S
C939 C937 1.407 . S
C939 C938 1.345 . S
C939 H941 0.930 . S
H940 C933 0.930 . S
H941 C939 0.930 . S
H942 C930 0.930 . S
H943 C931 0.931 . S
H944 C937 0.930 . S
H945 C959 0.930 . S
H946 C938 0.930 . S
H947 C965 0.930 . S
H948 C956 0.930 . S
H949 C963 0.931 . S
H950 C927 0.929 . S
H951 C957 0.930 . S
H952 C990 0.930 . S
H953 C934 0.930 . S
H954 C989 0.929 . S
N955 Tb924 2.660 . S
N955 C956 1.305 . S
N955 C960 1.360 . S
C956 H948 0.930 . S
C956 N955 1.305 . S
C956 C959 1.407 . S
C957 H951 0.930 . S
C957 C958 1.410 . S
C957 C959 1.345 . S
C958 C957 1.410 . S
C958 C960 1.417 . S
C958 C990 1.432 . S
C959 H945 0.930 . S
C959 C956 1.407 . S
C959 C957 1.345 . S
C960 N955 1.360 . S
C960 C958 1.417 . S
C960 C964 1.432 . S
H961 C966 0.930 . S
N962 Tb924 2.600 . S
N962 C964 1.359 . S
N962 C965 1.327 . S
C963 H949 0.931 . S
C963 C965 1.392 . S
C963 C966 1.370 . S
C964 C960 1.432 . S
C964 N962 1.359 . S
C964 C967 1.414 . S
C965 H947 0.930 . S
C965 N962 1.327 . S
C965 C963 1.392 . S
C966 H961 0.930 . S
C966 C963 1.370 . S
C966 C967 1.385 . S
C967 C964 1.414 . S
C967 C966 1.385 . S
C967 C989 1.444 . S
O968 Tb924 2.546 . S
O968 C988 1.251 . S
O969 Tb924 2.610 . S
O969 Tb935 2.362 . S
O969 C980 1.283 . S
O970 Tb935 2.421 . S
O970 C987 1.262 . S
O971 Tb924 2.320 . S
O971 C987 1.260 . S
O972 Tb924 2.552 . S
O972 C980 1.243 . S
O973 Tb924 2.413 . S
O973 C988 1.256 . S
O974 Tb935 2.546 . S
O974 C999 1.251 . S
O975 Tb924 2.362 . S
O975 Tb935 2.610 . S
O975 C991 1.283 . S
O976 Tb924 2.421 . S
O976 C998 1.262 . S
O977 Tb935 2.320 . S
O977 C998 1.260 . S
O978 Tb935 2.552 . S
O978 C991 1.243 . S
O979 Tb935 2.413 . S
O979 C999 1.256 . S
C980 O969 1.283 . S
C980 O972 1.243 . S
C981 C983 1.382 . S
C981 C985 1.393 . S
C981 C988 1.500 . S
C982 C983 1.400 . S
C982 C984 1.384 . S
C983 C981 1.382 . S
C983 C982 1.400 . S
C983 H1000 0.930 . S
C984 C982 1.384 . S
C984 C986 1.392 . S
C984 H1001 0.931 . S
C985 C981 1.393 . S
C985 C986 1.401 . S
C985 H1002 0.930 . S
C986 C984 1.392 . S
C986 C985 1.401 . S
C986 H1003 0.930 . S
C987 O970 1.262 . S
C987 O971 1.260 . S
C988 Tb924 2.833 . S
C988 O968 1.251 . S
C988 O973 1.256 . S
C988 C981 1.500 . S
C989 H954 0.929 . S
C989 C967 1.444 . S
C989 C990 1.317 . S
C990 H952 0.930 . S
C990 C958 1.432 . S
C990 C989 1.317 . S
C991 O975 1.283 . S
C991 O978 1.243 . S
C992 C993 1.382 . S
C992 C996 1.393 . S
C992 C999 1.500 . S
C993 C992 1.382 . S
C993 C994 1.400 . S
C993 H1004 0.930 . S
C994 C993 1.400 . S
C994 C995 1.384 . S
C995 C994 1.384 . S
C995 C997 1.392 . S
C995 H1005 0.931 . S
C996 C992 1.393 . S
C996 C997 1.401 . S
C996 H1006 0.930 . S
C997 C995 1.392 . S
C997 C996 1.401 . S
C997 H1007 0.930 . S
C998 O976 1.262 . S
C998 O977 1.260 . S
C999 Tb935 2.833 . S
C999 O974 1.251 . S
C999 O979 1.256 . S
C999 C992 1.500 . S
H1000 C983 0.930 . S
H1001 C984 0.931 . S
H1002 C985 0.930 . S
H1003 C986 0.930 . S
H1004 C993 0.930 . S
H1005 C995 0.931 . S
H1006 C996 0.930 . S
H1007 C997 0.930 . S
H1008 C1016 0.950 . S
H1009 C1021 0.950 . S
H1010 C1018 0.950 . S
H1011 C1020 0.950 . S
H1012 C1022 0.950 . S
H1013 C1024 0.950 . S
H1014 C1026 0.950 . S
H1015 C1027 0.950 . S
C1016 H1008 0.950 . S
C1016 C1017 1.386 . S
C1016 C1018 1.391 . S
C1017 C1016 1.386 . S
C1017 C1021 1.393 . S
C1018 H1010 0.950 . S
C1018 C1016 1.391 . S
C1018 C1019 1.400 . S
C1019 C1018 1.400 . S
C1019 C1020 1.398 . S
C1019 C1025 1.491 . S
C1020 H1011 0.950 . S
C1020 C1019 1.398 . S
C1020 C1021 1.391 . S
C1021 H1009 0.950 . S
C1021 C1017 1.393 . S
C1021 C1020 1.391 . S
C1022 H1012 0.950 . S
C1022 C1023 1.386 . S
C1022 C1024 1.391 . S
C1023 C1022 1.386 . S
C1023 C1027 1.393 . S
C1024 H1013 0.950 . S
C1024 C1022 1.391 . S
C1024 C1025 1.400 . S
C1025 C1019 1.491 . S
C1025 C1024 1.400 . S
C1025 C1026 1.398 . S
C1026 H1014 0.950 . S
C1026 C1025 1.398 . S
C1026 C1027 1.391 . S
C1027 H1015 0.950 . S
C1027 C1023 1.393 . S
C1027 C1026 1.391 . S
H1028 C1036 0.950 . S
H1029 C1041 0.950 . S
H1030 C1038 0.950 . S
H1031 C1040 0.948 1_545 S
H1032 C1042 0.950 . S
H1033 C1044 0.950 . S
H1034 C1046 0.950 . S
H1035 C1047 0.950 . S
C1036 H1028 0.950 . S
C1036 C1037 1.386 . S
C1036 C1038 1.391 . S
C1037 C1036 1.386 . S
C1037 C1041 1.393 1_565 S
C1038 H1030 0.950 . S
C1038 C1036 1.391 . S
C1038 C1039 1.400 . S
C1039 C1038 1.400 . S
C1039 C1040 1.402 . S
C1039 C1045 1.491 . S
C1040 H1031 0.948 1_565 S
C1040 C1039 1.402 . S
C1040 C1041 1.389 1_565 S
C1041 H1029 0.950 . S
C1041 C1037 1.393 1_545 S
C1041 C1040 1.389 1_545 S
C1042 H1032 0.950 . S
C1042 C1043 1.386 . S
C1042 C1044 1.391 . S
C1043 C1042 1.386 . S
C1043 C1047 1.393 . S
C1044 H1033 0.950 . S
C1044 C1042 1.391 . S
C1044 C1045 1.400 . S
C1045 C1039 1.491 . S
C1045 C1044 1.400 . S
C1045 C1046 1.398 . S
C1046 H1034 0.950 . S
C1046 C1045 1.398 . S
C1046 C1047 1.391 . S
C1047 H1035 0.950 . S
C1047 C1043 1.393 . S
C1047 C1046 1.391 . S
H1048 C1056 0.950 1_556 S
H1049 C1061 0.950 . S
H1050 C1058 0.950 . S
H1051 C1060 0.950 . S
H1052 C1062 0.950 . S
H1053 C1064 0.950 . S
H1054 C1066 0.950 . S
H1055 C1067 0.950 . S
C1056 H1048 0.950 1_554 S
C1056 C1057 1.386 . S
C1056 C1058 1.391 . S
C1057 C1056 1.386 . S
C1057 C1061 1.393 . S
C1058 H1050 0.950 . S
C1058 C1056 1.391 . S
C1058 C1059 1.400 . S
C1059 C1058 1.400 . S
C1059 C1060 1.398 . S
C1059 C1065 1.491 . S
C1060 H1051 0.950 . S
C1060 C1059 1.398 . S
C1060 C1061 1.391 . S
C1061 H1049 0.950 . S
C1061 C1057 1.393 . S
C1061 C1060 1.391 . S
C1062 H1052 0.950 . S
C1062 C1063 1.386 . S
C1062 C1064 1.391 . S
C1063 C1062 1.386 . S
C1063 C1067 1.393 . S
C1064 H1053 0.950 . S
C1064 C1062 1.391 . S
C1064 C1065 1.400 . S
C1065 C1059 1.491 . S
C1065 C1064 1.400 . S
C1065 C1066 1.398 . S
C1066 H1054 0.950 . S
C1066 C1065 1.398 . S
C1066 C1067 1.391 . S
C1067 H1055 0.950 . S
C1067 C1063 1.393 . S
C1067 C1066 1.391 . S
H1068 C1076 0.950 . S
H1069 C1081 0.950 . S
H1070 C1078 0.950 . S
H1071 C1080 0.950 . S
H1072 C1082 0.950 . S
H1073 C1084 0.950 . S
H1074 C1086 0.950 1_565 S
H1075 C1087 0.950 . S
C1076 H1068 0.950 . S
C1076 C1077 1.386 . S
C1076 C1078 1.391 . S
C1077 C1076 1.386 . S
C1077 C1081 1.393 . S
C1078 H1070 0.950 . S
C1078 C1076 1.391 . S
C1078 C1079 1.400 . S
C1079 C1078 1.400 . S
C1079 C1080 1.398 . S
C1079 C1085 1.491 . S
C1080 H1071 0.950 . S
C1080 C1079 1.398 . S
C1080 C1081 1.391 . S
C1081 H1069 0.950 . S
C1081 C1077 1.393 . S
C1081 C1080 1.391 . S
C1082 H1072 0.950 . S
C1082 C1083 1.386 . S
C1082 C1084 1.391 . S
C1083 C1082 1.386 . S
C1083 C1087 1.393 1_545 S
C1084 H1073 0.950 . S
C1084 C1082 1.391 . S
C1084 C1085 1.400 . S
C1085 C1079 1.491 . S
C1085 C1084 1.400 . S
C1085 C1086 1.398 . S
C1086 H1074 0.950 1_545 S
C1086 C1085 1.398 . S
C1086 C1087 1.391 1_545 S
C1087 H1075 0.950 . S
C1087 C1083 1.393 1_565 S
C1087 C1086 1.391 1_565 S
H1088 C1096 0.950 . S
H1089 C1101 0.950 . S
H1090 C1098 0.950 . S
H1091 C1100 0.950 . S
H1092 C1102 0.950 . S
H1093 C1104 0.950 . S
H1094 C1106 0.950 . S
H1095 C1107 0.950 . S
C1096 H1088 0.950 . S
C1096 C1097 1.386 . S
C1096 C1098 1.391 . S
C1097 C1096 1.386 . S
C1097 C1101 1.393 . S
C1098 H1090 0.950 . S
C1098 C1096 1.391 . S
C1098 C1099 1.400 . S
C1099 C1098 1.400 . S
C1099 C1100 1.398 . S
C1099 C1105 1.491 . S
C1100 H1091 0.950 . S
C1100 C1099 1.398 . S
C1100 C1101 1.391 . S
C1101 H1089 0.950 . S
C1101 C1097 1.393 . S
C1101 C1100 1.391 . S
C1102 H1092 0.950 . S
C1102 C1103 1.386 . S
C1102 C1104 1.391 . S
C1103 C1102 1.386 . S
C1103 C1107 1.393 . S
C1104 H1093 0.950 . S
C1104 C1102 1.391 . S
C1104 C1105 1.400 . S
C1105 C1099 1.491 . S
C1105 C1104 1.400 . S
C1105 C1106 1.398 . S
C1106 H1094 0.950 . S
C1106 C1105 1.398 . S
C1106 C1107 1.391 . S
C1107 H1095 0.950 . S
C1107 C1103 1.393 . S
C1107 C1106 1.391 . S
H1108 C1116 0.950 . S
H1109 C1121 0.950 . S
H1110 C1118 0.950 . S
H1111 C1120 0.950 . S
H1112 C1122 0.950 . S
H1113 C1124 0.950 . S
H1114 C1126 0.950 . S
H1115 C1127 0.950 . S
C1116 H1108 0.950 . S
C1116 C1117 1.386 . S
C1116 C1118 1.391 . S
C1117 C1116 1.386 . S
C1117 C1121 1.393 . S
C1118 H1110 0.950 . S
C1118 C1116 1.391 . S
C1118 C1119 1.400 . S
C1119 C1118 1.400 . S
C1119 C1120 1.398 . S
C1119 C1125 1.491 . S
C1120 H1111 0.950 . S
C1120 C1119 1.398 . S
C1120 C1121 1.391 . S
C1121 H1109 0.950 . S
C1121 C1117 1.393 . S
C1121 C1120 1.391 . S
C1122 H1112 0.950 . S
C1122 C1123 1.386 . S
C1122 C1124 1.391 . S
C1123 C1122 1.386 . S
C1123 C1127 1.393 . S
C1124 H1113 0.950 . S
C1124 C1122 1.391 . S
C1124 C1125 1.400 . S
C1125 C1119 1.491 . S
C1125 C1124 1.400 . S
C1125 C1126 1.398 . S
C1126 H1114 0.950 . S
C1126 C1125 1.398 . S
C1126 C1127 1.391 . S
C1127 H1115 0.950 . S
C1127 C1123 1.393 . S
C1127 C1126 1.391 . S
H1128 C1136 0.950 . S
H1129 C1141 0.950 . S
H1130 C1138 0.950 . S
H1131 C1140 0.950 . S
H1132 C1142 0.950 . S
H1133 C1144 0.950 . S
H1134 C1146 0.950 . S
H1135 C1147 0.950 . S
C1136 H1128 0.950 . S
C1136 C1137 1.386 . S
C1136 C1138 1.391 . S
C1137 C1136 1.386 . S
C1137 C1141 1.393 . S
C1138 H1130 0.950 . S
C1138 C1136 1.391 . S
C1138 C1139 1.400 . S
C1139 C1138 1.400 . S
C1139 C1140 1.398 . S
C1139 C1145 1.491 . S
C1140 H1131 0.950 . S
C1140 C1139 1.398 . S
C1140 C1141 1.391 . S
C1141 H1129 0.950 . S
C1141 C1137 1.393 . S
C1141 C1140 1.391 . S
C1142 H1132 0.950 . S
C1142 C1143 1.386 . S
C1142 C1144 1.391 . S
C1143 C1142 1.386 . S
C1143 C1147 1.393 . S
C1144 H1133 0.950 . S
C1144 C1142 1.391 . S
C1144 C1145 1.400 . S
C1145 C1139 1.491 . S
C1145 C1144 1.400 . S
C1145 C1146 1.398 . S
C1146 H1134 0.950 . S
C1146 C1145 1.398 . S
C1146 C1147 1.391 . S
C1147 H1135 0.950 . S
C1147 C1143 1.393 . S
C1147 C1146 1.391 . S
H1148 C1156 0.950 . S
H1149 C1161 0.950 . S
H1150 C1158 0.950 . S
H1151 C1160 0.950 . S
H1152 C1162 0.950 . S
H1153 C1164 0.950 . S
H1154 C1166 0.950 . S
H1155 C1167 0.950 . S
C1156 H1148 0.950 . S
C1156 C1157 1.386 . S
C1156 C1158 1.391 . S
C1157 C1156 1.386 . S
C1157 C1161 1.393 . S
C1158 H1150 0.950 . S
C1158 C1156 1.391 . S
C1158 C1159 1.400 . S
C1159 C1158 1.400 . S
C1159 C1160 1.398 . S
C1159 C1165 1.491 . S
C1160 H1151 0.950 . S
C1160 C1159 1.398 . S
C1160 C1161 1.391 . S
C1161 H1149 0.950 . S
C1161 C1157 1.393 . S
C1161 C1160 1.391 . S
C1162 H1152 0.950 . S
C1162 C1163 1.386 . S
C1162 C1164 1.391 . S
C1163 C1162 1.386 . S
C1163 C1167 1.393 . S
C1164 H1153 0.950 . S
C1164 C1162 1.391 . S
C1164 C1165 1.400 . S
C1165 C1159 1.491 . S
C1165 C1164 1.400 . S
C1165 C1166 1.398 . S
C1166 H1154 0.950 . S
C1166 C1165 1.398 . S
C1166 C1167 1.391 . S
C1167 H1155 0.950 . S
C1167 C1163 1.393 . S
C1167 C1166 1.391 . S
H1168 C1176 0.950 . S
H1169 C1181 0.950 . S
H1170 C1178 0.950 . S
H1171 C1180 0.950 . S
H1172 C1182 0.950 . S
H1173 C1184 0.950 . S
H1174 C1186 0.950 . S
H1175 C1187 0.950 . S
C1176 H1168 0.950 . S
C1176 C1177 1.386 . S
C1176 C1178 1.391 . S
C1177 C1176 1.386 . S
C1177 C1181 1.393 . S
C1178 H1170 0.950 . S
C1178 C1176 1.391 . S
C1178 C1179 1.400 . S
C1179 C1178 1.400 . S
C1179 C1180 1.398 . S
C1179 C1185 1.491 . S
C1180 H1171 0.950 . S
C1180 C1179 1.398 . S
C1180 C1181 1.391 . S
C1181 H1169 0.950 . S
C1181 C1177 1.393 . S
C1181 C1180 1.391 . S
C1182 H1172 0.950 . S
C1182 C1183 1.386 . S
C1182 C1184 1.391 . S
C1183 C1182 1.386 . S
C1183 C1187 1.393 . S
C1184 H1173 0.950 . S
C1184 C1182 1.391 . S
C1184 C1185 1.400 . S
C1185 C1179 1.491 . S
C1185 C1184 1.400 . S
C1185 C1186 1.398 . S
C1186 H1174 0.950 . S
C1186 C1185 1.398 . S
C1186 C1187 1.391 . S
C1187 H1175 0.950 . S
C1187 C1183 1.393 . S
C1187 C1186 1.391 . S
H1188 C1196 0.950 . S
H1189 C1201 0.950 . S
H1190 C1198 0.950 . S
H1191 C1200 0.950 . S
H1192 C1202 0.950 . S
H1193 C1204 0.950 . S
H1194 C1206 0.962 . S
H1195 C1207 0.935 1_655 S
C1196 H1188 0.950 . S
C1196 C1197 1.386 . S
C1196 C1198 1.391 . S
C1197 C1196 1.386 . S
C1197 C1201 1.393 . S
C1198 H1190 0.950 . S
C1198 C1196 1.391 . S
C1198 C1199 1.400 . S
C1199 C1198 1.400 . S
C1199 C1200 1.398 . S
C1199 C1205 1.491 . S
C1200 H1191 0.950 . S
C1200 C1199 1.398 . S
C1200 C1201 1.391 . S
C1201 H1189 0.950 . S
C1201 C1197 1.393 . S
C1201 C1200 1.391 . S
C1202 H1192 0.950 . S
C1202 C1203 1.386 . S
C1202 C1204 1.391 . S
C1203 C1202 1.386 . S
C1203 C1207 1.402 . S
C1204 H1193 0.950 . S
C1204 C1202 1.391 . S
C1204 C1205 1.400 . S
C1205 C1199 1.491 . S
C1205 C1204 1.400 . S
C1205 C1206 1.398 . S
C1206 H1194 0.962 . S
C1206 C1205 1.398 . S
C1206 C1207 1.397 . S
C1207 H1195 0.935 1_455 S
C1207 C1203 1.402 . S
C1207 C1206 1.397 . S
H1208 C1216 0.950 . S
H1209 C1221 0.950 . S
H1210 C1218 0.950 . S
H1211 C1220 0.950 1_455 S
H1212 C1222 0.950 . S
H1213 C1224 0.950 . S
H1214 C1226 0.950 . S
H1215 C1227 0.950 . S
C1216 H1208 0.950 . S
C1216 C1217 1.386 . S
C1216 C1218 1.391 . S
C1217 C1216 1.386 . S
C1217 C1221 1.393 1_655 S
C1218 H1210 0.950 . S
C1218 C1216 1.391 . S
C1218 C1219 1.400 . S
C1219 C1218 1.400 . S
C1219 C1220 1.398 . S
C1219 C1225 1.491 . S
C1220 H1211 0.950 1_655 S
C1220 C1219 1.398 . S
C1220 C1221 1.391 1_655 S
C1221 H1209 0.950 . S
C1221 C1217 1.393 1_455 S
C1221 C1220 1.391 1_455 S
C1222 H1212 0.950 . S
C1222 C1223 1.386 . S
C1222 C1224 1.391 . S
C1223 C1222 1.386 . S
C1223 C1227 1.393 . S
C1224 H1213 0.950 . S
C1224 C1222 1.391 . S
C1224 C1225 1.400 . S
C1225 C1219 1.491 . S
C1225 C1224 1.400 . S
C1225 C1226 1.398 . S
C1226 H1214 0.950 . S
C1226 C1225 1.398 . S
C1226 C1227 1.391 . S
C1227 H1215 0.950 . S
C1227 C1223 1.393 . S
C1227 C1226 1.391 . S
H1228 C1236 0.950 . S
H1229 C1241 0.950 . S
H1230 C1238 0.950 . S
H1231 C1240 0.950 . S
H1232 C1242 0.950 . S
H1233 C1244 0.950 . S
H1234 C1246 0.950 . S
H1235 C1247 0.950 . S
C1236 H1228 0.950 . S
C1236 C1237 1.386 . S
C1236 C1238 1.391 . S
C1237 C1236 1.386 . S
C1237 C1241 1.393 . S
C1238 H1230 0.950 . S
C1238 C1236 1.391 . S
C1238 C1239 1.400 . S
C1239 C1238 1.400 . S
C1239 C1240 1.398 . S
C1239 C1245 1.491 . S
C1240 H1231 0.950 . S
C1240 C1239 1.398 . S
C1240 C1241 1.391 . S
C1241 H1229 0.950 . S
C1241 C1237 1.393 . S
C1241 C1240 1.391 . S
C1242 H1232 0.950 . S
C1242 C1243 1.386 . S
C1242 C1244 1.391 . S
C1243 C1242 1.386 . S
C1243 C1247 1.393 . S
C1244 H1233 0.950 . S
C1244 C1242 1.391 . S
C1244 C1245 1.400 . S
C1245 C1239 1.491 . S
C1245 C1244 1.400 . S
C1245 C1246 1.398 . S
C1246 H1234 0.950 . S
C1246 C1245 1.398 . S
C1246 C1247 1.391 . S
C1247 H1235 0.950 . S
C1247 C1243 1.393 . S
C1247 C1246 1.391 . S
H1248 C1256 0.950 . S
H1249 C1261 0.950 . S
H1250 C1258 0.950 . S
H1251 C1260 0.950 . S
H1252 C1262 0.950 . S
H1253 C1264 0.950 . S
H1254 C1266 0.950 . S
H1255 C1267 0.950 . S
C1256 H1248 0.950 . S
C1256 C1257 1.386 . S
C1256 C1258 1.391 . S
C1257 C1256 1.386 . S
C1257 C1261 1.393 . S
C1258 H1250 0.950 . S
C1258 C1256 1.391 . S
C1258 C1259 1.400 . S
C1259 C1258 1.400 . S
C1259 C1260 1.398 . S
C1259 C1265 1.491 . S
C1260 H1251 0.950 . S
C1260 C1259 1.398 . S
C1260 C1261 1.391 . S
C1261 H1249 0.950 . S
C1261 C1257 1.393 . S
C1261 C1260 1.391 . S
C1262 H1252 0.950 . S
C1262 C1263 1.386 . S
C1262 C1264 1.391 . S
C1263 C1262 1.386 . S
C1263 C1267 1.393 . S
C1264 H1253 0.950 . S
C1264 C1262 1.391 . S
C1264 C1265 1.400 . S
C1265 C1259 1.491 . S
C1265 C1264 1.400 . S
C1265 C1266 1.398 . S
C1266 H1254 0.950 . S
C1266 C1265 1.398 . S
C1266 C1267 1.391 . S
C1267 H1255 0.950 . S
C1267 C1263 1.393 . S
C1267 C1266 1.391 . S
H1268 C1276 0.950 . S
H1269 C1281 0.950 . S
H1270 C1278 0.950 . S
H1271 C1280 0.950 . S
H1272 C1282 0.950 1_545 S
H1273 C1284 0.950 . S
H1274 C1286 0.950 . S
H1275 C1287 0.950 . S
C1276 H1268 0.950 . S
C1276 C1277 1.386 . S
C1276 C1278 1.391 . S
C1277 C1276 1.386 . S
C1277 C1281 1.393 . S
C1278 H1270 0.950 . S
C1278 C1276 1.391 . S
C1278 C1279 1.400 . S
C1279 C1278 1.400 . S
C1279 C1280 1.398 . S
C1279 C1285 1.491 . S
C1280 H1271 0.950 . S
C1280 C1279 1.398 . S
C1280 C1281 1.391 . S
C1281 H1269 0.950 . S
C1281 C1277 1.393 . S
C1281 C1280 1.391 . S
C1282 H1272 0.950 1_565 S
C1282 C1283 1.386 . S
C1282 C1284 1.391 . S
C1283 C1282 1.386 . S
C1283 C1287 1.393 . S
C1284 H1273 0.950 . S
C1284 C1282 1.391 . S
C1284 C1285 1.400 . S
C1285 C1279 1.491 . S
C1285 C1284 1.400 . S
C1285 C1286 1.398 . S
C1286 H1274 0.950 . S
C1286 C1285 1.398 . S
C1286 C1287 1.391 . S
C1287 H1275 0.950 . S
C1287 C1283 1.393 . S
C1287 C1286 1.391 . S
H1288 C1296 0.950 . S
H1289 C1301 0.950 . S
H1290 C1298 0.950 . S
H1291 C1300 0.950 . S
H1292 C1302 0.950 . S
H1293 C1304 0.950 . S
H1294 C1306 0.950 . S
H1295 C1307 0.950 . S
C1296 H1288 0.950 . S
C1296 C1297 1.386 . S
C1296 C1298 1.391 . S
C1297 C1296 1.386 . S
C1297 C1301 1.393 . S
C1298 H1290 0.950 . S
C1298 C1296 1.391 . S
C1298 C1299 1.400 . S
C1299 C1298 1.400 . S
C1299 C1300 1.398 . S
C1299 C1305 1.491 . S
C1300 H1291 0.950 . S
C1300 C1299 1.398 . S
C1300 C1301 1.391 . S
C1301 H1289 0.950 . S
C1301 C1297 1.393 . S
C1301 C1300 1.391 . S
C1302 H1292 0.950 . S
C1302 C1303 1.386 . S
C1302 C1304 1.391 . S
C1303 C1302 1.386 . S
C1303 C1307 1.393 . S
C1304 H1293 0.950 . S
C1304 C1302 1.391 . S
C1304 C1305 1.400 . S
C1305 C1299 1.491 . S
C1305 C1304 1.400 . S
C1305 C1306 1.398 . S
C1306 H1294 0.950 . S
C1306 C1305 1.398 . S
C1306 C1307 1.391 . S
C1307 H1295 0.950 . S
C1307 C1303 1.393 . S
C1307 C1306 1.391 . S
H1308 C1316 0.950 . S
H1309 C1321 0.950 . S
H1310 C1318 0.950 . S
H1311 C1320 0.950 . S
H1312 C1322 0.950 . S
H1313 C1324 0.950 . S
H1314 C1326 0.950 . S
H1315 C1327 0.950 . S
C1316 H1308 0.950 . S
C1316 C1317 1.386 . S
C1316 C1318 1.391 . S
C1317 C1316 1.386 . S
C1317 C1321 1.393 . S
C1318 H1310 0.950 . S
C1318 C1316 1.391 . S
C1318 C1319 1.400 . S
C1319 C1318 1.400 . S
C1319 C1320 1.398 . S
C1319 C1325 1.491 . S
C1320 H1311 0.950 . S
C1320 C1319 1.398 . S
C1320 C1321 1.391 . S
C1321 H1309 0.950 . S
C1321 C1317 1.393 . S
C1321 C1320 1.391 . S
C1322 H1312 0.950 . S
C1322 C1323 1.386 . S
C1322 C1324 1.391 1_556 S
C1323 C1322 1.386 . S
C1323 C1327 1.393 . S
C1324 H1313 0.950 . S
C1324 C1322 1.391 1_554 S
C1324 C1325 1.400 . S
C1325 C1319 1.491 . S
C1325 C1324 1.400 . S
C1325 C1326 1.398 1_554 S
C1326 H1314 0.950 . S
C1326 C1325 1.398 1_556 S
C1326 C1327 1.391 . S
C1327 H1315 0.950 . S
C1327 C1323 1.393 . S
C1327 C1326 1.391 . S
H1328 C1336 0.950 . S
H1329 C1341 0.950 . S
H1330 C1338 0.950 . S
H1331 C1340 0.950 . S
H1332 C1342 0.950 . S
H1333 C1344 0.950 . S
H1334 C1346 0.950 . S
H1335 C1347 0.950 . S
C1336 H1328 0.950 . S
C1336 C1337 1.386 . S
C1336 C1338 1.391 . S
C1337 C1336 1.386 . S
C1337 C1341 1.393 . S
C1338 H1330 0.950 . S
C1338 C1336 1.391 . S
C1338 C1339 1.400 . S
C1339 C1338 1.400 . S
C1339 C1340 1.398 . S
C1339 C1345 1.491 . S
C1340 H1331 0.950 . S
C1340 C1339 1.398 . S
C1340 C1341 1.391 . S
C1341 H1329 0.950 . S
C1341 C1337 1.393 . S
C1341 C1340 1.391 . S
C1342 H1332 0.950 . S
C1342 C1343 1.386 . S
C1342 C1344 1.391 . S
C1343 C1342 1.386 . S
C1343 C1347 1.393 . S
C1344 H1333 0.950 . S
C1344 C1342 1.391 . S
C1344 C1345 1.400 . S
C1345 C1339 1.491 . S
C1345 C1344 1.400 . S
C1345 C1346 1.398 . S
C1346 H1334 0.950 . S
C1346 C1345 1.398 . S
C1346 C1347 1.391 . S
C1347 H1335 0.950 . S
C1347 C1343 1.393 . S
C1347 C1346 1.391 . S
H1348 C1356 0.950 . S
H1349 C1361 0.950 . S
H1350 C1358 0.950 . S
H1351 C1360 0.950 . S
H1352 C1362 0.950 . S
H1353 C1364 0.950 . S
H1354 C1366 0.950 . S
H1355 C1367 0.950 . S
C1356 H1348 0.950 . S
C1356 C1357 1.386 . S
C1356 C1358 1.391 . S
C1357 C1356 1.386 . S
C1357 C1361 1.393 . S
C1358 H1350 0.950 . S
C1358 C1356 1.391 . S
C1358 C1359 1.400 1_554 S
C1359 C1358 1.400 1_556 S
C1359 C1360 1.398 . S
C1359 C1365 1.491 . S
C1360 H1351 0.950 . S
C1360 C1359 1.398 . S
C1360 C1361 1.391 1_556 S
C1361 H1349 0.950 . S
C1361 C1357 1.393 . S
C1361 C1360 1.391 1_554 S
C1362 H1352 0.950 . S
C1362 C1363 1.386 . S
C1362 C1364 1.391 . S
C1363 C1362 1.386 . S
C1363 C1367 1.393 . S
C1364 H1353 0.950 . S
C1364 C1362 1.391 . S
C1364 C1365 1.400 . S
C1365 C1359 1.491 . S
C1365 C1364 1.400 . S
C1365 C1366 1.398 . S
C1366 H1354 0.950 . S
C1366 C1365 1.398 . S
C1366 C1367 1.391 . S
C1367 H1355 0.950 . S
C1367 C1363 1.393 . S
C1367 C1366 1.391 . S
H1368 C1376 0.950 . S
H1369 C1381 0.950 . S
H1370 C1378 0.950 . S
H1371 C1380 0.950 . S
H1372 C1382 0.950 . S
H1373 C1384 0.950 . S
H1374 C1386 0.950 . S
H1375 C1387 0.950 . S
C1376 H1368 0.950 . S
C1376 C1377 1.386 . S
C1376 C1378 1.391 . S
C1377 C1376 1.386 . S
C1377 C1381 1.393 . S
C1378 H1370 0.950 . S
C1378 C1376 1.391 . S
C1378 C1379 1.400 . S
C1379 C1378 1.400 . S
C1379 C1380 1.398 . S
C1379 C1385 1.491 . S
C1380 H1371 0.950 . S
C1380 C1379 1.398 . S
C1380 C1381 1.391 . S
C1381 H1369 0.950 . S
C1381 C1377 1.393 . S
C1381 C1380 1.391 . S
C1382 H1372 0.950 . S
C1382 C1383 1.386 . S
C1382 C1384 1.391 . S
C1383 C1382 1.386 . S
C1383 C1387 1.393 . S
C1384 H1373 0.950 . S
C1384 C1382 1.391 . S
C1384 C1385 1.400 . S
C1385 C1379 1.491 . S
C1385 C1384 1.400 . S
C1385 C1386 1.398 . S
C1386 H1374 0.950 . S
C1386 C1385 1.398 . S
C1386 C1387 1.391 . S
C1387 H1375 0.950 . S
C1387 C1383 1.393 . S
C1387 C1386 1.391 . S
H1388 C1396 0.950 . S
H1389 C1401 0.950 . S
H1390 C1398 0.950 . S
H1391 C1400 0.950 . S
H1392 C1402 0.950 . S
H1393 C1404 0.950 . S
H1394 C1406 0.950 . S
H1395 C1407 0.950 . S
C1396 H1388 0.950 . S
C1396 C1397 1.386 . S
C1396 C1398 1.391 . S
C1397 C1396 1.386 . S
C1397 C1401 1.393 . S
C1398 H1390 0.950 . S
C1398 C1396 1.391 . S
C1398 C1399 1.400 . S
C1399 C1398 1.400 . S
C1399 C1400 1.398 . S
C1399 C1405 1.491 . S
C1400 H1391 0.950 . S
C1400 C1399 1.398 . S
C1400 C1401 1.391 . S
C1401 H1389 0.950 . S
C1401 C1397 1.393 . S
C1401 C1400 1.391 . S
C1402 H1392 0.950 . S
C1402 C1403 1.386 . S
C1402 C1404 1.391 . S
C1403 C1402 1.386 . S
C1403 C1407 1.393 . S
C1404 H1393 0.950 . S
C1404 C1402 1.391 . S
C1404 C1405 1.400 . S
C1405 C1399 1.491 . S
C1405 C1404 1.400 . S
C1405 C1406 1.398 . S
C1406 H1394 0.950 . S
C1406 C1405 1.398 . S
C1406 C1407 1.391 . S
C1407 H1395 0.950 . S
C1407 C1403 1.393 . S
C1407 C1406 1.391 . S
H1408 C1416 0.950 . S
H1409 C1421 0.950 . S
H1410 C1418 0.950 . S
H1411 C1420 0.950 . S
H1412 C1422 0.950 . S
H1413 C1424 0.950 . S
H1414 C1426 0.950 . S
H1415 C1427 0.950 . S
C1416 H1408 0.950 . S
C1416 C1417 1.386 . S
C1416 C1418 1.391 . S
C1417 C1416 1.386 . S
C1417 C1421 1.393 . S
C1418 H1410 0.950 . S
C1418 C1416 1.391 . S
C1418 C1419 1.400 . S
C1419 C1418 1.400 . S
C1419 C1420 1.398 . S
C1419 C1425 1.491 . S
C1420 H1411 0.950 . S
C1420 C1419 1.398 . S
C1420 C1421 1.391 . S
C1421 H1409 0.950 . S
C1421 C1417 1.393 . S
C1421 C1420 1.391 . S
C1422 H1412 0.950 . S
C1422 C1423 1.386 . S
C1422 C1424 1.391 . S
C1423 C1422 1.386 . S
C1423 C1427 1.393 . S
C1424 H1413 0.950 . S
C1424 C1422 1.391 . S
C1424 C1425 1.400 . S
C1425 C1419 1.491 . S
C1425 C1424 1.400 . S
C1425 C1426 1.398 . S
C1426 H1414 0.950 . S
C1426 C1425 1.398 . S
C1426 C1427 1.391 . S
C1427 H1415 0.950 . S
C1427 C1423 1.393 . S
C1427 C1426 1.391 . S
H1428 C1436 0.950 . S
H1429 C1441 0.950 . S
H1430 C1438 0.950 . S
H1431 C1440 0.950 . S
H1432 C1442 0.950 . S
H1433 C1444 0.950 . S
H1434 C1446 0.950 . S
H1435 C1447 0.950 . S
C1436 H1428 0.950 . S
C1436 C1437 1.386 . S
C1436 C1438 1.391 . S
C1437 C1436 1.386 . S
C1437 C1441 1.393 . S
C1438 H1430 0.950 . S
C1438 C1436 1.391 . S
C1438 C1439 1.400 . S
C1439 C1438 1.400 . S
C1439 C1440 1.398 . S
C1439 C1445 1.491 . S
C1440 H1431 0.950 . S
C1440 C1439 1.398 . S
C1440 C1441 1.391 . S
C1441 H1429 0.950 . S
C1441 C1437 1.393 . S
C1441 C1440 1.391 . S
C1442 H1432 0.950 . S
C1442 C1443 1.386 . S
C1442 C1444 1.391 . S
C1443 C1442 1.386 . S
C1443 C1447 1.393 . S
C1444 H1433 0.950 . S
C1444 C1442 1.391 . S
C1444 C1445 1.400 1_565 S
C1445 C1439 1.491 . S
C1445 C1444 1.400 1_545 S
C1445 C1446 1.398 . S
C1446 H1434 0.950 . S
C1446 C1445 1.398 . S
C1446 C1447 1.391 1_545 S
C1447 H1435 0.950 . S
C1447 C1443 1.393 . S
C1447 C1446 1.391 1_565 S
H1448 C1456 0.950 . S
H1449 C1461 0.950 . S
H1450 C1458 0.950 . S
H1451 C1460 0.950 . S
H1452 C1462 0.950 . S
H1453 C1464 0.950 . S
H1454 C1466 0.950 . S
H1455 C1467 0.950 . S
C1456 H1448 0.950 . S
C1456 C1457 1.386 . S
C1456 C1458 1.391 . S
C1457 C1456 1.386 . S
C1457 C1461 1.393 . S
C1458 H1450 0.950 . S
C1458 C1456 1.391 . S
C1458 C1459 1.400 . S
C1459 C1458 1.400 . S
C1459 C1460 1.398 . S
C1459 C1465 1.491 . S
C1460 H1451 0.950 . S
C1460 C1459 1.398 . S
C1460 C1461 1.391 . S
C1461 H1449 0.950 . S
C1461 C1457 1.393 . S
C1461 C1460 1.391 . S
C1462 H1452 0.950 . S
C1462 C1463 1.386 . S
C1462 C1464 1.391 . S
C1463 C1462 1.386 . S
C1463 C1467 1.393 . S
C1464 H1453 0.950 . S
C1464 C1462 1.391 . S
C1464 C1465 1.400 . S
C1465 C1459 1.491 . S
C1465 C1464 1.400 . S
C1465 C1466 1.398 . S
C1466 H1454 0.950 . S
C1466 C1465 1.398 . S
C1466 C1467 1.391 . S
C1467 H1455 0.950 . S
C1467 C1463 1.393 . S
C1467 C1466 1.391 . S
H1468 C1476 0.950 . S
H1469 C1481 0.950 . S
H1470 C1478 0.933 1_565 S
H1471 C1480 0.950 . S
H1472 C1482 0.950 . S
H1473 C1484 0.950 . S
H1474 C1486 0.950 . S
H1475 C1487 0.950 . S
C1476 H1468 0.950 . S
C1476 C1477 1.386 . S
C1476 C1478 1.412 . S
C1477 C1476 1.386 . S
C1477 C1481 1.393 . S
C1478 H1470 0.933 1_545 S
C1478 C1476 1.412 . S
C1478 C1479 1.396 1_545 S
C1479 C1478 1.396 1_565 S
C1479 C1480 1.398 1_565 S
C1479 C1485 1.491 . S
C1480 H1471 0.950 . S
C1480 C1479 1.398 1_545 S
C1480 C1481 1.391 . S
C1481 H1469 0.950 . S
C1481 C1477 1.393 . S
C1481 C1480 1.391 . S
C1482 H1472 0.950 . S
C1482 C1483 1.386 . S
C1482 C1484 1.391 . S
C1483 C1482 1.386 . S
C1483 C1487 1.393 . S
C1484 H1473 0.950 . S
C1484 C1482 1.391 . S
C1484 C1485 1.400 . S
C1485 C1479 1.491 . S
C1485 C1484 1.400 . S
C1485 C1486 1.398 . S
C1486 H1474 0.950 . S
C1486 C1485 1.398 . S
C1486 C1487 1.391 . S
C1487 H1475 0.950 . S
C1487 C1483 1.393 . S
C1487 C1486 1.391 . S
H1488 C1496 0.950 . S
H1489 C1501 0.950 . S
H1490 C1498 0.950 . S
H1491 C1500 0.950 . S
H1492 C1502 0.950 . S
H1493 C1504 0.950 . S
H1494 C1506 0.950 . S
H1495 C1507 0.950 . S
C1496 H1488 0.950 . S
C1496 C1497 1.386 . S
C1496 C1498 1.391 . S
C1497 C1496 1.386 . S
C1497 C1501 1.393 . S
C1498 H1490 0.950 . S
C1498 C1496 1.391 . S
C1498 C1499 1.400 . S
C1499 C1498 1.400 . S
C1499 C1500 1.398 . S
C1499 C1505 1.491 . S
C1500 H1491 0.950 . S
C1500 C1499 1.398 . S
C1500 C1501 1.391 . S
C1501 H1489 0.950 . S
C1501 C1497 1.393 . S
C1501 C1500 1.391 . S
C1502 H1492 0.950 . S
C1502 C1503 1.386 . S
C1502 C1504 1.391 . S
C1503 C1502 1.386 . S
C1503 C1507 1.393 . S
C1504 H1493 0.950 . S
C1504 C1502 1.391 . S
C1504 C1505 1.400 . S
C1505 C1499 1.491 . S
C1505 C1504 1.400 . S
C1505 C1506 1.398 . S
C1506 H1494 0.950 . S
C1506 C1505 1.398 . S
C1506 C1507 1.391 . S
C1507 H1495 0.950 . S
C1507 C1503 1.393 . S
C1507 C1506 1.391 . S
H1508 C1516 0.950 . S
H1509 C1521 0.950 . S
H1510 C1518 0.950 . S
H1511 C1520 0.950 . S
H1512 C1522 0.950 . S
H1513 C1524 0.950 . S
H1514 C1526 0.950 . S
H1515 C1527 0.950 . S
C1516 H1508 0.950 . S
C1516 C1517 1.386 . S
C1516 C1518 1.391 . S
C1517 C1516 1.386 . S
C1517 C1521 1.393 . S
C1518 H1510 0.950 . S
C1518 C1516 1.391 . S
C1518 C1519 1.400 . S
C1519 C1518 1.400 . S
C1519 C1520 1.398 . S
C1519 C1525 1.491 . S
C1520 H1511 0.950 . S
C1520 C1519 1.398 . S
C1520 C1521 1.391 . S
C1521 H1509 0.950 . S
C1521 C1517 1.393 . S
C1521 C1520 1.391 . S
C1522 H1512 0.950 . S
C1522 C1523 1.386 . S
C1522 C1524 1.391 . S
C1523 C1522 1.386 . S
C1523 C1527 1.393 . S
C1524 H1513 0.950 . S
C1524 C1522 1.391 . S
C1524 C1525 1.400 . S
C1525 C1519 1.491 . S
C1525 C1524 1.400 . S
C1525 C1526 1.398 . S
C1526 H1514 0.950 . S
C1526 C1525 1.398 . S
C1526 C1527 1.391 . S
C1527 H1515 0.950 . S
C1527 C1523 1.393 . S
C1527 C1526 1.391 . S
H1528 C1536 0.950 . S
H1529 C1541 0.950 . S
H1530 C1538 0.950 . S
H1531 C1540 0.950 . S
H1532 C1542 0.950 . S
H1533 C1544 0.950 . S
H1534 C1546 0.950 . S
H1535 C1547 0.950 . S
C1536 H1528 0.950 . S
C1536 C1537 1.386 . S
C1536 C1538 1.391 . S
C1537 C1536 1.386 . S
C1537 C1541 1.393 . S
C1538 H1530 0.950 . S
C1538 C1536 1.391 . S
C1538 C1539 1.400 . S
C1539 C1538 1.400 . S
C1539 C1540 1.398 . S
C1539 C1545 1.491 . S
C1540 H1531 0.950 . S
C1540 C1539 1.398 . S
C1540 C1541 1.391 . S
C1541 H1529 0.950 . S
C1541 C1537 1.393 . S
C1541 C1540 1.391 . S
C1542 H1532 0.950 . S
C1542 C1543 1.386 . S
C1542 C1544 1.391 . S
C1543 C1542 1.386 . S
C1543 C1547 1.393 . S
C1544 H1533 0.950 . S
C1544 C1542 1.391 . S
C1544 C1545 1.400 . S
C1545 C1539 1.491 . S
C1545 C1544 1.400 . S
C1545 C1546 1.398 . S
C1546 H1534 0.950 . S
C1546 C1545 1.398 . S
C1546 C1547 1.391 . S
C1547 H1535 0.950 . S
C1547 C1543 1.393 . S
C1547 C1546 1.391 . S
H1548 C1556 0.950 . S
H1549 C1561 0.950 . S
H1550 C1558 0.950 . S
H1551 C1560 0.950 . S
H1552 C1562 0.950 . S
H1553 C1564 0.950 . S
H1554 C1566 0.950 . S
H1555 C1567 0.950 . S
C1556 H1548 0.950 . S
C1556 C1557 1.386 . S
C1556 C1558 1.391 . S
C1557 C1556 1.386 . S
C1557 C1561 1.393 . S
C1558 H1550 0.950 . S
C1558 C1556 1.391 . S
C1558 C1559 1.400 . S
C1559 C1558 1.400 . S
C1559 C1560 1.398 . S
C1559 C1565 1.491 . S
C1560 H1551 0.950 . S
C1560 C1559 1.398 . S
C1560 C1561 1.391 . S
C1561 H1549 0.950 . S
C1561 C1557 1.393 . S
C1561 C1560 1.391 . S
C1562 H1552 0.950 . S
C1562 C1563 1.386 . S
C1562 C1564 1.391 . S
C1563 C1562 1.386 . S
C1563 C1567 1.393 . S
C1564 H1553 0.950 . S
C1564 C1562 1.391 . S
C1564 C1565 1.400 . S
C1565 C1559 1.491 . S
C1565 C1564 1.400 . S
C1565 C1566 1.398 . S
C1566 H1554 0.950 . S
C1566 C1565 1.398 . S
C1566 C1567 1.391 . S
C1567 H1555 0.950 . S
C1567 C1563 1.393 . S
C1567 C1566 1.391 . S
H1568 C1576 0.950 . S
H1569 C1581 0.950 . S
H1570 C1578 0.950 . S
H1571 C1580 0.950 . S
H1572 C1582 0.950 . S
H1573 C1584 0.950 . S
H1574 C1586 0.950 . S
H1575 C1587 0.950 . S
C1576 H1568 0.950 . S
C1576 C1577 1.386 . S
C1576 C1578 1.391 . S
C1577 C1576 1.386 . S
C1577 C1581 1.393 . S
C1578 H1570 0.950 . S
C1578 C1576 1.391 . S
C1578 C1579 1.400 . S
C1579 C1578 1.400 . S
C1579 C1580 1.398 . S
C1579 C1585 1.491 . S
C1580 H1571 0.950 . S
C1580 C1579 1.398 . S
C1580 C1581 1.391 . S
C1581 H1569 0.950 . S
C1581 C1577 1.393 . S
C1581 C1580 1.391 . S
C1582 H1572 0.950 . S
C1582 C1583 1.386 . S
C1582 C1584 1.391 . S
C1583 C1582 1.386 . S
C1583 C1587 1.393 . S
C1584 H1573 0.950 . S
C1584 C1582 1.391 . S
C1584 C1585 1.400 . S
C1585 C1579 1.491 . S
C1585 C1584 1.400 . S
C1585 C1586 1.398 . S
C1586 H1574 0.950 . S
C1586 C1585 1.398 . S
C1586 C1587 1.391 . S
C1587 H1575 0.950 . S
C1587 C1583 1.393 . S
C1587 C1586 1.391 . S
H1588 C1596 0.950 . S
H1589 C1601 0.950 . S
H1590 C1598 0.950 . S
H1591 C1600 0.950 . S
H1592 C1602 0.950 . S
H1593 C1604 0.950 . S
H1594 C1606 0.950 . S
H1595 C1607 0.950 . S
C1596 H1588 0.950 . S
C1596 C1597 1.386 . S
C1596 C1598 1.391 . S
C1597 C1596 1.386 . S
C1597 C1601 1.393 . S
C1598 H1590 0.950 . S
C1598 C1596 1.391 . S
C1598 C1599 1.400 . S
C1599 C1598 1.400 . S
C1599 C1600 1.398 . S
C1599 C1605 1.491 . S
C1600 H1591 0.950 . S
C1600 C1599 1.398 . S
C1600 C1601 1.391 . S
C1601 H1589 0.950 . S
C1601 C1597 1.393 . S
C1601 C1600 1.391 . S
C1602 H1592 0.950 . S
C1602 C1603 1.386 . S
C1602 C1604 1.391 . S
C1603 C1602 1.386 . S
C1603 C1607 1.393 . S
C1604 H1593 0.950 . S
C1604 C1602 1.391 . S
C1604 C1605 1.400 . S
C1605 C1599 1.491 . S
C1605 C1604 1.400 . S
C1605 C1606 1.398 . S
C1606 H1594 0.950 . S
C1606 C1605 1.398 . S
C1606 C1607 1.391 . S
C1607 H1595 0.950 . S
C1607 C1603 1.393 . S
C1607 C1606 1.391 . S
H1608 C1616 0.950 . S
H1609 C1621 0.950 . S
H1610 C1618 0.950 . S
H1611 C1620 0.950 . S
H1612 C1622 0.950 1_556 S
H1613 C1624 0.950 1_455 S
H1614 C1626 0.950 . S
H1615 C1627 0.950 . S
C1616 H1608 0.950 . S
C1616 C1617 1.386 . S
C1616 C1618 1.391 . S
C1617 C1616 1.386 . S
C1617 C1621 1.393 . S
C1618 H1610 0.950 . S
C1618 C1616 1.391 . S
C1618 C1619 1.400 . S
C1619 C1618 1.400 . S
C1619 C1620 1.398 . S
C1619 C1625 1.491 . S
C1620 H1611 0.950 . S
C1620 C1619 1.398 . S
C1620 C1621 1.391 . S
C1621 H1609 0.950 . S
C1621 C1617 1.393 . S
C1621 C1620 1.391 . S
C1622 H1612 0.950 1_554 S
C1622 C1623 1.386 . S
C1622 C1624 1.391 . S
C1623 C1622 1.386 . S
C1623 C1627 1.393 . S
C1624 H1613 0.950 1_655 S
C1624 C1622 1.391 . S
C1624 C1625 1.400 1_655 S
C1625 C1619 1.491 . S
C1625 C1624 1.400 1_455 S
C1625 C1626 1.398 1_455 S
C1626 H1614 0.950 . S
C1626 C1625 1.398 1_655 S
C1626 C1627 1.391 . S
C1627 H1615 0.950 . S
C1627 C1623 1.393 . S
C1627 C1626 1.391 . S
H1628 C1636 0.950 . S
H1629 C1641 0.950 . S
H1630 C1638 0.950 . S
H1631 C1640 0.950 . S
H1632 C1642 0.950 . S
H1633 C1644 0.950 . S
H1634 C1646 0.950 . S
H1635 C1647 0.950 . S
C1636 H1628 0.950 . S
C1636 C1637 1.386 . S
C1636 C1638 1.391 . S
C1637 C1636 1.386 . S
C1637 C1641 1.393 . S
C1638 H1630 0.950 . S
C1638 C1636 1.391 . S
C1638 C1639 1.400 . S
C1639 C1638 1.400 . S
C1639 C1640 1.398 . S
C1639 C1645 1.491 . S
C1640 H1631 0.950 . S
C1640 C1639 1.398 . S
C1640 C1641 1.391 . S
C1641 H1629 0.950 . S
C1641 C1637 1.393 . S
C1641 C1640 1.391 . S
C1642 H1632 0.950 . S
C1642 C1643 1.386 . S
C1642 C1644 1.391 . S
C1643 C1642 1.386 . S
C1643 C1647 1.393 . S
C1644 H1633 0.950 . S
C1644 C1642 1.391 . S
C1644 C1645 1.400 . S
C1645 C1639 1.491 . S
C1645 C1644 1.400 . S
C1645 C1646 1.398 . S
C1646 H1634 0.950 . S
C1646 C1645 1.398 . S
C1646 C1647 1.391 . S
C1647 H1635 0.950 . S
C1647 C1643 1.393 . S
C1647 C1646 1.391 . S
H1648 C1656 0.950 . S
H1649 C1661 0.950 . S
H1650 C1658 0.950 . S
H1651 C1660 0.950 . S
H1652 C1662 0.950 . S
H1653 C1664 0.950 . S
H1654 C1666 0.950 . S
H1655 C1667 0.950 . S
C1656 H1648 0.950 . S
C1656 C1657 1.386 . S
C1656 C1658 1.391 . S
C1657 C1656 1.386 . S
C1657 C1661 1.393 . S
C1658 H1650 0.950 . S
C1658 C1656 1.391 . S
C1658 C1659 1.400 . S
C1659 C1658 1.400 . S
C1659 C1660 1.398 . S
C1659 C1665 1.491 . S
C1660 H1651 0.950 . S
C1660 C1659 1.398 . S
C1660 C1661 1.391 . S
C1661 H1649 0.950 . S
C1661 C1657 1.393 . S
C1661 C1660 1.391 . S
C1662 H1652 0.950 . S
C1662 C1663 1.386 . S
C1662 C1664 1.391 . S
C1663 C1662 1.386 . S
C1663 C1667 1.393 . S
C1664 H1653 0.950 . S
C1664 C1662 1.391 . S
C1664 C1665 1.400 . S
C1665 C1659 1.491 . S
C1665 C1664 1.400 . S
C1665 C1666 1.398 . S
C1666 H1654 0.950 . S
C1666 C1665 1.398 . S
C1666 C1667 1.391 . S
C1667 H1655 0.950 . S
C1667 C1663 1.393 . S
C1667 C1666 1.391 . S
H1668 C1676 0.950 . S
H1669 C1681 0.950 . S
H1670 C1678 0.950 . S
H1671 C1680 0.950 . S
H1672 C1682 0.950 . S
H1673 C1684 0.950 . S
H1674 C1686 0.950 . S
H1675 C1687 0.950 . S
C1676 H1668 0.950 . S
C1676 C1677 1.386 . S
C1676 C1678 1.391 . S
C1677 C1676 1.386 . S
C1677 C1681 1.393 . S
C1678 H1670 0.950 . S
C1678 C1676 1.391 . S
C1678 C1679 1.400 . S
C1679 C1678 1.400 . S
C1679 C1680 1.398 . S
C1679 C1685 1.491 . S
C1680 H1671 0.950 . S
C1680 C1679 1.398 . S
C1680 C1681 1.391 . S
C1681 H1669 0.950 . S
C1681 C1677 1.393 . S
C1681 C1680 1.391 . S
C1682 H1672 0.950 . S
C1682 C1683 1.386 . S
C1682 C1684 1.391 . S
C1683 C1682 1.386 . S
C1683 C1687 1.393 . S
C1684 H1673 0.950 . S
C1684 C1682 1.391 . S
C1684 C1685 1.400 . S
C1685 C1679 1.491 . S
C1685 C1684 1.400 . S
C1685 C1686 1.398 . S
C1686 H1674 0.950 . S
C1686 C1685 1.398 . S
C1686 C1687 1.391 . S
C1687 H1675 0.950 . S
C1687 C1683 1.393 . S
C1687 C1686 1.391 . S
H1688 C1696 0.950 . S
H1689 C1701 0.950 . S
H1690 C1698 0.950 . S
H1691 C1700 0.950 . S
H1692 C1702 0.950 . S
H1693 C1704 0.950 . S
H1694 C1706 0.950 . S
H1695 C1707 0.950 . S
C1696 H1688 0.950 . S
C1696 C1697 1.386 . S
C1696 C1698 1.391 . S
C1697 C1696 1.386 . S
C1697 C1701 1.393 . S
C1698 H1690 0.950 . S
C1698 C1696 1.391 . S
C1698 C1699 1.400 . S
C1699 C1698 1.400 . S
C1699 C1700 1.398 . S
C1699 C1705 1.491 . S
C1700 H1691 0.950 . S
C1700 C1699 1.398 . S
C1700 C1701 1.391 . S
C1701 H1689 0.950 . S
C1701 C1697 1.393 . S
C1701 C1700 1.391 . S
C1702 H1692 0.950 . S
C1702 C1703 1.386 . S
C1702 C1704 1.391 . S
C1703 C1702 1.386 . S
C1703 C1707 1.393 . S
C1704 H1693 0.950 . S
C1704 C1702 1.391 . S
C1704 C1705 1.400 . S
C1705 C1699 1.491 . S
C1705 C1704 1.400 . S
C1705 C1706 1.398 . S
C1706 H1694 0.950 . S
C1706 C1705 1.398 . S
C1706 C1707 1.391 . S
C1707 H1695 0.950 . S
C1707 C1703 1.393 . S
C1707 C1706 1.391 . S
H1708 C1716 0.950 . S
H1709 C1721 0.950 . S
H1710 C1718 0.950 . S
H1711 C1720 0.950 . S
H1712 C1722 0.950 . S
H1713 C1724 0.950 . S
H1714 C1726 0.950 1_655 S
H1715 C1727 0.950 . S
C1716 H1708 0.950 . S
C1716 C1717 1.386 . S
C1716 C1718 1.391 . S
C1717 C1716 1.386 . S
C1717 C1721 1.393 . S
C1718 H1710 0.950 . S
C1718 C1716 1.391 . S
C1718 C1719 1.400 . S
C1719 C1718 1.400 . S
C1719 C1720 1.398 . S
C1719 C1725 1.491 . S
C1720 H1711 0.950 . S
C1720 C1719 1.398 . S
C1720 C1721 1.391 . S
C1721 H1709 0.950 . S
C1721 C1717 1.393 . S
C1721 C1720 1.391 . S
C1722 H1712 0.950 . S
C1722 C1723 1.386 . S
C1722 C1724 1.391 . S
C1723 C1722 1.386 . S
C1723 C1727 1.393 . S
C1724 H1713 0.950 . S
C1724 C1722 1.391 . S
C1724 C1725 1.400 1_455 S
C1725 C1719 1.491 . S
C1725 C1724 1.400 1_655 S
C1725 C1726 1.398 1_655 S
C1726 H1714 0.950 1_455 S
C1726 C1725 1.398 1_455 S
C1726 C1727 1.391 . S
C1727 H1715 0.950 . S
C1727 C1723 1.393 . S
C1727 C1726 1.391 . S
C1017 C67 1.561 . S
C1023 C987 1.606 . S
C1037 C823 1.603 1_565 S
C1043 C147 1.641 . S
C1057 C231 1.484 . S
C1063 C735 1.517 . S
C1077 C315 1.547 . S
C1083 C903 1.530 . S
C1097 C399 1.640 . S
C1103 C907 1.570 . S
C1117 C487 1.625 . S
C1123 C991 1.621 . S
C1137 C819 1.568 . S
C1143 C567 1.538 . S
C1157 C651 1.593 . S
C1163 C739 1.517 . S
C1177 C319 1.634 . S
C1183 C403 1.643 . S
C1197 C63 1.540 . S
C1203 C483 1.513 . S
C1217 C151 1.657 1_655 S
C1223 C571 1.651 . S
C1237 C655 1.690 . S
C1243 C235 1.689 . S
C1257 C70 1.646 . S
C1263 C746 1.771 . S
C1277 C142 1.424 . S
C1283 C914 1.635 . S
C1297 C998 1.686 . S
C1303 C226 1.463 . S
C1317 C310 1.553 . S
C1323 C812 1.796 . S
C1337 C394 1.420 . S
C1343 C830 1.624 . S
C1357 C728 1.860 . S
C1363 C490 1.699 . S
C1377 C896 1.791 . S
C1383 C562 1.576 . S
C1397 C980 1.766 . S
C1403 C646 1.554 . S
C1417 C74 1.777 . S
C1423 C322 1.672 . S
C1437 C58 1.551 . S
C1443 C140 1.782 . S
C1457 C154 1.740 . S
C1463 C224 1.878 . S
C1477 C308 1.787 . S
C1483 C238 1.646 . S
C1497 C478 1.556 . S
C1503 C392 1.762 . S
C1517 C494 1.671 . S
C1523 C574 1.527 . S
C1537 C560 1.769 . S
C1543 C658 1.620 . S
C1557 C406 1.627 . S
C1563 C644 1.757 . S
C1577 C742 1.618 . S
C1583 C326 1.716 . S
C1597 C476 1.795 . S
C1603 C826 1.643 . S
C1617 C730 1.487 . S
C1623 C578 1.688 . S
C1637 C898 1.420 . S
C1643 C662 1.610 . S
C1657 C410 1.597 . S
C1663 C982 1.415 . S
C1677 C994 1.523 . S
C1683 C158 1.633 . S
C1697 C242 1.599 . S
C1703 C814 1.364 . S
C1717 C910 1.644 . S
C1723 C56 1.775 . S
