# Generated by pormake.
# Topology umy, (4)-cn, num edge types: 1
# Building blocks:
#     Node 0, Type 0, BuildingBlock: QUQFOY_clean_sbu_3, # of connection points: 4
#     Node 1, Type 0, BuildingBlock: QUQFOY_clean_sbu_3, # of connection points: 4
#     Node 2, Type 0, BuildingBlock: QUQFOY_clean_sbu_3, # of connection points: 4
#     Node 3, Type 0, BuildingBlock: QUQFOY_clean_sbu_3, # of connection points: 4
#     Node 4, Type 0, BuildingBlock: QUQFOY_clean_sbu_3, # of connection points: 4
#     Node 5, Type 0, BuildingBlock: QUQFOY_clean_sbu_3, # of connection points: 4
#     Node 6, Type 0, BuildingBlock: QUQFOY_clean_sbu_3, # of connection points: 4
#     Node 7, Type 0, BuildingBlock: QUQFOY_clean_sbu_3, # of connection points: 4
#     Node 8, Type 0, BuildingBlock: QUQFOY_clean_sbu_3, # of connection points: 4
#     Node 9, Type 0, BuildingBlock: QUQFOY_clean_sbu_3, # of connection points: 4
#     Node 10, Type 0, BuildingBlock: QUQFOY_clean_sbu_3, # of connection points: 4
#     Node 11, Type 0, BuildingBlock: QUQFOY_clean_sbu_3, # of connection points: 4
#     Edge 12, Type (0, 0), BuildingBlock: KIFKEQ_clean_linker_1, # of connection points: 2
#     Edge 13, Type (0, 0), BuildingBlock: KIFKEQ_clean_linker_1, # of connection points: 2
#     Edge 14, Type (0, 0), BuildingBlock: KIFKEQ_clean_linker_1, # of connection points: 2
#     Edge 15, Type (0, 0), BuildingBlock: KIFKEQ_clean_linker_1, # of connection points: 2
#     Edge 16, Type (0, 0), BuildingBlock: KIFKEQ_clean_linker_1, # of connection points: 2
#     Edge 17, Type (0, 0), BuildingBlock: KIFKEQ_clean_linker_1, # of connection points: 2
#     Edge 18, Type (0, 0), BuildingBlock: KIFKEQ_clean_linker_1, # of connection points: 2
#     Edge 19, Type (0, 0), BuildingBlock: KIFKEQ_clean_linker_1, # of connection points: 2
#     Edge 20, Type (0, 0), BuildingBlock: KIFKEQ_clean_linker_1, # of connection points: 2
#     Edge 21, Type (0, 0), BuildingBlock: KIFKEQ_clean_linker_1, # of connection points: 2
#     Edge 22, Type (0, 0), BuildingBlock: KIFKEQ_clean_linker_1, # of connection points: 2
#     Edge 23, Type (0, 0), BuildingBlock: KIFKEQ_clean_linker_1, # of connection points: 2
#     Edge 24, Type (0, 0), BuildingBlock: KIFKEQ_clean_linker_1, # of connection points: 2
#     Edge 25, Type (0, 0), BuildingBlock: KIFKEQ_clean_linker_1, # of connection points: 2
#     Edge 26, Type (0, 0), BuildingBlock: KIFKEQ_clean_linker_1, # of connection points: 2
#     Edge 27, Type (0, 0), BuildingBlock: KIFKEQ_clean_linker_1, # of connection points: 2
#     Edge 28, Type (0, 0), BuildingBlock: KIFKEQ_clean_linker_1, # of connection points: 2
#     Edge 29, Type (0, 0), BuildingBlock: KIFKEQ_clean_linker_1, # of connection points: 2
#     Edge 30, Type (0, 0), BuildingBlock: KIFKEQ_clean_linker_1, # of connection points: 2
#     Edge 31, Type (0, 0), BuildingBlock: KIFKEQ_clean_linker_1, # of connection points: 2
#     Edge 32, Type (0, 0), BuildingBlock: KIFKEQ_clean_linker_1, # of connection points: 2
#     Edge 33, Type (0, 0), BuildingBlock: KIFKEQ_clean_linker_1, # of connection points: 2
#     Edge 34, Type (0, 0), BuildingBlock: KIFKEQ_clean_linker_1, # of connection points: 2
#     Edge 35, Type (0, 0), BuildingBlock: KIFKEQ_clean_linker_1, # of connection points: 2
# Relax obj value: 0.100
# Max RMSD: 0.073
# Mean RMSD: 0.073
data_MOF--net-umy--node1-QUQFOY_clean_sbu_3--edge1-KIFKEQ_clean_linker_1
_symmetry_space_group_name_H-M    P1
_symmetry_Int_Tables_number       1
_symmetry_cell_setting            triclinic
loop_
_symmetry_equiv_pos_as_xyz
'x, y, z'
_cell_length_a     40.313057
_cell_length_b     40.303303
_cell_length_c     53.229602
_cell_angle_alpha  90.030313
_cell_angle_beta   90.063526
_cell_angle_gamma 120.04444
loop_
_atom_site_label
_atom_site_type_symbol
_atom_site_fract_x
_atom_site_fract_y
_atom_site_fract_z
_atom_type_partial_charge
C0 C 0.97187 0.24526 0.12592 0.0
O1 O -0.01327 0.22666 0.1167 0.0
Cd2 Cd 0.05215 0.25758 0.10397 0.0
O3 O -0.00939 0.28175 0.12678 0.0
Cd4 Cd 0.05252 0.33584 0.11273 0.0
C5 C 0.09581 0.31156 0.15732 0.0
O6 O 0.05858 0.30594 0.07533 0.0
O7 O 0.11016 0.35698 0.08707 0.0
O8 O 0.01896 0.36434 0.09279 0.0
C9 C 0.09286 0.33117 0.07059 0.0
O10 O 0.08839 0.28311 0.14319 0.0
C11 C 0.03709 0.39625 0.1041 0.0
O12 O 0.08515 0.33533 0.15118 0.0
O13 O 0.06192 0.39983 0.12026 0.0
C14 C 0.70469 0.96944 0.29101 0.0
O15 O 0.7375 0.98149 0.28128 0.0
Cd16 Cd 0.77874 0.04734 0.27154 0.0
O17 O 0.69088 -0.00842 0.29364 0.0
Cd18 Cd 0.70548 0.05694 0.28202 0.0
C19 C 0.77344 0.08963 0.32703 0.0
O20 O 0.74048 0.06149 0.24429 0.0
O21 O 0.74222 0.11368 0.25562 0.0
O22 O 0.64028 0.02458 0.26666 0.0
C23 C 0.75131 0.09623 0.2397 0.0
O24 O 0.79162 0.07886 0.31275 0.0
C25 C 0.63174 0.04831 0.27598 0.0
O26 O 0.74107 0.08526 0.32061 0.0
O27 O 0.65734 0.07563 0.28897 0.0
C28 C 0.73653 0.72961 0.45688 0.0
O29 O 0.75237 0.76411 0.44936 0.0
Cd30 Cd 0.71669 0.79402 0.43693 0.0
O31 O 0.70016 0.70871 0.4574 0.0
Cd32 Cd 0.64197 0.71142 0.44681 0.0
C33 C 0.66531 0.77921 0.49181 0.0
O34 O 0.66805 0.74885 0.40964 0.0
O35 O 0.61376 0.74203 0.42118 0.0
O36 O 0.61701 0.64926 0.42734 0.0
C37 C 0.64037 0.7543 0.405 0.0
O38 O 0.69162 0.8018 0.47685 0.0
C39 C 0.58542 0.63352 0.43907 0.0
O40 O 0.64334 0.7441 0.48606 0.0
O41 O 0.58056 0.65373 0.4554 0.0
C42 C -0.0098 0.7289 0.63501 0.0
O43 O 0.97259 0.74661 0.62932 0.0
Cd44 Cd 0.90896 0.71626 0.61312 0.0
O45 O 0.97419 0.69273 0.63208 0.0
Cd46 Cd 0.91149 0.64099 0.61672 0.0
C47 C 0.86442 0.65704 0.66294 0.0
O48 O 0.9084 0.67544 0.58023 0.0
O49 O 0.85579 0.62447 0.59 0.0
O50 O 0.94757 0.61078 0.60204 0.0
C51 C 0.87448 0.65079 0.57419 0.0
O52 O 0.86753 0.68445 0.64935 0.0
C53 C 0.92017 0.57696 0.60571 0.0
O54 O 0.88034 0.63796 0.65644 0.0
O55 O 0.88986 0.57321 0.61557 0.0
C56 C 0.26176 0.00466 0.79147 0.0
O57 O 0.22841 0.98993 0.78203 0.0
Cd58 Cd 0.19161 0.92318 0.77257 0.0
O59 O 0.27829 0.98495 0.7939 0.0
Cd60 Cd 0.26827 0.92108 0.78258 0.0
C61 C 0.20229 0.88479 0.82844 0.0
O62 O 0.2306 0.91038 0.74522 0.0
O63 O 0.2289 0.86001 0.76063 0.0
O64 O 0.32882 0.95248 0.76101 0.0
C65 C 0.21999 0.87518 0.74293 0.0
O66 O 0.18154 0.89143 0.81351 0.0
C67 C 0.34353 0.93566 0.77278 0.0
O68 O 0.23635 0.89373 0.82242 0.0
O69 O 0.32343 0.91232 0.78997 0.0
C70 C 0.2344 0.25233 0.95644 0.0
O71 O 0.21884 0.21709 0.95061 0.0
Cd72 Cd 0.25417 0.18726 0.9366 0.0
O73 O 0.27055 0.27416 0.95502 0.0
Cd74 Cd 0.32786 0.27124 0.9433 0.0
C75 C 0.31021 0.20547 0.98901 0.0
O76 O 0.29913 0.23155 0.90718 0.0
O77 O 0.35512 0.24074 0.91651 0.0
O78 O 0.35273 0.33381 0.92425 0.0
C79 C 0.32683 0.22665 0.90152 0.0
O80 O 0.28425 0.18064 0.97474 0.0
C81 C 0.38415 0.3493 0.93628 0.0
O82 O 0.3288 0.24069 0.98279 0.0
O83 O 0.38909 0.32854 0.95209 0.0
C84 C 0.73515 0.00559 0.69738 0.0
O85 O 0.75316 0.9901 0.7066 0.0
Cd86 Cd 0.72128 0.92437 0.71874 0.0
O87 O 0.69868 0.98726 0.69619 0.0
Cd88 Cd 0.64376 0.92519 0.70939 0.0
C89 C 0.6685 0.88256 0.66466 0.0
O90 O 0.6723 0.91745 0.74696 0.0
O91 O 0.62155 0.86653 0.73412 0.0
O92 O 0.6149 0.95835 0.72945 0.0
C93 C 0.64678 0.88305 0.75104 0.0
O94 O 0.69645 0.88924 0.67909 0.0
C95 C 0.58314 0.94035 0.71795 0.0
O96 O 0.64488 0.89347 0.67066 0.0
O97 O 0.57993 0.91598 0.70154 0.0
C98 C 0.72045 0.73631 0.86489 0.0
O99 O 0.75574 0.75151 0.8705 0.0
Cd100 Cd 0.78523 0.71651 0.88563 0.0
O101 O 0.69801 0.70034 0.86716 0.0
Cd102 Cd 0.70037 0.64319 0.88052 0.0
C103 C 0.76495 0.65712 0.83477 0.0
O104 O 0.74094 0.67378 0.91587 0.0
O105 O 0.73125 0.61715 0.9082 0.0
O106 O 0.63825 0.61903 0.9002 0.0
C107 C 0.74584 0.64638 0.92239 0.0
O108 O 0.79031 0.68375 0.84841 0.0
C109 C 0.62248 0.5873 0.88853 0.0
O110 O 0.72987 0.63939 0.84133 0.0
O111 O 0.64284 0.58191 0.87265 0.0
C112 C 0.96978 0.71811 0.0327 0.0
O113 O 0.98456 0.75187 0.04151 0.0
Cd114 Cd 0.05041 0.78907 0.05343 0.0
O115 O -0.01096 0.70095 0.03149 0.0
Cd116 Cd 0.05211 0.71025 0.04406 0.0
C117 C 0.09304 0.7791 -0.00051 0.0
O118 O 0.05936 0.74766 0.08075 0.0
O119 O 0.10971 0.74506 0.07056 0.0
O120 O 0.01888 0.64805 0.06365 0.0
C121 C 0.09347 0.75654 0.08584 0.0
O122 O 0.08534 0.79965 0.01387 0.0
C123 C 0.03681 0.63436 0.05207 0.0
O124 O 0.08338 0.74482 0.0055 0.0
O125 O 0.06145 0.65577 0.03589 0.0
C126 C 0.24578 0.98317 0.19469 0.0
O127 O 0.22737 -0.00093 0.20251 0.0
Cd128 Cd 0.25859 0.06498 0.21465 0.0
O129 O 0.28226 0.00138 0.19443 0.0
Cd130 Cd 0.33528 0.06443 0.20766 0.0
C131 C 0.3121 0.10586 0.16139 0.0
O132 O 0.30527 0.07145 0.24495 0.0
O133 O 0.35514 0.12301 0.23216 0.0
O134 O 0.36471 0.02989 0.22524 0.0
C135 C 0.33026 0.10602 0.24914 0.0
O136 O 0.28508 0.10195 0.17574 0.0
C137 C 0.39794 0.05274 0.21682 0.0
O138 O 0.33366 0.09261 0.16772 0.0
O139 O 0.40163 0.08029 0.20324 0.0
C140 C 0.25396 0.24886 0.36424 0.0
O141 O 0.21964 0.23225 0.37213 0.0
Cd142 Cd 0.18822 0.26646 0.38462 0.0
O143 O 0.27401 0.28531 0.36364 0.0
Cd144 Cd 0.27007 0.34265 0.37477 0.0
C145 C 0.20215 0.31793 0.32975 0.0
O146 O 0.23259 0.31572 0.41181 0.0
O147 O 0.23836 0.36968 0.40047 0.0
O148 O 0.33202 0.36734 0.39436 0.0
C149 C 0.22625 0.34282 0.41647 0.0
O150 O 0.18005 0.29128 0.34469 0.0
C151 C 0.34782 0.39922 0.38295 0.0
O152 O 0.23711 0.34066 0.3355 0.0
O153 O 0.32768 0.40451 0.36678 0.0
C154 C 0.00923 0.27373 0.53051 0.0
O155 O -0.00228 0.24091 0.54012 0.0
Cd156 Cd 0.93262 0.19872 0.55124 0.0
O157 O -0.01322 0.28728 0.52835 0.0
Cd158 Cd 0.92115 0.27124 0.5407 0.0
C159 C 0.88756 0.20197 0.49646 0.0
O160 O 0.91934 0.23736 0.57874 0.0
O161 O 0.86646 0.23496 0.56839 0.0
O162 O 0.95303 0.33862 0.55245 0.0
C163 C 0.88476 0.22651 0.584 0.0
O164 O 0.89908 0.18429 0.51062 0.0
C165 C 0.9255 0.34328 0.54556 0.0
O166 O 0.892 0.23443 0.50271 0.0
O167 O 0.89671 0.31488 0.53549 0.0
H168 H 0.05923 0.59107 0.02534 0.0
H169 H 0.00196 0.5922 0.09368 0.0
H170 H 0.05433 0.53047 0.03826 0.0
H171 H -0.00219 0.53212 0.10667 0.0
H172 H 0.05884 0.46188 0.13077 0.0
H173 H 0.05381 0.51739 0.11763 0.0
H174 H -0.00135 0.45919 0.04878 0.0
H175 H 0.00292 0.40339 0.06201 0.0
C176 C 0.04534 0.57821 0.04296 0.0
C177 C 0.03107 0.59632 0.05853 0.0
C178 C 0.04243 0.54359 0.05029 0.0
C179 C 0.02585 0.52698 0.07347 0.0
C180 C 0.01088 0.54462 0.08878 0.0
C181 C 0.01314 0.57883 0.08127 0.0
C182 C 0.04523 0.46079 0.11299 0.0
C183 C 0.03134 0.42844 0.09739 0.0
C184 C 0.04225 0.49241 0.10554 0.0
C185 C 0.02598 0.49237 0.08219 0.0
C186 C 0.01146 0.45981 0.0668 0.0
C187 C 0.01377 0.42793 0.07445 0.0
H188 H 0.56903 0.98884 0.25398 0.0
H189 H 0.61167 0.10269 0.28422 0.0
H190 H 0.51113 0.98808 0.23951 0.0
H191 H 0.55379 0.10184 0.26967 0.0
H192 H 0.47338 0.10473 0.20954 0.0
H193 H 0.52857 0.10174 0.22551 0.0
H194 H 0.453 0.99013 0.25713 0.0
H195 H 0.3976 -0.00697 0.24123 0.0
C196 C 0.56582 0.01348 0.2578 0.0
C197 C 0.59491 0.04593 0.27009 0.0
C198 C 0.53269 0.01298 0.24956 0.0
C199 C 0.52835 0.04507 0.25325 0.0
C200 C 0.55681 0.07696 0.2663 0.0
C201 C 0.58973 0.07731 0.27479 0.0
C202 C 0.46854 0.07939 0.21968 0.0
C203 C 0.43123 0.04916 0.2242 0.0
C204 C 0.50007 0.07786 0.229 0.0
C205 C 0.49488 0.04591 0.24277 0.0
C206 C 0.45768 0.01506 0.24656 0.0
C207 C 0.42607 0.01677 0.23747 0.0
H208 H 0.58068 0.59301 0.39701 0.0
H209 H 0.52014 0.58714 0.46534 0.0
H210 H 0.52585 0.53285 0.38276 0.0
H211 H 0.46558 0.52654 0.45117 0.0
H212 H 0.38861 0.40244 0.42453 0.0
H213 H 0.44953 0.45624 0.43872 0.0
H214 H 0.45575 0.51863 0.37135 0.0
H215 H 0.39437 0.4651 0.35723 0.0
C216 C 0.55598 0.5785 0.4092 0.0
C217 C 0.55452 0.59481 0.43223 0.0
C218 C 0.52464 0.54424 0.40096 0.0
C219 C 0.49166 0.52536 0.41585 0.0
C220 C 0.49089 0.54058 0.43945 0.0
C221 C 0.52197 0.57523 0.4475 0.0
C222 C 0.40321 0.42741 0.41256 0.0
C223 C 0.38669 0.42975 0.38983 0.0
C224 C 0.43793 0.45815 0.42076 0.0
C225 C 0.45705 0.4914 0.40613 0.0
C226 C 0.44153 0.49309 0.38285 0.0
C227 C 0.40643 0.4626 0.37484 0.0
H228 H 0.8639 0.5156 0.582 0.0
H229 H 0.9803 0.56393 0.60819 0.0
H230 H 0.8663 0.46147 0.56428 0.0
H231 H 0.98198 0.50778 0.59271 0.0
H232 H -0.01374 0.41623 0.54678 0.0
H233 H 0.9857 0.47409 0.55951 0.0
H234 H 0.86365 0.40587 0.57345 0.0
H235 H 0.86417 0.34945 0.5585 0.0
C236 C 0.88976 0.514 0.58443 0.0
C237 C 0.92178 0.54348 0.5966 0.0
C238 C 0.89116 0.48281 0.57442 0.0
C239 C 0.92419 0.4796 0.57723 0.0
C240 C 0.95624 0.50931 0.58967 0.0
C241 C 0.95525 0.54131 0.59887 0.0
C242 C 0.95934 0.41409 0.55215 0.0
C243 C 0.92521 0.37869 0.55145 0.0
C244 C 0.95899 0.4471 0.55979 0.0
C245 C 0.92464 0.44503 0.56771 0.0
C246 C 0.89055 0.40924 0.56689 0.0
C247 C 0.89077 0.37665 0.55845 0.0
H248 H 0.57584 0.97445 0.76003 0.0
H249 H 0.51681 0.91709 0.69173 0.0
H250 H 0.51938 0.97705 0.77378 0.0
H251 H 0.46058 0.92035 0.70542 0.0
H252 H 0.38319 0.96872 0.73005 0.0
H253 H 0.44337 0.97395 0.71627 0.0
H254 H 0.44958 0.92118 0.78531 0.0
H255 H 0.3889 0.91528 0.79906 0.0
C256 C 0.55103 0.96293 0.74779 0.0
C257 C 0.55059 0.94544 0.72484 0.0
C258 C 0.51876 0.96425 0.75575 0.0
C259 C 0.48581 0.94877 0.74067 0.0
C260 C 0.48583 0.93263 0.71729 0.0
C261 C 0.51788 0.93068 0.70951 0.0
C262 C 0.39754 0.95853 0.74241 0.0
C263 C 0.38135 0.94145 0.7656 0.0
C264 C 0.43182 0.96141 0.73445 0.0
C265 C 0.45084 0.94789 0.74973 0.0
C266 C 0.43541 0.93199 0.77329 0.0
C267 C 0.40073 0.92849 0.78109 0.0
H268 H 0.38942 0.39264 0.89562 0.0
H269 H 0.44786 0.3946 0.96422 0.0
H270 H 0.44387 0.45462 0.8837 0.0
H271 H 0.50198 0.45684 0.95238 0.0
H272 H 0.58063 0.5819 0.93004 0.0
H273 H 0.51869 0.52763 0.94235 0.0
H274 H 0.5139 0.47021 0.87281 0.0
H275 H 0.57604 0.52407 0.86061 0.0
C276 C 0.41356 0.40664 0.90836 0.0
C277 C 0.41464 0.38872 0.93075 0.0
C278 C 0.44464 0.44197 0.90149 0.0
C279 C 0.47694 0.46023 0.91712 0.0
C280 C 0.47719 0.44334 0.94013 0.0
C281 C 0.44638 0.40771 0.94681 0.0
C282 C 0.56605 0.55794 0.91722 0.0
C283 C 0.58317 0.55697 0.89445 0.0
C284 C 0.53077 0.52696 0.92431 0.0
C285 C 0.51178 0.49493 0.90852 0.0
C286 C 0.52794 0.4948 0.8852 0.0
C287 C 0.56352 0.52546 0.8783 0.0
H288 H 0.06089 0.28686 0.02928 0.0
H289 H 0.17004 0.36509 0.06329 0.0
H290 H 0.09349 0.2726 -0.00386 0.0
H291 H 0.20265 0.34976 0.03076 0.0
H292 H 0.25577 0.32728 0.96485 0.0
H293 H 0.22003 0.35173 0.98759 0.0
H294 H 0.12506 0.23608 -0.00443 0.0
H295 H 0.16015 0.2119 0.97217 0.0
C296 C 0.09191 0.30121 0.02954 0.0
C297 C 0.11298 0.32663 0.04901 0.0
C298 C 0.11055 0.29295 0.01062 0.0
C299 C 0.15061 0.30959 0.01099 0.0
C300 C 0.17178 0.3367 0.02974 0.0
C301 C 0.15312 0.34531 0.0485 0.0
C302 C 0.22699 0.30718 0.97111 0.0
C303 C 0.21093 0.2676 0.96701 0.0
C304 C 0.2066 0.32118 0.98422 0.0
C305 C 0.1699 0.29585 0.99365 0.0
C306 C 0.15309 0.25649 0.98833 0.0
C307 C 0.17333 0.24254 0.97504 0.0
H308 H 0.7922 0.07248 0.21215 0.0
H309 H 0.76894 0.16559 0.21995 0.0
H310 H 0.84046 0.10857 0.18072 0.0
H311 H 0.81603 0.20124 0.18738 0.0
H312 H 0.94166 0.27192 0.16081 0.0
H313 H 0.88311 0.235 0.18462 0.0
H314 H 0.85612 0.13456 0.14025 0.0
H315 H 0.91598 0.17128 0.11731 0.0
C316 C 0.79686 0.10039 0.2067 0.0
C317 C 0.77725 0.1165 0.21867 0.0
C318 C 0.82433 0.12102 0.18847 0.0
C319 C 0.83234 0.15798 0.18153 0.0
C320 C 0.81116 0.1732 0.19263 0.0
C321 C 0.78408 0.15276 0.2112 0.0
C322 C 0.92294 0.24209 0.1559 0.0
C323 C 0.93363 0.22429 0.1375 0.0
C324 C 0.88914 0.22091 0.16944 0.0
C325 C 0.865 0.18161 0.16457 0.0
C326 C 0.87452 0.16452 0.14493 0.0
C327 C 0.90869 0.18556 0.13169 0.0
H328 H 0.58578 0.77149 0.3897 0.0
H329 H 0.69861 0.7907 0.37185 0.0
H330 H 0.59182 0.81585 0.35633 0.0
H331 H 0.7053 0.83568 0.33951 0.0
H332 H 0.65129 0.94305 0.32823 0.0
H333 H 0.62782 0.88363 0.3515 0.0
H334 H 0.6868 0.8476 0.30012 0.0
H335 H 0.71191 0.9081 0.27765 0.0
C336 C 0.6117 0.78497 0.37854 0.0
C337 C 0.64191 0.77806 0.38355 0.0
C338 C 0.6152 0.8104 0.35949 0.0
C339 C 0.64908 0.82946 0.34527 0.0
C340 C 0.67849 0.82107 0.34969 0.0
C341 C 0.67486 0.79554 0.3685 0.0
C342 C 0.65858 0.92208 0.32161 0.0
C343 C 0.68413 0.93048 0.30154 0.0
C344 C 0.64489 0.88783 0.33485 0.0
C345 C 0.65607 0.86115 0.32798 0.0
C346 C 0.67858 0.86806 0.30634 0.0
C347 C 0.69285 0.9026 0.29341 0.0
H348 H 0.71585 0.65482 0.46494 0.0
H349 H 0.81061 0.77054 0.4728 0.0
H350 H 0.75173 0.63087 0.48807 0.0
H351 H 0.84569 0.747 0.49685 0.0
H352 H 0.90901 0.69774 0.53426 0.0
H353 H 0.87813 0.71216 0.49995 0.0
H354 H 0.76714 0.6321 0.53094 0.0
H355 H 0.79803 0.61652 0.56438 0.0
C356 C 0.74449 0.67509 0.47142 0.0
C357 C 0.76024 0.71459 0.46738 0.0
C358 C 0.76497 0.66141 0.48478 0.0
C359 C 0.80135 0.68702 0.4947 0.0
C360 C 0.81795 0.72633 0.48929 0.0
C361 C 0.79771 0.73992 0.47562 0.0
C362 C 0.878 0.68286 0.53344 0.0
C363 C 0.85587 0.65642 0.55211 0.0
C364 C 0.8603 0.6912 0.51386 0.0
C365 C 0.82015 0.67366 0.51281 0.0
C366 C 0.79809 0.64582 0.53089 0.0
C367 C 0.81579 0.63709 0.55024 0.0
H368 H 0.03796 0.7017 0.64832 0.0
H369 H 0.02949 0.80451 0.64771 0.0
H370 H 0.09921 0.73637 0.67035 0.0
H371 H 0.08961 0.83852 0.67025 0.0
H372 H 0.20755 0.90082 0.69882 0.0
H373 H 0.15709 0.86465 0.66828 0.0
H374 H 0.12001 0.76165 0.71205 0.0
H375 H 0.1716 0.79768 0.74203 0.0
C376 C 0.04925 0.73171 0.65273 0.0
C377 C 0.02874 0.75029 0.64641 0.0
C378 C 0.08424 0.7515 0.66543 0.0
C379 C 0.09929 0.79018 0.6721 0.0
C380 C 0.07927 0.80895 0.66504 0.0
C381 C 0.04453 0.7893 0.65226 0.0
C382 C 0.18898 0.87031 0.70165 0.0
C383 C 0.19303 0.8521 0.72293 0.0
C384 C 0.15999 0.84962 0.68424 0.0
C385 C 0.13408 0.81042 0.68798 0.0
C386 C 0.13962 0.79175 0.70851 0.0
C387 C 0.16902 0.8124 0.72578 0.0
H388 H 0.3184 0.0364 0.82664 0.0
H389 H 0.24618 0.06131 0.77961 0.0
H390 H 0.34008 0.0963 0.84906 0.0
H391 H 0.26932 0.12231 0.80119 0.0
H392 H 0.26441 0.18432 0.8723 0.0
H393 H 0.25547 0.13673 0.84125 0.0
H394 H 0.373 0.1642 0.85156 0.0
H395 H 0.38142 0.21115 0.88372 0.0
C396 C 0.308 0.05523 0.82062 0.0
C397 C 0.28003 0.04388 0.80173 0.0
C398 C 0.32064 0.08978 0.83338 0.0
C399 C 0.30597 0.1139 0.82722 0.0
C400 C 0.2804 0.10391 0.80687 0.0
C401 C 0.26726 0.06906 0.79442 0.0
C402 C 0.28853 0.18056 0.86778 0.0
C403 C 0.32346 0.20107 0.88067 0.0
C404 C 0.28353 0.15347 0.84972 0.0
C405 C 0.31351 0.14652 0.84386 0.0
C406 C 0.34914 0.16844 0.8559 0.0
C407 C 0.35403 0.1954 0.87424 0.0
H408 H 0.76186 0.8106 0.84937 0.0
H409 H 0.64591 0.71551 0.85514 0.0
H410 H 0.73887 0.84661 0.82585 0.0
H411 H 0.62265 0.7522 0.83223 0.0
H412 H 0.61204 0.80551 0.75705 0.0
H413 H 0.62602 0.77125 0.78919 0.0
H414 H 0.70284 0.87879 0.82576 0.0
H415 H 0.68995 0.91304 0.79304 0.0
C416 C 0.73134 0.79769 0.8461 0.0
C417 C 0.70579 0.76002 0.85381 0.0
C418 C 0.71807 0.81847 0.83274 0.0
C419 C 0.6789 0.80217 0.82702 0.0
C420 C 0.65307 0.76528 0.83596 0.0
C421 C 0.66639 0.74435 0.84917 0.0
C422 C 0.63146 0.82172 0.77217 0.0
C423 C 0.65046 0.8619 0.77235 0.0
C424 C 0.63929 0.80211 0.79071 0.0
C425 C 0.66593 0.82237 0.80988 0.0
C426 C 0.68286 0.86244 0.81093 0.0
C427 C 0.67538 0.88203 0.79226 0.0
H428 H 0.76249 0.59324 0.94154 0.0
H429 H 0.78877 0.71061 0.94989 0.0
H430 H 0.81049 0.60394 0.9735 0.0
H431 H 0.83734 0.72175 0.98072 0.0
H432 H 0.9385 0.6604 -0.00177 0.0
H433 H 0.87856 0.63754 0.97557 0.0
H434 H 0.85225 0.71014 0.02128 0.0
H435 H 0.91325 0.73441 0.04305 0.0
C436 C 0.77835 0.62119 0.9503 0.0
C437 C 0.77217 0.65117 0.94309 0.0
C438 C 0.80591 0.62739 0.96851 0.0
C439 C 0.8279 0.66374 0.97965 0.0
C440 C 0.82055 0.69319 0.97297 0.0
C441 C 0.79288 0.68691 0.95503 0.0
C442 C 0.91961 0.67101 0.00369 0.0
C443 C 0.93082 0.69973 0.02204 0.0
C444 C 0.88506 0.65769 0.99081 0.0
C445 C 0.86081 0.67244 -0.00368 0.0
C446 C 0.87075 0.69895 0.01609 0.0
C447 C 0.9056 0.71276 0.02865 0.0
H448 H 0.27192 0.95078 0.16105 0.0
H449 H 0.17208 0.92786 0.20432 0.0
H450 H 0.23455 0.89075 0.1386 0.0
H451 H 0.13498 0.86659 0.18287 0.0
H452 H 0.07131 0.79959 0.11235 0.0
H453 H 0.10843 0.84929 0.14271 0.0
H454 H 0.20018 0.82343 0.13688 0.0
H455 H 0.16336 0.77464 0.10529 0.0
C456 C 0.24218 0.93236 0.16622 0.0
C457 C 0.22468 0.94422 0.18409 0.0
C458 C 0.22075 0.89773 0.15347 0.0
C459 C 0.18153 0.87396 0.15866 0.0
C460 C 0.16484 0.88467 0.1779 0.0
C461 C 0.18609 0.91965 0.19029 0.0
C462 C 0.09925 0.80422 0.11773 0.0
C463 C 0.11468 0.78361 0.10625 0.0
C464 C 0.12047 0.83254 0.13538 0.0
C465 C 0.15743 0.84053 0.14228 0.0
C466 C 0.1721 0.81852 0.13167 0.0
C467 C 0.15101 0.79048 0.11366 0.0
H468 H 0.28929 0.07539 0.2918 0.0
H469 H 0.36237 0.18331 0.25486 0.0
H470 H 0.27649 0.10885 0.32515 0.0
H471 H 0.34826 0.2167 0.28748 0.0
H472 H 0.32864 0.2726 0.35284 0.0
H473 H 0.35301 0.23698 0.32983 0.0
H474 H 0.23869 0.13838 0.3274 0.0
H475 H 0.21481 0.17334 0.35119 0.0
C476 C 0.30277 0.10633 0.29093 0.0
C477 C 0.32637 0.12677 0.27063 0.0
C478 C 0.29533 0.12548 0.30996 0.0
C479 C 0.31087 0.1654 0.30884 0.0
C480 C 0.33612 0.186 0.28914 0.0
C481 C 0.34401 0.16687 0.27031 0.0
C482 C 0.3089 0.24307 0.34776 0.0
C483 C 0.26973 0.22589 0.35354 0.0
C484 C 0.32283 0.22273 0.33447 0.0
C485 C 0.29777 0.18498 0.32647 0.0
C486 C 0.25897 0.16722 0.3335 0.0
C487 C 0.24516 0.18738 0.34702 0.0
H488 H 0.20692 0.39593 0.4317 0.0
H489 H 0.18999 0.28376 0.4491 0.0
H490 H 0.16149 0.3883 0.46471 0.0
H491 H 0.14399 0.27552 0.48109 0.0
H492 H 0.07128 0.26751 0.54336 0.0
H493 H 0.13155 0.29331 0.52058 0.0
H494 H 0.09367 0.35108 0.46948 0.0
H495 H 0.03439 0.32686 0.49307 0.0
C496 C 0.1937 0.36981 0.44268 0.0
C497 C 0.20164 0.34027 0.43767 0.0
C498 C 0.16765 0.36539 0.46152 0.0
C499 C 0.14899 0.33127 0.47554 0.0
C500 C 0.15826 0.30249 0.47107 0.0
C501 C 0.1844 0.30703 0.45247 0.0
C502 C 0.07629 0.28643 0.52758 0.0
C503 C 0.04797 0.29464 0.51966 0.0
C504 C 0.1107 0.30108 0.51447 0.0
C505 C 0.11708 0.32351 0.49284 0.0
C506 C 0.08988 0.33408 0.48611 0.0
C507 C 0.05574 0.31999 0.49954 0.0
H508 H 0.81724 0.21089 0.60555 0.0
H509 H 0.90848 0.18447 0.61046 0.0
H510 H 0.7821 0.16382 0.6382 0.0
H511 H 0.87275 0.13612 0.64203 0.0
H512 H 0.81004 0.05974 0.70546 0.0
H513 H 0.84762 0.11976 0.68281 0.0
H514 H 0.74691 0.09672 0.64009 0.0
H515 H 0.70922 0.038 0.66356 0.0
C516 C 0.8298 0.19506 0.61371 0.0
C517 C 0.86534 0.20095 0.60536 0.0
C518 C 0.80961 0.16798 0.63232 0.0
C519 C 0.82431 0.14579 0.64258 0.0
C520 C 0.8607 0.15299 0.63488 0.0
C521 C 0.88115 0.18052 0.6166 0.0
C522 C 0.79589 0.06794 0.69151 0.0
C523 C 0.75682 0.04403 0.68608 0.0
C524 C 0.81744 0.1022 0.67843 0.0
C525 C 0.80048 0.1129 0.65935 0.0
C526 C 0.76093 0.08979 0.65485 0.0
C527 C 0.73929 0.05588 0.66821 0.0
H528 H 0.13456 0.26569 0.30822 0.0
H529 H 0.23605 0.37533 0.29454 0.0
H530 H 0.11144 0.2667 0.26619 0.0
H531 H 0.21235 0.37627 0.25223 0.0
H532 H 0.12618 0.37318 0.18947 0.0
H533 H 0.15367 0.37734 0.23122 0.0
H534 H 0.13581 0.26309 0.22227 0.0
H535 H 0.1087 0.25884 0.18069 0.0
C536 C 0.15185 0.2902 0.29635 0.0
C537 C 0.18728 0.32038 0.30475 0.0
C538 C 0.13865 0.29061 0.2722 0.0
C539 C 0.16029 0.32138 0.25593 0.0
C540 C 0.19513 0.35222 0.26447 0.0
C541 C 0.20869 0.3516 0.28862 0.0
C542 C 0.12841 0.34908 0.19634 0.0
C543 C 0.11504 0.31559 0.18179 0.0
C544 C 0.14429 0.35157 0.22016 0.0
C545 C 0.14652 0.32042 0.22999 0.0
C546 C 0.134 0.28736 0.21523 0.0
C547 C 0.11865 0.28504 0.19136 0.0
H548 H 0.82713 0.20223 0.47373 0.0
H549 H 0.90922 0.16443 0.46409 0.0
H550 H 0.79798 0.17378 0.43346 0.0
H551 H 0.88283 0.13904 0.42289 0.0
H552 H 0.80977 0.06639 0.35925 0.0
H553 H 0.83503 0.09175 0.40066 0.0
H554 H 0.8015 0.17769 0.39102 0.0
H555 H 0.77316 0.14956 0.35052 0.0
C556 C 0.83916 0.18817 0.46274 0.0
C557 C 0.87013 0.18518 0.47199 0.0
C558 C 0.82276 0.17214 0.43948 0.0
C559 C 0.83783 0.15388 0.42456 0.0
C560 C 0.86944 0.1517 0.43388 0.0
C561 C 0.88494 0.16658 0.45748 0.0
C562 C 0.80781 0.09066 0.36614 0.0
C563 C 0.78965 0.10612 0.35179 0.0
C564 C 0.82262 0.10556 0.38985 0.0
C565 C 0.82084 0.13724 0.39947 0.0
C566 C 0.80286 0.15286 0.38476 0.0
C567 C 0.78688 0.13704 0.36138 0.0
H568 H 0.72167 0.87028 0.64144 0.0
H569 H 0.60745 0.85282 0.63205 0.0
H570 H 0.71816 0.84399 0.59968 0.0
H571 H 0.60401 0.82608 0.59013 0.0
H572 H 0.60762 0.74438 0.52669 0.0
H573 H 0.60585 0.76747 0.56905 0.0
H574 H 0.71489 0.86935 0.55576 0.0
H575 H 0.7167 0.84687 0.51366 0.0
C576 C 0.69565 0.8605 0.6306 0.0
C577 C 0.66492 0.86387 0.64005 0.0
C578 C 0.69376 0.84562 0.60663 0.0
C579 C 0.66094 0.83331 0.59167 0.0
C580 C 0.6296 0.83532 0.60136 0.0
C581 C 0.63168 0.85075 0.62527 0.0
C582 C 0.63104 0.77183 0.53277 0.0
C583 C 0.66235 0.7937 0.51681 0.0
C584 C 0.62994 0.78503 0.55694 0.0
C585 C 0.66041 0.81997 0.56567 0.0
C586 C 0.69127 0.84208 0.54958 0.0
C587 C 0.69213 0.82924 0.5254 0.0
H588 H 0.81265 0.67786 0.67804 0.0
H589 H 0.87165 0.61915 0.70321 0.0
H590 H 0.78494 0.67078 0.71985 0.0
H591 H 0.84426 0.61264 0.74512 0.0
H592 H 0.83605 0.67256 0.82002 0.0
H593 H 0.85606 0.66565 0.77798 0.0
H594 H 0.73968 0.61755 0.75153 0.0
H595 H 0.71937 0.62388 0.79372 0.0
C596 C 0.81936 0.66309 0.6924 0.0
C597 C 0.84448 0.64925 0.68737 0.0
C598 C 0.80332 0.65885 0.71626 0.0
C599 C 0.8126 0.64126 0.73565 0.0
C600 C 0.83682 0.62645 0.73047 0.0
C601 C 0.85234 0.63007 0.70649 0.0
C602 C 0.81462 0.65998 0.80534 0.0
C603 C 0.77618 0.64891 0.81014 0.0
C604 C 0.82605 0.65585 0.78134 0.0
C605 C 0.79939 0.64117 0.76158 0.0
C606 C 0.76076 0.62908 0.76648 0.0
C607 C 0.74917 0.63255 0.79062 0.0
H608 H 0.1368 0.87449 0.85056 0.0
H609 H 0.23278 0.85667 0.86286 0.0
H610 H 0.11219 0.84876 0.89208 0.0
H611 H 0.20783 0.83075 0.9046 0.0
H612 H 0.12155 0.74803 0.9658 0.0
H613 H 0.14916 0.77305 0.92441 0.0
H614 H 0.13424 0.8707 0.93647 0.0
H615 H 0.10682 0.84603 0.97763 0.0
C616 C 0.1526 0.86495 0.86206 0.0
C617 C 0.18685 0.86776 0.85338 0.0
C618 C 0.13858 0.85041 0.88592 0.0
C619 C 0.15824 0.838 0.90161 0.0
C620 C 0.19204 0.83999 0.89283 0.0
C621 C 0.20637 0.85498 0.86899 0.0
C622 C 0.12437 0.77494 0.95967 0.0
C623 C 0.1118 0.79492 0.975 0.0
C624 C 0.14031 0.7893 0.93603 0.0
C625 C 0.14354 0.82364 0.92719 0.0
C626 C 0.13163 0.8439 0.94269 0.0
C627 C 0.11611 0.82982 0.96634 0.0
H628 H 0.28676 0.15414 0.14625 0.0
H629 H 0.34861 0.09875 0.12033 0.0
H630 H 0.29167 0.18106 0.10433 0.0
H631 H 0.35286 0.12524 0.07836 0.0
H632 H 0.29368 0.13381 0.00335 0.0
H633 H 0.29904 0.11264 0.04541 0.0
H634 H 0.34566 0.22822 0.07309 0.0
H635 H 0.34098 0.24972 0.0309 0.0
C636 C 0.30159 0.14792 0.13166 0.0
C637 C 0.31721 0.12425 0.13656 0.0
C638 C 0.30456 0.16349 0.10776 0.0
C639 C 0.3226 0.15513 0.0882 0.0
C640 C 0.33871 0.13196 0.09314 0.0
C641 C 0.33638 0.11697 0.11716 0.0
C642 C 0.30552 0.1548 0.01833 0.0
C643 C 0.31683 0.1934 0.01385 0.0
C644 C 0.30872 0.14271 0.04234 0.0
C645 C 0.32264 0.16883 0.06242 0.0
C646 C 0.33468 0.20755 0.05789 0.0
C647 C 0.33218 0.21982 0.03376 0.0
loop_
_geom_bond_atom_site_label_1
_geom_bond_atom_site_label_2
_geom_bond_distance
_geom_bond_site_symmetry_2
_ccdc_geom_bond_type
C0 O1 1.306 . S
C0 O3 1.160 1_655 S
O1 C0 1.306 . S
O1 Cd2 2.228 1_655 S
Cd2 O1 2.228 1_455 S
Cd2 O6 2.273 . S
Cd2 O10 2.277 . S
O3 C0 1.160 1_455 S
O3 Cd4 2.203 . S
Cd4 O3 2.203 . S
Cd4 O6 2.411 . S
Cd4 O7 2.333 . S
Cd4 O8 2.352 . S
Cd4 O12 2.277 . S
Cd4 O13 2.356 . S
C5 O10 1.209 . S
C5 O12 1.226 . S
O6 Cd2 2.273 . S
O6 Cd4 2.411 . S
O6 C9 1.320 . S
O7 Cd4 2.333 . S
O7 C9 1.214 . S
O8 Cd4 2.352 . S
O8 C11 1.258 . S
C9 O6 1.320 . S
C9 O7 1.214 . S
O10 Cd2 2.277 . S
O10 C5 1.209 . S
C11 O8 1.258 . S
C11 O13 1.282 . S
O12 Cd4 2.277 . S
O12 C5 1.226 . S
O13 Cd4 2.356 . S
O13 C11 1.282 . S
C14 O15 1.306 . S
C14 O17 1.160 1_565 S
O15 C14 1.306 . S
O15 Cd16 2.228 1_565 S
Cd16 O15 2.228 1_545 S
Cd16 O20 2.273 . S
Cd16 O24 2.277 . S
O17 C14 1.160 1_545 S
O17 Cd18 2.203 . S
Cd18 O17 2.203 . S
Cd18 O20 2.411 . S
Cd18 O21 2.333 . S
Cd18 O22 2.352 . S
Cd18 O26 2.277 . S
Cd18 O27 2.356 . S
C19 O24 1.209 . S
C19 O26 1.226 . S
O20 Cd16 2.273 . S
O20 Cd18 2.411 . S
O20 C23 1.320 . S
O21 Cd18 2.333 . S
O21 C23 1.214 . S
O22 Cd18 2.352 . S
O22 C25 1.258 . S
C23 O20 1.320 . S
C23 O21 1.214 . S
O24 Cd16 2.277 . S
O24 C19 1.209 . S
C25 O22 1.258 . S
C25 O27 1.282 . S
O26 Cd18 2.277 . S
O26 C19 1.226 . S
O27 Cd18 2.356 . S
O27 C25 1.282 . S
C28 O29 1.306 . S
C28 O31 1.160 . S
O29 C28 1.306 . S
O29 Cd30 2.228 . S
Cd30 O29 2.228 . S
Cd30 O34 2.273 . S
Cd30 O38 2.277 . S
O31 C28 1.160 . S
O31 Cd32 2.203 . S
Cd32 O31 2.203 . S
Cd32 O34 2.411 . S
Cd32 O35 2.333 . S
Cd32 O36 2.352 . S
Cd32 O40 2.277 . S
Cd32 O41 2.356 . S
C33 O38 1.209 . S
C33 O40 1.226 . S
O34 Cd30 2.273 . S
O34 Cd32 2.411 . S
O34 C37 1.320 . S
O35 Cd32 2.333 . S
O35 C37 1.214 . S
O36 Cd32 2.352 . S
O36 C39 1.258 . S
C37 O34 1.320 . S
C37 O35 1.214 . S
O38 Cd30 2.277 . S
O38 C33 1.209 . S
C39 O36 1.258 . S
C39 O41 1.282 . S
O40 Cd32 2.277 . S
O40 C33 1.226 . S
O41 Cd32 2.356 . S
O41 C39 1.282 . S
C42 O43 1.306 . S
C42 O45 1.160 1_455 S
O43 C42 1.306 . S
O43 Cd44 2.228 1_455 S
Cd44 O43 2.228 1_655 S
Cd44 O48 2.273 . S
Cd44 O52 2.277 . S
O45 C42 1.160 1_655 S
O45 Cd46 2.203 . S
Cd46 O45 2.203 . S
Cd46 O48 2.411 . S
Cd46 O49 2.333 . S
Cd46 O50 2.352 . S
Cd46 O54 2.277 . S
Cd46 O55 2.356 . S
C47 O52 1.209 . S
C47 O54 1.226 . S
O48 Cd44 2.273 . S
O48 Cd46 2.411 . S
O48 C51 1.320 . S
O49 Cd46 2.333 . S
O49 C51 1.214 . S
O50 Cd46 2.352 . S
O50 C53 1.258 . S
C51 O48 1.320 . S
C51 O49 1.214 . S
O52 Cd44 2.277 . S
O52 C47 1.209 . S
C53 O50 1.258 . S
C53 O55 1.282 . S
O54 Cd46 2.277 . S
O54 C47 1.226 . S
O55 Cd46 2.356 . S
O55 C53 1.282 . S
C56 O57 1.306 . S
C56 O59 1.160 1_545 S
O57 C56 1.306 . S
O57 Cd58 2.228 1_545 S
Cd58 O57 2.228 1_565 S
Cd58 O62 2.273 . S
Cd58 O66 2.277 . S
O59 C56 1.160 1_565 S
O59 Cd60 2.203 . S
Cd60 O59 2.203 . S
Cd60 O62 2.411 . S
Cd60 O63 2.333 . S
Cd60 O64 2.352 . S
Cd60 O68 2.277 . S
Cd60 O69 2.356 . S
C61 O66 1.209 . S
C61 O68 1.226 . S
O62 Cd58 2.273 . S
O62 Cd60 2.411 . S
O62 C65 1.320 . S
O63 Cd60 2.333 . S
O63 C65 1.214 . S
O64 Cd60 2.352 . S
O64 C67 1.258 . S
C65 O62 1.320 . S
C65 O63 1.214 . S
O66 Cd58 2.277 . S
O66 C61 1.209 . S
C67 O64 1.258 . S
C67 O69 1.282 . S
O68 Cd60 2.277 . S
O68 C61 1.226 . S
O69 Cd60 2.356 . S
O69 C67 1.282 . S
C70 O71 1.306 . S
C70 O73 1.160 . S
O71 C70 1.306 . S
O71 Cd72 2.228 . S
Cd72 O71 2.228 . S
Cd72 O76 2.273 . S
Cd72 O80 2.277 . S
O73 C70 1.160 . S
O73 Cd74 2.203 . S
Cd74 O73 2.203 . S
Cd74 O76 2.411 . S
Cd74 O77 2.333 . S
Cd74 O78 2.352 . S
Cd74 O82 2.277 1_556 S
Cd74 O83 2.356 . S
C75 O80 1.209 1_554 S
C75 O82 1.226 . S
O76 Cd72 2.273 . S
O76 Cd74 2.411 . S
O76 C79 1.320 . S
O77 Cd74 2.333 . S
O77 C79 1.214 . S
O78 Cd74 2.352 . S
O78 C81 1.258 . S
C79 O76 1.320 . S
C79 O77 1.214 . S
O80 Cd72 2.277 . S
O80 C75 1.209 1_556 S
C81 O78 1.258 . S
C81 O83 1.282 . S
O82 Cd74 2.277 1_554 S
O82 C75 1.226 . S
O83 Cd74 2.356 . S
O83 C81 1.282 . S
C84 O85 1.306 . S
C84 O87 1.160 1_545 S
O85 C84 1.306 . S
O85 Cd86 2.228 1_545 S
Cd86 O85 2.228 1_565 S
Cd86 O90 2.273 . S
Cd86 O94 2.277 . S
O87 C84 1.160 1_565 S
O87 Cd88 2.203 . S
Cd88 O87 2.203 . S
Cd88 O90 2.411 . S
Cd88 O91 2.333 . S
Cd88 O92 2.352 . S
Cd88 O96 2.277 . S
Cd88 O97 2.356 . S
C89 O94 1.209 . S
C89 O96 1.226 . S
O90 Cd86 2.273 . S
O90 Cd88 2.411 . S
O90 C93 1.320 . S
O91 Cd88 2.333 . S
O91 C93 1.214 . S
O92 Cd88 2.352 . S
O92 C95 1.258 . S
C93 O90 1.320 . S
C93 O91 1.214 . S
O94 Cd86 2.277 . S
O94 C89 1.209 . S
C95 O92 1.258 . S
C95 O97 1.282 . S
O96 Cd88 2.277 . S
O96 C89 1.226 . S
O97 Cd88 2.356 . S
O97 C95 1.282 . S
C98 O99 1.306 . S
C98 O101 1.160 . S
O99 C98 1.306 . S
O99 Cd100 2.228 . S
Cd100 O99 2.228 . S
Cd100 O104 2.273 . S
Cd100 O108 2.277 . S
O101 C98 1.160 . S
O101 Cd102 2.203 . S
Cd102 O101 2.203 . S
Cd102 O104 2.411 . S
Cd102 O105 2.333 . S
Cd102 O106 2.352 . S
Cd102 O110 2.277 . S
Cd102 O111 2.356 . S
C103 O108 1.209 . S
C103 O110 1.226 . S
O104 Cd100 2.273 . S
O104 Cd102 2.411 . S
O104 C107 1.320 . S
O105 Cd102 2.333 . S
O105 C107 1.214 . S
O106 Cd102 2.352 . S
O106 C109 1.258 . S
C107 O104 1.320 . S
C107 O105 1.214 . S
O108 Cd100 2.277 . S
O108 C103 1.209 . S
C109 O106 1.258 . S
C109 O111 1.282 . S
O110 Cd102 2.277 . S
O110 C103 1.226 . S
O111 Cd102 2.356 . S
O111 C109 1.282 . S
C112 O113 1.306 . S
C112 O115 1.160 1_655 S
O113 C112 1.306 . S
O113 Cd114 2.228 1_655 S
Cd114 O113 2.228 1_455 S
Cd114 O118 2.273 . S
Cd114 O122 2.277 . S
O115 C112 1.160 1_455 S
O115 Cd116 2.203 . S
Cd116 O115 2.203 . S
Cd116 O118 2.411 . S
Cd116 O119 2.333 . S
Cd116 O120 2.352 . S
Cd116 O124 2.277 1_554 S
Cd116 O125 2.356 . S
C117 O122 1.209 1_556 S
C117 O124 1.226 . S
O118 Cd114 2.273 . S
O118 Cd116 2.411 . S
O118 C121 1.320 . S
O119 Cd116 2.333 . S
O119 C121 1.214 . S
O120 Cd116 2.352 . S
O120 C123 1.258 . S
C121 O118 1.320 . S
C121 O119 1.214 . S
O122 Cd114 2.277 . S
O122 C117 1.209 1_554 S
C123 O120 1.258 . S
C123 O125 1.282 . S
O124 Cd116 2.277 1_556 S
O124 C117 1.226 . S
O125 Cd116 2.356 . S
O125 C123 1.282 . S
C126 O127 1.306 . S
C126 O129 1.160 1_565 S
O127 C126 1.306 . S
O127 Cd128 2.228 1_565 S
Cd128 O127 2.228 1_545 S
Cd128 O132 2.273 . S
Cd128 O136 2.277 . S
O129 C126 1.160 1_545 S
O129 Cd130 2.203 . S
Cd130 O129 2.203 . S
Cd130 O132 2.411 . S
Cd130 O133 2.333 . S
Cd130 O134 2.352 . S
Cd130 O138 2.277 . S
Cd130 O139 2.356 . S
C131 O136 1.209 . S
C131 O138 1.226 . S
O132 Cd128 2.273 . S
O132 Cd130 2.411 . S
O132 C135 1.320 . S
O133 Cd130 2.333 . S
O133 C135 1.214 . S
O134 Cd130 2.352 . S
O134 C137 1.258 . S
C135 O132 1.320 . S
C135 O133 1.214 . S
O136 Cd128 2.277 . S
O136 C131 1.209 . S
C137 O134 1.258 . S
C137 O139 1.282 . S
O138 Cd130 2.277 . S
O138 C131 1.226 . S
O139 Cd130 2.356 . S
O139 C137 1.282 . S
C140 O141 1.306 . S
C140 O143 1.160 . S
O141 C140 1.306 . S
O141 Cd142 2.228 . S
Cd142 O141 2.228 . S
Cd142 O146 2.273 . S
Cd142 O150 2.277 . S
O143 C140 1.160 . S
O143 Cd144 2.203 . S
Cd144 O143 2.203 . S
Cd144 O146 2.411 . S
Cd144 O147 2.333 . S
Cd144 O148 2.352 . S
Cd144 O152 2.277 . S
Cd144 O153 2.356 . S
C145 O150 1.209 . S
C145 O152 1.226 . S
O146 Cd142 2.273 . S
O146 Cd144 2.411 . S
O146 C149 1.320 . S
O147 Cd144 2.333 . S
O147 C149 1.214 . S
O148 Cd144 2.352 . S
O148 C151 1.258 . S
C149 O146 1.320 . S
C149 O147 1.214 . S
O150 Cd142 2.277 . S
O150 C145 1.209 . S
C151 O148 1.258 . S
C151 O153 1.282 . S
O152 Cd144 2.277 . S
O152 C145 1.226 . S
O153 Cd144 2.356 . S
O153 C151 1.282 . S
C154 O155 1.306 . S
C154 O157 1.160 1_455 S
O155 C154 1.306 . S
O155 Cd156 2.228 1_455 S
Cd156 O155 2.228 1_655 S
Cd156 O160 2.273 . S
Cd156 O164 2.277 . S
O157 C154 1.160 1_655 S
O157 Cd158 2.203 . S
Cd158 O157 2.203 . S
Cd158 O160 2.411 . S
Cd158 O161 2.333 . S
Cd158 O162 2.352 . S
Cd158 O166 2.277 . S
Cd158 O167 2.356 . S
C159 O164 1.209 . S
C159 O166 1.226 . S
O160 Cd156 2.273 . S
O160 Cd158 2.411 . S
O160 C163 1.320 . S
O161 Cd158 2.333 . S
O161 C163 1.214 . S
O162 Cd158 2.352 . S
O162 C165 1.258 . S
C163 O160 1.320 . S
C163 O161 1.214 . S
O164 Cd156 2.277 . S
O164 C159 1.209 . S
C165 O162 1.258 . S
C165 O167 1.282 . S
O166 Cd158 2.277 . S
O166 C159 1.226 . S
O167 Cd158 2.356 . S
O167 C165 1.282 . S
H168 C176 0.950 . S
H169 C181 0.950 . S
H170 C178 0.950 . S
H171 C180 0.950 . S
H172 C182 0.950 . S
H173 C184 0.950 . S
H174 C186 0.950 . S
H175 C187 0.950 . S
C176 H168 0.950 . S
C176 C177 1.386 . S
C176 C178 1.391 . S
C177 C176 1.386 . S
C177 C181 1.393 . S
C178 H170 0.950 . S
C178 C176 1.391 . S
C178 C179 1.400 . S
C179 C178 1.400 . S
C179 C180 1.398 . S
C179 C185 1.491 . S
C180 H171 0.950 . S
C180 C179 1.398 . S
C180 C181 1.391 . S
C181 H169 0.950 . S
C181 C177 1.393 . S
C181 C180 1.391 . S
C182 H172 0.950 . S
C182 C183 1.386 . S
C182 C184 1.391 . S
C183 C182 1.386 . S
C183 C187 1.393 . S
C184 H173 0.950 . S
C184 C182 1.391 . S
C184 C185 1.400 . S
C185 C179 1.491 . S
C185 C184 1.400 . S
C185 C186 1.398 . S
C186 H174 0.950 . S
C186 C185 1.398 . S
C186 C187 1.391 . S
C187 H175 0.950 . S
C187 C183 1.393 . S
C187 C186 1.391 . S
H188 C196 0.950 1_565 S
H189 C201 0.950 . S
H190 C198 0.950 1_565 S
H191 C200 0.950 . S
H192 C202 0.950 . S
H193 C204 0.950 . S
H194 C206 0.950 1_565 S
H195 C207 0.950 1_565 S
C196 H188 0.950 1_545 S
C196 C197 1.386 . S
C196 C198 1.391 . S
C197 C196 1.386 . S
C197 C201 1.393 . S
C198 H190 0.950 1_545 S
C198 C196 1.391 . S
C198 C199 1.400 . S
C199 C198 1.400 . S
C199 C200 1.398 . S
C199 C205 1.491 . S
C200 H191 0.950 . S
C200 C199 1.398 . S
C200 C201 1.391 . S
C201 H189 0.950 . S
C201 C197 1.393 . S
C201 C200 1.391 . S
C202 H192 0.950 . S
C202 C203 1.386 . S
C202 C204 1.391 . S
C203 C202 1.386 . S
C203 C207 1.393 . S
C204 H193 0.950 . S
C204 C202 1.391 . S
C204 C205 1.400 . S
C205 C199 1.491 . S
C205 C204 1.400 . S
C205 C206 1.398 . S
C206 H194 0.950 1_545 S
C206 C205 1.398 . S
C206 C207 1.391 . S
C207 H195 0.950 1_545 S
C207 C203 1.393 . S
C207 C206 1.391 . S
H208 C216 0.950 . S
H209 C221 0.950 . S
H210 C218 0.950 . S
H211 C220 0.950 . S
H212 C222 0.950 . S
H213 C224 0.950 . S
H214 C226 0.950 . S
H215 C227 0.950 . S
C216 H208 0.950 . S
C216 C217 1.386 . S
C216 C218 1.391 . S
C217 C216 1.386 . S
C217 C221 1.393 . S
C218 H210 0.950 . S
C218 C216 1.391 . S
C218 C219 1.400 . S
C219 C218 1.400 . S
C219 C220 1.398 . S
C219 C225 1.491 . S
C220 H211 0.950 . S
C220 C219 1.398 . S
C220 C221 1.391 . S
C221 H209 0.950 . S
C221 C217 1.393 . S
C221 C220 1.391 . S
C222 H212 0.950 . S
C222 C223 1.386 . S
C222 C224 1.391 . S
C223 C222 1.386 . S
C223 C227 1.393 . S
C224 H213 0.950 . S
C224 C222 1.391 . S
C224 C225 1.400 . S
C225 C219 1.491 . S
C225 C224 1.400 . S
C225 C226 1.398 . S
C226 H214 0.950 . S
C226 C225 1.398 . S
C226 C227 1.391 . S
C227 H215 0.950 . S
C227 C223 1.393 . S
C227 C226 1.391 . S
H228 C236 0.950 . S
H229 C241 0.950 1_455 S
H230 C238 0.950 . S
H231 C240 0.950 1_455 S
H232 C242 0.950 1_455 S
H233 C244 0.950 1_455 S
H234 C246 0.950 . S
H235 C247 0.950 . S
C236 H228 0.950 . S
C236 C237 1.386 . S
C236 C238 1.391 . S
C237 C236 1.386 . S
C237 C241 1.393 . S
C238 H230 0.950 . S
C238 C236 1.391 . S
C238 C239 1.400 . S
C239 C238 1.400 . S
C239 C240 1.398 . S
C239 C245 1.491 . S
C240 H231 0.950 1_655 S
C240 C239 1.398 . S
C240 C241 1.391 . S
C241 H229 0.950 1_655 S
C241 C237 1.393 . S
C241 C240 1.391 . S
C242 H232 0.950 1_655 S
C242 C243 1.386 . S
C242 C244 1.391 . S
C243 C242 1.386 . S
C243 C247 1.393 . S
C244 H233 0.950 1_655 S
C244 C242 1.391 . S
C244 C245 1.400 . S
C245 C239 1.491 . S
C245 C244 1.400 . S
C245 C246 1.398 . S
C246 H234 0.950 . S
C246 C245 1.398 . S
C246 C247 1.391 . S
C247 H235 0.950 . S
C247 C243 1.393 . S
C247 C246 1.391 . S
H248 C256 0.950 . S
H249 C261 0.950 . S
H250 C258 0.950 . S
H251 C260 0.950 . S
H252 C262 0.950 . S
H253 C264 0.950 . S
H254 C266 0.950 . S
H255 C267 0.950 . S
C256 H248 0.950 . S
C256 C257 1.386 . S
C256 C258 1.391 . S
C257 C256 1.386 . S
C257 C261 1.393 . S
C258 H250 0.950 . S
C258 C256 1.391 . S
C258 C259 1.400 . S
C259 C258 1.400 . S
C259 C260 1.398 . S
C259 C265 1.491 . S
C260 H251 0.950 . S
C260 C259 1.398 . S
C260 C261 1.391 . S
C261 H249 0.950 . S
C261 C257 1.393 . S
C261 C260 1.391 . S
C262 H252 0.950 . S
C262 C263 1.386 . S
C262 C264 1.391 . S
C263 C262 1.386 . S
C263 C267 1.393 . S
C264 H253 0.950 . S
C264 C262 1.391 . S
C264 C265 1.400 . S
C265 C259 1.491 . S
C265 C264 1.400 . S
C265 C266 1.398 . S
C266 H254 0.950 . S
C266 C265 1.398 . S
C266 C267 1.391 . S
C267 H255 0.950 . S
C267 C263 1.393 . S
C267 C266 1.391 . S
H268 C276 0.950 . S
H269 C281 0.950 . S
H270 C278 0.950 . S
H271 C280 0.950 . S
H272 C282 0.950 . S
H273 C284 0.950 . S
H274 C286 0.950 . S
H275 C287 0.950 . S
C276 H268 0.950 . S
C276 C277 1.386 . S
C276 C278 1.391 . S
C277 C276 1.386 . S
C277 C281 1.393 . S
C278 H270 0.950 . S
C278 C276 1.391 . S
C278 C279 1.400 . S
C279 C278 1.400 . S
C279 C280 1.398 . S
C279 C285 1.491 . S
C280 H271 0.950 . S
C280 C279 1.398 . S
C280 C281 1.391 . S
C281 H269 0.950 . S
C281 C277 1.393 . S
C281 C280 1.391 . S
C282 H272 0.950 . S
C282 C283 1.386 . S
C282 C284 1.391 . S
C283 C282 1.386 . S
C283 C287 1.393 . S
C284 H273 0.950 . S
C284 C282 1.391 . S
C284 C285 1.400 . S
C285 C279 1.491 . S
C285 C284 1.400 . S
C285 C286 1.398 . S
C286 H274 0.950 . S
C286 C285 1.398 . S
C286 C287 1.391 . S
C287 H275 0.950 . S
C287 C283 1.393 . S
C287 C286 1.391 . S
H288 C296 0.950 . S
H289 C301 0.950 . S
H290 C298 0.950 . S
H291 C300 0.950 . S
H292 C302 0.950 . S
H293 C304 0.950 . S
H294 C306 0.950 . S
H295 C307 0.935 1_556 S
C296 H288 0.950 . S
C296 C297 1.386 . S
C296 C298 1.391 . S
C297 C296 1.386 . S
C297 C301 1.393 . S
C298 H290 0.950 . S
C298 C296 1.391 . S
C298 C299 1.400 . S
C299 C298 1.400 . S
C299 C300 1.398 . S
C299 C305 1.491 . S
C300 H291 0.950 . S
C300 C299 1.398 . S
C300 C301 1.391 . S
C301 H289 0.950 . S
C301 C297 1.393 . S
C301 C300 1.391 . S
C302 H292 0.950 . S
C302 C303 1.397 . S
C302 C304 1.391 . S
C303 C302 1.397 . S
C303 C307 1.399 . S
C304 H293 0.950 . S
C304 C302 1.391 . S
C304 C305 1.400 . S
C305 C299 1.491 . S
C305 C304 1.400 . S
C305 C306 1.398 . S
C306 H294 0.950 . S
C306 C305 1.398 . S
C306 C307 1.391 . S
C307 H295 0.935 1_554 S
C307 C303 1.399 . S
C307 C306 1.391 . S
H308 C316 0.950 . S
H309 C321 0.950 . S
H310 C318 0.950 . S
H311 C320 0.950 . S
H312 C322 0.950 . S
H313 C324 0.950 . S
H314 C326 0.950 . S
H315 C327 0.950 . S
C316 H308 0.950 . S
C316 C317 1.386 . S
C316 C318 1.391 . S
C317 C316 1.386 . S
C317 C321 1.393 . S
C318 H310 0.950 . S
C318 C316 1.391 . S
C318 C319 1.400 . S
C319 C318 1.400 . S
C319 C320 1.398 . S
C319 C325 1.491 . S
C320 H311 0.950 . S
C320 C319 1.398 . S
C320 C321 1.391 . S
C321 H309 0.950 . S
C321 C317 1.393 . S
C321 C320 1.391 . S
C322 H312 0.950 . S
C322 C323 1.386 . S
C322 C324 1.391 . S
C323 C322 1.386 . S
C323 C327 1.393 . S
C324 H313 0.950 . S
C324 C322 1.391 . S
C324 C325 1.400 . S
C325 C319 1.491 . S
C325 C324 1.400 . S
C325 C326 1.398 . S
C326 H314 0.950 . S
C326 C325 1.398 . S
C326 C327 1.391 . S
C327 H315 0.950 . S
C327 C323 1.393 . S
C327 C326 1.391 . S
H328 C336 0.950 . S
H329 C341 0.950 . S
H330 C338 0.950 . S
H331 C340 0.950 . S
H332 C342 0.950 . S
H333 C344 0.950 . S
H334 C346 0.950 . S
H335 C347 0.950 . S
C336 H328 0.950 . S
C336 C337 1.386 . S
C336 C338 1.391 . S
C337 C336 1.386 . S
C337 C341 1.393 . S
C338 H330 0.950 . S
C338 C336 1.391 . S
C338 C339 1.400 . S
C339 C338 1.400 . S
C339 C340 1.398 . S
C339 C345 1.491 . S
C340 H331 0.950 . S
C340 C339 1.398 . S
C340 C341 1.391 . S
C341 H329 0.950 . S
C341 C337 1.393 . S
C341 C340 1.391 . S
C342 H332 0.950 . S
C342 C343 1.386 . S
C342 C344 1.391 . S
C343 C342 1.386 . S
C343 C347 1.393 . S
C344 H333 0.950 . S
C344 C342 1.391 . S
C344 C345 1.400 . S
C345 C339 1.491 . S
C345 C344 1.400 . S
C345 C346 1.398 . S
C346 H334 0.950 . S
C346 C345 1.398 . S
C346 C347 1.391 . S
C347 H335 0.950 . S
C347 C343 1.393 . S
C347 C346 1.391 . S
H348 C356 0.950 . S
H349 C361 0.950 . S
H350 C358 0.950 . S
H351 C360 0.950 . S
H352 C362 0.950 . S
H353 C364 0.950 . S
H354 C366 0.950 . S
H355 C367 0.950 . S
C356 H348 0.950 . S
C356 C357 1.386 . S
C356 C358 1.391 . S
C357 C356 1.386 . S
C357 C361 1.393 . S
C358 H350 0.950 . S
C358 C356 1.391 . S
C358 C359 1.400 . S
C359 C358 1.400 . S
C359 C360 1.398 . S
C359 C365 1.491 . S
C360 H351 0.950 . S
C360 C359 1.398 . S
C360 C361 1.391 . S
C361 H349 0.950 . S
C361 C357 1.393 . S
C361 C360 1.391 . S
C362 H352 0.950 . S
C362 C363 1.386 . S
C362 C364 1.391 . S
C363 C362 1.386 . S
C363 C367 1.393 . S
C364 H353 0.950 . S
C364 C362 1.391 . S
C364 C365 1.400 . S
C365 C359 1.491 . S
C365 C364 1.400 . S
C365 C366 1.398 . S
C366 H354 0.950 . S
C366 C365 1.398 . S
C366 C367 1.391 . S
C367 H355 0.950 . S
C367 C363 1.393 . S
C367 C366 1.391 . S
H368 C376 0.950 . S
H369 C381 0.950 . S
H370 C378 0.950 . S
H371 C380 0.950 . S
H372 C382 0.950 . S
H373 C384 0.950 . S
H374 C386 0.950 . S
H375 C387 0.950 . S
C376 H368 0.950 . S
C376 C377 1.386 . S
C376 C378 1.391 . S
C377 C376 1.386 . S
C377 C381 1.393 . S
C378 H370 0.950 . S
C378 C376 1.391 . S
C378 C379 1.400 . S
C379 C378 1.400 . S
C379 C380 1.398 . S
C379 C385 1.491 . S
C380 H371 0.950 . S
C380 C379 1.398 . S
C380 C381 1.391 . S
C381 H369 0.950 . S
C381 C377 1.393 . S
C381 C380 1.391 . S
C382 H372 0.950 . S
C382 C383 1.386 . S
C382 C384 1.391 . S
C383 C382 1.386 . S
C383 C387 1.393 . S
C384 H373 0.950 . S
C384 C382 1.391 . S
C384 C385 1.400 . S
C385 C379 1.491 . S
C385 C384 1.400 . S
C385 C386 1.398 . S
C386 H374 0.950 . S
C386 C385 1.398 . S
C386 C387 1.391 . S
C387 H375 0.950 . S
C387 C383 1.393 . S
C387 C386 1.391 . S
H388 C396 0.950 . S
H389 C401 0.950 . S
H390 C398 0.950 . S
H391 C400 0.950 . S
H392 C402 0.950 . S
H393 C404 0.950 . S
H394 C406 0.950 . S
H395 C407 0.950 . S
C396 H388 0.950 . S
C396 C397 1.386 . S
C396 C398 1.391 . S
C397 C396 1.386 . S
C397 C401 1.393 . S
C398 H390 0.950 . S
C398 C396 1.391 . S
C398 C399 1.400 . S
C399 C398 1.400 . S
C399 C400 1.398 . S
C399 C405 1.491 . S
C400 H391 0.950 . S
C400 C399 1.398 . S
C400 C401 1.391 . S
C401 H389 0.950 . S
C401 C397 1.393 . S
C401 C400 1.391 . S
C402 H392 0.950 . S
C402 C403 1.386 . S
C402 C404 1.391 . S
C403 C402 1.386 . S
C403 C407 1.393 . S
C404 H393 0.950 . S
C404 C402 1.391 . S
C404 C405 1.400 . S
C405 C399 1.491 . S
C405 C404 1.400 . S
C405 C406 1.398 . S
C406 H394 0.950 . S
C406 C405 1.398 . S
C406 C407 1.391 . S
C407 H395 0.950 . S
C407 C403 1.393 . S
C407 C406 1.391 . S
H408 C416 0.950 . S
H409 C421 0.950 . S
H410 C418 0.950 . S
H411 C420 0.950 . S
H412 C422 0.950 . S
H413 C424 0.950 . S
H414 C426 0.950 . S
H415 C427 0.950 . S
C416 H408 0.950 . S
C416 C417 1.386 . S
C416 C418 1.391 . S
C417 C416 1.386 . S
C417 C421 1.393 . S
C418 H410 0.950 . S
C418 C416 1.391 . S
C418 C419 1.400 . S
C419 C418 1.400 . S
C419 C420 1.398 . S
C419 C425 1.491 . S
C420 H411 0.950 . S
C420 C419 1.398 . S
C420 C421 1.391 . S
C421 H409 0.950 . S
C421 C417 1.393 . S
C421 C420 1.391 . S
C422 H412 0.950 . S
C422 C423 1.386 . S
C422 C424 1.391 . S
C423 C422 1.386 . S
C423 C427 1.393 . S
C424 H413 0.950 . S
C424 C422 1.391 . S
C424 C425 1.400 . S
C425 C419 1.491 . S
C425 C424 1.400 . S
C425 C426 1.398 . S
C426 H414 0.950 . S
C426 C425 1.398 . S
C426 C427 1.391 . S
C427 H415 0.950 . S
C427 C423 1.393 . S
C427 C426 1.391 . S
H428 C436 0.950 . S
H429 C441 0.950 . S
H430 C438 0.950 . S
H431 C440 0.950 . S
H432 C442 0.950 . S
H433 C444 0.950 . S
H434 C446 0.950 . S
H435 C447 0.950 . S
C436 H428 0.950 . S
C436 C437 1.386 . S
C436 C438 1.391 . S
C437 C436 1.386 . S
C437 C441 1.393 . S
C438 H430 0.950 . S
C438 C436 1.391 . S
C438 C439 1.400 . S
C439 C438 1.400 . S
C439 C440 1.398 . S
C439 C445 1.491 . S
C440 H431 0.950 . S
C440 C439 1.398 . S
C440 C441 1.391 . S
C441 H429 0.950 . S
C441 C437 1.393 . S
C441 C440 1.391 . S
C442 H432 0.950 . S
C442 C443 1.361 1_556 S
C442 C444 1.391 . S
C443 C442 1.361 1_554 S
C443 C447 1.399 . S
C444 H433 0.950 . S
C444 C442 1.391 . S
C444 C445 1.400 . S
C445 C439 1.491 . S
C445 C444 1.400 . S
C445 C446 1.398 . S
C446 H434 0.950 . S
C446 C445 1.398 . S
C446 C447 1.391 1_556 S
C447 H435 0.950 . S
C447 C443 1.399 . S
C447 C446 1.391 1_554 S
H448 C456 0.950 . S
H449 C461 0.950 . S
H450 C458 0.950 . S
H451 C460 0.950 . S
H452 C462 0.950 . S
H453 C464 0.950 . S
H454 C466 0.950 . S
H455 C467 0.950 . S
C456 H448 0.950 . S
C456 C457 1.386 . S
C456 C458 1.391 . S
C457 C456 1.386 . S
C457 C461 1.393 . S
C458 H450 0.950 . S
C458 C456 1.391 . S
C458 C459 1.400 . S
C459 C458 1.400 . S
C459 C460 1.398 . S
C459 C465 1.491 . S
C460 H451 0.950 . S
C460 C459 1.398 . S
C460 C461 1.391 . S
C461 H449 0.950 . S
C461 C457 1.393 . S
C461 C460 1.391 . S
C462 H452 0.950 . S
C462 C463 1.386 . S
C462 C464 1.391 . S
C463 C462 1.386 . S
C463 C467 1.393 . S
C464 H453 0.950 . S
C464 C462 1.391 . S
C464 C465 1.400 . S
C465 C459 1.491 . S
C465 C464 1.400 . S
C465 C466 1.398 . S
C466 H454 0.950 . S
C466 C465 1.398 . S
C466 C467 1.391 . S
C467 H455 0.950 . S
C467 C463 1.393 . S
C467 C466 1.391 . S
H468 C476 0.950 . S
H469 C481 0.950 . S
H470 C478 0.950 . S
H471 C480 0.950 . S
H472 C482 0.950 . S
H473 C484 0.950 . S
H474 C486 0.950 . S
H475 C487 0.950 . S
C476 H468 0.950 . S
C476 C477 1.386 . S
C476 C478 1.391 . S
C477 C476 1.386 . S
C477 C481 1.393 . S
C478 H470 0.950 . S
C478 C476 1.391 . S
C478 C479 1.400 . S
C479 C478 1.400 . S
C479 C480 1.398 . S
C479 C485 1.491 . S
C480 H471 0.950 . S
C480 C479 1.398 . S
C480 C481 1.391 . S
C481 H469 0.950 . S
C481 C477 1.393 . S
C481 C480 1.391 . S
C482 H472 0.950 . S
C482 C483 1.386 . S
C482 C484 1.391 . S
C483 C482 1.386 . S
C483 C487 1.393 . S
C484 H473 0.950 . S
C484 C482 1.391 . S
C484 C485 1.400 . S
C485 C479 1.491 . S
C485 C484 1.400 . S
C485 C486 1.398 . S
C486 H474 0.950 . S
C486 C485 1.398 . S
C486 C487 1.391 . S
C487 H475 0.950 . S
C487 C483 1.393 . S
C487 C486 1.391 . S
H488 C496 0.950 . S
H489 C501 0.950 . S
H490 C498 0.950 . S
H491 C500 0.950 . S
H492 C502 0.950 . S
H493 C504 0.950 . S
H494 C506 0.950 . S
H495 C507 0.950 . S
C496 H488 0.950 . S
C496 C497 1.386 . S
C496 C498 1.391 . S
C497 C496 1.386 . S
C497 C501 1.393 . S
C498 H490 0.950 . S
C498 C496 1.391 . S
C498 C499 1.400 . S
C499 C498 1.400 . S
C499 C500 1.398 . S
C499 C505 1.491 . S
C500 H491 0.950 . S
C500 C499 1.398 . S
C500 C501 1.391 . S
C501 H489 0.950 . S
C501 C497 1.393 . S
C501 C500 1.391 . S
C502 H492 0.950 . S
C502 C503 1.386 . S
C502 C504 1.391 . S
C503 C502 1.386 . S
C503 C507 1.393 . S
C504 H493 0.950 . S
C504 C502 1.391 . S
C504 C505 1.400 . S
C505 C499 1.491 . S
C505 C504 1.400 . S
C505 C506 1.398 . S
C506 H494 0.950 . S
C506 C505 1.398 . S
C506 C507 1.391 . S
C507 H495 0.950 . S
C507 C503 1.393 . S
C507 C506 1.391 . S
H508 C516 0.950 . S
H509 C521 0.950 . S
H510 C518 0.950 . S
H511 C520 0.950 . S
H512 C522 0.950 . S
H513 C524 0.950 . S
H514 C526 0.950 . S
H515 C527 0.950 . S
C516 H508 0.950 . S
C516 C517 1.386 . S
C516 C518 1.391 . S
C517 C516 1.386 . S
C517 C521 1.393 . S
C518 H510 0.950 . S
C518 C516 1.391 . S
C518 C519 1.400 . S
C519 C518 1.400 . S
C519 C520 1.398 . S
C519 C525 1.491 . S
C520 H511 0.950 . S
C520 C519 1.398 . S
C520 C521 1.391 . S
C521 H509 0.950 . S
C521 C517 1.393 . S
C521 C520 1.391 . S
C522 H512 0.950 . S
C522 C523 1.386 . S
C522 C524 1.391 . S
C523 C522 1.386 . S
C523 C527 1.393 . S
C524 H513 0.950 . S
C524 C522 1.391 . S
C524 C525 1.400 . S
C525 C519 1.491 . S
C525 C524 1.400 . S
C525 C526 1.398 . S
C526 H514 0.950 . S
C526 C525 1.398 . S
C526 C527 1.391 . S
C527 H515 0.950 . S
C527 C523 1.393 . S
C527 C526 1.391 . S
H528 C536 0.950 . S
H529 C541 0.950 . S
H530 C538 0.950 . S
H531 C540 0.950 . S
H532 C542 0.950 . S
H533 C544 0.950 . S
H534 C546 0.950 . S
H535 C547 0.950 . S
C536 H528 0.950 . S
C536 C537 1.386 . S
C536 C538 1.391 . S
C537 C536 1.386 . S
C537 C541 1.393 . S
C538 H530 0.950 . S
C538 C536 1.391 . S
C538 C539 1.400 . S
C539 C538 1.400 . S
C539 C540 1.398 . S
C539 C545 1.491 . S
C540 H531 0.950 . S
C540 C539 1.398 . S
C540 C541 1.391 . S
C541 H529 0.950 . S
C541 C537 1.393 . S
C541 C540 1.391 . S
C542 H532 0.950 . S
C542 C543 1.386 . S
C542 C544 1.391 . S
C543 C542 1.386 . S
C543 C547 1.393 . S
C544 H533 0.950 . S
C544 C542 1.391 . S
C544 C545 1.400 . S
C545 C539 1.491 . S
C545 C544 1.400 . S
C545 C546 1.398 . S
C546 H534 0.950 . S
C546 C545 1.398 . S
C546 C547 1.391 . S
C547 H535 0.950 . S
C547 C543 1.393 . S
C547 C546 1.391 . S
H548 C556 0.950 . S
H549 C561 0.950 . S
H550 C558 0.950 . S
H551 C560 0.950 . S
H552 C562 0.950 . S
H553 C564 0.950 . S
H554 C566 0.950 . S
H555 C567 0.950 . S
C556 H548 0.950 . S
C556 C557 1.386 . S
C556 C558 1.391 . S
C557 C556 1.386 . S
C557 C561 1.393 . S
C558 H550 0.950 . S
C558 C556 1.391 . S
C558 C559 1.400 . S
C559 C558 1.400 . S
C559 C560 1.398 . S
C559 C565 1.491 . S
C560 H551 0.950 . S
C560 C559 1.398 . S
C560 C561 1.391 . S
C561 H549 0.950 . S
C561 C557 1.393 . S
C561 C560 1.391 . S
C562 H552 0.950 . S
C562 C563 1.386 . S
C562 C564 1.391 . S
C563 C562 1.386 . S
C563 C567 1.393 . S
C564 H553 0.950 . S
C564 C562 1.391 . S
C564 C565 1.400 . S
C565 C559 1.491 . S
C565 C564 1.400 . S
C565 C566 1.398 . S
C566 H554 0.950 . S
C566 C565 1.398 . S
C566 C567 1.391 . S
C567 H555 0.950 . S
C567 C563 1.393 . S
C567 C566 1.391 . S
H568 C576 0.950 . S
H569 C581 0.950 . S
H570 C578 0.950 . S
H571 C580 0.950 . S
H572 C582 0.950 . S
H573 C584 0.950 . S
H574 C586 0.950 . S
H575 C587 0.950 . S
C576 H568 0.950 . S
C576 C577 1.386 . S
C576 C578 1.391 . S
C577 C576 1.386 . S
C577 C581 1.393 . S
C578 H570 0.950 . S
C578 C576 1.391 . S
C578 C579 1.400 . S
C579 C578 1.400 . S
C579 C580 1.398 . S
C579 C585 1.491 . S
C580 H571 0.950 . S
C580 C579 1.398 . S
C580 C581 1.391 . S
C581 H569 0.950 . S
C581 C577 1.393 . S
C581 C580 1.391 . S
C582 H572 0.950 . S
C582 C583 1.386 . S
C582 C584 1.391 . S
C583 C582 1.386 . S
C583 C587 1.393 . S
C584 H573 0.950 . S
C584 C582 1.391 . S
C584 C585 1.400 . S
C585 C579 1.491 . S
C585 C584 1.400 . S
C585 C586 1.398 . S
C586 H574 0.950 . S
C586 C585 1.398 . S
C586 C587 1.391 . S
C587 H575 0.950 . S
C587 C583 1.393 . S
C587 C586 1.391 . S
H588 C596 0.950 . S
H589 C601 0.950 . S
H590 C598 0.950 . S
H591 C600 0.950 . S
H592 C602 0.950 . S
H593 C604 0.950 . S
H594 C606 0.950 . S
H595 C607 0.950 . S
C596 H588 0.950 . S
C596 C597 1.386 . S
C596 C598 1.391 . S
C597 C596 1.386 . S
C597 C601 1.393 . S
C598 H590 0.950 . S
C598 C596 1.391 . S
C598 C599 1.400 . S
C599 C598 1.400 . S
C599 C600 1.398 . S
C599 C605 1.491 . S
C600 H591 0.950 . S
C600 C599 1.398 . S
C600 C601 1.391 . S
C601 H589 0.950 . S
C601 C597 1.393 . S
C601 C600 1.391 . S
C602 H592 0.950 . S
C602 C603 1.386 . S
C602 C604 1.391 . S
C603 C602 1.386 . S
C603 C607 1.393 . S
C604 H593 0.950 . S
C604 C602 1.391 . S
C604 C605 1.400 . S
C605 C599 1.491 . S
C605 C604 1.400 . S
C605 C606 1.398 . S
C606 H594 0.950 . S
C606 C605 1.398 . S
C606 C607 1.391 . S
C607 H595 0.950 . S
C607 C603 1.393 . S
C607 C606 1.391 . S
H608 C616 0.950 . S
H609 C621 0.950 . S
H610 C618 0.950 . S
H611 C620 0.950 . S
H612 C622 0.950 . S
H613 C624 0.950 . S
H614 C626 0.950 . S
H615 C627 0.950 . S
C616 H608 0.950 . S
C616 C617 1.386 . S
C616 C618 1.391 . S
C617 C616 1.386 . S
C617 C621 1.393 . S
C618 H610 0.950 . S
C618 C616 1.391 . S
C618 C619 1.400 . S
C619 C618 1.400 . S
C619 C620 1.398 . S
C619 C625 1.491 . S
C620 H611 0.950 . S
C620 C619 1.398 . S
C620 C621 1.391 . S
C621 H609 0.950 . S
C621 C617 1.393 . S
C621 C620 1.391 . S
C622 H612 0.950 . S
C622 C623 1.386 . S
C622 C624 1.391 . S
C623 C622 1.386 . S
C623 C627 1.393 . S
C624 H613 0.950 . S
C624 C622 1.391 . S
C624 C625 1.400 . S
C625 C619 1.491 . S
C625 C624 1.400 . S
C625 C626 1.398 . S
C626 H614 0.950 . S
C626 C625 1.398 . S
C626 C627 1.391 . S
C627 H615 0.950 . S
C627 C623 1.393 . S
C627 C626 1.391 . S
H628 C636 0.950 . S
H629 C641 0.950 . S
H630 C638 0.950 . S
H631 C640 0.950 . S
H632 C642 0.950 . S
H633 C644 0.950 . S
H634 C646 0.950 . S
H635 C647 0.950 . S
C636 H628 0.950 . S
C636 C637 1.386 . S
C636 C638 1.391 . S
C637 C636 1.386 . S
C637 C641 1.393 . S
C638 H630 0.950 . S
C638 C636 1.391 . S
C638 C639 1.400 . S
C639 C638 1.400 . S
C639 C640 1.398 . S
C639 C645 1.491 . S
C640 H631 0.950 . S
C640 C639 1.398 . S
C640 C641 1.391 . S
C641 H629 0.950 . S
C641 C637 1.393 . S
C641 C640 1.391 . S
C642 H632 0.950 . S
C642 C643 1.386 . S
C642 C644 1.391 . S
C643 C642 1.386 . S
C643 C647 1.393 . S
C644 H633 0.950 . S
C644 C642 1.391 . S
C644 C645 1.400 . S
C645 C639 1.491 . S
C645 C644 1.400 . S
C645 C646 1.398 . S
C646 H634 0.950 . S
C646 C645 1.398 . S
C646 C647 1.391 . S
C647 H635 0.950 . S
C647 C643 1.393 . S
C647 C646 1.391 . S
C177 C123 1.399 . S
C183 C11 1.408 . S
C197 C25 1.395 . S
C203 C137 1.394 . S
C217 C39 1.408 . S
C223 C151 1.400 . S
C237 C53 1.407 . S
C243 C165 1.404 . S
C257 C95 1.406 . S
C263 C67 1.394 . S
C277 C81 1.403 . S
C283 C109 1.392 . S
C297 C9 1.524 . S
C303 C70 1.473 1_554 S
C317 C23 1.522 . S
C323 C0 1.486 . S
C337 C37 1.515 . S
C343 C14 1.491 . S
C357 C28 1.493 . S
C363 C51 1.516 . S
C377 C42 1.492 . S
C383 C65 1.516 . S
C397 C56 1.504 . S
C403 C79 1.529 . S
C417 C98 1.498 . S
C423 C93 1.529 . S
C437 C107 1.516 . S
C443 C112 1.509 . S
C457 C126 1.503 . S
C463 C121 1.520 . S
C477 C135 1.516 . S
C483 C140 1.492 . S
C497 C149 1.528 . S
C503 C154 1.505 . S
C517 C163 1.527 . S
C523 C84 1.507 . S
C537 C145 1.285 . S
C543 C5 1.282 . S
C557 C159 1.282 . S
C563 C19 1.283 . S
C577 C89 1.283 . S
C583 C33 1.284 . S
C597 C47 1.285 . S
C603 C103 1.281 . S
C617 C61 1.283 . S
C623 C117 1.284 . S
C637 C131 1.284 . S
C643 C75 1.281 . S
