# Generated by pormake.
# Topology vby, (6)-cn, num edge types: 1
# Building blocks:
#     Node 0, Type 0, BuildingBlock: BETDEL_clean_sbu_0, # of connection points: 6
#     Node 1, Type 0, BuildingBlock: BETDEL_clean_sbu_0, # of connection points: 6
#     Node 2, Type 0, BuildingBlock: BETDEL_clean_sbu_0, # of connection points: 6
#     Node 3, Type 0, BuildingBlock: BETDEL_clean_sbu_0, # of connection points: 6
#     Node 4, Type 0, BuildingBlock: BETDEL_clean_sbu_0, # of connection points: 6
#     Node 5, Type 0, BuildingBlock: BETDEL_clean_sbu_0, # of connection points: 6
#     Node 6, Type 0, BuildingBlock: BETDEL_clean_sbu_0, # of connection points: 6
#     Node 7, Type 0, BuildingBlock: BETDEL_clean_sbu_0, # of connection points: 6
#     Edge 8, Type (0, 0), BuildingBlock: EYOCIG_clean_linker_4, # of connection points: 2
#     Edge 9, Type (0, 0), BuildingBlock: EYOCIG_clean_linker_4, # of connection points: 2
#     Edge 10, Type (0, 0), BuildingBlock: EYOCIG_clean_linker_4, # of connection points: 2
#     Edge 11, Type (0, 0), BuildingBlock: EYOCIG_clean_linker_4, # of connection points: 2
#     Edge 12, Type (0, 0), BuildingBlock: EYOCIG_clean_linker_4, # of connection points: 2
#     Edge 13, Type (0, 0), BuildingBlock: EYOCIG_clean_linker_4, # of connection points: 2
#     Edge 14, Type (0, 0), BuildingBlock: EYOCIG_clean_linker_4, # of connection points: 2
#     Edge 15, Type (0, 0), BuildingBlock: EYOCIG_clean_linker_4, # of connection points: 2
#     Edge 16, Type (0, 0), BuildingBlock: EYOCIG_clean_linker_4, # of connection points: 2
#     Edge 17, Type (0, 0), BuildingBlock: EYOCIG_clean_linker_4, # of connection points: 2
#     Edge 18, Type (0, 0), BuildingBlock: EYOCIG_clean_linker_4, # of connection points: 2
#     Edge 19, Type (0, 0), BuildingBlock: EYOCIG_clean_linker_4, # of connection points: 2
#     Edge 20, Type (0, 0), BuildingBlock: EYOCIG_clean_linker_4, # of connection points: 2
#     Edge 21, Type (0, 0), BuildingBlock: EYOCIG_clean_linker_4, # of connection points: 2
#     Edge 22, Type (0, 0), BuildingBlock: EYOCIG_clean_linker_4, # of connection points: 2
#     Edge 23, Type (0, 0), BuildingBlock: EYOCIG_clean_linker_4, # of connection points: 2
#     Edge 24, Type (0, 0), BuildingBlock: EYOCIG_clean_linker_4, # of connection points: 2
#     Edge 25, Type (0, 0), BuildingBlock: EYOCIG_clean_linker_4, # of connection points: 2
#     Edge 26, Type (0, 0), BuildingBlock: EYOCIG_clean_linker_4, # of connection points: 2
#     Edge 27, Type (0, 0), BuildingBlock: EYOCIG_clean_linker_4, # of connection points: 2
#     Edge 28, Type (0, 0), BuildingBlock: EYOCIG_clean_linker_4, # of connection points: 2
#     Edge 29, Type (0, 0), BuildingBlock: EYOCIG_clean_linker_4, # of connection points: 2
#     Edge 30, Type (0, 0), BuildingBlock: EYOCIG_clean_linker_4, # of connection points: 2
#     Edge 31, Type (0, 0), BuildingBlock: EYOCIG_clean_linker_4, # of connection points: 2
# Relax obj value: 0.128
# Max RMSD: 0.165
# Mean RMSD: 0.165
data_MOF--net-vby--node1-BETDEL_clean_sbu_0--edge1-EYOCIG_clean_linker_4
_symmetry_space_group_name_H-M    P1
_symmetry_Int_Tables_number       1
_symmetry_cell_setting            triclinic
loop_
_symmetry_equiv_pos_as_xyz
'x, y, z'
_cell_length_a     12.22368
_cell_length_b     59.226133
_cell_length_c     22.21341
_cell_angle_alpha  89.871611
_cell_angle_beta   89.029108
_cell_angle_gamma 89.962032
loop_
_atom_site_label
_atom_site_type_symbol
_atom_site_fract_x
_atom_site_fract_y
_atom_site_fract_z
_atom_type_partial_charge
Dy0 Dy 0.07272 0.4137 0.05459 0.0
C1 C 0.1422 0.31564 0.0439 0.0
C2 C 0.05421 0.45908 0.04129 0.0
Dy3 Dy 0.08303 0.3598 0.03891 0.0
O4 O 0.12379 0.44911 0.07594 0.0
O5 O 0.99654 0.44436 1.0122 0.0
O6 O 0.0528 0.41361 0.15681 0.0
O7 O 0.07196 0.38406 0.10949 0.0
C8 C 0.05824 0.39182 0.16127 0.0
C9 C 0.04483 0.38383 0.93952 0.0
O10 O 0.90529 0.36462 0.06113 0.0
O11 O 0.89803 0.40357 0.04101 0.0
O12 O 0.16545 0.32926 0.99977 0.0
O13 O 0.08358 0.32582 0.08515 0.0
O14 O 1.00955 0.36336 0.94814 0.0
O15 O 0.10743 0.38975 0.98138 0.0
O16 O 0.25253 0.4085 0.04 0.0
O17 O 0.25639 0.36954 0.0573 0.0
C18 C 0.85087 0.38377 0.0522 0.0
C19 C 0.30532 0.38929 0.04952 0.0
Dy20 Dy 0.93675 0.66959 0.05957 0.0
C21 C 0.96551 0.57039 0.05619 0.0
C22 C 0.87751 0.71376 0.05507 0.0
Dy23 Dy 0.94699 0.61578 0.04333 0.0
O24 O 0.85385 0.70004 0.09891 0.0
O25 O 0.93656 0.70367 1.01383 0.0
O26 O 1.01002 0.66599 0.15026 0.0
O27 O 0.91212 0.63956 0.11697 0.0
C28 C 0.97466 0.64553 0.15884 0.0
C29 C 0.96155 0.63774 0.9368 0.0
O30 O 0.76721 0.62097 0.05793 0.0
O31 O 0.76347 0.65992 0.04078 0.0
O32 O 0.89573 0.58041 0.02177 0.0
O33 O 0.02341 0.58506 0.08529 0.0
O34 O 0.9665 0.61595 0.94113 0.0
O35 O 0.94849 0.64549 0.98863 0.0
O36 O 0.11452 0.66483 0.0374 0.0
O37 O 0.12172 0.62586 0.05707 0.0
C38 C 0.71446 0.64018 0.04846 0.0
C39 C 0.16891 0.64567 0.04611 0.0
Dy40 Dy 0.084 0.66952 0.5386 0.0
C41 C 0.05514 0.57031 0.54229 0.0
C42 C 0.14298 0.71368 0.54309 0.0
Dy43 Dy 0.07394 0.61567 0.55517 0.0
O44 O 0.16668 0.70004 0.49923 0.0
O45 O 0.08403 0.70352 0.58433 0.0
O46 O 0.0109 0.66601 0.44787 0.0
O47 O 0.10873 0.63953 0.48143 0.0
C48 C 0.04625 0.64554 0.43949 0.0
C49 C 0.05927 0.63759 0.66151 0.0
O50 O 0.25375 0.62085 0.54063 0.0
O51 O 0.25733 0.65981 0.55738 0.0
O52 O 0.12476 0.58023 0.57687 0.0
O53 O 0.99757 0.58507 0.51307 0.0
O54 O 0.05435 0.6158 0.65739 0.0
O55 O 0.07238 0.64534 0.6096 0.0
O56 O 0.90623 0.66475 0.56077 0.0
O57 O 0.89918 0.62579 0.54142 0.0
C58 C 0.3064 0.64006 0.54991 0.0
C59 C 0.85191 0.6456 0.55222 0.0
Dy60 Dy 0.94682 0.41365 0.54328 0.0
C61 C 0.87771 0.31556 0.55479 0.0
C62 C 0.96547 0.459 0.55645 0.0
Dy63 Dy 0.93676 0.35971 0.55943 0.0
O64 O 0.896 0.4491 0.52173 0.0
O65 O 0.02295 0.44422 0.58566 0.0
O66 O 0.96672 0.41359 0.44107 0.0
O67 O 0.94772 0.38402 0.48866 0.0
C68 C 0.9614 0.3918 0.43681 0.0
C69 C 0.97479 0.38372 0.6586 0.0
O70 O 0.11448 0.36453 0.53717 0.0
O71 O 0.12157 0.40348 0.55688 0.0
O72 O 0.85448 0.32916 0.59883 0.0
O73 O 0.93626 0.32576 0.51345 0.0
O74 O 0.01014 0.36325 0.65021 0.0
O75 O 0.91221 0.38965 0.61665 0.0
O76 O 0.76701 0.40844 0.55784 0.0
O77 O 0.76335 0.36948 0.54096 0.0
C78 C 0.16881 0.38367 0.54589 0.0
C79 C 0.71433 0.38923 0.54852 0.0
Dy80 Dy 0.57206 0.91364 0.05541 0.0
C81 C 0.64173 0.81559 0.04454 0.0
C82 C 0.55354 0.95901 0.04224 0.0
Dy83 Dy 0.58236 0.85974 0.03967 0.0
O84 O 0.62325 0.94903 0.07678 0.0
O85 O 0.49574 0.94431 1.01318 0.0
O86 O 0.55233 0.91353 0.15763 0.0
O87 O 0.57134 0.88399 0.1103 0.0
C88 C 0.55776 0.89175 0.16208 0.0
C89 C 0.54404 0.88379 0.9403 0.0
O90 O 0.40463 0.86455 0.06192 0.0
O91 O 0.39736 0.9035 0.04185 0.0
O92 O 0.66483 0.82923 1.00042 0.0
O93 O 0.58312 0.82575 0.08584 0.0
O94 O 0.50876 0.86332 0.94893 0.0
O95 O 0.6067 0.8897 0.98215 0.0
O96 O 0.75185 0.90844 0.04073 0.0
O97 O 0.75573 0.86948 0.05803 0.0
C98 C 0.35021 0.8837 0.05301 0.0
C99 C 0.80466 0.88923 0.05024 0.0
Dy100 Dy 0.43599 0.16954 0.0598 0.0
C101 C 0.46473 0.07032 0.05712 0.0
C102 C 0.37691 0.21371 0.05494 0.0
Dy103 Dy 0.44622 0.1157 0.04395 0.0
O104 O 0.35313 0.20004 0.09888 0.0
O105 O 0.43598 0.20357 1.0138 0.0
O106 O 0.50923 0.16603 0.15054 0.0
O107 O 0.41138 0.13956 0.11741 0.0
C108 C 0.4739 0.14558 0.15924 0.0
C109 C 0.46084 0.13757 0.93729 0.0
O110 O 0.26643 0.12091 0.05849 0.0
O111 O 0.26271 0.15985 0.04108 0.0
O112 O 0.39501 0.08031 0.0226 0.0
O113 O 0.52259 0.08503 0.08615 0.0
O114 O 0.46583 0.11578 0.94174 0.0
O115 O 0.4477 0.14536 0.98907 0.0
O116 O 0.61376 0.16474 0.03766 0.0
O117 O 0.62095 0.12579 0.05762 0.0
C118 C 0.2137 0.14011 0.04888 0.0
C119 C 0.66815 0.14559 0.04651 0.0
Dy120 Dy 0.58381 0.16954 0.53921 0.0
C121 C 0.55482 0.07032 0.54241 0.0
C122 C 0.64292 0.2137 0.54399 0.0
Dy123 Dy 0.5737 0.11567 0.55545 0.0
O124 O 0.66658 0.20009 0.50005 0.0
O125 O 0.58392 0.20351 0.58516 0.0
O126 O 0.51073 0.16612 0.44846 0.0
O127 O 0.60848 0.13959 0.48187 0.0
C128 C 0.54602 0.14565 0.43996 0.0
C129 C 0.55902 0.1375 0.66191 0.0
O130 O 0.75351 0.12085 0.54091 0.0
O131 O 0.75713 0.15979 0.55792 0.0
O132 O 0.62451 0.08022 0.57699 0.0
O133 O 0.49724 0.08509 0.51327 0.0
O134 O 0.55406 0.11571 0.65767 0.0
O135 O 0.57219 0.1453 0.61005 0.0
O136 O 0.40603 0.16476 0.56134 0.0
O137 O 0.39896 0.12582 0.54172 0.0
C138 C 0.80619 0.14005 0.55031 0.0
C139 C 0.3517 0.14562 0.55266 0.0
Dy140 Dy 0.44627 0.91367 0.54411 0.0
C141 C 0.37756 0.81555 0.55469 0.0
C142 C 0.46478 0.95903 0.55715 0.0
Dy143 Dy 0.43623 0.85971 0.56009 0.0
O144 O 0.39534 0.94911 0.52247 0.0
O145 O 0.5223 0.94427 0.58641 0.0
O146 O 0.46644 0.91362 0.44189 0.0
O147 O 0.44719 0.88407 0.48947 0.0
C148 C 0.46106 0.89183 0.43763 0.0
C149 C 0.47407 0.88366 0.65935 0.0
O150 O 0.61401 0.86457 0.53807 0.0
O151 O 0.62095 0.90351 0.55792 0.0
O152 O 0.35504 0.82898 0.5992 0.0
O153 O 0.43524 0.82593 0.51328 0.0
O154 O 0.50936 0.86319 0.65094 0.0
O155 O 0.41161 0.88962 0.61737 0.0
O156 O 0.26648 0.90847 0.55876 0.0
O157 O 0.26266 0.86949 0.54211 0.0
C158 C 0.66825 0.88371 0.54693 0.0
C159 C 0.21373 0.88926 0.54962 0.0
C160 C 0.5207 0.38772 0.05222 0.0
C161 C 0.42255 0.38941 0.05057 0.0
C162 C 0.63532 0.38499 0.05351 0.0
C163 C 0.73359 0.38337 0.05348 0.0
C164 C 0.38446 0.64446 0.04466 0.0
C165 C 0.28619 0.64606 0.04478 0.0
C166 C 0.49909 0.64175 0.04583 0.0
C167 C 0.59724 0.64007 0.04744 0.0
C168 C 0.63637 0.64438 0.55372 0.0
C169 C 0.73464 0.646 0.55358 0.0
C170 C 0.52177 0.64164 0.55256 0.0
C171 C 0.42363 0.63994 0.55095 0.0
C172 C 0.49896 0.38766 0.5458 0.0
C173 C 0.59709 0.38935 0.54745 0.0
C174 C 0.38436 0.3849 0.54454 0.0
C175 C 0.28609 0.38327 0.5446 0.0
C176 C 0.02003 0.88766 0.05294 0.0
C177 C 0.92189 0.88935 0.05129 0.0
C178 C 0.13465 0.88492 0.05426 0.0
C179 C 0.23292 0.8833 0.05426 0.0
C180 C 0.99833 0.14167 0.04622 0.0
C181 C 0.09648 0.14 0.04785 0.0
C182 C 0.8837 0.14438 0.04503 0.0
C183 C 0.78542 0.14598 0.04515 0.0
C184 C 0.13616 0.14438 0.55413 0.0
C185 C 0.23442 0.14601 0.55401 0.0
C186 C 0.02155 0.14163 0.55295 0.0
C187 C 0.92342 0.13993 0.55133 0.0
C188 C 0.88378 0.88495 0.54582 0.0
C189 C 0.78553 0.88332 0.54577 0.0
C190 C 0.99837 0.8877 0.54711 0.0
C191 C 0.0965 0.88939 0.54866 0.0
C192 C 1.0009 0.52646 0.05156 0.0
C193 C 0.98665 0.54657 0.05464 0.0
C194 C 0.01865 0.503 0.04566 0.0
C195 C 0.03293 0.4829 0.04267 0.0
C196 C 1.00128 0.50292 0.55226 0.0
C197 C 0.98679 0.48282 0.55512 0.0
C198 C 0.01936 0.52638 0.5466 0.0
C199 C 0.03387 0.54649 0.5437 0.0
C200 C 0.51797 1.00294 0.04675 0.0
C201 C 0.53227 0.98283 0.0437 0.0
C202 C 0.50021 0.02639 0.05266 0.0
C203 C 0.48595 0.0465 0.05568 0.0
C204 C 0.5188 0.0264 0.54685 0.0
C205 C 0.53337 0.0465 0.54386 0.0
C206 C 0.50066 1.00295 0.55266 0.0
C207 C 0.48614 0.98285 0.55567 0.0
C208 C 0.23221 0.27519 0.04969 0.0
C209 C 0.18895 0.2935 0.04933 0.0
C210 C 0.28711 0.25418 0.04921 0.0
C211 C 0.33032 0.23586 0.04953 0.0
C212 C 0.73215 0.77518 0.05022 0.0
C213 C 0.68868 0.79347 0.04993 0.0
C214 C 0.7873 0.7542 0.04962 0.0
C215 C 0.83069 0.7359 0.04982 0.0
C216 C 0.2328 0.75413 0.54875 0.0
C217 C 0.18966 0.73582 0.54838 0.0
C218 C 0.28761 0.77514 0.54845 0.0
C219 C 0.33077 0.79344 0.54903 0.0
C220 C 0.78772 0.27513 0.5492 0.0
C221 C 0.83094 0.29343 0.5495 0.0
C222 C 0.73282 0.25413 0.5497 0.0
C223 C 0.68959 0.23583 0.54937 0.0
C224 C 0.02136 0.37422 0.26786 0.0
C225 C 0.03964 0.3795 0.21621 0.0
C226 C 0.9983 0.37422 0.33039 0.0
C227 C 0.98003 0.3795 0.38199 0.0
C228 C 0.99929 0.62963 0.26813 0.0
C229 C 0.98162 0.63463 0.2165 0.0
C230 C 0.0215 0.62964 0.3304 0.0
C231 C 0.0392 0.63465 0.38196 0.0
C232 C 0.99873 0.65533 0.83026 0.0
C233 C 0.98035 0.65007 0.88191 0.0
C234 C 0.02206 0.65527 0.76777 0.0
C235 C 0.04044 0.64993 0.71624 0.0
C236 C 0.99896 0.39962 0.76776 0.0
C237 C 0.98152 0.39461 0.71617 0.0
C238 C 0.02082 0.39966 0.83008 0.0
C239 C 0.03822 0.39469 0.88178 0.0
C240 C 0.52113 0.87418 0.26873 0.0
C241 C 0.53929 0.87944 0.21704 0.0
C242 C 0.4981 0.87422 0.33126 0.0
C243 C 0.47976 0.87952 0.38283 0.0
C244 C 0.49868 0.12975 0.26859 0.0
C245 C 0.48095 0.13472 0.21695 0.0
C246 C 0.52099 0.12977 0.33086 0.0
C247 C 0.53879 0.13478 0.38241 0.0
C248 C 0.49821 0.15514 0.83072 0.0
C249 C 0.47975 0.14987 0.88236 0.0
C250 C 0.52165 0.1551 0.76825 0.0
C251 C 0.54011 0.1498 0.7167 0.0
C252 C 0.49819 0.89956 0.76853 0.0
C253 C 0.4808 0.89454 0.71693 0.0
C254 C 0.52002 0.8996 0.83086 0.0
C255 C 0.53743 0.89464 0.88256 0.0
loop_
_geom_bond_atom_site_label_1
_geom_bond_atom_site_label_2
_geom_bond_distance
_geom_bond_site_symmetry_2
_ccdc_geom_bond_type
Dy0 O4 2.398 1_455 S
Dy0 O5 2.491 1_454 S
Dy0 O6 2.403 . S
Dy0 O7 2.664 . S
Dy0 O11 2.326 1_455 S
Dy0 O15 2.310 1_554 S
Dy0 O16 2.351 . S
C1 O12 1.185 1_554 S
C1 O13 1.355 . S
C2 O4 1.185 . S
C2 O5 1.355 1_554 S
Dy3 O7 2.310 . S
Dy3 O10 2.351 1_455 S
Dy3 O12 2.398 1_554 S
Dy3 O13 2.491 . S
Dy3 O14 2.403 1_554 S
Dy3 O15 2.664 1_554 S
Dy3 O17 2.326 . S
O4 Dy0 2.398 1_655 S
O4 C2 1.185 . S
O5 Dy0 2.491 1_656 S
O5 C2 1.355 1_556 S
O6 Dy0 2.403 . S
O6 C8 1.254 . S
O7 Dy0 2.664 . S
O7 Dy3 2.310 . S
O7 C8 1.268 . S
C8 O6 1.254 . S
C8 O7 1.268 . S
C9 O14 1.254 . S
C9 O15 1.268 . S
O10 Dy3 2.351 1_655 S
O10 C18 1.249 . S
O11 Dy0 2.326 1_655 S
O11 C18 1.267 . S
O12 C1 1.185 1_556 S
O12 Dy3 2.398 1_556 S
O13 C1 1.355 . S
O13 Dy3 2.491 . S
O14 Dy3 2.403 1_556 S
O14 C9 1.254 . S
O15 Dy0 2.310 1_556 S
O15 Dy3 2.664 1_556 S
O15 C9 1.268 . S
O16 Dy0 2.351 . S
O16 C19 1.249 . S
O17 Dy3 2.326 . S
O17 C19 1.267 . S
C18 O10 1.249 . S
C18 O11 1.267 . S
C19 O16 1.249 . S
C19 O17 1.267 . S
Dy20 O24 2.398 . S
Dy20 O25 2.491 1_554 S
Dy20 O26 2.403 . S
Dy20 O27 2.664 . S
Dy20 O31 2.326 . S
Dy20 O35 2.310 1_554 S
Dy20 O36 2.351 1_655 S
C21 O32 1.185 1_554 S
C21 O33 1.355 . S
C22 O24 1.185 . S
C22 O25 1.355 1_554 S
Dy23 O27 2.310 . S
Dy23 O30 2.351 . S
Dy23 O32 2.398 1_654 S
Dy23 O33 2.491 1_655 S
Dy23 O34 2.403 1_554 S
Dy23 O35 2.664 1_554 S
Dy23 O37 2.326 1_655 S
O24 Dy20 2.398 . S
O24 C22 1.185 . S
O25 Dy20 2.491 1_556 S
O25 C22 1.355 1_556 S
O26 Dy20 2.403 . S
O26 C28 1.254 . S
O27 Dy20 2.664 . S
O27 Dy23 2.310 . S
O27 C28 1.268 . S
C28 O26 1.254 . S
C28 O27 1.268 . S
C29 O34 1.254 . S
C29 O35 1.268 . S
O30 Dy23 2.351 . S
O30 C38 1.249 . S
O31 Dy20 2.326 . S
O31 C38 1.267 . S
O32 C21 1.185 1_556 S
O32 Dy23 2.398 1_456 S
O33 C21 1.355 . S
O33 Dy23 2.491 1_455 S
O34 Dy23 2.403 1_556 S
O34 C29 1.254 . S
O35 Dy20 2.310 1_556 S
O35 Dy23 2.664 1_556 S
O35 C29 1.268 . S
O36 Dy20 2.351 1_455 S
O36 C39 1.249 . S
O37 Dy23 2.326 1_455 S
O37 C39 1.267 . S
C38 O30 1.249 . S
C38 O31 1.267 . S
C39 O36 1.249 . S
C39 O37 1.267 . S
Dy40 O44 2.398 . S
Dy40 O45 2.491 . S
Dy40 O46 2.403 . S
Dy40 O47 2.664 . S
Dy40 O51 2.326 . S
Dy40 O55 2.310 . S
Dy40 O56 2.351 1_455 S
C41 O52 1.185 . S
C41 O53 1.355 . S
C42 O44 1.185 . S
C42 O45 1.355 . S
Dy43 O47 2.310 . S
Dy43 O50 2.351 . S
Dy43 O52 2.398 1_455 S
Dy43 O53 2.491 1_455 S
Dy43 O54 2.403 . S
Dy43 O55 2.664 . S
Dy43 O57 2.326 1_455 S
O44 Dy40 2.398 . S
O44 C42 1.185 . S
O45 Dy40 2.491 . S
O45 C42 1.355 . S
O46 Dy40 2.403 . S
O46 C48 1.254 . S
O47 Dy40 2.664 . S
O47 Dy43 2.310 . S
O47 C48 1.268 . S
C48 O46 1.254 . S
C48 O47 1.268 . S
C49 O54 1.254 . S
C49 O55 1.268 . S
O50 Dy43 2.351 . S
O50 C58 1.249 . S
O51 Dy40 2.326 . S
O51 C58 1.267 . S
O52 C41 1.185 . S
O52 Dy43 2.398 1_655 S
O53 C41 1.355 . S
O53 Dy43 2.491 1_655 S
O54 Dy43 2.403 . S
O54 C49 1.254 . S
O55 Dy40 2.310 . S
O55 Dy43 2.664 . S
O55 C49 1.268 . S
O56 Dy40 2.351 1_655 S
O56 C59 1.249 . S
O57 Dy43 2.326 1_655 S
O57 C59 1.267 . S
C58 O50 1.249 . S
C58 O51 1.267 . S
C59 O56 1.249 . S
C59 O57 1.267 . S
Dy60 O64 2.398 1_655 S
Dy60 O65 2.491 1_655 S
Dy60 O66 2.403 . S
Dy60 O67 2.664 . S
Dy60 O71 2.326 1_655 S
Dy60 O75 2.310 . S
Dy60 O76 2.351 . S
C61 O72 1.185 . S
C61 O73 1.355 . S
C62 O64 1.185 . S
C62 O65 1.355 . S
Dy63 O67 2.310 . S
Dy63 O70 2.351 1_655 S
Dy63 O72 2.398 . S
Dy63 O73 2.491 . S
Dy63 O74 2.403 . S
Dy63 O75 2.664 . S
Dy63 O77 2.326 . S
O64 Dy60 2.398 1_455 S
O64 C62 1.185 . S
O65 Dy60 2.491 1_455 S
O65 C62 1.355 . S
O66 Dy60 2.403 . S
O66 C68 1.254 . S
O67 Dy60 2.664 . S
O67 Dy63 2.310 . S
O67 C68 1.268 . S
C68 O66 1.254 . S
C68 O67 1.268 . S
C69 O74 1.254 . S
C69 O75 1.268 . S
O70 Dy63 2.351 1_455 S
O70 C78 1.249 . S
O71 Dy60 2.326 1_455 S
O71 C78 1.267 . S
O72 C61 1.185 . S
O72 Dy63 2.398 . S
O73 C61 1.355 . S
O73 Dy63 2.491 . S
O74 Dy63 2.403 . S
O74 C69 1.254 . S
O75 Dy60 2.310 . S
O75 Dy63 2.664 . S
O75 C69 1.268 . S
O76 Dy60 2.351 . S
O76 C79 1.249 . S
O77 Dy63 2.326 . S
O77 C79 1.267 . S
C78 O70 1.249 . S
C78 O71 1.267 . S
C79 O76 1.249 . S
C79 O77 1.267 . S
Dy80 O84 2.398 . S
Dy80 O85 2.491 1_554 S
Dy80 O86 2.403 . S
Dy80 O87 2.664 . S
Dy80 O91 2.326 . S
Dy80 O95 2.310 1_554 S
Dy80 O96 2.351 . S
C81 O92 1.185 1_554 S
C81 O93 1.355 . S
C82 O84 1.185 . S
C82 O85 1.355 1_554 S
Dy83 O87 2.310 . S
Dy83 O90 2.351 . S
Dy83 O92 2.398 1_554 S
Dy83 O93 2.491 . S
Dy83 O94 2.403 1_554 S
Dy83 O95 2.664 1_554 S
Dy83 O97 2.326 . S
O84 Dy80 2.398 . S
O84 C82 1.185 . S
O85 Dy80 2.491 1_556 S
O85 C82 1.355 1_556 S
O86 Dy80 2.403 . S
O86 C88 1.254 . S
O87 Dy80 2.664 . S
O87 Dy83 2.310 . S
O87 C88 1.268 . S
C88 O86 1.254 . S
C88 O87 1.268 . S
C89 O94 1.254 . S
C89 O95 1.268 . S
O90 Dy83 2.351 . S
O90 C98 1.249 . S
O91 Dy80 2.326 . S
O91 C98 1.267 . S
O92 C81 1.185 1_556 S
O92 Dy83 2.398 1_556 S
O93 C81 1.355 . S
O93 Dy83 2.491 . S
O94 Dy83 2.403 1_556 S
O94 C89 1.254 . S
O95 Dy80 2.310 1_556 S
O95 Dy83 2.664 1_556 S
O95 C89 1.268 . S
O96 Dy80 2.351 . S
O96 C99 1.249 . S
O97 Dy83 2.326 . S
O97 C99 1.267 . S
C98 O90 1.249 . S
C98 O91 1.267 . S
C99 O96 1.249 . S
C99 O97 1.267 . S
Dy100 O104 2.398 . S
Dy100 O105 2.491 1_554 S
Dy100 O106 2.403 . S
Dy100 O107 2.664 . S
Dy100 O111 2.326 . S
Dy100 O115 2.310 1_554 S
Dy100 O116 2.351 . S
C101 O112 1.185 1_554 S
C101 O113 1.355 . S
C102 O104 1.185 . S
C102 O105 1.355 1_554 S
Dy103 O107 2.310 . S
Dy103 O110 2.351 . S
Dy103 O112 2.398 1_554 S
Dy103 O113 2.491 . S
Dy103 O114 2.403 1_554 S
Dy103 O115 2.664 1_554 S
Dy103 O117 2.326 . S
O104 Dy100 2.398 . S
O104 C102 1.185 . S
O105 Dy100 2.491 1_556 S
O105 C102 1.355 1_556 S
O106 Dy100 2.403 . S
O106 C108 1.254 . S
O107 Dy100 2.664 . S
O107 Dy103 2.310 . S
O107 C108 1.268 . S
C108 O106 1.254 . S
C108 O107 1.268 . S
C109 O114 1.254 . S
C109 O115 1.268 . S
O110 Dy103 2.351 . S
O110 C118 1.249 . S
O111 Dy100 2.326 . S
O111 C118 1.267 . S
O112 C101 1.185 1_556 S
O112 Dy103 2.398 1_556 S
O113 C101 1.355 . S
O113 Dy103 2.491 . S
O114 Dy103 2.403 1_556 S
O114 C109 1.254 . S
O115 Dy100 2.310 1_556 S
O115 Dy103 2.664 1_556 S
O115 C109 1.268 . S
O116 Dy100 2.351 . S
O116 C119 1.249 . S
O117 Dy103 2.326 . S
O117 C119 1.267 . S
C118 O110 1.249 . S
C118 O111 1.267 . S
C119 O116 1.249 . S
C119 O117 1.267 . S
Dy120 O124 2.398 . S
Dy120 O125 2.491 . S
Dy120 O126 2.403 . S
Dy120 O127 2.664 . S
Dy120 O131 2.326 . S
Dy120 O135 2.310 . S
Dy120 O136 2.351 . S
C121 O132 1.185 . S
C121 O133 1.355 . S
C122 O124 1.185 . S
C122 O125 1.355 . S
Dy123 O127 2.310 . S
Dy123 O130 2.351 . S
Dy123 O132 2.398 . S
Dy123 O133 2.491 . S
Dy123 O134 2.403 . S
Dy123 O135 2.664 . S
Dy123 O137 2.326 . S
O124 Dy120 2.398 . S
O124 C122 1.185 . S
O125 Dy120 2.491 . S
O125 C122 1.355 . S
O126 Dy120 2.403 . S
O126 C128 1.254 . S
O127 Dy120 2.664 . S
O127 Dy123 2.310 . S
O127 C128 1.268 . S
C128 O126 1.254 . S
C128 O127 1.268 . S
C129 O134 1.254 . S
C129 O135 1.268 . S
O130 Dy123 2.351 . S
O130 C138 1.249 . S
O131 Dy120 2.326 . S
O131 C138 1.267 . S
O132 C121 1.185 . S
O132 Dy123 2.398 . S
O133 C121 1.355 . S
O133 Dy123 2.491 . S
O134 Dy123 2.403 . S
O134 C129 1.254 . S
O135 Dy120 2.310 . S
O135 Dy123 2.664 . S
O135 C129 1.268 . S
O136 Dy120 2.351 . S
O136 C139 1.249 . S
O137 Dy123 2.326 . S
O137 C139 1.267 . S
C138 O130 1.249 . S
C138 O131 1.267 . S
C139 O136 1.249 . S
C139 O137 1.267 . S
Dy140 O144 2.398 . S
Dy140 O145 2.491 . S
Dy140 O146 2.403 . S
Dy140 O147 2.664 . S
Dy140 O151 2.326 . S
Dy140 O155 2.310 . S
Dy140 O156 2.351 . S
C141 O152 1.185 . S
C141 O153 1.355 . S
C142 O144 1.185 . S
C142 O145 1.355 . S
Dy143 O147 2.310 . S
Dy143 O150 2.351 . S
Dy143 O152 2.398 . S
Dy143 O153 2.491 . S
Dy143 O154 2.403 . S
Dy143 O155 2.664 . S
Dy143 O157 2.326 . S
O144 Dy140 2.398 . S
O144 C142 1.185 . S
O145 Dy140 2.491 . S
O145 C142 1.355 . S
O146 Dy140 2.403 . S
O146 C148 1.254 . S
O147 Dy140 2.664 . S
O147 Dy143 2.310 . S
O147 C148 1.268 . S
C148 O146 1.254 . S
C148 O147 1.268 . S
C149 O154 1.254 . S
C149 O155 1.268 . S
O150 Dy143 2.351 . S
O150 C158 1.249 . S
O151 Dy140 2.326 . S
O151 C158 1.267 . S
O152 C141 1.185 . S
O152 Dy143 2.398 . S
O153 C141 1.355 . S
O153 Dy143 2.491 . S
O154 Dy143 2.403 . S
O154 C149 1.254 . S
O155 Dy140 2.310 . S
O155 Dy143 2.664 . S
O155 C149 1.268 . S
O156 Dy140 2.351 . S
O156 C159 1.249 . S
O157 Dy143 2.326 . S
O157 C159 1.267 . S
C158 O150 1.249 . S
C158 O151 1.267 . S
C159 O156 1.249 . S
C159 O157 1.267 . S
C160 C161 1.170 . S
C160 C162 1.380 . S
C161 C160 1.170 . S
C162 C160 1.380 . S
C162 C163 1.170 . S
C163 C162 1.170 . S
C164 C165 1.170 . S
C164 C166 1.380 . S
C165 C164 1.170 . S
C166 C164 1.380 . S
C166 C167 1.170 . S
C167 C166 1.170 . S
C168 C169 1.170 . S
C168 C170 1.380 . S
C169 C168 1.170 . S
C170 C168 1.380 . S
C170 C171 1.170 . S
C171 C170 1.170 . S
C172 C173 1.170 . S
C172 C174 1.380 . S
C173 C172 1.170 . S
C174 C172 1.380 . S
C174 C175 1.170 . S
C175 C174 1.170 . S
C176 C177 1.170 1_455 S
C176 C178 1.380 . S
C177 C176 1.170 1_655 S
C178 C176 1.380 . S
C178 C179 1.170 . S
C179 C178 1.170 . S
C180 C181 1.170 1_655 S
C180 C182 1.380 . S
C181 C180 1.170 1_455 S
C182 C180 1.380 . S
C182 C183 1.170 . S
C183 C182 1.170 . S
C184 C185 1.170 . S
C184 C186 1.380 . S
C185 C184 1.170 . S
C186 C184 1.380 . S
C186 C187 1.170 1_455 S
C187 C186 1.170 1_655 S
C188 C189 1.170 . S
C188 C190 1.380 . S
C189 C188 1.170 . S
C190 C188 1.380 . S
C190 C191 1.170 1_655 S
C191 C190 1.170 1_455 S
C192 C193 1.170 . S
C192 C194 1.380 1_455 S
C193 C192 1.170 . S
C194 C192 1.380 1_655 S
C194 C195 1.170 . S
C195 C194 1.170 . S
C196 C197 1.170 . S
C196 C198 1.380 1_455 S
C197 C196 1.170 . S
C198 C196 1.380 1_655 S
C198 C199 1.170 . S
C199 C198 1.170 . S
C200 C201 1.170 . S
C200 C202 1.380 1_565 S
C201 C200 1.170 . S
C202 C200 1.380 1_545 S
C202 C203 1.170 . S
C203 C202 1.170 . S
C204 C205 1.170 . S
C204 C206 1.380 1_545 S
C205 C204 1.170 . S
C206 C204 1.380 1_565 S
C206 C207 1.170 . S
C207 C206 1.170 . S
C208 C209 1.170 . S
C208 C210 1.380 . S
C209 C208 1.170 . S
C210 C208 1.380 . S
C210 C211 1.170 . S
C211 C210 1.170 . S
C212 C213 1.170 . S
C212 C214 1.380 . S
C213 C212 1.170 . S
C214 C212 1.380 . S
C214 C215 1.170 . S
C215 C214 1.170 . S
C216 C217 1.170 . S
C216 C218 1.380 . S
C217 C216 1.170 . S
C218 C216 1.380 . S
C218 C219 1.170 . S
C219 C218 1.170 . S
C220 C221 1.170 . S
C220 C222 1.380 . S
C221 C220 1.170 . S
C222 C220 1.380 . S
C222 C223 1.170 . S
C223 C222 1.170 . S
C224 C225 1.170 . S
C224 C226 1.380 1_455 S
C225 C224 1.170 . S
C226 C224 1.380 1_655 S
C226 C227 1.170 . S
C227 C226 1.170 . S
C228 C229 1.170 . S
C228 C230 1.380 1_655 S
C229 C228 1.170 . S
C230 C228 1.380 1_455 S
C230 C231 1.170 . S
C231 C230 1.170 . S
C232 C233 1.170 . S
C232 C234 1.380 1_655 S
C233 C232 1.170 . S
C234 C232 1.380 1_455 S
C234 C235 1.170 . S
C235 C234 1.170 . S
C236 C237 1.170 . S
C236 C238 1.380 1_655 S
C237 C236 1.170 . S
C238 C236 1.380 1_455 S
C238 C239 1.170 . S
C239 C238 1.170 . S
C240 C241 1.170 . S
C240 C242 1.380 . S
C241 C240 1.170 . S
C242 C240 1.380 . S
C242 C243 1.170 . S
C243 C242 1.170 . S
C244 C245 1.170 . S
C244 C246 1.380 . S
C245 C244 1.170 . S
C246 C244 1.380 . S
C246 C247 1.170 . S
C247 C246 1.170 . S
C248 C249 1.170 . S
C248 C250 1.380 . S
C249 C248 1.170 . S
C250 C248 1.380 . S
C250 C251 1.170 . S
C251 C250 1.170 . S
C252 C253 1.170 . S
C252 C254 1.380 . S
C253 C252 1.170 . S
C254 C252 1.380 . S
C254 C255 1.170 . S
C255 C254 1.170 . S
C161 C19 1.792 . S
C163 C18 1.766 . S
C165 C39 1.788 . S
C167 C38 1.781 . S
C169 C59 1.794 . S
C171 C58 1.769 . S
C173 C79 1.793 . S
C175 C78 1.773 . S
C177 C99 1.783 . S
C179 C98 1.786 . S
C181 C118 1.783 . S
C183 C119 1.786 . S
C185 C139 1.794 . S
C187 C138 1.770 . S
C189 C158 1.782 . S
C191 C159 1.771 . S
C193 C21 1.759 . S
C195 C2 1.810 . S
C197 C62 1.781 . S
C199 C41 1.775 . S
C201 C82 1.795 . S
C203 C101 1.764 . S
C205 C121 1.807 . S
C207 C142 1.759 . S
C209 C1 1.521 . S
C211 C102 1.495 . S
C213 C81 1.525 . S
C215 C22 1.494 . S
C217 C42 1.516 . S
C219 C141 1.498 . S
C221 C61 1.501 . S
C223 C122 1.528 . S
C225 C8 1.494 . S
C227 C68 1.494 . S
C229 C28 1.565 . S
C231 C48 1.563 . S
C233 C29 1.505 . S
C235 C49 1.519 . S
C237 C69 1.566 . S
C239 C9 1.572 . S
C241 C88 1.509 . S
C243 C148 1.508 . S
C245 C108 1.571 . S
C247 C128 1.552 . S
C249 C109 1.482 . S
C251 C129 1.496 . S
C253 C149 1.548 . S
C255 C89 1.535 . S
