# Generated by pormake.
# Topology umq, (4)-cn, num edge types: 1
# Building blocks:
#     Node 0, Type 0, BuildingBlock: AZAVOO_clean_sbu_0, # of connection points: 4
#     Node 1, Type 0, BuildingBlock: AZAVOO_clean_sbu_0, # of connection points: 4
#     Node 2, Type 0, BuildingBlock: AZAVOO_clean_sbu_0, # of connection points: 4
#     Node 3, Type 0, BuildingBlock: AZAVOO_clean_sbu_0, # of connection points: 4
#     Node 4, Type 0, BuildingBlock: AZAVOO_clean_sbu_0, # of connection points: 4
#     Node 5, Type 0, BuildingBlock: AZAVOO_clean_sbu_0, # of connection points: 4
#     Node 6, Type 0, BuildingBlock: AZAVOO_clean_sbu_0, # of connection points: 4
#     Node 7, Type 0, BuildingBlock: AZAVOO_clean_sbu_0, # of connection points: 4
#     Node 8, Type 0, BuildingBlock: AZAVOO_clean_sbu_0, # of connection points: 4
#     Node 9, Type 0, BuildingBlock: AZAVOO_clean_sbu_0, # of connection points: 4
#     Node 10, Type 0, BuildingBlock: AZAVOO_clean_sbu_0, # of connection points: 4
#     Node 11, Type 0, BuildingBlock: AZAVOO_clean_sbu_0, # of connection points: 4
#     Node 12, Type 0, BuildingBlock: AZAVOO_clean_sbu_0, # of connection points: 4
#     Node 13, Type 0, BuildingBlock: AZAVOO_clean_sbu_0, # of connection points: 4
#     Node 14, Type 0, BuildingBlock: AZAVOO_clean_sbu_0, # of connection points: 4
#     Node 15, Type 0, BuildingBlock: AZAVOO_clean_sbu_0, # of connection points: 4
#     Node 16, Type 0, BuildingBlock: AZAVOO_clean_sbu_0, # of connection points: 4
#     Node 17, Type 0, BuildingBlock: AZAVOO_clean_sbu_0, # of connection points: 4
#     Node 18, Type 0, BuildingBlock: AZAVOO_clean_sbu_0, # of connection points: 4
#     Node 19, Type 0, BuildingBlock: AZAVOO_clean_sbu_0, # of connection points: 4
#     Node 20, Type 0, BuildingBlock: AZAVOO_clean_sbu_0, # of connection points: 4
#     Node 21, Type 0, BuildingBlock: AZAVOO_clean_sbu_0, # of connection points: 4
#     Node 22, Type 0, BuildingBlock: AZAVOO_clean_sbu_0, # of connection points: 4
#     Node 23, Type 0, BuildingBlock: AZAVOO_clean_sbu_0, # of connection points: 4
#     Node 24, Type 0, BuildingBlock: AZAVOO_clean_sbu_0, # of connection points: 4
#     Node 25, Type 0, BuildingBlock: AZAVOO_clean_sbu_0, # of connection points: 4
#     Node 26, Type 0, BuildingBlock: AZAVOO_clean_sbu_0, # of connection points: 4
#     Node 27, Type 0, BuildingBlock: AZAVOO_clean_sbu_0, # of connection points: 4
#     Node 28, Type 0, BuildingBlock: AZAVOO_clean_sbu_0, # of connection points: 4
#     Node 29, Type 0, BuildingBlock: AZAVOO_clean_sbu_0, # of connection points: 4
#     Node 30, Type 0, BuildingBlock: AZAVOO_clean_sbu_0, # of connection points: 4
#     Node 31, Type 0, BuildingBlock: AZAVOO_clean_sbu_0, # of connection points: 4
#     Edge 32, Type (0, 0), BuildingBlock: KIFKEQ_clean_linker_1, # of connection points: 2
#     Edge 33, Type (0, 0), BuildingBlock: KIFKEQ_clean_linker_1, # of connection points: 2
#     Edge 34, Type (0, 0), BuildingBlock: KIFKEQ_clean_linker_1, # of connection points: 2
#     Edge 35, Type (0, 0), BuildingBlock: KIFKEQ_clean_linker_1, # of connection points: 2
#     Edge 36, Type (0, 0), BuildingBlock: KIFKEQ_clean_linker_1, # of connection points: 2
#     Edge 37, Type (0, 0), BuildingBlock: KIFKEQ_clean_linker_1, # of connection points: 2
#     Edge 38, Type (0, 0), BuildingBlock: KIFKEQ_clean_linker_1, # of connection points: 2
#     Edge 39, Type (0, 0), BuildingBlock: KIFKEQ_clean_linker_1, # of connection points: 2
#     Edge 40, Type (0, 0), BuildingBlock: KIFKEQ_clean_linker_1, # of connection points: 2
#     Edge 41, Type (0, 0), BuildingBlock: KIFKEQ_clean_linker_1, # of connection points: 2
#     Edge 42, Type (0, 0), BuildingBlock: KIFKEQ_clean_linker_1, # of connection points: 2
#     Edge 43, Type (0, 0), BuildingBlock: KIFKEQ_clean_linker_1, # of connection points: 2
#     Edge 44, Type (0, 0), BuildingBlock: KIFKEQ_clean_linker_1, # of connection points: 2
#     Edge 45, Type (0, 0), BuildingBlock: KIFKEQ_clean_linker_1, # of connection points: 2
#     Edge 46, Type (0, 0), BuildingBlock: KIFKEQ_clean_linker_1, # of connection points: 2
#     Edge 47, Type (0, 0), BuildingBlock: KIFKEQ_clean_linker_1, # of connection points: 2
#     Edge 48, Type (0, 0), BuildingBlock: KIFKEQ_clean_linker_1, # of connection points: 2
#     Edge 49, Type (0, 0), BuildingBlock: KIFKEQ_clean_linker_1, # of connection points: 2
#     Edge 50, Type (0, 0), BuildingBlock: KIFKEQ_clean_linker_1, # of connection points: 2
#     Edge 51, Type (0, 0), BuildingBlock: KIFKEQ_clean_linker_1, # of connection points: 2
#     Edge 52, Type (0, 0), BuildingBlock: KIFKEQ_clean_linker_1, # of connection points: 2
#     Edge 53, Type (0, 0), BuildingBlock: KIFKEQ_clean_linker_1, # of connection points: 2
#     Edge 54, Type (0, 0), BuildingBlock: KIFKEQ_clean_linker_1, # of connection points: 2
#     Edge 55, Type (0, 0), BuildingBlock: KIFKEQ_clean_linker_1, # of connection points: 2
#     Edge 56, Type (0, 0), BuildingBlock: KIFKEQ_clean_linker_1, # of connection points: 2
#     Edge 57, Type (0, 0), BuildingBlock: KIFKEQ_clean_linker_1, # of connection points: 2
#     Edge 58, Type (0, 0), BuildingBlock: KIFKEQ_clean_linker_1, # of connection points: 2
#     Edge 59, Type (0, 0), BuildingBlock: KIFKEQ_clean_linker_1, # of connection points: 2
#     Edge 60, Type (0, 0), BuildingBlock: KIFKEQ_clean_linker_1, # of connection points: 2
#     Edge 61, Type (0, 0), BuildingBlock: KIFKEQ_clean_linker_1, # of connection points: 2
#     Edge 62, Type (0, 0), BuildingBlock: KIFKEQ_clean_linker_1, # of connection points: 2
#     Edge 63, Type (0, 0), BuildingBlock: KIFKEQ_clean_linker_1, # of connection points: 2
#     Edge 64, Type (0, 0), BuildingBlock: KIFKEQ_clean_linker_1, # of connection points: 2
#     Edge 65, Type (0, 0), BuildingBlock: KIFKEQ_clean_linker_1, # of connection points: 2
#     Edge 66, Type (0, 0), BuildingBlock: KIFKEQ_clean_linker_1, # of connection points: 2
#     Edge 67, Type (0, 0), BuildingBlock: KIFKEQ_clean_linker_1, # of connection points: 2
#     Edge 68, Type (0, 0), BuildingBlock: KIFKEQ_clean_linker_1, # of connection points: 2
#     Edge 69, Type (0, 0), BuildingBlock: KIFKEQ_clean_linker_1, # of connection points: 2
#     Edge 70, Type (0, 0), BuildingBlock: KIFKEQ_clean_linker_1, # of connection points: 2
#     Edge 71, Type (0, 0), BuildingBlock: KIFKEQ_clean_linker_1, # of connection points: 2
#     Edge 72, Type (0, 0), BuildingBlock: KIFKEQ_clean_linker_1, # of connection points: 2
#     Edge 73, Type (0, 0), BuildingBlock: KIFKEQ_clean_linker_1, # of connection points: 2
#     Edge 74, Type (0, 0), BuildingBlock: KIFKEQ_clean_linker_1, # of connection points: 2
#     Edge 75, Type (0, 0), BuildingBlock: KIFKEQ_clean_linker_1, # of connection points: 2
#     Edge 76, Type (0, 0), BuildingBlock: KIFKEQ_clean_linker_1, # of connection points: 2
#     Edge 77, Type (0, 0), BuildingBlock: KIFKEQ_clean_linker_1, # of connection points: 2
#     Edge 78, Type (0, 0), BuildingBlock: KIFKEQ_clean_linker_1, # of connection points: 2
#     Edge 79, Type (0, 0), BuildingBlock: KIFKEQ_clean_linker_1, # of connection points: 2
#     Edge 80, Type (0, 0), BuildingBlock: KIFKEQ_clean_linker_1, # of connection points: 2
#     Edge 81, Type (0, 0), BuildingBlock: KIFKEQ_clean_linker_1, # of connection points: 2
#     Edge 82, Type (0, 0), BuildingBlock: KIFKEQ_clean_linker_1, # of connection points: 2
#     Edge 83, Type (0, 0), BuildingBlock: KIFKEQ_clean_linker_1, # of connection points: 2
#     Edge 84, Type (0, 0), BuildingBlock: KIFKEQ_clean_linker_1, # of connection points: 2
#     Edge 85, Type (0, 0), BuildingBlock: KIFKEQ_clean_linker_1, # of connection points: 2
#     Edge 86, Type (0, 0), BuildingBlock: KIFKEQ_clean_linker_1, # of connection points: 2
#     Edge 87, Type (0, 0), BuildingBlock: KIFKEQ_clean_linker_1, # of connection points: 2
#     Edge 88, Type (0, 0), BuildingBlock: KIFKEQ_clean_linker_1, # of connection points: 2
#     Edge 89, Type (0, 0), BuildingBlock: KIFKEQ_clean_linker_1, # of connection points: 2
#     Edge 90, Type (0, 0), BuildingBlock: KIFKEQ_clean_linker_1, # of connection points: 2
#     Edge 91, Type (0, 0), BuildingBlock: KIFKEQ_clean_linker_1, # of connection points: 2
#     Edge 92, Type (0, 0), BuildingBlock: KIFKEQ_clean_linker_1, # of connection points: 2
#     Edge 93, Type (0, 0), BuildingBlock: KIFKEQ_clean_linker_1, # of connection points: 2
#     Edge 94, Type (0, 0), BuildingBlock: KIFKEQ_clean_linker_1, # of connection points: 2
#     Edge 95, Type (0, 0), BuildingBlock: KIFKEQ_clean_linker_1, # of connection points: 2
# Relax obj value: 0.100
# Max RMSD: 0.122
# Mean RMSD: 0.122
data_MOF--net-umq--node1-AZAVOO_clean_sbu_0--edge1-KIFKEQ_clean_linker_1
_symmetry_space_group_name_H-M    P1
_symmetry_Int_Tables_number       1
_symmetry_cell_setting            triclinic
loop_
_symmetry_equiv_pos_as_xyz
'x, y, z'
_cell_length_a     66.260691
_cell_length_b     66.207263
_cell_length_c     46.050272
_cell_angle_alpha  90.056337
_cell_angle_beta   89.973839
_cell_angle_gamma 90.000778
loop_
_atom_site_label
_atom_site_type_symbol
_atom_site_fract_x
_atom_site_fract_y
_atom_site_fract_z
_atom_type_partial_charge
Mg0 Mg 0.22859 0.08688 0.17074 0.0
O1 O 0.25049 0.11298 0.18045 0.0
O2 O 0.24858 0.11947 0.22805 0.0
Mg3 Mg 0.22757 0.09679 0.24932 0.0
C4 C 0.25559 0.12321 0.20281 0.0
C5 C 0.23968 0.09997 0.10846 0.0
O6 O 0.23338 0.11692 0.12024 0.0
O7 O 0.25152 0.06448 0.18898 0.0
O8 O 0.24939 0.07146 0.23647 0.0
O9 O 0.20299 0.10885 0.16718 0.0
O10 O 0.21187 0.09367 0.20784 0.0
C11 C 0.25685 0.06144 0.21531 0.0
C12 C 0.20069 0.10672 0.19492 0.0
O13 O 0.24072 0.08427 0.12429 0.0
Mg14 Mg 0.90087 0.23222 0.17354 0.0
O15 O 0.87687 0.25631 0.18393 0.0
O16 O 0.87172 0.25524 0.23191 0.0
Mg17 Mg 0.89152 0.23106 0.25215 0.0
C18 C 0.86806 0.26264 0.20689 0.0
C19 C 0.91715 0.23534 0.11146 0.0
O20 O 0.92734 0.22017 0.12255 0.0
O21 O 0.92567 0.2524 0.19241 0.0
O22 O 0.91919 0.2499 0.23999 0.0
O23 O 0.87657 0.209 0.16901 0.0
O24 O 0.89248 0.21573 0.21001 0.0
C25 C 0.9297 0.25667 0.21888 0.0
C26 C 0.87846 0.20603 0.19667 0.0
O27 O 0.90481 0.24479 0.12768 0.0
Mg28 Mg 0.75536 0.90105 0.17689 0.0
O29 O 0.73126 0.87682 0.18632 0.0
O30 O 0.73104 0.87242 0.23448 0.0
Mg31 Mg 0.75441 0.89268 0.25574 0.0
C32 C 0.72438 0.86828 0.20916 0.0
C33 C 0.74953 0.92002 0.11616 0.0
O34 O 0.75903 0.93447 0.13018 0.0
O35 O 0.73441 0.9259 0.1939 0.0
O36 O 0.73587 0.92013 0.24176 0.0
O37 O 0.779 0.8771 0.17426 0.0
O38 O 0.7709 0.89326 0.21456 0.0
C39 C 0.72955 0.93031 0.22004 0.0
C40 C 0.78121 0.8793 0.20202 0.0
O41 O 0.74447 0.9042 0.13 0.0
Mg42 Mg 0.0905 0.76409 0.17673 0.0
O43 O 0.11547 0.74118 0.18724 0.0
O44 O 0.12291 0.74479 0.23432 0.0
Mg45 Mg 0.10254 0.7687 0.25439 0.0
C46 C 0.12572 0.73639 0.20968 0.0
C47 C 0.07338 0.75869 0.1154 0.0
O48 O 0.06328 0.77421 0.12569 0.0
O49 O 0.0671 0.74361 0.19876 0.0
O50 O 0.07503 0.74887 0.24537 0.0
O51 O 0.114 0.78808 0.16941 0.0
O52 O 0.0992 0.78221 0.21147 0.0
C53 C 0.06397 0.74074 0.22588 0.0
C54 C 0.11256 0.79192 0.19691 0.0
O55 O 0.08591 0.74982 0.13196 0.0
Mg56 Mg 0.23464 0.90297 0.33285 0.0
O57 O 0.25793 0.8778 0.3245 0.0
O58 O 0.25796 0.87218 0.2766 0.0
Mg59 Mg 0.23532 0.89272 0.25438 0.0
C60 C 0.2645 0.86848 0.3021 0.0
C61 C 0.24641 0.89263 0.39701 0.0
O62 O 0.24144 0.87456 0.38758 0.0
O63 O 0.25644 0.92654 0.31463 0.0
O64 O 0.255 0.9197 0.26706 0.0
O65 O 0.21014 0.87982 0.33639 0.0
O66 O 0.21891 0.89483 0.29553 0.0
C67 C 0.26164 0.9301 0.28839 0.0
C68 C 0.20811 0.88149 0.30853 0.0
O69 O 0.24605 0.90738 0.37935 0.0
Mg70 Mg 0.08984 0.22545 0.33655 0.0
O71 O 0.11529 0.24791 0.32608 0.0
O72 O 0.12137 0.24572 0.27841 0.0
Mg73 Mg 0.09927 0.22366 0.25795 0.0
C74 C 0.12515 0.25309 0.30343 0.0
C75 C 0.07035 0.23944 0.39531 0.0
O76 O 0.05395 0.23435 0.38104 0.0
O77 O 0.0666 0.24741 0.31787 0.0
O78 O 0.07323 0.24475 0.27033 0.0
O79 O 0.11255 0.20053 0.34053 0.0
O80 O 0.09677 0.2084 0.29988 0.0
C81 C 0.06311 0.25217 0.29142 0.0
C82 C 0.11019 0.19772 0.3129 0.0
O83 O 0.08731 0.23834 0.38248 0.0
Mg84 Mg 0.75757 0.09408 0.33265 0.0
O85 O 0.73442 0.11885 0.32165 0.0
O86 O 0.73585 0.12362 0.27361 0.0
Mg87 Mg 0.75934 0.10271 0.25388 0.0
C88 C 0.7285 0.12774 0.29854 0.0
C89 C 0.74489 0.07426 0.39158 0.0
O90 O 0.75068 0.05812 0.37719 0.0
O91 O 0.73654 0.06986 0.31408 0.0
O92 O 0.73949 0.07583 0.26642 0.0
O93 O 0.78158 0.11759 0.33692 0.0
O94 O 0.77447 0.10157 0.29611 0.0
C95 C 0.73225 0.06575 0.28765 0.0
C96 C 0.78457 0.11539 0.30931 0.0
O97 O 0.74488 0.09123 0.37866 0.0
Mg98 Mg 0.89821 0.76247 0.33523 0.0
O99 O 0.87365 0.7397 0.32264 0.0
O100 O 0.86805 0.74287 0.27499 0.0
Mg101 Mg 0.88833 0.76763 0.25703 0.0
C102 C 0.86446 0.73453 0.29943 0.0
C103 C 0.91363 0.75524 0.39777 0.0
O104 O 0.92525 0.77014 0.38909 0.0
O105 O 0.92241 0.74235 0.31413 0.0
O106 O 0.91577 0.74811 0.26725 0.0
O107 O 0.87439 0.78608 0.34198 0.0
O108 O 0.89023 0.78088 0.30048 0.0
C109 C 0.92634 0.73983 0.28714 0.0
C110 C 0.87638 0.79022 0.31465 0.0
O111 O 0.90122 0.74759 0.37981 0.0
Mg112 Mg 0.76411 0.90251 0.83515 0.0
O113 O 0.74101 0.87705 0.82724 0.0
O114 O 0.7417 0.87045 0.77961 0.0
Mg115 Mg 0.7633 0.89176 0.75689 0.0
C116 C 0.73508 0.86699 0.80514 0.0
C117 C 0.76467 0.91546 0.89892 0.0
O118 O 0.78206 0.92188 0.88875 0.0
O119 O 0.74202 0.92578 0.8169 0.0
O120 O 0.74319 0.91849 0.76948 0.0
O121 O 0.78894 0.87972 0.83896 0.0
O122 O 0.78003 0.89423 0.79781 0.0
C123 C 0.7366 0.92905 0.79068 0.0
C124 C 0.79098 0.8811 0.81106 0.0
O125 O 0.75258 0.90665 0.88161 0.0
Mg126 Mg 0.09332 0.75795 0.83849 0.0
O127 O 0.11772 0.73426 0.82787 0.0
O128 O 0.12198 0.73477 0.77969 0.0
Mg129 Mg 0.10124 0.75812 0.75946 0.0
C130 C 0.12627 0.7278 0.80477 0.0
C131 C 0.07383 0.74679 0.8982 0.0
O132 O 0.05774 0.75266 0.88383 0.0
O133 O 0.06873 0.73681 0.82125 0.0
O134 O 0.07435 0.7388 0.77339 0.0
O135 O 0.11705 0.78188 0.84124 0.0
O136 O 0.1006 0.77405 0.8011 0.0
C137 C 0.06439 0.73206 0.79506 0.0
C138 C 0.11457 0.78436 0.81357 0.0
O139 O 0.0907 0.74619 0.88505 0.0
Mg140 Mg 0.22634 0.09001 0.82756 0.0
O141 O 0.24884 0.1155 0.81793 0.0
O142 O 0.24597 0.12296 0.77075 0.0
Mg143 Mg 0.22319 0.10183 0.74966 0.0
C144 C 0.25377 0.12595 0.79573 0.0
C145 C 0.22545 0.08699 0.89252 0.0
O146 O 0.20661 0.08807 0.88377 0.0
O147 O 0.24793 0.06705 0.80675 0.0
O148 O 0.24349 0.07485 0.75993 0.0
O149 O 0.20189 0.11304 0.83372 0.0
O150 O 0.20873 0.09831 0.7919 0.0
C151 C 0.25147 0.064 0.77976 0.0
C152 C 0.19858 0.11156 0.80612 0.0
O153 O 0.23932 0.08642 0.87342 0.0
Mg154 Mg 0.89651 0.23108 0.83421 0.0
O155 O 0.87186 0.25447 0.82372 0.0
O156 O 0.86753 0.25387 0.77556 0.0
Mg157 Mg 0.88852 0.23072 0.75525 0.0
C158 C 0.86322 0.26082 0.80066 0.0
C159 C 0.91598 0.24255 0.89372 0.0
O160 O 0.93204 0.23655 0.87935 0.0
O161 O 0.92079 0.25252 0.81688 0.0
O162 O 0.91515 0.25049 0.76903 0.0
O163 O 0.87305 0.2069 0.83708 0.0
O164 O 0.88937 0.21483 0.79688 0.0
C165 C 0.92502 0.25737 0.7907 0.0
C166 C 0.87552 0.2044 0.80941 0.0
O167 O 0.89909 0.24304 0.88066 0.0
Mg168 Mg 0.7593 0.08931 0.67074 0.0
O169 O 0.73631 0.11432 0.6813 0.0
O170 O 0.73894 0.12083 0.72882 0.0
Mg171 Mg 0.76163 0.09936 0.74913 0.0
C172 C 0.73123 0.12428 0.70393 0.0
C173 C 0.75431 0.07263 0.60893 0.0
O174 O 0.76889 0.06147 0.61971 0.0
O175 O 0.73831 0.06552 0.69028 0.0
O176 O 0.74123 0.07258 0.73765 0.0
O177 O 0.78346 0.11275 0.66574 0.0
O178 O 0.77651 0.0971 0.70685 0.0
C179 C 0.73393 0.06206 0.71687 0.0
C180 C 0.78658 0.11076 0.69335 0.0
O181 O 0.74602 0.08575 0.62521 0.0
Mg182 Mg 0.90365 0.75937 0.67697 0.0
O183 O 0.87876 0.73561 0.68497 0.0
O184 O 0.8729 0.73597 0.73288 0.0
Mg185 Mg 0.89208 0.75978 0.75518 0.0
C186 C 0.86958 0.72898 0.70747 0.0
C187 C 0.89469 0.74647 0.61311 0.0
O188 O 0.87642 0.75074 0.62237 0.0
O189 O 0.92715 0.73818 0.69696 0.0
O190 O 0.91978 0.74069 0.74427 0.0
O191 O 0.88061 0.78384 0.6712 0.0
O192 O 0.89392 0.77518 0.71336 0.0
C193 C 0.93056 0.73375 0.72354 0.0
C194 C 0.88109 0.78585 0.69915 0.0
O195 O 0.90934 0.74759 0.6309 0.0
Mg196 Mg 0.23261 0.89776 0.67571 0.0
O197 O 0.25511 0.8729 0.6881 0.0
O198 O 0.25247 0.8679 0.73595 0.0
Mg199 Mg 0.22839 0.88885 0.75427 0.0
C200 C 0.26041 0.86386 0.71136 0.0
C201 C 0.2394 0.91242 0.61262 0.0
O202 O 0.22499 0.92459 0.62148 0.0
O203 O 0.25338 0.92192 0.6956 0.0
O204 O 0.24811 0.9159 0.74277 0.0
O205 O 0.20847 0.87431 0.6703 0.0
O206 O 0.21456 0.89054 0.71124 0.0
C207 C 0.25627 0.92615 0.72243 0.0
C208 C 0.20473 0.87672 0.69769 0.0
O209 O 0.2469 0.89995 0.63061 0.0
Mg210 Mg 0.08641 0.23447 0.67455 0.0
O211 O 0.11148 0.25762 0.68413 0.0
O212 O 0.11703 0.25656 0.73201 0.0
Mg213 Mg 0.09658 0.23319 0.75292 0.0
C214 C 0.12075 0.26371 0.70684 0.0
C215 C 0.06926 0.23806 0.61312 0.0
O216 O 0.0583 0.22372 0.62499 0.0
O217 O 0.06265 0.25564 0.69386 0.0
O218 O 0.0694 0.25288 0.74133 0.0
O219 O 0.10964 0.21024 0.66959 0.0
O220 O 0.09451 0.21779 0.71093 0.0
C221 C 0.05895 0.26001 0.7204 0.0
C222 C 0.10791 0.20742 0.69731 0.0
O223 O 0.08244 0.2469 0.62864 0.0
Mg224 Mg 0.72793 0.59187 0.67586 0.0
O225 O 0.75185 0.61644 0.68439 0.0
O226 O 0.74919 0.62441 0.73149 0.0
Mg227 Mg 0.72451 0.60586 0.7531 0.0
C228 C 0.75732 0.62671 0.70656 0.0
C229 C 0.74318 0.59913 0.61297 0.0
O230 O 0.73884 0.61762 0.62129 0.0
O231 O 0.74782 0.56849 0.69892 0.0
O232 O 0.74288 0.57717 0.74532 0.0
O233 O 0.70435 0.61553 0.66688 0.0
O234 O 0.71093 0.60294 0.71024 0.0
C235 C 0.75054 0.56555 0.72609 0.0
C236 C 0.70138 0.61585 0.69464 0.0
O237 O 0.74131 0.58481 0.63117 0.0
Mg238 Mg 0.40281 0.72812 0.68023 0.0
O239 O 0.37656 0.74979 0.69015 0.0
O240 O 0.36961 0.74699 0.73752 0.0
Mg241 Mg 0.39198 0.72544 0.75837 0.0
C242 C 0.36612 0.75448 0.71249 0.0
C243 C 0.41999 0.73364 0.61897 0.0
O244 O 0.43167 0.71969 0.63031 0.0
O245 O 0.42493 0.75058 0.70021 0.0
O246 O 0.41757 0.74748 0.74744 0.0
O247 O 0.3809 0.70267 0.67469 0.0
O248 O 0.39555 0.71062 0.71621 0.0
C249 C 0.4278 0.75534 0.72681 0.0
C250 C 0.38269 0.69974 0.70237 0.0
O251 O 0.40625 0.7414 0.63472 0.0
Mg252 Mg 0.2625 0.39984 0.6703 0.0
O253 O 0.23922 0.3751 0.68088 0.0
O254 O 0.24131 0.369 0.72855 0.0
Mg255 Mg 0.26399 0.39047 0.74893 0.0
C256 C 0.23379 0.36542 0.70357 0.0
C257 C 0.25244 0.41892 0.61009 0.0
O258 O 0.26057 0.4345 0.62336 0.0
O259 O 0.2413 0.42391 0.68891 0.0
O260 O 0.24376 0.41712 0.7364 0.0
O261 O 0.28665 0.37633 0.66629 0.0
O262 O 0.27931 0.39236 0.70698 0.0
C263 C 0.23666 0.4275 0.71539 0.0
C264 C 0.28953 0.37859 0.69391 0.0
O265 O 0.25 0.40259 0.62419 0.0
Mg266 Mg 0.58545 0.25667 0.6734 0.0
O267 O 0.61113 0.2343 0.68361 0.0
O268 O 0.61571 0.23479 0.7317 0.0
Mg269 Mg 0.59397 0.257 0.75234 0.0
C270 C 0.62016 0.22816 0.70647 0.0
C271 C 0.59945 0.2457 0.61162 0.0
O272 O 0.61603 0.25238 0.62397 0.0
O273 O 0.56214 0.23419 0.69088 0.0
O274 O 0.56799 0.23646 0.73864 0.0
O275 O 0.60758 0.28206 0.67027 0.0
O276 O 0.59229 0.27321 0.71086 0.0
C277 C 0.55823 0.22922 0.71713 0.0
C278 C 0.60542 0.28439 0.698 0.0
O279 O 0.58345 0.24458 0.6268 0.0
Mg280 Mg 0.72383 0.39999 0.83246 0.0
O281 O 0.74695 0.3749 0.82287 0.0
O282 O 0.74506 0.3685 0.7752 0.0
Mg283 Mg 0.7218 0.38903 0.75405 0.0
C284 C 0.75251 0.36511 0.80029 0.0
C285 C 0.72275 0.40267 0.89792 0.0
O286 O 0.7039 0.40061 0.88961 0.0
O287 O 0.74516 0.42351 0.81253 0.0
O288 O 0.74115 0.41647 0.76539 0.0
O289 O 0.6993 0.37691 0.83821 0.0
O290 O 0.7071 0.39102 0.79628 0.0
C291 C 0.74874 0.42717 0.78573 0.0
C292 C 0.69677 0.37789 0.81042 0.0
O293 O 0.73637 0.40393 0.87853 0.0
Mg294 Mg 0.58952 0.734 0.83585 0.0
O295 O 0.61429 0.7577 0.82714 0.0
O296 O 0.61806 0.75909 0.77893 0.0
Mg297 Mg 0.59701 0.73686 0.75692 0.0
C298 C 0.62269 0.76498 0.80446 0.0
C299 C 0.57036 0.74275 0.89651 0.0
O300 O 0.55433 0.7368 0.88206 0.0
O301 O 0.56522 0.75608 0.82067 0.0
O302 O 0.57029 0.75579 0.77263 0.0
O303 O 0.6127 0.7096 0.83684 0.0
O304 O 0.59668 0.71914 0.79715 0.0
C305 C 0.56062 0.76181 0.79502 0.0
C306 C 0.6104 0.70814 0.80899 0.0
O307 O 0.5871 0.74417 0.88316 0.0
Mg308 Mg 0.26298 0.58653 0.83792 0.0
O309 O 0.24058 0.61198 0.82721 0.0
O310 O 0.24314 0.61834 0.77968 0.0
Mg311 Mg 0.26538 0.59631 0.75944 0.0
C312 C 0.23557 0.62197 0.80462 0.0
C313 C 0.25105 0.56778 0.898 0.0
O314 O 0.25831 0.55163 0.88509 0.0
O315 O 0.2413 0.56315 0.8187 0.0
O316 O 0.24441 0.57009 0.77132 0.0
O317 O 0.28768 0.60932 0.84262 0.0
O318 O 0.28034 0.59369 0.8016 0.0
C319 C 0.23685 0.55978 0.79209 0.0
C320 C 0.29076 0.60713 0.81503 0.0
O321 O 0.24988 0.58417 0.88372 0.0
Mg322 Mg 0.39896 0.25799 0.83425 0.0
O323 O 0.37351 0.23566 0.82274 0.0
O324 O 0.36908 0.23748 0.77466 0.0
Mg325 Mg 0.39093 0.26016 0.7553 0.0
C326 C 0.36458 0.23015 0.79944 0.0
C327 C 0.41795 0.2452 0.89352 0.0
O328 O 0.43418 0.25103 0.87941 0.0
O329 O 0.42246 0.23599 0.81598 0.0
O330 O 0.41669 0.23909 0.76828 0.0
O331 O 0.37628 0.28291 0.83804 0.0
O332 O 0.3924 0.27515 0.79759 0.0
C333 C 0.42636 0.23142 0.78957 0.0
C334 C 0.37884 0.28577 0.81047 0.0
O335 O 0.40109 0.24521 0.88031 0.0
Mg336 Mg 0.25827 0.39912 0.32931 0.0
O337 O 0.23467 0.37412 0.32119 0.0
O338 O 0.23377 0.36937 0.27311 0.0
Mg339 Mg 0.25628 0.38989 0.25068 0.0
C340 C 0.22763 0.36525 0.29869 0.0
C341 C 0.25847 0.41437 0.39201 0.0
O342 O 0.27412 0.42332 0.38011 0.0
O343 O 0.23641 0.42308 0.31237 0.0
O344 O 0.23726 0.41702 0.26459 0.0
O345 O 0.28271 0.37595 0.33191 0.0
O346 O 0.27348 0.39106 0.29134 0.0
C347 C 0.23101 0.42717 0.28639 0.0
C348 C 0.28442 0.37764 0.30399 0.0
O349 O 0.24755 0.403 0.37623 0.0
Mg350 Mg 0.58931 0.26586 0.33429 0.0
O351 O 0.61453 0.24359 0.32218 0.0
O352 O 0.62192 0.2479 0.27524 0.0
Mg353 Mg 0.60066 0.27152 0.25644 0.0
C354 C 0.62487 0.23925 0.29962 0.0
C355 C 0.60087 0.24617 0.39394 0.0
O356 O 0.61887 0.24798 0.38226 0.0
O357 O 0.56624 0.24497 0.31225 0.0
O358 O 0.57395 0.2507 0.26568 0.0
O359 O 0.61234 0.29031 0.34166 0.0
O360 O 0.5973 0.28446 0.29978 0.0
C361 C 0.56319 0.24211 0.2851 0.0
C362 C 0.61054 0.29438 0.31429 0.0
O363 O 0.58547 0.25125 0.37916 0.0
Mg364 Mg 0.73186 0.59009 0.33491 0.0
O365 O 0.75341 0.61593 0.32283 0.0
O366 O 0.75039 0.62157 0.27515 0.0
Mg367 Mg 0.72879 0.5984 0.25617 0.0
C368 C 0.75799 0.62574 0.29989 0.0
C369 C 0.73826 0.57618 0.39835 0.0
O370 O 0.7242 0.56364 0.38941 0.0
O371 O 0.75413 0.56718 0.31631 0.0
O372 O 0.75086 0.57319 0.26871 0.0
O373 O 0.70662 0.61226 0.33931 0.0
O374 O 0.71407 0.5962 0.29863 0.0
C375 C 0.75878 0.56355 0.28986 0.0
C376 C 0.70345 0.60963 0.31182 0.0
O377 O 0.7456 0.58875 0.38035 0.0
Mg378 Mg 0.40003 0.72676 0.34268 0.0
O379 O 0.37547 0.75009 0.33162 0.0
O380 O 0.36956 0.74766 0.28393 0.0
Mg381 Mg 0.39104 0.7248 0.264 0.0
C382 C 0.36589 0.75537 0.30878 0.0
C383 C 0.41965 0.74051 0.40153 0.0
O384 O 0.43606 0.73531 0.38733 0.0
O385 O 0.4242 0.74774 0.32405 0.0
O386 O 0.41766 0.74509 0.2765 0.0
O387 O 0.37633 0.70286 0.34684 0.0
O388 O 0.39257 0.70974 0.30617 0.0
C389 C 0.42793 0.75227 0.2976 0.0
C390 C 0.37861 0.69981 0.31925 0.0
O391 O 0.40274 0.73968 0.38855 0.0
Mg392 Mg 0.25822 0.59053 0.17758 0.0
O393 O 0.23476 0.61532 0.18746 0.0
O394 O 0.23522 0.61989 0.2356 0.0
Mg395 Mg 0.25832 0.59914 0.25641 0.0
C396 C 0.22835 0.62408 0.21044 0.0
C397 C 0.25623 0.57421 0.1158 0.0
O398 O 0.271 0.56406 0.12802 0.0
O399 O 0.23683 0.56639 0.19524 0.0
O400 O 0.23874 0.57225 0.24305 0.0
O401 O 0.28247 0.61399 0.17443 0.0
O402 O 0.27425 0.59805 0.21482 0.0
C403 C 0.23195 0.56224 0.22144 0.0
C404 C 0.28482 0.61174 0.20217 0.0
O405 O 0.24653 0.58692 0.13113 0.0
Mg406 Mg 0.39944 0.25769 0.17213 0.0
O407 O 0.3747 0.23419 0.18154 0.0
O408 O 0.36828 0.23608 0.22921 0.0
Mg409 Mg 0.38698 0.26102 0.24993 0.0
C410 C 0.36528 0.22826 0.20422 0.0
C411 C 0.41769 0.2533 0.11099 0.0
O412 O 0.42755 0.26881 0.12179 0.0
O413 O 0.42313 0.2375 0.19419 0.0
O414 O 0.41534 0.24262 0.24086 0.0
O415 O 0.37597 0.28154 0.16413 0.0
O416 O 0.38925 0.27478 0.20703 0.0
C417 C 0.42655 0.23483 0.22127 0.0
C418 C 0.37621 0.28452 0.1919 0.0
O419 O 0.40508 0.24415 0.12711 0.0
Mg420 Mg 0.73166 0.40483 0.1761 0.0
O421 O 0.75413 0.37911 0.1854 0.0
O422 O 0.75306 0.37322 0.2332 0.0
Mg423 Mg 0.73196 0.39566 0.25483 0.0
C424 C 0.75972 0.36924 0.20782 0.0
C425 C 0.74158 0.39158 0.11353 0.0
O426 O 0.73568 0.37465 0.12575 0.0
O427 O 0.75434 0.42785 0.19329 0.0
O428 O 0.75291 0.4215 0.24098 0.0
O429 O 0.70642 0.38251 0.17339 0.0
O430 O 0.71554 0.39794 0.2138 0.0
C431 C 0.75985 0.43143 0.2194 0.0
C432 C 0.70441 0.38467 0.20118 0.0
O433 O 0.74291 0.40736 0.12919 0.0
Mg434 Mg 0.58766 0.72665 0.17595 0.0
O435 O 0.61254 0.74995 0.18571 0.0
O436 O 0.61935 0.74777 0.23316 0.0
Mg437 Mg 0.59845 0.72481 0.25413 0.0
C438 C 0.62253 0.75538 0.20813 0.0
C439 C 0.57152 0.72997 0.11386 0.0
O440 O 0.56183 0.71431 0.12449 0.0
O441 O 0.56399 0.74765 0.1958 0.0
O442 O 0.57144 0.74499 0.24306 0.0
O443 O 0.61109 0.70249 0.17068 0.0
O444 O 0.59586 0.7097 0.21205 0.0
C445 C 0.56074 0.75214 0.22242 0.0
C446 C 0.60933 0.69949 0.19835 0.0
O447 O 0.58354 0.73959 0.13035 0.0
H448 H 0.34587 0.21473 0.15519 0.0
H449 H 0.35006 0.20528 0.24785 0.0
H450 H 0.31859 0.18988 0.15263 0.0
H451 H 0.32349 0.1802 0.24517 0.0
H452 H 0.26166 0.15457 0.23983 0.0
H453 H 0.28793 0.18005 0.23785 0.0
H454 H 0.31025 0.15419 0.15782 0.0
H455 H 0.28331 0.12894 0.15929 0.0
C456 C 0.34115 0.20719 0.17491 0.0
C457 C 0.34995 0.21214 0.20177 0.0
C458 C 0.32556 0.19293 0.17344 0.0
C459 C 0.31863 0.18331 0.19877 0.0
C460 C 0.32804 0.18775 0.22536 0.0
C461 C 0.34339 0.20206 0.22688 0.0
C462 C 0.27209 0.15436 0.2217 0.0
C463 C 0.27058 0.13959 0.19992 0.0
C464 C 0.28724 0.1689 0.22065 0.0
C465 C 0.30147 0.1689 0.198 0.0
C466 C 0.29951 0.15463 0.17553 0.0
C467 C 0.28412 0.14014 0.17642 0.0
H468 H 0.85413 0.28636 0.25067 0.0
H469 H 0.84768 0.27583 0.15849 0.0
H470 H 0.828 0.31191 0.24862 0.0
H471 H 0.82082 0.30118 0.1566 0.0
H472 H 0.7866 0.36273 0.16336 0.0
H473 H 0.8132 0.33711 0.16132 0.0
H474 H 0.79233 0.31264 0.24297 0.0
H475 H 0.76644 0.33845 0.24547 0.0
C476 C 0.84704 0.28943 0.22994 0.0
C477 C 0.85285 0.27891 0.20479 0.0
C478 C 0.83195 0.30402 0.22879 0.0
C479 C 0.82204 0.30834 0.20255 0.0
C480 C 0.8282 0.29825 0.17715 0.0
C481 C 0.84353 0.2837 0.17824 0.0
C482 C 0.78768 0.35178 0.18074 0.0
C483 C 0.77465 0.3528 0.2048 0.0
C484 C 0.80286 0.33707 0.17953 0.0
C485 C 0.80512 0.32306 0.20225 0.0
C486 C 0.79142 0.32357 0.22554 0.0
C487 C 0.77648 0.33832 0.2269 0.0
H488 H 0.62795 0.78268 0.16385 0.0
H489 H 0.65248 0.76396 0.24651 0.0
H490 H 0.6522 0.81056 0.1622 0.0
H491 H 0.67686 0.79122 0.24446 0.0
H492 H 0.70008 0.85422 0.25215 0.0
H493 H 0.67551 0.82718 0.24964 0.0
H494 H 0.68816 0.81945 0.15824 0.0
H495 H 0.71259 0.84716 0.16057 0.0
C496 C 0.63865 0.78437 0.18146 0.0
C497 C 0.6381 0.77129 0.20551 0.0
C498 C 0.65257 0.80028 0.18047 0.0
C499 C 0.66623 0.80331 0.20343 0.0
C500 C 0.66617 0.78967 0.2268 0.0
C501 C 0.65224 0.77396 0.2279 0.0
C502 C 0.69763 0.84684 0.23144 0.0
C503 C 0.70847 0.8527 0.20662 0.0
C504 C 0.6836 0.83123 0.23004 0.0
C505 C 0.68015 0.82088 0.20386 0.0
C506 C 0.69046 0.82715 0.17872 0.0
C507 C 0.70447 0.84297 0.18008 0.0
H508 H 0.21584 0.64485 0.16197 0.0
H509 H 0.20504 0.63881 0.25414 0.0
H510 H 0.19125 0.67242 0.15998 0.0
H511 H 0.18029 0.66569 0.25199 0.0
H512 H 0.15592 0.72846 0.24801 0.0
H513 H 0.18064 0.7015 0.24609 0.0
H514 H 0.15543 0.6808 0.16479 0.0
H515 H 0.13088 0.70838 0.16626 0.0
C516 C 0.20809 0.64925 0.1817 0.0
C517 C 0.21257 0.63981 0.20827 0.0
C518 C 0.19397 0.66498 0.18055 0.0
C519 C 0.18404 0.67145 0.20592 0.0
C520 C 0.18806 0.66148 0.23219 0.0
C521 C 0.2022 0.64595 0.23338 0.0
C522 C 0.15562 0.71822 0.22966 0.0
C523 C 0.14128 0.72044 0.20745 0.0
C524 C 0.16976 0.70267 0.22863 0.0
C525 C 0.1698 0.68878 0.20553 0.0
C526 C 0.15584 0.69131 0.18283 0.0
C527 C 0.14174 0.70704 0.18373 0.0
H528 H 0.28835 0.85275 0.25978 0.0
H529 H 0.27593 0.84843 0.35174 0.0
H530 H 0.31262 0.82555 0.26371 0.0
H531 H 0.30005 0.82052 0.35552 0.0
H532 H 0.36028 0.78363 0.35178 0.0
H533 H 0.33589 0.8114 0.35206 0.0
H534 H 0.31131 0.78985 0.27083 0.0
H535 H 0.33587 0.76272 0.27009 0.0
C536 C 0.29073 0.84592 0.28087 0.0
C537 C 0.28004 0.85262 0.30539 0.0
C538 C 0.30459 0.83021 0.28309 0.0
C539 C 0.308 0.8206 0.30982 0.0
C540 C 0.29778 0.82765 0.33462 0.0
C541 C 0.28394 0.84358 0.33244 0.0
C542 C 0.34956 0.78481 0.33411 0.0
C543 C 0.35019 0.77117 0.31069 0.0
C544 C 0.33556 0.80066 0.33433 0.0
C545 C 0.32189 0.80303 0.31122 0.0
C546 C 0.322 0.78881 0.28856 0.0
C547 C 0.33604 0.77317 0.2882 0.0
H548 H 0.20328 0.35027 0.25646 0.0
H549 H 0.21654 0.34453 0.34799 0.0
H550 H 0.17896 0.3231 0.26003 0.0
H551 H 0.19231 0.31666 0.3514 0.0
H552 H 0.13142 0.28056 0.34728 0.0
H553 H 0.15622 0.30796 0.34818 0.0
H554 H 0.18025 0.28719 0.26617 0.0
H555 H 0.1553 0.26041 0.26484 0.0
C556 C 0.20107 0.34313 0.27738 0.0
C557 C 0.21202 0.34943 0.30188 0.0
C558 C 0.18718 0.32744 0.27939 0.0
C559 C 0.18397 0.31745 0.30588 0.0
C560 C 0.19444 0.32409 0.33069 0.0
C561 C 0.20833 0.34 0.32872 0.0
C562 C 0.14212 0.28181 0.32958 0.0
C563 C 0.14121 0.26852 0.30577 0.0
C564 C 0.15635 0.29745 0.33015 0.0
C565 C 0.16997 0.29996 0.307 0.0
C566 C 0.16961 0.28603 0.28396 0.0
C567 C 0.15535 0.2706 0.28326 0.0
H568 H 0.70612 0.14303 0.25423 0.0
H569 H 0.71521 0.14814 0.34689 0.0
H570 H 0.68121 0.16979 0.25615 0.0
H571 H 0.69056 0.1756 0.34867 0.0
H572 H 0.63028 0.21095 0.3424 0.0
H573 H 0.65512 0.1837 0.34344 0.0
H574 H 0.68034 0.20535 0.26267 0.0
H575 H 0.65523 0.232 0.26113 0.0
C576 C 0.70289 0.14996 0.27503 0.0
C577 C 0.71277 0.14354 0.30038 0.0
C578 C 0.68866 0.16542 0.2761 0.0
C579 C 0.68409 0.17508 0.30249 0.0
C580 C 0.69365 0.16841 0.32801 0.0
C581 C 0.70782 0.15273 0.32698 0.0
C582 C 0.64119 0.2099 0.32494 0.0
C583 C 0.64062 0.22348 0.30149 0.0
C584 C 0.65548 0.19434 0.3256 0.0
C585 C 0.66956 0.19217 0.30295 0.0
C586 C 0.66938 0.20623 0.28009 0.0
C587 C 0.65503 0.2216 0.27928 0.0
H588 H 0.76313 0.65661 0.26165 0.0
H589 H 0.78628 0.63247 0.34217 0.0
H590 H 0.78833 0.6832 0.26301 0.0
H591 H 0.81217 0.6587 0.34296 0.0
H592 H 0.84506 0.71966 0.34745 0.0
H593 H 0.81864 0.69398 0.34886 0.0
H594 H 0.82335 0.68685 0.25576 0.0
H595 H 0.84903 0.71294 0.25426 0.0
C596 C 0.7737 0.65692 0.27959 0.0
C597 C 0.77282 0.64235 0.30169 0.0
C598 C 0.78825 0.67212 0.28029 0.0
C599 C 0.8025 0.67295 0.30288 0.0
C600 C 0.80134 0.65862 0.32536 0.0
C601 C 0.78657 0.64353 0.32485 0.0
C602 C 0.84043 0.71257 0.32732 0.0
C603 C 0.84903 0.71843 0.30072 0.0
C604 C 0.82535 0.69779 0.32814 0.0
C605 C 0.81873 0.68844 0.3024 0.0
C606 C 0.82769 0.69406 0.27593 0.0
C607 C 0.84254 0.70895 0.27507 0.0
H608 H 0.72766 0.83588 0.76832 0.0
H609 H 0.70802 0.86169 0.84982 0.0
H610 H 0.7008 0.8111 0.77095 0.0
H611 H 0.68052 0.83694 0.85206 0.0
H612 H 0.64377 0.77621 0.85344 0.0
H613 H 0.67171 0.80041 0.85631 0.0
H614 H 0.6647 0.81341 0.76494 0.0
H615 H 0.63742 0.7892 0.7619 0.0
C616 C 0.71757 0.83627 0.78683 0.0
C617 C 0.71976 0.85095 0.80864 0.0
C618 C 0.70211 0.8221 0.78828 0.0
C619 C 0.68827 0.82234 0.81139 0.0
C620 C 0.69096 0.8364 0.83398 0.0
C621 C 0.70664 0.85058 0.83265 0.0
C622 C 0.64818 0.78434 0.83405 0.0
C623 C 0.63856 0.78057 0.80736 0.0
C624 C 0.66413 0.79821 0.83572 0.0
C625 C 0.67064 0.80853 0.81073 0.0
C626 C 0.66044 0.80529 0.78442 0.0
C627 C 0.6447 0.79145 0.78271 0.0
H628 H 0.14702 0.71489 0.853 0.0
H629 H 0.14052 0.70438 0.76081 0.0
H630 H 0.17404 0.68972 0.85475 0.0
H631 H 0.16681 0.67902 0.76274 0.0
H632 H 0.22853 0.65235 0.76625 0.0
H633 H 0.20248 0.67804 0.76833 0.0
H634 H 0.18149 0.65384 0.85008 0.0
H635 H 0.20819 0.62835 0.84847 0.0
C636 C 0.15121 0.70709 0.83321 0.0
C637 C 0.14179 0.7118 0.80671 0.0
C638 C 0.16663 0.69263 0.83423 0.0
C639 C 0.17279 0.68256 0.80881 0.0
C640 C 0.16286 0.68687 0.78258 0.0
C641 C 0.14766 0.70137 0.78152 0.0
C642 C 0.21842 0.6525 0.78474 0.0
C643 C 0.22029 0.63817 0.80704 0.0
C644 C 0.20339 0.66719 0.78587 0.0
C645 C 0.18966 0.66779 0.80913 0.0
C646 C 0.19188 0.65384 0.83193 0.0
C647 C 0.20711 0.6392 0.83094 0.0
H648 H 0.3489 0.20879 0.75437 0.0
H649 H 0.34399 0.21635 0.84736 0.0
H650 H 0.3221 0.18395 0.75544 0.0
H651 H 0.31645 0.19173 0.8483 0.0
H652 H 0.28174 0.13087 0.8391 0.0
H653 H 0.30857 0.15617 0.84157 0.0
H654 H 0.28658 0.18298 0.7621 0.0
H655 H 0.26041 0.15745 0.75911 0.0
C656 C 0.34198 0.20527 0.77507 0.0
C657 C 0.34849 0.21469 0.80076 0.0
C658 C 0.32649 0.19108 0.77566 0.0
C659 C 0.3169 0.18606 0.80189 0.0
C660 C 0.3236 0.19519 0.82774 0.0
C661 C 0.33931 0.20934 0.8272 0.0
C662 C 0.28263 0.14224 0.82226 0.0
C663 C 0.26915 0.14199 0.79869 0.0
C664 C 0.29793 0.15679 0.82374 0.0
C665 C 0.2999 0.17143 0.80181 0.0
C666 C 0.28586 0.1716 0.77894 0.0
C667 C 0.27077 0.157 0.77729 0.0
H668 H 0.84886 0.28418 0.75682 0.0
H669 H 0.84237 0.27358 0.84896 0.0
H670 H 0.82235 0.30932 0.75883 0.0
H671 H 0.81513 0.29855 0.8508 0.0
H672 H 0.77999 0.35949 0.84424 0.0
H673 H 0.80716 0.33446 0.84603 0.0
H674 H 0.78663 0.30952 0.76447 0.0
H675 H 0.76014 0.3347 0.76222 0.0
C676 C 0.84168 0.28713 0.77753 0.0
C677 C 0.84759 0.27671 0.80268 0.0
C678 C 0.82637 0.3015 0.77865 0.0
C679 C 0.81637 0.30571 0.80488 0.0
C680 C 0.8226 0.2957 0.83028 0.0
C681 C 0.83813 0.28136 0.8292 0.0
C682 C 0.78129 0.34858 0.82679 0.0
C683 C 0.76812 0.34926 0.80288 0.0
C684 C 0.79679 0.33421 0.82788 0.0
C685 C 0.79926 0.3202 0.80516 0.0
C686 C 0.78553 0.32044 0.78192 0.0
C687 C 0.77026 0.33485 0.7807 0.0
H688 H 0.64035 0.2155 0.6575 0.0
H689 H 0.63626 0.20582 0.75015 0.0
H690 H 0.66793 0.19095 0.65486 0.0
H691 H 0.66309 0.1811 0.74738 0.0
H692 H 0.72485 0.15522 0.7416 0.0
H693 H 0.6986 0.18071 0.73997 0.0
H694 H 0.67605 0.15514 0.65992 0.0
H695 H 0.70297 0.12985 0.66104 0.0
C696 C 0.64522 0.20805 0.67722 0.0
C697 C 0.63626 0.21278 0.70408 0.0
C698 C 0.66095 0.19395 0.6757 0.0
C699 C 0.6679 0.18427 0.70097 0.0
C700 C 0.65851 0.18866 0.7276 0.0
C701 C 0.643 0.20279 0.72916 0.0
C702 C 0.71435 0.15503 0.72357 0.0
C703 C 0.71583 0.14035 0.70164 0.0
C704 C 0.69923 0.16961 0.7227 0.0
C705 C 0.68498 0.16975 0.70009 0.0
C706 C 0.68683 0.15549 0.67758 0.0
C707 C 0.70218 0.14096 0.67828 0.0
H708 H 0.785 0.63117 0.66239 0.0
H709 H 0.76602 0.65704 0.7442 0.0
H710 H 0.813 0.65536 0.66028 0.0
H711 H 0.79334 0.68124 0.74169 0.0
H712 H 0.85597 0.7042 0.75 0.0
H713 H 0.8294 0.67918 0.74718 0.0
H714 H 0.82173 0.69189 0.65583 0.0
H715 H 0.84903 0.71686 0.65848 0.0
C716 C 0.78669 0.64209 0.67974 0.0
C717 C 0.77351 0.64196 0.70371 0.0
C718 C 0.80265 0.65597 0.67847 0.0
C719 C 0.80559 0.66996 0.70109 0.0
C720 C 0.79185 0.67029 0.72433 0.0
C721 C 0.77612 0.65643 0.7257 0.0
C722 C 0.84871 0.70168 0.72923 0.0
C723 C 0.8544 0.71274 0.70455 0.0
C724 C 0.8334 0.68736 0.72765 0.0
C725 C 0.82316 0.68386 0.70143 0.0
C726 C 0.82935 0.69428 0.67635 0.0
C727 C 0.84491 0.7086 0.67788 0.0
H728 H 0.28133 0.84755 0.75649 0.0
H729 H 0.27503 0.84432 0.66317 0.0
H730 H 0.3065 0.821 0.75492 0.0
H731 H 0.29987 0.81707 0.66169 0.0
H732 H 0.36075 0.78291 0.66994 0.0
H733 H 0.33514 0.80945 0.6684 0.0
H734 H 0.30844 0.7857 0.74695 0.0
H735 H 0.33433 0.75982 0.74903 0.0
C736 C 0.28521 0.84107 0.73562 0.0
C737 C 0.27609 0.84799 0.70997 0.0
C738 C 0.29958 0.82571 0.73473 0.0
C739 C 0.30503 0.81669 0.70822 0.0
C740 C 0.29612 0.82379 0.68246 0.0
C741 C 0.28184 0.83935 0.68332 0.0
C742 C 0.34931 0.78333 0.68674 0.0
C743 C 0.3497 0.76945 0.7098 0.0
C744 C 0.33459 0.79848 0.68581 0.0
C745 C 0.3199 0.79989 0.70779 0.0
C746 C 0.31985 0.78542 0.73011 0.0
C747 C 0.33464 0.77049 0.73122 0.0
H748 H 0.13634 0.28681 0.75016 0.0
H749 H 0.14095 0.27604 0.65781 0.0
H750 H 0.1635 0.31122 0.74725 0.0
H751 H 0.16882 0.30023 0.65503 0.0
H752 H 0.20575 0.36013 0.6603 0.0
H753 H 0.17798 0.33577 0.65941 0.0
H754 H 0.19908 0.31056 0.74044 0.0
H755 H 0.22619 0.33513 0.7418 0.0
C756 C 0.14323 0.28958 0.7292 0.0
C757 C 0.1366 0.27933 0.70426 0.0
C758 C 0.15892 0.30352 0.72756 0.0
C759 C 0.1686 0.30743 0.701 0.0
C760 C 0.16164 0.29761 0.67581 0.0
C761 C 0.14572 0.28372 0.67742 0.0
C762 C 0.20447 0.34928 0.6778 0.0
C763 C 0.21798 0.34973 0.70133 0.0
C764 C 0.18861 0.33529 0.67724 0.0
C765 C 0.18611 0.32143 0.7001 0.0
C766 C 0.2002 0.32139 0.7229 0.0
C767 C 0.21584 0.33543 0.72361 0.0
H768 H 0.23287 0.12951 0.06853 0.0
H769 H 0.25234 0.0674 0.076 0.0
H770 H 0.23211 0.12616 0.01589 0.0
H771 H 0.25176 0.06425 0.0229 0.0
H772 H 0.26103 0.07801 0.9209 0.0
H773 H 0.26783 0.0812 0.9733 0.0
H774 H 0.20701 0.10248 0.98685 0.0
H775 H 0.20007 0.09901 0.9353 0.0
C776 C 0.23735 0.11524 0.05898 0.0
C777 C 0.2424 0.09863 0.07654 0.0
C778 C 0.23688 0.11335 0.02881 0.0
C779 C 0.2417 0.09491 0.01544 0.0
C780 C 0.24804 0.07864 0.03274 0.0
C781 C 0.24828 0.08045 0.06309 0.0
C782 C 0.24914 0.08329 0.93516 0.0
C783 C 0.23002 0.08825 0.92396 0.0
C784 C 0.25303 0.08506 0.96505 0.0
C785 C 0.23798 0.09226 0.98395 0.0
C786 C 0.21893 0.09712 0.97269 0.0
C787 C 0.21495 0.095 0.94315 0.0
H788 H 0.94967 0.24306 0.92796 0.0
H789 H 0.88485 0.24974 0.93154 0.0
H790 H 0.95123 0.24471 0.98077 0.0
H791 H 0.88636 0.25088 0.98438 0.0
H792 H 0.89615 0.26366 0.08004 0.0
H793 H 0.897 0.26896 0.02752 0.0
H794 H 0.94209 0.22214 0.01937 0.0
H795 H 0.94159 0.2172 0.07159 0.0
C796 C 0.93576 0.24506 0.93998 0.0
C797 C 0.91712 0.24607 0.9255 0.0
C798 C 0.93664 0.24588 0.9703 0.0
C799 C 0.9189 0.24767 0.9869 0.0
C800 C 0.90034 0.24965 0.97233 0.0
C801 C 0.89947 0.24889 0.94199 0.0
C802 C 0.90642 0.25469 0.06704 0.0
C803 C 0.91874 0.23994 0.08003 0.0
C804 C 0.90682 0.25764 0.03692 0.0
C805 C 0.91957 0.24594 0.01915 0.0
C806 C 0.9323 0.23164 0.03234 0.0
C807 C 0.9319 0.2287 0.06236 0.0
H808 H 0.73119 0.90201 0.92847 0.0
H809 H 0.78755 0.93378 0.94042 0.0
H810 H 0.72453 0.90456 0.98063 0.0
H811 H 0.78111 0.93597 0.99221 0.0
H812 H 0.75862 0.95172 0.08061 0.0
H813 H 0.75966 0.95198 0.02777 0.0
H814 H 0.73762 0.89059 0.02607 0.0
H815 H 0.73616 0.89045 0.07903 0.0
C816 C 0.74211 0.9096 0.94216 0.0
C817 C 0.75992 0.91767 0.93025 0.0
C818 C 0.73834 0.91098 0.97206 0.0
C819 C 0.75225 0.92052 0.99064 0.0
C820 C 0.76988 0.92883 0.97855 0.0
C821 C 0.77366 0.92743 0.94879 0.0
C822 C 0.75371 0.93835 0.069 0.0
C823 C 0.7475 0.92099 0.0841 0.0
C824 C 0.75444 0.93847 0.03867 0.0
C825 C 0.74901 0.9212 0.02265 0.0
C826 C 0.74181 0.90418 0.0377 0.0
C827 C 0.74104 0.90408 0.06809 0.0
H828 H 0.04021 0.74632 0.93262 0.0
H829 H 0.10511 0.74051 0.93606 0.0
H830 H 0.03877 0.74558 0.98548 0.0
H831 H 0.10372 0.74031 0.98893 0.0
H832 H 0.09454 0.72979 0.08516 0.0
H833 H 0.09349 0.72315 0.03294 0.0
H834 H 0.04762 0.76902 0.02308 0.0
H835 H 0.04833 0.77528 0.07501 0.0
C836 C 0.05417 0.7447 0.94463 0.0
C837 C 0.07279 0.74368 0.93008 0.0
C838 C 0.05335 0.7444 0.97497 0.0
C839 C 0.07114 0.74315 0.99154 0.0
C840 C 0.08969 0.74112 0.97693 0.0
C841 C 0.0905 0.74134 0.94656 0.0
C842 C 0.08404 0.73825 0.07187 0.0
C843 C 0.07159 0.75314 0.08428 0.0
C844 C 0.08353 0.73453 0.04191 0.0
C845 C 0.07052 0.74559 0.02372 0.0
C846 C 0.05763 0.76 0.03638 0.0
C847 C 0.05814 0.7637 0.06623 0.0
H848 H 0.24741 0.86454 0.44045 0.0
H849 H 0.25325 0.92862 0.42483 0.0
H850 H 0.24913 0.87055 0.49255 0.0
H851 H 0.25532 0.93458 0.47705 0.0
H852 H 0.22614 0.93698 0.56901 0.0
H853 H 0.23132 0.93287 0.51704 0.0
H854 H 0.27004 0.88161 0.53318 0.0
H855 H 0.26459 0.88551 0.58534 0.0
C856 C 0.24939 0.87989 0.44809 0.0
C857 C 0.24999 0.89611 0.42843 0.0
C858 C 0.25051 0.88332 0.47802 0.0
C859 C 0.25224 0.90307 0.48903 0.0
C860 C 0.2537 0.91922 0.46931 0.0
C861 C 0.25262 0.91578 0.43936 0.0
C862 C 0.23598 0.92498 0.56155 0.0
C863 C 0.2448 0.91147 0.58137 0.0
C864 C 0.23905 0.9227 0.5317 0.0
C865 C 0.251 0.90682 0.52088 0.0
C866 C 0.26052 0.89382 0.54077 0.0
C867 C 0.25749 0.89614 0.57068 0.0
H868 H 0.09169 0.26435 0.58015 0.0
H869 H 0.04329 0.22078 0.5745 0.0
H870 H 0.09088 0.26842 0.52741 0.0
H871 H 0.04282 0.22446 0.52206 0.0
H872 H 0.03669 0.243 0.42934 0.0
H873 H 0.03518 0.24632 0.48201 0.0
H874 H 0.10031 0.2485 0.48551 0.0
H875 H 0.1018 0.24571 0.43283 0.0
C876 C 0.08077 0.25578 0.56771 0.0
C877 C 0.06763 0.24216 0.58155 0.0
C878 C 0.08039 0.25802 0.53747 0.0
C879 C 0.06685 0.24671 0.52042 0.0
C880 C 0.05327 0.23363 0.53445 0.0
C881 C 0.05364 0.23141 0.5646 0.0
C882 C 0.05068 0.24447 0.4413 0.0
C883 C 0.06937 0.24388 0.42686 0.0
C884 C 0.04982 0.24626 0.47154 0.0
C885 C 0.06763 0.24744 0.48809 0.0
C886 C 0.08628 0.2478 0.4735 0.0
C887 C 0.08714 0.24608 0.44324 0.0
H888 H 0.72659 0.09492 0.57828 0.0
H889 H 0.77051 0.04714 0.56866 0.0
H890 H 0.72044 0.09421 0.52596 0.0
H891 H 0.76478 0.04679 0.51661 0.0
H892 H 0.74302 0.04048 0.42558 0.0
H893 H 0.74163 0.03885 0.4784 0.0
H894 H 0.73818 0.10397 0.48243 0.0
H895 H 0.73899 0.10555 0.42961 0.0
C896 C 0.73482 0.08417 0.56506 0.0
C897 C 0.74912 0.07116 0.57766 0.0
C898 C 0.73138 0.08384 0.53505 0.0
C899 C 0.74215 0.07049 0.51698 0.0
C900 C 0.75598 0.05707 0.5298 0.0
C901 C 0.75938 0.05738 0.55973 0.0
C902 C 0.74165 0.05444 0.43771 0.0
C903 C 0.74133 0.07316 0.42334 0.0
C904 C 0.74098 0.05351 0.46803 0.0
C905 C 0.74007 0.07129 0.48476 0.0
C906 C 0.73872 0.08995 0.47031 0.0
C907 C 0.73929 0.09087 0.43996 0.0
H908 H 0.93098 0.74129 0.58537 0.0
H909 H 0.86674 0.74388 0.56968 0.0
H910 H 0.93704 0.73946 0.53313 0.0
H911 H 0.87281 0.74244 0.51762 0.0
H912 H 0.88812 0.72852 0.42472 0.0
H913 H 0.88473 0.72242 0.47679 0.0
H914 H 0.93422 0.76332 0.49329 0.0
H915 H 0.93785 0.76911 0.44141 0.0
C916 C 0.91814 0.74124 0.57083 0.0
C917 C 0.89838 0.74291 0.58174 0.0
C918 C 0.92162 0.74031 0.54087 0.0
C919 C 0.90543 0.74096 0.52113 0.0
C920 C 0.88564 0.74169 0.53214 0.0
C921 C 0.88216 0.74266 0.56206 0.0
C922 C 0.89848 0.73595 0.43944 0.0
C923 C 0.91314 0.74944 0.42888 0.0
C924 C 0.89646 0.73255 0.4693 0.0
C925 C 0.90908 0.74251 0.48928 0.0
C926 C 0.92436 0.75524 0.47857 0.0
C927 C 0.92635 0.75867 0.44876 0.0
H928 H 0.74679 0.62627 0.56868 0.0
H929 H 0.74908 0.5623 0.58693 0.0
H930 H 0.7492 0.61923 0.51698 0.0
H931 H 0.75194 0.55526 0.53504 0.0
H932 H 0.72395 0.55259 0.44239 0.0
H933 H 0.72896 0.55715 0.49429 0.0
H934 H 0.76964 0.60675 0.47729 0.0
H935 H 0.76427 0.60246 0.42521 0.0
C936 C 0.74818 0.6107 0.56171 0.0
C937 C 0.74752 0.59484 0.58197 0.0
C938 C 0.7497 0.60666 0.532 0.0
C939 C 0.75063 0.58666 0.52178 0.0
C940 C 0.75094 0.57083 0.54214 0.0
C941 C 0.74942 0.57487 0.57191 0.0
C942 C 0.73417 0.56431 0.44966 0.0
C943 C 0.74352 0.5773 0.42962 0.0
C944 C 0.73716 0.56684 0.47948 0.0
C945 C 0.7496 0.58242 0.49003 0.0
C946 C 0.75971 0.59481 0.46992 0.0
C947 C 0.75672 0.59227 0.44005 0.0
H948 H 0.45317 0.74395 0.43585 0.0
H949 H 0.38803 0.74578 0.43906 0.0
H950 H 0.45446 0.7461 0.48865 0.0
H951 H 0.38929 0.74734 0.49182 0.0
H952 H 0.39706 0.76028 0.58733 0.0
H953 H 0.39806 0.76593 0.53492 0.0
H954 H 0.44716 0.72328 0.52745 0.0
H955 H 0.44652 0.71808 0.5796 0.0
C956 C 0.43912 0.74499 0.44778 0.0
C957 C 0.4205 0.74448 0.43321 0.0
C958 C 0.43985 0.7461 0.4781 0.0
C959 C 0.42197 0.74663 0.49459 0.0
C960 C 0.40337 0.74713 0.47989 0.0
C961 C 0.40265 0.74612 0.44957 0.0
C962 C 0.40823 0.75233 0.57451 0.0
C963 C 0.42163 0.73863 0.58766 0.0
C964 C 0.40874 0.75548 0.54444 0.0
C965 C 0.42263 0.74501 0.52686 0.0
C966 C 0.43644 0.73184 0.54025 0.0
C967 C 0.43597 0.72874 0.57023 0.0
H968 H 0.22863 0.39667 0.42481 0.0
H969 H 0.27976 0.43696 0.43085 0.0
H970 H 0.22388 0.39906 0.47738 0.0
H971 H 0.27533 0.43896 0.48308 0.0
H972 H 0.25555 0.45144 0.57386 0.0
H973 H 0.254 0.45162 0.52102 0.0
H974 H 0.2406 0.38776 0.52127 0.0
H975 H 0.24163 0.38769 0.57418 0.0
C976 C 0.23879 0.4061 0.4373 0.0
C977 C 0.25461 0.41658 0.4236 0.0
C978 C 0.23613 0.40739 0.46745 0.0
C979 C 0.24921 0.41921 0.48453 0.0
C980 C 0.26475 0.42998 0.47065 0.0
C981 C 0.26739 0.4287 0.44062 0.0
C982 C 0.25198 0.43749 0.56269 0.0
C983 C 0.24891 0.41951 0.57828 0.0
C984 C 0.25122 0.43756 0.53235 0.0
C985 C 0.24746 0.41965 0.51681 0.0
C986 C 0.2434 0.40187 0.53248 0.0
C987 C 0.24409 0.40181 0.56286 0.0
H988 H 0.63055 0.24987 0.57345 0.0
H989 H 0.56778 0.2325 0.57793 0.0
H990 H 0.62978 0.24659 0.52109 0.0
H991 H 0.56716 0.2285 0.52514 0.0
H992 H 0.56849 0.25251 0.42987 0.0
H993 H 0.56761 0.24913 0.48256 0.0
H994 H 0.62796 0.22437 0.48118 0.0
H995 H 0.62909 0.22853 0.4287 0.0
C996 C 0.61663 0.24501 0.5633 0.0
C997 C 0.59919 0.24157 0.57994 0.0
C998 C 0.61623 0.24295 0.53314 0.0
C999 C 0.59841 0.23724 0.51871 0.0
C1000 C 0.58108 0.23318 0.53544 0.0
C1001 C 0.58146 0.23535 0.56573 0.0
C1002 C 0.58145 0.24606 0.4408 0.0
C1003 C 0.59897 0.24105 0.42515 0.0
C1004 C 0.58092 0.24403 0.47106 0.0
C1005 C 0.59783 0.23675 0.48631 0.0
C1006 C 0.61485 0.23053 0.47032 0.0
C1007 C 0.61546 0.23278 0.44016 0.0
H1008 H 0.75841 0.41294 0.92512 0.0
H1009 H 0.6983 0.39033 0.94167 0.0
H1010 H 0.76611 0.41031 0.97728 0.0
H1011 H 0.70612 0.38747 0.99304 0.0
H1012 H 0.73395 0.36178 0.07424 0.0
H1013 H 0.73181 0.36481 0.02167 0.0
H1014 H 0.75109 0.42692 0.02707 0.0
H1015 H 0.75306 0.42409 0.08013 0.0
C1016 C 0.74689 0.40744 0.93981 0.0
C1017 C 0.72776 0.40183 0.92926 0.0
C1018 C 0.75128 0.40599 0.96957 0.0
C1019 C 0.73675 0.39851 0.98903 0.0
C1020 C 0.71767 0.39305 0.97844 0.0
C1021 C 0.71318 0.39482 0.949 0.0
C1022 C 0.73804 0.37604 0.06434 0.0
C1023 C 0.74343 0.39277 0.08147 0.0
C1024 C 0.73677 0.37775 0.0342 0.0
C1025 C 0.74109 0.39614 0.02042 0.0
C1026 C 0.74772 0.41256 0.03723 0.0
C1027 C 0.74877 0.41093 0.06756 0.0
H1028 H 0.59124 0.75969 0.08342 0.0
H1029 H 0.54767 0.71162 0.07348 0.0
H1030 H 0.58976 0.76614 0.0312 0.0
H1031 H 0.54654 0.71772 0.02152 0.0
H1032 H 0.53708 0.74088 0.9315 0.0
H1033 H 0.53606 0.74096 0.98439 0.0
H1034 H 0.60068 0.74954 0.98692 0.0
H1035 H 0.60163 0.74997 0.93403 0.0
C1036 C 0.58125 0.7506 0.07016 0.0
C1037 C 0.56963 0.73509 0.08263 0.0
C1038 C 0.58049 0.75421 0.0402 0.0
C1039 C 0.56806 0.74243 0.0221 0.0
C1040 C 0.55606 0.72731 0.03479 0.0
C1041 C 0.55682 0.7237 0.06464 0.0
C1042 C 0.55104 0.74306 0.94332 0.0
C1043 C 0.56946 0.74522 0.9285 0.0
C1044 C 0.55047 0.74299 0.97367 0.0
C1045 C 0.56832 0.74501 0.98996 0.0
C1046 C 0.58662 0.74811 0.97512 0.0
C1047 C 0.58718 0.74824 0.94474 0.0
H1048 H 0.22788 0.59371 0.08242 0.0
H1049 H 0.27556 0.5493 0.07778 0.0
H1050 H 0.22301 0.59094 0.02991 0.0
H1051 H 0.2711 0.54694 0.02561 0.0
H1052 H 0.25141 0.53536 0.93473 0.0
H1053 H 0.24932 0.53571 0.98755 0.0
H1054 H 0.24058 0.60037 0.98605 0.0
H1055 H 0.24208 0.59993 0.93321 0.0
C1056 C 0.23724 0.58329 0.07025 0.0
C1057 C 0.25215 0.57178 0.08431 0.0
C1058 C 0.23453 0.58178 0.04014 0.0
C1059 C 0.24666 0.56872 0.02345 0.0
C1060 C 0.26123 0.55691 0.03772 0.0
C1061 C 0.2639 0.55838 0.06772 0.0
C1062 C 0.24874 0.54961 0.94563 0.0
C1063 C 0.24712 0.56764 0.92972 0.0
C1064 C 0.24767 0.54984 0.97596 0.0
C1065 C 0.24507 0.56811 0.99116 0.0
C1066 C 0.24244 0.586 0.97514 0.0
C1067 C 0.24341 0.58576 0.94478 0.0
H1068 H 0.38651 0.23859 0.93104 0.0
H1069 H 0.45148 0.24366 0.92801 0.0
H1070 H 0.38778 0.23738 0.98388 0.0
H1071 H 0.45279 0.24194 0.98083 0.0
H1072 H 0.44316 0.27029 0.07142 0.0
H1073 H 0.44405 0.26487 0.01928 0.0
H1074 H 0.39779 0.21921 0.02724 0.0
H1075 H 0.39659 0.22498 0.07965 0.0
C1076 C 0.4011 0.23905 0.9416 0.0
C1077 C 0.41887 0.24148 0.92527 0.0
C1078 C 0.40184 0.23825 0.97196 0.0
C1079 C 0.42038 0.23979 0.98669 0.0
C1080 C 0.43823 0.24112 0.97023 0.0
C1081 C 0.43748 0.24199 0.93991 0.0
C1082 C 0.43331 0.25892 0.06217 0.0
C1083 C 0.4197 0.24818 0.07975 0.0
C1084 C 0.43392 0.25571 0.0322 0.0
C1085 C 0.42096 0.24163 0.01896 0.0
C1086 C 0.40781 0.23035 0.03666 0.0
C1087 C 0.40721 0.23357 0.06674 0.0
H1088 H 0.26167 0.02673 0.18417 0.0
H1089 H 0.2804 0.05633 0.26327 0.0
H1090 H 0.27305 0.99463 0.20331 0.0
H1091 H 0.29268 0.02424 0.28216 0.0
H1092 H 0.28518 0.93705 0.24087 0.0
H1093 H 0.29507 0.97002 0.2222 0.0
H1094 H 0.27256 -0.00207 0.30077 0.0
H1095 H 0.26356 0.96501 0.31971 0.0
C1096 C 0.26905 0.02652 0.20515 0.0
C1097 C 0.26961 0.04389 0.22256 0.0
C1098 C 0.27571 0.00805 0.2162 0.0
C1099 C 0.28331 0.0067 0.24472 0.0
C1100 C 0.28633 0.02463 0.2605 0.0
C1101 C 0.27939 0.04303 0.24962 0.0
C1102 C 0.28304 0.95021 0.25452 0.0
C1103 C 0.27313 0.94857 0.28142 0.0
C1104 C 0.28861 0.96911 0.24377 0.0
C1105 C 0.28405 0.98673 0.25951 0.0
C1106 C 0.27637 0.98477 0.28792 0.0
C1107 C 0.27108 0.96582 0.29885 0.0
H1108 H 0.93762 0.27906 0.26722 0.0
H1109 H 0.96461 0.25775 0.18754 0.0
H1110 H 0.97086 0.28807 0.28572 0.0
H1111 H -0.00217 0.26586 0.20632 0.0
H1112 H 0.02841 0.25595 0.32281 0.0
H1113 H -0.00417 0.26624 0.30396 0.0
H1114 H 0.02424 0.28607 0.22435 0.0
H1115 H 0.05679 0.27488 0.24293 0.0
C1116 C 0.95065 0.27675 0.25339 0.0
C1117 C 0.94861 0.2673 0.2262 0.0
C1118 C 0.96971 0.2818 0.26406 0.0
C1119 C 0.98713 0.27718 0.24794 0.0
C1120 C 0.98483 0.26974 0.21943 0.0
C1121 C 0.96572 0.26498 0.20859 0.0
C1122 C 0.0278 0.26312 0.30169 0.0
C1123 C 0.04503 0.26413 0.28405 0.0
C1124 C 0.00907 0.26914 0.29081 0.0
C1125 C 0.00728 0.27654 0.26222 0.0
C1126 C 0.02497 0.27986 0.24607 0.0
C1127 C 0.04364 0.27357 0.25679 0.0
H1128 H 0.71037 0.05801 0.23881 0.0
H1129 H 0.72904 0.03141 0.32004 0.0
H1130 H 0.69993 0.02492 0.22118 0.0
H1131 H 0.71943 -0.00172 0.30216 0.0
H1132 H 0.72885 0.96462 0.18731 0.0
H1133 H 0.72063 -0.00175 0.20464 0.0
H1134 H 0.69758 0.97287 0.28456 0.0
H1135 H 0.70663 0.93922 0.2675 0.0
C1136 C 0.71181 0.04513 0.25315 0.0
C1137 C 0.72092 0.04719 0.28056 0.0
C1138 C 0.70593 0.02615 0.24298 0.0
C1139 C 0.70932 0.00881 0.25987 0.0
C1140 C 0.71648 0.01124 0.28849 0.0
C1141 C 0.7221 0.03028 0.2988 0.0
C1142 C 0.72141 0.96616 0.20815 0.0
C1143 C 0.71884 0.94938 0.22633 0.0
C1144 C 0.71659 0.9855 0.21815 0.0
C1145 C 0.70888 0.98837 0.2464 0.0
C1146 C 0.70405 0.97127 0.26308 0.0
C1147 C 0.70912 0.95198 0.25323 0.0
H1148 H 0.04975 0.73769 0.28116 0.0
H1149 H 0.03636 0.7195 0.19309 0.0
H1150 H 0.01629 0.72844 0.29604 0.0
H1151 H 0.00287 0.70863 0.20854 0.0
H1152 H 0.94068 0.73539 0.23211 0.0
H1153 H 0.97437 0.72664 0.21783 0.0
H1154 H 0.98826 0.70992 0.30645 0.0
H1155 H 0.95446 0.72029 0.32121 0.0
C1156 C 0.03984 0.73106 0.26504 0.0
C1157 C 0.04553 0.73004 0.23565 0.0
C1158 C 0.02052 0.72545 0.27375 0.0
C1159 C 0.00641 0.71826 0.25341 0.0
C1160 C 0.01299 0.71486 0.22466 0.0
C1161 C 0.03227 0.72095 0.21577 0.0
C1162 C 0.95074 0.72956 0.24863 0.0
C1163 C 0.94505 0.72929 0.27806 0.0
C1164 C 0.97022 0.72422 0.24027 0.0
C1165 C 0.9845 0.71807 0.26104 0.0
C1166 C 0.97798 0.71536 0.28996 0.0
C1167 C 0.95852 0.72115 0.29846 0.0
H1168 H 0.73416 0.96407 0.82173 0.0
H1169 H 0.71307 0.93558 0.74301 0.0
H1170 H 0.72415 -0.00325 0.80294 0.0
H1171 H 0.70216 0.96827 0.72452 0.0
H1172 H 0.73104 0.02707 0.68588 0.0
H1173 H 0.72241 0.99417 0.70532 0.0
H1174 H 0.70262 0.02215 0.78533 0.0
H1175 H 0.71217 0.05507 0.76613 0.0
C1176 C 0.72658 0.96469 0.80091 0.0
C1177 C 0.72488 0.94737 0.78353 0.0
C1178 C 0.72072 0.9835 0.79007 0.0
C1179 C 0.71278 0.98528 0.76179 0.0
C1180 C 0.70879 0.96755 0.74599 0.0
C1181 C 0.71493 0.94879 0.75666 0.0
C1182 C 0.72421 0.02627 0.70723 0.0
C1183 C 0.72277 0.04355 0.72475 0.0
C1184 C 0.71915 0.00734 0.71845 0.0
C1185 C 0.71228 0.00538 0.7473 0.0
C1186 C 0.70845 0.02302 0.7634 0.0
C1187 C 0.71381 0.04191 0.75233 0.0
H1188 H 0.96549 0.73039 0.6925 0.0
H1189 H 0.93738 0.71212 0.77292 0.0
H1190 H -0.0018 0.72075 0.71159 0.0
H1191 H 0.9701 0.70168 0.79179 0.0
H1192 H 0.02979 0.73119 0.82709 0.0
H1193 H -0.0035 0.72251 0.80901 0.0
H1194 H 0.02318 0.69887 0.73026 0.0
H1195 H 0.05648 0.7084 0.74804 0.0
C1196 C 0.9662 0.72355 0.71383 0.0
C1197 C 0.94898 0.7225 0.73148 0.0
C1198 C 0.98501 0.7179 0.72484 0.0
C1199 C 0.98689 0.71084 0.75359 0.0
C1200 C 0.96927 0.70758 0.7699 0.0
C1201 C 0.95051 0.71348 0.75903 0.0
C1202 C 0.0286 0.72349 0.80638 0.0
C1203 C 0.04562 0.72093 0.78866 0.0
C1204 C 0.00946 0.71842 0.79595 0.0
C1205 C 0.00707 0.71045 0.76775 0.0
C1206 C 0.02442 0.70555 0.75167 0.0
C1207 C 0.04351 0.71089 0.76193 0.0
H1208 H 0.26173 0.94092 0.77703 0.0
H1209 H 0.27493 0.95417 0.68713 0.0
H1210 H 0.26971 0.97501 0.7903 0.0
H1211 H 0.28466 0.98839 0.70082 0.0
H1212 H 0.25494 0.04913 0.7249 0.0
H1213 H 0.26552 0.0159 0.71082 0.0
H1214 H 0.28609 0.00445 0.79851 0.0
H1215 H 0.27382 0.03766 0.81317 0.0
C1216 C 0.26701 0.95097 0.7601 0.0
C1217 C 0.26686 0.945 0.73078 0.0
C1218 C 0.27191 0.97069 0.76786 0.0
C1219 C 0.27723 0.98495 0.74657 0.0
C1220 C 0.27976 0.97816 0.71772 0.0
C1221 C 0.27437 0.95844 0.70983 0.0
C1222 C 0.262 0.03972 0.74122 0.0
C1223 C 0.26284 0.04583 0.77045 0.0
C1224 C 0.26839 0.02052 0.73297 0.0
C1225 C 0.2762 0.00697 0.75362 0.0
C1226 C 0.27938 0.01408 0.78217 0.0
C1227 C 0.27249 0.0332 0.79061 0.0
H1228 H 0.95956 0.25916 0.82277 0.0
H1229 H 0.93235 0.28127 0.7438 0.0
H1230 H 0.99257 0.26914 0.80502 0.0
H1231 H 0.96533 0.29214 0.72638 0.0
H1232 H 0.05138 0.28149 0.76976 0.0
H1233 H 0.01827 0.29093 0.78838 0.0
H1234 H 0.99123 0.27157 0.70753 0.0
H1235 H 0.02432 0.26298 0.68871 0.0
C1236 C 0.96054 0.26696 0.80214 0.0
C1237 C 0.9435 0.26898 0.78435 0.0
C1238 C 0.97952 0.2728 0.79191 0.0
C1239 C 0.98173 0.28101 0.76385 0.0
C1240 C 0.96426 0.2853 0.74768 0.0
C1241 C 0.94535 0.27919 0.75773 0.0
C1242 C 0.03839 0.27991 0.75567 0.0
C1243 C 0.04034 0.27107 0.72803 0.0
C1244 C 0.0194 0.28521 0.7664 0.0
C1245 C 0.00197 0.28149 0.74985 0.0
C1246 C 0.00425 0.27474 0.72099 0.0
C1247 C 0.02328 0.26971 0.71012 0.0
H1248 H 0.77212 0.53775 0.69414 0.0
H1249 H 0.75147 0.55078 0.78119 0.0
H1250 H 0.78208 0.50399 0.70966 0.0
H1251 H 0.7599 0.51706 0.79609 0.0
H1252 H 0.76759 0.45507 0.82099 0.0
H1253 H 0.77828 0.48896 0.80714 0.0
H1254 H 0.76361 0.4755 0.7176 0.0
H1255 H 0.75452 0.44169 0.73107 0.0
C1256 C 0.76993 0.53351 0.71663 0.0
C1257 C 0.76049 0.54678 0.73618 0.0
C1258 C 0.7755 0.51408 0.72555 0.0
C1259 C 0.77125 0.50737 0.75398 0.0
C1260 C 0.76358 0.52142 0.77408 0.0
C1261 C 0.75846 0.54089 0.76536 0.0
C1262 C 0.76725 0.45923 0.79826 0.0
C1263 C 0.75959 0.44585 0.77731 0.0
C1264 C 0.77323 0.47875 0.79028 0.0
C1265 C 0.77118 0.4854 0.76132 0.0
C1266 C 0.76551 0.47121 0.7401 0.0
C1267 C 0.75999 0.45168 0.74796 0.0
H1268 H 0.55177 0.78688 0.74989 0.0
H1269 H 0.5266 0.7615 0.82826 0.0
H1270 H 0.51805 0.79614 0.73356 0.0
H1271 H 0.49294 0.76982 0.81155 0.0
H1272 H 0.43335 0.77674 0.77687 0.0
H1273 H 0.46538 0.78926 0.79559 0.0
H1274 H 0.494 0.7738 0.71411 0.0
H1275 H 0.46195 0.76215 0.69521 0.0
C1276 C 0.53904 0.78379 0.76399 0.0
C1277 C 0.54171 0.77303 0.79 0.0
C1278 C 0.51971 0.78897 0.75455 0.0
C1279 C 0.50268 0.78313 0.7707 0.0
C1280 C 0.50562 0.7746 0.79842 0.0
C1281 C 0.52499 0.76972 0.80806 0.0
C1282 C 0.4464 0.77665 0.76268 0.0
C1283 C 0.44529 0.76799 0.73483 0.0
C1284 C 0.46477 0.78375 0.77346 0.0
C1285 C 0.48245 0.78202 0.75675 0.0
C1286 C 0.48078 0.77546 0.72771 0.0
C1287 C 0.46234 0.76864 0.71681 0.0
H1288 H 0.23465 0.4628 0.68505 0.0
H1289 H 0.21349 0.43397 0.7634 0.0
H1290 H 0.22539 0.49551 0.70477 0.0
H1291 H 0.20335 0.46667 0.78283 0.0
H1292 H 0.21449 0.55366 0.74321 0.0
H1293 H 0.20432 0.5211 0.72336 0.0
H1294 H 0.22431 0.49199 0.80231 0.0
H1295 H 0.23361 0.52456 0.82241 0.0
C1296 C 0.22719 0.46338 0.70598 0.0
C1297 C 0.22525 0.44593 0.72297 0.0
C1298 C 0.22178 0.48219 0.71737 0.0
C1299 C 0.21406 0.48384 0.74582 0.0
C1300 C 0.20981 0.46603 0.76124 0.0
C1301 C 0.21551 0.44728 0.75003 0.0
C1302 C 0.21604 0.54033 0.75666 0.0
C1303 C 0.22525 0.54156 0.7841 0.0
C1304 C 0.21033 0.52165 0.74521 0.0
C1305 C 0.21402 0.50379 0.7608 0.0
C1306 C 0.22115 0.50535 0.78957 0.0
C1307 C 0.22658 0.52408 0.80118 0.0
H1308 H 0.46111 0.22783 0.82085 0.0
H1309 H 0.4323 0.20793 0.74178 0.0
H1310 H 0.49359 0.21727 0.80182 0.0
H1311 H 0.46475 0.19652 0.72301 0.0
H1312 H 0.55152 0.20556 0.76451 0.0
H1313 H 0.51865 0.19539 0.78318 0.0
H1314 H 0.49068 0.21729 0.70443 0.0
H1315 H 0.52354 0.22665 0.68552 0.0
C1316 C 0.46161 0.22036 0.79992 0.0
C1317 C 0.44431 0.21918 0.78249 0.0
C1318 C 0.48028 0.21419 0.78894 0.0
C1319 C 0.48191 0.2065 0.76046 0.0
C1320 C 0.46413 0.20294 0.74464 0.0
C1321 C 0.44553 0.20937 0.75546 0.0
C1322 C 0.53838 0.20749 0.7508 0.0
C1323 C 0.53998 0.21733 0.72386 0.0
C1324 C 0.51953 0.20177 0.76157 0.0
C1325 C 0.50192 0.20607 0.74577 0.0
C1326 C 0.50386 0.21368 0.71731 0.0
C1327 C 0.52275 0.21914 0.70639 0.0
H1328 H 0.20926 0.55421 0.26944 0.0
H1329 H 0.22916 0.52817 0.18832 0.0
H1330 H 0.19873 0.52096 0.28626 0.0
H1331 H 0.21945 0.49492 0.2054 0.0
H1332 H 0.22909 0.46122 0.31967 0.0
H1333 H 0.21989 0.49465 0.30282 0.0
H1334 H 0.19785 0.46908 0.22241 0.0
H1335 H 0.20785 0.43561 0.23899 0.0
C1336 C 0.21094 0.54142 0.25493 0.0
C1337 C 0.22047 0.54366 0.22784 0.0
C1338 C 0.20499 0.52236 0.26463 0.0
C1339 C 0.20874 0.50515 0.24759 0.0
C1340 C 0.21623 0.50778 0.21919 0.0
C1341 C 0.22192 0.52689 0.20934 0.0
C1342 C 0.22165 0.46264 0.29882 0.0
C1343 C 0.21969 0.44591 0.28034 0.0
C1344 C 0.21626 0.48187 0.2891 0.0
C1345 C 0.20857 0.48466 0.26085 0.0
C1346 C 0.20428 0.46754 0.24391 0.0
C1347 C 0.20992 0.44835 0.25348 0.0
H1348 H 0.53625 0.21986 0.31768 0.0
H1349 H 0.54945 0.23829 0.2297 0.0
H1350 H 0.50346 0.20728 0.30179 0.0
H1351 H 0.51665 0.22732 0.21435 0.0
H1352 H 0.45576 0.2162 0.18798 0.0
H1353 H 0.48978 0.20732 0.20357 0.0
H1354 H 0.4741 0.22361 0.29181 0.0
H1355 H 0.44022 0.23083 0.2767 0.0
C1356 C 0.53228 0.22102 0.29493 0.0
C1357 C 0.54524 0.23065 0.27519 0.0
C1358 C 0.5134 0.21394 0.28578 0.0
C1359 C 0.50692 0.21683 0.25689 0.0
C1360 C 0.52082 0.22466 0.23674 0.0
C1361 C 0.53975 0.23128 0.24571 0.0
C1362 C 0.45949 0.21726 0.21083 0.0
C1363 C 0.44545 0.22488 0.23088 0.0
C1364 C 0.47907 0.21234 0.21981 0.0
C1365 C 0.48512 0.21545 0.24886 0.0
C1366 C 0.47032 0.22096 0.26928 0.0
C1367 C 0.45073 0.22541 0.26045 0.0
H1368 H 0.7634 0.52922 0.32175 0.0
H1369 H 0.78161 0.55736 0.24137 0.0
H1370 H 0.77389 0.49666 0.30314 0.0
H1371 H 0.79313 0.52481 0.22303 0.0
H1372 H 0.78373 0.43827 0.26665 0.0
H1373 H 0.79466 0.47117 0.28444 0.0
H1374 H 0.77277 0.49869 0.20532 0.0
H1375 H 0.76283 0.46583 0.18723 0.0
C1376 C 0.7705 0.52857 0.30057 0.0
C1377 C 0.77115 0.54569 0.28269 0.0
C1378 C 0.77666 0.50983 0.28982 0.0
C1379 C 0.78386 0.50793 0.26113 0.0
C1380 C 0.78703 0.5256 0.24483 0.0
C1381 C 0.78055 0.54428 0.2554 0.0
C1382 C 0.78195 0.45131 0.25269 0.0
C1383 C 0.77196 0.4496 0.22588 0.0
C1384 C 0.78811 0.47019 0.26295 0.0
C1385 C 0.78401 0.48774 0.24683 0.0
C1386 C 0.77624 0.48561 0.21849 0.0
C1387 C 0.7704 0.46669 0.20805 0.0
H1388 H 0.46295 0.75434 0.3285 0.0
H1389 H 0.43477 0.77528 0.24957 0.0
H1390 H 0.49578 0.76352 0.30931 0.0
H1391 H 0.4676 0.7854 0.23069 0.0
H1392 H 0.52559 0.75514 0.19195 0.0
H1393 H 0.49295 0.76441 0.21167 0.0
H1394 H 0.52157 0.78434 0.29109 0.0
H1395 H 0.55423 0.77415 0.27162 0.0
C1396 C 0.4637 0.76173 0.30754 0.0
C1397 C 0.4464 0.76362 0.29023 0.0
C1398 C 0.48258 0.76711 0.29647 0.0
C1399 C 0.48446 0.77475 0.26802 0.0
C1400 C 0.46679 0.77898 0.25228 0.0
C1401 C 0.44796 0.7733 0.26317 0.0
C1402 C 0.52499 0.76211 0.21324 0.0
C1403 C 0.54236 0.76344 0.23052 0.0
C1404 C 0.50621 0.76754 0.22461 0.0
C1405 C 0.5045 0.77468 0.25336 0.0
C1406 C 0.52225 0.77832 0.26923 0.0
C1407 C 0.54098 0.77259 0.25801 0.0
H1408 H 0.18913 0.10201 0.25124 0.0
H1409 H 0.18137 0.14104 0.17694 0.0
H1410 H 0.16742 0.12392 0.27993 0.0
H1411 H 0.15977 0.16319 0.20585 0.0
H1412 H 0.145 0.17913 0.33066 0.0
H1413 H 0.16705 0.15733 0.30184 0.0
H1414 H 0.12674 0.1633 0.2286 0.0
H1415 H 0.10496 0.18518 0.25714 0.0
C1416 C 0.18292 0.11538 0.24109 0.0
C1417 C 0.18707 0.11988 0.21187 0.0
C1418 C 0.17052 0.12797 0.25759 0.0
C1419 C 0.16196 0.14536 0.24526 0.0
C1420 C 0.16598 0.14979 0.21593 0.0
C1421 C 0.17839 0.13715 0.19937 0.0
C1422 C 0.14087 0.17574 0.30843 0.0
C1423 C 0.12335 0.18401 0.2961 0.0
C1424 C 0.15345 0.16322 0.29194 0.0
C1425 C 0.1487 0.15868 0.26286 0.0
C1426 C 0.13105 0.16681 0.25073 0.0
C1427 C 0.11853 0.17932 0.26715 0.0
H1428 H 0.84345 0.18873 0.17723 0.0
H1429 H 0.88168 0.19372 0.25289 0.0
H1430 H 0.82015 0.16743 0.20467 0.0
H1431 H 0.85862 0.17235 0.28009 0.0
H1432 H 0.80281 0.15 0.32847 0.0
H1433 H 0.82486 0.17251 0.30096 0.0
H1434 H 0.81911 0.13374 0.22587 0.0
H1435 H 0.79697 0.11146 0.25316 0.0
C1436 C 0.84689 0.18526 0.19967 0.0
C1437 C 0.86432 0.19302 0.21295 0.0
C1438 C 0.83359 0.17302 0.21536 0.0
C1439 C 0.83751 0.16827 0.2446 0.0
C1440 C 0.85497 0.17603 0.25779 0.0
C1441 C 0.86823 0.18824 0.24214 0.0
C1442 C 0.80625 0.14632 0.30609 0.0
C1443 C 0.79804 0.12903 0.29294 0.0
C1444 C 0.81892 0.15917 0.29035 0.0
C1445 C 0.82368 0.15494 0.26119 0.0
C1446 C 0.81546 0.13763 0.24812 0.0
C1447 C 0.8028 0.12482 0.26382 0.0
H1448 H 0.84051 0.80574 0.33439 0.0
H1449 H 0.88041 0.80535 0.26013 0.0
H1450 H 0.81665 0.82679 0.3074 0.0
H1451 H 0.85678 0.82633 0.23343 0.0
H1452 H 0.7914 0.88271 0.25924 0.0
H1453 H 0.81384 0.86106 0.28717 0.0
H1454 H 0.82335 0.82369 0.21143 0.0
H1455 H 0.801 0.84549 0.18334 0.0
C1456 C 0.84422 0.81021 0.3124 0.0
C1457 C 0.86222 0.8037 0.29927 0.0
C1458 C 0.83059 0.82227 0.29697 0.0
C1459 C 0.83475 0.82802 0.26817 0.0
C1460 C 0.85292 0.82177 0.25533 0.0
C1461 C 0.8665 0.80979 0.2707 0.0
C1462 C 0.79809 0.86976 0.24859 0.0
C1463 C 0.79437 0.86577 0.21908 0.0
C1464 C 0.81092 0.85733 0.26465 0.0
C1465 C 0.82038 0.84068 0.25151 0.0
C1466 C 0.81648 0.83657 0.22207 0.0
C1467 C 0.80363 0.849 0.206 0.0
H1468 H 0.19769 0.88465 0.25144 0.0
H1469 H 0.18801 0.84798 0.32775 0.0
H1470 H 0.17515 0.86294 0.22378 0.0
H1471 H 0.16558 0.82605 0.2999 0.0
H1472 H 0.10875 0.80703 0.25144 0.0
H1473 H 0.13234 0.82817 0.27795 0.0
H1474 H 0.17211 0.82889 0.20357 0.0
H1475 H 0.14821 0.80773 0.17673 0.0
C1476 C 0.19095 0.8718 0.26224 0.0
C1477 C 0.1947 0.86799 0.29178 0.0
C1478 C 0.17806 0.85933 0.24632 0.0
C1479 C 0.16858 0.84277 0.25961 0.0
C1480 C 0.17246 0.83885 0.28912 0.0
C1481 C 0.18536 0.85136 0.30506 0.0
C1482 C 0.12257 0.81157 0.24073 0.0
C1483 C 0.12673 0.80553 0.21208 0.0
C1484 C 0.13614 0.82364 0.25601 0.0
C1485 C 0.15421 0.83001 0.24302 0.0
C1486 C 0.15825 0.82429 0.21413 0.0
C1487 C 0.1446 0.81217 0.19877 0.0
H1488 H 0.86023 0.77802 0.74872 0.0
H1489 H 0.87023 0.82388 0.68389 0.0
H1490 H 0.83827 0.80082 0.77552 0.0
H1491 H 0.84919 0.84731 0.71135 0.0
H1492 H 0.79661 0.8793 0.75228 0.0
H1493 H 0.81689 0.85567 0.72502 0.0
H1494 H 0.83784 0.82908 0.80533 0.0
H1495 H 0.816 0.85182 0.83257 0.0
C1496 C 0.85791 0.79313 0.74046 0.0
C1497 C 0.867 0.79931 0.71445 0.0
C1498 C 0.8454 0.80629 0.75588 0.0
C1499 C 0.84202 0.82609 0.7459 0.0
C1500 C 0.85107 0.83212 0.71958 0.0
C1501 C 0.86322 0.81876 0.70384 0.0
C1502 C 0.80518 0.8682 0.7642 0.0
C1503 C 0.80427 0.86721 0.79464 0.0
C1504 C 0.81719 0.85478 0.74848 0.0
C1505 C 0.8291 0.84032 0.7628 0.0
C1506 C 0.82855 0.83965 0.79339 0.0
C1507 C 0.81616 0.85283 0.8091 0.0
H1508 H 0.19066 0.88162 0.75271 0.0
H1509 H 0.18777 0.84122 0.67907 0.0
H1510 H 0.16928 0.85891 0.78043 0.0
H1511 H 0.16632 0.8183 0.70706 0.0
H1512 H 0.11038 0.79521 0.75678 0.0
H1513 H 0.13224 0.81707 0.72826 0.0
H1514 H 0.17091 0.82542 0.80281 0.0
H1515 H 0.14892 0.80358 0.83152 0.0
C1516 C 0.18559 0.86779 0.74249 0.0
C1517 C 0.19109 0.8631 0.71378 0.0
C1518 C 0.17337 0.85474 0.75845 0.0
C1519 C 0.16628 0.83672 0.74605 0.0
C1520 C 0.17148 0.83215 0.71715 0.0
C1521 C 0.18378 0.84523 0.70114 0.0
C1522 C 0.12365 0.80153 0.76706 0.0
C1523 C 0.128 0.79756 0.79639 0.0
C1524 C 0.13619 0.81403 0.75065 0.0
C1525 C 0.15331 0.82293 0.76325 0.0
C1526 C 0.15769 0.81894 0.79258 0.0
C1527 C 0.14515 0.80639 0.809 0.0
H1528 H 0.10449 0.19514 0.75353 0.0
H1529 H 0.14181 0.18841 0.67714 0.0
H1530 H 0.12648 0.17229 0.78006 0.0
H1531 H 0.16406 0.16569 0.70392 0.0
H1532 H 0.1849 0.10847 0.75061 0.0
H1533 H 0.16336 0.13194 0.72442 0.0
H1534 H 0.16022 0.17014 0.80044 0.0
H1535 H 0.18163 0.14641 0.82687 0.0
C1536 C 0.11753 0.18896 0.74248 0.0
C1537 C 0.12148 0.19366 0.71326 0.0
C1538 C 0.13017 0.1759 0.75775 0.0
C1539 C 0.14705 0.16722 0.74415 0.0
C1540 C 0.15103 0.17196 0.71492 0.0
C1541 C 0.13834 0.18502 0.69961 0.0
C1542 C 0.17972 0.12193 0.76172 0.0
C1543 C 0.18508 0.12568 0.79075 0.0
C1544 C 0.16743 0.13542 0.74665 0.0
C1545 C 0.1602 0.15298 0.76026 0.0
C1546 C 0.16541 0.15665 0.78942 0.0
C1547 C 0.1777 0.1431 0.80454 0.0
H1548 H 0.88002 0.19314 0.75282 0.0
H1549 H 0.8411 0.18524 0.82727 0.0
H1550 H 0.85841 0.17098 0.72438 0.0
H1551 H 0.81929 0.16316 0.79862 0.0
H1552 H 0.79957 0.10669 0.74904 0.0
H1553 H 0.82062 0.12969 0.77684 0.0
H1554 H 0.82484 0.1693 0.70257 0.0
H1555 H 0.80381 0.14605 0.6745 0.0
C1556 C 0.86672 0.18686 0.76304 0.0
C1557 C 0.86221 0.19103 0.79227 0.0
C1558 C 0.8543 0.17419 0.74668 0.0
C1559 C 0.83712 0.16535 0.7592 0.0
C1560 C 0.83257 0.16957 0.78844 0.0
C1561 C 0.84501 0.18226 0.80483 0.0
C1562 C 0.80485 0.12036 0.73864 0.0
C1563 C 0.79988 0.12464 0.70963 0.0
C1564 C 0.81688 0.13358 0.75465 0.0
C1565 C 0.82426 0.1514 0.74202 0.0
C1566 C 0.81949 0.1556 0.71286 0.0
C1567 C 0.80742 0.14233 0.6968 0.0
H1568 H 0.66323 0.62708 0.67995 0.0
H1569 H 0.71128 0.63946 0.74046 0.0
H1570 H 0.64091 0.64968 0.70714 0.0
H1571 H 0.68959 0.66263 0.76694 0.0
H1572 H 0.64032 0.68311 0.82793 0.0
H1573 H 0.66218 0.6616 0.79892 0.0
H1574 H 0.63313 0.68298 0.72069 0.0
H1575 H 0.61047 0.70342 0.74987 0.0
C1576 C 0.66906 0.63495 0.69879 0.0
C1577 C 0.68876 0.63133 0.70852 0.0
C1578 C 0.65636 0.64793 0.71437 0.0
C1579 C 0.66332 0.65778 0.73961 0.0
C1580 C 0.68346 0.65483 0.74825 0.0
C1581 C 0.69596 0.64161 0.73302 0.0
C1582 C 0.63859 0.6832 0.80454 0.0
C1583 C 0.62381 0.69521 0.79124 0.0
C1584 C 0.65126 0.67099 0.78782 0.0
C1585 C 0.64963 0.67068 0.75733 0.0
C1586 C 0.63475 0.68266 0.74408 0.0
C1587 C 0.62189 0.69464 0.76085 0.0
H1588 H 0.30364 0.60273 0.75922 0.0
H1589 H 0.30904 0.64178 0.83405 0.0
H1590 H 0.32572 0.62497 0.73174 0.0
H1591 H 0.33102 0.66425 0.80634 0.0
H1592 H 0.38684 0.6869 0.75814 0.0
H1593 H 0.36466 0.66463 0.78534 0.0
H1594 H 0.32619 0.6585 0.7101 0.0
H1595 H 0.34863 0.68071 0.68264 0.0
C1596 C 0.3094 0.61617 0.76974 0.0
C1597 C 0.30449 0.62058 0.79877 0.0
C1598 C 0.32201 0.62895 0.75393 0.0
C1599 C 0.33004 0.64643 0.76679 0.0
C1600 C 0.32523 0.65078 0.7959 0.0
C1601 C 0.31261 0.63796 0.81176 0.0
C1602 C 0.37359 0.68091 0.7474 0.0
C1603 C 0.36938 0.6857 0.7183 0.0
C1604 C 0.36084 0.66818 0.76306 0.0
C1605 C 0.34358 0.65991 0.74997 0.0
C1606 C 0.33948 0.6645 0.72073 0.0
C1607 C 0.35228 0.67725 0.70502 0.0
H1608 H 0.38391 0.29802 0.75449 0.0
H1609 H 0.34433 0.30477 0.82847 0.0
H1610 H 0.36225 0.32014 0.72617 0.0
H1611 H 0.32247 0.32686 0.79993 0.0
H1612 H 0.30177 0.38296 0.74998 0.0
H1613 H 0.32307 0.36044 0.77819 0.0
H1614 H 0.32878 0.32084 0.704 0.0
H1615 H 0.30751 0.34357 0.67556 0.0
C1616 C 0.37047 0.30407 0.76465 0.0
C1617 C 0.36574 0.29951 0.79367 0.0
C1618 C 0.35803 0.31672 0.74835 0.0
C1619 C 0.34059 0.32516 0.76073 0.0
C1620 C 0.33592 0.32072 0.78985 0.0
C1621 C 0.34839 0.30804 0.80618 0.0
C1622 C 0.30743 0.36938 0.7397 0.0
C1623 C 0.30281 0.36495 0.71059 0.0
C1624 C 0.31961 0.35644 0.75593 0.0
C1625 C 0.32752 0.33879 0.74341 0.0
C1626 C 0.32305 0.33443 0.71419 0.0
C1627 C 0.31083 0.3474 0.69792 0.0
H1628 H 0.63411 0.31015 0.67693 0.0
H1629 H 0.60593 0.29072 0.75675 0.0
H1630 H 0.65566 0.33299 0.70435 0.0
H1631 H 0.62841 0.3122 0.7843 0.0
H1632 H 0.65857 0.36699 0.82478 0.0
H1633 H 0.63584 0.34514 0.79727 0.0
H1634 H 0.68349 0.33381 0.735 0.0
H1635 H 0.70556 0.35642 0.7618 0.0
C1636 C 0.63269 0.31054 0.70036 0.0
C1637 C 0.6185 0.29833 0.71464 0.0
C1638 C 0.64519 0.32352 0.71617 0.0
C1639 C 0.644 0.32437 0.74669 0.0
C1640 C 0.62967 0.31222 0.76086 0.0
C1641 C 0.61693 0.29956 0.74501 0.0
C1642 C 0.66406 0.35974 0.8052 0.0
C1643 C 0.68362 0.36358 0.79508 0.0
C1644 C 0.65112 0.34715 0.78945 0.0
C1645 C 0.65771 0.33775 0.76365 0.0
C1646 C 0.67761 0.34121 0.7542 0.0
C1647 C 0.69034 0.35412 0.76961 0.0
H1648 H 0.35382 0.27566 0.23946 0.0
H1649 H 0.36495 0.32249 0.1765 0.0
H1650 H 0.33108 0.29788 0.26585 0.0
H1651 H 0.34289 0.34534 0.20355 0.0
H1652 H 0.28943 0.37634 0.24501 0.0
H1653 H 0.30995 0.35318 0.21699 0.0
H1654 H 0.33136 0.32591 0.29655 0.0
H1655 H 0.30958 0.34824 0.32449 0.0
C1656 C 0.35153 0.29085 0.23151 0.0
C1657 C 0.36127 0.29752 0.20625 0.0
C1658 C 0.33856 0.30366 0.24668 0.0
C1659 C 0.33532 0.32359 0.2372 0.0
C1660 C 0.34479 0.33006 0.2114 0.0
C1661 C 0.35748 0.31704 0.19591 0.0
C1662 C 0.2982 0.3652 0.25657 0.0
C1663 C 0.29752 0.36391 0.28701 0.0
C1664 C 0.31027 0.35206 0.24044 0.0
C1665 C 0.32233 0.33754 0.25438 0.0
C1666 C 0.32193 0.33654 0.28493 0.0
C1667 C 0.30957 0.34948 0.30103 0.0
H1668 H 0.64609 0.31076 0.33397 0.0
H1669 H 0.6057 0.31006 0.26034 0.0
H1670 H 0.66931 0.33253 0.30692 0.0
H1671 H 0.62862 0.33178 0.23363 0.0
H1672 H 0.69424 0.38838 0.2584 0.0
H1673 H 0.67187 0.3668 0.28665 0.0
H1674 H 0.6617 0.32955 0.21097 0.0
H1675 H 0.68394 0.35127 0.1826 0.0
C1676 C 0.64212 0.31535 0.31214 0.0
C1677 C 0.62421 0.30849 0.29915 0.0
C1678 C 0.65537 0.32783 0.29667 0.0
C1679 C 0.6509 0.33367 0.26799 0.0
C1680 C 0.63274 0.32716 0.2554 0.0
C1681 C 0.61957 0.31475 0.27078 0.0
C1682 C 0.68737 0.3755 0.24783 0.0
C1683 C 0.69091 0.37148 0.21827 0.0
C1684 C 0.67458 0.3631 0.26407 0.0
C1685 C 0.66501 0.34648 0.25107 0.0
C1686 C 0.66865 0.34241 0.22153 0.0
C1687 C 0.68144 0.35481 0.20529 0.0
H1688 H 0.68449 0.644 0.3304 0.0
H1689 H 0.69066 0.60462 0.25603 0.0
H1690 H 0.6621 0.66588 0.30246 0.0
H1691 H 0.66818 0.62632 0.22829 0.0
H1692 H 0.644 0.68145 0.17876 0.0
H1693 H 0.66702 0.65989 0.20634 0.0
H1694 H 0.62838 0.66523 0.28156 0.0
H1695 H 0.60562 0.6868 0.25426 0.0
C1696 C 0.68101 0.63998 0.30815 0.0
C1697 C 0.68945 0.62267 0.29537 0.0
C1698 C 0.66815 0.65247 0.29216 0.0
C1699 C 0.66343 0.64787 0.26311 0.0
C1700 C 0.6718 0.63048 0.25044 0.0
C1701 C 0.68464 0.61801 0.2664 0.0
C1702 C 0.64045 0.67798 0.20116 0.0
C1703 C 0.62312 0.68599 0.21441 0.0
C1704 C 0.65358 0.6656 0.21694 0.0
C1705 C 0.64958 0.66097 0.24621 0.0
C1706 C 0.63211 0.66883 0.25926 0.0
C1707 C 0.61904 0.68117 0.24354 0.0
H1708 H 0.29587 0.60732 0.25876 0.0
H1709 H 0.30435 0.64597 0.18417 0.0
H1710 H 0.31807 0.62883 0.28721 0.0
H1711 H 0.32651 0.6677 0.21288 0.0
H1712 H 0.38291 0.68704 0.26339 0.0
H1713 H 0.35985 0.66631 0.23512 0.0
H1714 H 0.31971 0.66239 0.30888 0.0
H1715 H 0.34298 0.68306 0.33739 0.0
C1716 C 0.30228 0.62055 0.2485 0.0
C1717 C 0.29824 0.62502 0.21924 0.0
C1718 C 0.31498 0.63291 0.26488 0.0
C1719 C 0.32399 0.65001 0.25236 0.0
C1720 C 0.31995 0.65451 0.22307 0.0
C1721 C 0.30722 0.64211 0.20665 0.0
C1722 C 0.3691 0.68189 0.27356 0.0
C1723 C 0.36469 0.68681 0.30257 0.0
C1724 C 0.35585 0.67006 0.25729 0.0
C1725 C 0.33789 0.66282 0.26967 0.0
C1726 C 0.33353 0.6676 0.29879 0.0
C1727 C 0.34682 0.67947 0.31511 0.0
loop_
_geom_bond_atom_site_label_1
_geom_bond_atom_site_label_2
_geom_bond_distance
_geom_bond_site_symmetry_2
_ccdc_geom_bond_type
Mg0 O1 2.028 . S
Mg0 O7 1.986 . S
Mg0 O9 2.114 . S
Mg0 O10 2.251 . S
Mg0 O13 2.010 . S
O1 Mg0 2.028 . S
O1 C4 1.250 . S
O2 Mg3 2.028 . S
O2 C4 1.248 . S
Mg3 O2 2.028 . S
Mg3 O8 2.032 . S
Mg3 O10 2.079 . S
C4 O1 1.250 . S
C4 O2 1.248 . S
C5 O6 1.264 . S
C5 O13 1.249 . S
O6 C5 1.264 . S
O7 Mg0 1.986 . S
O7 C11 1.246 . S
O8 Mg3 2.032 . S
O8 C11 1.259 . S
O9 Mg0 2.114 . S
O9 C12 1.252 . S
O10 Mg0 2.251 . S
O10 Mg3 2.079 . S
O10 C12 1.273 . S
C11 O7 1.246 . S
C11 O8 1.259 . S
C12 O9 1.252 . S
C12 O10 1.273 . S
O13 Mg0 2.010 . S
O13 C5 1.249 . S
Mg14 O15 2.028 . S
Mg14 O21 1.986 . S
Mg14 O23 2.114 . S
Mg14 O24 2.251 . S
Mg14 O27 2.010 . S
O15 Mg14 2.028 . S
O15 C18 1.250 . S
O16 Mg17 2.028 . S
O16 C18 1.248 . S
Mg17 O16 2.028 . S
Mg17 O22 2.032 . S
Mg17 O24 2.079 . S
C18 O15 1.250 . S
C18 O16 1.248 . S
C19 O20 1.264 . S
C19 O27 1.249 . S
O20 C19 1.264 . S
O21 Mg14 1.986 . S
O21 C25 1.246 . S
O22 Mg17 2.032 . S
O22 C25 1.259 . S
O23 Mg14 2.114 . S
O23 C26 1.252 . S
O24 Mg14 2.251 . S
O24 Mg17 2.079 . S
O24 C26 1.273 . S
C25 O21 1.246 . S
C25 O22 1.259 . S
C26 O23 1.252 . S
C26 O24 1.273 . S
O27 Mg14 2.010 . S
O27 C19 1.249 . S
Mg28 O29 2.028 . S
Mg28 O35 1.986 . S
Mg28 O37 2.114 . S
Mg28 O38 2.251 . S
Mg28 O41 2.010 . S
O29 Mg28 2.028 . S
O29 C32 1.250 . S
O30 Mg31 2.028 . S
O30 C32 1.248 . S
Mg31 O30 2.028 . S
Mg31 O36 2.032 . S
Mg31 O38 2.079 . S
C32 O29 1.250 . S
C32 O30 1.248 . S
C33 O34 1.264 . S
C33 O41 1.249 . S
O34 C33 1.264 . S
O35 Mg28 1.986 . S
O35 C39 1.246 . S
O36 Mg31 2.032 . S
O36 C39 1.259 . S
O37 Mg28 2.114 . S
O37 C40 1.252 . S
O38 Mg28 2.251 . S
O38 Mg31 2.079 . S
O38 C40 1.273 . S
C39 O35 1.246 . S
C39 O36 1.259 . S
C40 O37 1.252 . S
C40 O38 1.273 . S
O41 Mg28 2.010 . S
O41 C33 1.249 . S
Mg42 O43 2.028 . S
Mg42 O49 1.986 . S
Mg42 O51 2.114 . S
Mg42 O52 2.251 . S
Mg42 O55 2.010 . S
O43 Mg42 2.028 . S
O43 C46 1.250 . S
O44 Mg45 2.028 . S
O44 C46 1.248 . S
Mg45 O44 2.028 . S
Mg45 O50 2.032 . S
Mg45 O52 2.079 . S
C46 O43 1.250 . S
C46 O44 1.248 . S
C47 O48 1.264 . S
C47 O55 1.249 . S
O48 C47 1.264 . S
O49 Mg42 1.986 . S
O49 C53 1.246 . S
O50 Mg45 2.032 . S
O50 C53 1.259 . S
O51 Mg42 2.114 . S
O51 C54 1.252 . S
O52 Mg42 2.251 . S
O52 Mg45 2.079 . S
O52 C54 1.273 . S
C53 O49 1.246 . S
C53 O50 1.259 . S
C54 O51 1.252 . S
C54 O52 1.273 . S
O55 Mg42 2.010 . S
O55 C47 1.249 . S
Mg56 O57 2.028 . S
Mg56 O63 1.986 . S
Mg56 O65 2.114 . S
Mg56 O66 2.251 . S
Mg56 O69 2.010 . S
O57 Mg56 2.028 . S
O57 C60 1.250 . S
O58 Mg59 2.028 . S
O58 C60 1.248 . S
Mg59 O58 2.028 . S
Mg59 O64 2.032 . S
Mg59 O66 2.079 . S
C60 O57 1.250 . S
C60 O58 1.248 . S
C61 O62 1.264 . S
C61 O69 1.249 . S
O62 C61 1.264 . S
O63 Mg56 1.986 . S
O63 C67 1.246 . S
O64 Mg59 2.032 . S
O64 C67 1.259 . S
O65 Mg56 2.114 . S
O65 C68 1.252 . S
O66 Mg56 2.251 . S
O66 Mg59 2.079 . S
O66 C68 1.273 . S
C67 O63 1.246 . S
C67 O64 1.259 . S
C68 O65 1.252 . S
C68 O66 1.273 . S
O69 Mg56 2.010 . S
O69 C61 1.249 . S
Mg70 O71 2.028 . S
Mg70 O77 1.986 . S
Mg70 O79 2.114 . S
Mg70 O80 2.251 . S
Mg70 O83 2.010 . S
O71 Mg70 2.028 . S
O71 C74 1.250 . S
O72 Mg73 2.028 . S
O72 C74 1.248 . S
Mg73 O72 2.028 . S
Mg73 O78 2.032 . S
Mg73 O80 2.079 . S
C74 O71 1.250 . S
C74 O72 1.248 . S
C75 O76 1.264 . S
C75 O83 1.249 . S
O76 C75 1.264 . S
O77 Mg70 1.986 . S
O77 C81 1.246 . S
O78 Mg73 2.032 . S
O78 C81 1.259 . S
O79 Mg70 2.114 . S
O79 C82 1.252 . S
O80 Mg70 2.251 . S
O80 Mg73 2.079 . S
O80 C82 1.273 . S
C81 O77 1.246 . S
C81 O78 1.259 . S
C82 O79 1.252 . S
C82 O80 1.273 . S
O83 Mg70 2.010 . S
O83 C75 1.249 . S
Mg84 O85 2.028 . S
Mg84 O91 1.986 . S
Mg84 O93 2.114 . S
Mg84 O94 2.251 . S
Mg84 O97 2.010 . S
O85 Mg84 2.028 . S
O85 C88 1.250 . S
O86 Mg87 2.028 . S
O86 C88 1.248 . S
Mg87 O86 2.028 . S
Mg87 O92 2.032 . S
Mg87 O94 2.079 . S
C88 O85 1.250 . S
C88 O86 1.248 . S
C89 O90 1.264 . S
C89 O97 1.249 . S
O90 C89 1.264 . S
O91 Mg84 1.986 . S
O91 C95 1.246 . S
O92 Mg87 2.032 . S
O92 C95 1.259 . S
O93 Mg84 2.114 . S
O93 C96 1.252 . S
O94 Mg84 2.251 . S
O94 Mg87 2.079 . S
O94 C96 1.273 . S
C95 O91 1.246 . S
C95 O92 1.259 . S
C96 O93 1.252 . S
C96 O94 1.273 . S
O97 Mg84 2.010 . S
O97 C89 1.249 . S
Mg98 O99 2.028 . S
Mg98 O105 1.986 . S
Mg98 O107 2.114 . S
Mg98 O108 2.251 . S
Mg98 O111 2.010 . S
O99 Mg98 2.028 . S
O99 C102 1.250 . S
O100 Mg101 2.028 . S
O100 C102 1.248 . S
Mg101 O100 2.028 . S
Mg101 O106 2.032 . S
Mg101 O108 2.079 . S
C102 O99 1.250 . S
C102 O100 1.248 . S
C103 O104 1.264 . S
C103 O111 1.249 . S
O104 C103 1.264 . S
O105 Mg98 1.986 . S
O105 C109 1.246 . S
O106 Mg101 2.032 . S
O106 C109 1.259 . S
O107 Mg98 2.114 . S
O107 C110 1.252 . S
O108 Mg98 2.251 . S
O108 Mg101 2.079 . S
O108 C110 1.273 . S
C109 O105 1.246 . S
C109 O106 1.259 . S
C110 O107 1.252 . S
C110 O108 1.273 . S
O111 Mg98 2.010 . S
O111 C103 1.249 . S
Mg112 O113 2.028 . S
Mg112 O119 1.986 . S
Mg112 O121 2.114 . S
Mg112 O122 2.251 . S
Mg112 O125 2.010 . S
O113 Mg112 2.028 . S
O113 C116 1.250 . S
O114 Mg115 2.028 . S
O114 C116 1.248 . S
Mg115 O114 2.028 . S
Mg115 O120 2.032 . S
Mg115 O122 2.079 . S
C116 O113 1.250 . S
C116 O114 1.248 . S
C117 O118 1.264 . S
C117 O125 1.249 . S
O118 C117 1.264 . S
O119 Mg112 1.986 . S
O119 C123 1.246 . S
O120 Mg115 2.032 . S
O120 C123 1.259 . S
O121 Mg112 2.114 . S
O121 C124 1.252 . S
O122 Mg112 2.251 . S
O122 Mg115 2.079 . S
O122 C124 1.273 . S
C123 O119 1.246 . S
C123 O120 1.259 . S
C124 O121 1.252 . S
C124 O122 1.273 . S
O125 Mg112 2.010 . S
O125 C117 1.249 . S
Mg126 O127 2.028 . S
Mg126 O133 1.986 . S
Mg126 O135 2.114 . S
Mg126 O136 2.251 . S
Mg126 O139 2.010 . S
O127 Mg126 2.028 . S
O127 C130 1.250 . S
O128 Mg129 2.028 . S
O128 C130 1.248 . S
Mg129 O128 2.028 . S
Mg129 O134 2.032 . S
Mg129 O136 2.079 . S
C130 O127 1.250 . S
C130 O128 1.248 . S
C131 O132 1.264 . S
C131 O139 1.249 . S
O132 C131 1.264 . S
O133 Mg126 1.986 . S
O133 C137 1.246 . S
O134 Mg129 2.032 . S
O134 C137 1.259 . S
O135 Mg126 2.114 . S
O135 C138 1.252 . S
O136 Mg126 2.251 . S
O136 Mg129 2.079 . S
O136 C138 1.273 . S
C137 O133 1.246 . S
C137 O134 1.259 . S
C138 O135 1.252 . S
C138 O136 1.273 . S
O139 Mg126 2.010 . S
O139 C131 1.249 . S
Mg140 O141 2.028 . S
Mg140 O147 1.986 . S
Mg140 O149 2.114 . S
Mg140 O150 2.251 . S
Mg140 O153 2.010 . S
O141 Mg140 2.028 . S
O141 C144 1.250 . S
O142 Mg143 2.028 . S
O142 C144 1.248 . S
Mg143 O142 2.028 . S
Mg143 O148 2.032 . S
Mg143 O150 2.079 . S
C144 O141 1.250 . S
C144 O142 1.248 . S
C145 O146 1.264 . S
C145 O153 1.249 . S
O146 C145 1.264 . S
O147 Mg140 1.986 . S
O147 C151 1.246 . S
O148 Mg143 2.032 . S
O148 C151 1.259 . S
O149 Mg140 2.114 . S
O149 C152 1.252 . S
O150 Mg140 2.251 . S
O150 Mg143 2.079 . S
O150 C152 1.273 . S
C151 O147 1.246 . S
C151 O148 1.259 . S
C152 O149 1.252 . S
C152 O150 1.273 . S
O153 Mg140 2.010 . S
O153 C145 1.249 . S
Mg154 O155 2.028 . S
Mg154 O161 1.986 . S
Mg154 O163 2.114 . S
Mg154 O164 2.251 . S
Mg154 O167 2.010 . S
O155 Mg154 2.028 . S
O155 C158 1.250 . S
O156 Mg157 2.028 . S
O156 C158 1.248 . S
Mg157 O156 2.028 . S
Mg157 O162 2.032 . S
Mg157 O164 2.079 . S
C158 O155 1.250 . S
C158 O156 1.248 . S
C159 O160 1.264 . S
C159 O167 1.249 . S
O160 C159 1.264 . S
O161 Mg154 1.986 . S
O161 C165 1.246 . S
O162 Mg157 2.032 . S
O162 C165 1.259 . S
O163 Mg154 2.114 . S
O163 C166 1.252 . S
O164 Mg154 2.251 . S
O164 Mg157 2.079 . S
O164 C166 1.273 . S
C165 O161 1.246 . S
C165 O162 1.259 . S
C166 O163 1.252 . S
C166 O164 1.273 . S
O167 Mg154 2.010 . S
O167 C159 1.249 . S
Mg168 O169 2.028 . S
Mg168 O175 1.986 . S
Mg168 O177 2.114 . S
Mg168 O178 2.251 . S
Mg168 O181 2.010 . S
O169 Mg168 2.028 . S
O169 C172 1.250 . S
O170 Mg171 2.028 . S
O170 C172 1.248 . S
Mg171 O170 2.028 . S
Mg171 O176 2.032 . S
Mg171 O178 2.079 . S
C172 O169 1.250 . S
C172 O170 1.248 . S
C173 O174 1.264 . S
C173 O181 1.249 . S
O174 C173 1.264 . S
O175 Mg168 1.986 . S
O175 C179 1.246 . S
O176 Mg171 2.032 . S
O176 C179 1.259 . S
O177 Mg168 2.114 . S
O177 C180 1.252 . S
O178 Mg168 2.251 . S
O178 Mg171 2.079 . S
O178 C180 1.273 . S
C179 O175 1.246 . S
C179 O176 1.259 . S
C180 O177 1.252 . S
C180 O178 1.273 . S
O181 Mg168 2.010 . S
O181 C173 1.249 . S
Mg182 O183 2.028 . S
Mg182 O189 1.986 . S
Mg182 O191 2.114 . S
Mg182 O192 2.251 . S
Mg182 O195 2.010 . S
O183 Mg182 2.028 . S
O183 C186 1.250 . S
O184 Mg185 2.028 . S
O184 C186 1.248 . S
Mg185 O184 2.028 . S
Mg185 O190 2.032 . S
Mg185 O192 2.079 . S
C186 O183 1.250 . S
C186 O184 1.248 . S
C187 O188 1.264 . S
C187 O195 1.249 . S
O188 C187 1.264 . S
O189 Mg182 1.986 . S
O189 C193 1.246 . S
O190 Mg185 2.032 . S
O190 C193 1.259 . S
O191 Mg182 2.114 . S
O191 C194 1.252 . S
O192 Mg182 2.251 . S
O192 Mg185 2.079 . S
O192 C194 1.273 . S
C193 O189 1.246 . S
C193 O190 1.259 . S
C194 O191 1.252 . S
C194 O192 1.273 . S
O195 Mg182 2.010 . S
O195 C187 1.249 . S
Mg196 O197 2.028 . S
Mg196 O203 1.986 . S
Mg196 O205 2.114 . S
Mg196 O206 2.251 . S
Mg196 O209 2.010 . S
O197 Mg196 2.028 . S
O197 C200 1.250 . S
O198 Mg199 2.028 . S
O198 C200 1.248 . S
Mg199 O198 2.028 . S
Mg199 O204 2.032 . S
Mg199 O206 2.079 . S
C200 O197 1.250 . S
C200 O198 1.248 . S
C201 O202 1.264 . S
C201 O209 1.249 . S
O202 C201 1.264 . S
O203 Mg196 1.986 . S
O203 C207 1.246 . S
O204 Mg199 2.032 . S
O204 C207 1.259 . S
O205 Mg196 2.114 . S
O205 C208 1.252 . S
O206 Mg196 2.251 . S
O206 Mg199 2.079 . S
O206 C208 1.273 . S
C207 O203 1.246 . S
C207 O204 1.259 . S
C208 O205 1.252 . S
C208 O206 1.273 . S
O209 Mg196 2.010 . S
O209 C201 1.249 . S
Mg210 O211 2.028 . S
Mg210 O217 1.986 . S
Mg210 O219 2.114 . S
Mg210 O220 2.251 . S
Mg210 O223 2.010 . S
O211 Mg210 2.028 . S
O211 C214 1.250 . S
O212 Mg213 2.028 . S
O212 C214 1.248 . S
Mg213 O212 2.028 . S
Mg213 O218 2.032 . S
Mg213 O220 2.079 . S
C214 O211 1.250 . S
C214 O212 1.248 . S
C215 O216 1.264 . S
C215 O223 1.249 . S
O216 C215 1.264 . S
O217 Mg210 1.986 . S
O217 C221 1.246 . S
O218 Mg213 2.032 . S
O218 C221 1.259 . S
O219 Mg210 2.114 . S
O219 C222 1.252 . S
O220 Mg210 2.251 . S
O220 Mg213 2.079 . S
O220 C222 1.273 . S
C221 O217 1.246 . S
C221 O218 1.259 . S
C222 O219 1.252 . S
C222 O220 1.273 . S
O223 Mg210 2.010 . S
O223 C215 1.249 . S
Mg224 O225 2.028 . S
Mg224 O231 1.986 . S
Mg224 O233 2.114 . S
Mg224 O234 2.251 . S
Mg224 O237 2.010 . S
O225 Mg224 2.028 . S
O225 C228 1.250 . S
O226 Mg227 2.028 . S
O226 C228 1.248 . S
Mg227 O226 2.028 . S
Mg227 O232 2.032 . S
Mg227 O234 2.079 . S
C228 O225 1.250 . S
C228 O226 1.248 . S
C229 O230 1.264 . S
C229 O237 1.249 . S
O230 C229 1.264 . S
O231 Mg224 1.986 . S
O231 C235 1.246 . S
O232 Mg227 2.032 . S
O232 C235 1.259 . S
O233 Mg224 2.114 . S
O233 C236 1.252 . S
O234 Mg224 2.251 . S
O234 Mg227 2.079 . S
O234 C236 1.273 . S
C235 O231 1.246 . S
C235 O232 1.259 . S
C236 O233 1.252 . S
C236 O234 1.273 . S
O237 Mg224 2.010 . S
O237 C229 1.249 . S
Mg238 O239 2.028 . S
Mg238 O245 1.986 . S
Mg238 O247 2.114 . S
Mg238 O248 2.251 . S
Mg238 O251 2.010 . S
O239 Mg238 2.028 . S
O239 C242 1.250 . S
O240 Mg241 2.028 . S
O240 C242 1.248 . S
Mg241 O240 2.028 . S
Mg241 O246 2.032 . S
Mg241 O248 2.079 . S
C242 O239 1.250 . S
C242 O240 1.248 . S
C243 O244 1.264 . S
C243 O251 1.249 . S
O244 C243 1.264 . S
O245 Mg238 1.986 . S
O245 C249 1.246 . S
O246 Mg241 2.032 . S
O246 C249 1.259 . S
O247 Mg238 2.114 . S
O247 C250 1.252 . S
O248 Mg238 2.251 . S
O248 Mg241 2.079 . S
O248 C250 1.273 . S
C249 O245 1.246 . S
C249 O246 1.259 . S
C250 O247 1.252 . S
C250 O248 1.273 . S
O251 Mg238 2.010 . S
O251 C243 1.249 . S
Mg252 O253 2.028 . S
Mg252 O259 1.986 . S
Mg252 O261 2.114 . S
Mg252 O262 2.251 . S
Mg252 O265 2.010 . S
O253 Mg252 2.028 . S
O253 C256 1.250 . S
O254 Mg255 2.028 . S
O254 C256 1.248 . S
Mg255 O254 2.028 . S
Mg255 O260 2.032 . S
Mg255 O262 2.079 . S
C256 O253 1.250 . S
C256 O254 1.248 . S
C257 O258 1.264 . S
C257 O265 1.249 . S
O258 C257 1.264 . S
O259 Mg252 1.986 . S
O259 C263 1.246 . S
O260 Mg255 2.032 . S
O260 C263 1.259 . S
O261 Mg252 2.114 . S
O261 C264 1.252 . S
O262 Mg252 2.251 . S
O262 Mg255 2.079 . S
O262 C264 1.273 . S
C263 O259 1.246 . S
C263 O260 1.259 . S
C264 O261 1.252 . S
C264 O262 1.273 . S
O265 Mg252 2.010 . S
O265 C257 1.249 . S
Mg266 O267 2.028 . S
Mg266 O273 1.986 . S
Mg266 O275 2.114 . S
Mg266 O276 2.251 . S
Mg266 O279 2.010 . S
O267 Mg266 2.028 . S
O267 C270 1.250 . S
O268 Mg269 2.028 . S
O268 C270 1.248 . S
Mg269 O268 2.028 . S
Mg269 O274 2.032 . S
Mg269 O276 2.079 . S
C270 O267 1.250 . S
C270 O268 1.248 . S
C271 O272 1.264 . S
C271 O279 1.249 . S
O272 C271 1.264 . S
O273 Mg266 1.986 . S
O273 C277 1.246 . S
O274 Mg269 2.032 . S
O274 C277 1.259 . S
O275 Mg266 2.114 . S
O275 C278 1.252 . S
O276 Mg266 2.251 . S
O276 Mg269 2.079 . S
O276 C278 1.273 . S
C277 O273 1.246 . S
C277 O274 1.259 . S
C278 O275 1.252 . S
C278 O276 1.273 . S
O279 Mg266 2.010 . S
O279 C271 1.249 . S
Mg280 O281 2.028 . S
Mg280 O287 1.986 . S
Mg280 O289 2.114 . S
Mg280 O290 2.251 . S
Mg280 O293 2.010 . S
O281 Mg280 2.028 . S
O281 C284 1.250 . S
O282 Mg283 2.028 . S
O282 C284 1.248 . S
Mg283 O282 2.028 . S
Mg283 O288 2.032 . S
Mg283 O290 2.079 . S
C284 O281 1.250 . S
C284 O282 1.248 . S
C285 O286 1.264 . S
C285 O293 1.249 . S
O286 C285 1.264 . S
O287 Mg280 1.986 . S
O287 C291 1.246 . S
O288 Mg283 2.032 . S
O288 C291 1.259 . S
O289 Mg280 2.114 . S
O289 C292 1.252 . S
O290 Mg280 2.251 . S
O290 Mg283 2.079 . S
O290 C292 1.273 . S
C291 O287 1.246 . S
C291 O288 1.259 . S
C292 O289 1.252 . S
C292 O290 1.273 . S
O293 Mg280 2.010 . S
O293 C285 1.249 . S
Mg294 O295 2.028 . S
Mg294 O301 1.986 . S
Mg294 O303 2.114 . S
Mg294 O304 2.251 . S
Mg294 O307 2.010 . S
O295 Mg294 2.028 . S
O295 C298 1.250 . S
O296 Mg297 2.028 . S
O296 C298 1.248 . S
Mg297 O296 2.028 . S
Mg297 O302 2.032 . S
Mg297 O304 2.079 . S
C298 O295 1.250 . S
C298 O296 1.248 . S
C299 O300 1.264 . S
C299 O307 1.249 . S
O300 C299 1.264 . S
O301 Mg294 1.986 . S
O301 C305 1.246 . S
O302 Mg297 2.032 . S
O302 C305 1.259 . S
O303 Mg294 2.114 . S
O303 C306 1.252 . S
O304 Mg294 2.251 . S
O304 Mg297 2.079 . S
O304 C306 1.273 . S
C305 O301 1.246 . S
C305 O302 1.259 . S
C306 O303 1.252 . S
C306 O304 1.273 . S
O307 Mg294 2.010 . S
O307 C299 1.249 . S
Mg308 O309 2.028 . S
Mg308 O315 1.986 . S
Mg308 O317 2.114 . S
Mg308 O318 2.251 . S
Mg308 O321 2.010 . S
O309 Mg308 2.028 . S
O309 C312 1.250 . S
O310 Mg311 2.028 . S
O310 C312 1.248 . S
Mg311 O310 2.028 . S
Mg311 O316 2.032 . S
Mg311 O318 2.079 . S
C312 O309 1.250 . S
C312 O310 1.248 . S
C313 O314 1.264 . S
C313 O321 1.249 . S
O314 C313 1.264 . S
O315 Mg308 1.986 . S
O315 C319 1.246 . S
O316 Mg311 2.032 . S
O316 C319 1.259 . S
O317 Mg308 2.114 . S
O317 C320 1.252 . S
O318 Mg308 2.251 . S
O318 Mg311 2.079 . S
O318 C320 1.273 . S
C319 O315 1.246 . S
C319 O316 1.259 . S
C320 O317 1.252 . S
C320 O318 1.273 . S
O321 Mg308 2.010 . S
O321 C313 1.249 . S
Mg322 O323 2.028 . S
Mg322 O329 1.986 . S
Mg322 O331 2.114 . S
Mg322 O332 2.251 . S
Mg322 O335 2.010 . S
O323 Mg322 2.028 . S
O323 C326 1.250 . S
O324 Mg325 2.028 . S
O324 C326 1.248 . S
Mg325 O324 2.028 . S
Mg325 O330 2.032 . S
Mg325 O332 2.079 . S
C326 O323 1.250 . S
C326 O324 1.248 . S
C327 O328 1.264 . S
C327 O335 1.249 . S
O328 C327 1.264 . S
O329 Mg322 1.986 . S
O329 C333 1.246 . S
O330 Mg325 2.032 . S
O330 C333 1.259 . S
O331 Mg322 2.114 . S
O331 C334 1.252 . S
O332 Mg322 2.251 . S
O332 Mg325 2.079 . S
O332 C334 1.273 . S
C333 O329 1.246 . S
C333 O330 1.259 . S
C334 O331 1.252 . S
C334 O332 1.273 . S
O335 Mg322 2.010 . S
O335 C327 1.249 . S
Mg336 O337 2.028 . S
Mg336 O343 1.986 . S
Mg336 O345 2.114 . S
Mg336 O346 2.251 . S
Mg336 O349 2.010 . S
O337 Mg336 2.028 . S
O337 C340 1.250 . S
O338 Mg339 2.028 . S
O338 C340 1.248 . S
Mg339 O338 2.028 . S
Mg339 O344 2.032 . S
Mg339 O346 2.079 . S
C340 O337 1.250 . S
C340 O338 1.248 . S
C341 O342 1.264 . S
C341 O349 1.249 . S
O342 C341 1.264 . S
O343 Mg336 1.986 . S
O343 C347 1.246 . S
O344 Mg339 2.032 . S
O344 C347 1.259 . S
O345 Mg336 2.114 . S
O345 C348 1.252 . S
O346 Mg336 2.251 . S
O346 Mg339 2.079 . S
O346 C348 1.273 . S
C347 O343 1.246 . S
C347 O344 1.259 . S
C348 O345 1.252 . S
C348 O346 1.273 . S
O349 Mg336 2.010 . S
O349 C341 1.249 . S
Mg350 O351 2.028 . S
Mg350 O357 1.986 . S
Mg350 O359 2.114 . S
Mg350 O360 2.251 . S
Mg350 O363 2.010 . S
O351 Mg350 2.028 . S
O351 C354 1.250 . S
O352 Mg353 2.028 . S
O352 C354 1.248 . S
Mg353 O352 2.028 . S
Mg353 O358 2.032 . S
Mg353 O360 2.079 . S
C354 O351 1.250 . S
C354 O352 1.248 . S
C355 O356 1.264 . S
C355 O363 1.249 . S
O356 C355 1.264 . S
O357 Mg350 1.986 . S
O357 C361 1.246 . S
O358 Mg353 2.032 . S
O358 C361 1.259 . S
O359 Mg350 2.114 . S
O359 C362 1.252 . S
O360 Mg350 2.251 . S
O360 Mg353 2.079 . S
O360 C362 1.273 . S
C361 O357 1.246 . S
C361 O358 1.259 . S
C362 O359 1.252 . S
C362 O360 1.273 . S
O363 Mg350 2.010 . S
O363 C355 1.249 . S
Mg364 O365 2.028 . S
Mg364 O371 1.986 . S
Mg364 O373 2.114 . S
Mg364 O374 2.251 . S
Mg364 O377 2.010 . S
O365 Mg364 2.028 . S
O365 C368 1.250 . S
O366 Mg367 2.028 . S
O366 C368 1.248 . S
Mg367 O366 2.028 . S
Mg367 O372 2.032 . S
Mg367 O374 2.079 . S
C368 O365 1.250 . S
C368 O366 1.248 . S
C369 O370 1.264 . S
C369 O377 1.249 . S
O370 C369 1.264 . S
O371 Mg364 1.986 . S
O371 C375 1.246 . S
O372 Mg367 2.032 . S
O372 C375 1.259 . S
O373 Mg364 2.114 . S
O373 C376 1.252 . S
O374 Mg364 2.251 . S
O374 Mg367 2.079 . S
O374 C376 1.273 . S
C375 O371 1.246 . S
C375 O372 1.259 . S
C376 O373 1.252 . S
C376 O374 1.273 . S
O377 Mg364 2.010 . S
O377 C369 1.249 . S
Mg378 O379 2.028 . S
Mg378 O385 1.986 . S
Mg378 O387 2.114 . S
Mg378 O388 2.251 . S
Mg378 O391 2.010 . S
O379 Mg378 2.028 . S
O379 C382 1.250 . S
O380 Mg381 2.028 . S
O380 C382 1.248 . S
Mg381 O380 2.028 . S
Mg381 O386 2.032 . S
Mg381 O388 2.079 . S
C382 O379 1.250 . S
C382 O380 1.248 . S
C383 O384 1.264 . S
C383 O391 1.249 . S
O384 C383 1.264 . S
O385 Mg378 1.986 . S
O385 C389 1.246 . S
O386 Mg381 2.032 . S
O386 C389 1.259 . S
O387 Mg378 2.114 . S
O387 C390 1.252 . S
O388 Mg378 2.251 . S
O388 Mg381 2.079 . S
O388 C390 1.273 . S
C389 O385 1.246 . S
C389 O386 1.259 . S
C390 O387 1.252 . S
C390 O388 1.273 . S
O391 Mg378 2.010 . S
O391 C383 1.249 . S
Mg392 O393 2.028 . S
Mg392 O399 1.986 . S
Mg392 O401 2.114 . S
Mg392 O402 2.251 . S
Mg392 O405 2.010 . S
O393 Mg392 2.028 . S
O393 C396 1.250 . S
O394 Mg395 2.028 . S
O394 C396 1.248 . S
Mg395 O394 2.028 . S
Mg395 O400 2.032 . S
Mg395 O402 2.079 . S
C396 O393 1.250 . S
C396 O394 1.248 . S
C397 O398 1.264 . S
C397 O405 1.249 . S
O398 C397 1.264 . S
O399 Mg392 1.986 . S
O399 C403 1.246 . S
O400 Mg395 2.032 . S
O400 C403 1.259 . S
O401 Mg392 2.114 . S
O401 C404 1.252 . S
O402 Mg392 2.251 . S
O402 Mg395 2.079 . S
O402 C404 1.273 . S
C403 O399 1.246 . S
C403 O400 1.259 . S
C404 O401 1.252 . S
C404 O402 1.273 . S
O405 Mg392 2.010 . S
O405 C397 1.249 . S
Mg406 O407 2.028 . S
Mg406 O413 1.986 . S
Mg406 O415 2.114 . S
Mg406 O416 2.251 . S
Mg406 O419 2.010 . S
O407 Mg406 2.028 . S
O407 C410 1.250 . S
O408 Mg409 2.028 . S
O408 C410 1.248 . S
Mg409 O408 2.028 . S
Mg409 O414 2.032 . S
Mg409 O416 2.079 . S
C410 O407 1.250 . S
C410 O408 1.248 . S
C411 O412 1.264 . S
C411 O419 1.249 . S
O412 C411 1.264 . S
O413 Mg406 1.986 . S
O413 C417 1.246 . S
O414 Mg409 2.032 . S
O414 C417 1.259 . S
O415 Mg406 2.114 . S
O415 C418 1.252 . S
O416 Mg406 2.251 . S
O416 Mg409 2.079 . S
O416 C418 1.273 . S
C417 O413 1.246 . S
C417 O414 1.259 . S
C418 O415 1.252 . S
C418 O416 1.273 . S
O419 Mg406 2.010 . S
O419 C411 1.249 . S
Mg420 O421 2.028 . S
Mg420 O427 1.986 . S
Mg420 O429 2.114 . S
Mg420 O430 2.251 . S
Mg420 O433 2.010 . S
O421 Mg420 2.028 . S
O421 C424 1.250 . S
O422 Mg423 2.028 . S
O422 C424 1.248 . S
Mg423 O422 2.028 . S
Mg423 O428 2.032 . S
Mg423 O430 2.079 . S
C424 O421 1.250 . S
C424 O422 1.248 . S
C425 O426 1.264 . S
C425 O433 1.249 . S
O426 C425 1.264 . S
O427 Mg420 1.986 . S
O427 C431 1.246 . S
O428 Mg423 2.032 . S
O428 C431 1.259 . S
O429 Mg420 2.114 . S
O429 C432 1.252 . S
O430 Mg420 2.251 . S
O430 Mg423 2.079 . S
O430 C432 1.273 . S
C431 O427 1.246 . S
C431 O428 1.259 . S
C432 O429 1.252 . S
C432 O430 1.273 . S
O433 Mg420 2.010 . S
O433 C425 1.249 . S
Mg434 O435 2.028 . S
Mg434 O441 1.986 . S
Mg434 O443 2.114 . S
Mg434 O444 2.251 . S
Mg434 O447 2.010 . S
O435 Mg434 2.028 . S
O435 C438 1.250 . S
O436 Mg437 2.028 . S
O436 C438 1.248 . S
Mg437 O436 2.028 . S
Mg437 O442 2.032 . S
Mg437 O444 2.079 . S
C438 O435 1.250 . S
C438 O436 1.248 . S
C439 O440 1.264 . S
C439 O447 1.249 . S
O440 C439 1.264 . S
O441 Mg434 1.986 . S
O441 C445 1.246 . S
O442 Mg437 2.032 . S
O442 C445 1.259 . S
O443 Mg434 2.114 . S
O443 C446 1.252 . S
O444 Mg434 2.251 . S
O444 Mg437 2.079 . S
O444 C446 1.273 . S
C445 O441 1.246 . S
C445 O442 1.259 . S
C446 O443 1.252 . S
C446 O444 1.273 . S
O447 Mg434 2.010 . S
O447 C439 1.249 . S
H448 C456 0.950 . S
H449 C461 0.950 . S
H450 C458 0.950 . S
H451 C460 0.950 . S
H452 C462 0.950 . S
H453 C464 0.950 . S
H454 C466 0.950 . S
H455 C467 0.950 . S
C456 H448 0.950 . S
C456 C457 1.386 . S
C456 C458 1.391 . S
C457 C456 1.386 . S
C457 C461 1.393 . S
C458 H450 0.950 . S
C458 C456 1.391 . S
C458 C459 1.400 . S
C459 C458 1.400 . S
C459 C460 1.398 . S
C459 C465 1.491 . S
C460 H451 0.950 . S
C460 C459 1.398 . S
C460 C461 1.391 . S
C461 H449 0.950 . S
C461 C457 1.393 . S
C461 C460 1.391 . S
C462 H452 0.950 . S
C462 C463 1.386 . S
C462 C464 1.391 . S
C463 C462 1.386 . S
C463 C467 1.393 . S
C464 H453 0.950 . S
C464 C462 1.391 . S
C464 C465 1.400 . S
C465 C459 1.491 . S
C465 C464 1.400 . S
C465 C466 1.398 . S
C466 H454 0.950 . S
C466 C465 1.398 . S
C466 C467 1.391 . S
C467 H455 0.950 . S
C467 C463 1.393 . S
C467 C466 1.391 . S
H468 C476 0.950 . S
H469 C481 0.950 . S
H470 C478 0.950 . S
H471 C480 0.950 . S
H472 C482 0.950 . S
H473 C484 0.950 . S
H474 C486 0.950 . S
H475 C487 0.950 . S
C476 H468 0.950 . S
C476 C477 1.386 . S
C476 C478 1.391 . S
C477 C476 1.386 . S
C477 C481 1.393 . S
C478 H470 0.950 . S
C478 C476 1.391 . S
C478 C479 1.400 . S
C479 C478 1.400 . S
C479 C480 1.398 . S
C479 C485 1.491 . S
C480 H471 0.950 . S
C480 C479 1.398 . S
C480 C481 1.391 . S
C481 H469 0.950 . S
C481 C477 1.393 . S
C481 C480 1.391 . S
C482 H472 0.950 . S
C482 C483 1.386 . S
C482 C484 1.391 . S
C483 C482 1.386 . S
C483 C487 1.393 . S
C484 H473 0.950 . S
C484 C482 1.391 . S
C484 C485 1.400 . S
C485 C479 1.491 . S
C485 C484 1.400 . S
C485 C486 1.398 . S
C486 H474 0.950 . S
C486 C485 1.398 . S
C486 C487 1.391 . S
C487 H475 0.950 . S
C487 C483 1.393 . S
C487 C486 1.391 . S
H488 C496 0.950 . S
H489 C501 0.950 . S
H490 C498 0.950 . S
H491 C500 0.950 . S
H492 C502 0.950 . S
H493 C504 0.950 . S
H494 C506 0.950 . S
H495 C507 0.950 . S
C496 H488 0.950 . S
C496 C497 1.386 . S
C496 C498 1.391 . S
C497 C496 1.386 . S
C497 C501 1.393 . S
C498 H490 0.950 . S
C498 C496 1.391 . S
C498 C499 1.400 . S
C499 C498 1.400 . S
C499 C500 1.398 . S
C499 C505 1.491 . S
C500 H491 0.950 . S
C500 C499 1.398 . S
C500 C501 1.391 . S
C501 H489 0.950 . S
C501 C497 1.393 . S
C501 C500 1.391 . S
C502 H492 0.950 . S
C502 C503 1.386 . S
C502 C504 1.391 . S
C503 C502 1.386 . S
C503 C507 1.393 . S
C504 H493 0.950 . S
C504 C502 1.391 . S
C504 C505 1.400 . S
C505 C499 1.491 . S
C505 C504 1.400 . S
C505 C506 1.398 . S
C506 H494 0.950 . S
C506 C505 1.398 . S
C506 C507 1.391 . S
C507 H495 0.950 . S
C507 C503 1.393 . S
C507 C506 1.391 . S
H508 C516 0.950 . S
H509 C521 0.950 . S
H510 C518 0.950 . S
H511 C520 0.950 . S
H512 C522 0.950 . S
H513 C524 0.950 . S
H514 C526 0.950 . S
H515 C527 0.950 . S
C516 H508 0.950 . S
C516 C517 1.386 . S
C516 C518 1.391 . S
C517 C516 1.386 . S
C517 C521 1.393 . S
C518 H510 0.950 . S
C518 C516 1.391 . S
C518 C519 1.400 . S
C519 C518 1.400 . S
C519 C520 1.398 . S
C519 C525 1.491 . S
C520 H511 0.950 . S
C520 C519 1.398 . S
C520 C521 1.391 . S
C521 H509 0.950 . S
C521 C517 1.393 . S
C521 C520 1.391 . S
C522 H512 0.950 . S
C522 C523 1.386 . S
C522 C524 1.391 . S
C523 C522 1.386 . S
C523 C527 1.393 . S
C524 H513 0.950 . S
C524 C522 1.391 . S
C524 C525 1.400 . S
C525 C519 1.491 . S
C525 C524 1.400 . S
C525 C526 1.398 . S
C526 H514 0.950 . S
C526 C525 1.398 . S
C526 C527 1.391 . S
C527 H515 0.950 . S
C527 C523 1.393 . S
C527 C526 1.391 . S
H528 C536 0.950 . S
H529 C541 0.950 . S
H530 C538 0.950 . S
H531 C540 0.950 . S
H532 C542 0.950 . S
H533 C544 0.950 . S
H534 C546 0.950 . S
H535 C547 0.950 . S
C536 H528 0.950 . S
C536 C537 1.386 . S
C536 C538 1.391 . S
C537 C536 1.386 . S
C537 C541 1.393 . S
C538 H530 0.950 . S
C538 C536 1.391 . S
C538 C539 1.400 . S
C539 C538 1.400 . S
C539 C540 1.398 . S
C539 C545 1.491 . S
C540 H531 0.950 . S
C540 C539 1.398 . S
C540 C541 1.391 . S
C541 H529 0.950 . S
C541 C537 1.393 . S
C541 C540 1.391 . S
C542 H532 0.950 . S
C542 C543 1.386 . S
C542 C544 1.391 . S
C543 C542 1.386 . S
C543 C547 1.393 . S
C544 H533 0.950 . S
C544 C542 1.391 . S
C544 C545 1.400 . S
C545 C539 1.491 . S
C545 C544 1.400 . S
C545 C546 1.398 . S
C546 H534 0.950 . S
C546 C545 1.398 . S
C546 C547 1.391 . S
C547 H535 0.950 . S
C547 C543 1.393 . S
C547 C546 1.391 . S
H548 C556 0.950 . S
H549 C561 0.950 . S
H550 C558 0.950 . S
H551 C560 0.950 . S
H552 C562 0.950 . S
H553 C564 0.950 . S
H554 C566 0.950 . S
H555 C567 0.950 . S
C556 H548 0.950 . S
C556 C557 1.386 . S
C556 C558 1.391 . S
C557 C556 1.386 . S
C557 C561 1.393 . S
C558 H550 0.950 . S
C558 C556 1.391 . S
C558 C559 1.400 . S
C559 C558 1.400 . S
C559 C560 1.398 . S
C559 C565 1.491 . S
C560 H551 0.950 . S
C560 C559 1.398 . S
C560 C561 1.391 . S
C561 H549 0.950 . S
C561 C557 1.393 . S
C561 C560 1.391 . S
C562 H552 0.950 . S
C562 C563 1.386 . S
C562 C564 1.391 . S
C563 C562 1.386 . S
C563 C567 1.393 . S
C564 H553 0.950 . S
C564 C562 1.391 . S
C564 C565 1.400 . S
C565 C559 1.491 . S
C565 C564 1.400 . S
C565 C566 1.398 . S
C566 H554 0.950 . S
C566 C565 1.398 . S
C566 C567 1.391 . S
C567 H555 0.950 . S
C567 C563 1.393 . S
C567 C566 1.391 . S
H568 C576 0.950 . S
H569 C581 0.950 . S
H570 C578 0.950 . S
H571 C580 0.950 . S
H572 C582 0.950 . S
H573 C584 0.950 . S
H574 C586 0.950 . S
H575 C587 0.950 . S
C576 H568 0.950 . S
C576 C577 1.386 . S
C576 C578 1.391 . S
C577 C576 1.386 . S
C577 C581 1.393 . S
C578 H570 0.950 . S
C578 C576 1.391 . S
C578 C579 1.400 . S
C579 C578 1.400 . S
C579 C580 1.398 . S
C579 C585 1.491 . S
C580 H571 0.950 . S
C580 C579 1.398 . S
C580 C581 1.391 . S
C581 H569 0.950 . S
C581 C577 1.393 . S
C581 C580 1.391 . S
C582 H572 0.950 . S
C582 C583 1.386 . S
C582 C584 1.391 . S
C583 C582 1.386 . S
C583 C587 1.393 . S
C584 H573 0.950 . S
C584 C582 1.391 . S
C584 C585 1.400 . S
C585 C579 1.491 . S
C585 C584 1.400 . S
C585 C586 1.398 . S
C586 H574 0.950 . S
C586 C585 1.398 . S
C586 C587 1.391 . S
C587 H575 0.950 . S
C587 C583 1.393 . S
C587 C586 1.391 . S
H588 C596 0.950 . S
H589 C601 0.950 . S
H590 C598 0.950 . S
H591 C600 0.950 . S
H592 C602 0.950 . S
H593 C604 0.950 . S
H594 C606 0.950 . S
H595 C607 0.950 . S
C596 H588 0.950 . S
C596 C597 1.386 . S
C596 C598 1.391 . S
C597 C596 1.386 . S
C597 C601 1.393 . S
C598 H590 0.950 . S
C598 C596 1.391 . S
C598 C599 1.400 . S
C599 C598 1.400 . S
C599 C600 1.398 . S
C599 C605 1.491 . S
C600 H591 0.950 . S
C600 C599 1.398 . S
C600 C601 1.391 . S
C601 H589 0.950 . S
C601 C597 1.393 . S
C601 C600 1.391 . S
C602 H592 0.950 . S
C602 C603 1.386 . S
C602 C604 1.391 . S
C603 C602 1.386 . S
C603 C607 1.393 . S
C604 H593 0.950 . S
C604 C602 1.391 . S
C604 C605 1.400 . S
C605 C599 1.491 . S
C605 C604 1.400 . S
C605 C606 1.398 . S
C606 H594 0.950 . S
C606 C605 1.398 . S
C606 C607 1.391 . S
C607 H595 0.950 . S
C607 C603 1.393 . S
C607 C606 1.391 . S
H608 C616 0.950 . S
H609 C621 0.950 . S
H610 C618 0.950 . S
H611 C620 0.950 . S
H612 C622 0.950 . S
H613 C624 0.950 . S
H614 C626 0.950 . S
H615 C627 0.950 . S
C616 H608 0.950 . S
C616 C617 1.386 . S
C616 C618 1.391 . S
C617 C616 1.386 . S
C617 C621 1.393 . S
C618 H610 0.950 . S
C618 C616 1.391 . S
C618 C619 1.400 . S
C619 C618 1.400 . S
C619 C620 1.398 . S
C619 C625 1.491 . S
C620 H611 0.950 . S
C620 C619 1.398 . S
C620 C621 1.391 . S
C621 H609 0.950 . S
C621 C617 1.393 . S
C621 C620 1.391 . S
C622 H612 0.950 . S
C622 C623 1.386 . S
C622 C624 1.391 . S
C623 C622 1.386 . S
C623 C627 1.393 . S
C624 H613 0.950 . S
C624 C622 1.391 . S
C624 C625 1.400 . S
C625 C619 1.491 . S
C625 C624 1.400 . S
C625 C626 1.398 . S
C626 H614 0.950 . S
C626 C625 1.398 . S
C626 C627 1.391 . S
C627 H615 0.950 . S
C627 C623 1.393 . S
C627 C626 1.391 . S
H628 C636 0.950 . S
H629 C641 0.950 . S
H630 C638 0.950 . S
H631 C640 0.950 . S
H632 C642 0.950 . S
H633 C644 0.950 . S
H634 C646 0.950 . S
H635 C647 0.950 . S
C636 H628 0.950 . S
C636 C637 1.386 . S
C636 C638 1.391 . S
C637 C636 1.386 . S
C637 C641 1.393 . S
C638 H630 0.950 . S
C638 C636 1.391 . S
C638 C639 1.400 . S
C639 C638 1.400 . S
C639 C640 1.398 . S
C639 C645 1.491 . S
C640 H631 0.950 . S
C640 C639 1.398 . S
C640 C641 1.391 . S
C641 H629 0.950 . S
C641 C637 1.393 . S
C641 C640 1.391 . S
C642 H632 0.950 . S
C642 C643 1.386 . S
C642 C644 1.391 . S
C643 C642 1.386 . S
C643 C647 1.393 . S
C644 H633 0.950 . S
C644 C642 1.391 . S
C644 C645 1.400 . S
C645 C639 1.491 . S
C645 C644 1.400 . S
C645 C646 1.398 . S
C646 H634 0.950 . S
C646 C645 1.398 . S
C646 C647 1.391 . S
C647 H635 0.950 . S
C647 C643 1.393 . S
C647 C646 1.391 . S
H648 C656 0.950 . S
H649 C661 0.950 . S
H650 C658 0.950 . S
H651 C660 0.950 . S
H652 C662 0.950 . S
H653 C664 0.950 . S
H654 C666 0.950 . S
H655 C667 0.950 . S
C656 H648 0.950 . S
C656 C657 1.386 . S
C656 C658 1.391 . S
C657 C656 1.386 . S
C657 C661 1.393 . S
C658 H650 0.950 . S
C658 C656 1.391 . S
C658 C659 1.400 . S
C659 C658 1.400 . S
C659 C660 1.398 . S
C659 C665 1.491 . S
C660 H651 0.950 . S
C660 C659 1.398 . S
C660 C661 1.391 . S
C661 H649 0.950 . S
C661 C657 1.393 . S
C661 C660 1.391 . S
C662 H652 0.950 . S
C662 C663 1.386 . S
C662 C664 1.391 . S
C663 C662 1.386 . S
C663 C667 1.393 . S
C664 H653 0.950 . S
C664 C662 1.391 . S
C664 C665 1.400 . S
C665 C659 1.491 . S
C665 C664 1.400 . S
C665 C666 1.398 . S
C666 H654 0.950 . S
C666 C665 1.398 . S
C666 C667 1.391 . S
C667 H655 0.950 . S
C667 C663 1.393 . S
C667 C666 1.391 . S
H668 C676 0.950 . S
H669 C681 0.950 . S
H670 C678 0.950 . S
H671 C680 0.950 . S
H672 C682 0.950 . S
H673 C684 0.950 . S
H674 C686 0.950 . S
H675 C687 0.950 . S
C676 H668 0.950 . S
C676 C677 1.386 . S
C676 C678 1.391 . S
C677 C676 1.386 . S
C677 C681 1.393 . S
C678 H670 0.950 . S
C678 C676 1.391 . S
C678 C679 1.400 . S
C679 C678 1.400 . S
C679 C680 1.398 . S
C679 C685 1.491 . S
C680 H671 0.950 . S
C680 C679 1.398 . S
C680 C681 1.391 . S
C681 H669 0.950 . S
C681 C677 1.393 . S
C681 C680 1.391 . S
C682 H672 0.950 . S
C682 C683 1.386 . S
C682 C684 1.391 . S
C683 C682 1.386 . S
C683 C687 1.393 . S
C684 H673 0.950 . S
C684 C682 1.391 . S
C684 C685 1.400 . S
C685 C679 1.491 . S
C685 C684 1.400 . S
C685 C686 1.398 . S
C686 H674 0.950 . S
C686 C685 1.398 . S
C686 C687 1.391 . S
C687 H675 0.950 . S
C687 C683 1.393 . S
C687 C686 1.391 . S
H688 C696 0.950 . S
H689 C701 0.950 . S
H690 C698 0.950 . S
H691 C700 0.950 . S
H692 C702 0.950 . S
H693 C704 0.950 . S
H694 C706 0.950 . S
H695 C707 0.950 . S
C696 H688 0.950 . S
C696 C697 1.386 . S
C696 C698 1.391 . S
C697 C696 1.386 . S
C697 C701 1.393 . S
C698 H690 0.950 . S
C698 C696 1.391 . S
C698 C699 1.400 . S
C699 C698 1.400 . S
C699 C700 1.398 . S
C699 C705 1.491 . S
C700 H691 0.950 . S
C700 C699 1.398 . S
C700 C701 1.391 . S
C701 H689 0.950 . S
C701 C697 1.393 . S
C701 C700 1.391 . S
C702 H692 0.950 . S
C702 C703 1.386 . S
C702 C704 1.391 . S
C703 C702 1.386 . S
C703 C707 1.393 . S
C704 H693 0.950 . S
C704 C702 1.391 . S
C704 C705 1.400 . S
C705 C699 1.491 . S
C705 C704 1.400 . S
C705 C706 1.398 . S
C706 H694 0.950 . S
C706 C705 1.398 . S
C706 C707 1.391 . S
C707 H695 0.950 . S
C707 C703 1.393 . S
C707 C706 1.391 . S
H708 C716 0.950 . S
H709 C721 0.950 . S
H710 C718 0.950 . S
H711 C720 0.950 . S
H712 C722 0.950 . S
H713 C724 0.950 . S
H714 C726 0.950 . S
H715 C727 0.950 . S
C716 H708 0.950 . S
C716 C717 1.386 . S
C716 C718 1.391 . S
C717 C716 1.386 . S
C717 C721 1.393 . S
C718 H710 0.950 . S
C718 C716 1.391 . S
C718 C719 1.400 . S
C719 C718 1.400 . S
C719 C720 1.398 . S
C719 C725 1.491 . S
C720 H711 0.950 . S
C720 C719 1.398 . S
C720 C721 1.391 . S
C721 H709 0.950 . S
C721 C717 1.393 . S
C721 C720 1.391 . S
C722 H712 0.950 . S
C722 C723 1.386 . S
C722 C724 1.391 . S
C723 C722 1.386 . S
C723 C727 1.393 . S
C724 H713 0.950 . S
C724 C722 1.391 . S
C724 C725 1.400 . S
C725 C719 1.491 . S
C725 C724 1.400 . S
C725 C726 1.398 . S
C726 H714 0.950 . S
C726 C725 1.398 . S
C726 C727 1.391 . S
C727 H715 0.950 . S
C727 C723 1.393 . S
C727 C726 1.391 . S
H728 C736 0.950 . S
H729 C741 0.950 . S
H730 C738 0.950 . S
H731 C740 0.950 . S
H732 C742 0.950 . S
H733 C744 0.950 . S
H734 C746 0.950 . S
H735 C747 0.950 . S
C736 H728 0.950 . S
C736 C737 1.386 . S
C736 C738 1.391 . S
C737 C736 1.386 . S
C737 C741 1.393 . S
C738 H730 0.950 . S
C738 C736 1.391 . S
C738 C739 1.400 . S
C739 C738 1.400 . S
C739 C740 1.398 . S
C739 C745 1.491 . S
C740 H731 0.950 . S
C740 C739 1.398 . S
C740 C741 1.391 . S
C741 H729 0.950 . S
C741 C737 1.393 . S
C741 C740 1.391 . S
C742 H732 0.950 . S
C742 C743 1.386 . S
C742 C744 1.391 . S
C743 C742 1.386 . S
C743 C747 1.393 . S
C744 H733 0.950 . S
C744 C742 1.391 . S
C744 C745 1.400 . S
C745 C739 1.491 . S
C745 C744 1.400 . S
C745 C746 1.398 . S
C746 H734 0.950 . S
C746 C745 1.398 . S
C746 C747 1.391 . S
C747 H735 0.950 . S
C747 C743 1.393 . S
C747 C746 1.391 . S
H748 C756 0.950 . S
H749 C761 0.950 . S
H750 C758 0.950 . S
H751 C760 0.950 . S
H752 C762 0.950 . S
H753 C764 0.950 . S
H754 C766 0.950 . S
H755 C767 0.950 . S
C756 H748 0.950 . S
C756 C757 1.386 . S
C756 C758 1.391 . S
C757 C756 1.386 . S
C757 C761 1.393 . S
C758 H750 0.950 . S
C758 C756 1.391 . S
C758 C759 1.400 . S
C759 C758 1.400 . S
C759 C760 1.398 . S
C759 C765 1.491 . S
C760 H751 0.950 . S
C760 C759 1.398 . S
C760 C761 1.391 . S
C761 H749 0.950 . S
C761 C757 1.393 . S
C761 C760 1.391 . S
C762 H752 0.950 . S
C762 C763 1.386 . S
C762 C764 1.391 . S
C763 C762 1.386 . S
C763 C767 1.393 . S
C764 H753 0.950 . S
C764 C762 1.391 . S
C764 C765 1.400 . S
C765 C759 1.491 . S
C765 C764 1.400 . S
C765 C766 1.398 . S
C766 H754 0.950 . S
C766 C765 1.398 . S
C766 C767 1.391 . S
C767 H755 0.950 . S
C767 C763 1.393 . S
C767 C766 1.391 . S
H768 C776 0.950 . S
H769 C781 0.950 . S
H770 C778 0.950 . S
H771 C780 0.950 . S
H772 C782 0.950 . S
H773 C784 0.950 . S
H774 C786 0.950 . S
H775 C787 0.950 . S
C776 H768 0.950 . S
C776 C777 1.386 . S
C776 C778 1.391 . S
C777 C776 1.386 . S
C777 C781 1.393 . S
C778 H770 0.950 . S
C778 C776 1.391 . S
C778 C779 1.400 . S
C779 C778 1.400 . S
C779 C780 1.398 . S
C779 C785 1.491 1_554 S
C780 H771 0.950 . S
C780 C779 1.398 . S
C780 C781 1.391 . S
C781 H769 0.950 . S
C781 C777 1.393 . S
C781 C780 1.391 . S
C782 H772 0.950 . S
C782 C783 1.386 . S
C782 C784 1.391 . S
C783 C782 1.386 . S
C783 C787 1.393 . S
C784 H773 0.950 . S
C784 C782 1.391 . S
C784 C785 1.400 . S
C785 C779 1.491 1_556 S
C785 C784 1.400 . S
C785 C786 1.398 . S
C786 H774 0.950 . S
C786 C785 1.398 . S
C786 C787 1.391 . S
C787 H775 0.950 . S
C787 C783 1.393 . S
C787 C786 1.391 . S
H788 C796 0.950 . S
H789 C801 0.950 . S
H790 C798 0.950 . S
H791 C800 0.950 . S
H792 C802 0.950 . S
H793 C804 0.950 . S
H794 C806 0.950 . S
H795 C807 0.950 . S
C796 H788 0.950 . S
C796 C797 1.386 . S
C796 C798 1.391 . S
C797 C796 1.386 . S
C797 C801 1.393 . S
C798 H790 0.950 . S
C798 C796 1.391 . S
C798 C799 1.400 . S
C799 C798 1.400 . S
C799 C800 1.398 . S
C799 C805 1.491 1_556 S
C800 H791 0.950 . S
C800 C799 1.398 . S
C800 C801 1.391 . S
C801 H789 0.950 . S
C801 C797 1.393 . S
C801 C800 1.391 . S
C802 H792 0.950 . S
C802 C803 1.386 . S
C802 C804 1.391 . S
C803 C802 1.386 . S
C803 C807 1.393 . S
C804 H793 0.950 . S
C804 C802 1.391 . S
C804 C805 1.400 . S
C805 C799 1.491 1_554 S
C805 C804 1.400 . S
C805 C806 1.398 . S
C806 H794 0.950 . S
C806 C805 1.398 . S
C806 C807 1.391 . S
C807 H795 0.950 . S
C807 C803 1.393 . S
C807 C806 1.391 . S
H808 C816 0.950 . S
H809 C821 0.950 . S
H810 C818 0.950 . S
H811 C820 0.950 . S
H812 C822 0.950 . S
H813 C824 0.950 . S
H814 C826 0.950 . S
H815 C827 0.950 . S
C816 H808 0.950 . S
C816 C817 1.386 . S
C816 C818 1.391 . S
C817 C816 1.386 . S
C817 C821 1.393 . S
C818 H810 0.950 . S
C818 C816 1.391 . S
C818 C819 1.400 . S
C819 C818 1.400 . S
C819 C820 1.398 . S
C819 C825 1.491 1_556 S
C820 H811 0.950 . S
C820 C819 1.398 . S
C820 C821 1.391 . S
C821 H809 0.950 . S
C821 C817 1.393 . S
C821 C820 1.391 . S
C822 H812 0.950 . S
C822 C823 1.386 . S
C822 C824 1.391 . S
C823 C822 1.386 . S
C823 C827 1.393 . S
C824 H813 0.950 . S
C824 C822 1.391 . S
C824 C825 1.400 . S
C825 C819 1.491 1_554 S
C825 C824 1.400 . S
C825 C826 1.398 . S
C826 H814 0.950 . S
C826 C825 1.398 . S
C826 C827 1.391 . S
C827 H815 0.950 . S
C827 C823 1.393 . S
C827 C826 1.391 . S
H828 C836 0.950 . S
H829 C841 0.950 . S
H830 C838 0.950 . S
H831 C840 0.950 . S
H832 C842 0.950 . S
H833 C844 0.950 . S
H834 C846 0.950 . S
H835 C847 0.950 . S
C836 H828 0.950 . S
C836 C837 1.386 . S
C836 C838 1.391 . S
C837 C836 1.386 . S
C837 C841 1.393 . S
C838 H830 0.950 . S
C838 C836 1.391 . S
C838 C839 1.400 . S
C839 C838 1.400 . S
C839 C840 1.398 . S
C839 C845 1.491 1_556 S
C840 H831 0.950 . S
C840 C839 1.398 . S
C840 C841 1.391 . S
C841 H829 0.950 . S
C841 C837 1.393 . S
C841 C840 1.391 . S
C842 H832 0.950 . S
C842 C843 1.386 . S
C842 C844 1.391 . S
C843 C842 1.386 . S
C843 C847 1.393 . S
C844 H833 0.950 . S
C844 C842 1.391 . S
C844 C845 1.400 . S
C845 C839 1.491 1_554 S
C845 C844 1.400 . S
C845 C846 1.398 . S
C846 H834 0.950 . S
C846 C845 1.398 . S
C846 C847 1.391 . S
C847 H835 0.950 . S
C847 C843 1.393 . S
C847 C846 1.391 . S
H848 C856 0.950 . S
H849 C861 0.950 . S
H850 C858 0.950 . S
H851 C860 0.950 . S
H852 C862 0.950 . S
H853 C864 0.950 . S
H854 C866 0.950 . S
H855 C867 0.950 . S
C856 H848 0.950 . S
C856 C857 1.386 . S
C856 C858 1.391 . S
C857 C856 1.386 . S
C857 C861 1.393 . S
C858 H850 0.950 . S
C858 C856 1.391 . S
C858 C859 1.400 . S
C859 C858 1.400 . S
C859 C860 1.398 . S
C859 C865 1.491 . S
C860 H851 0.950 . S
C860 C859 1.398 . S
C860 C861 1.391 . S
C861 H849 0.950 . S
C861 C857 1.393 . S
C861 C860 1.391 . S
C862 H852 0.950 . S
C862 C863 1.386 . S
C862 C864 1.391 . S
C863 C862 1.386 . S
C863 C867 1.393 . S
C864 H853 0.950 . S
C864 C862 1.391 . S
C864 C865 1.400 . S
C865 C859 1.491 . S
C865 C864 1.400 . S
C865 C866 1.398 . S
C866 H854 0.950 . S
C866 C865 1.398 . S
C866 C867 1.391 . S
C867 H855 0.950 . S
C867 C863 1.393 . S
C867 C866 1.391 . S
H868 C876 0.950 . S
H869 C881 0.950 . S
H870 C878 0.950 . S
H871 C880 0.950 . S
H872 C882 0.950 . S
H873 C884 0.950 . S
H874 C886 0.950 . S
H875 C887 0.950 . S
C876 H868 0.950 . S
C876 C877 1.386 . S
C876 C878 1.391 . S
C877 C876 1.386 . S
C877 C881 1.393 . S
C878 H870 0.950 . S
C878 C876 1.391 . S
C878 C879 1.400 . S
C879 C878 1.400 . S
C879 C880 1.398 . S
C879 C885 1.491 . S
C880 H871 0.950 . S
C880 C879 1.398 . S
C880 C881 1.391 . S
C881 H869 0.950 . S
C881 C877 1.393 . S
C881 C880 1.391 . S
C882 H872 0.950 . S
C882 C883 1.386 . S
C882 C884 1.391 . S
C883 C882 1.386 . S
C883 C887 1.393 . S
C884 H873 0.950 . S
C884 C882 1.391 . S
C884 C885 1.400 . S
C885 C879 1.491 . S
C885 C884 1.400 . S
C885 C886 1.398 . S
C886 H874 0.950 . S
C886 C885 1.398 . S
C886 C887 1.391 . S
C887 H875 0.950 . S
C887 C883 1.393 . S
C887 C886 1.391 . S
H888 C896 0.950 . S
H889 C901 0.950 . S
H890 C898 0.950 . S
H891 C900 0.950 . S
H892 C902 0.950 . S
H893 C904 0.950 . S
H894 C906 0.950 . S
H895 C907 0.950 . S
C896 H888 0.950 . S
C896 C897 1.386 . S
C896 C898 1.391 . S
C897 C896 1.386 . S
C897 C901 1.393 . S
C898 H890 0.950 . S
C898 C896 1.391 . S
C898 C899 1.400 . S
C899 C898 1.400 . S
C899 C900 1.398 . S
C899 C905 1.491 . S
C900 H891 0.950 . S
C900 C899 1.398 . S
C900 C901 1.391 . S
C901 H889 0.950 . S
C901 C897 1.393 . S
C901 C900 1.391 . S
C902 H892 0.950 . S
C902 C903 1.386 . S
C902 C904 1.391 . S
C903 C902 1.386 . S
C903 C907 1.393 . S
C904 H893 0.950 . S
C904 C902 1.391 . S
C904 C905 1.400 . S
C905 C899 1.491 . S
C905 C904 1.400 . S
C905 C906 1.398 . S
C906 H894 0.950 . S
C906 C905 1.398 . S
C906 C907 1.391 . S
C907 H895 0.950 . S
C907 C903 1.393 . S
C907 C906 1.391 . S
H908 C916 0.950 . S
H909 C921 0.950 . S
H910 C918 0.950 . S
H911 C920 0.950 . S
H912 C922 0.950 . S
H913 C924 0.950 . S
H914 C926 0.950 . S
H915 C927 0.950 . S
C916 H908 0.950 . S
C916 C917 1.386 . S
C916 C918 1.391 . S
C917 C916 1.386 . S
C917 C921 1.393 . S
C918 H910 0.950 . S
C918 C916 1.391 . S
C918 C919 1.400 . S
C919 C918 1.400 . S
C919 C920 1.398 . S
C919 C925 1.491 . S
C920 H911 0.950 . S
C920 C919 1.398 . S
C920 C921 1.391 . S
C921 H909 0.950 . S
C921 C917 1.393 . S
C921 C920 1.391 . S
C922 H912 0.950 . S
C922 C923 1.386 . S
C922 C924 1.391 . S
C923 C922 1.386 . S
C923 C927 1.393 . S
C924 H913 0.950 . S
C924 C922 1.391 . S
C924 C925 1.400 . S
C925 C919 1.491 . S
C925 C924 1.400 . S
C925 C926 1.398 . S
C926 H914 0.950 . S
C926 C925 1.398 . S
C926 C927 1.391 . S
C927 H915 0.950 . S
C927 C923 1.393 . S
C927 C926 1.391 . S
H928 C936 0.950 . S
H929 C941 0.950 . S
H930 C938 0.950 . S
H931 C940 0.950 . S
H932 C942 0.950 . S
H933 C944 0.950 . S
H934 C946 0.950 . S
H935 C947 0.950 . S
C936 H928 0.950 . S
C936 C937 1.386 . S
C936 C938 1.391 . S
C937 C936 1.386 . S
C937 C941 1.393 . S
C938 H930 0.950 . S
C938 C936 1.391 . S
C938 C939 1.400 . S
C939 C938 1.400 . S
C939 C940 1.398 . S
C939 C945 1.491 . S
C940 H931 0.950 . S
C940 C939 1.398 . S
C940 C941 1.391 . S
C941 H929 0.950 . S
C941 C937 1.393 . S
C941 C940 1.391 . S
C942 H932 0.950 . S
C942 C943 1.386 . S
C942 C944 1.391 . S
C943 C942 1.386 . S
C943 C947 1.393 . S
C944 H933 0.950 . S
C944 C942 1.391 . S
C944 C945 1.400 . S
C945 C939 1.491 . S
C945 C944 1.400 . S
C945 C946 1.398 . S
C946 H934 0.950 . S
C946 C945 1.398 . S
C946 C947 1.391 . S
C947 H935 0.950 . S
C947 C943 1.393 . S
C947 C946 1.391 . S
H948 C956 0.950 . S
H949 C961 0.950 . S
H950 C958 0.950 . S
H951 C960 0.950 . S
H952 C962 0.950 . S
H953 C964 0.950 . S
H954 C966 0.950 . S
H955 C967 0.950 . S
C956 H948 0.950 . S
C956 C957 1.386 . S
C956 C958 1.391 . S
C957 C956 1.386 . S
C957 C961 1.393 . S
C958 H950 0.950 . S
C958 C956 1.391 . S
C958 C959 1.400 . S
C959 C958 1.400 . S
C959 C960 1.398 . S
C959 C965 1.491 . S
C960 H951 0.950 . S
C960 C959 1.398 . S
C960 C961 1.391 . S
C961 H949 0.950 . S
C961 C957 1.393 . S
C961 C960 1.391 . S
C962 H952 0.950 . S
C962 C963 1.386 . S
C962 C964 1.391 . S
C963 C962 1.386 . S
C963 C967 1.393 . S
C964 H953 0.950 . S
C964 C962 1.391 . S
C964 C965 1.400 . S
C965 C959 1.491 . S
C965 C964 1.400 . S
C965 C966 1.398 . S
C966 H954 0.950 . S
C966 C965 1.398 . S
C966 C967 1.391 . S
C967 H955 0.950 . S
C967 C963 1.393 . S
C967 C966 1.391 . S
H968 C976 0.950 . S
H969 C981 0.950 . S
H970 C978 0.950 . S
H971 C980 0.950 . S
H972 C982 0.950 . S
H973 C984 0.950 . S
H974 C986 0.950 . S
H975 C987 0.950 . S
C976 H968 0.950 . S
C976 C977 1.386 . S
C976 C978 1.391 . S
C977 C976 1.386 . S
C977 C981 1.393 . S
C978 H970 0.950 . S
C978 C976 1.391 . S
C978 C979 1.400 . S
C979 C978 1.400 . S
C979 C980 1.398 . S
C979 C985 1.491 . S
C980 H971 0.950 . S
C980 C979 1.398 . S
C980 C981 1.391 . S
C981 H969 0.950 . S
C981 C977 1.393 . S
C981 C980 1.391 . S
C982 H972 0.950 . S
C982 C983 1.386 . S
C982 C984 1.391 . S
C983 C982 1.386 . S
C983 C987 1.393 . S
C984 H973 0.950 . S
C984 C982 1.391 . S
C984 C985 1.400 . S
C985 C979 1.491 . S
C985 C984 1.400 . S
C985 C986 1.398 . S
C986 H974 0.950 . S
C986 C985 1.398 . S
C986 C987 1.391 . S
C987 H975 0.950 . S
C987 C983 1.393 . S
C987 C986 1.391 . S
H988 C996 0.950 . S
H989 C1001 0.950 . S
H990 C998 0.950 . S
H991 C1000 0.950 . S
H992 C1002 0.950 . S
H993 C1004 0.950 . S
H994 C1006 0.950 . S
H995 C1007 0.950 . S
C996 H988 0.950 . S
C996 C997 1.386 . S
C996 C998 1.391 . S
C997 C996 1.386 . S
C997 C1001 1.393 . S
C998 H990 0.950 . S
C998 C996 1.391 . S
C998 C999 1.400 . S
C999 C998 1.400 . S
C999 C1000 1.398 . S
C999 C1005 1.491 . S
C1000 H991 0.950 . S
C1000 C999 1.398 . S
C1000 C1001 1.391 . S
C1001 H989 0.950 . S
C1001 C997 1.393 . S
C1001 C1000 1.391 . S
C1002 H992 0.950 . S
C1002 C1003 1.386 . S
C1002 C1004 1.391 . S
C1003 C1002 1.386 . S
C1003 C1007 1.393 . S
C1004 H993 0.950 . S
C1004 C1002 1.391 . S
C1004 C1005 1.400 . S
C1005 C999 1.491 . S
C1005 C1004 1.400 . S
C1005 C1006 1.398 . S
C1006 H994 0.950 . S
C1006 C1005 1.398 . S
C1006 C1007 1.391 . S
C1007 H995 0.950 . S
C1007 C1003 1.393 . S
C1007 C1006 1.391 . S
H1008 C1016 0.950 . S
H1009 C1021 0.950 . S
H1010 C1018 0.950 . S
H1011 C1020 0.950 . S
H1012 C1022 0.950 . S
H1013 C1024 0.950 . S
H1014 C1026 0.950 . S
H1015 C1027 0.950 . S
C1016 H1008 0.950 . S
C1016 C1017 1.386 . S
C1016 C1018 1.391 . S
C1017 C1016 1.386 . S
C1017 C1021 1.393 . S
C1018 H1010 0.950 . S
C1018 C1016 1.391 . S
C1018 C1019 1.400 . S
C1019 C1018 1.400 . S
C1019 C1020 1.398 . S
C1019 C1025 1.491 1_556 S
C1020 H1011 0.950 . S
C1020 C1019 1.398 . S
C1020 C1021 1.391 . S
C1021 H1009 0.950 . S
C1021 C1017 1.393 . S
C1021 C1020 1.391 . S
C1022 H1012 0.950 . S
C1022 C1023 1.386 . S
C1022 C1024 1.391 . S
C1023 C1022 1.386 . S
C1023 C1027 1.393 . S
C1024 H1013 0.950 . S
C1024 C1022 1.391 . S
C1024 C1025 1.400 . S
C1025 C1019 1.491 1_554 S
C1025 C1024 1.400 . S
C1025 C1026 1.398 . S
C1026 H1014 0.950 . S
C1026 C1025 1.398 . S
C1026 C1027 1.391 . S
C1027 H1015 0.950 . S
C1027 C1023 1.393 . S
C1027 C1026 1.391 . S
H1028 C1036 0.950 . S
H1029 C1041 0.950 . S
H1030 C1038 0.950 . S
H1031 C1040 0.950 . S
H1032 C1042 0.950 . S
H1033 C1044 0.950 . S
H1034 C1046 0.950 . S
H1035 C1047 0.950 . S
C1036 H1028 0.950 . S
C1036 C1037 1.386 . S
C1036 C1038 1.391 . S
C1037 C1036 1.386 . S
C1037 C1041 1.393 . S
C1038 H1030 0.950 . S
C1038 C1036 1.391 . S
C1038 C1039 1.400 . S
C1039 C1038 1.400 . S
C1039 C1040 1.398 . S
C1039 C1045 1.491 1_554 S
C1040 H1031 0.950 . S
C1040 C1039 1.398 . S
C1040 C1041 1.391 . S
C1041 H1029 0.950 . S
C1041 C1037 1.393 . S
C1041 C1040 1.391 . S
C1042 H1032 0.950 . S
C1042 C1043 1.386 . S
C1042 C1044 1.391 . S
C1043 C1042 1.386 . S
C1043 C1047 1.393 . S
C1044 H1033 0.950 . S
C1044 C1042 1.391 . S
C1044 C1045 1.400 . S
C1045 C1039 1.491 1_556 S
C1045 C1044 1.400 . S
C1045 C1046 1.398 . S
C1046 H1034 0.950 . S
C1046 C1045 1.398 . S
C1046 C1047 1.391 . S
C1047 H1035 0.950 . S
C1047 C1043 1.393 . S
C1047 C1046 1.391 . S
H1048 C1056 0.950 . S
H1049 C1061 0.950 . S
H1050 C1058 0.950 . S
H1051 C1060 0.950 . S
H1052 C1062 0.950 . S
H1053 C1064 0.950 . S
H1054 C1066 0.950 . S
H1055 C1067 0.950 . S
C1056 H1048 0.950 . S
C1056 C1057 1.386 . S
C1056 C1058 1.391 . S
C1057 C1056 1.386 . S
C1057 C1061 1.393 . S
C1058 H1050 0.950 . S
C1058 C1056 1.391 . S
C1058 C1059 1.400 . S
C1059 C1058 1.400 . S
C1059 C1060 1.398 . S
C1059 C1065 1.491 1_554 S
C1060 H1051 0.950 . S
C1060 C1059 1.398 . S
C1060 C1061 1.391 . S
C1061 H1049 0.950 . S
C1061 C1057 1.393 . S
C1061 C1060 1.391 . S
C1062 H1052 0.950 . S
C1062 C1063 1.386 . S
C1062 C1064 1.391 . S
C1063 C1062 1.386 . S
C1063 C1067 1.393 . S
C1064 H1053 0.950 . S
C1064 C1062 1.391 . S
C1064 C1065 1.400 . S
C1065 C1059 1.491 1_556 S
C1065 C1064 1.400 . S
C1065 C1066 1.398 . S
C1066 H1054 0.950 . S
C1066 C1065 1.398 . S
C1066 C1067 1.391 . S
C1067 H1055 0.950 . S
C1067 C1063 1.393 . S
C1067 C1066 1.391 . S
H1068 C1076 0.950 . S
H1069 C1081 0.950 . S
H1070 C1078 0.950 . S
H1071 C1080 0.950 . S
H1072 C1082 0.950 . S
H1073 C1084 0.950 . S
H1074 C1086 0.950 . S
H1075 C1087 0.950 . S
C1076 H1068 0.950 . S
C1076 C1077 1.386 . S
C1076 C1078 1.391 . S
C1077 C1076 1.386 . S
C1077 C1081 1.393 . S
C1078 H1070 0.950 . S
C1078 C1076 1.391 . S
C1078 C1079 1.400 . S
C1079 C1078 1.400 . S
C1079 C1080 1.398 . S
C1079 C1085 1.491 1_556 S
C1080 H1071 0.950 . S
C1080 C1079 1.398 . S
C1080 C1081 1.391 . S
C1081 H1069 0.950 . S
C1081 C1077 1.393 . S
C1081 C1080 1.391 . S
C1082 H1072 0.950 . S
C1082 C1083 1.386 . S
C1082 C1084 1.391 . S
C1083 C1082 1.386 . S
C1083 C1087 1.393 . S
C1084 H1073 0.950 . S
C1084 C1082 1.391 . S
C1084 C1085 1.400 . S
C1085 C1079 1.491 1_554 S
C1085 C1084 1.400 . S
C1085 C1086 1.398 . S
C1086 H1074 0.950 . S
C1086 C1085 1.398 . S
C1086 C1087 1.391 . S
C1087 H1075 0.950 . S
C1087 C1083 1.393 . S
C1087 C1086 1.391 . S
H1088 C1096 0.950 . S
H1089 C1101 0.950 . S
H1090 C1098 0.950 . S
H1091 C1100 0.950 . S
H1092 C1102 0.950 . S
H1093 C1104 0.950 . S
H1094 C1106 0.950 . S
H1095 C1107 0.950 . S
C1096 H1088 0.950 . S
C1096 C1097 1.386 . S
C1096 C1098 1.391 . S
C1097 C1096 1.386 . S
C1097 C1101 1.393 . S
C1098 H1090 0.950 . S
C1098 C1096 1.391 . S
C1098 C1099 1.400 . S
C1099 C1098 1.400 . S
C1099 C1100 1.398 . S
C1099 C1105 1.491 1_545 S
C1100 H1091 0.950 . S
C1100 C1099 1.398 . S
C1100 C1101 1.391 . S
C1101 H1089 0.950 . S
C1101 C1097 1.393 . S
C1101 C1100 1.391 . S
C1102 H1092 0.950 . S
C1102 C1103 1.386 . S
C1102 C1104 1.391 . S
C1103 C1102 1.386 . S
C1103 C1107 1.393 . S
C1104 H1093 0.950 . S
C1104 C1102 1.391 . S
C1104 C1105 1.400 . S
C1105 C1099 1.491 1_565 S
C1105 C1104 1.400 . S
C1105 C1106 1.398 . S
C1106 H1094 0.950 . S
C1106 C1105 1.398 . S
C1106 C1107 1.391 . S
C1107 H1095 0.950 . S
C1107 C1103 1.393 . S
C1107 C1106 1.391 . S
H1108 C1116 0.950 . S
H1109 C1121 0.950 . S
H1110 C1118 0.950 . S
H1111 C1120 0.950 . S
H1112 C1122 0.950 . S
H1113 C1124 0.950 . S
H1114 C1126 0.950 . S
H1115 C1127 0.950 . S
C1116 H1108 0.950 . S
C1116 C1117 1.386 . S
C1116 C1118 1.391 . S
C1117 C1116 1.386 . S
C1117 C1121 1.393 . S
C1118 H1110 0.950 . S
C1118 C1116 1.391 . S
C1118 C1119 1.400 . S
C1119 C1118 1.400 . S
C1119 C1120 1.398 . S
C1119 C1125 1.491 1_655 S
C1120 H1111 0.950 . S
C1120 C1119 1.398 . S
C1120 C1121 1.391 . S
C1121 H1109 0.950 . S
C1121 C1117 1.393 . S
C1121 C1120 1.391 . S
C1122 H1112 0.950 . S
C1122 C1123 1.386 . S
C1122 C1124 1.391 . S
C1123 C1122 1.386 . S
C1123 C1127 1.393 . S
C1124 H1113 0.950 . S
C1124 C1122 1.391 . S
C1124 C1125 1.400 . S
C1125 C1119 1.491 1_455 S
C1125 C1124 1.400 . S
C1125 C1126 1.398 . S
C1126 H1114 0.950 . S
C1126 C1125 1.398 . S
C1126 C1127 1.391 . S
C1127 H1115 0.950 . S
C1127 C1123 1.393 . S
C1127 C1126 1.391 . S
H1128 C1136 0.950 . S
H1129 C1141 0.950 . S
H1130 C1138 0.950 . S
H1131 C1140 0.950 . S
H1132 C1142 0.950 . S
H1133 C1144 0.950 . S
H1134 C1146 0.950 . S
H1135 C1147 0.950 . S
C1136 H1128 0.950 . S
C1136 C1137 1.386 . S
C1136 C1138 1.391 . S
C1137 C1136 1.386 . S
C1137 C1141 1.393 . S
C1138 H1130 0.950 . S
C1138 C1136 1.391 . S
C1138 C1139 1.400 . S
C1139 C1138 1.400 . S
C1139 C1140 1.398 . S
C1139 C1145 1.491 1_545 S
C1140 H1131 0.950 . S
C1140 C1139 1.398 . S
C1140 C1141 1.391 . S
C1141 H1129 0.950 . S
C1141 C1137 1.393 . S
C1141 C1140 1.391 . S
C1142 H1132 0.950 . S
C1142 C1143 1.386 . S
C1142 C1144 1.391 . S
C1143 C1142 1.386 . S
C1143 C1147 1.393 . S
C1144 H1133 0.950 . S
C1144 C1142 1.391 . S
C1144 C1145 1.400 . S
C1145 C1139 1.491 1_565 S
C1145 C1144 1.400 . S
C1145 C1146 1.398 . S
C1146 H1134 0.950 . S
C1146 C1145 1.398 . S
C1146 C1147 1.391 . S
C1147 H1135 0.950 . S
C1147 C1143 1.393 . S
C1147 C1146 1.391 . S
H1148 C1156 0.950 . S
H1149 C1161 0.950 . S
H1150 C1158 0.950 . S
H1151 C1160 0.950 . S
H1152 C1162 0.950 . S
H1153 C1164 0.950 . S
H1154 C1166 0.950 . S
H1155 C1167 0.950 . S
C1156 H1148 0.950 . S
C1156 C1157 1.386 . S
C1156 C1158 1.391 . S
C1157 C1156 1.386 . S
C1157 C1161 1.393 . S
C1158 H1150 0.950 . S
C1158 C1156 1.391 . S
C1158 C1159 1.400 . S
C1159 C1158 1.400 . S
C1159 C1160 1.398 . S
C1159 C1165 1.491 1_455 S
C1160 H1151 0.950 . S
C1160 C1159 1.398 . S
C1160 C1161 1.391 . S
C1161 H1149 0.950 . S
C1161 C1157 1.393 . S
C1161 C1160 1.391 . S
C1162 H1152 0.950 . S
C1162 C1163 1.386 . S
C1162 C1164 1.391 . S
C1163 C1162 1.386 . S
C1163 C1167 1.393 . S
C1164 H1153 0.950 . S
C1164 C1162 1.391 . S
C1164 C1165 1.400 . S
C1165 C1159 1.491 1_655 S
C1165 C1164 1.400 . S
C1165 C1166 1.398 . S
C1166 H1154 0.950 . S
C1166 C1165 1.398 . S
C1166 C1167 1.391 . S
C1167 H1155 0.950 . S
C1167 C1163 1.393 . S
C1167 C1166 1.391 . S
H1168 C1176 0.950 . S
H1169 C1181 0.950 . S
H1170 C1178 0.934 1_545 S
H1171 C1180 0.950 . S
H1172 C1182 0.950 . S
H1173 C1184 0.934 1_565 S
H1174 C1186 0.950 . S
H1175 C1187 0.950 . S
C1176 H1168 0.950 . S
C1176 C1177 1.386 . S
C1176 C1178 1.391 . S
C1177 C1176 1.386 . S
C1177 C1181 1.393 . S
C1178 H1170 0.934 1_565 S
C1178 C1176 1.391 . S
C1178 C1179 1.400 . S
C1179 C1178 1.400 . S
C1179 C1180 1.398 . S
C1179 C1185 1.491 1_565 S
C1180 H1171 0.950 . S
C1180 C1179 1.398 . S
C1180 C1181 1.391 . S
C1181 H1169 0.950 . S
C1181 C1177 1.393 . S
C1181 C1180 1.391 . S
C1182 H1172 0.950 . S
C1182 C1183 1.386 . S
C1182 C1184 1.391 . S
C1183 C1182 1.386 . S
C1183 C1187 1.393 . S
C1184 H1173 0.934 1_545 S
C1184 C1182 1.391 . S
C1184 C1185 1.400 . S
C1185 C1179 1.491 1_545 S
C1185 C1184 1.400 . S
C1185 C1186 1.398 . S
C1186 H1174 0.950 . S
C1186 C1185 1.398 . S
C1186 C1187 1.391 . S
C1187 H1175 0.950 . S
C1187 C1183 1.393 . S
C1187 C1186 1.391 . S
H1188 C1196 0.950 . S
H1189 C1201 0.950 . S
H1190 C1198 0.976 . S
H1191 C1200 0.950 . S
H1192 C1202 0.950 . S
H1193 C1204 0.976 . S
H1194 C1206 0.950 . S
H1195 C1207 0.950 . S
C1196 H1188 0.950 . S
C1196 C1197 1.386 . S
C1196 C1198 1.391 . S
C1197 C1196 1.386 . S
C1197 C1201 1.393 . S
C1198 H1190 0.976 . S
C1198 C1196 1.391 . S
C1198 C1199 1.400 . S
C1199 C1198 1.400 . S
C1199 C1200 1.398 . S
C1199 C1205 1.491 1_655 S
C1200 H1191 0.950 . S
C1200 C1199 1.398 . S
C1200 C1201 1.391 . S
C1201 H1189 0.950 . S
C1201 C1197 1.393 . S
C1201 C1200 1.391 . S
C1202 H1192 0.950 . S
C1202 C1203 1.386 . S
C1202 C1204 1.391 . S
C1203 C1202 1.386 . S
C1203 C1207 1.393 . S
C1204 H1193 0.976 . S
C1204 C1202 1.391 . S
C1204 C1205 1.400 . S
C1205 C1199 1.491 1_455 S
C1205 C1204 1.400 . S
C1205 C1206 1.398 . S
C1206 H1194 0.950 . S
C1206 C1205 1.398 . S
C1206 C1207 1.391 . S
C1207 H1195 0.950 . S
C1207 C1203 1.393 . S
C1207 C1206 1.391 . S
H1208 C1216 0.950 . S
H1209 C1221 0.950 . S
H1210 C1218 0.950 . S
H1211 C1220 0.950 . S
H1212 C1222 0.950 . S
H1213 C1224 0.950 . S
H1214 C1226 0.950 . S
H1215 C1227 0.950 . S
C1216 H1208 0.950 . S
C1216 C1217 1.386 . S
C1216 C1218 1.391 . S
C1217 C1216 1.386 . S
C1217 C1221 1.393 . S
C1218 H1210 0.950 . S
C1218 C1216 1.391 . S
C1218 C1219 1.400 . S
C1219 C1218 1.400 . S
C1219 C1220 1.398 . S
C1219 C1225 1.491 1_565 S
C1220 H1211 0.950 . S
C1220 C1219 1.398 . S
C1220 C1221 1.391 . S
C1221 H1209 0.950 . S
C1221 C1217 1.393 . S
C1221 C1220 1.391 . S
C1222 H1212 0.950 . S
C1222 C1223 1.386 . S
C1222 C1224 1.391 . S
C1223 C1222 1.386 . S
C1223 C1227 1.393 . S
C1224 H1213 0.950 . S
C1224 C1222 1.391 . S
C1224 C1225 1.400 . S
C1225 C1219 1.491 1_545 S
C1225 C1224 1.400 . S
C1225 C1226 1.398 . S
C1226 H1214 0.950 . S
C1226 C1225 1.398 . S
C1226 C1227 1.391 . S
C1227 H1215 0.950 . S
C1227 C1223 1.393 . S
C1227 C1226 1.391 . S
H1228 C1236 0.950 . S
H1229 C1241 0.950 . S
H1230 C1238 0.950 . S
H1231 C1240 0.950 . S
H1232 C1242 0.950 . S
H1233 C1244 0.950 . S
H1234 C1246 0.950 . S
H1235 C1247 0.950 . S
C1236 H1228 0.950 . S
C1236 C1237 1.386 . S
C1236 C1238 1.391 . S
C1237 C1236 1.386 . S
C1237 C1241 1.393 . S
C1238 H1230 0.950 . S
C1238 C1236 1.391 . S
C1238 C1239 1.400 . S
C1239 C1238 1.400 . S
C1239 C1240 1.398 . S
C1239 C1245 1.491 1_655 S
C1240 H1231 0.950 . S
C1240 C1239 1.398 . S
C1240 C1241 1.391 . S
C1241 H1229 0.950 . S
C1241 C1237 1.393 . S
C1241 C1240 1.391 . S
C1242 H1232 0.950 . S
C1242 C1243 1.386 . S
C1242 C1244 1.391 . S
C1243 C1242 1.386 . S
C1243 C1247 1.393 . S
C1244 H1233 0.950 . S
C1244 C1242 1.391 . S
C1244 C1245 1.400 . S
C1245 C1239 1.491 1_455 S
C1245 C1244 1.400 . S
C1245 C1246 1.398 . S
C1246 H1234 0.950 . S
C1246 C1245 1.398 . S
C1246 C1247 1.391 . S
C1247 H1235 0.950 . S
C1247 C1243 1.393 . S
C1247 C1246 1.391 . S
H1248 C1256 0.950 . S
H1249 C1261 0.950 . S
H1250 C1258 0.950 . S
H1251 C1260 0.950 . S
H1252 C1262 0.950 . S
H1253 C1264 0.950 . S
H1254 C1266 0.950 . S
H1255 C1267 0.950 . S
C1256 H1248 0.950 . S
C1256 C1257 1.386 . S
C1256 C1258 1.391 . S
C1257 C1256 1.386 . S
C1257 C1261 1.393 . S
C1258 H1250 0.950 . S
C1258 C1256 1.391 . S
C1258 C1259 1.400 . S
C1259 C1258 1.400 . S
C1259 C1260 1.398 . S
C1259 C1265 1.491 . S
C1260 H1251 0.950 . S
C1260 C1259 1.398 . S
C1260 C1261 1.391 . S
C1261 H1249 0.950 . S
C1261 C1257 1.393 . S
C1261 C1260 1.391 . S
C1262 H1252 0.950 . S
C1262 C1263 1.386 . S
C1262 C1264 1.391 . S
C1263 C1262 1.386 . S
C1263 C1267 1.393 . S
C1264 H1253 0.950 . S
C1264 C1262 1.391 . S
C1264 C1265 1.400 . S
C1265 C1259 1.491 . S
C1265 C1264 1.400 . S
C1265 C1266 1.398 . S
C1266 H1254 0.950 . S
C1266 C1265 1.398 . S
C1266 C1267 1.391 . S
C1267 H1255 0.950 . S
C1267 C1263 1.393 . S
C1267 C1266 1.391 . S
H1268 C1276 0.950 . S
H1269 C1281 0.950 . S
H1270 C1278 0.950 . S
H1271 C1280 0.950 . S
H1272 C1282 0.950 . S
H1273 C1284 0.950 . S
H1274 C1286 0.950 . S
H1275 C1287 0.950 . S
C1276 H1268 0.950 . S
C1276 C1277 1.386 . S
C1276 C1278 1.391 . S
C1277 C1276 1.386 . S
C1277 C1281 1.393 . S
C1278 H1270 0.950 . S
C1278 C1276 1.391 . S
C1278 C1279 1.400 . S
C1279 C1278 1.400 . S
C1279 C1280 1.398 . S
C1279 C1285 1.491 . S
C1280 H1271 0.950 . S
C1280 C1279 1.398 . S
C1280 C1281 1.391 . S
C1281 H1269 0.950 . S
C1281 C1277 1.393 . S
C1281 C1280 1.391 . S
C1282 H1272 0.950 . S
C1282 C1283 1.386 . S
C1282 C1284 1.391 . S
C1283 C1282 1.386 . S
C1283 C1287 1.393 . S
C1284 H1273 0.950 . S
C1284 C1282 1.391 . S
C1284 C1285 1.400 . S
C1285 C1279 1.491 . S
C1285 C1284 1.400 . S
C1285 C1286 1.398 . S
C1286 H1274 0.950 . S
C1286 C1285 1.398 . S
C1286 C1287 1.391 . S
C1287 H1275 0.950 . S
C1287 C1283 1.393 . S
C1287 C1286 1.391 . S
H1288 C1296 0.950 . S
H1289 C1301 0.950 . S
H1290 C1298 0.950 . S
H1291 C1300 0.950 . S
H1292 C1302 0.950 . S
H1293 C1304 0.950 . S
H1294 C1306 0.950 . S
H1295 C1307 0.950 . S
C1296 H1288 0.950 . S
C1296 C1297 1.386 . S
C1296 C1298 1.391 . S
C1297 C1296 1.386 . S
C1297 C1301 1.393 . S
C1298 H1290 0.950 . S
C1298 C1296 1.391 . S
C1298 C1299 1.400 . S
C1299 C1298 1.400 . S
C1299 C1300 1.398 . S
C1299 C1305 1.491 . S
C1300 H1291 0.950 . S
C1300 C1299 1.398 . S
C1300 C1301 1.391 . S
C1301 H1289 0.950 . S
C1301 C1297 1.393 . S
C1301 C1300 1.391 . S
C1302 H1292 0.950 . S
C1302 C1303 1.386 . S
C1302 C1304 1.391 . S
C1303 C1302 1.386 . S
C1303 C1307 1.393 . S
C1304 H1293 0.950 . S
C1304 C1302 1.391 . S
C1304 C1305 1.400 . S
C1305 C1299 1.491 . S
C1305 C1304 1.400 . S
C1305 C1306 1.398 . S
C1306 H1294 0.950 . S
C1306 C1305 1.398 . S
C1306 C1307 1.391 . S
C1307 H1295 0.950 . S
C1307 C1303 1.393 . S
C1307 C1306 1.391 . S
H1308 C1316 0.950 . S
H1309 C1321 0.950 . S
H1310 C1318 0.950 . S
H1311 C1320 0.950 . S
H1312 C1322 0.950 . S
H1313 C1324 0.950 . S
H1314 C1326 0.950 . S
H1315 C1327 0.950 . S
C1316 H1308 0.950 . S
C1316 C1317 1.386 . S
C1316 C1318 1.391 . S
C1317 C1316 1.386 . S
C1317 C1321 1.393 . S
C1318 H1310 0.950 . S
C1318 C1316 1.391 . S
C1318 C1319 1.400 . S
C1319 C1318 1.400 . S
C1319 C1320 1.398 . S
C1319 C1325 1.491 . S
C1320 H1311 0.950 . S
C1320 C1319 1.398 . S
C1320 C1321 1.391 . S
C1321 H1309 0.950 . S
C1321 C1317 1.393 . S
C1321 C1320 1.391 . S
C1322 H1312 0.950 . S
C1322 C1323 1.386 . S
C1322 C1324 1.391 . S
C1323 C1322 1.386 . S
C1323 C1327 1.393 . S
C1324 H1313 0.950 . S
C1324 C1322 1.391 . S
C1324 C1325 1.400 . S
C1325 C1319 1.491 . S
C1325 C1324 1.400 . S
C1325 C1326 1.398 . S
C1326 H1314 0.950 . S
C1326 C1325 1.398 . S
C1326 C1327 1.391 . S
C1327 H1315 0.950 . S
C1327 C1323 1.393 . S
C1327 C1326 1.391 . S
H1328 C1336 0.950 . S
H1329 C1341 0.950 . S
H1330 C1338 0.950 . S
H1331 C1340 0.950 . S
H1332 C1342 0.950 . S
H1333 C1344 0.950 . S
H1334 C1346 0.950 . S
H1335 C1347 0.950 . S
C1336 H1328 0.950 . S
C1336 C1337 1.386 . S
C1336 C1338 1.391 . S
C1337 C1336 1.386 . S
C1337 C1341 1.393 . S
C1338 H1330 0.950 . S
C1338 C1336 1.391 . S
C1338 C1339 1.400 . S
C1339 C1338 1.400 . S
C1339 C1340 1.398 . S
C1339 C1345 1.491 . S
C1340 H1331 0.950 . S
C1340 C1339 1.398 . S
C1340 C1341 1.391 . S
C1341 H1329 0.950 . S
C1341 C1337 1.393 . S
C1341 C1340 1.391 . S
C1342 H1332 0.950 . S
C1342 C1343 1.386 . S
C1342 C1344 1.391 . S
C1343 C1342 1.386 . S
C1343 C1347 1.393 . S
C1344 H1333 0.950 . S
C1344 C1342 1.391 . S
C1344 C1345 1.400 . S
C1345 C1339 1.491 . S
C1345 C1344 1.400 . S
C1345 C1346 1.398 . S
C1346 H1334 0.950 . S
C1346 C1345 1.398 . S
C1346 C1347 1.391 . S
C1347 H1335 0.950 . S
C1347 C1343 1.393 . S
C1347 C1346 1.391 . S
H1348 C1356 0.950 . S
H1349 C1361 0.950 . S
H1350 C1358 0.950 . S
H1351 C1360 0.950 . S
H1352 C1362 0.950 . S
H1353 C1364 0.950 . S
H1354 C1366 0.950 . S
H1355 C1367 0.950 . S
C1356 H1348 0.950 . S
C1356 C1357 1.386 . S
C1356 C1358 1.391 . S
C1357 C1356 1.386 . S
C1357 C1361 1.393 . S
C1358 H1350 0.950 . S
C1358 C1356 1.391 . S
C1358 C1359 1.400 . S
C1359 C1358 1.400 . S
C1359 C1360 1.398 . S
C1359 C1365 1.491 . S
C1360 H1351 0.950 . S
C1360 C1359 1.398 . S
C1360 C1361 1.391 . S
C1361 H1349 0.950 . S
C1361 C1357 1.393 . S
C1361 C1360 1.391 . S
C1362 H1352 0.950 . S
C1362 C1363 1.386 . S
C1362 C1364 1.391 . S
C1363 C1362 1.386 . S
C1363 C1367 1.393 . S
C1364 H1353 0.950 . S
C1364 C1362 1.391 . S
C1364 C1365 1.400 . S
C1365 C1359 1.491 . S
C1365 C1364 1.400 . S
C1365 C1366 1.398 . S
C1366 H1354 0.950 . S
C1366 C1365 1.398 . S
C1366 C1367 1.391 . S
C1367 H1355 0.950 . S
C1367 C1363 1.393 . S
C1367 C1366 1.391 . S
H1368 C1376 0.950 . S
H1369 C1381 0.950 . S
H1370 C1378 0.950 . S
H1371 C1380 0.950 . S
H1372 C1382 0.950 . S
H1373 C1384 0.950 . S
H1374 C1386 0.950 . S
H1375 C1387 0.950 . S
C1376 H1368 0.950 . S
C1376 C1377 1.386 . S
C1376 C1378 1.391 . S
C1377 C1376 1.386 . S
C1377 C1381 1.393 . S
C1378 H1370 0.950 . S
C1378 C1376 1.391 . S
C1378 C1379 1.400 . S
C1379 C1378 1.400 . S
C1379 C1380 1.398 . S
C1379 C1385 1.491 . S
C1380 H1371 0.950 . S
C1380 C1379 1.398 . S
C1380 C1381 1.391 . S
C1381 H1369 0.950 . S
C1381 C1377 1.393 . S
C1381 C1380 1.391 . S
C1382 H1372 0.950 . S
C1382 C1383 1.386 . S
C1382 C1384 1.391 . S
C1383 C1382 1.386 . S
C1383 C1387 1.393 . S
C1384 H1373 0.950 . S
C1384 C1382 1.391 . S
C1384 C1385 1.400 . S
C1385 C1379 1.491 . S
C1385 C1384 1.400 . S
C1385 C1386 1.398 . S
C1386 H1374 0.950 . S
C1386 C1385 1.398 . S
C1386 C1387 1.391 . S
C1387 H1375 0.950 . S
C1387 C1383 1.393 . S
C1387 C1386 1.391 . S
H1388 C1396 0.950 . S
H1389 C1401 0.950 . S
H1390 C1398 0.950 . S
H1391 C1400 0.950 . S
H1392 C1402 0.950 . S
H1393 C1404 0.950 . S
H1394 C1406 0.950 . S
H1395 C1407 0.950 . S
C1396 H1388 0.950 . S
C1396 C1397 1.386 . S
C1396 C1398 1.391 . S
C1397 C1396 1.386 . S
C1397 C1401 1.393 . S
C1398 H1390 0.950 . S
C1398 C1396 1.391 . S
C1398 C1399 1.400 . S
C1399 C1398 1.400 . S
C1399 C1400 1.398 . S
C1399 C1405 1.491 . S
C1400 H1391 0.950 . S
C1400 C1399 1.398 . S
C1400 C1401 1.391 . S
C1401 H1389 0.950 . S
C1401 C1397 1.393 . S
C1401 C1400 1.391 . S
C1402 H1392 0.950 . S
C1402 C1403 1.386 . S
C1402 C1404 1.391 . S
C1403 C1402 1.386 . S
C1403 C1407 1.393 . S
C1404 H1393 0.950 . S
C1404 C1402 1.391 . S
C1404 C1405 1.400 . S
C1405 C1399 1.491 . S
C1405 C1404 1.400 . S
C1405 C1406 1.398 . S
C1406 H1394 0.950 . S
C1406 C1405 1.398 . S
C1406 C1407 1.391 . S
C1407 H1395 0.950 . S
C1407 C1403 1.393 . S
C1407 C1406 1.391 . S
H1408 C1416 0.950 . S
H1409 C1421 0.950 . S
H1410 C1418 0.950 . S
H1411 C1420 0.950 . S
H1412 C1422 0.950 . S
H1413 C1424 0.950 . S
H1414 C1426 0.950 . S
H1415 C1427 0.950 . S
C1416 H1408 0.950 . S
C1416 C1417 1.386 . S
C1416 C1418 1.391 . S
C1417 C1416 1.386 . S
C1417 C1421 1.393 . S
C1418 H1410 0.950 . S
C1418 C1416 1.391 . S
C1418 C1419 1.400 . S
C1419 C1418 1.400 . S
C1419 C1420 1.398 . S
C1419 C1425 1.491 . S
C1420 H1411 0.950 . S
C1420 C1419 1.398 . S
C1420 C1421 1.391 . S
C1421 H1409 0.950 . S
C1421 C1417 1.393 . S
C1421 C1420 1.391 . S
C1422 H1412 0.950 . S
C1422 C1423 1.386 . S
C1422 C1424 1.391 . S
C1423 C1422 1.386 . S
C1423 C1427 1.393 . S
C1424 H1413 0.950 . S
C1424 C1422 1.391 . S
C1424 C1425 1.400 . S
C1425 C1419 1.491 . S
C1425 C1424 1.400 . S
C1425 C1426 1.398 . S
C1426 H1414 0.950 . S
C1426 C1425 1.398 . S
C1426 C1427 1.391 . S
C1427 H1415 0.950 . S
C1427 C1423 1.393 . S
C1427 C1426 1.391 . S
H1428 C1436 0.950 . S
H1429 C1441 0.950 . S
H1430 C1438 0.950 . S
H1431 C1440 0.950 . S
H1432 C1442 0.950 . S
H1433 C1444 0.950 . S
H1434 C1446 0.950 . S
H1435 C1447 0.950 . S
C1436 H1428 0.950 . S
C1436 C1437 1.386 . S
C1436 C1438 1.391 . S
C1437 C1436 1.386 . S
C1437 C1441 1.393 . S
C1438 H1430 0.950 . S
C1438 C1436 1.391 . S
C1438 C1439 1.400 . S
C1439 C1438 1.400 . S
C1439 C1440 1.398 . S
C1439 C1445 1.491 . S
C1440 H1431 0.950 . S
C1440 C1439 1.398 . S
C1440 C1441 1.391 . S
C1441 H1429 0.950 . S
C1441 C1437 1.393 . S
C1441 C1440 1.391 . S
C1442 H1432 0.950 . S
C1442 C1443 1.386 . S
C1442 C1444 1.391 . S
C1443 C1442 1.386 . S
C1443 C1447 1.393 . S
C1444 H1433 0.950 . S
C1444 C1442 1.391 . S
C1444 C1445 1.400 . S
C1445 C1439 1.491 . S
C1445 C1444 1.400 . S
C1445 C1446 1.398 . S
C1446 H1434 0.950 . S
C1446 C1445 1.398 . S
C1446 C1447 1.391 . S
C1447 H1435 0.950 . S
C1447 C1443 1.393 . S
C1447 C1446 1.391 . S
H1448 C1456 0.950 . S
H1449 C1461 0.950 . S
H1450 C1458 0.950 . S
H1451 C1460 0.950 . S
H1452 C1462 0.950 . S
H1453 C1464 0.950 . S
H1454 C1466 0.950 . S
H1455 C1467 0.950 . S
C1456 H1448 0.950 . S
C1456 C1457 1.386 . S
C1456 C1458 1.391 . S
C1457 C1456 1.386 . S
C1457 C1461 1.393 . S
C1458 H1450 0.950 . S
C1458 C1456 1.391 . S
C1458 C1459 1.400 . S
C1459 C1458 1.400 . S
C1459 C1460 1.398 . S
C1459 C1465 1.491 . S
C1460 H1451 0.950 . S
C1460 C1459 1.398 . S
C1460 C1461 1.391 . S
C1461 H1449 0.950 . S
C1461 C1457 1.393 . S
C1461 C1460 1.391 . S
C1462 H1452 0.950 . S
C1462 C1463 1.386 . S
C1462 C1464 1.391 . S
C1463 C1462 1.386 . S
C1463 C1467 1.393 . S
C1464 H1453 0.950 . S
C1464 C1462 1.391 . S
C1464 C1465 1.400 . S
C1465 C1459 1.491 . S
C1465 C1464 1.400 . S
C1465 C1466 1.398 . S
C1466 H1454 0.950 . S
C1466 C1465 1.398 . S
C1466 C1467 1.391 . S
C1467 H1455 0.950 . S
C1467 C1463 1.393 . S
C1467 C1466 1.391 . S
H1468 C1476 0.950 . S
H1469 C1481 0.950 . S
H1470 C1478 0.950 . S
H1471 C1480 0.950 . S
H1472 C1482 0.950 . S
H1473 C1484 0.950 . S
H1474 C1486 0.950 . S
H1475 C1487 0.950 . S
C1476 H1468 0.950 . S
C1476 C1477 1.386 . S
C1476 C1478 1.391 . S
C1477 C1476 1.386 . S
C1477 C1481 1.393 . S
C1478 H1470 0.950 . S
C1478 C1476 1.391 . S
C1478 C1479 1.400 . S
C1479 C1478 1.400 . S
C1479 C1480 1.398 . S
C1479 C1485 1.491 . S
C1480 H1471 0.950 . S
C1480 C1479 1.398 . S
C1480 C1481 1.391 . S
C1481 H1469 0.950 . S
C1481 C1477 1.393 . S
C1481 C1480 1.391 . S
C1482 H1472 0.950 . S
C1482 C1483 1.386 . S
C1482 C1484 1.391 . S
C1483 C1482 1.386 . S
C1483 C1487 1.393 . S
C1484 H1473 0.950 . S
C1484 C1482 1.391 . S
C1484 C1485 1.400 . S
C1485 C1479 1.491 . S
C1485 C1484 1.400 . S
C1485 C1486 1.398 . S
C1486 H1474 0.950 . S
C1486 C1485 1.398 . S
C1486 C1487 1.391 . S
C1487 H1475 0.950 . S
C1487 C1483 1.393 . S
C1487 C1486 1.391 . S
H1488 C1496 0.950 . S
H1489 C1501 0.950 . S
H1490 C1498 0.950 . S
H1491 C1500 0.950 . S
H1492 C1502 0.950 . S
H1493 C1504 0.950 . S
H1494 C1506 0.950 . S
H1495 C1507 0.950 . S
C1496 H1488 0.950 . S
C1496 C1497 1.386 . S
C1496 C1498 1.391 . S
C1497 C1496 1.386 . S
C1497 C1501 1.393 . S
C1498 H1490 0.950 . S
C1498 C1496 1.391 . S
C1498 C1499 1.400 . S
C1499 C1498 1.400 . S
C1499 C1500 1.398 . S
C1499 C1505 1.491 . S
C1500 H1491 0.950 . S
C1500 C1499 1.398 . S
C1500 C1501 1.391 . S
C1501 H1489 0.950 . S
C1501 C1497 1.393 . S
C1501 C1500 1.391 . S
C1502 H1492 0.950 . S
C1502 C1503 1.386 . S
C1502 C1504 1.391 . S
C1503 C1502 1.386 . S
C1503 C1507 1.393 . S
C1504 H1493 0.950 . S
C1504 C1502 1.391 . S
C1504 C1505 1.400 . S
C1505 C1499 1.491 . S
C1505 C1504 1.400 . S
C1505 C1506 1.398 . S
C1506 H1494 0.950 . S
C1506 C1505 1.398 . S
C1506 C1507 1.391 . S
C1507 H1495 0.950 . S
C1507 C1503 1.393 . S
C1507 C1506 1.391 . S
H1508 C1516 0.950 . S
H1509 C1521 0.950 . S
H1510 C1518 0.950 . S
H1511 C1520 0.950 . S
H1512 C1522 0.950 . S
H1513 C1524 0.950 . S
H1514 C1526 0.950 . S
H1515 C1527 0.950 . S
C1516 H1508 0.950 . S
C1516 C1517 1.386 . S
C1516 C1518 1.391 . S
C1517 C1516 1.386 . S
C1517 C1521 1.393 . S
C1518 H1510 0.950 . S
C1518 C1516 1.391 . S
C1518 C1519 1.400 . S
C1519 C1518 1.400 . S
C1519 C1520 1.398 . S
C1519 C1525 1.491 . S
C1520 H1511 0.950 . S
C1520 C1519 1.398 . S
C1520 C1521 1.391 . S
C1521 H1509 0.950 . S
C1521 C1517 1.393 . S
C1521 C1520 1.391 . S
C1522 H1512 0.950 . S
C1522 C1523 1.386 . S
C1522 C1524 1.391 . S
C1523 C1522 1.386 . S
C1523 C1527 1.393 . S
C1524 H1513 0.950 . S
C1524 C1522 1.391 . S
C1524 C1525 1.400 . S
C1525 C1519 1.491 . S
C1525 C1524 1.400 . S
C1525 C1526 1.398 . S
C1526 H1514 0.950 . S
C1526 C1525 1.398 . S
C1526 C1527 1.391 . S
C1527 H1515 0.950 . S
C1527 C1523 1.393 . S
C1527 C1526 1.391 . S
H1528 C1536 0.950 . S
H1529 C1541 0.950 . S
H1530 C1538 0.950 . S
H1531 C1540 0.950 . S
H1532 C1542 0.950 . S
H1533 C1544 0.950 . S
H1534 C1546 0.950 . S
H1535 C1547 0.950 . S
C1536 H1528 0.950 . S
C1536 C1537 1.386 . S
C1536 C1538 1.391 . S
C1537 C1536 1.386 . S
C1537 C1541 1.393 . S
C1538 H1530 0.950 . S
C1538 C1536 1.391 . S
C1538 C1539 1.400 . S
C1539 C1538 1.400 . S
C1539 C1540 1.398 . S
C1539 C1545 1.491 . S
C1540 H1531 0.950 . S
C1540 C1539 1.398 . S
C1540 C1541 1.391 . S
C1541 H1529 0.950 . S
C1541 C1537 1.393 . S
C1541 C1540 1.391 . S
C1542 H1532 0.950 . S
C1542 C1543 1.386 . S
C1542 C1544 1.391 . S
C1543 C1542 1.386 . S
C1543 C1547 1.393 . S
C1544 H1533 0.950 . S
C1544 C1542 1.391 . S
C1544 C1545 1.400 . S
C1545 C1539 1.491 . S
C1545 C1544 1.400 . S
C1545 C1546 1.398 . S
C1546 H1534 0.950 . S
C1546 C1545 1.398 . S
C1546 C1547 1.391 . S
C1547 H1535 0.950 . S
C1547 C1543 1.393 . S
C1547 C1546 1.391 . S
H1548 C1556 0.950 . S
H1549 C1561 0.950 . S
H1550 C1558 0.950 . S
H1551 C1560 0.950 . S
H1552 C1562 0.950 . S
H1553 C1564 0.950 . S
H1554 C1566 0.950 . S
H1555 C1567 0.950 . S
C1556 H1548 0.950 . S
C1556 C1557 1.386 . S
C1556 C1558 1.391 . S
C1557 C1556 1.386 . S
C1557 C1561 1.393 . S
C1558 H1550 0.950 . S
C1558 C1556 1.391 . S
C1558 C1559 1.400 . S
C1559 C1558 1.400 . S
C1559 C1560 1.398 . S
C1559 C1565 1.491 . S
C1560 H1551 0.950 . S
C1560 C1559 1.398 . S
C1560 C1561 1.391 . S
C1561 H1549 0.950 . S
C1561 C1557 1.393 . S
C1561 C1560 1.391 . S
C1562 H1552 0.950 . S
C1562 C1563 1.386 . S
C1562 C1564 1.391 . S
C1563 C1562 1.386 . S
C1563 C1567 1.393 . S
C1564 H1553 0.950 . S
C1564 C1562 1.391 . S
C1564 C1565 1.400 . S
C1565 C1559 1.491 . S
C1565 C1564 1.400 . S
C1565 C1566 1.398 . S
C1566 H1554 0.950 . S
C1566 C1565 1.398 . S
C1566 C1567 1.391 . S
C1567 H1555 0.950 . S
C1567 C1563 1.393 . S
C1567 C1566 1.391 . S
H1568 C1576 0.950 . S
H1569 C1581 0.950 . S
H1570 C1578 0.950 . S
H1571 C1580 0.950 . S
H1572 C1582 0.950 . S
H1573 C1584 0.950 . S
H1574 C1586 0.950 . S
H1575 C1587 0.950 . S
C1576 H1568 0.950 . S
C1576 C1577 1.386 . S
C1576 C1578 1.391 . S
C1577 C1576 1.386 . S
C1577 C1581 1.393 . S
C1578 H1570 0.950 . S
C1578 C1576 1.391 . S
C1578 C1579 1.400 . S
C1579 C1578 1.400 . S
C1579 C1580 1.398 . S
C1579 C1585 1.491 . S
C1580 H1571 0.950 . S
C1580 C1579 1.398 . S
C1580 C1581 1.391 . S
C1581 H1569 0.950 . S
C1581 C1577 1.393 . S
C1581 C1580 1.391 . S
C1582 H1572 0.950 . S
C1582 C1583 1.386 . S
C1582 C1584 1.391 . S
C1583 C1582 1.386 . S
C1583 C1587 1.393 . S
C1584 H1573 0.950 . S
C1584 C1582 1.391 . S
C1584 C1585 1.400 . S
C1585 C1579 1.491 . S
C1585 C1584 1.400 . S
C1585 C1586 1.398 . S
C1586 H1574 0.950 . S
C1586 C1585 1.398 . S
C1586 C1587 1.391 . S
C1587 H1575 0.950 . S
C1587 C1583 1.393 . S
C1587 C1586 1.391 . S
H1588 C1596 0.950 . S
H1589 C1601 0.950 . S
H1590 C1598 0.950 . S
H1591 C1600 0.950 . S
H1592 C1602 0.950 . S
H1593 C1604 0.950 . S
H1594 C1606 0.950 . S
H1595 C1607 0.950 . S
C1596 H1588 0.950 . S
C1596 C1597 1.386 . S
C1596 C1598 1.391 . S
C1597 C1596 1.386 . S
C1597 C1601 1.393 . S
C1598 H1590 0.950 . S
C1598 C1596 1.391 . S
C1598 C1599 1.400 . S
C1599 C1598 1.400 . S
C1599 C1600 1.398 . S
C1599 C1605 1.491 . S
C1600 H1591 0.950 . S
C1600 C1599 1.398 . S
C1600 C1601 1.391 . S
C1601 H1589 0.950 . S
C1601 C1597 1.393 . S
C1601 C1600 1.391 . S
C1602 H1592 0.950 . S
C1602 C1603 1.386 . S
C1602 C1604 1.391 . S
C1603 C1602 1.386 . S
C1603 C1607 1.393 . S
C1604 H1593 0.950 . S
C1604 C1602 1.391 . S
C1604 C1605 1.400 . S
C1605 C1599 1.491 . S
C1605 C1604 1.400 . S
C1605 C1606 1.398 . S
C1606 H1594 0.950 . S
C1606 C1605 1.398 . S
C1606 C1607 1.391 . S
C1607 H1595 0.950 . S
C1607 C1603 1.393 . S
C1607 C1606 1.391 . S
H1608 C1616 0.950 . S
H1609 C1621 0.950 . S
H1610 C1618 0.950 . S
H1611 C1620 0.950 . S
H1612 C1622 0.950 . S
H1613 C1624 0.950 . S
H1614 C1626 0.950 . S
H1615 C1627 0.950 . S
C1616 H1608 0.950 . S
C1616 C1617 1.386 . S
C1616 C1618 1.391 . S
C1617 C1616 1.386 . S
C1617 C1621 1.393 . S
C1618 H1610 0.950 . S
C1618 C1616 1.391 . S
C1618 C1619 1.400 . S
C1619 C1618 1.400 . S
C1619 C1620 1.398 . S
C1619 C1625 1.491 . S
C1620 H1611 0.950 . S
C1620 C1619 1.398 . S
C1620 C1621 1.391 . S
C1621 H1609 0.950 . S
C1621 C1617 1.393 . S
C1621 C1620 1.391 . S
C1622 H1612 0.950 . S
C1622 C1623 1.386 . S
C1622 C1624 1.391 . S
C1623 C1622 1.386 . S
C1623 C1627 1.393 . S
C1624 H1613 0.950 . S
C1624 C1622 1.391 . S
C1624 C1625 1.400 . S
C1625 C1619 1.491 . S
C1625 C1624 1.400 . S
C1625 C1626 1.398 . S
C1626 H1614 0.950 . S
C1626 C1625 1.398 . S
C1626 C1627 1.391 . S
C1627 H1615 0.950 . S
C1627 C1623 1.393 . S
C1627 C1626 1.391 . S
H1628 C1636 0.950 . S
H1629 C1641 0.950 . S
H1630 C1638 0.950 . S
H1631 C1640 0.950 . S
H1632 C1642 0.950 . S
H1633 C1644 0.950 . S
H1634 C1646 0.950 . S
H1635 C1647 0.950 . S
C1636 H1628 0.950 . S
C1636 C1637 1.386 . S
C1636 C1638 1.391 . S
C1637 C1636 1.386 . S
C1637 C1641 1.393 . S
C1638 H1630 0.950 . S
C1638 C1636 1.391 . S
C1638 C1639 1.400 . S
C1639 C1638 1.400 . S
C1639 C1640 1.398 . S
C1639 C1645 1.491 . S
C1640 H1631 0.950 . S
C1640 C1639 1.398 . S
C1640 C1641 1.391 . S
C1641 H1629 0.950 . S
C1641 C1637 1.393 . S
C1641 C1640 1.391 . S
C1642 H1632 0.950 . S
C1642 C1643 1.386 . S
C1642 C1644 1.391 . S
C1643 C1642 1.386 . S
C1643 C1647 1.393 . S
C1644 H1633 0.950 . S
C1644 C1642 1.391 . S
C1644 C1645 1.400 . S
C1645 C1639 1.491 . S
C1645 C1644 1.400 . S
C1645 C1646 1.398 . S
C1646 H1634 0.950 . S
C1646 C1645 1.398 . S
C1646 C1647 1.391 . S
C1647 H1635 0.950 . S
C1647 C1643 1.393 . S
C1647 C1646 1.391 . S
H1648 C1656 0.950 . S
H1649 C1661 0.950 . S
H1650 C1658 0.950 . S
H1651 C1660 0.950 . S
H1652 C1662 0.950 . S
H1653 C1664 0.950 . S
H1654 C1666 0.950 . S
H1655 C1667 0.950 . S
C1656 H1648 0.950 . S
C1656 C1657 1.386 . S
C1656 C1658 1.391 . S
C1657 C1656 1.386 . S
C1657 C1661 1.393 . S
C1658 H1650 0.950 . S
C1658 C1656 1.391 . S
C1658 C1659 1.400 . S
C1659 C1658 1.400 . S
C1659 C1660 1.398 . S
C1659 C1665 1.491 . S
C1660 H1651 0.950 . S
C1660 C1659 1.398 . S
C1660 C1661 1.391 . S
C1661 H1649 0.950 . S
C1661 C1657 1.393 . S
C1661 C1660 1.391 . S
C1662 H1652 0.950 . S
C1662 C1663 1.386 . S
C1662 C1664 1.391 . S
C1663 C1662 1.386 . S
C1663 C1667 1.393 . S
C1664 H1653 0.950 . S
C1664 C1662 1.391 . S
C1664 C1665 1.400 . S
C1665 C1659 1.491 . S
C1665 C1664 1.400 . S
C1665 C1666 1.398 . S
C1666 H1654 0.950 . S
C1666 C1665 1.398 . S
C1666 C1667 1.391 . S
C1667 H1655 0.950 . S
C1667 C1663 1.393 . S
C1667 C1666 1.391 . S
H1668 C1676 0.950 . S
H1669 C1681 0.950 . S
H1670 C1678 0.950 . S
H1671 C1680 0.950 . S
H1672 C1682 0.950 . S
H1673 C1684 0.950 . S
H1674 C1686 0.950 . S
H1675 C1687 0.950 . S
C1676 H1668 0.950 . S
C1676 C1677 1.386 . S
C1676 C1678 1.391 . S
C1677 C1676 1.386 . S
C1677 C1681 1.393 . S
C1678 H1670 0.950 . S
C1678 C1676 1.391 . S
C1678 C1679 1.400 . S
C1679 C1678 1.400 . S
C1679 C1680 1.398 . S
C1679 C1685 1.491 . S
C1680 H1671 0.950 . S
C1680 C1679 1.398 . S
C1680 C1681 1.391 . S
C1681 H1669 0.950 . S
C1681 C1677 1.393 . S
C1681 C1680 1.391 . S
C1682 H1672 0.950 . S
C1682 C1683 1.386 . S
C1682 C1684 1.391 . S
C1683 C1682 1.386 . S
C1683 C1687 1.393 . S
C1684 H1673 0.950 . S
C1684 C1682 1.391 . S
C1684 C1685 1.400 . S
C1685 C1679 1.491 . S
C1685 C1684 1.400 . S
C1685 C1686 1.398 . S
C1686 H1674 0.950 . S
C1686 C1685 1.398 . S
C1686 C1687 1.391 . S
C1687 H1675 0.950 . S
C1687 C1683 1.393 . S
C1687 C1686 1.391 . S
H1688 C1696 0.950 . S
H1689 C1701 0.950 . S
H1690 C1698 0.950 . S
H1691 C1700 0.950 . S
H1692 C1702 0.950 . S
H1693 C1704 0.950 . S
H1694 C1706 0.950 . S
H1695 C1707 0.950 . S
C1696 H1688 0.950 . S
C1696 C1697 1.386 . S
C1696 C1698 1.391 . S
C1697 C1696 1.386 . S
C1697 C1701 1.393 . S
C1698 H1690 0.950 . S
C1698 C1696 1.391 . S
C1698 C1699 1.400 . S
C1699 C1698 1.400 . S
C1699 C1700 1.398 . S
C1699 C1705 1.491 . S
C1700 H1691 0.950 . S
C1700 C1699 1.398 . S
C1700 C1701 1.391 . S
C1701 H1689 0.950 . S
C1701 C1697 1.393 . S
C1701 C1700 1.391 . S
C1702 H1692 0.950 . S
C1702 C1703 1.386 . S
C1702 C1704 1.391 . S
C1703 C1702 1.386 . S
C1703 C1707 1.393 . S
C1704 H1693 0.950 . S
C1704 C1702 1.391 . S
C1704 C1705 1.400 . S
C1705 C1699 1.491 . S
C1705 C1704 1.400 . S
C1705 C1706 1.398 . S
C1706 H1694 0.950 . S
C1706 C1705 1.398 . S
C1706 C1707 1.391 . S
C1707 H1695 0.950 . S
C1707 C1703 1.393 . S
C1707 C1706 1.391 . S
H1708 C1716 0.950 . S
H1709 C1721 0.950 . S
H1710 C1718 0.950 . S
H1711 C1720 0.950 . S
H1712 C1722 0.950 . S
H1713 C1724 0.950 . S
H1714 C1726 0.950 . S
H1715 C1727 0.950 . S
C1716 H1708 0.950 . S
C1716 C1717 1.386 . S
C1716 C1718 1.391 . S
C1717 C1716 1.386 . S
C1717 C1721 1.393 . S
C1718 H1710 0.950 . S
C1718 C1716 1.391 . S
C1718 C1719 1.400 . S
C1719 C1718 1.400 . S
C1719 C1720 1.398 . S
C1719 C1725 1.491 . S
C1720 H1711 0.950 . S
C1720 C1719 1.398 . S
C1720 C1721 1.391 . S
C1721 H1709 0.950 . S
C1721 C1717 1.393 . S
C1721 C1720 1.391 . S
C1722 H1712 0.950 . S
C1722 C1723 1.386 . S
C1722 C1724 1.391 . S
C1723 C1722 1.386 . S
C1723 C1727 1.393 . S
C1724 H1713 0.950 . S
C1724 C1722 1.391 . S
C1724 C1725 1.400 . S
C1725 C1719 1.491 . S
C1725 C1724 1.400 . S
C1725 C1726 1.398 . S
C1726 H1714 0.950 . S
C1726 C1725 1.398 . S
C1726 C1727 1.391 . S
C1727 H1715 0.950 . S
C1727 C1723 1.393 . S
C1727 C1726 1.391 . S
C457 C410 1.216 . S
C463 C4 1.205 . S
C477 C18 1.209 . S
C483 C424 1.212 . S
C497 C438 1.222 . S
C503 C32 1.199 . S
C517 C396 1.220 . S
C523 C46 1.201 . S
C537 C60 1.222 . S
C543 C382 1.200 . S
C557 C340 1.199 . S
C563 C74 1.222 . S
C577 C88 1.210 . S
C583 C354 1.211 . S
C597 C368 1.211 . S
C603 C102 1.210 . S
C617 C116 1.204 . S
C623 C298 1.217 . S
C637 C130 1.222 . S
C643 C312 1.199 . S
C657 C326 1.216 . S
C663 C144 1.205 . S
C677 C158 1.199 . S
C683 C284 1.222 . S
C697 C270 1.202 . S
C703 C172 1.219 . S
C717 C228 1.200 . S
C723 C186 1.221 . S
C737 C200 1.199 . S
C743 C242 1.222 . S
C757 C214 1.199 . S
C763 C256 1.222 . S
C777 C5 1.313 . S
C783 C145 1.266 . S
C797 C159 1.289 . S
C803 C19 1.290 . S
C817 C117 1.307 . S
C823 C33 1.272 . S
C837 C131 1.293 . S
C843 C47 1.286 . S
C857 C61 1.305 . S
C863 C201 1.274 . S
C877 C215 1.281 . S
C883 C75 1.299 . S
C897 C173 1.278 . S
C903 C89 1.301 . S
C917 C187 1.304 . S
C923 C103 1.275 . S
C937 C229 1.303 . S
C943 C369 1.276 . S
C957 C383 1.301 . S
C963 C243 1.278 . S
C977 C341 1.290 . S
C983 C257 1.289 . S
C997 C271 1.312 . S
C1003 C355 1.267 . S
C1017 C285 1.265 . S
C1023 C425 1.313 . S
C1037 C439 1.291 . S
C1043 C299 1.288 . S
C1057 C397 1.296 . S
C1063 C313 1.283 . S
C1077 C327 1.293 . S
C1083 C411 1.286 . S
C1097 C11 1.171 . S
C1103 C67 1.170 . S
C1117 C25 1.153 . S
C1123 C81 1.152 . S
C1137 C95 1.153 . S
C1143 C39 1.155 . S
C1157 C53 1.154 . S
C1163 C109 1.157 . S
C1177 C123 1.158 . S
C1183 C179 1.162 . S
C1197 C193 1.156 . S
C1203 C137 1.159 . S
C1217 C207 1.171 . S
C1223 C151 1.169 . S
C1237 C165 1.153 . S
C1243 C221 1.152 . S
C1257 C235 1.158 . S
C1263 C291 1.155 . S
C1277 C305 1.161 . S
C1283 C249 1.165 . S
C1297 C263 1.172 . S
C1303 C319 1.170 . S
C1317 C333 1.171 . S
C1323 C277 1.169 . S
C1337 C403 1.172 . S
C1343 C347 1.171 . S
C1357 C361 1.155 . S
C1363 C417 1.157 . S
C1377 C375 1.152 . S
C1383 C431 1.153 . S
C1397 C389 1.157 . S
C1403 C445 1.160 . S
C1417 C12 1.531 . S
C1423 C82 1.531 . S
C1437 C26 1.534 . S
C1443 C96 1.528 . S
C1457 C110 1.531 . S
C1463 C40 1.531 . S
C1477 C68 1.530 . S
C1483 C54 1.533 . S
C1497 C194 1.532 . S
C1503 C124 1.529 . S
C1517 C208 1.534 . S
C1523 C138 1.528 . S
C1537 C222 1.534 . S
C1543 C152 1.528 . S
C1557 C166 1.533 . S
C1563 C180 1.529 . S
C1577 C236 1.533 . S
C1583 C306 1.529 . S
C1597 C320 1.528 . S
C1603 C250 1.533 . S
C1617 C334 1.528 . S
C1623 C264 1.534 . S
C1637 C278 1.533 . S
C1643 C292 1.529 . S
C1657 C418 1.532 . S
C1663 C348 1.530 . S
C1677 C362 1.531 . S
C1683 C432 1.530 . S
C1697 C376 1.529 . S
C1703 C446 1.533 . S
C1717 C404 1.533 . S
C1723 C390 1.528 . S
