# Generated by pormake.
# Topology wgf, (5)-cn, num edge types: 1
# Building blocks:
#     Node 0, Type 0, BuildingBlock: BEQFEK_clean_sbu_0, # of connection points: 5
#     Node 1, Type 0, BuildingBlock: BEQFEK_clean_sbu_0, # of connection points: 5
#     Node 2, Type 0, BuildingBlock: BEQFEK_clean_sbu_0, # of connection points: 5
#     Node 3, Type 0, BuildingBlock: BEQFEK_clean_sbu_0, # of connection points: 5
#     Node 4, Type 0, BuildingBlock: BEQFEK_clean_sbu_0, # of connection points: 5
#     Node 5, Type 0, BuildingBlock: BEQFEK_clean_sbu_0, # of connection points: 5
#     Node 6, Type 0, BuildingBlock: BEQFEK_clean_sbu_0, # of connection points: 5
#     Node 7, Type 0, BuildingBlock: BEQFEK_clean_sbu_0, # of connection points: 5
#     Node 8, Type 0, BuildingBlock: BEQFEK_clean_sbu_0, # of connection points: 5
#     Node 9, Type 0, BuildingBlock: BEQFEK_clean_sbu_0, # of connection points: 5
#     Node 10, Type 0, BuildingBlock: BEQFEK_clean_sbu_0, # of connection points: 5
#     Node 11, Type 0, BuildingBlock: BEQFEK_clean_sbu_0, # of connection points: 5
#     Node 12, Type 0, BuildingBlock: BEQFEK_clean_sbu_0, # of connection points: 5
#     Node 13, Type 0, BuildingBlock: BEQFEK_clean_sbu_0, # of connection points: 5
#     Node 14, Type 0, BuildingBlock: BEQFEK_clean_sbu_0, # of connection points: 5
#     Node 15, Type 0, BuildingBlock: BEQFEK_clean_sbu_0, # of connection points: 5
#     Node 16, Type 0, BuildingBlock: BEQFEK_clean_sbu_0, # of connection points: 5
#     Node 17, Type 0, BuildingBlock: BEQFEK_clean_sbu_0, # of connection points: 5
#     Node 18, Type 0, BuildingBlock: BEQFEK_clean_sbu_0, # of connection points: 5
#     Node 19, Type 0, BuildingBlock: BEQFEK_clean_sbu_0, # of connection points: 5
#     Node 20, Type 0, BuildingBlock: BEQFEK_clean_sbu_0, # of connection points: 5
#     Node 21, Type 0, BuildingBlock: BEQFEK_clean_sbu_0, # of connection points: 5
#     Node 22, Type 0, BuildingBlock: BEQFEK_clean_sbu_0, # of connection points: 5
#     Node 23, Type 0, BuildingBlock: BEQFEK_clean_sbu_0, # of connection points: 5
#     Node 24, Type 0, BuildingBlock: BEQFEK_clean_sbu_0, # of connection points: 5
#     Node 25, Type 0, BuildingBlock: BEQFEK_clean_sbu_0, # of connection points: 5
#     Node 26, Type 0, BuildingBlock: BEQFEK_clean_sbu_0, # of connection points: 5
#     Node 27, Type 0, BuildingBlock: BEQFEK_clean_sbu_0, # of connection points: 5
#     Node 28, Type 0, BuildingBlock: BEQFEK_clean_sbu_0, # of connection points: 5
#     Node 29, Type 0, BuildingBlock: BEQFEK_clean_sbu_0, # of connection points: 5
#     Node 30, Type 0, BuildingBlock: BEQFEK_clean_sbu_0, # of connection points: 5
#     Node 31, Type 0, BuildingBlock: BEQFEK_clean_sbu_0, # of connection points: 5
#     Edge 32, Type (0, 0), BuildingBlock: XIVTED_clean_linker_0, # of connection points: 2
#     Edge 33, Type (0, 0), BuildingBlock: XIVTED_clean_linker_0, # of connection points: 2
#     Edge 34, Type (0, 0), BuildingBlock: XIVTED_clean_linker_0, # of connection points: 2
#     Edge 35, Type (0, 0), BuildingBlock: XIVTED_clean_linker_0, # of connection points: 2
#     Edge 36, Type (0, 0), BuildingBlock: XIVTED_clean_linker_0, # of connection points: 2
#     Edge 37, Type (0, 0), BuildingBlock: XIVTED_clean_linker_0, # of connection points: 2
#     Edge 38, Type (0, 0), BuildingBlock: XIVTED_clean_linker_0, # of connection points: 2
#     Edge 39, Type (0, 0), BuildingBlock: XIVTED_clean_linker_0, # of connection points: 2
#     Edge 40, Type (0, 0), BuildingBlock: XIVTED_clean_linker_0, # of connection points: 2
#     Edge 41, Type (0, 0), BuildingBlock: XIVTED_clean_linker_0, # of connection points: 2
#     Edge 42, Type (0, 0), BuildingBlock: XIVTED_clean_linker_0, # of connection points: 2
#     Edge 43, Type (0, 0), BuildingBlock: XIVTED_clean_linker_0, # of connection points: 2
#     Edge 44, Type (0, 0), BuildingBlock: XIVTED_clean_linker_0, # of connection points: 2
#     Edge 45, Type (0, 0), BuildingBlock: XIVTED_clean_linker_0, # of connection points: 2
#     Edge 46, Type (0, 0), BuildingBlock: XIVTED_clean_linker_0, # of connection points: 2
#     Edge 47, Type (0, 0), BuildingBlock: XIVTED_clean_linker_0, # of connection points: 2
#     Edge 48, Type (0, 0), BuildingBlock: XIVTED_clean_linker_0, # of connection points: 2
#     Edge 49, Type (0, 0), BuildingBlock: XIVTED_clean_linker_0, # of connection points: 2
#     Edge 50, Type (0, 0), BuildingBlock: XIVTED_clean_linker_0, # of connection points: 2
#     Edge 51, Type (0, 0), BuildingBlock: XIVTED_clean_linker_0, # of connection points: 2
#     Edge 52, Type (0, 0), BuildingBlock: XIVTED_clean_linker_0, # of connection points: 2
#     Edge 53, Type (0, 0), BuildingBlock: XIVTED_clean_linker_0, # of connection points: 2
#     Edge 54, Type (0, 0), BuildingBlock: XIVTED_clean_linker_0, # of connection points: 2
#     Edge 55, Type (0, 0), BuildingBlock: XIVTED_clean_linker_0, # of connection points: 2
#     Edge 56, Type (0, 0), BuildingBlock: XIVTED_clean_linker_0, # of connection points: 2
#     Edge 57, Type (0, 0), BuildingBlock: XIVTED_clean_linker_0, # of connection points: 2
#     Edge 58, Type (0, 0), BuildingBlock: XIVTED_clean_linker_0, # of connection points: 2
#     Edge 59, Type (0, 0), BuildingBlock: XIVTED_clean_linker_0, # of connection points: 2
#     Edge 60, Type (0, 0), BuildingBlock: XIVTED_clean_linker_0, # of connection points: 2
#     Edge 61, Type (0, 0), BuildingBlock: XIVTED_clean_linker_0, # of connection points: 2
#     Edge 62, Type (0, 0), BuildingBlock: XIVTED_clean_linker_0, # of connection points: 2
#     Edge 63, Type (0, 0), BuildingBlock: XIVTED_clean_linker_0, # of connection points: 2
#     Edge 64, Type (0, 0), BuildingBlock: XIVTED_clean_linker_0, # of connection points: 2
#     Edge 65, Type (0, 0), BuildingBlock: XIVTED_clean_linker_0, # of connection points: 2
#     Edge 66, Type (0, 0), BuildingBlock: XIVTED_clean_linker_0, # of connection points: 2
#     Edge 67, Type (0, 0), BuildingBlock: XIVTED_clean_linker_0, # of connection points: 2
#     Edge 68, Type (0, 0), BuildingBlock: XIVTED_clean_linker_0, # of connection points: 2
#     Edge 69, Type (0, 0), BuildingBlock: XIVTED_clean_linker_0, # of connection points: 2
#     Edge 70, Type (0, 0), BuildingBlock: XIVTED_clean_linker_0, # of connection points: 2
#     Edge 71, Type (0, 0), BuildingBlock: XIVTED_clean_linker_0, # of connection points: 2
#     Edge 72, Type (0, 0), BuildingBlock: XIVTED_clean_linker_0, # of connection points: 2
#     Edge 73, Type (0, 0), BuildingBlock: XIVTED_clean_linker_0, # of connection points: 2
#     Edge 74, Type (0, 0), BuildingBlock: XIVTED_clean_linker_0, # of connection points: 2
#     Edge 75, Type (0, 0), BuildingBlock: XIVTED_clean_linker_0, # of connection points: 2
#     Edge 76, Type (0, 0), BuildingBlock: XIVTED_clean_linker_0, # of connection points: 2
#     Edge 77, Type (0, 0), BuildingBlock: XIVTED_clean_linker_0, # of connection points: 2
#     Edge 78, Type (0, 0), BuildingBlock: XIVTED_clean_linker_0, # of connection points: 2
#     Edge 79, Type (0, 0), BuildingBlock: XIVTED_clean_linker_0, # of connection points: 2
#     Edge 80, Type (0, 0), BuildingBlock: XIVTED_clean_linker_0, # of connection points: 2
#     Edge 81, Type (0, 0), BuildingBlock: XIVTED_clean_linker_0, # of connection points: 2
#     Edge 82, Type (0, 0), BuildingBlock: XIVTED_clean_linker_0, # of connection points: 2
#     Edge 83, Type (0, 0), BuildingBlock: XIVTED_clean_linker_0, # of connection points: 2
#     Edge 84, Type (0, 0), BuildingBlock: XIVTED_clean_linker_0, # of connection points: 2
#     Edge 85, Type (0, 0), BuildingBlock: XIVTED_clean_linker_0, # of connection points: 2
#     Edge 86, Type (0, 0), BuildingBlock: XIVTED_clean_linker_0, # of connection points: 2
#     Edge 87, Type (0, 0), BuildingBlock: XIVTED_clean_linker_0, # of connection points: 2
#     Edge 88, Type (0, 0), BuildingBlock: XIVTED_clean_linker_0, # of connection points: 2
#     Edge 89, Type (0, 0), BuildingBlock: XIVTED_clean_linker_0, # of connection points: 2
#     Edge 90, Type (0, 0), BuildingBlock: XIVTED_clean_linker_0, # of connection points: 2
#     Edge 91, Type (0, 0), BuildingBlock: XIVTED_clean_linker_0, # of connection points: 2
#     Edge 92, Type (0, 0), BuildingBlock: XIVTED_clean_linker_0, # of connection points: 2
#     Edge 93, Type (0, 0), BuildingBlock: XIVTED_clean_linker_0, # of connection points: 2
#     Edge 94, Type (0, 0), BuildingBlock: XIVTED_clean_linker_0, # of connection points: 2
#     Edge 95, Type (0, 0), BuildingBlock: XIVTED_clean_linker_0, # of connection points: 2
#     Edge 96, Type (0, 0), BuildingBlock: XIVTED_clean_linker_0, # of connection points: 2
#     Edge 97, Type (0, 0), BuildingBlock: XIVTED_clean_linker_0, # of connection points: 2
#     Edge 98, Type (0, 0), BuildingBlock: XIVTED_clean_linker_0, # of connection points: 2
#     Edge 99, Type (0, 0), BuildingBlock: XIVTED_clean_linker_0, # of connection points: 2
#     Edge 100, Type (0, 0), BuildingBlock: XIVTED_clean_linker_0, # of connection points: 2
#     Edge 101, Type (0, 0), BuildingBlock: XIVTED_clean_linker_0, # of connection points: 2
#     Edge 102, Type (0, 0), BuildingBlock: XIVTED_clean_linker_0, # of connection points: 2
#     Edge 103, Type (0, 0), BuildingBlock: XIVTED_clean_linker_0, # of connection points: 2
#     Edge 104, Type (0, 0), BuildingBlock: XIVTED_clean_linker_0, # of connection points: 2
#     Edge 105, Type (0, 0), BuildingBlock: XIVTED_clean_linker_0, # of connection points: 2
#     Edge 106, Type (0, 0), BuildingBlock: XIVTED_clean_linker_0, # of connection points: 2
#     Edge 107, Type (0, 0), BuildingBlock: XIVTED_clean_linker_0, # of connection points: 2
#     Edge 108, Type (0, 0), BuildingBlock: XIVTED_clean_linker_0, # of connection points: 2
#     Edge 109, Type (0, 0), BuildingBlock: XIVTED_clean_linker_0, # of connection points: 2
#     Edge 110, Type (0, 0), BuildingBlock: XIVTED_clean_linker_0, # of connection points: 2
#     Edge 111, Type (0, 0), BuildingBlock: XIVTED_clean_linker_0, # of connection points: 2
# Relax obj value: 0.595
# Max RMSD: 0.178
# Mean RMSD: 0.177
data_MOF--net-wgf--node1-BEQFEK_clean_sbu_0--edge1-XIVTED_clean_linker_0
_symmetry_space_group_name_H-M    P1
_symmetry_Int_Tables_number       1
_symmetry_cell_setting            triclinic
loop_
_symmetry_equiv_pos_as_xyz
'x, y, z'
_cell_length_a     82.828621
_cell_length_b     82.852205
_cell_length_c     25.069798
_cell_angle_alpha  89.980151
_cell_angle_beta   89.921205
_cell_angle_gamma 90.024779
loop_
_atom_site_label
_atom_site_type_symbol
_atom_site_fract_x
_atom_site_fract_y
_atom_site_fract_z
_atom_type_partial_charge
Co0 Co 0.07015 0.0527 0.11396 0.0
Co1 Co 0.05153 0.07948 0.05695 0.0
C2 C 0.03738 0.06483 0.15403 0.0
O3 O 0.05034 0.05658 0.15854 0.0
O4 O 0.03525 0.0742 0.11409 0.0
C5 C 0.08917 0.04026 0.18933 0.0
O6 O 0.08504 0.05443 0.20845 0.0
C7 C 0.03166 0.09911 0.98323 0.0
C8 C 0.04915 0.11848 0.96455 0.0
C9 C 0.03405 0.11265 0.95145 0.0
N10 N 0.04491 0.09691 0.01294 0.0
N11 N 0.05507 0.10886 0.00278 0.0
C12 C 0.01795 0.08737 0.9807 0.0
H13 H 0.02076 0.07632 0.00393 0.0
H14 H 0.01527 0.08419 0.93863 0.0
H15 H 0.00698 0.09313 0.99759 0.0
C16 C 0.06737 0.03589 0.01035 0.0
N17 N 0.06481 0.04873 0.04218 0.0
N18 N 0.0574 0.06022 0.01543 0.0
C19 C 0.05519 0.05489 0.96471 0.0
C20 C 0.06137 0.03924 0.95984 0.0
C21 C 0.07478 0.02043 0.0292 0.0
H22 H 0.07044 0.01761 0.07003 0.0
H23 H 0.0718 0.01024 0.00227 0.0
H24 H 0.08808 0.0219 0.03083 0.0
O25 O 0.08579 0.0704 0.11829 0.0
O26 O 0.07018 0.09014 0.09201 0.0
H27 H 0.0529 0.06079 0.88138 0.0
H28 H 0.0348 0.06282 0.92017 0.0
C29 C 0.04805 0.06468 0.92061 0.0
H30 H 0.0507 0.07766 0.92653 0.0
H31 H 0.06657 0.10995 0.01926 0.0
O32 O 0.08271 0.03534 0.14632 0.0
C33 C 0.08335 0.08527 0.11167 0.0
Co34 Co 0.19656 0.82243 0.35709 0.0
Co35 Co 0.17129 0.80289 0.29758 0.0
C36 C 0.18293 0.78994 0.39873 0.0
O37 O 0.19097 0.80306 0.40287 0.0
O38 O 0.17474 0.78698 0.3567 0.0
C39 C 0.20652 0.84018 0.43792 0.0
O40 O 0.19142 0.83647 0.44837 0.0
C41 C 0.1494 0.78249 0.23297 0.0
C42 C 0.13499 0.80173 0.19448 0.0
C43 C 0.13649 0.78515 0.19838 0.0
N44 N 0.15505 0.79688 0.24867 0.0
N45 N 0.14628 0.80829 0.22598 0.0
C46 C 0.15711 0.76681 0.24816 0.0
H47 H 0.16895 0.76893 0.26766 0.0
H48 H 0.15885 0.75913 0.21236 0.0
H49 H 0.14916 0.76032 0.27662 0.0
C50 C 0.21558 0.81826 0.25689 0.0
N51 N 0.20234 0.81616 0.28742 0.0
N52 N 0.19143 0.80794 0.26076 0.0
C53 C 0.19758 0.80432 0.21214 0.0
C54 C 0.21319 0.81073 0.20777 0.0
C55 C 0.22988 0.82802 0.2739 0.0
H56 H 0.22605 0.83779 0.30135 0.0
H57 H 0.23845 0.82008 0.29555 0.0
H58 H 0.23615 0.83336 0.23896 0.0
O59 O 0.17911 0.83833 0.35362 0.0
O60 O 0.15993 0.82166 0.32978 0.0
H61 H 0.18007 0.80164 0.15039 0.0
H62 H 0.19751 0.7887 0.14294 0.0
C63 C 0.18898 0.79409 0.17204 0.0
H64 H 0.18232 0.78431 0.1926 0.0
H65 H 0.14813 0.82063 0.23154 0.0
O66 O 0.2131 0.8344 0.39618 0.0
C67 C 0.16433 0.83531 0.34704 0.0
Co68 Co 0.43738 0.94284 0.61164 0.0
Co69 Co 0.45275 0.91537 0.54648 0.0
C70 C 0.471 0.93035 0.63673 0.0
O71 O 0.45889 0.9395 0.64543 0.0
O72 O 0.47085 0.92012 0.59848 0.0
C73 C 0.42312 0.95546 0.69575 0.0
O74 O 0.42967 0.94193 0.71243 0.0
C75 C 0.4701 0.89714 0.46297 0.0
C76 C 0.45183 0.87846 0.44532 0.0
C77 C 0.46643 0.88463 0.42815 0.0
N78 N 0.45801 0.89848 0.49827 0.0
N79 N 0.44745 0.88687 0.48868 0.0
C80 C 0.48373 0.90893 0.45846 0.0
H81 H 0.48136 0.91977 0.48326 0.0
H82 H 0.4857 0.91245 0.41624 0.0
H83 H 0.49496 0.90305 0.47268 0.0
C84 C 0.43617 0.95943 0.50759 0.0
N85 N 0.43962 0.94649 0.538 0.0
N86 N 0.4457 0.93487 0.50828 0.0
C87 C 0.446 0.94022 0.45701 0.0
C88 C 0.4401 0.956 0.45497 0.0
C89 C 0.43004 0.97507 0.52954 0.0
H90 H 0.41693 0.97391 0.53785 0.0
H91 H 0.43622 0.97782 0.56769 0.0
H92 H 0.432 0.98518 0.5012 0.0
O93 O 0.42241 0.9248 0.62543 0.0
O94 O 0.43503 0.90475 0.58654 0.0
H95 H 0.44785 0.91743 0.41667 0.0
H96 H 0.44466 0.93453 0.37329 0.0
C97 C 0.45087 0.93028 0.40991 0.0
H98 H 0.46403 0.93157 0.40346 0.0
H99 H 0.43655 0.88542 0.50903 0.0
O100 O 0.42618 0.96031 0.64874 0.0
C101 C 0.42349 0.90995 0.61479 0.0
Co102 Co 0.30234 0.17814 0.8356 0.0
Co103 Co 0.33205 0.1957 0.79242 0.0
C104 C 0.31515 0.21016 0.88262 0.0
O105 O 0.30602 0.19777 0.88137 0.0
O106 O 0.32611 0.2121 0.84747 0.0
C107 C 0.26965 0.18191 0.84581 0.0
O108 O 0.27343 0.19559 0.82229 0.0
C109 C 0.35547 0.21567 0.73457 0.0
C110 C 0.37395 0.19749 0.71357 0.0
C111 C 0.36981 0.21354 0.70645 0.0
N112 N 0.35133 0.20152 0.7565 0.0
N113 N 0.36264 0.19081 0.7451 0.0
C114 C 0.34476 0.23022 0.73537 0.0
H115 H 0.35049 0.2398 0.75975 0.0
H116 H 0.33283 0.22724 0.75301 0.0
H117 H 0.34308 0.23499 0.69437 0.0
C118 C 0.29252 0.17874 0.72259 0.0
N119 N 0.30311 0.18227 0.7616 0.0
N120 N 0.31473 0.19141 0.74252 0.0
C121 C 0.31124 0.19477 0.69079 0.0
C122 C 0.297 0.18686 0.67671 0.0
C123 C 0.27813 0.16793 0.7291 0.0
H124 H 0.27978 0.15966 0.76334 0.0
H125 H 0.26715 0.17539 0.73495 0.0
H126 H 0.27622 0.16051 0.69294 0.0
O127 O 0.31762 0.16132 0.85603 0.0
O128 O 0.33879 0.17565 0.83052 0.0
H129 H 0.3342 0.20218 0.65996 0.0
H130 H 0.31776 0.20358 0.61265 0.0
C131 C 0.32126 0.20518 0.65506 0.0
H132 H 0.3194 0.21799 0.66618 0.0
H133 H 0.36222 0.1787 0.75649 0.0
O134 O 0.28065 0.17155 0.85406 0.0
C135 C 0.33279 0.16314 0.85237 0.0
Co136 Co 0.07285 0.94778 0.49623 0.0
Co137 Co 0.05392 0.921 0.55287 0.0
C138 C 0.04009 0.93611 0.45554 0.0
O139 O 0.05293 0.9446 0.45147 0.0
O140 O 0.03812 0.92641 0.49472 0.0
C141 C 0.09399 0.96102 0.42526 0.0
O142 O 0.09164 0.94662 0.4048 0.0
C143 C 0.03186 0.90118 0.61751 0.0
C144 C 0.04887 0.88261 0.64702 0.0
C145 C 0.03293 0.88746 0.64926 0.0
N146 N 0.04652 0.90417 0.59727 0.0
N147 N 0.05656 0.89288 0.61428 0.0
C148 C 0.01776 0.91228 0.61093 0.0
H149 H 0.02159 0.9238 0.59214 0.0
H150 H 0.01208 0.91476 0.65022 0.0
H151 H 0.00861 0.90643 0.58508 0.0
C152 C 0.06997 0.96422 0.60076 0.0
N153 N 0.06752 0.95149 0.56833 0.0
N154 N 0.05961 0.94013 0.59408 0.0
C155 C 0.05671 0.94544 0.64436 0.0
C156 C 0.06322 0.96092 0.6504 0.0
C157 C 0.07783 0.97958 0.58309 0.0
H158 H 0.09106 0.97765 0.58007 0.0
H159 H 0.07335 0.98296 0.54293 0.0
H160 H 0.07542 0.98962 0.61127 0.0
O161 O 0.08771 0.92951 0.49007 0.0
O162 O 0.07249 0.9098 0.51942 0.0
H163 H 0.05187 0.92304 0.68418 0.0
H164 H 0.0505 0.94067 0.72662 0.0
C165 C 0.04807 0.93585 0.68612 0.0
H166 H 0.0349 0.93643 0.6785 0.0
H167 H 0.06883 0.89248 0.60503 0.0
O168 O 0.08589 0.96528 0.46603 0.0
C169 C 0.08541 0.91466 0.49786 0.0
Co170 Co 0.30786 0.82014 0.74791 0.0
Co171 Co 0.33289 0.79964 0.80512 0.0
C172 C 0.31866 0.787 0.7054 0.0
O173 O 0.31055 0.8001 0.70213 0.0
O174 O 0.32795 0.78443 0.74517 0.0
C175 C 0.27612 0.82828 0.71513 0.0
O176 O 0.27211 0.81387 0.73261 0.0
C177 C 0.35749 0.77852 0.854 0.0
C178 C 0.36268 0.79275 0.92648 0.0
C179 C 0.36682 0.77859 0.90031 0.0
N180 N 0.34814 0.79175 0.85424 0.0
N181 N 0.35161 0.80039 0.89689 0.0
C182 C 0.35826 0.76706 0.80795 0.0
H183 H 0.35624 0.77367 0.77007 0.0
H184 H 0.34854 0.75791 0.8121 0.0
H185 H 0.37018 0.76097 0.80603 0.0
C186 C 0.29123 0.81868 0.85443 0.0
N187 N 0.30348 0.81521 0.82065 0.0
N188 N 0.31352 0.80523 0.8441 0.0
C189 C 0.30747 0.80131 0.89267 0.0
C190 C 0.29305 0.80971 0.90106 0.0
C191 C 0.27897 0.83164 0.84495 0.0
H192 H 0.28382 0.8409 0.81732 0.0
H193 H 0.2679 0.82628 0.82754 0.0
H194 H 0.27556 0.83753 0.88311 0.0
O195 O 0.32652 0.83434 0.74002 0.0
O196 O 0.34493 0.81857 0.77587 0.0
H197 H 0.32281 0.79481 0.95759 0.0
H198 H 0.30512 0.78237 0.95112 0.0
C199 C 0.31469 0.78882 0.92854 0.0
H200 H 0.32182 0.77999 0.90502 0.0
H201 H 0.34619 0.8114 0.90616 0.0
O202 O 0.29061 0.83295 0.71823 0.0
C203 C 0.34107 0.83155 0.75217 0.0
Co204 Co 0.42248 0.04766 0.99499 0.0
Co205 Co 0.44136 0.07496 0.05064 0.0
C206 C 0.45467 0.06001 0.95166 0.0
O207 O 0.44213 0.05104 0.94863 0.0
O208 O 0.45654 0.06978 0.99059 0.0
C209 C 0.39562 0.02872 0.9586 0.0
O210 O 0.38703 0.04188 0.96494 0.0
C211 C 0.46387 0.09492 0.11333 0.0
C212 C 0.4475 0.11466 0.13818 0.0
C213 C 0.46322 0.1092 0.14262 0.0
N214 N 0.44918 0.09219 0.09285 0.0
N215 N 0.43954 0.10415 0.10716 0.0
C216 C 0.47756 0.08324 0.10835 0.0
H217 H 0.48684 0.08832 0.08115 0.0
H218 H 0.47329 0.07162 0.09148 0.0
H219 H 0.48321 0.08113 0.14786 0.0
C220 C 0.42627 0.03181 0.10032 0.0
N221 N 0.42826 0.04458 0.06759 0.0
N222 N 0.43635 0.05597 0.09252 0.0
C223 C 0.43975 0.05068 0.14245 0.0
C224 C 0.43347 0.03516 0.14912 0.0
C225 C 0.41868 0.01623 0.08333 0.0
H226 H 0.42427 0.01215 0.04544 0.0
H227 H 0.42015 0.00662 0.11373 0.0
H228 H 0.40564 0.01824 0.07582 0.0
O229 O 0.40742 0.06575 0.98513 0.0
O230 O 0.42194 0.08521 0.02022 0.0
H231 H 0.4458 0.05595 0.22429 0.0
H232 H 0.46182 0.05887 0.17674 0.0
C233 C 0.44866 0.06027 0.18345 0.0
H234 H 0.44552 0.07323 0.18005 0.0
H235 H 0.42736 0.10495 0.09701 0.0
O236 O 0.41064 0.0287 0.96921 0.0
C237 C 0.40932 0.08049 0.99651 0.0
Co238 Co 0.19554 0.18011 0.24548 0.0
Co239 Co 0.16894 0.19686 0.30847 0.0
C240 C 0.18104 0.21302 0.21308 0.0
O241 O 0.18957 0.20037 0.20697 0.0
O242 O 0.17205 0.21458 0.25417 0.0
C243 C 0.22338 0.18363 0.19076 0.0
O244 O 0.22257 0.19795 0.21315 0.0
C245 C 0.14829 0.21536 0.38148 0.0
C246 C 0.13255 0.19592 0.41269 0.0
C247 C 0.13571 0.21225 0.41676 0.0
N248 N 0.15227 0.20148 0.35754 0.0
N249 N 0.14265 0.18997 0.37561 0.0
C250 C 0.15764 0.2307 0.37488 0.0
H251 H 0.16905 0.22846 0.35287 0.0
H252 H 0.16037 0.23606 0.41444 0.0
H253 H 0.15028 0.23948 0.35204 0.0
C254 C 0.21293 0.1812 0.34758 0.0
N255 N 0.19976 0.18398 0.31763 0.0
N256 N 0.18884 0.19173 0.34574 0.0
C257 C 0.19496 0.19436 0.39511 0.0
C258 C 0.21045 0.18775 0.39786 0.0
C259 C 0.22802 0.17351 0.32653 0.0
H260 H 0.22486 0.16279 0.30216 0.0
H261 H 0.23439 0.18226 0.30053 0.0
H262 H 0.23641 0.16986 0.35863 0.0
O263 O 0.17901 0.16365 0.23471 0.0
O264 O 0.15943 0.17785 0.27132 0.0
H265 H 0.17358 0.1984 0.44138 0.0
H266 H 0.19224 0.20111 0.47791 0.0
C267 C 0.18617 0.20289 0.43891 0.0
H268 H 0.18578 0.21598 0.42982 0.0
H269 H 0.14336 0.1779 0.36406 0.0
O270 O 0.21448 0.17244 0.20858 0.0
C271 C 0.16421 0.1655 0.24579 0.0
Co272 Co 0.94567 0.93063 0.99977 0.0
Co273 Co 0.91739 0.94517 0.06358 0.0
C274 C 0.92847 0.96132 0.96385 0.0
O275 O 0.93857 0.94984 0.95828 0.0
O276 O 0.91935 0.96213 0.00507 0.0
C277 C 0.95942 0.91644 0.91779 0.0
O278 O 0.94494 0.92059 0.90141 0.0
C279 C 0.8948 0.96256 0.13651 0.0
C280 C 0.88115 0.94151 0.16695 0.0
C281 C 0.88243 0.95808 0.17131 0.0
N282 N 0.90047 0.94914 0.113 0.0
N283 N 0.89209 0.93668 0.13098 0.0
C284 C 0.90209 0.97892 0.12882 0.0
H285 H 0.91373 0.97801 0.10696 0.0
H286 H 0.90404 0.98485 0.16799 0.0
H287 H 0.89371 0.98651 0.10518 0.0
C288 C 0.96268 0.93374 0.10348 0.0
N289 N 0.9496 0.93554 0.0722 0.0
N290 N 0.93763 0.94154 0.10044 0.0
C291 C 0.9428 0.9437 0.15116 0.0
C292 C 0.95894 0.9389 0.15485 0.0
C293 C 0.97821 0.92644 0.08467 0.0
H294 H 0.97563 0.91575 0.05946 0.0
H295 H 0.98475 0.93538 0.05974 0.0
H296 H 0.98599 0.92277 0.11852 0.0
O297 O 0.92973 0.91329 0.99296 0.0
O298 O 0.90893 0.92495 0.03138 0.0
H299 H 0.92192 0.94302 0.20131 0.0
H300 H 0.93943 0.95217 0.23232 0.0
C301 C 0.93263 0.95081 0.19453 0.0
H302 H 0.92825 0.96283 0.18173 0.0
H303 H 0.89418 0.92472 0.12008 0.0
O304 O 0.96417 0.92113 0.96338 0.0
C305 C 0.91502 0.91319 0.00618 0.0
Co306 Co 0.81985 0.19922 0.74839 0.0
Co307 Co 0.80096 0.17251 0.8055 0.0
C308 C 0.78738 0.18724 0.70691 0.0
O309 O 0.80005 0.19598 0.70297 0.0
O310 O 0.78537 0.17778 0.74665 0.0
C311 C 0.82837 0.23131 0.71074 0.0
O312 O 0.81361 0.23607 0.7217 0.0
C313 C 0.77904 0.14945 0.8597 0.0
C314 C 0.79571 0.14055 0.92192 0.0
C315 C 0.77995 0.13929 0.90399 0.0
N316 N 0.79347 0.15659 0.85336 0.0
N317 N 0.80345 0.15092 0.88981 0.0
C318 C 0.76528 0.1517 0.82182 0.0
H319 H 0.76993 0.15337 0.78072 0.0
H320 H 0.75845 0.16272 0.833 0.0
H321 H 0.75711 0.14109 0.82225 0.0
C322 C 0.81849 0.2146 0.85661 0.0
N323 N 0.81515 0.2026 0.82183 0.0
N324 N 0.80667 0.19141 0.84627 0.0
C325 C 0.804 0.19618 0.89723 0.0
C326 C 0.81145 0.21105 0.90558 0.0
C327 C 0.82911 0.22875 0.84447 0.0
H328 H 0.83898 0.22511 0.81716 0.0
H329 H 0.82182 0.23831 0.82511 0.0
H330 H 0.83444 0.2338 0.88147 0.0
O331 O 0.83445 0.18093 0.73788 0.0
O332 O 0.8199 0.16143 0.77338 0.0
H333 H 0.80116 0.1779 0.95647 0.0
H334 H 0.78881 0.19546 0.96725 0.0
C335 C 0.79371 0.18721 0.93636 0.0
H336 H 0.7836 0.18115 0.91548 0.0
H337 H 0.81547 0.15453 0.89365 0.0
O338 O 0.83251 0.21688 0.71983 0.0
C339 C 0.83242 0.16614 0.74864 0.0
Co340 Co 0.55039 0.07231 0.49346 0.0
Co341 Co 0.57535 0.05276 0.55616 0.0
C342 C 0.5644 0.04037 0.45213 0.0
O343 O 0.55615 0.05331 0.44723 0.0
O344 O 0.57226 0.03742 0.4949 0.0
C345 C 0.53878 0.09156 0.4158 0.0
O346 O 0.55379 0.08906 0.40092 0.0
C347 C 0.59856 0.03228 0.61664 0.0
C348 C 0.60444 0.04971 0.6806 0.0
C349 C 0.60792 0.03434 0.66231 0.0
N350 N 0.5899 0.04581 0.60922 0.0
N351 N 0.59365 0.05619 0.64716 0.0
C352 C 0.59859 0.01838 0.57857 0.0
H353 H 0.5965 0.02274 0.53735 0.0
H354 H 0.58862 0.01001 0.58917 0.0
H355 H 0.61024 0.01179 0.58006 0.0
C356 C 0.53105 0.06835 0.59319 0.0
N357 N 0.54437 0.06605 0.56313 0.0
N358 N 0.55502 0.0577 0.59042 0.0
C359 C 0.54865 0.0542 0.63882 0.0
C360 C 0.53324 0.06092 0.6425 0.0
C361 C 0.51683 0.07811 0.5755 0.0
H362 H 0.52099 0.08879 0.55261 0.0
H363 H 0.50922 0.07064 0.54874 0.0
H364 H 0.50945 0.08215 0.60996 0.0
O365 O 0.56829 0.08773 0.49587 0.0
O366 O 0.58722 0.07205 0.52882 0.0
H367 H 0.56482 0.05124 0.70429 0.0
H368 H 0.54764 0.03794 0.70609 0.0
C369 C 0.55667 0.04372 0.67952 0.0
H370 H 0.56395 0.03424 0.65959 0.0
H371 H 0.58874 0.06775 0.65023 0.0
O372 O 0.53345 0.08445 0.45716 0.0
C373 C 0.5829 0.08532 0.50798 0.0
Co374 Co 0.68009 0.80315 0.2519 0.0
Co375 Co 0.69885 0.8302 0.30855 0.0
C376 C 0.71169 0.81633 0.20739 0.0
O377 O 0.69959 0.80679 0.20586 0.0
O378 O 0.7135 0.82628 0.24588 0.0
C379 C 0.67344 0.77132 0.2112 0.0
O380 O 0.6886 0.7678 0.22122 0.0
C381 C 0.72068 0.85314 0.36474 0.0
C382 C 0.70319 0.86266 0.42358 0.0
C383 C 0.71918 0.86372 0.40777 0.0
N384 N 0.70628 0.84607 0.35676 0.0
N385 N 0.69587 0.85203 0.39145 0.0
C386 C 0.73509 0.85029 0.32998 0.0
H387 H 0.73123 0.84769 0.28859 0.0
H388 H 0.74182 0.83964 0.34501 0.0
H389 H 0.74317 0.86098 0.32965 0.0
C390 C 0.68319 0.7872 0.35826 0.0
N391 N 0.68568 0.79956 0.32416 0.0
N392 N 0.69423 0.81079 0.34811 0.0
C393 C 0.69768 0.80575 0.3982 0.0
C394 C 0.6908 0.79059 0.40631 0.0
C395 C 0.67297 0.77276 0.34625 0.0
H396 H 0.66272 0.77622 0.32027 0.0
H397 H 0.6804 0.7636 0.32534 0.0
H398 H 0.66818 0.76728 0.38345 0.0
O399 O 0.66492 0.82121 0.24371 0.0
O400 O 0.6791 0.84065 0.2811 0.0
H401 H 0.70067 0.82433 0.45624 0.0
H402 H 0.71303 0.80678 0.46774 0.0
C403 C 0.70805 0.81487 0.43657 0.0
H404 H 0.7181 0.82084 0.41495 0.0
H405 H 0.68378 0.84854 0.39383 0.0
O406 O 0.66801 0.78515 0.22283 0.0
C407 C 0.66655 0.83589 0.2568 0.0
Co408 Co 0.94295 0.07088 0.61112 0.0
Co409 Co 0.91656 0.05234 0.55214 0.0
C410 C 0.92944 0.03903 0.65349 0.0
O411 O 0.9384 0.05153 0.65745 0.0
O412 O 0.92051 0.03688 0.61257 0.0
C413 C 0.9749 0.07746 0.65087 0.0
O414 O 0.97868 0.06248 0.63913 0.0
C415 C 0.89254 0.03143 0.49847 0.0
C416 C 0.88587 0.04763 0.43193 0.0
C417 C 0.88292 0.03244 0.45299 0.0
N418 N 0.90095 0.04523 0.50272 0.0
N419 N 0.89663 0.05496 0.46358 0.0
C420 C 0.89301 0.0183 0.53945 0.0
H421 H 0.89458 0.02359 0.57971 0.0
H422 H 0.90348 0.01031 0.53141 0.0
H423 H 0.88171 0.01111 0.53904 0.0
C424 C 0.95962 0.06861 0.50529 0.0
N425 N 0.94714 0.06566 0.53866 0.0
N426 N 0.93615 0.05716 0.51348 0.0
C427 C 0.94157 0.05399 0.46352 0.0
C428 C 0.95666 0.06117 0.45659 0.0
C429 C 0.97358 0.07941 0.51808 0.0
H430 H 0.96968 0.08925 0.54508 0.0
H431 H 0.98316 0.07225 0.53787 0.0
H432 H 0.97873 0.08479 0.48125 0.0
O433 O 0.92521 0.08624 0.61809 0.0
O434 O 0.90574 0.07186 0.58176 0.0
H435 H 0.92452 0.05108 0.40055 0.0
H436 H 0.94164 0.0378 0.39616 0.0
C437 C 0.93296 0.04353 0.42412 0.0
H438 H 0.92595 0.03404 0.44507 0.0
H439 H 0.90133 0.06652 0.45792 0.0
O440 O 0.96084 0.08266 0.64137 0.0
C441 C 0.9105 0.08447 0.60583 0.0
Co442 Co 0.67469 0.19916 0.36673 0.0
Co443 Co 0.69261 0.17266 0.30522 0.0
C444 C 0.7077 0.18571 0.40199 0.0
O445 O 0.69484 0.19401 0.40832 0.0
O446 O 0.70976 0.17703 0.3603 0.0
C447 C 0.65823 0.21047 0.44852 0.0
O448 O 0.66414 0.19652 0.4641 0.0
C449 C 0.71084 0.15115 0.23049 0.0
C450 C 0.69023 0.13648 0.20201 0.0
C451 C 0.70664 0.13874 0.19562 0.0
N452 N 0.69738 0.15597 0.25587 0.0
N453 N 0.68522 0.14696 0.23917 0.0
C454 C 0.72688 0.15924 0.23639 0.0
H455 H 0.72569 0.17058 0.25964 0.0
H456 H 0.73212 0.16185 0.19654 0.0
H457 H 0.73524 0.15103 0.25779 0.0
C458 C 0.67672 0.21654 0.26261 0.0
N459 N 0.67928 0.20367 0.29441 0.0
N460 N 0.68649 0.1922 0.26703 0.0
C461 C 0.6887 0.1975 0.2164 0.0
C462 C 0.68263 0.21319 0.21176 0.0
C463 C 0.66841 0.23162 0.28063 0.0
H464 H 0.6583 0.22854 0.30783 0.0
H465 H 0.67713 0.23917 0.30311 0.0
H466 H 0.66374 0.23865 0.24627 0.0
O467 O 0.65902 0.18145 0.37192 0.0
O468 O 0.67455 0.16182 0.34377 0.0
H469 H 0.69109 0.17655 0.16728 0.0
H470 H 0.6985 0.1949 0.13648 0.0
C471 C 0.69747 0.18812 0.17445 0.0
H472 H 0.70977 0.18527 0.18895 0.0
H473 H 0.67328 0.14835 0.25169 0.0
O474 O 0.66275 0.21624 0.40391 0.0
C475 C 0.66159 0.16657 0.36546 0.0
Co476 Co 0.55602 0.93035 0.09795 0.0
Co477 Co 0.58547 0.94795 0.05068 0.0
C478 C 0.56811 0.96246 0.1426 0.0
O479 O 0.55893 0.95008 0.14342 0.0
O480 O 0.57882 0.9642 0.10627 0.0
C481 C 0.5226 0.92482 0.12866 0.0
O482 O 0.51991 0.94034 0.12266 0.0
C483 C 0.60789 0.9679 0.98615 0.0
C484 C 0.62682 0.94976 0.96952 0.0
C485 C 0.62212 0.96537 0.95785 0.0
N486 N 0.60431 0.95429 0.01268 0.0
N487 N 0.61591 0.94368 0.00367 0.0
C488 C 0.59692 0.98221 0.98326 0.0
H489 H 0.58502 0.9794 1.00148 0.0
H490 H 0.59531 0.98607 0.9412 0.0
H491 H 0.60249 0.9924 0.0053 0.0
C492 C 0.5449 0.93102 0.98541 0.0
N493 N 0.55574 0.93467 0.02367 0.0
N494 N 0.56808 0.94233 0.00227 0.0
C495 C 0.56524 0.94395 0.94922 0.0
C496 C 0.55046 0.93683 0.93688 0.0
C497 C 0.52921 0.92258 0.99558 0.0
H498 H 0.53134 0.91163 0.02 0.0
H499 H 0.52112 0.93078 0.01805 0.0
H500 H 0.52305 0.9191 0.95811 0.0
O501 O 0.57277 0.91461 0.11622 0.0
O502 O 0.59375 0.92874 0.08909 0.0
H503 H 0.58915 0.94786 0.91905 0.0
H504 H 0.57353 0.94818 0.86872 0.0
C505 C 0.57659 0.95159 0.91032 0.0
H506 H 0.57571 0.96488 0.91396 0.0
H507 H 0.61595 0.9319 0.01834 0.0
O508 O 0.5365 0.91914 0.11929 0.0
C509 C 0.58789 0.91636 0.1117 0.0
Co510 Co 0.81739 0.80477 0.84852 0.0
Co511 Co 0.80417 0.83632 0.79979 0.0
C512 C 0.78684 0.81948 0.89055 0.0
O513 O 0.79717 0.80807 0.88962 0.0
O514 O 0.78789 0.83138 0.85818 0.0
C515 C 0.82049 0.77107 0.87941 0.0
O516 O 0.80477 0.76959 0.87458 0.0
C517 C 0.78544 0.85947 0.73492 0.0
C518 C 0.80421 0.87789 0.71957 0.0
C519 C 0.78854 0.87363 0.70697 0.0
N520 N 0.79879 0.8555 0.76221 0.0
N521 N 0.80978 0.86682 0.75399 0.0
C522 C 0.77084 0.8489 0.73105 0.0
H523 H 0.77327 0.83686 0.74875 0.0
H524 H 0.76706 0.84759 0.68881 0.0
H525 H 0.76074 0.85465 0.75308 0.0
C526 C 0.81701 0.79427 0.73541 0.0
N527 N 0.81405 0.80533 0.77363 0.0
N528 N 0.80802 0.81845 0.75171 0.0
C529 C 0.80698 0.81601 0.69831 0.0
C530 C 0.81261 0.80059 0.6864 0.0
C531 C 0.82354 0.77773 0.74596 0.0
H532 H 0.81453 0.77078 0.76924 0.0
H533 H 0.82612 0.77104 0.70862 0.0
H534 H 0.83477 0.77865 0.7698 0.0
O535 O 0.83375 0.82056 0.87239 0.0
O536 O 0.82463 0.84263 0.83345 0.0
H537 H 0.8063 0.84043 0.6699 0.0
H538 H 0.80588 0.82529 0.61793 0.0
C539 C 0.80163 0.82837 0.65869 0.0
H540 H 0.78826 0.82879 0.65821 0.0
H541 H 0.82147 0.86653 0.76936 0.0
O542 O 0.8272 0.78445 0.86913 0.0
C543 C 0.83507 0.83544 0.86164 0.0
Co544 Co 0.57603 0.54966 0.60167 0.0
Co545 Co 0.55576 0.57697 0.5519 0.0
C546 C 0.54348 0.56004 0.64843 0.0
O547 O 0.55638 0.55154 0.64927 0.0
O548 O 0.54105 0.57034 0.6114 0.0
C549 C 0.60365 0.53066 0.63015 0.0
O550 O 0.61204 0.54389 0.62242 0.0
C551 C 0.53236 0.59711 0.4935 0.0
C552 C 0.54832 0.61702 0.46731 0.0
C553 C 0.53263 0.61136 0.46395 0.0
N554 N 0.54723 0.59451 0.51262 0.0
N555 N 0.5566 0.60663 0.49784 0.0
C556 C 0.51878 0.58533 0.49988 0.0
H557 H 0.52315 0.57394 0.51815 0.0
H558 H 0.51316 0.58273 0.46066 0.0
H559 H 0.50944 0.59061 0.52637 0.0
C560 C 0.57267 0.53554 0.49372 0.0
N561 N 0.57023 0.54763 0.52873 0.0
N562 N 0.56128 0.55888 0.5065 0.0
C563 C 0.55758 0.5541 0.45621 0.0
C564 C 0.56457 0.53899 0.44648 0.0
C565 C 0.58301 0.52113 0.50522 0.0
H566 H 0.59463 0.52518 0.52245 0.0
H567 H 0.57686 0.51334 0.53501 0.0
H568 H 0.58561 0.51402 0.46876 0.0
O569 O 0.59047 0.56803 0.61448 0.0
O570 O 0.57499 0.58741 0.58339 0.0
H571 H 0.5492 0.57615 0.42114 0.0
H572 H 0.54677 0.55866 0.37878 0.0
C573 C 0.5463 0.56309 0.42038 0.0
H574 H 0.5338 0.56143 0.43517 0.0
H575 H 0.56887 0.60753 0.50682 0.0
O576 O 0.58842 0.53064 0.62345 0.0
C577 C 0.5879 0.58284 0.60579 0.0
Co578 Co 0.6923 0.32302 0.85371 0.0
Co579 Co 0.6668 0.30276 0.79791 0.0
C580 C 0.68068 0.29014 0.89754 0.0
O581 O 0.68901 0.30313 0.90017 0.0
O582 O 0.67132 0.28758 0.85802 0.0
C583 C 0.72438 0.32755 0.88171 0.0
O584 O 0.72567 0.31285 0.86244 0.0
C585 C 0.64171 0.28205 0.75004 0.0
C586 C 0.63723 0.29576 0.67595 0.0
C587 C 0.63261 0.28193 0.70325 0.0
N588 N 0.65139 0.29505 0.74903 0.0
N589 N 0.64836 0.30339 0.70537 0.0
C590 C 0.64054 0.27094 0.79694 0.0
H591 H 0.64242 0.27781 0.83439 0.0
H592 H 0.65018 0.26167 0.79418 0.0
H593 H 0.62855 0.26498 0.79858 0.0
C594 C 0.70875 0.32069 0.74809 0.0
N595 N 0.69628 0.31775 0.78141 0.0
N596 N 0.68631 0.30753 0.7589 0.0
C597 C 0.69267 0.30282 0.71157 0.0
C598 C 0.70726 0.31095 0.70319 0.0
C599 C 0.72084 0.33395 0.75583 0.0
H600 H 0.71591 0.34341 0.78254 0.0
H601 H 0.73206 0.32901 0.77343 0.0
H602 H 0.72404 0.33947 0.71687 0.0
O603 O 0.67427 0.33793 0.86147 0.0
O604 O 0.65552 0.32228 0.82658 0.0
H605 H 0.67792 0.29561 0.64607 0.0
H606 H 0.6952 0.28291 0.65698 0.0
C607 C 0.68555 0.28992 0.67716 0.0
H608 H 0.67792 0.28168 0.70131 0.0
H609 H 0.65415 0.31415 0.69522 0.0
O610 O 0.71076 0.33443 0.88163 0.0
C611 C 0.65966 0.33532 0.84948 0.0
Co612 Co 0.92935 0.44601 0.09843 0.0
Co613 Co 0.94526 0.418 0.03797 0.0
C614 C 0.96167 0.43273 0.13327 0.0
O615 O 0.94983 0.44243 0.13881 0.0
O616 O 0.96193 0.42245 0.09521 0.0
C617 C 0.91211 0.45966 0.17635 0.0
O618 O 0.91661 0.44573 0.19649 0.0
C619 C 0.96609 0.39851 0.96868 0.0
C620 C 0.94891 0.37963 0.94256 0.0
C621 C 0.96464 0.3849 0.93673 0.0
N622 N 0.95186 0.40107 0.99254 0.0
N623 N 0.94172 0.3896 0.9775 0.0
C624 C 0.98002 0.40997 0.97207 0.0
H625 H 0.97622 0.42149 0.99094 0.0
H626 H 0.98499 0.41239 0.9317 0.0
H627 H 0.98971 0.40447 0.99657 0.0
C628 C 0.93156 0.46226 0.99301 0.0
N629 N 0.93362 0.44939 0.02511 0.0
N630 N 0.93971 0.43732 0.99761 0.0
C631 C 0.94124 0.44209 0.9461 0.0
C632 C 0.93617 0.45818 0.94117 0.0
C633 C 0.92645 0.47849 0.01311 0.0
H634 H 0.9307 0.48024 0.05463 0.0
H635 H 0.93136 0.48832 0.98776 0.0
H636 H 0.91307 0.47918 0.01306 0.0
O637 O 0.91377 0.42812 0.10916 0.0
O638 O 0.92648 0.4078 0.0721 0.0
H639 H 0.94179 0.43523 0.86299 0.0
H640 H 0.96003 0.43125 0.90001 0.0
C641 C 0.94665 0.43119 0.90199 0.0
H642 H 0.94255 0.41867 0.90967 0.0
H643 H 0.92969 0.3889 0.98956 0.0
O644 O 0.91757 0.46391 0.13109 0.0
C645 C 0.91461 0.41326 0.09818 0.0
Co646 Co 0.80208 0.68695 0.36646 0.0
Co647 Co 0.82995 0.70127 0.3 0.0
C648 C 0.8155 0.72027 0.38956 0.0
O649 O 0.80597 0.70851 0.39894 0.0
O650 O 0.82578 0.71963 0.35146 0.0
C651 C 0.78959 0.67305 0.45122 0.0
O652 O 0.80323 0.67957 0.4671 0.0
C653 C 0.84825 0.71822 0.21592 0.0
C654 C 0.86611 0.69937 0.19587 0.0
C655 C 0.86036 0.71425 0.1799 0.0
N656 N 0.84671 0.70606 0.25078 0.0
N657 N 0.85785 0.69511 0.23975 0.0
C658 C 0.8369 0.73225 0.21292 0.0
H659 H 0.82612 0.73012 0.23835 0.0
H660 H 0.83319 0.73453 0.17107 0.0
H661 H 0.84323 0.74321 0.22732 0.0
C662 C 0.78529 0.68597 0.26305 0.0
N663 N 0.79842 0.689 0.293 0.0
N664 N 0.81017 0.69464 0.26286 0.0
C665 C 0.80474 0.69507 0.21179 0.0
C666 C 0.78876 0.68971 0.21034 0.0
C667 C 0.76945 0.68053 0.28556 0.0
H668 H 0.76711 0.68677 0.32395 0.0
H669 H 0.75935 0.68299 0.25767 0.0
H670 H 0.77002 0.66737 0.29356 0.0
O671 O 0.81979 0.67169 0.38003 0.0
O672 O 0.84022 0.68339 0.33992 0.0
H673 H 0.81007 0.69373 0.12775 0.0
H674 H 0.814 0.71286 0.15845 0.0
C675 C 0.81471 0.69963 0.16439 0.0
H676 H 0.82744 0.69604 0.17047 0.0
H677 H 0.85901 0.6841 0.25951 0.0
O678 O 0.7845 0.67613 0.40454 0.0
C679 C 0.83464 0.67218 0.36881 0.0
Co680 Co 0.56297 0.4468 0.97957 0.0
Co681 Co 0.54753 0.42025 0.04851 0.0
C682 C 0.52891 0.43356 0.95836 0.0
O683 O 0.54112 0.44248 0.94814 0.0
O684 O 0.52895 0.42388 0.99816 0.0
C685 C 0.57621 0.45858 0.89219 0.0
O686 O 0.56973 0.44476 0.87787 0.0
C687 C 0.53183 0.40036 0.13323 0.0
C688 C 0.55334 0.38674 0.15958 0.0
C689 C 0.53731 0.38953 0.17158 0.0
N690 N 0.54425 0.40406 0.10104 0.0
N691 N 0.55688 0.39544 0.11605 0.0
C692 C 0.51562 0.4083 0.13062 0.0
H693 H 0.51557 0.41809 0.10038 0.0
H694 H 0.51225 0.41319 0.17031 0.0
H695 H 0.50643 0.39914 0.11959 0.0
C696 C 0.56471 0.46448 0.08228 0.0
N697 N 0.56121 0.45134 0.0528 0.0
N698 N 0.55432 0.44032 0.08293 0.0
C699 C 0.55298 0.44633 0.13304 0.0
C700 C 0.55951 0.46193 0.13449 0.0
C701 C 0.5732 0.47901 0.06055 0.0
H702 H 0.58237 0.47527 0.03074 0.0
H703 H 0.56429 0.48688 0.04023 0.0
H704 H 0.57921 0.48596 0.09273 0.0
O705 O 0.57812 0.42893 0.96741 0.0
O706 O 0.56493 0.40941 0.00731 0.0
H707 H 0.55015 0.42642 0.18661 0.0
H708 H 0.54292 0.44541 0.21327 0.0
C709 C 0.54402 0.43795 0.17685 0.0
H710 H 0.5317 0.4352 0.16272 0.0
H711 H 0.56834 0.39632 0.09886 0.0
O712 O 0.57342 0.46396 0.93875 0.0
C713 C 0.57663 0.41417 0.97888 0.0
Co714 Co 0.80348 0.32081 0.259 0.0
Co715 Co 0.83134 0.30264 0.31163 0.0
C716 C 0.81614 0.28792 0.21803 0.0
O717 O 0.80761 0.30074 0.21532 0.0
O718 O 0.8261 0.28587 0.25633 0.0
C719 C 0.77472 0.32269 0.20503 0.0
O720 O 0.77508 0.30698 0.21189 0.0
C721 C 0.85356 0.28427 0.38194 0.0
C722 C 0.8712 0.3035 0.40006 0.0
C723 C 0.867 0.28783 0.41305 0.0
N724 N 0.84977 0.29741 0.35334 0.0
N725 N 0.86075 0.30863 0.36297 0.0
C726 C 0.84343 0.26932 0.38374 0.0
H727 H 0.83236 0.27082 0.35928 0.0
H728 H 0.84014 0.26639 0.42555 0.0
H729 H 0.85054 0.25904 0.36786 0.0
C730 C 0.78837 0.31804 0.36438 0.0
N731 N 0.80105 0.31597 0.33155 0.0
N732 N 0.81251 0.30784 0.35595 0.0
C733 C 0.80722 0.30442 0.40606 0.0
C734 C 0.7916 0.3106 0.41273 0.0
C735 C 0.77346 0.3272 0.34951 0.0
H736 H 0.77682 0.33826 0.32717 0.0
H737 H 0.76583 0.31956 0.32332 0.0
H738 H 0.76638 0.33073 0.38523 0.0
O739 O 0.82017 0.33691 0.24559 0.0
O740 O 0.84021 0.3217 0.27299 0.0
H741 H 0.82923 0.2974 0.44428 0.0
H742 H 0.81155 0.2956 0.48612 0.0
C743 C 0.81625 0.2942 0.44501 0.0
H744 H 0.81483 0.28137 0.43347 0.0
H745 H 0.86054 0.32025 0.34702 0.0
O746 O 0.78439 0.33133 0.23125 0.0
C747 C 0.83514 0.33451 0.25102 0.0
Co748 Co 0.92104 0.55318 0.48147 0.0
Co749 Co 0.94279 0.5771 0.54117 0.0
C750 C 0.95335 0.5647 0.4355 0.0
O751 O 0.94001 0.55698 0.43218 0.0
O752 O 0.95679 0.57283 0.47728 0.0
C753 C 0.89638 0.54071 0.41702 0.0
O754 O 0.89481 0.556 0.4044 0.0
C755 C 0.9652 0.6008 0.58839 0.0
C756 C 0.9519 0.60627 0.66268 0.0
C757 C 0.96571 0.61026 0.63431 0.0
N758 N 0.95191 0.59153 0.59068 0.0
N759 N 0.94384 0.59516 0.63447 0.0
C760 C 0.976 0.60166 0.54056 0.0
H761 H 0.96876 0.60027 0.50368 0.0
H762 H 0.98484 0.59161 0.5421 0.0
H763 H 0.9825 0.61336 0.53884 0.0
C764 C 0.92559 0.53362 0.58036 0.0
N765 N 0.92794 0.547 0.55061 0.0
N766 N 0.93712 0.55719 0.57697 0.0
C767 C 0.94095 0.55049 0.6246 0.0
C768 C 0.93371 0.53535 0.62853 0.0
C769 C 0.91542 0.51965 0.56306 0.0
H770 H 0.9033 0.52408 0.55121 0.0
H771 H 0.921 0.51397 0.52743 0.0
H772 H 0.91414 0.51051 0.59515 0.0
O773 O 0.90711 0.57237 0.4843 0.0
O774 O 0.92403 0.59006 0.51794 0.0
H775 H 0.94509 0.56582 0.69157 0.0
H776 H 0.95801 0.54843 0.68916 0.0
C777 C 0.95212 0.55788 0.66456 0.0
H778 H 0.96149 0.56521 0.64418 0.0
H779 H 0.93279 0.59001 0.64502 0.0
O780 O 0.90726 0.53647 0.44994 0.0
C781 C 0.91046 0.5867 0.49761 0.0
Co782 Co 0.70042 0.67738 0.74721 0.0
Co783 Co 0.67196 0.69525 0.80051 0.0
C784 C 0.68922 0.71026 0.70815 0.0
O785 O 0.69822 0.69776 0.70496 0.0
O786 O 0.67851 0.7115 0.74471 0.0
C787 C 0.7199 0.65014 0.72242 0.0
O788 O 0.70734 0.6417 0.73805 0.0
C789 C 0.65205 0.71569 0.87092 0.0
C790 C 0.63236 0.6986 0.8896 0.0
C791 C 0.63847 0.7136 0.9028 0.0
N792 N 0.65404 0.70235 0.84141 0.0
N793 N 0.64187 0.69246 0.85133 0.0
C794 C 0.66409 0.72914 0.87348 0.0
H795 H 0.67534 0.72583 0.85198 0.0
H796 H 0.66685 0.73225 0.91553 0.0
H797 H 0.65881 0.74002 0.85452 0.0
C798 C 0.71428 0.67916 0.85527 0.0
N799 N 0.70206 0.68176 0.8209 0.0
N800 N 0.69011 0.68913 0.84554 0.0
C801 C 0.69445 0.69118 0.89733 0.0
C802 C 0.70993 0.68501 0.905 0.0
C803 C 0.73034 0.67235 0.83952 0.0
H804 H 0.729 0.65925 0.83159 0.0
H805 H 0.7346 0.67826 0.80239 0.0
H806 H 0.73954 0.6741 0.87107 0.0
O807 O 0.68254 0.66276 0.73 0.0
O808 O 0.66228 0.67646 0.76397 0.0
H809 H 0.67113 0.69571 0.93176 0.0
H810 H 0.68731 0.69361 0.97954 0.0
C811 C 0.68399 0.6984 0.93966 0.0
H812 H 0.68586 0.71163 0.94029 0.0
H813 H 0.64066 0.68095 0.83496 0.0
O814 O 0.71952 0.66549 0.72372 0.0
C815 C 0.66758 0.66436 0.73858 0.0
Co816 Co 0.44122 0.42603 0.50213 0.0
Co817 Co 0.41201 0.44389 0.54986 0.0
C818 C 0.42896 0.45802 0.45678 0.0
O819 O 0.43807 0.44558 0.45604 0.0
O820 O 0.41841 0.45994 0.4935 0.0
C821 C 0.47436 0.42117 0.47037 0.0
O822 O 0.47663 0.43665 0.47888 0.0
C823 C 0.38978 0.46419 0.61386 0.0
C824 C 0.37088 0.44615 0.6322 0.0
C825 C 0.3756 0.46184 0.64262 0.0
N826 N 0.39333 0.4504 0.58832 0.0
N827 N 0.38174 0.43984 0.59837 0.0
C828 C 0.40074 0.47854 0.61524 0.0
H829 H 0.41258 0.47563 0.59681 0.0
H830 H 0.40248 0.48269 0.65693 0.0
H831 H 0.39509 0.48856 0.5926 0.0
C832 C 0.45291 0.42737 0.6141 0.0
N833 N 0.44185 0.4307 0.57618 0.0
N834 N 0.42965 0.43855 0.59762 0.0
C835 C 0.43282 0.44067 0.65025 0.0
C836 C 0.44766 0.43366 0.66232 0.0
C837 C 0.46849 0.41875 0.60392 0.0
H838 H 0.47682 0.42698 0.58246 0.0
H839 H 0.47442 0.41492 0.64143 0.0
H840 H 0.46629 0.408 0.57862 0.0
O841 O 0.42446 0.41021 0.48562 0.0
O842 O 0.40358 0.42449 0.51265 0.0
H843 H 0.42505 0.44574 0.73076 0.0
H844 H 0.42275 0.46202 0.68391 0.0
C845 C 0.42177 0.44877 0.68903 0.0
H846 H 0.40912 0.44507 0.68153 0.0
H847 H 0.38166 0.42797 0.58451 0.0
O848 O 0.46067 0.41495 0.47938 0.0
C849 C 0.40936 0.41199 0.49055 0.0
Co850 Co 0.32556 0.69592 0.23608 0.0
Co851 Co 0.30728 0.66967 0.2978 0.0
C852 C 0.29255 0.68273 0.20019 0.0
O853 O 0.30546 0.69098 0.19388 0.0
O854 O 0.29043 0.6741 0.24195 0.0
C855 C 0.34234 0.7067 0.15429 0.0
O856 O 0.33624 0.69278 0.13928 0.0
C857 C 0.28785 0.64904 0.37126 0.0
C858 C 0.30758 0.63364 0.40215 0.0
C859 C 0.29122 0.63659 0.40687 0.0
N860 N 0.30171 0.65324 0.34706 0.0
N861 N 0.31333 0.64379 0.36509 0.0
C862 C 0.27223 0.65779 0.36367 0.0
H863 H 0.27412 0.66906 0.34051 0.0
H864 H 0.26672 0.66065 0.40293 0.0
H865 H 0.26373 0.64993 0.34144 0.0
C866 C 0.3234 0.71351 0.33998 0.0
N867 N 0.32082 0.70061 0.3083 0.0
N868 N 0.31349 0.68922 0.33574 0.0
C869 C 0.31123 0.69458 0.38626 0.0
C870 C 0.3174 0.71024 0.39079 0.0
C871 C 0.3318 0.72854 0.3219 0.0
H872 H 0.34185 0.72541 0.29449 0.0
H873 H 0.32311 0.73617 0.29963 0.0
H874 H 0.33657 0.73551 0.35624 0.0
O875 O 0.34098 0.67798 0.23184 0.0
O876 O 0.32539 0.65848 0.26089 0.0
H877 H 0.30846 0.67357 0.43501 0.0
H878 H 0.3015 0.69201 0.46632 0.0
C879 C 0.30233 0.68529 0.42819 0.0
H880 H 0.28995 0.68276 0.41389 0.0
H881 H 0.32542 0.64466 0.35357 0.0
O882 O 0.33786 0.71272 0.19858 0.0
C883 C 0.33838 0.66313 0.23914 0.0
Co884 Co 0.04789 0.57387 0.96935 0.0
Co885 Co 0.07238 0.55519 0.03815 0.0
C886 C 0.06088 0.541 0.93566 0.0
O887 O 0.05235 0.55362 0.92811 0.0
O888 O 0.06917 0.53924 0.97827 0.0
C889 C 0.03878 0.59134 0.88582 0.0
O890 O 0.05266 0.58492 0.87188 0.0
C891 C 0.09518 0.53456 0.09854 0.0
C892 C 0.10038 0.55122 0.16531 0.0
C893 C 0.10416 0.53612 0.1452 0.0
N894 N 0.08638 0.54804 0.09241 0.0
N895 N 0.08977 0.55802 0.13187 0.0
C896 C 0.09594 0.52135 0.05792 0.0
H897 H 0.0947 0.52647 0.01728 0.0
H898 H 0.08576 0.51287 0.06462 0.0
H899 H 0.10753 0.51469 0.06042 0.0
C900 C 0.02839 0.57257 0.07066 0.0
N901 N 0.04171 0.56949 0.04116 0.0
N902 N 0.05206 0.56125 0.07014 0.0
C903 C 0.04548 0.55857 0.11878 0.0
C904 C 0.03031 0.5658 0.12123 0.0
C905 C 0.01431 0.58214 0.05096 0.0
H906 H 0.01849 0.59177 0.02346 0.0
H907 H 0.0061 0.57403 0.02852 0.0
H908 H 0.00752 0.58761 0.08459 0.0
O909 O 0.06709 0.5877 0.96585 0.0
O910 O 0.08509 0.57379 0.0109 0.0
H911 H 0.06086 0.55545 0.18636 0.0
H912 H 0.04344 0.5425 0.18628 0.0
C913 C 0.05288 0.54804 0.16067 0.0
H914 H 0.06013 0.53832 0.14195 0.0
H915 H 0.08479 0.56952 0.13591 0.0
O916 O 0.0323 0.58701 0.9296 0.0
C917 C 0.08133 0.58589 0.9827 0.0
Co918 Co 0.17878 0.30368 0.75269 0.0
Co919 Co 0.19508 0.33243 0.80969 0.0
C920 C 0.21126 0.31708 0.71627 0.0
O921 O 0.19929 0.30745 0.71255 0.0
O922 O 0.21194 0.32767 0.7534 0.0
C923 C 0.16248 0.28842 0.67631 0.0
O924 O 0.16656 0.30229 0.65468 0.0
C925 C 0.21374 0.35427 0.88089 0.0
C926 C 0.19429 0.37136 0.90267 0.0
C927 C 0.21029 0.36769 0.91232 0.0
N928 N 0.20028 0.35022 0.85427 0.0
N929 N 0.18884 0.3607 0.86672 0.0
C930 C 0.22891 0.34449 0.88012 0.0
H931 H 0.22693 0.33286 0.8591 0.0
H932 H 0.23313 0.34222 0.92145 0.0
H933 H 0.23847 0.35135 0.85894 0.0
C934 C 0.1798 0.28915 0.86014 0.0
N935 N 0.18262 0.30143 0.82624 0.0
N936 N 0.1893 0.31355 0.85202 0.0
C937 C 0.19077 0.30926 0.90403 0.0
C938 C 0.18489 0.29357 0.91084 0.0
C939 C 0.17199 0.27362 0.84395 0.0
H940 H 0.16091 0.27623 0.82073 0.0
H941 H 0.18036 0.26682 0.81765 0.0
H942 H 0.16877 0.26607 0.87895 0.0
O943 O 0.163 0.32103 0.73927 0.0
O944 O 0.17641 0.34165 0.77173 0.0
H945 H 0.19345 0.332 0.94363 0.0
H946 H 0.19655 0.31466 0.98637 0.0
C947 C 0.19844 0.31961 0.94575 0.0
H948 H 0.2116 0.32027 0.93801 0.0
H949 H 0.17702 0.36018 0.85259 0.0
O950 O 0.16791 0.28485 0.72216 0.0
C951 C 0.16434 0.33603 0.74708 0.0
Co952 Co 0.44837 0.56779 0.1076 0.0
Co953 Co 0.42295 0.54896 0.04429 0.0
C954 C 0.43376 0.53595 0.14757 0.0
O955 O 0.44228 0.54869 0.1528 0.0
O956 O 0.42578 0.5333 0.10483 0.0
C957 C 0.45995 0.58579 0.18736 0.0
O958 O 0.44507 0.58252 0.20205 0.0
C959 C 0.39939 0.52907 0.98308 0.0
C960 C 0.39377 0.54678 0.9197 0.0
C961 C 0.39011 0.53137 0.93732 0.0
N962 N 0.4082 0.54248 0.99108 0.0
N963 N 0.40458 0.55305 0.95354 0.0
C964 C 0.39916 0.51507 0.02077 0.0
H965 H 0.4013 0.51929 0.06211 0.0
H966 H 0.40899 0.50658 0.00995 0.0
H967 H 0.3874 0.50867 0.01916 0.0
C968 C 0.46743 0.56413 0.00711 0.0
N969 N 0.45418 0.56178 0.03751 0.0
N970 N 0.44334 0.55373 0.01004 0.0
C971 C 0.44951 0.55048 0.9612 0.0
C972 C 0.46498 0.55705 0.95739 0.0
C973 C 0.48179 0.57369 0.02479 0.0
H974 H 0.47782 0.58411 0.04929 0.0
H975 H 0.48959 0.56592 0.04995 0.0
H976 H 0.48891 0.57812 0.99023 0.0
O977 O 0.43073 0.5835 0.10626 0.0
O978 O 0.41148 0.56832 0.07271 0.0
H979 H 0.43312 0.54823 0.89597 0.0
H980 H 0.45008 0.53468 0.89272 0.0
C981 C 0.4412 0.54041 0.91997 0.0
H982 H 0.43383 0.5309 0.9394 0.0
H983 H 0.40963 0.56457 0.95093 0.0
O984 O 0.46544 0.57952 0.14478 0.0
C985 C 0.41607 0.5814 0.09422 0.0
Co986 Co 0.17707 0.69798 0.86919 0.0
Co987 Co 0.19556 0.67276 0.8028 0.0
C988 C 0.20959 0.68541 0.90518 0.0
O989 O 0.1971 0.69422 0.91163 0.0
O990 O 0.21119 0.67657 0.86365 0.0
C991 C 0.15781 0.70908 0.94782 0.0
O992 O 0.16251 0.695 0.96624 0.0
C993 C 0.21771 0.65109 0.74373 0.0
C994 C 0.20139 0.64395 0.67805 0.0
C995 C 0.21692 0.6419 0.69728 0.0
N996 N 0.2034 0.65844 0.75039 0.0
N997 N 0.19363 0.65384 0.7117 0.0
C998 C 0.23116 0.65204 0.78339 0.0
H999 H 0.22617 0.65261 0.82437 0.0
H1000 H 0.23824 0.6632 0.77624 0.0
H1001 H 0.2392 0.64137 0.78045 0.0
C1002 C 0.17822 0.71639 0.76644 0.0
N1003 N 0.18147 0.70333 0.79686 0.0
N1004 N 0.18958 0.69275 0.76844 0.0
C1005 C 0.19199 0.69891 0.71902 0.0
C1006 C 0.18476 0.71408 0.71573 0.0
C1007 C 0.16853 0.73051 0.78542 0.0
H1008 H 0.15819 0.72623 0.80975 0.0
H1009 H 0.17623 0.7382 0.81117 0.0
H1010 H 0.16395 0.73781 0.75158 0.0
O1011 O 0.16338 0.67879 0.87517 0.0
O1012 O 0.17664 0.66034 0.82974 0.0
H1013 H 0.19452 0.68251 0.65388 0.0
H1014 H 0.20713 0.70013 0.6489 0.0
C1015 C 0.20211 0.69104 0.67691 0.0
H1016 H 0.21219 0.68427 0.69544 0.0
H1017 H 0.1817 0.65771 0.70785 0.0
O1018 O 0.16389 0.71434 0.90461 0.0
C1019 C 0.16477 0.66447 0.85858 0.0
Co1020 Co 0.05328 0.42822 0.59293 0.0
Co1021 Co 0.08047 0.4466 0.53577 0.0
C1022 C 0.06633 0.46066 0.63331 0.0
O1023 O 0.05783 0.44786 0.63772 0.0
O1024 O 0.07548 0.46287 0.59285 0.0
C1025 C 0.03973 0.41092 0.66994 0.0
O1026 O 0.05395 0.41507 0.68869 0.0
C1027 C 0.10131 0.46679 0.466 0.0
C1028 C 0.11941 0.44845 0.44268 0.0
C1029 C 0.11499 0.46434 0.43474 0.0
N1030 N 0.09785 0.45288 0.49098 0.0
N1031 N 0.1089 0.4421 0.47756 0.0
C1032 C 0.09075 0.48142 0.46813 0.0
H1033 H 0.07911 0.47857 0.48801 0.0
H1034 H 0.08852 0.48606 0.42726 0.0
H1035 H 0.09696 0.49102 0.49114 0.0
C1036 C 0.03748 0.43032 0.4869 0.0
N1037 N 0.04982 0.43335 0.5204 0.0
N1038 N 0.06141 0.44095 0.49465 0.0
C1039 C 0.05664 0.44306 0.44343 0.0
C1040 C 0.04131 0.43636 0.43672 0.0
C1041 C 0.02214 0.42221 0.50355 0.0
H1042 H 0.01807 0.42714 0.54246 0.0
H1043 H 0.01245 0.42388 0.47352 0.0
H1044 H 0.02445 0.40912 0.50893 0.0
O1045 O 0.07077 0.41238 0.59914 0.0
O1046 O 0.09061 0.42777 0.57115 0.0
H1047 H 0.06219 0.44783 0.36061 0.0
H1048 H 0.06643 0.46406 0.40633 0.0
C1049 C 0.06675 0.45079 0.40105 0.0
H1050 H 0.07944 0.44669 0.4046 0.0
H1051 H 0.10894 0.43013 0.49049 0.0
O1052 O 0.0352 0.41657 0.62529 0.0
C1053 C 0.08568 0.41475 0.59202 0.0
Co1054 Co 0.31925 0.29609 0.36072 0.0
Co1055 Co 0.30054 0.32263 0.30045 0.0
C1056 C 0.28779 0.31022 0.40381 0.0
O1057 O 0.29988 0.30069 0.40677 0.0
O1058 O 0.28591 0.31955 0.36368 0.0
C1059 C 0.33875 0.28344 0.43549 0.0
O1060 O 0.33548 0.29794 0.45375 0.0
C1061 C 0.27966 0.34664 0.24563 0.0
C1062 C 0.29655 0.35369 0.18127 0.0
C1063 C 0.28126 0.35668 0.20131 0.0
N1064 N 0.29331 0.33802 0.25046 0.0
N1065 N 0.30341 0.34251 0.21247 0.0
C1066 C 0.26611 0.34604 0.28513 0.0
H1067 H 0.27092 0.34384 0.32571 0.0
H1068 H 0.25793 0.3359 0.27484 0.0
H1069 H 0.25921 0.35751 0.28528 0.0
C1070 C 0.31594 0.27882 0.25693 0.0
N1071 N 0.31329 0.29152 0.28949 0.0
N1072 N 0.30518 0.30268 0.26361 0.0
C1073 C 0.30224 0.29729 0.21359 0.0
C1074 C 0.30905 0.28202 0.20741 0.0
C1075 C 0.32566 0.26436 0.27248 0.0
H1076 H 0.33652 0.26824 0.29493 0.0
H1077 H 0.31831 0.2566 0.2992 0.0
H1078 H 0.32945 0.25725 0.23712 0.0
O1079 O 0.33459 0.31434 0.36295 0.0
O1080 O 0.32013 0.33358 0.32614 0.0
H1081 H 0.30039 0.31467 0.15101 0.0
H1082 H 0.28696 0.29774 0.14392 0.0
C1083 C 0.29244 0.3062 0.17306 0.0
H1084 H 0.28274 0.3132 0.19294 0.0
H1085 H 0.315 0.3378 0.20768 0.0
O1086 O 0.33172 0.27857 0.39344 0.0
C1087 C 0.33288 0.32893 0.34926 0.0
H1088 H 0.08885 0.97545 0.69909 0.0
H1089 H 0.03585 0.03055 0.8959 0.0
H1090 H 0.03711 0.97135 0.7091 0.0
H1091 H 0.0869 0.02291 0.91624 0.0
H1092 H 0.03601 0.01114 0.82153 0.0
H1093 H 0.08838 0.99471 0.77334 0.0
C1094 C 0.07738 0.97857 0.71717 0.0
C1095 C 0.06301 0.97176 0.698 0.0
C1096 C 0.04718 0.01372 0.84223 0.0
C1097 C 0.06231 0.99405 0.78278 0.0
C1098 C 0.04711 0.02489 0.88437 0.0
C1099 C 0.06138 0.02833 0.91237 0.0
C1100 C 0.06168 0.00608 0.82736 0.0
C1101 C 0.07561 0.02054 0.89601 0.0
C1102 C 0.07711 0.98957 0.75958 0.0
C1103 C 0.04848 0.97623 0.72294 0.0
N1104 N 0.07541 0.00986 0.85465 0.0
N1105 N 0.04848 0.98717 0.76371 0.0
H1106 H 0.20708 0.81488 0.1007 0.0
H1107 H 0.29987 0.80906 0.00897 0.0
H1108 H 0.2458 0.80442 0.21002 0.0
H1109 H 0.25994 0.80827 0.89894 0.0
H1110 H 0.28058 0.80852 0.08346 0.0
H1111 H 0.22639 0.81378 0.02659 0.0
C1112 C 0.21962 0.81222 0.10915 0.0
C1113 C 0.22477 0.80974 0.16187 0.0
C1114 C 0.27604 0.80845 0.04298 0.0
C1115 C 0.24714 0.80878 0.07696 0.0
C1116 C 0.28708 0.80867 1.00037 0.0
C1117 C 0.28159 0.80885 0.94736 0.0
C1118 C 0.25933 0.80851 0.0327 0.0
C1119 C 0.2648 0.80855 0.93894 0.0
C1120 C 0.23068 0.81169 0.06677 0.0
C1121 C 0.24128 0.80666 0.17024 0.0
N1122 N 0.25433 0.80847 0.98093 0.0
N1123 N 0.25184 0.80633 0.12845 0.0
H1124 H 0.41361 0.97277 0.42098 0.0
H1125 H 0.46081 0.02485 0.2007 0.0
H1126 H 0.46367 0.96458 0.38316 0.0
H1127 H 0.40903 0.0203 0.20361 0.0
H1128 H 0.46256 0.00518 0.27416 0.0
H1129 H 0.41202 0.99227 0.34746 0.0
C1130 C 0.42425 0.97506 0.39699 0.0
C1131 C 0.43878 0.96704 0.40812 0.0
C1132 C 0.45082 0.00851 0.2588 0.0
C1133 C 0.43715 0.98956 0.32424 0.0
C1134 C 0.44981 0.01981 0.21721 0.0
C1135 C 0.43475 0.02418 0.19609 0.0
C1136 C 0.43662 0.0017 0.28005 0.0
C1137 C 0.42088 0.01721 0.21865 0.0
C1138 C 0.42335 0.98618 0.35501 0.0
C1139 C 0.45221 0.97042 0.37568 0.0
N1140 N 0.42213 0.00639 0.2594 0.0
N1141 N 0.45112 0.98151 0.33555 0.0
H1142 H 0.28166 0.21385 0.63984 0.0
H1143 H 0.22465 0.16212 0.44661 0.0
H1144 H 0.28869 0.16343 0.60557 0.0
H1145 H 0.22339 0.21407 0.44905 0.0
H1146 H 0.24703 0.16259 0.51014 0.0
H1147 H 0.26014 0.21476 0.57218 0.0
C1148 C 0.27891 0.20308 0.61709 0.0
C1149 C 0.28689 0.18853 0.6282 0.0
C1150 C 0.24189 0.17393 0.49701 0.0
C1151 C 0.26204 0.1893 0.5523 0.0
C1152 C 0.22904 0.17364 0.46103 0.0
C1153 C 0.2223 0.18807 0.4423 0.0
C1154 C 0.24801 0.18878 0.51502 0.0
C1155 C 0.22829 0.20268 0.46263 0.0
C1156 C 0.26653 0.20355 0.57898 0.0
C1157 C 0.28274 0.17486 0.59835 0.0
N1158 N 0.24086 0.20268 0.49779 0.0
N1159 N 0.27051 0.17552 0.56227 0.0
H1160 H 0.85952 0.03634 0.37795 0.0
H1161 H 0.87454 0.94771 0.27043 0.0
H1162 H 0.88746 -0.00061 0.45718 0.0
H1163 H 0.87217 0.9898 0.16915 0.0
H1164 H 0.86633 0.96423 0.34612 0.0
H1165 H 0.85187 0.01653 0.31016 0.0
C1166 C 0.86355 0.02397 0.38246 0.0
C1167 C 0.87429 0.01964 0.42345 0.0
C1168 C 0.86729 0.96975 0.30704 0.0
C1169 C 0.86532 0.99706 0.34681 0.0
C1170 C 0.87201 0.96038 0.26382 0.0
C1171 C 0.87473 0.96759 0.21393 0.0
C1172 C 0.86518 0.98637 0.30018 0.0
C1173 C 0.87099 0.98396 0.20752 0.0
C1174 C 0.85914 0.01274 0.34379 0.0
C1175 C 0.87899 0.00343 0.42745 0.0
N1176 N 0.86666 0.99293 0.25057 0.0
N1177 N 0.87464 0.99278 0.38911 0.0
H1178 H 0.78298 0.11531 0.97755 0.0
H1179 H 0.69581 0.13246 0.09604 0.0
H1180 H 0.74736 0.14676 0.9064 0.0
H1181 H 0.73855 0.12925 0.19381 0.0
H1182 H 0.71193 0.12533 0.01807 0.0
H1183 H 0.76351 0.10867 0.04776 0.0
C1184 C 0.77094 0.12036 0.9753 0.0
C1185 C 0.76692 0.13169 0.93565 0.0
C1186 C 0.71767 0.12587 0.05685 0.0
C1187 C 0.74469 0.12383 0.01495 0.0
C1188 C 0.70854 0.12996 0.10132 0.0
C1189 C 0.71602 0.132 0.15104 0.0
C1190 C 0.73432 0.12364 0.06234 0.0
C1191 C 0.73249 0.12843 0.15574 0.0
C1192 C 0.75991 0.11653 0.01536 0.0
C1193 C 0.75111 0.13775 0.93474 0.0
N1194 N 0.74121 0.12462 0.11156 0.0
N1195 N 0.74063 0.13386 0.97421 0.0
H1196 H 0.63249 0.04104 0.73041 0.0
H1197 H 0.62884 0.95367 0.85955 0.0
H1198 H 0.60502 0.00115 0.66664 0.0
H1199 H 0.62815 0.99781 0.95076 0.0
H1200 H 0.63263 0.96945 0.778 0.0
H1201 H 0.6431 0.02309 0.79938 0.0
C1202 C 0.62912 0.02841 0.72963 0.0
C1203 C 0.61772 0.02266 0.69273 0.0
C1204 C 0.6321 0.9756 0.81609 0.0
C1205 C 0.63001 0.00218 0.77074 0.0
C1206 C 0.62997 0.96667 0.86253 0.0
C1207 C 0.62784 0.97457 0.9115 0.0
C1208 C 0.63232 0.99247 0.81904 0.0
C1209 C 0.62938 0.99137 0.91341 0.0
C1210 C 0.63521 0.01823 0.76891 0.0
C1211 C 0.6139 0.00617 0.69335 0.0
N1212 N 0.63134 -0.00015 0.8675 0.0
N1213 N 0.61988 0.99654 0.73235 0.0
H1214 H 0.80083 0.87913 0.60868 0.0
H1215 H 0.71482 0.8894 0.47369 0.0
H1216 H 0.75647 0.88119 0.69871 0.0
H1217 H 0.75175 0.8567 0.41733 0.0
H1218 H 0.73324 0.89837 0.54389 0.0
H1219 H 0.78548 0.88336 0.52649 0.0
C1220 C 0.7879 0.88098 0.61123 0.0
C1221 C 0.77977 0.87954 0.66008 0.0
C1222 C 0.73739 0.88968 0.51466 0.0
C1223 C 0.76238 0.88457 0.567 0.0
C1224 C 0.72695 0.88451 0.47467 0.0
C1225 C 0.73165 0.8722 0.43928 0.0
C1226 C 0.75271 0.88272 0.5185 0.0
C1227 C 0.74754 0.8664 0.44239 0.0
C1228 C 0.77922 0.88336 0.56447 0.0
C1229 C 0.76305 0.88195 0.66147 0.0
N1230 N 0.75745 0.87161 0.48178 0.0
N1231 N 0.75482 0.88418 0.61526 0.0
H1232 H 0.55611 0.50712 0.44705 0.0
H1233 H 0.55182 0.49422 0.13361 0.0
H1234 H 0.56893 0.5456 0.33925 0.0
H1235 H 0.56821 0.45652 0.23903 0.0
H1236 H 0.55291 0.51337 0.20822 0.0
H1237 H 0.55502 0.48844 0.37131 0.0
C1238 C 0.55861 0.51167 0.40739 0.0
C1239 C 0.56262 0.52799 0.39962 0.0
C1240 C 0.55623 0.50089 0.21492 0.0
C1241 C 0.561 0.50668 0.31245 0.0
C1242 C 0.5557 0.48995 0.17234 0.0
C1243 C 0.55989 0.47366 0.17992 0.0
C1244 C 0.56063 0.49548 0.26592 0.0
C1245 C 0.56453 0.46884 0.23142 0.0
C1246 C 0.55798 0.50099 0.36423 0.0
C1247 C 0.5655 0.53322 0.34711 0.0
N1248 N 0.56463 0.47963 0.27247 0.0
N1249 N 0.56455 0.52263 0.3055 0.0
H1250 H 0.7024 0.30821 0.59444 0.0
H1251 H 0.79578 0.31744 0.51944 0.0
H1252 H 0.7401 0.30878 0.71279 0.0
H1253 H 0.76062 0.29939 0.40784 0.0
H1254 H 0.77538 0.31591 0.59046 0.0
H1255 H 0.72315 0.30645 0.52444 0.0
C1256 C 0.715 0.30787 0.60579 0.0
C1257 C 0.71947 0.30893 0.65967 0.0
C1258 C 0.77216 0.31214 0.55051 0.0
C1259 C 0.74332 0.30721 0.57974 0.0
C1260 C 0.78387 0.31287 0.51008 0.0
C1261 C 0.77995 0.30842 0.4577 0.0
C1262 C 0.75633 0.30718 0.53835 0.0
C1263 C 0.76413 0.30304 0.44763 0.0
C1264 C 0.72686 0.30694 0.56581 0.0
C1265 C 0.73605 0.30855 0.67183 0.0
N1266 N 0.75289 0.30271 0.48732 0.0
N1267 N 0.74732 0.30788 0.63235 0.0
H1268 H 0.92178 0.5398 0.72896 0.0
H1269 H 0.95856 0.46051 0.85943 0.0
H1270 H 0.94683 0.50496 0.63209 0.0
H1271 H 0.913 0.48021 0.91154 0.0
H1272 H 0.95791 0.47873 0.78206 0.0
H1273 H 0.92215 0.52058 0.8039 0.0
C1274 C 0.92741 0.52811 0.72365 0.0
C1275 C 0.93421 0.52389 0.67435 0.0
C1276 C 0.94807 0.47901 0.81052 0.0
C1277 C 0.93497 0.50199 0.75999 0.0
C1278 C 0.94835 0.46852 0.85456 0.0
C1279 C 0.93583 0.46878 0.89255 0.0
C1280 C 0.93538 0.49014 0.80492 0.0
C1281 C 0.92313 0.47977 0.88431 0.0
C1282 C 0.92757 0.51714 0.76624 0.0
C1283 C 0.94139 0.5086 0.66947 0.0
N1284 N 0.92332 0.49009 0.84194 0.0
N1285 N 0.94171 0.49824 0.71185 0.0
H1286 H 0.78115 0.71386 0.14005 0.0
H1287 H 0.72368 0.65963 0.95719 0.0
H1288 H 0.77066 0.66411 0.17617 0.0
H1289 H 0.72 0.71145 0.96157 0.0
H1290 H 0.74291 0.66066 0.0316 0.0
H1291 H 0.76121 0.71291 0.06745 0.0
C1292 C 0.77474 0.7027 0.13231 0.0
C1293 C 0.77753 0.68904 0.16407 0.0
C1294 C 0.73781 0.67181 0.01663 0.0
C1295 C 0.75473 0.68785 0.08129 0.0
C1296 C 0.72683 0.67121 0.97432 0.0
C1297 C 0.72021 0.68546 0.95356 0.0
C1298 C 0.74248 0.68681 0.03778 0.0
C1299 C 0.72474 0.70018 0.97683 0.0
C1300 C 0.76328 0.7022 0.09125 0.0
C1301 C 0.76881 0.67492 0.15271 0.0
N1302 N 0.73572 0.7005 0.01733 0.0
N1303 N 0.75787 0.67466 0.11217 0.0
H1304 H 0.36823 0.4507 0.74117 0.0
H1305 H 0.36611 0.53849 0.86741 0.0
H1306 H 0.37016 0.49445 0.64804 0.0
H1307 H 0.39246 0.49811 0.93304 0.0
H1308 H 0.35545 0.52066 0.79814 0.0
H1309 H 0.36452 0.46686 0.82183 0.0
C1310 C 0.36741 0.4637 0.73755 0.0
C1311 C 0.3699 0.47136 0.68832 0.0
C1312 C 0.36311 0.51569 0.82907 0.0
C1313 C 0.36551 0.48971 0.77984 0.0
C1314 C 0.36923 0.52579 0.86853 0.0
C1315 C 0.38031 0.51985 0.90618 0.0
C1316 C 0.36793 0.49952 0.82784 0.0
C1317 C 0.3838 0.50329 0.90589 0.0
C1318 C 0.36532 0.47285 0.7835 0.0
C1319 C 0.36871 0.48819 0.68563 0.0
N1320 N 0.37778 0.49373 0.86679 0.0
N1321 N 0.3668 0.49688 0.7311 0.0
H1322 H 0.259 0.62839 0.40576 0.0
H1323 H 0.24953 0.64882 0.69739 0.0
H1324 H 0.3008 0.63072 0.5081 0.0
H1325 H 0.21382 0.61819 0.62298 0.0
H1326 H 0.26901 0.6404 0.63144 0.0
H1327 H 0.24217 0.62298 0.48425 0.0
C1328 C 0.26463 0.62762 0.44462 0.0
C1329 C 0.28116 0.63055 0.45092 0.0
C1330 C 0.25706 0.63509 0.63057 0.0
C1331 C 0.2622 0.62422 0.54002 0.0
C1332 C 0.24589 0.63975 0.66897 0.0
C1333 C 0.22995 0.63411 0.66636 0.0
C1334 C 0.25209 0.62529 0.58807 0.0
C1335 C 0.22595 0.62297 0.62619 0.0
C1336 C 0.25509 0.6243 0.48919 0.0
C1337 C 0.28801 0.6288 0.50173 0.0
N1338 N 0.23683 0.61926 0.58761 0.0
N1339 N 0.27844 0.62614 0.54464 0.0
H1340 H 0.12055 0.497 0.43468 0.0
H1341 H 0.10127 0.50295 0.14361 0.0
H1342 H 0.12341 0.45452 0.33562 0.0
H1343 H 0.12782 0.54182 0.21779 0.0
H1344 H 0.11191 0.4845 0.20943 0.0
H1345 H 0.12556 0.51373 0.35579 0.0
C1346 C 0.12243 0.49123 0.39645 0.0
C1347 C 0.12104 0.47448 0.39104 0.0
C1348 C 0.11588 0.49697 0.21021 0.0
C1349 C 0.12682 0.49332 0.30142 0.0
C1350 C 0.10991 0.50756 0.17199 0.0
C1351 C 0.11364 0.52404 0.1749 0.0
C1352 C 0.12506 0.50302 0.25271 0.0
C1353 C 0.12443 0.52923 0.21458 0.0
C1354 C 0.12551 0.50072 0.35167 0.0
C1355 C 0.12413 0.46746 0.34115 0.0
N1356 N 0.12939 0.51884 0.25301 0.0
N1357 N 0.12645 0.47696 0.29782 0.0
H1358 H 0.1989 0.3743 0.01115 0.0
H1359 H 0.28676 0.38175 0.13371 0.0
H1360 H 0.24253 0.37525 0.91697 0.0
H1361 H 0.24811 0.35302 0.20027 0.0
H1362 H 0.26802 0.39186 0.06622 0.0
H1363 H 0.2149 0.37941 0.09122 0.0
C1364 C 0.21181 0.37599 0.00716 0.0
C1365 C 0.21955 0.37386 0.95786 0.0
C1366 C 0.26361 0.38383 0.0971 0.0
C1367 C 0.23769 0.37991 0.04869 0.0
C1368 C 0.27424 0.37802 0.13554 0.0
C1369 C 0.26909 0.36638 0.17267 0.0
C1370 C 0.24772 0.37812 0.09645 0.0
C1371 C 0.2527 0.36211 0.17343 0.0
C1372 C 0.22087 0.37892 0.05277 0.0
C1373 C 0.23624 0.37628 0.95468 0.0
N1374 N 0.24264 0.36783 0.13527 0.0
N1375 N 0.24486 0.37896 0.99984 0.0
H1376 H 0.00679 0.07219 0.67415 0.0
H1377 H 0.0022 0.11818 0.93108 0.0
H1378 H 0.96812 0.10661 0.69537 0.0
H1379 H 0.04864 0.11258 0.85525 0.0
H1380 H 0.98925 0.11542 0.84369 0.0
H1381 H 0.02306 0.08761 0.73775 0.0
C1382 C 0.00186 0.08311 0.6914 0.0
C1383 C 0.98598 0.08789 0.68074 0.0
C1384 C 0.00231 0.11535 0.84606 0.0
C1385 C 0.0043 0.10535 0.75311 0.0
C1386 C 0.00962 0.11687 0.89573 0.0
C1387 C 0.02637 0.11543 0.89985 0.0
C1388 C 0.01188 0.11184 0.80121 0.0
C1389 C 0.03562 0.11372 0.85331 0.0
C1390 C 0.01115 0.09196 0.72724 0.0
C1391 C 0.98021 0.1023 0.70341 0.0
N1392 N 0.02821 0.11148 0.80581 0.0
N1393 N 0.98922 0.1103 0.73977 0.0
H1394 H 0.12579 0.79091 0.09776 0.0
H1395 H 0.14152 0.70013 0.0376 0.0
H1396 H 0.12823 0.75326 0.21642 0.0
H1397 H 0.14665 0.73942 0.92558 0.0
H1398 H 0.1254 0.71754 0.09506 0.0
H1399 H 0.12087 0.77062 0.02974 0.0
C1400 C 0.12498 0.77838 0.10981 0.0
C1401 C 0.12864 0.77359 0.16211 0.0
C1402 C 0.12977 0.72225 0.05739 0.0
C1403 C 0.12326 0.75042 0.08444 0.0
C1404 C 0.1391 0.71238 0.02478 0.0
C1405 C 0.14601 0.71862 0.97801 0.0
C1406 C 0.12758 0.73849 0.04335 0.0
C1407 C 0.142 0.73433 0.96232 0.0
C1408 C 0.12217 0.7668 0.07083 0.0
C1409 C 0.12674 0.75733 0.17576 0.0
N1410 N 0.13333 0.74387 0.9956 0.0
N1411 N 0.12468 0.74619 0.13674 0.0
H1412 H 0.52632 0.89312 0.15475 0.0
H1413 H 0.44899 0.8921 0.341 0.0
H1414 H 0.49182 0.93219 0.16144 0.0
H1415 H 0.49622 0.87633 0.39089 0.0
H1416 H 0.45966 0.89733 0.25145 0.0
H1417 H 0.50957 0.87773 0.21646 0.0
C1418 C 0.51503 0.89834 0.16813 0.0
C1419 C 0.51069 0.91422 0.15448 0.0
C1420 C 0.4675 0.89221 0.28158 0.0
C1421 C 0.4915 0.89648 0.22384 0.0
C1422 C 0.46147 0.88917 0.33235 0.0
C1423 C 0.47187 0.88384 0.37279 0.0
C1424 C 0.48391 0.88965 0.2715 0.0
C1425 C 0.48794 0.88046 0.36039 0.0
C1426 C 0.50552 0.8895 0.20316 0.0
C1427 C 0.49578 0.92016 0.17204 0.0
N1428 N 0.49357 0.88356 0.3106 0.0
N1429 N 0.48678 0.91135 0.20674 0.0
H1430 H 0.3789 0.20411 0.6069 0.0
H1431 H 0.3452 0.25135 0.4198 0.0
H1432 H 0.37438 0.24631 0.70634 0.0
H1433 H 0.35881 0.29235 0.51597 0.0
H1434 H 0.36144 0.23408 0.47681 0.0
H1435 H 0.3793 0.22136 0.52828 0.0
C1436 C 0.37833 0.21707 0.61223 0.0
C1437 C 0.3757 0.22383 0.66278 0.0
C1438 C 0.3614 0.2469 0.48467 0.0
C1439 C 0.37529 0.24349 0.57325 0.0
C1440 C 0.35189 0.25674 0.45234 0.0
C1441 C 0.35027 0.27317 0.4643 0.0
C1442 C 0.3693 0.25362 0.52918 0.0
C1443 C 0.35936 0.27963 0.50633 0.0
C1444 C 0.37827 0.22691 0.56718 0.0
C1445 C 0.37556 0.24063 0.66767 0.0
N1446 N 0.36824 0.26978 0.53786 0.0
N1447 N 0.37487 0.24992 0.62322 0.0
H1448 H 0.00051 0.88244 0.6374 0.0
H1449 H 0.99013 0.90559 0.93698 0.0
H1450 H 0.039 0.88049 0.75282 0.0
H1451 H 0.95094 0.90248 0.82394 0.0
H1452 H 0.00691 0.88972 0.87634 0.0
H1453 H 0.9809 0.88205 0.7101 0.0
C1454 C 0.00477 0.88162 0.67812 0.0
C1455 C 0.02126 0.88223 0.68963 0.0
C1456 C 0.99455 0.8923 0.8652 0.0
C1457 C 0.99916 0.88204 0.77259 0.0
C1458 C 0.98504 0.90147 0.89959 0.0
C1459 C 0.96937 0.90582 0.88448 0.0
C1460 C 0.98833 0.88765 0.81536 0.0
C1461 C 0.96317 0.89983 0.83638 0.0
C1462 C 0.99362 0.88133 0.71963 0.0
C1463 C 0.02631 0.88046 0.74261 0.0
N1464 N 0.97276 0.89128 0.8031 0.0
N1465 N 0.01527 0.88093 0.78246 0.0
H1466 H 0.35644 0.69446 0.06514 0.0
H1467 H 0.38755 0.78063 0.98435 0.0
H1468 H 0.35646 0.73649 0.16705 0.0
H1469 H 0.36501 0.7456 0.88065 0.0
H1470 H 0.39066 0.75961 0.05175 0.0
H1471 H 0.37358 0.70878 0.00189 0.0
C1472 C 0.3602 0.70666 0.07457 0.0
C1473 C 0.35446 0.7146 0.12026 0.0
C1474 C 0.38571 0.75648 0.01314 0.0
C1475 C 0.37427 0.73082 0.04846 0.0
C1476 C 0.38389 0.76844 0.97454 0.0
C1477 C 0.37529 0.76517 0.92739 0.0
C1478 C 0.37916 0.74117 0.00373 0.0
C1479 C 0.37135 0.74905 0.91631 0.0
C1480 C 0.37015 0.7147 0.03874 0.0
C1481 C 0.3602 0.73014 0.13136 0.0
N1482 N 0.37297 0.73772 0.95485 0.0
N1483 N 0.36954 0.73793 0.09496 0.0
H1484 H 0.50696 0.09873 0.43247 0.0
H1485 H 0.45682 0.12347 0.23799 0.0
H1486 H 0.54656 0.10727 0.3238 0.0
H1487 H 0.4964 0.10982 0.13546 0.0
H1488 H 0.47582 0.12755 0.31077 0.0
H1489 H 0.48872 0.11129 0.36913 0.0
C1490 C 0.51186 0.10358 0.39571 0.0
C1491 C 0.52816 0.10152 0.38254 0.0
C1492 C 0.48035 0.1236 0.27243 0.0
C1493 C 0.50747 0.11627 0.31013 0.0
C1494 C 0.46955 0.12145 0.23062 0.0
C1495 C 0.47498 0.1153 0.18163 0.0
C1496 C 0.49659 0.11937 0.26501 0.0
C1497 C 0.4916 0.1135 0.17366 0.0
C1498 C 0.50146 0.11099 0.35969 0.0
C1499 C 0.53396 0.10825 0.33488 0.0
N1500 N 0.50183 0.11516 0.21544 0.0
N1501 N 0.52354 0.115 0.29977 0.0
H1502 H 0.13214 0.20436 0.52114 0.0
H1503 H 0.14322 0.29603 0.5926 0.0
H1504 H 0.12666 0.24389 0.41077 0.0
H1505 H 0.15635 0.25643 0.69577 0.0
H1506 H 0.12778 0.27746 0.53748 0.0
H1507 H 0.13092 0.22344 0.59526 0.0
C1508 C 0.1302 0.21703 0.51265 0.0
C1509 C 0.13018 0.22276 0.46006 0.0
C1510 C 0.13383 0.27285 0.5726 0.0
C1511 C 0.12898 0.24451 0.54398 0.0
C1512 C 0.14277 0.2834 0.60383 0.0
C1513 C 0.15154 0.27758 0.64755 0.0
C1514 C 0.13393 0.25633 0.58466 0.0
C1515 C 0.15007 0.26128 0.66148 0.0
C1516 C 0.12958 0.22791 0.5549 0.0
C1517 C 0.1274 0.23917 0.45094 0.0
N1518 N 0.14171 0.2511 0.62932 0.0
N1519 N 0.12728 0.24957 0.4926 0.0
H1520 H 0.95429 0.92582 0.25461 0.0
H1521 H 0.04128 0.95368 0.3628 0.0
H1522 H 0.98877 0.95275 0.16157 0.0
H1523 H 0.01017 0.9213 0.45036 0.0
H1524 H 0.02119 0.955 0.29192 0.0
H1525 H 0.97344 0.92561 0.3296 0.0
C1526 C 0.96583 0.93182 0.25022 0.0
C1527 C 0.96994 0.93934 0.20187 0.0
C1528 C 0.0187 0.94761 0.32662 0.0
C1529 C 0.99198 0.93907 0.28724 0.0
C1530 C 0.0302 0.94687 0.36737 0.0
C1531 C 0.02752 0.93732 0.41292 0.0
C1532 C 0.00426 0.93881 0.33106 0.0
C1533 C 0.01284 0.9288 0.41608 0.0
C1534 C 0.9768 0.93162 0.29287 0.0
C1535 C 0.98514 0.94676 0.19806 0.0
N1536 N 0.0018 0.92973 0.3758 0.0
N1537 N 0.99557 0.94644 0.24001 0.0
H1538 H 0.82007 0.20299 0.00828 0.0
H1539 H 0.79764 0.28972 0.12788 0.0
H1540 H 0.80266 0.24267 0.91343 0.0
H1541 H 0.83098 0.25798 0.20815 0.0
H1542 H 0.79604 0.27067 0.05428 0.0
H1543 H 0.82093 0.22098 0.08668 0.0
C1544 C 0.81632 0.21545 0.00412 0.0
C1545 C 0.81133 0.22138 0.95431 0.0
C1546 C 0.80372 0.26783 0.08792 0.0
C1547 C 0.81218 0.24195 0.04357 0.0
C1548 C 0.80465 0.27875 0.13023 0.0
C1549 C 0.81462 0.27566 0.17444 0.0
C1550 C 0.81263 0.25344 0.08954 0.0
C1551 C 0.82321 0.26099 0.17492 0.0
C1552 C 0.81691 0.22571 0.0487 0.0
C1553 C 0.80669 0.23763 0.95098 0.0
N1554 N 0.82201 0.25042 0.1332 0.0
N1555 N 0.80717 0.24729 0.99487 0.0
H1556 H 0.50129 0.05233 0.64163 0.0
H1557 H 0.48518 0.07337 0.94936 0.0
H1558 H 0.53905 0.06798 0.74771 0.0
H1559 H 0.45204 0.04571 0.85312 0.0
H1560 H 0.5045 0.07323 0.8751 0.0
H1561 H 0.48247 0.05167 0.71725 0.0
C1562 C 0.5056 0.05567 0.68089 0.0
C1563 C 0.52175 0.06024 0.68838 0.0
C1564 C 0.49303 0.06714 0.87035 0.0
C1565 C 0.50025 0.05955 0.77536 0.0
C1566 C 0.48196 0.06723 0.91276 0.0
C1567 C 0.4669 0.05952 0.90778 0.0
C1568 C 0.48899 0.05948 0.82212 0.0
C1569 C 0.46348 0.05176 0.85914 0.0
C1570 C 0.49487 0.05521 0.72412 0.0
C1571 C 0.52672 0.06429 0.74024 0.0
N1572 N 0.47435 0.05203 0.8183 0.0
N1573 N 0.51601 0.06395 0.78164 0.0
H1574 H 0.68304 0.79739 0.51065 0.0
H1575 H 0.70692 0.70917 0.61589 0.0
H1576 H 0.70088 0.75934 0.40953 0.0
H1577 H 0.67504 0.7405 0.7045 0.0
H1578 H 0.70827 0.72929 0.54507 0.0
H1579 H 0.68339 0.77856 0.58688 0.0
C1580 C 0.68717 0.78512 0.5047 0.0
C1581 C 0.69189 0.77986 0.4538 0.0
C1582 C 0.70101 0.73181 0.58004 0.0
C1583 C 0.69239 0.75835 0.54042 0.0
C1584 C 0.70027 0.72033 0.62079 0.0
C1585 C 0.69078 0.72304 0.66646 0.0
C1586 C 0.69235 0.74631 0.58476 0.0
C1587 C 0.68246 0.73782 0.67004 0.0
C1588 C 0.68727 0.77437 0.54802 0.0
C1589 C 0.69703 0.76383 0.44804 0.0
N1590 N 0.68343 0.74889 0.62979 0.0
N1591 N 0.69718 0.75368 0.49071 0.0
H1592 H 0.0401 0.04991 0.25106 0.0
H1593 H 0.94985 0.06816 0.35147 0.0
H1594 H 0.00615 0.07692 0.15585 0.0
H1595 H 0.98857 0.05308 0.45459 0.0
H1596 H 0.96895 0.0687 0.27596 0.0
H1597 H 0.02013 0.04829 0.3223 0.0
C1598 C 0.02842 0.05548 0.24489 0.0
C1599 C 0.0249 0.06362 0.19706 0.0
C1600 C 0.97324 0.06524 0.3151 0.0
C1601 C 0.00175 0.06172 0.27935 0.0
C1602 C 0.96233 0.06483 0.35807 0.0
C1603 C 0.96766 0.06064 0.4094 0.0
C1604 C 0.98955 0.0612 0.32343 0.0
C1605 C 0.98398 0.05654 0.41583 0.0
C1606 C 0.017 0.05457 0.28587 0.0
C1607 C 0.00947 0.07057 0.19195 0.0
N1608 N 0.99429 0.0569 0.37352 0.0
N1609 N 0.99847 0.06944 0.23247 0.0
H1610 H 0.66656 0.26 0.90418 0.0
H1611 H 0.6944 0.24401 0.20662 0.0
H1612 H 0.69664 0.29282 0.99345 0.0
H1613 H 0.67161 0.20764 0.10983 0.0
H1614 H 0.69441 0.26238 0.12989 0.0
H1615 H 0.66745 0.24102 0.97922 0.0
C1616 C 0.6734 0.26323 0.93939 0.0
C1617 C 0.68154 0.27812 0.94215 0.0
C1618 C 0.68945 0.25037 0.1252 0.0
C1619 C 0.68248 0.25636 0.02885 0.0
C1620 C 0.6894 0.2399 0.16911 0.0
C1621 C 0.68304 0.22425 0.16461 0.0
C1622 C 0.68293 0.24528 0.0762 0.0
C1623 C 0.67677 0.21954 0.11492 0.0
C1624 C 0.6739 0.25235 0.98231 0.0
C1625 C 0.69018 0.28153 0.98915 0.0
N1626 N 0.67681 0.23001 0.07282 0.0
N1627 N 0.69035 0.27082 0.03048 0.0
H1628 H 0.53866 0.96224 0.87969 0.0
H1629 H 0.49445 0.90756 0.65861 0.0
H1630 H 0.54216 0.91041 0.87738 0.0
H1631 H 0.47956 0.95588 0.69964 0.0
H1632 H 0.51586 0.90934 0.72638 0.0
H1633 H 0.52104 0.96108 0.80091 0.0
C1634 C 0.53592 0.95064 0.86192 0.0
C1635 C 0.54177 0.9364 0.885 0.0
C1636 C 0.50796 0.91958 0.72013 0.0
C1637 C 0.52162 0.93491 0.79512 0.0
C1638 C 0.49579 0.9186 0.68127 0.0
C1639 C 0.48509 0.93154 0.67353 0.0
C1640 C 0.50962 0.9337 0.75085 0.0
C1641 C 0.48741 0.94553 0.7044 0.0
C1642 C 0.52579 0.94995 0.81725 0.0
C1643 C 0.53781 0.92165 0.86072 0.0
N1644 N 0.49936 0.94623 0.74151 0.0
N1645 N 0.52795 0.92126 0.81724 0.0
H1646 H 0.78966 0.73062 0.44772 0.0
H1647 H 0.83928 0.79064 0.63134 0.0
H1648 H 0.83934 0.74243 0.41379 0.0
H1649 H 0.78736 0.7909 0.62437 0.0
H1650 H 0.83996 0.77311 0.55223 0.0
H1651 H 0.78876 0.75244 0.51305 0.0
C1652 C 0.80037 0.73789 0.45372 0.0
C1653 C 0.81463 0.73461 0.42526 0.0
C1654 C 0.82842 0.7772 0.56742 0.0
C1655 C 0.81373 0.75961 0.50101 0.0
C1656 C 0.82804 0.7872 0.61242 0.0
C1657 C 0.81324 0.79218 0.63414 0.0
C1658 C 0.81386 0.77189 0.5446 0.0
C1659 C 0.799 0.78735 0.6086 0.0
C1660 C 0.79983 0.7504 0.491 0.0
C1661 C 0.82809 0.74453 0.43468 0.0
N1662 N 0.79965 0.77729 0.56565 0.0
N1663 N 0.82739 0.75643 0.47229 0.0
H1664 H 0.53911 0.6243 0.36652 0.0
H1665 H 0.49167 0.59392 0.17286 0.0
H1666 H 0.49939 0.61125 0.46938 0.0
H1667 H 0.45103 0.60157 0.27793 0.0
H1668 H 0.50884 0.60815 0.23568 0.0
H1669 H 0.52056 0.62579 0.29159 0.0
C1670 C 0.52643 0.62191 0.37352 0.0
C1671 C 0.52089 0.61662 0.42351 0.0
C1672 C 0.49609 0.60726 0.24441 0.0
C1673 C 0.49982 0.61763 0.33768 0.0
C1674 C 0.48632 0.59889 0.20872 0.0
C1675 C 0.47005 0.5962 0.22099 0.0
C1676 C 0.48947 0.61291 0.29266 0.0
C1677 C 0.46364 0.60305 0.26757 0.0
C1678 C 0.51588 0.62254 0.33046 0.0
C1679 C 0.50431 0.61431 0.43071 0.0
N1680 N 0.47345 0.61083 0.30226 0.0
N1681 N 0.49436 0.61443 0.38782 0.0
H1682 H 0.63407 0.24905 0.72535 0.0
H1683 H 0.64423 0.24018 0.43347 0.0
H1684 H 0.61222 0.28355 0.61816 0.0
H1685 H 0.64412 0.19888 0.53859 0.0
H1686 H 0.62687 0.25444 0.49675 0.0
H1687 H 0.63036 0.22835 0.65995 0.0
C1688 C 0.62783 0.25233 0.68928 0.0
C1689 C 0.62412 0.26841 0.67676 0.0
C1690 C 0.6303 0.2421 0.50531 0.0
C1691 C 0.62088 0.24463 0.59953 0.0
C1692 C 0.64039 0.23406 0.46951 0.0
C1693 C 0.64617 0.21864 0.48203 0.0
C1694 C 0.62626 0.2347 0.55406 0.0
C1695 C 0.64045 0.21104 0.52838 0.0
C1696 C 0.62585 0.24033 0.65112 0.0
C1697 C 0.61597 0.27144 0.62861 0.0
N1698 N 0.6311 0.21928 0.56331 0.0
N1699 N 0.61529 0.25982 0.59058 0.0
H1700 H 0.95739 0.3781 0.83372 0.0
H1701 H 0.04848 0.39307 0.756 0.0
H1702 H 0.9971 0.3799 0.94458 0.0
H1703 H 0.00782 0.40355 0.65407 0.0
H1704 H 0.03069 0.3781 0.81542 0.0
H1705 H 0.97665 0.37677 0.75989 0.0
C1706 C 0.97019 0.37775 0.8425 0.0
C1707 C 0.97581 0.37972 0.89478 0.0
C1708 C 0.0257 0.38345 0.77961 0.0
C1709 C 0.9977 0.37832 0.81123 0.0
C1710 C 0.0358 0.3921 0.74587 0.0
C1711 C 0.02944 0.40004 0.70119 0.0
C1712 C 0.00911 0.38292 0.76889 0.0
C1713 C 0.01309 0.39794 0.68895 0.0
C1714 C 0.98114 0.37705 0.80044 0.0
C1715 C 0.9924 0.379 0.90443 0.0
N1716 N 0.00336 0.38983 0.72337 0.0
N1717 N 0.00283 0.37868 0.86281 0.0
H1718 H 0.86926 0.74397 0.14396 0.0
H1719 H 0.81076 0.7413 0.91552 0.0
H1720 H 0.85186 0.69749 0.09231 0.0
H1721 H 0.85253 0.77237 0.90315 0.0
H1722 H 0.8258 0.7241 0.9774 0.0
H1723 H 0.86398 0.75467 0.05435 0.0
C1724 C 0.8648 0.73597 0.11313 0.0
C1725 C 0.86099 0.71994 0.1248 0.0
C1726 C 0.83176 0.73446 0.95984 0.0
C1727 C 0.85446 0.73199 0.02405 0.0
C1728 C 0.82317 0.7443 0.92479 0.0
C1729 C 0.83023 0.75852 0.90559 0.0
C1730 C 0.84726 0.73918 0.97627 0.0
C1731 C 0.84645 0.76173 0.91822 0.0
C1732 C 0.86182 0.74199 0.06224 0.0
C1733 C 0.85502 0.70994 0.08422 0.0
N1734 N 0.85429 0.75238 0.9541 0.0
N1735 N 0.8515 0.71625 0.03576 0.0
H1736 H 0.55223 0.3953 0.26542 0.0
H1737 H 0.47052 0.39093 0.42958 0.0
H1738 H 0.50693 0.37936 0.19888 0.0
H1739 H 0.50573 0.42908 0.44683 0.0
H1740 H 0.48841 0.37741 0.36658 0.0
H1741 H 0.53929 0.39794 0.3526 0.0
C1742 C 0.53967 0.39186 0.26959 0.0
C1743 C 0.53046 0.38737 0.22504 0.0
C1744 C 0.49232 0.38854 0.38526 0.0
C1745 C 0.51582 0.3903 0.32405 0.0
C1746 C 0.48217 0.3963 0.42114 0.0
C1747 C 0.48649 0.41142 0.44222 0.0
C1748 C 0.50694 0.39582 0.37118 0.0
C1749 C 0.50181 0.41763 0.43052 0.0
C1750 C 0.53234 0.39344 0.31918 0.0
C1751 C 0.51428 0.38313 0.23231 0.0
N1752 N 0.51145 0.40988 0.39502 0.0
N1753 N 0.50735 0.38489 0.28104 0.0
H1754 H 0.82541 0.26355 0.68799 0.0
H1755 H 0.87362 0.2562 0.43559 0.0
H1756 H 0.85745 0.22282 0.66855 0.0
H1757 H 0.86759 0.30297 0.50846 0.0
H1758 H 0.87037 0.24368 0.52346 0.0
H1759 H 0.84239 0.27899 0.62646 0.0
C1760 C 0.83614 0.25797 0.67157 0.0
C1761 C 0.83978 0.24179 0.68211 0.0
C1762 C 0.87032 0.25673 0.52042 0.0
C1763 C 0.85906 0.25919 0.61192 0.0
C1764 C 0.87214 0.26381 0.47038 0.0
C1765 C 0.87049 0.28052 0.46501 0.0
C1766 C 0.86641 0.26649 0.56442 0.0
C1767 C 0.86875 0.28998 0.51108 0.0
C1768 C 0.8459 0.2668 0.63688 0.0
C1769 C 0.85399 0.23519 0.66053 0.0
N1770 N 0.86622 0.28279 0.55885 0.0
N1771 N 0.8629 0.24378 0.62523 0.0
H1772 H 0.0509 0.60371 0.79355 0.0
H1773 H 0.96427 0.63294 0.71274 0.0
H1774 H 0.00949 0.60643 0.89805 0.0
H1775 H 0.99839 0.60759 0.61273 0.0
H1776 H 0.98592 0.63805 0.77656 0.0
H1777 H 0.03639 0.61967 0.72753 0.0
C1778 C 0.03883 0.60786 0.80299 0.0
C1779 C 0.03106 0.60314 0.85027 0.0
C1780 C 0.98872 0.63205 0.73929 0.0
C1781 C 0.01464 0.62159 0.77535 0.0
C1782 C 0.97641 0.62908 0.70283 0.0
C1783 C 0.97931 0.61928 0.65806 0.0
C1784 C 0.00397 0.62531 0.73028 0.0
C1785 C 0.99532 0.615 0.64658 0.0
C1786 C 0.03067 0.61714 0.76554 0.0
C1787 C 0.01568 0.60934 0.86122 0.0
N1788 N 0.007 0.61772 0.68323 0.0
N1789 N 0.00779 0.61798 0.82336 0.0
H1790 H 0.6333 0.74543 0.92473 0.0
H1791 H 0.67889 0.73963 0.18551 0.0
H1792 H 0.63936 0.69881 0.99858 0.0
H1793 H 0.64488 0.77859 0.16338 0.0
H1794 H 0.66419 0.72391 0.11859 0.0
H1795 H 0.63657 0.75815 0.01244 0.0
C1796 C 0.63481 0.73792 0.95974 0.0
C1797 C 0.63614 0.72117 0.95494 0.0
C1798 C 0.65976 0.73577 0.12951 0.0
C1799 C 0.64036 0.73542 0.05392 0.0
C1800 C 0.6682 0.74474 0.16732 0.0
C1801 C 0.6633 0.76052 0.17904 0.0
C1802 C 0.64668 0.74284 0.10266 0.0
C1803 C 0.64923 0.76654 0.15487 0.0
C1804 C 0.63666 0.7451 0.00957 0.0
C1805 C 0.63823 0.71181 1.00104 0.0
N1806 N 0.64163 0.75784 0.1167 0.0
N1807 N 0.64073 0.7191 0.04866 0.0
H1808 H 0.5206 0.45818 0.89132 0.0
H1809 H 0.45588 0.40808 0.72568 0.0
H1810 H 0.50519 0.4107 0.94039 0.0
H1811 H 0.46046 0.45971 0.71377 0.0
H1812 H 0.47394 0.40836 0.8035 0.0
H1813 H 0.49899 0.45869 0.82524 0.0
C1814 C 0.5126 0.44788 0.88847 0.0
C1815 C 0.5148 0.43435 0.92153 0.0
C1816 C 0.47084 0.41966 0.78437 0.0
C1817 C 0.48999 0.43479 0.84493 0.0
C1818 C 0.46054 0.41949 0.74007 0.0
C1819 C 0.45673 0.43389 0.71345 0.0
C1820 C 0.47761 0.43432 0.80163 0.0
C1821 C 0.46309 0.44836 0.73337 0.0
C1822 C 0.5002 0.4482 0.85072 0.0
C1823 C 0.50395 0.4214 0.91595 0.0
N1824 N 0.47337 0.44819 0.77579 0.0
N1825 N 0.49215 0.42185 0.87795 0.0
H1826 H 0.33255 0.75674 0.6994 0.0
H1827 H 0.30579 0.74113 0.39562 0.0
H1828 H 0.30298 0.78974 0.60905 0.0
H1829 H 0.32825 0.70466 0.49288 0.0
H1830 H 0.30559 0.75943 0.47251 0.0
H1831 H 0.33189 0.73783 0.62417 0.0
C1832 C 0.32586 0.76002 0.66394 0.0
C1833 C 0.31781 0.77495 0.66093 0.0
C1834 C 0.31052 0.74741 0.47726 0.0
C1835 C 0.31713 0.75328 0.57398 0.0
C1836 C 0.31069 0.73698 0.43325 0.0
C1837 C 0.31699 0.72132 0.43787 0.0
C1838 C 0.31686 0.74227 0.52646 0.0
C1839 C 0.32312 0.71657 0.48771 0.0
C1840 C 0.32549 0.74918 0.62089 0.0
C1841 C 0.30936 0.77843 0.61358 0.0
N1842 N 0.32296 0.72699 0.52991 0.0
N1843 N 0.30932 0.76776 0.57215 0.0
H1844 H 0.94839 0.55238 0.33495 0.0
H1845 H 0.03699 0.57347 0.22511 0.0
H1846 H 0.98436 0.57683 0.42955 0.0
H1847 H 0.99784 0.55872 0.12322 0.0
H1848 H 0.01852 0.57314 0.30165 0.0
H1849 H 0.96685 0.55288 0.25875 0.0
C1850 C 0.96019 0.55781 0.33992 0.0
C1851 C 0.96475 0.56456 0.38914 0.0
C1852 C 0.01392 0.57002 0.26258 0.0
C1853 C 0.9861 0.56515 0.30133 0.0
C1854 C 0.02449 0.57014 0.21887 0.0
C1855 C 0.01896 0.56612 0.16763 0.0
C1856 C 0.99766 0.56567 0.25533 0.0
C1857 C 0.00259 0.56205 0.16187 0.0
C1858 C 0.97072 0.55814 0.29615 0.0
C1859 C 0.98024 0.57147 0.39262 0.0
N1860 N 0.99256 0.56185 0.20512 0.0
N1861 N 0.99033 0.57154 0.34951 0.0
H1862 H 0.19836 0.21211 0.12052 0.0
H1863 H 0.17084 0.29873 0.0092 0.0
H1864 H 0.16586 0.243 0.20834 0.0
H1865 H 0.19944 0.26436 0.92155 0.0
H1866 H 0.17008 0.27986 0.08534 0.0
H1867 H 0.19999 0.23225 0.05059 0.0
C1868 C 0.19155 0.22316 0.12536 0.0
C1869 C 0.18192 0.22574 0.17083 0.0
C1870 C 0.17659 0.2765 0.04955 0.0
C1871 C 0.18374 0.24917 0.08947 0.0
C1872 C 0.17712 0.2873 0.00631 0.0
C1873 C 0.18526 0.28309 0.95914 0.0
C1874 C 0.18433 0.26142 0.04554 0.0
C1875 C 0.193 0.26806 0.95713 0.0
C1876 C 0.19249 0.23472 0.08503 0.0
C1877 C 0.17341 0.24041 0.17411 0.0
N1878 N 0.19233 0.25782 0.99948 0.0
N1879 N 0.1745 0.25156 0.13398 0.0
H1880 H 0.45835 0.56513 0.85369 0.0
H1881 H 0.54694 0.54403 0.74387 0.0
H1882 H 0.49698 0.54853 0.9546 0.0
H1883 H 0.51269 0.57254 0.65488 0.0
H1884 H 0.52775 0.54278 0.81808 0.0
H1885 H 0.477 0.56519 0.77743 0.0
C1886 C 0.47074 0.56141 0.85969 0.0
C1887 C 0.47613 0.55686 0.91059 0.0
C1888 C 0.52441 0.54928 0.78228 0.0
C1889 C 0.49758 0.55685 0.82344 0.0
C1890 C 0.53535 0.54995 0.73966 0.0
C1891 C 0.53151 0.55844 0.69279 0.0
C1892 C 0.50936 0.55701 0.77815 0.0
C1893 C 0.51626 0.5659 0.69012 0.0
C1894 C 0.48141 0.56152 0.81623 0.0
C1895 C 0.49236 0.55227 0.91617 0.0
N1896 N 0.50578 0.56498 0.73203 0.0
N1897 N 0.50248 0.55233 0.87321 0.0
H1898 H 0.17067 0.75887 0.40325 0.0
H1899 H 0.1923 0.74632 0.71321 0.0
H1900 H 0.19543 0.79436 0.499 0.0
H1901 H 0.17654 0.70741 0.61188 0.0
H1902 H 0.19172 0.76456 0.63621 0.0
H1903 H 0.17103 0.7403 0.47971 0.0
C1904 C 0.17618 0.76279 0.44021 0.0
C1905 C 0.18306 0.77827 0.44433 0.0
C1906 C 0.18838 0.75204 0.63066 0.0
C1907 C 0.1834 0.75703 0.53242 0.0
C1908 C 0.18863 0.74164 0.67475 0.0
C1909 C 0.18442 0.72532 0.66905 0.0
C1910 C 0.18378 0.74617 0.58024 0.0
C1911 C 0.17997 0.71988 0.61802 0.0
C1912 C 0.1764 0.75215 0.48388 0.0
C1913 C 0.19002 0.78258 0.49353 0.0
N1914 N 0.1797 0.73026 0.57572 0.0
N1915 N 0.18995 0.7721 0.5354 0.0
H1916 H 0.03115 0.46186 0.376 0.0
H1917 H 0.98317 0.40871 0.16083 0.0
H1918 H 0.02811 0.41008 0.38686 0.0
H1919 H 0.97045 0.45793 0.19775 0.0
H1920 H 0.00359 0.40951 0.23199 0.0
H1921 H 0.01282 0.46115 0.29889 0.0
C1922 C 0.02674 0.45034 0.36173 0.0
C1923 C 0.03108 0.43602 0.38785 0.0
C1924 C 0.99636 0.42015 0.22422 0.0
C1925 C 0.01023 0.43506 0.2995 0.0
C1926 C 0.98477 0.41973 0.18341 0.0
C1927 C 0.975 0.43325 0.17329 0.0
C1928 C 0.99846 0.43429 0.25446 0.0
C1929 C 0.97761 0.44718 0.20422 0.0
C1930 C 0.01623 0.44994 0.31797 0.0
C1931 C 0.02496 0.42139 0.36795 0.0
N1932 N 0.98908 0.44736 0.24311 0.0
N1933 N 0.0149 0.42127 0.32492 0.0
H1934 H 0.32949 0.24005 0.89563 0.0
H1935 H 0.30005 0.25037 0.19812 0.0
H1936 H 0.29713 0.20669 0.97371 0.0
H1937 H 0.31858 0.29021 0.10611 0.0
H1938 H 0.30093 0.2334 0.11797 0.0
H1939 H 0.32752 0.25797 0.97348 0.0
C1940 C 0.32193 0.23651 0.9289 0.0
C1941 C 0.31348 0.22178 0.92786 0.0
C1942 C 0.30476 0.24587 0.11516 0.0
C1943 C 0.31136 0.24218 0.01753 0.0
C1944 C 0.30433 0.25552 0.16097 0.0
C1945 C 0.30927 0.2717 0.15872 0.0
C1946 C 0.3104 0.25234 0.0667 0.0
C1947 C 0.31459 0.27781 0.10945 0.0
C1948 C 0.32079 0.24676 0.97334 0.0
C1949 C 0.30386 0.21789 0.97239 0.0
N1950 N 0.31513 0.26812 0.0655 0.0
N1951 N 0.30318 0.22792 0.01534 0.0
H1952 H 0.10492 0.04785 0.28129 0.0
H1953 H 0.11179 0.95567 0.33542 0.0
H1954 H 0.09935 0.00965 0.16559 0.0
H1955 H 0.1003 0.99248 0.45128 0.0
H1956 H 0.12244 0.97642 0.27615 0.0
H1957 H 0.1182 0.02891 0.34127 0.0
C1958 C 0.10675 0.03554 0.26808 0.0
C1959 C 0.10027 0.03001 0.21974 0.0
C1960 C 0.11805 0.97988 0.31524 0.0
C1961 C 0.1155 0.0085 0.28778 0.0
C1962 C 0.11184 0.96808 0.34893 0.0
C1963 C 0.10432 0.97256 0.39687 0.0
C1964 C 0.1165 0.99614 0.3296 0.0
C1965 C 0.10533 0.98865 0.41346 0.0
C1966 C 0.11449 0.02481 0.30212 0.0
C1967 C 0.10357 0.01419 0.20359 0.0
N1968 N 0.1109 -1e-05 0.37911 0.0
N1969 N 0.11063 0.00382 0.23826 0.0
H1970 H 0.24324 0.82627 0.71724 0.0
H1971 H 0.23869 0.8479 0.43587 0.0
H1972 H 0.28265 0.85354 0.64918 0.0
H1973 H 0.19568 0.85208 0.53247 0.0
H1974 H 0.2549 0.85477 0.51382 0.0
H1975 H 0.22481 0.83949 0.65526 0.0
C1976 C 0.24793 0.83526 0.68993 0.0
C1977 C 0.26448 0.83841 0.68676 0.0
C1978 C 0.24186 0.85472 0.51749 0.0
C1979 C 0.24369 0.85337 0.61584 0.0
C1980 C 0.23265 0.85067 0.4731 0.0
C1981 C 0.21596 0.84865 0.47863 0.0
C1982 C 0.23427 0.85627 0.56738 0.0
C1983 C 0.20863 0.85284 0.52721 0.0
C1984 C 0.23742 0.84296 0.65502 0.0
C1985 C 0.26996 0.85047 0.65178 0.0
N1986 N 0.2179 0.85592 0.57043 0.0
N1987 N 0.25964 0.85717 0.61627 0.0
H1988 H 0.39874 0.99682 0.9785 0.0
H1989 H 0.40877 0.98489 0.67896 0.0
H1990 H 0.3791 0.03073 0.8656 0.0
H1991 H 0.41146 0.9455 0.79146 0.0
H1992 H 0.39272 0.00015 0.74356 0.0
H1993 H 0.39727 0.97573 0.9111 0.0
C1994 C 0.39357 -0.00039 0.9399 0.0
C1995 C 0.38931 0.01543 0.92681 0.0
C1996 C 0.39653 0.98802 0.75361 0.0
C1997 C 0.3884 0.9918 0.84887 0.0
C1998 C 0.40583 0.97941 0.71698 0.0
C1999 C 0.41197 0.96422 0.73086 0.0
C2000 C 0.39358 0.9814 0.80437 0.0
C2001 C 0.40747 0.95744 0.77992 0.0
C2002 C 0.39276 0.98763 0.90127 0.0
C2003 C 0.38262 0.0186 0.87664 0.0
N2004 N 0.3988 0.9662 0.81532 0.0
N2005 N 0.38289 0.00697 0.83857 0.0
H2006 H 0.24877 0.20602 0.87275 0.0
H2007 H 0.22658 0.15618 0.1319 0.0
H2008 H 0.25654 0.15474 0.88904 0.0
H2009 H 0.23102 0.20809 0.12255 0.0
H2010 H 0.23022 0.15462 0.03541 0.0
H2011 H 0.23233 0.20555 0.95336 0.0
C2012 C 0.24652 0.19455 0.89213 0.0
C2013 C 0.25465 0.18053 0.87624 0.0
C2014 C 0.23034 0.16633 0.0546 0.0
C2015 C 0.23636 0.18002 0.96829 0.0
C2016 C 0.22854 0.16722 0.10962 0.0
C2017 C 0.22869 0.18228 0.13522 0.0
C2018 C 0.23231 0.18059 0.02519 0.0
C2019 C 0.23107 0.19621 0.10454 0.0
C2020 C 0.23729 0.19432 0.93845 0.0
C2021 C 0.25097 0.16593 0.90168 0.0
N2022 N 0.23278 0.19502 0.051 0.0
N2023 N 0.24246 0.16611 0.94777 0.0
H2024 H 0.92121 0.99397 0.96812 0.0
H2025 H 0.92069 0.00695 0.65204 0.0
H2026 H 0.93279 0.9557 0.85799 0.0
H2027 H 0.93635 0.04462 0.75885 0.0
H2028 H 0.91945 0.98824 0.72812 0.0
H2029 H 0.92098 0.01314 0.8926 0.0
C2030 C 0.92354 0.98958 0.92815 0.0
C2031 C 0.92712 0.97322 0.91946 0.0
C2032 C 0.92314 0.00062 0.73479 0.0
C2033 C 0.9266 0.99495 0.83309 0.0
C2034 C 0.92385 0.0113 0.6914 0.0
C2035 C 0.92879 0.02736 0.69883 0.0
C2036 C 0.92697 0.00611 0.78634 0.0
C2037 C 0.93266 0.03231 0.75103 0.0
C2038 C 0.9235 0.00051 0.88519 0.0
C2039 C 0.93011 0.96822 0.8667 0.0
N2040 N 0.93156 0.02179 0.79275 0.0
N2041 N 0.92968 0.97897 0.82567 0.0
H2042 H 0.75516 0.17909 0.71046 0.0
H2043 H 0.7406 0.18017 0.39619 0.0
H2044 H 0.79225 0.19527 0.60194 0.0
H2045 H 0.70255 0.19123 0.50798 0.0
H2046 H 0.76012 0.18076 0.47037 0.0
H2047 H 0.73593 0.17864 0.63588 0.0
C2048 C 0.75926 0.18257 0.67105 0.0
C2049 C 0.77534 0.18736 0.66268 0.0
C2050 C 0.74748 0.18306 0.47844 0.0
C2051 C 0.75347 0.18644 0.57686 0.0
C2052 C 0.73634 0.18267 0.43622 0.0
C2053 C 0.71991 0.18576 0.44572 0.0
C2054 C 0.74209 0.18611 0.53074 0.0
C2055 C 0.7151 0.18892 0.49857 0.0
C2056 C 0.74828 0.18231 0.62853 0.0
C2057 C 0.77995 0.19166 0.61048 0.0
N2058 N 0.72607 0.18888 0.53899 0.0
N2059 N 0.76914 0.19095 0.56955 0.0
H2060 H 0.55716 0.95698 0.24388 0.0
H2061 H 0.56092 0.04737 0.34619 0.0
H2062 H 0.57701 0.99462 0.14457 0.0
H2063 H 0.5696 0.00747 0.45289 0.0
H2064 H 0.56206 0.0287 0.27037 0.0
H2065 H 0.55672 0.97577 0.31928 0.0
C2066 C 0.56129 0.96924 0.23771 0.0
C2067 C 0.5671 0.97421 0.18756 0.0
C2068 C 0.56373 0.02406 0.31037 0.0
C2069 C 0.56646 0.99585 0.27402 0.0
C2070 C 0.563 0.03467 0.35374 0.0
C2071 C 0.56514 0.02899 0.40615 0.0
C2072 C 0.56619 0.00752 0.31929 0.0
C2073 C 0.56792 0.01239 0.41328 0.0
C2074 C 0.56114 0.97991 0.28096 0.0
C2075 C 0.57245 0.99025 0.18239 0.0
N2076 N 0.56817 0.00222 0.37045 0.0
N2077 N 0.57185 0.00053 0.2249 0.0
H2078 H 0.71766 0.79205 0.13588 0.0
H2079 H 0.77105 0.84522 0.93654 0.0
H2080 H 0.73161 0.84091 0.17338 0.0
H2081 H 0.77453 0.79332 0.94353 0.0
H2082 H 0.75291 0.84456 0.0143 0.0
H2083 H 0.73519 0.79292 0.05715 0.0
C2084 C 0.72446 0.80295 0.12772 0.0
C2085 C 0.7232 0.8164 0.16161 0.0
C2086 C 0.75759 0.83333 0.99852 0.0
C2087 C 0.74305 0.81758 0.07054 0.0
C2088 C 0.76781 0.83368 0.95383 0.0
C2089 C 0.77433 0.8193 0.93334 0.0
C2090 C 0.75359 0.81848 0.0223 0.0
C2091 C 0.76984 0.80471 0.95794 0.0
C2092 C 0.73446 0.80343 0.08271 0.0
C2093 C 0.7323 0.8302 0.14874 0.0
N2094 N 0.75973 0.80467 1.00083 0.0
N2095 N 0.74171 0.8305 0.10402 0.0
H2096 H 0.59212 0.48725 0.90744 0.0
H2097 H 0.6005 0.49891 0.60772 0.0
H2098 H 0.5862 0.44831 0.79469 0.0
H2099 H 0.62176 0.53203 0.71991 0.0
H2100 H 0.60214 0.47754 0.67412 0.0
H2101 H 0.60858 0.50163 0.84186 0.0
C2102 C 0.59439 0.48169 0.86907 0.0
C2103 C 0.58729 0.46689 0.8556 0.0
C2104 C 0.60699 0.48931 0.68395 0.0
C2105 C 0.60619 0.48308 0.78088 0.0
C2106 C 0.60612 0.50145 0.64583 0.0
C2107 C 0.61066 0.51716 0.65925 0.0
C2108 C 0.61171 0.49325 0.73619 0.0
C2109 C 0.61795 0.51999 0.7087 0.0
C2110 C 0.60396 0.48978 0.83189 0.0
C2111 C 0.59099 0.45996 0.80605 0.0
N2112 N 0.61771 0.50825 0.7464 0.0
N2113 N 0.59994 0.46826 0.7701 0.0
H2114 H 0.7237 0.3553 0.94039 0.0
H2115 H 0.79194 0.31732 0.11686 0.0
H2116 H 0.75523 0.31641 0.89238 0.0
H2117 H 0.75042 0.34306 0.1756 0.0
H2118 H 0.78599 0.32669 0.02661 0.0
H2119 H 0.74171 0.36116 0.01462 0.0
C2120 C 0.73467 0.3483 0.94446 0.0
C2121 C 0.73759 0.33473 0.91236 0.0
C2122 C 0.77827 0.33043 0.05926 0.0
C2123 C 0.75801 0.34141 0.99649 0.0
C2124 C 0.78144 0.32482 0.11024 0.0
C2125 C 0.77101 0.32871 0.15221 0.0
C2126 C 0.76451 0.33989 0.05055 0.0
C2127 C 0.75823 0.33931 0.14324 0.0
C2128 C 0.74493 0.35169 0.98678 0.0
C2129 C 0.75222 0.3265 0.91794 0.0
N2130 N 0.75509 0.34431 0.09277 0.0
N2131 N 0.76174 0.32969 0.96046 0.0
H2132 H 0.88145 0.54457 0.32085 0.0
H2133 H 0.8965 0.45236 0.26882 0.0
H2134 H 0.89246 0.50883 0.44074 0.0
H2135 H 0.90232 0.49043 0.15263 0.0
H2136 H 0.88213 0.47108 0.3268 0.0
H2137 H 0.87573 0.52293 0.25755 0.0
C2138 C 0.88216 0.53218 0.33438 0.0
C2139 C 0.88812 0.52838 0.3852 0.0
C2140 C 0.88624 0.47522 0.2881 0.0
C2141 C 0.8816 0.50381 0.31343 0.0
C2142 C 0.89458 0.46462 0.25519 0.0
C2143 C 0.90121 0.47011 0.20696 0.0
C2144 C 0.88471 0.49141 0.27282 0.0
C2145 C 0.89786 0.48589 0.19038 0.0
C2146 C 0.87889 0.51986 0.29823 0.0
C2147 C 0.88848 0.5122 0.40115 0.0
N2148 N 0.89012 0.49615 0.22392 0.0
N2149 N 0.88563 0.50043 0.36487 0.0
H2150 H 0.7594 0.65992 0.43884 0.0
H2151 H 0.71646 0.62876 0.64117 0.0
H2152 H 0.80078 0.6601 0.54341 0.0
H2153 H 0.752 0.65508 0.73155 0.0
H2154 H 0.73612 0.62554 0.56874 0.0
H2155 H 0.74455 0.64427 0.50524 0.0
C2156 C 0.76544 0.65638 0.47531 0.0
C2157 C 0.78107 0.66181 0.4867 0.0
C2158 C 0.73974 0.63162 0.60503 0.0
C2159 C 0.76446 0.64355 0.56197 0.0
C2160 C 0.72864 0.63324 0.64658 0.0
C2161 C 0.73266 0.64256 0.69124 0.0
C2162 C 0.75473 0.63943 0.60902 0.0
C2163 C 0.74848 0.64811 0.69692 0.0
C2164 C 0.75707 0.64719 0.51289 0.0
C2165 C 0.78851 0.65665 0.53392 0.0
N2166 N 0.75891 0.64671 0.65564 0.0
N2167 N 0.78 0.64811 0.57039 0.0
H2168 H 0.4374 0.54272 0.25349 0.0
H2169 H 0.43942 0.45225 0.35513 0.0
H2170 H 0.42782 0.50315 0.14631 0.0
H2171 H 0.42052 0.49026 0.45476 0.0
H2172 H 0.44003 0.47102 0.27961 0.0
H2173 H 0.43588 0.52399 0.32905 0.0
C2174 C 0.43504 0.53007 0.24577 0.0
C2175 C 0.43277 0.5245 0.19332 0.0
C2176 C 0.43576 0.47524 0.31801 0.0
C2177 C 0.43127 0.50297 0.27989 0.0
C2178 C 0.43552 0.46458 0.36132 0.0
C2179 C 0.42995 0.46968 0.41159 0.0
C2180 C 0.43078 0.49127 0.32506 0.0
C2181 C 0.42489 0.48579 0.41683 0.0
C2182 C 0.43409 0.51943 0.28901 0.0
C2183 C 0.42962 0.50799 0.18598 0.0
N2184 N 0.42559 0.49606 0.37428 0.0
N2185 N 0.42915 0.49777 0.2287 0.0
H2186 H 0.29751 0.6886 0.09414 0.0
H2187 H 0.20523 0.69219 0.01095 0.0
H2188 H 0.25973 0.67697 0.20636 0.0
H2189 H 0.2419 0.67726 0.899 0.0
H2190 H 0.22519 0.69092 0.08284 0.0
H2191 H 0.27753 0.6887 0.02214 0.0
C2192 C 0.28499 0.68613 0.10376 0.0
C2193 C 0.28031 0.6828 0.1566 0.0
C2194 C 0.22886 0.68791 0.04257 0.0
C2195 C 0.25732 0.68311 0.07404 0.0
C2196 C 0.21751 0.68873 1.00134 0.0
C2197 C 0.22188 0.68488 0.94861 0.0
C2198 C 0.24486 0.68358 0.0311 0.0
C2199 C 0.23797 0.68033 0.93893 0.0
C2200 C 0.27363 0.6861 0.06249 0.0
C2201 C 0.26391 0.67956 0.16633 0.0
N2202 N 0.24891 0.67998 0.97963 0.0
N2203 N 0.25299 0.67998 0.12559 0.0
H2204 H 0.07272 0.4933 0.6289 0.0
H2205 H 0.06855 0.50863 0.94278 0.0
H2206 H 0.05903 0.45552 0.73844 0.0
H2207 H 0.05556 0.54549 0.82909 0.0
H2208 H 0.07008 0.48899 0.86921 0.0
H2209 H 0.07153 0.51279 0.70286 0.0
C2210 C 0.06952 0.48909 0.66844 0.0
C2211 C 0.06586 0.47275 0.67731 0.0
C2212 C 0.06688 0.50139 0.86057 0.0
C2213 C 0.06481 0.49492 0.76224 0.0
C2214 C 0.06603 0.5126 0.90247 0.0
C2215 C 0.06178 0.52872 0.89226 0.0
C2216 C 0.0639 0.50643 0.80789 0.0
C2217 C 0.05871 0.53317 0.83903 0.0
C2218 C 0.0688 0.50021 0.71055 0.0
C2219 C 0.0618 0.46801 0.72956 0.0
N2220 N 0.05996 0.52215 0.79893 0.0
N2221 N 0.06151 0.47898 0.77003 0.0
H2222 H 0.22982 0.34176 0.67514 0.0
H2223 H 0.28075 0.28647 0.47628 0.0
H2224 H 0.22126 0.29062 0.66036 0.0
H2225 H 0.26889 0.3357 0.43652 0.0
H2226 H 0.26289 0.28824 0.55414 0.0
H2227 H 0.24844 0.34028 0.59853 0.0
C2228 C 0.23205 0.3302 0.65639 0.0
C2229 C 0.22397 0.31629 0.67428 0.0
C2230 C 0.26418 0.29864 0.52828 0.0
C2231 C 0.24527 0.31452 0.58696 0.0
C2232 C 0.27437 0.29764 0.48382 0.0
C2233 C 0.27626 0.31092 0.44947 0.0
C2234 C 0.25609 0.31314 0.53955 0.0
C2235 C 0.26768 0.32511 0.46152 0.0
C2236 C 0.24254 0.3294 0.61241 0.0
C2237 C 0.22718 0.30165 0.64792 0.0
N2238 N 0.2581 0.32591 0.5058 0.0
N2239 N 0.23762 0.30113 0.60595 0.0
H2240 H 0.13136 0.16857 0.24329 0.0
H2241 H 0.11469 0.07927 0.13982 0.0
H2242 H 0.16978 0.13523 0.20549 0.0
H2243 H 0.08009 0.11795 0.12382 0.0
H2244 H 0.13456 0.09871 0.17254 0.0
H2245 H 0.1118 0.14909 0.20918 0.0
C2246 C 0.13569 0.15712 0.22806 0.0
C2247 C 0.15225 0.15353 0.22717 0.0
C2248 C 0.12264 0.10293 0.1616 0.0
C2249 C 0.12989 0.1312 0.1882 0.0
C2250 C 0.11128 0.09186 0.14301 0.0
C2251 C 0.0957 0.097 0.12906 0.0
C2252 C 0.11832 0.11922 0.16703 0.0
C2253 C 0.09197 0.11346 0.13397 0.0
C2254 C 0.12451 0.14606 0.20833 0.0
C2255 C 0.15714 0.13852 0.20678 0.0
N2256 N 0.10317 0.12397 0.15294 0.0
N2257 N 0.146 0.12787 0.18827 0.0
H2258 H 0.1317 0.83104 0.35907 0.0
H2259 H 0.11593 0.92087 0.46189 0.0
H2260 H 0.16938 0.86673 0.37575 0.0
H2261 H 0.08215 0.88187 0.48702 0.0
H2262 H 0.1349 0.90177 0.42247 0.0
H2263 H 0.11238 0.85032 0.39651 0.0
C2264 C 0.13588 0.84298 0.37007 0.0
C2265 C 0.15219 0.84727 0.3644 0.0
C2266 C 0.12337 0.89738 0.43684 0.0
C2267 C 0.1302 0.86929 0.40743 0.0
C2268 C 0.11253 0.90827 0.45943 0.0
C2269 C 0.09743 0.90295 0.47786 0.0
C2270 C 0.11903 0.88107 0.43208 0.0
C2271 C 0.09369 0.88648 0.47353 0.0
C2272 C 0.12488 0.85392 0.39178 0.0
C2273 C 0.15694 0.86288 0.37953 0.0
N2274 N 0.10439 0.87612 0.45076 0.0
N2275 N 0.146 0.87331 0.40036 0.0
H2276 H 0.39414 0.91711 0.65902 0.0
H2277 H 0.3737 0.82653 0.74392 0.0
H2278 H 0.42519 0.87693 0.62018 0.0
H2279 H 0.33715 0.86315 0.72351 0.0
H2280 H 0.39405 0.8457 0.7117 0.0
H2281 H 0.37431 0.89818 0.69532 0.0
C2282 C 0.3968 0.90431 0.65814 0.0
C2283 C 0.41133 0.89859 0.63632 0.0
C2284 C 0.38158 0.84951 0.71445 0.0
C2285 C 0.38875 0.87691 0.67841 0.0
C2286 C 0.36998 0.83863 0.73312 0.0
C2287 C 0.35369 0.84324 0.73624 0.0
C2288 C 0.37689 0.86516 0.69962 0.0
C2289 C 0.34955 0.85905 0.72147 0.0
C2290 C 0.38546 0.89352 0.67879 0.0
C2291 C 0.41411 0.88186 0.63632 0.0
N2292 N 0.36107 0.86946 0.70394 0.0
N2293 N 0.40296 0.87161 0.65729 0.0
H2294 H 0.37853 0.075 0.96032 0.0
H2295 H 0.36514 0.16601 0.87011 0.0
H2296 H 0.41242 0.11329 0.99394 0.0
H2297 H 0.32553 0.13245 0.88655 0.0
H2298 H 0.38322 0.14598 0.90858 0.0
H2299 H 0.35933 0.09513 0.92739 0.0
C2300 C 0.38191 0.08763 0.96098 0.0
C2301 C 0.39714 0.09246 0.97965 0.0
C2302 C 0.37057 0.143 0.90394 0.0
C2303 C 0.37533 0.11545 0.94161 0.0
C2304 C 0.36024 0.1544 0.88168 0.0
C2305 C 0.34379 0.15089 0.87501 0.0
C2306 C 0.36448 0.12787 0.91907 0.0
C2307 C 0.33813 0.13566 0.89103 0.0
C2308 C 0.37094 0.09909 0.94231 0.0
C2309 C 0.40083 0.109 0.97988 0.0
N2310 N 0.34849 0.12465 0.91208 0.0
N2311 N 0.39006 0.11988 0.96067 0.0
H2312 H 0.8883 0.90095 0.05619 0.0
H2313 H 0.85294 0.85779 0.80909 0.0
H2314 H 0.9181 0.89513 0.91616 0.0
H2315 H 0.84767 0.83462 0.9622 0.0
H2316 H 0.87419 0.87503 0.84651 0.0
H2317 H 0.87023 0.87973 0.0224 0.0
C2318 C 0.89107 0.89514 0.01858 0.0
C2319 C 0.90466 0.89975 0.9888 0.0
C2320 C 0.86847 0.86604 0.87164 0.0
C2321 C 0.88402 0.87596 0.94987 0.0
C2322 C 0.85637 0.85629 0.85049 0.0
C2323 C 0.84868 0.84481 0.88274 0.0
C2324 C 0.87244 0.86465 0.92577 0.0
C2325 C 0.85347 0.8433 0.93614 0.0
C2326 C 0.88085 0.88303 0.9996 0.0
C2327 C 0.90777 0.89185 0.94037 0.0
N2328 N 0.8649 0.85336 0.95645 0.0
N2329 N 0.89734 0.88052 0.92185 0.0
H2330 H 0.87758 0.08164 0.61205 0.0
H2331 H 0.86317 0.17176 0.71328 0.0
H2332 H 0.91652 0.11528 0.63959 0.0
H2333 H 0.8287 0.13341 0.73895 0.0
H2334 H 0.88211 0.15207 0.67639 0.0
H2335 H 0.85853 0.10155 0.64738 0.0
C2336 C 0.88211 0.09325 0.62504 0.0
C2337 C 0.89867 0.09679 0.62299 0.0
C2338 C 0.87043 0.14797 0.69032 0.0
C2339 C 0.87697 0.11955 0.66344 0.0
C2340 C 0.85961 0.15919 0.71136 0.0
C2341 C 0.84434 0.15422 0.72932 0.0
C2342 C 0.86587 0.1317 0.68646 0.0
C2343 C 0.84038 0.13777 0.72585 0.0
C2344 C 0.87125 0.10455 0.64555 0.0
C2345 C 0.90386 0.11201 0.64065 0.0
N2346 N 0.85104 0.12711 0.70446 0.0
N2347 N 0.89305 0.12284 0.66004 0.0
H2348 H 0.6311 0.17236 0.40286 0.0
H2349 H 0.6158 0.08184 0.50118 0.0
H2350 H 0.66532 0.13384 0.37687 0.0
H2351 H 0.57765 0.11675 0.47997 0.0
H2352 H 0.63521 0.10171 0.46736 0.0
H2353 H 0.61229 0.15288 0.44149 0.0
C2354 C 0.63464 0.1598 0.40505 0.0
C2355 C 0.6498 0.15472 0.38635 0.0
C2356 C 0.6226 0.10501 0.47039 0.0
C2357 C 0.62837 0.1324 0.43128 0.0
C2358 C 0.61153 0.09373 0.49005 0.0
C2359 C 0.59506 0.09762 0.49325 0.0
C2360 C 0.61717 0.12032 0.45442 0.0
C2361 C 0.59021 0.11319 0.47798 0.0
C2362 C 0.6239 0.14869 0.42718 0.0
C2363 C 0.65373 0.13828 0.39048 0.0
N2364 N 0.60121 0.12396 0.45923 0.0
N2365 N 0.64311 0.12771 0.41273 0.0
H2366 H 0.66899 0.86878 0.25854 0.0
H2367 H 0.58069 0.88558 0.14474 0.0
H2368 H 0.63614 0.83024 0.21752 0.0
H2369 H 0.62019 0.91937 0.13075 0.0
H2370 H 0.59933 0.86583 0.18356 0.0
H2371 H 0.64941 0.88831 0.22516 0.0
C2372 C 0.6576 0.86441 0.24294 0.0
C2373 C 0.65424 0.84783 0.24054 0.0
C2374 C 0.60386 0.87757 0.17188 0.0
C2375 C 0.6318 0.87017 0.20229 0.0
C2376 C 0.59326 0.88885 0.14984 0.0
C2377 C 0.59891 0.90413 0.13435 0.0
C2378 C 0.62014 0.88173 0.17921 0.0
C2379 C 0.61532 0.90771 0.14184 0.0
C2380 C 0.64648 0.87558 0.22362 0.0
C2381 C 0.63927 0.84291 0.21982 0.0
N2382 N 0.62533 0.89662 0.16397 0.0
N2383 N 0.62858 0.85404 0.20147 0.0
H2384 H 0.67438 0.63413 0.70042 0.0
H2385 H 0.58378 0.61549 0.61331 0.0
H2386 H 0.63476 0.66677 0.73043 0.0
H2387 H 0.61913 0.57793 0.63808 0.0
H2388 H 0.60332 0.63537 0.64492 0.0
H2389 H 0.65515 0.61418 0.66666 0.0
C2390 C 0.66165 0.63711 0.69987 0.0
C2391 C 0.65616 0.65213 0.71835 0.0
C2392 C 0.60678 0.62277 0.64342 0.0
C2393 C 0.63418 0.62945 0.6794 0.0
C2394 C 0.59567 0.61142 0.62517 0.0
C2395 C 0.59982 0.59501 0.62321 0.0
C2396 C 0.62222 0.61771 0.65918 0.0
C2397 C 0.6154 0.59044 0.63919 0.0
C2398 C 0.6507 0.62571 0.68075 0.0
C2399 C 0.63953 0.65533 0.71678 0.0
N2400 N 0.62607 0.60176 0.65637 0.0
N2401 N 0.62913 0.64411 0.69739 0.0
H2402 H 0.66418 0.36706 0.87521 0.0
H2403 H 0.57431 0.38117 0.97702 0.0
H2404 H 0.62697 0.33091 0.85869 0.0
H2405 H 0.60614 0.42039 0.93417 0.0
H2406 H 0.59425 0.36202 0.94241 0.0
H2407 H 0.64377 0.38637 0.905 0.0
C2408 C 0.65171 0.3632 0.87767 0.0
C2409 C 0.64727 0.34735 0.86448 0.0
C2410 C 0.59682 0.37483 0.94048 0.0
C2411 C 0.62391 0.36933 0.89917 0.0
C2412 C 0.5855 0.38576 0.96044 0.0
C2413 C 0.58857 0.40241 0.95853 0.0
C2414 C 0.61142 0.38058 0.91924 0.0
C2415 C 0.60325 0.40767 0.93641 0.0
C2416 C 0.64007 0.37424 0.89455 0.0
C2417 C 0.63091 0.34303 0.86827 0.0
N2418 N 0.61417 0.39678 0.91795 0.0
N2419 N 0.61983 0.35392 0.88575 0.0
H2420 H 0.86751 0.33036 0.23512 0.0
H2421 H 0.88511 0.42056 0.14207 0.0
H2422 H 0.82947 0.36564 0.21853 0.0
H2423 H 0.91592 0.38033 0.10155 0.0
H2424 H 0.86545 0.40157 0.17976 0.0
H2425 H 0.88655 0.34968 0.19685 0.0
C2426 C 0.86316 0.3422 0.22369 0.0
C2427 C 0.84685 0.34638 0.22991 0.0
C2428 C 0.87649 0.39694 0.16233 0.0
C2429 C 0.86862 0.36854 0.18622 0.0
C2430 C 0.88771 0.40775 0.14088 0.0
C2431 C 0.90218 0.40202 0.11857 0.0
C2432 C 0.8799 0.38035 0.16225 0.0
C2433 C 0.90492 0.3853 0.11816 0.0
C2434 C 0.87403 0.35318 0.20157 0.0
C2435 C 0.84193 0.36189 0.21423 0.0
N2436 N 0.89395 0.37507 0.14005 0.0
N2437 N 0.85279 0.37245 0.19327 0.0
H2438 H 0.82633 0.6433 0.41402 0.0
H2439 H 0.91635 0.61918 0.49327 0.0
H2440 H 0.8677 0.67256 0.37318 0.0
H2441 H 0.87838 0.58399 0.47295 0.0
H2442 H 0.8977 0.64034 0.4644 0.0
H2443 H 0.8445 0.62275 0.44993 0.0
C2444 C 0.83923 0.64542 0.41265 0.0
C2445 C 0.84552 0.65964 0.39033 0.0
C2446 C 0.89347 0.62799 0.46654 0.0
C2447 C 0.8663 0.63627 0.43195 0.0
C2448 C 0.90405 0.61592 0.48335 0.0
C2449 C 0.89892 0.59978 0.48529 0.0
C2450 C 0.8776 0.62392 0.45235 0.0
C2451 C 0.88286 0.59626 0.47174 0.0
C2452 C 0.84957 0.63367 0.43308 0.0
C2453 C 0.86234 0.66173 0.3897 0.0
N2454 N 0.87276 0.60824 0.45587 0.0
N2455 N 0.87216 0.65019 0.41043 0.0
H2456 H 0.37697 0.41482 0.47268 0.0
H2457 H 0.36336 0.32343 0.38804 0.0
H2458 H 0.41655 0.38116 0.45858 0.0
H2459 H 0.33042 0.3618 0.34618 0.0
H2460 H 0.38251 0.34366 0.42073 0.0
H2461 H 0.35894 0.39461 0.43447 0.0
C2462 C 0.38186 0.40315 0.46173 0.0
C2463 C 0.3983 0.39966 0.46881 0.0
C2464 C 0.37114 0.34761 0.40394 0.0
C2465 C 0.3777 0.37649 0.42515 0.0
C2466 C 0.36021 0.3361 0.3853 0.0
C2467 C 0.34524 0.34093 0.36446 0.0
C2468 C 0.36695 0.36401 0.40249 0.0
C2469 C 0.34181 0.3575 0.36187 0.0
C2470 C 0.37158 0.39167 0.43961 0.0
C2471 C 0.40397 0.38436 0.45367 0.0
N2472 N 0.35251 0.36843 0.38118 0.0
N2473 N 0.39365 0.37328 0.43279 0.0
H2474 H 0.36905 0.66866 0.20286 0.0
H2475 H 0.38312 0.57843 0.10072 0.0
H2476 H 0.33437 0.63045 0.22764 0.0
H2477 H 0.42186 0.61255 0.12455 0.0
H2478 H 0.36404 0.59839 0.13573 0.0
H2479 H 0.3877 0.64906 0.16413 0.0
C2480 C 0.36538 0.65613 0.20042 0.0
C2481 C 0.35014 0.65118 0.21875 0.0
C2482 C 0.37671 0.60149 0.13304 0.0
C2483 C 0.37136 0.62873 0.17366 0.0
C2484 C 0.38759 0.59016 0.11269 0.0
C2485 C 0.40412 0.5938 0.10983 0.0
C2486 C 0.38239 0.61661 0.15003 0.0
C2487 C 0.40924 0.60919 0.12622 0.0
C2488 C 0.37603 0.64496 0.17824 0.0
C2489 C 0.34603 0.63479 0.21433 0.0
N2490 N 0.39842 0.62001 0.14559 0.0
N2491 N 0.35655 0.62416 0.19196 0.0
H2492 H 0.08314 0.60111 0.88698 0.0
H2493 H 0.15121 0.66234 0.95675 0.0
H2494 H 0.10812 0.59626 0.03707 0.0
H2495 H 0.15182 0.6391 0.80279 0.0
H2496 H 0.13154 0.64233 0.98804 0.0
H2497 H 0.10442 0.61941 0.85573 0.0
C2498 C 0.09305 0.60401 0.91348 0.0
C2499 C 0.09389 0.59726 0.96477 0.0
C2500 C 0.13604 0.64163 0.94751 0.0
C2501 C 0.11798 0.61823 0.92949 0.0
C2502 C 0.14713 0.65305 0.92951 0.0
C2503 C 0.15304 0.65234 0.87708 0.0
C2504 C 0.13048 0.62976 0.91232 0.0
C2505 C 0.14753 0.64 0.8435 0.0
C2506 C 0.1052 0.61429 0.89543 0.0
C2507 C 0.10707 0.60124 0.99728 0.0
N2508 N 0.13631 0.62928 0.86146 0.0
N2509 N 0.11853 0.61169 0.97936 0.0
H2510 H 0.11834 0.41826 0.60211 0.0
H2511 H 0.13459 0.32877 0.70544 0.0
H2512 H 0.07983 0.38383 0.6259 0.0
H2513 H 0.1666 0.36878 0.73729 0.0
H2514 H 0.11531 0.34762 0.66533 0.0
H2515 H 0.13738 0.39883 0.63949 0.0
C2516 C 0.1139 0.40658 0.61481 0.0
C2517 C 0.09745 0.40268 0.61107 0.0
C2518 C 0.12654 0.35222 0.68132 0.0
C2519 C 0.11919 0.38042 0.65381 0.0
C2520 C 0.13754 0.3415 0.70416 0.0
C2521 C 0.15221 0.34722 0.72486 0.0
C2522 C 0.13037 0.3687 0.67843 0.0
C2523 C 0.15542 0.36384 0.72206 0.0
C2524 C 0.12476 0.39554 0.63641 0.0
C2525 C 0.09239 0.38735 0.62825 0.0
N2526 N 0.14463 0.37398 0.69896 0.0
N2527 N 0.10324 0.37675 0.64884 0.0
loop_
_geom_bond_atom_site_label_1
_geom_bond_atom_site_label_2
_geom_bond_distance
_geom_bond_site_symmetry_2
_ccdc_geom_bond_type
Co0 O3 1.970 . S
Co0 N17 1.989 . S
Co0 O25 1.967 . S
Co0 O32 1.920 . S
Co1 O4 1.966 . S
Co1 N10 2.022 1_554 S
Co1 N18 1.993 . S
Co1 O26 1.941 . S
C2 O3 1.258 . S
C2 O4 1.263 . S
O3 Co0 1.970 . S
O3 C2 1.258 . S
O4 Co1 1.966 . S
O4 C2 1.263 . S
C5 O6 1.235 . S
C5 O32 1.289 . S
O6 C5 1.235 . S
C7 C9 1.400 . S
C7 N10 1.351 . S
C7 C12 1.488 1_556 S
C8 C9 1.387 . S
C8 N11 1.341 . S
C9 C7 1.400 . S
C9 C8 1.387 . S
N10 Co1 2.022 1_556 S
N10 C7 1.351 . S
N10 N11 1.365 . S
N11 C8 1.341 . S
N11 N10 1.365 . S
N11 H31 0.862 . S
C12 C7 1.488 1_554 S
C12 H13 0.977 . S
C12 H14 0.956 1_554 S
C12 H15 0.962 . S
H13 C12 0.977 . S
H14 C12 0.956 1_556 S
H15 C12 0.962 . S
C16 N17 1.342 . S
C16 C20 1.401 1_554 S
C16 C21 1.499 . S
N17 Co0 1.989 . S
N17 C16 1.342 . S
N17 N18 1.388 . S
N18 Co1 1.993 . S
N18 N17 1.388 . S
N18 C19 1.346 1_554 S
C19 N18 1.346 1_556 S
C19 C20 1.396 . S
C19 C29 1.510 . S
C20 C16 1.401 1_556 S
C20 C19 1.396 . S
C21 C16 1.499 . S
C21 H22 0.959 . S
C21 H23 0.960 . S
C21 H24 0.961 . S
H22 C21 0.959 . S
H23 C21 0.960 . S
H24 C21 0.961 . S
O25 Co0 1.967 . S
O25 C33 1.258 . S
O26 Co1 1.941 . S
O26 C33 1.266 . S
H27 C29 0.959 . S
H28 C29 0.961 . S
C29 C19 1.510 . S
C29 H27 0.959 . S
C29 H28 0.961 . S
C29 H30 0.960 . S
H30 C29 0.960 . S
H31 N11 0.862 . S
O32 Co0 1.920 . S
O32 C5 1.289 . S
C33 O25 1.258 . S
C33 O26 1.266 . S
Co34 O37 1.970 . S
Co34 N51 1.989 . S
Co34 O59 1.967 . S
Co34 O66 1.920 . S
Co35 O38 1.966 . S
Co35 N44 2.022 . S
Co35 N52 1.993 . S
Co35 O60 1.941 . S
C36 O37 1.258 . S
C36 O38 1.263 . S
O37 Co34 1.970 . S
O37 C36 1.258 . S
O38 Co35 1.966 . S
O38 C36 1.263 . S
C39 O40 1.235 . S
C39 O66 1.289 . S
O40 C39 1.235 . S
C41 C43 1.400 . S
C41 N44 1.351 . S
C41 C46 1.501 . S
C42 C43 1.387 . S
C42 N45 1.341 . S
C43 C41 1.400 . S
C43 C42 1.387 . S
N44 Co35 2.022 . S
N44 C41 1.351 . S
N44 N45 1.365 . S
N45 C42 1.341 . S
N45 N44 1.365 . S
N45 H65 0.862 . S
C46 C41 1.501 . S
C46 H47 0.961 . S
C46 H48 0.961 . S
C46 H49 0.960 . S
H47 C46 0.961 . S
H48 C46 0.961 . S
H49 C46 0.960 . S
C50 N51 1.342 . S
C50 C54 1.401 . S
C50 C55 1.499 . S
N51 Co34 1.989 . S
N51 C50 1.342 . S
N51 N52 1.388 . S
N52 Co35 1.993 . S
N52 N51 1.388 . S
N52 C53 1.346 . S
C53 N52 1.346 . S
C53 C54 1.396 . S
C53 C63 1.510 . S
C54 C50 1.401 . S
C54 C53 1.396 . S
C55 C50 1.499 . S
C55 H56 0.959 . S
C55 H57 0.960 . S
C55 H58 0.961 . S
H56 C55 0.959 . S
H57 C55 0.960 . S
H58 C55 0.961 . S
O59 Co34 1.967 . S
O59 C67 1.258 . S
O60 Co35 1.941 . S
O60 C67 1.266 . S
H61 C63 0.959 . S
H62 C63 0.961 . S
C63 C53 1.510 . S
C63 H61 0.959 . S
C63 H62 0.961 . S
C63 H64 0.960 . S
H64 C63 0.960 . S
H65 N45 0.862 . S
O66 Co34 1.920 . S
O66 C39 1.289 . S
C67 O59 1.258 . S
C67 O60 1.266 . S
Co68 O71 1.970 . S
Co68 N85 1.989 . S
Co68 O93 1.967 . S
Co68 O100 1.920 . S
Co69 O72 1.966 . S
Co69 N78 2.022 . S
Co69 N86 1.993 . S
Co69 O94 1.941 . S
C70 O71 1.258 . S
C70 O72 1.263 . S
O71 Co68 1.970 . S
O71 C70 1.258 . S
O72 Co69 1.966 . S
O72 C70 1.263 . S
C73 O74 1.235 . S
C73 O100 1.289 . S
O74 C73 1.235 . S
C75 C77 1.400 . S
C75 N78 1.351 . S
C75 C80 1.501 . S
C76 C77 1.387 . S
C76 N79 1.341 . S
C77 C75 1.400 . S
C77 C76 1.387 . S
N78 Co69 2.022 . S
N78 C75 1.351 . S
N78 N79 1.365 . S
N79 C76 1.341 . S
N79 N78 1.365 . S
N79 H99 0.862 . S
C80 C75 1.501 . S
C80 H81 0.961 . S
C80 H82 0.961 . S
C80 H83 0.960 . S
H81 C80 0.961 . S
H82 C80 0.961 . S
H83 C80 0.960 . S
C84 N85 1.342 . S
C84 C88 1.401 . S
C84 C89 1.499 . S
N85 Co68 1.989 . S
N85 C84 1.342 . S
N85 N86 1.388 . S
N86 Co69 1.993 . S
N86 N85 1.388 . S
N86 C87 1.346 . S
C87 N86 1.346 . S
C87 C88 1.396 . S
C87 C97 1.510 . S
C88 C84 1.401 . S
C88 C87 1.396 . S
C89 C84 1.499 . S
C89 H90 0.959 . S
C89 H91 0.960 . S
C89 H92 0.961 . S
H90 C89 0.959 . S
H91 C89 0.960 . S
H92 C89 0.961 . S
O93 Co68 1.967 . S
O93 C101 1.258 . S
O94 Co69 1.941 . S
O94 C101 1.266 . S
H95 C97 0.959 . S
H96 C97 0.961 . S
C97 C87 1.510 . S
C97 H95 0.959 . S
C97 H96 0.961 . S
C97 H98 0.960 . S
H98 C97 0.960 . S
H99 N79 0.862 . S
O100 Co68 1.920 . S
O100 C73 1.289 . S
C101 O93 1.258 . S
C101 O94 1.266 . S
Co102 O105 1.970 . S
Co102 N119 1.989 . S
Co102 O127 1.967 . S
Co102 O134 1.920 . S
Co103 O106 1.966 . S
Co103 N112 2.022 . S
Co103 N120 1.993 . S
Co103 O128 1.941 . S
C104 O105 1.258 . S
C104 O106 1.263 . S
O105 Co102 1.970 . S
O105 C104 1.258 . S
O106 Co103 1.966 . S
O106 C104 1.263 . S
C107 O108 1.235 . S
C107 O134 1.289 . S
O108 C107 1.235 . S
C109 C111 1.400 . S
C109 N112 1.351 . S
C109 C114 1.501 . S
C110 C111 1.387 . S
C110 N113 1.341 . S
C111 C109 1.400 . S
C111 C110 1.387 . S
N112 Co103 2.022 . S
N112 C109 1.351 . S
N112 N113 1.365 . S
N113 C110 1.341 . S
N113 N112 1.365 . S
N113 H133 0.862 . S
C114 C109 1.501 . S
C114 H115 0.961 . S
C114 H116 0.961 . S
C114 H117 0.960 . S
H115 C114 0.961 . S
H116 C114 0.961 . S
H117 C114 0.960 . S
C118 N119 1.342 . S
C118 C122 1.401 . S
C118 C123 1.499 . S
N119 Co102 1.989 . S
N119 C118 1.342 . S
N119 N120 1.388 . S
N120 Co103 1.993 . S
N120 N119 1.388 . S
N120 C121 1.346 . S
C121 N120 1.346 . S
C121 C122 1.396 . S
C121 C131 1.510 . S
C122 C118 1.401 . S
C122 C121 1.396 . S
C123 C118 1.499 . S
C123 H124 0.959 . S
C123 H125 0.960 . S
C123 H126 0.961 . S
H124 C123 0.959 . S
H125 C123 0.960 . S
H126 C123 0.961 . S
O127 Co102 1.967 . S
O127 C135 1.258 . S
O128 Co103 1.941 . S
O128 C135 1.266 . S
H129 C131 0.959 . S
H130 C131 0.961 . S
C131 C121 1.510 . S
C131 H129 0.959 . S
C131 H130 0.961 . S
C131 H132 0.960 . S
H132 C131 0.960 . S
H133 N113 0.862 . S
O134 Co102 1.920 . S
O134 C107 1.289 . S
C135 O127 1.258 . S
C135 O128 1.266 . S
Co136 O139 1.970 . S
Co136 N153 1.989 . S
Co136 O161 1.967 . S
Co136 O168 1.920 . S
Co137 O140 1.966 . S
Co137 N146 2.022 . S
Co137 N154 1.993 . S
Co137 O162 1.941 . S
C138 O139 1.258 . S
C138 O140 1.263 . S
O139 Co136 1.970 . S
O139 C138 1.258 . S
O140 Co137 1.966 . S
O140 C138 1.263 . S
C141 O142 1.235 . S
C141 O168 1.289 . S
O142 C141 1.235 . S
C143 C145 1.400 . S
C143 N146 1.351 . S
C143 C148 1.501 . S
C144 C145 1.387 . S
C144 N147 1.341 . S
C145 C143 1.400 . S
C145 C144 1.387 . S
N146 Co137 2.022 . S
N146 C143 1.351 . S
N146 N147 1.365 . S
N147 C144 1.341 . S
N147 N146 1.365 . S
N147 H167 0.862 . S
C148 C143 1.501 . S
C148 H149 0.961 . S
C148 H150 0.961 . S
C148 H151 0.960 . S
H149 C148 0.961 . S
H150 C148 0.961 . S
H151 C148 0.960 . S
C152 N153 1.342 . S
C152 C156 1.401 . S
C152 C157 1.499 . S
N153 Co136 1.989 . S
N153 C152 1.342 . S
N153 N154 1.388 . S
N154 Co137 1.993 . S
N154 N153 1.388 . S
N154 C155 1.346 . S
C155 N154 1.346 . S
C155 C156 1.396 . S
C155 C165 1.510 . S
C156 C152 1.401 . S
C156 C155 1.396 . S
C157 C152 1.499 . S
C157 H158 0.959 . S
C157 H159 0.960 . S
C157 H160 0.961 . S
H158 C157 0.959 . S
H159 C157 0.960 . S
H160 C157 0.961 . S
O161 Co136 1.967 . S
O161 C169 1.258 . S
O162 Co137 1.941 . S
O162 C169 1.266 . S
H163 C165 0.959 . S
H164 C165 0.961 . S
C165 C155 1.510 . S
C165 H163 0.959 . S
C165 H164 0.961 . S
C165 H166 0.960 . S
H166 C165 0.960 . S
H167 N147 0.862 . S
O168 Co136 1.920 . S
O168 C141 1.289 . S
C169 O161 1.258 . S
C169 O162 1.266 . S
Co170 O173 1.970 . S
Co170 N187 1.989 . S
Co170 O195 1.967 . S
Co170 O202 1.920 . S
Co171 O174 1.966 . S
Co171 N180 2.022 . S
Co171 N188 1.993 . S
Co171 O196 1.941 . S
C172 O173 1.258 . S
C172 O174 1.263 . S
O173 Co170 1.970 . S
O173 C172 1.258 . S
O174 Co171 1.966 . S
O174 C172 1.263 . S
C175 O176 1.235 . S
C175 O202 1.289 . S
O176 C175 1.235 . S
C177 C179 1.400 . S
C177 N180 1.351 . S
C177 C182 1.501 . S
C178 C179 1.387 . S
C178 N181 1.341 . S
C179 C177 1.400 . S
C179 C178 1.387 . S
N180 Co171 2.022 . S
N180 C177 1.351 . S
N180 N181 1.365 . S
N181 C178 1.341 . S
N181 N180 1.365 . S
N181 H201 0.862 . S
C182 C177 1.501 . S
C182 H183 0.961 . S
C182 H184 0.961 . S
C182 H185 0.960 . S
H183 C182 0.961 . S
H184 C182 0.961 . S
H185 C182 0.960 . S
C186 N187 1.342 . S
C186 C190 1.401 . S
C186 C191 1.499 . S
N187 Co170 1.989 . S
N187 C186 1.342 . S
N187 N188 1.388 . S
N188 Co171 1.993 . S
N188 N187 1.388 . S
N188 C189 1.346 . S
C189 N188 1.346 . S
C189 C190 1.396 . S
C189 C199 1.510 . S
C190 C186 1.401 . S
C190 C189 1.396 . S
C191 C186 1.499 . S
C191 H192 0.959 . S
C191 H193 0.960 . S
C191 H194 0.961 . S
H192 C191 0.959 . S
H193 C191 0.960 . S
H194 C191 0.961 . S
O195 Co170 1.967 . S
O195 C203 1.258 . S
O196 Co171 1.941 . S
O196 C203 1.266 . S
H197 C199 0.959 . S
H198 C199 0.961 . S
C199 C189 1.510 . S
C199 H197 0.959 . S
C199 H198 0.961 . S
C199 H200 0.960 . S
H200 C199 0.960 . S
H201 N181 0.862 . S
O202 Co170 1.920 . S
O202 C175 1.289 . S
C203 O195 1.258 . S
C203 O196 1.266 . S
Co204 O207 1.970 . S
Co204 N221 1.989 1_556 S
Co204 O229 1.967 . S
Co204 O236 1.920 . S
Co205 O208 1.966 . S
Co205 N214 2.022 . S
Co205 N222 1.993 . S
Co205 O230 1.941 . S
C206 O207 1.258 . S
C206 O208 1.263 1_556 S
O207 Co204 1.970 . S
O207 C206 1.258 . S
O208 Co205 1.966 . S
O208 C206 1.263 1_554 S
C209 O210 1.235 . S
C209 O236 1.289 . S
O210 C209 1.235 . S
C211 C213 1.400 . S
C211 N214 1.351 . S
C211 C216 1.501 . S
C212 C213 1.387 . S
C212 N215 1.341 . S
C213 C211 1.400 . S
C213 C212 1.387 . S
N214 Co205 2.022 . S
N214 C211 1.351 . S
N214 N215 1.365 . S
N215 C212 1.341 . S
N215 N214 1.365 . S
N215 H235 0.862 . S
C216 C211 1.501 . S
C216 H217 0.961 . S
C216 H218 0.961 . S
C216 H219 0.960 . S
H217 C216 0.961 . S
H218 C216 0.961 . S
H219 C216 0.960 . S
C220 N221 1.342 . S
C220 C224 1.401 . S
C220 C225 1.499 . S
N221 Co204 1.989 1_554 S
N221 C220 1.342 . S
N221 N222 1.388 . S
N222 Co205 1.993 . S
N222 N221 1.388 . S
N222 C223 1.346 . S
C223 N222 1.346 . S
C223 C224 1.396 . S
C223 C233 1.510 . S
C224 C220 1.401 . S
C224 C223 1.396 . S
C225 C220 1.499 . S
C225 H226 0.959 . S
C225 H227 0.960 . S
C225 H228 0.961 . S
H226 C225 0.959 . S
H227 C225 0.960 . S
H228 C225 0.961 . S
O229 Co204 1.967 . S
O229 C237 1.246 1_556 S
O230 Co205 1.941 . S
O230 C237 1.284 . S
H231 C233 0.959 . S
H232 C233 0.961 . S
C233 C223 1.510 . S
C233 H231 0.959 . S
C233 H232 0.961 . S
C233 H234 0.960 . S
H234 C233 0.960 . S
H235 N215 0.862 . S
O236 Co204 1.920 . S
O236 C209 1.289 . S
C237 O229 1.246 1_554 S
C237 O230 1.284 . S
Co238 O241 1.970 . S
Co238 N255 1.989 . S
Co238 O263 1.967 . S
Co238 O270 1.920 . S
Co239 O242 1.966 . S
Co239 N248 2.022 . S
Co239 N256 1.993 . S
Co239 O264 1.941 . S
C240 O241 1.258 . S
C240 O242 1.263 . S
O241 Co238 1.970 . S
O241 C240 1.258 . S
O242 Co239 1.966 . S
O242 C240 1.263 . S
C243 O244 1.235 . S
C243 O270 1.289 . S
O244 C243 1.235 . S
C245 C247 1.400 . S
C245 N248 1.351 . S
C245 C250 1.501 . S
C246 C247 1.387 . S
C246 N249 1.341 . S
C247 C245 1.400 . S
C247 C246 1.387 . S
N248 Co239 2.022 . S
N248 C245 1.351 . S
N248 N249 1.365 . S
N249 C246 1.341 . S
N249 N248 1.365 . S
N249 H269 0.862 . S
C250 C245 1.501 . S
C250 H251 0.961 . S
C250 H252 0.961 . S
C250 H253 0.960 . S
H251 C250 0.961 . S
H252 C250 0.961 . S
H253 C250 0.960 . S
C254 N255 1.342 . S
C254 C258 1.401 . S
C254 C259 1.499 . S
N255 Co238 1.989 . S
N255 C254 1.342 . S
N255 N256 1.388 . S
N256 Co239 1.993 . S
N256 N255 1.388 . S
N256 C257 1.346 . S
C257 N256 1.346 . S
C257 C258 1.396 . S
C257 C267 1.510 . S
C258 C254 1.401 . S
C258 C257 1.396 . S
C259 C254 1.499 . S
C259 H260 0.959 . S
C259 H261 0.960 . S
C259 H262 0.961 . S
H260 C259 0.959 . S
H261 C259 0.960 . S
H262 C259 0.961 . S
O263 Co238 1.967 . S
O263 C271 1.258 . S
O264 Co239 1.941 . S
O264 C271 1.266 . S
H265 C267 0.959 . S
H266 C267 0.961 . S
C267 C257 1.510 . S
C267 H265 0.959 . S
C267 H266 0.961 . S
C267 H268 0.960 . S
H268 C267 0.960 . S
H269 N249 0.862 . S
O270 Co238 1.920 . S
O270 C243 1.289 . S
C271 O263 1.258 . S
C271 O264 1.266 . S
Co272 O275 1.970 . S
Co272 N289 1.989 1_556 S
Co272 O297 1.967 . S
Co272 O304 1.920 . S
Co273 O276 1.966 . S
Co273 N282 2.022 . S
Co273 N290 1.993 . S
Co273 O298 1.941 . S
C274 O275 1.258 . S
C274 O276 1.263 1_556 S
O275 Co272 1.970 . S
O275 C274 1.258 . S
O276 Co273 1.966 . S
O276 C274 1.263 1_554 S
C277 O278 1.235 . S
C277 O304 1.289 . S
O278 C277 1.235 . S
C279 C281 1.400 . S
C279 N282 1.351 . S
C279 C284 1.501 . S
C280 C281 1.387 . S
C280 N283 1.341 . S
C281 C279 1.400 . S
C281 C280 1.387 . S
N282 Co273 2.022 . S
N282 C279 1.351 . S
N282 N283 1.365 . S
N283 C280 1.341 . S
N283 N282 1.365 . S
N283 H303 0.862 . S
C284 C279 1.501 . S
C284 H285 0.961 . S
C284 H286 0.961 . S
C284 H287 0.960 . S
H285 C284 0.961 . S
H286 C284 0.961 . S
H287 C284 0.960 . S
C288 N289 1.342 . S
C288 C292 1.401 . S
C288 C293 1.499 . S
N289 Co272 1.989 1_554 S
N289 C288 1.342 . S
N289 N290 1.388 . S
N290 Co273 1.993 . S
N290 N289 1.388 . S
N290 C291 1.346 . S
C291 N290 1.346 . S
C291 C292 1.396 . S
C291 C301 1.510 . S
C292 C288 1.401 . S
C292 C291 1.396 . S
C293 C288 1.499 . S
C293 H294 0.959 . S
C293 H295 0.960 . S
C293 H296 0.961 . S
H294 C293 0.959 . S
H295 C293 0.960 . S
H296 C293 0.961 . S
O297 Co272 1.967 . S
O297 C305 1.258 1_556 S
O298 Co273 1.941 . S
O298 C305 1.266 . S
H299 C301 0.959 . S
H300 C301 0.961 . S
C301 C291 1.510 . S
C301 H299 0.959 . S
C301 H300 0.961 . S
C301 H302 0.960 . S
H302 C301 0.960 . S
H303 N283 0.862 . S
O304 Co272 1.920 . S
O304 C277 1.289 . S
C305 O297 1.258 1_554 S
C305 O298 1.266 . S
Co306 O309 1.970 . S
Co306 N323 1.989 . S
Co306 O331 1.967 . S
Co306 O338 1.920 . S
Co307 O310 1.966 . S
Co307 N316 2.022 . S
Co307 N324 1.993 . S
Co307 O332 1.941 . S
C308 O309 1.258 . S
C308 O310 1.263 . S
O309 Co306 1.970 . S
O309 C308 1.258 . S
O310 Co307 1.966 . S
O310 C308 1.263 . S
C311 O312 1.235 . S
C311 O338 1.289 . S
O312 C311 1.235 . S
C313 C315 1.400 . S
C313 N316 1.351 . S
C313 C318 1.501 . S
C314 C315 1.387 . S
C314 N317 1.341 . S
C315 C313 1.400 . S
C315 C314 1.387 . S
N316 Co307 2.022 . S
N316 C313 1.351 . S
N316 N317 1.365 . S
N317 C314 1.341 . S
N317 N316 1.365 . S
N317 H337 0.862 . S
C318 C313 1.501 . S
C318 H319 0.961 . S
C318 H320 0.961 . S
C318 H321 0.960 . S
H319 C318 0.961 . S
H320 C318 0.961 . S
H321 C318 0.960 . S
C322 N323 1.342 . S
C322 C326 1.401 . S
C322 C327 1.499 . S
N323 Co306 1.989 . S
N323 C322 1.342 . S
N323 N324 1.388 . S
N324 Co307 1.993 . S
N324 N323 1.388 . S
N324 C325 1.346 . S
C325 N324 1.346 . S
C325 C326 1.396 . S
C325 C335 1.510 . S
C326 C322 1.401 . S
C326 C325 1.396 . S
C327 C322 1.499 . S
C327 H328 0.959 . S
C327 H329 0.960 . S
C327 H330 0.961 . S
H328 C327 0.959 . S
H329 C327 0.960 . S
H330 C327 0.961 . S
O331 Co306 1.967 . S
O331 C339 1.258 . S
O332 Co307 1.941 . S
O332 C339 1.266 . S
H333 C335 0.959 . S
H334 C335 0.961 . S
C335 C325 1.510 . S
C335 H333 0.959 . S
C335 H334 0.961 . S
C335 H336 0.960 . S
H336 C335 0.960 . S
H337 N317 0.862 . S
O338 Co306 1.920 . S
O338 C311 1.289 . S
C339 O331 1.258 . S
C339 O332 1.266 . S
Co340 O343 1.970 . S
Co340 N357 1.989 . S
Co340 O365 1.967 . S
Co340 O372 1.920 . S
Co341 O344 1.966 . S
Co341 N350 2.022 . S
Co341 N358 1.993 . S
Co341 O366 1.941 . S
C342 O343 1.258 . S
C342 O344 1.263 . S
O343 Co340 1.970 . S
O343 C342 1.258 . S
O344 Co341 1.966 . S
O344 C342 1.263 . S
C345 O346 1.235 . S
C345 O372 1.289 . S
O346 C345 1.235 . S
C347 C349 1.400 . S
C347 N350 1.351 . S
C347 C352 1.501 . S
C348 C349 1.387 . S
C348 N351 1.341 . S
C349 C347 1.400 . S
C349 C348 1.387 . S
N350 Co341 2.022 . S
N350 C347 1.351 . S
N350 N351 1.365 . S
N351 C348 1.341 . S
N351 N350 1.365 . S
N351 H371 0.862 . S
C352 C347 1.501 . S
C352 H353 0.961 . S
C352 H354 0.961 . S
C352 H355 0.960 . S
H353 C352 0.961 . S
H354 C352 0.961 . S
H355 C352 0.960 . S
C356 N357 1.342 . S
C356 C360 1.401 . S
C356 C361 1.499 . S
N357 Co340 1.989 . S
N357 C356 1.342 . S
N357 N358 1.388 . S
N358 Co341 1.993 . S
N358 N357 1.388 . S
N358 C359 1.346 . S
C359 N358 1.346 . S
C359 C360 1.396 . S
C359 C369 1.510 . S
C360 C356 1.401 . S
C360 C359 1.396 . S
C361 C356 1.499 . S
C361 H362 0.959 . S
C361 H363 0.960 . S
C361 H364 0.961 . S
H362 C361 0.959 . S
H363 C361 0.960 . S
H364 C361 0.961 . S
O365 Co340 1.967 . S
O365 C373 1.258 . S
O366 Co341 1.941 . S
O366 C373 1.266 . S
H367 C369 0.959 . S
H368 C369 0.961 . S
C369 C359 1.510 . S
C369 H367 0.959 . S
C369 H368 0.961 . S
C369 H370 0.960 . S
H370 C369 0.960 . S
H371 N351 0.862 . S
O372 Co340 1.920 . S
O372 C345 1.289 . S
C373 O365 1.258 . S
C373 O366 1.266 . S
Co374 O377 1.970 . S
Co374 N391 1.989 . S
Co374 O399 1.967 . S
Co374 O406 1.920 . S
Co375 O378 1.966 . S
Co375 N384 2.022 . S
Co375 N392 1.993 . S
Co375 O400 1.941 . S
C376 O377 1.258 . S
C376 O378 1.263 . S
O377 Co374 1.970 . S
O377 C376 1.258 . S
O378 Co375 1.966 . S
O378 C376 1.263 . S
C379 O380 1.235 . S
C379 O406 1.289 . S
O380 C379 1.235 . S
C381 C383 1.400 . S
C381 N384 1.351 . S
C381 C386 1.501 . S
C382 C383 1.387 . S
C382 N385 1.341 . S
C383 C381 1.400 . S
C383 C382 1.387 . S
N384 Co375 2.022 . S
N384 C381 1.351 . S
N384 N385 1.365 . S
N385 C382 1.341 . S
N385 N384 1.365 . S
N385 H405 0.862 . S
C386 C381 1.501 . S
C386 H387 0.961 . S
C386 H388 0.961 . S
C386 H389 0.960 . S
H387 C386 0.961 . S
H388 C386 0.961 . S
H389 C386 0.960 . S
C390 N391 1.342 . S
C390 C394 1.401 . S
C390 C395 1.499 . S
N391 Co374 1.989 . S
N391 C390 1.342 . S
N391 N392 1.388 . S
N392 Co375 1.993 . S
N392 N391 1.388 . S
N392 C393 1.346 . S
C393 N392 1.346 . S
C393 C394 1.396 . S
C393 C403 1.510 . S
C394 C390 1.401 . S
C394 C393 1.396 . S
C395 C390 1.499 . S
C395 H396 0.959 . S
C395 H397 0.960 . S
C395 H398 0.961 . S
H396 C395 0.959 . S
H397 C395 0.960 . S
H398 C395 0.961 . S
O399 Co374 1.967 . S
O399 C407 1.258 . S
O400 Co375 1.941 . S
O400 C407 1.266 . S
H401 C403 0.959 . S
H402 C403 0.961 . S
C403 C393 1.510 . S
C403 H401 0.959 . S
C403 H402 0.961 . S
C403 H404 0.960 . S
H404 C403 0.960 . S
H405 N385 0.862 . S
O406 Co374 1.920 . S
O406 C379 1.289 . S
C407 O399 1.258 . S
C407 O400 1.266 . S
Co408 O411 1.970 . S
Co408 N425 1.989 . S
Co408 O433 1.967 . S
Co408 O440 1.920 . S
Co409 O412 1.966 . S
Co409 N418 2.022 . S
Co409 N426 1.993 . S
Co409 O434 1.941 . S
C410 O411 1.258 . S
C410 O412 1.263 . S
O411 Co408 1.970 . S
O411 C410 1.258 . S
O412 Co409 1.966 . S
O412 C410 1.263 . S
C413 O414 1.235 . S
C413 O440 1.289 . S
O414 C413 1.235 . S
C415 C417 1.400 . S
C415 N418 1.351 . S
C415 C420 1.501 . S
C416 C417 1.387 . S
C416 N419 1.341 . S
C417 C415 1.400 . S
C417 C416 1.387 . S
N418 Co409 2.022 . S
N418 C415 1.351 . S
N418 N419 1.365 . S
N419 C416 1.341 . S
N419 N418 1.365 . S
N419 H439 0.862 . S
C420 C415 1.501 . S
C420 H421 0.961 . S
C420 H422 0.961 . S
C420 H423 0.960 . S
H421 C420 0.961 . S
H422 C420 0.961 . S
H423 C420 0.960 . S
C424 N425 1.342 . S
C424 C428 1.401 . S
C424 C429 1.499 . S
N425 Co408 1.989 . S
N425 C424 1.342 . S
N425 N426 1.388 . S
N426 Co409 1.993 . S
N426 N425 1.388 . S
N426 C427 1.346 . S
C427 N426 1.346 . S
C427 C428 1.396 . S
C427 C437 1.510 . S
C428 C424 1.401 . S
C428 C427 1.396 . S
C429 C424 1.499 . S
C429 H430 0.959 . S
C429 H431 0.960 . S
C429 H432 0.961 . S
H430 C429 0.959 . S
H431 C429 0.960 . S
H432 C429 0.961 . S
O433 Co408 1.967 . S
O433 C441 1.258 . S
O434 Co409 1.941 . S
O434 C441 1.266 . S
H435 C437 0.959 . S
H436 C437 0.961 . S
C437 C427 1.510 . S
C437 H435 0.959 . S
C437 H436 0.961 . S
C437 H438 0.960 . S
H438 C437 0.960 . S
H439 N419 0.862 . S
O440 Co408 1.920 . S
O440 C413 1.289 . S
C441 O433 1.258 . S
C441 O434 1.266 . S
Co442 O445 1.970 . S
Co442 N459 1.989 . S
Co442 O467 1.967 . S
Co442 O474 1.920 . S
Co443 O446 1.966 . S
Co443 N452 2.022 . S
Co443 N460 1.993 . S
Co443 O468 1.941 . S
C444 O445 1.258 . S
C444 O446 1.263 . S
O445 Co442 1.970 . S
O445 C444 1.258 . S
O446 Co443 1.966 . S
O446 C444 1.263 . S
C447 O448 1.235 . S
C447 O474 1.289 . S
O448 C447 1.235 . S
C449 C451 1.400 . S
C449 N452 1.351 . S
C449 C454 1.501 . S
C450 C451 1.387 . S
C450 N453 1.341 . S
C451 C449 1.400 . S
C451 C450 1.387 . S
N452 Co443 2.022 . S
N452 C449 1.351 . S
N452 N453 1.365 . S
N453 C450 1.341 . S
N453 N452 1.365 . S
N453 H473 0.862 . S
C454 C449 1.501 . S
C454 H455 0.961 . S
C454 H456 0.961 . S
C454 H457 0.960 . S
H455 C454 0.961 . S
H456 C454 0.961 . S
H457 C454 0.960 . S
C458 N459 1.342 . S
C458 C462 1.401 . S
C458 C463 1.499 . S
N459 Co442 1.989 . S
N459 C458 1.342 . S
N459 N460 1.388 . S
N460 Co443 1.993 . S
N460 N459 1.388 . S
N460 C461 1.346 . S
C461 N460 1.346 . S
C461 C462 1.396 . S
C461 C471 1.510 . S
C462 C458 1.401 . S
C462 C461 1.396 . S
C463 C458 1.499 . S
C463 H464 0.959 . S
C463 H465 0.960 . S
C463 H466 0.961 . S
H464 C463 0.959 . S
H465 C463 0.960 . S
H466 C463 0.961 . S
O467 Co442 1.967 . S
O467 C475 1.258 . S
O468 Co443 1.941 . S
O468 C475 1.266 . S
H469 C471 0.959 . S
H470 C471 0.961 . S
C471 C461 1.510 . S
C471 H469 0.959 . S
C471 H470 0.961 . S
C471 H472 0.960 . S
H472 C471 0.960 . S
H473 N453 0.862 . S
O474 Co442 1.920 . S
O474 C447 1.289 . S
C475 O467 1.258 . S
C475 O468 1.266 . S
Co476 O479 1.970 . S
Co476 N493 1.989 . S
Co476 O501 1.967 . S
Co476 O508 1.920 . S
Co477 O480 1.966 . S
Co477 N486 2.022 1_554 S
Co477 N494 1.993 . S
Co477 O502 1.941 . S
C478 O479 1.258 . S
C478 O480 1.263 . S
O479 Co476 1.970 . S
O479 C478 1.258 . S
O480 Co477 1.966 . S
O480 C478 1.263 . S
C481 O482 1.235 . S
C481 O508 1.289 . S
O482 C481 1.235 . S
C483 C485 1.400 . S
C483 N486 1.351 . S
C483 C488 1.501 . S
C484 C485 1.387 . S
C484 N487 1.341 . S
C485 C483 1.400 . S
C485 C484 1.387 . S
N486 Co477 2.022 1_556 S
N486 C483 1.351 . S
N486 N487 1.365 . S
N487 C484 1.341 . S
N487 N486 1.365 . S
N487 H507 0.862 . S
C488 C483 1.501 . S
C488 H489 0.961 1_556 S
C488 H490 0.961 . S
C488 H491 0.959 1_556 S
H489 C488 0.961 1_554 S
H490 C488 0.961 . S
H491 C488 0.959 1_554 S
C492 N493 1.342 . S
C492 C496 1.401 1_554 S
C492 C497 1.499 . S
N493 Co476 1.989 . S
N493 C492 1.342 . S
N493 N494 1.388 . S
N494 Co477 1.993 . S
N494 N493 1.388 . S
N494 C495 1.346 1_554 S
C495 N494 1.346 1_556 S
C495 C496 1.396 . S
C495 C505 1.510 . S
C496 C492 1.401 1_556 S
C496 C495 1.396 . S
C497 C492 1.499 . S
C497 H498 0.959 . S
C497 H499 0.960 . S
C497 H500 0.961 . S
H498 C497 0.959 . S
H499 C497 0.960 . S
H500 C497 0.961 . S
O501 Co476 1.967 . S
O501 C509 1.258 . S
O502 Co477 1.941 . S
O502 C509 1.266 . S
H503 C505 0.959 . S
H504 C505 0.961 . S
C505 C495 1.510 . S
C505 H503 0.959 . S
C505 H504 0.961 . S
C505 H506 0.960 . S
H506 C505 0.960 . S
H507 N487 0.862 . S
O508 Co476 1.920 . S
O508 C481 1.289 . S
C509 O501 1.258 . S
C509 O502 1.266 . S
Co510 O513 1.970 . S
Co510 N527 1.989 . S
Co510 O535 1.967 . S
Co510 O542 1.920 . S
Co511 O514 1.966 . S
Co511 N520 2.022 . S
Co511 N528 1.993 . S
Co511 O536 1.941 . S
C512 O513 1.258 . S
C512 O514 1.263 . S
O513 Co510 1.970 . S
O513 C512 1.258 . S
O514 Co511 1.966 . S
O514 C512 1.263 . S
C515 O516 1.235 . S
C515 O542 1.289 . S
O516 C515 1.235 . S
C517 C519 1.400 . S
C517 N520 1.351 . S
C517 C522 1.501 . S
C518 C519 1.387 . S
C518 N521 1.341 . S
C519 C517 1.400 . S
C519 C518 1.387 . S
N520 Co511 2.022 . S
N520 C517 1.351 . S
N520 N521 1.365 . S
N521 C518 1.341 . S
N521 N520 1.365 . S
N521 H541 0.862 . S
C522 C517 1.501 . S
C522 H523 0.961 . S
C522 H524 0.961 . S
C522 H525 0.960 . S
H523 C522 0.961 . S
H524 C522 0.961 . S
H525 C522 0.960 . S
C526 N527 1.342 . S
C526 C530 1.401 . S
C526 C531 1.499 . S
N527 Co510 1.989 . S
N527 C526 1.342 . S
N527 N528 1.388 . S
N528 Co511 1.993 . S
N528 N527 1.388 . S
N528 C529 1.346 . S
C529 N528 1.346 . S
C529 C530 1.396 . S
C529 C539 1.510 . S
C530 C526 1.401 . S
C530 C529 1.396 . S
C531 C526 1.499 . S
C531 H532 0.959 . S
C531 H533 0.960 . S
C531 H534 0.961 . S
H532 C531 0.959 . S
H533 C531 0.960 . S
H534 C531 0.961 . S
O535 Co510 1.967 . S
O535 C543 1.258 . S
O536 Co511 1.941 . S
O536 C543 1.266 . S
H537 C539 0.959 . S
H538 C539 0.961 . S
C539 C529 1.510 . S
C539 H537 0.959 . S
C539 H538 0.961 . S
C539 H540 0.960 . S
H540 C539 0.960 . S
H541 N521 0.862 . S
O542 Co510 1.920 . S
O542 C515 1.289 . S
C543 O535 1.258 . S
C543 O536 1.266 . S
Co544 O547 1.970 . S
Co544 N561 1.989 . S
Co544 O569 1.967 . S
Co544 O576 1.920 . S
Co545 O548 1.966 . S
Co545 N554 2.022 . S
Co545 N562 1.993 . S
Co545 O570 1.941 . S
C546 O547 1.258 . S
C546 O548 1.263 . S
O547 Co544 1.970 . S
O547 C546 1.258 . S
O548 Co545 1.966 . S
O548 C546 1.263 . S
C549 O550 1.235 . S
C549 O576 1.289 . S
O550 C549 1.235 . S
C551 C553 1.400 . S
C551 N554 1.351 . S
C551 C556 1.501 . S
C552 C553 1.387 . S
C552 N555 1.341 . S
C553 C551 1.400 . S
C553 C552 1.387 . S
N554 Co545 2.022 . S
N554 C551 1.351 . S
N554 N555 1.365 . S
N555 C552 1.341 . S
N555 N554 1.365 . S
N555 H575 0.862 . S
C556 C551 1.501 . S
C556 H557 0.961 . S
C556 H558 0.961 . S
C556 H559 0.960 . S
H557 C556 0.961 . S
H558 C556 0.961 . S
H559 C556 0.960 . S
C560 N561 1.342 . S
C560 C564 1.401 . S
C560 C565 1.499 . S
N561 Co544 1.989 . S
N561 C560 1.342 . S
N561 N562 1.388 . S
N562 Co545 1.993 . S
N562 N561 1.388 . S
N562 C563 1.346 . S
C563 N562 1.346 . S
C563 C564 1.396 . S
C563 C573 1.510 . S
C564 C560 1.401 . S
C564 C563 1.396 . S
C565 C560 1.499 . S
C565 H566 0.959 . S
C565 H567 0.960 . S
C565 H568 0.961 . S
H566 C565 0.959 . S
H567 C565 0.960 . S
H568 C565 0.961 . S
O569 Co544 1.967 . S
O569 C577 1.258 . S
O570 Co545 1.941 . S
O570 C577 1.266 . S
H571 C573 0.959 . S
H572 C573 0.961 . S
C573 C563 1.510 . S
C573 H571 0.959 . S
C573 H572 0.961 . S
C573 H574 0.960 . S
H574 C573 0.960 . S
H575 N555 0.862 . S
O576 Co544 1.920 . S
O576 C549 1.289 . S
C577 O569 1.258 . S
C577 O570 1.266 . S
Co578 O581 1.970 . S
Co578 N595 1.989 . S
Co578 O603 1.967 . S
Co578 O610 1.920 . S
Co579 O582 1.966 . S
Co579 N588 2.022 . S
Co579 N596 1.993 . S
Co579 O604 1.941 . S
C580 O581 1.258 . S
C580 O582 1.263 . S
O581 Co578 1.970 . S
O581 C580 1.258 . S
O582 Co579 1.966 . S
O582 C580 1.263 . S
C583 O584 1.235 . S
C583 O610 1.289 . S
O584 C583 1.235 . S
C585 C587 1.400 . S
C585 N588 1.351 . S
C585 C590 1.501 . S
C586 C587 1.387 . S
C586 N589 1.341 . S
C587 C585 1.400 . S
C587 C586 1.387 . S
N588 Co579 2.022 . S
N588 C585 1.351 . S
N588 N589 1.365 . S
N589 C586 1.341 . S
N589 N588 1.365 . S
N589 H609 0.862 . S
C590 C585 1.501 . S
C590 H591 0.961 . S
C590 H592 0.961 . S
C590 H593 0.960 . S
H591 C590 0.961 . S
H592 C590 0.961 . S
H593 C590 0.960 . S
C594 N595 1.342 . S
C594 C598 1.401 . S
C594 C599 1.499 . S
N595 Co578 1.989 . S
N595 C594 1.342 . S
N595 N596 1.388 . S
N596 Co579 1.993 . S
N596 N595 1.388 . S
N596 C597 1.346 . S
C597 N596 1.346 . S
C597 C598 1.396 . S
C597 C607 1.510 . S
C598 C594 1.401 . S
C598 C597 1.396 . S
C599 C594 1.499 . S
C599 H600 0.959 . S
C599 H601 0.960 . S
C599 H602 0.961 . S
H600 C599 0.959 . S
H601 C599 0.960 . S
H602 C599 0.961 . S
O603 Co578 1.967 . S
O603 C611 1.258 . S
O604 Co579 1.941 . S
O604 C611 1.266 . S
H605 C607 0.959 . S
H606 C607 0.961 . S
C607 C597 1.510 . S
C607 H605 0.959 . S
C607 H606 0.961 . S
C607 H608 0.960 . S
H608 C607 0.960 . S
H609 N589 0.862 . S
O610 Co578 1.920 . S
O610 C583 1.289 . S
C611 O603 1.258 . S
C611 O604 1.266 . S
Co612 O615 1.970 . S
Co612 N629 1.989 . S
Co612 O637 1.967 . S
Co612 O644 1.920 . S
Co613 O616 1.966 . S
Co613 N622 2.022 1_554 S
Co613 N630 1.993 . S
Co613 O638 1.941 . S
C614 O615 1.258 . S
C614 O616 1.263 . S
O615 Co612 1.970 . S
O615 C614 1.258 . S
O616 Co613 1.966 . S
O616 C614 1.263 . S
C617 O618 1.235 . S
C617 O644 1.289 . S
O618 C617 1.235 . S
C619 C621 1.400 . S
C619 N622 1.351 . S
C619 C624 1.488 1_556 S
C620 C621 1.387 . S
C620 N623 1.341 . S
C621 C619 1.400 . S
C621 C620 1.387 . S
N622 Co613 2.022 1_556 S
N622 C619 1.351 . S
N622 N623 1.365 . S
N623 C620 1.341 . S
N623 N622 1.365 . S
N623 H643 0.862 . S
C624 C619 1.488 1_554 S
C624 H625 0.977 . S
C624 H626 0.956 1_554 S
C624 H627 0.962 . S
H625 C624 0.977 . S
H626 C624 0.956 1_556 S
H627 C624 0.962 . S
C628 N629 1.342 . S
C628 C632 1.401 1_554 S
C628 C633 1.499 . S
N629 Co612 1.989 . S
N629 C628 1.342 . S
N629 N630 1.388 . S
N630 Co613 1.993 . S
N630 N629 1.388 . S
N630 C631 1.346 1_554 S
C631 N630 1.346 1_556 S
C631 C632 1.396 . S
C631 C641 1.510 . S
C632 C628 1.401 1_556 S
C632 C631 1.396 . S
C633 C628 1.499 . S
C633 H634 0.959 . S
C633 H635 0.960 . S
C633 H636 0.961 . S
H634 C633 0.959 . S
H635 C633 0.960 . S
H636 C633 0.961 . S
O637 Co612 1.967 . S
O637 C645 1.258 . S
O638 Co613 1.941 . S
O638 C645 1.266 . S
H639 C641 0.959 . S
H640 C641 0.961 . S
C641 C631 1.510 . S
C641 H639 0.959 . S
C641 H640 0.961 . S
C641 H642 0.960 . S
H642 C641 0.960 . S
H643 N623 0.862 . S
O644 Co612 1.920 . S
O644 C617 1.289 . S
C645 O637 1.258 . S
C645 O638 1.266 . S
Co646 O649 1.970 . S
Co646 N663 1.989 . S
Co646 O671 1.967 . S
Co646 O678 1.920 . S
Co647 O650 1.966 . S
Co647 N656 2.022 . S
Co647 N664 1.993 . S
Co647 O672 1.941 . S
C648 O649 1.258 . S
C648 O650 1.263 . S
O649 Co646 1.970 . S
O649 C648 1.258 . S
O650 Co647 1.966 . S
O650 C648 1.263 . S
C651 O652 1.235 . S
C651 O678 1.289 . S
O652 C651 1.235 . S
C653 C655 1.400 . S
C653 N656 1.351 . S
C653 C658 1.501 . S
C654 C655 1.387 . S
C654 N657 1.341 . S
C655 C653 1.400 . S
C655 C654 1.387 . S
N656 Co647 2.022 . S
N656 C653 1.351 . S
N656 N657 1.365 . S
N657 C654 1.341 . S
N657 N656 1.365 . S
N657 H677 0.862 . S
C658 C653 1.501 . S
C658 H659 0.961 . S
C658 H660 0.961 . S
C658 H661 0.960 . S
H659 C658 0.961 . S
H660 C658 0.961 . S
H661 C658 0.960 . S
C662 N663 1.342 . S
C662 C666 1.401 . S
C662 C667 1.499 . S
N663 Co646 1.989 . S
N663 C662 1.342 . S
N663 N664 1.388 . S
N664 Co647 1.993 . S
N664 N663 1.388 . S
N664 C665 1.346 . S
C665 N664 1.346 . S
C665 C666 1.396 . S
C665 C675 1.510 . S
C666 C662 1.401 . S
C666 C665 1.396 . S
C667 C662 1.499 . S
C667 H668 0.959 . S
C667 H669 0.960 . S
C667 H670 0.961 . S
H668 C667 0.959 . S
H669 C667 0.960 . S
H670 C667 0.961 . S
O671 Co646 1.967 . S
O671 C679 1.258 . S
O672 Co647 1.941 . S
O672 C679 1.266 . S
H673 C675 0.959 . S
H674 C675 0.961 . S
C675 C665 1.510 . S
C675 H673 0.959 . S
C675 H674 0.961 . S
C675 H676 0.960 . S
H676 C675 0.960 . S
H677 N657 0.862 . S
O678 Co646 1.920 . S
O678 C651 1.289 . S
C679 O671 1.258 . S
C679 O672 1.266 . S
Co680 O683 1.970 . S
Co680 N697 1.989 1_556 S
Co680 O705 1.967 . S
Co680 O712 1.920 . S
Co681 O684 1.966 . S
Co681 N690 2.022 . S
Co681 N698 1.993 . S
Co681 O706 1.941 . S
C682 O683 1.258 . S
C682 O684 1.263 1_556 S
O683 Co680 1.970 . S
O683 C682 1.258 . S
O684 Co681 1.966 . S
O684 C682 1.263 1_554 S
C685 O686 1.235 . S
C685 O712 1.289 . S
O686 C685 1.235 . S
C687 C689 1.400 . S
C687 N690 1.351 . S
C687 C692 1.501 . S
C688 C689 1.387 . S
C688 N691 1.341 . S
C689 C687 1.400 . S
C689 C688 1.387 . S
N690 Co681 2.022 . S
N690 C687 1.351 . S
N690 N691 1.365 . S
N691 C688 1.341 . S
N691 N690 1.365 . S
N691 H711 0.862 . S
C692 C687 1.501 . S
C692 H693 0.961 . S
C692 H694 0.961 . S
C692 H695 0.960 . S
H693 C692 0.961 . S
H694 C692 0.961 . S
H695 C692 0.960 . S
C696 N697 1.342 . S
C696 C700 1.401 . S
C696 C701 1.499 . S
N697 Co680 1.989 1_554 S
N697 C696 1.342 . S
N697 N698 1.388 . S
N698 Co681 1.993 . S
N698 N697 1.388 . S
N698 C699 1.346 . S
C699 N698 1.346 . S
C699 C700 1.396 . S
C699 C709 1.510 . S
C700 C696 1.401 . S
C700 C699 1.396 . S
C701 C696 1.499 . S
C701 H702 0.959 . S
C701 H703 0.960 . S
C701 H704 0.961 . S
H702 C701 0.959 . S
H703 C701 0.960 . S
H704 C701 0.961 . S
O705 Co680 1.967 . S
O705 C713 1.246 1_556 S
O706 Co681 1.941 . S
O706 C713 1.284 . S
H707 C709 0.959 . S
H708 C709 0.961 . S
C709 C699 1.510 . S
C709 H707 0.959 . S
C709 H708 0.961 . S
C709 H710 0.960 . S
H710 C709 0.960 . S
H711 N691 0.862 . S
O712 Co680 1.920 . S
O712 C685 1.289 . S
C713 O705 1.246 1_554 S
C713 O706 1.284 . S
Co714 O717 1.970 . S
Co714 N731 1.989 . S
Co714 O739 1.967 . S
Co714 O746 1.920 . S
Co715 O718 1.966 . S
Co715 N724 2.022 . S
Co715 N732 1.993 . S
Co715 O740 1.941 . S
C716 O717 1.258 . S
C716 O718 1.263 . S
O717 Co714 1.970 . S
O717 C716 1.258 . S
O718 Co715 1.966 . S
O718 C716 1.263 . S
C719 O720 1.235 . S
C719 O746 1.289 . S
O720 C719 1.235 . S
C721 C723 1.400 . S
C721 N724 1.351 . S
C721 C726 1.501 . S
C722 C723 1.387 . S
C722 N725 1.341 . S
C723 C721 1.400 . S
C723 C722 1.387 . S
N724 Co715 2.022 . S
N724 C721 1.351 . S
N724 N725 1.365 . S
N725 C722 1.341 . S
N725 N724 1.365 . S
N725 H745 0.862 . S
C726 C721 1.501 . S
C726 H727 0.961 . S
C726 H728 0.961 . S
C726 H729 0.960 . S
H727 C726 0.961 . S
H728 C726 0.961 . S
H729 C726 0.960 . S
C730 N731 1.342 . S
C730 C734 1.401 . S
C730 C735 1.499 . S
N731 Co714 1.989 . S
N731 C730 1.342 . S
N731 N732 1.388 . S
N732 Co715 1.993 . S
N732 N731 1.388 . S
N732 C733 1.346 . S
C733 N732 1.346 . S
C733 C734 1.396 . S
C733 C743 1.510 . S
C734 C730 1.401 . S
C734 C733 1.396 . S
C735 C730 1.499 . S
C735 H736 0.959 . S
C735 H737 0.960 . S
C735 H738 0.961 . S
H736 C735 0.959 . S
H737 C735 0.960 . S
H738 C735 0.961 . S
O739 Co714 1.967 . S
O739 C747 1.258 . S
O740 Co715 1.941 . S
O740 C747 1.266 . S
H741 C743 0.959 . S
H742 C743 0.961 . S
C743 C733 1.510 . S
C743 H741 0.959 . S
C743 H742 0.961 . S
C743 H744 0.960 . S
H744 C743 0.960 . S
H745 N725 0.862 . S
O746 Co714 1.920 . S
O746 C719 1.289 . S
C747 O739 1.258 . S
C747 O740 1.266 . S
Co748 O751 1.970 . S
Co748 N765 1.989 . S
Co748 O773 1.967 . S
Co748 O780 1.920 . S
Co749 O752 1.966 . S
Co749 N758 2.022 . S
Co749 N766 1.993 . S
Co749 O774 1.941 . S
C750 O751 1.258 . S
C750 O752 1.263 . S
O751 Co748 1.970 . S
O751 C750 1.258 . S
O752 Co749 1.966 . S
O752 C750 1.263 . S
C753 O754 1.235 . S
C753 O780 1.289 . S
O754 C753 1.235 . S
C755 C757 1.400 . S
C755 N758 1.351 . S
C755 C760 1.501 . S
C756 C757 1.387 . S
C756 N759 1.341 . S
C757 C755 1.400 . S
C757 C756 1.387 . S
N758 Co749 2.022 . S
N758 C755 1.351 . S
N758 N759 1.365 . S
N759 C756 1.341 . S
N759 N758 1.365 . S
N759 H779 0.862 . S
C760 C755 1.501 . S
C760 H761 0.961 . S
C760 H762 0.961 . S
C760 H763 0.960 . S
H761 C760 0.961 . S
H762 C760 0.961 . S
H763 C760 0.960 . S
C764 N765 1.342 . S
C764 C768 1.401 . S
C764 C769 1.499 . S
N765 Co748 1.989 . S
N765 C764 1.342 . S
N765 N766 1.388 . S
N766 Co749 1.993 . S
N766 N765 1.388 . S
N766 C767 1.346 . S
C767 N766 1.346 . S
C767 C768 1.396 . S
C767 C777 1.510 . S
C768 C764 1.401 . S
C768 C767 1.396 . S
C769 C764 1.499 . S
C769 H770 0.959 . S
C769 H771 0.960 . S
C769 H772 0.961 . S
H770 C769 0.959 . S
H771 C769 0.960 . S
H772 C769 0.961 . S
O773 Co748 1.967 . S
O773 C781 1.258 . S
O774 Co749 1.941 . S
O774 C781 1.266 . S
H775 C777 0.959 . S
H776 C777 0.961 . S
C777 C767 1.510 . S
C777 H775 0.959 . S
C777 H776 0.961 . S
C777 H778 0.960 . S
H778 C777 0.960 . S
H779 N759 0.862 . S
O780 Co748 1.920 . S
O780 C753 1.289 . S
C781 O773 1.258 . S
C781 O774 1.266 . S
Co782 O785 1.970 . S
Co782 N799 1.989 . S
Co782 O807 1.967 . S
Co782 O814 1.920 . S
Co783 O786 1.966 . S
Co783 N792 2.022 . S
Co783 N800 1.993 . S
Co783 O808 1.941 . S
C784 O785 1.258 . S
C784 O786 1.263 . S
O785 Co782 1.970 . S
O785 C784 1.258 . S
O786 Co783 1.966 . S
O786 C784 1.263 . S
C787 O788 1.235 . S
C787 O814 1.289 . S
O788 C787 1.235 . S
C789 C791 1.400 . S
C789 N792 1.351 . S
C789 C794 1.501 . S
C790 C791 1.387 . S
C790 N793 1.341 . S
C791 C789 1.400 . S
C791 C790 1.387 . S
N792 Co783 2.022 . S
N792 C789 1.351 . S
N792 N793 1.365 . S
N793 C790 1.341 . S
N793 N792 1.365 . S
N793 H813 0.862 . S
C794 C789 1.501 . S
C794 H795 0.961 . S
C794 H796 0.961 . S
C794 H797 0.960 . S
H795 C794 0.961 . S
H796 C794 0.961 . S
H797 C794 0.960 . S
C798 N799 1.342 . S
C798 C802 1.401 . S
C798 C803 1.499 . S
N799 Co782 1.989 . S
N799 C798 1.342 . S
N799 N800 1.388 . S
N800 Co783 1.993 . S
N800 N799 1.388 . S
N800 C801 1.346 . S
C801 N800 1.346 . S
C801 C802 1.396 . S
C801 C811 1.510 . S
C802 C798 1.401 . S
C802 C801 1.396 . S
C803 C798 1.499 . S
C803 H804 0.959 . S
C803 H805 0.960 . S
C803 H806 0.961 . S
H804 C803 0.959 . S
H805 C803 0.960 . S
H806 C803 0.961 . S
O807 Co782 1.967 . S
O807 C815 1.258 . S
O808 Co783 1.941 . S
O808 C815 1.266 . S
H809 C811 0.959 . S
H810 C811 0.961 . S
C811 C801 1.510 . S
C811 H809 0.959 . S
C811 H810 0.961 . S
C811 H812 0.960 . S
H812 C811 0.960 . S
H813 N793 0.862 . S
O814 Co782 1.920 . S
O814 C787 1.289 . S
C815 O807 1.258 . S
C815 O808 1.266 . S
Co816 O819 1.970 . S
Co816 N833 1.989 . S
Co816 O841 1.967 . S
Co816 O848 1.920 . S
Co817 O820 1.966 . S
Co817 N826 2.022 . S
Co817 N834 1.993 . S
Co817 O842 1.941 . S
C818 O819 1.258 . S
C818 O820 1.263 . S
O819 Co816 1.970 . S
O819 C818 1.258 . S
O820 Co817 1.966 . S
O820 C818 1.263 . S
C821 O822 1.235 . S
C821 O848 1.289 . S
O822 C821 1.235 . S
C823 C825 1.400 . S
C823 N826 1.351 . S
C823 C828 1.501 . S
C824 C825 1.387 . S
C824 N827 1.341 . S
C825 C823 1.400 . S
C825 C824 1.387 . S
N826 Co817 2.022 . S
N826 C823 1.351 . S
N826 N827 1.365 . S
N827 C824 1.341 . S
N827 N826 1.365 . S
N827 H847 0.862 . S
C828 C823 1.501 . S
C828 H829 0.961 . S
C828 H830 0.961 . S
C828 H831 0.960 . S
H829 C828 0.961 . S
H830 C828 0.961 . S
H831 C828 0.960 . S
C832 N833 1.342 . S
C832 C836 1.401 . S
C832 C837 1.499 . S
N833 Co816 1.989 . S
N833 C832 1.342 . S
N833 N834 1.388 . S
N834 Co817 1.993 . S
N834 N833 1.388 . S
N834 C835 1.346 . S
C835 N834 1.346 . S
C835 C836 1.396 . S
C835 C845 1.510 . S
C836 C832 1.401 . S
C836 C835 1.396 . S
C837 C832 1.499 . S
C837 H838 0.959 . S
C837 H839 0.960 . S
C837 H840 0.961 . S
H838 C837 0.959 . S
H839 C837 0.960 . S
H840 C837 0.961 . S
O841 Co816 1.967 . S
O841 C849 1.258 . S
O842 Co817 1.941 . S
O842 C849 1.266 . S
H843 C845 0.959 . S
H844 C845 0.961 . S
C845 C835 1.510 . S
C845 H843 0.959 . S
C845 H844 0.961 . S
C845 H846 0.960 . S
H846 C845 0.960 . S
H847 N827 0.862 . S
O848 Co816 1.920 . S
O848 C821 1.289 . S
C849 O841 1.258 . S
C849 O842 1.266 . S
Co850 O853 1.970 . S
Co850 N867 1.989 . S
Co850 O875 1.967 . S
Co850 O882 1.920 . S
Co851 O854 1.966 . S
Co851 N860 2.022 . S
Co851 N868 1.993 . S
Co851 O876 1.941 . S
C852 O853 1.258 . S
C852 O854 1.263 . S
O853 Co850 1.970 . S
O853 C852 1.258 . S
O854 Co851 1.966 . S
O854 C852 1.263 . S
C855 O856 1.235 . S
C855 O882 1.289 . S
O856 C855 1.235 . S
C857 C859 1.400 . S
C857 N860 1.351 . S
C857 C862 1.501 . S
C858 C859 1.387 . S
C858 N861 1.341 . S
C859 C857 1.400 . S
C859 C858 1.387 . S
N860 Co851 2.022 . S
N860 C857 1.351 . S
N860 N861 1.365 . S
N861 C858 1.341 . S
N861 N860 1.365 . S
N861 H881 0.862 . S
C862 C857 1.501 . S
C862 H863 0.961 . S
C862 H864 0.961 . S
C862 H865 0.960 . S
H863 C862 0.961 . S
H864 C862 0.961 . S
H865 C862 0.960 . S
C866 N867 1.342 . S
C866 C870 1.401 . S
C866 C871 1.499 . S
N867 Co850 1.989 . S
N867 C866 1.342 . S
N867 N868 1.388 . S
N868 Co851 1.993 . S
N868 N867 1.388 . S
N868 C869 1.346 . S
C869 N868 1.346 . S
C869 C870 1.396 . S
C869 C879 1.510 . S
C870 C866 1.401 . S
C870 C869 1.396 . S
C871 C866 1.499 . S
C871 H872 0.959 . S
C871 H873 0.960 . S
C871 H874 0.961 . S
H872 C871 0.959 . S
H873 C871 0.960 . S
H874 C871 0.961 . S
O875 Co850 1.967 . S
O875 C883 1.258 . S
O876 Co851 1.941 . S
O876 C883 1.266 . S
H877 C879 0.959 . S
H878 C879 0.961 . S
C879 C869 1.510 . S
C879 H877 0.959 . S
C879 H878 0.961 . S
C879 H880 0.960 . S
H880 C879 0.960 . S
H881 N861 0.862 . S
O882 Co850 1.920 . S
O882 C855 1.289 . S
C883 O875 1.258 . S
C883 O876 1.266 . S
Co884 O887 1.970 . S
Co884 N901 1.989 1_556 S
Co884 O909 1.967 . S
Co884 O916 1.920 . S
Co885 O888 1.966 . S
Co885 N894 2.022 . S
Co885 N902 1.993 . S
Co885 O910 1.941 . S
C886 O887 1.258 . S
C886 O888 1.263 1_556 S
O887 Co884 1.970 . S
O887 C886 1.258 . S
O888 Co885 1.966 . S
O888 C886 1.263 1_554 S
C889 O890 1.235 . S
C889 O916 1.289 . S
O890 C889 1.235 . S
C891 C893 1.400 . S
C891 N894 1.351 . S
C891 C896 1.501 . S
C892 C893 1.387 . S
C892 N895 1.341 . S
C893 C891 1.400 . S
C893 C892 1.387 . S
N894 Co885 2.022 . S
N894 C891 1.351 . S
N894 N895 1.365 . S
N895 C892 1.341 . S
N895 N894 1.365 . S
N895 H915 0.862 . S
C896 C891 1.501 . S
C896 H897 0.961 . S
C896 H898 0.961 . S
C896 H899 0.960 . S
H897 C896 0.961 . S
H898 C896 0.961 . S
H899 C896 0.960 . S
C900 N901 1.342 . S
C900 C904 1.401 . S
C900 C905 1.499 . S
N901 Co884 1.989 1_554 S
N901 C900 1.342 . S
N901 N902 1.388 . S
N902 Co885 1.993 . S
N902 N901 1.388 . S
N902 C903 1.346 . S
C903 N902 1.346 . S
C903 C904 1.396 . S
C903 C913 1.510 . S
C904 C900 1.401 . S
C904 C903 1.396 . S
C905 C900 1.499 . S
C905 H906 0.959 . S
C905 H907 0.960 . S
C905 H908 0.961 . S
H906 C905 0.959 . S
H907 C905 0.960 . S
H908 C905 0.961 . S
O909 Co884 1.967 . S
O909 C917 1.258 1_556 S
O910 Co885 1.941 . S
O910 C917 1.266 . S
H911 C913 0.959 . S
H912 C913 0.961 . S
C913 C903 1.510 . S
C913 H911 0.959 . S
C913 H912 0.961 . S
C913 H914 0.960 . S
H914 C913 0.960 . S
H915 N895 0.862 . S
O916 Co884 1.920 . S
O916 C889 1.289 . S
C917 O909 1.258 1_554 S
C917 O910 1.266 . S
Co918 O921 1.970 . S
Co918 N935 1.989 . S
Co918 O943 1.967 . S
Co918 O950 1.920 . S
Co919 O922 1.966 . S
Co919 N928 2.022 . S
Co919 N936 1.993 . S
Co919 O944 1.941 . S
C920 O921 1.258 . S
C920 O922 1.263 . S
O921 Co918 1.970 . S
O921 C920 1.258 . S
O922 Co919 1.966 . S
O922 C920 1.263 . S
C923 O924 1.235 . S
C923 O950 1.289 . S
O924 C923 1.235 . S
C925 C927 1.400 . S
C925 N928 1.351 . S
C925 C930 1.501 . S
C926 C927 1.387 . S
C926 N929 1.341 . S
C927 C925 1.400 . S
C927 C926 1.387 . S
N928 Co919 2.022 . S
N928 C925 1.351 . S
N928 N929 1.365 . S
N929 C926 1.341 . S
N929 N928 1.365 . S
N929 H949 0.862 . S
C930 C925 1.501 . S
C930 H931 0.961 . S
C930 H932 0.961 . S
C930 H933 0.960 . S
H931 C930 0.961 . S
H932 C930 0.961 . S
H933 C930 0.960 . S
C934 N935 1.342 . S
C934 C938 1.401 . S
C934 C939 1.499 . S
N935 Co918 1.989 . S
N935 C934 1.342 . S
N935 N936 1.388 . S
N936 Co919 1.993 . S
N936 N935 1.388 . S
N936 C937 1.346 . S
C937 N936 1.346 . S
C937 C938 1.396 . S
C937 C947 1.510 . S
C938 C934 1.401 . S
C938 C937 1.396 . S
C939 C934 1.499 . S
C939 H940 0.959 . S
C939 H941 0.960 . S
C939 H942 0.961 . S
H940 C939 0.959 . S
H941 C939 0.960 . S
H942 C939 0.961 . S
O943 Co918 1.967 . S
O943 C951 1.258 . S
O944 Co919 1.941 . S
O944 C951 1.266 . S
H945 C947 0.959 . S
H946 C947 0.961 . S
C947 C937 1.510 . S
C947 H945 0.959 . S
C947 H946 0.961 . S
C947 H948 0.960 . S
H948 C947 0.960 . S
H949 N929 0.862 . S
O950 Co918 1.920 . S
O950 C923 1.289 . S
C951 O943 1.258 . S
C951 O944 1.266 . S
Co952 O955 1.970 . S
Co952 N969 1.989 . S
Co952 O977 1.967 . S
Co952 O984 1.920 . S
Co953 O956 1.966 . S
Co953 N962 2.022 1_554 S
Co953 N970 1.993 . S
Co953 O978 1.941 . S
C954 O955 1.258 . S
C954 O956 1.263 . S
O955 Co952 1.970 . S
O955 C954 1.258 . S
O956 Co953 1.966 . S
O956 C954 1.263 . S
C957 O958 1.235 . S
C957 O984 1.289 . S
O958 C957 1.235 . S
C959 C961 1.400 . S
C959 N962 1.351 . S
C959 C964 1.501 . S
C960 C961 1.387 . S
C960 N963 1.341 . S
C961 C959 1.400 . S
C961 C960 1.387 . S
N962 Co953 2.022 1_556 S
N962 C959 1.351 . S
N962 N963 1.365 . S
N963 C960 1.341 . S
N963 N962 1.365 . S
N963 H983 0.862 . S
C964 C959 1.501 . S
C964 H965 0.961 1_556 S
C964 H966 0.961 . S
C964 H967 0.959 1_556 S
H965 C964 0.961 1_554 S
H966 C964 0.961 . S
H967 C964 0.959 1_554 S
C968 N969 1.342 . S
C968 C972 1.401 1_554 S
C968 C973 1.499 . S
N969 Co952 1.989 . S
N969 C968 1.342 . S
N969 N970 1.388 . S
N970 Co953 1.993 . S
N970 N969 1.388 . S
N970 C971 1.346 1_554 S
C971 N970 1.346 1_556 S
C971 C972 1.396 . S
C971 C981 1.510 . S
C972 C968 1.401 1_556 S
C972 C971 1.396 . S
C973 C968 1.499 . S
C973 H974 0.959 . S
C973 H975 0.960 . S
C973 H976 0.961 . S
H974 C973 0.959 . S
H975 C973 0.960 . S
H976 C973 0.961 . S
O977 Co952 1.967 . S
O977 C985 1.258 . S
O978 Co953 1.941 . S
O978 C985 1.266 . S
H979 C981 0.959 . S
H980 C981 0.961 . S
C981 C971 1.510 . S
C981 H979 0.959 . S
C981 H980 0.961 . S
C981 H982 0.960 . S
H982 C981 0.960 . S
H983 N963 0.862 . S
O984 Co952 1.920 . S
O984 C957 1.289 . S
C985 O977 1.258 . S
C985 O978 1.266 . S
Co986 O989 1.970 . S
Co986 N1003 1.989 . S
Co986 O1011 1.967 . S
Co986 O1018 1.920 . S
Co987 O990 1.966 . S
Co987 N996 2.022 . S
Co987 N1004 1.993 . S
Co987 O1012 1.941 . S
C988 O989 1.258 . S
C988 O990 1.263 . S
O989 Co986 1.970 . S
O989 C988 1.258 . S
O990 Co987 1.966 . S
O990 C988 1.263 . S
C991 O992 1.235 . S
C991 O1018 1.289 . S
O992 C991 1.235 . S
C993 C995 1.400 . S
C993 N996 1.351 . S
C993 C998 1.501 . S
C994 C995 1.387 . S
C994 N997 1.341 . S
C995 C993 1.400 . S
C995 C994 1.387 . S
N996 Co987 2.022 . S
N996 C993 1.351 . S
N996 N997 1.365 . S
N997 C994 1.341 . S
N997 N996 1.365 . S
N997 H1017 0.862 . S
C998 C993 1.501 . S
C998 H999 0.961 . S
C998 H1000 0.961 . S
C998 H1001 0.960 . S
H999 C998 0.961 . S
H1000 C998 0.961 . S
H1001 C998 0.960 . S
C1002 N1003 1.342 . S
C1002 C1006 1.401 . S
C1002 C1007 1.499 . S
N1003 Co986 1.989 . S
N1003 C1002 1.342 . S
N1003 N1004 1.388 . S
N1004 Co987 1.993 . S
N1004 N1003 1.388 . S
N1004 C1005 1.346 . S
C1005 N1004 1.346 . S
C1005 C1006 1.396 . S
C1005 C1015 1.510 . S
C1006 C1002 1.401 . S
C1006 C1005 1.396 . S
C1007 C1002 1.499 . S
C1007 H1008 0.959 . S
C1007 H1009 0.960 . S
C1007 H1010 0.961 . S
H1008 C1007 0.959 . S
H1009 C1007 0.960 . S
H1010 C1007 0.961 . S
O1011 Co986 1.967 . S
O1011 C1019 1.258 . S
O1012 Co987 1.941 . S
O1012 C1019 1.266 . S
H1013 C1015 0.959 . S
H1014 C1015 0.961 . S
C1015 C1005 1.510 . S
C1015 H1013 0.959 . S
C1015 H1014 0.961 . S
C1015 H1016 0.960 . S
H1016 C1015 0.960 . S
H1017 N997 0.862 . S
O1018 Co986 1.920 . S
O1018 C991 1.289 . S
C1019 O1011 1.258 . S
C1019 O1012 1.266 . S
Co1020 O1023 1.970 . S
Co1020 N1037 1.989 . S
Co1020 O1045 1.967 . S
Co1020 O1052 1.920 . S
Co1021 O1024 1.966 . S
Co1021 N1030 2.022 . S
Co1021 N1038 1.993 . S
Co1021 O1046 1.941 . S
C1022 O1023 1.258 . S
C1022 O1024 1.263 . S
O1023 Co1020 1.970 . S
O1023 C1022 1.258 . S
O1024 Co1021 1.966 . S
O1024 C1022 1.263 . S
C1025 O1026 1.235 . S
C1025 O1052 1.289 . S
O1026 C1025 1.235 . S
C1027 C1029 1.400 . S
C1027 N1030 1.351 . S
C1027 C1032 1.501 . S
C1028 C1029 1.387 . S
C1028 N1031 1.341 . S
C1029 C1027 1.400 . S
C1029 C1028 1.387 . S
N1030 Co1021 2.022 . S
N1030 C1027 1.351 . S
N1030 N1031 1.365 . S
N1031 C1028 1.341 . S
N1031 N1030 1.365 . S
N1031 H1051 0.862 . S
C1032 C1027 1.501 . S
C1032 H1033 0.961 . S
C1032 H1034 0.961 . S
C1032 H1035 0.960 . S
H1033 C1032 0.961 . S
H1034 C1032 0.961 . S
H1035 C1032 0.960 . S
C1036 N1037 1.342 . S
C1036 C1040 1.401 . S
C1036 C1041 1.499 . S
N1037 Co1020 1.989 . S
N1037 C1036 1.342 . S
N1037 N1038 1.388 . S
N1038 Co1021 1.993 . S
N1038 N1037 1.388 . S
N1038 C1039 1.346 . S
C1039 N1038 1.346 . S
C1039 C1040 1.396 . S
C1039 C1049 1.510 . S
C1040 C1036 1.401 . S
C1040 C1039 1.396 . S
C1041 C1036 1.499 . S
C1041 H1042 0.959 . S
C1041 H1043 0.960 . S
C1041 H1044 0.961 . S
H1042 C1041 0.959 . S
H1043 C1041 0.960 . S
H1044 C1041 0.961 . S
O1045 Co1020 1.967 . S
O1045 C1053 1.258 . S
O1046 Co1021 1.941 . S
O1046 C1053 1.266 . S
H1047 C1049 0.959 . S
H1048 C1049 0.961 . S
C1049 C1039 1.510 . S
C1049 H1047 0.959 . S
C1049 H1048 0.961 . S
C1049 H1050 0.960 . S
H1050 C1049 0.960 . S
H1051 N1031 0.862 . S
O1052 Co1020 1.920 . S
O1052 C1025 1.289 . S
C1053 O1045 1.258 . S
C1053 O1046 1.266 . S
Co1054 O1057 1.970 . S
Co1054 N1071 1.989 . S
Co1054 O1079 1.967 . S
Co1054 O1086 1.920 . S
Co1055 O1058 1.966 . S
Co1055 N1064 2.022 . S
Co1055 N1072 1.993 . S
Co1055 O1080 1.941 . S
C1056 O1057 1.258 . S
C1056 O1058 1.263 . S
O1057 Co1054 1.970 . S
O1057 C1056 1.258 . S
O1058 Co1055 1.966 . S
O1058 C1056 1.263 . S
C1059 O1060 1.235 . S
C1059 O1086 1.289 . S
O1060 C1059 1.235 . S
C1061 C1063 1.400 . S
C1061 N1064 1.351 . S
C1061 C1066 1.501 . S
C1062 C1063 1.387 . S
C1062 N1065 1.341 . S
C1063 C1061 1.400 . S
C1063 C1062 1.387 . S
N1064 Co1055 2.022 . S
N1064 C1061 1.351 . S
N1064 N1065 1.365 . S
N1065 C1062 1.341 . S
N1065 N1064 1.365 . S
N1065 H1085 0.862 . S
C1066 C1061 1.501 . S
C1066 H1067 0.961 . S
C1066 H1068 0.961 . S
C1066 H1069 0.960 . S
H1067 C1066 0.961 . S
H1068 C1066 0.961 . S
H1069 C1066 0.960 . S
C1070 N1071 1.342 . S
C1070 C1074 1.401 . S
C1070 C1075 1.499 . S
N1071 Co1054 1.989 . S
N1071 C1070 1.342 . S
N1071 N1072 1.388 . S
N1072 Co1055 1.993 . S
N1072 N1071 1.388 . S
N1072 C1073 1.346 . S
C1073 N1072 1.346 . S
C1073 C1074 1.396 . S
C1073 C1083 1.510 . S
C1074 C1070 1.401 . S
C1074 C1073 1.396 . S
C1075 C1070 1.499 . S
C1075 H1076 0.959 . S
C1075 H1077 0.960 . S
C1075 H1078 0.961 . S
H1076 C1075 0.959 . S
H1077 C1075 0.960 . S
H1078 C1075 0.961 . S
O1079 Co1054 1.967 . S
O1079 C1087 1.258 . S
O1080 Co1055 1.941 . S
O1080 C1087 1.266 . S
H1081 C1083 0.959 . S
H1082 C1083 0.961 . S
C1083 C1073 1.510 . S
C1083 H1081 0.959 . S
C1083 H1082 0.961 . S
C1083 H1084 0.960 . S
H1084 C1083 0.960 . S
H1085 N1065 0.862 . S
O1086 Co1054 1.920 . S
O1086 C1059 1.289 . S
C1087 O1079 1.258 . S
C1087 O1080 1.266 . S
H1088 C1094 0.930 . S
H1089 C1098 0.930 . S
H1090 C1103 0.929 . S
H1091 C1101 0.929 . S
H1092 C1096 0.929 . S
H1093 C1102 0.929 . S
C1094 H1088 0.930 . S
C1094 C1095 1.367 . S
C1094 C1102 1.378 . S
C1095 C1094 1.367 . S
C1095 C1103 1.433 . S
C1096 H1092 0.929 . S
C1096 C1098 1.378 . S
C1096 C1100 1.350 . S
C1097 C1100 1.463 1_565 S
C1097 C1102 1.350 . S
C1097 N1105 1.427 . S
C1098 H1089 0.930 . S
C1098 C1096 1.378 . S
C1098 C1099 1.367 . S
C1099 C1098 1.367 . S
C1099 C1101 1.433 . S
C1100 C1096 1.350 . S
C1100 C1097 1.463 1_545 S
C1100 N1104 1.427 . S
C1101 H1091 0.929 . S
C1101 C1099 1.433 . S
C1101 N1104 1.384 . S
C1102 H1093 0.929 . S
C1102 C1094 1.378 . S
C1102 C1097 1.350 . S
C1103 H1090 0.929 . S
C1103 C1095 1.433 . S
C1103 N1105 1.384 . S
N1104 C1100 1.427 . S
N1104 C1101 1.384 . S
N1105 C1097 1.427 . S
N1105 C1103 1.384 . S
H1106 C1112 0.930 . S
H1107 C1116 0.930 . S
H1108 C1121 0.929 . S
H1109 C1119 0.929 . S
H1110 C1114 0.929 . S
H1111 C1120 0.929 . S
C1112 H1106 0.930 . S
C1112 C1113 1.367 . S
C1112 C1120 1.378 . S
C1113 C1112 1.367 . S
C1113 C1121 1.433 . S
C1114 H1110 0.929 . S
C1114 C1116 1.378 1_554 S
C1114 C1118 1.350 . S
C1115 C1118 1.463 . S
C1115 C1120 1.350 . S
C1115 N1123 1.427 . S
C1116 H1107 0.930 . S
C1116 C1114 1.378 1_556 S
C1116 C1117 1.367 . S
C1117 C1116 1.367 . S
C1117 C1119 1.433 . S
C1118 C1114 1.350 . S
C1118 C1115 1.463 . S
C1118 N1122 1.427 1_554 S
C1119 H1109 0.929 . S
C1119 C1117 1.433 . S
C1119 N1122 1.384 . S
C1120 H1111 0.929 . S
C1120 C1112 1.378 . S
C1120 C1115 1.350 . S
C1121 H1108 0.929 . S
C1121 C1113 1.433 . S
C1121 N1123 1.384 . S
N1122 C1118 1.427 1_556 S
N1122 C1119 1.384 . S
N1123 C1115 1.427 . S
N1123 C1121 1.384 . S
H1124 C1130 0.930 . S
H1125 C1134 0.930 . S
H1126 C1139 0.929 . S
H1127 C1137 0.929 . S
H1128 C1132 0.929 . S
H1129 C1138 0.929 . S
C1130 H1124 0.930 . S
C1130 C1131 1.367 . S
C1130 C1138 1.378 . S
C1131 C1130 1.367 . S
C1131 C1139 1.433 . S
C1132 H1128 0.929 . S
C1132 C1134 1.378 . S
C1132 C1136 1.350 . S
C1133 C1136 1.463 1_565 S
C1133 C1138 1.350 . S
C1133 N1141 1.427 . S
C1134 H1125 0.930 . S
C1134 C1132 1.378 . S
C1134 C1135 1.367 . S
C1135 C1134 1.367 . S
C1135 C1137 1.433 . S
C1136 C1132 1.350 . S
C1136 C1133 1.463 1_545 S
C1136 N1140 1.427 . S
C1137 H1127 0.929 . S
C1137 C1135 1.433 . S
C1137 N1140 1.384 . S
C1138 H1129 0.929 . S
C1138 C1130 1.378 . S
C1138 C1133 1.350 . S
C1139 H1126 0.929 . S
C1139 C1131 1.433 . S
C1139 N1141 1.384 . S
N1140 C1136 1.427 . S
N1140 C1137 1.384 . S
N1141 C1133 1.427 . S
N1141 C1139 1.384 . S
H1142 C1148 0.930 . S
H1143 C1152 0.930 . S
H1144 C1157 0.929 . S
H1145 C1155 0.929 . S
H1146 C1150 0.929 . S
H1147 C1156 0.929 . S
C1148 H1142 0.930 . S
C1148 C1149 1.367 . S
C1148 C1156 1.378 . S
C1149 C1148 1.367 . S
C1149 C1157 1.433 . S
C1150 H1146 0.929 . S
C1150 C1152 1.378 . S
C1150 C1154 1.350 . S
C1151 C1154 1.463 . S
C1151 C1156 1.350 . S
C1151 N1159 1.427 . S
C1152 H1143 0.930 . S
C1152 C1150 1.378 . S
C1152 C1153 1.367 . S
C1153 C1152 1.367 . S
C1153 C1155 1.433 . S
C1154 C1150 1.350 . S
C1154 C1151 1.463 . S
C1154 N1158 1.427 . S
C1155 H1145 0.929 . S
C1155 C1153 1.433 . S
C1155 N1158 1.384 . S
C1156 H1147 0.929 . S
C1156 C1148 1.378 . S
C1156 C1151 1.350 . S
C1157 H1144 0.929 . S
C1157 C1149 1.433 . S
C1157 N1159 1.384 . S
N1158 C1154 1.427 . S
N1158 C1155 1.384 . S
N1159 C1151 1.427 . S
N1159 C1157 1.384 . S
H1160 C1166 0.930 . S
H1161 C1170 0.930 . S
H1162 C1175 0.929 . S
H1163 C1173 0.929 . S
H1164 C1168 0.929 . S
H1165 C1174 0.929 . S
C1166 H1160 0.930 . S
C1166 C1167 1.367 . S
C1166 C1174 1.378 . S
C1167 C1166 1.367 . S
C1167 C1175 1.433 . S
C1168 H1164 0.929 . S
C1168 C1170 1.378 . S
C1168 C1172 1.350 . S
C1169 C1172 1.463 1_545 S
C1169 C1174 1.350 . S
C1169 N1177 1.427 . S
C1170 H1161 0.930 . S
C1170 C1168 1.378 . S
C1170 C1171 1.367 . S
C1171 C1170 1.367 . S
C1171 C1173 1.433 . S
C1172 C1168 1.350 . S
C1172 C1169 1.463 1_565 S
C1172 N1176 1.427 . S
C1173 H1163 0.929 . S
C1173 C1171 1.433 . S
C1173 N1176 1.384 . S
C1174 H1165 0.929 . S
C1174 C1166 1.378 . S
C1174 C1169 1.350 . S
C1175 H1162 0.929 . S
C1175 C1167 1.433 . S
C1175 N1177 1.384 . S
N1176 C1172 1.427 . S
N1176 C1173 1.384 . S
N1177 C1169 1.427 . S
N1177 C1175 1.384 . S
H1178 C1184 0.930 . S
H1179 C1188 0.930 . S
H1180 C1193 0.929 . S
H1181 C1191 0.929 . S
H1182 C1186 0.929 . S
H1183 C1192 0.929 . S
C1184 H1178 0.930 . S
C1184 C1185 1.367 1_554 S
C1184 C1192 1.378 . S
C1185 C1184 1.367 1_556 S
C1185 C1193 1.433 . S
C1186 H1182 0.929 . S
C1186 C1188 1.378 . S
C1186 C1190 1.350 . S
C1187 C1190 1.463 . S
C1187 C1192 1.350 . S
C1187 N1195 1.427 1_554 S
C1188 H1179 0.930 . S
C1188 C1186 1.378 . S
C1188 C1189 1.367 . S
C1189 C1188 1.367 . S
C1189 C1191 1.433 . S
C1190 C1186 1.350 . S
C1190 C1187 1.463 . S
C1190 N1194 1.427 . S
C1191 H1181 0.929 . S
C1191 C1189 1.433 . S
C1191 N1194 1.384 . S
C1192 H1183 0.929 . S
C1192 C1184 1.378 . S
C1192 C1187 1.350 . S
C1193 H1180 0.929 . S
C1193 C1185 1.433 . S
C1193 N1195 1.384 . S
N1194 C1190 1.427 . S
N1194 C1191 1.384 . S
N1195 C1187 1.427 1_556 S
N1195 C1193 1.384 . S
H1196 C1202 0.930 . S
H1197 C1206 0.930 . S
H1198 C1211 0.929 . S
H1199 C1209 0.929 . S
H1200 C1204 0.929 . S
H1201 C1210 0.929 . S
C1202 H1196 0.930 . S
C1202 C1203 1.367 . S
C1202 C1210 1.378 . S
C1203 C1202 1.367 . S
C1203 C1211 1.433 . S
C1204 H1200 0.929 . S
C1204 C1206 1.378 . S
C1204 C1208 1.350 . S
C1205 C1208 1.463 1_545 S
C1205 C1210 1.350 . S
C1205 N1213 1.427 . S
C1206 H1197 0.930 . S
C1206 C1204 1.378 . S
C1206 C1207 1.367 . S
C1207 C1206 1.367 . S
C1207 C1209 1.433 . S
C1208 C1204 1.350 . S
C1208 C1205 1.463 1_565 S
C1208 N1212 1.427 . S
C1209 H1199 0.929 . S
C1209 C1207 1.433 . S
C1209 N1212 1.384 . S
C1210 H1201 0.929 . S
C1210 C1202 1.378 . S
C1210 C1205 1.350 . S
C1211 H1198 0.929 . S
C1211 C1203 1.433 . S
C1211 N1213 1.384 . S
N1212 C1208 1.427 . S
N1212 C1209 1.384 . S
N1213 C1205 1.427 . S
N1213 C1211 1.384 . S
H1214 C1220 0.930 . S
H1215 C1224 0.930 . S
H1216 C1229 0.929 . S
H1217 C1227 0.929 . S
H1218 C1222 0.929 . S
H1219 C1228 0.929 . S
C1220 H1214 0.930 . S
C1220 C1221 1.367 . S
C1220 C1228 1.378 . S
C1221 C1220 1.367 . S
C1221 C1229 1.433 . S
C1222 H1218 0.929 . S
C1222 C1224 1.378 . S
C1222 C1226 1.350 . S
C1223 C1226 1.463 . S
C1223 C1228 1.350 . S
C1223 N1231 1.427 . S
C1224 H1215 0.930 . S
C1224 C1222 1.378 . S
C1224 C1225 1.367 . S
C1225 C1224 1.367 . S
C1225 C1227 1.433 . S
C1226 C1222 1.350 . S
C1226 C1223 1.463 . S
C1226 N1230 1.427 . S
C1227 H1217 0.929 . S
C1227 C1225 1.433 . S
C1227 N1230 1.384 . S
C1228 H1219 0.929 . S
C1228 C1220 1.378 . S
C1228 C1223 1.350 . S
C1229 H1216 0.929 . S
C1229 C1221 1.433 . S
C1229 N1231 1.384 . S
N1230 C1226 1.427 . S
N1230 C1227 1.384 . S
N1231 C1223 1.427 . S
N1231 C1229 1.384 . S
H1232 C1238 0.930 . S
H1233 C1242 0.930 . S
H1234 C1247 0.929 . S
H1235 C1245 0.929 . S
H1236 C1240 0.929 . S
H1237 C1246 0.929 . S
C1238 H1232 0.930 . S
C1238 C1239 1.367 . S
C1238 C1246 1.378 . S
C1239 C1238 1.367 . S
C1239 C1247 1.433 . S
C1240 H1236 0.929 . S
C1240 C1242 1.378 . S
C1240 C1244 1.350 . S
C1241 C1244 1.463 . S
C1241 C1246 1.350 . S
C1241 N1249 1.427 . S
C1242 H1233 0.930 . S
C1242 C1240 1.378 . S
C1242 C1243 1.367 . S
C1243 C1242 1.367 . S
C1243 C1245 1.433 . S
C1244 C1240 1.350 . S
C1244 C1241 1.463 . S
C1244 N1248 1.427 . S
C1245 H1235 0.929 . S
C1245 C1243 1.433 . S
C1245 N1248 1.384 . S
C1246 H1237 0.929 . S
C1246 C1238 1.378 . S
C1246 C1241 1.350 . S
C1247 H1234 0.929 . S
C1247 C1239 1.433 . S
C1247 N1249 1.384 . S
N1248 C1244 1.427 . S
N1248 C1245 1.384 . S
N1249 C1241 1.427 . S
N1249 C1247 1.384 . S
H1250 C1256 0.930 . S
H1251 C1260 0.930 . S
H1252 C1265 0.929 . S
H1253 C1263 0.929 . S
H1254 C1258 0.929 . S
H1255 C1264 0.929 . S
C1256 H1250 0.930 . S
C1256 C1257 1.367 . S
C1256 C1264 1.378 . S
C1257 C1256 1.367 . S
C1257 C1265 1.433 . S
C1258 H1254 0.929 . S
C1258 C1260 1.378 . S
C1258 C1262 1.350 . S
C1259 C1262 1.463 . S
C1259 C1264 1.350 . S
C1259 N1267 1.427 . S
C1260 H1251 0.930 . S
C1260 C1258 1.378 . S
C1260 C1261 1.367 . S
C1261 C1260 1.367 . S
C1261 C1263 1.433 . S
C1262 C1258 1.350 . S
C1262 C1259 1.463 . S
C1262 N1266 1.427 . S
C1263 H1253 0.929 . S
C1263 C1261 1.433 . S
C1263 N1266 1.384 . S
C1264 H1255 0.929 . S
C1264 C1256 1.378 . S
C1264 C1259 1.350 . S
C1265 H1252 0.929 . S
C1265 C1257 1.433 . S
C1265 N1267 1.384 . S
N1266 C1262 1.427 . S
N1266 C1263 1.384 . S
N1267 C1259 1.427 . S
N1267 C1265 1.384 . S
H1268 C1274 0.930 . S
H1269 C1278 0.930 . S
H1270 C1283 0.929 . S
H1271 C1281 0.929 . S
H1272 C1276 0.929 . S
H1273 C1282 0.929 . S
C1274 H1268 0.930 . S
C1274 C1275 1.367 . S
C1274 C1282 1.378 . S
C1275 C1274 1.367 . S
C1275 C1283 1.433 . S
C1276 H1272 0.929 . S
C1276 C1278 1.378 . S
C1276 C1280 1.350 . S
C1277 C1280 1.463 . S
C1277 C1282 1.350 . S
C1277 N1285 1.427 . S
C1278 H1269 0.930 . S
C1278 C1276 1.378 . S
C1278 C1279 1.367 . S
C1279 C1278 1.367 . S
C1279 C1281 1.433 . S
C1280 C1276 1.350 . S
C1280 C1277 1.463 . S
C1280 N1284 1.427 . S
C1281 H1271 0.929 . S
C1281 C1279 1.433 . S
C1281 N1284 1.384 . S
C1282 H1273 0.929 . S
C1282 C1274 1.378 . S
C1282 C1277 1.350 . S
C1283 H1270 0.929 . S
C1283 C1275 1.433 . S
C1283 N1285 1.384 . S
N1284 C1280 1.427 . S
N1284 C1281 1.384 . S
N1285 C1277 1.427 . S
N1285 C1283 1.384 . S
H1286 C1292 0.930 . S
H1287 C1296 0.930 . S
H1288 C1301 0.929 . S
H1289 C1299 0.929 . S
H1290 C1294 0.929 . S
H1291 C1300 0.929 . S
C1292 H1286 0.930 . S
C1292 C1293 1.367 . S
C1292 C1300 1.378 . S
C1293 C1292 1.367 . S
C1293 C1301 1.433 . S
C1294 H1290 0.929 . S
C1294 C1296 1.378 1_554 S
C1294 C1298 1.350 . S
C1295 C1298 1.463 . S
C1295 C1300 1.350 . S
C1295 N1303 1.427 . S
C1296 H1287 0.930 . S
C1296 C1294 1.378 1_556 S
C1296 C1297 1.367 . S
C1297 C1296 1.367 . S
C1297 C1299 1.433 . S
C1298 C1294 1.350 . S
C1298 C1295 1.463 . S
C1298 N1302 1.427 1_554 S
C1299 H1289 0.929 . S
C1299 C1297 1.433 . S
C1299 N1302 1.384 . S
C1300 H1291 0.929 . S
C1300 C1292 1.378 . S
C1300 C1295 1.350 . S
C1301 H1288 0.929 . S
C1301 C1293 1.433 . S
C1301 N1303 1.384 . S
N1302 C1298 1.427 1_556 S
N1302 C1299 1.384 . S
N1303 C1295 1.427 . S
N1303 C1301 1.384 . S
H1304 C1310 0.930 . S
H1305 C1314 0.930 . S
H1306 C1319 0.929 . S
H1307 C1317 0.929 . S
H1308 C1312 0.929 . S
H1309 C1318 0.929 . S
C1310 H1304 0.930 . S
C1310 C1311 1.367 . S
C1310 C1318 1.378 . S
C1311 C1310 1.367 . S
C1311 C1319 1.433 . S
C1312 H1308 0.929 . S
C1312 C1314 1.378 . S
C1312 C1316 1.350 . S
C1313 C1316 1.463 . S
C1313 C1318 1.350 . S
C1313 N1321 1.427 . S
C1314 H1305 0.930 . S
C1314 C1312 1.378 . S
C1314 C1315 1.367 . S
C1315 C1314 1.367 . S
C1315 C1317 1.433 . S
C1316 C1312 1.350 . S
C1316 C1313 1.463 . S
C1316 N1320 1.427 . S
C1317 H1307 0.929 . S
C1317 C1315 1.433 . S
C1317 N1320 1.384 . S
C1318 H1309 0.929 . S
C1318 C1310 1.378 . S
C1318 C1313 1.350 . S
C1319 H1306 0.929 . S
C1319 C1311 1.433 . S
C1319 N1321 1.384 . S
N1320 C1316 1.427 . S
N1320 C1317 1.384 . S
N1321 C1313 1.427 . S
N1321 C1319 1.384 . S
H1322 C1328 0.930 . S
H1323 C1332 0.930 . S
H1324 C1337 0.929 . S
H1325 C1335 0.929 . S
H1326 C1330 0.929 . S
H1327 C1336 0.929 . S
C1328 H1322 0.930 . S
C1328 C1329 1.367 . S
C1328 C1336 1.378 . S
C1329 C1328 1.367 . S
C1329 C1337 1.433 . S
C1330 H1326 0.929 . S
C1330 C1332 1.378 . S
C1330 C1334 1.350 . S
C1331 C1334 1.463 . S
C1331 C1336 1.350 . S
C1331 N1339 1.427 . S
C1332 H1323 0.930 . S
C1332 C1330 1.378 . S
C1332 C1333 1.367 . S
C1333 C1332 1.367 . S
C1333 C1335 1.433 . S
C1334 C1330 1.350 . S
C1334 C1331 1.463 . S
C1334 N1338 1.427 . S
C1335 H1325 0.929 . S
C1335 C1333 1.433 . S
C1335 N1338 1.384 . S
C1336 H1327 0.929 . S
C1336 C1328 1.378 . S
C1336 C1331 1.350 . S
C1337 H1324 0.929 . S
C1337 C1329 1.433 . S
C1337 N1339 1.384 . S
N1338 C1334 1.427 . S
N1338 C1335 1.384 . S
N1339 C1331 1.427 . S
N1339 C1337 1.384 . S
H1340 C1346 0.930 . S
H1341 C1350 0.930 . S
H1342 C1355 0.929 . S
H1343 C1353 0.929 . S
H1344 C1348 0.929 . S
H1345 C1354 0.929 . S
C1346 H1340 0.930 . S
C1346 C1347 1.367 . S
C1346 C1354 1.378 . S
C1347 C1346 1.367 . S
C1347 C1355 1.433 . S
C1348 H1344 0.929 . S
C1348 C1350 1.378 . S
C1348 C1352 1.350 . S
C1349 C1352 1.463 . S
C1349 C1354 1.350 . S
C1349 N1357 1.427 . S
C1350 H1341 0.930 . S
C1350 C1348 1.378 . S
C1350 C1351 1.367 . S
C1351 C1350 1.367 . S
C1351 C1353 1.433 . S
C1352 C1348 1.350 . S
C1352 C1349 1.463 . S
C1352 N1356 1.427 . S
C1353 H1343 0.929 . S
C1353 C1351 1.433 . S
C1353 N1356 1.384 . S
C1354 H1345 0.929 . S
C1354 C1346 1.378 . S
C1354 C1349 1.350 . S
C1355 H1342 0.929 . S
C1355 C1347 1.433 . S
C1355 N1357 1.384 . S
N1356 C1352 1.427 . S
N1356 C1353 1.384 . S
N1357 C1349 1.427 . S
N1357 C1355 1.384 . S
H1358 C1364 0.930 . S
H1359 C1368 0.930 . S
H1360 C1373 0.929 . S
H1361 C1371 0.929 . S
H1362 C1366 0.929 . S
H1363 C1372 0.929 . S
C1364 H1358 0.930 . S
C1364 C1365 1.367 . S
C1364 C1372 1.378 1_556 S
C1365 C1364 1.367 . S
C1365 C1373 1.433 . S
C1366 H1362 0.929 . S
C1366 C1368 1.378 . S
C1366 C1370 1.350 . S
C1367 C1370 1.463 . S
C1367 C1372 1.350 . S
C1367 N1375 1.416 1_554 S
C1368 H1359 0.930 . S
C1368 C1366 1.378 . S
C1368 C1369 1.367 . S
C1369 C1368 1.367 . S
C1369 C1371 1.433 . S
C1370 C1366 1.350 . S
C1370 C1367 1.463 . S
C1370 N1374 1.427 . S
C1371 H1361 0.929 . S
C1371 C1369 1.433 . S
C1371 N1374 1.384 . S
C1372 H1363 0.929 . S
C1372 C1364 1.378 1_554 S
C1372 C1367 1.350 . S
C1373 H1360 0.929 . S
C1373 C1365 1.433 . S
C1373 N1375 1.397 . S
N1374 C1370 1.427 . S
N1374 C1371 1.384 . S
N1375 C1367 1.416 1_556 S
N1375 C1373 1.397 . S
H1376 C1382 0.930 . S
H1377 C1386 0.930 . S
H1378 C1391 0.929 . S
H1379 C1389 0.929 . S
H1380 C1384 0.929 1_655 S
H1381 C1390 0.929 1_455 S
C1382 H1376 0.930 . S
C1382 C1383 1.367 . S
C1382 C1390 1.378 . S
C1383 C1382 1.367 . S
C1383 C1391 1.433 . S
C1384 H1380 0.929 1_455 S
C1384 C1386 1.378 . S
C1384 C1388 1.350 . S
C1385 C1388 1.463 1_655 S
C1385 C1390 1.350 . S
C1385 N1393 1.427 . S
C1386 H1377 0.930 . S
C1386 C1384 1.378 . S
C1386 C1387 1.367 . S
C1387 C1386 1.367 . S
C1387 C1389 1.433 . S
C1388 C1384 1.350 . S
C1388 C1385 1.463 1_455 S
C1388 N1392 1.427 . S
C1389 H1379 0.929 . S
C1389 C1387 1.433 . S
C1389 N1392 1.384 . S
C1390 H1381 0.929 1_655 S
C1390 C1382 1.378 . S
C1390 C1385 1.350 . S
C1391 H1378 0.929 . S
C1391 C1383 1.433 . S
C1391 N1393 1.384 . S
N1392 C1388 1.427 . S
N1392 C1389 1.384 . S
N1393 C1385 1.427 . S
N1393 C1391 1.384 . S
H1394 C1400 0.930 . S
H1395 C1404 0.930 . S
H1396 C1409 0.929 . S
H1397 C1407 0.929 . S
H1398 C1402 0.929 . S
H1399 C1408 0.929 . S
C1400 H1394 0.930 . S
C1400 C1401 1.367 . S
C1400 C1408 1.378 . S
C1401 C1400 1.367 . S
C1401 C1409 1.433 . S
C1402 H1398 0.929 . S
C1402 C1404 1.378 . S
C1402 C1406 1.350 . S
C1403 C1406 1.463 . S
C1403 C1408 1.350 . S
C1403 N1411 1.427 . S
C1404 H1395 0.930 . S
C1404 C1402 1.378 . S
C1404 C1405 1.367 1_554 S
C1405 C1404 1.367 1_556 S
C1405 C1407 1.433 . S
C1406 C1402 1.350 . S
C1406 C1403 1.463 . S
C1406 N1410 1.427 1_554 S
C1407 H1397 0.929 . S
C1407 C1405 1.433 . S
C1407 N1410 1.384 . S
C1408 H1399 0.929 . S
C1408 C1400 1.378 . S
C1408 C1403 1.350 . S
C1409 H1396 0.929 . S
C1409 C1401 1.433 . S
C1409 N1411 1.384 . S
N1410 C1406 1.427 1_556 S
N1410 C1407 1.384 . S
N1411 C1403 1.427 . S
N1411 C1409 1.384 . S
H1412 C1418 0.930 . S
H1413 C1422 0.930 . S
H1414 C1427 0.929 . S
H1415 C1425 0.929 . S
H1416 C1420 0.929 . S
H1417 C1426 0.929 . S
C1418 H1412 0.930 . S
C1418 C1419 1.367 . S
C1418 C1426 1.378 . S
C1419 C1418 1.367 . S
C1419 C1427 1.433 . S
C1420 H1416 0.929 . S
C1420 C1422 1.378 . S
C1420 C1424 1.350 . S
C1421 C1424 1.463 . S
C1421 C1426 1.350 . S
C1421 N1429 1.427 . S
C1422 H1413 0.930 . S
C1422 C1420 1.378 . S
C1422 C1423 1.367 . S
C1423 C1422 1.367 . S
C1423 C1425 1.433 . S
C1424 C1420 1.350 . S
C1424 C1421 1.463 . S
C1424 N1428 1.427 . S
C1425 H1415 0.929 . S
C1425 C1423 1.433 . S
C1425 N1428 1.384 . S
C1426 H1417 0.929 . S
C1426 C1418 1.378 . S
C1426 C1421 1.350 . S
C1427 H1414 0.929 . S
C1427 C1419 1.433 . S
C1427 N1429 1.384 . S
N1428 C1424 1.427 . S
N1428 C1425 1.384 . S
N1429 C1421 1.427 . S
N1429 C1427 1.384 . S
H1430 C1436 0.930 . S
H1431 C1440 0.930 . S
H1432 C1445 0.929 . S
H1433 C1443 0.929 . S
H1434 C1438 0.929 . S
H1435 C1444 0.929 . S
C1436 H1430 0.930 . S
C1436 C1437 1.367 . S
C1436 C1444 1.378 . S
C1437 C1436 1.367 . S
C1437 C1445 1.433 . S
C1438 H1434 0.929 . S
C1438 C1440 1.378 . S
C1438 C1442 1.350 . S
C1439 C1442 1.463 . S
C1439 C1444 1.350 . S
C1439 N1447 1.427 . S
C1440 H1431 0.930 . S
C1440 C1438 1.378 . S
C1440 C1441 1.367 . S
C1441 C1440 1.367 . S
C1441 C1443 1.433 . S
C1442 C1438 1.350 . S
C1442 C1439 1.463 . S
C1442 N1446 1.427 . S
C1443 H1433 0.929 . S
C1443 C1441 1.433 . S
C1443 N1446 1.384 . S
C1444 H1435 0.929 . S
C1444 C1436 1.378 . S
C1444 C1439 1.350 . S
C1445 H1432 0.929 . S
C1445 C1437 1.433 . S
C1445 N1447 1.384 . S
N1446 C1442 1.427 . S
N1446 C1443 1.384 . S
N1447 C1439 1.427 . S
N1447 C1445 1.384 . S
H1448 C1454 0.930 . S
H1449 C1458 0.930 . S
H1450 C1463 0.929 . S
H1451 C1461 0.929 . S
H1452 C1456 0.929 1_455 S
H1453 C1462 0.929 1_655 S
C1454 H1448 0.930 . S
C1454 C1455 1.367 . S
C1454 C1462 1.378 . S
C1455 C1454 1.367 . S
C1455 C1463 1.433 . S
C1456 H1452 0.929 1_655 S
C1456 C1458 1.378 . S
C1456 C1460 1.350 . S
C1457 C1460 1.463 1_455 S
C1457 C1462 1.350 . S
C1457 N1465 1.427 . S
C1458 H1449 0.930 . S
C1458 C1456 1.378 . S
C1458 C1459 1.367 . S
C1459 C1458 1.367 . S
C1459 C1461 1.433 . S
C1460 C1456 1.350 . S
C1460 C1457 1.463 1_655 S
C1460 N1464 1.427 . S
C1461 H1451 0.929 . S
C1461 C1459 1.433 . S
C1461 N1464 1.384 . S
C1462 H1453 0.929 1_455 S
C1462 C1454 1.378 . S
C1462 C1457 1.350 . S
C1463 H1450 0.929 . S
C1463 C1455 1.433 . S
C1463 N1465 1.384 . S
N1464 C1460 1.427 . S
N1464 C1461 1.384 . S
N1465 C1457 1.427 . S
N1465 C1463 1.384 . S
H1466 C1472 0.930 . S
H1467 C1476 0.930 . S
H1468 C1481 0.929 . S
H1469 C1479 0.929 . S
H1470 C1474 0.929 . S
H1471 C1480 0.929 . S
C1472 H1466 0.930 . S
C1472 C1473 1.367 . S
C1472 C1480 1.378 . S
C1473 C1472 1.367 . S
C1473 C1481 1.433 . S
C1474 H1470 0.929 . S
C1474 C1476 1.378 . S
C1474 C1478 1.350 . S
C1475 C1478 1.463 . S
C1475 C1480 1.350 . S
C1475 N1483 1.427 . S
C1476 H1467 0.930 . S
C1476 C1474 1.378 . S
C1476 C1477 1.367 1_554 S
C1477 C1476 1.367 1_556 S
C1477 C1479 1.433 . S
C1478 C1474 1.350 . S
C1478 C1475 1.463 . S
C1478 N1482 1.427 1_554 S
C1479 H1469 0.929 . S
C1479 C1477 1.433 . S
C1479 N1482 1.384 . S
C1480 H1471 0.929 . S
C1480 C1472 1.378 . S
C1480 C1475 1.350 . S
C1481 H1468 0.929 . S
C1481 C1473 1.433 . S
C1481 N1483 1.384 . S
N1482 C1478 1.427 1_556 S
N1482 C1479 1.384 . S
N1483 C1475 1.427 . S
N1483 C1481 1.384 . S
H1484 C1490 0.930 . S
H1485 C1494 0.930 . S
H1486 C1499 0.929 . S
H1487 C1497 0.929 . S
H1488 C1492 0.929 . S
H1489 C1498 0.929 . S
C1490 H1484 0.930 . S
C1490 C1491 1.367 . S
C1490 C1498 1.378 . S
C1491 C1490 1.367 . S
C1491 C1499 1.433 . S
C1492 H1488 0.929 . S
C1492 C1494 1.378 . S
C1492 C1496 1.350 . S
C1493 C1496 1.463 . S
C1493 C1498 1.350 . S
C1493 N1501 1.427 . S
C1494 H1485 0.930 . S
C1494 C1492 1.378 . S
C1494 C1495 1.367 . S
C1495 C1494 1.367 . S
C1495 C1497 1.433 . S
C1496 C1492 1.350 . S
C1496 C1493 1.463 . S
C1496 N1500 1.427 . S
C1497 H1487 0.929 . S
C1497 C1495 1.433 . S
C1497 N1500 1.384 . S
C1498 H1489 0.929 . S
C1498 C1490 1.378 . S
C1498 C1493 1.350 . S
C1499 H1486 0.929 . S
C1499 C1491 1.433 . S
C1499 N1501 1.384 . S
N1500 C1496 1.427 . S
N1500 C1497 1.384 . S
N1501 C1493 1.427 . S
N1501 C1499 1.384 . S
H1502 C1508 0.930 . S
H1503 C1512 0.930 . S
H1504 C1517 0.929 . S
H1505 C1515 0.929 . S
H1506 C1510 0.929 . S
H1507 C1516 0.929 . S
C1508 H1502 0.930 . S
C1508 C1509 1.367 . S
C1508 C1516 1.378 . S
C1509 C1508 1.367 . S
C1509 C1517 1.433 . S
C1510 H1506 0.929 . S
C1510 C1512 1.378 . S
C1510 C1514 1.350 . S
C1511 C1514 1.463 . S
C1511 C1516 1.350 . S
C1511 N1519 1.427 . S
C1512 H1503 0.930 . S
C1512 C1510 1.378 . S
C1512 C1513 1.367 . S
C1513 C1512 1.367 . S
C1513 C1515 1.433 . S
C1514 C1510 1.350 . S
C1514 C1511 1.463 . S
C1514 N1518 1.427 . S
C1515 H1505 0.929 . S
C1515 C1513 1.433 . S
C1515 N1518 1.384 . S
C1516 H1507 0.929 . S
C1516 C1508 1.378 . S
C1516 C1511 1.350 . S
C1517 H1504 0.929 . S
C1517 C1509 1.433 . S
C1517 N1519 1.384 . S
N1518 C1514 1.427 . S
N1518 C1515 1.384 . S
N1519 C1511 1.427 . S
N1519 C1517 1.384 . S
H1520 C1526 0.930 . S
H1521 C1530 0.930 . S
H1522 C1535 0.929 . S
H1523 C1533 0.929 . S
H1524 C1528 0.929 . S
H1525 C1534 0.929 . S
C1526 H1520 0.930 . S
C1526 C1527 1.367 . S
C1526 C1534 1.378 . S
C1527 C1526 1.367 . S
C1527 C1535 1.433 . S
C1528 H1524 0.929 . S
C1528 C1530 1.378 . S
C1528 C1532 1.350 . S
C1529 C1532 1.463 1_655 S
C1529 C1534 1.350 . S
C1529 N1537 1.427 1_655 S
C1530 H1521 0.930 . S
C1530 C1528 1.378 . S
C1530 C1531 1.367 . S
C1531 C1530 1.367 . S
C1531 C1533 1.433 . S
C1532 C1528 1.350 . S
C1532 C1529 1.463 1_455 S
C1532 N1536 1.427 . S
C1533 H1523 0.929 . S
C1533 C1531 1.433 . S
C1533 N1536 1.384 . S
C1534 H1525 0.929 . S
C1534 C1526 1.378 . S
C1534 C1529 1.350 . S
C1535 H1522 0.929 . S
C1535 C1527 1.433 . S
C1535 N1537 1.384 1_655 S
N1536 C1532 1.427 . S
N1536 C1533 1.384 . S
N1537 C1529 1.427 1_455 S
N1537 C1535 1.384 1_455 S
H1538 C1544 0.930 . S
H1539 C1548 0.930 . S
H1540 C1553 0.929 . S
H1541 C1551 0.929 . S
H1542 C1546 0.929 . S
H1543 C1552 0.929 . S
C1544 H1538 0.930 . S
C1544 C1545 1.367 . S
C1544 C1552 1.378 1_556 S
C1545 C1544 1.367 . S
C1545 C1553 1.433 . S
C1546 H1542 0.929 . S
C1546 C1548 1.378 . S
C1546 C1550 1.350 . S
C1547 C1550 1.463 . S
C1547 C1552 1.350 . S
C1547 N1555 1.427 1_554 S
C1548 H1539 0.930 . S
C1548 C1546 1.378 . S
C1548 C1549 1.367 . S
C1549 C1548 1.367 . S
C1549 C1551 1.433 . S
C1550 C1546 1.350 . S
C1550 C1547 1.463 . S
C1550 N1554 1.427 . S
C1551 H1541 0.929 . S
C1551 C1549 1.433 . S
C1551 N1554 1.384 . S
C1552 H1543 0.929 . S
C1552 C1544 1.378 1_554 S
C1552 C1547 1.350 . S
C1553 H1540 0.929 . S
C1553 C1545 1.433 . S
C1553 N1555 1.384 . S
N1554 C1550 1.427 . S
N1554 C1551 1.384 . S
N1555 C1547 1.427 1_556 S
N1555 C1553 1.384 . S
H1556 C1562 0.930 . S
H1557 C1566 0.930 . S
H1558 C1571 0.929 . S
H1559 C1569 0.929 . S
H1560 C1564 0.929 . S
H1561 C1570 0.929 . S
C1562 H1556 0.930 . S
C1562 C1563 1.367 . S
C1562 C1570 1.378 . S
C1563 C1562 1.367 . S
C1563 C1571 1.433 . S
C1564 H1560 0.929 . S
C1564 C1566 1.378 . S
C1564 C1568 1.350 . S
C1565 C1568 1.463 . S
C1565 C1570 1.350 . S
C1565 N1573 1.427 . S
C1566 H1557 0.930 . S
C1566 C1564 1.378 . S
C1566 C1567 1.367 . S
C1567 C1566 1.367 . S
C1567 C1569 1.433 . S
C1568 C1564 1.350 . S
C1568 C1565 1.463 . S
C1568 N1572 1.427 . S
C1569 H1559 0.929 . S
C1569 C1567 1.433 . S
C1569 N1572 1.384 . S
C1570 H1561 0.929 . S
C1570 C1562 1.378 . S
C1570 C1565 1.350 . S
C1571 H1558 0.929 . S
C1571 C1563 1.433 . S
C1571 N1573 1.384 . S
N1572 C1568 1.427 . S
N1572 C1569 1.384 . S
N1573 C1565 1.427 . S
N1573 C1571 1.384 . S
H1574 C1580 0.930 . S
H1575 C1584 0.930 . S
H1576 C1589 0.929 . S
H1577 C1587 0.929 . S
H1578 C1582 0.929 . S
H1579 C1588 0.929 . S
C1580 H1574 0.930 . S
C1580 C1581 1.367 . S
C1580 C1588 1.378 . S
C1581 C1580 1.367 . S
C1581 C1589 1.433 . S
C1582 H1578 0.929 . S
C1582 C1584 1.378 . S
C1582 C1586 1.350 . S
C1583 C1586 1.463 . S
C1583 C1588 1.350 . S
C1583 N1591 1.427 . S
C1584 H1575 0.930 . S
C1584 C1582 1.378 . S
C1584 C1585 1.367 . S
C1585 C1584 1.367 . S
C1585 C1587 1.433 . S
C1586 C1582 1.350 . S
C1586 C1583 1.463 . S
C1586 N1590 1.427 . S
C1587 H1577 0.929 . S
C1587 C1585 1.433 . S
C1587 N1590 1.384 . S
C1588 H1579 0.929 . S
C1588 C1580 1.378 . S
C1588 C1583 1.350 . S
C1589 H1576 0.929 . S
C1589 C1581 1.433 . S
C1589 N1591 1.384 . S
N1590 C1586 1.427 . S
N1590 C1587 1.384 . S
N1591 C1583 1.427 . S
N1591 C1589 1.384 . S
H1592 C1598 0.930 . S
H1593 C1602 0.930 . S
H1594 C1607 0.929 . S
H1595 C1605 0.929 . S
H1596 C1600 0.929 . S
H1597 C1606 0.929 . S
C1598 H1592 0.930 . S
C1598 C1599 1.367 . S
C1598 C1606 1.378 . S
C1599 C1598 1.367 . S
C1599 C1607 1.433 . S
C1600 H1596 0.929 . S
C1600 C1602 1.378 . S
C1600 C1604 1.350 . S
C1601 C1604 1.463 1_455 S
C1601 C1606 1.350 . S
C1601 N1609 1.427 . S
C1602 H1593 0.930 . S
C1602 C1600 1.378 . S
C1602 C1603 1.367 . S
C1603 C1602 1.367 . S
C1603 C1605 1.433 . S
C1604 C1600 1.350 . S
C1604 C1601 1.463 1_655 S
C1604 N1608 1.427 1_655 S
C1605 H1595 0.929 . S
C1605 C1603 1.433 . S
C1605 N1608 1.384 1_655 S
C1606 H1597 0.929 . S
C1606 C1598 1.378 . S
C1606 C1601 1.350 . S
C1607 H1594 0.929 . S
C1607 C1599 1.433 . S
C1607 N1609 1.384 . S
N1608 C1604 1.427 1_455 S
N1608 C1605 1.384 1_455 S
N1609 C1601 1.427 . S
N1609 C1607 1.384 . S
H1610 C1616 0.930 . S
H1611 C1620 0.930 . S
H1612 C1625 0.929 . S
H1613 C1623 0.929 . S
H1614 C1618 0.929 . S
H1615 C1624 0.929 . S
C1616 H1610 0.930 . S
C1616 C1617 1.367 . S
C1616 C1624 1.378 . S
C1617 C1616 1.367 . S
C1617 C1625 1.433 1_556 S
C1618 H1614 0.929 . S
C1618 C1620 1.378 . S
C1618 C1622 1.350 . S
C1619 C1622 1.463 . S
C1619 C1624 1.350 1_554 S
C1619 N1627 1.427 . S
C1620 H1611 0.930 . S
C1620 C1618 1.378 . S
C1620 C1621 1.367 . S
C1621 C1620 1.367 . S
C1621 C1623 1.433 . S
C1622 C1618 1.350 . S
C1622 C1619 1.463 . S
C1622 N1626 1.427 . S
C1623 H1613 0.929 . S
C1623 C1621 1.433 . S
C1623 N1626 1.384 . S
C1624 H1615 0.929 . S
C1624 C1616 1.378 . S
C1624 C1619 1.350 1_556 S
C1625 H1612 0.929 . S
C1625 C1617 1.433 1_554 S
C1625 N1627 1.384 . S
N1626 C1622 1.427 . S
N1626 C1623 1.384 . S
N1627 C1619 1.427 . S
N1627 C1625 1.384 . S
H1628 C1634 0.930 . S
H1629 C1638 0.930 . S
H1630 C1643 0.929 . S
H1631 C1641 0.929 . S
H1632 C1636 0.929 . S
H1633 C1642 0.929 . S
C1634 H1628 0.930 . S
C1634 C1635 1.367 . S
C1634 C1642 1.378 . S
C1635 C1634 1.367 . S
C1635 C1643 1.433 . S
C1636 H1632 0.929 . S
C1636 C1638 1.378 . S
C1636 C1640 1.350 . S
C1637 C1640 1.463 . S
C1637 C1642 1.350 . S
C1637 N1645 1.427 . S
C1638 H1629 0.930 . S
C1638 C1636 1.378 . S
C1638 C1639 1.367 . S
C1639 C1638 1.367 . S
C1639 C1641 1.433 . S
C1640 C1636 1.350 . S
C1640 C1637 1.463 . S
C1640 N1644 1.427 . S
C1641 H1631 0.929 . S
C1641 C1639 1.433 . S
C1641 N1644 1.384 . S
C1642 H1633 0.929 . S
C1642 C1634 1.378 . S
C1642 C1637 1.350 . S
C1643 H1630 0.929 . S
C1643 C1635 1.433 . S
C1643 N1645 1.384 . S
N1644 C1640 1.427 . S
N1644 C1641 1.384 . S
N1645 C1637 1.427 . S
N1645 C1643 1.384 . S
H1646 C1652 0.930 . S
H1647 C1656 0.930 . S
H1648 C1661 0.929 . S
H1649 C1659 0.929 . S
H1650 C1654 0.929 . S
H1651 C1660 0.929 . S
C1652 H1646 0.930 . S
C1652 C1653 1.367 . S
C1652 C1660 1.378 . S
C1653 C1652 1.367 . S
C1653 C1661 1.433 . S
C1654 H1650 0.929 . S
C1654 C1656 1.378 . S
C1654 C1658 1.350 . S
C1655 C1658 1.463 . S
C1655 C1660 1.350 . S
C1655 N1663 1.427 . S
C1656 H1647 0.930 . S
C1656 C1654 1.378 . S
C1656 C1657 1.367 . S
C1657 C1656 1.367 . S
C1657 C1659 1.433 . S
C1658 C1654 1.350 . S
C1658 C1655 1.463 . S
C1658 N1662 1.427 . S
C1659 H1649 0.929 . S
C1659 C1657 1.433 . S
C1659 N1662 1.384 . S
C1660 H1651 0.929 . S
C1660 C1652 1.378 . S
C1660 C1655 1.350 . S
C1661 H1648 0.929 . S
C1661 C1653 1.433 . S
C1661 N1663 1.384 . S
N1662 C1658 1.427 . S
N1662 C1659 1.384 . S
N1663 C1655 1.427 . S
N1663 C1661 1.384 . S
H1664 C1670 0.930 . S
H1665 C1674 0.930 . S
H1666 C1679 0.929 . S
H1667 C1677 0.929 . S
H1668 C1672 0.929 . S
H1669 C1678 0.929 . S
C1670 H1664 0.930 . S
C1670 C1671 1.367 . S
C1670 C1678 1.378 . S
C1671 C1670 1.367 . S
C1671 C1679 1.433 . S
C1672 H1668 0.929 . S
C1672 C1674 1.378 . S
C1672 C1676 1.350 . S
C1673 C1676 1.463 . S
C1673 C1678 1.350 . S
C1673 N1681 1.427 . S
C1674 H1665 0.930 . S
C1674 C1672 1.378 . S
C1674 C1675 1.367 . S
C1675 C1674 1.367 . S
C1675 C1677 1.433 . S
C1676 C1672 1.350 . S
C1676 C1673 1.463 . S
C1676 N1680 1.427 . S
C1677 H1667 0.929 . S
C1677 C1675 1.433 . S
C1677 N1680 1.384 . S
C1678 H1669 0.929 . S
C1678 C1670 1.378 . S
C1678 C1673 1.350 . S
C1679 H1666 0.929 . S
C1679 C1671 1.433 . S
C1679 N1681 1.384 . S
N1680 C1676 1.427 . S
N1680 C1677 1.384 . S
N1681 C1673 1.427 . S
N1681 C1679 1.384 . S
H1682 C1688 0.930 . S
H1683 C1692 0.930 . S
H1684 C1697 0.929 . S
H1685 C1695 0.929 . S
H1686 C1690 0.929 . S
H1687 C1696 0.929 . S
C1688 H1682 0.930 . S
C1688 C1689 1.367 . S
C1688 C1696 1.378 . S
C1689 C1688 1.367 . S
C1689 C1697 1.433 . S
C1690 H1686 0.929 . S
C1690 C1692 1.378 . S
C1690 C1694 1.350 . S
C1691 C1694 1.463 . S
C1691 C1696 1.350 . S
C1691 N1699 1.427 . S
C1692 H1683 0.930 . S
C1692 C1690 1.378 . S
C1692 C1693 1.367 . S
C1693 C1692 1.367 . S
C1693 C1695 1.433 . S
C1694 C1690 1.350 . S
C1694 C1691 1.463 . S
C1694 N1698 1.427 . S
C1695 H1685 0.929 . S
C1695 C1693 1.433 . S
C1695 N1698 1.384 . S
C1696 H1687 0.929 . S
C1696 C1688 1.378 . S
C1696 C1691 1.350 . S
C1697 H1684 0.929 . S
C1697 C1689 1.433 . S
C1697 N1699 1.384 . S
N1698 C1694 1.427 . S
N1698 C1695 1.384 . S
N1699 C1691 1.427 . S
N1699 C1697 1.384 . S
H1700 C1706 0.930 . S
H1701 C1710 0.930 . S
H1702 C1715 0.929 . S
H1703 C1713 0.929 . S
H1704 C1708 0.929 . S
H1705 C1714 0.929 . S
C1706 H1700 0.930 . S
C1706 C1707 1.367 . S
C1706 C1714 1.378 . S
C1707 C1706 1.367 . S
C1707 C1715 1.433 . S
C1708 H1704 0.929 . S
C1708 C1710 1.378 . S
C1708 C1712 1.350 . S
C1709 C1712 1.463 1_655 S
C1709 C1714 1.350 . S
C1709 N1717 1.427 . S
C1710 H1701 0.930 . S
C1710 C1708 1.378 . S
C1710 C1711 1.367 . S
C1711 C1710 1.367 . S
C1711 C1713 1.433 . S
C1712 C1708 1.350 . S
C1712 C1709 1.463 1_455 S
C1712 N1716 1.427 . S
C1713 H1703 0.929 . S
C1713 C1711 1.433 . S
C1713 N1716 1.384 . S
C1714 H1705 0.929 . S
C1714 C1706 1.378 . S
C1714 C1709 1.350 . S
C1715 H1702 0.929 . S
C1715 C1707 1.433 . S
C1715 N1717 1.384 . S
N1716 C1712 1.427 . S
N1716 C1713 1.384 . S
N1717 C1709 1.427 . S
N1717 C1715 1.384 . S
H1718 C1724 0.930 . S
H1719 C1728 0.930 . S
H1720 C1733 0.929 . S
H1721 C1731 0.929 1_556 S
H1722 C1726 0.929 . S
H1723 C1732 0.929 . S
C1724 H1718 0.930 . S
C1724 C1725 1.367 . S
C1724 C1732 1.378 . S
C1725 C1724 1.367 . S
C1725 C1733 1.433 . S
C1726 H1722 0.929 . S
C1726 C1728 1.378 1_554 S
C1726 C1730 1.350 . S
C1727 C1730 1.463 . S
C1727 C1732 1.350 . S
C1727 N1735 1.427 . S
C1728 H1719 0.930 . S
C1728 C1726 1.378 1_556 S
C1728 C1729 1.367 . S
C1729 C1728 1.367 . S
C1729 C1731 1.431 1_556 S
C1730 C1726 1.350 . S
C1730 C1727 1.463 . S
C1730 N1734 1.427 . S
C1731 H1721 0.929 1_554 S
C1731 C1729 1.431 1_554 S
C1731 N1734 1.386 . S
C1732 H1723 0.929 . S
C1732 C1724 1.378 . S
C1732 C1727 1.350 . S
C1733 H1720 0.929 . S
C1733 C1725 1.433 . S
C1733 N1735 1.384 . S
N1734 C1730 1.427 . S
N1734 C1731 1.386 . S
N1735 C1727 1.427 . S
N1735 C1733 1.384 . S
H1736 C1742 0.930 . S
H1737 C1746 0.930 . S
H1738 C1751 0.929 . S
H1739 C1749 0.929 . S
H1740 C1744 0.929 . S
H1741 C1750 0.929 . S
C1742 H1736 0.930 . S
C1742 C1743 1.367 . S
C1742 C1750 1.378 . S
C1743 C1742 1.367 . S
C1743 C1751 1.433 . S
C1744 H1740 0.929 . S
C1744 C1746 1.378 . S
C1744 C1748 1.350 . S
C1745 C1748 1.463 . S
C1745 C1750 1.350 . S
C1745 N1753 1.427 . S
C1746 H1737 0.930 . S
C1746 C1744 1.378 . S
C1746 C1747 1.367 . S
C1747 C1746 1.367 . S
C1747 C1749 1.433 . S
C1748 C1744 1.350 . S
C1748 C1745 1.463 . S
C1748 N1752 1.427 . S
C1749 H1739 0.929 . S
C1749 C1747 1.433 . S
C1749 N1752 1.384 . S
C1750 H1741 0.929 . S
C1750 C1742 1.378 . S
C1750 C1745 1.350 . S
C1751 H1738 0.929 . S
C1751 C1743 1.433 . S
C1751 N1753 1.384 . S
N1752 C1748 1.427 . S
N1752 C1749 1.384 . S
N1753 C1745 1.427 . S
N1753 C1751 1.384 . S
H1754 C1760 0.930 . S
H1755 C1764 0.930 . S
H1756 C1769 0.929 . S
H1757 C1767 0.929 . S
H1758 C1762 0.929 . S
H1759 C1768 0.929 . S
C1760 H1754 0.930 . S
C1760 C1761 1.367 . S
C1760 C1768 1.378 . S
C1761 C1760 1.367 . S
C1761 C1769 1.433 . S
C1762 H1758 0.929 . S
C1762 C1764 1.378 . S
C1762 C1766 1.350 . S
C1763 C1766 1.463 . S
C1763 C1768 1.350 . S
C1763 N1771 1.427 . S
C1764 H1755 0.930 . S
C1764 C1762 1.378 . S
C1764 C1765 1.367 . S
C1765 C1764 1.367 . S
C1765 C1767 1.433 . S
C1766 C1762 1.350 . S
C1766 C1763 1.463 . S
C1766 N1770 1.427 . S
C1767 H1757 0.929 . S
C1767 C1765 1.433 . S
C1767 N1770 1.384 . S
C1768 H1759 0.929 . S
C1768 C1760 1.378 . S
C1768 C1763 1.350 . S
C1769 H1756 0.929 . S
C1769 C1761 1.433 . S
C1769 N1771 1.384 . S
N1770 C1766 1.427 . S
N1770 C1767 1.384 . S
N1771 C1763 1.427 . S
N1771 C1769 1.384 . S
H1772 C1778 0.930 . S
H1773 C1782 0.930 . S
H1774 C1787 0.929 . S
H1775 C1785 0.929 . S
H1776 C1780 0.929 . S
H1777 C1786 0.929 . S
C1778 H1772 0.930 . S
C1778 C1779 1.367 . S
C1778 C1786 1.378 . S
C1779 C1778 1.367 . S
C1779 C1787 1.433 . S
C1780 H1776 0.929 . S
C1780 C1782 1.378 . S
C1780 C1784 1.350 . S
C1781 C1784 1.463 1_455 S
C1781 C1786 1.350 . S
C1781 N1789 1.427 . S
C1782 H1773 0.930 . S
C1782 C1780 1.378 . S
C1782 C1783 1.367 . S
C1783 C1782 1.367 . S
C1783 C1785 1.433 . S
C1784 C1780 1.350 . S
C1784 C1781 1.463 1_655 S
C1784 N1788 1.427 . S
C1785 H1775 0.929 . S
C1785 C1783 1.433 . S
C1785 N1788 1.384 . S
C1786 H1777 0.929 . S
C1786 C1778 1.378 . S
C1786 C1781 1.350 . S
C1787 H1774 0.929 . S
C1787 C1779 1.433 . S
C1787 N1789 1.384 . S
N1788 C1784 1.427 . S
N1788 C1785 1.384 . S
N1789 C1781 1.427 . S
N1789 C1787 1.384 . S
H1790 C1796 0.930 . S
H1791 C1800 0.930 . S
H1792 C1805 0.929 . S
H1793 C1803 0.929 . S
H1794 C1798 0.929 . S
H1795 C1804 0.929 . S
C1796 H1790 0.930 . S
C1796 C1797 1.367 . S
C1796 C1804 1.378 . S
C1797 C1796 1.367 . S
C1797 C1805 1.433 1_556 S
C1798 H1794 0.929 . S
C1798 C1800 1.378 . S
C1798 C1802 1.350 . S
C1799 C1802 1.463 . S
C1799 C1804 1.350 1_554 S
C1799 N1807 1.427 . S
C1800 H1791 0.930 . S
C1800 C1798 1.378 . S
C1800 C1801 1.367 . S
C1801 C1800 1.367 . S
C1801 C1803 1.433 . S
C1802 C1798 1.350 . S
C1802 C1799 1.463 . S
C1802 N1806 1.427 . S
C1803 H1793 0.929 . S
C1803 C1801 1.433 . S
C1803 N1806 1.384 . S
C1804 H1795 0.929 . S
C1804 C1796 1.378 . S
C1804 C1799 1.350 1_556 S
C1805 H1792 0.929 . S
C1805 C1797 1.433 1_554 S
C1805 N1807 1.384 . S
N1806 C1802 1.427 . S
N1806 C1803 1.384 . S
N1807 C1799 1.427 . S
N1807 C1805 1.384 . S
H1808 C1814 0.930 . S
H1809 C1818 0.930 . S
H1810 C1823 0.929 . S
H1811 C1821 0.929 . S
H1812 C1816 0.929 . S
H1813 C1822 0.929 . S
C1814 H1808 0.930 . S
C1814 C1815 1.367 . S
C1814 C1822 1.378 . S
C1815 C1814 1.367 . S
C1815 C1823 1.433 . S
C1816 H1812 0.929 . S
C1816 C1818 1.378 . S
C1816 C1820 1.350 . S
C1817 C1820 1.463 . S
C1817 C1822 1.350 . S
C1817 N1825 1.427 . S
C1818 H1809 0.930 . S
C1818 C1816 1.378 . S
C1818 C1819 1.367 . S
C1819 C1818 1.367 . S
C1819 C1821 1.433 . S
C1820 C1816 1.350 . S
C1820 C1817 1.463 . S
C1820 N1824 1.427 . S
C1821 H1811 0.929 . S
C1821 C1819 1.433 . S
C1821 N1824 1.384 . S
C1822 H1813 0.929 . S
C1822 C1814 1.378 . S
C1822 C1817 1.350 . S
C1823 H1810 0.929 . S
C1823 C1815 1.433 . S
C1823 N1825 1.384 . S
N1824 C1820 1.427 . S
N1824 C1821 1.384 . S
N1825 C1817 1.427 . S
N1825 C1823 1.384 . S
H1826 C1832 0.930 . S
H1827 C1836 0.930 . S
H1828 C1841 0.929 . S
H1829 C1839 0.929 . S
H1830 C1834 0.929 . S
H1831 C1840 0.929 . S
C1832 H1826 0.930 . S
C1832 C1833 1.367 . S
C1832 C1840 1.378 . S
C1833 C1832 1.367 . S
C1833 C1841 1.433 . S
C1834 H1830 0.929 . S
C1834 C1836 1.378 . S
C1834 C1838 1.350 . S
C1835 C1838 1.463 . S
C1835 C1840 1.350 . S
C1835 N1843 1.427 . S
C1836 H1827 0.930 . S
C1836 C1834 1.378 . S
C1836 C1837 1.367 . S
C1837 C1836 1.367 . S
C1837 C1839 1.433 . S
C1838 C1834 1.350 . S
C1838 C1835 1.463 . S
C1838 N1842 1.427 . S
C1839 H1829 0.929 . S
C1839 C1837 1.433 . S
C1839 N1842 1.384 . S
C1840 H1831 0.929 . S
C1840 C1832 1.378 . S
C1840 C1835 1.350 . S
C1841 H1828 0.929 . S
C1841 C1833 1.433 . S
C1841 N1843 1.384 . S
N1842 C1838 1.427 . S
N1842 C1839 1.384 . S
N1843 C1835 1.427 . S
N1843 C1841 1.384 . S
H1844 C1850 0.930 . S
H1845 C1854 0.930 . S
H1846 C1859 0.929 . S
H1847 C1857 0.929 . S
H1848 C1852 0.929 . S
H1849 C1858 0.929 . S
C1850 H1844 0.930 . S
C1850 C1851 1.367 . S
C1850 C1858 1.378 . S
C1851 C1850 1.367 . S
C1851 C1859 1.433 . S
C1852 H1848 0.929 . S
C1852 C1854 1.378 . S
C1852 C1856 1.350 . S
C1853 C1856 1.463 1_655 S
C1853 C1858 1.350 . S
C1853 N1861 1.427 . S
C1854 H1845 0.930 . S
C1854 C1852 1.378 . S
C1854 C1855 1.367 . S
C1855 C1854 1.367 . S
C1855 C1857 1.433 . S
C1856 C1852 1.350 . S
C1856 C1853 1.463 1_455 S
C1856 N1860 1.417 1_455 S
C1857 H1847 0.929 . S
C1857 C1855 1.433 . S
C1857 N1860 1.338 1_455 S
C1858 H1849 0.929 . S
C1858 C1850 1.378 . S
C1858 C1853 1.350 . S
C1859 H1846 0.929 . S
C1859 C1851 1.433 . S
C1859 N1861 1.384 . S
N1860 C1856 1.417 1_655 S
N1860 C1857 1.338 1_655 S
N1861 C1853 1.427 . S
N1861 C1859 1.384 . S
H1862 C1868 0.930 . S
H1863 C1872 0.930 1_554 S
H1864 C1877 0.929 . S
H1865 C1875 0.929 . S
H1866 C1870 0.929 . S
H1867 C1876 0.929 . S
C1868 H1862 0.930 . S
C1868 C1869 1.367 . S
C1868 C1876 1.378 . S
C1869 C1868 1.367 . S
C1869 C1877 1.433 . S
C1870 H1866 0.929 . S
C1870 C1872 1.378 1_554 S
C1870 C1874 1.350 . S
C1871 C1874 1.463 . S
C1871 C1876 1.350 . S
C1871 N1879 1.427 . S
C1872 H1863 0.930 1_556 S
C1872 C1870 1.378 1_556 S
C1872 C1873 1.367 . S
C1873 C1872 1.367 . S
C1873 C1875 1.433 . S
C1874 C1870 1.350 . S
C1874 C1871 1.463 . S
C1874 N1878 1.427 1_554 S
C1875 H1865 0.929 . S
C1875 C1873 1.433 . S
C1875 N1878 1.384 . S
C1876 H1867 0.929 . S
C1876 C1868 1.378 . S
C1876 C1871 1.350 . S
C1877 H1864 0.929 . S
C1877 C1869 1.433 . S
C1877 N1879 1.384 . S
N1878 C1874 1.427 1_556 S
N1878 C1875 1.384 . S
N1879 C1871 1.427 . S
N1879 C1877 1.384 . S
H1880 C1886 0.930 . S
H1881 C1890 0.930 . S
H1882 C1895 0.929 . S
H1883 C1893 0.929 . S
H1884 C1888 0.929 . S
H1885 C1894 0.929 . S
C1886 H1880 0.930 . S
C1886 C1887 1.367 . S
C1886 C1894 1.378 . S
C1887 C1886 1.367 . S
C1887 C1895 1.433 . S
C1888 H1884 0.929 . S
C1888 C1890 1.378 . S
C1888 C1892 1.350 . S
C1889 C1892 1.463 . S
C1889 C1894 1.350 . S
C1889 N1897 1.427 . S
C1890 H1881 0.930 . S
C1890 C1888 1.378 . S
C1890 C1891 1.367 . S
C1891 C1890 1.367 . S
C1891 C1893 1.433 . S
C1892 C1888 1.350 . S
C1892 C1889 1.463 . S
C1892 N1896 1.427 . S
C1893 H1883 0.929 . S
C1893 C1891 1.433 . S
C1893 N1896 1.384 . S
C1894 H1885 0.929 . S
C1894 C1886 1.378 . S
C1894 C1889 1.350 . S
C1895 H1882 0.929 . S
C1895 C1887 1.433 . S
C1895 N1897 1.384 . S
N1896 C1892 1.427 . S
N1896 C1893 1.384 . S
N1897 C1889 1.427 . S
N1897 C1895 1.384 . S
H1898 C1904 0.930 . S
H1899 C1908 0.930 . S
H1900 C1913 0.929 . S
H1901 C1911 0.929 . S
H1902 C1906 0.929 . S
H1903 C1912 0.929 . S
C1904 H1898 0.930 . S
C1904 C1905 1.367 . S
C1904 C1912 1.378 . S
C1905 C1904 1.367 . S
C1905 C1913 1.433 . S
C1906 H1902 0.929 . S
C1906 C1908 1.378 . S
C1906 C1910 1.350 . S
C1907 C1910 1.463 . S
C1907 C1912 1.350 . S
C1907 N1915 1.427 . S
C1908 H1899 0.930 . S
C1908 C1906 1.378 . S
C1908 C1909 1.367 . S
C1909 C1908 1.367 . S
C1909 C1911 1.433 . S
C1910 C1906 1.350 . S
C1910 C1907 1.463 . S
C1910 N1914 1.427 . S
C1911 H1901 0.929 . S
C1911 C1909 1.433 . S
C1911 N1914 1.384 . S
C1912 H1903 0.929 . S
C1912 C1904 1.378 . S
C1912 C1907 1.350 . S
C1913 H1900 0.929 . S
C1913 C1905 1.433 . S
C1913 N1915 1.384 . S
N1914 C1910 1.427 . S
N1914 C1911 1.384 . S
N1915 C1907 1.427 . S
N1915 C1913 1.384 . S
H1916 C1922 0.930 . S
H1917 C1926 0.930 . S
H1918 C1931 0.929 . S
H1919 C1929 0.929 . S
H1920 C1924 0.929 . S
H1921 C1930 0.929 . S
C1922 H1916 0.930 . S
C1922 C1923 1.367 . S
C1922 C1930 1.378 . S
C1923 C1922 1.367 . S
C1923 C1931 1.433 . S
C1924 H1920 0.929 . S
C1924 C1926 1.378 . S
C1924 C1928 1.350 . S
C1925 C1928 1.463 1_455 S
C1925 C1930 1.350 . S
C1925 N1933 1.427 . S
C1926 H1917 0.930 . S
C1926 C1924 1.378 . S
C1926 C1927 1.367 . S
C1927 C1926 1.367 . S
C1927 C1929 1.433 . S
C1928 C1924 1.350 . S
C1928 C1925 1.463 1_655 S
C1928 N1932 1.427 . S
C1929 H1919 0.929 . S
C1929 C1927 1.433 . S
C1929 N1932 1.384 . S
C1930 H1921 0.929 . S
C1930 C1922 1.378 . S
C1930 C1925 1.350 . S
C1931 H1918 0.929 . S
C1931 C1923 1.433 . S
C1931 N1933 1.384 . S
N1932 C1928 1.427 . S
N1932 C1929 1.384 . S
N1933 C1925 1.427 . S
N1933 C1931 1.384 . S
H1934 C1940 0.930 . S
H1935 C1944 0.930 . S
H1936 C1949 0.929 . S
H1937 C1947 0.929 . S
H1938 C1942 0.929 . S
H1939 C1948 0.929 . S
C1940 H1934 0.930 . S
C1940 C1941 1.367 . S
C1940 C1948 1.378 . S
C1941 C1940 1.367 . S
C1941 C1949 1.433 1_556 S
C1942 H1938 0.929 . S
C1942 C1944 1.378 . S
C1942 C1946 1.350 . S
C1943 C1946 1.463 . S
C1943 C1948 1.350 1_554 S
C1943 N1951 1.427 . S
C1944 H1935 0.930 . S
C1944 C1942 1.378 . S
C1944 C1945 1.367 . S
C1945 C1944 1.367 . S
C1945 C1947 1.433 . S
C1946 C1942 1.350 . S
C1946 C1943 1.463 . S
C1946 N1950 1.427 . S
C1947 H1937 0.929 . S
C1947 C1945 1.433 . S
C1947 N1950 1.384 . S
C1948 H1939 0.929 . S
C1948 C1940 1.378 . S
C1948 C1943 1.350 1_556 S
C1949 H1936 0.929 . S
C1949 C1941 1.433 1_554 S
C1949 N1951 1.384 . S
N1950 C1946 1.427 . S
N1950 C1947 1.384 . S
N1951 C1943 1.427 . S
N1951 C1949 1.384 . S
H1952 C1958 0.930 . S
H1953 C1962 0.930 . S
H1954 C1967 0.929 . S
H1955 C1965 0.929 . S
H1956 C1960 0.929 . S
H1957 C1966 0.929 . S
C1958 H1952 0.930 . S
C1958 C1959 1.367 . S
C1958 C1966 1.378 . S
C1959 C1958 1.367 . S
C1959 C1967 1.433 . S
C1960 H1956 0.929 . S
C1960 C1962 1.378 . S
C1960 C1964 1.350 . S
C1961 C1964 1.463 1_545 S
C1961 C1966 1.350 . S
C1961 N1969 1.427 . S
C1962 H1953 0.930 . S
C1962 C1960 1.378 . S
C1962 C1963 1.367 . S
C1963 C1962 1.367 . S
C1963 C1965 1.433 . S
C1964 C1960 1.350 . S
C1964 C1961 1.463 1_565 S
C1964 N1968 1.427 . S
C1965 H1955 0.929 . S
C1965 C1963 1.433 . S
C1965 N1968 1.384 . S
C1966 H1957 0.929 . S
C1966 C1958 1.378 . S
C1966 C1961 1.350 . S
C1967 H1954 0.929 . S
C1967 C1959 1.433 . S
C1967 N1969 1.384 . S
N1968 C1964 1.427 . S
N1968 C1965 1.384 . S
N1969 C1961 1.427 . S
N1969 C1967 1.384 . S
H1970 C1976 0.930 . S
H1971 C1980 0.930 . S
H1972 C1985 0.929 . S
H1973 C1983 0.929 . S
H1974 C1978 0.929 . S
H1975 C1984 0.929 . S
C1976 H1970 0.930 . S
C1976 C1977 1.367 . S
C1976 C1984 1.378 . S
C1977 C1976 1.367 . S
C1977 C1985 1.433 . S
C1978 H1974 0.929 . S
C1978 C1980 1.378 . S
C1978 C1982 1.350 . S
C1979 C1982 1.463 . S
C1979 C1984 1.350 . S
C1979 N1987 1.427 . S
C1980 H1971 0.930 . S
C1980 C1978 1.378 . S
C1980 C1981 1.367 . S
C1981 C1980 1.367 . S
C1981 C1983 1.433 . S
C1982 C1978 1.350 . S
C1982 C1979 1.463 . S
C1982 N1986 1.427 . S
C1983 H1973 0.929 . S
C1983 C1981 1.433 . S
C1983 N1986 1.384 . S
C1984 H1975 0.929 . S
C1984 C1976 1.378 . S
C1984 C1979 1.350 . S
C1985 H1972 0.929 . S
C1985 C1977 1.433 . S
C1985 N1987 1.384 . S
N1986 C1982 1.427 . S
N1986 C1983 1.384 . S
N1987 C1979 1.427 . S
N1987 C1985 1.384 . S
H1988 C1994 0.930 . S
H1989 C1998 0.930 . S
H1990 C2003 0.929 . S
H1991 C2001 0.929 . S
H1992 C1996 0.929 1_545 S
H1993 C2002 0.929 1_565 S
C1994 H1988 0.930 . S
C1994 C1995 1.367 . S
C1994 C2002 1.378 . S
C1995 C1994 1.367 . S
C1995 C2003 1.433 . S
C1996 H1992 0.929 1_565 S
C1996 C1998 1.378 . S
C1996 C2000 1.350 . S
C1997 C2000 1.463 1_545 S
C1997 C2002 1.350 . S
C1997 N2005 1.427 . S
C1998 H1989 0.930 . S
C1998 C1996 1.378 . S
C1998 C1999 1.367 . S
C1999 C1998 1.367 . S
C1999 C2001 1.433 . S
C2000 C1996 1.350 . S
C2000 C1997 1.463 1_565 S
C2000 N2004 1.427 . S
C2001 H1991 0.929 . S
C2001 C1999 1.433 . S
C2001 N2004 1.384 . S
C2002 H1993 0.929 1_545 S
C2002 C1994 1.378 . S
C2002 C1997 1.350 . S
C2003 H1990 0.929 . S
C2003 C1995 1.433 . S
C2003 N2005 1.384 . S
N2004 C2000 1.427 . S
N2004 C2001 1.384 . S
N2005 C1997 1.427 . S
N2005 C2003 1.384 . S
H2006 C2012 0.930 . S
H2007 C2016 0.930 . S
H2008 C2021 0.929 . S
H2009 C2019 0.929 . S
H2010 C2014 0.929 . S
H2011 C2020 0.929 . S
C2012 H2006 0.930 . S
C2012 C2013 1.367 . S
C2012 C2020 1.378 . S
C2013 C2012 1.367 . S
C2013 C2021 1.433 1_556 S
C2014 H2010 0.929 . S
C2014 C2016 1.378 . S
C2014 C2018 1.350 . S
C2015 C2018 1.463 . S
C2015 C2020 1.350 1_554 S
C2015 N2023 1.427 . S
C2016 H2007 0.930 . S
C2016 C2014 1.378 . S
C2016 C2017 1.367 . S
C2017 C2016 1.367 . S
C2017 C2019 1.433 . S
C2018 C2014 1.350 . S
C2018 C2015 1.463 . S
C2018 N2022 1.427 . S
C2019 H2009 0.929 . S
C2019 C2017 1.433 . S
C2019 N2022 1.384 . S
C2020 H2011 0.929 . S
C2020 C2012 1.378 . S
C2020 C2015 1.350 1_556 S
C2021 H2008 0.929 . S
C2021 C2013 1.433 1_554 S
C2021 N2023 1.384 . S
N2022 C2018 1.427 . S
N2022 C2019 1.384 . S
N2023 C2015 1.427 . S
N2023 C2021 1.384 . S
H2024 C2030 0.930 . S
H2025 C2034 0.930 . S
H2026 C2039 0.929 . S
H2027 C2037 0.929 . S
H2028 C2032 0.929 1_565 S
H2029 C2038 0.929 1_545 S
C2030 H2024 0.930 . S
C2030 C2031 1.367 . S
C2030 C2038 1.378 . S
C2031 C2030 1.367 . S
C2031 C2039 1.433 . S
C2032 H2028 0.929 1_545 S
C2032 C2034 1.378 . S
C2032 C2036 1.350 . S
C2033 C2036 1.463 1_565 S
C2033 C2038 1.350 . S
C2033 N2041 1.427 . S
C2034 H2025 0.930 . S
C2034 C2032 1.378 . S
C2034 C2035 1.367 . S
C2035 C2034 1.367 . S
C2035 C2037 1.433 . S
C2036 C2032 1.350 . S
C2036 C2033 1.463 1_545 S
C2036 N2040 1.427 . S
C2037 H2027 0.929 . S
C2037 C2035 1.433 . S
C2037 N2040 1.384 . S
C2038 H2029 0.929 1_565 S
C2038 C2030 1.378 . S
C2038 C2033 1.350 . S
C2039 H2026 0.929 . S
C2039 C2031 1.433 . S
C2039 N2041 1.384 . S
N2040 C2036 1.427 . S
N2040 C2037 1.384 . S
N2041 C2033 1.427 . S
N2041 C2039 1.384 . S
H2042 C2048 0.930 . S
H2043 C2052 0.930 . S
H2044 C2057 0.929 . S
H2045 C2055 0.929 . S
H2046 C2050 0.929 . S
H2047 C2056 0.929 . S
C2048 H2042 0.930 . S
C2048 C2049 1.367 . S
C2048 C2056 1.378 . S
C2049 C2048 1.367 . S
C2049 C2057 1.433 . S
C2050 H2046 0.929 . S
C2050 C2052 1.378 . S
C2050 C2054 1.350 . S
C2051 C2054 1.463 . S
C2051 C2056 1.350 . S
C2051 N2059 1.427 . S
C2052 H2043 0.930 . S
C2052 C2050 1.378 . S
C2052 C2053 1.367 . S
C2053 C2052 1.367 . S
C2053 C2055 1.433 . S
C2054 C2050 1.350 . S
C2054 C2051 1.463 . S
C2054 N2058 1.427 . S
C2055 H2045 0.929 . S
C2055 C2053 1.433 . S
C2055 N2058 1.384 . S
C2056 H2047 0.929 . S
C2056 C2048 1.378 . S
C2056 C2051 1.350 . S
C2057 H2044 0.929 . S
C2057 C2049 1.433 . S
C2057 N2059 1.384 . S
N2058 C2054 1.427 . S
N2058 C2055 1.384 . S
N2059 C2051 1.427 . S
N2059 C2057 1.384 . S
H2060 C2066 0.930 . S
H2061 C2070 0.930 . S
H2062 C2075 0.929 . S
H2063 C2073 0.929 . S
H2064 C2068 0.929 . S
H2065 C2074 0.929 . S
C2066 H2060 0.930 . S
C2066 C2067 1.367 . S
C2066 C2074 1.378 . S
C2067 C2066 1.367 . S
C2067 C2075 1.433 . S
C2068 H2064 0.929 . S
C2068 C2070 1.378 . S
C2068 C2072 1.350 . S
C2069 C2072 1.463 1_565 S
C2069 C2074 1.350 . S
C2069 N2077 1.427 . S
C2070 H2061 0.930 . S
C2070 C2068 1.378 . S
C2070 C2071 1.367 . S
C2071 C2070 1.367 . S
C2071 C2073 1.433 . S
C2072 C2068 1.350 . S
C2072 C2069 1.463 1_545 S
C2072 N2076 1.427 . S
C2073 H2063 0.929 . S
C2073 C2071 1.433 . S
C2073 N2076 1.384 . S
C2074 H2065 0.929 . S
C2074 C2066 1.378 . S
C2074 C2069 1.350 . S
C2075 H2062 0.929 . S
C2075 C2067 1.433 . S
C2075 N2077 1.384 . S
N2076 C2072 1.427 . S
N2076 C2073 1.384 . S
N2077 C2069 1.427 . S
N2077 C2075 1.384 . S
H2078 C2084 0.930 . S
H2079 C2088 0.930 . S
H2080 C2093 0.929 . S
H2081 C2091 0.929 . S
H2082 C2086 0.929 . S
H2083 C2092 0.929 . S
C2084 H2078 0.930 . S
C2084 C2085 1.367 . S
C2084 C2092 1.378 . S
C2085 C2084 1.367 . S
C2085 C2093 1.433 . S
C2086 H2082 0.929 . S
C2086 C2088 1.378 1_554 S
C2086 C2090 1.350 . S
C2087 C2090 1.463 . S
C2087 C2092 1.350 . S
C2087 N2095 1.427 . S
C2088 H2079 0.930 . S
C2088 C2086 1.378 1_556 S
C2088 C2089 1.367 . S
C2089 C2088 1.367 . S
C2089 C2091 1.433 . S
C2090 C2086 1.350 . S
C2090 C2087 1.463 . S
C2090 N2094 1.427 1_554 S
C2091 H2081 0.929 . S
C2091 C2089 1.433 . S
C2091 N2094 1.384 . S
C2092 H2083 0.929 . S
C2092 C2084 1.378 . S
C2092 C2087 1.350 . S
C2093 H2080 0.929 . S
C2093 C2085 1.433 . S
C2093 N2095 1.384 . S
N2094 C2090 1.427 1_556 S
N2094 C2091 1.384 . S
N2095 C2087 1.427 . S
N2095 C2093 1.384 . S
H2096 C2102 0.930 . S
H2097 C2106 0.930 . S
H2098 C2111 0.929 . S
H2099 C2109 0.929 . S
H2100 C2104 0.929 . S
H2101 C2110 0.929 . S
C2102 H2096 0.930 . S
C2102 C2103 1.367 . S
C2102 C2110 1.378 . S
C2103 C2102 1.367 . S
C2103 C2111 1.433 . S
C2104 H2100 0.929 . S
C2104 C2106 1.378 . S
C2104 C2108 1.350 . S
C2105 C2108 1.463 . S
C2105 C2110 1.350 . S
C2105 N2113 1.427 . S
C2106 H2097 0.930 . S
C2106 C2104 1.378 . S
C2106 C2107 1.367 . S
C2107 C2106 1.367 . S
C2107 C2109 1.433 . S
C2108 C2104 1.350 . S
C2108 C2105 1.463 . S
C2108 N2112 1.427 . S
C2109 H2099 0.929 . S
C2109 C2107 1.433 . S
C2109 N2112 1.384 . S
C2110 H2101 0.929 . S
C2110 C2102 1.378 . S
C2110 C2105 1.350 . S
C2111 H2098 0.929 . S
C2111 C2103 1.433 . S
C2111 N2113 1.384 . S
N2112 C2108 1.427 . S
N2112 C2109 1.384 . S
N2113 C2105 1.427 . S
N2113 C2111 1.384 . S
H2114 C2120 0.930 . S
H2115 C2124 0.930 . S
H2116 C2129 0.929 . S
H2117 C2127 0.929 . S
H2118 C2122 0.929 . S
H2119 C2128 0.929 . S
C2120 H2114 0.930 . S
C2120 C2121 1.367 . S
C2120 C2128 1.378 1_556 S
C2121 C2120 1.367 . S
C2121 C2129 1.433 . S
C2122 H2118 0.929 . S
C2122 C2124 1.378 . S
C2122 C2126 1.350 . S
C2123 C2126 1.463 . S
C2123 C2128 1.350 . S
C2123 N2131 1.427 1_554 S
C2124 H2115 0.930 . S
C2124 C2122 1.378 . S
C2124 C2125 1.367 . S
C2125 C2124 1.367 . S
C2125 C2127 1.433 . S
C2126 C2122 1.350 . S
C2126 C2123 1.463 . S
C2126 N2130 1.427 . S
C2127 H2117 0.929 . S
C2127 C2125 1.433 . S
C2127 N2130 1.384 . S
C2128 H2119 0.929 . S
C2128 C2120 1.378 1_554 S
C2128 C2123 1.350 . S
C2129 H2116 0.929 . S
C2129 C2121 1.433 . S
C2129 N2131 1.384 . S
N2130 C2126 1.427 . S
N2130 C2127 1.384 . S
N2131 C2123 1.427 1_556 S
N2131 C2129 1.384 . S
H2132 C2138 0.930 . S
H2133 C2142 0.930 . S
H2134 C2147 0.929 . S
H2135 C2145 0.929 . S
H2136 C2140 0.929 . S
H2137 C2146 0.929 . S
C2138 H2132 0.930 . S
C2138 C2139 1.367 . S
C2138 C2146 1.378 . S
C2139 C2138 1.367 . S
C2139 C2147 1.433 . S
C2140 H2136 0.929 . S
C2140 C2142 1.378 . S
C2140 C2144 1.350 . S
C2141 C2144 1.463 . S
C2141 C2146 1.350 . S
C2141 N2149 1.427 . S
C2142 H2133 0.930 . S
C2142 C2140 1.378 . S
C2142 C2143 1.367 . S
C2143 C2142 1.367 . S
C2143 C2145 1.433 . S
C2144 C2140 1.350 . S
C2144 C2141 1.463 . S
C2144 N2148 1.427 . S
C2145 H2135 0.929 . S
C2145 C2143 1.433 . S
C2145 N2148 1.384 . S
C2146 H2137 0.929 . S
C2146 C2138 1.378 . S
C2146 C2141 1.350 . S
C2147 H2134 0.929 . S
C2147 C2139 1.433 . S
C2147 N2149 1.384 . S
N2148 C2144 1.427 . S
N2148 C2145 1.384 . S
N2149 C2141 1.427 . S
N2149 C2147 1.384 . S
H2150 C2156 0.930 . S
H2151 C2160 0.930 . S
H2152 C2165 0.929 . S
H2153 C2163 0.929 . S
H2154 C2158 0.929 . S
H2155 C2164 0.929 . S
C2156 H2150 0.930 . S
C2156 C2157 1.367 . S
C2156 C2164 1.378 . S
C2157 C2156 1.367 . S
C2157 C2165 1.433 . S
C2158 H2154 0.929 . S
C2158 C2160 1.378 . S
C2158 C2162 1.350 . S
C2159 C2162 1.463 . S
C2159 C2164 1.350 . S
C2159 N2167 1.427 . S
C2160 H2151 0.930 . S
C2160 C2158 1.378 . S
C2160 C2161 1.367 . S
C2161 C2160 1.367 . S
C2161 C2163 1.433 . S
C2162 C2158 1.350 . S
C2162 C2159 1.463 . S
C2162 N2166 1.427 . S
C2163 H2153 0.929 . S
C2163 C2161 1.433 . S
C2163 N2166 1.384 . S
C2164 H2155 0.929 . S
C2164 C2156 1.378 . S
C2164 C2159 1.350 . S
C2165 H2152 0.929 . S
C2165 C2157 1.433 . S
C2165 N2167 1.384 . S
N2166 C2162 1.427 . S
N2166 C2163 1.384 . S
N2167 C2159 1.427 . S
N2167 C2165 1.384 . S
H2168 C2174 0.930 . S
H2169 C2178 0.930 . S
H2170 C2183 0.929 . S
H2171 C2181 0.929 . S
H2172 C2176 0.929 . S
H2173 C2182 0.929 . S
C2174 H2168 0.930 . S
C2174 C2175 1.367 . S
C2174 C2182 1.378 . S
C2175 C2174 1.367 . S
C2175 C2183 1.433 . S
C2176 H2172 0.929 . S
C2176 C2178 1.378 . S
C2176 C2180 1.350 . S
C2177 C2180 1.463 . S
C2177 C2182 1.350 . S
C2177 N2185 1.427 . S
C2178 H2169 0.930 . S
C2178 C2176 1.378 . S
C2178 C2179 1.367 . S
C2179 C2178 1.367 . S
C2179 C2181 1.433 . S
C2180 C2176 1.350 . S
C2180 C2177 1.463 . S
C2180 N2184 1.427 . S
C2181 H2171 0.929 . S
C2181 C2179 1.433 . S
C2181 N2184 1.384 . S
C2182 H2173 0.929 . S
C2182 C2174 1.378 . S
C2182 C2177 1.350 . S
C2183 H2170 0.929 . S
C2183 C2175 1.433 . S
C2183 N2185 1.384 . S
N2184 C2180 1.427 . S
N2184 C2181 1.384 . S
N2185 C2177 1.427 . S
N2185 C2183 1.384 . S
H2186 C2192 0.930 . S
H2187 C2196 0.932 . S
H2188 C2201 0.929 . S
H2189 C2199 0.929 . S
H2190 C2194 0.929 . S
H2191 C2200 0.929 . S
C2192 H2186 0.930 . S
C2192 C2193 1.367 . S
C2192 C2200 1.378 . S
C2193 C2192 1.367 . S
C2193 C2201 1.433 . S
C2194 H2190 0.929 . S
C2194 C2196 1.378 1_554 S
C2194 C2198 1.350 . S
C2195 C2198 1.463 . S
C2195 C2200 1.350 . S
C2195 N2203 1.427 . S
C2196 H2187 0.932 . S
C2196 C2194 1.378 1_556 S
C2196 C2197 1.367 . S
C2197 C2196 1.367 . S
C2197 C2199 1.433 . S
C2198 C2194 1.350 . S
C2198 C2195 1.463 . S
C2198 N2202 1.427 1_554 S
C2199 H2189 0.929 . S
C2199 C2197 1.433 . S
C2199 N2202 1.384 . S
C2200 H2191 0.929 . S
C2200 C2192 1.378 . S
C2200 C2195 1.350 . S
C2201 H2188 0.929 . S
C2201 C2193 1.433 . S
C2201 N2203 1.384 . S
N2202 C2198 1.427 1_556 S
N2202 C2199 1.384 . S
N2203 C2195 1.427 . S
N2203 C2201 1.384 . S
H2204 C2210 0.930 . S
H2205 C2214 0.930 . S
H2206 C2219 0.929 . S
H2207 C2217 0.929 . S
H2208 C2212 0.929 . S
H2209 C2218 0.929 . S
C2210 H2204 0.930 . S
C2210 C2211 1.367 . S
C2210 C2218 1.378 . S
C2211 C2210 1.367 . S
C2211 C2219 1.433 . S
C2212 H2208 0.929 . S
C2212 C2214 1.378 . S
C2212 C2216 1.350 . S
C2213 C2216 1.463 . S
C2213 C2218 1.350 . S
C2213 N2221 1.427 . S
C2214 H2205 0.930 . S
C2214 C2212 1.378 . S
C2214 C2215 1.367 . S
C2215 C2214 1.367 . S
C2215 C2217 1.433 . S
C2216 C2212 1.350 . S
C2216 C2213 1.463 . S
C2216 N2220 1.427 . S
C2217 H2207 0.929 . S
C2217 C2215 1.433 . S
C2217 N2220 1.384 . S
C2218 H2209 0.929 . S
C2218 C2210 1.378 . S
C2218 C2213 1.350 . S
C2219 H2206 0.929 . S
C2219 C2211 1.433 . S
C2219 N2221 1.384 . S
N2220 C2216 1.427 . S
N2220 C2217 1.384 . S
N2221 C2213 1.427 . S
N2221 C2219 1.384 . S
H2222 C2228 0.930 . S
H2223 C2232 0.930 . S
H2224 C2237 0.929 . S
H2225 C2235 0.929 . S
H2226 C2230 0.929 . S
H2227 C2236 0.929 . S
C2228 H2222 0.930 . S
C2228 C2229 1.367 . S
C2228 C2236 1.378 . S
C2229 C2228 1.367 . S
C2229 C2237 1.433 . S
C2230 H2226 0.929 . S
C2230 C2232 1.378 . S
C2230 C2234 1.350 . S
C2231 C2234 1.463 . S
C2231 C2236 1.350 . S
C2231 N2239 1.427 . S
C2232 H2223 0.930 . S
C2232 C2230 1.378 . S
C2232 C2233 1.367 . S
C2233 C2232 1.367 . S
C2233 C2235 1.433 . S
C2234 C2230 1.350 . S
C2234 C2231 1.463 . S
C2234 N2238 1.427 . S
C2235 H2225 0.929 . S
C2235 C2233 1.433 . S
C2235 N2238 1.384 . S
C2236 H2227 0.929 . S
C2236 C2228 1.378 . S
C2236 C2231 1.350 . S
C2237 H2224 0.929 . S
C2237 C2229 1.433 . S
C2237 N2239 1.384 . S
N2238 C2234 1.427 . S
N2238 C2235 1.384 . S
N2239 C2231 1.427 . S
N2239 C2237 1.384 . S
H2240 C2246 0.930 . S
H2241 C2250 0.930 . S
H2242 C2255 0.929 . S
H2243 C2253 0.929 . S
H2244 C2248 0.929 . S
H2245 C2254 0.929 . S
C2246 H2240 0.930 . S
C2246 C2247 1.367 . S
C2246 C2254 1.378 . S
C2247 C2246 1.367 . S
C2247 C2255 1.433 . S
C2248 H2244 0.929 . S
C2248 C2250 1.378 . S
C2248 C2252 1.350 . S
C2249 C2252 1.463 . S
C2249 C2254 1.350 . S
C2249 N2257 1.427 . S
C2250 H2241 0.930 . S
C2250 C2248 1.378 . S
C2250 C2251 1.367 . S
C2251 C2250 1.367 . S
C2251 C2253 1.433 . S
C2252 C2248 1.350 . S
C2252 C2249 1.463 . S
C2252 N2256 1.427 . S
C2253 H2243 0.929 . S
C2253 C2251 1.433 . S
C2253 N2256 1.384 . S
C2254 H2245 0.929 . S
C2254 C2246 1.378 . S
C2254 C2249 1.350 . S
C2255 H2242 0.929 . S
C2255 C2247 1.433 . S
C2255 N2257 1.384 . S
N2256 C2252 1.427 . S
N2256 C2253 1.384 . S
N2257 C2249 1.427 . S
N2257 C2255 1.384 . S
H2258 C2264 0.930 . S
H2259 C2268 0.930 . S
H2260 C2273 0.929 . S
H2261 C2271 0.929 . S
H2262 C2266 0.929 . S
H2263 C2272 0.929 . S
C2264 H2258 0.930 . S
C2264 C2265 1.367 . S
C2264 C2272 1.378 . S
C2265 C2264 1.367 . S
C2265 C2273 1.433 . S
C2266 H2262 0.929 . S
C2266 C2268 1.378 . S
C2266 C2270 1.350 . S
C2267 C2270 1.463 . S
C2267 C2272 1.350 . S
C2267 N2275 1.427 . S
C2268 H2259 0.930 . S
C2268 C2266 1.378 . S
C2268 C2269 1.367 . S
C2269 C2268 1.367 . S
C2269 C2271 1.433 . S
C2270 C2266 1.350 . S
C2270 C2267 1.463 . S
C2270 N2274 1.427 . S
C2271 H2261 0.929 . S
C2271 C2269 1.433 . S
C2271 N2274 1.384 . S
C2272 H2263 0.929 . S
C2272 C2264 1.378 . S
C2272 C2267 1.350 . S
C2273 H2260 0.929 . S
C2273 C2265 1.433 . S
C2273 N2275 1.384 . S
N2274 C2270 1.427 . S
N2274 C2271 1.384 . S
N2275 C2267 1.427 . S
N2275 C2273 1.384 . S
H2276 C2282 0.930 . S
H2277 C2286 0.930 . S
H2278 C2291 0.929 . S
H2279 C2289 0.929 . S
H2280 C2284 0.929 . S
H2281 C2290 0.929 . S
C2282 H2276 0.930 . S
C2282 C2283 1.367 . S
C2282 C2290 1.378 . S
C2283 C2282 1.367 . S
C2283 C2291 1.433 . S
C2284 H2280 0.929 . S
C2284 C2286 1.378 . S
C2284 C2288 1.350 . S
C2285 C2288 1.463 . S
C2285 C2290 1.350 . S
C2285 N2293 1.427 . S
C2286 H2277 0.930 . S
C2286 C2284 1.378 . S
C2286 C2287 1.367 . S
C2287 C2286 1.367 . S
C2287 C2289 1.433 . S
C2288 C2284 1.350 . S
C2288 C2285 1.463 . S
C2288 N2292 1.427 . S
C2289 H2279 0.929 . S
C2289 C2287 1.433 . S
C2289 N2292 1.384 . S
C2290 H2281 0.929 . S
C2290 C2282 1.378 . S
C2290 C2285 1.350 . S
C2291 H2278 0.929 . S
C2291 C2283 1.433 . S
C2291 N2293 1.384 . S
N2292 C2288 1.427 . S
N2292 C2289 1.384 . S
N2293 C2285 1.427 . S
N2293 C2291 1.384 . S
H2294 C2300 0.930 . S
H2295 C2304 0.930 . S
H2296 C2309 0.929 1_554 S
H2297 C2307 0.929 . S
H2298 C2302 0.929 . S
H2299 C2308 0.929 . S
C2300 H2294 0.930 . S
C2300 C2301 1.367 1_556 S
C2300 C2308 1.378 . S
C2301 C2300 1.367 1_554 S
C2301 C2309 1.433 1_554 S
C2302 H2298 0.929 . S
C2302 C2304 1.378 . S
C2302 C2306 1.350 . S
C2303 C2306 1.463 . S
C2303 C2308 1.350 . S
C2303 N2311 1.427 . S
C2304 H2295 0.930 . S
C2304 C2302 1.378 . S
C2304 C2305 1.367 . S
C2305 C2304 1.367 . S
C2305 C2307 1.433 . S
C2306 C2302 1.350 . S
C2306 C2303 1.463 . S
C2306 N2310 1.427 . S
C2307 H2297 0.929 . S
C2307 C2305 1.433 . S
C2307 N2310 1.384 . S
C2308 H2299 0.929 . S
C2308 C2300 1.378 . S
C2308 C2303 1.350 . S
C2309 H2296 0.929 1_556 S
C2309 C2301 1.433 1_556 S
C2309 N2311 1.384 . S
N2310 C2306 1.427 . S
N2310 C2307 1.384 . S
N2311 C2303 1.427 . S
N2311 C2309 1.384 . S
H2312 C2318 0.930 . S
H2313 C2322 0.930 . S
H2314 C2327 0.929 . S
H2315 C2325 0.929 . S
H2316 C2320 0.929 . S
H2317 C2326 0.929 1_554 S
C2318 H2312 0.930 . S
C2318 C2319 1.367 . S
C2318 C2326 1.378 1_554 S
C2319 C2318 1.367 . S
C2319 C2327 1.433 1_554 S
C2320 H2316 0.929 . S
C2320 C2322 1.378 . S
C2320 C2324 1.350 . S
C2321 C2324 1.463 . S
C2321 C2326 1.350 . S
C2321 N2329 1.427 . S
C2322 H2313 0.930 . S
C2322 C2320 1.378 . S
C2322 C2323 1.367 . S
C2323 C2322 1.367 . S
C2323 C2325 1.433 . S
C2324 C2320 1.350 . S
C2324 C2321 1.463 . S
C2324 N2328 1.427 . S
C2325 H2315 0.929 . S
C2325 C2323 1.433 . S
C2325 N2328 1.384 . S
C2326 H2317 0.929 1_556 S
C2326 C2318 1.378 1_556 S
C2326 C2321 1.350 . S
C2327 H2314 0.929 . S
C2327 C2319 1.433 1_556 S
C2327 N2329 1.384 . S
N2328 C2324 1.427 . S
N2328 C2325 1.384 . S
N2329 C2321 1.427 . S
N2329 C2327 1.384 . S
H2330 C2336 0.930 . S
H2331 C2340 0.930 . S
H2332 C2345 0.929 . S
H2333 C2343 0.929 . S
H2334 C2338 0.929 . S
H2335 C2344 0.929 . S
C2336 H2330 0.930 . S
C2336 C2337 1.367 . S
C2336 C2344 1.378 . S
C2337 C2336 1.367 . S
C2337 C2345 1.433 . S
C2338 H2334 0.929 . S
C2338 C2340 1.378 . S
C2338 C2342 1.350 . S
C2339 C2342 1.463 . S
C2339 C2344 1.350 . S
C2339 N2347 1.427 . S
C2340 H2331 0.930 . S
C2340 C2338 1.378 . S
C2340 C2341 1.367 . S
C2341 C2340 1.367 . S
C2341 C2343 1.433 . S
C2342 C2338 1.350 . S
C2342 C2339 1.463 . S
C2342 N2346 1.427 . S
C2343 H2333 0.929 . S
C2343 C2341 1.433 . S
C2343 N2346 1.384 . S
C2344 H2335 0.929 . S
C2344 C2336 1.378 . S
C2344 C2339 1.350 . S
C2345 H2332 0.929 . S
C2345 C2337 1.433 . S
C2345 N2347 1.384 . S
N2346 C2342 1.427 . S
N2346 C2343 1.384 . S
N2347 C2339 1.427 . S
N2347 C2345 1.384 . S
H2348 C2354 0.930 . S
H2349 C2358 0.930 . S
H2350 C2363 0.929 . S
H2351 C2361 0.929 . S
H2352 C2356 0.929 . S
H2353 C2362 0.929 . S
C2354 H2348 0.930 . S
C2354 C2355 1.367 . S
C2354 C2362 1.378 . S
C2355 C2354 1.367 . S
C2355 C2363 1.433 . S
C2356 H2352 0.929 . S
C2356 C2358 1.378 . S
C2356 C2360 1.350 . S
C2357 C2360 1.463 . S
C2357 C2362 1.350 . S
C2357 N2365 1.427 . S
C2358 H2349 0.930 . S
C2358 C2356 1.378 . S
C2358 C2359 1.367 . S
C2359 C2358 1.367 . S
C2359 C2361 1.433 . S
C2360 C2356 1.350 . S
C2360 C2357 1.463 . S
C2360 N2364 1.427 . S
C2361 H2351 0.929 . S
C2361 C2359 1.433 . S
C2361 N2364 1.384 . S
C2362 H2353 0.929 . S
C2362 C2354 1.378 . S
C2362 C2357 1.350 . S
C2363 H2350 0.929 . S
C2363 C2355 1.433 . S
C2363 N2365 1.384 . S
N2364 C2360 1.427 . S
N2364 C2361 1.384 . S
N2365 C2357 1.427 . S
N2365 C2363 1.384 . S
H2366 C2372 0.930 . S
H2367 C2376 0.930 . S
H2368 C2381 0.929 . S
H2369 C2379 0.929 . S
H2370 C2374 0.929 . S
H2371 C2380 0.929 . S
C2372 H2366 0.930 . S
C2372 C2373 1.367 . S
C2372 C2380 1.378 . S
C2373 C2372 1.367 . S
C2373 C2381 1.433 . S
C2374 H2370 0.929 . S
C2374 C2376 1.378 . S
C2374 C2378 1.350 . S
C2375 C2378 1.463 . S
C2375 C2380 1.350 . S
C2375 N2383 1.427 . S
C2376 H2367 0.930 . S
C2376 C2374 1.378 . S
C2376 C2377 1.367 . S
C2377 C2376 1.367 . S
C2377 C2379 1.433 . S
C2378 C2374 1.350 . S
C2378 C2375 1.463 . S
C2378 N2382 1.427 . S
C2379 H2369 0.929 . S
C2379 C2377 1.433 . S
C2379 N2382 1.384 . S
C2380 H2371 0.929 . S
C2380 C2372 1.378 . S
C2380 C2375 1.350 . S
C2381 H2368 0.929 . S
C2381 C2373 1.433 . S
C2381 N2383 1.384 . S
N2382 C2378 1.427 . S
N2382 C2379 1.384 . S
N2383 C2375 1.427 . S
N2383 C2381 1.384 . S
H2384 C2390 0.930 . S
H2385 C2394 0.930 . S
H2386 C2399 0.929 . S
H2387 C2397 0.929 . S
H2388 C2392 0.929 . S
H2389 C2398 0.929 . S
C2390 H2384 0.930 . S
C2390 C2391 1.367 . S
C2390 C2398 1.378 . S
C2391 C2390 1.367 . S
C2391 C2399 1.433 . S
C2392 H2388 0.929 . S
C2392 C2394 1.378 . S
C2392 C2396 1.350 . S
C2393 C2396 1.463 . S
C2393 C2398 1.350 . S
C2393 N2401 1.427 . S
C2394 H2385 0.930 . S
C2394 C2392 1.378 . S
C2394 C2395 1.367 . S
C2395 C2394 1.367 . S
C2395 C2397 1.433 . S
C2396 C2392 1.350 . S
C2396 C2393 1.463 . S
C2396 N2400 1.427 . S
C2397 H2387 0.929 . S
C2397 C2395 1.433 . S
C2397 N2400 1.384 . S
C2398 H2389 0.929 . S
C2398 C2390 1.378 . S
C2398 C2393 1.350 . S
C2399 H2386 0.929 . S
C2399 C2391 1.433 . S
C2399 N2401 1.384 . S
N2400 C2396 1.427 . S
N2400 C2397 1.384 . S
N2401 C2393 1.427 . S
N2401 C2399 1.384 . S
H2402 C2408 0.930 . S
H2403 C2412 0.930 . S
H2404 C2417 0.929 . S
H2405 C2415 0.929 . S
H2406 C2410 0.929 1_554 S
H2407 C2416 0.929 . S
C2408 H2402 0.930 . S
C2408 C2409 1.367 . S
C2408 C2416 1.378 . S
C2409 C2408 1.367 . S
C2409 C2417 1.433 . S
C2410 H2406 0.929 1_556 S
C2410 C2412 1.378 1_556 S
C2410 C2414 1.350 . S
C2411 C2414 1.463 . S
C2411 C2416 1.350 . S
C2411 N2419 1.427 . S
C2412 H2403 0.930 . S
C2412 C2410 1.378 1_554 S
C2412 C2413 1.367 . S
C2413 C2412 1.367 . S
C2413 C2415 1.433 1_554 S
C2414 C2410 1.350 . S
C2414 C2411 1.463 . S
C2414 N2418 1.427 . S
C2415 H2405 0.929 . S
C2415 C2413 1.433 1_556 S
C2415 N2418 1.384 . S
C2416 H2407 0.929 . S
C2416 C2408 1.378 . S
C2416 C2411 1.350 . S
C2417 H2404 0.929 . S
C2417 C2409 1.433 . S
C2417 N2419 1.384 . S
N2418 C2414 1.427 . S
N2418 C2415 1.384 . S
N2419 C2411 1.427 . S
N2419 C2417 1.384 . S
H2420 C2426 0.930 . S
H2421 C2430 0.930 . S
H2422 C2435 0.929 . S
H2423 C2433 0.929 . S
H2424 C2428 0.929 . S
H2425 C2434 0.929 . S
C2426 H2420 0.930 . S
C2426 C2427 1.367 . S
C2426 C2434 1.378 . S
C2427 C2426 1.367 . S
C2427 C2435 1.433 . S
C2428 H2424 0.929 . S
C2428 C2430 1.378 . S
C2428 C2432 1.350 . S
C2429 C2432 1.463 . S
C2429 C2434 1.350 . S
C2429 N2437 1.427 . S
C2430 H2421 0.930 . S
C2430 C2428 1.378 . S
C2430 C2431 1.367 . S
C2431 C2430 1.367 . S
C2431 C2433 1.433 . S
C2432 C2428 1.350 . S
C2432 C2429 1.463 . S
C2432 N2436 1.427 . S
C2433 H2423 0.929 . S
C2433 C2431 1.433 . S
C2433 N2436 1.384 . S
C2434 H2425 0.929 . S
C2434 C2426 1.378 . S
C2434 C2429 1.350 . S
C2435 H2422 0.929 . S
C2435 C2427 1.433 . S
C2435 N2437 1.384 . S
N2436 C2432 1.427 . S
N2436 C2433 1.384 . S
N2437 C2429 1.427 . S
N2437 C2435 1.384 . S
H2438 C2444 0.930 . S
H2439 C2448 0.930 . S
H2440 C2453 0.929 . S
H2441 C2451 0.929 . S
H2442 C2446 0.929 . S
H2443 C2452 0.929 . S
C2444 H2438 0.930 . S
C2444 C2445 1.367 . S
C2444 C2452 1.378 . S
C2445 C2444 1.367 . S
C2445 C2453 1.433 . S
C2446 H2442 0.929 . S
C2446 C2448 1.378 . S
C2446 C2450 1.350 . S
C2447 C2450 1.463 . S
C2447 C2452 1.350 . S
C2447 N2455 1.427 . S
C2448 H2439 0.930 . S
C2448 C2446 1.378 . S
C2448 C2449 1.367 . S
C2449 C2448 1.367 . S
C2449 C2451 1.433 . S
C2450 C2446 1.350 . S
C2450 C2447 1.463 . S
C2450 N2454 1.427 . S
C2451 H2441 0.929 . S
C2451 C2449 1.433 . S
C2451 N2454 1.384 . S
C2452 H2443 0.929 . S
C2452 C2444 1.378 . S
C2452 C2447 1.350 . S
C2453 H2440 0.929 . S
C2453 C2445 1.433 . S
C2453 N2455 1.384 . S
N2454 C2450 1.427 . S
N2454 C2451 1.384 . S
N2455 C2447 1.427 . S
N2455 C2453 1.384 . S
H2456 C2462 0.930 . S
H2457 C2466 0.930 . S
H2458 C2471 0.929 . S
H2459 C2469 0.929 . S
H2460 C2464 0.929 . S
H2461 C2470 0.929 . S
C2462 H2456 0.930 . S
C2462 C2463 1.367 . S
C2462 C2470 1.378 . S
C2463 C2462 1.367 . S
C2463 C2471 1.433 . S
C2464 H2460 0.929 . S
C2464 C2466 1.378 . S
C2464 C2468 1.350 . S
C2465 C2468 1.463 . S
C2465 C2470 1.350 . S
C2465 N2473 1.427 . S
C2466 H2457 0.930 . S
C2466 C2464 1.378 . S
C2466 C2467 1.367 . S
C2467 C2466 1.367 . S
C2467 C2469 1.433 . S
C2468 C2464 1.350 . S
C2468 C2465 1.463 . S
C2468 N2472 1.427 . S
C2469 H2459 0.929 . S
C2469 C2467 1.433 . S
C2469 N2472 1.384 . S
C2470 H2461 0.929 . S
C2470 C2462 1.378 . S
C2470 C2465 1.350 . S
C2471 H2458 0.929 . S
C2471 C2463 1.433 . S
C2471 N2473 1.384 . S
N2472 C2468 1.427 . S
N2472 C2469 1.384 . S
N2473 C2465 1.427 . S
N2473 C2471 1.384 . S
H2474 C2480 0.930 . S
H2475 C2484 0.930 . S
H2476 C2489 0.929 . S
H2477 C2487 0.929 . S
H2478 C2482 0.929 . S
H2479 C2488 0.929 . S
C2480 H2474 0.930 . S
C2480 C2481 1.367 . S
C2480 C2488 1.378 . S
C2481 C2480 1.367 . S
C2481 C2489 1.433 . S
C2482 H2478 0.929 . S
C2482 C2484 1.378 . S
C2482 C2486 1.350 . S
C2483 C2486 1.463 . S
C2483 C2488 1.350 . S
C2483 N2491 1.427 . S
C2484 H2475 0.930 . S
C2484 C2482 1.378 . S
C2484 C2485 1.367 . S
C2485 C2484 1.367 . S
C2485 C2487 1.433 . S
C2486 C2482 1.350 . S
C2486 C2483 1.463 . S
C2486 N2490 1.427 . S
C2487 H2477 0.929 . S
C2487 C2485 1.433 . S
C2487 N2490 1.384 . S
C2488 H2479 0.929 . S
C2488 C2480 1.378 . S
C2488 C2483 1.350 . S
C2489 H2476 0.929 . S
C2489 C2481 1.433 . S
C2489 N2491 1.384 . S
N2490 C2486 1.427 . S
N2490 C2487 1.384 . S
N2491 C2483 1.427 . S
N2491 C2489 1.384 . S
H2492 C2498 0.930 . S
H2493 C2502 0.930 . S
H2494 C2507 0.929 . S
H2495 C2505 0.929 . S
H2496 C2500 0.929 . S
H2497 C2506 0.929 . S
C2498 H2492 0.930 . S
C2498 C2499 1.367 1_556 S
C2498 C2506 1.378 . S
C2499 C2498 1.367 1_554 S
C2499 C2507 1.433 . S
C2500 H2496 0.929 . S
C2500 C2502 1.378 . S
C2500 C2504 1.350 . S
C2501 C2504 1.463 . S
C2501 C2506 1.350 . S
C2501 N2509 1.427 . S
C2502 H2493 0.930 . S
C2502 C2500 1.378 . S
C2502 C2503 1.367 . S
C2503 C2502 1.367 . S
C2503 C2505 1.433 . S
C2504 C2500 1.350 . S
C2504 C2501 1.463 . S
C2504 N2508 1.427 . S
C2505 H2495 0.929 . S
C2505 C2503 1.433 . S
C2505 N2508 1.384 . S
C2506 H2497 0.929 . S
C2506 C2498 1.378 . S
C2506 C2501 1.350 . S
C2507 H2494 0.929 . S
C2507 C2499 1.433 . S
C2507 N2509 1.384 1_554 S
N2508 C2504 1.427 . S
N2508 C2505 1.384 . S
N2509 C2501 1.427 . S
N2509 C2507 1.384 1_556 S
H2510 C2516 0.930 . S
H2511 C2520 0.930 . S
H2512 C2525 0.929 . S
H2513 C2523 0.929 . S
H2514 C2518 0.929 . S
H2515 C2524 0.929 . S
C2516 H2510 0.930 . S
C2516 C2517 1.367 . S
C2516 C2524 1.378 . S
C2517 C2516 1.367 . S
C2517 C2525 1.433 . S
C2518 H2514 0.929 . S
C2518 C2520 1.378 . S
C2518 C2522 1.350 . S
C2519 C2522 1.463 . S
C2519 C2524 1.350 . S
C2519 N2527 1.427 . S
C2520 H2511 0.930 . S
C2520 C2518 1.378 . S
C2520 C2521 1.367 . S
C2521 C2520 1.367 . S
C2521 C2523 1.433 . S
C2522 C2518 1.350 . S
C2522 C2519 1.463 . S
C2522 N2526 1.427 . S
C2523 H2513 0.929 . S
C2523 C2521 1.433 . S
C2523 N2526 1.384 . S
C2524 H2515 0.929 . S
C2524 C2516 1.378 . S
C2524 C2519 1.350 . S
C2525 H2512 0.929 . S
C2525 C2517 1.433 . S
C2525 N2527 1.384 . S
N2526 C2522 1.427 . S
N2526 C2523 1.384 . S
N2527 C2519 1.427 . S
N2527 C2525 1.384 . S
C1095 C156 2.267 . S
C1099 C20 2.262 . S
C1113 C54 2.264 . S
C1117 C190 2.267 . S
C1131 C88 2.267 . S
C1135 C224 2.263 . S
C1149 C122 2.262 . S
C1153 C258 2.268 . S
C1167 C417 0.900 . S
C1171 C281 0.899 . S
C1185 C315 0.901 . S
C1189 C451 0.899 . S
C1203 C349 0.902 . S
C1207 C485 0.900 . S
C1221 C519 0.901 . S
C1225 C383 0.903 . S
C1239 C564 2.263 . S
C1243 C700 2.266 . S
C1257 C598 2.264 . S
C1261 C734 2.266 . S
C1275 C768 2.267 . S
C1279 C632 2.263 . S
C1293 C666 2.263 . S
C1297 C802 2.268 . S
C1311 C825 0.900 . S
C1315 C961 0.902 . S
C1329 C859 0.906 . S
C1333 C995 0.903 . S
C1347 C1029 0.908 . S
C1351 C893 0.907 . S
C1365 C927 0.900 . S
C1369 C1063 0.903 . S
C1383 C413 0.953 . S
C1387 C9 0.995 . S
C1401 C43 0.985 . S
C1405 C991 0.975 . S
C1419 C481 0.975 . S
C1423 C77 0.984 . S
C1437 C111 0.986 . S
C1441 C1059 0.976 . S
C1455 C145 0.995 . S
C1459 C277 0.956 . S
C1473 C855 0.967 . S
C1477 C179 0.988 . S
C1491 C345 0.971 . S
C1495 C213 0.989 . S
C1509 C247 0.984 . S
C1513 C923 0.977 . S
C1527 C292 2.431 . S
C1531 C138 2.443 . S
C1545 C326 2.434 . S
C1549 C716 2.440 . S
C1563 C360 2.433 . S
C1567 C206 2.442 . S
C1581 C394 2.430 . S
C1585 C784 2.443 . S
C1599 C2 2.442 . S
C1603 C428 2.433 . S
C1617 C580 2.444 . S
C1621 C462 2.429 . S
C1635 C496 2.429 . S
C1639 C70 2.445 . S
C1653 C648 2.440 . S
C1657 C530 2.434 . S
C1671 C553 0.986 . S
C1675 C957 0.976 . S
C1689 C587 0.993 . S
C1693 C447 0.962 . S
C1707 C621 0.987 . S
C1711 C1025 0.966 . S
C1725 C655 0.995 . S
C1729 C515 0.953 . S
C1743 C689 0.985 . S
C1747 C821 0.977 . S
C1761 C311 0.953 . S
C1765 C723 0.995 . S
C1779 C889 0.962 . S
C1783 C757 0.989 . S
C1797 C791 0.995 . S
C1801 C379 0.955 . S
C1815 C682 2.441 . S
C1819 C836 2.433 . S
C1833 C172 2.442 . S
C1837 C870 2.433 . S
C1851 C750 2.441 . S
C1855 C904 2.434 . S
C1869 C240 2.442 . S
C1873 C938 2.431 . S
C1887 C972 2.434 . S
C1891 C546 2.441 . S
C1905 C36 2.442 . S
C1909 C1006 2.432 . S
C1923 C1040 2.429 . S
C1927 C614 2.444 . S
C1941 C104 2.443 . S
C1945 C1074 2.431 . S
C1959 C5 0.995 . S
C1963 C141 1.013 . S
C1977 C175 0.990 . S
C1981 C39 1.000 . S
C1995 C209 0.993 . S
C1999 C73 0.998 . S
C2013 C107 0.987 . S
C2017 C243 1.008 . S
C2031 C274 2.605 . S
C2035 C410 2.603 . S
C2049 C308 2.605 . S
C2053 C444 2.604 . S
C2067 C478 2.604 . S
C2071 C342 2.602 . S
C2085 C376 2.601 . S
C2089 C512 2.605 . S
C2103 C685 0.997 . S
C2107 C549 0.994 . S
C2121 C583 1.014 . S
C2125 C719 0.991 . S
C2139 C753 1.001 . S
C2143 C617 1.010 . S
C2157 C651 1.013 . S
C2161 C787 0.988 . S
C2175 C954 2.605 . S
C2179 C818 2.601 . S
C2193 C852 2.601 . S
C2197 C988 2.605 . S
C2211 C1022 2.603 . S
C2215 C886 2.605 . S
C2229 C920 2.606 . S
C2233 C1056 2.601 . S
C2247 C271 0.374 . S
C2251 C33 0.377 . S
C2265 C67 0.340 . S
C2269 C169 0.343 . S
C2283 C101 0.354 . S
C2287 C203 0.350 . S
C2301 C237 0.364 . S
C2305 C135 0.355 . S
C2319 C305 0.386 . S
C2323 C543 0.386 . S
C2337 C441 0.346 . S
C2341 C339 0.347 . S
C2355 C475 0.385 . S
C2359 C373 0.383 . S
C2373 C407 0.358 . S
C2377 C509 0.362 . S
C2391 C815 0.380 . S
C2395 C577 0.380 . S
C2409 C611 0.379 . S
C2413 C713 0.384 . S
C2427 C747 0.340 . S
C2431 C645 0.343 . S
C2445 C679 0.375 . S
C2449 C781 0.372 . S
C2463 C849 0.345 . S
C2467 C1087 0.346 . S
C2481 C883 0.351 . S
C2485 C985 0.349 . S
C2499 C917 0.345 . S
C2503 C1019 0.345 . S
C2517 C1053 0.346 . S
C2521 C951 0.347 . S
