# Generated by pormake.
# Topology snz, (6)-cn, num edge types: 1
# Building blocks:
#     Node 0, Type 0, BuildingBlock: BETDAH_clean_sbu_0, # of connection points: 6
#     Node 1, Type 0, BuildingBlock: BETDAH_clean_sbu_0, # of connection points: 6
#     Node 2, Type 0, BuildingBlock: BETDAH_clean_sbu_0, # of connection points: 6
#     Node 3, Type 0, BuildingBlock: BETDAH_clean_sbu_0, # of connection points: 6
#     Node 4, Type 0, BuildingBlock: BETDAH_clean_sbu_0, # of connection points: 6
#     Node 5, Type 0, BuildingBlock: BETDAH_clean_sbu_0, # of connection points: 6
#     Node 6, Type 0, BuildingBlock: BETDAH_clean_sbu_0, # of connection points: 6
#     Node 7, Type 0, BuildingBlock: BETDAH_clean_sbu_0, # of connection points: 6
#     Node 8, Type 0, BuildingBlock: BETDAH_clean_sbu_0, # of connection points: 6
#     Edge 9, Type (0, 0), BuildingBlock: KIFKEQ_clean_linker_1, # of connection points: 2
#     Edge 10, Type (0, 0), BuildingBlock: KIFKEQ_clean_linker_1, # of connection points: 2
#     Edge 11, Type (0, 0), BuildingBlock: KIFKEQ_clean_linker_1, # of connection points: 2
#     Edge 12, Type (0, 0), BuildingBlock: KIFKEQ_clean_linker_1, # of connection points: 2
#     Edge 13, Type (0, 0), BuildingBlock: KIFKEQ_clean_linker_1, # of connection points: 2
#     Edge 14, Type (0, 0), BuildingBlock: KIFKEQ_clean_linker_1, # of connection points: 2
#     Edge 15, Type (0, 0), BuildingBlock: KIFKEQ_clean_linker_1, # of connection points: 2
#     Edge 16, Type (0, 0), BuildingBlock: KIFKEQ_clean_linker_1, # of connection points: 2
#     Edge 17, Type (0, 0), BuildingBlock: KIFKEQ_clean_linker_1, # of connection points: 2
#     Edge 18, Type (0, 0), BuildingBlock: KIFKEQ_clean_linker_1, # of connection points: 2
#     Edge 19, Type (0, 0), BuildingBlock: KIFKEQ_clean_linker_1, # of connection points: 2
#     Edge 20, Type (0, 0), BuildingBlock: KIFKEQ_clean_linker_1, # of connection points: 2
#     Edge 21, Type (0, 0), BuildingBlock: KIFKEQ_clean_linker_1, # of connection points: 2
#     Edge 22, Type (0, 0), BuildingBlock: KIFKEQ_clean_linker_1, # of connection points: 2
#     Edge 23, Type (0, 0), BuildingBlock: KIFKEQ_clean_linker_1, # of connection points: 2
#     Edge 24, Type (0, 0), BuildingBlock: KIFKEQ_clean_linker_1, # of connection points: 2
#     Edge 25, Type (0, 0), BuildingBlock: KIFKEQ_clean_linker_1, # of connection points: 2
#     Edge 26, Type (0, 0), BuildingBlock: KIFKEQ_clean_linker_1, # of connection points: 2
#     Edge 27, Type (0, 0), BuildingBlock: KIFKEQ_clean_linker_1, # of connection points: 2
#     Edge 28, Type (0, 0), BuildingBlock: KIFKEQ_clean_linker_1, # of connection points: 2
#     Edge 29, Type (0, 0), BuildingBlock: KIFKEQ_clean_linker_1, # of connection points: 2
#     Edge 30, Type (0, 0), BuildingBlock: KIFKEQ_clean_linker_1, # of connection points: 2
#     Edge 31, Type (0, 0), BuildingBlock: KIFKEQ_clean_linker_1, # of connection points: 2
#     Edge 32, Type (0, 0), BuildingBlock: KIFKEQ_clean_linker_1, # of connection points: 2
#     Edge 33, Type (0, 0), BuildingBlock: KIFKEQ_clean_linker_1, # of connection points: 2
#     Edge 34, Type (0, 0), BuildingBlock: KIFKEQ_clean_linker_1, # of connection points: 2
#     Edge 35, Type (0, 0), BuildingBlock: KIFKEQ_clean_linker_1, # of connection points: 2
# Relax obj value: 0.420
# Max RMSD: 0.271
# Mean RMSD: 0.178
data_MOF--net-snz--node1-BETDAH_clean_sbu_0--edge1-KIFKEQ_clean_linker_1
_symmetry_space_group_name_H-M    P1
_symmetry_Int_Tables_number       1
_symmetry_cell_setting            triclinic
loop_
_symmetry_equiv_pos_as_xyz
'x, y, z'
_cell_length_a     68.849852
_cell_length_b     55.540359
_cell_length_c     16.284557
_cell_angle_alpha  96.615448
_cell_angle_beta   96.095573
_cell_angle_gamma 121.05724
loop_
_atom_site_label
_atom_site_type_symbol
_atom_site_fract_x
_atom_site_fract_y
_atom_site_fract_z
_atom_type_partial_charge
Ho0 Ho 0.12711 0.49575 0.21782 0.0
Ho1 Ho 0.09263 0.50236 0.2189 0.0
C2 C 0.07667 0.43907 0.15776 0.0
C3 C 0.15703 0.48014 0.24284 0.0
C4 C 0.16239 0.46157 0.28803 0.0
C5 C 0.17426 0.47115 0.37244 0.0
C6 C 0.18186 0.45528 0.41104 0.0
C7 C 0.17798 0.42937 0.36645 0.0
C8 C 0.16561 0.4195 0.28259 0.0
C9 C 0.15803 0.43539 0.244 0.0
C10 C 0.11816 0.50584 1.05535 0.0
C11 C 0.14136 0.56047 0.24925 0.0
C12 C 0.0624 0.5175 0.21165 0.0
C13 C 0.05181 0.52969 0.16003 0.0
C14 C 0.06505 0.55734 0.14248 0.0
C15 C 0.05426 0.56994 0.10418 0.0
C16 C 0.02998 0.55527 0.08278 0.0
C17 C 1.01688 0.52721 0.09766 0.0
C18 C 0.02766 0.51466 0.13599 0.0
C19 C 0.10278 0.49213 0.38061 0.0
O20 O 0.09699 0.44922 0.20601 0.0
O21 O 0.07153 0.45783 0.14085 0.0
O22 O 0.13943 0.46776 0.18045 0.0
O23 O 0.15897 0.5026 0.28699 0.0
O24 O 0.13815 0.51646 0.10348 0.0
O25 O 0.10305 0.4908 0.09845 0.0
O26 O 0.11976 0.54764 0.21053 0.0
O27 O 0.14895 0.54402 0.26882 0.0
O28 O 0.08402 0.53432 0.24828 0.0
O29 O 0.05716 0.49153 0.18369 0.0
O30 O 0.08277 0.47991 0.33169 0.0
O31 O 0.11715 0.50815 0.33732 0.0
H32 H 0.17819 0.49131 0.40841 0.0
H33 H 0.19097 0.46352 0.47595 0.0
H34 H 0.16249 0.39995 0.24537 0.0
H35 H 0.14933 0.42753 0.17853 0.0
H36 H 0.08372 0.56962 0.16064 0.0
H37 H 0.06495 0.59162 0.09431 0.0
H38 H 0.9982 0.51498 0.0806 0.0
H39 H 1.01701 0.49342 0.14912 0.0
Ho40 Ho 0.6328 0.51163 1.05903 0.0
Ho41 Ho 0.59673 0.51386 1.02987 0.0
C42 C 0.64062 0.5746 0.08675 0.0
C43 C 0.6737 0.5187 0.06873 0.0
C44 C 0.69602 0.53554 1.04019 0.0
C45 C 0.69785 0.53075 0.9554 0.0
C46 C 0.71947 0.54464 0.93155 0.0
C47 C 0.73988 0.56366 0.99173 0.0
C48 C 0.73793 0.56899 0.07613 0.0
C49 C 0.71631 0.55502 0.10001 0.0
C50 C 0.61567 0.50525 0.21095 0.0
C51 C 0.58682 0.45062 1.01509 0.0
C52 C 0.55598 0.50663 1.01914 0.0
C53 C 0.53815 0.49519 0.07094 0.0
C54 C 0.54168 0.48535 0.14325 0.0
C55 C 0.52448 0.47397 0.19145 0.0
C56 C 0.50345 0.47228 0.16826 0.0
C57 C 0.5001 0.48232 0.09581 0.0
C58 C 0.5173 0.49364 1.04756 0.0
C59 C 0.61402 0.5198 0.8778 0.0
O60 O 0.64915 0.5596 1.057 0.0
O61 O 0.61898 0.56012 0.09436 0.0
O62 O 0.66858 0.53245 0.12349 0.0
O63 O 0.65554 0.4993 1.01288 0.0
O64 O 0.62277 0.49027 0.17301 0.0
O65 O 0.61664 0.52246 0.1624 0.0
O66 O 0.57936 0.46711 1.04107 0.0
O67 O 0.60865 0.46353 1.00788 0.0
O68 O 0.57511 0.5306 1.05424 0.0
O69 O 0.55985 0.48817 0.98034 0.0
O70 O 0.60709 0.53496 0.91544 0.0
O71 O 0.6127 0.50258 0.92668 0.0
H72 H 0.68264 0.51586 0.90752 0.0
H73 H 0.72021 0.54031 0.86577 0.0
H74 H 0.7532 0.58321 0.12443 0.0
H75 H 0.71553 0.55891 0.16597 0.0
H76 H 0.55773 0.48644 0.16232 0.0
H77 H 0.52775 0.46678 0.24739 0.0
H78 H 0.48402 0.48101 0.07559 0.0
H79 H 0.51427 0.50103 0.99169 0.0
Ho80 Ho 0.59331 0.04941 0.8798 0.0
Ho81 Ho 0.63373 0.09576 0.92694 0.0
C82 C 0.5927 0.10611 0.91272 0.0
C83 C 0.54995 1.00824 0.85192 0.0
C84 C 0.53294 0.99414 0.90514 0.0
C85 C 0.53887 1.00327 0.99308 0.0
C86 C 0.52212 0.99095 1.04264 0.0
C87 C 0.49915 0.96935 1.00502 0.0
C88 C 0.49348 0.96 0.91687 0.0
C89 C 0.51023 0.97232 0.86747 0.0
C90 C 0.6111 0.0641 0.73077 0.0
C91 C 0.63082 0.03635 0.93013 0.0
C92 C 0.67764 0.13414 0.93484 0.0
C93 C 0.69945 0.13474 0.92935 0.0
C94 C 0.69937 0.11214 0.87994 0.0
C95 C 0.72022 0.11421 0.86975 0.0
C96 C 0.74186 0.139 0.90844 0.0
C97 C 0.74178 0.16131 0.95935 0.0
C98 C 0.72092 0.15919 0.9695 0.0
C99 C 0.61663 0.08323 0.07712 0.0
O100 O 0.58258 0.07985 0.92614 0.0
O101 O 0.61423 0.11814 0.90114 0.0
O102 O 0.56689 1.00397 0.85638 0.0
O103 O 0.5571 0.03502 0.85317 0.0
O104 O 0.60192 0.03935 0.75222 0.0
O105 O 0.61196 0.08089 0.79444 0.0
O106 O 0.64316 0.06179 0.91124 0.0
O107 O 0.60931 0.02709 0.93437 0.0
O108 O 0.66846 0.12697 1.00076 0.0
O109 O 0.66187 0.12262 0.8665 0.0
O110 O 0.62717 0.10822 1.05576 0.0
O111 O 0.61449 0.06511 1.01383 0.0
H112 H 0.55635 0.02027 1.02316 0.0
H113 H 0.52704 0.99888 0.11016 0.0
H114 H 0.47606 0.94314 0.88597 0.0
H115 H 0.50537 0.96505 0.79964 0.0
H116 H 0.68316 0.09299 0.84791 0.0
H117 H 0.71932 0.0963 0.83123 0.0
H118 H 0.75788 0.18091 0.98955 0.0
H119 H 0.7216 0.17707 1.00742 0.0
Ho120 Ho 0.7858 0.85382 0.30095 0.0
Ho121 Ho 0.75113 0.86029 0.30263 0.0
C122 C 0.73704 0.7956 0.27137 0.0
C123 C 0.8161 0.83881 0.3075 0.0
C124 C 0.82674 0.82667 0.35847 0.0
C125 C 0.81414 0.80526 0.40349 0.0
C126 C 0.8243 0.79232 0.44416 0.0
C127 C 0.84725 0.80052 0.44056 0.0
C128 C 0.85982 0.82238 0.39659 0.0
C129 C 0.84969 0.83526 0.35624 0.0
C130 C 0.77554 0.86392 0.13923 0.0
C131 C 0.80184 0.91736 0.36103 0.0
C132 C 0.72091 0.87541 0.27711 0.0
C133 C 0.71563 0.89422 0.23288 0.0
C134 C 0.70358 0.88476 0.14874 0.0
C135 C 0.69604 0.9008 0.11087 0.0
C136 C 0.70016 0.92678 0.15594 0.0
C137 C 0.71269 0.93653 0.23954 0.0
C138 C 0.72021 0.92046 0.27742 0.0
C139 C 0.76033 0.85013 0.46454 0.0
O140 O 0.75873 0.80846 0.3091 0.0
O141 O 0.72932 0.812 0.25261 0.0
O142 O 0.79444 0.82187 0.27155 0.0
O143 O 0.82122 0.86464 0.33658 0.0
O144 O 0.79557 0.87598 0.18777 0.0
O145 O 0.76116 0.84805 0.18281 0.0
O146 O 0.78096 0.9071 0.31716 0.0
O147 O 0.80758 0.89889 0.37491 0.0
O148 O 0.73814 0.88747 0.34083 0.0
O149 O 0.71946 0.85346 0.23185 0.0
O150 O 0.74028 0.83936 0.41664 0.0
O151 O 0.77535 0.86537 0.42137 0.0
H152 H 0.79635 0.7982 0.40601 0.0
H153 H 0.81415 0.77584 0.47819 0.0
H154 H 0.87734 0.829 0.39092 0.0
H155 H 0.85967 0.85151 0.32118 0.0
H156 H 0.69945 0.86455 0.11242 0.0
H157 H 0.68679 0.89264 1.04613 0.0
H158 H 0.71601 0.95613 0.27711 0.0
H159 H 0.72906 0.92825 0.34272 0.0
Ho160 Ho 0.28105 0.84222 0.49056 0.0
Ho161 Ho 0.245 0.84448 0.46125 0.0
C162 C 0.29099 0.90544 0.50417 0.0
C163 C 0.32184 0.84954 0.50163 0.0
C164 C 0.33976 0.86115 0.45025 0.0
C165 C 0.33532 0.86798 0.37299 0.0
C166 C 0.3526 0.87964 0.32527 0.0
C167 C 0.37468 0.88476 0.35408 0.0
C168 C 0.37897 0.8778 0.43166 0.0
C169 C 0.36165 0.86611 0.47928 0.0
C170 C 0.26386 0.83635 0.64278 0.0
C171 C 0.23711 0.78145 0.43382 0.0
C172 C 0.20451 0.8387 0.45014 0.0
C173 C 0.18188 0.82234 0.47569 0.0
C174 C 0.17556 0.79835 0.5128 0.0
C175 C 0.15366 0.78311 0.53448 0.0
C176 C 0.13765 0.7915 0.5191 0.0
C177 C 0.14427 0.81568 0.48225 0.0
C178 C 0.16609 0.83085 0.46089 0.0
C179 C 0.26232 0.85082 0.30967 0.0
O180 O 0.29842 0.88889 0.47837 0.0
O181 O 0.26922 0.89257 0.51194 0.0
O182 O 0.30272 0.82558 0.46613 0.0
O183 O 0.31792 0.86793 0.54061 0.0
O184 O 0.2708 0.8212 0.60512 0.0
O185 O 0.26504 0.85349 0.59379 0.0
O186 O 0.22848 0.79643 0.4627 0.0
O187 O 0.25881 0.79591 0.42678 0.0
O188 O 0.20953 0.82474 0.39576 0.0
O189 O 0.22234 0.85677 0.50899 0.0
O190 O 0.25537 0.86598 0.34766 0.0
O191 O 0.26109 0.83348 0.35812 0.0
H192 H 0.31848 0.86433 0.34969 0.0
H193 H 0.34859 0.88438 0.26541 0.0
H194 H 0.39584 0.88183 0.45633 0.0
H195 H 0.36541 0.86115 0.5391 0.0
H196 H 0.18746 0.79134 0.52457 0.0
H197 H 0.14915 0.7645 0.5621 0.0
H198 H 0.13269 0.82317 0.47078 0.0
H199 H 0.17062 0.84934 0.43249 0.0
Ho200 Ho 0.24566 0.26201 0.60027 0.0
Ho201 Ho 0.28594 0.3086 0.6473 0.0
C202 C 0.2482 0.32121 0.59599 0.0
C203 C 0.20179 0.22361 0.593 0.0
C204 C 0.17986 0.22301 0.59591 0.0
C205 C 0.17975 0.24576 0.64347 0.0
C206 C 0.15881 0.24367 0.65204 0.0
C207 C 0.13725 0.2187 0.61361 0.0
C208 C 0.13752 0.19627 0.56425 0.0
C209 C 0.15848 0.19841 0.5557 0.0
C210 C 0.26259 0.27452 0.4498 0.0
C211 C 0.287 0.25224 0.61558 0.0
C212 C 0.32923 0.34997 0.67449 0.0
C213 C 0.34594 0.3638 0.62006 0.0
C214 C 0.34018 0.35288 0.53299 0.0
C215 C 0.35665 0.36508 0.48239 0.0
C216 C 0.37915 0.38847 0.51798 0.0
C217 C 0.38465 0.3996 0.60514 0.0
C218 C 0.36819 0.38732 0.65569 0.0
C219 C 0.26812 0.2937 0.79613 0.0
O220 O 0.23591 0.2957 0.6145 0.0
O221 O 0.26979 0.33072 0.59254 0.0
O222 O 0.21107 0.22986 0.52682 0.0
O223 O 0.21747 0.23599 0.66167 0.0
O224 O 0.25213 0.24955 0.47129 0.0
O225 O 0.26479 0.29269 0.5131 0.0
O226 O 0.29688 0.27836 0.60116 0.0
O227 O 0.26549 0.24007 0.62742 0.0
O228 O 0.31221 0.3541 0.67021 0.0
O229 O 0.32221 0.32327 0.67425 0.0
O230 O 0.27712 0.31844 0.77464 0.0
O231 O 0.26751 0.27706 0.73261 0.0
H232 H 0.19586 0.26502 0.67555 0.0
H233 H 0.15957 0.26168 0.68933 0.0
H234 H 0.12148 0.17655 0.53428 0.0
H235 H 0.15794 0.18042 0.51918 0.0
H236 H 0.32304 0.33469 0.50441 0.0
H237 H 0.35176 0.35623 0.4154 0.0
H238 H 0.40187 0.41735 0.63472 0.0
H239 H 0.37294 0.3959 0.72287 0.0
Ho240 Ho 0.44303 0.1814 0.68505 0.0
Ho241 Ho 0.43533 0.17367 0.83555 0.0
C242 C 0.40274 0.18888 0.72464 0.0
C243 C 0.44375 0.17575 0.52738 0.0
C244 C 0.42319 0.16707 0.46333 0.0
C245 C 0.41466 0.18523 0.45973 0.0
C246 C 0.39202 0.17445 0.41956 0.0
C247 C 0.37736 0.1453 0.38177 0.0
C248 C 0.38641 0.12762 0.38012 0.0
C249 C 0.40908 0.1384 0.42033 0.0
C250 C 0.46708 0.23436 0.79183 0.0
C251 C 0.47808 0.17091 0.8031 0.0
C252 C 0.42049 0.16792 0.97513 0.0
C253 C 0.39622 0.15022 0.98333 0.0
C254 C 0.39073 0.13839 1.05501 0.0
C255 C 0.36764 0.12003 1.06008 0.0
C256 C 0.34965 0.11324 0.99351 0.0
C257 C 0.35517 0.12504 0.92163 0.0
C258 C 0.3783 0.14303 0.91604 0.0
C259 C 0.41105 0.1215 0.72464 0.0
O260 O 0.40954 0.18001 0.66225 0.0
O261 O 0.41296 0.192 0.80167 0.0
O262 O 0.45328 0.20084 0.5766 0.0
O263 O 0.44143 0.15612 0.56974 0.0
O264 O 0.4541 0.22778 0.71925 0.0
O265 O 0.46621 0.21194 0.80775 0.0
O266 O 0.47007 0.17844 0.86444 0.0
O267 O 0.46857 0.16796 0.72462 0.0
O268 O 0.42584 0.19012 0.94091 0.0
O269 O 0.42897 0.15348 0.94417 0.0
O270 O 0.42501 0.12772 0.79387 0.0
O271 O 0.4118 0.1442 0.71369 0.0
H272 H 0.42493 0.20743 0.49241 0.0
H273 H 0.38576 0.18879 0.42124 0.0
H274 H 0.3759 0.10531 0.34855 0.0
H275 H 0.41512 0.12386 0.42198 0.0
H276 H 0.40426 0.14331 0.10692 0.0
H277 H 0.36381 0.11184 0.11743 0.0
H278 H 0.34164 0.12043 0.87019 0.0
H279 H 0.38212 0.15123 0.85894 0.0
Ho280 Ho 0.94215 0.1652 0.82869 0.0
Ho281 Ho 0.9373 0.19024 0.7039 0.0
C282 C 0.89569 0.16729 0.79609 0.0
C283 C 0.94852 0.14937 0.9672 0.0
C284 C 0.96988 0.1576 1.0246 0.0
C285 C 0.97006 0.15843 0.11076 0.0
C286 C 0.99095 0.17087 0.16757 0.0
C287 C 1.0121 0.18296 0.13915 0.0
C288 C 1.01168 0.18034 1.05212 0.0
C289 C 0.99071 0.16762 0.99529 0.0
C290 C 0.91912 0.1244 0.68257 0.0
C291 C 0.98284 0.18715 0.73021 0.0
C292 C 0.94051 0.21385 0.57484 0.0
C293 C 0.96238 0.23609 0.55599 0.0
C294 C 0.98207 0.2518 0.62092 0.0
C295 C 1.00406 0.26777 0.60206 0.0
C296 C 1.00674 0.26816 0.51788 0.0
C297 C 0.98675 0.25424 0.45363 0.0
C298 C 0.96476 0.23825 0.4726 0.0
C299 C 0.96064 0.23021 0.85162 0.0
O300 O 0.91083 0.16736 0.85375 0.0
O301 O 0.90072 0.17142 0.72124 0.0
O302 O 0.94446 0.16979 0.964 0.0
O303 O 0.94488 0.13473 0.89264 0.0
O304 O 0.93657 0.12834 0.73405 0.0
O305 O 0.91527 0.14375 0.70805 0.0
O306 O 0.96712 0.18591 0.6732 0.0
O307 O 0.97847 0.18431 0.80618 0.0
O308 O 0.93479 0.22137 0.64245 0.0
O309 O 0.93824 0.1889 0.57096 0.0
O310 O 0.94271 0.22616 0.80322 0.0
O311 O 0.96445 0.2112 0.82259 0.0
H312 H 0.95418 0.15087 0.13454 0.0
H313 H 0.9906 0.17298 0.23427 0.0
H314 H 0.02762 0.18936 1.02831 0.0
H315 H 0.99091 0.16681 0.9288 0.0
H316 H 0.98061 0.25017 0.68593 0.0
H317 H 1.01901 0.27828 0.6529 0.0
H318 H 0.98809 0.25356 0.38785 0.0
H319 H 0.94982 0.22599 0.42175 0.0
Ho320 Ho 0.92633 0.65067 0.67779 0.0
Ho321 Ho 0.94846 0.69809 0.81584 0.0
C322 C 0.98114 0.6988 0.69581 0.0
C323 C 0.90631 0.61716 0.53168 0.0
C324 C 0.88492 0.61019 0.47711 0.0
C325 C 0.88441 0.60983 0.39086 0.0
C326 C 0.86834 0.61348 0.34334 0.0
C327 C 0.85269 0.61783 0.38179 0.0
C328 C 0.85129 0.61427 0.46545 0.0
C329 C 0.86736 0.61059 0.51288 0.0
C330 C 0.94505 0.63932 0.8123 0.0
C331 C 0.89498 0.64994 0.80487 0.0
C332 C 0.9609 0.73472 0.9538 0.0
C333 C 0.94578 0.74156 0.99397 0.0
C334 C 0.92253 0.72768 0.95486 0.0
C335 C 0.90652 0.7284 0.99874 0.0
C336 C 0.9135 0.74385 0.08242 0.0
C337 C 0.93751 0.76118 0.11635 0.0
C338 C 0.95345 0.75946 0.07326 0.0
C339 C 0.9288 0.70748 0.6785 0.0
O340 O 0.96144 0.67977 0.64299 0.0
O341 O 0.98095 0.70638 0.77529 0.0
O342 O 0.92313 0.64398 0.54245 0.0
O343 O 0.90413 0.60775 0.60216 0.0
O344 O 0.92535 0.62124 0.76304 0.0
O345 O 0.95438 0.66271 0.78679 0.0
O346 O 0.91497 0.66753 0.85682 0.0
O347 O 0.89478 0.64415 0.72409 0.0
O348 O 0.96408 0.74202 0.88088 0.0
O349 O 0.95593 0.70854 0.95226 0.0
O350 O 0.9495 0.72512 0.72103 0.0
O351 O 0.91985 0.68514 0.70887 0.0
H352 H 0.89784 0.60962 0.36218 0.0
H353 H 0.87009 0.61625 0.27923 0.0
H354 H 0.83926 0.61713 0.49653 0.0
H355 H 0.86728 0.61068 0.57929 0.0
H356 H 0.91643 0.71464 0.89204 0.0
H357 H 0.88855 0.71476 0.96831 0.0
H358 H 0.94403 0.7748 0.17827 0.0
H359 H 0.97152 0.77105 0.10334 0.0
H360 H 0.07797 0.47559 0.92222 0.0
H361 H 0.15166 0.53097 0.95624 0.0
H362 H 0.07471 0.47275 0.76948 0.0
H363 H 0.14876 0.52806 0.80463 0.0
H364 H 0.14228 0.52708 0.51501 0.0
H365 H 0.14549 0.53036 0.66786 0.0
H366 H 0.073 0.46526 0.63 0.0
H367 H 0.07007 0.46255 0.47841 0.0
C368 C 0.09369 0.48731 0.89805 0.0
C369 C 0.11516 0.50362 0.95621 0.0
C370 C 0.09188 0.48562 0.8078 0.0
C371 C 0.1114 0.50006 0.76797 0.0
C372 C 0.13281 0.51637 0.8271 0.0
C373 C 0.13457 0.51806 0.9169 0.0
C374 C 0.1269 0.51332 0.53862 0.0
C375 C 0.10583 0.49446 0.47977 0.0
C376 C 0.1287 0.51512 0.62889 0.0
C377 C 0.10958 0.49818 0.66803 0.0
C378 C 0.08858 0.47928 0.60818 0.0
C379 C 0.08682 0.47755 0.51837 0.0
H380 H 0.61833 0.48059 0.76114 0.0
H381 H 0.61107 0.55295 0.76609 0.0
H382 H 0.61837 0.47724 0.60973 0.0
H383 H 0.61129 0.55013 0.61602 0.0
H384 H 0.60836 0.54188 0.32554 0.0
H385 H 0.608 0.54491 0.47666 0.0
H386 H 0.62147 0.47719 0.47486 0.0
H387 H 0.62152 0.47429 0.32464 0.0
C388 C 0.6168 0.49604 0.73079 0.0
C389 C 0.61469 0.51712 0.7803 0.0
C390 C 0.61683 0.4942 0.64133 0.0
C391 C 0.61479 0.5133 0.59386 0.0
C392 C 0.61279 0.5344 0.64452 0.0
C393 C 0.61273 0.53617 0.73347 0.0
C394 C 0.61123 0.52749 0.35681 0.0
C395 C 0.61498 0.50777 0.30843 0.0
C396 C 0.6111 0.52923 0.44618 0.0
C397 C 0.61476 0.51142 0.49476 0.0
C398 C 0.61844 0.49169 0.44528 0.0
C399 C 0.61851 0.48996 0.35632 0.0
H400 H 0.62118 0.11186 0.65085 0.0
H401 H 0.60359 0.0249 0.58747 0.0
H402 H 0.62203 0.11586 0.50256 0.0
H403 H 0.60461 0.0286 0.44016 0.0
H404 H 0.60164 0.03413 0.15464 0.0
H405 H 0.60032 0.03007 0.30263 0.0
H406 H 0.62771 0.12063 0.37045 0.0
H407 H 0.62862 0.12422 0.22292 0.0
C408 C 0.61752 0.09337 0.60603 0.0
C409 C 0.61229 0.06794 0.63577 0.0
C410 C 0.61804 0.09562 0.51828 0.0
C411 C 0.61339 0.07265 0.45266 0.0
C412 C 0.60824 0.04732 0.48348 0.0
C413 C 0.60771 0.04511 0.57079 0.0
C414 C 0.6074 0.05334 0.20059 0.0
C415 C 0.61527 0.07961 0.17221 0.0
C416 C 0.60674 0.05109 0.28824 0.0
C417 C 0.61393 0.07493 0.35523 0.0
C418 C 0.62172 0.10112 0.32581 0.0
C419 C 0.62234 0.10331 0.23848 0.0
H420 H 0.80049 0.8808 0.59794 0.0
H421 H 0.72687 0.82458 0.56334 0.0
H422 H 0.80369 0.88366 0.75065 0.0
H423 H 0.7297 0.82746 0.71486 0.0
H424 H 0.73596 0.82917 1.00479 0.0
H425 H 0.7328 0.82588 0.85195 0.0
H426 H 0.80543 0.89045 0.88995 0.0
H427 H 0.8083 0.89319 1.04146 0.0
C428 C 0.78478 0.86889 0.62198 0.0
C429 C 0.76334 0.85235 0.56367 0.0
C430 C 0.78655 0.87058 0.71222 0.0
C431 C 0.76702 0.85591 0.75188 0.0
C432 C 0.74565 0.83937 0.69258 0.0
C433 C 0.74393 0.83768 0.60281 0.0
C434 C 0.75137 0.84281 0.9812 0.0
C435 C 0.77247 0.86154 1.04006 0.0
C436 C 0.74961 0.841 0.89092 0.0
C437 C 0.76879 0.85779 0.85181 0.0
C438 C 0.7898 0.87655 0.9117 0.0
C439 C 0.79153 0.87829 1.00149 0.0
H440 H 0.26674 0.80311 0.75428 0.0
H441 H 0.25964 0.87559 0.75966 0.0
H442 H 0.26655 0.8059 0.90435 0.0
H443 H 0.25962 0.8789 0.91105 0.0
H444 H 0.25683 0.88209 0.19635 0.0
H445 H 0.25686 0.8792 1.04615 0.0
H446 H 0.26954 0.8108 1.04354 0.0
H447 H 0.26922 0.81384 0.1947 0.0
C448 C 0.26512 0.8199 0.78699 0.0
C449 C 0.26319 0.839 0.74027 0.0
C450 C 0.26507 0.82165 0.87595 0.0
C451 C 0.26313 0.84277 0.92673 0.0
C452 C 0.26112 0.86193 0.87937 0.0
C453 C 0.26114 0.8601 0.7899 0.0
C454 C 0.25966 0.86627 0.1645 0.0
C455 C 0.26298 0.84828 0.21218 0.0
C456 C 0.25972 0.86454 0.07554 0.0
C457 C 0.26317 0.84464 1.02583 0.0
C458 C 0.26662 0.82664 0.07421 0.0
C459 C 0.26651 0.82837 0.16359 0.0
H460 H 0.25852 0.24611 0.8763 0.0
H461 H 0.27518 0.33268 0.93922 0.0
H462 H 0.25768 0.2421 1.02461 0.0
H463 H 0.27414 0.32895 0.08652 0.0
H464 H 0.27751 0.32359 0.37221 0.0
H465 H 0.27884 0.32766 0.22423 0.0
H466 H 0.25158 0.23714 0.15644 0.0
H467 H 0.25066 0.23354 0.304 0.0
C468 C 0.26197 0.26451 0.92101 0.0
C469 C 0.26694 0.28984 0.89114 0.0
C470 C 0.26145 0.26224 1.00875 0.0
C471 C 0.26584 0.28511 0.07425 0.0
C472 C 0.27073 0.31033 1.0433 0.0
C473 C 0.27126 0.31256 0.95599 0.0
C474 C 0.27178 0.30438 0.32628 0.0
C475 C 0.26394 0.27812 0.35468 0.0
C476 C 0.27244 0.30664 0.23863 0.0
C477 C 0.2653 0.28282 0.17166 0.0
C478 C 0.25754 0.25663 0.2011 0.0
C479 C 0.25692 0.25444 0.28843 0.0
H480 H 0.36077 0.17185 0.29205 0.0
H481 H 0.33844 0.0927 0.37928 0.0
H482 H 0.32539 0.14911 0.19189 0.0
H483 H 0.30253 0.06909 0.27585 0.0
H484 H 0.31793 0.1291 0.97981 0.0
H485 H 0.29321 0.12053 0.08321 0.0
H486 H 0.30159 0.05238 0.13911 0.0
H487 H 0.32597 0.06038 1.03602 0.0
C488 C 0.34796 0.14967 0.29163 0.0
C489 C 0.35314 0.13358 0.33957 0.0
C490 C 0.32725 0.1363 0.23354 0.0
C491 C 0.31179 0.10622 0.21929 0.0
C492 C 0.31475 0.09178 0.28048 0.0
C493 C 0.33551 0.10521 0.33908 0.0
C494 C 0.31348 0.11119 1.01085 0.0
C495 C 0.32556 0.09714 1.00633 0.0
C496 C 0.29918 0.10612 0.07028 0.0
C497 C 0.29996 0.09013 0.13041 0.0
C498 C 0.30391 0.06833 0.10211 0.0
C499 C 0.31804 0.07284 1.04272 0.0
H500 H 0.04055 0.26058 0.5911 0.0
H501 H 0.02516 0.29698 0.39281 0.0
H502 H 0.06654 0.25431 0.51505 0.0
H503 H 0.04972 0.28908 0.31432 0.0
H504 H 0.0264 0.17515 0.29184 0.0
H505 H 0.04844 0.21375 0.41223 0.0
H506 H 0.07092 0.27505 0.2478 0.0
H507 H 0.04762 0.2361 0.12714 0.0
C508 C 0.04337 0.26835 0.5328 0.0
C509 C 0.02955 0.27742 0.49483 0.0
C510 C 0.05822 0.26451 0.48861 0.0
C511 C 0.05853 0.26846 0.40477 0.0
C512 C 0.04914 0.28414 0.37668 0.0
C513 C 0.03467 0.28848 0.42143 0.0
C514 C 0.03675 0.1968 0.28118 0.0
C515 C 0.03395 0.20278 0.20098 0.0
C516 C 0.0497 0.21926 0.35066 0.0
C517 C 0.05969 0.24794 0.34039 0.0
C518 C 0.06198 0.25328 0.25839 0.0
C519 C 0.04871 0.23081 0.18875 0.0
H520 H 0.85208 0.66349 0.45972 0.0
H521 H 0.83314 0.60905 0.21594 0.0
H522 H 0.85616 0.70185 0.39164 0.0
H523 H 0.83753 0.64789 0.1484 0.0
H524 H 0.92004 0.74976 0.25603 0.0
H525 H 0.8916 0.72214 0.33362 0.0
H526 H 0.83757 0.69192 0.11572 0.0
H527 H 0.86617 0.72231 1.03804 0.0
C528 C 0.84731 0.65895 0.39166 0.0
C529 C 0.84328 0.63358 0.34307 0.0
C530 C 0.84961 0.68113 0.35277 0.0
C531 C 0.84794 0.67827 0.26522 0.0
C532 C 0.83924 0.65095 0.21621 0.0
C533 C 0.83694 0.62868 0.25502 0.0
C534 C 0.9022 0.73877 0.2244 0.0
C535 C 0.89592 0.73701 0.13769 0.0
C536 C 0.8856 0.72265 0.26994 0.0
C537 C 0.86237 0.70387 0.22969 0.0
C538 C 0.85549 0.7056 0.14755 0.0
C539 C 0.87209 0.72265 0.10263 0.0
H540 H 0.20266 0.30573 0.58078 0.0
H541 H 0.26948 0.37372 0.55126 0.0
H542 H 0.18531 0.33158 0.53036 0.0
H543 H 0.25222 0.39916 0.49942 0.0
H544 H 0.21948 0.45147 0.47507 0.0
H545 H 0.23546 0.42594 0.53633 0.0
H546 H 0.17489 0.34518 0.40603 0.0
H547 H 0.15843 0.37075 0.34744 0.0
C548 C 0.2137 0.32625 0.56408 0.0
C549 C 0.23755 0.3376 0.57068 0.0
C550 C 0.2037 0.34103 0.53431 0.0
C551 C 0.21725 0.36764 0.5104 0.0
C552 C 0.24115 0.37905 0.51822 0.0
C553 C 0.2511 0.3643 0.54778 0.0
C554 C 0.20931 0.42825 0.46029 0.0
C555 C 0.18753 0.41337 0.40589 0.0
C556 C 0.21868 0.41351 0.49477 0.0
C557 C 0.20665 0.3833 0.47618 0.0
C558 C 0.1847 0.36837 0.42278 0.0
C559 C 0.17533 0.38313 0.38814 0.0
H560 H 0.68734 0.61275 0.0908 0.0
H561 H 0.62631 0.6107 0.14054 0.0
H562 H 0.70995 0.66513 0.13437 0.0
H563 H 0.64879 0.66276 0.18507 0.0
H564 H 0.69107 0.76023 0.19 0.0
H565 H 0.66834 0.70797 0.14402 0.0
H566 H 0.72683 0.70461 0.25037 0.0
H567 H 0.7495 0.75669 0.29505 0.0
C568 C 0.67866 0.62337 0.11087 0.0
C569 C 0.65481 0.60707 0.11157 0.0
C570 C 0.69173 0.65363 0.13669 0.0
C571 C 0.68146 0.66883 0.16387 0.0
C572 C 0.65754 0.65239 0.16382 0.0
C573 C 0.64455 0.62222 0.13849 0.0
C574 C 0.69908 0.74838 0.20412 0.0
C575 C 0.72227 0.76313 0.24689 0.0
C576 C 0.68594 0.71815 0.17778 0.0
C577 C 0.6955 0.70142 0.19268 0.0
C578 C 0.71869 0.71629 0.23597 0.0
C579 C 0.73175 0.74643 0.26258 0.0
H580 H 0.4546 0.95626 0.96938 0.0
H581 H 0.50267 0.95469 0.15877 0.0
H582 H 0.42476 0.93566 1.05337 0.0
H583 H 0.473 0.93501 0.24434 0.0
H584 H 0.40636 0.8703 0.32711 0.0
H585 H 0.43653 0.89093 0.24424 0.0
H586 H 0.41508 0.94848 0.18383 0.0
H587 H 0.38496 0.92794 0.26688 0.0
C588 C 0.4588 0.95144 1.02886 0.0
C589 C 0.48103 0.95702 1.05708 0.0
C590 C 0.44175 0.93995 0.07754 0.0
C591 C 0.44647 0.93371 0.15572 0.0
C592 C 0.46871 0.9393 0.18405 0.0
C593 C 0.48579 0.95087 0.1354 0.0
C594 C 0.40821 0.88754 0.29684 0.0
C595 C 0.39317 0.89741 0.30364 0.0
C596 C 0.42553 0.89938 0.2493 0.0
C597 C 0.42823 0.92135 0.20725 0.0
C598 C 0.41325 0.93127 0.21426 0.0
C599 C 0.39595 0.91947 0.26186 0.0
H600 H 0.55406 0.09321 0.97718 0.0
H601 H 0.59857 0.14942 0.82727 0.0
H602 H 0.52826 0.11056 0.95292 0.0
H603 H 0.5724 0.16675 0.80189 0.0
H604 H 0.50355 0.16244 0.69514 0.0
H605 H 0.53259 0.14994 0.72512 0.0
H606 H 0.52422 0.15183 0.98398 0.0
H607 H 0.49543 0.16454 0.95423 0.0
C608 C 0.55858 0.10962 0.93979 0.0
C609 C 0.57872 0.11997 0.90501 0.0
C610 C 0.54366 0.11967 0.92584 0.0
C611 C 0.54794 0.14018 0.8751 0.0
C612 C 0.56825 0.15084 0.84083 0.0
C613 C 0.58348 0.14111 0.85617 0.0
C614 C 0.50799 0.16043 0.75871 0.0
C615 C 0.4969 0.16461 0.82202 0.0
C616 C 0.52484 0.15335 0.77612 0.0
C617 C 0.53098 0.14967 0.8572 0.0
C618 C 0.51999 0.1541 0.92054 0.0
C619 C 0.50345 0.16161 0.90347 0.0
H620 H 1.00794 0.25538 0.90817 0.0
H621 H 0.95304 0.27095 0.91981 0.0
H622 H 0.03615 0.30472 0.98502 0.0
H623 H 0.98067 0.31939 0.9983 0.0
H624 H 0.03522 0.41404 1.04897 0.0
H625 H 1.00868 0.36422 0.98103 0.0
H626 H 0.05325 0.34153 0.11008 0.0
H627 H 0.08047 0.39226 0.1767 0.0
C628 C 1.00181 0.26913 0.92828 0.0
C629 C 0.9781 0.25903 0.90706 0.0
C630 C 1.01804 0.29758 0.9727 0.0
C631 C 1.01107 0.31682 0.99756 0.0
C632 C 0.98717 0.30603 0.97881 0.0
C633 C 0.97111 0.27788 0.93418 0.0
C634 C 0.03946 0.39856 1.06364 0.0
C635 C 0.06013 0.40757 0.1194 0.0
C636 C 0.02398 0.36959 1.02466 0.0
C637 C 0.0283 0.3481 1.03994 0.0
C638 C 0.04911 0.3571 0.09562 0.0
C639 C 0.06474 0.38633 0.13463 0.0
H640 H 0.88785 0.66009 0.96552 0.0
H641 H 0.85143 0.61309 0.71251 0.0
H642 H 0.85093 0.63996 1.01306 0.0
H643 H 0.81481 0.59352 0.75927 0.0
H644 H 0.75481 0.53854 0.8818 0.0
H645 H 0.79229 0.55967 0.84058 0.0
H646 H 0.81541 0.64024 1.00399 0.0
H647 H 0.77782 0.61885 1.04645 0.0
C648 C 0.87202 0.64549 0.92002 0.0
C649 C 0.87271 0.63805 0.83524 0.0
C650 C 0.85079 0.63408 0.94718 0.0
C651 C 0.82975 0.61482 0.89028 0.0
C652 C 0.83057 0.60775 0.80544 0.0
C653 C 0.85168 0.61916 0.7784 0.0
C654 C 0.76777 0.56084 0.90854 0.0
C655 C 0.76308 0.57698 0.96694 0.0
C656 C 0.78936 0.57302 0.88486 0.0
C657 C 0.80699 0.6018 0.91847 0.0
C658 C 0.80243 0.61792 0.97765 0.0
C659 C 0.7808 0.60566 1.00175 0.0
H660 H 0.9276 0.58818 0.8618 0.0
H661 H 0.99179 0.66805 0.87438 0.0
H662 H 0.94867 0.56936 0.93033 0.0
H663 H 1.01304 0.64934 0.94444 0.0
H664 H 0.04266 0.59097 0.9679 0.0
H665 H 0.023 0.61325 0.91039 0.0
H666 H 0.97124 0.57414 1.06213 0.0
H667 H 0.99086 0.55204 0.11975 0.0
C668 C 0.94623 0.60187 0.88031 0.0
C669 C 0.95801 0.62957 0.86252 0.0
C670 C 0.95835 0.59112 0.91997 0.0
C671 C 0.98262 0.60775 0.94284 0.0
C672 C 0.99439 0.63579 0.92679 0.0
C673 C 0.98221 0.64663 0.88737 0.0
C674 C 0.02721 0.58733 0.98965 0.0
C675 C 1.01828 0.56939 1.04799 0.0
C676 C 1.01594 0.60019 0.95674 0.0
C677 C 0.99542 0.59543 0.9812 0.0
C678 C 0.98674 0.5779 1.04056 0.0
C679 C 0.99799 0.56511 0.07348 0.0
H680 H 0.53979 0.4196 1.00526 0.0
H681 H 0.59551 0.40751 0.9683 0.0
H682 H 0.51205 0.36822 0.95856 0.0
H683 H 0.56749 0.35557 0.92161 0.0
H684 H 0.50913 0.25785 0.90447 0.0
H685 H 0.53849 0.30902 0.96187 0.0
H686 H 0.4949 0.33224 0.8292 0.0
H687 H 0.46607 0.28172 0.7721 0.0
C688 C 0.54627 0.40603 0.98774 0.0
C689 C 0.57018 0.41825 0.99089 0.0
C690 C 0.53018 0.37628 0.96019 0.0
C691 C 0.53718 0.35718 0.9352 0.0
C692 C 0.56119 0.36923 0.9405 0.0
C693 C 0.57736 0.39922 0.96717 0.0
C694 C 0.50576 0.27389 0.88817 0.0
C695 C 0.48497 0.26531 0.83359 0.0
C696 C 0.52274 0.30339 0.92061 0.0
C697 C 0.51933 0.32531 0.90095 0.0
C698 C 0.49834 0.31644 0.84731 0.0
C699 C 0.48168 0.2872 0.81404 0.0
H700 H 0.87865 0.15767 0.94336 0.0
H701 H 0.86119 0.16586 0.69007 0.0
H702 H 0.8418 0.14988 0.97141 0.0
H703 H 0.82477 0.15876 0.71832 0.0
H704 H 0.75131 0.1194 0.76354 0.0
H705 H 0.78749 0.12483 0.73892 0.0
H706 H 0.82033 0.17201 0.99413 0.0
H707 H 0.7838 0.16549 1.01992 0.0
C708 C 0.86702 0.15788 0.8936 0.0
C709 C 0.87307 0.16237 0.81428 0.0
C710 C 0.84583 0.15358 0.90986 0.0
C711 C 0.82995 0.15356 0.84728 0.0
C712 C 0.83612 0.15806 0.76802 0.0
C713 C 0.85724 0.16237 0.75187 0.0
C714 C 0.76609 0.1306 0.81508 0.0
C715 C 0.76429 0.14196 0.89394 0.0
C716 C 0.7871 0.13409 0.80049 0.0
C717 C 0.80721 0.14909 0.86414 0.0
C718 C 0.80537 0.16013 0.94338 0.0
C719 C 0.78433 0.15667 0.95795 0.0
H720 H 0.67621 0.05129 0.94381 0.0
H721 H 0.60935 0.9839 0.97517 0.0
H722 H 0.69333 0.02509 0.99345 0.0
H723 H 0.62639 0.95812 1.02619 0.0
H724 H 0.65854 0.90507 1.04857 0.0
H725 H 0.64275 0.93093 0.98821 0.0
H726 H 0.70378 1.01137 0.1176 0.0
H727 H 0.72004 0.98546 0.17533 0.0
C728 C 0.66511 0.03082 0.96075 0.0
C729 C 0.64132 0.01975 0.95491 0.0
C730 C 0.67498 0.01585 0.99007 0.0
C731 C 0.66135 0.9893 1.01424 0.0
C732 C 0.63751 0.97817 1.00716 0.0
C733 C 0.62769 0.99311 0.97807 0.0
C734 C 0.66884 0.92828 1.06335 0.0
C735 C 0.6907 0.94298 0.11722 0.0
C736 C 0.65959 0.94321 1.02939 0.0
C737 C 0.67181 0.97343 1.04796 0.0
C738 C 0.69382 0.98818 0.10087 0.0
C739 C 0.70308 0.97322 0.13502 0.0
H740 H 0.19032 0.74316 0.42852 0.0
H741 H 0.25168 0.74547 0.38192 0.0
H742 H 0.16788 0.69076 0.38518 0.0
H743 H 0.22938 0.69342 0.33771 0.0
H744 H 0.18715 0.59592 0.33275 0.0
H745 H 0.20972 0.64819 0.37896 0.0
H746 H 0.15142 0.65134 0.26897 0.0
H747 H 0.12893 0.59929 0.22403 0.0
C748 C 0.1991 0.73259 0.40919 0.0
C749 C 0.22299 0.74898 0.40924 0.0
C750 C 0.18614 0.70233 0.38353 0.0
C751 C 0.19656 0.68721 0.35732 0.0
C752 C 0.22051 0.70373 0.3582 0.0
C753 C 0.2334 0.7339 0.38334 0.0
C754 C 0.17916 0.60773 0.3179 0.0
C755 C 0.15607 0.59294 0.274 0.0
C756 C 0.19219 0.63796 0.34437 0.0
C757 C 0.18263 0.65463 0.32852 0.0
C758 C 0.15955 0.63971 0.28413 0.0
C759 C 0.1466 0.60959 0.25738 0.0
H760 H 0.4892 0.4248 0.23891 0.0
H761 H 0.47605 0.49191 0.21285 0.0
H762 H 0.45927 0.40488 0.32318 0.0
H763 H 0.44561 0.47145 0.29483 0.0
H764 H 0.41108 0.44516 0.52307 0.0
H765 H 0.44111 0.4653 0.43925 0.0
H766 H 0.41726 0.37993 0.30745 0.0
H767 H 0.3877 0.35976 0.39307 0.0
C768 C 0.47996 0.43535 0.2513 0.0
C769 C 0.48506 0.45999 0.21919 0.0
C770 C 0.46261 0.42373 0.29881 0.0
C771 C 0.44999 0.43653 0.31566 0.0
C772 C 0.45513 0.46121 0.28369 0.0
C773 C 0.47242 0.47276 0.23592 0.0
C774 C 0.41233 0.43068 0.47656 0.0
C775 C 0.39698 0.40084 0.46489 0.0
C776 C 0.4294 0.44224 0.4279 0.0
C777 C 0.43161 0.42424 0.3666 0.0
C778 C 0.4162 0.3944 0.3547 0.0
C779 C 0.39907 0.38285 0.40312 0.0
H780 H 0.9448 0.75163 0.595 0.0
H781 H 0.88255 0.6869 0.66364 0.0
H782 H 0.92421 0.77248 0.53642 0.0
H783 H 0.86211 0.70874 0.61039 0.0
H784 H 0.8269 0.74333 0.44811 0.0
H785 H 0.8451 0.71937 0.50318 0.0
H786 H 0.91033 0.80075 0.57677 0.0
H787 H 0.89197 0.8246 0.52321 0.0
C788 C 0.92664 0.74186 0.59743 0.0
C789 C 0.91535 0.71775 0.63419 0.0
C790 C 0.91483 0.75406 0.56495 0.0
C791 C 0.89148 0.74295 0.57028 0.0
C792 C 0.87998 0.71805 0.60448 0.0
C793 C 0.89172 0.70546 0.63533 0.0
C794 C 0.84508 0.75618 0.47686 0.0
C795 C 0.85798 0.78593 0.47972 0.0
C796 C 0.85567 0.74234 0.50808 0.0
C797 C 0.87957 0.75775 0.54186 0.0
C798 C 0.89217 0.78772 0.5479 0.0
C799 C 0.88157 0.80154 0.51734 0.0
H800 H 0.41238 0.07412 0.73869 0.0
H801 H 0.36828 0.09837 0.61635 0.0
H802 H 0.3834 0.02376 0.6818 0.0
H803 H 0.33872 0.04722 0.55877 0.0
H804 H 0.28239 0.9484 0.55386 0.0
H805 H 0.31037 1.00041 0.5991 0.0
H806 H 0.36545 0.98805 0.55304 0.0
H807 H 0.33777 0.93663 0.50815 0.0
C808 C 0.39649 0.06875 0.69891 0.0
C809 C 0.39295 0.09071 0.68228 0.0
C810 C 0.37974 0.03959 0.66571 0.0
C811 C 0.35841 0.03081 0.61484 0.0
C812 C 0.35475 0.05278 0.59789 0.0
C813 C 0.37182 0.08227 0.63043 0.0
C814 C 0.30044 0.95678 0.55269 0.0
C815 C 0.30756 0.93782 0.52716 0.0
C816 C 0.31658 0.98681 0.57849 0.0
C817 C 0.3405 0.99895 0.5809 0.0
C818 C 0.34741 0.97992 0.55377 0.0
C819 C 0.33135 0.95014 0.52727 0.0
H820 H 0.99888 0.1962 0.58092 0.0
H821 H 1.01846 0.19059 0.83524 0.0
H822 H 0.03578 0.20484 0.55074 0.0
H823 H 0.05494 0.19864 0.80506 0.0
H824 H 0.12774 0.23872 0.7574 0.0
H825 H 0.09146 0.2328 0.78206 0.0
H826 H 0.05849 0.18456 0.52788 0.0
H827 H 0.09519 0.19158 0.502 0.0
C828 C 1.01096 0.19666 0.63039 0.0
C829 C 1.00545 0.19253 0.71058 0.0
C830 C 0.03222 0.20154 0.61296 0.0
C831 C 0.04874 0.20265 0.6753 0.0
C832 C 0.0431 0.19855 0.75543 0.0
C833 C 0.02192 0.19363 0.77272 0.0
C834 C 0.11292 0.22719 0.70603 0.0
C835 C 0.11473 0.21563 0.62755 0.0
C836 C 0.09183 0.2234 0.72068 0.0
C837 C 0.07162 0.20784 0.65754 0.0
C838 C 0.0735 0.19678 0.57837 0.0
C839 C 0.09464 0.20054 0.56373 0.0
H840 H 0.38547 0.19599 0.57564 0.0
H841 H 0.37787 0.19789 0.83495 0.0
H842 H 0.35645 0.20825 0.54651 0.0
H843 H 0.3486 0.2102 0.80599 0.0
H844 H 0.28187 0.20967 0.70351 0.0
H845 H 0.30858 0.19315 0.73014 0.0
H846 H 0.35197 0.24892 0.57661 0.0
H847 H 0.32565 0.26542 0.55102 0.0
C848 C 0.37755 0.19886 0.62659 0.0
C849 C 0.3843 0.1959 0.70774 0.0
C850 C 0.36086 0.20613 0.60998 0.0
C851 C 0.34992 0.21044 0.67368 0.0
C852 C 0.35633 0.20692 0.75474 0.0
C853 C 0.37332 0.20001 0.77161 0.0
C854 C 0.29691 0.21805 0.67434 0.0
C855 C 0.30129 0.2388 0.6243 0.0
C856 C 0.31246 0.20881 0.69043 0.0
C857 C 0.33271 0.21957 0.6558 0.0
C858 C 0.33663 0.23973 0.60403 0.0
C859 C 0.3214 0.24928 0.58928 0.0
H860 H 0.84892 0.94618 0.40369 0.0
H861 H 0.79299 0.96028 0.40275 0.0
H862 H 0.8764 0.99585 0.47104 0.0
H863 H 0.8204 1.01008 0.476 0.0
H864 H 0.87771 0.10599 0.57374 0.0
H865 H 0.84965 0.05769 0.48991 0.0
H866 H 0.89234 0.02805 0.59187 0.0
H867 H 0.92043 0.07595 0.66969 0.0
C868 C 0.84242 0.95992 0.41838 0.0
C869 C 0.81858 0.94889 0.3975 0.0
C870 C 0.8583 0.98869 0.45854 0.0
C871 C 0.85105 1.00771 0.4821 0.0
C872 C 0.82711 0.99674 0.45927 0.0
C873 C 0.81121 0.96792 0.41715 0.0
C874 C 0.88114 0.08913 0.57714 0.0
C875 C 0.9016 0.09524 0.62839 0.0
C876 C 0.86487 0.06114 0.52942 0.0
C877 C 0.86836 0.03817 0.53206 0.0
C878 C 0.88884 0.04463 0.58446 0.0
C879 C 0.90512 0.07246 0.63057 0.0
H880 H 0.02445 0.73534 0.79146 0.0
H881 H 0.98923 0.68993 0.53622 0.0
H882 H 0.06148 0.75589 0.74697 0.0
H883 H 0.02654 0.71024 0.4917 0.0
H884 H 0.09606 0.77841 0.42985 0.0
H885 H 0.05842 0.75525 0.47082 0.0
H886 H 0.08811 0.74415 0.69956 0.0
H887 H 0.12596 0.76827 0.65998 0.0
C888 C 0.02456 0.72959 0.72575 0.0
C889 C 1.00373 0.71094 0.66748 0.0
C890 C 0.04592 0.74126 0.70029 0.0
C891 C 0.04716 0.73472 0.61568 0.0
C892 C 0.02631 0.71602 0.55725 0.0
C893 C 1.00488 0.70424 0.58285 0.0
C894 C 0.09464 0.77118 0.48916 0.0
C895 C 0.11423 0.77551 0.54184 0.0
C896 C 0.07291 0.75754 0.51222 0.0
C897 C 0.0701 0.74786 0.58879 0.0
C898 C 0.0896 0.75164 0.64066 0.0
C899 C 0.11132 0.76522 0.61747 0.0
loop_
_geom_bond_atom_site_label_1
_geom_bond_atom_site_label_2
_geom_bond_distance
_geom_bond_site_symmetry_2
_ccdc_geom_bond_type
Ho0 C3 2.811 . S
Ho0 O20 2.322 . S
Ho0 O22 2.378 . S
Ho0 O23 2.524 . S
Ho0 O24 2.381 1_554 S
Ho0 O25 2.669 1_554 S
Ho0 O27 2.346 . S
Ho0 O31 2.305 . S
Ho1 C12 2.811 . S
Ho1 O21 2.346 . S
Ho1 O25 2.305 1_554 S
Ho1 O26 2.322 . S
Ho1 O28 2.378 1_455 S
Ho1 O29 2.524 1_554 S
Ho1 O30 2.381 . S
Ho1 O31 2.669 . S
C2 O20 1.259 . S
C2 O21 1.268 . S
C3 Ho0 2.811 . S
C3 C4 1.488 . S
C3 O22 1.215 . S
C3 O23 1.289 . S
C4 C3 1.488 . S
C4 C5 1.348 . S
C4 C9 1.413 . S
C5 C4 1.348 . S
C5 C6 1.442 . S
C5 H32 0.930 . S
C6 C5 1.442 . S
C6 C7 1.381 . S
C6 H33 0.931 . S
C7 C6 1.381 . S
C7 C8 1.321 . S
C8 C7 1.321 . S
C8 C9 1.403 . S
C8 H34 0.934 . S
C9 C4 1.413 . S
C9 C8 1.403 . S
C9 H35 0.930 . S
C10 O24 1.275 . S
C10 O25 1.256 . S
C11 O26 1.259 . S
C11 O27 1.268 . S
C12 Ho1 2.811 . S
C12 C13 1.488 1_455 S
C12 O28 1.215 1_455 S
C12 O29 1.289 1_554 S
C13 C12 1.488 1_655 S
C13 C14 1.348 1_654 S
C13 C18 1.413 . S
C14 C13 1.348 1_456 S
C14 C15 1.442 1_455 S
C14 H36 0.930 . S
C15 C14 1.442 1_655 S
C15 C16 1.381 1_556 S
C15 H37 0.931 1_655 S
C16 C15 1.381 1_554 S
C16 C17 1.321 . S
C17 C16 1.321 . S
C17 C18 1.403 . S
C17 H38 0.934 . S
C18 C13 1.413 . S
C18 C17 1.403 . S
C18 H39 0.930 . S
C19 O30 1.275 . S
C19 O31 1.256 . S
O20 Ho0 2.322 . S
O20 C2 1.259 . S
O21 Ho1 2.346 . S
O21 C2 1.268 . S
O22 Ho0 2.378 . S
O22 C3 1.215 . S
O23 Ho0 2.524 . S
O23 C3 1.289 . S
O24 Ho0 2.381 1_556 S
O24 C10 1.275 . S
O25 Ho0 2.669 1_556 S
O25 Ho1 2.305 1_556 S
O25 C10 1.256 . S
O26 Ho1 2.322 . S
O26 C11 1.259 . S
O27 Ho0 2.346 . S
O27 C11 1.268 . S
O28 Ho1 2.378 1_655 S
O28 C12 1.215 1_655 S
O29 Ho1 2.524 1_556 S
O29 C12 1.289 1_556 S
O30 Ho1 2.381 . S
O30 C19 1.275 . S
O31 Ho0 2.305 . S
O31 Ho1 2.669 . S
O31 C19 1.256 . S
H32 C5 0.930 . S
H33 C6 0.931 . S
H34 C8 0.934 . S
H35 C9 0.930 . S
H36 C14 0.930 . S
H37 C15 0.931 1_455 S
H38 C17 0.934 . S
H39 C18 0.930 . S
Ho40 C43 2.811 . S
Ho40 O60 2.322 . S
Ho40 O62 2.378 . S
Ho40 O63 2.524 . S
Ho40 O64 2.381 . S
Ho40 O65 2.669 . S
Ho40 O67 2.346 . S
Ho40 O71 2.305 . S
Ho41 C52 2.811 . S
Ho41 O61 2.346 . S
Ho41 O65 2.305 . S
Ho41 O66 2.322 . S
Ho41 O68 2.378 . S
Ho41 O69 2.524 . S
Ho41 O70 2.381 . S
Ho41 O71 2.669 . S
C42 O60 1.259 . S
C42 O61 1.268 . S
C43 Ho40 2.811 . S
C43 C44 1.488 . S
C43 O62 1.215 . S
C43 O63 1.289 . S
C44 C43 1.488 . S
C44 C45 1.348 . S
C44 C49 1.413 . S
C45 C44 1.348 . S
C45 C46 1.442 . S
C45 H72 0.930 . S
C46 C45 1.442 . S
C46 C47 1.381 . S
C46 H73 0.931 . S
C47 C46 1.381 . S
C47 C48 1.321 . S
C48 C47 1.321 . S
C48 C49 1.403 . S
C48 H74 0.934 . S
C49 C44 1.413 . S
C49 C48 1.403 . S
C49 H75 0.930 . S
C50 O64 1.275 . S
C50 O65 1.256 . S
C51 O66 1.259 . S
C51 O67 1.268 . S
C52 Ho41 2.811 . S
C52 C53 1.488 . S
C52 O68 1.215 . S
C52 O69 1.289 . S
C53 C52 1.488 . S
C53 C54 1.348 . S
C53 C58 1.413 . S
C54 C53 1.348 . S
C54 C55 1.442 . S
C54 H76 0.930 . S
C55 C54 1.442 . S
C55 C56 1.381 . S
C55 H77 0.931 . S
C56 C55 1.381 . S
C56 C57 1.321 . S
C57 C56 1.321 . S
C57 C58 1.403 . S
C57 H78 0.934 . S
C58 C53 1.413 . S
C58 C57 1.403 . S
C58 H79 0.930 . S
C59 O70 1.272 1_556 S
C59 O71 1.246 1_556 S
O60 Ho40 2.322 . S
O60 C42 1.259 . S
O61 Ho41 2.346 . S
O61 C42 1.268 . S
O62 Ho40 2.378 . S
O62 C43 1.215 . S
O63 Ho40 2.524 . S
O63 C43 1.289 . S
O64 Ho40 2.381 . S
O64 C50 1.275 . S
O65 Ho40 2.669 . S
O65 Ho41 2.305 . S
O65 C50 1.256 . S
O66 Ho41 2.322 . S
O66 C51 1.259 . S
O67 Ho40 2.346 . S
O67 C51 1.268 . S
O68 Ho41 2.378 . S
O68 C52 1.215 . S
O69 Ho41 2.524 . S
O69 C52 1.289 . S
O70 Ho41 2.381 . S
O70 C59 1.272 1_554 S
O71 Ho40 2.305 . S
O71 Ho41 2.669 . S
O71 C59 1.246 1_554 S
H72 C45 0.930 . S
H73 C46 0.931 . S
H74 C48 0.934 . S
H75 C49 0.930 . S
H76 C54 0.930 . S
H77 C55 0.931 . S
H78 C57 0.934 . S
H79 C58 0.930 . S
Ho80 C83 2.811 . S
Ho80 O100 2.322 . S
Ho80 O102 2.378 . S
Ho80 O103 2.524 . S
Ho80 O104 2.381 . S
Ho80 O105 2.669 . S
Ho80 O107 2.346 . S
Ho80 O111 2.305 . S
Ho81 C92 2.811 . S
Ho81 O101 2.346 . S
Ho81 O105 2.305 . S
Ho81 O106 2.322 . S
Ho81 O108 2.378 . S
Ho81 O109 2.524 . S
Ho81 O110 2.381 . S
Ho81 O111 2.669 . S
C82 O100 1.259 . S
C82 O101 1.268 . S
C83 Ho80 2.811 . S
C83 C84 1.488 . S
C83 O102 1.215 . S
C83 O103 1.289 . S
C84 C83 1.488 . S
C84 C85 1.348 . S
C84 C89 1.413 . S
C85 C84 1.348 . S
C85 C86 1.442 . S
C85 H112 0.930 . S
C86 C85 1.442 . S
C86 C87 1.381 . S
C86 H113 0.931 . S
C87 C86 1.381 . S
C87 C88 1.321 . S
C88 C87 1.321 . S
C88 C89 1.403 . S
C88 H114 0.934 . S
C89 C84 1.413 . S
C89 C88 1.403 . S
C89 H115 0.930 . S
C90 O104 1.275 . S
C90 O105 1.256 . S
C91 O106 1.259 . S
C91 O107 1.268 . S
C92 Ho81 2.811 . S
C92 C93 1.488 . S
C92 O108 1.215 . S
C92 O109 1.289 . S
C93 C92 1.488 . S
C93 C94 1.348 . S
C93 C98 1.413 . S
C94 C93 1.348 . S
C94 C95 1.442 . S
C94 H116 0.930 . S
C95 C94 1.442 . S
C95 C96 1.381 . S
C95 H117 0.931 . S
C96 C95 1.381 . S
C96 C97 1.321 . S
C97 C96 1.321 . S
C97 C98 1.403 . S
C97 H118 0.934 . S
C98 C93 1.413 . S
C98 C97 1.403 . S
C98 H119 0.930 . S
C99 O110 1.275 . S
C99 O111 1.256 . S
O100 Ho80 2.322 . S
O100 C82 1.259 . S
O101 Ho81 2.346 . S
O101 C82 1.268 . S
O102 Ho80 2.378 . S
O102 C83 1.215 . S
O103 Ho80 2.524 . S
O103 C83 1.289 . S
O104 Ho80 2.381 . S
O104 C90 1.275 . S
O105 Ho80 2.669 . S
O105 Ho81 2.305 . S
O105 C90 1.256 . S
O106 Ho81 2.322 . S
O106 C91 1.259 . S
O107 Ho80 2.346 . S
O107 C91 1.268 . S
O108 Ho81 2.378 . S
O108 C92 1.215 . S
O109 Ho81 2.524 . S
O109 C92 1.289 . S
O110 Ho81 2.381 . S
O110 C99 1.275 . S
O111 Ho80 2.305 . S
O111 Ho81 2.669 . S
O111 C99 1.256 . S
H112 C85 0.930 . S
H113 C86 0.931 . S
H114 C88 0.934 . S
H115 C89 0.930 . S
H116 C94 0.930 . S
H117 C95 0.931 . S
H118 C97 0.934 . S
H119 C98 0.930 . S
Ho120 C123 2.811 . S
Ho120 O140 2.322 . S
Ho120 O142 2.378 . S
Ho120 O143 2.524 . S
Ho120 O144 2.381 . S
Ho120 O145 2.669 . S
Ho120 O147 2.346 . S
Ho120 O151 2.305 . S
Ho121 C132 2.811 . S
Ho121 O141 2.346 . S
Ho121 O145 2.305 . S
Ho121 O146 2.322 . S
Ho121 O148 2.378 . S
Ho121 O149 2.524 . S
Ho121 O150 2.381 . S
Ho121 O151 2.669 . S
C122 O140 1.259 . S
C122 O141 1.268 . S
C123 Ho120 2.811 . S
C123 C124 1.488 . S
C123 O142 1.215 . S
C123 O143 1.289 . S
C124 C123 1.488 . S
C124 C125 1.348 . S
C124 C129 1.413 . S
C125 C124 1.348 . S
C125 C126 1.442 . S
C125 H152 0.930 . S
C126 C125 1.442 . S
C126 C127 1.381 . S
C126 H153 0.931 . S
C127 C126 1.381 . S
C127 C128 1.321 . S
C128 C127 1.321 . S
C128 C129 1.403 . S
C128 H154 0.934 . S
C129 C124 1.413 . S
C129 C128 1.403 . S
C129 H155 0.930 . S
C130 O144 1.275 . S
C130 O145 1.256 . S
C131 O146 1.259 . S
C131 O147 1.268 . S
C132 Ho121 2.811 . S
C132 C133 1.488 . S
C132 O148 1.215 . S
C132 O149 1.289 . S
C133 C132 1.488 . S
C133 C134 1.348 . S
C133 C138 1.413 . S
C134 C133 1.348 . S
C134 C135 1.442 . S
C134 H156 0.930 . S
C135 C134 1.442 . S
C135 C136 1.381 . S
C135 H157 0.931 . S
C136 C135 1.381 . S
C136 C137 1.321 . S
C137 C136 1.321 . S
C137 C138 1.403 . S
C137 H158 0.934 . S
C138 C133 1.413 . S
C138 C137 1.403 . S
C138 H159 0.930 . S
C139 O150 1.275 . S
C139 O151 1.256 . S
O140 Ho120 2.322 . S
O140 C122 1.259 . S
O141 Ho121 2.346 . S
O141 C122 1.268 . S
O142 Ho120 2.378 . S
O142 C123 1.215 . S
O143 Ho120 2.524 . S
O143 C123 1.289 . S
O144 Ho120 2.381 . S
O144 C130 1.275 . S
O145 Ho120 2.669 . S
O145 Ho121 2.305 . S
O145 C130 1.256 . S
O146 Ho121 2.322 . S
O146 C131 1.259 . S
O147 Ho120 2.346 . S
O147 C131 1.268 . S
O148 Ho121 2.378 . S
O148 C132 1.215 . S
O149 Ho121 2.524 . S
O149 C132 1.289 . S
O150 Ho121 2.381 . S
O150 C139 1.275 . S
O151 Ho120 2.305 . S
O151 Ho121 2.669 . S
O151 C139 1.256 . S
H152 C125 0.930 . S
H153 C126 0.931 . S
H154 C128 0.934 . S
H155 C129 0.930 . S
H156 C134 0.930 . S
H157 C135 0.931 . S
H158 C137 0.934 . S
H159 C138 0.930 . S
Ho160 C163 2.811 . S
Ho160 O180 2.322 . S
Ho160 O182 2.378 . S
Ho160 O183 2.524 . S
Ho160 O184 2.381 . S
Ho160 O185 2.669 . S
Ho160 O187 2.346 . S
Ho160 O191 2.305 . S
Ho161 C172 2.811 . S
Ho161 O181 2.346 . S
Ho161 O185 2.305 . S
Ho161 O186 2.322 . S
Ho161 O188 2.378 . S
Ho161 O189 2.524 . S
Ho161 O190 2.381 . S
Ho161 O191 2.669 . S
C162 O180 1.259 . S
C162 O181 1.268 . S
C163 Ho160 2.811 . S
C163 C164 1.488 . S
C163 O182 1.215 . S
C163 O183 1.289 . S
C164 C163 1.488 . S
C164 C165 1.348 . S
C164 C169 1.413 . S
C165 C164 1.348 . S
C165 C166 1.442 . S
C165 H192 0.930 . S
C166 C165 1.442 . S
C166 C167 1.381 . S
C166 H193 0.931 . S
C167 C166 1.381 . S
C167 C168 1.321 . S
C168 C167 1.321 . S
C168 C169 1.403 . S
C168 H194 0.934 . S
C169 C164 1.413 . S
C169 C168 1.403 . S
C169 H195 0.930 . S
C170 O184 1.275 . S
C170 O185 1.256 . S
C171 O186 1.259 . S
C171 O187 1.268 . S
C172 Ho161 2.811 . S
C172 C173 1.488 . S
C172 O188 1.215 . S
C172 O189 1.289 . S
C173 C172 1.488 . S
C173 C174 1.348 . S
C173 C178 1.413 . S
C174 C173 1.348 . S
C174 C175 1.442 . S
C174 H196 0.930 . S
C175 C174 1.442 . S
C175 C176 1.381 . S
C175 H197 0.931 . S
C176 C175 1.381 . S
C176 C177 1.321 . S
C177 C176 1.321 . S
C177 C178 1.403 . S
C177 H198 0.934 . S
C178 C173 1.413 . S
C178 C177 1.403 . S
C178 H199 0.930 . S
C179 O190 1.275 . S
C179 O191 1.256 . S
O180 Ho160 2.322 . S
O180 C162 1.259 . S
O181 Ho161 2.346 . S
O181 C162 1.268 . S
O182 Ho160 2.378 . S
O182 C163 1.215 . S
O183 Ho160 2.524 . S
O183 C163 1.289 . S
O184 Ho160 2.381 . S
O184 C170 1.275 . S
O185 Ho160 2.669 . S
O185 Ho161 2.305 . S
O185 C170 1.256 . S
O186 Ho161 2.322 . S
O186 C171 1.259 . S
O187 Ho160 2.346 . S
O187 C171 1.268 . S
O188 Ho161 2.378 . S
O188 C172 1.215 . S
O189 Ho161 2.524 . S
O189 C172 1.289 . S
O190 Ho161 2.381 . S
O190 C179 1.275 . S
O191 Ho160 2.305 . S
O191 Ho161 2.669 . S
O191 C179 1.256 . S
H192 C165 0.930 . S
H193 C166 0.931 . S
H194 C168 0.934 . S
H195 C169 0.930 . S
H196 C174 0.930 . S
H197 C175 0.931 . S
H198 C177 0.934 . S
H199 C178 0.930 . S
Ho200 C203 2.811 . S
Ho200 O220 2.322 . S
Ho200 O222 2.378 . S
Ho200 O223 2.524 . S
Ho200 O224 2.381 . S
Ho200 O225 2.669 . S
Ho200 O227 2.346 . S
Ho200 O231 2.305 . S
Ho201 C212 2.811 . S
Ho201 O221 2.346 . S
Ho201 O225 2.305 . S
Ho201 O226 2.322 . S
Ho201 O228 2.378 . S
Ho201 O229 2.524 . S
Ho201 O230 2.381 . S
Ho201 O231 2.669 . S
C202 O220 1.259 . S
C202 O221 1.268 . S
C203 Ho200 2.811 . S
C203 C204 1.488 . S
C203 O222 1.215 . S
C203 O223 1.289 . S
C204 C203 1.488 . S
C204 C205 1.348 . S
C204 C209 1.413 . S
C205 C204 1.348 . S
C205 C206 1.442 . S
C205 H232 0.930 . S
C206 C205 1.442 . S
C206 C207 1.381 . S
C206 H233 0.931 . S
C207 C206 1.381 . S
C207 C208 1.321 . S
C208 C207 1.321 . S
C208 C209 1.403 . S
C208 H234 0.934 . S
C209 C204 1.413 . S
C209 C208 1.403 . S
C209 H235 0.930 . S
C210 O224 1.275 . S
C210 O225 1.256 . S
C211 O226 1.259 . S
C211 O227 1.268 . S
C212 Ho201 2.811 . S
C212 C213 1.488 . S
C212 O228 1.215 . S
C212 O229 1.289 . S
C213 C212 1.488 . S
C213 C214 1.348 . S
C213 C218 1.413 . S
C214 C213 1.348 . S
C214 C215 1.442 . S
C214 H236 0.930 . S
C215 C214 1.442 . S
C215 C216 1.381 . S
C215 H237 0.931 . S
C216 C215 1.381 . S
C216 C217 1.321 . S
C217 C216 1.321 . S
C217 C218 1.403 . S
C217 H238 0.934 . S
C218 C213 1.413 . S
C218 C217 1.403 . S
C218 H239 0.930 . S
C219 O230 1.275 . S
C219 O231 1.256 . S
O220 Ho200 2.322 . S
O220 C202 1.259 . S
O221 Ho201 2.346 . S
O221 C202 1.268 . S
O222 Ho200 2.378 . S
O222 C203 1.215 . S
O223 Ho200 2.524 . S
O223 C203 1.289 . S
O224 Ho200 2.381 . S
O224 C210 1.275 . S
O225 Ho200 2.669 . S
O225 Ho201 2.305 . S
O225 C210 1.256 . S
O226 Ho201 2.322 . S
O226 C211 1.259 . S
O227 Ho200 2.346 . S
O227 C211 1.268 . S
O228 Ho201 2.378 . S
O228 C212 1.215 . S
O229 Ho201 2.524 . S
O229 C212 1.289 . S
O230 Ho201 2.381 . S
O230 C219 1.275 . S
O231 Ho200 2.305 . S
O231 Ho201 2.669 . S
O231 C219 1.256 . S
H232 C205 0.930 . S
H233 C206 0.931 . S
H234 C208 0.934 . S
H235 C209 0.930 . S
H236 C214 0.930 . S
H237 C215 0.931 . S
H238 C217 0.934 . S
H239 C218 0.930 . S
Ho240 C243 2.811 . S
Ho240 O260 2.322 . S
Ho240 O262 2.378 . S
Ho240 O263 2.524 . S
Ho240 O264 2.381 . S
Ho240 O265 2.669 . S
Ho240 O267 2.346 . S
Ho240 O271 2.305 . S
Ho241 C252 2.811 . S
Ho241 O261 2.346 . S
Ho241 O265 2.305 . S
Ho241 O266 2.322 . S
Ho241 O268 2.378 . S
Ho241 O269 2.524 . S
Ho241 O270 2.381 . S
Ho241 O271 2.669 . S
C242 O260 1.259 . S
C242 O261 1.268 . S
C243 Ho240 2.811 . S
C243 C244 1.488 . S
C243 O262 1.215 . S
C243 O263 1.289 . S
C244 C243 1.488 . S
C244 C245 1.348 . S
C244 C249 1.413 . S
C245 C244 1.348 . S
C245 C246 1.442 . S
C245 H272 0.930 . S
C246 C245 1.442 . S
C246 C247 1.381 . S
C246 H273 0.931 . S
C247 C246 1.381 . S
C247 C248 1.321 . S
C248 C247 1.321 . S
C248 C249 1.403 . S
C248 H274 0.934 . S
C249 C244 1.413 . S
C249 C248 1.403 . S
C249 H275 0.930 . S
C250 O264 1.275 . S
C250 O265 1.256 . S
C251 O266 1.259 . S
C251 O267 1.268 . S
C252 Ho241 2.811 . S
C252 C253 1.493 . S
C252 O268 1.215 . S
C252 O269 1.289 . S
C253 C252 1.493 . S
C253 C254 1.346 1_556 S
C253 C258 1.410 1_556 S
C254 C253 1.346 1_554 S
C254 C255 1.442 . S
C254 H276 0.930 . S
C255 C254 1.442 . S
C255 C256 1.381 . S
C255 H277 0.931 . S
C256 C255 1.381 . S
C256 C257 1.321 . S
C257 C256 1.321 . S
C257 C258 1.403 . S
C257 H278 0.934 . S
C258 C253 1.410 1_554 S
C258 C257 1.403 . S
C258 H279 0.930 1_554 S
C259 O270 1.275 . S
C259 O271 1.256 . S
O260 Ho240 2.322 . S
O260 C242 1.259 . S
O261 Ho241 2.346 . S
O261 C242 1.268 . S
O262 Ho240 2.378 . S
O262 C243 1.215 . S
O263 Ho240 2.524 . S
O263 C243 1.289 . S
O264 Ho240 2.381 . S
O264 C250 1.275 . S
O265 Ho240 2.669 . S
O265 Ho241 2.305 . S
O265 C250 1.256 . S
O266 Ho241 2.322 . S
O266 C251 1.259 . S
O267 Ho240 2.346 . S
O267 C251 1.268 . S
O268 Ho241 2.378 . S
O268 C252 1.215 . S
O269 Ho241 2.524 . S
O269 C252 1.289 . S
O270 Ho241 2.381 . S
O270 C259 1.275 . S
O271 Ho240 2.305 . S
O271 Ho241 2.669 . S
O271 C259 1.256 . S
H272 C245 0.930 . S
H273 C246 0.931 . S
H274 C248 0.934 . S
H275 C249 0.930 . S
H276 C254 0.930 . S
H277 C255 0.931 . S
H278 C257 0.934 . S
H279 C258 0.930 1_556 S
Ho280 C283 2.811 . S
Ho280 O300 2.322 . S
Ho280 O302 2.378 . S
Ho280 O303 2.524 . S
Ho280 O304 2.381 . S
Ho280 O305 2.669 . S
Ho280 O307 2.346 . S
Ho280 O311 2.305 . S
Ho281 C292 2.811 . S
Ho281 O301 2.346 . S
Ho281 O305 2.305 . S
Ho281 O306 2.322 . S
Ho281 O308 2.378 . S
Ho281 O309 2.524 . S
Ho281 O310 2.381 . S
Ho281 O311 2.669 . S
C282 O300 1.259 . S
C282 O301 1.268 . S
C283 Ho280 2.811 . S
C283 C284 1.488 . S
C283 O302 1.215 . S
C283 O303 1.289 . S
C284 C283 1.488 . S
C284 C285 1.348 1_556 S
C284 C289 1.413 1_556 S
C285 C284 1.348 1_554 S
C285 C286 1.442 . S
C285 H312 0.930 . S
C286 C285 1.442 . S
C286 C287 1.381 . S
C286 H313 0.931 . S
C287 C286 1.381 . S
C287 C288 1.321 . S
C288 C287 1.321 . S
C288 C289 1.403 . S
C288 H314 0.934 . S
C289 C284 1.413 1_554 S
C289 C288 1.403 . S
C289 H315 0.930 1_554 S
C290 O304 1.275 . S
C290 O305 1.256 . S
C291 O306 1.259 . S
C291 O307 1.268 . S
C292 Ho281 2.811 . S
C292 C293 1.488 . S
C292 O308 1.215 . S
C292 O309 1.289 . S
C293 C292 1.488 . S
C293 C294 1.348 . S
C293 C298 1.413 . S
C294 C293 1.348 . S
C294 C295 1.442 . S
C294 H316 0.930 . S
C295 C294 1.442 . S
C295 C296 1.381 . S
C295 H317 0.931 . S
C296 C295 1.381 . S
C296 C297 1.321 . S
C297 C296 1.321 . S
C297 C298 1.403 . S
C297 H318 0.934 . S
C298 C293 1.413 . S
C298 C297 1.403 . S
C298 H319 0.930 . S
C299 O310 1.275 . S
C299 O311 1.256 . S
O300 Ho280 2.322 . S
O300 C282 1.259 . S
O301 Ho281 2.346 . S
O301 C282 1.268 . S
O302 Ho280 2.378 . S
O302 C283 1.215 . S
O303 Ho280 2.524 . S
O303 C283 1.289 . S
O304 Ho280 2.381 . S
O304 C290 1.275 . S
O305 Ho280 2.669 . S
O305 Ho281 2.305 . S
O305 C290 1.256 . S
O306 Ho281 2.322 . S
O306 C291 1.259 . S
O307 Ho280 2.346 . S
O307 C291 1.268 . S
O308 Ho281 2.378 . S
O308 C292 1.215 . S
O309 Ho281 2.524 . S
O309 C292 1.289 . S
O310 Ho281 2.381 . S
O310 C299 1.275 . S
O311 Ho280 2.305 . S
O311 Ho281 2.669 . S
O311 C299 1.256 . S
H312 C285 0.930 . S
H313 C286 0.931 . S
H314 C288 0.934 . S
H315 C289 0.930 1_556 S
H316 C294 0.930 . S
H317 C295 0.931 . S
H318 C297 0.934 . S
H319 C298 0.930 . S
Ho320 C323 2.811 . S
Ho320 O340 2.322 . S
Ho320 O342 2.378 . S
Ho320 O343 2.524 . S
Ho320 O344 2.381 . S
Ho320 O345 2.669 . S
Ho320 O347 2.346 . S
Ho320 O351 2.305 . S
Ho321 C332 2.811 . S
Ho321 O341 2.346 . S
Ho321 O345 2.305 . S
Ho321 O346 2.322 . S
Ho321 O348 2.378 . S
Ho321 O349 2.524 . S
Ho321 O350 2.381 . S
Ho321 O351 2.669 . S
C322 O340 1.259 . S
C322 O341 1.268 . S
C323 Ho320 2.811 . S
C323 C324 1.488 . S
C323 O342 1.215 . S
C323 O343 1.289 . S
C324 C323 1.488 . S
C324 C325 1.348 . S
C324 C329 1.413 . S
C325 C324 1.348 . S
C325 C326 1.442 . S
C325 H352 0.930 . S
C326 C325 1.442 . S
C326 C327 1.381 . S
C326 H353 0.931 . S
C327 C326 1.381 . S
C327 C328 1.321 . S
C328 C327 1.321 . S
C328 C329 1.403 . S
C328 H354 0.934 . S
C329 C324 1.413 . S
C329 C328 1.403 . S
C329 H355 0.930 . S
C330 O344 1.275 . S
C330 O345 1.256 . S
C331 O346 1.259 . S
C331 O347 1.268 . S
C332 Ho321 2.811 . S
C332 C333 1.488 1_556 S
C332 O348 1.215 . S
C332 O349 1.289 . S
C333 C332 1.488 1_554 S
C333 C334 1.348 . S
C333 C338 1.413 . S
C334 C333 1.348 . S
C334 C335 1.442 . S
C334 H356 0.930 . S
C335 C334 1.442 . S
C335 C336 1.381 . S
C335 H357 0.931 . S
C336 C335 1.381 . S
C336 C337 1.321 . S
C337 C336 1.321 . S
C337 C338 1.403 . S
C337 H358 0.934 . S
C338 C333 1.413 . S
C338 C337 1.403 . S
C338 H359 0.930 . S
C339 O350 1.275 . S
C339 O351 1.256 . S
O340 Ho320 2.322 . S
O340 C322 1.259 . S
O341 Ho321 2.346 . S
O341 C322 1.268 . S
O342 Ho320 2.378 . S
O342 C323 1.215 . S
O343 Ho320 2.524 . S
O343 C323 1.289 . S
O344 Ho320 2.381 . S
O344 C330 1.275 . S
O345 Ho320 2.669 . S
O345 Ho321 2.305 . S
O345 C330 1.256 . S
O346 Ho321 2.322 . S
O346 C331 1.259 . S
O347 Ho320 2.346 . S
O347 C331 1.268 . S
O348 Ho321 2.378 . S
O348 C332 1.215 . S
O349 Ho321 2.524 . S
O349 C332 1.289 . S
O350 Ho321 2.381 . S
O350 C339 1.275 . S
O351 Ho320 2.305 . S
O351 Ho321 2.669 . S
O351 C339 1.256 . S
H352 C325 0.930 . S
H353 C326 0.931 . S
H354 C328 0.934 . S
H355 C329 0.930 . S
H356 C334 0.930 . S
H357 C335 0.931 . S
H358 C337 0.934 . S
H359 C338 0.930 . S
H360 C368 0.950 . S
H361 C373 0.950 . S
H362 C370 0.950 . S
H363 C372 0.950 . S
H364 C374 0.950 . S
H365 C376 0.950 . S
H366 C378 0.950 . S
H367 C379 0.950 . S
C368 H360 0.950 . S
C368 C369 1.386 . S
C368 C370 1.391 . S
C369 C368 1.386 . S
C369 C373 1.393 . S
C370 H362 0.950 . S
C370 C368 1.391 . S
C370 C371 1.400 . S
C371 C370 1.400 . S
C371 C372 1.398 . S
C371 C377 1.491 . S
C372 H363 0.950 . S
C372 C371 1.398 . S
C372 C373 1.391 . S
C373 H361 0.950 . S
C373 C369 1.393 . S
C373 C372 1.391 . S
C374 H364 0.950 . S
C374 C375 1.386 . S
C374 C376 1.391 . S
C375 C374 1.386 . S
C375 C379 1.393 . S
C376 H365 0.950 . S
C376 C374 1.391 . S
C376 C377 1.400 . S
C377 C371 1.491 . S
C377 C376 1.400 . S
C377 C378 1.398 . S
C378 H366 0.950 . S
C378 C377 1.398 . S
C378 C379 1.391 . S
C379 H367 0.950 . S
C379 C375 1.393 . S
C379 C378 1.391 . S
H380 C388 0.950 . S
H381 C393 0.950 . S
H382 C390 0.950 . S
H383 C392 0.950 . S
H384 C394 0.950 . S
H385 C396 0.950 . S
H386 C398 0.950 . S
H387 C399 0.950 . S
C388 H380 0.950 . S
C388 C389 1.386 . S
C388 C390 1.391 . S
C389 C388 1.386 . S
C389 C393 1.393 . S
C390 H382 0.950 . S
C390 C388 1.391 . S
C390 C391 1.400 . S
C391 C390 1.400 . S
C391 C392 1.398 . S
C391 C397 1.491 . S
C392 H383 0.950 . S
C392 C391 1.398 . S
C392 C393 1.391 . S
C393 H381 0.950 . S
C393 C389 1.393 . S
C393 C392 1.391 . S
C394 H384 0.950 . S
C394 C395 1.386 . S
C394 C396 1.391 . S
C395 C394 1.386 . S
C395 C399 1.393 . S
C396 H385 0.950 . S
C396 C394 1.391 . S
C396 C397 1.400 . S
C397 C391 1.491 . S
C397 C396 1.400 . S
C397 C398 1.398 . S
C398 H386 0.950 . S
C398 C397 1.398 . S
C398 C399 1.391 . S
C399 H387 0.950 . S
C399 C395 1.393 . S
C399 C398 1.391 . S
H400 C408 0.950 . S
H401 C413 0.950 . S
H402 C410 0.950 . S
H403 C412 0.950 . S
H404 C414 0.950 . S
H405 C416 0.950 . S
H406 C418 0.950 . S
H407 C419 0.950 . S
C408 H400 0.950 . S
C408 C409 1.386 . S
C408 C410 1.391 . S
C409 C408 1.386 . S
C409 C413 1.393 . S
C410 H402 0.950 . S
C410 C408 1.391 . S
C410 C411 1.400 . S
C411 C410 1.400 . S
C411 C412 1.398 . S
C411 C417 1.491 . S
C412 H403 0.950 . S
C412 C411 1.398 . S
C412 C413 1.391 . S
C413 H401 0.950 . S
C413 C409 1.393 . S
C413 C412 1.391 . S
C414 H404 0.950 . S
C414 C415 1.386 . S
C414 C416 1.391 . S
C415 C414 1.386 . S
C415 C419 1.393 . S
C416 H405 0.950 . S
C416 C414 1.391 . S
C416 C417 1.400 . S
C417 C411 1.491 . S
C417 C416 1.400 . S
C417 C418 1.398 . S
C418 H406 0.950 . S
C418 C417 1.398 . S
C418 C419 1.391 . S
C419 H407 0.950 . S
C419 C415 1.393 . S
C419 C418 1.391 . S
H420 C428 0.950 . S
H421 C433 0.950 . S
H422 C430 0.950 . S
H423 C432 0.950 . S
H424 C434 0.950 . S
H425 C436 0.950 . S
H426 C438 0.950 . S
H427 C439 0.950 1_554 S
C428 H420 0.950 . S
C428 C429 1.386 . S
C428 C430 1.391 . S
C429 C428 1.386 . S
C429 C433 1.393 . S
C430 H422 0.950 . S
C430 C428 1.391 . S
C430 C431 1.400 . S
C431 C430 1.400 . S
C431 C432 1.398 . S
C431 C437 1.491 . S
C432 H423 0.950 . S
C432 C431 1.398 . S
C432 C433 1.391 . S
C433 H421 0.950 . S
C433 C429 1.393 . S
C433 C432 1.391 . S
C434 H424 0.950 . S
C434 C435 1.386 1_556 S
C434 C436 1.391 . S
C435 C434 1.386 1_554 S
C435 C439 1.393 1_554 S
C436 H425 0.950 . S
C436 C434 1.391 . S
C436 C437 1.400 . S
C437 C431 1.491 . S
C437 C436 1.400 . S
C437 C438 1.398 . S
C438 H426 0.950 . S
C438 C437 1.398 . S
C438 C439 1.391 . S
C439 H427 0.950 1_556 S
C439 C435 1.393 1_556 S
C439 C438 1.391 . S
H440 C448 0.950 . S
H441 C453 0.950 . S
H442 C450 0.950 . S
H443 C452 0.950 . S
H444 C454 0.950 . S
H445 C456 0.950 . S
H446 C458 0.950 . S
H447 C459 0.950 . S
C448 H440 0.950 . S
C448 C449 1.386 . S
C448 C450 1.391 . S
C449 C448 1.386 . S
C449 C453 1.393 . S
C450 H442 0.950 . S
C450 C448 1.391 . S
C450 C451 1.400 . S
C451 C450 1.400 . S
C451 C452 1.398 . S
C451 C457 1.491 . S
C452 H443 0.950 . S
C452 C451 1.398 . S
C452 C453 1.391 . S
C453 H441 0.950 . S
C453 C449 1.393 . S
C453 C452 1.391 . S
C454 H444 0.950 . S
C454 C455 1.386 . S
C454 C456 1.391 . S
C455 C454 1.386 . S
C455 C459 1.393 . S
C456 H445 0.950 . S
C456 C454 1.391 . S
C456 C457 1.400 . S
C457 C451 1.491 . S
C457 C456 1.400 . S
C457 C458 1.398 . S
C458 H446 0.950 . S
C458 C457 1.398 . S
C458 C459 1.391 . S
C459 H447 0.950 . S
C459 C455 1.393 . S
C459 C458 1.391 . S
H460 C468 0.950 . S
H461 C473 0.950 . S
H462 C470 0.950 . S
H463 C472 0.950 . S
H464 C474 0.950 . S
H465 C476 0.950 . S
H466 C478 0.950 . S
H467 C479 0.950 . S
C468 H460 0.950 . S
C468 C469 1.386 . S
C468 C470 1.391 . S
C469 C468 1.386 . S
C469 C473 1.393 . S
C470 H462 0.950 . S
C470 C468 1.391 . S
C470 C471 1.400 . S
C471 C470 1.400 . S
C471 C472 1.398 . S
C471 C477 1.491 . S
C472 H463 0.950 . S
C472 C471 1.398 . S
C472 C473 1.391 . S
C473 H461 0.950 . S
C473 C469 1.393 . S
C473 C472 1.391 . S
C474 H464 0.950 . S
C474 C475 1.386 . S
C474 C476 1.391 . S
C475 C474 1.386 . S
C475 C479 1.393 . S
C476 H465 0.950 . S
C476 C474 1.391 . S
C476 C477 1.400 . S
C477 C471 1.491 . S
C477 C476 1.400 . S
C477 C478 1.398 . S
C478 H466 0.950 . S
C478 C477 1.398 . S
C478 C479 1.391 . S
C479 H467 0.950 . S
C479 C475 1.393 . S
C479 C478 1.391 . S
H480 C488 0.950 . S
H481 C493 0.950 . S
H482 C490 0.950 . S
H483 C492 0.950 . S
H484 C494 0.950 . S
H485 C496 0.950 . S
H486 C498 0.950 . S
H487 C499 0.950 . S
C488 H480 0.950 . S
C488 C489 1.386 . S
C488 C490 1.391 . S
C489 C488 1.386 . S
C489 C493 1.393 . S
C490 H482 0.950 . S
C490 C488 1.391 . S
C490 C491 1.400 . S
C491 C490 1.400 . S
C491 C492 1.398 . S
C491 C497 1.491 . S
C492 H483 0.950 . S
C492 C491 1.398 . S
C492 C493 1.391 . S
C493 H481 0.950 . S
C493 C489 1.393 . S
C493 C492 1.391 . S
C494 H484 0.950 . S
C494 C495 1.386 . S
C494 C496 1.391 . S
C495 C494 1.386 . S
C495 C499 1.393 . S
C496 H485 0.950 . S
C496 C494 1.391 . S
C496 C497 1.400 . S
C497 C491 1.491 . S
C497 C496 1.400 . S
C497 C498 1.398 . S
C498 H486 0.950 . S
C498 C497 1.398 . S
C498 C499 1.391 . S
C499 H487 0.950 . S
C499 C495 1.393 . S
C499 C498 1.391 . S
H500 C508 0.950 . S
H501 C513 0.950 . S
H502 C510 0.950 . S
H503 C512 0.950 . S
H504 C514 0.950 . S
H505 C516 0.950 . S
H506 C518 0.950 . S
H507 C519 0.950 . S
C508 H500 0.950 . S
C508 C509 1.386 . S
C508 C510 1.391 . S
C509 C508 1.386 . S
C509 C513 1.393 . S
C510 H502 0.950 . S
C510 C508 1.391 . S
C510 C511 1.400 . S
C511 C510 1.400 . S
C511 C512 1.398 . S
C511 C517 1.491 . S
C512 H503 0.950 . S
C512 C511 1.398 . S
C512 C513 1.391 . S
C513 H501 0.950 . S
C513 C509 1.393 . S
C513 C512 1.391 . S
C514 H504 0.950 . S
C514 C515 1.386 . S
C514 C516 1.391 . S
C515 C514 1.386 . S
C515 C519 1.393 . S
C516 H505 0.950 . S
C516 C514 1.391 . S
C516 C517 1.400 . S
C517 C511 1.491 . S
C517 C516 1.400 . S
C517 C518 1.398 . S
C518 H506 0.950 . S
C518 C517 1.398 . S
C518 C519 1.391 . S
C519 H507 0.950 . S
C519 C515 1.393 . S
C519 C518 1.391 . S
H520 C528 0.950 . S
H521 C533 0.950 . S
H522 C530 0.950 . S
H523 C532 0.950 . S
H524 C534 0.950 . S
H525 C536 0.950 . S
H526 C538 0.950 . S
H527 C539 0.950 . S
C528 H520 0.950 . S
C528 C529 1.386 . S
C528 C530 1.391 . S
C529 C528 1.386 . S
C529 C533 1.393 . S
C530 H522 0.950 . S
C530 C528 1.391 . S
C530 C531 1.400 . S
C531 C530 1.400 . S
C531 C532 1.398 . S
C531 C537 1.491 . S
C532 H523 0.950 . S
C532 C531 1.398 . S
C532 C533 1.391 . S
C533 H521 0.950 . S
C533 C529 1.393 . S
C533 C532 1.391 . S
C534 H524 0.950 . S
C534 C535 1.386 . S
C534 C536 1.391 . S
C535 C534 1.386 . S
C535 C539 1.393 . S
C536 H525 0.950 . S
C536 C534 1.391 . S
C536 C537 1.400 . S
C537 C531 1.491 . S
C537 C536 1.400 . S
C537 C538 1.398 . S
C538 H526 0.950 . S
C538 C537 1.398 . S
C538 C539 1.391 . S
C539 H527 0.950 . S
C539 C535 1.393 . S
C539 C538 1.391 . S
H540 C548 0.950 . S
H541 C553 0.950 . S
H542 C550 0.950 . S
H543 C552 0.950 . S
H544 C554 0.950 . S
H545 C556 0.950 . S
H546 C558 0.950 . S
H547 C559 0.950 . S
C548 H540 0.950 . S
C548 C549 1.386 . S
C548 C550 1.391 . S
C549 C548 1.386 . S
C549 C553 1.393 . S
C550 H542 0.950 . S
C550 C548 1.391 . S
C550 C551 1.400 . S
C551 C550 1.400 . S
C551 C552 1.398 . S
C551 C557 1.491 . S
C552 H543 0.950 . S
C552 C551 1.398 . S
C552 C553 1.391 . S
C553 H541 0.950 . S
C553 C549 1.393 . S
C553 C552 1.391 . S
C554 H544 0.950 . S
C554 C555 1.386 . S
C554 C556 1.391 . S
C555 C554 1.386 . S
C555 C559 1.393 . S
C556 H545 0.950 . S
C556 C554 1.391 . S
C556 C557 1.400 . S
C557 C551 1.491 . S
C557 C556 1.400 . S
C557 C558 1.398 . S
C558 H546 0.950 . S
C558 C557 1.398 . S
C558 C559 1.391 . S
C559 H547 0.950 . S
C559 C555 1.393 . S
C559 C558 1.391 . S
H560 C568 0.950 . S
H561 C573 0.950 . S
H562 C570 0.950 . S
H563 C572 0.950 . S
H564 C574 0.950 . S
H565 C576 0.950 . S
H566 C578 0.950 . S
H567 C579 0.950 . S
C568 H560 0.950 . S
C568 C569 1.386 . S
C568 C570 1.391 . S
C569 C568 1.386 . S
C569 C573 1.393 . S
C570 H562 0.950 . S
C570 C568 1.391 . S
C570 C571 1.400 . S
C571 C570 1.400 . S
C571 C572 1.398 . S
C571 C577 1.491 . S
C572 H563 0.950 . S
C572 C571 1.398 . S
C572 C573 1.391 . S
C573 H561 0.950 . S
C573 C569 1.393 . S
C573 C572 1.391 . S
C574 H564 0.950 . S
C574 C575 1.386 . S
C574 C576 1.391 . S
C575 C574 1.386 . S
C575 C579 1.393 . S
C576 H565 0.950 . S
C576 C574 1.391 . S
C576 C577 1.400 . S
C577 C571 1.491 . S
C577 C576 1.400 . S
C577 C578 1.398 . S
C578 H566 0.950 . S
C578 C577 1.398 . S
C578 C579 1.391 . S
C579 H567 0.950 . S
C579 C575 1.393 . S
C579 C578 1.391 . S
H580 C588 0.950 . S
H581 C593 0.950 . S
H582 C590 0.950 . S
H583 C592 0.950 . S
H584 C594 0.950 . S
H585 C596 0.950 . S
H586 C598 0.950 . S
H587 C599 0.950 . S
C588 H580 0.950 . S
C588 C589 1.386 . S
C588 C590 1.391 . S
C589 C588 1.386 . S
C589 C593 1.393 . S
C590 H582 0.950 . S
C590 C588 1.391 . S
C590 C591 1.400 1_545 S
C591 C590 1.400 1_565 S
C591 C592 1.398 . S
C591 C597 1.491 . S
C592 H583 0.950 . S
C592 C591 1.398 . S
C592 C593 1.391 1_565 S
C593 H581 0.950 . S
C593 C589 1.393 . S
C593 C592 1.391 1_545 S
C594 H584 0.950 . S
C594 C595 1.386 . S
C594 C596 1.391 . S
C595 C594 1.386 . S
C595 C599 1.393 . S
C596 H585 0.950 . S
C596 C594 1.391 . S
C596 C597 1.400 . S
C597 C591 1.491 . S
C597 C596 1.400 . S
C597 C598 1.398 . S
C598 H586 0.950 . S
C598 C597 1.398 . S
C598 C599 1.391 . S
C599 H587 0.950 . S
C599 C595 1.393 . S
C599 C598 1.391 . S
H600 C608 0.950 . S
H601 C613 0.950 1_556 S
H602 C610 0.950 . S
H603 C612 0.950 . S
H604 C614 0.950 . S
H605 C616 0.950 . S
H606 C618 0.950 1_554 S
H607 C619 0.950 . S
C608 H600 0.950 . S
C608 C609 1.386 . S
C608 C610 1.391 . S
C609 C608 1.386 . S
C609 C613 1.393 . S
C610 H602 0.950 . S
C610 C608 1.391 . S
C610 C611 1.400 1_554 S
C611 C610 1.400 1_556 S
C611 C612 1.398 . S
C611 C617 1.491 . S
C612 H603 0.950 . S
C612 C611 1.398 . S
C612 C613 1.391 1_556 S
C613 H601 0.950 1_554 S
C613 C609 1.393 . S
C613 C612 1.391 1_554 S
C614 H604 0.950 . S
C614 C615 1.386 . S
C614 C616 1.391 . S
C615 C614 1.386 . S
C615 C619 1.393 . S
C616 H605 0.950 . S
C616 C614 1.391 . S
C616 C617 1.400 . S
C617 C611 1.491 . S
C617 C616 1.400 . S
C617 C618 1.398 . S
C618 H606 0.950 1_556 S
C618 C617 1.398 . S
C618 C619 1.391 . S
C619 H607 0.950 . S
C619 C615 1.393 . S
C619 C618 1.391 . S
H620 C628 0.950 . S
H621 C633 0.950 . S
H622 C630 0.950 . S
H623 C632 0.950 . S
H624 C634 0.950 . S
H625 C636 0.950 . S
H626 C638 0.950 . S
H627 C639 0.950 . S
C628 H620 0.950 . S
C628 C629 1.386 . S
C628 C630 1.391 . S
C629 C628 1.386 . S
C629 C633 1.393 . S
C630 H622 0.950 . S
C630 C628 1.391 . S
C630 C631 1.400 . S
C631 C630 1.400 . S
C631 C632 1.398 . S
C631 C637 1.491 . S
C632 H623 0.950 . S
C632 C631 1.398 . S
C632 C633 1.391 . S
C633 H621 0.950 . S
C633 C629 1.393 . S
C633 C632 1.391 . S
C634 H624 0.950 . S
C634 C635 1.386 1_655 S
C634 C636 1.391 1_554 S
C635 C634 1.386 1_455 S
C635 C639 1.393 1_554 S
C636 H625 0.950 . S
C636 C634 1.391 1_556 S
C636 C637 1.400 . S
C637 C631 1.491 . S
C637 C636 1.400 . S
C637 C638 1.398 1_655 S
C638 H626 0.950 . S
C638 C637 1.398 1_455 S
C638 C639 1.391 . S
C639 H627 0.950 . S
C639 C635 1.393 1_556 S
C639 C638 1.391 . S
H640 C648 0.950 . S
H641 C653 0.950 . S
H642 C650 0.950 . S
H643 C652 0.950 . S
H644 C654 0.950 . S
H645 C656 0.950 . S
H646 C658 0.950 . S
H647 C659 0.950 . S
C648 H640 0.950 . S
C648 C649 1.386 . S
C648 C650 1.391 . S
C649 C648 1.386 . S
C649 C653 1.393 . S
C650 H642 0.950 . S
C650 C648 1.391 . S
C650 C651 1.400 . S
C651 C650 1.400 . S
C651 C652 1.398 . S
C651 C657 1.491 . S
C652 H643 0.950 . S
C652 C651 1.398 . S
C652 C653 1.391 . S
C653 H641 0.950 . S
C653 C649 1.393 . S
C653 C652 1.391 . S
C654 H644 0.950 . S
C654 C655 1.386 . S
C654 C656 1.391 1_554 S
C655 C654 1.386 . S
C655 C659 1.393 . S
C656 H645 0.950 . S
C656 C654 1.391 1_556 S
C656 C657 1.400 . S
C657 C651 1.491 . S
C657 C656 1.400 . S
C657 C658 1.398 1_556 S
C658 H646 0.950 . S
C658 C657 1.398 1_554 S
C658 C659 1.391 . S
C659 H647 0.950 . S
C659 C655 1.393 . S
C659 C658 1.391 . S
H660 C668 0.950 . S
H661 C673 0.950 . S
H662 C670 0.950 . S
H663 C672 0.950 . S
H664 C674 0.950 . S
H665 C676 0.950 . S
H666 C678 0.950 . S
H667 C679 0.950 . S
C668 H660 0.950 . S
C668 C669 1.386 . S
C668 C670 1.391 . S
C669 C668 1.386 . S
C669 C673 1.393 . S
C670 H662 0.950 . S
C670 C668 1.391 . S
C670 C671 1.400 . S
C671 C670 1.400 . S
C671 C672 1.398 . S
C671 C677 1.491 . S
C672 H663 0.950 . S
C672 C671 1.398 . S
C672 C673 1.391 . S
C673 H661 0.950 . S
C673 C669 1.393 . S
C673 C672 1.391 . S
C674 H664 0.950 . S
C674 C675 1.386 . S
C674 C676 1.391 . S
C675 C674 1.386 . S
C675 C679 1.393 1_556 S
C676 H665 0.950 . S
C676 C674 1.391 . S
C676 C677 1.400 . S
C677 C671 1.491 . S
C677 C676 1.400 . S
C677 C678 1.398 . S
C678 H666 0.950 . S
C678 C677 1.398 . S
C678 C679 1.391 1_556 S
C679 H667 0.950 . S
C679 C675 1.393 1_554 S
C679 C678 1.391 1_554 S
H680 C688 0.950 . S
H681 C693 0.950 . S
H682 C690 0.950 . S
H683 C692 0.950 . S
H684 C694 0.950 . S
H685 C696 0.950 . S
H686 C698 0.950 . S
H687 C699 0.950 . S
C688 H680 0.950 . S
C688 C689 1.386 1_556 S
C688 C690 1.391 . S
C689 C688 1.386 1_554 S
C689 C693 1.393 . S
C690 H682 0.950 . S
C690 C688 1.391 . S
C690 C691 1.400 . S
C691 C690 1.400 . S
C691 C692 1.398 1_556 S
C691 C697 1.491 . S
C692 H683 0.950 . S
C692 C691 1.398 1_554 S
C692 C693 1.391 . S
C693 H681 0.950 . S
C693 C689 1.393 . S
C693 C692 1.391 . S
C694 H684 0.950 . S
C694 C695 1.386 . S
C694 C696 1.391 . S
C695 C694 1.386 . S
C695 C699 1.393 . S
C696 H685 0.950 . S
C696 C694 1.391 . S
C696 C697 1.400 . S
C697 C691 1.491 . S
C697 C696 1.400 . S
C697 C698 1.398 . S
C698 H686 0.950 . S
C698 C697 1.398 . S
C698 C699 1.391 . S
C699 H687 0.950 . S
C699 C695 1.393 . S
C699 C698 1.391 . S
H700 C708 0.950 . S
H701 C713 0.950 . S
H702 C710 0.950 1_554 S
H703 C712 0.950 . S
H704 C714 0.950 . S
H705 C716 0.950 . S
H706 C718 0.950 . S
H707 C719 0.950 . S
C708 H700 0.950 . S
C708 C709 1.386 . S
C708 C710 1.391 . S
C709 C708 1.386 . S
C709 C713 1.393 . S
C710 H702 0.950 1_556 S
C710 C708 1.391 . S
C710 C711 1.400 . S
C711 C710 1.400 . S
C711 C712 1.398 . S
C711 C717 1.491 1_556 S
C712 H703 0.950 . S
C712 C711 1.398 . S
C712 C713 1.391 . S
C713 H701 0.950 . S
C713 C709 1.393 . S
C713 C712 1.391 . S
C714 H704 0.950 . S
C714 C715 1.386 . S
C714 C716 1.391 1_554 S
C715 C714 1.386 . S
C715 C719 1.393 . S
C716 H705 0.950 . S
C716 C714 1.391 1_556 S
C716 C717 1.400 1_556 S
C717 C711 1.491 1_554 S
C717 C716 1.400 1_554 S
C717 C718 1.398 . S
C718 H706 0.950 . S
C718 C717 1.398 . S
C718 C719 1.391 . S
C719 H707 0.950 . S
C719 C715 1.393 . S
C719 C718 1.391 . S
H720 C728 0.950 . S
H721 C733 0.950 . S
H722 C730 0.950 . S
H723 C732 0.950 . S
H724 C734 0.950 . S
H725 C736 0.950 . S
H726 C738 0.950 . S
H727 C739 0.950 . S
C728 H720 0.950 . S
C728 C729 1.386 . S
C728 C730 1.391 . S
C729 C728 1.386 . S
C729 C733 1.393 . S
C730 H722 0.950 . S
C730 C728 1.391 . S
C730 C731 1.400 . S
C731 C730 1.400 . S
C731 C732 1.398 . S
C731 C737 1.491 . S
C732 H723 0.950 . S
C732 C731 1.398 . S
C732 C733 1.391 . S
C733 H721 0.950 . S
C733 C729 1.393 . S
C733 C732 1.391 . S
C734 H724 0.950 . S
C734 C735 1.386 . S
C734 C736 1.391 . S
C735 C734 1.386 . S
C735 C739 1.393 1_565 S
C736 H725 0.950 . S
C736 C734 1.391 . S
C736 C737 1.400 1_565 S
C737 C731 1.491 . S
C737 C736 1.400 1_545 S
C737 C738 1.398 . S
C738 H726 0.950 . S
C738 C737 1.398 . S
C738 C739 1.391 . S
C739 H727 0.950 . S
C739 C735 1.393 1_545 S
C739 C738 1.391 . S
H740 C748 0.950 . S
H741 C753 0.950 . S
H742 C750 0.950 . S
H743 C752 0.950 . S
H744 C754 0.950 . S
H745 C756 0.950 . S
H746 C758 0.950 . S
H747 C759 0.950 . S
C748 H740 0.950 . S
C748 C749 1.386 . S
C748 C750 1.391 . S
C749 C748 1.386 . S
C749 C753 1.393 . S
C750 H742 0.950 . S
C750 C748 1.391 . S
C750 C751 1.400 . S
C751 C750 1.400 . S
C751 C752 1.398 . S
C751 C757 1.491 . S
C752 H743 0.950 . S
C752 C751 1.398 . S
C752 C753 1.391 . S
C753 H741 0.950 . S
C753 C749 1.393 . S
C753 C752 1.391 . S
C754 H744 0.950 . S
C754 C755 1.386 . S
C754 C756 1.391 . S
C755 C754 1.386 . S
C755 C759 1.393 . S
C756 H745 0.950 . S
C756 C754 1.391 . S
C756 C757 1.400 . S
C757 C751 1.491 . S
C757 C756 1.400 . S
C757 C758 1.398 . S
C758 H746 0.950 . S
C758 C757 1.398 . S
C758 C759 1.391 . S
C759 H747 0.950 . S
C759 C755 1.393 . S
C759 C758 1.391 . S
H760 C768 0.950 . S
H761 C773 0.950 . S
H762 C770 0.950 . S
H763 C772 0.950 . S
H764 C774 0.950 . S
H765 C776 0.950 . S
H766 C778 0.950 . S
H767 C779 0.950 . S
C768 H760 0.950 . S
C768 C769 1.386 . S
C768 C770 1.391 . S
C769 C768 1.386 . S
C769 C773 1.393 . S
C770 H762 0.950 . S
C770 C768 1.391 . S
C770 C771 1.400 . S
C771 C770 1.400 . S
C771 C772 1.398 . S
C771 C777 1.491 . S
C772 H763 0.950 . S
C772 C771 1.398 . S
C772 C773 1.391 . S
C773 H761 0.950 . S
C773 C769 1.393 . S
C773 C772 1.391 . S
C774 H764 0.950 . S
C774 C775 1.386 . S
C774 C776 1.391 . S
C775 C774 1.386 . S
C775 C779 1.393 . S
C776 H765 0.950 . S
C776 C774 1.391 . S
C776 C777 1.400 . S
C777 C771 1.491 . S
C777 C776 1.400 . S
C777 C778 1.398 . S
C778 H766 0.950 . S
C778 C777 1.398 . S
C778 C779 1.391 . S
C779 H767 0.950 . S
C779 C775 1.393 . S
C779 C778 1.391 . S
H780 C788 0.950 . S
H781 C793 0.950 . S
H782 C790 0.950 . S
H783 C792 0.950 . S
H784 C794 0.950 . S
H785 C796 0.950 . S
H786 C798 0.950 . S
H787 C799 0.950 . S
C788 H780 0.950 . S
C788 C789 1.386 . S
C788 C790 1.391 . S
C789 C788 1.386 . S
C789 C793 1.393 . S
C790 H782 0.950 . S
C790 C788 1.391 . S
C790 C791 1.400 . S
C791 C790 1.400 . S
C791 C792 1.398 . S
C791 C797 1.491 . S
C792 H783 0.950 . S
C792 C791 1.398 . S
C792 C793 1.391 . S
C793 H781 0.950 . S
C793 C789 1.393 . S
C793 C792 1.391 . S
C794 H784 0.950 . S
C794 C795 1.386 . S
C794 C796 1.391 . S
C795 C794 1.386 . S
C795 C799 1.393 . S
C796 H785 0.950 . S
C796 C794 1.391 . S
C796 C797 1.400 . S
C797 C791 1.491 . S
C797 C796 1.400 . S
C797 C798 1.398 . S
C798 H786 0.950 . S
C798 C797 1.398 . S
C798 C799 1.391 . S
C799 H787 0.950 . S
C799 C795 1.393 . S
C799 C798 1.391 . S
H800 C808 0.950 . S
H801 C813 0.950 . S
H802 C810 0.950 . S
H803 C812 0.950 . S
H804 C814 0.950 . S
H805 C816 0.950 1_545 S
H806 C818 0.950 . S
H807 C819 0.950 . S
C808 H800 0.950 . S
C808 C809 1.386 . S
C808 C810 1.391 . S
C809 C808 1.386 . S
C809 C813 1.393 . S
C810 H802 0.950 . S
C810 C808 1.391 . S
C810 C811 1.400 . S
C811 C810 1.400 . S
C811 C812 1.398 . S
C811 C817 1.491 1_545 S
C812 H803 0.950 . S
C812 C811 1.398 . S
C812 C813 1.391 . S
C813 H801 0.950 . S
C813 C809 1.393 . S
C813 C812 1.391 . S
C814 H804 0.950 . S
C814 C815 1.386 . S
C814 C816 1.391 . S
C815 C814 1.386 . S
C815 C819 1.393 . S
C816 H805 0.950 1_565 S
C816 C814 1.391 . S
C816 C817 1.400 . S
C817 C811 1.491 1_565 S
C817 C816 1.400 . S
C817 C818 1.398 . S
C818 H806 0.950 . S
C818 C817 1.398 . S
C818 C819 1.391 . S
C819 H807 0.950 . S
C819 C815 1.393 . S
C819 C818 1.391 . S
H820 C828 0.950 . S
H821 C833 0.943 1_455 S
H822 C830 0.950 . S
H823 C832 0.950 . S
H824 C834 0.950 . S
H825 C836 0.950 . S
H826 C838 0.950 . S
H827 C839 0.958 . S
C828 H820 0.950 . S
C828 C829 1.386 . S
C828 C830 1.391 . S
C829 C828 1.386 . S
C829 C833 1.449 . S
C830 H822 0.950 . S
C830 C828 1.391 . S
C830 C831 1.400 . S
C831 C830 1.400 . S
C831 C832 1.398 1_655 S
C831 C837 1.491 1_655 S
C832 H823 0.950 . S
C832 C831 1.398 1_455 S
C832 C833 1.344 1_455 S
C833 H821 0.943 1_655 S
C833 C829 1.449 . S
C833 C832 1.344 1_655 S
C834 H824 0.950 . S
C834 C835 1.386 . S
C834 C836 1.391 . S
C835 C834 1.386 . S
C835 C839 1.393 . S
C836 H825 0.950 . S
C836 C834 1.391 . S
C836 C837 1.400 . S
C837 C831 1.491 1_455 S
C837 C836 1.400 . S
C837 C838 1.398 1_455 S
C838 H826 0.950 . S
C838 C837 1.398 1_655 S
C838 C839 1.391 1_655 S
C839 H827 0.958 . S
C839 C835 1.393 . S
C839 C838 1.391 1_455 S
H840 C848 0.950 . S
H841 C853 0.950 . S
H842 C850 0.950 . S
H843 C852 0.950 . S
H844 C854 0.950 . S
H845 C856 0.950 . S
H846 C858 0.950 . S
H847 C859 0.950 . S
C848 H840 0.950 . S
C848 C849 1.386 . S
C848 C850 1.391 . S
C849 C848 1.386 . S
C849 C853 1.393 . S
C850 H842 0.950 . S
C850 C848 1.391 . S
C850 C851 1.400 . S
C851 C850 1.400 . S
C851 C852 1.398 . S
C851 C857 1.491 . S
C852 H843 0.950 . S
C852 C851 1.398 . S
C852 C853 1.391 . S
C853 H841 0.950 . S
C853 C849 1.393 . S
C853 C852 1.391 . S
C854 H844 0.950 . S
C854 C855 1.386 . S
C854 C856 1.391 . S
C855 C854 1.386 . S
C855 C859 1.393 . S
C856 H845 0.950 . S
C856 C854 1.391 . S
C856 C857 1.400 . S
C857 C851 1.491 . S
C857 C856 1.400 . S
C857 C858 1.398 . S
C858 H846 0.950 . S
C858 C857 1.398 . S
C858 C859 1.391 . S
C859 H847 0.950 . S
C859 C855 1.393 . S
C859 C858 1.391 . S
H860 C868 0.950 . S
H861 C873 0.950 . S
H862 C870 0.950 . S
H863 C872 0.950 1_545 S
H864 C874 0.950 . S
H865 C876 0.950 . S
H866 C878 0.950 . S
H867 C879 0.950 . S
C868 H860 0.950 . S
C868 C869 1.386 . S
C868 C870 1.391 . S
C869 C868 1.386 . S
C869 C873 1.393 . S
C870 H862 0.950 . S
C870 C868 1.391 . S
C870 C871 1.400 1_565 S
C871 C870 1.400 1_545 S
C871 C872 1.398 1_545 S
C871 C877 1.491 . S
C872 H863 0.950 1_565 S
C872 C871 1.398 1_565 S
C872 C873 1.391 . S
C873 H861 0.950 . S
C873 C869 1.393 . S
C873 C872 1.391 . S
C874 H864 0.950 . S
C874 C875 1.386 . S
C874 C876 1.391 . S
C875 C874 1.386 . S
C875 C879 1.393 . S
C876 H865 0.950 . S
C876 C874 1.391 . S
C876 C877 1.400 . S
C877 C871 1.491 . S
C877 C876 1.400 . S
C877 C878 1.398 . S
C878 H866 0.950 . S
C878 C877 1.398 . S
C878 C879 1.391 . S
C879 H867 0.950 . S
C879 C875 1.393 . S
C879 C878 1.391 . S
H880 C888 0.949 1_455 S
H881 C893 0.950 . S
H882 C890 0.950 . S
H883 C892 0.950 . S
H884 C894 0.950 . S
H885 C896 0.950 . S
H886 C898 0.950 . S
H887 C899 0.950 . S
C888 H880 0.949 1_655 S
C888 C889 1.386 . S
C888 C890 1.391 1_655 S
C889 C888 1.386 . S
C889 C893 1.393 . S
C890 H882 0.950 . S
C890 C888 1.391 1_455 S
C890 C891 1.400 1_455 S
C891 C890 1.400 1_655 S
C891 C892 1.398 . S
C891 C897 1.491 1_655 S
C892 H883 0.950 . S
C892 C891 1.398 . S
C892 C893 1.391 . S
C893 H881 0.950 . S
C893 C889 1.393 . S
C893 C892 1.391 . S
C894 H884 0.950 . S
C894 C895 1.386 . S
C894 C896 1.391 1_455 S
C895 C894 1.386 . S
C895 C899 1.393 . S
C896 H885 0.950 . S
C896 C894 1.391 1_655 S
C896 C897 1.400 1_655 S
C897 C891 1.491 1_455 S
C897 C896 1.400 1_455 S
C897 C898 1.398 . S
C898 H886 0.950 . S
C898 C897 1.398 . S
C898 C899 1.391 . S
C899 H887 0.950 . S
C899 C895 1.393 . S
C899 C898 1.391 . S
C369 C10 3.356 . S
C375 C19 3.356 . S
C389 C59 3.443 . S
C395 C50 3.428 . S
C409 C90 3.469 1_556 S
C415 C99 3.469 . S
C429 C139 3.351 . S
C435 C130 3.351 . S
C449 C170 3.430 . S
C455 C179 3.430 1_556 S
C469 C219 3.465 . S
C475 C210 3.465 1_556 S
C489 C247 2.519 . S
C495 C256 2.519 . S
C509 C296 2.794 . S
C515 C287 2.794 . S
C529 C327 1.929 . S
C535 C336 1.929 . S
C549 C202 1.772 . S
C555 C7 1.790 . S
C569 C42 2.767 . S
C575 C122 2.795 . S
C589 C87 1.243 . S
C595 C167 1.255 . S
C609 C82 2.957 . S
C615 C251 3.104 . S
C629 C299 1.155 . S
C635 C2 1.134 . S
C649 C331 1.937 . S
C655 C47 1.831 . S
C669 C330 0.822 . S
C675 C16 0.817 1_556 S
C689 C51 2.167 . S
C695 C250 2.246 . S
C709 C282 2.903 . S
C715 C96 2.729 . S
C729 C91 1.760 . S
C735 C136 1.794 . S
C749 C171 2.763 . S
C755 C11 2.791 . S
C769 C56 1.247 . S
C775 C216 1.241 . S
C789 C339 0.827 . S
C795 C127 0.798 . S
C809 C259 2.234 . S
C815 C162 2.179 . S
C829 C291 2.903 . S
C835 C207 2.738 . S
C849 C242 3.104 . S
C855 C211 2.954 . S
C869 C131 1.136 . S
C875 C290 1.157 . S
C889 C322 1.939 . S
C895 C176 1.837 . S
