# Generated by pormake.
# Topology wjs, (5)-cn, num edge types: 1
# Building blocks:
#     Node 0, Type 0, BuildingBlock: BEQFEK_clean_sbu_0, # of connection points: 5
#     Node 1, Type 0, BuildingBlock: BEQFEK_clean_sbu_0, # of connection points: 5
#     Node 2, Type 0, BuildingBlock: BEQFEK_clean_sbu_0, # of connection points: 5
#     Node 3, Type 0, BuildingBlock: BEQFEK_clean_sbu_0, # of connection points: 5
#     Node 4, Type 0, BuildingBlock: BEQFEK_clean_sbu_0, # of connection points: 5
#     Node 5, Type 0, BuildingBlock: BEQFEK_clean_sbu_0, # of connection points: 5
#     Node 6, Type 0, BuildingBlock: BEQFEK_clean_sbu_0, # of connection points: 5
#     Node 7, Type 0, BuildingBlock: BEQFEK_clean_sbu_0, # of connection points: 5
#     Node 8, Type 0, BuildingBlock: BEQFEK_clean_sbu_0, # of connection points: 5
#     Node 9, Type 0, BuildingBlock: BEQFEK_clean_sbu_0, # of connection points: 5
#     Node 10, Type 0, BuildingBlock: BEQFEK_clean_sbu_0, # of connection points: 5
#     Node 11, Type 0, BuildingBlock: BEQFEK_clean_sbu_0, # of connection points: 5
#     Edge 12, Type (0, 0), BuildingBlock: MIFKUJ_clean_linker_0, # of connection points: 2
#     Edge 13, Type (0, 0), BuildingBlock: MIFKUJ_clean_linker_0, # of connection points: 2
#     Edge 14, Type (0, 0), BuildingBlock: MIFKUJ_clean_linker_0, # of connection points: 2
#     Edge 15, Type (0, 0), BuildingBlock: MIFKUJ_clean_linker_0, # of connection points: 2
#     Edge 16, Type (0, 0), BuildingBlock: MIFKUJ_clean_linker_0, # of connection points: 2
#     Edge 17, Type (0, 0), BuildingBlock: MIFKUJ_clean_linker_0, # of connection points: 2
#     Edge 18, Type (0, 0), BuildingBlock: MIFKUJ_clean_linker_0, # of connection points: 2
#     Edge 19, Type (0, 0), BuildingBlock: MIFKUJ_clean_linker_0, # of connection points: 2
#     Edge 20, Type (0, 0), BuildingBlock: MIFKUJ_clean_linker_0, # of connection points: 2
#     Edge 21, Type (0, 0), BuildingBlock: MIFKUJ_clean_linker_0, # of connection points: 2
#     Edge 22, Type (0, 0), BuildingBlock: MIFKUJ_clean_linker_0, # of connection points: 2
#     Edge 23, Type (0, 0), BuildingBlock: MIFKUJ_clean_linker_0, # of connection points: 2
#     Edge 24, Type (0, 0), BuildingBlock: MIFKUJ_clean_linker_0, # of connection points: 2
#     Edge 25, Type (0, 0), BuildingBlock: MIFKUJ_clean_linker_0, # of connection points: 2
#     Edge 26, Type (0, 0), BuildingBlock: MIFKUJ_clean_linker_0, # of connection points: 2
#     Edge 27, Type (0, 0), BuildingBlock: MIFKUJ_clean_linker_0, # of connection points: 2
#     Edge 28, Type (0, 0), BuildingBlock: MIFKUJ_clean_linker_0, # of connection points: 2
#     Edge 29, Type (0, 0), BuildingBlock: MIFKUJ_clean_linker_0, # of connection points: 2
#     Edge 30, Type (0, 0), BuildingBlock: MIFKUJ_clean_linker_0, # of connection points: 2
#     Edge 31, Type (0, 0), BuildingBlock: MIFKUJ_clean_linker_0, # of connection points: 2
#     Edge 32, Type (0, 0), BuildingBlock: MIFKUJ_clean_linker_0, # of connection points: 2
#     Edge 33, Type (0, 0), BuildingBlock: MIFKUJ_clean_linker_0, # of connection points: 2
#     Edge 34, Type (0, 0), BuildingBlock: MIFKUJ_clean_linker_0, # of connection points: 2
#     Edge 35, Type (0, 0), BuildingBlock: MIFKUJ_clean_linker_0, # of connection points: 2
#     Edge 36, Type (0, 0), BuildingBlock: MIFKUJ_clean_linker_0, # of connection points: 2
#     Edge 37, Type (0, 0), BuildingBlock: MIFKUJ_clean_linker_0, # of connection points: 2
#     Edge 38, Type (0, 0), BuildingBlock: MIFKUJ_clean_linker_0, # of connection points: 2
#     Edge 39, Type (0, 0), BuildingBlock: MIFKUJ_clean_linker_0, # of connection points: 2
#     Edge 40, Type (0, 0), BuildingBlock: MIFKUJ_clean_linker_0, # of connection points: 2
#     Edge 41, Type (0, 0), BuildingBlock: MIFKUJ_clean_linker_0, # of connection points: 2
# Relax obj value: 0.259
# Max RMSD: 0.219
# Mean RMSD: 0.219
data_MOF--net-wjs--node1-BEQFEK_clean_sbu_0--edge1-MIFKUJ_clean_linker_0
_symmetry_space_group_name_H-M    P1
_symmetry_Int_Tables_number       1
_symmetry_cell_setting            triclinic
loop_
_symmetry_equiv_pos_as_xyz
'x, y, z'
_cell_length_a     37.696074
_cell_length_b     37.696312
_cell_length_c     97.308864
_cell_angle_alpha  89.978053
_cell_angle_beta   90.017377
_cell_angle_gamma 119.99351
loop_
_atom_site_label
_atom_site_type_symbol
_atom_site_fract_x
_atom_site_fract_y
_atom_site_fract_z
_atom_type_partial_charge
Co0 Co 0.21815 0.33679 0.03029 0.0
Co1 Co 0.20588 0.40382 0.0154 0.0
C2 C 0.20794 0.33554 -2e-05 0.0
O3 O 0.21303 0.3201 0.01092 0.0
O4 O 0.20447 0.36747 0.00032 0.0
C5 C 0.21125 0.25957 0.03818 0.0
O6 O 0.20032 0.24872 0.02536 0.0
C7 C 0.15775 0.43042 -0.00049 0.0
C8 C 0.18537 0.49559 0.0053 0.0
C9 C 0.15371 0.46479 0.99779 0.0
N10 N 0.18973 0.44029 0.00789 0.0
N11 N 0.20649 0.47943 0.01116 0.0
C12 C 0.13302 0.38916 0.99296 0.0
H13 H 0.15359 0.38275 0.98662 0.0
H14 H 0.11975 0.36514 0.00101 0.0
H15 H 0.10852 0.38742 0.98622 0.0
C16 C 0.14379 0.32236 0.04458 0.0
N17 N 0.17401 0.34352 0.03551 0.0
N18 N 0.16886 0.37229 0.02981 0.0
C19 C 0.13513 0.37065 0.03535 0.0
C20 C 0.1179 0.33846 0.04467 0.0
C21 C 0.14085 0.2883 0.05334 0.0
H22 H 0.16987 0.29929 0.05911 0.0
H23 H 0.13649 0.26259 0.04666 0.0
H24 H 0.1153 0.27708 0.06082 0.0
O25 O 0.27057 0.38769 0.03261 0.0
O26 O 0.26397 0.43612 0.02191 0.0
H27 H 0.14474 0.43035 0.03052 0.0
H28 H 0.09738 0.39772 0.03951 0.0
C29 C 0.11904 0.39852 0.03164 0.0
H30 H 0.10243 0.38857 0.02173 0.0
H31 H 0.23153 0.49475 0.01774 0.0
O32 O 0.22019 0.29521 0.04212 0.0
C33 C 0.28542 0.42465 0.02872 0.0
Co34 Co 0.8968 0.19915 0.1903 0.0
Co35 Co 0.81541 0.19652 0.18197 0.0
C36 C 0.87157 0.18773 0.16147 0.0
O37 O 0.89552 0.18743 0.17061 0.0
O38 O 0.84114 0.19196 0.16466 0.0
C39 C 0.95678 0.17452 0.19621 0.0
O40 O 0.93612 0.14441 0.18753 0.0
C41 C 0.73246 0.14612 0.17205 0.0
C42 C 0.70545 0.18606 0.17414 0.0
C43 C 0.6966 0.14718 0.17012 0.0
N44 N 0.76098 0.18236 0.17718 0.0
N45 N 0.74478 0.20625 0.17836 0.0
C46 C 0.74042 0.11211 0.16838 0.0
H47 H 0.7737 0.12371 0.16735 0.0
H48 H 0.72856 0.08863 0.1766 0.0
H49 H 0.72447 0.0972 0.15867 0.0
C50 C 0.8406 0.13466 0.20967 0.0
N51 N 0.84791 0.16093 0.19923 0.0
N52 N 0.81389 0.16087 0.19616 0.0
C53 C 0.784 0.13517 0.2048 0.0
C54 C 0.79986 0.1174 0.2135 0.0
C55 C 0.8721 0.12629 0.21582 0.0
H56 H 0.89813 0.15524 0.21976 0.0
H57 H 0.88371 0.11403 0.20774 0.0
H58 H 0.85949 0.10349 0.22424 0.0
O59 O 0.90579 0.25549 0.19236 0.0
O60 O 0.84741 0.25443 0.18795 0.0
H61 H 0.74453 0.16095 0.20306 0.0
H62 H 0.73124 0.12412 0.21677 0.0
C63 C 0.74282 0.13179 0.20607 0.0
H64 H 0.72066 0.10692 0.19931 0.0
H65 H 0.76051 0.23622 0.18208 0.0
O66 O 0.94501 0.2001 0.1987 0.0
C67 C 0.88508 0.27372 0.19142 0.0
Co68 Co 0.65575 0.88189 0.36399 0.0
Co69 Co 0.58661 0.80094 0.35083 0.0
C70 C 0.65142 0.86961 0.33377 0.0
O71 O 0.66906 0.89099 0.34436 0.0
O72 O 0.61952 0.8343 0.33478 0.0
C73 C 0.73481 0.95146 0.37075 0.0
O74 O 0.74497 0.94902 0.35802 0.0
C75 C 0.5574 0.72386 0.33628 0.0
C76 C 0.49265 0.68842 0.34275 0.0
C77 C 0.52229 0.68576 0.3351 0.0
N78 N 0.54885 0.74766 0.34427 0.0
N79 N 0.50997 0.72656 0.34796 0.0
C80 C 0.59954 0.73648 0.33117 0.0
H81 H 0.62293 0.7628 0.3372 0.0
H82 H 0.60555 0.71054 0.33181 0.0
H83 H 0.60208 0.74602 0.32026 0.0
C84 C 0.67099 0.82421 0.37931 0.0
N85 N 0.64987 0.83194 0.36983 0.0
N86 N 0.62056 0.79724 0.36476 0.0
C87 C 0.62207 0.766 0.37107 0.0
C88 C 0.6541 0.78228 0.38045 0.0
C89 C 0.70746 0.85661 0.38687 0.0
H90 H 0.73049 0.87765 0.37936 0.0
H91 H 0.72194 0.84348 0.39348 0.0
H92 H 0.69792 0.8746 0.39335 0.0
O93 O 0.60537 0.88371 0.36713 0.0
O94 O 0.55515 0.82683 0.35794 0.0
H95 H 0.59305 0.70273 0.37746 0.0
H96 H 0.6008 0.71138 0.35926 0.0
C97 C 0.59239 0.72153 0.36878 0.0
H98 H 0.56097 0.71651 0.3676 0.0
H99 H 0.49567 0.73771 0.35442 0.0
O100 O 0.69886 0.92663 0.37495 0.0
C101 C 0.5677 0.86074 0.36422 0.0
Co102 Co 0.80113 0.7066 0.52287 0.0
Co103 Co 0.81073 0.63348 0.5121 0.0
C104 C 0.82274 0.70321 0.49377 0.0
O105 O 0.81641 0.72167 0.50357 0.0
O106 O 0.82146 0.66917 0.49571 0.0
C107 C 0.82677 0.78943 0.5306 0.0
O108 O 0.85733 0.79869 0.52213 0.0
C109 C 0.85882 0.59747 0.50171 0.0
C110 C 0.81668 0.53142 0.50518 0.0
C111 C 0.85542 0.55921 0.50034 0.0
N112 N 0.82394 0.59244 0.50728 0.0
N113 N 0.79882 0.55288 0.50927 0.0
C114 C 0.89367 0.63796 0.49719 0.0
H115 H 0.88333 0.66042 0.49555 0.0
H116 H 0.91765 0.65033 0.50525 0.0
H117 H 0.90749 0.63437 0.48759 0.0
C118 C 0.86014 0.70991 0.54358 0.0
N119 N 0.83781 0.69425 0.53208 0.0
N120 N 0.84166 0.6632 0.52781 0.0
C121 C 0.86654 0.65806 0.53659 0.0
C122 C 0.87912 0.68764 0.54677 0.0
C123 C 0.86338 0.7457 0.55136 0.0
H124 H 0.83231 0.7404 0.55369 0.0
H125 H 0.8797 0.77353 0.54493 0.0
H126 H 0.88073 0.75145 0.56108 0.0
O127 O 0.74514 0.65899 0.5234 0.0
O128 O 0.75085 0.60631 0.51603 0.0
H129 H 0.8467 0.59454 0.53327 0.0
H130 H 0.88598 0.61893 0.54624 0.0
C131 C 0.87489 0.62321 0.53615 0.0
H132 H 0.89882 0.62972 0.52837 0.0
H133 H 0.76956 0.54056 0.5135 0.0
O134 O 0.79931 0.75218 0.53217 0.0
C135 C 0.72911 0.62116 0.52042 0.0
Co136 Co 0.11506 0.77113 0.69801 0.0
Co137 Co 0.19604 0.7928 0.68221 0.0
C138 C 0.12574 0.78945 0.66747 0.0
O139 O 0.10486 0.77917 0.67853 0.0
O140 O 0.1627 0.79708 0.6673 0.0
C141 C 0.04822 0.78267 0.70575 0.0
O142 O 0.05641 0.80279 0.69409 0.0
C143 C 0.27261 0.83789 0.66627 0.0
C144 C 0.31077 0.81559 0.67602 0.0
C145 C 0.3116 0.84265 0.66622 0.0
N146 N 0.25012 0.80988 0.67587 0.0
N147 N 0.27298 0.79634 0.68152 0.0
C148 C 0.25613 0.85799 0.657 0.0
H149 H 0.22792 0.83406 0.65194 0.0
H150 H 0.2476 0.87736 0.66315 0.0
H151 H 0.27841 0.87671 0.64892 0.0
C152 C 0.17247 0.84132 0.71475 0.0
N153 N 0.16471 0.815 0.70434 0.0
N154 N 0.19879 0.82552 0.69761 0.0
C155 C 0.22941 0.85983 0.70337 0.0
C156 C 0.2136 0.87107 0.71439 0.0
C157 C 0.14126 0.83681 0.72518 0.0
H158 H 0.12173 0.80409 0.72797 0.0
H159 H 0.12145 0.84786 0.72071 0.0
H160 H 0.15591 0.85447 0.73465 0.0
O161 O 0.11545 0.71957 0.6994 0.0
O162 O 0.1702 0.73323 0.68691 0.0
H163 H 0.2871 0.86443 0.69895 0.0
H164 H 0.29063 0.91298 0.7029 0.0
C165 C 0.27199 0.88305 0.69773 0.0
H166 H 0.27065 0.88867 0.68664 0.0
H167 H 0.26305 0.77467 0.68941 0.0
O168 O 0.06922 0.7663 0.70929 0.0
C169 C 0.13894 0.70844 0.69392 0.0
Co170 Co 0.30817 0.10683 0.85616 0.0
Co171 Co 0.3886 0.18862 0.84919 0.0
C172 C 0.32687 0.13411 0.82761 0.0
O173 O 0.30096 0.10968 0.83631 0.0
O174 O 0.36104 0.16418 0.83141 0.0
C175 C 0.22276 0.04751 0.86102 0.0
O176 O 0.21486 0.06849 0.85196 0.0
C177 C 0.42381 0.27239 0.83967 0.0
C178 C 0.48987 0.29905 0.8439 0.0
C179 C 0.46116 0.30839 0.83877 0.0
N180 N 0.43002 0.24337 0.84528 0.0
N181 N 0.46958 0.25939 0.84775 0.0
C182 C 0.383 0.26481 0.83466 0.0
H183 H 0.36168 0.23168 0.8331 0.0
H184 H 0.36919 0.27582 0.8424 0.0
H185 H 0.3866 0.28166 0.82492 0.0
C186 C 0.29774 0.16142 0.87543 0.0
N187 N 0.318 0.15501 0.86523 0.0
N188 N 0.35233 0.18929 0.8627 0.0
C189 C 0.35515 0.21853 0.8714 0.0
C190 C 0.32043 0.20181 0.87956 0.0
C191 C 0.25817 0.12914 0.88151 0.0
H192 H 0.2613 0.10274 0.88489 0.0
H193 H 0.23389 0.11851 0.87359 0.0
H194 H 0.24855 0.14078 0.89039 0.0
O195 O 0.35463 0.09731 0.85898 0.0
O196 O 0.41301 0.15537 0.8554 0.0
H197 H 0.42045 0.2585 0.87117 0.0
H198 H 0.3936 0.27199 0.88365 0.0
C199 C 0.39226 0.25997 0.87313 0.0
H200 H 0.39088 0.28163 0.86575 0.0
H201 H 0.48269 0.2433 0.8521 0.0
O202 O 0.25969 0.05861 0.86396 0.0
C203 C 0.39364 0.11748 0.85859 0.0
Co204 Co 0.6693 0.78391 0.79967 0.0
Co205 Co 0.59691 0.79126 0.81249 0.0
C206 C 0.66236 0.79078 0.82995 0.0
O207 O 0.68131 0.78842 0.81947 0.0
O208 O 0.62963 0.79255 0.8287 0.0
C209 C 0.73722 0.7714 0.79407 0.0
O210 O 0.72971 0.75483 0.80638 0.0
C211 C 0.56008 0.83214 0.82742 0.0
C212 C 0.49883 0.80498 0.81784 0.0
C213 C 0.52446 0.83444 0.82719 0.0
N214 N 0.55599 0.80341 0.81837 0.0
N215 N 0.51908 0.78681 0.81284 0.0
C216 C 0.59707 0.85571 0.83632 0.0
H217 H 0.60338 0.83394 0.84197 0.0
H218 H 0.62418 0.87495 0.82981 0.0
H219 H 0.5927 0.87504 0.84394 0.0
C220 C 0.68124 0.85593 0.78437 0.0
N221 N 0.66062 0.82616 0.79363 0.0
N222 N 0.63049 0.83 0.79881 0.0
C223 C 0.63107 0.86278 0.79291 0.0
C224 C 0.66355 0.88046 0.78368 0.0
C225 C 0.71558 0.85892 0.77576 0.0
H226 H 0.70595 0.82875 0.77097 0.0
H227 H 0.74241 0.86684 0.78243 0.0
H228 H 0.7246 0.88205 0.76748 0.0
O229 O 0.62113 0.73003 0.7964 0.0
O230 O 0.56909 0.73375 0.80549 0.0
H231 H 0.57014 0.85234 0.79537 0.0
H232 H 0.60674 0.90363 0.78977 0.0
C233 C 0.60215 0.87778 0.7964 0.0
H234 H 0.60715 0.88847 0.80719 0.0
H235 H 0.50828 0.7641 0.8053 0.0
O236 O 0.71535 0.78566 0.78947 0.0
C237 C 0.58331 0.71356 0.7994 0.0
Co238 Co 0.88945 0.68431 0.96911 0.0
Co239 Co 0.80966 0.611 0.98152 0.0
C240 C 0.87391 0.67978 0.99895 0.0
O241 O 0.89559 0.69932 0.98863 0.0
O242 O 0.84071 0.64591 0.99745 0.0
C243 C 0.94652 0.76692 0.96103 0.0
O244 O 0.92805 0.77664 0.97051 0.0
C245 C 0.72993 0.58317 0.99383 0.0
C246 C 0.70188 0.51584 0.99405 0.0
C247 C 0.69464 0.5474 0.99745 0.0
N248 N 0.75657 0.57327 0.98836 0.0
N249 N 0.73975 0.53298 0.98857 0.0
C250 C 0.73932 0.62625 0.99627 0.0
H251 H 0.72381 0.635 0.98841 0.0
H252 H 0.72779 0.62874 0.00651 0.0
H253 H 0.77271 0.64793 0.99554 0.0
C254 C 0.82868 0.68885 0.95107 0.0
N255 N 0.83829 0.67305 0.96191 0.0
N256 N 0.80477 0.64115 0.96662 0.0
C257 C 0.77282 0.63516 0.95867 0.0
C258 C 0.78695 0.66541 0.94869 0.0
C259 C 0.85904 0.72546 0.94306 0.0
H260 H 0.87351 0.7523 0.95 0.0
H261 H 0.84461 0.73302 0.93449 0.0
H262 H 0.88323 0.71988 0.93893 0.0
O263 O 0.8958 0.63544 0.96726 0.0
O264 O 0.83904 0.58218 0.97546 0.0
H265 H 0.71603 0.59135 0.94901 0.0
H266 H 0.71152 0.60405 0.96642 0.0
C267 C 0.73088 0.59818 0.95928 0.0
H268 H 0.73251 0.57119 0.96292 0.0
H269 H 0.75405 0.51721 0.98494 0.0
O270 O 0.93493 0.72945 0.95884 0.0
C271 C 0.87453 0.59734 0.97005 0.0
Co272 Co 0.21126 0.89204 0.13873 0.0
Co273 Co 0.2 0.8096 0.15045 0.0
C274 C 0.19529 0.87289 0.1683 0.0
O275 O 0.20098 0.8967 0.15823 0.0
O276 O 0.19395 0.83871 0.1666 0.0
C277 C 0.22047 0.97189 0.13297 0.0
O278 O 0.22712 0.97904 0.1462 0.0
C279 C 0.14991 0.72858 0.16251 0.0
C280 C 0.18867 0.70048 0.15978 0.0
C281 C 0.15093 0.69261 0.16482 0.0
N282 N 0.18513 0.75585 0.15641 0.0
N283 N 0.20832 0.73903 0.15491 0.0
C284 C 0.11553 0.73678 0.1651 0.0
H285 H 0.1198 0.76358 0.15904 0.0
H286 H 0.0857 0.70956 0.16242 0.0
H287 H 0.11521 0.74391 0.17615 0.0
C288 C 0.14409 0.83546 0.1209 0.0
N289 N 0.17031 0.84239 0.13126 0.0
N290 N 0.16641 0.80744 0.13544 0.0
C291 C 0.13806 0.77702 0.12751 0.0
C292 C 0.123 0.7939 0.11807 0.0
C293 C 0.13885 0.86816 0.11406 0.0
H294 H 0.13861 0.88933 0.12193 0.0
H295 H 0.1099 0.85504 0.10811 0.0
H296 H 0.16504 0.88599 0.10703 0.0
O297 O 0.26567 0.89701 0.13706 0.0
O298 O 0.25891 0.83898 0.14526 0.0
H299 H 0.11701 0.71812 0.11798 0.0
H300 H 0.10357 0.71664 0.13577 0.0
C301 C 0.12813 0.73333 0.12809 0.0
H302 H 0.15552 0.73159 0.13117 0.0
H303 H 0.23731 0.75368 0.15038 0.0
O304 O 0.21356 0.93774 0.12813 0.0
C305 C 0.28086 0.87448 0.14005 0.0
Co306 Co 0.33941 0.22598 0.29942 0.0
Co307 Co 0.40747 0.21254 0.31269 0.0
C308 C 0.344 0.21834 0.3297 0.0
O309 O 0.32679 0.22287 0.31914 0.0
O310 O 0.37504 0.21364 0.32861 0.0
C311 C 0.25773 0.20399 0.29256 0.0
O312 O 0.2491 0.17809 0.30276 0.0
C313 C 0.43193 0.16137 0.32738 0.0
C314 C 0.49834 0.19128 0.32331 0.0
C315 C 0.46629 0.15752 0.32974 0.0
N316 N 0.4433 0.1953 0.31987 0.0
N317 N 0.4831 0.21342 0.31763 0.0
C318 C 0.38823 0.13207 0.33108 0.0
H319 H 0.36718 0.13803 0.3248 0.0
H320 H 0.38089 0.09996 0.3295 0.0
H321 H 0.38323 0.13627 0.34205 0.0
C322 C 0.32267 0.15121 0.28423 0.0
N323 N 0.34407 0.18075 0.29353 0.0
N324 N 0.37352 0.1755 0.29862 0.0
C325 C 0.37199 0.14257 0.29245 0.0
C326 C 0.33919 0.12581 0.28342 0.0
C327 C 0.28851 0.14847 0.27559 0.0
H328 H 0.2963 0.17933 0.27189 0.0
H329 H 0.2602 0.13566 0.28186 0.0
H330 H 0.28246 0.12827 0.26656 0.0
O331 O 0.39074 0.27751 0.2959 0.0
O332 O 0.43981 0.26973 0.30566 0.0
H333 H 0.4324 0.15349 0.29706 0.0
H334 H 0.40277 0.11009 0.28598 0.0
C335 C 0.40135 0.12746 0.29496 0.0
H336 H 0.39083 0.10647 0.3039 0.0
H337 H 0.49961 0.24021 0.31189 0.0
O338 O 0.29494 0.22814 0.28942 0.0
C339 C 0.42819 0.29136 0.29904 0.0
Co340 Co 0.10865 0.31352 0.47098 0.0
Co341 Co 0.18848 0.38873 0.48227 0.0
C342 C 0.13072 0.31741 0.50026 0.0
O343 O 0.10697 0.29799 0.49031 0.0
O344 O 0.16275 0.35221 0.49846 0.0
C345 C 0.03038 0.24072 0.4653 0.0
O346 O 0.02238 0.24087 0.47844 0.0
C347 C 0.27061 0.42521 0.49367 0.0
C348 C 0.29517 0.49126 0.49001 0.0
C349 C 0.30557 0.46335 0.4952 0.0
N350 N 0.24131 0.43053 0.48782 0.0
N351 N 0.25595 0.47008 0.48581 0.0
C352 C 0.26561 0.38393 0.49651 0.0
H353 H 0.23916 0.35984 0.49071 0.0
H354 H 0.29386 0.38335 0.49371 0.0
H355 H 0.2597 0.37709 0.50764 0.0
C356 C 0.16733 0.30948 0.45227 0.0
N357 N 0.15899 0.32696 0.46286 0.0
N358 N 0.19284 0.35958 0.46694 0.0
C359 C 0.22392 0.3644 0.45874 0.0
C360 C 0.20862 0.33274 0.4492 0.0
C361 C 0.13638 0.2704 0.44554 0.0
H362 H 0.11676 0.24806 0.45348 0.0
H363 H 0.15119 0.25661 0.43939 0.0
H364 H 0.11663 0.27674 0.43871 0.0
O365 O 0.09829 0.35982 0.47003 0.0
O366 O 0.15476 0.41421 0.47768 0.0
H367 H 0.28218 0.40488 0.44922 0.0
H368 H 0.2844 0.3939 0.46707 0.0
C369 C 0.26663 0.40005 0.4593 0.0
H370 H 0.26624 0.42823 0.46226 0.0
H371 H 0.23951 0.48249 0.48123 0.0
O372 O 0.06439 0.26835 0.46051 0.0
C373 C 0.11839 0.3978 0.47296 0.0
Co374 Co 0.79159 0.10872 0.63924 0.0
Co375 Co 0.79542 0.19191 0.64569 0.0
C376 C 0.7964 0.13566 0.66777 0.0
O377 O 0.7981 0.11097 0.65926 0.0
O378 O 0.79391 0.16655 0.66383 0.0
C379 C 0.81541 0.04693 0.63584 0.0
O380 O 0.8423 0.06629 0.64562 0.0
C381 C 0.84123 0.27265 0.65742 0.0
C382 C 0.81629 0.30766 0.64708 0.0
C383 C 0.84609 0.3114 0.65627 0.0
N384 N 0.81003 0.24708 0.64932 0.0
N385 N 0.79474 0.26796 0.64331 0.0
C386 C 0.86884 0.26093 0.66471 0.0
H387 H 0.8676 0.23382 0.65976 0.0
H388 H 0.90091 0.28675 0.66475 0.0
H389 H 0.85848 0.25301 0.67552 0.0
C390 C 0.86168 0.16223 0.62147 0.0
N391 N 0.83307 0.15644 0.63086 0.0
N392 N 0.83463 0.19152 0.63332 0.0
C393 C 0.8644 0.22084 0.62545 0.0
C394 C 0.88238 0.20313 0.61773 0.0
C395 C 0.86931 0.12924 0.61625 0.0
H396 H 0.87911 0.11718 0.62493 0.0
H397 H 0.89376 0.14056 0.60836 0.0
H398 H 0.84064 0.10389 0.61188 0.0
O399 O 0.73725 0.10168 0.63475 0.0
O400 O 0.73923 0.16098 0.63804 0.0
H401 H 0.89271 0.28 0.61539 0.0
H402 H 0.88909 0.28094 0.63383 0.0
C403 C 0.87309 0.26405 0.6244 0.0
H404 H 0.84393 0.26433 0.62348 0.0
H405 H 0.7708 0.25551 0.63619 0.0
O406 O 0.79163 0.05982 0.63202 0.0
C407 C 0.72007 0.12344 0.63443 0.0
H408 H 0.22424 0.26973 0.06587 0.0
H409 H 0.22566 0.22158 0.08231 0.0
H410 H 0.20234 0.13555 0.04954 0.0
H411 H 0.20014 0.18333 0.03301 0.0
H412 H 0.15586 0.098 0.0715 0.0
H413 H 0.29821 0.19295 0.06322 0.0
H414 H 0.36028 0.26104 0.06168 0.0
H415 H 0.34991 0.28182 0.1045 0.0
H416 H 0.28741 0.21405 0.10625 0.0
H417 H 0.21001 0.96658 0.10517 0.0
H418 H 0.20841 0.0166 0.08973 0.0
H419 H 0.22838 0.097 0.12402 0.0
H420 H 0.23061 0.04711 0.13963 0.0
H421 H 0.27564 0.13816 0.10198 0.0
H422 H 0.1339 0.04155 0.11023 0.0
H423 H 0.07274 0.97276 0.11159 0.0
H424 H 0.08269 0.95455 0.06853 0.0
H425 H 0.14429 0.02304 0.06694 0.0
C426 C 0.21952 0.24062 0.06213 0.0
C427 C 0.2123 0.23042 0.04811 0.0
C428 C 0.22047 0.21318 0.07155 0.0
C429 C 0.21465 0.17521 0.06712 0.0
C430 C 0.20699 0.16475 0.05316 0.0
C431 C 0.20585 0.19212 0.04373 0.0
C432 C 0.2162 0.14626 0.07708 0.0
C433 C 0.18225 0.10661 0.07804 0.0
C434 C 0.25024 0.15788 0.08585 0.0
C435 C 0.2879 0.19859 0.08483 0.0
C436 C 0.30898 0.21217 0.07228 0.0
C437 C 0.34427 0.25068 0.07137 0.0
C438 C 0.35897 0.27579 0.08297 0.0
C439 C 0.33846 0.26237 0.09552 0.0
C440 C 0.30312 0.2239 0.09648 0.0
C441 C 0.21407 0.99486 0.10948 0.0
C442 C 0.22022 0.00277 0.12366 0.0
C443 C 0.21299 0.02337 0.10062 0.0
C444 C 0.21766 0.06022 0.10576 0.0
C445 C 0.22455 0.06863 0.11987 0.0
C446 C 0.22572 0.04008 0.12877 0.0
C447 C 0.21542 0.08987 0.09633 0.0
C448 C 0.2492 0.12964 0.09547 0.0
C449 C 0.18128 0.07833 0.08762 0.0
C450 C 0.14392 0.03732 0.0885 0.0
C451 C 0.12321 0.02278 0.10107 0.0
C452 C 0.08844 0.98385 0.10188 0.0
C453 C 0.07389 0.95927 0.09016 0.0
C454 C 0.09401 0.97362 0.0776 0.0
C455 C 0.12883 0.01251 0.07674 0.0
H456 H 0.04698 0.92912 0.09081 0.0
H457 H 0.3863 0.30559 0.08225 0.0
H458 H 0.26093 0.26229 0.27522 0.0
H459 H 0.20829 0.25523 0.25889 0.0
H460 H 0.12887 0.1313 0.27265 0.0
H461 H 0.18102 0.13834 0.28921 0.0
H462 H 0.14155 0.14405 0.24266 0.0
H463 H 0.10304 0.19335 0.28247 0.0
H464 H 0.1159 0.24086 0.3017 0.0
H465 H 0.15324 0.34042 0.27326 0.0
H466 H 0.14118 0.29358 0.25386 0.0
H467 H 0.96294 0.1103 0.20621 0.0
H468 H 0.01397 0.1134 0.22246 0.0
H469 H 0.07761 0.2456 0.22063 0.0
H470 H 0.02509 0.24236 0.20513 0.0
H471 H 0.07206 0.22608 0.24533 0.0
H472 H 0.11357 0.18076 0.2055 0.0
H473 H 0.10598 0.13653 0.18575 0.0
H474 H 0.06909 0.03404 0.21285 0.0
H475 H 0.07604 0.07755 0.23276 0.0
C476 C 0.23208 0.23369 0.27485 0.0
C477 C 0.22495 0.20091 0.2835 0.0
C478 C 0.20214 0.22971 0.26554 0.0
C479 C 0.16488 0.19274 0.2646 0.0
C480 C 0.15753 0.16003 0.27325 0.0
C481 C 0.18719 0.16422 0.28275 0.0
C482 C 0.13392 0.18815 0.25437 0.0
C483 C 0.12581 0.16149 0.24327 0.0
C484 C 0.11456 0.21188 0.25507 0.0
C485 C 0.12159 0.24003 0.26672 0.0
C486 C 0.11435 0.22544 0.28032 0.0
C487 C 0.12142 0.25224 0.29125 0.0
C488 C 0.13548 0.29366 0.28871 0.0
C489 C 0.1424 0.30834 0.27522 0.0
C490 C 0.13541 0.28168 0.26425 0.0
C491 C 0.98824 0.13993 0.20914 0.0
C492 C 0.99028 0.1761 0.20444 0.0
C493 C 0.01752 0.14173 0.21839 0.0
C494 C 0.05006 0.17977 0.22271 0.0
C495 C 0.05277 0.21587 0.21755 0.0
C496 C 0.02291 0.21405 0.20864 0.0
C497 C 0.07977 0.1823 0.23328 0.0
C498 C 0.08764 0.20854 0.24456 0.0
C499 C 0.09945 0.15864 0.23259 0.0
C500 C 0.0949 0.13234 0.22061 0.0
C501 C 0.1035 0.14871 0.20724 0.0
C502 C 0.09941 0.12379 0.19601 0.0
C503 C 0.08698 0.08248 0.19804 0.0
C504 C 0.07869 0.06603 0.21129 0.0
C505 C 0.08274 0.09082 0.22255 0.0
H506 H 0.08387 0.06325 0.18934 0.0
H507 H 0.14093 0.31435 0.29719 0.0
H508 H 0.95383 0.17716 0.47158 0.0
H509 H 0.90367 0.12642 0.45571 0.0
H510 H 0.98858 0.18227 0.42214 0.0
H511 H 0.03843 0.23317 0.43779 0.0
H512 H 0.91395 0.16828 0.41536 0.0
H513 H 0.97132 0.09259 0.43609 0.0
H514 H 0.9914 0.0631 0.45513 0.0
H515 H 0.86588 0.99273 0.46797 0.0
H516 H 0.84511 0.02228 0.44912 0.0
H517 H 0.81314 0.01233 0.36524 0.0
H518 H 0.86361 0.0604 0.38161 0.0
H519 H 0.77626 0.00497 0.41456 0.0
H520 H 0.72584 0.95672 0.39835 0.0
H521 H 0.85152 0.01821 0.42179 0.0
H522 H 0.79439 0.09447 0.40121 0.0
H523 H 0.77426 0.12357 0.38206 0.0
H524 H 0.89958 0.19265 0.3689 0.0
H525 H 0.92039 0.1635 0.38788 0.0
C526 C 0.96184 0.17853 0.46083 0.0
C527 C 0.00011 0.20921 0.45595 0.0
C528 C 0.93323 0.14944 0.45179 0.0
C529 C 0.94256 0.15046 0.43777 0.0
C530 C 0.98076 0.18097 0.43292 0.0
C531 C 0.00927 0.20999 0.44191 0.0
C532 C 0.91224 0.12051 0.42802 0.0
C533 C 0.90069 0.13547 0.41668 0.0
C534 C 0.89429 0.07772 0.42992 0.0
C535 C 0.90673 0.06003 0.44129 0.0
C536 C 0.94805 0.07114 0.44306 0.0
C537 C 0.95954 0.05434 0.4538 0.0
C538 C 0.92995 0.02616 0.46278 0.0
C539 C 0.88878 0.01463 0.46102 0.0
C540 C 0.87713 0.03138 0.45031 0.0
C541 C 0.80467 0.01043 0.37597 0.0
C542 C 0.76541 0.98094 0.38048 0.0
C543 C 0.83349 0.03793 0.38529 0.0
C544 C 0.82347 0.03642 0.39926 0.0
C545 C 0.78453 0.00665 0.40382 0.0
C546 C 0.75571 0.97927 0.39451 0.0
C547 C 0.85344 0.06606 0.40914 0.0
C548 C 0.86484 0.05104 0.4205 0.0
C549 C 0.87129 0.10881 0.40727 0.0
C550 C 0.85888 0.12648 0.39588 0.0
C551 C 0.81761 0.11561 0.39416 0.0
C552 C 0.80609 0.13216 0.38336 0.0
C553 C 0.83561 0.15985 0.37425 0.0
C554 C 0.87674 0.17114 0.37595 0.0
C555 C 0.88842 0.15464 0.38674 0.0
H556 H 0.82663 0.17264 0.36589 0.0
H557 H 0.93891 0.01317 0.47109 0.0
H558 H 0.76258 0.78741 0.54405 0.0
H559 H 0.76532 0.83452 0.56187 0.0
H560 H 0.89638 0.90704 0.55708 0.0
H561 H 0.89382 0.86041 0.53902 0.0
H562 H 0.86537 0.88106 0.58528 0.0
H563 H 0.84901 0.94883 0.54603 0.0
H564 H 0.81694 0.95289 0.52445 0.0
H565 H 0.70262 0.91107 0.54544 0.0
H566 H 0.73386 0.90619 0.56712 0.0
H567 H 0.88341 0.04185 0.62974 0.0
H568 H 0.88913 0.9987 0.61208 0.0
H569 H 0.75871 0.93946 0.60505 0.0
H570 H 0.75331 0.98375 0.62222 0.0
H571 H 0.79577 0.96288 0.58199 0.0
H572 H 0.80872 0.89185 0.62088 0.0
H573 H 0.83733 0.88252 0.64247 0.0
H574 H 0.95357 0.92458 0.62279 0.0
H575 H 0.92589 0.93496 0.60114 0.0
C576 C 0.79189 0.81374 0.54665 0.0
C577 C 0.82796 0.82039 0.54013 0.0
C578 C 0.79341 0.84054 0.55682 0.0
C579 C 0.83106 0.87408 0.56076 0.0
C580 C 0.86709 0.88123 0.55414 0.0
C581 C 0.86551 0.85481 0.54378 0.0
C582 C 0.83255 0.90069 0.57214 0.0
C583 C 0.85084 0.89962 0.58456 0.0
C584 C 0.81256 0.92379 0.57119 0.0
C585 C 0.7937 0.9268 0.55817 0.0
C586 C 0.81693 0.94015 0.54602 0.0
C587 C 0.79892 0.94267 0.53377 0.0
C588 C 0.75774 0.93215 0.53356 0.0
C589 C 0.7345 0.91917 0.54561 0.0
C590 C 0.75236 0.91656 0.55788 0.0
C591 C 0.85588 0.01889 0.62464 0.0
C592 C 0.8179 0.01601 0.62731 0.0
C593 C 0.85916 0.99425 0.61455 0.0
C594 C 0.82433 0.96574 0.60723 0.0
C595 C 0.78606 0.96143 0.61048 0.0
C596 C 0.78293 0.98654 0.62034 0.0
C597 C 0.82784 0.94275 0.59542 0.0
C598 C 0.81058 0.9446 0.58282 0.0
C599 C 0.84836 0.91996 0.5963 0.0
C600 C 0.86535 0.91471 0.60942 0.0
C601 C 0.84053 0.89964 0.62119 0.0
C602 C 0.85656 0.89406 0.63344 0.0
C603 C 0.89728 0.9031 0.63401 0.0
C604 C 0.92207 0.91773 0.62234 0.0
C605 C 0.90623 0.92349 0.61009 0.0
H606 H 0.90959 0.89863 0.64349 0.0
H607 H 0.74385 0.93413 0.52407 0.0
H608 H 0.03314 0.75607 0.73236 0.0
H609 H 0.98118 0.75424 0.74779 0.0
H610 H 0.93852 0.80214 0.71549 0.0
H611 H 0.99112 0.80502 0.70009 0.0
H612 H 0.9446 0.84032 0.7389 0.0
H613 H 0.8856 0.69967 0.72488 0.0
H614 H 0.88395 0.63407 0.72137 0.0
H615 H 0.89961 0.62533 0.76472 0.0
H616 H 0.90189 0.69118 0.76846 0.0
H617 H 0.755 0.79647 0.76741 0.0
H618 H 0.80875 0.79821 0.75303 0.0
H619 H 0.84847 0.75221 0.78678 0.0
H620 H 0.79392 0.74945 0.8012 0.0
H621 H 0.84539 0.71359 0.76338 0.0
H622 H 0.90234 0.85376 0.77737 0.0
H623 H 0.90283 0.91885 0.78069 0.0
H624 H 0.89018 0.92813 0.73719 0.0
H625 H 0.88907 0.8628 0.73361 0.0
C626 C 0.01257 0.76603 0.72851 0.0
C627 C 0.0161 0.78053 0.71498 0.0
C628 C 0.9828 0.76484 0.73734 0.0
C629 C 0.95561 0.77755 0.73274 0.0
C630 C 0.95916 0.79215 0.71925 0.0
C631 C 0.98916 0.79368 0.71045 0.0
C632 C 0.92389 0.77631 0.74206 0.0
C633 C 0.92257 0.81248 0.74412 0.0
C634 C 0.89586 0.74025 0.74915 0.0
C635 C 0.89432 0.70056 0.74693 0.0
C636 C 0.889 0.68391 0.73365 0.0
C637 C 0.8879 0.64666 0.73162 0.0
C638 C 0.89179 0.6256 0.74281 0.0
C639 C 0.89666 0.64171 0.75606 0.0
C640 C 0.89782 0.67897 0.75814 0.0
C641 C 0.77519 0.78681 0.77181 0.0
C642 C 0.77028 0.77295 0.78548 0.0
C643 C 0.80604 0.78799 0.76358 0.0
C644 C 0.83301 0.77592 0.76889 0.0
C645 C 0.82804 0.76178 0.7825 0.0
C646 C 0.79694 0.76032 0.79073 0.0
C647 C 0.86594 0.77751 0.76014 0.0
C648 C 0.86752 0.74145 0.7582 0.0
C649 C 0.89416 0.81365 0.75313 0.0
C650 C 0.8953 0.8532 0.75524 0.0
C651 C 0.89941 0.86955 0.76852 0.0
C652 C 0.89983 0.90651 0.77045 0.0
C653 C 0.89645 0.92757 0.75916 0.0
C654 C 0.89277 0.91177 0.74592 0.0
C655 C 0.89229 0.87481 0.74393 0.0
H656 H 0.89676 0.95616 0.76068 0.0
H657 H 0.89093 0.59677 0.74122 0.0
H658 H 0.22346 0.98455 0.87437 0.0
H659 H 0.17235 0.93638 0.89055 0.0
H660 H 0.09768 0.99169 0.88359 0.0
H661 H 0.14839 0.03957 0.86712 0.0
H662 H 0.11809 0.98387 0.91256 0.0
H663 H 0.06183 0.90462 0.87129 0.0
H664 H 0.06503 0.872 0.84973 0.0
H665 H 0.10343 0.79881 0.87211 0.0
H666 H 0.10104 0.83143 0.89379 0.0
H667 H 0.95183 0.8393 0.95374 0.0
H668 H 0.99646 0.88768 0.93628 0.0
H669 H 0.05375 0.81433 0.92997 0.0
H670 H 0.00758 0.76483 0.94686 0.0
H671 H 0.03912 0.83303 0.90672 0.0
H672 H 0.1003 0.91161 0.94742 0.0
H673 H 0.10429 0.94612 0.96936 0.0
H674 H 0.06515 0.02205 0.9492 0.0
H675 H 0.06023 0.9875 0.92717 0.0
C676 C 0.19584 0.98602 0.87612 0.0
C677 C 0.18976 0.01565 0.86948 0.0
C678 C 0.16675 0.95854 0.88535 0.0
C679 C 0.13141 0.96063 0.88823 0.0
C680 C 0.12484 0.9897 0.88145 0.0
C681 C 0.15362 0.01675 0.872 0.0
C682 C 0.10243 0.93352 0.89881 0.0
C683 C 0.10013 0.9509 0.91127 0.0
C684 C 0.08039 0.89058 0.89718 0.0
C685 C 0.08159 0.87074 0.88415 0.0
C686 C 0.0713 0.88182 0.8716 0.0
C687 C 0.0729 0.86328 0.85936 0.0
C688 C 0.08452 0.83342 0.85954 0.0
C689 C 0.09447 0.82196 0.87198 0.0
C690 C 0.09295 0.84044 0.88425 0.0
C691 C 0.97434 0.83386 0.94874 0.0
C692 C 0.97637 0.79842 0.95165 0.0
C693 C -4e-05 0.8616 0.93878 0.0
C694 C 0.02889 0.855 0.93186 0.0
C695 C 0.03161 0.82009 0.93509 0.0
C696 C 0.00536 0.7919 0.94479 0.0
C697 C 0.05491 0.88312 0.92076 0.0
C698 C 0.05673 0.86597 0.90813 0.0
C699 C 0.07722 0.92629 0.92237 0.0
C700 C 0.0794 0.94658 0.93567 0.0
C701 C 0.09209 0.93534 0.94769 0.0
C702 C 0.0946 0.95497 0.96014 0.0
C703 C 0.08484 0.98616 0.96068 0.0
C704 C 0.07258 0.9978 0.94877 0.0
C705 C 0.06992 0.9782 0.9363 0.0
H706 H 0.0869 0.00139 0.97032 0.0
H707 H 0.08574 0.8191 0.85005 0.0
H708 H 0.64875 0.49684 0.01811 0.0
H709 H 0.58293 0.4857 0.02675 0.0
H710 H 0.58716 0.57437 0.99773 0.0
H711 H 0.65324 0.58608 0.98931 0.0
H712 H 0.55585 0.58157 0.02121 0.0
H713 H 0.53171 0.47106 0.99121 0.0
H714 H 0.53949 0.41394 0.98244 0.0
H715 H 0.49465 0.34997 0.02068 0.0
H716 H 0.48713 0.407 0.02975 0.0
H717 H 0.336 0.49397 0.01397 0.0
H718 H 0.41065 0.52619 0.01228 0.0
H719 H 0.41037 0.44881 0.04498 0.0
H720 H 0.33613 0.41658 0.04674 0.0
H721 H 0.44067 0.43824 0.02057 0.0
H722 H 0.45935 0.54966 0.04941 0.0
H723 H 0.44944 0.60683 0.05659 0.0
H724 H 0.50129 0.66893 0.01853 0.0
H725 H 0.51098 0.61184 0.01103 0.0
C726 C 0.63575 0.51421 0.01371 0.0
C727 C 0.65624 0.54263 0.00317 0.0
C728 C 0.59818 0.50783 0.01862 0.0
C729 C 0.57984 0.52888 0.01278 0.0
C730 C 0.6008 0.558 0.00246 0.0
C731 C 0.63867 0.56479 0.99769 0.0
C732 C 0.5378 0.51871 0.01684 0.0
C733 C 0.53057 0.55028 0.02098 0.0
C734 C 0.50482 0.47785 0.01662 0.0
C735 C 0.5093 0.44349 0.01121 0.0
C736 C 0.52382 0.44495 0.99779 0.0
C737 C 0.52813 0.41258 0.99276 0.0
C738 C 0.51768 0.3784 0.00102 0.0
C739 C 0.5028 0.37649 0.01431 0.0
C740 C 0.49849 0.40882 0.01939 0.0
C741 C 0.35199 0.48491 0.02115 0.0
C742 C 0.3301 0.45223 0.03033 0.0
C743 C 0.39468 0.50333 0.02016 0.0
C744 C 0.41593 0.48951 0.02841 0.0
C745 C 0.39449 0.45969 0.03846 0.0
C746 C 0.35203 0.44132 0.03944 0.0
C747 C 0.45875 0.50095 0.02514 0.0
C748 C 0.46602 0.46951 0.02098 0.0
C749 C 0.49136 0.54191 0.02512 0.0
C750 C 0.48552 0.57626 0.0296 0.0
C751 C 0.46828 0.57531 0.04251 0.0
C752 C 0.46279 0.60776 0.04665 0.0
C753 C 0.47463 0.64144 0.03801 0.0
C754 C 0.49209 0.6428 0.02521 0.0
C755 C 0.49763 0.61043 0.02102 0.0
H756 H 0.47036 0.66653 0.04123 0.0
H757 H 0.52103 0.35336 0.9971 0.0
H758 H 0.85232 0.32465 0.19237 0.0
H759 H 0.88996 0.39973 0.19231 0.0
H760 H 0.00427 0.3994 0.1934 0.0
H761 H 0.96723 0.32516 0.19408 0.0
H762 H 0.0132 0.4598 0.20778 0.0
H763 H 0.95731 0.40719 0.16257 0.0
H764 H 0.90197 0.36813 0.14587 0.0
H765 H 0.84685 0.44076 0.15584 0.0
H766 H 0.90168 0.47993 0.17272 0.0
H767 H 0.14135 0.61782 0.15918 0.0
H768 H 0.08923 0.55117 0.16787 0.0
H769 H 0.0351 0.60879 0.19138 0.0
H770 H 0.08864 0.67597 0.18351 0.0
H771 H 0.98767 0.52568 0.16778 0.0
H772 H 0.05374 0.58225 0.21263 0.0
H773 H 0.11565 0.62054 0.2269 0.0
H774 H 0.15766 0.53828 0.21472 0.0
H775 H 0.09624 0.49992 0.20022 0.0
C776 C 0.88546 0.34066 0.19283 0.0
C777 C 0.90673 0.31883 0.19308 0.0
C778 C 0.90695 0.38357 0.19273 0.0
C779 C 0.95003 0.40531 0.19257 0.0
C780 C 0.97109 0.38349 0.19352 0.0
C781 C 0.94975 0.34084 0.19384 0.0
C782 C 0.97373 0.4504 0.19043 0.0
C783 C 0.0072 0.47415 0.19911 0.0
C784 C 0.96608 0.46951 0.17916 0.0
C785 C 0.93323 0.44608 0.16902 0.0
C786 C 0.93322 0.41461 0.16126 0.0
C787 C 0.90199 0.39249 0.15176 0.0
C788 C 0.87083 0.40186 0.14983 0.0
C789 C 0.87094 0.43346 0.15737 0.0
C790 C 0.90207 0.45563 0.1669 0.0
C791 C 0.11861 0.61657 0.16627 0.0
C792 C 0.11877 0.65249 0.17032 0.0
C793 C 0.08877 0.57839 0.17117 0.0
C794 C 0.05839 0.57525 0.18018 0.0
C795 C 0.0583 0.61076 0.18435 0.0
C796 C 0.08864 0.64917 0.17963 0.0
C797 C 0.02687 0.53439 0.18504 0.0
C798 C 0.99242 0.51144 0.17675 0.0
C799 C 0.03402 0.51579 0.19646 0.0
C800 C 0.0707 0.53857 0.20524 0.0
C801 C 0.07641 0.57263 0.21289 0.0
C802 C 0.11134 0.59427 0.22105 0.0
C803 C 0.14064 0.58193 0.22168 0.0
C804 C 0.13499 0.54785 0.2142 0.0
C805 C 0.10012 0.52614 0.20602 0.0
H806 H 0.16766 0.59871 0.228 0.0
H807 H 0.84668 0.38471 0.14247 0.0
H808 H 0.41801 0.10263 0.35005 0.0
H809 H 0.41997 0.0424 0.35795 0.0
H810 H 0.52643 0.07655 0.33272 0.0
H811 H 0.52225 0.13457 0.32378 0.0
H812 H 0.4796 0.00039 0.3301 0.0
H813 H 0.52874 0.09108 0.36915 0.0
H814 H 0.52541 0.13453 0.38747 0.0
H815 H 0.41779 0.03096 0.40396 0.0
H816 H 0.42023 0.98699 0.38563 0.0
H817 H 0.58305 0.92828 0.37898 0.0
H818 H 0.54902 0.96805 0.37637 0.0
H819 H 0.45512 0.87184 0.35168 0.0
H820 H 0.49025 0.83227 0.35376 0.0
H821 H 0.48204 0.97006 0.37958 0.0
H822 H 0.43773 0.9147 0.32394 0.0
H823 H 0.4549 0.87999 0.30578 0.0
H824 H 0.57561 0.92815 0.32269 0.0
H825 H 0.55927 0.96351 0.34082 0.0
C826 C 0.44106 0.09678 0.34582 0.0
C827 C 0.46899 0.1228 0.33584 0.0
C828 C 0.4427 0.06264 0.35062 0.0
C829 C 0.47329 0.05471 0.34593 0.0
C830 C 0.50214 0.08157 0.33637 0.0
C831 C 0.49995 0.11508 0.33137 0.0
C832 C 0.4756 0.01851 0.3508 0.0
C833 C 0.47976 0.99365 0.34093 0.0
C834 C 0.47592 0.00953 0.36492 0.0
C835 C 0.47436 0.0359 0.37593 0.0
C836 C 0.50418 0.07767 0.37662 0.0
C837 C 0.50249 0.10236 0.38702 0.0
C838 C 0.47133 0.08555 0.39685 0.0
C839 C 0.44186 0.04396 0.39632 0.0
C840 C 0.44338 0.01914 0.38594 0.0
C841 C 0.5546 0.91498 0.37325 0.0
C842 C 0.54008 0.87766 0.3662 0.0
C843 C 0.53495 0.93774 0.37185 0.0
C844 C 0.50019 0.92352 0.36348 0.0
C845 C 0.48252 0.88384 0.35792 0.0
C846 C 0.50252 0.86113 0.35918 0.0
C847 C 0.48728 0.95295 0.35889 0.0
C848 C 0.48085 0.97632 0.36876 0.0
C849 C 0.48677 0.96188 0.34477 0.0
C850 C 0.49706 0.94122 0.33381 0.0
C851 C 0.46793 0.91791 0.32375 0.0
C852 C 0.47753 0.89815 0.31347 0.0
C853 C 0.51627 0.90173 0.31312 0.0
C854 C 0.54558 0.92528 0.323 0.0
C855 C 0.53617 0.94518 0.33327 0.0
H856 H 0.5236 0.88635 0.30517 0.0
H857 H 0.47008 0.10471 0.40489 0.0
H858 H 0.32766 0.42581 0.51516 0.0
H859 H 0.39698 0.44156 0.52126 0.0
H860 H 0.44677 0.54144 0.4922 0.0
H861 H 0.37776 0.52464 0.4856 0.0
H862 H 0.48392 0.49842 0.48965 0.0
H863 H 0.44516 0.55638 0.52721 0.0
H864 H 0.40211 0.55401 0.54667 0.0
H865 H 0.42494 0.46657 0.56724 0.0
H866 H 0.46774 0.46808 0.5478 0.0
H867 H 0.67448 0.64199 0.53049 0.0
H868 H 0.6003 0.6039 0.5284 0.0
H869 H 0.60631 0.50326 0.50971 0.0
H870 H 0.68116 0.54178 0.51149 0.0
H871 H 0.53843 0.53452 0.53711 0.0
H872 H 0.53449 0.46272 0.48492 0.0
H873 H 0.57648 0.47434 0.46413 0.0
H874 H 0.63988 0.60394 0.4717 0.0
H875 H 0.59849 0.59297 0.49256 0.0
C876 C 0.35329 0.45054 0.50986 0.0
C877 C 0.34714 0.47333 0.49963 0.0
C878 C 0.39296 0.45989 0.51351 0.0
C879 C 0.42707 0.4926 0.50715 0.0
C880 C 0.42091 0.51581 0.49716 0.0
C881 C 0.38142 0.50637 0.49347 0.0
C882 C 0.46946 0.5031 0.51075 0.0
C883 C 0.49569 0.50584 0.50007 0.0
C884 C 0.48488 0.51285 0.52432 0.0
C885 C 0.4592 0.51196 0.53599 0.0
C886 C 0.44071 0.5364 0.53583 0.0
C887 C 0.41642 0.53526 0.54687 0.0
C888 C 0.41068 0.51005 0.55816 0.0
C889 C 0.42933 0.48601 0.55847 0.0
C890 C 0.45362 0.48701 0.54745 0.0
C891 C 0.66016 0.61156 0.52607 0.0
C892 C 0.6839 0.59519 0.52098 0.0
C893 C 0.6176 0.58969 0.52496 0.0
C894 C 0.59773 0.55095 0.51874 0.0
C895 C 0.62106 0.53339 0.51437 0.0
C896 C 0.66383 0.55538 0.51545 0.0
C897 C 0.55312 0.53096 0.51593 0.0
C898 C 0.52639 0.52611 0.52676 0.0
C899 C 0.53733 0.52024 0.50243 0.0
C900 C 0.56381 0.52696 0.49035 0.0
C901 C 0.55764 0.49363 0.48218 0.0
C902 C 0.58132 0.5001 0.4704 0.0
C903 C 0.61094 0.53982 0.46662 0.0
C904 C 0.61717 0.57315 0.47468 0.0
C905 C 0.59374 0.56682 0.48652 0.0
H906 H 0.62884 0.54475 0.4574 0.0
H907 H 0.39187 0.50921 0.5667 0.0
H908 H 0.87225 0.32682 0.68283 0.0
H909 H 0.92978 0.39014 0.69211 0.0
H910 H 0.9533 0.44474 0.65178 0.0
H911 H 0.89524 0.38188 0.64253 0.0
H912 H 0.02574 0.45065 0.66873 0.0
H913 H 0.90913 0.47455 0.66967 0.0
H914 H 0.83901 0.45631 0.67647 0.0
H915 H 0.87033 0.4574 0.71897 0.0
H916 H 0.94052 0.47506 0.71237 0.0
H917 H 0.14384 0.66489 0.67259 0.0
H918 H 0.10203 0.59126 0.6694 0.0
H919 H 0.05994 0.57811 0.71139 0.0
H920 H 0.0997 0.65247 0.71422 0.0
H921 H 0.99835 0.54406 0.69684 0.0
H922 H 0.11691 0.5316 0.69743 0.0
H923 H 0.18718 0.54726 0.69205 0.0
H924 H 0.15514 0.52082 0.64945 0.0
H925 H 0.08481 0.50556 0.65452 0.0
C926 C 0.88978 0.35241 0.67599 0.0
C927 C 0.87955 0.34975 0.662 0.0
C928 C 0.92254 0.38836 0.68127 0.0
C929 C 0.94581 0.42176 0.67258 0.0
C930 C 0.93577 0.41904 0.65859 0.0
C931 C 0.9025 0.38343 0.65337 0.0
C932 C 0.97965 0.46029 0.67814 0.0
C933 C 0.02009 0.47138 0.67484 0.0
C934 C 0.97197 0.48609 0.68658 0.0
C935 C 0.92984 0.47555 0.69052 0.0
C936 C 0.90092 0.47045 0.68045 0.0
C937 C 0.8612 0.46033 0.68427 0.0
C938 C 0.85017 0.45555 0.69814 0.0
C939 C 0.87888 0.46101 0.70822 0.0
C940 C 0.91863 0.47108 0.70445 0.0
C941 C 0.12685 0.64613 0.68129 0.0
C942 C 0.12476 0.66428 0.69362 0.0
C943 C 0.10295 0.60381 0.67949 0.0
C944 C 0.07761 0.57875 0.69015 0.0
C945 C 0.07883 0.59668 0.70294 0.0
C946 C 0.10178 0.63913 0.70461 0.0
C947 C 0.04542 0.53567 0.68727 0.0
C948 C 0.00484 0.52342 0.69102 0.0
C949 C 0.05325 0.5085 0.67949 0.0
C950 C 0.09557 0.51765 0.67636 0.0
C951 C 0.1249 0.5294 0.68689 0.0
C952 C 0.16474 0.53816 0.6839 0.0
C953 C 0.17563 0.5351 0.67041 0.0
C954 C 0.14666 0.52318 0.65989 0.0
C955 C 0.10677 0.5144 0.66282 0.0
H956 H 0.2065 0.5419 0.66812 0.0
H957 H 0.81941 0.44773 0.70108 0.0
H958 H 0.57702 0.91692 0.82944 0.0
H959 H 0.56132 0.96862 0.83785 0.0
H960 H 0.43713 0.87408 0.84629 0.0
H961 H 0.45295 0.82208 0.83808 0.0
H962 H 0.44108 0.936 0.83089 0.0
H963 H 0.50326 0.92278 0.87234 0.0
H964 H 0.55801 0.92242 0.8861 0.0
H965 H 0.64048 0.0476 0.87496 0.0
H966 H 0.58635 0.04853 0.86097 0.0
H967 H 0.36226 0.03865 0.86715 0.0
H968 H 0.39273 0.99548 0.86422 0.0
H969 H 0.50503 0.09955 0.85017 0.0
H970 H 0.47451 0.14341 0.85286 0.0
H971 H 0.51208 0.03753 0.86805 0.0
H972 H 0.45109 0.05137 0.82668 0.0
H973 H 0.39764 0.05207 0.81226 0.0
H974 H 0.31472 0.92617 0.82238 0.0
H975 H 0.3674 0.92498 0.83713 0.0
C976 C 0.54682 0.90699 0.83357 0.0
C977 C 0.51647 0.86536 0.83351 0.0
C978 C 0.5378 0.93662 0.83826 0.0
C979 C 0.49821 0.92512 0.84284 0.0
C980 C 0.46795 0.88353 0.84287 0.0
C981 C 0.47699 0.85391 0.83821 0.0
C982 C 0.48741 0.95659 0.84662 0.0
C983 C 0.45625 0.95782 0.83914 0.0
C984 C 0.50834 0.98604 0.85703 0.0
C985 C 0.54086 0.98558 0.86549 0.0
C986 C 0.53317 0.95012 0.87273 0.0
C987 C 0.56407 0.94984 0.88059 0.0
C988 C 0.60273 0.98493 0.88137 0.0
C989 C 0.61053 0.02042 0.87433 0.0
C990 C 0.57974 0.02086 0.86644 0.0
C991 C 0.39376 0.05276 0.86371 0.0
C992 C 0.4157 0.09439 0.85999 0.0
C993 C 0.41109 0.02796 0.86207 0.0
C994 C 0.45076 0.0443 0.85678 0.0
C995 C 0.47425 0.0865 0.85423 0.0
C996 C 0.45676 0.11146 0.85578 0.0
C997 C 0.46527 0.01616 0.85249 0.0
C998 C 0.49708 0.01569 0.8598 0.0
C999 C 0.44517 0.98746 0.84183 0.0
C1000 C 0.41308 0.98826 0.83317 0.0
C1001 C 0.42128 0.024 0.826 0.0
C1002 C 0.39115 0.02445 0.81773 0.0
C1003 C 0.35278 0.98922 0.81644 0.0
C1004 C 0.34444 0.95347 0.82342 0.0
C1005 C 0.37441 0.9529 0.83174 0.0
H1006 H 0.32955 0.98957 0.80998 0.0
H1007 H 0.62662 0.98465 0.88747 0.0
H1008 H 0.5262 0.36216 0.82342 0.0
H1009 H 0.54056 0.42896 0.81467 0.0
H1010 H 0.43049 0.41291 0.83403 0.0
H1011 H 0.41627 0.34644 0.84286 0.0
H1012 H 0.43701 0.44273 0.80874 0.0
H1013 H 0.52268 0.47615 0.84802 0.0
H1014 H 0.57439 0.47733 0.86383 0.0
H1015 H 0.66583 0.53042 0.83225 0.0
H1016 H 0.61453 0.52912 0.81619 0.0
H1017 H 0.50837 0.66239 0.8111 0.0
H1018 H 0.47863 0.58861 0.81472 0.0
H1019 H 0.57219 0.58922 0.78911 0.0
H1020 H 0.60177 0.66249 0.78526 0.0
H1021 H 0.5713 0.56695 0.81757 0.0
H1022 H 0.48069 0.53518 0.77873 0.0
H1023 H 0.42721 0.53824 0.76506 0.0
H1024 H 0.34262 0.48595 0.79862 0.0
H1025 H 0.3958 0.48312 0.81257 0.0
C1026 C 0.5051 0.37294 0.82579 0.0
C1027 C 0.46965 0.3487 0.83355 0.0
C1028 C 0.51332 0.41107 0.82081 0.0
C1029 C 0.48658 0.42592 0.82371 0.0
C1030 C 0.45126 0.40183 0.83153 0.0
C1031 C 0.443 0.36367 0.83648 0.0
C1032 C 0.49573 0.46679 0.8187 0.0
C1033 C 0.46623 0.46998 0.81079 0.0
C1034 C 0.53387 0.50231 0.82134 0.0
C1035 C 0.5646 0.50207 0.83084 0.0
C1036 C 0.55369 0.48762 0.84439 0.0
C1037 C 0.58296 0.48843 0.85341 0.0
C1038 C 0.62334 0.50382 0.84903 0.0
C1039 C 0.63452 0.51844 0.83562 0.0
C1040 C 0.60537 0.51769 0.82655 0.0
C1041 C 0.52167 0.64657 0.80579 0.0
C1042 C 0.55796 0.66849 0.79812 0.0
C1043 C 0.50466 0.60441 0.8079 0.0
C1044 C 0.52365 0.58378 0.80233 0.0
C1045 C 0.55733 0.60477 0.79356 0.0
C1046 C 0.57415 0.64669 0.79138 0.0
C1047 C 0.51303 0.54267 0.80738 0.0
C1048 C 0.54223 0.53958 0.81544 0.0
C1049 C 0.47436 0.50763 0.80513 0.0
C1050 C 0.44239 0.50935 0.79675 0.0
C1051 C 0.45082 0.52472 0.78325 0.0
C1052 C 0.42052 0.52632 0.77544 0.0
C1053 C 0.38157 0.51241 0.78098 0.0
C1054 C 0.37282 0.49677 0.79434 0.0
C1055 C 0.40302 0.49512 0.8022 0.0
H1056 H 0.35816 0.51367 0.77491 0.0
H1057 H 0.64598 0.50453 0.85605 0.0
H1058 H 0.94873 0.61961 0.95851 0.0
H1059 H 0.98622 0.58283 0.95951 0.0
H1060 H 0.88238 0.48001 0.97858 0.0
H1061 H 0.84471 0.51734 0.97797 0.0
H1062 H 0.94809 0.50192 0.99317 0.0
H1063 H 0.91718 0.47283 0.94588 0.0
H1064 H 0.90998 0.48657 0.92158 0.0
H1065 H 0.03951 0.56982 0.91898 0.0
H1066 H 0.04746 0.55706 0.94333 0.0
H1067 H 0.07159 0.41077 -0.00022 0.0
H1068 H 0.01564 0.41965 0.99112 0.0
H1069 H 0.10338 0.53671 0.97394 0.0
H1070 H 0.15955 0.52725 0.9822 0.0
H1071 H 0.03626 0.4938 0.95692 0.0
H1072 H 0.0633 0.53147 0.00511 0.0
H1073 H 0.07075 0.51841 0.02948 0.0
H1074 H 0.94688 0.41819 0.03001 0.0
H1075 H 0.93891 0.43035 0.00557 0.0
C1076 C 0.93339 0.58884 0.96268 0.0
C1077 C 0.89379 0.57164 0.96831 0.0
C1078 C 0.95486 0.56764 0.96314 0.0
C1079 C 0.93711 0.52847 0.96904 0.0
C1080 C 0.8967 0.5102 0.97396 0.0
C1081 C 0.87516 0.53153 0.97357 0.0
C1082 C 0.96269 0.50931 0.97156 0.0
C1083 C 0.96648 0.49907 0.98514 0.0
C1084 C 0.98742 0.50638 0.96117 0.0
C1085 C 0.98287 0.51411 0.94648 0.0
C1086 C 0.94411 0.49428 0.94016 0.0
C1087 C 0.9399 0.50186 0.92637 0.0
C1088 C 0.97425 0.52909 0.91874 0.0
C1089 C 0.01292 0.54873 0.9249 0.0
C1090 C 0.01731 0.54127 0.93869 0.0
C1091 C 0.07895 0.43767 0.99371 0.0
C1092 C 0.11989 0.46793 0.99136 0.0
C1093 C 0.04695 0.44294 0.98892 0.0
C1094 C 0.05536 0.47891 0.98194 0.0
C1095 C 0.09622 0.50861 0.97923 0.0
C1096 C 0.12824 0.5033 0.984 0.0
C1097 C 0.02197 0.48736 0.9785 0.0
C1098 C 0.01697 0.49571 0.96481 0.0
C1099 C 0.99601 0.48854 0.98877 0.0
C1100 C 0.00067 0.48151 0.00349 0.0
C1101 C 0.03776 0.50647 0.0104 0.0
C1102 C 0.04206 0.49926 0.02423 0.0
C1103 C 0.00935 0.46741 0.03128 0.0
C1104 C 0.97222 0.44279 0.02453 0.0
C1105 C 0.96779 0.44984 0.01069 0.0
H1106 H 0.01274 0.46186 0.04199 0.0
H1107 H 0.97092 0.53492 0.90806 0.0
H1108 H 0.32833 0.84543 0.15119 0.0
H1109 H 0.40292 0.88321 0.1537 0.0
H1110 H 0.40948 0.98254 0.1297 0.0
H1111 H 0.33533 0.94497 0.12697 0.0
H1112 H 0.47537 0.97344 0.12492 0.0
H1113 H 0.40161 0.98318 0.16399 0.0
H1114 H 0.35181 0.9562 0.18303 0.0
H1115 H 0.41603 0.90007 0.20079 0.0
H1116 H 0.46589 0.92624 0.18172 0.0
H1117 H 0.64407 0.15355 0.1525 0.0
H1118 H 0.57656 0.09887 0.14499 0.0
H1119 H 0.59096 0.01182 0.16968 0.0
H1120 H 0.6579 0.06638 0.1774 0.0
H1121 H 0.51724 0.0075 0.17369 0.0
H1122 H 0.59777 0.0086 0.1356 0.0
H1123 H 0.64789 0.03973 0.1168 0.0
H1124 H 0.57149 0.07944 0.09732 0.0
H1125 H 0.52117 0.0491 0.11612 0.0
C1126 C 0.34573 0.87482 0.14613 0.0
C1127 C 0.32581 0.89252 0.13909 0.0
C1128 C 0.38834 0.89643 0.14762 0.0
C1129 C 0.41158 0.93602 0.14212 0.0
C1130 C 0.39212 0.95214 0.13408 0.0
C1131 C 0.34963 0.93064 0.1326 0.0
C1132 C 0.45512 0.96266 0.14598 0.0
C1133 C 0.4846 0.98095 0.13557 0.0
C1134 C 0.46716 0.97206 0.1599 0.0
C1135 C 0.43715 0.9562 0.17135 0.0
C1136 C 0.40489 0.96476 0.17189 0.0
C1137 C 0.37669 0.94968 0.1827 0.0
C1138 C 0.38068 0.92633 0.1931 0.0
C1139 C 0.41292 0.91808 0.19271 0.0
C1140 C 0.44115 0.93301 0.18191 0.0
C1141 C 0.63287 0.12266 0.15622 0.0
C1142 C 0.65655 0.11398 0.16527 0.0
C1143 C 0.59452 0.09145 0.15187 0.0
C1144 C 0.57912 0.05118 0.1566 0.0
C1145 C 0.60256 0.04259 0.16577 0.0
C1146 C 0.64099 0.0737 0.17004 0.0
C1147 C 0.53751 0.01858 0.15263 0.0
C1148 C 0.5083 0.99937 0.16304 0.0
C1149 C 0.52575 0.00875 0.13872 0.0
C1150 C 0.55582 0.02682 0.12734 0.0
C1151 C 0.59179 0.02424 0.12737 0.0
C1152 C 0.62022 0.0417 0.1167 0.0
C1153 C 0.61292 0.06162 0.10588 0.0
C1154 C 0.57711 0.06403 0.1057 0.0
C1155 C 0.5486 0.04666 0.11636 0.0
H1156 H 0.63497 0.07512 0.09763 0.0
H1157 H 0.35886 0.91475 0.20147 0.0
H1158 H 0.47818 0.60863 0.3451 0.0
H1159 H 0.47189 0.54583 0.33562 0.0
H1160 H 0.54867 0.6141 0.30142 0.0
H1161 H 0.55514 0.67722 0.31093 0.0
H1162 H 0.44046 0.50636 0.31275 0.0
H1163 H 0.60385 0.56738 0.29133 0.0
H1164 H 0.67422 0.62382 0.29558 0.0
H1165 H 0.64393 0.62949 0.33775 0.0
H1166 H 0.57363 0.57272 0.33381 0.0
H1167 H 0.42518 0.34063 0.27917 0.0
H1168 H 0.45512 0.41478 0.28086 0.0
H1169 H 0.52276 0.41622 0.31681 0.0
H1170 H 0.49384 0.34216 0.31494 0.0
H1171 H 0.56139 0.49105 0.30291 0.0
H1172 H 0.42797 0.39477 0.3213 0.0
H1173 H 0.35815 0.33529 0.31947 0.0
H1174 H 0.32875 0.39734 0.28837 0.0
H1175 H 0.39871 0.45693 0.28986 0.0
C1176 C 0.49363 0.61026 0.33554 0.0
C1177 C 0.51777 0.64793 0.32889 0.0
C1178 C 0.49003 0.57436 0.33013 0.0
C1179 C 0.51024 0.57532 0.3179 0.0
C1180 C 0.53353 0.61277 0.31102 0.0
C1181 C 0.53734 0.64884 0.31649 0.0
C1182 C 0.50642 0.53683 0.31243 0.0
C1183 C 0.46697 0.50325 0.3105 0.0
C1184 C 0.54096 0.53248 0.30965 0.0
C1185 C 0.58336 0.56614 0.31221 0.0
C1186 C 0.61227 0.58059 0.30152 0.0
C1187 C 0.65214 0.61264 0.30387 0.0
C1188 C 0.66349 0.63033 0.31691 0.0
C1189 C 0.63506 0.61587 0.32764 0.0
C1190 C 0.59519 0.58379 0.32535 0.0
C1191 C 0.44784 0.357 0.28707 0.0
C1192 C 0.45652 0.33561 0.29711 0.0
C1193 C 0.46493 0.39937 0.28802 0.0
C1194 C 0.49016 0.4207 0.2992 0.0
C1195 C 0.50313 0.40025 0.30816 0.0
C1196 C 0.48651 0.35785 0.30708 0.0
C1197 C 0.49554 0.46102 0.30319 0.0
C1198 C 0.53506 0.49467 0.30491 0.0
C1199 C 0.46109 0.4653 0.30619 0.0
C1200 C 0.41864 0.4301 0.30559 0.0
C1201 C 0.40665 0.39564 0.31403 0.0
C1202 C 0.36708 0.36191 0.31305 0.0
C1203 C 0.33906 0.36249 0.30378 0.0
C1204 C 0.35051 0.3969 0.29552 0.0
C1205 C 0.39011 0.43067 0.29643 0.0
H1206 H 0.30846 0.33632 0.30301 0.0
H1207 H 0.69435 0.65517 0.31871 0.0
H1208 H 0.84079 0.49213 0.48564 0.0
H1209 H 0.88988 0.47086 0.47892 0.0
H1210 H 0.98777 0.57992 0.49744 0.0
H1211 H 0.93882 0.60109 0.50434 0.0
H1212 H 0.0114 0.56136 0.47277 0.0
H1213 H 0.94823 0.49404 0.51482 0.0
H1214 H 0.89108 0.4529 0.53065 0.0
H1215 H 0.84632 0.35011 0.50325 0.0
H1216 H 0.90291 0.39087 0.48715 0.0
H1217 H 0.14567 0.47658 0.48182 0.0
H1218 H 0.10512 0.51073 0.484 0.0
H1219 H 0.00225 0.40712 0.46493 0.0
H1220 H 0.0422 0.37288 0.46267 0.0
H1221 H 0.98417 0.42638 0.49029 0.0
H1222 H 0.0501 0.4956 0.44831 0.0
H1223 H 0.10897 0.53789 0.43324 0.0
H1224 H 0.15125 0.63825 0.46159 0.0
H1225 H 0.09291 0.59633 0.47693 0.0
C1226 C 0.87285 0.51178 0.48816 0.0
C1227 C 0.886 0.5486 0.49533 0.0
C1228 C 0.90084 0.49962 0.48431 0.0
C1229 C 0.94242 0.52375 0.48775 0.0
C1230 C 0.95588 0.56108 0.49458 0.0
C1231 C 0.92785 0.57329 0.49843 0.0
C1232 C 0.97119 0.50861 0.48495 0.0
C1233 C 0.00578 0.53207 0.47672 0.0
C1234 C 0.96365 0.47031 0.49005 0.0
C1235 C 0.92957 0.44565 0.49971 0.0
C1236 C 0.92601 0.46278 0.51211 0.0
C1237 C 0.89375 0.43951 0.52115 0.0
C1238 C 0.86502 0.39895 0.51794 0.0
C1239 C 0.86856 0.38156 0.50571 0.0
C1240 C 0.90073 0.40472 0.49663 0.0
C1241 C 0.11471 0.46145 0.47782 0.0
C1242 C 0.09706 0.42177 0.47222 0.0
C1243 C 0.09162 0.48104 0.47906 0.0
C1244 C 0.05064 0.46129 0.47469 0.0
C1245 C 0.03376 0.42275 0.46843 0.0
C1246 C 0.05674 0.40326 0.46714 0.0
C1247 C 0.02392 0.47861 0.47783 0.0
C1248 C 0.9898 0.45563 0.48628 0.0
C1249 C 0.03225 0.51745 0.47304 0.0
C1250 C 0.06738 0.54266 0.46384 0.0
C1251 C 0.07216 0.52655 0.4514 0.0
C1252 C 0.10539 0.55049 0.44279 0.0
C1253 C 0.1339 0.59069 0.44648 0.0
C1254 C 0.12918 0.60708 0.45876 0.0
C1255 C 0.09602 0.58325 0.46741 0.0
H1256 H 0.1596 0.60918 0.4398 0.0
H1257 H 0.84008 0.38098 0.52495 0.0
H1258 H 0.33808 0.92398 0.66221 0.0
H1259 H 0.40397 0.9758 0.65272 0.0
H1260 H 0.43634 0.88263 0.6454 0.0
H1261 H 0.37038 0.83072 0.65484 0.0
H1262 H 0.49464 0.9453 0.65933 0.0
H1263 H 0.41517 0.92891 0.61881 0.0
H1264 H 0.35853 0.92665 0.60543 0.0
H1265 H 0.4001 0.05214 0.61577 0.0
H1266 H 0.45669 0.05498 0.62939 0.0
H1267 H 0.67311 0.04849 0.62277 0.0
H1268 H 0.59886 0.00635 0.62402 0.0
H1269 H 0.59127 0.10771 0.6412 0.0
H1270 H 0.66607 0.15044 0.64009 0.0
H1271 H 0.52022 0.04518 0.622 0.0
H1272 H 0.59684 0.05926 0.66381 0.0
H1273 H 0.65524 0.06195 0.67621 0.0
H1274 H 0.61835 0.93975 0.66288 0.0
H1275 H 0.56014 0.93666 0.65018 0.0
C1276 C 0.35864 0.91435 0.65812 0.0
C1277 C 0.34881 0.8732 0.65895 0.0
C1278 C 0.3964 0.94403 0.65278 0.0
C1279 C 0.42493 0.93303 0.64823 0.0
C1280 C 0.41473 0.89177 0.64882 0.0
C1281 C 0.37708 0.86217 0.65417 0.0
C1282 C 0.46669 0.96477 0.64397 0.0
C1283 C 0.50005 0.96678 0.65107 0.0
C1284 C 0.47386 0.99362 0.63345 0.0
C1285 C 0.43992 0.99202 0.62524 0.0
C1286 C 0.41203 0.95592 0.61834 0.0
C1287 C 0.37998 0.95455 0.61069 0.0
C1288 C 0.37565 0.98919 0.60978 0.0
C1289 C 0.40345 0.02531 0.6165 0.0
C1290 C 0.43554 0.02682 0.62418 0.0
C1291 C 0.65571 0.06235 0.62644 0.0
C1292 C 0.67555 0.10255 0.63163 0.0
C1293 C 0.61323 0.03823 0.62707 0.0
C1294 C 0.58984 0.05387 0.63285 0.0
C1295 C 0.60897 0.09525 0.63667 0.0
C1296 C 0.6517 0.11954 0.63607 0.0
C1297 C 0.54752 0.02499 0.63727 0.0
C1298 C 0.51437 0.02367 0.63028 0.0
C1299 C 0.54028 0.99669 0.64793 0.0
C1300 C 0.5744 0.99789 0.65594 0.0
C1301 C 0.60135 0.03308 0.66345 0.0
C1302 C 0.6344 0.03467 0.67054 0.0
C1303 C 0.64056 0.00108 0.6703 0.0
C1304 C 0.61356 0.96576 0.66304 0.0
C1305 C 0.58052 0.96406 0.6559 0.0
H1306 H 0.66621 0.0024 0.67575 0.0
H1307 H 0.35081 0.98808 0.60386 0.0
H1308 H 0.29774 0.25964 0.87854 0.0
H1309 H 0.27298 0.28364 0.89779 0.0
H1310 H 0.29795 0.20976 0.92575 0.0
H1311 H 0.32147 0.18508 0.90646 0.0
H1312 H 0.22289 0.19741 0.9295 0.0
H1313 H 0.35852 0.31602 0.924 0.0
H1314 H 0.41372 0.37307 0.91098 0.0
H1315 H 0.33479 0.42238 0.90299 0.0
H1316 H 0.27894 0.3653 0.91581 0.0
H1317 H 0.22403 0.2736 0.99531 0.0
H1318 H 0.23593 0.25077 0.97333 0.0
H1319 H 0.20775 0.33435 0.9522 0.0
H1320 H 0.19696 0.35845 0.97428 0.0
H1321 H 0.27625 0.3423 0.94285 0.0
H1322 H 0.14332 0.22849 0.95077 0.0
H1323 H 0.08729 0.17098 0.96333 0.0
H1324 H 0.15901 0.11169 0.96635 0.0
H1325 H 0.21581 0.16918 0.95403 0.0
C1326 C 0.29846 0.24926 0.88887 0.0
C1327 C 0.31136 0.22077 0.89118 0.0
C1328 C 0.28437 0.26286 0.89982 0.0
C1329 C 0.28367 0.24849 0.9132 0.0
C1330 C 0.29802 0.22105 0.9155 0.0
C1331 C 0.31169 0.20722 0.90456 0.0
C1332 C 0.2664 0.26036 0.92481 0.0
C1333 C 0.23479 0.22907 0.93253 0.0
C1334 C 0.28073 0.30171 0.92834 0.0
C1335 C 0.31443 0.33617 0.92073 0.0
C1336 C 0.35285 0.33887 0.91938 0.0
C1337 C 0.38427 0.37123 0.91205 0.0
C1338 C 0.37773 0.40126 0.90613 0.0
C1339 C 0.3398 0.39906 0.90756 0.0
C1340 C 0.30826 0.36673 0.91486 0.0
C1341 C 0.21969 0.28676 0.98601 0.0
C1342 C 0.20968 0.318 0.98658 0.0
C1343 C 0.22629 0.27344 0.97341 0.0
C1344 C 0.22233 0.29053 0.96109 0.0
C1345 C 0.21092 0.32071 0.96158 0.0
C1346 C 0.20464 0.33434 0.97421 0.0
C1347 C 0.23358 0.27924 0.94787 0.0
C1348 C 0.26393 0.31061 0.93978 0.0
C1349 C 0.21799 0.23789 0.94398 0.0
C1350 C 0.18399 0.20337 0.95154 0.0
C1351 C 0.14733 0.20339 0.95422 0.0
C1352 C 0.11539 0.17075 0.96129 0.0
C1353 C 0.11962 0.13774 0.96566 0.0
C1354 C 0.1558 0.1373 0.96297 0.0
C1355 C 0.18786 0.1699 0.95594 0.0
H1356 H 0.09483 0.11246 0.9711 0.0
H1357 H 0.40209 0.42629 0.90045 0.0
H1358 H 0.102 0.37908 0.06461 0.0
H1359 H 0.04718 0.34818 0.0818 0.0
H1360 H 0.99627 0.23206 0.06081 0.0
H1361 H 0.05046 0.26325 0.04346 0.0
H1362 H 0.93605 0.2413 0.07336 0.0
H1363 H 0.06487 0.25181 0.08466 0.0
H1364 H 0.13991 0.28783 0.08753 0.0
H1365 H 0.1324 0.36641 0.11792 0.0
H1366 H 0.0573 0.33117 0.11508 0.0
H1367 H 0.92155 0.16265 0.15007 0.0
H1368 H 0.95144 0.17879 0.12707 0.0
H1369 H 0.87979 0.23586 0.11727 0.0
H1370 H 0.84853 0.21818 0.13999 0.0
H1371 H -0.00058 0.25112 0.11894 0.0
H1372 H 0.8732 0.24567 0.08293 0.0
H1373 H 0.79867 0.20296 0.07936 0.0
H1374 H 0.80025 0.10016 0.09771 0.0
H1375 H 0.87485 0.14205 0.10122 0.0
C1376 C 0.07811 0.34744 0.06341 0.0
C1377 C 0.08026 0.3233 0.05286 0.0
C1378 C 0.04701 0.32975 0.07323 0.0
C1379 C 0.01816 0.28766 0.07269 0.0
C1380 C 0.01822 0.26453 0.06142 0.0
C1381 C 0.04917 0.28227 0.05157 0.0
C1382 C 0.99241 0.26661 0.08479 0.0
C1383 C 0.94969 0.2435 0.08337 0.0
C1384 C 0.01047 0.26823 0.09769 0.0
C1385 C 0.05555 0.28912 0.09956 0.0
C1386 C 0.07926 0.27693 0.09189 0.0
C1387 C 0.12179 0.29719 0.09351 0.0
C1388 C 0.14092 0.32947 0.10287 0.0
C1389 C 0.11754 0.34145 0.11066 0.0
C1390 C 0.07499 0.32133 0.10905 0.0
C1391 C 0.91129 0.17755 0.14286 0.0
C1392 C 0.88297 0.18945 0.14687 0.0
C1393 C 0.92848 0.18689 0.12973 0.0
C1394 C 0.9181 0.20878 0.12043 0.0
C1395 C 0.88791 0.21843 0.12414 0.0
C1396 C 0.87013 0.2084 0.13718 0.0
C1397 C 0.94254 0.22605 0.10771 0.0
C1398 C 0.98535 0.24864 0.10899 0.0
C1399 C 0.92444 0.22279 0.09466 0.0
C1400 C 0.87961 0.19717 0.09245 0.0
C1401 C 0.85769 0.21391 0.08615 0.0
C1402 C 0.81541 0.18984 0.08414 0.0
C1403 C 0.79472 0.14891 0.08834 0.0
C1404 C 0.81629 0.13192 0.09451 0.0
C1405 C 0.85856 0.15583 0.09653 0.0
H1406 H 0.76199 0.13035 0.08679 0.0
H1407 H 0.17385 0.34513 0.10411 0.0
H1408 H 0.61532 0.84027 0.30862 0.0
H1409 H 0.63492 0.8769 0.28663 0.0
H1410 H 0.73951 0.97797 0.30602 0.0
H1411 H 0.72031 0.94199 0.32792 0.0
H1412 H 0.69218 0.00203 0.29192 0.0
H1413 H 0.75161 0.91549 0.28441 0.0
H1414 H 0.7497 0.84932 0.28252 0.0
H1415 H 0.6615 0.81292 0.24992 0.0
H1416 H 0.66248 0.87871 0.25175 0.0
H1417 H 0.82314 0.12853 0.24025 0.0
H1418 H 0.79068 0.08066 0.25931 0.0
H1419 H 0.69658 0.9955 0.23187 0.0
H1420 H 0.72965 0.04345 0.21267 0.0
H1421 H 0.72714 0.95774 0.24847 0.0
H1422 H 0.6728 0.04646 0.25414 0.0
H1423 H 0.67403 0.11231 0.25581 0.0
H1424 H 0.75007 0.1437 0.29173 0.0
H1425 H 0.74985 0.0783 0.29015 0.0
C1426 C 0.64289 0.86998 0.30814 0.0
C1427 C 0.66606 0.88832 0.32006 0.0
C1428 C 0.654 0.89086 0.29557 0.0
C1429 C 0.6885 0.93023 0.29475 0.0
C1430 C 0.71257 0.94774 0.30648 0.0
C1431 C 0.70158 0.92701 0.31899 0.0
C1432 C 0.69864 0.95458 0.28194 0.0
C1433 C 0.70013 0.9925 0.28244 0.0
C1434 C 0.70728 0.94128 0.26944 0.0
C1435 C 0.70674 0.90179 0.26833 0.0
C1436 C 0.73152 0.89322 0.27693 0.0
C1437 C 0.73067 0.85582 0.27585 0.0
C1438 C 0.70539 0.82687 0.26614 0.0
C1439 C 0.681 0.83533 0.25745 0.0
C1440 C 0.68171 0.87267 0.2585 0.0
C1441 C 0.79558 0.09955 0.23832 0.0
C1442 C 0.779 0.08926 0.22506 0.0
C1443 C 0.77692 0.07237 0.24919 0.0
C1444 C 0.7411 0.03463 0.24701 0.0
C1445 C 0.72422 0.02446 0.23375 0.0
C1446 C 0.7429 0.05181 0.22285 0.0
C1447 C 0.72211 0.00583 0.25863 0.0
C1448 C 0.71869 0.96704 0.25789 0.0
C1449 C 0.71142 0.01817 0.27093 0.0
C1450 C 0.71153 0.05754 0.27197 0.0
C1451 C 0.69005 0.06753 0.26234 0.0
C1452 C 0.69052 0.10476 0.26328 0.0
C1453 C 0.71217 0.1322 0.27386 0.0
C1454 C 0.73332 0.12242 0.28353 0.0
C1455 C 0.73299 0.08524 0.28263 0.0
H1456 H 0.71249 0.16102 0.27457 0.0
H1457 H 0.70478 0.79794 0.26531 0.0
H1458 H 0.65247 0.78435 0.40808 0.0
H1459 H 0.69159 0.76649 0.42388 0.0
H1460 H 0.72741 0.71703 0.39014 0.0
H1461 H 0.68823 0.73535 0.37419 0.0
H1462 H 0.70664 0.67251 0.41855 0.0
H1463 H 0.79493 0.80124 0.39605 0.0
H1464 H 0.81232 0.86927 0.38709 0.0
H1465 H 0.80158 0.90771 0.42765 0.0
H1466 H 0.78371 0.83973 0.43683 0.0
H1467 H 0.83911 0.67489 0.46992 0.0
H1468 H 0.82505 0.68833 0.4465 0.0
H1469 H 0.7942 0.77655 0.46224 0.0
H1470 H 0.80997 0.76488 0.48538 0.0
H1471 H 0.82415 0.79864 0.43776 0.0
H1472 H 0.7254 0.66941 0.45958 0.0
H1473 H 0.70724 0.60238 0.46964 0.0
H1474 H 0.73228 0.56378 0.43113 0.0
H1475 H 0.75256 0.63137 0.42102 0.0
C1476 C 0.66757 0.76841 0.40414 0.0
C1477 C 0.66765 0.76121 0.39001 0.0
C1478 C 0.69003 0.75846 0.41311 0.0
C1479 C 0.71275 0.74106 0.40809 0.0
C1480 C 0.71005 0.73055 0.39414 0.0
C1481 C 0.68761 0.74075 0.3851 0.0
C1482 C 0.74228 0.7382 0.41733 0.0
C1483 C 0.73302 0.69988 0.42253 0.0
C1484 C 0.77634 0.7741 0.42254 0.0
C1485 C 0.7878 0.81531 0.41711 0.0
C1486 C 0.7961 0.82413 0.40304 0.0
C1487 C 0.80616 0.86273 0.39793 0.0
C1488 C 0.80803 0.89279 0.40679 0.0
C1489 C 0.80011 0.88439 0.4208 0.0
C1490 C 0.79014 0.84587 0.42597 0.0
C1491 C 0.83057 0.69808 0.46832 0.0
C1492 C 0.82466 0.71807 0.47955 0.0
C1493 C 0.82241 0.70562 0.45493 0.0
C1494 C 0.80722 0.73242 0.45266 0.0
C1495 C 0.80546 0.75541 0.46371 0.0
C1496 C 0.81435 0.74852 0.47701 0.0
C1497 C 0.78781 0.73294 0.43944 0.0
C1498 C 0.79876 0.77099 0.43349 0.0
C1499 C 0.75498 0.69677 0.43367 0.0
C1500 C 0.74106 0.65562 0.4396 0.0
C1501 C 0.72726 0.64672 0.45328 0.0
C1502 C 0.71677 0.6087 0.459 0.0
C1503 C 0.71856 0.57883 0.45103 0.0
C1504 C 0.731 0.58698 0.43731 0.0
C1505 C 0.74226 0.62523 0.4316 0.0
H1506 H 0.71018 0.54934 0.45547 0.0
H1507 H 0.81559 0.92258 0.4028 0.0
H1508 H 0.95922 0.70828 0.5466 0.0
H1509 H 0.00559 0.72867 0.56647 0.0
H1510 H 0.90419 0.7012 0.59349 0.0
H1511 H 0.8582 0.6814 0.57363 0.0
H1512 H 0.96787 0.77621 0.59833 0.0
H1513 H 0.94735 0.64032 0.59217 0.0
H1514 H 0.94728 0.58416 0.57916 0.0
H1515 H 0.07643 0.65919 0.57187 0.0
H1516 H 0.07716 0.71603 0.58468 0.0
H1517 H 0.04719 0.77353 0.66391 0.0
H1518 H 0.01018 0.76174 0.64234 0.0
H1519 H 0.1199 0.79078 0.61976 0.0
H1520 H 0.15716 0.80193 0.64135 0.0
H1521 H 0.05753 0.72027 0.61131 0.0
H1522 H 0.07905 0.85427 0.61935 0.0
H1523 H 0.07877 0.91093 0.63189 0.0
H1524 H 0.94779 0.84064 0.63536 0.0
H1525 H 0.94731 0.78317 0.62309 0.0
C1526 C 0.94695 0.70594 0.55684 0.0
C1527 C 0.90551 0.69367 0.55871 0.0
C1528 C 0.97332 0.71759 0.56815 0.0
C1529 C 0.95832 0.71658 0.58145 0.0
C1530 C 0.91643 0.70251 0.58331 0.0
C1531 C 0.89021 0.69102 0.57203 0.0
C1532 C 0.98639 0.73214 0.5934 0.0
C1533 C 0.98715 0.76368 0.60129 0.0
C1534 C 0.01259 0.71679 0.59691 0.0
C1535 C 0.01222 0.68258 0.58926 0.0
C1536 C 0.97567 0.64496 0.5877 0.0
C1537 C 0.97552 0.61299 0.58038 0.0
C1538 C 0.0118 0.61814 0.57466 0.0
C1539 C 0.04833 0.65526 0.57628 0.0
C1540 C 0.04864 0.68735 0.58358 0.0
C1541 C 0.06374 0.7781 0.65437 0.0
C1542 C 0.10515 0.78845 0.65439 0.0
C1543 C 0.04252 0.77152 0.64202 0.0
C1544 C 0.0623 0.77554 0.62943 0.0
C1545 C 0.10404 0.78748 0.62937 0.0
C1546 C 0.12533 0.79401 0.64173 0.0
C1547 C 0.03847 0.76388 0.61646 0.0
C1548 C 0.03852 0.7331 0.60833 0.0
C1549 C 0.01296 0.77994 0.61274 0.0
C1550 C 0.01321 0.81419 0.62039 0.0
C1551 C 0.05022 0.85066 0.62293 0.0
C1552 C 0.05018 0.88297 0.62997 0.0
C1553 C 0.0133 0.87934 0.63445 0.0
C1554 C 0.97635 0.84337 0.63191 0.0
C1555 C 0.97622 0.81091 0.62491 0.0
H1556 H 0.01332 0.90444 0.63986 0.0
H1557 H 0.01162 0.59335 0.56899 0.0
H1558 H 0.28677 0.90123 0.72795 0.0
H1559 H 0.31721 0.95894 0.74406 0.0
H1560 H 0.21509 0.97879 0.73754 0.0
H1561 H 0.18681 0.92377 0.72064 0.0
H1562 H 0.27702 0.0479 0.74098 0.0
H1563 H 0.22346 0.91938 0.76485 0.0
H1564 H 0.21648 0.8531 0.77154 0.0
H1565 H 0.34192 0.91413 0.78482 0.0
H1566 H 0.34989 0.98072 0.77794 0.0
H1567 H 0.25395 0.08716 0.81448 0.0
H1568 H 0.24441 0.05627 0.79166 0.0
H1569 H 0.375 0.12238 0.78524 0.0
H1570 H 0.38485 0.15454 0.80779 0.0
H1571 H 0.30946 0.01785 0.78744 0.0
H1572 H 0.35709 0.14901 0.76375 0.0
H1573 H 0.35442 0.21204 0.75931 0.0
H1574 H 0.22741 0.14008 0.7483 0.0
H1575 H 0.22923 0.07661 0.7529 0.0
C1576 C 0.27154 0.91872 0.72972 0.0
C1577 C 0.23425 0.90786 0.72321 0.0
C1578 C 0.28862 0.95133 0.73905 0.0
C1579 C 0.26796 0.97266 0.7423 0.0
C1580 C 0.23163 0.96283 0.73529 0.0
C1581 C 0.21518 0.93103 0.72575 0.0
C1582 C 0.28241 0.00351 0.75353 0.0
C1583 C 0.28417 0.04119 0.75112 0.0
C1584 C 0.29199 0.99514 0.76681 0.0
C1585 C 0.28748 0.95496 0.77063 0.0
C1586 C 0.24971 0.91862 0.76902 0.0
C1587 C 0.24556 0.88099 0.77287 0.0
C1588 C 0.2788 0.87937 0.77853 0.0
C1589 C 0.31626 0.91539 0.78036 0.0
C1590 C 0.32064 0.95307 0.77646 0.0
C1591 C 0.28049 0.09624 0.808 0.0
C1592 C 0.32011 0.12315 0.81292 0.0
C1593 C 0.275 0.07867 0.79499 0.0
C1594 C 0.30902 0.0874 0.78681 0.0
C1595 C 0.34841 0.11592 0.79135 0.0
C1596 C 0.35391 0.13422 0.80423 0.0
C1597 C 0.30361 0.06142 0.77481 0.0
C1598 C 0.30324 0.02462 0.77717 0.0
C1599 C 0.29426 0.07007 0.76166 0.0
C1600 C 0.29319 0.10813 0.75885 0.0
C1601 C 0.32849 0.14665 0.76056 0.0
C1602 C 0.32716 0.18245 0.75796 0.0
C1603 C 0.29073 0.18007 0.75357 0.0
C1604 C 0.25559 0.14188 0.75172 0.0
C1605 C 0.25677 0.106 0.75431 0.0
H1606 H 0.28976 0.20782 0.75156 0.0
H1607 H 0.27549 0.85023 0.78155 0.0
H1608 H 0.62635 0.78707 0.85486 0.0
H1609 H 0.6404 0.76445 0.87676 0.0
H1610 H 0.74061 0.7578 0.85807 0.0
H1611 H 0.72723 0.78057 0.83625 0.0
H1612 H 0.68072 0.68431 0.87067 0.0
H1613 H 0.76113 0.83008 0.88039 0.0
H1614 H 0.77081 0.89935 0.8833 0.0
H1615 H 0.67955 0.85503 0.91507 0.0
H1616 H 0.66894 0.78532 0.91221 0.0
H1617 H 0.80098 0.66425 0.92145 0.0
H1618 H 0.76895 0.68082 0.90258 0.0
H1619 H 0.6884 0.69264 0.9314 0.0
H1620 H 0.72119 0.67658 0.95039 0.0
H1621 H 0.72464 0.75794 0.91515 0.0
H1622 H 0.65049 0.6151 0.90816 0.0
H1623 H 0.63608 0.54422 0.90509 0.0
H1624 H 0.70881 0.57935 0.86834 0.0
H1625 H 0.72442 0.65066 0.87132 0.0
C1626 C 0.65198 0.78172 0.85548 0.0
C1627 C 0.67539 0.78523 0.84374 0.0
C1628 C 0.65987 0.76872 0.86799 0.0
C1629 C 0.69122 0.75907 0.86893 0.0
C1630 C 0.71604 0.76479 0.85748 0.0
C1631 C 0.70841 0.778 0.84503 0.0
C1632 C 0.69656 0.7401 0.88146 0.0
C1633 C 0.69069 0.70042 0.8804 0.0
C1634 C 0.70743 0.76051 0.89425 0.0
C1635 C 0.71388 0.8024 0.89597 0.0
C1636 C 0.74284 0.83502 0.8879 0.0
C1637 C 0.74857 0.87438 0.88956 0.0
C1638 C 0.72571 0.88156 0.89933 0.0
C1639 C 0.69717 0.84941 0.90749 0.0
C1640 C 0.69131 0.80998 0.90586 0.0
C1641 C 0.77606 0.66987 0.92369 0.0
C1642 C 0.76374 0.66977 0.93728 0.0
C1643 C 0.75756 0.67902 0.91292 0.0
C1644 C 0.72613 0.6878 0.91557 0.0
C1645 C 0.71259 0.68595 0.92914 0.0
C1646 C 0.73112 0.67667 0.93994 0.0
C1647 C 0.71048 0.70254 0.90426 0.0
C1648 C 0.71413 0.74138 0.90553 0.0
C1649 C 0.6971 0.68111 0.89166 0.0
C1650 C 0.68888 0.63843 0.89003 0.0
C1651 C 0.66386 0.60788 0.89951 0.0
C1652 C 0.6554 0.56757 0.89777 0.0
C1653 C 0.67157 0.5573 0.88654 0.0
C1654 C 0.69634 0.58736 0.87705 0.0
C1655 C 0.705 0.62774 0.87876 0.0
H1656 H 0.66483 0.52604 0.88518 0.0
H1657 H 0.73019 0.91206 0.9006 0.0
H1658 H 0.84073 0.6423 0.02358 0.0
H1659 H 0.87626 0.65647 0.0457 0.0
H1660 H 0.98152 0.76086 0.02798 0.0
H1661 H 0.94649 0.74722 0.00592 0.0
H1662 H 0.99787 0.70214 0.03959 0.0
H1663 H 0.92682 0.77574 0.0511 0.0
H1664 H 0.8655 0.78221 0.05457 0.0
H1665 H 0.82119 0.6872 0.08506 0.0
H1666 H 0.88203 0.67978 0.08164 0.0
H1667 H 0.13553 0.81516 0.09125 0.0
H1668 H 0.08588 0.78759 0.07256 0.0
H1669 H 0.99575 0.69907 0.10032 0.0
H1670 H 0.04566 0.72765 0.11927 0.0
H1671 H 0.96401 0.73672 0.08509 0.0
H1672 H 0.03677 0.66728 0.07583 0.0
H1673 H 0.09666 0.65828 0.07262 0.0
H1674 H 0.13528 0.74013 0.03808 0.0
H1675 H 0.07595 0.75013 0.04121 0.0
C1676 C 0.87104 0.6689 0.02447 0.0
C1677 C 0.89099 0.69329 0.01291 0.0
C1678 C 0.89127 0.67689 0.03712 0.0
C1679 C 0.93162 0.70939 0.03838 0.0
C1680 C 0.95047 0.7354 0.02714 0.0
C1681 C 0.93029 0.72761 0.01455 0.0
C1682 C 0.95592 0.71419 0.05089 0.0
C1683 C 0.99072 0.71005 0.04953 0.0
C1684 C 0.94525 0.72238 0.06394 0.0
C1685 C 0.90872 0.72686 0.06599 0.0
C1686 C 0.9038 0.75594 0.05844 0.0
C1687 C 0.86918 0.75985 0.06043 0.0
C1688 C 0.8394 0.73504 0.07 0.0
C1689 C 0.84424 0.70634 0.07763 0.0
C1690 C 0.8788 0.7023 0.07569 0.0
C1691 C 0.1052 0.78963 0.09333 0.0
C1692 C 0.09413 0.7736 0.10664 0.0
C1693 C 0.07694 0.77371 0.08265 0.0
C1694 C 0.03719 0.74105 0.08502 0.0
C1695 C 0.0263 0.72424 0.09828 0.0
C1696 C 0.05476 0.74029 0.10903 0.0
C1697 C 0.00698 0.72633 0.07366 0.0
C1698 C 0.97093 0.72825 0.07521 0.0
C1699 C 0.01617 0.71555 0.06077 0.0
C1700 C 0.05196 0.70962 0.05881 0.0
C1701 C 0.05818 0.6836 0.06761 0.0
C1702 C 0.09201 0.67828 0.06579 0.0
C1703 C 0.11978 0.69866 0.05516 0.0
C1704 C 0.11374 0.72436 0.04631 0.0
C1705 C 0.07996 0.72981 0.04809 0.0
H1706 H 0.14596 0.6945 0.05377 0.0
H1707 H 0.81262 0.73812 0.07152 0.0
H1708 H 0.18886 0.8335 0.19268 0.0
H1709 H 0.20206 0.86335 0.21572 0.0
H1710 H 0.21824 0.97632 0.19879 0.0
H1711 H 0.20417 0.94662 0.1759 0.0
H1712 H 0.27169 0.9252 0.22408 0.0
H1713 H 0.19929 0.02999 0.22166 0.0
H1714 H 0.13765 0.0283 0.21235 0.0
H1715 H 0.0728 0.89683 0.21356 0.0
H1716 H 0.1339 0.89771 0.22305 0.0
H1717 H 0.37571 0.11058 0.26187 0.0
H1718 H 0.34276 0.0533 0.24563 0.0
H1719 H 0.23238 0.00027 0.27005 0.0
H1720 H 0.26522 0.05785 0.28611 0.0
H1721 H 0.21575 0.00752 0.24453 0.0
H1722 H 0.28972 0.95287 0.26702 0.0
H1723 H 0.34974 0.95253 0.27693 0.0
H1724 H 0.40684 0.97801 0.2372 0.0
H1725 H 0.34749 0.97921 0.22707 0.0
C1726 C 0.19422 0.86435 0.1939 0.0
C1727 C 0.19574 0.88776 0.18241 0.0
C1728 C 0.20192 0.8814 0.20708 0.0
C1729 C 0.21104 0.92201 0.20899 0.0
C1730 C 0.21059 0.94469 0.19762 0.0
C1731 C 0.20271 0.92767 0.18449 0.0
C1732 C 0.22515 0.94231 0.22253 0.0
C1733 C 0.25917 0.94284 0.22865 0.0
C1734 C 0.20845 0.96483 0.2286 0.0
C1735 C 0.17132 0.96394 0.22301 0.0
C1736 C 0.17181 0.00071 0.22002 0.0
C1737 C 0.13697 -0.0001 0.21469 0.0
C1738 C 0.10134 0.96248 0.21234 0.0
C1739 C 0.10046 0.9258 0.21535 0.0
C1740 C 0.13523 0.92643 0.22068 0.0
C1741 C 0.3449 0.08594 0.26394 0.0
C1742 C 0.32293 0.08811 0.2752 0.0
C1743 C 0.32606 0.05329 0.25469 0.0
C1744 C 0.28512 0.02237 0.25667 0.0
C1745 C 0.26394 0.02373 0.26833 0.0
C1746 C 0.2827 0.05641 0.27751 0.0
C1747 C 0.26308 0.99146 0.24582 0.0
C1748 C 0.22773 0.98917 0.24015 0.0
C1749 C 0.27833 0.96704 0.24026 0.0
C1750 C 0.3142 0.96641 0.2463 0.0
C1751 C 0.31521 0.95875 0.26041 0.0
C1752 C 0.34911 0.95835 0.26606 0.0
C1753 C 0.38212 0.96533 0.2577 0.0
C1754 C 0.38127 0.97265 0.24366 0.0
C1755 C 0.34747 0.97315 0.23796 0.0
H1756 H 0.40832 0.96498 0.2621 0.0
H1757 H 0.07441 0.96192 0.20821 0.0
H1758 H 0.27728 0.32572 0.45029 0.0
H1759 H 0.30576 0.30378 0.43152 0.0
H1760 H 0.21549 0.30183 0.40375 0.0
H1761 H 0.18723 0.32356 0.4224 0.0
H1762 H 0.21654 0.23022 0.4034 0.0
H1763 H 0.31501 0.37577 0.40176 0.0
H1764 H 0.36801 0.44154 0.41148 0.0
H1765 H 0.44356 0.38899 0.42048 0.0
H1766 H 0.39072 0.3227 0.41097 0.0
H1767 H 0.27758 0.22606 0.33589 0.0
H1768 H 0.2589 0.24113 0.35818 0.0
H1769 H 0.35966 0.23583 0.3771 0.0
H1770 H 0.37901 0.22107 0.3547 0.0
H1771 H 0.35778 0.30422 0.38467 0.0
H1772 H 0.26337 0.16129 0.38366 0.0
H1773 H 0.21075 0.09543 0.3739 0.0
H1774 H 0.12771 0.14173 0.37024 0.0
H1775 H 0.18003 0.20811 0.37979 0.0
C1776 C 0.26424 0.32135 0.44009 0.0
C1777 C 0.22997 0.32585 0.43772 0.0
C1778 C 0.28035 0.30874 0.42942 0.0
C1779 C 0.26246 0.30086 0.41629 0.0
C1780 C 0.22944 0.30731 0.41384 0.0
C1781 C 0.21343 0.31981 0.42445 0.0
C1782 C 0.27631 0.28388 0.40515 0.0
C1783 C 0.24736 0.2465 0.39924 0.0
C1784 C 0.31695 0.30431 0.40013 0.0
C1785 C 0.34871 0.34416 0.40581 0.0
C1786 C 0.34276 0.37814 0.40593 0.0
C1787 C 0.3728 0.41553 0.41137 0.0
C1788 C 0.40907 0.4194 0.41664 0.0
C1789 C 0.41542 0.38592 0.41643 0.0
C1790 C 0.38545 0.34844 0.411 0.0
C1791 C 0.29552 0.22751 0.3448 0.0
C1792 C 0.32986 0.22242 0.34349 0.0
C1793 C 0.2847 0.23602 0.35756 0.0
C1794 C 0.30774 0.23934 0.36931 0.0
C1795 C 0.34147 0.23335 0.36814 0.0
C1796 C 0.35233 0.22472 0.35535 0.0
C1797 C 0.29754 0.2513 0.38259 0.0
C1798 C 0.32714 0.28757 0.38896 0.0
C1799 C 0.25748 0.22978 0.38808 0.0
C1800 C 0.22577 0.1898 0.38238 0.0
C1801 C 0.234 0.15755 0.38069 0.0
C1802 C 0.2042 0.12009 0.37521 0.0
C1803 C 0.16593 0.11442 0.37144 0.0
C1804 C 0.15736 0.14617 0.37317 0.0
C1805 C 0.18707 0.1837 0.37863 0.0
H1806 H 0.14291 0.0854 0.36719 0.0
H1807 H 0.43229 0.44838 0.42085 0.0
H1808 H 0.87338 0.18126 0.591 0.0
H1809 H 0.92708 0.20462 0.57352 0.0
H1810 H 0.01478 0.2904 0.60244 0.0
H1811 H 0.9607 0.26666 0.62008 0.0
H1812 H 0.02015 0.32076 0.57449 0.0
H1813 H 0.01658 0.20804 0.59858 0.0
H1814 H 0.9811 0.13898 0.60883 0.0
H1815 H 0.93685 0.08609 0.56903 0.0
H1816 H 0.97137 0.15492 0.55856 0.0
H1817 H 0.16829 0.35385 0.52455 0.0
H1818 H 0.13798 0.33591 0.5475 0.0
H1819 H 0.03239 0.22934 0.53087 0.0
H1820 H 0.06264 0.24639 0.50805 0.0
H1821 H 0.04779 0.21391 0.55623 0.0
H1822 H 0.03516 0.32107 0.53323 0.0
H1823 H 0.0617 0.38809 0.52182 0.0
H1824 H 0.12903 0.4489 0.55825 0.0
H1825 H 0.10329 0.38212 0.5698 0.0
C1826 C 0.90405 0.20544 0.59354 0.0
C1827 C 0.91338 0.22188 0.60683 0.0
C1828 C 0.93461 0.21865 0.5836 0.0
C1829 C 0.97493 0.24857 0.58682 0.0
C1830 C 0.98383 0.26702 0.59985 0.0
C1831 C 0.9531 0.2536 0.60985 0.0
C1832 C 0.00767 0.25876 0.57664 0.0
C1833 C 0.02713 0.29784 0.57072 0.0
C1834 C 0.01589 0.22838 0.57161 0.0
C1835 C 0.99647 0.18674 0.57779 0.0
C1836 C 0.99917 0.18171 0.59201 0.0
C1837 C 0.97919 0.14259 0.59786 0.0
C1838 C 0.9567 0.10817 0.58959 0.0
C1839 C 0.9543 0.11279 0.57543 0.0
C1840 C 0.97411 0.15186 0.56953 0.0
C1841 C 0.13912 0.32599 0.52583 0.0
C1842 C 0.11749 0.30202 0.5144 0.0
C1843 C 0.12179 0.31587 0.53895 0.0
C1844 C 0.08251 0.28186 0.54082 0.0
C1845 C 0.06264 0.25588 0.52966 0.0
C1846 C 0.07996 0.26581 0.51657 0.0
C1847 C 0.05975 0.27576 0.55383 0.0
C1848 C 0.04195 0.23733 0.56027 0.0
C1849 C 0.05245 0.30651 0.55919 0.0
C1850 C 0.06777 0.34664 0.5523 0.0
C1851 C 0.05587 0.34874 0.53876 0.0
C1852 C 0.07073 0.38666 0.53228 0.0
C1853 C 0.09715 0.42273 0.53929 0.0
C1854 C 0.10866 0.42093 0.55282 0.0
C1855 C 0.09395 0.38306 0.55934 0.0
H1856 H 0.10861 0.45206 0.53426 0.0
H1857 H 0.94115 0.07792 0.59414 0.0
H1858 H 0.84162 0.11279 0.68323 0.0
H1859 H 0.82433 0.08186 0.70616 0.0
H1860 H 0.71882 0.0982 0.70722 0.0
H1861 H 0.73808 0.13203 0.68481 0.0
H1862 H 0.74292 0.1021 0.73194 0.0
H1863 H 0.71389 0.00759 0.69526 0.0
H1864 H 0.72886 0.97955 0.67458 0.0
H1865 H 0.81754 0.96324 0.6972 0.0
H1866 H 0.80343 0.99171 0.71797 0.0
H1867 H 0.61828 0.89528 0.76511 0.0
H1868 H 0.64405 0.95126 0.74823 0.0
H1869 H 0.76553 0.00168 0.76513 0.0
H1870 H 0.73964 0.94689 0.78235 0.0
H1871 H 0.73277 0.96565 0.73242 0.0
H1872 H 0.75455 0.06331 0.77004 0.0
H1873 H 0.72809 0.08545 0.78942 0.0
H1874 H 0.63741 0.08667 0.76301 0.0
H1875 H 0.66298 0.06387 0.74352 0.0
C1876 C 0.81554 0.11086 0.68861 0.0
C1877 C 0.79106 0.12454 0.68236 0.0
C1878 C 0.80544 0.09293 0.70162 0.0
C1879 C 0.76948 0.08646 0.70822 0.0
C1880 C 0.74658 0.10266 0.70234 0.0
C1881 C 0.75756 0.12195 0.68954 0.0
C1882 C 0.75356 0.05932 0.72044 0.0
C1883 C 0.74075 0.0723 0.73201 0.0
C1884 C 0.74981 0.01996 0.7205 0.0
C1885 C 0.75789 0.00214 0.70812 0.0
C1886 C 0.7367 0.99817 0.69579 0.0
C1887 C 0.74504 0.98222 0.68406 0.0
C1888 C 0.77422 0.96973 0.68456 0.0
C1889 C 0.79499 0.973 0.69682 0.0
C1890 C 0.78682 0.98901 0.70858 0.0
C1891 C 0.65012 0.91921 0.76552 0.0
C1892 C 0.67708 0.91704 0.77498 0.0
C1893 C 0.66478 0.95097 0.75589 0.0
C1894 C 0.70651 0.98061 0.7556 0.0
C1895 C 0.73312 0.97934 0.76537 0.0
C1896 C 0.71839 0.94802 0.77511 0.0
C1897 C 0.72336 0.00901 0.74389 0.0
C1898 C 0.7357 0.9958 0.73235 0.0
C1899 C 0.72533 0.04736 0.74371 0.0
C1900 C 0.71032 0.06138 0.75539 0.0
C1901 C 0.72867 0.06782 0.76841 0.0
C1902 C 0.71391 0.08061 0.7794 0.0
C1903 C 0.68099 0.08732 0.77746 0.0
C1904 C 0.66285 0.08138 0.76451 0.0
C1905 C 0.67748 0.06856 0.75349 0.0
H1906 H 0.66961 0.09722 0.78599 0.0
H1907 H 0.78068 0.95743 0.67546 0.0
loop_
_geom_bond_atom_site_label_1
_geom_bond_atom_site_label_2
_geom_bond_distance
_geom_bond_site_symmetry_2
_ccdc_geom_bond_type
Co0 O3 1.970 . S
Co0 N17 1.989 . S
Co0 O25 1.967 . S
Co0 O32 1.920 . S
Co1 O4 1.966 . S
Co1 N10 2.022 . S
Co1 N18 1.993 . S
Co1 O26 1.941 . S
C2 O3 1.258 . S
C2 O4 1.263 . S
O3 Co0 1.970 . S
O3 C2 1.258 . S
O4 Co1 1.966 . S
O4 C2 1.263 . S
C5 O6 1.235 . S
C5 O32 1.289 . S
O6 C5 1.235 . S
C7 C9 1.400 . S
C7 N10 1.351 . S
C7 C12 1.501 1_554 S
C8 C9 1.387 . S
C8 N11 1.341 . S
C9 C7 1.400 . S
C9 C8 1.387 . S
N10 Co1 2.022 . S
N10 C7 1.351 . S
N10 N11 1.365 . S
N11 C8 1.341 . S
N11 N10 1.365 . S
N11 H31 0.862 . S
C12 C7 1.501 1_556 S
C12 H13 0.961 . S
C12 H14 0.961 . S
C12 H15 0.960 . S
H13 C12 0.961 . S
H14 C12 0.961 . S
H15 C12 0.960 . S
C16 N17 1.342 . S
C16 C20 1.401 . S
C16 C21 1.499 . S
N17 Co0 1.989 . S
N17 C16 1.342 . S
N17 N18 1.388 . S
N18 Co1 1.993 . S
N18 N17 1.388 . S
N18 C19 1.346 . S
C19 N18 1.346 . S
C19 C20 1.396 . S
C19 C29 1.510 . S
C20 C16 1.401 . S
C20 C19 1.396 . S
C21 C16 1.499 . S
C21 H22 0.959 . S
C21 H23 0.960 . S
C21 H24 0.961 . S
H22 C21 0.959 . S
H23 C21 0.960 . S
H24 C21 0.961 . S
O25 Co0 1.967 . S
O25 C33 1.258 . S
O26 Co1 1.941 . S
O26 C33 1.266 . S
H27 C29 0.959 . S
H28 C29 0.961 . S
C29 C19 1.510 . S
C29 H27 0.959 . S
C29 H28 0.961 . S
C29 H30 0.960 . S
H30 C29 0.960 . S
H31 N11 0.862 . S
O32 Co0 1.920 . S
O32 C5 1.289 . S
C33 O25 1.258 . S
C33 O26 1.266 . S
Co34 O37 1.970 . S
Co34 N51 1.989 . S
Co34 O59 1.967 . S
Co34 O66 1.920 . S
Co35 O38 1.966 . S
Co35 N44 2.022 . S
Co35 N52 1.993 . S
Co35 O60 1.941 . S
C36 O37 1.258 . S
C36 O38 1.263 . S
O37 Co34 1.970 . S
O37 C36 1.258 . S
O38 Co35 1.966 . S
O38 C36 1.263 . S
C39 O40 1.235 . S
C39 O66 1.289 . S
O40 C39 1.235 . S
C41 C43 1.400 . S
C41 N44 1.351 . S
C41 C46 1.501 . S
C42 C43 1.387 . S
C42 N45 1.341 . S
C43 C41 1.400 . S
C43 C42 1.387 . S
N44 Co35 2.022 . S
N44 C41 1.351 . S
N44 N45 1.365 . S
N45 C42 1.341 . S
N45 N44 1.365 . S
N45 H65 0.862 . S
C46 C41 1.501 . S
C46 H47 0.961 . S
C46 H48 0.961 . S
C46 H49 0.960 . S
H47 C46 0.961 . S
H48 C46 0.961 . S
H49 C46 0.960 . S
C50 N51 1.342 . S
C50 C54 1.401 . S
C50 C55 1.499 . S
N51 Co34 1.989 . S
N51 C50 1.342 . S
N51 N52 1.388 . S
N52 Co35 1.993 . S
N52 N51 1.388 . S
N52 C53 1.346 . S
C53 N52 1.346 . S
C53 C54 1.396 . S
C53 C63 1.510 . S
C54 C50 1.401 . S
C54 C53 1.396 . S
C55 C50 1.499 . S
C55 H56 0.959 . S
C55 H57 0.960 . S
C55 H58 0.961 . S
H56 C55 0.959 . S
H57 C55 0.960 . S
H58 C55 0.961 . S
O59 Co34 1.967 . S
O59 C67 1.258 . S
O60 Co35 1.941 . S
O60 C67 1.266 . S
H61 C63 0.959 . S
H62 C63 0.961 . S
C63 C53 1.510 . S
C63 H61 0.959 . S
C63 H62 0.961 . S
C63 H64 0.960 . S
H64 C63 0.960 . S
H65 N45 0.862 . S
O66 Co34 1.920 . S
O66 C39 1.289 . S
C67 O59 1.258 . S
C67 O60 1.266 . S
Co68 O71 1.970 . S
Co68 N85 1.989 . S
Co68 O93 1.967 . S
Co68 O100 1.920 . S
Co69 O72 1.966 . S
Co69 N78 2.022 . S
Co69 N86 1.993 . S
Co69 O94 1.941 . S
C70 O71 1.258 . S
C70 O72 1.263 . S
O71 Co68 1.970 . S
O71 C70 1.258 . S
O72 Co69 1.966 . S
O72 C70 1.263 . S
C73 O74 1.235 . S
C73 O100 1.289 . S
O74 C73 1.235 . S
C75 C77 1.400 . S
C75 N78 1.351 . S
C75 C80 1.501 . S
C76 C77 1.387 . S
C76 N79 1.341 . S
C77 C75 1.400 . S
C77 C76 1.387 . S
N78 Co69 2.022 . S
N78 C75 1.351 . S
N78 N79 1.365 . S
N79 C76 1.341 . S
N79 N78 1.365 . S
N79 H99 0.862 . S
C80 C75 1.501 . S
C80 H81 0.961 . S
C80 H82 0.961 . S
C80 H83 0.960 . S
H81 C80 0.961 . S
H82 C80 0.961 . S
H83 C80 0.960 . S
C84 N85 1.342 . S
C84 C88 1.401 . S
C84 C89 1.499 . S
N85 Co68 1.989 . S
N85 C84 1.342 . S
N85 N86 1.388 . S
N86 Co69 1.993 . S
N86 N85 1.388 . S
N86 C87 1.346 . S
C87 N86 1.346 . S
C87 C88 1.396 . S
C87 C97 1.510 . S
C88 C84 1.401 . S
C88 C87 1.396 . S
C89 C84 1.499 . S
C89 H90 0.959 . S
C89 H91 0.960 . S
C89 H92 0.961 . S
H90 C89 0.959 . S
H91 C89 0.960 . S
H92 C89 0.961 . S
O93 Co68 1.967 . S
O93 C101 1.258 . S
O94 Co69 1.941 . S
O94 C101 1.266 . S
H95 C97 0.959 . S
H96 C97 0.961 . S
C97 C87 1.510 . S
C97 H95 0.959 . S
C97 H96 0.961 . S
C97 H98 0.960 . S
H98 C97 0.960 . S
H99 N79 0.862 . S
O100 Co68 1.920 . S
O100 C73 1.289 . S
C101 O93 1.258 . S
C101 O94 1.266 . S
Co102 O105 1.970 . S
Co102 N119 1.989 . S
Co102 O127 1.967 . S
Co102 O134 1.920 . S
Co103 O106 1.966 . S
Co103 N112 2.022 . S
Co103 N120 1.993 . S
Co103 O128 1.941 . S
C104 O105 1.258 . S
C104 O106 1.263 . S
O105 Co102 1.970 . S
O105 C104 1.258 . S
O106 Co103 1.966 . S
O106 C104 1.263 . S
C107 O108 1.235 . S
C107 O134 1.289 . S
O108 C107 1.235 . S
C109 C111 1.400 . S
C109 N112 1.351 . S
C109 C114 1.501 . S
C110 C111 1.387 . S
C110 N113 1.341 . S
C111 C109 1.400 . S
C111 C110 1.387 . S
N112 Co103 2.022 . S
N112 C109 1.351 . S
N112 N113 1.365 . S
N113 C110 1.341 . S
N113 N112 1.365 . S
N113 H133 0.862 . S
C114 C109 1.501 . S
C114 H115 0.961 . S
C114 H116 0.961 . S
C114 H117 0.960 . S
H115 C114 0.961 . S
H116 C114 0.961 . S
H117 C114 0.960 . S
C118 N119 1.342 . S
C118 C122 1.401 . S
C118 C123 1.499 . S
N119 Co102 1.989 . S
N119 C118 1.342 . S
N119 N120 1.388 . S
N120 Co103 1.993 . S
N120 N119 1.388 . S
N120 C121 1.346 . S
C121 N120 1.346 . S
C121 C122 1.396 . S
C121 C131 1.510 . S
C122 C118 1.401 . S
C122 C121 1.396 . S
C123 C118 1.499 . S
C123 H124 0.959 . S
C123 H125 0.960 . S
C123 H126 0.961 . S
H124 C123 0.959 . S
H125 C123 0.960 . S
H126 C123 0.961 . S
O127 Co102 1.967 . S
O127 C135 1.258 . S
O128 Co103 1.941 . S
O128 C135 1.266 . S
H129 C131 0.959 . S
H130 C131 0.961 . S
C131 C121 1.510 . S
C131 H129 0.959 . S
C131 H130 0.961 . S
C131 H132 0.960 . S
H132 C131 0.960 . S
H133 N113 0.862 . S
O134 Co102 1.920 . S
O134 C107 1.289 . S
C135 O127 1.258 . S
C135 O128 1.266 . S
Co136 O139 1.970 . S
Co136 N153 1.989 . S
Co136 O161 1.967 . S
Co136 O168 1.920 . S
Co137 O140 1.966 . S
Co137 N146 2.022 . S
Co137 N154 1.993 . S
Co137 O162 1.941 . S
C138 O139 1.258 . S
C138 O140 1.263 . S
O139 Co136 1.970 . S
O139 C138 1.258 . S
O140 Co137 1.966 . S
O140 C138 1.263 . S
C141 O142 1.235 . S
C141 O168 1.289 . S
O142 C141 1.235 . S
C143 C145 1.400 . S
C143 N146 1.351 . S
C143 C148 1.501 . S
C144 C145 1.387 . S
C144 N147 1.341 . S
C145 C143 1.400 . S
C145 C144 1.387 . S
N146 Co137 2.022 . S
N146 C143 1.351 . S
N146 N147 1.365 . S
N147 C144 1.341 . S
N147 N146 1.365 . S
N147 H167 0.862 . S
C148 C143 1.501 . S
C148 H149 0.961 . S
C148 H150 0.961 . S
C148 H151 0.960 . S
H149 C148 0.961 . S
H150 C148 0.961 . S
H151 C148 0.960 . S
C152 N153 1.342 . S
C152 C156 1.401 . S
C152 C157 1.499 . S
N153 Co136 1.989 . S
N153 C152 1.342 . S
N153 N154 1.388 . S
N154 Co137 1.993 . S
N154 N153 1.388 . S
N154 C155 1.346 . S
C155 N154 1.346 . S
C155 C156 1.396 . S
C155 C165 1.510 . S
C156 C152 1.401 . S
C156 C155 1.396 . S
C157 C152 1.499 . S
C157 H158 0.959 . S
C157 H159 0.960 . S
C157 H160 0.961 . S
H158 C157 0.959 . S
H159 C157 0.960 . S
H160 C157 0.961 . S
O161 Co136 1.967 . S
O161 C169 1.258 . S
O162 Co137 1.941 . S
O162 C169 1.266 . S
H163 C165 0.959 . S
H164 C165 0.961 . S
C165 C155 1.510 . S
C165 H163 0.959 . S
C165 H164 0.961 . S
C165 H166 0.960 . S
H166 C165 0.960 . S
H167 N147 0.862 . S
O168 Co136 1.920 . S
O168 C141 1.289 . S
C169 O161 1.258 . S
C169 O162 1.266 . S
Co170 O173 1.970 . S
Co170 N187 1.989 . S
Co170 O195 1.967 . S
Co170 O202 1.920 . S
Co171 O174 1.966 . S
Co171 N180 2.022 . S
Co171 N188 1.993 . S
Co171 O196 1.941 . S
C172 O173 1.258 . S
C172 O174 1.263 . S
O173 Co170 1.970 . S
O173 C172 1.258 . S
O174 Co171 1.966 . S
O174 C172 1.263 . S
C175 O176 1.235 . S
C175 O202 1.289 . S
O176 C175 1.235 . S
C177 C179 1.400 . S
C177 N180 1.351 . S
C177 C182 1.501 . S
C178 C179 1.387 . S
C178 N181 1.341 . S
C179 C177 1.400 . S
C179 C178 1.387 . S
N180 Co171 2.022 . S
N180 C177 1.351 . S
N180 N181 1.365 . S
N181 C178 1.341 . S
N181 N180 1.365 . S
N181 H201 0.862 . S
C182 C177 1.501 . S
C182 H183 0.961 . S
C182 H184 0.961 . S
C182 H185 0.960 . S
H183 C182 0.961 . S
H184 C182 0.961 . S
H185 C182 0.960 . S
C186 N187 1.342 . S
C186 C190 1.401 . S
C186 C191 1.499 . S
N187 Co170 1.989 . S
N187 C186 1.342 . S
N187 N188 1.388 . S
N188 Co171 1.993 . S
N188 N187 1.388 . S
N188 C189 1.346 . S
C189 N188 1.346 . S
C189 C190 1.396 . S
C189 C199 1.510 . S
C190 C186 1.401 . S
C190 C189 1.396 . S
C191 C186 1.499 . S
C191 H192 0.959 . S
C191 H193 0.960 . S
C191 H194 0.961 . S
H192 C191 0.959 . S
H193 C191 0.960 . S
H194 C191 0.961 . S
O195 Co170 1.967 . S
O195 C203 1.258 . S
O196 Co171 1.941 . S
O196 C203 1.266 . S
H197 C199 0.959 . S
H198 C199 0.961 . S
C199 C189 1.510 . S
C199 H197 0.959 . S
C199 H198 0.961 . S
C199 H200 0.960 . S
H200 C199 0.960 . S
H201 N181 0.862 . S
O202 Co170 1.920 . S
O202 C175 1.289 . S
C203 O195 1.258 . S
C203 O196 1.266 . S
Co204 O207 1.970 . S
Co204 N221 1.989 . S
Co204 O229 1.967 . S
Co204 O236 1.920 . S
Co205 O208 1.966 . S
Co205 N214 2.022 . S
Co205 N222 1.993 . S
Co205 O230 1.941 . S
C206 O207 1.258 . S
C206 O208 1.263 . S
O207 Co204 1.970 . S
O207 C206 1.258 . S
O208 Co205 1.966 . S
O208 C206 1.263 . S
C209 O210 1.235 . S
C209 O236 1.289 . S
O210 C209 1.235 . S
C211 C213 1.400 . S
C211 N214 1.351 . S
C211 C216 1.501 . S
C212 C213 1.387 . S
C212 N215 1.341 . S
C213 C211 1.400 . S
C213 C212 1.387 . S
N214 Co205 2.022 . S
N214 C211 1.351 . S
N214 N215 1.365 . S
N215 C212 1.341 . S
N215 N214 1.365 . S
N215 H235 0.862 . S
C216 C211 1.501 . S
C216 H217 0.961 . S
C216 H218 0.961 . S
C216 H219 0.960 . S
H217 C216 0.961 . S
H218 C216 0.961 . S
H219 C216 0.960 . S
C220 N221 1.342 . S
C220 C224 1.401 . S
C220 C225 1.499 . S
N221 Co204 1.989 . S
N221 C220 1.342 . S
N221 N222 1.388 . S
N222 Co205 1.993 . S
N222 N221 1.388 . S
N222 C223 1.346 . S
C223 N222 1.346 . S
C223 C224 1.396 . S
C223 C233 1.510 . S
C224 C220 1.401 . S
C224 C223 1.396 . S
C225 C220 1.499 . S
C225 H226 0.959 . S
C225 H227 0.960 . S
C225 H228 0.961 . S
H226 C225 0.959 . S
H227 C225 0.960 . S
H228 C225 0.961 . S
O229 Co204 1.967 . S
O229 C237 1.258 . S
O230 Co205 1.941 . S
O230 C237 1.266 . S
H231 C233 0.959 . S
H232 C233 0.961 . S
C233 C223 1.510 . S
C233 H231 0.959 . S
C233 H232 0.961 . S
C233 H234 0.960 . S
H234 C233 0.960 . S
H235 N215 0.862 . S
O236 Co204 1.920 . S
O236 C209 1.289 . S
C237 O229 1.258 . S
C237 O230 1.266 . S
Co238 O241 1.970 . S
Co238 N255 1.989 . S
Co238 O263 1.967 . S
Co238 O270 1.920 . S
Co239 O242 1.966 . S
Co239 N248 2.022 . S
Co239 N256 1.993 . S
Co239 O264 1.941 . S
C240 O241 1.258 . S
C240 O242 1.263 . S
O241 Co238 1.970 . S
O241 C240 1.258 . S
O242 Co239 1.966 . S
O242 C240 1.263 . S
C243 O244 1.235 . S
C243 O270 1.289 . S
O244 C243 1.235 . S
C245 C247 1.400 . S
C245 N248 1.351 . S
C245 C250 1.501 1_556 S
C246 C247 1.387 . S
C246 N249 1.341 . S
C247 C245 1.400 . S
C247 C246 1.387 . S
N248 Co239 2.022 . S
N248 C245 1.351 . S
N248 N249 1.365 . S
N249 C246 1.341 . S
N249 N248 1.365 . S
N249 H269 0.862 . S
C250 C245 1.501 1_554 S
C250 H251 0.961 . S
C250 H252 0.961 . S
C250 H253 0.960 . S
H251 C250 0.961 . S
H252 C250 0.961 . S
H253 C250 0.960 . S
C254 N255 1.342 . S
C254 C258 1.401 . S
C254 C259 1.499 . S
N255 Co238 1.989 . S
N255 C254 1.342 . S
N255 N256 1.388 . S
N256 Co239 1.993 . S
N256 N255 1.388 . S
N256 C257 1.346 . S
C257 N256 1.346 . S
C257 C258 1.396 . S
C257 C267 1.510 . S
C258 C254 1.401 . S
C258 C257 1.396 . S
C259 C254 1.499 . S
C259 H260 0.959 . S
C259 H261 0.960 . S
C259 H262 0.961 . S
H260 C259 0.959 . S
H261 C259 0.960 . S
H262 C259 0.961 . S
O263 Co238 1.967 . S
O263 C271 1.258 . S
O264 Co239 1.941 . S
O264 C271 1.266 . S
H265 C267 0.959 . S
H266 C267 0.961 . S
C267 C257 1.510 . S
C267 H265 0.959 . S
C267 H266 0.961 . S
C267 H268 0.960 . S
H268 C267 0.960 . S
H269 N249 0.862 . S
O270 Co238 1.920 . S
O270 C243 1.289 . S
C271 O263 1.258 . S
C271 O264 1.266 . S
Co272 O275 1.970 . S
Co272 N289 1.989 . S
Co272 O297 1.967 . S
Co272 O304 1.920 . S
Co273 O276 1.966 . S
Co273 N282 2.022 . S
Co273 N290 1.993 . S
Co273 O298 1.941 . S
C274 O275 1.258 . S
C274 O276 1.263 . S
O275 Co272 1.970 . S
O275 C274 1.258 . S
O276 Co273 1.966 . S
O276 C274 1.263 . S
C277 O278 1.235 . S
C277 O304 1.289 . S
O278 C277 1.235 . S
C279 C281 1.400 . S
C279 N282 1.351 . S
C279 C284 1.501 . S
C280 C281 1.387 . S
C280 N283 1.341 . S
C281 C279 1.400 . S
C281 C280 1.387 . S
N282 Co273 2.022 . S
N282 C279 1.351 . S
N282 N283 1.365 . S
N283 C280 1.341 . S
N283 N282 1.365 . S
N283 H303 0.862 . S
C284 C279 1.501 . S
C284 H285 0.961 . S
C284 H286 0.961 . S
C284 H287 0.960 . S
H285 C284 0.961 . S
H286 C284 0.961 . S
H287 C284 0.960 . S
C288 N289 1.342 . S
C288 C292 1.401 . S
C288 C293 1.499 . S
N289 Co272 1.989 . S
N289 C288 1.342 . S
N289 N290 1.388 . S
N290 Co273 1.993 . S
N290 N289 1.388 . S
N290 C291 1.346 . S
C291 N290 1.346 . S
C291 C292 1.396 . S
C291 C301 1.510 . S
C292 C288 1.401 . S
C292 C291 1.396 . S
C293 C288 1.499 . S
C293 H294 0.959 . S
C293 H295 0.960 . S
C293 H296 0.961 . S
H294 C293 0.959 . S
H295 C293 0.960 . S
H296 C293 0.961 . S
O297 Co272 1.967 . S
O297 C305 1.258 . S
O298 Co273 1.941 . S
O298 C305 1.266 . S
H299 C301 0.959 . S
H300 C301 0.961 . S
C301 C291 1.510 . S
C301 H299 0.959 . S
C301 H300 0.961 . S
C301 H302 0.960 . S
H302 C301 0.960 . S
H303 N283 0.862 . S
O304 Co272 1.920 . S
O304 C277 1.289 . S
C305 O297 1.258 . S
C305 O298 1.266 . S
Co306 O309 1.970 . S
Co306 N323 1.989 . S
Co306 O331 1.967 . S
Co306 O338 1.920 . S
Co307 O310 1.966 . S
Co307 N316 2.022 . S
Co307 N324 1.993 . S
Co307 O332 1.941 . S
C308 O309 1.258 . S
C308 O310 1.263 . S
O309 Co306 1.970 . S
O309 C308 1.258 . S
O310 Co307 1.966 . S
O310 C308 1.263 . S
C311 O312 1.235 . S
C311 O338 1.289 . S
O312 C311 1.235 . S
C313 C315 1.400 . S
C313 N316 1.351 . S
C313 C318 1.501 . S
C314 C315 1.387 . S
C314 N317 1.341 . S
C315 C313 1.400 . S
C315 C314 1.387 . S
N316 Co307 2.022 . S
N316 C313 1.351 . S
N316 N317 1.365 . S
N317 C314 1.341 . S
N317 N316 1.365 . S
N317 H337 0.862 . S
C318 C313 1.501 . S
C318 H319 0.961 . S
C318 H320 0.961 . S
C318 H321 0.960 . S
H319 C318 0.961 . S
H320 C318 0.961 . S
H321 C318 0.960 . S
C322 N323 1.342 . S
C322 C326 1.401 . S
C322 C327 1.499 . S
N323 Co306 1.989 . S
N323 C322 1.342 . S
N323 N324 1.388 . S
N324 Co307 1.993 . S
N324 N323 1.388 . S
N324 C325 1.346 . S
C325 N324 1.346 . S
C325 C326 1.396 . S
C325 C335 1.510 . S
C326 C322 1.401 . S
C326 C325 1.396 . S
C327 C322 1.499 . S
C327 H328 0.959 . S
C327 H329 0.960 . S
C327 H330 0.961 . S
H328 C327 0.959 . S
H329 C327 0.960 . S
H330 C327 0.961 . S
O331 Co306 1.967 . S
O331 C339 1.258 . S
O332 Co307 1.941 . S
O332 C339 1.266 . S
H333 C335 0.959 . S
H334 C335 0.961 . S
C335 C325 1.510 . S
C335 H333 0.959 . S
C335 H334 0.961 . S
C335 H336 0.960 . S
H336 C335 0.960 . S
H337 N317 0.862 . S
O338 Co306 1.920 . S
O338 C311 1.289 . S
C339 O331 1.258 . S
C339 O332 1.266 . S
Co340 O343 1.970 . S
Co340 N357 1.989 . S
Co340 O365 1.967 . S
Co340 O372 1.920 . S
Co341 O344 1.966 . S
Co341 N350 2.022 . S
Co341 N358 1.993 . S
Co341 O366 1.941 . S
C342 O343 1.258 . S
C342 O344 1.263 . S
O343 Co340 1.970 . S
O343 C342 1.258 . S
O344 Co341 1.966 . S
O344 C342 1.263 . S
C345 O346 1.235 . S
C345 O372 1.289 . S
O346 C345 1.235 . S
C347 C349 1.400 . S
C347 N350 1.351 . S
C347 C352 1.501 . S
C348 C349 1.387 . S
C348 N351 1.341 . S
C349 C347 1.400 . S
C349 C348 1.387 . S
N350 Co341 2.022 . S
N350 C347 1.351 . S
N350 N351 1.365 . S
N351 C348 1.341 . S
N351 N350 1.365 . S
N351 H371 0.862 . S
C352 C347 1.501 . S
C352 H353 0.961 . S
C352 H354 0.961 . S
C352 H355 0.960 . S
H353 C352 0.961 . S
H354 C352 0.961 . S
H355 C352 0.960 . S
C356 N357 1.342 . S
C356 C360 1.401 . S
C356 C361 1.499 . S
N357 Co340 1.989 . S
N357 C356 1.342 . S
N357 N358 1.388 . S
N358 Co341 1.993 . S
N358 N357 1.388 . S
N358 C359 1.346 . S
C359 N358 1.346 . S
C359 C360 1.396 . S
C359 C369 1.510 . S
C360 C356 1.401 . S
C360 C359 1.396 . S
C361 C356 1.499 . S
C361 H362 0.959 . S
C361 H363 0.960 . S
C361 H364 0.961 . S
H362 C361 0.959 . S
H363 C361 0.960 . S
H364 C361 0.961 . S
O365 Co340 1.967 . S
O365 C373 1.258 . S
O366 Co341 1.941 . S
O366 C373 1.266 . S
H367 C369 0.959 . S
H368 C369 0.961 . S
C369 C359 1.510 . S
C369 H367 0.959 . S
C369 H368 0.961 . S
C369 H370 0.960 . S
H370 C369 0.960 . S
H371 N351 0.862 . S
O372 Co340 1.920 . S
O372 C345 1.289 . S
C373 O365 1.258 . S
C373 O366 1.266 . S
Co374 O377 1.970 . S
Co374 N391 1.989 . S
Co374 O399 1.967 . S
Co374 O406 1.920 . S
Co375 O378 1.966 . S
Co375 N384 2.022 . S
Co375 N392 1.993 . S
Co375 O400 1.941 . S
C376 O377 1.258 . S
C376 O378 1.263 . S
O377 Co374 1.970 . S
O377 C376 1.258 . S
O378 Co375 1.966 . S
O378 C376 1.263 . S
C379 O380 1.235 . S
C379 O406 1.289 . S
O380 C379 1.235 . S
C381 C383 1.400 . S
C381 N384 1.351 . S
C381 C386 1.501 . S
C382 C383 1.387 . S
C382 N385 1.341 . S
C383 C381 1.400 . S
C383 C382 1.387 . S
N384 Co375 2.022 . S
N384 C381 1.351 . S
N384 N385 1.365 . S
N385 C382 1.341 . S
N385 N384 1.365 . S
N385 H405 0.862 . S
C386 C381 1.501 . S
C386 H387 0.961 . S
C386 H388 0.961 . S
C386 H389 0.960 . S
H387 C386 0.961 . S
H388 C386 0.961 . S
H389 C386 0.960 . S
C390 N391 1.342 . S
C390 C394 1.401 . S
C390 C395 1.499 . S
N391 Co374 1.989 . S
N391 C390 1.342 . S
N391 N392 1.388 . S
N392 Co375 1.993 . S
N392 N391 1.388 . S
N392 C393 1.346 . S
C393 N392 1.346 . S
C393 C394 1.396 . S
C393 C403 1.510 . S
C394 C390 1.401 . S
C394 C393 1.396 . S
C395 C390 1.499 . S
C395 H396 0.959 . S
C395 H397 0.960 . S
C395 H398 0.961 . S
H396 C395 0.959 . S
H397 C395 0.960 . S
H398 C395 0.961 . S
O399 Co374 1.967 . S
O399 C407 1.258 . S
O400 Co375 1.941 . S
O400 C407 1.266 . S
H401 C403 0.959 . S
H402 C403 0.961 . S
C403 C393 1.510 . S
C403 H401 0.959 . S
C403 H402 0.961 . S
C403 H404 0.960 . S
H404 C403 0.960 . S
H405 N385 0.862 . S
O406 Co374 1.920 . S
O406 C379 1.289 . S
C407 O399 1.258 . S
C407 O400 1.266 . S
H408 C426 0.951 . S
H409 C428 0.951 . S
H410 C430 0.950 . S
H411 C431 0.950 . S
H412 C433 0.950 . S
H413 C436 0.950 . S
H414 C437 0.950 . S
H415 C439 0.950 . S
H416 C440 0.950 . S
H417 C441 0.951 . S
H418 C443 0.951 . S
H419 C445 0.950 . S
H420 C446 0.950 . S
H421 C448 0.950 . S
H422 C451 0.950 . S
H423 C452 0.950 . S
H424 C454 0.950 . S
H425 C455 0.950 . S
C426 H408 0.951 . S
C426 C427 1.366 . S
C426 C428 1.388 . S
C427 C426 1.366 . S
C427 C431 1.385 . S
C428 H409 0.951 . S
C428 C426 1.388 . S
C428 C429 1.366 . S
C429 C428 1.366 . S
C429 C430 1.414 . S
C429 C432 1.499 . S
C430 H410 0.950 . S
C430 C429 1.414 . S
C430 C431 1.374 . S
C431 H411 0.950 . S
C431 C427 1.385 . S
C431 C430 1.374 . S
C432 C429 1.499 . S
C432 C433 1.373 . S
C432 C434 1.389 . S
C433 H412 0.950 . S
C433 C432 1.373 . S
C433 C449 1.377 . S
C434 C432 1.389 . S
C434 C435 1.524 . S
C434 C448 1.377 . S
C435 C434 1.524 . S
C435 C436 1.397 . S
C435 C440 1.363 . S
C436 H413 0.950 . S
C436 C435 1.397 . S
C436 C437 1.334 . S
C437 H414 0.950 . S
C437 C436 1.334 . S
C437 C438 1.287 . S
C438 C437 1.287 . S
C438 C439 1.524 . S
C438 H457 0.913 . S
C439 H415 0.950 . S
C439 C438 1.524 . S
C439 C440 1.415 . S
C440 H416 0.950 . S
C440 C435 1.363 . S
C440 C439 1.415 . S
C441 H417 0.951 . S
C441 C442 1.366 . S
C441 C443 1.388 1_565 S
C442 C441 1.366 . S
C442 C446 1.385 1_565 S
C443 H418 0.951 . S
C443 C441 1.388 1_545 S
C443 C444 1.366 . S
C444 C443 1.366 . S
C444 C445 1.414 . S
C444 C447 1.499 . S
C445 H419 0.950 . S
C445 C444 1.414 . S
C445 C446 1.374 . S
C446 H420 0.950 . S
C446 C442 1.385 1_545 S
C446 C445 1.374 . S
C447 C444 1.499 . S
C447 C448 1.373 . S
C447 C449 1.389 . S
C448 H421 0.950 . S
C448 C434 1.377 . S
C448 C447 1.373 . S
C449 C433 1.377 . S
C449 C447 1.389 . S
C449 C450 1.524 . S
C450 C449 1.524 . S
C450 C451 1.397 . S
C450 C455 1.363 . S
C451 H422 0.950 . S
C451 C450 1.397 . S
C451 C452 1.334 1_545 S
C452 H423 0.950 . S
C452 C451 1.334 1_565 S
C452 C453 1.287 . S
C453 C452 1.287 . S
C453 C454 1.524 . S
C453 H456 0.999 . S
C454 H424 0.950 . S
C454 C453 1.524 . S
C454 C455 1.415 1_565 S
C455 H425 0.950 . S
C455 C450 1.363 . S
C455 C454 1.415 1_545 S
H456 C453 0.999 . S
H457 C438 0.913 . S
H458 C476 0.951 . S
H459 C478 0.951 . S
H460 C480 0.950 . S
H461 C481 0.950 . S
H462 C483 0.950 . S
H463 C486 0.950 . S
H464 C487 0.950 . S
H465 C489 0.950 . S
H466 C490 0.950 . S
H467 C491 0.951 . S
H468 C493 0.951 . S
H469 C495 0.950 . S
H470 C496 0.950 . S
H471 C498 0.950 . S
H472 C501 0.950 . S
H473 C502 0.950 . S
H474 C504 0.950 . S
H475 C505 0.950 . S
C476 H458 0.951 . S
C476 C477 1.366 . S
C476 C478 1.388 . S
C477 C476 1.366 . S
C477 C481 1.385 . S
C478 H459 0.951 . S
C478 C476 1.388 . S
C478 C479 1.366 . S
C479 C478 1.366 . S
C479 C480 1.414 . S
C479 C482 1.499 . S
C480 H460 0.950 . S
C480 C479 1.414 . S
C480 C481 1.374 . S
C481 H461 0.950 . S
C481 C477 1.385 . S
C481 C480 1.374 . S
C482 C479 1.499 . S
C482 C483 1.373 . S
C482 C484 1.389 . S
C483 H462 0.950 . S
C483 C482 1.373 . S
C483 C499 1.377 . S
C484 C482 1.389 . S
C484 C485 1.524 . S
C484 C498 1.377 . S
C485 C484 1.524 . S
C485 C486 1.397 . S
C485 C490 1.363 . S
C486 H463 0.950 . S
C486 C485 1.397 . S
C486 C487 1.334 . S
C487 H464 0.950 . S
C487 C486 1.334 . S
C487 C488 1.287 . S
C488 C487 1.287 . S
C488 C489 1.524 . S
C488 H507 0.913 . S
C489 H465 0.950 . S
C489 C488 1.524 . S
C489 C490 1.415 . S
C490 H466 0.950 . S
C490 C485 1.363 . S
C490 C489 1.415 . S
C491 H467 0.951 . S
C491 C492 1.366 . S
C491 C493 1.388 1_655 S
C492 C491 1.366 . S
C492 C496 1.385 1_655 S
C493 H468 0.951 . S
C493 C491 1.388 1_455 S
C493 C494 1.366 . S
C494 C493 1.366 . S
C494 C495 1.414 . S
C494 C497 1.499 . S
C495 H469 0.950 . S
C495 C494 1.414 . S
C495 C496 1.374 . S
C496 H470 0.950 . S
C496 C492 1.385 1_455 S
C496 C495 1.374 . S
C497 C494 1.499 . S
C497 C498 1.373 . S
C497 C499 1.389 . S
C498 H471 0.950 . S
C498 C484 1.377 . S
C498 C497 1.373 . S
C499 C483 1.377 . S
C499 C497 1.389 . S
C499 C500 1.524 . S
C500 C499 1.524 . S
C500 C501 1.397 . S
C500 C505 1.363 . S
C501 H472 0.950 . S
C501 C500 1.397 . S
C501 C502 1.334 . S
C502 H473 0.950 . S
C502 C501 1.334 . S
C502 C503 1.287 . S
C503 C502 1.287 . S
C503 C504 1.524 . S
C503 H506 0.999 . S
C504 H474 0.950 . S
C504 C503 1.524 . S
C504 C505 1.415 . S
C505 H475 0.950 . S
C505 C500 1.363 . S
C505 C504 1.415 . S
H506 C503 0.999 . S
H507 C488 0.913 . S
H508 C526 0.951 . S
H509 C528 0.951 . S
H510 C530 0.950 . S
H511 C531 0.950 . S
H512 C533 0.950 . S
H513 C536 0.950 . S
H514 C537 0.935 1_455 S
H515 C539 0.950 . S
H516 C540 0.950 . S
H517 C541 0.951 . S
H518 C543 0.951 . S
H519 C545 0.950 . S
H520 C546 0.950 . S
H521 C548 0.950 . S
H522 C551 0.950 . S
H523 C552 0.950 . S
H524 C554 0.950 . S
H525 C555 0.950 . S
C526 H508 0.951 . S
C526 C527 1.366 1_655 S
C526 C528 1.388 . S
C527 C526 1.366 1_455 S
C527 C531 1.385 . S
C528 H509 0.951 . S
C528 C526 1.388 . S
C528 C529 1.366 . S
C529 C528 1.366 . S
C529 C530 1.414 . S
C529 C532 1.499 . S
C530 H510 0.950 . S
C530 C529 1.414 . S
C530 C531 1.374 1_655 S
C531 H511 0.950 . S
C531 C527 1.385 . S
C531 C530 1.374 1_455 S
C532 C529 1.499 . S
C532 C533 1.373 . S
C532 C534 1.389 . S
C533 H512 0.950 . S
C533 C532 1.373 . S
C533 C549 1.377 . S
C534 C532 1.389 . S
C534 C535 1.524 . S
C534 C548 1.377 . S
C535 C534 1.524 . S
C535 C536 1.397 . S
C535 C540 1.363 . S
C536 H513 0.950 . S
C536 C535 1.397 . S
C536 C537 1.334 . S
C537 H514 0.935 1_655 S
C537 C536 1.334 . S
C537 C538 1.287 . S
C538 C537 1.287 . S
C538 C539 1.524 . S
C538 H557 0.913 . S
C539 H515 0.950 . S
C539 C538 1.524 . S
C539 C540 1.415 . S
C540 H516 0.950 . S
C540 C535 1.363 . S
C540 C539 1.415 . S
C541 H517 0.951 . S
C541 C542 1.366 1_545 S
C541 C543 1.388 . S
C542 C541 1.366 1_565 S
C542 C546 1.385 . S
C543 H518 0.951 . S
C543 C541 1.388 . S
C543 C544 1.366 . S
C544 C543 1.366 . S
C544 C545 1.414 . S
C544 C547 1.499 . S
C545 H519 0.950 . S
C545 C544 1.414 . S
C545 C546 1.374 1_545 S
C546 H520 0.950 . S
C546 C542 1.385 . S
C546 C545 1.374 1_565 S
C547 C544 1.499 . S
C547 C548 1.373 . S
C547 C549 1.389 . S
C548 H521 0.950 . S
C548 C534 1.377 . S
C548 C547 1.373 . S
C549 C533 1.377 . S
C549 C547 1.389 . S
C549 C550 1.524 . S
C550 C549 1.524 . S
C550 C551 1.397 . S
C550 C555 1.363 . S
C551 H522 0.950 . S
C551 C550 1.397 . S
C551 C552 1.334 . S
C552 H523 0.950 . S
C552 C551 1.334 . S
C552 C553 1.287 . S
C553 C552 1.287 . S
C553 C554 1.524 . S
C553 H556 0.999 . S
C554 H524 0.950 . S
C554 C553 1.524 . S
C554 C555 1.415 . S
C555 H525 0.950 . S
C555 C550 1.363 . S
C555 C554 1.415 . S
H556 C553 0.999 . S
H557 C538 0.913 . S
H558 C576 0.951 . S
H559 C578 0.951 . S
H560 C580 0.950 . S
H561 C581 0.950 . S
H562 C583 0.950 . S
H563 C586 0.950 . S
H564 C587 0.950 . S
H565 C589 0.950 . S
H566 C590 0.950 . S
H567 C591 0.951 . S
H568 C593 0.951 . S
H569 C595 0.950 . S
H570 C596 0.950 . S
H571 C598 0.950 . S
H572 C601 0.950 . S
H573 C602 0.950 . S
H574 C604 0.950 . S
H575 C605 0.950 . S
C576 H558 0.951 . S
C576 C577 1.366 . S
C576 C578 1.388 . S
C577 C576 1.366 . S
C577 C581 1.385 . S
C578 H559 0.951 . S
C578 C576 1.388 . S
C578 C579 1.366 . S
C579 C578 1.366 . S
C579 C580 1.414 . S
C579 C582 1.499 . S
C580 H560 0.950 . S
C580 C579 1.414 . S
C580 C581 1.374 . S
C581 H561 0.950 . S
C581 C577 1.385 . S
C581 C580 1.374 . S
C582 C579 1.499 . S
C582 C583 1.373 . S
C582 C584 1.389 . S
C583 H562 0.950 . S
C583 C582 1.373 . S
C583 C599 1.377 . S
C584 C582 1.389 . S
C584 C585 1.524 . S
C584 C598 1.377 . S
C585 C584 1.524 . S
C585 C586 1.397 . S
C585 C590 1.363 . S
C586 H563 0.950 . S
C586 C585 1.397 . S
C586 C587 1.334 . S
C587 H564 0.950 . S
C587 C586 1.334 . S
C587 C588 1.287 . S
C588 C587 1.287 . S
C588 C589 1.524 . S
C588 H607 0.913 . S
C589 H565 0.950 . S
C589 C588 1.524 . S
C589 C590 1.415 . S
C590 H566 0.950 . S
C590 C585 1.363 . S
C590 C589 1.415 . S
C591 H567 0.951 . S
C591 C592 1.366 . S
C591 C593 1.388 1_545 S
C592 C591 1.366 . S
C592 C596 1.385 1_545 S
C593 H568 0.951 . S
C593 C591 1.388 1_565 S
C593 C594 1.366 . S
C594 C593 1.366 . S
C594 C595 1.414 . S
C594 C597 1.499 . S
C595 H569 0.950 . S
C595 C594 1.414 . S
C595 C596 1.374 . S
C596 H570 0.950 . S
C596 C592 1.385 1_565 S
C596 C595 1.374 . S
C597 C594 1.499 . S
C597 C598 1.373 . S
C597 C599 1.389 . S
C598 H571 0.950 . S
C598 C584 1.377 . S
C598 C597 1.373 . S
C599 C583 1.377 . S
C599 C597 1.389 . S
C599 C600 1.524 . S
C600 C599 1.524 . S
C600 C601 1.397 . S
C600 C605 1.363 . S
C601 H572 0.950 . S
C601 C600 1.397 . S
C601 C602 1.334 . S
C602 H573 0.950 . S
C602 C601 1.334 . S
C602 C603 1.287 . S
C603 C602 1.287 . S
C603 C604 1.524 . S
C603 H606 0.999 . S
C604 H574 0.950 . S
C604 C603 1.524 . S
C604 C605 1.415 . S
C605 H575 0.950 . S
C605 C600 1.363 . S
C605 C604 1.415 . S
H606 C603 0.999 . S
H607 C588 0.913 . S
H608 C626 0.951 . S
H609 C628 0.951 . S
H610 C630 0.950 . S
H611 C631 0.950 . S
H612 C633 0.950 . S
H613 C636 0.950 . S
H614 C637 0.950 . S
H615 C639 0.950 . S
H616 C640 0.950 . S
H617 C641 0.951 . S
H618 C643 0.951 . S
H619 C645 0.950 . S
H620 C646 0.950 . S
H621 C648 0.950 . S
H622 C651 0.950 . S
H623 C652 0.950 . S
H624 C654 0.950 . S
H625 C655 0.950 . S
C626 H608 0.951 . S
C626 C627 1.366 . S
C626 C628 1.388 1_455 S
C627 C626 1.366 . S
C627 C631 1.385 1_455 S
C628 H609 0.951 . S
C628 C626 1.388 1_655 S
C628 C629 1.366 . S
C629 C628 1.366 . S
C629 C630 1.414 . S
C629 C632 1.499 . S
C630 H610 0.950 . S
C630 C629 1.414 . S
C630 C631 1.374 . S
C631 H611 0.950 . S
C631 C627 1.385 1_655 S
C631 C630 1.374 . S
C632 C629 1.499 . S
C632 C633 1.373 . S
C632 C634 1.389 . S
C633 H612 0.950 . S
C633 C632 1.373 . S
C633 C649 1.377 . S
C634 C632 1.389 . S
C634 C635 1.524 . S
C634 C648 1.377 . S
C635 C634 1.524 . S
C635 C636 1.397 . S
C635 C640 1.363 . S
C636 H613 0.950 . S
C636 C635 1.397 . S
C636 C637 1.334 . S
C637 H614 0.950 . S
C637 C636 1.334 . S
C637 C638 1.287 . S
C638 C637 1.287 . S
C638 C639 1.524 . S
C638 H657 0.913 . S
C639 H615 0.950 . S
C639 C638 1.524 . S
C639 C640 1.415 . S
C640 H616 0.950 . S
C640 C635 1.363 . S
C640 C639 1.415 . S
C641 H617 0.951 . S
C641 C642 1.366 . S
C641 C643 1.388 . S
C642 C641 1.366 . S
C642 C646 1.385 . S
C643 H618 0.951 . S
C643 C641 1.388 . S
C643 C644 1.366 . S
C644 C643 1.366 . S
C644 C645 1.414 . S
C644 C647 1.499 . S
C645 H619 0.950 . S
C645 C644 1.414 . S
C645 C646 1.374 . S
C646 H620 0.950 . S
C646 C642 1.385 . S
C646 C645 1.374 . S
C647 C644 1.499 . S
C647 C648 1.373 . S
C647 C649 1.389 . S
C648 H621 0.950 . S
C648 C634 1.377 . S
C648 C647 1.373 . S
C649 C633 1.377 . S
C649 C647 1.389 . S
C649 C650 1.524 . S
C650 C649 1.524 . S
C650 C651 1.397 . S
C650 C655 1.363 . S
C651 H622 0.950 . S
C651 C650 1.397 . S
C651 C652 1.334 . S
C652 H623 0.950 . S
C652 C651 1.334 . S
C652 C653 1.287 . S
C653 C652 1.287 . S
C653 C654 1.524 . S
C653 H656 0.999 . S
C654 H624 0.950 . S
C654 C653 1.524 . S
C654 C655 1.415 . S
C655 H625 0.950 . S
C655 C650 1.363 . S
C655 C654 1.415 . S
H656 C653 0.999 . S
H657 C638 0.913 . S
H658 C676 0.951 . S
H659 C678 0.951 . S
H660 C680 0.950 . S
H661 C681 0.950 . S
H662 C683 0.950 . S
H663 C686 0.950 . S
H664 C687 0.950 . S
H665 C689 0.950 . S
H666 C690 0.950 . S
H667 C691 0.951 . S
H668 C693 0.951 . S
H669 C695 0.950 . S
H670 C696 0.950 . S
H671 C698 0.950 . S
H672 C701 0.950 . S
H673 C702 0.950 . S
H674 C704 0.950 . S
H675 C705 0.950 . S
C676 H658 0.951 . S
C676 C677 1.366 1_565 S
C676 C678 1.388 . S
C677 C676 1.366 1_545 S
C677 C681 1.385 . S
C678 H659 0.951 . S
C678 C676 1.388 . S
C678 C679 1.366 . S
C679 C678 1.366 . S
C679 C680 1.414 . S
C679 C682 1.499 . S
C680 H660 0.950 . S
C680 C679 1.414 . S
C680 C681 1.374 1_565 S
C681 H661 0.950 . S
C681 C677 1.385 . S
C681 C680 1.374 1_545 S
C682 C679 1.499 . S
C682 C683 1.373 . S
C682 C684 1.389 . S
C683 H662 0.950 . S
C683 C682 1.373 . S
C683 C699 1.377 . S
C684 C682 1.389 . S
C684 C685 1.524 . S
C684 C698 1.377 . S
C685 C684 1.524 . S
C685 C686 1.397 . S
C685 C690 1.363 . S
C686 H663 0.950 . S
C686 C685 1.397 . S
C686 C687 1.334 . S
C687 H664 0.950 . S
C687 C686 1.334 . S
C687 C688 1.287 . S
C688 C687 1.287 . S
C688 C689 1.524 . S
C688 H707 0.913 . S
C689 H665 0.950 . S
C689 C688 1.524 . S
C689 C690 1.415 . S
C690 H666 0.950 . S
C690 C685 1.363 . S
C690 C689 1.415 . S
C691 H667 0.951 . S
C691 C692 1.366 . S
C691 C693 1.388 1_655 S
C692 C691 1.366 . S
C692 C696 1.385 1_655 S
C693 H668 0.951 . S
C693 C691 1.388 1_455 S
C693 C694 1.366 . S
C694 C693 1.366 . S
C694 C695 1.414 . S
C694 C697 1.499 . S
C695 H669 0.950 . S
C695 C694 1.414 . S
C695 C696 1.374 . S
C696 H670 0.950 . S
C696 C692 1.385 1_455 S
C696 C695 1.374 . S
C697 C694 1.499 . S
C697 C698 1.373 . S
C697 C699 1.389 . S
C698 H671 0.950 . S
C698 C684 1.377 . S
C698 C697 1.373 . S
C699 C683 1.377 . S
C699 C697 1.389 . S
C699 C700 1.524 . S
C700 C699 1.524 . S
C700 C701 1.397 . S
C700 C705 1.363 . S
C701 H672 0.950 . S
C701 C700 1.397 . S
C701 C702 1.334 . S
C702 H673 0.950 . S
C702 C701 1.334 . S
C702 C703 1.287 . S
C703 C702 1.287 . S
C703 C704 1.524 . S
C703 H706 0.999 . S
C704 H674 0.950 . S
C704 C703 1.524 . S
C704 C705 1.415 . S
C705 H675 0.950 . S
C705 C700 1.363 . S
C705 C704 1.415 . S
H706 C703 0.999 . S
H707 C688 0.913 . S
H708 C726 0.951 . S
H709 C728 0.951 . S
H710 C730 0.950 . S
H711 C731 0.950 . S
H712 C733 0.950 . S
H713 C736 0.950 . S
H714 C737 0.950 . S
H715 C739 0.950 . S
H716 C740 0.950 . S
H717 C741 0.951 . S
H718 C743 0.951 . S
H719 C745 0.950 . S
H720 C746 0.950 . S
H721 C748 0.950 . S
H722 C751 0.950 . S
H723 C752 0.950 . S
H724 C754 0.950 . S
H725 C755 0.950 . S
C726 H708 0.951 . S
C726 C727 1.330 1_554 S
C726 C728 1.388 . S
C727 C726 1.330 1_556 S
C727 C731 1.408 . S
C728 H709 0.951 . S
C728 C726 1.388 . S
C728 C729 1.366 . S
C729 C728 1.366 . S
C729 C730 1.414 1_554 S
C729 C732 1.499 . S
C730 H710 0.950 . S
C730 C729 1.414 1_556 S
C730 C731 1.374 . S
C731 H711 0.950 . S
C731 C727 1.408 . S
C731 C730 1.374 . S
C732 C729 1.499 . S
C732 C733 1.373 . S
C732 C734 1.389 . S
C733 H712 0.950 . S
C733 C732 1.373 . S
C733 C749 1.377 . S
C734 C732 1.389 . S
C734 C735 1.524 1_554 S
C734 C748 1.377 . S
C735 C734 1.524 1_556 S
C735 C736 1.397 . S
C735 C740 1.363 1_556 S
C736 H713 0.950 . S
C736 C735 1.397 . S
C736 C737 1.334 . S
C737 H714 0.950 . S
C737 C736 1.334 . S
C737 C738 1.287 . S
C738 C737 1.287 . S
C738 C739 1.524 . S
C738 H757 0.913 . S
C739 H715 0.950 . S
C739 C738 1.524 . S
C739 C740 1.415 1_556 S
C740 H716 0.950 . S
C740 C735 1.363 1_554 S
C740 C739 1.415 1_554 S
C741 H717 0.951 . S
C741 C742 1.366 . S
C741 C743 1.388 . S
C742 C741 1.366 . S
C742 C746 1.385 . S
C743 H718 0.951 . S
C743 C741 1.388 . S
C743 C744 1.366 . S
C744 C743 1.366 . S
C744 C745 1.414 . S
C744 C747 1.499 . S
C745 H719 0.950 . S
C745 C744 1.414 . S
C745 C746 1.374 . S
C746 H720 0.950 . S
C746 C742 1.385 . S
C746 C745 1.374 . S
C747 C744 1.499 . S
C747 C748 1.373 . S
C747 C749 1.389 . S
C748 H721 0.950 . S
C748 C734 1.377 . S
C748 C747 1.373 . S
C749 C733 1.377 . S
C749 C747 1.389 . S
C749 C750 1.524 . S
C750 C749 1.524 . S
C750 C751 1.397 . S
C750 C755 1.363 . S
C751 H722 0.950 . S
C751 C750 1.397 . S
C751 C752 1.334 . S
C752 H723 0.950 . S
C752 C751 1.334 . S
C752 C753 1.287 . S
C753 C752 1.287 . S
C753 C754 1.524 . S
C753 H756 0.999 . S
C754 H724 0.950 . S
C754 C753 1.524 . S
C754 C755 1.415 . S
C755 H725 0.950 . S
C755 C750 1.363 . S
C755 C754 1.415 . S
H756 C753 0.999 . S
H757 C738 0.913 . S
H758 C776 0.951 . S
H759 C778 0.951 . S
H760 C780 0.950 . S
H761 C781 0.950 . S
H762 C783 0.950 . S
H763 C786 0.950 . S
H764 C787 0.950 . S
H765 C789 0.950 . S
H766 C790 0.950 . S
H767 C791 0.951 . S
H768 C793 0.951 . S
H769 C795 0.950 . S
H770 C796 0.950 . S
H771 C798 0.950 . S
H772 C801 0.950 . S
H773 C802 0.950 . S
H774 C804 0.950 . S
H775 C805 0.950 . S
C776 H758 0.951 . S
C776 C777 1.366 . S
C776 C778 1.388 . S
C777 C776 1.366 . S
C777 C781 1.385 . S
C778 H759 0.951 . S
C778 C776 1.388 . S
C778 C779 1.366 . S
C779 C778 1.366 . S
C779 C780 1.414 . S
C779 C782 1.499 . S
C780 H760 0.950 . S
C780 C779 1.414 . S
C780 C781 1.374 . S
C781 H761 0.950 . S
C781 C777 1.385 . S
C781 C780 1.374 . S
C782 C779 1.499 . S
C782 C783 1.373 1_655 S
C782 C784 1.389 . S
C783 H762 0.950 . S
C783 C782 1.373 1_455 S
C783 C799 1.377 . S
C784 C782 1.389 . S
C784 C785 1.524 . S
C784 C798 1.377 . S
C785 C784 1.524 . S
C785 C786 1.397 . S
C785 C790 1.363 . S
C786 H763 0.950 . S
C786 C785 1.397 . S
C786 C787 1.334 . S
C787 H764 0.950 . S
C787 C786 1.334 . S
C787 C788 1.287 . S
C788 C787 1.287 . S
C788 C789 1.524 . S
C788 H807 0.913 . S
C789 H765 0.950 . S
C789 C788 1.524 . S
C789 C790 1.415 . S
C790 H766 0.950 . S
C790 C785 1.363 . S
C790 C789 1.415 . S
C791 H767 0.951 . S
C791 C792 1.366 . S
C791 C793 1.388 . S
C792 C791 1.366 . S
C792 C796 1.385 . S
C793 H768 0.951 . S
C793 C791 1.388 . S
C793 C794 1.366 . S
C794 C793 1.366 . S
C794 C795 1.414 . S
C794 C797 1.499 . S
C795 H769 0.950 . S
C795 C794 1.414 . S
C795 C796 1.374 . S
C796 H770 0.950 . S
C796 C792 1.385 . S
C796 C795 1.374 . S
C797 C794 1.499 . S
C797 C798 1.373 1_455 S
C797 C799 1.389 . S
C798 H771 0.950 . S
C798 C784 1.377 . S
C798 C797 1.373 1_655 S
C799 C783 1.377 . S
C799 C797 1.389 . S
C799 C800 1.524 . S
C800 C799 1.524 . S
C800 C801 1.397 . S
C800 C805 1.363 . S
C801 H772 0.950 . S
C801 C800 1.397 . S
C801 C802 1.334 . S
C802 H773 0.950 . S
C802 C801 1.334 . S
C802 C803 1.287 . S
C803 C802 1.287 . S
C803 C804 1.524 . S
C803 H806 0.999 . S
C804 H774 0.950 . S
C804 C803 1.524 . S
C804 C805 1.415 . S
C805 H775 0.950 . S
C805 C800 1.363 . S
C805 C804 1.415 . S
H806 C803 0.999 . S
H807 C788 0.913 . S
H808 C826 0.951 . S
H809 C828 0.951 . S
H810 C830 0.950 . S
H811 C831 0.950 . S
H812 C833 0.950 . S
H813 C836 0.950 . S
H814 C837 0.950 . S
H815 C839 0.950 . S
H816 C840 0.950 . S
H817 C841 0.951 . S
H818 C843 0.951 . S
H819 C845 0.950 . S
H820 C846 0.950 . S
H821 C848 0.950 . S
H822 C851 0.950 . S
H823 C852 0.950 . S
H824 C854 0.950 . S
H825 C855 0.950 . S
C826 H808 0.951 . S
C826 C827 1.366 . S
C826 C828 1.388 . S
C827 C826 1.366 . S
C827 C831 1.385 . S
C828 H809 0.951 . S
C828 C826 1.388 . S
C828 C829 1.366 . S
C829 C828 1.366 . S
C829 C830 1.414 . S
C829 C832 1.499 . S
C830 H810 0.950 . S
C830 C829 1.414 . S
C830 C831 1.374 . S
C831 H811 0.950 . S
C831 C827 1.385 . S
C831 C830 1.374 . S
C832 C829 1.499 . S
C832 C833 1.373 . S
C832 C834 1.389 . S
C833 H812 0.950 . S
C833 C832 1.373 . S
C833 C849 1.377 1_545 S
C834 C832 1.389 . S
C834 C835 1.524 . S
C834 C848 1.377 . S
C835 C834 1.524 . S
C835 C836 1.397 . S
C835 C840 1.363 . S
C836 H813 0.950 . S
C836 C835 1.397 . S
C836 C837 1.334 . S
C837 H814 0.950 . S
C837 C836 1.334 . S
C837 C838 1.287 . S
C838 C837 1.287 . S
C838 C839 1.524 . S
C838 H857 0.913 . S
C839 H815 0.950 . S
C839 C838 1.524 . S
C839 C840 1.415 . S
C840 H816 0.950 . S
C840 C835 1.363 . S
C840 C839 1.415 . S
C841 H817 0.951 . S
C841 C842 1.366 . S
C841 C843 1.388 . S
C842 C841 1.366 . S
C842 C846 1.385 . S
C843 H818 0.951 . S
C843 C841 1.388 . S
C843 C844 1.366 . S
C844 C843 1.366 . S
C844 C845 1.414 . S
C844 C847 1.499 . S
C845 H819 0.950 . S
C845 C844 1.414 . S
C845 C846 1.374 . S
C846 H820 0.950 . S
C846 C842 1.385 . S
C846 C845 1.374 . S
C847 C844 1.499 . S
C847 C848 1.373 1_565 S
C847 C849 1.389 . S
C848 H821 0.950 . S
C848 C834 1.377 . S
C848 C847 1.373 1_545 S
C849 C833 1.377 1_565 S
C849 C847 1.389 . S
C849 C850 1.524 . S
C850 C849 1.524 . S
C850 C851 1.397 . S
C850 C855 1.363 . S
C851 H822 0.950 . S
C851 C850 1.397 . S
C851 C852 1.334 . S
C852 H823 0.950 . S
C852 C851 1.334 . S
C852 C853 1.287 . S
C853 C852 1.287 . S
C853 C854 1.524 . S
C853 H856 0.999 . S
C854 H824 0.950 . S
C854 C853 1.524 . S
C854 C855 1.415 . S
C855 H825 0.950 . S
C855 C850 1.363 . S
C855 C854 1.415 . S
H856 C853 0.999 . S
H857 C838 0.913 . S
H858 C876 0.951 . S
H859 C878 0.951 . S
H860 C880 0.950 . S
H861 C881 0.950 . S
H862 C883 0.950 . S
H863 C886 0.950 . S
H864 C887 0.950 . S
H865 C889 0.950 . S
H866 C890 0.950 . S
H867 C891 0.951 . S
H868 C893 0.951 . S
H869 C895 0.950 . S
H870 C896 0.950 . S
H871 C898 0.950 . S
H872 C901 0.950 . S
H873 C902 0.950 . S
H874 C904 0.950 . S
H875 C905 0.950 . S
C876 H858 0.951 . S
C876 C877 1.366 . S
C876 C878 1.388 . S
C877 C876 1.366 . S
C877 C881 1.385 . S
C878 H859 0.951 . S
C878 C876 1.388 . S
C878 C879 1.366 . S
C879 C878 1.366 . S
C879 C880 1.414 . S
C879 C882 1.499 . S
C880 H860 0.950 . S
C880 C879 1.414 . S
C880 C881 1.374 . S
C881 H861 0.950 . S
C881 C877 1.385 . S
C881 C880 1.374 . S
C882 C879 1.499 . S
C882 C883 1.373 . S
C882 C884 1.389 . S
C883 H862 0.950 . S
C883 C882 1.373 . S
C883 C899 1.377 . S
C884 C882 1.389 . S
C884 C885 1.524 . S
C884 C898 1.377 . S
C885 C884 1.524 . S
C885 C886 1.397 . S
C885 C890 1.363 . S
C886 H863 0.950 . S
C886 C885 1.397 . S
C886 C887 1.334 . S
C887 H864 0.950 . S
C887 C886 1.334 . S
C887 C888 1.287 . S
C888 C887 1.287 . S
C888 C889 1.524 . S
C888 H907 0.913 . S
C889 H865 0.950 . S
C889 C888 1.524 . S
C889 C890 1.415 . S
C890 H866 0.950 . S
C890 C885 1.363 . S
C890 C889 1.415 . S
C891 H867 0.951 . S
C891 C892 1.366 . S
C891 C893 1.388 . S
C892 C891 1.366 . S
C892 C896 1.385 . S
C893 H868 0.951 . S
C893 C891 1.388 . S
C893 C894 1.366 . S
C894 C893 1.366 . S
C894 C895 1.414 . S
C894 C897 1.499 . S
C895 H869 0.950 . S
C895 C894 1.414 . S
C895 C896 1.374 . S
C896 H870 0.950 . S
C896 C892 1.385 . S
C896 C895 1.374 . S
C897 C894 1.499 . S
C897 C898 1.373 . S
C897 C899 1.389 . S
C898 H871 0.950 . S
C898 C884 1.377 . S
C898 C897 1.373 . S
C899 C883 1.377 . S
C899 C897 1.389 . S
C899 C900 1.524 . S
C900 C899 1.524 . S
C900 C901 1.397 . S
C900 C905 1.363 . S
C901 H872 0.950 . S
C901 C900 1.397 . S
C901 C902 1.334 . S
C902 H873 0.950 . S
C902 C901 1.334 . S
C902 C903 1.287 . S
C903 C902 1.287 . S
C903 C904 1.524 . S
C903 H906 0.999 . S
C904 H874 0.950 . S
C904 C903 1.524 . S
C904 C905 1.415 . S
C905 H875 0.950 . S
C905 C900 1.363 . S
C905 C904 1.415 . S
H906 C903 0.999 . S
H907 C888 0.913 . S
H908 C926 0.951 . S
H909 C928 0.951 . S
H910 C930 0.950 . S
H911 C931 0.950 . S
H912 C933 0.950 . S
H913 C936 0.950 . S
H914 C937 0.950 . S
H915 C939 0.950 . S
H916 C940 0.950 . S
H917 C941 0.951 . S
H918 C943 0.951 . S
H919 C945 0.950 . S
H920 C946 0.950 . S
H921 C948 0.950 . S
H922 C951 0.950 . S
H923 C952 0.950 . S
H924 C954 0.950 . S
H925 C955 0.950 . S
C926 H908 0.951 . S
C926 C927 1.366 . S
C926 C928 1.388 . S
C927 C926 1.366 . S
C927 C931 1.385 . S
C928 H909 0.951 . S
C928 C926 1.388 . S
C928 C929 1.366 . S
C929 C928 1.366 . S
C929 C930 1.414 . S
C929 C932 1.499 . S
C930 H910 0.950 . S
C930 C929 1.414 . S
C930 C931 1.374 . S
C931 H911 0.950 . S
C931 C927 1.385 . S
C931 C930 1.374 . S
C932 C929 1.499 . S
C932 C933 1.373 1_655 S
C932 C934 1.389 . S
C933 H912 0.950 . S
C933 C932 1.373 1_455 S
C933 C949 1.377 . S
C934 C932 1.389 . S
C934 C935 1.524 . S
C934 C948 1.377 . S
C935 C934 1.524 . S
C935 C936 1.397 . S
C935 C940 1.363 . S
C936 H913 0.950 . S
C936 C935 1.397 . S
C936 C937 1.334 . S
C937 H914 0.950 . S
C937 C936 1.334 . S
C937 C938 1.287 . S
C938 C937 1.287 . S
C938 C939 1.524 . S
C938 H957 0.913 . S
C939 H915 0.950 . S
C939 C938 1.524 . S
C939 C940 1.415 . S
C940 H916 0.950 . S
C940 C935 1.363 . S
C940 C939 1.415 . S
C941 H917 0.951 . S
C941 C942 1.366 . S
C941 C943 1.388 . S
C942 C941 1.366 . S
C942 C946 1.385 . S
C943 H918 0.951 . S
C943 C941 1.388 . S
C943 C944 1.366 . S
C944 C943 1.366 . S
C944 C945 1.414 . S
C944 C947 1.499 . S
C945 H919 0.950 . S
C945 C944 1.414 . S
C945 C946 1.374 . S
C946 H920 0.950 . S
C946 C942 1.385 . S
C946 C945 1.374 . S
C947 C944 1.499 . S
C947 C948 1.373 1_455 S
C947 C949 1.389 . S
C948 H921 0.950 . S
C948 C934 1.377 . S
C948 C947 1.373 1_655 S
C949 C933 1.377 . S
C949 C947 1.389 . S
C949 C950 1.524 . S
C950 C949 1.524 . S
C950 C951 1.397 . S
C950 C955 1.363 . S
C951 H922 0.950 . S
C951 C950 1.397 . S
C951 C952 1.334 . S
C952 H923 0.950 . S
C952 C951 1.334 . S
C952 C953 1.287 . S
C953 C952 1.287 . S
C953 C954 1.524 . S
C953 H956 0.999 . S
C954 H924 0.950 . S
C954 C953 1.524 . S
C954 C955 1.415 . S
C955 H925 0.950 . S
C955 C950 1.363 . S
C955 C954 1.415 . S
H956 C953 0.999 . S
H957 C938 0.913 . S
H958 C976 0.951 . S
H959 C978 0.951 . S
H960 C980 0.950 . S
H961 C981 0.950 . S
H962 C983 0.950 . S
H963 C986 0.950 . S
H964 C987 0.950 . S
H965 C989 0.949 1_545 S
H966 C990 0.950 1_545 S
H967 C991 0.951 . S
H968 C993 0.951 . S
H969 C995 0.950 . S
H970 C996 0.950 . S
H971 C998 0.950 . S
H972 C1001 0.950 . S
H973 C1002 0.950 . S
H974 C1004 0.950 1_565 S
H975 C1005 0.950 . S
C976 H958 0.951 . S
C976 C977 1.366 . S
C976 C978 1.388 . S
C977 C976 1.366 . S
C977 C981 1.385 . S
C978 H959 0.951 . S
C978 C976 1.388 . S
C978 C979 1.366 . S
C979 C978 1.366 . S
C979 C980 1.414 . S
C979 C982 1.499 . S
C980 H960 0.950 . S
C980 C979 1.414 . S
C980 C981 1.374 . S
C981 H961 0.950 . S
C981 C977 1.385 . S
C981 C980 1.374 . S
C982 C979 1.499 . S
C982 C983 1.373 . S
C982 C984 1.389 . S
C983 H962 0.950 . S
C983 C982 1.373 . S
C983 C999 1.377 1_565 S
C984 C982 1.389 . S
C984 C985 1.524 . S
C984 C998 1.377 1_565 S
C985 C984 1.524 . S
C985 C986 1.397 . S
C985 C990 1.363 . S
C986 H963 0.950 . S
C986 C985 1.397 . S
C986 C987 1.334 . S
C987 H964 0.950 . S
C987 C986 1.334 . S
C987 C988 1.287 . S
C988 C987 1.287 . S
C988 C989 1.524 . S
C988 H1007 0.913 . S
C989 H965 0.949 1_565 S
C989 C988 1.524 . S
C989 C990 1.415 . S
C990 H966 0.950 1_565 S
C990 C985 1.363 . S
C990 C989 1.415 . S
C991 H967 0.951 . S
C991 C992 1.366 . S
C991 C993 1.388 . S
C992 C991 1.366 . S
C992 C996 1.385 . S
C993 H968 0.951 . S
C993 C991 1.388 . S
C993 C994 1.366 . S
C994 C993 1.366 . S
C994 C995 1.414 . S
C994 C997 1.499 . S
C995 H969 0.950 . S
C995 C994 1.414 . S
C995 C996 1.374 . S
C996 H970 0.950 . S
C996 C992 1.385 . S
C996 C995 1.374 . S
C997 C994 1.499 . S
C997 C998 1.373 . S
C997 C999 1.389 . S
C998 H971 0.950 . S
C998 C984 1.377 1_545 S
C998 C997 1.373 . S
C999 C983 1.377 1_545 S
C999 C997 1.389 . S
C999 C1000 1.524 . S
C1000 C999 1.524 . S
C1000 C1001 1.397 . S
C1000 C1005 1.363 1_545 S
C1001 H972 0.950 . S
C1001 C1000 1.397 . S
C1001 C1002 1.334 . S
C1002 H973 0.950 . S
C1002 C1001 1.334 . S
C1002 C1003 1.287 . S
C1003 C1002 1.287 . S
C1003 C1004 1.524 . S
C1003 H1006 0.999 . S
C1004 H974 0.950 1_545 S
C1004 C1003 1.524 . S
C1004 C1005 1.415 1_545 S
C1005 H975 0.950 . S
C1005 C1000 1.363 1_565 S
C1005 C1004 1.415 1_565 S
H1006 C1003 0.999 . S
H1007 C988 0.913 . S
H1008 C1026 0.951 . S
H1009 C1028 0.951 . S
H1010 C1030 0.950 . S
H1011 C1031 0.950 . S
H1012 C1033 0.950 . S
H1013 C1036 0.950 . S
H1014 C1037 0.950 . S
H1015 C1039 0.950 . S
H1016 C1040 0.950 . S
H1017 C1041 0.951 . S
H1018 C1043 0.951 . S
H1019 C1045 0.950 . S
H1020 C1046 0.950 . S
H1021 C1048 0.950 . S
H1022 C1051 0.950 . S
H1023 C1052 0.950 . S
H1024 C1054 0.950 . S
H1025 C1055 0.950 . S
C1026 H1008 0.951 . S
C1026 C1027 1.366 . S
C1026 C1028 1.388 . S
C1027 C1026 1.366 . S
C1027 C1031 1.385 . S
C1028 H1009 0.951 . S
C1028 C1026 1.388 . S
C1028 C1029 1.366 . S
C1029 C1028 1.366 . S
C1029 C1030 1.414 . S
C1029 C1032 1.499 . S
C1030 H1010 0.950 . S
C1030 C1029 1.414 . S
C1030 C1031 1.374 . S
C1031 H1011 0.950 . S
C1031 C1027 1.385 . S
C1031 C1030 1.374 . S
C1032 C1029 1.499 . S
C1032 C1033 1.373 . S
C1032 C1034 1.389 . S
C1033 H1012 0.950 . S
C1033 C1032 1.373 . S
C1033 C1049 1.377 . S
C1034 C1032 1.389 . S
C1034 C1035 1.524 . S
C1034 C1048 1.377 . S
C1035 C1034 1.524 . S
C1035 C1036 1.397 . S
C1035 C1040 1.363 . S
C1036 H1013 0.950 . S
C1036 C1035 1.397 . S
C1036 C1037 1.334 . S
C1037 H1014 0.950 . S
C1037 C1036 1.334 . S
C1037 C1038 1.287 . S
C1038 C1037 1.287 . S
C1038 C1039 1.524 . S
C1038 H1057 0.913 . S
C1039 H1015 0.950 . S
C1039 C1038 1.524 . S
C1039 C1040 1.415 . S
C1040 H1016 0.950 . S
C1040 C1035 1.363 . S
C1040 C1039 1.415 . S
C1041 H1017 0.951 . S
C1041 C1042 1.366 . S
C1041 C1043 1.388 . S
C1042 C1041 1.366 . S
C1042 C1046 1.385 . S
C1043 H1018 0.951 . S
C1043 C1041 1.388 . S
C1043 C1044 1.366 . S
C1044 C1043 1.366 . S
C1044 C1045 1.414 . S
C1044 C1047 1.499 . S
C1045 H1019 0.950 . S
C1045 C1044 1.414 . S
C1045 C1046 1.374 . S
C1046 H1020 0.950 . S
C1046 C1042 1.385 . S
C1046 C1045 1.374 . S
C1047 C1044 1.499 . S
C1047 C1048 1.373 . S
C1047 C1049 1.389 . S
C1048 H1021 0.950 . S
C1048 C1034 1.377 . S
C1048 C1047 1.373 . S
C1049 C1033 1.377 . S
C1049 C1047 1.389 . S
C1049 C1050 1.524 . S
C1050 C1049 1.524 . S
C1050 C1051 1.397 . S
C1050 C1055 1.363 . S
C1051 H1022 0.950 . S
C1051 C1050 1.397 . S
C1051 C1052 1.334 . S
C1052 H1023 0.950 . S
C1052 C1051 1.334 . S
C1052 C1053 1.287 . S
C1053 C1052 1.287 . S
C1053 C1054 1.524 . S
C1053 H1056 0.999 . S
C1054 H1024 0.950 . S
C1054 C1053 1.524 . S
C1054 C1055 1.415 . S
C1055 H1025 0.950 . S
C1055 C1050 1.363 . S
C1055 C1054 1.415 . S
H1056 C1053 0.999 . S
H1057 C1038 0.913 . S
H1058 C1076 0.951 . S
H1059 C1078 0.951 1_455 S
H1060 C1080 0.950 . S
H1061 C1081 0.950 . S
H1062 C1083 0.950 . S
H1063 C1086 0.950 1_655 S
H1064 C1087 0.950 . S
H1065 C1089 0.950 . S
H1066 C1090 0.950 . S
H1067 C1091 0.951 . S
H1068 C1093 0.951 . S
H1069 C1095 0.950 . S
H1070 C1096 0.956 . S
H1071 C1098 0.950 . S
H1072 C1101 0.950 1_455 S
H1073 C1102 0.950 . S
H1074 C1104 0.950 . S
H1075 C1105 0.950 1_556 S
C1076 H1058 0.951 . S
C1076 C1077 1.366 . S
C1076 C1078 1.388 . S
C1077 C1076 1.366 . S
C1077 C1081 1.385 . S
C1078 H1059 0.951 1_655 S
C1078 C1076 1.388 . S
C1078 C1079 1.366 . S
C1079 C1078 1.366 . S
C1079 C1080 1.414 . S
C1079 C1082 1.499 . S
C1080 H1060 0.950 . S
C1080 C1079 1.414 . S
C1080 C1081 1.374 . S
C1081 H1061 0.950 . S
C1081 C1077 1.385 . S
C1081 C1080 1.374 . S
C1082 C1079 1.499 . S
C1082 C1083 1.373 . S
C1082 C1084 1.389 1_655 S
C1083 H1062 0.950 . S
C1083 C1082 1.373 . S
C1083 C1099 1.377 . S
C1084 C1082 1.389 1_455 S
C1084 C1085 1.524 . S
C1084 C1098 1.377 . S
C1085 C1084 1.524 . S
C1085 C1086 1.397 . S
C1085 C1090 1.363 . S
C1086 H1063 0.950 1_455 S
C1086 C1085 1.397 . S
C1086 C1087 1.334 . S
C1087 H1064 0.950 . S
C1087 C1086 1.334 . S
C1087 C1088 1.287 . S
C1088 C1087 1.287 . S
C1088 C1089 1.524 . S
C1088 H1107 0.913 . S
C1089 H1065 0.950 . S
C1089 C1088 1.524 . S
C1089 C1090 1.415 . S
C1090 H1066 0.950 . S
C1090 C1085 1.363 . S
C1090 C1089 1.415 . S
C1091 H1067 0.951 . S
C1091 C1092 1.387 . S
C1091 C1093 1.388 . S
C1092 C1091 1.387 . S
C1092 C1096 1.380 1_556 S
C1093 H1068 0.951 . S
C1093 C1091 1.388 . S
C1093 C1094 1.366 . S
C1094 C1093 1.366 . S
C1094 C1095 1.414 . S
C1094 C1097 1.499 . S
C1095 H1069 0.950 . S
C1095 C1094 1.414 . S
C1095 C1096 1.370 1_556 S
C1096 H1070 0.956 . S
C1096 C1092 1.380 1_554 S
C1096 C1095 1.370 1_554 S
C1097 C1094 1.499 . S
C1097 C1098 1.373 . S
C1097 C1099 1.389 1_455 S
C1098 H1071 0.950 . S
C1098 C1084 1.377 . S
C1098 C1097 1.373 . S
C1099 C1083 1.377 . S
C1099 C1097 1.389 1_655 S
C1099 C1100 1.524 1_556 S
C1100 C1099 1.524 1_554 S
C1100 C1101 1.397 . S
C1100 C1105 1.363 . S
C1101 H1072 0.950 1_655 S
C1101 C1100 1.397 . S
C1101 C1102 1.334 . S
C1102 H1073 0.950 . S
C1102 C1101 1.334 . S
C1102 C1103 1.287 . S
C1103 C1102 1.287 . S
C1103 C1104 1.524 . S
C1103 H1106 0.999 . S
C1104 H1074 0.950 . S
C1104 C1103 1.524 . S
C1104 C1105 1.415 . S
C1105 H1075 0.950 1_554 S
C1105 C1100 1.363 . S
C1105 C1104 1.415 . S
H1106 C1103 0.999 . S
H1107 C1088 0.913 . S
H1108 C1126 0.951 . S
H1109 C1128 0.951 . S
H1110 C1130 0.950 1_545 S
H1111 C1131 0.950 . S
H1112 C1133 0.950 . S
H1113 C1136 0.950 . S
H1114 C1137 0.950 . S
H1115 C1139 0.950 . S
H1116 C1140 0.950 . S
H1117 C1141 0.951 . S
H1118 C1143 0.951 . S
H1119 C1145 0.950 . S
H1120 C1146 0.950 . S
H1121 C1148 0.950 . S
H1122 C1151 0.950 . S
H1123 C1152 0.950 . S
H1124 C1154 0.950 . S
H1125 C1155 0.950 . S
C1126 H1108 0.951 . S
C1126 C1127 1.366 . S
C1126 C1128 1.388 . S
C1127 C1126 1.366 . S
C1127 C1131 1.385 . S
C1128 H1109 0.951 . S
C1128 C1126 1.388 . S
C1128 C1129 1.366 . S
C1129 C1128 1.366 . S
C1129 C1130 1.414 . S
C1129 C1132 1.499 . S
C1130 H1110 0.950 1_565 S
C1130 C1129 1.414 . S
C1130 C1131 1.374 . S
C1131 H1111 0.950 . S
C1131 C1127 1.385 . S
C1131 C1130 1.374 . S
C1132 C1129 1.499 . S
C1132 C1133 1.373 1_565 S
C1132 C1134 1.389 . S
C1133 H1112 0.950 . S
C1133 C1132 1.373 1_545 S
C1133 C1149 1.377 . S
C1134 C1132 1.389 . S
C1134 C1135 1.524 . S
C1134 C1148 1.377 . S
C1135 C1134 1.524 . S
C1135 C1136 1.397 . S
C1135 C1140 1.363 . S
C1136 H1113 0.950 . S
C1136 C1135 1.397 . S
C1136 C1137 1.334 . S
C1137 H1114 0.950 . S
C1137 C1136 1.334 . S
C1137 C1138 1.287 . S
C1138 C1137 1.287 . S
C1138 C1139 1.524 . S
C1138 H1157 0.913 . S
C1139 H1115 0.950 . S
C1139 C1138 1.524 . S
C1139 C1140 1.415 . S
C1140 H1116 0.950 . S
C1140 C1135 1.363 . S
C1140 C1139 1.415 . S
C1141 H1117 0.951 . S
C1141 C1142 1.366 . S
C1141 C1143 1.388 . S
C1142 C1141 1.366 . S
C1142 C1146 1.385 . S
C1143 H1118 0.951 . S
C1143 C1141 1.388 . S
C1143 C1144 1.366 . S
C1144 C1143 1.366 . S
C1144 C1145 1.414 . S
C1144 C1147 1.499 . S
C1145 H1119 0.950 . S
C1145 C1144 1.414 . S
C1145 C1146 1.374 . S
C1146 H1120 0.950 . S
C1146 C1142 1.385 . S
C1146 C1145 1.374 . S
C1147 C1144 1.499 . S
C1147 C1148 1.373 1_545 S
C1147 C1149 1.389 . S
C1148 H1121 0.950 . S
C1148 C1134 1.377 . S
C1148 C1147 1.373 1_565 S
C1149 C1133 1.377 . S
C1149 C1147 1.389 . S
C1149 C1150 1.524 . S
C1150 C1149 1.524 . S
C1150 C1151 1.397 . S
C1150 C1155 1.363 . S
C1151 H1122 0.950 . S
C1151 C1150 1.397 . S
C1151 C1152 1.334 . S
C1152 H1123 0.950 . S
C1152 C1151 1.334 . S
C1152 C1153 1.287 . S
C1153 C1152 1.287 . S
C1153 C1154 1.524 . S
C1153 H1156 0.999 . S
C1154 H1124 0.950 . S
C1154 C1153 1.524 . S
C1154 C1155 1.415 . S
C1155 H1125 0.950 . S
C1155 C1150 1.363 . S
C1155 C1154 1.415 . S
H1156 C1153 0.999 . S
H1157 C1138 0.913 . S
H1158 C1176 0.951 . S
H1159 C1178 0.951 . S
H1160 C1180 0.950 . S
H1161 C1181 0.950 . S
H1162 C1183 0.950 . S
H1163 C1186 0.950 . S
H1164 C1187 0.950 . S
H1165 C1189 0.950 . S
H1166 C1190 0.950 . S
H1167 C1191 0.951 . S
H1168 C1193 0.951 . S
H1169 C1195 0.950 . S
H1170 C1196 0.950 . S
H1171 C1198 0.950 . S
H1172 C1201 0.950 . S
H1173 C1202 0.950 . S
H1174 C1204 0.950 . S
H1175 C1205 0.950 . S
C1176 H1158 0.951 . S
C1176 C1177 1.366 . S
C1176 C1178 1.388 . S
C1177 C1176 1.366 . S
C1177 C1181 1.385 . S
C1178 H1159 0.951 . S
C1178 C1176 1.388 . S
C1178 C1179 1.366 . S
C1179 C1178 1.366 . S
C1179 C1180 1.414 . S
C1179 C1182 1.499 . S
C1180 H1160 0.950 . S
C1180 C1179 1.414 . S
C1180 C1181 1.374 . S
C1181 H1161 0.950 . S
C1181 C1177 1.385 . S
C1181 C1180 1.374 . S
C1182 C1179 1.499 . S
C1182 C1183 1.373 . S
C1182 C1184 1.389 . S
C1183 H1162 0.950 . S
C1183 C1182 1.373 . S
C1183 C1199 1.377 . S
C1184 C1182 1.389 . S
C1184 C1185 1.524 . S
C1184 C1198 1.377 . S
C1185 C1184 1.524 . S
C1185 C1186 1.397 . S
C1185 C1190 1.363 . S
C1186 H1163 0.950 . S
C1186 C1185 1.397 . S
C1186 C1187 1.334 . S
C1187 H1164 0.950 . S
C1187 C1186 1.334 . S
C1187 C1188 1.287 . S
C1188 C1187 1.287 . S
C1188 C1189 1.524 . S
C1188 H1207 0.913 . S
C1189 H1165 0.950 . S
C1189 C1188 1.524 . S
C1189 C1190 1.415 . S
C1190 H1166 0.950 . S
C1190 C1185 1.363 . S
C1190 C1189 1.415 . S
C1191 H1167 0.951 . S
C1191 C1192 1.366 . S
C1191 C1193 1.388 . S
C1192 C1191 1.366 . S
C1192 C1196 1.385 . S
C1193 H1168 0.951 . S
C1193 C1191 1.388 . S
C1193 C1194 1.366 . S
C1194 C1193 1.366 . S
C1194 C1195 1.414 . S
C1194 C1197 1.499 . S
C1195 H1169 0.950 . S
C1195 C1194 1.414 . S
C1195 C1196 1.374 . S
C1196 H1170 0.950 . S
C1196 C1192 1.385 . S
C1196 C1195 1.374 . S
C1197 C1194 1.499 . S
C1197 C1198 1.373 . S
C1197 C1199 1.389 . S
C1198 H1171 0.950 . S
C1198 C1184 1.377 . S
C1198 C1197 1.373 . S
C1199 C1183 1.377 . S
C1199 C1197 1.389 . S
C1199 C1200 1.524 . S
C1200 C1199 1.524 . S
C1200 C1201 1.397 . S
C1200 C1205 1.363 . S
C1201 H1172 0.950 . S
C1201 C1200 1.397 . S
C1201 C1202 1.334 . S
C1202 H1173 0.950 . S
C1202 C1201 1.334 . S
C1202 C1203 1.287 . S
C1203 C1202 1.287 . S
C1203 C1204 1.524 . S
C1203 H1206 0.999 . S
C1204 H1174 0.950 . S
C1204 C1203 1.524 . S
C1204 C1205 1.415 . S
C1205 H1175 0.950 . S
C1205 C1200 1.363 . S
C1205 C1204 1.415 . S
H1206 C1203 0.999 . S
H1207 C1188 0.913 . S
H1208 C1226 0.951 . S
H1209 C1228 0.951 . S
H1210 C1230 0.950 . S
H1211 C1231 0.950 . S
H1212 C1233 0.950 . S
H1213 C1236 0.950 . S
H1214 C1237 0.950 . S
H1215 C1239 0.950 . S
H1216 C1240 0.950 . S
H1217 C1241 0.951 . S
H1218 C1243 0.951 . S
H1219 C1245 0.950 1_655 S
H1220 C1246 0.950 . S
H1221 C1248 0.950 . S
H1222 C1251 0.950 . S
H1223 C1252 0.950 . S
H1224 C1254 0.950 . S
H1225 C1255 0.950 . S
C1226 H1208 0.951 . S
C1226 C1227 1.366 . S
C1226 C1228 1.388 . S
C1227 C1226 1.366 . S
C1227 C1231 1.385 . S
C1228 H1209 0.951 . S
C1228 C1226 1.388 . S
C1228 C1229 1.366 . S
C1229 C1228 1.366 . S
C1229 C1230 1.414 . S
C1229 C1232 1.499 . S
C1230 H1210 0.950 . S
C1230 C1229 1.414 . S
C1230 C1231 1.374 . S
C1231 H1211 0.950 . S
C1231 C1227 1.385 . S
C1231 C1230 1.374 . S
C1232 C1229 1.499 . S
C1232 C1233 1.373 . S
C1232 C1234 1.389 . S
C1233 H1212 0.950 . S
C1233 C1232 1.373 . S
C1233 C1249 1.377 1_655 S
C1234 C1232 1.389 . S
C1234 C1235 1.524 . S
C1234 C1248 1.377 . S
C1235 C1234 1.524 . S
C1235 C1236 1.397 . S
C1235 C1240 1.363 . S
C1236 H1213 0.950 . S
C1236 C1235 1.397 . S
C1236 C1237 1.334 . S
C1237 H1214 0.950 . S
C1237 C1236 1.334 . S
C1237 C1238 1.287 . S
C1238 C1237 1.287 . S
C1238 C1239 1.524 . S
C1238 H1257 0.913 . S
C1239 H1215 0.950 . S
C1239 C1238 1.524 . S
C1239 C1240 1.415 . S
C1240 H1216 0.950 . S
C1240 C1235 1.363 . S
C1240 C1239 1.415 . S
C1241 H1217 0.951 . S
C1241 C1242 1.366 . S
C1241 C1243 1.388 . S
C1242 C1241 1.366 . S
C1242 C1246 1.385 . S
C1243 H1218 0.951 . S
C1243 C1241 1.388 . S
C1243 C1244 1.366 . S
C1244 C1243 1.366 . S
C1244 C1245 1.414 . S
C1244 C1247 1.499 . S
C1245 H1219 0.950 1_455 S
C1245 C1244 1.414 . S
C1245 C1246 1.374 . S
C1246 H1220 0.950 . S
C1246 C1242 1.385 . S
C1246 C1245 1.374 . S
C1247 C1244 1.499 . S
C1247 C1248 1.373 1_455 S
C1247 C1249 1.389 . S
C1248 H1221 0.950 . S
C1248 C1234 1.377 . S
C1248 C1247 1.373 1_655 S
C1249 C1233 1.377 1_455 S
C1249 C1247 1.389 . S
C1249 C1250 1.524 . S
C1250 C1249 1.524 . S
C1250 C1251 1.397 . S
C1250 C1255 1.363 . S
C1251 H1222 0.950 . S
C1251 C1250 1.397 . S
C1251 C1252 1.334 . S
C1252 H1223 0.950 . S
C1252 C1251 1.334 . S
C1252 C1253 1.287 . S
C1253 C1252 1.287 . S
C1253 C1254 1.524 . S
C1253 H1256 0.999 . S
C1254 H1224 0.950 . S
C1254 C1253 1.524 . S
C1254 C1255 1.415 . S
C1255 H1225 0.950 . S
C1255 C1250 1.363 . S
C1255 C1254 1.415 . S
H1256 C1253 0.999 . S
H1257 C1238 0.913 . S
H1258 C1276 0.951 . S
H1259 C1278 0.951 . S
H1260 C1280 0.950 . S
H1261 C1281 0.950 . S
H1262 C1283 0.950 . S
H1263 C1286 0.950 . S
H1264 C1287 0.950 . S
H1265 C1289 0.950 . S
H1266 C1290 0.950 . S
H1267 C1291 0.951 . S
H1268 C1293 0.951 . S
H1269 C1295 0.950 . S
H1270 C1296 0.950 . S
H1271 C1298 0.950 . S
H1272 C1301 0.950 . S
H1273 C1302 0.950 . S
H1274 C1304 0.950 . S
H1275 C1305 0.950 . S
C1276 H1258 0.951 . S
C1276 C1277 1.366 . S
C1276 C1278 1.388 . S
C1277 C1276 1.366 . S
C1277 C1281 1.385 . S
C1278 H1259 0.951 . S
C1278 C1276 1.388 . S
C1278 C1279 1.366 . S
C1279 C1278 1.366 . S
C1279 C1280 1.414 . S
C1279 C1282 1.499 . S
C1280 H1260 0.950 . S
C1280 C1279 1.414 . S
C1280 C1281 1.374 . S
C1281 H1261 0.950 . S
C1281 C1277 1.385 . S
C1281 C1280 1.374 . S
C1282 C1279 1.499 . S
C1282 C1283 1.373 . S
C1282 C1284 1.389 . S
C1283 H1262 0.950 . S
C1283 C1282 1.373 . S
C1283 C1299 1.377 . S
C1284 C1282 1.389 . S
C1284 C1285 1.524 . S
C1284 C1298 1.377 1_565 S
C1285 C1284 1.524 . S
C1285 C1286 1.397 . S
C1285 C1290 1.363 1_565 S
C1286 H1263 0.950 . S
C1286 C1285 1.397 . S
C1286 C1287 1.334 . S
C1287 H1264 0.950 . S
C1287 C1286 1.334 . S
C1287 C1288 1.287 . S
C1288 C1287 1.287 . S
C1288 C1289 1.524 1_565 S
C1288 H1307 0.913 . S
C1289 H1265 0.950 . S
C1289 C1288 1.524 1_545 S
C1289 C1290 1.415 . S
C1290 H1266 0.950 . S
C1290 C1285 1.363 1_545 S
C1290 C1289 1.415 . S
C1291 H1267 0.951 . S
C1291 C1292 1.366 . S
C1291 C1293 1.388 . S
C1292 C1291 1.366 . S
C1292 C1296 1.385 . S
C1293 H1268 0.951 . S
C1293 C1291 1.388 . S
C1293 C1294 1.366 . S
C1294 C1293 1.366 . S
C1294 C1295 1.414 . S
C1294 C1297 1.499 . S
C1295 H1269 0.950 . S
C1295 C1294 1.414 . S
C1295 C1296 1.374 . S
C1296 H1270 0.950 . S
C1296 C1292 1.385 . S
C1296 C1295 1.374 . S
C1297 C1294 1.499 . S
C1297 C1298 1.373 . S
C1297 C1299 1.389 1_545 S
C1298 H1271 0.950 . S
C1298 C1284 1.377 1_545 S
C1298 C1297 1.373 . S
C1299 C1283 1.377 . S
C1299 C1297 1.389 1_565 S
C1299 C1300 1.524 1_565 S
C1300 C1299 1.524 1_545 S
C1300 C1301 1.397 . S
C1300 C1305 1.363 1_545 S
C1301 H1272 0.950 . S
C1301 C1300 1.397 . S
C1301 C1302 1.334 . S
C1302 H1273 0.950 . S
C1302 C1301 1.334 . S
C1302 C1303 1.287 . S
C1303 C1302 1.287 . S
C1303 C1304 1.524 1_545 S
C1303 H1306 0.999 . S
C1304 H1274 0.950 . S
C1304 C1303 1.524 1_565 S
C1304 C1305 1.415 . S
C1305 H1275 0.950 . S
C1305 C1300 1.363 1_565 S
C1305 C1304 1.415 . S
H1306 C1303 0.999 . S
H1307 C1288 0.913 . S
H1308 C1326 0.951 . S
H1309 C1328 0.951 . S
H1310 C1330 0.950 . S
H1311 C1331 0.950 . S
H1312 C1333 0.950 . S
H1313 C1336 0.950 . S
H1314 C1337 0.950 . S
H1315 C1339 0.950 . S
H1316 C1340 0.950 . S
H1317 C1341 0.951 1_554 S
H1318 C1343 0.951 . S
H1319 C1345 0.950 . S
H1320 C1346 0.950 . S
H1321 C1348 0.950 . S
H1322 C1351 0.950 . S
H1323 C1352 0.950 . S
H1324 C1354 0.950 . S
H1325 C1355 0.950 . S
C1326 H1308 0.951 . S
C1326 C1327 1.366 . S
C1326 C1328 1.388 . S
C1327 C1326 1.366 . S
C1327 C1331 1.385 . S
C1328 H1309 0.951 . S
C1328 C1326 1.388 . S
C1328 C1329 1.366 . S
C1329 C1328 1.366 . S
C1329 C1330 1.414 . S
C1329 C1332 1.499 . S
C1330 H1310 0.950 . S
C1330 C1329 1.414 . S
C1330 C1331 1.374 . S
C1331 H1311 0.950 . S
C1331 C1327 1.385 . S
C1331 C1330 1.374 . S
C1332 C1329 1.499 . S
C1332 C1333 1.373 . S
C1332 C1334 1.389 . S
C1333 H1312 0.950 . S
C1333 C1332 1.373 . S
C1333 C1349 1.377 . S
C1334 C1332 1.389 . S
C1334 C1335 1.524 . S
C1334 C1348 1.377 . S
C1335 C1334 1.524 . S
C1335 C1336 1.397 . S
C1335 C1340 1.363 . S
C1336 H1313 0.950 . S
C1336 C1335 1.397 . S
C1336 C1337 1.334 . S
C1337 H1314 0.950 . S
C1337 C1336 1.334 . S
C1337 C1338 1.287 . S
C1338 C1337 1.287 . S
C1338 C1339 1.524 . S
C1338 H1357 0.913 . S
C1339 H1315 0.950 . S
C1339 C1338 1.524 . S
C1339 C1340 1.415 . S
C1340 H1316 0.950 . S
C1340 C1335 1.363 . S
C1340 C1339 1.415 . S
C1341 H1317 0.951 1_556 S
C1341 C1342 1.366 . S
C1341 C1343 1.388 . S
C1342 C1341 1.366 . S
C1342 C1346 1.385 . S
C1343 H1318 0.951 . S
C1343 C1341 1.388 . S
C1343 C1344 1.366 . S
C1344 C1343 1.366 . S
C1344 C1345 1.414 . S
C1344 C1347 1.499 . S
C1345 H1319 0.950 . S
C1345 C1344 1.414 . S
C1345 C1346 1.374 . S
C1346 H1320 0.950 . S
C1346 C1342 1.385 . S
C1346 C1345 1.374 . S
C1347 C1344 1.499 . S
C1347 C1348 1.373 . S
C1347 C1349 1.389 . S
C1348 H1321 0.950 . S
C1348 C1334 1.377 . S
C1348 C1347 1.373 . S
C1349 C1333 1.377 . S
C1349 C1347 1.389 . S
C1349 C1350 1.524 . S
C1350 C1349 1.524 . S
C1350 C1351 1.397 . S
C1350 C1355 1.363 . S
C1351 H1322 0.950 . S
C1351 C1350 1.397 . S
C1351 C1352 1.334 . S
C1352 H1323 0.950 . S
C1352 C1351 1.334 . S
C1352 C1353 1.287 . S
C1353 C1352 1.287 . S
C1353 C1354 1.524 . S
C1353 H1356 0.999 . S
C1354 H1324 0.950 . S
C1354 C1353 1.524 . S
C1354 C1355 1.415 . S
C1355 H1325 0.950 . S
C1355 C1350 1.363 . S
C1355 C1354 1.415 . S
H1356 C1353 0.999 . S
H1357 C1338 0.913 . S
H1358 C1376 0.951 . S
H1359 C1378 0.951 . S
H1360 C1380 0.950 . S
H1361 C1381 0.950 . S
H1362 C1383 0.950 . S
H1363 C1386 0.950 . S
H1364 C1387 0.950 . S
H1365 C1389 0.950 . S
H1366 C1390 0.950 . S
H1367 C1391 0.951 . S
H1368 C1393 0.951 . S
H1369 C1395 0.950 . S
H1370 C1396 0.950 . S
H1371 C1398 0.950 . S
H1372 C1401 0.950 . S
H1373 C1402 0.950 . S
H1374 C1404 0.950 . S
H1375 C1405 0.950 . S
C1376 H1358 0.951 . S
C1376 C1377 1.366 . S
C1376 C1378 1.388 . S
C1377 C1376 1.366 . S
C1377 C1381 1.385 . S
C1378 H1359 0.951 . S
C1378 C1376 1.388 . S
C1378 C1379 1.366 . S
C1379 C1378 1.366 . S
C1379 C1380 1.414 . S
C1379 C1382 1.499 . S
C1380 H1360 0.950 . S
C1380 C1379 1.414 . S
C1380 C1381 1.374 . S
C1381 H1361 0.950 . S
C1381 C1377 1.385 . S
C1381 C1380 1.374 . S
C1382 C1379 1.499 . S
C1382 C1383 1.373 1_455 S
C1382 C1384 1.389 . S
C1383 H1362 0.950 . S
C1383 C1382 1.373 1_655 S
C1383 C1399 1.377 . S
C1384 C1382 1.389 . S
C1384 C1385 1.524 . S
C1384 C1398 1.377 . S
C1385 C1384 1.524 . S
C1385 C1386 1.397 . S
C1385 C1390 1.363 . S
C1386 H1363 0.950 . S
C1386 C1385 1.397 . S
C1386 C1387 1.334 . S
C1387 H1364 0.950 . S
C1387 C1386 1.334 . S
C1387 C1388 1.287 . S
C1388 C1387 1.287 . S
C1388 C1389 1.524 . S
C1388 H1407 0.913 . S
C1389 H1365 0.950 . S
C1389 C1388 1.524 . S
C1389 C1390 1.415 . S
C1390 H1366 0.950 . S
C1390 C1385 1.363 . S
C1390 C1389 1.415 . S
C1391 H1367 0.951 . S
C1391 C1392 1.366 . S
C1391 C1393 1.388 . S
C1392 C1391 1.366 . S
C1392 C1396 1.385 . S
C1393 H1368 0.951 . S
C1393 C1391 1.388 . S
C1393 C1394 1.366 . S
C1394 C1393 1.366 . S
C1394 C1395 1.414 . S
C1394 C1397 1.499 . S
C1395 H1369 0.950 . S
C1395 C1394 1.414 . S
C1395 C1396 1.374 . S
C1396 H1370 0.950 . S
C1396 C1392 1.385 . S
C1396 C1395 1.374 . S
C1397 C1394 1.499 . S
C1397 C1398 1.373 1_655 S
C1397 C1399 1.389 . S
C1398 H1371 0.950 . S
C1398 C1384 1.377 . S
C1398 C1397 1.373 1_455 S
C1399 C1383 1.377 . S
C1399 C1397 1.389 . S
C1399 C1400 1.524 . S
C1400 C1399 1.524 . S
C1400 C1401 1.397 . S
C1400 C1405 1.363 . S
C1401 H1372 0.950 . S
C1401 C1400 1.397 . S
C1401 C1402 1.334 . S
C1402 H1373 0.950 . S
C1402 C1401 1.334 . S
C1402 C1403 1.287 . S
C1403 C1402 1.287 . S
C1403 C1404 1.524 . S
C1403 H1406 0.999 . S
C1404 H1374 0.950 . S
C1404 C1403 1.524 . S
C1404 C1405 1.415 . S
C1405 H1375 0.950 . S
C1405 C1400 1.363 . S
C1405 C1404 1.415 . S
H1406 C1403 0.999 . S
H1407 C1388 0.913 . S
H1408 C1426 0.951 . S
H1409 C1428 0.951 . S
H1410 C1430 0.950 . S
H1411 C1431 0.950 . S
H1412 C1433 0.950 . S
H1413 C1436 0.950 . S
H1414 C1437 0.950 . S
H1415 C1439 0.950 . S
H1416 C1440 0.950 . S
H1417 C1441 0.951 . S
H1418 C1443 0.951 . S
H1419 C1445 0.950 . S
H1420 C1446 0.950 . S
H1421 C1448 0.950 . S
H1422 C1451 0.950 . S
H1423 C1452 0.950 . S
H1424 C1454 0.950 . S
H1425 C1455 0.950 . S
C1426 H1408 0.951 . S
C1426 C1427 1.366 . S
C1426 C1428 1.388 . S
C1427 C1426 1.366 . S
C1427 C1431 1.385 . S
C1428 H1409 0.951 . S
C1428 C1426 1.388 . S
C1428 C1429 1.366 . S
C1429 C1428 1.366 . S
C1429 C1430 1.414 . S
C1429 C1432 1.499 . S
C1430 H1410 0.950 . S
C1430 C1429 1.414 . S
C1430 C1431 1.374 . S
C1431 H1411 0.950 . S
C1431 C1427 1.385 . S
C1431 C1430 1.374 . S
C1432 C1429 1.499 . S
C1432 C1433 1.373 1_565 S
C1432 C1434 1.389 . S
C1433 H1412 0.950 . S
C1433 C1432 1.373 1_545 S
C1433 C1449 1.377 . S
C1434 C1432 1.389 . S
C1434 C1435 1.524 . S
C1434 C1448 1.377 . S
C1435 C1434 1.524 . S
C1435 C1436 1.397 . S
C1435 C1440 1.363 . S
C1436 H1413 0.950 . S
C1436 C1435 1.397 . S
C1436 C1437 1.334 . S
C1437 H1414 0.950 . S
C1437 C1436 1.334 . S
C1437 C1438 1.287 . S
C1438 C1437 1.287 . S
C1438 C1439 1.524 . S
C1438 H1457 0.913 . S
C1439 H1415 0.950 . S
C1439 C1438 1.524 . S
C1439 C1440 1.415 . S
C1440 H1416 0.950 . S
C1440 C1435 1.363 . S
C1440 C1439 1.415 . S
C1441 H1417 0.951 . S
C1441 C1442 1.366 . S
C1441 C1443 1.388 . S
C1442 C1441 1.366 . S
C1442 C1446 1.385 . S
C1443 H1418 0.951 . S
C1443 C1441 1.388 . S
C1443 C1444 1.366 . S
C1444 C1443 1.366 . S
C1444 C1445 1.414 . S
C1444 C1447 1.499 . S
C1445 H1419 0.950 . S
C1445 C1444 1.414 . S
C1445 C1446 1.374 . S
C1446 H1420 0.950 . S
C1446 C1442 1.385 . S
C1446 C1445 1.374 . S
C1447 C1444 1.499 . S
C1447 C1448 1.373 1_545 S
C1447 C1449 1.389 . S
C1448 H1421 0.950 . S
C1448 C1434 1.377 . S
C1448 C1447 1.373 1_565 S
C1449 C1433 1.377 . S
C1449 C1447 1.389 . S
C1449 C1450 1.524 . S
C1450 C1449 1.524 . S
C1450 C1451 1.397 . S
C1450 C1455 1.363 . S
C1451 H1422 0.950 . S
C1451 C1450 1.397 . S
C1451 C1452 1.334 . S
C1452 H1423 0.950 . S
C1452 C1451 1.334 . S
C1452 C1453 1.287 . S
C1453 C1452 1.287 . S
C1453 C1454 1.524 . S
C1453 H1456 0.999 . S
C1454 H1424 0.950 . S
C1454 C1453 1.524 . S
C1454 C1455 1.415 . S
C1455 H1425 0.950 . S
C1455 C1450 1.363 . S
C1455 C1454 1.415 . S
H1456 C1453 0.999 . S
H1457 C1438 0.913 . S
H1458 C1476 0.951 . S
H1459 C1478 0.951 . S
H1460 C1480 0.950 . S
H1461 C1481 0.950 . S
H1462 C1483 0.950 . S
H1463 C1486 0.950 . S
H1464 C1487 0.950 . S
H1465 C1489 0.950 . S
H1466 C1490 0.950 . S
H1467 C1491 0.951 . S
H1468 C1493 0.951 . S
H1469 C1495 0.950 . S
H1470 C1496 0.950 . S
H1471 C1498 0.950 . S
H1472 C1501 0.950 . S
H1473 C1502 0.950 . S
H1474 C1504 0.950 . S
H1475 C1505 0.950 . S
C1476 H1458 0.951 . S
C1476 C1477 1.366 . S
C1476 C1478 1.388 . S
C1477 C1476 1.366 . S
C1477 C1481 1.385 . S
C1478 H1459 0.951 . S
C1478 C1476 1.388 . S
C1478 C1479 1.366 . S
C1479 C1478 1.366 . S
C1479 C1480 1.414 . S
C1479 C1482 1.499 . S
C1480 H1460 0.950 . S
C1480 C1479 1.414 . S
C1480 C1481 1.374 . S
C1481 H1461 0.950 . S
C1481 C1477 1.385 . S
C1481 C1480 1.374 . S
C1482 C1479 1.499 . S
C1482 C1483 1.373 . S
C1482 C1484 1.389 . S
C1483 H1462 0.950 . S
C1483 C1482 1.373 . S
C1483 C1499 1.377 . S
C1484 C1482 1.389 . S
C1484 C1485 1.524 . S
C1484 C1498 1.377 . S
C1485 C1484 1.524 . S
C1485 C1486 1.397 . S
C1485 C1490 1.363 . S
C1486 H1463 0.950 . S
C1486 C1485 1.397 . S
C1486 C1487 1.334 . S
C1487 H1464 0.950 . S
C1487 C1486 1.334 . S
C1487 C1488 1.287 . S
C1488 C1487 1.287 . S
C1488 C1489 1.524 . S
C1488 H1507 0.913 . S
C1489 H1465 0.950 . S
C1489 C1488 1.524 . S
C1489 C1490 1.415 . S
C1490 H1466 0.950 . S
C1490 C1485 1.363 . S
C1490 C1489 1.415 . S
C1491 H1467 0.951 . S
C1491 C1492 1.366 . S
C1491 C1493 1.388 . S
C1492 C1491 1.366 . S
C1492 C1496 1.385 . S
C1493 H1468 0.951 . S
C1493 C1491 1.388 . S
C1493 C1494 1.366 . S
C1494 C1493 1.366 . S
C1494 C1495 1.414 . S
C1494 C1497 1.499 . S
C1495 H1469 0.950 . S
C1495 C1494 1.414 . S
C1495 C1496 1.374 . S
C1496 H1470 0.950 . S
C1496 C1492 1.385 . S
C1496 C1495 1.374 . S
C1497 C1494 1.499 . S
C1497 C1498 1.373 . S
C1497 C1499 1.389 . S
C1498 H1471 0.950 . S
C1498 C1484 1.377 . S
C1498 C1497 1.373 . S
C1499 C1483 1.377 . S
C1499 C1497 1.389 . S
C1499 C1500 1.524 . S
C1500 C1499 1.524 . S
C1500 C1501 1.397 . S
C1500 C1505 1.363 . S
C1501 H1472 0.950 . S
C1501 C1500 1.397 . S
C1501 C1502 1.334 . S
C1502 H1473 0.950 . S
C1502 C1501 1.334 . S
C1502 C1503 1.287 . S
C1503 C1502 1.287 . S
C1503 C1504 1.524 . S
C1503 H1506 0.999 . S
C1504 H1474 0.950 . S
C1504 C1503 1.524 . S
C1504 C1505 1.415 . S
C1505 H1475 0.950 . S
C1505 C1500 1.363 . S
C1505 C1504 1.415 . S
H1506 C1503 0.999 . S
H1507 C1488 0.913 . S
H1508 C1526 0.951 . S
H1509 C1528 0.951 . S
H1510 C1530 0.950 . S
H1511 C1531 0.950 . S
H1512 C1533 0.950 . S
H1513 C1536 0.950 . S
H1514 C1537 0.950 . S
H1515 C1539 0.950 . S
H1516 C1540 0.950 . S
H1517 C1541 0.951 . S
H1518 C1543 0.965 . S
H1519 C1545 0.950 . S
H1520 C1546 0.950 . S
H1521 C1548 0.950 . S
H1522 C1551 0.950 . S
H1523 C1552 0.950 . S
H1524 C1554 0.950 . S
H1525 C1555 0.950 . S
C1526 H1508 0.951 . S
C1526 C1527 1.366 . S
C1526 C1528 1.388 . S
C1527 C1526 1.366 . S
C1527 C1531 1.385 . S
C1528 H1509 0.951 . S
C1528 C1526 1.388 . S
C1528 C1529 1.366 . S
C1529 C1528 1.366 . S
C1529 C1530 1.414 . S
C1529 C1532 1.499 . S
C1530 H1510 0.950 . S
C1530 C1529 1.414 . S
C1530 C1531 1.374 . S
C1531 H1511 0.950 . S
C1531 C1527 1.385 . S
C1531 C1530 1.374 . S
C1532 C1529 1.499 . S
C1532 C1533 1.373 . S
C1532 C1534 1.389 . S
C1533 H1512 0.950 . S
C1533 C1532 1.373 . S
C1533 C1549 1.377 . S
C1534 C1532 1.389 . S
C1534 C1535 1.524 1_655 S
C1534 C1548 1.377 1_655 S
C1535 C1534 1.524 1_455 S
C1535 C1536 1.397 1_455 S
C1535 C1540 1.363 . S
C1536 H1513 0.950 . S
C1536 C1535 1.397 1_655 S
C1536 C1537 1.334 . S
C1537 H1514 0.950 . S
C1537 C1536 1.334 . S
C1537 C1538 1.287 1_655 S
C1538 C1537 1.287 1_455 S
C1538 C1539 1.524 . S
C1538 H1557 0.913 . S
C1539 H1515 0.950 . S
C1539 C1538 1.524 . S
C1539 C1540 1.415 . S
C1540 H1516 0.950 . S
C1540 C1535 1.363 . S
C1540 C1539 1.415 . S
C1541 H1517 0.951 . S
C1541 C1542 1.366 . S
C1541 C1543 1.388 . S
C1542 C1541 1.366 . S
C1542 C1546 1.385 . S
C1543 H1518 0.965 . S
C1543 C1541 1.388 . S
C1543 C1544 1.366 . S
C1544 C1543 1.366 . S
C1544 C1545 1.414 . S
C1544 C1547 1.499 . S
C1545 H1519 0.950 . S
C1545 C1544 1.414 . S
C1545 C1546 1.374 . S
C1546 H1520 0.950 . S
C1546 C1542 1.385 . S
C1546 C1545 1.374 . S
C1547 C1544 1.499 . S
C1547 C1548 1.373 . S
C1547 C1549 1.389 1_455 S
C1548 H1521 0.950 . S
C1548 C1534 1.377 1_455 S
C1548 C1547 1.373 . S
C1549 C1533 1.377 . S
C1549 C1547 1.389 1_655 S
C1549 C1550 1.524 . S
C1550 C1549 1.524 . S
C1550 C1551 1.397 1_655 S
C1550 C1555 1.363 . S
C1551 H1522 0.950 . S
C1551 C1550 1.397 1_455 S
C1551 C1552 1.334 . S
C1552 H1523 0.950 . S
C1552 C1551 1.334 . S
C1552 C1553 1.287 1_455 S
C1553 C1552 1.287 1_655 S
C1553 C1554 1.524 . S
C1553 H1556 0.999 . S
C1554 H1524 0.950 . S
C1554 C1553 1.524 . S
C1554 C1555 1.415 . S
C1555 H1525 0.950 . S
C1555 C1550 1.363 . S
C1555 C1554 1.415 . S
H1556 C1553 0.999 . S
H1557 C1538 0.913 . S
H1558 C1576 0.951 . S
H1559 C1578 0.951 . S
H1560 C1580 0.950 . S
H1561 C1581 0.950 . S
H1562 C1583 0.950 . S
H1563 C1586 0.950 . S
H1564 C1587 0.950 . S
H1565 C1589 0.950 . S
H1566 C1590 0.950 . S
H1567 C1591 0.951 . S
H1568 C1593 0.951 . S
H1569 C1595 0.950 . S
H1570 C1596 0.950 . S
H1571 C1598 0.950 . S
H1572 C1601 0.950 . S
H1573 C1602 0.950 . S
H1574 C1604 0.950 . S
H1575 C1605 0.950 . S
C1576 H1558 0.951 . S
C1576 C1577 1.366 . S
C1576 C1578 1.388 . S
C1577 C1576 1.366 . S
C1577 C1581 1.385 . S
C1578 H1559 0.951 . S
C1578 C1576 1.388 . S
C1578 C1579 1.366 . S
C1579 C1578 1.366 . S
C1579 C1580 1.414 . S
C1579 C1582 1.499 . S
C1580 H1560 0.950 . S
C1580 C1579 1.414 . S
C1580 C1581 1.374 . S
C1581 H1561 0.950 . S
C1581 C1577 1.385 . S
C1581 C1580 1.374 . S
C1582 C1579 1.499 . S
C1582 C1583 1.373 . S
C1582 C1584 1.389 . S
C1583 H1562 0.950 . S
C1583 C1582 1.373 . S
C1583 C1599 1.377 1_565 S
C1584 C1582 1.389 . S
C1584 C1585 1.524 . S
C1584 C1598 1.377 . S
C1585 C1584 1.524 . S
C1585 C1586 1.397 . S
C1585 C1590 1.363 . S
C1586 H1563 0.950 . S
C1586 C1585 1.397 . S
C1586 C1587 1.334 . S
C1587 H1564 0.950 . S
C1587 C1586 1.334 . S
C1587 C1588 1.287 . S
C1588 C1587 1.287 . S
C1588 C1589 1.524 . S
C1588 H1607 0.913 . S
C1589 H1565 0.950 . S
C1589 C1588 1.524 . S
C1589 C1590 1.415 . S
C1590 H1566 0.950 . S
C1590 C1585 1.363 . S
C1590 C1589 1.415 . S
C1591 H1567 0.951 . S
C1591 C1592 1.366 . S
C1591 C1593 1.388 . S
C1592 C1591 1.366 . S
C1592 C1596 1.385 . S
C1593 H1568 0.951 . S
C1593 C1591 1.388 . S
C1593 C1594 1.366 . S
C1594 C1593 1.366 . S
C1594 C1595 1.414 . S
C1594 C1597 1.499 . S
C1595 H1569 0.950 . S
C1595 C1594 1.414 . S
C1595 C1596 1.374 . S
C1596 H1570 0.950 . S
C1596 C1592 1.385 . S
C1596 C1595 1.374 . S
C1597 C1594 1.499 . S
C1597 C1598 1.373 1_545 S
C1597 C1599 1.389 . S
C1598 H1571 0.950 . S
C1598 C1584 1.377 . S
C1598 C1597 1.373 1_565 S
C1599 C1583 1.377 1_545 S
C1599 C1597 1.389 . S
C1599 C1600 1.524 . S
C1600 C1599 1.524 . S
C1600 C1601 1.397 . S
C1600 C1605 1.363 . S
C1601 H1572 0.950 . S
C1601 C1600 1.397 . S
C1601 C1602 1.334 . S
C1602 H1573 0.950 . S
C1602 C1601 1.334 . S
C1602 C1603 1.287 . S
C1603 C1602 1.287 . S
C1603 C1604 1.524 . S
C1603 H1606 0.999 . S
C1604 H1574 0.950 . S
C1604 C1603 1.524 . S
C1604 C1605 1.415 . S
C1605 H1575 0.950 . S
C1605 C1600 1.363 . S
C1605 C1604 1.415 . S
H1606 C1603 0.999 . S
H1607 C1588 0.913 . S
H1608 C1626 0.951 . S
H1609 C1628 0.951 . S
H1610 C1630 0.950 . S
H1611 C1631 0.950 . S
H1612 C1633 0.950 . S
H1613 C1636 0.950 . S
H1614 C1637 0.950 . S
H1615 C1639 0.950 . S
H1616 C1640 0.950 . S
H1617 C1641 0.951 . S
H1618 C1643 0.951 . S
H1619 C1645 0.950 . S
H1620 C1646 0.950 . S
H1621 C1648 0.950 . S
H1622 C1651 0.950 . S
H1623 C1652 0.950 . S
H1624 C1654 0.950 . S
H1625 C1655 0.950 . S
C1626 H1608 0.951 . S
C1626 C1627 1.366 . S
C1626 C1628 1.388 . S
C1627 C1626 1.366 . S
C1627 C1631 1.385 . S
C1628 H1609 0.951 . S
C1628 C1626 1.388 . S
C1628 C1629 1.366 . S
C1629 C1628 1.366 . S
C1629 C1630 1.414 . S
C1629 C1632 1.499 . S
C1630 H1610 0.950 . S
C1630 C1629 1.414 . S
C1630 C1631 1.374 . S
C1631 H1611 0.950 . S
C1631 C1627 1.385 . S
C1631 C1630 1.374 . S
C1632 C1629 1.499 . S
C1632 C1633 1.373 . S
C1632 C1634 1.389 . S
C1633 H1612 0.950 . S
C1633 C1632 1.373 . S
C1633 C1649 1.377 . S
C1634 C1632 1.389 . S
C1634 C1635 1.524 . S
C1634 C1648 1.377 . S
C1635 C1634 1.524 . S
C1635 C1636 1.397 . S
C1635 C1640 1.363 . S
C1636 H1613 0.950 . S
C1636 C1635 1.397 . S
C1636 C1637 1.334 . S
C1637 H1614 0.950 . S
C1637 C1636 1.334 . S
C1637 C1638 1.287 . S
C1638 C1637 1.287 . S
C1638 C1639 1.524 . S
C1638 H1657 0.913 . S
C1639 H1615 0.950 . S
C1639 C1638 1.524 . S
C1639 C1640 1.415 . S
C1640 H1616 0.950 . S
C1640 C1635 1.363 . S
C1640 C1639 1.415 . S
C1641 H1617 0.951 . S
C1641 C1642 1.366 . S
C1641 C1643 1.388 . S
C1642 C1641 1.366 . S
C1642 C1646 1.385 . S
C1643 H1618 0.951 . S
C1643 C1641 1.388 . S
C1643 C1644 1.366 . S
C1644 C1643 1.366 . S
C1644 C1645 1.414 . S
C1644 C1647 1.499 . S
C1645 H1619 0.950 . S
C1645 C1644 1.414 . S
C1645 C1646 1.374 . S
C1646 H1620 0.950 . S
C1646 C1642 1.385 . S
C1646 C1645 1.374 . S
C1647 C1644 1.499 . S
C1647 C1648 1.373 . S
C1647 C1649 1.389 . S
C1648 H1621 0.950 . S
C1648 C1634 1.377 . S
C1648 C1647 1.373 . S
C1649 C1633 1.377 . S
C1649 C1647 1.389 . S
C1649 C1650 1.524 . S
C1650 C1649 1.524 . S
C1650 C1651 1.397 . S
C1650 C1655 1.363 . S
C1651 H1622 0.950 . S
C1651 C1650 1.397 . S
C1651 C1652 1.334 . S
C1652 H1623 0.950 . S
C1652 C1651 1.334 . S
C1652 C1653 1.287 . S
C1653 C1652 1.287 . S
C1653 C1654 1.524 . S
C1653 H1656 0.999 . S
C1654 H1624 0.950 . S
C1654 C1653 1.524 . S
C1654 C1655 1.415 . S
C1655 H1625 0.950 . S
C1655 C1650 1.363 . S
C1655 C1654 1.415 . S
H1656 C1653 0.999 . S
H1657 C1638 0.913 . S
H1658 C1676 0.951 . S
H1659 C1678 0.951 . S
H1660 C1680 0.950 . S
H1661 C1681 0.950 1_556 S
H1662 C1683 0.950 . S
H1663 C1686 0.950 . S
H1664 C1687 0.950 . S
H1665 C1689 0.950 . S
H1666 C1690 0.950 . S
H1667 C1691 0.951 . S
H1668 C1693 0.951 . S
H1669 C1695 0.950 . S
H1670 C1696 0.950 . S
H1671 C1698 0.950 . S
H1672 C1701 0.950 . S
H1673 C1702 0.950 . S
H1674 C1704 0.950 . S
H1675 C1705 0.950 . S
C1676 H1658 0.951 . S
C1676 C1677 1.366 . S
C1676 C1678 1.388 . S
C1677 C1676 1.366 . S
C1677 C1681 1.385 . S
C1678 H1659 0.951 . S
C1678 C1676 1.388 . S
C1678 C1679 1.366 . S
C1679 C1678 1.366 . S
C1679 C1680 1.414 . S
C1679 C1682 1.499 . S
C1680 H1660 0.950 . S
C1680 C1679 1.414 . S
C1680 C1681 1.374 . S
C1681 H1661 0.950 1_554 S
C1681 C1677 1.385 . S
C1681 C1680 1.374 . S
C1682 C1679 1.499 . S
C1682 C1683 1.373 1_655 S
C1682 C1684 1.389 . S
C1683 H1662 0.950 . S
C1683 C1682 1.373 1_455 S
C1683 C1699 1.377 . S
C1684 C1682 1.389 . S
C1684 C1685 1.524 . S
C1684 C1698 1.377 . S
C1685 C1684 1.524 . S
C1685 C1686 1.397 . S
C1685 C1690 1.363 . S
C1686 H1663 0.950 . S
C1686 C1685 1.397 . S
C1686 C1687 1.334 . S
C1687 H1664 0.950 . S
C1687 C1686 1.334 . S
C1687 C1688 1.287 . S
C1688 C1687 1.287 . S
C1688 C1689 1.524 . S
C1688 H1707 0.913 . S
C1689 H1665 0.950 . S
C1689 C1688 1.524 . S
C1689 C1690 1.415 . S
C1690 H1666 0.950 . S
C1690 C1685 1.363 . S
C1690 C1689 1.415 . S
C1691 H1667 0.951 . S
C1691 C1692 1.366 . S
C1691 C1693 1.388 . S
C1692 C1691 1.366 . S
C1692 C1696 1.385 . S
C1693 H1668 0.951 . S
C1693 C1691 1.388 . S
C1693 C1694 1.366 . S
C1694 C1693 1.366 . S
C1694 C1695 1.414 . S
C1694 C1697 1.499 . S
C1695 H1669 0.950 . S
C1695 C1694 1.414 . S
C1695 C1696 1.374 . S
C1696 H1670 0.950 . S
C1696 C1692 1.385 . S
C1696 C1695 1.374 . S
C1697 C1694 1.499 . S
C1697 C1698 1.373 1_455 S
C1697 C1699 1.389 . S
C1698 H1671 0.950 . S
C1698 C1684 1.377 . S
C1698 C1697 1.373 1_655 S
C1699 C1683 1.377 . S
C1699 C1697 1.389 . S
C1699 C1700 1.524 . S
C1700 C1699 1.524 . S
C1700 C1701 1.397 . S
C1700 C1705 1.363 . S
C1701 H1672 0.950 . S
C1701 C1700 1.397 . S
C1701 C1702 1.334 . S
C1702 H1673 0.950 . S
C1702 C1701 1.334 . S
C1702 C1703 1.287 . S
C1703 C1702 1.287 . S
C1703 C1704 1.524 . S
C1703 H1706 0.999 . S
C1704 H1674 0.950 . S
C1704 C1703 1.524 . S
C1704 C1705 1.415 . S
C1705 H1675 0.950 . S
C1705 C1700 1.363 . S
C1705 C1704 1.415 . S
H1706 C1703 0.999 . S
H1707 C1688 0.913 . S
H1708 C1726 0.951 . S
H1709 C1728 0.951 . S
H1710 C1730 0.950 . S
H1711 C1731 0.950 . S
H1712 C1733 0.950 . S
H1713 C1736 0.950 . S
H1714 C1737 0.950 . S
H1715 C1739 0.950 . S
H1716 C1740 0.950 . S
H1717 C1741 0.951 . S
H1718 C1743 0.951 . S
H1719 C1745 0.950 . S
H1720 C1746 0.950 . S
H1721 C1748 0.950 . S
H1722 C1751 0.950 1_565 S
H1723 C1752 0.955 . S
H1724 C1754 0.950 . S
H1725 C1755 0.950 . S
C1726 H1708 0.951 . S
C1726 C1727 1.366 . S
C1726 C1728 1.388 . S
C1727 C1726 1.366 . S
C1727 C1731 1.385 . S
C1728 H1709 0.951 . S
C1728 C1726 1.388 . S
C1728 C1729 1.366 . S
C1729 C1728 1.366 . S
C1729 C1730 1.414 . S
C1729 C1732 1.499 . S
C1730 H1710 0.950 . S
C1730 C1729 1.414 . S
C1730 C1731 1.374 . S
C1731 H1711 0.950 . S
C1731 C1727 1.385 . S
C1731 C1730 1.374 . S
C1732 C1729 1.499 . S
C1732 C1733 1.373 . S
C1732 C1734 1.389 1_565 S
C1733 H1712 0.950 . S
C1733 C1732 1.373 . S
C1733 C1749 1.377 1_565 S
C1734 C1732 1.389 1_545 S
C1734 C1735 1.524 1_545 S
C1734 C1748 1.377 . S
C1735 C1734 1.524 1_565 S
C1735 C1736 1.397 1_565 S
C1735 C1740 1.363 . S
C1736 H1713 0.950 . S
C1736 C1735 1.397 1_545 S
C1736 C1737 1.334 . S
C1737 H1714 0.950 . S
C1737 C1736 1.334 . S
C1737 C1738 1.286 1_545 S
C1738 C1737 1.286 1_565 S
C1738 C1739 1.523 . S
C1738 H1757 0.914 . S
C1739 H1715 0.950 . S
C1739 C1738 1.523 . S
C1739 C1740 1.415 . S
C1740 H1716 0.950 . S
C1740 C1735 1.363 . S
C1740 C1739 1.415 . S
C1741 H1717 0.951 . S
C1741 C1742 1.366 . S
C1741 C1743 1.388 . S
C1742 C1741 1.366 . S
C1742 C1746 1.385 . S
C1743 H1718 0.951 . S
C1743 C1741 1.388 . S
C1743 C1744 1.366 . S
C1744 C1743 1.366 . S
C1744 C1745 1.414 . S
C1744 C1747 1.499 . S
C1745 H1719 0.950 . S
C1745 C1744 1.414 . S
C1745 C1746 1.374 . S
C1746 H1720 0.950 . S
C1746 C1742 1.385 . S
C1746 C1745 1.374 . S
C1747 C1744 1.499 . S
C1747 C1748 1.373 . S
C1747 C1749 1.389 . S
C1748 H1721 0.950 . S
C1748 C1734 1.377 . S
C1748 C1747 1.373 . S
C1749 C1733 1.377 1_545 S
C1749 C1747 1.389 . S
C1749 C1750 1.524 . S
C1750 C1749 1.524 . S
C1750 C1751 1.397 . S
C1750 C1755 1.363 . S
C1751 H1722 0.950 1_545 S
C1751 C1750 1.397 . S
C1751 C1752 1.334 . S
C1752 H1723 0.955 . S
C1752 C1751 1.334 . S
C1752 C1753 1.287 . S
C1753 C1752 1.287 . S
C1753 C1754 1.524 . S
C1753 H1756 0.999 . S
C1754 H1724 0.950 . S
C1754 C1753 1.524 . S
C1754 C1755 1.415 . S
C1755 H1725 0.950 . S
C1755 C1750 1.363 . S
C1755 C1754 1.415 . S
H1756 C1753 0.999 . S
H1757 C1738 0.914 . S
H1758 C1776 0.951 . S
H1759 C1778 0.951 . S
H1760 C1780 0.950 . S
H1761 C1781 0.950 . S
H1762 C1783 0.950 . S
H1763 C1786 0.950 . S
H1764 C1787 0.950 . S
H1765 C1789 0.950 . S
H1766 C1790 0.950 . S
H1767 C1791 0.951 . S
H1768 C1793 0.951 . S
H1769 C1795 0.950 . S
H1770 C1796 0.950 . S
H1771 C1798 0.950 . S
H1772 C1801 0.950 . S
H1773 C1802 0.950 . S
H1774 C1804 0.950 . S
H1775 C1805 0.950 . S
C1776 H1758 0.951 . S
C1776 C1777 1.366 . S
C1776 C1778 1.388 . S
C1777 C1776 1.366 . S
C1777 C1781 1.385 . S
C1778 H1759 0.951 . S
C1778 C1776 1.388 . S
C1778 C1779 1.366 . S
C1779 C1778 1.366 . S
C1779 C1780 1.414 . S
C1779 C1782 1.499 . S
C1780 H1760 0.950 . S
C1780 C1779 1.414 . S
C1780 C1781 1.374 . S
C1781 H1761 0.950 . S
C1781 C1777 1.385 . S
C1781 C1780 1.374 . S
C1782 C1779 1.499 . S
C1782 C1783 1.373 . S
C1782 C1784 1.389 . S
C1783 H1762 0.950 . S
C1783 C1782 1.373 . S
C1783 C1799 1.377 . S
C1784 C1782 1.389 . S
C1784 C1785 1.524 . S
C1784 C1798 1.377 . S
C1785 C1784 1.524 . S
C1785 C1786 1.397 . S
C1785 C1790 1.363 . S
C1786 H1763 0.950 . S
C1786 C1785 1.397 . S
C1786 C1787 1.334 . S
C1787 H1764 0.950 . S
C1787 C1786 1.334 . S
C1787 C1788 1.287 . S
C1788 C1787 1.287 . S
C1788 C1789 1.524 . S
C1788 H1807 0.913 . S
C1789 H1765 0.950 . S
C1789 C1788 1.524 . S
C1789 C1790 1.415 . S
C1790 H1766 0.950 . S
C1790 C1785 1.363 . S
C1790 C1789 1.415 . S
C1791 H1767 0.951 . S
C1791 C1792 1.366 . S
C1791 C1793 1.388 . S
C1792 C1791 1.366 . S
C1792 C1796 1.385 . S
C1793 H1768 0.951 . S
C1793 C1791 1.388 . S
C1793 C1794 1.366 . S
C1794 C1793 1.366 . S
C1794 C1795 1.414 . S
C1794 C1797 1.499 . S
C1795 H1769 0.950 . S
C1795 C1794 1.414 . S
C1795 C1796 1.374 . S
C1796 H1770 0.950 . S
C1796 C1792 1.385 . S
C1796 C1795 1.374 . S
C1797 C1794 1.499 . S
C1797 C1798 1.373 . S
C1797 C1799 1.389 . S
C1798 H1771 0.950 . S
C1798 C1784 1.377 . S
C1798 C1797 1.373 . S
C1799 C1783 1.377 . S
C1799 C1797 1.389 . S
C1799 C1800 1.524 . S
C1800 C1799 1.524 . S
C1800 C1801 1.397 . S
C1800 C1805 1.363 . S
C1801 H1772 0.950 . S
C1801 C1800 1.397 . S
C1801 C1802 1.334 . S
C1802 H1773 0.950 . S
C1802 C1801 1.334 . S
C1802 C1803 1.287 . S
C1803 C1802 1.287 . S
C1803 C1804 1.524 . S
C1803 H1806 0.999 . S
C1804 H1774 0.950 . S
C1804 C1803 1.524 . S
C1804 C1805 1.415 . S
C1805 H1775 0.950 . S
C1805 C1800 1.363 . S
C1805 C1804 1.415 . S
H1806 C1803 0.999 . S
H1807 C1788 0.913 . S
H1808 C1826 0.951 . S
H1809 C1828 0.951 . S
H1810 C1830 0.950 . S
H1811 C1831 0.950 . S
H1812 C1833 0.950 . S
H1813 C1836 0.950 . S
H1814 C1837 0.950 . S
H1815 C1839 0.950 . S
H1816 C1840 0.950 . S
H1817 C1841 0.951 . S
H1818 C1843 0.951 . S
H1819 C1845 0.950 . S
H1820 C1846 0.950 . S
H1821 C1848 0.958 . S
H1822 C1851 0.950 1_655 S
H1823 C1852 0.950 . S
H1824 C1854 0.950 . S
H1825 C1855 0.950 . S
C1826 H1808 0.951 . S
C1826 C1827 1.366 . S
C1826 C1828 1.388 . S
C1827 C1826 1.366 . S
C1827 C1831 1.385 . S
C1828 H1809 0.951 . S
C1828 C1826 1.388 . S
C1828 C1829 1.366 . S
C1829 C1828 1.366 . S
C1829 C1830 1.414 . S
C1829 C1832 1.499 . S
C1830 H1810 0.950 . S
C1830 C1829 1.414 . S
C1830 C1831 1.374 . S
C1831 H1811 0.950 . S
C1831 C1827 1.385 . S
C1831 C1830 1.374 . S
C1832 C1829 1.499 . S
C1832 C1833 1.373 . S
C1832 C1834 1.389 . S
C1833 H1812 0.950 . S
C1833 C1832 1.373 . S
C1833 C1849 1.377 1_655 S
C1834 C1832 1.389 . S
C1834 C1835 1.524 . S
C1834 C1848 1.370 1_655 S
C1835 C1834 1.524 . S
C1835 C1836 1.397 . S
C1835 C1840 1.363 . S
C1836 H1813 0.950 . S
C1836 C1835 1.397 . S
C1836 C1837 1.334 . S
C1837 H1814 0.950 . S
C1837 C1836 1.334 . S
C1837 C1838 1.287 . S
C1838 C1837 1.287 . S
C1838 C1839 1.524 . S
C1838 H1857 0.913 . S
C1839 H1815 0.950 . S
C1839 C1838 1.524 . S
C1839 C1840 1.415 . S
C1840 H1816 0.950 . S
C1840 C1835 1.363 . S
C1840 C1839 1.415 . S
C1841 H1817 0.951 . S
C1841 C1842 1.366 . S
C1841 C1843 1.388 . S
C1842 C1841 1.366 . S
C1842 C1846 1.385 . S
C1843 H1818 0.951 . S
C1843 C1841 1.388 . S
C1843 C1844 1.366 . S
C1844 C1843 1.366 . S
C1844 C1845 1.414 . S
C1844 C1847 1.499 . S
C1845 H1819 0.950 . S
C1845 C1844 1.414 . S
C1845 C1846 1.374 . S
C1846 H1820 0.950 . S
C1846 C1842 1.385 . S
C1846 C1845 1.374 . S
C1847 C1844 1.499 . S
C1847 C1848 1.372 . S
C1847 C1849 1.389 . S
C1848 H1821 0.958 . S
C1848 C1834 1.370 1_455 S
C1848 C1847 1.372 . S
C1849 C1833 1.377 1_455 S
C1849 C1847 1.389 . S
C1849 C1850 1.524 . S
C1850 C1849 1.524 . S
C1850 C1851 1.397 . S
C1850 C1855 1.363 . S
C1851 H1822 0.950 1_455 S
C1851 C1850 1.397 . S
C1851 C1852 1.334 . S
C1852 H1823 0.950 . S
C1852 C1851 1.334 . S
C1852 C1853 1.287 . S
C1853 C1852 1.287 . S
C1853 C1854 1.524 . S
C1853 H1856 0.999 . S
C1854 H1824 0.950 . S
C1854 C1853 1.524 . S
C1854 C1855 1.415 . S
C1855 H1825 0.950 . S
C1855 C1850 1.363 . S
C1855 C1854 1.415 . S
H1856 C1853 0.999 . S
H1857 C1838 0.913 . S
H1858 C1876 0.951 . S
H1859 C1878 0.951 . S
H1860 C1880 0.950 . S
H1861 C1881 0.950 . S
H1862 C1883 0.950 . S
H1863 C1886 0.950 . S
H1864 C1887 0.950 . S
H1865 C1889 0.950 . S
H1866 C1890 0.950 1_545 S
H1867 C1891 0.951 . S
H1868 C1893 0.951 . S
H1869 C1895 0.950 . S
H1870 C1896 0.950 . S
H1871 C1898 0.950 . S
H1872 C1901 0.950 . S
H1873 C1902 0.950 . S
H1874 C1904 0.950 . S
H1875 C1905 0.950 . S
C1876 H1858 0.951 . S
C1876 C1877 1.366 . S
C1876 C1878 1.388 . S
C1877 C1876 1.366 . S
C1877 C1881 1.385 . S
C1878 H1859 0.951 . S
C1878 C1876 1.388 . S
C1878 C1879 1.366 . S
C1879 C1878 1.366 . S
C1879 C1880 1.414 . S
C1879 C1882 1.499 . S
C1880 H1860 0.950 . S
C1880 C1879 1.414 . S
C1880 C1881 1.374 . S
C1881 H1861 0.950 . S
C1881 C1877 1.385 . S
C1881 C1880 1.374 . S
C1882 C1879 1.499 . S
C1882 C1883 1.373 . S
C1882 C1884 1.389 1_545 S
C1883 H1862 0.950 . S
C1883 C1882 1.373 . S
C1883 C1899 1.377 1_545 S
C1884 C1882 1.389 1_565 S
C1884 C1885 1.524 . S
C1884 C1898 1.377 . S
C1885 C1884 1.524 . S
C1885 C1886 1.397 . S
C1885 C1890 1.363 . S
C1886 H1863 0.950 . S
C1886 C1885 1.397 . S
C1886 C1887 1.334 . S
C1887 H1864 0.950 . S
C1887 C1886 1.334 . S
C1887 C1888 1.287 . S
C1888 C1887 1.287 . S
C1888 C1889 1.524 . S
C1888 H1907 0.913 . S
C1889 H1865 0.950 . S
C1889 C1888 1.524 . S
C1889 C1890 1.415 . S
C1890 H1866 0.950 1_565 S
C1890 C1885 1.363 . S
C1890 C1889 1.415 . S
C1891 H1867 0.951 . S
C1891 C1892 1.366 . S
C1891 C1893 1.388 . S
C1892 C1891 1.366 . S
C1892 C1896 1.385 . S
C1893 H1868 0.951 . S
C1893 C1891 1.388 . S
C1893 C1894 1.366 . S
C1894 C1893 1.366 . S
C1894 C1895 1.414 . S
C1894 C1897 1.499 . S
C1895 H1869 0.950 . S
C1895 C1894 1.414 . S
C1895 C1896 1.374 . S
C1896 H1870 0.950 . S
C1896 C1892 1.385 . S
C1896 C1895 1.374 . S
C1897 C1894 1.499 . S
C1897 C1898 1.373 . S
C1897 C1899 1.389 . S
C1898 H1871 0.950 . S
C1898 C1884 1.377 . S
C1898 C1897 1.373 . S
C1899 C1883 1.377 1_565 S
C1899 C1897 1.389 . S
C1899 C1900 1.524 . S
C1900 C1899 1.524 . S
C1900 C1901 1.397 1_565 S
C1900 C1905 1.363 . S
C1901 H1872 0.950 . S
C1901 C1900 1.397 1_545 S
C1901 C1902 1.334 . S
C1902 H1873 0.950 . S
C1902 C1901 1.334 . S
C1902 C1903 1.287 . S
C1903 C1902 1.287 . S
C1903 C1904 1.524 1_545 S
C1903 H1906 0.999 . S
C1904 H1874 0.950 . S
C1904 C1903 1.524 1_565 S
C1904 C1905 1.415 . S
C1905 H1875 0.950 . S
C1905 C1900 1.363 . S
C1905 C1904 1.415 . S
H1906 C1903 0.999 . S
H1907 C1888 0.913 . S
C427 C5 0.581 . S
C442 C277 0.583 . S
C477 C311 0.580 . S
C492 C39 0.582 . S
C527 C345 0.582 . S
C542 C73 0.580 . S
C577 C107 0.581 . S
C592 C379 0.581 . S
C627 C141 0.581 . S
C642 C209 0.583 . S
C677 C175 0.580 . S
C692 C243 0.582 . S
C727 C247 1.519 . S
C742 C33 1.516 . S
C777 C67 1.517 . S
C792 C281 1.487 . S
C827 C315 1.487 . S
C842 C101 1.517 . S
C877 C349 1.487 . S
C892 C135 1.517 . S
C927 C383 1.488 . S
C942 C169 1.516 . S
C977 C213 1.487 . S
C992 C203 1.517 . S
C1027 C179 1.488 . S
C1042 C237 1.516 . S
C1077 C271 1.516 . S
C1092 C9 1.462 1_556 S
C1127 C305 1.517 . S
C1142 C43 1.487 . S
C1177 C77 1.487 . S
C1192 C339 1.517 . S
C1227 C111 1.488 . S
C1242 C373 1.516 . S
C1277 C145 1.487 . S
C1292 C407 1.517 . S
C1327 C190 1.153 . S
C1342 C2 1.144 1_556 S
C1377 C20 1.153 . S
C1392 C36 1.143 . S
C1427 C70 1.143 . S
C1442 C54 1.153 . S
C1477 C88 1.154 . S
C1492 C104 1.144 . S
C1527 C122 1.153 . S
C1542 C138 1.143 . S
C1577 C156 1.153 . S
C1592 C172 1.143 . S
C1627 C206 1.143 . S
C1642 C258 1.153 . S
C1677 C240 1.143 1_554 S
C1692 C292 1.153 . S
C1727 C274 1.143 . S
C1742 C326 1.153 . S
C1777 C360 1.153 . S
C1792 C308 1.143 . S
C1827 C394 1.154 . S
C1842 C342 1.144 . S
C1877 C376 1.144 . S
C1892 C224 1.153 . S
