# Generated by pormake.
# Topology smd, (6)-cn, num edge types: 1
# Building blocks:
#     Node 0, Type 0, BuildingBlock: BETFEN_clean_sbu_0, # of connection points: 6
#     Node 1, Type 0, BuildingBlock: BETFEN_clean_sbu_0, # of connection points: 6
#     Node 2, Type 0, BuildingBlock: BETFEN_clean_sbu_0, # of connection points: 6
#     Node 3, Type 0, BuildingBlock: BETFEN_clean_sbu_0, # of connection points: 6
#     Node 4, Type 0, BuildingBlock: BETFEN_clean_sbu_0, # of connection points: 6
#     Node 5, Type 0, BuildingBlock: BETFEN_clean_sbu_0, # of connection points: 6
#     Node 6, Type 0, BuildingBlock: BETFEN_clean_sbu_0, # of connection points: 6
#     Node 7, Type 0, BuildingBlock: BETFEN_clean_sbu_0, # of connection points: 6
#     Node 8, Type 0, BuildingBlock: BETFEN_clean_sbu_0, # of connection points: 6
#     Node 9, Type 0, BuildingBlock: BETFEN_clean_sbu_0, # of connection points: 6
#     Node 10, Type 0, BuildingBlock: BETFEN_clean_sbu_0, # of connection points: 6
#     Node 11, Type 0, BuildingBlock: BETFEN_clean_sbu_0, # of connection points: 6
#     Node 12, Type 0, BuildingBlock: BETFEN_clean_sbu_0, # of connection points: 6
#     Node 13, Type 0, BuildingBlock: BETFEN_clean_sbu_0, # of connection points: 6
#     Node 14, Type 0, BuildingBlock: BETFEN_clean_sbu_0, # of connection points: 6
#     Node 15, Type 0, BuildingBlock: BETFEN_clean_sbu_0, # of connection points: 6
#     Node 16, Type 0, BuildingBlock: BETFEN_clean_sbu_0, # of connection points: 6
#     Node 17, Type 0, BuildingBlock: BETFEN_clean_sbu_0, # of connection points: 6
#     Edge 18, Type (0, 0), BuildingBlock: OJICUG_clean_linker_0, # of connection points: 2
#     Edge 19, Type (0, 0), BuildingBlock: OJICUG_clean_linker_0, # of connection points: 2
#     Edge 20, Type (0, 0), BuildingBlock: OJICUG_clean_linker_0, # of connection points: 2
#     Edge 21, Type (0, 0), BuildingBlock: OJICUG_clean_linker_0, # of connection points: 2
#     Edge 22, Type (0, 0), BuildingBlock: OJICUG_clean_linker_0, # of connection points: 2
#     Edge 23, Type (0, 0), BuildingBlock: OJICUG_clean_linker_0, # of connection points: 2
#     Edge 24, Type (0, 0), BuildingBlock: OJICUG_clean_linker_0, # of connection points: 2
#     Edge 25, Type (0, 0), BuildingBlock: OJICUG_clean_linker_0, # of connection points: 2
#     Edge 26, Type (0, 0), BuildingBlock: OJICUG_clean_linker_0, # of connection points: 2
#     Edge 27, Type (0, 0), BuildingBlock: OJICUG_clean_linker_0, # of connection points: 2
#     Edge 28, Type (0, 0), BuildingBlock: OJICUG_clean_linker_0, # of connection points: 2
#     Edge 29, Type (0, 0), BuildingBlock: OJICUG_clean_linker_0, # of connection points: 2
#     Edge 30, Type (0, 0), BuildingBlock: OJICUG_clean_linker_0, # of connection points: 2
#     Edge 31, Type (0, 0), BuildingBlock: OJICUG_clean_linker_0, # of connection points: 2
#     Edge 32, Type (0, 0), BuildingBlock: OJICUG_clean_linker_0, # of connection points: 2
#     Edge 33, Type (0, 0), BuildingBlock: OJICUG_clean_linker_0, # of connection points: 2
#     Edge 34, Type (0, 0), BuildingBlock: OJICUG_clean_linker_0, # of connection points: 2
#     Edge 35, Type (0, 0), BuildingBlock: OJICUG_clean_linker_0, # of connection points: 2
#     Edge 36, Type (0, 0), BuildingBlock: OJICUG_clean_linker_0, # of connection points: 2
#     Edge 37, Type (0, 0), BuildingBlock: OJICUG_clean_linker_0, # of connection points: 2
#     Edge 38, Type (0, 0), BuildingBlock: OJICUG_clean_linker_0, # of connection points: 2
#     Edge 39, Type (0, 0), BuildingBlock: OJICUG_clean_linker_0, # of connection points: 2
#     Edge 40, Type (0, 0), BuildingBlock: OJICUG_clean_linker_0, # of connection points: 2
#     Edge 41, Type (0, 0), BuildingBlock: OJICUG_clean_linker_0, # of connection points: 2
#     Edge 42, Type (0, 0), BuildingBlock: OJICUG_clean_linker_0, # of connection points: 2
#     Edge 43, Type (0, 0), BuildingBlock: OJICUG_clean_linker_0, # of connection points: 2
#     Edge 44, Type (0, 0), BuildingBlock: OJICUG_clean_linker_0, # of connection points: 2
#     Edge 45, Type (0, 0), BuildingBlock: OJICUG_clean_linker_0, # of connection points: 2
#     Edge 46, Type (0, 0), BuildingBlock: OJICUG_clean_linker_0, # of connection points: 2
#     Edge 47, Type (0, 0), BuildingBlock: OJICUG_clean_linker_0, # of connection points: 2
#     Edge 48, Type (0, 0), BuildingBlock: OJICUG_clean_linker_0, # of connection points: 2
#     Edge 49, Type (0, 0), BuildingBlock: OJICUG_clean_linker_0, # of connection points: 2
#     Edge 50, Type (0, 0), BuildingBlock: OJICUG_clean_linker_0, # of connection points: 2
#     Edge 51, Type (0, 0), BuildingBlock: OJICUG_clean_linker_0, # of connection points: 2
#     Edge 52, Type (0, 0), BuildingBlock: OJICUG_clean_linker_0, # of connection points: 2
#     Edge 53, Type (0, 0), BuildingBlock: OJICUG_clean_linker_0, # of connection points: 2
#     Edge 54, Type (0, 0), BuildingBlock: OJICUG_clean_linker_0, # of connection points: 2
#     Edge 55, Type (0, 0), BuildingBlock: OJICUG_clean_linker_0, # of connection points: 2
#     Edge 56, Type (0, 0), BuildingBlock: OJICUG_clean_linker_0, # of connection points: 2
#     Edge 57, Type (0, 0), BuildingBlock: OJICUG_clean_linker_0, # of connection points: 2
#     Edge 58, Type (0, 0), BuildingBlock: OJICUG_clean_linker_0, # of connection points: 2
#     Edge 59, Type (0, 0), BuildingBlock: OJICUG_clean_linker_0, # of connection points: 2
#     Edge 60, Type (0, 0), BuildingBlock: OJICUG_clean_linker_0, # of connection points: 2
#     Edge 61, Type (0, 0), BuildingBlock: OJICUG_clean_linker_0, # of connection points: 2
#     Edge 62, Type (0, 0), BuildingBlock: OJICUG_clean_linker_0, # of connection points: 2
#     Edge 63, Type (0, 0), BuildingBlock: OJICUG_clean_linker_0, # of connection points: 2
#     Edge 64, Type (0, 0), BuildingBlock: OJICUG_clean_linker_0, # of connection points: 2
#     Edge 65, Type (0, 0), BuildingBlock: OJICUG_clean_linker_0, # of connection points: 2
#     Edge 66, Type (0, 0), BuildingBlock: OJICUG_clean_linker_0, # of connection points: 2
#     Edge 67, Type (0, 0), BuildingBlock: OJICUG_clean_linker_0, # of connection points: 2
#     Edge 68, Type (0, 0), BuildingBlock: OJICUG_clean_linker_0, # of connection points: 2
#     Edge 69, Type (0, 0), BuildingBlock: OJICUG_clean_linker_0, # of connection points: 2
#     Edge 70, Type (0, 0), BuildingBlock: OJICUG_clean_linker_0, # of connection points: 2
#     Edge 71, Type (0, 0), BuildingBlock: OJICUG_clean_linker_0, # of connection points: 2
# Relax obj value: 0.309
# Max RMSD: 0.383
# Mean RMSD: 0.352
data_MOF--net-smd--node1-BETFEN_clean_sbu_0--edge1-OJICUG_clean_linker_0
_symmetry_space_group_name_H-M    P1
_symmetry_Int_Tables_number       1
_symmetry_cell_setting            triclinic
loop_
_symmetry_equiv_pos_as_xyz
'x, y, z'
_cell_length_a     45.388642
_cell_length_b     45.990175
_cell_length_c     20.80121
_cell_angle_alpha  93.381877
_cell_angle_beta   93.374102
_cell_angle_gamma 120.09934
loop_
_atom_site_label
_atom_site_type_symbol
_atom_site_fract_x
_atom_site_fract_y
_atom_site_fract_z
_atom_type_partial_charge
Pr0 Pr 0.08303 0.28431 0.58552 0.0
Pr1 Pr 1.03683 0.25226 0.46921 0.0
C2 C 0.11117 0.30733 0.70945 0.0
C3 C 0.09913 0.30282 0.77449 0.0
C4 C 0.12268 0.31202 0.82917 0.0
C5 C 0.11153 0.30648 0.891 0.0
C6 C 0.07648 0.29173 0.89959 0.0
C7 C 1.053 0.28305 0.84438 0.0
C8 C 0.06419 0.28831 0.78248 0.0
C9 C 0.1125 0.25998 0.49977 0.0
C10 C 1.01618 0.20404 0.57877 0.0
C11 C 1.00412 0.23342 0.34797 0.0
C12 C 1.01407 0.24127 0.28205 0.0
C13 C 0.9898 0.23792 0.23272 0.0
C14 C 0.99932 0.24674 0.17073 0.0
C15 C 1.03343 0.25941 0.15709 0.0
C16 C 0.05769 0.26285 0.20688 0.0
C17 C 1.04807 0.25373 0.26861 0.0
C18 C 1.0131 0.28036 0.565 0.0
C19 C 0.10399 0.3253 0.45616 0.0
O20 O 0.1017 0.32368 0.67217 0.0
O21 O 0.10955 0.28098 0.67835 0.0
O22 O 0.08104 0.2434 0.51003 0.0
O23 O 0.12854 0.2892 0.53358 0.0
O24 O 1.01743 0.20269 0.51605 0.0
O25 O 1.03459 0.23352 0.61476 0.0
O26 O 1.01499 0.21577 0.37773 0.0
O27 O 1.00652 0.25832 0.38585 0.0
O28 O 1.0424 0.29453 0.54554 0.0
O29 O 0.99434 0.25054 0.53385 0.0
O30 O 0.10591 0.33045 0.52017 0.0
O31 O 0.08366 0.29495 0.42703 0.0
H32 H 0.14973 0.32301 0.82396 0.0
H33 H 0.13039 0.31299 0.93185 0.0
H34 H 1.02591 0.27213 0.84883 0.0
H35 H 1.04552 0.28074 0.7408 0.0
H36 H 0.96351 0.22872 0.24228 0.0
H37 H 0.9801 0.24414 0.13373 0.0
H38 H 0.08407 0.2722 0.19788 0.0
H39 H 0.06724 0.25655 0.30598 0.0
Pr40 Pr 0.82633 0.79719 0.47847 0.0
Pr41 Pr 0.81137 0.8247 0.59282 0.0
C42 C 0.82448 0.76473 0.36414 0.0
C43 C 0.81708 0.76867 0.29637 0.0
C44 C 0.82355 0.75197 0.24547 0.0
C45 C 0.81862 0.7576 0.18124 0.0
C46 C 0.80717 0.7801 0.16695 0.0
C47 C 0.79973 0.79593 0.21832 0.0
C48 C 0.80478 0.79038 0.28233 0.0
C49 C 0.88583 0.83444 0.56329 0.0
C50 C 0.84379 0.87587 0.48664 0.0
C51 C 0.80199 0.84419 0.71119 0.0
C52 C 0.80167 0.83386 0.77696 0.0
C53 C 0.79157 0.84781 0.82663 0.0
C54 C 0.79109 0.83815 0.88929 0.0
C55 C 0.80068 0.81427 0.90348 0.0
C56 C 0.81035 0.80001 0.85309 0.0
C57 C 0.81088 0.80975 0.79045 0.0
C58 C 0.76217 0.80543 0.48468 0.0
C59 C 0.80298 0.74996 0.60266 0.0
O60 O 0.79879 0.75369 0.39925 0.0
O61 O 0.85255 0.78975 0.39475 0.0
O62 O 0.85648 0.81412 0.58041 0.0
O63 O 0.88343 0.83884 0.50256 0.0
O64 O 0.84775 0.87417 0.5491 0.0
O65 O 0.82912 0.84768 0.44666 0.0
O66 O 0.8316 0.8586 0.68742 0.0
O67 O 0.77686 0.82242 0.66901 0.0
O68 O 0.77509 0.78869 0.50524 0.0
O69 O 0.77432 0.83369 0.52117 0.0
O70 O 0.81764 0.75404 0.54787 0.0
O71 O 0.79525 0.77211 0.62599 0.0
H72 H 0.83308 0.73513 0.25544 0.0
H73 H 0.82484 0.74517 0.14304 0.0
H74 H 0.79027 0.81288 0.20913 0.0
H75 H 0.79959 0.80348 0.32104 0.0
H76 H 0.78409 0.86623 0.81697 0.0
H77 H 0.783 0.84926 0.92658 0.0
H78 H 0.81822 0.78184 0.86232 0.0
H79 H 0.81872 0.79864 0.75266 0.0
Pr80 Pr 0.28299 1.01498 0.56632 0.0
Pr81 Pr 0.28526 0.05533 0.46235 0.0
C82 C 0.28577 0.99096 0.68065 0.0
C83 C 0.2929 1.00353 0.74968 0.0
C84 C 0.28533 0.98076 0.79649 0.0
C85 C 0.28955 0.99191 0.8622 0.0
C86 C 0.30143 1.02609 0.8823 0.0
C87 C 0.30987 0.04901 0.83505 0.0
C88 C 0.30556 0.03779 0.7693 0.0
C89 C 0.22429 0.97851 0.47803 0.0
C90 C 0.2575 0.072 0.58481 0.0
C91 C 0.28566 0.08269 0.35071 0.0
C92 C 0.28968 0.0755 0.28286 0.0
C93 C 0.30221 0.10144 0.24204 0.0
C94 C 0.30645 0.0949 0.17767 0.0
C95 C 0.2983 0.06225 0.15305 0.0
C96 C 0.2861 1.03642 0.19457 0.0
C97 C 0.28185 0.04298 0.25879 0.0
C98 C 0.34066 0.08992 0.56061 0.0
C99 C 0.30651 0.99728 0.43041 0.0
O100 O 0.31155 1.00425 0.64572 0.0
O101 O 0.25763 0.98713 0.65136 0.0
O102 O 0.23738 1.00953 0.49871 0.0
O103 O 0.24331 0.9669 0.49965 0.0
O104 O 0.25063 0.06681 0.52181 0.0
O105 O 0.27505 0.05953 0.61355 0.0
O106 O 0.25764 0.0604 0.37332 0.0
O107 O 0.31279 0.09376 0.3918 0.0
O108 O 0.32913 0.06025 0.53435 0.0
O109 O 0.32415 0.10328 0.53457 0.0
O110 O 0.30826 0.99437 0.49325 0.0
O111 O 0.29506 1.01601 0.40706 0.0
H112 H 0.27539 0.95419 0.78211 0.0
H113 H 0.28238 0.97349 0.89705 0.0
H114 H 0.31952 0.07556 0.84884 0.0
H115 H 0.31151 0.05574 0.73372 0.0
H116 H 0.30873 0.12679 0.25994 0.0
H117 H 0.31633 0.11547 0.14733 0.0
H118 H 0.27914 1.0109 0.17711 0.0
H119 H 0.2722 1.02257 0.28948 0.0
Pr120 Pr 0.07288 0.82629 0.62205 0.0
Pr121 Pr 1.02956 0.78748 0.50162 0.0
C122 C 0.10239 0.8517 0.74442 0.0
C123 C 0.0955 0.84065 0.80969 0.0
C124 C 0.11436 0.86334 0.86426 0.0
C125 C 0.1075 0.85333 0.92651 0.0
C126 C 0.08141 0.82043 0.93541 0.0
C127 C 0.06299 0.79759 0.88028 0.0
C128 C 0.07006 0.80758 0.81813 0.0
C129 C 0.10228 0.80046 0.53584 0.0
C130 C 1.01202 0.74746 0.63066 0.0
C131 C 1.00569 0.75948 0.37818 0.0
C132 C 1.01913 0.76631 0.31471 0.0
C133 C 1.00075 0.74368 0.25968 0.0
C134 C 1.01254 0.75119 0.19864 0.0
C135 C 1.0428 0.7816 0.19181 0.0
C136 C 0.06172 0.80357 0.24759 0.0
C137 C 1.05005 0.79593 0.30846 0.0
C138 C 0.99537 0.80948 0.58054 0.0
C139 C 0.09159 0.87009 0.5049 0.0
O140 O 0.08078 0.85876 0.71521 0.0
O141 O 0.11133 0.83468 0.70587 0.0
O142 O 0.07276 0.78476 0.55381 0.0
O143 O 0.1186 0.83125 0.56352 0.0
O144 O 1.01033 0.74222 0.56703 0.0
O145 O 1.02991 0.77803 0.66071 0.0
O146 O 1.02034 0.74872 0.41854 0.0
O147 O 0.99993 0.78215 0.40598 0.0
O148 O 1.02654 0.82774 0.56996 0.0
O149 O 0.98175 0.77942 0.55032 0.0
O150 O 0.08845 0.87292 0.56682 0.0
O151 O 0.07574 0.83968 0.47162 0.0
H152 H 0.13433 0.88887 0.85875 0.0
H153 H 0.12269 0.87144 0.96767 0.0
H154 H 1.04252 0.77219 0.88495 0.0
H155 H 1.05541 0.78951 0.77679 0.0
H156 H 0.97695 0.72053 0.26371 0.0
H157 H 0.99736 0.7338 0.15658 0.0
H158 H 0.08541 0.82689 0.24407 0.0
H159 H 0.06488 0.81347 0.35048 0.0
Pr160 Pr 0.29356 0.2406 0.48747 0.0
Pr161 Pr 0.2858 0.27632 0.59814 0.0
C162 C 0.30167 0.21757 0.37098 0.0
C163 C 0.29945 0.2253 0.30362 0.0
C164 C 0.31784 0.21918 0.25821 0.0
C165 C 0.31732 0.22809 0.19504 0.0
C166 C 0.29845 0.24342 0.17611 0.0
C167 C 0.27999 0.24942 0.22203 0.0
C168 C 0.28045 0.2404 0.28501 0.0
C169 C 0.34802 0.2671 0.58923 0.0
C170 C 0.30844 0.31638 0.46833 0.0
C171 C 0.28542 0.3022 0.71808 0.0
C172 C 0.29017 0.29597 0.78559 0.0
C173 C 0.27452 0.3045 0.83337 0.0
C174 C 0.27705 0.29706 0.897 0.0
C175 C 0.29534 0.28092 0.91421 0.0
C176 C 0.31165 0.27305 0.86632 0.0
C177 C 0.30894 0.28035 0.8025 0.0
C178 C 0.23057 0.25517 0.50459 0.0
C179 C 0.26278 0.19411 0.5977 0.0
O180 O 0.27305 0.20281 0.39797 0.0
O181 O 0.32697 0.24149 0.40987 0.0
O182 O 0.33442 0.28227 0.56429 0.0
O183 O 0.33346 0.23639 0.56147 0.0
O184 O 0.31254 0.32175 0.53249 0.0
O185 O 0.29497 0.28559 0.44025 0.0
O186 O 0.31235 0.31467 0.68604 0.0
O187 O 0.25782 0.27867 0.68333 0.0
O188 O 0.24289 0.2367 0.5203 0.0
O189 O 0.24739 0.28486 0.5366 0.0
O190 O 0.25928 0.19281 0.53464 0.0
O191 O 0.27782 0.22381 0.63326 0.0
H192 H 0.33277 0.20766 0.2717 0.0
H193 H 0.33148 0.22268 0.16089 0.0
H194 H 0.26562 0.26165 0.2097 0.0
H195 H 0.26625 0.24559 0.31945 0.0
H196 H 0.25995 0.31657 0.82126 0.0
H197 H 0.26461 0.30392 0.93279 0.0
H198 H 0.32568 0.26037 0.87771 0.0
H199 H 0.32101 0.2733 0.76619 0.0
Pr200 Pr 0.82089 1.0186 0.61727 0.0
Pr201 Pr 0.82716 0.05946 0.51335 0.0
C202 C 0.81605 0.98893 0.7276 0.0
C203 C 0.81233 0.99605 0.79553 0.0
C204 C 0.79986 0.97003 0.83614 0.0
C205 C 0.79622 0.9766 0.90084 0.0
C206 C 0.80493 1.00935 0.9259 0.0
C207 C 0.81698 1.03524 0.88453 0.0
C208 C 0.82065 1.02865 0.81998 0.0
C209 C 0.76693 0.98594 0.51517 0.0
C210 C 0.80258 0.07869 0.64649 0.0
C211 C 0.82737 0.0842 0.39869 0.0
C212 C 0.81918 0.07114 0.33 0.0
C213 C 0.82588 0.09347 0.28265 0.0
C214 C 0.82001 0.08165 0.21703 0.0
C215 C 0.80732 0.04723 0.1977 0.0
C216 C 0.79982 1.02478 0.24558 0.0
C217 C 0.80581 1.03667 0.31122 0.0
C218 C 0.88418 0.09514 0.60533 0.0
C219 C 0.85072 1.00069 0.50043 0.0
O220 O 0.84519 1.00969 0.70641 0.0
O221 O 0.78976 0.9808 0.68614 0.0
O222 O 0.77908 1.01548 0.54221 0.0
O223 O 0.78232 0.97164 0.54174 0.0
O224 O 0.80186 0.0814 0.5835 0.0
O225 O 0.8128 0.05935 0.67143 0.0
O226 O 0.80161 0.07324 0.4337 0.0
O227 O 0.85426 0.08541 0.42802 0.0
O228 O 0.87094 0.06402 0.58502 0.0
O229 O 0.86599 0.10713 0.58137 0.0
O230 O 0.8565 1.00634 0.56344 0.0
O231 O 0.83429 1.01363 0.46915 0.0
H232 H 0.79302 0.94464 0.81786 0.0
H233 H 0.78648 0.95602 0.93118 0.0
H234 H 0.82435 0.06082 0.9024 0.0
H235 H 0.8303 0.04909 0.78938 0.0
H236 H 0.83629 0.12017 0.29644 0.0
H237 H 0.82648 0.0997 0.18156 0.0
H238 H 0.7896 0.99808 0.23236 0.0
H239 H 0.80048 1.01907 0.3473 0.0
Pr240 Pr 0.71109 0.59351 0.77473 0.0
Pr241 Pr 0.7577 0.60796 0.88884 0.0
C242 C 0.6841 0.58997 0.65307 0.0
C243 C 0.69609 0.5964 0.58813 0.0
C244 C 0.6727 0.58001 0.53299 0.0
C245 C 0.68371 0.58517 0.47102 0.0
C246 C 0.71844 0.60695 0.4628 0.0
C247 C 0.74179 0.62362 0.51848 0.0
C248 C 0.73073 0.6183 0.58048 0.0
C249 C 0.67811 0.54365 0.85647 0.0
C250 C 0.77325 0.57352 0.77339 0.0
C251 C 0.7914 0.62341 1.00882 0.0
C252 C 0.78133 0.62083 0.0754 0.0
C253 C 0.80556 0.64108 0.12754 0.0
C254 C 0.79587 0.63987 0.19053 0.0
C255 C 0.76165 0.6185 0.20254 0.0
C256 C 0.73745 0.59828 0.14991 0.0
C257 C 0.7472 0.59939 0.08707 0.0
C258 C 0.78054 0.65779 0.79895 0.0
C259 C 0.69438 0.61941 0.91031 0.0
O260 O 0.69554 0.61632 0.69553 0.0
O261 O 0.68321 0.5641 0.67778 0.0
O262 O 0.70953 0.55554 0.84691 0.0
O263 O 0.66358 0.55638 0.82187 0.0
O264 O 0.77173 0.57252 0.83573 0.0
O265 O 0.75725 0.58631 0.74032 0.0
O266 O 0.78156 0.59506 0.97327 0.0
O267 O 0.78772 0.64517 0.97692 0.0
O268 O 0.75246 0.64382 0.82233 0.0
O269 O 0.79921 0.64584 0.82144 0.0
O270 O 0.69267 0.62196 0.84714 0.0
O271 O 0.71243 0.60711 0.93511 0.0
H272 H 0.64588 0.56289 0.53786 0.0
H273 H 0.66505 0.57147 0.42957 0.0
H274 H 0.76862 0.64091 0.51425 0.0
H275 H 0.74927 0.63115 0.62243 0.0
H276 H 0.83195 0.65806 0.11946 0.0
H277 H 0.81509 0.65609 0.22971 0.0
H278 H 0.71098 0.58126 0.15737 0.0
H279 H 0.72805 0.58359 0.04749 0.0
Pr280 Pr 0.48805 0.13296 0.79744 0.0
Pr281 Pr 0.48128 0.17017 0.9082 0.0
C282 C 0.48711 0.10618 0.67739 0.0
C283 C 0.48239 0.11246 0.60977 0.0
C284 C 0.49789 0.10375 0.56192 0.0
C285 C 0.49568 0.11147 0.49835 0.0
C286 C 0.4778 0.12802 0.4812 0.0
C287 C 0.46153 0.13598 0.52908 0.0
C288 C 0.46398 0.12845 0.59286 0.0
C289 C 0.54395 0.15528 0.88953 0.0
C290 C 0.51116 0.21508 0.79492 0.0
C291 C 0.4742 0.19392 1.02501 0.0
C292 C 0.47626 0.18609 0.09249 0.0
C293 C 0.45708 0.19136 0.13734 0.0
C294 C 0.45729 0.18218 0.20041 0.0
C295 C 0.47661 0.16737 0.21991 0.0
C296 C 0.49593 0.16232 0.1746 0.0
C297 C 0.49583 0.17166 0.11175 0.0
C298 C 0.42634 0.14277 0.8076 0.0
C299 C 0.46792 0.09484 0.9299 0.0
O300 O 0.46038 0.09444 0.71001 0.0
O301 O 0.51512 0.12932 0.71171 0.0
O302 O 0.53133 0.17349 0.87376 0.0
O303 O 0.52744 0.12549 0.85785 0.0
O304 O 0.51466 0.21726 0.85817 0.0
O305 O 0.49623 0.18508 0.76054 0.0
O306 O 0.50274 0.20809 0.99764 0.0
O307 O 0.44849 0.17039 0.98624 0.0
O308 O 0.44004 0.12782 0.83316 0.0
O309 O 0.44095 0.17367 0.83442 0.0
O310 O 0.46344 0.08849 0.86585 0.0
O311 O 0.48054 0.12579 0.95649 0.0
H312 H 0.51217 0.09138 0.57394 0.0
H313 H 0.50807 0.10453 0.46258 0.0
H314 H 0.44779 0.14894 0.51774 0.0
H315 H 0.45205 0.13568 0.62917 0.0
H316 H 0.44173 0.20238 0.12345 0.0
H317 H 0.44249 0.18694 0.234 0.0
H318 H 0.51068 0.15051 0.18721 0.0
H319 H 0.51066 0.16713 0.07784 0.0
Pr320 Pr 0.96318 0.38488 0.79545 0.0
Pr321 Pr 0.95284 0.35458 0.8972 0.0
C322 C 0.98959 0.41277 0.68687 0.0
C323 C 0.98654 0.40193 0.61766 0.0
C324 C 0.99172 0.42488 0.57217 0.0
C325 C 0.98841 0.41497 0.50609 0.0
C326 C 0.97992 0.38187 0.48421 0.0
C327 C 0.97495 0.35895 0.53022 0.0
C328 C 0.97812 0.36887 0.59635 0.0
C329 C 0.93336 0.4136 0.86947 0.0
C330 C 0.88573 0.32432 0.79983 0.0
C331 C 0.94113 0.31913 1.00127 0.0
C332 C 0.94533 0.32708 0.07181 0.0
C333 C 0.94304 0.30308 0.11285 0.0
C334 C 0.94913 0.31126 0.18004 0.0
C335 C 0.95783 0.34369 0.20713 0.0
C336 C 0.95998 0.36759 0.16556 0.0
C337 C 0.95381 0.35936 0.09851 0.0
C338 C 0.97669 0.32842 0.79672 0.0
C339 C 1.01897 0.4215 0.92895 0.0
O340 O 1.00425 0.40183 0.72678 0.0
O341 O 0.96295 0.41231 0.70838 0.0
O342 O 0.95618 0.40764 0.89268 0.0
O343 O 0.92367 0.40169 0.80927 0.0
O344 O 0.89581 0.33324 0.86151 0.0
O345 O 0.90911 0.33617 0.75861 0.0
O346 O 0.91743 0.32205 0.96853 0.0
O347 O 0.96957 0.3316 0.97399 0.0
O348 O 0.95043 0.33062 0.79362 0.0
O349 O 0.99545 0.34543 0.84993 0.0
O350 O 1.01744 0.4143 0.86563 0.0
O351 O 0.99094 0.40466 0.95559 0.0
H352 H 0.99807 0.45044 0.58774 0.0
H353 H 0.99184 0.43311 0.47209 0.0
H354 H 0.96879 0.33341 0.51521 0.0
H355 H 0.97387 0.35071 0.63077 0.0
H356 H 0.93701 0.27818 0.09291 0.0
H357 H 0.94769 0.29243 0.21069 0.0
H358 H 0.9662 0.39263 0.18488 0.0
H359 H 0.95595 0.37829 0.06745 0.0
Pr360 Pr 0.74161 0.16993 0.94333 0.0
Pr361 Pr 0.69696 0.12947 0.82497 0.0
C362 C 0.77137 0.19553 0.06559 0.0
C363 C 0.76195 0.18573 0.13119 0.0
C364 C 0.78742 0.19203 0.18069 0.0
C365 C 0.77869 0.18148 0.24218 0.0
C366 C 0.74421 0.16412 0.25539 0.0
C367 C 0.71876 0.15785 0.20551 0.0
C368 C 0.72754 0.16865 0.14423 0.0
C369 C 0.76881 0.141 0.85795 0.0
C370 C 0.68058 0.09334 0.95988 0.0
C371 C 0.67203 0.10029 0.70225 0.0
C372 C 0.68354 0.10687 0.63681 0.0
C373 C 0.65928 0.09691 0.58295 0.0
C374 C 0.66968 0.10467 0.52106 0.0
C375 C 0.70469 0.1226 0.51149 0.0
C376 C 0.72895 0.13192 0.56569 0.0
C377 C 0.71849 0.12425 0.62765 0.0
C378 C 0.66394 0.15321 0.90255 0.0
C379 C 0.75854 0.21127 0.82235 0.0
O380 O 0.75365 0.20613 1.03302 0.0
O381 O 0.77764 0.17539 1.02969 0.0
O382 O 0.73975 0.12656 0.87797 0.0
O383 O 0.78592 0.17237 0.88268 0.0
O384 O 0.67947 0.08654 0.89654 0.0
O385 O 0.69734 0.1247 0.98616 0.0
O386 O 0.68841 0.09094 0.74193 0.0
O387 O 0.66499 0.12188 0.7306 0.0
O388 O 0.69503 0.17115 0.89116 0.0
O389 O 0.64978 0.12283 0.8735 0.0
O390 O 0.75688 0.21521 0.88473 0.0
O391 O 0.74239 0.18056 0.79057 0.0
H392 H 0.8141 0.20489 0.17162 0.0
H393 H 0.79894 0.18642 0.27909 0.0
H394 H 0.69201 0.14493 0.21401 0.0
H395 H 0.70739 0.16347 0.10689 0.0
H396 H 0.63218 0.08361 0.58893 0.0
H397 H 0.65019 0.09742 0.48103 0.0
H398 H 0.75609 0.14523 0.56037 0.0
H399 H 0.73774 0.13225 0.66851 0.0
Pr400 Pr 0.94469 0.60921 0.92166 0.0
Pr401 Pr 0.97766 0.59827 0.81114 0.0
C402 C 0.92393 0.61587 0.03797 0.0
C403 C 0.93712 0.61851 0.10605 0.0
C404 C 0.92519 0.63029 0.15615 0.0
C405 C 0.93755 0.63278 0.22085 0.0
C406 C 0.96214 0.62351 0.23679 0.0
C407 C 0.97453 0.6124 0.18605 0.0
C408 C 0.96215 0.60992 0.12146 0.0
C409 C 0.96479 0.65835 0.83268 0.0
C410 C 1.02317 0.62487 0.95531 0.0
C411 C 1.01328 0.60487 0.70758 0.0
C412 C 1.00937 0.61128 0.63971 0.0
C413 C 1.02705 0.60488 0.5931 0.0
C414 C 1.02213 0.60937 0.52806 0.0
C415 C 0.99946 0.62046 0.50836 0.0
C416 C 0.98254 0.62775 0.55579 0.0
C417 C 0.98735 0.62308 0.6207 0.0
C418 C 0.93984 0.53887 0.86912 0.0
C419 C 0.89631 0.57657 0.78999 0.0
O420 O 0.91219 0.58669 1.0038 0.0
O421 O 0.94251 0.64147 1.00588 0.0
O422 O 0.9819 0.64627 0.85632 0.0
O423 O 0.93518 0.64518 0.85557 0.0
O424 O 1.02136 0.61068 0.89661 0.0
O425 O 0.99849 0.62945 0.97296 0.0
O426 O 1.02092 0.62969 0.75153 0.0
O427 O 0.99015 0.57568 0.72404 0.0
O428 O 0.95955 0.5677 0.9002 0.0
O429 O 0.93811 0.54104 0.8072 0.0
O430 O 0.89685 0.5722 0.85182 0.0
O431 O 0.92551 0.5927 0.76337 0.0
H432 H 0.90607 0.6373 0.14527 0.0
H433 H 0.92717 0.64116 0.25845 0.0
H434 H 0.99388 0.60563 0.19619 0.0
H435 H 0.97202 0.60111 0.08354 0.0
H436 H 1.04435 0.59601 0.60684 0.0
H437 H 1.03598 0.604 0.49311 0.0
H438 H 0.9647 0.63603 0.54247 0.0
H439 H 0.97341 0.62817 0.65593 0.0
Pr440 Pr 0.49525 0.35649 0.92505 0.0
Pr441 Pr 0.49377 0.39482 0.81963 0.0
C442 C 0.49884 0.33167 0.0381 0.0
C443 C 0.49205 0.33685 0.10511 0.0
C444 C 0.48359 0.31142 0.14655 0.0
C445 C 0.47744 0.3163 0.21042 0.0
C446 C 0.47951 0.34671 0.23394 0.0
C447 C 0.48748 0.37189 0.19173 0.0
C448 C 0.49374 0.36703 0.1281 0.0
C449 C 0.43685 0.32053 0.833 0.0
C450 C 0.47429 0.41476 0.95864 0.0
C451 C 0.48709 0.41648 0.70447 0.0
C452 C 0.47919 0.403 0.63585 0.0
C453 C 0.482 0.42419 0.58796 0.0
C454 C 0.47795 0.4127 0.52243 0.0
C455 C 0.47112 0.37979 0.50367 0.0
C456 C 0.46698 0.35821 0.55203 0.0
C457 C 0.47098 0.36973 0.61753 0.0
C458 C 0.55503 0.43192 0.90072 0.0
C459 C 0.51963 0.3382 0.80003 0.0
O460 O 0.52504 0.35716 1.01688 0.0
O461 O 0.47221 0.31649 0.99503 0.0
O462 O 0.44928 0.35058 0.85798 0.0
O463 O 0.45415 0.30753 0.85721 0.0
O464 O 0.47126 0.41722 0.89577 0.0
O465 O 0.48572 0.39582 0.98081 0.0
O466 O 0.46222 0.40268 0.74129 0.0
O467 O 0.51626 0.42205 0.73223 0.0
O468 O 0.54135 0.40072 0.88116 0.0
O469 O 0.53536 0.44339 0.88217 0.0
O470 O 0.52892 0.34525 0.86234 0.0
O471 O 0.50058 0.34947 0.77277 0.0
H472 H 0.4819 0.28784 0.12963 0.0
H473 H 0.47097 0.29621 0.24131 0.0
H474 H 0.48978 0.39578 0.20829 0.0
H475 H 0.50033 0.3871 0.09723 0.0
H476 H 0.48831 0.44995 0.60128 0.0
H477 H 0.48158 0.43008 0.48666 0.0
H478 H 0.46115 0.33257 0.53929 0.0
H479 H 0.46847 0.35293 0.65393 0.0
Pr480 Pr 0.41532 0.95547 0.24371 0.0
Pr481 Pr 0.37088 0.91344 0.12656 0.0
C482 C 0.43969 0.98428 0.36686 0.0
C483 C 0.42822 0.97679 0.4322 0.0
C484 C 0.45254 0.98695 0.48602 0.0
C485 C 0.44224 0.97871 0.54782 0.0
C486 C 0.40725 0.9601 0.55741 0.0
C487 C 0.38291 0.95041 0.50321 0.0
C488 C 0.39327 0.95855 0.44132 0.0
C489 C 0.44987 0.93327 0.16642 0.0
C490 C 0.35641 0.87249 0.24747 0.0
C491 C 0.34184 0.88703 1.00417 0.0
C492 C 0.35108 0.89702 0.93851 0.0
C493 C 0.32543 0.89019 0.88896 0.0
C494 C 0.33394 0.90068 0.82732 0.0
C495 C 0.36838 0.91851 0.81397 0.0
C496 C 0.39402 0.92532 0.8639 0.0
C497 C 0.38546 0.91459 0.92531 0.0
C498 C 0.34168 0.93973 0.21308 0.0
C499 C 0.4282 0.99173 0.10952 0.0
O500 O 0.42254 0.993 0.32765 0.0
O501 O 0.4479 0.96379 0.33776 0.0
O502 O 0.41894 0.91476 0.17824 0.0
O503 O 0.46286 0.96394 0.19344 0.0
O504 O 0.35779 0.86841 0.18503 0.0
O505 O 0.37183 0.90339 0.27846 0.0
O506 O 0.36054 0.87765 0.03717 0.0
O507 O 0.33421 0.90622 0.03974 0.0
O508 O 0.37044 0.95545 0.19214 0.0
O509 O 0.32576 0.90841 0.18804 0.0
O510 O 0.42995 0.9984 0.17302 0.0
O511 O 0.41299 0.96034 0.08353 0.0
H512 H 0.47963 1.00087 0.4801 0.0
H513 H 0.46182 0.98623 0.58782 0.0
H514 H 0.35577 0.93653 0.50848 0.0
H515 H 0.37397 0.95031 0.40051 0.0
H516 H 0.29876 0.87692 0.89808 0.0
H517 H 0.31354 0.8953 0.7904 0.0
H518 H 0.42076 0.93864 0.85534 0.0
H519 H 0.40579 0.9203 0.96268 0.0
Pr520 Pr 0.17681 0.47442 0.15297 0.0
Pr521 Pr 0.16419 0.50607 0.26692 0.0
C522 C 0.17433 0.4424 0.03747 0.0
C523 C 0.17075 0.44944 0.96977 0.0
C524 C 0.18492 0.43947 0.9211 0.0
C525 C 0.18251 0.44715 0.85736 0.0
C526 C 0.16577 0.46495 0.84087 0.0
C527 C 0.15121 0.47445 0.88994 0.0
C528 C 0.15384 0.46698 0.95357 0.0
C529 C 0.23742 0.51362 0.23489 0.0
C530 C 0.195 0.55344 0.15615 0.0
C531 C 0.15521 0.52786 0.38363 0.0
C532 C 0.15813 0.52014 0.45096 0.0
C533 C 0.14047 0.52652 0.49768 0.0
C534 C 0.14173 0.5177 0.56079 0.0
C535 C 0.16045 0.50201 0.57834 0.0
C536 C 0.17823 0.49579 0.53125 0.0
C537 C 0.17722 0.50493 0.46839 0.0
C538 C 0.11258 0.48051 0.15993 0.0
C539 C 0.15668 0.43211 0.28531 0.0
O540 O 0.1478 0.43368 0.06955 0.0
O541 O 0.20298 0.46366 0.0723 0.0
O542 O 0.20834 0.49415 0.25375 0.0
O543 O 0.23427 0.51601 0.17336 0.0
O544 O 0.20064 0.55349 0.21875 0.0
O545 O 0.17887 0.52428 0.11894 0.0
O546 O 0.18373 0.54379 0.35641 0.0
O547 O 0.13021 0.5035 0.34465 0.0
O548 O 0.12689 0.46614 0.18514 0.0
O549 O 0.12467 0.51025 0.19087 0.0
O550 O 0.16324 0.43061 0.2239 0.0
O551 O 0.1564 0.45847 0.31192 0.0
H552 H 0.19823 0.42608 0.93252 0.0
H553 H 0.19444 0.43975 0.82138 0.0
H554 H 0.13759 0.48761 0.87927 0.0
H555 H 0.14279 0.4751 0.99027 0.0
H556 H 0.12542 0.53805 0.4852 0.0
H557 H 0.12747 0.52259 0.59552 0.0
H558 H 0.19323 0.48415 0.54315 0.0
H559 H 0.19119 0.49992 0.43317 0.0
Pr560 Pr 0.62275 0.6943 0.23786 0.0
Pr561 Pr 0.62516 0.73599 0.13564 0.0
C562 C 0.62559 0.66952 0.35138 0.0
C563 C 0.63027 0.6806 0.42106 0.0
C564 C 0.61761 0.65632 0.46526 0.0
C565 C 0.61941 0.66605 0.53103 0.0
C566 C 0.63398 0.70036 0.55402 0.0
C567 C 0.64758 0.72477 0.50971 0.0
C568 C 0.64555 0.71496 0.44373 0.0
C569 C 0.56522 0.65805 0.14743 0.0
C570 C 0.59616 0.75018 0.25851 0.0
C571 C 0.62787 0.76508 1.02515 0.0
C572 C 0.62782 0.7558 0.95594 0.0
C573 C 0.6446 0.78105 0.91482 0.0
C574 C 0.64604 0.77243 0.84976 0.0
C575 C 0.63079 0.73832 0.8246 0.0
C576 C 0.61408 0.71313 0.86632 0.0
C577 C 0.61255 0.72178 0.93116 0.0
C578 C 0.68092 0.76801 0.23428 0.0
C579 C 0.64498 0.67803 0.09994 0.0
O580 O 0.65203 0.68528 0.31878 0.0
O581 O 0.59705 0.66354 0.31988 0.0
O582 O 0.57744 0.68883 0.16919 0.0
O583 O 0.58415 0.64652 0.17009 0.0
O584 O 0.59004 0.74631 0.19542 0.0
O585 O 0.61381 0.73768 0.28655 0.0
O586 O 0.59951 0.74708 0.05146 0.0
O587 O 0.65503 0.77159 0.06249 0.0
O588 O 0.66869 0.73901 0.20492 0.0
O589 O 0.66444 0.78227 0.21217 0.0
O590 O 0.64971 0.67695 0.16304 0.0
O591 O 0.63033 0.69434 0.07811 0.0
H592 H 0.60574 0.6297 0.4487 0.0
H593 H 0.60917 0.64665 0.5639 0.0
H594 H 0.65874 0.75136 0.52565 0.0
H595 H 0.65522 0.73411 0.41026 0.0
H596 H 0.6567 0.80748 0.93309 0.0
H597 H 0.65878 0.79251 0.81905 0.0
H598 H 0.60257 0.68665 0.84919 0.0
H599 H 0.59973 0.70185 0.96214 0.0
Pr600 Pr 0.42232 0.49943 0.28287 0.0
Pr601 Pr 0.37498 0.4631 0.16624 0.0
C602 C 0.45463 0.5206 0.40432 0.0
C603 C 0.44412 0.51196 0.46981 0.0
C604 C 0.46797 0.51502 0.51976 0.0
C605 C 0.45792 0.50585 0.58141 0.0
C606 C 0.42369 0.49329 0.5944 0.0
C607 C 0.39984 0.48996 0.54371 0.0
C608 C 0.40995 0.49926 0.4823 0.0
C609 C 0.44668 0.47257 0.18638 0.0
C610 C 0.35932 0.42352 0.29674 0.0
C611 C 0.34801 0.43758 0.04255 0.0
C612 C 0.3595 0.44407 0.97709 0.0
C613 C 0.33553 0.43684 0.92401 0.0
C614 C 0.34603 0.44388 0.862 0.0
C615 C 0.3808 0.45824 0.8516 0.0
C616 C 0.40473 0.46496 0.90487 0.0
C617 C 0.39421 0.45817 0.96704 0.0
C618 C 0.34466 0.48632 0.2524 0.0
C619 C 0.43691 0.54565 0.17065 0.0
O620 O 0.44196 0.53649 0.37343 0.0
O621 O 0.45491 0.49692 0.36699 0.0
O622 O 0.41832 0.45775 0.20899 0.0
O623 O 0.46469 0.50324 0.21447 0.0
O624 O 0.35668 0.41792 0.23277 0.0
O625 O 0.37755 0.45443 0.32497 0.0
O626 O 0.36192 0.42485 0.07979 0.0
O627 O 0.34439 0.46091 0.07373 0.0
O628 O 0.37566 0.50359 0.23992 0.0
O629 O 0.3293 0.45648 0.22061 0.0
O630 O 0.43664 0.5474 0.23363 0.0
O631 O 0.42012 0.51576 0.13549 0.0
H632 H 0.49442 0.52452 0.51109 0.0
H633 H 0.47713 0.5091 0.6191 0.0
H634 H 0.37315 0.47975 0.55114 0.0
H635 H 0.39094 0.49621 0.44433 0.0
H636 H 0.30864 0.42595 0.93061 0.0
H637 H 0.32686 0.43799 0.82206 0.0
H638 H 0.43171 0.47629 0.89884 0.0
H639 H 0.41323 0.46433 1.00739 0.0
Pr640 Pr 0.63285 0.91669 0.15967 0.0
Pr641 Pr 0.62391 0.95161 0.27536 0.0
C642 C 0.6383 0.89298 0.0416 0.0
C643 C 0.63628 0.90137 0.97443 0.0
C644 C 0.65455 0.89534 0.92854 0.0
C645 C 0.65456 0.9051 0.8659 0.0
C646 C 0.63657 0.92146 0.848 0.0
C647 C 0.61813 0.92729 0.89413 0.0
C648 C 0.61779 0.91713 0.95649 0.0
C649 C 0.68567 0.94035 0.26332 0.0
C650 C 0.64254 0.99164 0.14076 0.0
C651 C 0.62996 0.9858 0.39056 0.0
C652 C 0.63342 0.97887 0.45844 0.0
C653 C 0.62055 0.9903 0.50737 0.0
C654 C 0.62222 0.9822 0.57102 0.0
C655 C 0.63693 0.96253 0.58725 0.0
C656 C 0.6505 0.95185 0.53801 0.0
C657 C 0.64852 0.95968 0.47444 0.0
C658 C 0.56196 0.91233 0.19718 0.0
C659 C 0.60216 0.87182 0.27463 0.0
O660 O 0.60987 0.87927 0.0696 0.0
O661 O 0.66465 0.91584 0.0803 0.0
O662 O 0.67215 0.95606 0.24036 0.0
O663 O 0.67196 0.9105 0.23193 0.0
O664 O 0.63579 0.99379 0.2018 0.0
O665 O 0.64348 0.96534 0.11584 0.0
O666 O 0.65574 0.99244 0.35734 0.0
O667 O 0.60054 0.96565 0.35695 0.0
O668 O 0.59073 0.93097 0.17633 0.0
O669 O 0.56583 0.91139 0.25919 0.0
O670 O 0.59624 0.87096 0.21177 0.0
O671 O 0.61967 0.90127 0.31059 0.0
H672 H 0.66917 0.88341 0.94139 0.0
H673 H 0.66925 0.90045 0.83184 0.0
H674 H 0.6037 0.93947 0.88186 0.0
H675 H 0.60341 0.92195 0.99103 0.0
H676 H 0.60869 1.00504 0.49614 0.0
H677 H 0.61114 0.99064 0.60706 0.0
H678 H 0.66269 0.93733 0.5484 0.0
H679 H 0.65852 0.95039 0.43757 0.0
Pr680 Pr 0.16491 0.68867 0.29444 0.0
Pr681 Pr 0.16993 0.73114 0.1895 0.0
C682 C 0.16107 0.65969 0.40543 0.0
C683 C 0.15465 0.66554 0.47236 0.0
C684 C 0.14324 0.63945 0.51289 0.0
C685 C 0.13798 0.64512 0.57704 0.0
C686 C 0.14397 0.67701 0.60178 0.0
C687 C 0.15461 0.70282 0.5603 0.0
C688 C 0.15992 0.69715 0.49634 0.0
C689 C 0.11097 0.65852 0.1928 0.0
C690 C 0.14397 0.7473 0.32333 0.0
C691 C 0.16747 0.75458 0.07428 0.0
C692 C 0.15891 0.74073 1.00575 0.0
C693 C 0.1636 0.76213 0.95731 0.0
C694 C 0.15718 0.74961 0.89192 0.0
C695 C 0.14598 0.71538 0.87375 0.0
C696 C 0.14044 0.69381 0.92274 0.0
C697 C 0.14688 0.70639 0.98813 0.0
C698 C 0.22684 0.76559 0.2817 0.0
C699 C 0.19506 0.67352 0.17394 0.0
O700 O 0.18983 0.68285 0.38648 0.0
O701 O 0.1352 0.64873 0.36119 0.0
O702 O 0.12366 0.68736 0.22286 0.0
O703 O 0.12592 0.643 0.21592 0.0
O704 O 0.14331 0.75075 0.26064 0.0
O705 O 0.15508 0.72849 0.3478 0.0
O706 O 0.14216 0.74291 0.11041 0.0
O707 O 0.19539 0.75761 0.10311 0.0
O708 O 0.21342 0.73464 0.26021 0.0
O709 O 0.2093 0.77833 0.25776 0.0
O710 O 0.2003 0.67751 0.23721 0.0
O711 O 0.17831 0.68651 0.14394 0.0
H712 H 0.13873 0.61478 0.49513 0.0
H713 H 0.12934 0.62456 0.60734 0.0
H714 H 0.1599 0.7278 0.57779 0.0
H715 H 0.16874 0.71768 0.466 0.0
H716 H 0.17285 0.78871 0.97005 0.0
H717 H 0.16211 0.76703 0.85564 0.0
H718 H 0.13138 0.66725 0.91054 0.0
H719 H 0.1429 0.68942 1.02494 0.0
C720 C 0.15254 0.41242 0.39633 0.0
C721 C 0.14886 0.40465 0.32836 0.0
H722 H 0.14169 0.39413 0.48981 0.0
C723 C 0.13394 0.37066 0.30409 0.0
H724 H 0.16437 0.43834 0.41724 0.0
C725 C 0.12106 0.34518 0.34634 0.0
C726 C 0.12271 0.35295 0.41394 0.0
H727 H 0.13057 0.36362 0.25242 0.0
H728 H 0.10863 0.31919 0.32542 0.0
C729 C 0.13965 0.38703 0.43845 0.0
C730 C 0.73032 0.8178 0.39615 0.0
C731 C 0.74119 0.79648 0.4209 0.0
H732 H 0.70291 0.82578 0.31758 0.0
C733 C 0.73297 0.76666 0.38269 0.0
H734 H 0.73636 0.84107 0.42414 0.0
C735 C 0.71495 0.75854 0.32118 0.0
C736 C 0.70324 0.77922 0.2969 0.0
H737 H 0.74048 0.74943 0.40028 0.0
H738 H 0.70975 0.73564 0.29293 0.0
C739 C 0.71136 0.80915 0.33493 0.0
C740 C 0.30005 0.94603 0.36461 0.0
C741 C 0.31841 0.9811 0.38273 0.0
H742 H 0.29217 0.90528 0.29548 0.0
C743 C 0.34409 1.00192 0.34487 0.0
H744 H 0.27933 0.9295 0.39159 0.0
C745 C 0.35132 0.98826 0.29026 0.0
C746 C 0.33269 0.95334 0.27098 0.0
H747 H 0.358 1.0291 0.35654 0.0
H748 H 0.37123 1.00526 0.26227 0.0
C749 C 0.30703 0.93228 0.309 0.0
C750 C 0.37396 0.08461 0.65584 0.0
C751 C 0.36359 0.10423 0.62268 0.0
H752 H 0.39983 0.08047 0.74126 0.0
C753 C 0.3738 0.13687 0.65135 0.0
H754 H 0.36703 0.05962 0.63506 0.0
C755 C 0.39382 0.14944 0.71165 0.0
C756 C 0.40369 0.12947 0.74515 0.0
H757 H 0.36629 0.15273 0.6272 0.0
H758 H 0.4016 0.17478 0.73195 0.0
C759 C 0.39309 0.09675 0.71667 0.0
C760 C 0.96227 0.28654 0.70004 0.0
C761 C 0.98704 0.31548 0.73994 0.0
H762 H 0.95108 0.25242 0.61488 0.0
C763 C 1.02035 0.33326 0.72111 0.0
H764 H 0.93623 0.27256 0.71269 0.0
C765 C 1.02846 0.32256 0.66329 0.0
C766 C 1.0039 0.29304 0.62422 0.0
H767 H 1.0398 0.35609 0.74985 0.0
H768 H 1.05406 0.33743 0.64926 0.0
C769 C 0.9707 0.27514 0.64363 0.0
C770 C 0.76746 0.71033 0.67926 0.0
C771 C 0.79594 0.72189 0.64353 0.0
H772 H 0.74108 0.68233 0.75573 0.0
C773 C 0.8195 0.71106 0.65752 0.0
H774 H 0.74888 0.71824 0.67038 0.0
C775 C 0.81502 0.6901 0.70785 0.0
C776 C 0.78693 0.67971 0.74484 0.0
H777 H 0.8421 0.72004 0.63188 0.0
H778 H 0.83371 0.68253 0.71843 0.0
C779 C 0.76311 0.6898 0.72886 0.0
C780 C 0.9636 0.70649 0.68954 0.0
C781 C 0.99715 0.71958 0.67237 0.0
H782 H 0.92688 0.67702 0.75437 0.0
C783 C 1.01945 0.71225 0.70782 0.0
H784 H 0.94635 0.71295 0.66462 0.0
C785 C 1.00872 0.69256 0.75965 0.0
C786 C 0.9753 0.6795 0.77751 0.0
H787 H 1.04584 0.72313 0.69728 0.0
H788 H 1.02706 0.68835 0.78697 0.0
C789 C 0.95268 0.68644 0.74153 0.0
C790 C 0.38204 0.26068 0.68312 0.0
C791 C 0.37108 0.2803 0.6513 0.0
H792 H 0.41125 0.25783 0.7654 0.0
C793 C 0.38119 0.31269 0.68093 0.0
H794 H 0.37461 0.23557 0.662 0.0
C795 C 0.4011 0.32494 0.741 0.0
C796 C 0.41279 0.3058 0.77224 0.0
H797 H 0.37352 0.32868 0.65781 0.0
H798 H 0.40759 0.34963 0.76273 0.0
C799 C 0.40283 0.27338 0.74267 0.0
C800 C 0.7577 0.09119 0.783 0.0
C801 C 0.77737 0.12617 0.80128 0.0
H802 H 0.75 0.04916 0.71897 0.0
C803 C 0.80375 0.14616 0.76352 0.0
H804 H 0.73717 0.07501 0.81076 0.0
C805 C 0.8105 0.13126 0.70933 0.0
C806 C 0.79118 0.09612 0.6924 0.0
H807 H 0.81932 0.17318 0.77619 0.0
H808 H 0.83176 0.14695 0.68259 0.0
C809 C 0.76472 0.07638 0.72982 0.0
C810 C 0.71584 0.93025 0.35877 0.0
C811 C 0.70759 0.95173 0.32657 0.0
H812 H 0.741 0.92407 0.44357 0.0
C813 C 0.71909 0.98423 0.35714 0.0
H814 H 0.70752 0.90509 0.33663 0.0
C815 C 0.73694 0.99454 0.41912 0.0
C816 C 0.74545 0.97334 0.45137 0.0
H817 H 0.71408 1.00181 0.33324 0.0
H818 H 0.74437 1.01939 0.44155 0.0
C819 C 0.73478 0.94104 0.42029 0.0
C820 C 0.14111 0.80958 0.44707 0.0
C821 C 0.1126 0.7879 0.47869 0.0
H822 H 0.1729 0.81392 0.37082 0.0
C823 C 0.09297 0.75369 0.45404 0.0
H824 H 0.15678 0.83604 0.46491 0.0
C825 C 0.10207 0.74123 0.40042 0.0
C826 C 0.13069 0.7627 0.36922 0.0
H827 H 0.07092 0.73626 0.47719 0.0
H828 H 0.0873 0.71443 0.38451 0.0
C829 C 0.15003 0.79709 0.39265 0.0
C830 C 0.32578 0.36171 0.31502 0.0
C831 C 0.34343 0.3958 0.33976 0.0
H832 H 0.30073 0.31031 0.3358 0.0
C833 C 0.34785 0.40363 0.40777 0.0
H834 H 0.32188 0.35464 0.2633 0.0
C835 C 0.33595 0.37817 0.44984 0.0
C836 C 0.31911 0.3441 0.42512 0.0
H837 H 0.36125 0.42961 0.42899 0.0
H838 H 0.34057 0.38524 0.50161 0.0
C839 C 0.31373 0.33627 0.35706 0.0
C840 C 0.06166 0.4219 1.00807 0.0
C841 C 1.05058 0.44076 0.97419 0.0
H842 H 0.08753 0.4187 0.0942 0.0
C843 C 0.06096 0.47374 1.00103 0.0
H844 H 1.05263 0.39583 0.99067 0.0
C845 C 0.0817 0.48731 0.06067 0.0
C846 C 0.09157 0.46772 0.0956 0.0
H847 H 1.05135 0.48826 0.97786 0.0
H848 H 0.08889 0.51256 0.0805 0.0
C849 C 0.08137 0.43496 0.06808 0.0
C850 C 0.67934 0.62565 1.0224 0.0
C851 C 0.6783 0.63171 0.95663 0.0
H852 H 0.67011 0.6355 0.1191 0.0
C853 C 0.66476 0.6518 0.93837 0.0
H854 H 0.68938 0.61006 0.03848 0.0
C855 C 0.65355 0.66627 0.98502 0.0
C856 C 0.65565 0.66109 0.05112 0.0
H857 H 0.66375 0.65717 0.88854 0.0
H858 H 0.64394 0.68222 0.96919 0.0
C859 C 0.66833 0.64025 0.06904 0.0
C860 C 0.46401 0.07709 0.04269 0.0
C861 C 0.45948 0.06821 0.975 0.0
H862 H 0.45807 0.06053 0.13795 0.0
C863 C 0.44637 1.03422 0.95268 0.0
H864 H 0.4741 0.103 0.06219 0.0
C865 C 0.43743 1.00983 0.99677 0.0
C866 C 0.44113 1.01865 0.06435 0.0
H867 H 0.4426 1.02637 0.90129 0.0
H868 H 0.42695 0.98383 0.97745 0.0
C869 C 0.45492 0.05272 0.08665 0.0
C870 C 0.6659 0.07487 0.07139 0.0
C871 C 0.66586 0.06643 1.00472 0.0
H872 H 0.65863 0.05832 0.16708 0.0
C873 C 0.655 1.03285 0.98354 0.0
H874 H 0.67373 0.10049 0.08954 0.0
C875 C 0.64632 1.00887 1.02802 0.0
C876 C 0.64812 1.01751 0.0952 0.0
H877 H 0.65454 1.0253 0.93299 0.0
H878 H 0.63907 0.9835 1.00942 0.0
C879 C 0.65711 0.05071 0.11615 0.0
C880 C 0.07933 0.67125 0.10823 0.0
C881 C 0.09049 0.64952 0.12861 0.0
H882 H 1.05182 0.68166 1.03556 0.0
C883 C 0.08285 0.62094 0.08635 0.0
H884 H 0.08426 0.69321 0.13952 0.0
C885 C 0.06343 0.61389 1.02583 0.0
C886 C 1.05174 0.63554 1.00678 0.0
H887 H 0.09102 0.60364 0.10075 0.0
H888 H 1.05594 0.59069 0.99597 0.0
C889 C 0.06084 0.6647 0.04814 0.0
C890 C 0.47974 0.47983 0.08792 0.0
C891 C 0.45348 0.45912 0.12524 0.0
H892 H 0.50628 0.48229 1.00371 0.0
C893 C 0.43224 0.42479 0.10236 0.0
H894 H 0.49654 0.50637 0.10402 0.0
C895 C 0.43753 0.41127 0.04503 0.0
C896 C 0.46392 0.43167 1.00804 0.0
H897 H 0.41181 0.40803 0.12969 0.0
H898 H 0.4217 0.38437 1.03078 0.0
C899 C 0.4849 0.46621 1.02984 0.0
C900 C 0.13742 0.22285 0.5153 0.0
C901 C 0.13331 0.24541 0.47813 0.0
H902 H 0.17222 0.20728 0.55155 0.0
C903 C 0.15807 0.26331 0.43626 0.0
H904 H 0.11923 0.20946 0.54937 0.0
C905 C 0.18829 0.26207 0.43749 0.0
C906 C 0.19446 0.24292 0.48066 0.0
H907 H 0.15592 0.28139 0.40813 0.0
H908 H 0.20854 0.27924 0.41027 0.0
C909 C 0.16785 0.22159 0.51654 0.0
C910 C 0.88236 0.96975 0.49718 0.0
C911 C 0.85472 0.97266 0.47141 0.0
H912 H 0.90063 0.9365 0.52106 0.0
C913 C 0.82681 0.94409 0.43579 0.0
H914 H 0.90409 0.99117 0.52529 0.0
C915 C 0.82488 0.91242 0.43315 0.0
C916 C 0.85081 0.90901 0.4662 0.0
H917 H 0.80486 0.94534 0.41636 0.0
H918 H 0.80156 0.89019 0.41144 0.0
C919 C 0.88034 0.93833 0.49495 0.0
C920 C 0.1415 0.89548 0.43845 0.0
C921 C 0.12028 0.89987 0.47965 0.0
H922 H 0.19163 0.91739 0.40581 0.0
C923 C 0.13129 0.93271 0.50832 0.0
H924 H 0.13391 0.8706 0.41572 0.0
C925 C 0.16404 0.95977 0.50118 0.0
C926 C 0.18677 0.9544 0.46634 0.0
H927 H 0.11556 0.93697 0.54038 0.0
H928 H 0.17267 0.984 0.52822 0.0
C929 C 0.17461 0.92234 0.43269 0.0
C930 C 0.22586 0.13242 0.59948 0.0
C931 C 0.25611 0.16228 0.62385 0.0
H932 H 0.20221 0.07947 0.57019 0.0
C933 C 0.28338 0.1597 0.65305 0.0
H934 H 0.20459 0.13365 0.57608 0.0
C935 C 0.28197 0.12831 0.64976 0.0
C936 C 0.25339 0.0993 0.61686 0.0
H937 H 0.30727 0.18235 0.67104 0.0
H938 H 0.30477 0.12766 0.66561 0.0
C939 C 0.2245 0.1013 0.59606 0.0
C940 C 0.93361 0.15107 0.65167 0.0
C941 C 0.92168 0.11907 0.61793 0.0
H942 H 0.97372 0.20314 0.66762 0.0
C943 C 0.94445 0.11408 0.58242 0.0
H944 H 0.91647 0.15578 0.67867 0.0
C945 C 0.97696 0.14142 0.57488 0.0
C946 C 0.98772 0.17412 0.60388 0.0
H947 H 0.93592 0.08997 0.555 0.0
H948 H 0.9927 0.13749 0.54232 0.0
C949 C 0.96646 0.17825 0.64536 0.0
C950 C 0.97664 0.85216 0.57299 0.0
C951 C 0.9725 0.82256 0.59691 0.0
H952 H 0.95188 0.8794 0.54424 0.0
C953 C 0.94194 0.80125 0.62343 0.0
H954 H 0.99975 0.86885 0.55166 0.0
C955 C 0.91475 0.80758 0.62034 0.0
C956 C 0.91735 0.83496 0.5892 0.0
H957 H 0.93806 0.77818 0.64195 0.0
H958 H 0.89063 0.7891 0.63629 0.0
C959 C 0.94917 0.85816 0.56869 0.0
C960 C 0.83312 0.54085 0.77215 0.0
C961 C 0.86304 0.56945 0.75749 0.0
H962 H 0.78007 0.51917 0.78569 0.0
C963 C 0.86008 0.59503 0.7291 0.0
H964 H 0.83462 0.5208 0.79424 0.0
C965 C 0.82852 0.59412 0.72428 0.0
C966 C 0.79965 0.56751 0.74742 0.0
H967 H 0.88276 0.6175 0.71792 0.0
H968 H 0.82783 0.61608 0.71009 0.0
C969 C 0.80178 0.53985 0.76702 0.0
C970 C 0.49329 0.2809 0.73837 0.0
C971 C 0.52261 0.31003 0.76892 0.0
H972 H 0.46671 0.22664 0.72132 0.0
C973 C 0.55136 0.30764 0.7891 0.0
H974 H 0.47066 0.2819 0.72284 0.0
C975 C 0.54913 0.27617 0.78816 0.0
C976 C 0.51822 0.24644 0.7665 0.0
H977 H 0.57427 0.3296 0.81297 0.0
H978 H 0.57035 0.27479 0.81136 0.0
C979 C 0.49105 0.24919 0.73737 0.0
C980 C 0.808 0.23835 0.75478 0.0
C981 C 0.78503 0.24109 0.79389 0.0
H982 H 0.85893 0.26359 0.72478 0.0
C983 C 0.79284 0.27338 0.81957 0.0
H984 H 0.80273 0.21376 0.73463 0.0
C985 C 0.82465 0.30166 0.81364 0.0
C986 C 0.84938 0.29839 0.78168 0.0
H987 H 0.77563 0.27634 0.84966 0.0
H988 H 0.83115 0.3256 0.83953 0.0
C989 C 0.84015 0.2669 0.74889 0.0
C990 C 0.96007 0.50401 0.92513 0.0
C991 C 0.93366 0.50641 0.89134 0.0
H992 H 0.98065 0.47196 0.9458 0.0
C993 C 0.90421 0.47658 0.86426 0.0
H994 H 0.98331 0.52669 0.94566 0.0
C995 C 0.90255 0.44541 0.86483 0.0
C996 C 0.93052 0.44334 0.8917 0.0
H997 H 0.88359 0.4777 0.83769 0.0
H998 H 0.88061 0.42333 0.83874 0.0
C999 C 0.95854 0.47263 0.92522 0.0
C1000 C 0.60467 0.48764 0.94445 0.0
C1001 C 0.59255 0.45619 0.90877 0.0
H1002 H 0.64283 0.54022 0.95735 0.0
C1003 C 0.61439 0.45244 0.86797 0.0
H1004 H 0.58831 0.49142 0.97564 0.0
C1005 C 0.64591 0.48069 0.85735 0.0
C1006 C 0.65608 0.51291 0.88789 0.0
H1007 H 0.60552 0.4287 0.83886 0.0
H1008 H 0.6603 0.47802 0.82002 0.0
C1009 C 0.63604 0.51562 0.93417 0.0
C1010 C 0.61595 0.14757 0.96111 0.0
C1011 C 0.64133 0.16619 0.92088 0.0
H1012 H 0.56492 0.13085 0.98444 0.0
C1013 C 0.63756 0.18896 0.88381 0.0
H1014 H 0.61799 0.12948 0.98939 0.0
C1015 C 0.60688 0.18974 0.88091 0.0
C1016 C 0.5798 0.1678 0.91517 0.0
H1017 H 0.6564 0.20303 0.85123 0.0
H1018 H 0.60282 0.20427 0.84596 0.0
C1019 C 0.58555 0.14843 0.9584 0.0
C1020 C 0.53148 0.93556 0.13292 0.0
C1021 C 0.5299 0.91026 0.16979 0.0
H1022 H 0.50672 0.96258 0.10294 0.0
C1023 C 0.49857 0.88789 0.19291 0.0
H1024 H 0.55525 0.95337 0.11485 0.0
C1025 C 0.47047 0.89277 0.18487 0.0
C1026 C 0.4735 0.92053 0.15466 0.0
H1027 H 0.49667 0.86827 0.22176 0.0
H1028 H 0.4477 0.8769 0.20794 0.0
C1029 C 0.50367 0.94088 0.12617 0.0
C1030 C 0.22999 0.64631 0.16471 0.0
C1031 C 0.20089 0.64745 0.14176 0.0
H1032 H 0.25115 0.61508 0.18544 0.0
C1033 C 0.17351 0.61838 0.10642 0.0
H1034 H 0.2514 0.66822 0.19239 0.0
C1035 C 0.17333 0.58759 0.10246 0.0
C1036 C 0.2006 0.58569 0.1337 0.0
H1037 H 0.1506 0.61841 0.08882 0.0
H1038 H 0.1503 0.56474 0.08185 0.0
C1039 C 0.22981 0.61578 0.16085 0.0
C1040 C 0.51758 0.6022 0.09713 0.0
C1041 C 0.5281 0.63345 0.13261 0.0
H1042 H 0.47919 0.54964 0.07903 0.0
C1043 C 0.50434 0.63686 0.16775 0.0
H1044 H 0.53551 0.59882 0.07003 0.0
C1045 C 0.4724 0.60849 0.17408 0.0
C1046 C 0.46335 0.57639 0.14434 0.0
H1047 H 0.51179 0.66045 0.19617 0.0
H1048 H 0.456 0.6111 0.20692 0.0
C1049 C 0.48529 0.57398 0.10226 0.0
C1050 C 0.61969 0.80509 0.32682 0.0
C1051 C 0.59142 0.77656 0.29213 0.0
H1052 H 0.6452 0.85897 0.3498 0.0
C1053 C 0.56283 0.77884 0.2704 0.0
H1054 H 0.64215 0.80408 0.34372 0.0
C1055 C 0.5646 0.81009 0.27369 0.0
C1056 C 0.59488 0.83959 0.29916 0.0
H1057 H 0.54073 0.75727 0.24345 0.0
H1058 H 0.54373 0.81171 0.24948 0.0
C1059 C 0.62146 0.83658 0.33024 0.0
C1060 C 0.30949 0.84767 0.3201 0.0
C1061 C 0.32968 0.84306 0.2766 0.0
H1062 H 0.26019 0.82592 0.35605 0.0
C1063 C 0.31878 0.81007 0.24916 0.0
H1064 H 0.3172 0.87268 0.34225 0.0
C1065 C 0.28651 0.78305 0.2586 0.0
C1066 C 0.26432 0.78873 0.29459 0.0
H1067 H 0.33388 0.80569 0.21568 0.0
H1068 H 0.27754 0.75872 0.23167 0.0
C1069 C 0.27684 0.82082 0.32823 0.0
C1070 C 0.3276 0.53001 0.24319 0.0
C1071 C 0.32335 0.501 0.27003 0.0
H1072 H 0.30315 0.55707 0.21163 0.0
C1073 C 0.29331 0.48116 0.29931 0.0
H1074 H 0.3503 0.54553 0.21962 0.0
C1075 C 0.26652 0.48807 0.29579 0.0
C1076 C 0.26901 0.51451 0.26143 0.0
H1077 H 0.28934 0.45853 0.31999 0.0
H1078 H 0.24262 0.47051 0.31378 0.0
C1079 C 0.30052 0.53655 0.23849 0.0
C1080 C 0.07421 0.29831 0.08289 0.0
C1081 C 1.04363 0.26856 0.09106 0.0
H1082 H 0.10798 0.32953 1.01669 0.0
C1083 C 1.02327 0.2472 1.03569 0.0
H1084 H 0.09021 0.31561 0.12447 0.0
C1085 C 1.03363 0.25492 0.9738 0.0
C1086 C 0.06453 0.28442 0.96548 0.0
H1087 H 0.99974 0.22392 0.04029 0.0
H1088 H 1.01782 0.23718 0.93264 0.0
C1089 C 0.08443 0.30622 1.02096 0.0
C1090 C 0.79202 0.76325 0.04648 0.0
C1091 C 0.80454 0.78834 0.0993 0.0
H1092 H 0.78044 0.75154 0.94354 0.0
C1093 C 0.81536 0.82181 0.08701 0.0
H1094 H 0.78308 0.73715 0.05419 0.0
C1095 C 0.81384 0.83004 1.02376 0.0
C1096 C 0.80149 0.80505 0.97088 0.0
H1097 H 0.8258 0.84193 0.12626 0.0
H1098 H 0.82311 0.85622 1.01625 0.0
C1099 C 0.79051 0.77151 0.98303 0.0
C1100 C 0.3134 1.03283 0.06623 0.0
C1101 C 0.30144 0.05479 0.08392 0.0
H1102 H 0.32348 1.00711 0.9891 0.0
C1103 C 0.29124 0.0686 1.03479 0.0
H1104 H 0.32204 1.02221 0.10285 0.0
C1105 C 0.29208 0.05996 0.9696 0.0
C1106 C 0.30317 0.03729 0.95182 0.0
H1107 H 0.28146 0.08523 0.04655 0.0
H1108 H 0.28288 0.07015 0.93307 0.0
C1109 C 0.31425 1.02419 1.001 0.0
C1110 C 0.06244 0.7775 1.01719 0.0
C1111 C 0.0726 0.81045 1.00172 0.0
H1112 H 1.04525 0.74255 0.08938 0.0
C1113 C 0.0734 0.83372 0.04981 0.0
H1114 H 0.06198 0.75901 0.98179 0.0
C1115 C 0.06419 0.82438 0.11143 0.0
C1116 C 1.05368 0.79142 0.12665 0.0
H1117 H 0.08033 0.85906 0.0395 0.0
H1118 H 0.06448 0.8428 0.14678 0.0
C1119 C 1.05293 0.76805 0.07888 0.0
C1120 C 0.32751 0.26669 0.07604 0.0
C1121 C 0.29785 0.25303 0.10887 0.0
H1122 H 0.35016 0.28657 0.98948 0.0
C1123 C 0.26749 0.24866 0.07692 0.0
H1124 H 0.35149 0.27092 0.09939 0.0
C1125 C 0.2668 0.25779 1.01412 0.0
C1126 C 0.29642 0.27147 0.98133 0.0
H1127 H 0.24399 0.23766 0.10004 0.0
H1128 H 0.24282 0.25357 0.99079 0.0
C1129 C 0.32678 0.27573 1.01302 0.0
C1130 C 0.81436 1.01238 0.10906 0.0
C1131 C 0.80381 1.03531 0.1281 0.0
H1132 H 0.82335 0.98655 1.03061 0.0
C1133 C 0.7917 0.04809 0.07999 0.0
H1134 H 0.82429 1.00242 0.14477 0.0
C1135 C 0.7912 0.03901 1.01441 0.0
C1136 C 0.80279 1.01691 0.99541 0.0
H1137 H 0.78283 0.06535 0.09302 0.0
H1138 H 0.78194 0.04948 0.97855 0.0
C1139 C 0.81385 1.00329 0.04352 0.0
C1140 C 0.72017 0.6151 0.28141 0.0
C1141 C 0.75125 0.61697 0.26962 0.0
H1142 H 0.68588 0.61135 0.35119 0.0
C1143 C 0.772 0.6167 0.32229 0.0
H1144 H 0.70384 0.61587 0.24222 0.0
C1145 C 0.76162 0.61394 0.38485 0.0
C1146 C 0.73025 0.6115 0.39655 0.0
H1147 H 0.7959 0.6177 0.31493 0.0
H1148 H 0.77782 0.61279 0.42374 0.0
C1149 C 0.70985 0.61248 0.344 0.0
C1150 C 0.50706 0.15179 0.38216 0.0
C1151 C 0.47719 0.13791 0.41423 0.0
H1152 H 0.53057 0.17259 0.29721 0.0
C1153 C 0.44706 0.1339 0.38199 0.0
H1154 H 0.53088 0.1558 0.40592 0.0
C1155 C 0.44679 0.14336 0.31915 0.0
C1156 C 0.47672 0.15728 0.28703 0.0
H1157 H 0.4235 0.12294 0.40495 0.0
H1158 H 0.42294 0.13926 0.2954 0.0
C1159 C 0.50685 0.1614 0.31961 0.0
C1160 C 0.94338 0.32998 0.3204 0.0
C1161 C 0.96457 0.35267 0.27842 0.0
H1162 H 0.93122 0.32152 0.41793 0.0
C1163 C 0.9918 0.38439 0.30492 0.0
H1164 H 0.922 0.30547 0.30146 0.0
C1165 C 0.99722 0.39354 0.37168 0.0
C1166 C 0.97547 0.37124 0.41361 0.0
H1167 H 1.00901 0.40218 0.27401 0.0
H1168 H 1.01851 0.41814 0.39043 0.0
C1169 C 0.94872 0.33918 0.38721 0.0
C1170 C 0.75404 0.17407 0.37739 0.0
C1171 C 0.73482 0.15288 0.32097 0.0
H1172 H 0.75946 0.18161 0.4809 0.0
C1173 C 0.70626 0.12112 0.32779 0.0
H1174 H 0.77595 0.19885 0.37409 0.0
C1175 C 0.69691 0.11103 0.38927 0.0
C1176 C 0.71572 0.13251 0.4458 0.0
H1177 H 0.69121 0.10387 0.28549 0.0
H1178 H 0.67495 0.08627 0.39241 0.0
C1179 C 0.74459 0.16408 0.43885 0.0
C1180 C 0.97857 0.59793 0.32593 0.0
C1181 C 0.97372 0.62408 0.30597 0.0
H1182 H 0.99009 0.57613 0.40469 0.0
C1183 C 0.97894 0.64998 0.35302 0.0
H1184 H 0.9743 0.57727 0.29147 0.0
C1185 C 0.98796 0.64926 0.41836 0.0
C1186 C 0.99209 0.62268 0.43837 0.0
H1187 H 0.97606 0.67085 0.3394 0.0
H1188 H 0.99171 0.66956 0.45326 0.0
C1189 C 0.98765 0.59726 0.39109 0.0
C1190 C 0.48901 0.34286 0.35277 0.0
C1191 C 0.47484 0.35285 0.30282 0.0
H1192 H 0.49926 0.34377 0.4548 0.0
C1193 C 0.45763 0.37011 0.3195 0.0
H1194 H 0.50287 0.32998 0.34186 0.0
C1195 C 0.45555 0.37805 0.3845 0.0
C1196 C 0.47059 0.36889 0.43444 0.0
H1197 H 0.4459 0.37767 0.28228 0.0
H1198 H 0.44232 0.39155 0.39563 0.0
C1199 C 0.48691 0.35078 0.41768 0.0
C1200 C 0.41498 0.97175 0.67965 0.0
C1201 C 0.39638 0.95007 0.62319 0.0
H1202 H 0.42066 0.97909 0.78342 0.0
C1203 C 0.36786 0.91828 0.63033 0.0
H1204 H 0.43665 0.99668 0.67641 0.0
C1205 C 0.35855 0.9083 0.6919 0.0
C1206 C 0.37757 0.9297 0.74824 0.0
H1207 H 0.35316 0.90061 0.58836 0.0
H1208 H 0.33692 0.88336 0.69534 0.0
C1209 C 0.40577 0.96167 0.74122 0.0
C1210 C 0.16013 0.45222 0.71909 0.0
C1211 C 0.16408 0.47419 0.77333 0.0
H1212 H 0.15558 0.44352 0.61556 0.0
C1213 C 0.16667 0.50531 0.76248 0.0
H1214 H 0.15745 0.42782 0.72517 0.0
C1215 C 0.16529 0.51416 0.69953 0.0
C1216 C 0.16154 0.4923 0.64544 0.0
H1217 H 0.1704 0.52325 0.80273 0.0
H1218 H 0.16784 0.53851 0.69329 0.0
C1219 C 0.15899 0.4612 0.65608 0.0
C1220 C 0.66134 0.74767 0.72329 0.0
C1221 C 0.6319 0.72889 0.75515 0.0
H1222 H 0.6853 0.75328 0.63527 0.0
C1223 C 0.60333 0.70083 0.72005 0.0
H1224 H 0.68401 0.76916 0.74893 0.0
C1225 C 0.60419 0.69165 0.6552 0.0
C1226 C 0.63358 0.71032 0.62338 0.0
H1227 H 0.57997 0.68614 0.74237 0.0
H1228 H 0.58149 0.67016 0.6296 0.0
C1229 C 0.66214 0.73855 0.65814 0.0
C1230 C 0.41658 0.46059 0.76107 0.0
C1231 C 0.39199 0.46706 0.78581 0.0
H1232 H 0.44528 0.46294 0.68124 0.0
C1233 C 0.37813 0.48228 0.74723 0.0
H1234 H 0.42753 0.44857 0.78916 0.0
C1235 C 0.38849 0.49079 0.68568 0.0
C1236 C 0.4129 0.48417 0.66049 0.0
H1237 H 0.35962 0.4882 0.76511 0.0
H1238 H 0.37768 0.50312 0.65825 0.0
C1239 C 0.42682 0.46893 0.69914 0.0
C1240 C 0.633 0.91063 0.72682 0.0
C1241 C 0.63695 0.93224 0.78146 0.0
H1242 H 0.62892 0.9026 0.62363 0.0
C1243 C 0.64116 0.96411 0.77191 0.0
H1244 H 0.62923 0.88574 0.73226 0.0
C1245 C 0.6415 0.9741 0.70934 0.0
C1246 C 0.63729 0.95236 0.65446 0.0
H1247 H 0.64473 0.98159 0.81296 0.0
H1248 H 0.64548 0.99908 0.70417 0.0
C1249 C 0.63298 0.92044 0.66432 0.0
C1250 C 0.15378 0.67194 0.71985 0.0
C1251 C 0.14113 0.68408 0.67137 0.0
H1252 H 0.16554 0.67249 0.8212 0.0
C1253 C 0.12774 0.70468 0.6902 0.0
H1254 H 0.16468 0.65639 0.70722 0.0
C1255 C 0.12825 0.71396 0.75579 0.0
C1256 C 0.14214 0.70286 0.8042 0.0
H1257 H 0.11721 0.71397 0.65418 0.0
H1258 H 0.11809 0.73015 0.76858 0.0
C1259 C 0.15428 0.6812 0.78536 0.0
loop_
_geom_bond_atom_site_label_1
_geom_bond_atom_site_label_2
_geom_bond_distance
_geom_bond_site_symmetry_2
_ccdc_geom_bond_type
Pr0 C2 2.880 . S
Pr0 O20 2.577 . S
Pr0 O21 2.490 . S
Pr0 O22 2.695 . S
Pr0 O23 2.512 . S
Pr0 O25 2.437 1_455 S
Pr0 O28 2.436 1_455 S
Pr0 O30 2.438 . S
Pr1 C11 2.880 . S
Pr1 O22 2.436 1_655 S
Pr1 O24 2.438 . S
Pr1 O26 2.562 1_655 S
Pr1 O27 2.490 . S
Pr1 O28 2.695 . S
Pr1 O29 2.512 . S
Pr1 O31 2.437 1_655 S
C2 Pr0 2.880 . S
C2 C3 1.491 . S
C2 O20 1.278 . S
C2 O21 1.225 . S
C3 C2 1.491 . S
C3 C4 1.392 . S
C3 C8 1.356 1_455 S
C4 C3 1.392 . S
C4 C5 1.368 . S
C4 H32 0.929 . S
C5 C4 1.368 . S
C5 C6 1.386 . S
C5 H33 0.929 . S
C6 C5 1.386 . S
C6 C7 1.373 1_455 S
C7 C6 1.373 1_655 S
C7 C8 1.409 . S
C7 H34 0.931 . S
C8 C3 1.356 1_655 S
C8 C7 1.409 . S
C8 H35 0.930 . S
C9 O22 1.270 . S
C9 O23 1.248 . S
C10 O24 1.267 . S
C10 O25 1.278 . S
C11 Pr1 2.880 . S
C11 C12 1.491 . S
C11 O26 1.254 1_655 S
C11 O27 1.225 . S
C12 C11 1.491 . S
C12 C13 1.392 . S
C12 C17 1.356 1_655 S
C13 C12 1.392 . S
C13 C14 1.368 . S
C13 H36 0.929 . S
C14 C13 1.368 . S
C14 C15 1.352 1_655 S
C14 H37 0.929 . S
C15 C14 1.352 1_455 S
C15 C16 1.405 . S
C16 C15 1.405 . S
C16 C17 1.409 . S
C16 H38 0.931 . S
C17 C12 1.356 1_455 S
C17 C16 1.409 . S
C17 H39 0.930 . S
C18 O28 1.270 . S
C18 O29 1.248 . S
C19 O30 1.267 . S
C19 O31 1.278 . S
O20 Pr0 2.577 . S
O20 C2 1.278 . S
O21 Pr0 2.490 . S
O21 C2 1.225 . S
O22 Pr0 2.695 . S
O22 Pr1 2.436 1_455 S
O22 C9 1.270 . S
O23 Pr0 2.512 . S
O23 C9 1.248 . S
O24 Pr1 2.438 . S
O24 C10 1.267 . S
O25 Pr0 2.437 1_655 S
O25 C10 1.278 . S
O26 Pr1 2.562 1_455 S
O26 C11 1.254 1_455 S
O27 Pr1 2.490 . S
O27 C11 1.225 . S
O28 Pr0 2.436 1_655 S
O28 Pr1 2.695 . S
O28 C18 1.270 . S
O29 Pr1 2.512 . S
O29 C18 1.248 . S
O30 Pr0 2.438 . S
O30 C19 1.267 . S
O31 Pr1 2.437 1_455 S
O31 C19 1.278 . S
H32 C4 0.929 . S
H33 C5 0.929 . S
H34 C7 0.931 . S
H35 C8 0.930 . S
H36 C13 0.929 . S
H37 C14 0.929 . S
H38 C16 0.931 . S
H39 C17 0.930 . S
Pr40 C42 2.880 . S
Pr40 O60 2.562 . S
Pr40 O61 2.490 . S
Pr40 O62 2.695 . S
Pr40 O63 2.512 . S
Pr40 O65 2.437 . S
Pr40 O68 2.436 . S
Pr40 O70 2.438 . S
Pr41 C51 2.880 . S
Pr41 O62 2.436 . S
Pr41 O64 2.438 . S
Pr41 O66 2.562 . S
Pr41 O67 2.490 . S
Pr41 O68 2.695 . S
Pr41 O69 2.512 . S
Pr41 O71 2.437 . S
C42 Pr40 2.880 . S
C42 C43 1.491 . S
C42 O60 1.254 . S
C42 O61 1.225 . S
C43 C42 1.491 . S
C43 C44 1.392 . S
C43 C48 1.356 . S
C44 C43 1.392 . S
C44 C45 1.368 . S
C44 H72 0.929 . S
C45 C44 1.368 . S
C45 C46 1.386 . S
C45 H73 0.929 . S
C46 C45 1.386 . S
C46 C47 1.373 . S
C47 C46 1.373 . S
C47 C48 1.409 . S
C47 H74 0.931 . S
C48 C43 1.356 . S
C48 C47 1.409 . S
C48 H75 0.930 . S
C49 O62 1.270 . S
C49 O63 1.248 . S
C50 O64 1.267 . S
C50 O65 1.278 . S
C51 Pr41 2.880 . S
C51 C52 1.491 . S
C51 O66 1.254 . S
C51 O67 1.225 . S
C52 C51 1.491 . S
C52 C53 1.392 . S
C52 C57 1.356 . S
C53 C52 1.392 . S
C53 C54 1.368 . S
C53 H76 0.929 . S
C54 C53 1.368 . S
C54 C55 1.386 . S
C54 H77 0.929 . S
C55 C54 1.386 . S
C55 C56 1.373 . S
C56 C55 1.373 . S
C56 C57 1.409 . S
C56 H78 0.931 . S
C57 C52 1.356 . S
C57 C56 1.409 . S
C57 H79 0.930 . S
C58 O68 1.270 . S
C58 O69 1.248 . S
C59 O70 1.267 . S
C59 O71 1.278 . S
O60 Pr40 2.562 . S
O60 C42 1.254 . S
O61 Pr40 2.490 . S
O61 C42 1.225 . S
O62 Pr40 2.695 . S
O62 Pr41 2.436 . S
O62 C49 1.270 . S
O63 Pr40 2.512 . S
O63 C49 1.248 . S
O64 Pr41 2.438 . S
O64 C50 1.267 . S
O65 Pr40 2.437 . S
O65 C50 1.278 . S
O66 Pr41 2.562 . S
O66 C51 1.254 . S
O67 Pr41 2.490 . S
O67 C51 1.225 . S
O68 Pr40 2.436 . S
O68 Pr41 2.695 . S
O68 C58 1.270 . S
O69 Pr41 2.512 . S
O69 C58 1.248 . S
O70 Pr40 2.438 . S
O70 C59 1.267 . S
O71 Pr41 2.437 . S
O71 C59 1.278 . S
H72 C44 0.929 . S
H73 C45 0.929 . S
H74 C47 0.931 . S
H75 C48 0.930 . S
H76 C53 0.929 . S
H77 C54 0.929 . S
H78 C56 0.931 . S
H79 C57 0.930 . S
Pr80 C82 2.880 . S
Pr80 O100 2.562 1_565 S
Pr80 O101 2.490 . S
Pr80 O102 2.695 . S
Pr80 O103 2.512 . S
Pr80 O105 2.437 1_565 S
Pr80 O108 2.436 1_565 S
Pr80 O110 2.438 . S
Pr81 C91 2.880 . S
Pr81 O102 2.436 1_545 S
Pr81 O104 2.438 . S
Pr81 O106 2.562 1_545 S
Pr81 O107 2.490 . S
Pr81 O108 2.695 . S
Pr81 O109 2.512 . S
Pr81 O111 2.437 1_545 S
C82 Pr80 2.880 . S
C82 C83 1.484 1_565 S
C82 O100 1.254 1_565 S
C82 O101 1.225 . S
C83 C82 1.484 1_545 S
C83 C84 1.377 1_545 S
C83 C88 1.379 . S
C84 C83 1.377 1_565 S
C84 C85 1.368 . S
C84 H112 0.929 . S
C85 C84 1.368 . S
C85 C86 1.386 1_565 S
C85 H113 0.929 . S
C86 C85 1.386 1_545 S
C86 C87 1.373 . S
C87 C86 1.373 . S
C87 C88 1.409 . S
C87 H114 0.931 . S
C88 C83 1.379 . S
C88 C87 1.409 . S
C88 H115 0.930 . S
C89 O102 1.270 . S
C89 O103 1.248 . S
C90 O104 1.267 . S
C90 O105 1.278 . S
C91 Pr81 2.880 . S
C91 C92 1.491 . S
C91 O106 1.254 1_545 S
C91 O107 1.225 . S
C92 C91 1.491 . S
C92 C93 1.392 . S
C92 C97 1.356 1_545 S
C93 C92 1.392 . S
C93 C94 1.368 . S
C93 H116 0.929 . S
C94 C93 1.368 . S
C94 C95 1.386 1_545 S
C94 H117 0.929 . S
C95 C94 1.386 1_565 S
C95 C96 1.373 . S
C96 C95 1.373 . S
C96 C97 1.409 . S
C96 H118 0.931 . S
C97 C92 1.356 1_565 S
C97 C96 1.409 . S
C97 H119 0.930 . S
C98 O108 1.270 . S
C98 O109 1.248 . S
C99 O110 1.267 . S
C99 O111 1.278 . S
O100 Pr80 2.562 1_545 S
O100 C82 1.254 1_545 S
O101 Pr80 2.490 . S
O101 C82 1.225 . S
O102 Pr80 2.695 . S
O102 Pr81 2.436 1_565 S
O102 C89 1.270 . S
O103 Pr80 2.512 . S
O103 C89 1.248 . S
O104 Pr81 2.438 . S
O104 C90 1.267 . S
O105 Pr80 2.437 1_545 S
O105 C90 1.278 . S
O106 Pr81 2.562 1_565 S
O106 C91 1.254 1_565 S
O107 Pr81 2.490 . S
O107 C91 1.225 . S
O108 Pr80 2.436 1_545 S
O108 Pr81 2.695 . S
O108 C98 1.270 . S
O109 Pr81 2.512 . S
O109 C98 1.248 . S
O110 Pr80 2.438 . S
O110 C99 1.267 . S
O111 Pr81 2.437 1_565 S
O111 C99 1.278 . S
H112 C84 0.929 . S
H113 C85 0.929 . S
H114 C87 0.931 . S
H115 C88 0.930 . S
H116 C93 0.929 . S
H117 C94 0.929 . S
H118 C96 0.931 . S
H119 C97 0.930 . S
Pr120 C122 2.880 . S
Pr120 O140 2.548 1_455 S
Pr120 O141 2.490 . S
Pr120 O142 2.695 . S
Pr120 O143 2.512 . S
Pr120 O145 2.437 1_455 S
Pr120 O148 2.436 1_455 S
Pr120 O150 2.438 . S
Pr121 C131 2.880 . S
Pr121 O142 2.436 1_655 S
Pr121 O144 2.438 . S
Pr121 O146 2.562 1_655 S
Pr121 O147 2.490 . S
Pr121 O148 2.695 . S
Pr121 O149 2.512 . S
Pr121 O151 2.437 1_655 S
C122 Pr120 2.880 . S
C122 C123 1.491 . S
C122 O140 1.229 1_455 S
C122 O141 1.225 . S
C123 C122 1.491 . S
C123 C124 1.392 . S
C123 C128 1.356 1_455 S
C124 C123 1.392 . S
C124 C125 1.368 . S
C124 H152 0.929 . S
C125 C124 1.368 . S
C125 C126 1.386 . S
C125 H153 0.929 . S
C126 C125 1.386 . S
C126 C127 1.373 1_455 S
C127 C126 1.373 1_655 S
C127 C128 1.409 . S
C127 H154 0.931 . S
C128 C123 1.356 1_655 S
C128 C127 1.409 . S
C128 H155 0.930 . S
C129 O142 1.270 . S
C129 O143 1.248 . S
C130 O144 1.267 . S
C130 O145 1.278 . S
C131 Pr121 2.880 . S
C131 C132 1.491 . S
C131 O146 1.254 1_655 S
C131 O147 1.225 . S
C132 C131 1.491 . S
C132 C133 1.392 . S
C132 C137 1.356 1_655 S
C133 C132 1.392 . S
C133 C134 1.368 . S
C133 H156 0.929 . S
C134 C133 1.368 . S
C134 C135 1.386 . S
C134 H157 0.929 . S
C135 C134 1.386 . S
C135 C136 1.373 1_655 S
C136 C135 1.373 1_455 S
C136 C137 1.409 . S
C136 H158 0.931 . S
C137 C132 1.356 1_455 S
C137 C136 1.409 . S
C137 H159 0.930 . S
C138 O148 1.270 . S
C138 O149 1.248 . S
C139 O150 1.267 . S
C139 O151 1.278 . S
O140 Pr120 2.548 1_655 S
O140 C122 1.229 1_655 S
O141 Pr120 2.490 . S
O141 C122 1.225 . S
O142 Pr120 2.695 . S
O142 Pr121 2.436 1_455 S
O142 C129 1.270 . S
O143 Pr120 2.512 . S
O143 C129 1.248 . S
O144 Pr121 2.438 . S
O144 C130 1.267 . S
O145 Pr120 2.437 1_655 S
O145 C130 1.278 . S
O146 Pr121 2.562 1_455 S
O146 C131 1.254 1_455 S
O147 Pr121 2.490 . S
O147 C131 1.225 . S
O148 Pr120 2.436 1_655 S
O148 Pr121 2.695 . S
O148 C138 1.270 . S
O149 Pr121 2.512 . S
O149 C138 1.248 . S
O150 Pr120 2.438 . S
O150 C139 1.267 . S
O151 Pr121 2.437 1_455 S
O151 C139 1.278 . S
H152 C124 0.929 . S
H153 C125 0.929 . S
H154 C127 0.931 . S
H155 C128 0.930 . S
H156 C133 0.929 . S
H157 C134 0.929 . S
H158 C136 0.931 . S
H159 C137 0.930 . S
Pr160 C162 2.880 . S
Pr160 O180 2.562 . S
Pr160 O181 2.490 . S
Pr160 O182 2.695 . S
Pr160 O183 2.512 . S
Pr160 O185 2.437 . S
Pr160 O188 2.436 . S
Pr160 O190 2.438 . S
Pr161 C171 2.880 . S
Pr161 O182 2.436 . S
Pr161 O184 2.438 . S
Pr161 O186 2.562 . S
Pr161 O187 2.490 . S
Pr161 O188 2.695 . S
Pr161 O189 2.512 . S
Pr161 O191 2.437 . S
C162 Pr160 2.880 . S
C162 C163 1.491 . S
C162 O180 1.254 . S
C162 O181 1.225 . S
C163 C162 1.491 . S
C163 C164 1.392 . S
C163 C168 1.356 . S
C164 C163 1.392 . S
C164 C165 1.368 . S
C164 H192 0.929 . S
C165 C164 1.368 . S
C165 C166 1.386 . S
C165 H193 0.929 . S
C166 C165 1.386 . S
C166 C167 1.373 . S
C167 C166 1.373 . S
C167 C168 1.409 . S
C167 H194 0.931 . S
C168 C163 1.356 . S
C168 C167 1.409 . S
C168 H195 0.930 . S
C169 O182 1.270 . S
C169 O183 1.248 . S
C170 O184 1.267 . S
C170 O185 1.278 . S
C171 Pr161 2.880 . S
C171 C172 1.491 . S
C171 O186 1.254 . S
C171 O187 1.225 . S
C172 C171 1.491 . S
C172 C173 1.392 . S
C172 C177 1.356 . S
C173 C172 1.392 . S
C173 C174 1.368 . S
C173 H196 0.929 . S
C174 C173 1.368 . S
C174 C175 1.386 . S
C174 H197 0.929 . S
C175 C174 1.386 . S
C175 C176 1.373 . S
C176 C175 1.373 . S
C176 C177 1.409 . S
C176 H198 0.931 . S
C177 C172 1.356 . S
C177 C176 1.409 . S
C177 H199 0.930 . S
C178 O188 1.270 . S
C178 O189 1.248 . S
C179 O190 1.267 . S
C179 O191 1.278 . S
O180 Pr160 2.562 . S
O180 C162 1.254 . S
O181 Pr160 2.490 . S
O181 C162 1.225 . S
O182 Pr160 2.695 . S
O182 Pr161 2.436 . S
O182 C169 1.270 . S
O183 Pr160 2.512 . S
O183 C169 1.248 . S
O184 Pr161 2.438 . S
O184 C170 1.267 . S
O185 Pr160 2.437 . S
O185 C170 1.278 . S
O186 Pr161 2.562 . S
O186 C171 1.254 . S
O187 Pr161 2.490 . S
O187 C171 1.225 . S
O188 Pr160 2.436 . S
O188 Pr161 2.695 . S
O188 C178 1.270 . S
O189 Pr161 2.512 . S
O189 C178 1.248 . S
O190 Pr160 2.438 . S
O190 C179 1.267 . S
O191 Pr161 2.437 . S
O191 C179 1.278 . S
H192 C164 0.929 . S
H193 C165 0.929 . S
H194 C167 0.931 . S
H195 C168 0.930 . S
H196 C173 0.929 . S
H197 C174 0.929 . S
H198 C176 0.931 . S
H199 C177 0.930 . S
Pr200 C202 2.880 . S
Pr200 O220 2.562 1_565 S
Pr200 O221 2.490 . S
Pr200 O222 2.695 . S
Pr200 O223 2.512 . S
Pr200 O225 2.437 1_565 S
Pr200 O228 2.436 1_565 S
Pr200 O230 2.438 . S
Pr201 C211 2.880 . S
Pr201 O222 2.436 1_545 S
Pr201 O224 2.438 . S
Pr201 O226 2.562 1_545 S
Pr201 O227 2.490 . S
Pr201 O228 2.695 . S
Pr201 O229 2.512 . S
Pr201 O231 2.437 1_545 S
C202 Pr200 2.880 . S
C202 C203 1.491 1_565 S
C202 O220 1.254 1_565 S
C202 O221 1.225 . S
C203 C202 1.491 1_545 S
C203 C204 1.392 1_545 S
C203 C208 1.356 . S
C204 C203 1.392 1_565 S
C204 C205 1.368 . S
C204 H232 0.929 . S
C205 C204 1.368 . S
C205 C206 1.386 1_565 S
C205 H233 0.929 . S
C206 C205 1.386 1_545 S
C206 C207 1.373 . S
C207 C206 1.373 . S
C207 C208 1.409 . S
C207 H234 0.931 . S
C208 C203 1.356 . S
C208 C207 1.409 . S
C208 H235 0.930 . S
C209 O222 1.270 . S
C209 O223 1.248 . S
C210 O224 1.267 . S
C210 O225 1.278 . S
C211 Pr201 2.880 . S
C211 C212 1.491 . S
C211 O226 1.254 1_545 S
C211 O227 1.225 . S
C212 C211 1.491 . S
C212 C213 1.392 . S
C212 C217 1.356 1_545 S
C213 C212 1.392 . S
C213 C214 1.368 . S
C213 H236 0.929 . S
C214 C213 1.368 . S
C214 C215 1.386 1_545 S
C214 H237 0.929 . S
C215 C214 1.386 1_565 S
C215 C216 1.373 . S
C216 C215 1.373 . S
C216 C217 1.409 . S
C216 H238 0.931 . S
C217 C212 1.356 1_565 S
C217 C216 1.409 . S
C217 H239 0.930 . S
C218 O228 1.270 . S
C218 O229 1.248 . S
C219 O230 1.267 . S
C219 O231 1.278 . S
O220 Pr200 2.562 1_545 S
O220 C202 1.254 1_545 S
O221 Pr200 2.490 . S
O221 C202 1.225 . S
O222 Pr200 2.695 . S
O222 Pr201 2.436 1_565 S
O222 C209 1.270 . S
O223 Pr200 2.512 . S
O223 C209 1.248 . S
O224 Pr201 2.438 . S
O224 C210 1.267 . S
O225 Pr200 2.437 1_545 S
O225 C210 1.278 . S
O226 Pr201 2.562 1_565 S
O226 C211 1.254 1_565 S
O227 Pr201 2.490 . S
O227 C211 1.225 . S
O228 Pr200 2.436 1_545 S
O228 Pr201 2.695 . S
O228 C218 1.270 . S
O229 Pr201 2.512 . S
O229 C218 1.248 . S
O230 Pr200 2.438 . S
O230 C219 1.267 . S
O231 Pr201 2.437 1_565 S
O231 C219 1.278 . S
H232 C204 0.929 . S
H233 C205 0.929 . S
H234 C207 0.931 . S
H235 C208 0.930 . S
H236 C213 0.929 . S
H237 C214 0.929 . S
H238 C216 0.931 . S
H239 C217 0.930 . S
Pr240 C242 2.880 . S
Pr240 O260 2.562 . S
Pr240 O261 2.490 . S
Pr240 O262 2.695 . S
Pr240 O263 2.512 . S
Pr240 O265 2.437 . S
Pr240 O268 2.436 . S
Pr240 O270 2.438 . S
Pr241 C251 2.880 . S
Pr241 O262 2.436 . S
Pr241 O264 2.438 . S
Pr241 O266 2.562 . S
Pr241 O267 2.490 . S
Pr241 O268 2.695 . S
Pr241 O269 2.512 . S
Pr241 O271 2.437 . S
C242 Pr240 2.880 . S
C242 C243 1.491 . S
C242 O260 1.254 . S
C242 O261 1.225 . S
C243 C242 1.491 . S
C243 C244 1.392 . S
C243 C248 1.356 . S
C244 C243 1.392 . S
C244 C245 1.368 . S
C244 H272 0.929 . S
C245 C244 1.368 . S
C245 C246 1.386 . S
C245 H273 0.929 . S
C246 C245 1.386 . S
C246 C247 1.373 . S
C247 C246 1.373 . S
C247 C248 1.409 . S
C247 H274 0.931 . S
C248 C243 1.356 . S
C248 C247 1.409 . S
C248 H275 0.930 . S
C249 O262 1.270 . S
C249 O263 1.248 . S
C250 O264 1.267 . S
C250 O265 1.278 . S
C251 Pr241 2.880 . S
C251 C252 1.491 1_556 S
C251 O266 1.254 . S
C251 O267 1.225 . S
C252 C251 1.491 1_554 S
C252 C253 1.392 . S
C252 C257 1.356 . S
C253 C252 1.392 . S
C253 C254 1.368 . S
C253 H276 0.929 . S
C254 C253 1.368 . S
C254 C255 1.386 . S
C254 H277 0.929 . S
C255 C254 1.386 . S
C255 C256 1.373 . S
C256 C255 1.373 . S
C256 C257 1.409 . S
C256 H278 0.931 . S
C257 C252 1.356 . S
C257 C256 1.409 . S
C257 H279 0.930 . S
C258 O268 1.270 . S
C258 O269 1.248 . S
C259 O270 1.267 . S
C259 O271 1.278 . S
O260 Pr240 2.562 . S
O260 C242 1.254 . S
O261 Pr240 2.490 . S
O261 C242 1.225 . S
O262 Pr240 2.695 . S
O262 Pr241 2.436 . S
O262 C249 1.270 . S
O263 Pr240 2.512 . S
O263 C249 1.248 . S
O264 Pr241 2.438 . S
O264 C250 1.267 . S
O265 Pr240 2.437 . S
O265 C250 1.278 . S
O266 Pr241 2.562 . S
O266 C251 1.254 . S
O267 Pr241 2.490 . S
O267 C251 1.225 . S
O268 Pr240 2.436 . S
O268 Pr241 2.695 . S
O268 C258 1.270 . S
O269 Pr241 2.512 . S
O269 C258 1.248 . S
O270 Pr240 2.438 . S
O270 C259 1.267 . S
O271 Pr241 2.437 . S
O271 C259 1.278 . S
H272 C244 0.929 . S
H273 C245 0.929 . S
H274 C247 0.931 . S
H275 C248 0.930 . S
H276 C253 0.929 . S
H277 C254 0.929 . S
H278 C256 0.931 . S
H279 C257 0.930 . S
Pr280 C282 2.880 . S
Pr280 O300 2.562 . S
Pr280 O301 2.490 . S
Pr280 O302 2.695 . S
Pr280 O303 2.512 . S
Pr280 O305 2.437 . S
Pr280 O308 2.436 . S
Pr280 O310 2.438 . S
Pr281 C291 2.880 . S
Pr281 O302 2.436 . S
Pr281 O304 2.438 . S
Pr281 O306 2.562 . S
Pr281 O307 2.490 . S
Pr281 O308 2.695 . S
Pr281 O309 2.512 . S
Pr281 O311 2.437 . S
C282 Pr280 2.880 . S
C282 C283 1.491 . S
C282 O300 1.254 . S
C282 O301 1.225 . S
C283 C282 1.491 . S
C283 C284 1.392 . S
C283 C288 1.356 . S
C284 C283 1.392 . S
C284 C285 1.368 . S
C284 H312 0.929 . S
C285 C284 1.368 . S
C285 C286 1.386 . S
C285 H313 0.929 . S
C286 C285 1.386 . S
C286 C287 1.373 . S
C287 C286 1.373 . S
C287 C288 1.409 . S
C287 H314 0.931 . S
C288 C283 1.356 . S
C288 C287 1.409 . S
C288 H315 0.930 . S
C289 O302 1.270 . S
C289 O303 1.248 . S
C290 O304 1.267 . S
C290 O305 1.278 . S
C291 Pr281 2.880 . S
C291 C292 1.491 1_556 S
C291 O306 1.254 . S
C291 O307 1.225 . S
C292 C291 1.491 1_554 S
C292 C293 1.392 . S
C292 C297 1.356 . S
C293 C292 1.392 . S
C293 C294 1.368 . S
C293 H316 0.929 . S
C294 C293 1.368 . S
C294 C295 1.386 . S
C294 H317 0.929 . S
C295 C294 1.386 . S
C295 C296 1.373 . S
C296 C295 1.373 . S
C296 C297 1.409 . S
C296 H318 0.931 . S
C297 C292 1.356 . S
C297 C296 1.409 . S
C297 H319 0.930 . S
C298 O308 1.270 . S
C298 O309 1.248 . S
C299 O310 1.267 . S
C299 O311 1.278 . S
O300 Pr280 2.562 . S
O300 C282 1.254 . S
O301 Pr280 2.490 . S
O301 C282 1.225 . S
O302 Pr280 2.695 . S
O302 Pr281 2.436 . S
O302 C289 1.270 . S
O303 Pr280 2.512 . S
O303 C289 1.248 . S
O304 Pr281 2.438 . S
O304 C290 1.267 . S
O305 Pr280 2.437 . S
O305 C290 1.278 . S
O306 Pr281 2.562 . S
O306 C291 1.254 . S
O307 Pr281 2.490 . S
O307 C291 1.225 . S
O308 Pr280 2.436 . S
O308 Pr281 2.695 . S
O308 C298 1.270 . S
O309 Pr281 2.512 . S
O309 C298 1.248 . S
O310 Pr280 2.438 . S
O310 C299 1.267 . S
O311 Pr281 2.437 . S
O311 C299 1.278 . S
H312 C284 0.929 . S
H313 C285 0.929 . S
H314 C287 0.931 . S
H315 C288 0.930 . S
H316 C293 0.929 . S
H317 C294 0.929 . S
H318 C296 0.931 . S
H319 C297 0.930 . S
Pr320 C322 2.880 . S
Pr320 O340 2.562 . S
Pr320 O341 2.490 . S
Pr320 O342 2.695 . S
Pr320 O343 2.512 . S
Pr320 O345 2.437 . S
Pr320 O348 2.436 . S
Pr320 O350 2.438 . S
Pr321 C331 2.880 . S
Pr321 O342 2.436 . S
Pr321 O344 2.438 . S
Pr321 O346 2.562 . S
Pr321 O347 2.490 . S
Pr321 O348 2.695 . S
Pr321 O349 2.512 . S
Pr321 O351 2.437 . S
C322 Pr320 2.880 . S
C322 C323 1.491 . S
C322 O340 1.254 . S
C322 O341 1.225 . S
C323 C322 1.491 . S
C323 C324 1.392 . S
C323 C328 1.356 . S
C324 C323 1.392 . S
C324 C325 1.368 . S
C324 H352 0.929 . S
C325 C324 1.368 . S
C325 C326 1.386 . S
C325 H353 0.929 . S
C326 C325 1.386 . S
C326 C327 1.373 . S
C327 C326 1.373 . S
C327 C328 1.409 . S
C327 H354 0.931 . S
C328 C323 1.356 . S
C328 C327 1.409 . S
C328 H355 0.930 . S
C329 O342 1.270 . S
C329 O343 1.248 . S
C330 O344 1.267 . S
C330 O345 1.278 . S
C331 Pr321 2.880 . S
C331 C332 1.491 1_556 S
C331 O346 1.254 . S
C331 O347 1.225 . S
C332 C331 1.491 1_554 S
C332 C333 1.392 . S
C332 C337 1.356 . S
C333 C332 1.392 . S
C333 C334 1.368 . S
C333 H356 0.929 . S
C334 C333 1.368 . S
C334 C335 1.386 . S
C334 H357 0.929 . S
C335 C334 1.386 . S
C335 C336 1.373 . S
C336 C335 1.373 . S
C336 C337 1.409 . S
C336 H358 0.931 . S
C337 C332 1.356 . S
C337 C336 1.409 . S
C337 H359 0.930 . S
C338 O348 1.270 . S
C338 O349 1.248 . S
C339 O350 1.267 . S
C339 O351 1.278 . S
O340 Pr320 2.562 . S
O340 C322 1.254 . S
O341 Pr320 2.490 . S
O341 C322 1.225 . S
O342 Pr320 2.695 . S
O342 Pr321 2.436 . S
O342 C329 1.270 . S
O343 Pr320 2.512 . S
O343 C329 1.248 . S
O344 Pr321 2.438 . S
O344 C330 1.267 . S
O345 Pr320 2.437 . S
O345 C330 1.278 . S
O346 Pr321 2.562 . S
O346 C331 1.254 . S
O347 Pr321 2.490 . S
O347 C331 1.225 . S
O348 Pr320 2.436 . S
O348 Pr321 2.695 . S
O348 C338 1.270 . S
O349 Pr321 2.512 . S
O349 C338 1.248 . S
O350 Pr320 2.438 . S
O350 C339 1.267 . S
O351 Pr321 2.437 . S
O351 C339 1.278 . S
H352 C324 0.929 . S
H353 C325 0.929 . S
H354 C327 0.931 . S
H355 C328 0.930 . S
H356 C333 0.929 . S
H357 C334 0.929 . S
H358 C336 0.931 . S
H359 C337 0.930 . S
Pr360 C362 2.880 1_556 S
Pr360 O380 2.562 . S
Pr360 O381 2.490 . S
Pr360 O382 2.695 . S
Pr360 O383 2.512 . S
Pr360 O385 2.437 . S
Pr360 O388 2.436 . S
Pr360 O390 2.438 . S
Pr361 C371 2.880 . S
Pr361 O382 2.436 . S
Pr361 O384 2.438 . S
Pr361 O386 2.562 . S
Pr361 O387 2.490 . S
Pr361 O388 2.695 . S
Pr361 O389 2.512 . S
Pr361 O391 2.437 . S
C362 Pr360 2.880 1_554 S
C362 C363 1.491 . S
C362 O380 1.254 1_554 S
C362 O381 1.225 1_554 S
C363 C362 1.491 . S
C363 C364 1.392 . S
C363 C368 1.356 . S
C364 C363 1.392 . S
C364 C365 1.368 . S
C364 H392 0.929 . S
C365 C364 1.368 . S
C365 C366 1.386 . S
C365 H393 0.929 . S
C366 C365 1.386 . S
C366 C367 1.373 . S
C367 C366 1.373 . S
C367 C368 1.409 . S
C367 H394 0.931 . S
C368 C363 1.356 . S
C368 C367 1.409 . S
C368 H395 0.930 . S
C369 O382 1.270 . S
C369 O383 1.248 . S
C370 O384 1.267 . S
C370 O385 1.278 . S
C371 Pr361 2.880 . S
C371 C372 1.491 . S
C371 O386 1.254 . S
C371 O387 1.225 . S
C372 C371 1.491 . S
C372 C373 1.392 . S
C372 C377 1.356 . S
C373 C372 1.392 . S
C373 C374 1.368 . S
C373 H396 0.929 . S
C374 C373 1.368 . S
C374 C375 1.386 . S
C374 H397 0.929 . S
C375 C374 1.386 . S
C375 C376 1.373 . S
C376 C375 1.373 . S
C376 C377 1.409 . S
C376 H398 0.931 . S
C377 C372 1.356 . S
C377 C376 1.409 . S
C377 H399 0.930 . S
C378 O388 1.270 . S
C378 O389 1.248 . S
C379 O390 1.267 . S
C379 O391 1.278 . S
O380 Pr360 2.562 . S
O380 C362 1.254 1_556 S
O381 Pr360 2.490 . S
O381 C362 1.225 1_556 S
O382 Pr360 2.695 . S
O382 Pr361 2.436 . S
O382 C369 1.270 . S
O383 Pr360 2.512 . S
O383 C369 1.248 . S
O384 Pr361 2.438 . S
O384 C370 1.267 . S
O385 Pr360 2.437 . S
O385 C370 1.278 . S
O386 Pr361 2.562 . S
O386 C371 1.254 . S
O387 Pr361 2.490 . S
O387 C371 1.225 . S
O388 Pr360 2.436 . S
O388 Pr361 2.695 . S
O388 C378 1.270 . S
O389 Pr361 2.512 . S
O389 C378 1.248 . S
O390 Pr360 2.438 . S
O390 C379 1.267 . S
O391 Pr361 2.437 . S
O391 C379 1.278 . S
H392 C364 0.929 . S
H393 C365 0.929 . S
H394 C367 0.931 . S
H395 C368 0.930 . S
H396 C373 0.929 . S
H397 C374 0.929 . S
H398 C376 0.931 . S
H399 C377 0.930 . S
Pr400 C402 2.880 1_556 S
Pr400 O420 2.562 . S
Pr400 O421 2.490 1_556 S
Pr400 O422 2.695 . S
Pr400 O423 2.512 . S
Pr400 O425 2.437 . S
Pr400 O428 2.436 . S
Pr400 O430 2.438 . S
Pr401 C411 2.880 . S
Pr401 O422 2.436 . S
Pr401 O424 2.438 . S
Pr401 O426 2.562 . S
Pr401 O427 2.490 . S
Pr401 O428 2.695 . S
Pr401 O429 2.512 . S
Pr401 O431 2.437 . S
C402 Pr400 2.880 1_554 S
C402 C403 1.491 . S
C402 O420 1.254 1_554 S
C402 O421 1.225 . S
C403 C402 1.491 . S
C403 C404 1.392 . S
C403 C408 1.356 . S
C404 C403 1.392 . S
C404 C405 1.368 . S
C404 H432 0.929 . S
C405 C404 1.368 . S
C405 C406 1.386 . S
C405 H433 0.929 . S
C406 C405 1.386 . S
C406 C407 1.373 . S
C407 C406 1.373 . S
C407 C408 1.409 . S
C407 H434 0.931 . S
C408 C403 1.356 . S
C408 C407 1.409 . S
C408 H435 0.930 . S
C409 O422 1.270 . S
C409 O423 1.248 . S
C410 O424 1.267 . S
C410 O425 1.278 . S
C411 Pr401 2.880 . S
C411 C412 1.491 . S
C411 O426 1.254 . S
C411 O427 1.225 . S
C412 C411 1.491 . S
C412 C413 1.392 . S
C412 C417 1.356 . S
C413 C412 1.392 . S
C413 C414 1.368 . S
C413 H436 0.929 . S
C414 C413 1.368 . S
C414 C415 1.386 . S
C414 H437 0.929 . S
C415 C414 1.386 . S
C415 C416 1.373 . S
C416 C415 1.373 . S
C416 C417 1.409 . S
C416 H438 0.931 . S
C417 C412 1.356 . S
C417 C416 1.409 . S
C417 H439 0.930 . S
C418 O428 1.270 . S
C418 O429 1.248 . S
C419 O430 1.267 . S
C419 O431 1.278 . S
O420 Pr400 2.562 . S
O420 C402 1.254 1_556 S
O421 Pr400 2.490 1_554 S
O421 C402 1.225 . S
O422 Pr400 2.695 . S
O422 Pr401 2.436 . S
O422 C409 1.270 . S
O423 Pr400 2.512 . S
O423 C409 1.248 . S
O424 Pr401 2.438 . S
O424 C410 1.267 . S
O425 Pr400 2.437 . S
O425 C410 1.278 . S
O426 Pr401 2.562 . S
O426 C411 1.254 . S
O427 Pr401 2.490 . S
O427 C411 1.225 . S
O428 Pr400 2.436 . S
O428 Pr401 2.695 . S
O428 C418 1.270 . S
O429 Pr401 2.512 . S
O429 C418 1.248 . S
O430 Pr400 2.438 . S
O430 C419 1.267 . S
O431 Pr401 2.437 . S
O431 C419 1.278 . S
H432 C404 0.929 . S
H433 C405 0.929 . S
H434 C407 0.931 . S
H435 C408 0.930 . S
H436 C413 0.929 . S
H437 C414 0.929 . S
H438 C416 0.931 . S
H439 C417 0.930 . S
Pr440 C442 2.880 1_556 S
Pr440 O460 2.562 . S
Pr440 O461 2.490 . S
Pr440 O462 2.695 . S
Pr440 O463 2.512 . S
Pr440 O465 2.437 . S
Pr440 O468 2.436 . S
Pr440 O470 2.438 . S
Pr441 C451 2.880 . S
Pr441 O462 2.436 . S
Pr441 O464 2.438 . S
Pr441 O466 2.562 . S
Pr441 O467 2.490 . S
Pr441 O468 2.695 . S
Pr441 O469 2.512 . S
Pr441 O471 2.437 . S
C442 Pr440 2.880 1_554 S
C442 C443 1.491 . S
C442 O460 1.254 1_554 S
C442 O461 1.225 1_554 S
C443 C442 1.491 . S
C443 C444 1.392 . S
C443 C448 1.356 . S
C444 C443 1.392 . S
C444 C445 1.368 . S
C444 H472 0.929 . S
C445 C444 1.368 . S
C445 C446 1.386 . S
C445 H473 0.929 . S
C446 C445 1.386 . S
C446 C447 1.373 . S
C447 C446 1.373 . S
C447 C448 1.409 . S
C447 H474 0.931 . S
C448 C443 1.356 . S
C448 C447 1.409 . S
C448 H475 0.930 . S
C449 O462 1.270 . S
C449 O463 1.248 . S
C450 O464 1.267 . S
C450 O465 1.278 . S
C451 Pr441 2.880 . S
C451 C452 1.491 . S
C451 O466 1.254 . S
C451 O467 1.225 . S
C452 C451 1.491 . S
C452 C453 1.392 . S
C452 C457 1.356 . S
C453 C452 1.392 . S
C453 C454 1.368 . S
C453 H476 0.929 . S
C454 C453 1.368 . S
C454 C455 1.386 . S
C454 H477 0.929 . S
C455 C454 1.386 . S
C455 C456 1.373 . S
C456 C455 1.373 . S
C456 C457 1.409 . S
C456 H478 0.931 . S
C457 C452 1.356 . S
C457 C456 1.409 . S
C457 H479 0.930 . S
C458 O468 1.270 . S
C458 O469 1.248 . S
C459 O470 1.267 . S
C459 O471 1.278 . S
O460 Pr440 2.562 . S
O460 C442 1.254 1_556 S
O461 Pr440 2.490 . S
O461 C442 1.225 1_556 S
O462 Pr440 2.695 . S
O462 Pr441 2.436 . S
O462 C449 1.270 . S
O463 Pr440 2.512 . S
O463 C449 1.248 . S
O464 Pr441 2.438 . S
O464 C450 1.267 . S
O465 Pr440 2.437 . S
O465 C450 1.278 . S
O466 Pr441 2.562 . S
O466 C451 1.254 . S
O467 Pr441 2.490 . S
O467 C451 1.225 . S
O468 Pr440 2.436 . S
O468 Pr441 2.695 . S
O468 C458 1.270 . S
O469 Pr441 2.512 . S
O469 C458 1.248 . S
O470 Pr440 2.438 . S
O470 C459 1.267 . S
O471 Pr441 2.437 . S
O471 C459 1.278 . S
H472 C444 0.929 . S
H473 C445 0.929 . S
H474 C447 0.931 . S
H475 C448 0.930 . S
H476 C453 0.929 . S
H477 C454 0.929 . S
H478 C456 0.931 . S
H479 C457 0.930 . S
Pr480 C482 2.880 . S
Pr480 O500 2.562 . S
Pr480 O501 2.490 . S
Pr480 O502 2.695 . S
Pr480 O503 2.512 . S
Pr480 O505 2.437 . S
Pr480 O508 2.436 . S
Pr480 O510 2.438 . S
Pr481 C491 2.880 1_554 S
Pr481 O502 2.436 . S
Pr481 O504 2.438 . S
Pr481 O506 2.562 1_554 S
Pr481 O507 2.490 1_554 S
Pr481 O508 2.695 . S
Pr481 O509 2.512 . S
Pr481 O511 2.437 . S
C482 Pr480 2.880 . S
C482 C483 1.491 . S
C482 O500 1.254 . S
C482 O501 1.225 . S
C483 C482 1.491 . S
C483 C484 1.392 . S
C483 C488 1.356 . S
C484 C483 1.392 . S
C484 C485 1.368 . S
C484 H512 0.929 . S
C485 C484 1.368 . S
C485 C486 1.386 . S
C485 H513 0.929 . S
C486 C485 1.386 . S
C486 C487 1.373 . S
C487 C486 1.373 . S
C487 C488 1.409 . S
C487 H514 0.931 . S
C488 C483 1.356 . S
C488 C487 1.409 . S
C488 H515 0.930 . S
C489 O502 1.270 . S
C489 O503 1.248 . S
C490 O504 1.267 . S
C490 O505 1.278 . S
C491 Pr481 2.880 1_556 S
C491 C492 1.491 . S
C491 O506 1.254 . S
C491 O507 1.225 . S
C492 C491 1.491 . S
C492 C493 1.392 . S
C492 C497 1.356 . S
C493 C492 1.392 . S
C493 C494 1.368 . S
C493 H516 0.929 . S
C494 C493 1.368 . S
C494 C495 1.386 . S
C494 H517 0.929 . S
C495 C494 1.386 . S
C495 C496 1.373 . S
C496 C495 1.373 . S
C496 C497 1.409 . S
C496 H518 0.931 . S
C497 C492 1.356 . S
C497 C496 1.409 . S
C497 H519 0.930 . S
C498 O508 1.270 . S
C498 O509 1.248 . S
C499 O510 1.267 . S
C499 O511 1.278 . S
O500 Pr480 2.562 . S
O500 C482 1.254 . S
O501 Pr480 2.490 . S
O501 C482 1.225 . S
O502 Pr480 2.695 . S
O502 Pr481 2.436 . S
O502 C489 1.270 . S
O503 Pr480 2.512 . S
O503 C489 1.248 . S
O504 Pr481 2.438 . S
O504 C490 1.267 . S
O505 Pr480 2.437 . S
O505 C490 1.278 . S
O506 Pr481 2.562 1_556 S
O506 C491 1.254 . S
O507 Pr481 2.490 1_556 S
O507 C491 1.225 . S
O508 Pr480 2.436 . S
O508 Pr481 2.695 . S
O508 C498 1.270 . S
O509 Pr481 2.512 . S
O509 C498 1.248 . S
O510 Pr480 2.438 . S
O510 C499 1.267 . S
O511 Pr481 2.437 . S
O511 C499 1.278 . S
H512 C484 0.929 . S
H513 C485 0.929 . S
H514 C487 0.931 . S
H515 C488 0.930 . S
H516 C493 0.929 . S
H517 C494 0.929 . S
H518 C496 0.931 . S
H519 C497 0.930 . S
Pr520 C522 2.880 1_554 S
Pr520 O540 2.562 1_554 S
Pr520 O541 2.490 1_554 S
Pr520 O542 2.695 . S
Pr520 O543 2.512 . S
Pr520 O545 2.437 . S
Pr520 O548 2.436 . S
Pr520 O550 2.438 . S
Pr521 C531 2.880 . S
Pr521 O542 2.436 . S
Pr521 O544 2.438 . S
Pr521 O546 2.562 . S
Pr521 O547 2.490 . S
Pr521 O548 2.695 . S
Pr521 O549 2.512 . S
Pr521 O551 2.437 . S
C522 Pr520 2.880 1_556 S
C522 C523 1.491 . S
C522 O540 1.254 . S
C522 O541 1.225 . S
C523 C522 1.491 . S
C523 C524 1.392 . S
C523 C528 1.356 . S
C524 C523 1.392 . S
C524 C525 1.368 . S
C524 H552 0.929 . S
C525 C524 1.368 . S
C525 C526 1.386 . S
C525 H553 0.929 . S
C526 C525 1.386 . S
C526 C527 1.373 . S
C527 C526 1.373 . S
C527 C528 1.409 . S
C527 H554 0.931 . S
C528 C523 1.356 . S
C528 C527 1.409 . S
C528 H555 0.930 . S
C529 O542 1.270 . S
C529 O543 1.248 . S
C530 O544 1.267 . S
C530 O545 1.278 . S
C531 Pr521 2.880 . S
C531 C532 1.491 . S
C531 O546 1.254 . S
C531 O547 1.225 . S
C532 C531 1.491 . S
C532 C533 1.392 . S
C532 C537 1.356 . S
C533 C532 1.392 . S
C533 C534 1.368 . S
C533 H556 0.929 . S
C534 C533 1.368 . S
C534 C535 1.386 . S
C534 H557 0.929 . S
C535 C534 1.386 . S
C535 C536 1.373 . S
C536 C535 1.373 . S
C536 C537 1.409 . S
C536 H558 0.931 . S
C537 C532 1.356 . S
C537 C536 1.409 . S
C537 H559 0.930 . S
C538 O548 1.270 . S
C538 O549 1.248 . S
C539 O550 1.267 . S
C539 O551 1.278 . S
O540 Pr520 2.562 1_556 S
O540 C522 1.254 . S
O541 Pr520 2.490 1_556 S
O541 C522 1.225 . S
O542 Pr520 2.695 . S
O542 Pr521 2.436 . S
O542 C529 1.270 . S
O543 Pr520 2.512 . S
O543 C529 1.248 . S
O544 Pr521 2.438 . S
O544 C530 1.267 . S
O545 Pr520 2.437 . S
O545 C530 1.278 . S
O546 Pr521 2.562 . S
O546 C531 1.254 . S
O547 Pr521 2.490 . S
O547 C531 1.225 . S
O548 Pr520 2.436 . S
O548 Pr521 2.695 . S
O548 C538 1.270 . S
O549 Pr521 2.512 . S
O549 C538 1.248 . S
O550 Pr520 2.438 . S
O550 C539 1.267 . S
O551 Pr521 2.437 . S
O551 C539 1.278 . S
H552 C524 0.929 . S
H553 C525 0.929 . S
H554 C527 0.931 . S
H555 C528 0.930 . S
H556 C533 0.929 . S
H557 C534 0.929 . S
H558 C536 0.931 . S
H559 C537 0.930 . S
Pr560 C562 2.880 . S
Pr560 O580 2.562 . S
Pr560 O581 2.490 . S
Pr560 O582 2.695 . S
Pr560 O583 2.512 . S
Pr560 O585 2.437 . S
Pr560 O588 2.436 . S
Pr560 O590 2.438 . S
Pr561 C571 2.880 1_554 S
Pr561 O582 2.436 . S
Pr561 O584 2.438 . S
Pr561 O586 2.562 . S
Pr561 O587 2.490 . S
Pr561 O588 2.695 . S
Pr561 O589 2.512 . S
Pr561 O591 2.437 . S
C562 Pr560 2.880 . S
C562 C563 1.491 . S
C562 O580 1.254 . S
C562 O581 1.225 . S
C563 C562 1.491 . S
C563 C564 1.392 . S
C563 C568 1.356 . S
C564 C563 1.392 . S
C564 C565 1.368 . S
C564 H592 0.929 . S
C565 C564 1.368 . S
C565 C566 1.386 . S
C565 H593 0.929 . S
C566 C565 1.386 . S
C566 C567 1.373 . S
C567 C566 1.373 . S
C567 C568 1.409 . S
C567 H594 0.931 . S
C568 C563 1.356 . S
C568 C567 1.409 . S
C568 H595 0.930 . S
C569 O582 1.270 . S
C569 O583 1.248 . S
C570 O584 1.267 . S
C570 O585 1.278 . S
C571 Pr561 2.880 1_556 S
C571 C572 1.491 . S
C571 O586 1.254 1_556 S
C571 O587 1.225 1_556 S
C572 C571 1.491 . S
C572 C573 1.392 . S
C572 C577 1.356 . S
C573 C572 1.392 . S
C573 C574 1.368 . S
C573 H596 0.929 . S
C574 C573 1.368 . S
C574 C575 1.386 . S
C574 H597 0.929 . S
C575 C574 1.386 . S
C575 C576 1.373 . S
C576 C575 1.373 . S
C576 C577 1.409 . S
C576 H598 0.931 . S
C577 C572 1.356 . S
C577 C576 1.409 . S
C577 H599 0.930 . S
C578 O588 1.270 . S
C578 O589 1.248 . S
C579 O590 1.267 . S
C579 O591 1.278 . S
O580 Pr560 2.562 . S
O580 C562 1.254 . S
O581 Pr560 2.490 . S
O581 C562 1.225 . S
O582 Pr560 2.695 . S
O582 Pr561 2.436 . S
O582 C569 1.270 . S
O583 Pr560 2.512 . S
O583 C569 1.248 . S
O584 Pr561 2.438 . S
O584 C570 1.267 . S
O585 Pr560 2.437 . S
O585 C570 1.278 . S
O586 Pr561 2.562 . S
O586 C571 1.254 1_554 S
O587 Pr561 2.490 . S
O587 C571 1.225 1_554 S
O588 Pr560 2.436 . S
O588 Pr561 2.695 . S
O588 C578 1.270 . S
O589 Pr561 2.512 . S
O589 C578 1.248 . S
O590 Pr560 2.438 . S
O590 C579 1.267 . S
O591 Pr561 2.437 . S
O591 C579 1.278 . S
H592 C564 0.929 . S
H593 C565 0.929 . S
H594 C567 0.931 . S
H595 C568 0.930 . S
H596 C573 0.929 . S
H597 C574 0.929 . S
H598 C576 0.931 . S
H599 C577 0.930 . S
Pr600 C602 2.880 . S
Pr600 O620 2.562 . S
Pr600 O621 2.490 . S
Pr600 O622 2.695 . S
Pr600 O623 2.512 . S
Pr600 O625 2.437 . S
Pr600 O628 2.436 . S
Pr600 O630 2.438 . S
Pr601 C611 2.880 1_554 S
Pr601 O622 2.436 . S
Pr601 O624 2.438 . S
Pr601 O626 2.562 . S
Pr601 O627 2.490 1_554 S
Pr601 O628 2.695 . S
Pr601 O629 2.512 . S
Pr601 O631 2.437 . S
C602 Pr600 2.880 . S
C602 C603 1.491 . S
C602 O620 1.254 . S
C602 O621 1.225 . S
C603 C602 1.491 . S
C603 C604 1.392 . S
C603 C608 1.356 . S
C604 C603 1.392 . S
C604 C605 1.368 . S
C604 H632 0.929 . S
C605 C604 1.368 . S
C605 C606 1.386 . S
C605 H633 0.929 . S
C606 C605 1.386 . S
C606 C607 1.373 . S
C607 C606 1.373 . S
C607 C608 1.409 . S
C607 H634 0.931 . S
C608 C603 1.356 . S
C608 C607 1.409 . S
C608 H635 0.930 . S
C609 O622 1.270 . S
C609 O623 1.248 . S
C610 O624 1.267 . S
C610 O625 1.278 . S
C611 Pr601 2.880 1_556 S
C611 C612 1.491 . S
C611 O626 1.254 1_556 S
C611 O627 1.225 . S
C612 C611 1.491 . S
C612 C613 1.392 . S
C612 C617 1.356 . S
C613 C612 1.392 . S
C613 C614 1.368 . S
C613 H636 0.929 . S
C614 C613 1.368 . S
C614 C615 1.386 . S
C614 H637 0.929 . S
C615 C614 1.386 . S
C615 C616 1.373 . S
C616 C615 1.373 . S
C616 C617 1.409 . S
C616 H638 0.931 . S
C617 C612 1.356 . S
C617 C616 1.409 . S
C617 H639 0.930 . S
C618 O628 1.270 . S
C618 O629 1.248 . S
C619 O630 1.267 . S
C619 O631 1.278 . S
O620 Pr600 2.562 . S
O620 C602 1.254 . S
O621 Pr600 2.490 . S
O621 C602 1.225 . S
O622 Pr600 2.695 . S
O622 Pr601 2.436 . S
O622 C609 1.270 . S
O623 Pr600 2.512 . S
O623 C609 1.248 . S
O624 Pr601 2.438 . S
O624 C610 1.267 . S
O625 Pr600 2.437 . S
O625 C610 1.278 . S
O626 Pr601 2.562 . S
O626 C611 1.254 1_554 S
O627 Pr601 2.490 1_556 S
O627 C611 1.225 . S
O628 Pr600 2.436 . S
O628 Pr601 2.695 . S
O628 C618 1.270 . S
O629 Pr601 2.512 . S
O629 C618 1.248 . S
O630 Pr600 2.438 . S
O630 C619 1.267 . S
O631 Pr601 2.437 . S
O631 C619 1.278 . S
H632 C604 0.929 . S
H633 C605 0.929 . S
H634 C607 0.931 . S
H635 C608 0.930 . S
H636 C613 0.929 . S
H637 C614 0.929 . S
H638 C616 0.931 . S
H639 C617 0.930 . S
Pr640 C642 2.880 . S
Pr640 O660 2.562 . S
Pr640 O661 2.490 . S
Pr640 O662 2.695 . S
Pr640 O663 2.512 . S
Pr640 O665 2.437 . S
Pr640 O668 2.436 . S
Pr640 O670 2.438 . S
Pr641 C651 2.880 . S
Pr641 O662 2.436 . S
Pr641 O664 2.438 . S
Pr641 O666 2.562 . S
Pr641 O667 2.490 . S
Pr641 O668 2.695 . S
Pr641 O669 2.512 . S
Pr641 O671 2.437 . S
C642 Pr640 2.880 . S
C642 C643 1.491 1_554 S
C642 O660 1.254 . S
C642 O661 1.225 . S
C643 C642 1.491 1_556 S
C643 C644 1.392 . S
C643 C648 1.356 . S
C644 C643 1.392 . S
C644 C645 1.368 . S
C644 H672 0.929 . S
C645 C644 1.368 . S
C645 C646 1.386 . S
C645 H673 0.929 . S
C646 C645 1.386 . S
C646 C647 1.373 . S
C647 C646 1.373 . S
C647 C648 1.409 . S
C647 H674 0.931 . S
C648 C643 1.356 . S
C648 C647 1.409 . S
C648 H675 0.930 . S
C649 O662 1.270 . S
C649 O663 1.248 . S
C650 O664 1.267 . S
C650 O665 1.278 . S
C651 Pr641 2.880 . S
C651 C652 1.491 . S
C651 O666 1.254 . S
C651 O667 1.225 . S
C652 C651 1.491 . S
C652 C653 1.392 . S
C652 C657 1.356 . S
C653 C652 1.392 . S
C653 C654 1.368 . S
C653 H676 0.929 . S
C654 C653 1.368 . S
C654 C655 1.386 . S
C654 H677 0.929 . S
C655 C654 1.386 . S
C655 C656 1.373 . S
C656 C655 1.373 . S
C656 C657 1.409 . S
C656 H678 0.931 . S
C657 C652 1.356 . S
C657 C656 1.409 . S
C657 H679 0.930 . S
C658 O668 1.270 . S
C658 O669 1.248 . S
C659 O670 1.267 . S
C659 O671 1.278 . S
O660 Pr640 2.562 . S
O660 C642 1.254 . S
O661 Pr640 2.490 . S
O661 C642 1.225 . S
O662 Pr640 2.695 . S
O662 Pr641 2.436 . S
O662 C649 1.270 . S
O663 Pr640 2.512 . S
O663 C649 1.248 . S
O664 Pr641 2.438 . S
O664 C650 1.267 . S
O665 Pr640 2.437 . S
O665 C650 1.278 . S
O666 Pr641 2.562 . S
O666 C651 1.254 . S
O667 Pr641 2.490 . S
O667 C651 1.225 . S
O668 Pr640 2.436 . S
O668 Pr641 2.695 . S
O668 C658 1.270 . S
O669 Pr641 2.512 . S
O669 C658 1.248 . S
O670 Pr640 2.438 . S
O670 C659 1.267 . S
O671 Pr641 2.437 . S
O671 C659 1.278 . S
H672 C644 0.929 . S
H673 C645 0.929 . S
H674 C647 0.931 . S
H675 C648 0.930 . S
H676 C653 0.929 . S
H677 C654 0.929 . S
H678 C656 0.931 . S
H679 C657 0.930 . S
Pr680 C682 2.880 . S
Pr680 O700 2.562 . S
Pr680 O701 2.490 . S
Pr680 O702 2.695 . S
Pr680 O703 2.512 . S
Pr680 O705 2.437 . S
Pr680 O708 2.436 . S
Pr680 O710 2.438 . S
Pr681 C691 2.880 . S
Pr681 O702 2.436 . S
Pr681 O704 2.438 . S
Pr681 O706 2.562 . S
Pr681 O707 2.490 . S
Pr681 O708 2.695 . S
Pr681 O709 2.512 . S
Pr681 O711 2.437 . S
C682 Pr680 2.880 . S
C682 C683 1.491 . S
C682 O700 1.254 . S
C682 O701 1.225 . S
C683 C682 1.491 . S
C683 C684 1.392 . S
C683 C688 1.356 . S
C684 C683 1.392 . S
C684 C685 1.368 . S
C684 H712 0.929 . S
C685 C684 1.368 . S
C685 C686 1.386 . S
C685 H713 0.929 . S
C686 C685 1.386 . S
C686 C687 1.373 . S
C687 C686 1.373 . S
C687 C688 1.409 . S
C687 H714 0.931 . S
C688 C683 1.356 . S
C688 C687 1.409 . S
C688 H715 0.930 . S
C689 O702 1.270 . S
C689 O703 1.248 . S
C690 O704 1.267 . S
C690 O705 1.278 . S
C691 Pr681 2.880 . S
C691 C692 1.491 1_554 S
C691 O706 1.254 . S
C691 O707 1.225 . S
C692 C691 1.491 1_556 S
C692 C693 1.392 . S
C692 C697 1.356 . S
C693 C692 1.392 . S
C693 C694 1.368 . S
C693 H716 0.929 . S
C694 C693 1.368 . S
C694 C695 1.386 . S
C694 H717 0.929 . S
C695 C694 1.386 . S
C695 C696 1.373 . S
C696 C695 1.373 . S
C696 C697 1.409 . S
C696 H718 0.931 . S
C697 C692 1.356 . S
C697 C696 1.409 . S
C697 H719 0.930 . S
C698 O708 1.270 . S
C698 O709 1.248 . S
C699 O710 1.267 . S
C699 O711 1.278 . S
O700 Pr680 2.562 . S
O700 C682 1.254 . S
O701 Pr680 2.490 . S
O701 C682 1.225 . S
O702 Pr680 2.695 . S
O702 Pr681 2.436 . S
O702 C689 1.270 . S
O703 Pr680 2.512 . S
O703 C689 1.248 . S
O704 Pr681 2.438 . S
O704 C690 1.267 . S
O705 Pr680 2.437 . S
O705 C690 1.278 . S
O706 Pr681 2.562 . S
O706 C691 1.254 . S
O707 Pr681 2.490 . S
O707 C691 1.225 . S
O708 Pr680 2.436 . S
O708 Pr681 2.695 . S
O708 C698 1.270 . S
O709 Pr681 2.512 . S
O709 C698 1.248 . S
O710 Pr680 2.438 . S
O710 C699 1.267 . S
O711 Pr681 2.437 . S
O711 C699 1.278 . S
H712 C684 0.929 . S
H713 C685 0.929 . S
H714 C687 0.931 . S
H715 C688 0.930 . S
H716 C693 0.929 . S
H717 C694 0.929 . S
H718 C696 0.931 . S
H719 C697 0.930 . S
C720 C721 1.387 . S
C720 H724 0.950 . S
C720 C729 1.390 . S
C721 C720 1.387 . S
C721 C723 1.387 . S
H722 C729 0.950 . S
C723 C721 1.387 . S
C723 C725 1.390 . S
C723 H727 0.950 . S
H724 C720 0.950 . S
C725 C723 1.390 . S
C725 C726 1.387 . S
C725 H728 0.950 . S
C726 C725 1.387 . S
C726 C729 1.387 . S
H727 C723 0.950 . S
H728 C725 0.950 . S
C729 C720 1.390 . S
C729 H722 0.950 . S
C729 C726 1.387 . S
C730 C731 1.387 . S
C730 H734 0.950 . S
C730 C739 1.390 . S
C731 C730 1.387 . S
C731 C733 1.387 . S
H732 C739 0.950 . S
C733 C731 1.387 . S
C733 C735 1.390 . S
C733 H737 0.950 . S
H734 C730 0.950 . S
C735 C733 1.390 . S
C735 C736 1.387 . S
C735 H738 0.950 . S
C736 C735 1.387 . S
C736 C739 1.387 . S
H737 C733 0.950 . S
H738 C735 0.950 . S
C739 C730 1.390 . S
C739 H732 0.950 . S
C739 C736 1.387 . S
C740 C741 1.387 . S
C740 H744 0.950 . S
C740 C749 1.390 . S
C741 C740 1.387 . S
C741 C743 1.387 . S
H742 C749 0.950 . S
C743 C741 1.387 . S
C743 C745 1.390 . S
C743 H747 0.950 . S
H744 C740 0.950 . S
C745 C743 1.390 . S
C745 C746 1.387 . S
C745 H748 0.950 . S
C746 C745 1.387 . S
C746 C749 1.387 . S
H747 C743 0.950 . S
H748 C745 0.950 . S
C749 C740 1.390 . S
C749 H742 0.950 . S
C749 C746 1.387 . S
C750 C751 1.387 . S
C750 H754 0.950 . S
C750 C759 1.390 . S
C751 C750 1.387 . S
C751 C753 1.387 . S
H752 C759 0.950 . S
C753 C751 1.387 . S
C753 C755 1.390 . S
C753 H757 0.950 . S
H754 C750 0.950 . S
C755 C753 1.390 . S
C755 C756 1.387 . S
C755 H758 0.950 . S
C756 C755 1.387 . S
C756 C759 1.387 . S
H757 C753 0.950 . S
H758 C755 0.950 . S
C759 C750 1.390 . S
C759 H752 0.950 . S
C759 C756 1.387 . S
C760 C761 1.387 . S
C760 H764 0.950 . S
C760 C769 1.390 . S
C761 C760 1.387 . S
C761 C763 1.387 . S
H762 C769 0.950 . S
C763 C761 1.387 . S
C763 C765 1.390 . S
C763 H767 0.950 . S
H764 C760 0.950 . S
C765 C763 1.390 . S
C765 C766 1.387 . S
C765 H768 0.950 . S
C766 C765 1.387 . S
C766 C769 1.387 . S
H767 C763 0.950 . S
H768 C765 0.950 . S
C769 C760 1.390 . S
C769 H762 0.950 . S
C769 C766 1.387 . S
C770 C771 1.387 . S
C770 H774 0.950 . S
C770 C779 1.390 . S
C771 C770 1.387 . S
C771 C773 1.387 . S
H772 C779 0.950 . S
C773 C771 1.387 . S
C773 C775 1.390 . S
C773 H777 0.950 . S
H774 C770 0.950 . S
C775 C773 1.390 . S
C775 C776 1.387 . S
C775 H778 0.950 . S
C776 C775 1.387 . S
C776 C779 1.387 . S
H777 C773 0.950 . S
H778 C775 0.950 . S
C779 C770 1.390 . S
C779 H772 0.950 . S
C779 C776 1.387 . S
C780 C781 1.387 . S
C780 H784 0.950 . S
C780 C789 1.390 . S
C781 C780 1.387 . S
C781 C783 1.387 . S
H782 C789 0.950 . S
C783 C781 1.387 . S
C783 C785 1.390 . S
C783 H787 0.950 . S
H784 C780 0.950 . S
C785 C783 1.390 . S
C785 C786 1.387 . S
C785 H788 0.950 . S
C786 C785 1.387 . S
C786 C789 1.387 . S
H787 C783 0.950 . S
H788 C785 0.950 . S
C789 C780 1.390 . S
C789 H782 0.950 . S
C789 C786 1.387 . S
C790 C791 1.387 . S
C790 H794 0.950 . S
C790 C799 1.390 . S
C791 C790 1.387 . S
C791 C793 1.387 . S
H792 C799 0.950 . S
C793 C791 1.387 . S
C793 C795 1.390 . S
C793 H797 0.950 . S
H794 C790 0.950 . S
C795 C793 1.390 . S
C795 C796 1.387 . S
C795 H798 0.950 . S
C796 C795 1.387 . S
C796 C799 1.387 . S
H797 C793 0.950 . S
H798 C795 0.950 . S
C799 C790 1.390 . S
C799 H792 0.950 . S
C799 C796 1.387 . S
C800 C801 1.387 . S
C800 H804 0.950 . S
C800 C809 1.390 . S
C801 C800 1.387 . S
C801 C803 1.387 . S
H802 C809 0.950 . S
C803 C801 1.387 . S
C803 C805 1.390 . S
C803 H807 0.950 . S
H804 C800 0.950 . S
C805 C803 1.390 . S
C805 C806 1.387 . S
C805 H808 0.950 . S
C806 C805 1.387 . S
C806 C809 1.387 . S
H807 C803 0.950 . S
H808 C805 0.950 . S
C809 C800 1.390 . S
C809 H802 0.950 . S
C809 C806 1.387 . S
C810 C811 1.387 . S
C810 H814 0.950 . S
C810 C819 1.390 . S
C811 C810 1.387 . S
C811 C813 1.387 . S
H812 C819 0.950 . S
C813 C811 1.387 . S
C813 C815 1.390 . S
C813 H817 0.950 . S
H814 C810 0.950 . S
C815 C813 1.390 . S
C815 C816 1.387 . S
C815 H818 0.950 . S
C816 C815 1.387 . S
C816 C819 1.387 . S
H817 C813 0.950 . S
H818 C815 0.950 . S
C819 C810 1.390 . S
C819 H812 0.950 . S
C819 C816 1.387 . S
C820 C821 1.387 . S
C820 H824 0.950 . S
C820 C829 1.390 . S
C821 C820 1.387 . S
C821 C823 1.387 . S
H822 C829 0.950 . S
C823 C821 1.387 . S
C823 C825 1.390 . S
C823 H827 0.950 . S
H824 C820 0.950 . S
C825 C823 1.390 . S
C825 C826 1.387 . S
C825 H828 0.950 . S
C826 C825 1.387 . S
C826 C829 1.387 . S
H827 C823 0.950 . S
H828 C825 0.950 . S
C829 C820 1.390 . S
C829 H822 0.950 . S
C829 C826 1.387 . S
C830 C831 1.387 . S
C830 H834 0.950 . S
C830 C839 1.390 . S
C831 C830 1.387 . S
C831 C833 1.387 . S
H832 C839 0.950 . S
C833 C831 1.387 . S
C833 C835 1.390 . S
C833 H837 0.950 . S
H834 C830 0.950 . S
C835 C833 1.390 . S
C835 C836 1.387 . S
C835 H838 0.950 . S
C836 C835 1.387 . S
C836 C839 1.387 . S
H837 C833 0.950 . S
H838 C835 0.950 . S
C839 C830 1.390 . S
C839 H832 0.950 . S
C839 C836 1.387 . S
C840 C841 1.387 . S
C840 H844 0.950 . S
C840 C849 1.390 1_656 S
C841 C840 1.387 . S
C841 C843 1.387 . S
H842 C849 0.950 . S
C843 C841 1.387 . S
C843 C845 1.390 1_656 S
C843 H847 0.950 . S
H844 C840 0.950 . S
C845 C843 1.390 1_454 S
C845 C846 1.387 . S
C845 H848 0.950 . S
C846 C845 1.387 . S
C846 C849 1.387 . S
H847 C843 0.950 . S
H848 C845 0.950 . S
C849 C840 1.390 1_454 S
C849 H842 0.950 . S
C849 C846 1.387 . S
C850 C851 1.387 . S
C850 H854 0.950 . S
C850 C859 1.390 1_556 S
C851 C850 1.387 . S
C851 C853 1.387 . S
H852 C859 0.950 . S
C853 C851 1.387 . S
C853 C855 1.390 . S
C853 H857 0.950 . S
H854 C850 0.950 . S
C855 C853 1.390 . S
C855 C856 1.387 1_556 S
C855 H858 0.950 1_556 S
C856 C855 1.387 1_554 S
C856 C859 1.387 . S
H857 C853 0.950 . S
H858 C855 0.950 1_554 S
C859 C850 1.390 1_554 S
C859 H852 0.950 . S
C859 C856 1.387 . S
C860 C861 1.387 . S
C860 H864 0.950 . S
C860 C869 1.390 1_556 S
C861 C860 1.387 . S
C861 C863 1.387 . S
H862 C869 0.950 . S
C863 C861 1.387 . S
C863 C865 1.385 1_545 S
C863 H867 0.957 1_545 S
H864 C860 0.950 . S
C865 C863 1.385 1_565 S
C865 C866 1.387 1_556 S
C865 H868 0.950 . S
C866 C865 1.387 1_554 S
C866 C869 1.387 1_565 S
H867 C863 0.957 1_565 S
H868 C865 0.950 . S
C869 C860 1.390 1_554 S
C869 H862 0.950 . S
C869 C866 1.387 1_545 S
C870 C871 1.387 . S
C870 H874 0.950 . S
C870 C879 1.390 1_556 S
C871 C870 1.387 . S
C871 C873 1.387 . S
H872 C879 0.950 . S
C873 C871 1.387 . S
C873 C875 1.390 1_546 S
C873 H877 0.950 . S
H874 C870 0.950 . S
C875 C873 1.390 1_564 S
C875 C876 1.387 . S
C875 H878 0.950 . S
C876 C875 1.387 . S
C876 C879 1.387 1_565 S
H877 C873 0.950 . S
H878 C875 0.950 . S
C879 C870 1.390 1_554 S
C879 H872 0.950 . S
C879 C876 1.387 1_545 S
C880 C881 1.387 . S
C880 H884 0.950 . S
C880 C889 1.390 1_554 S
C881 C880 1.387 . S
C881 C883 1.387 1_455 S
H882 C889 0.950 . S
C883 C881 1.387 1_655 S
C883 C885 1.390 . S
C883 H887 0.950 . S
H884 C880 0.950 . S
C885 C883 1.390 . S
C885 C886 1.387 1_554 S
C885 H888 0.950 . S
C886 C885 1.387 1_556 S
C886 C889 1.387 1_655 S
H887 C883 0.950 . S
H888 C885 0.950 . S
C889 C880 1.390 1_556 S
C889 H882 0.950 . S
C889 C886 1.387 1_455 S
C890 C891 1.387 . S
C890 H894 0.950 . S
C890 C899 1.390 1_554 S
C891 C890 1.387 . S
C891 C893 1.387 . S
H892 C899 0.950 . S
C893 C891 1.387 . S
C893 C895 1.390 1_554 S
C893 H897 0.950 . S
H894 C890 0.950 . S
C895 C893 1.390 1_556 S
C895 C896 1.387 . S
C895 H898 0.950 . S
C896 C895 1.387 . S
C896 C899 1.387 . S
H897 C893 0.950 . S
H898 C895 0.950 . S
C899 C890 1.390 1_556 S
C899 H892 0.950 . S
C899 C896 1.387 . S
C900 C901 1.387 . S
C900 H904 0.950 . S
C900 C909 1.390 . S
C901 C900 1.387 . S
C901 C903 1.387 . S
H902 C909 0.950 . S
C903 C901 1.387 . S
C903 C905 1.390 . S
C903 H907 0.950 . S
H904 C900 0.950 . S
C905 C903 1.390 . S
C905 C906 1.387 . S
C905 H908 0.950 . S
C906 C905 1.387 . S
C906 C909 1.387 . S
H907 C903 0.950 . S
H908 C905 0.950 . S
C909 C900 1.390 . S
C909 H902 0.950 . S
C909 C906 1.387 . S
C910 C911 1.387 . S
C910 H914 0.950 . S
C910 C919 1.390 . S
C911 C910 1.387 . S
C911 C913 1.387 . S
H912 C919 0.950 . S
C913 C911 1.387 . S
C913 C915 1.390 . S
C913 H917 0.950 . S
H914 C910 0.950 . S
C915 C913 1.390 . S
C915 C916 1.387 . S
C915 H918 0.950 . S
C916 C915 1.387 . S
C916 C919 1.387 . S
H917 C913 0.950 . S
H918 C915 0.950 . S
C919 C910 1.390 . S
C919 H912 0.950 . S
C919 C916 1.387 . S
C920 C921 1.387 . S
C920 H924 0.950 . S
C920 C929 1.390 . S
C921 C920 1.387 . S
C921 C923 1.387 . S
H922 C929 0.950 . S
C923 C921 1.387 . S
C923 C925 1.390 . S
C923 H927 0.950 . S
H924 C920 0.950 . S
C925 C923 1.390 . S
C925 C926 1.387 . S
C925 H928 0.950 . S
C926 C925 1.387 . S
C926 C929 1.387 . S
H927 C923 0.950 . S
H928 C925 0.950 . S
C929 C920 1.390 . S
C929 H922 0.950 . S
C929 C926 1.387 . S
C930 C931 1.387 . S
C930 H934 0.950 . S
C930 C939 1.390 . S
C931 C930 1.387 . S
C931 C933 1.387 . S
H932 C939 0.950 . S
C933 C931 1.387 . S
C933 C935 1.390 . S
C933 H937 0.950 . S
H934 C930 0.950 . S
C935 C933 1.390 . S
C935 C936 1.387 . S
C935 H938 0.950 . S
C936 C935 1.387 . S
C936 C939 1.387 . S
H937 C933 0.950 . S
H938 C935 0.950 . S
C939 C930 1.390 . S
C939 H932 0.950 . S
C939 C936 1.387 . S
C940 C941 1.387 . S
C940 H944 0.950 . S
C940 C949 1.390 . S
C941 C940 1.387 . S
C941 C943 1.387 . S
H942 C949 0.950 . S
C943 C941 1.387 . S
C943 C945 1.390 . S
C943 H947 0.950 . S
H944 C940 0.950 . S
C945 C943 1.390 . S
C945 C946 1.387 . S
C945 H948 0.950 . S
C946 C945 1.387 . S
C946 C949 1.387 . S
H947 C943 0.950 . S
H948 C945 0.950 . S
C949 C940 1.390 . S
C949 H942 0.950 . S
C949 C946 1.387 . S
C950 C951 1.387 . S
C950 H954 0.950 . S
C950 C959 1.390 . S
C951 C950 1.387 . S
C951 C953 1.387 . S
H952 C959 0.950 . S
C953 C951 1.387 . S
C953 C955 1.390 . S
C953 H957 0.950 . S
H954 C950 0.950 . S
C955 C953 1.390 . S
C955 C956 1.387 . S
C955 H958 0.950 . S
C956 C955 1.387 . S
C956 C959 1.387 . S
H957 C953 0.950 . S
H958 C955 0.950 . S
C959 C950 1.390 . S
C959 H952 0.950 . S
C959 C956 1.387 . S
C960 C961 1.387 . S
C960 H964 0.950 . S
C960 C969 1.390 . S
C961 C960 1.387 . S
C961 C963 1.387 . S
H962 C969 0.950 . S
C963 C961 1.387 . S
C963 C965 1.390 . S
C963 H967 0.950 . S
H964 C960 0.950 . S
C965 C963 1.390 . S
C965 C966 1.387 . S
C965 H968 0.950 . S
C966 C965 1.387 . S
C966 C969 1.387 . S
H967 C963 0.950 . S
H968 C965 0.950 . S
C969 C960 1.390 . S
C969 H962 0.950 . S
C969 C966 1.387 . S
C970 C971 1.387 . S
C970 H974 0.950 . S
C970 C979 1.390 . S
C971 C970 1.387 . S
C971 C973 1.387 . S
H972 C979 0.950 . S
C973 C971 1.387 . S
C973 C975 1.390 . S
C973 H977 0.950 . S
H974 C970 0.950 . S
C975 C973 1.390 . S
C975 C976 1.387 . S
C975 H978 0.950 . S
C976 C975 1.387 . S
C976 C979 1.387 . S
H977 C973 0.950 . S
H978 C975 0.950 . S
C979 C970 1.390 . S
C979 H972 0.950 . S
C979 C976 1.387 . S
C980 C981 1.387 . S
C980 H984 0.950 . S
C980 C989 1.390 . S
C981 C980 1.387 . S
C981 C983 1.387 . S
H982 C989 0.950 . S
C983 C981 1.387 . S
C983 C985 1.390 . S
C983 H987 0.950 . S
H984 C980 0.950 . S
C985 C983 1.390 . S
C985 C986 1.387 . S
C985 H988 0.950 . S
C986 C985 1.387 . S
C986 C989 1.387 . S
H987 C983 0.950 . S
H988 C985 0.950 . S
C989 C980 1.390 . S
C989 H982 0.950 . S
C989 C986 1.387 . S
C990 C991 1.387 . S
C990 H994 0.950 . S
C990 C999 1.390 . S
C991 C990 1.387 . S
C991 C993 1.387 . S
H992 C999 0.950 . S
C993 C991 1.387 . S
C993 C995 1.390 . S
C993 H997 0.950 . S
H994 C990 0.950 . S
C995 C993 1.390 . S
C995 C996 1.387 . S
C995 H998 0.950 . S
C996 C995 1.387 . S
C996 C999 1.387 . S
H997 C993 0.950 . S
H998 C995 0.950 . S
C999 C990 1.390 . S
C999 H992 0.950 . S
C999 C996 1.387 . S
C1000 C1001 1.387 . S
C1000 H1004 0.950 . S
C1000 C1009 1.390 . S
C1001 C1000 1.387 . S
C1001 C1003 1.387 . S
H1002 C1009 0.950 . S
C1003 C1001 1.387 . S
C1003 C1005 1.390 . S
C1003 H1007 0.950 . S
H1004 C1000 0.950 . S
C1005 C1003 1.390 . S
C1005 C1006 1.387 . S
C1005 H1008 0.950 . S
C1006 C1005 1.387 . S
C1006 C1009 1.387 . S
H1007 C1003 0.950 . S
H1008 C1005 0.950 . S
C1009 C1000 1.390 . S
C1009 H1002 0.950 . S
C1009 C1006 1.387 . S
C1010 C1011 1.387 . S
C1010 H1014 0.950 . S
C1010 C1019 1.390 . S
C1011 C1010 1.387 . S
C1011 C1013 1.387 . S
H1012 C1019 0.950 . S
C1013 C1011 1.387 . S
C1013 C1015 1.390 . S
C1013 H1017 0.950 . S
H1014 C1010 0.950 . S
C1015 C1013 1.390 . S
C1015 C1016 1.387 . S
C1015 H1018 0.950 . S
C1016 C1015 1.387 . S
C1016 C1019 1.387 . S
H1017 C1013 0.950 . S
H1018 C1015 0.950 . S
C1019 C1010 1.390 . S
C1019 H1012 0.950 . S
C1019 C1016 1.387 . S
C1020 C1021 1.387 . S
C1020 H1024 0.950 . S
C1020 C1029 1.390 . S
C1021 C1020 1.387 . S
C1021 C1023 1.387 . S
H1022 C1029 0.950 . S
C1023 C1021 1.387 . S
C1023 C1025 1.390 . S
C1023 H1027 0.950 . S
H1024 C1020 0.950 . S
C1025 C1023 1.390 . S
C1025 C1026 1.387 . S
C1025 H1028 0.950 . S
C1026 C1025 1.387 . S
C1026 C1029 1.387 . S
H1027 C1023 0.950 . S
H1028 C1025 0.950 . S
C1029 C1020 1.390 . S
C1029 H1022 0.950 . S
C1029 C1026 1.387 . S
C1030 C1031 1.387 . S
C1030 H1034 0.950 . S
C1030 C1039 1.390 . S
C1031 C1030 1.387 . S
C1031 C1033 1.387 . S
H1032 C1039 0.950 . S
C1033 C1031 1.387 . S
C1033 C1035 1.390 . S
C1033 H1037 0.950 . S
H1034 C1030 0.950 . S
C1035 C1033 1.390 . S
C1035 C1036 1.387 . S
C1035 H1038 0.950 . S
C1036 C1035 1.387 . S
C1036 C1039 1.387 . S
H1037 C1033 0.950 . S
H1038 C1035 0.950 . S
C1039 C1030 1.390 . S
C1039 H1032 0.950 . S
C1039 C1036 1.387 . S
C1040 C1041 1.387 . S
C1040 H1044 0.950 . S
C1040 C1049 1.390 . S
C1041 C1040 1.387 . S
C1041 C1043 1.387 . S
H1042 C1049 0.950 . S
C1043 C1041 1.387 . S
C1043 C1045 1.390 . S
C1043 H1047 0.950 . S
H1044 C1040 0.950 . S
C1045 C1043 1.390 . S
C1045 C1046 1.387 . S
C1045 H1048 0.950 . S
C1046 C1045 1.387 . S
C1046 C1049 1.387 . S
H1047 C1043 0.950 . S
H1048 C1045 0.950 . S
C1049 C1040 1.390 . S
C1049 H1042 0.950 . S
C1049 C1046 1.387 . S
C1050 C1051 1.387 . S
C1050 H1054 0.950 . S
C1050 C1059 1.390 . S
C1051 C1050 1.387 . S
C1051 C1053 1.387 . S
H1052 C1059 0.950 . S
C1053 C1051 1.387 . S
C1053 C1055 1.390 . S
C1053 H1057 0.950 . S
H1054 C1050 0.950 . S
C1055 C1053 1.390 . S
C1055 C1056 1.387 . S
C1055 H1058 0.950 . S
C1056 C1055 1.387 . S
C1056 C1059 1.387 . S
H1057 C1053 0.950 . S
H1058 C1055 0.950 . S
C1059 C1050 1.390 . S
C1059 H1052 0.950 . S
C1059 C1056 1.387 . S
C1060 C1061 1.387 . S
C1060 H1064 0.950 . S
C1060 C1069 1.390 . S
C1061 C1060 1.387 . S
C1061 C1063 1.387 . S
H1062 C1069 0.950 . S
C1063 C1061 1.387 . S
C1063 C1065 1.390 . S
C1063 H1067 0.950 . S
H1064 C1060 0.950 . S
C1065 C1063 1.390 . S
C1065 C1066 1.387 . S
C1065 H1068 0.950 . S
C1066 C1065 1.387 . S
C1066 C1069 1.387 . S
H1067 C1063 0.950 . S
H1068 C1065 0.950 . S
C1069 C1060 1.390 . S
C1069 H1062 0.950 . S
C1069 C1066 1.387 . S
C1070 C1071 1.387 . S
C1070 H1074 0.950 . S
C1070 C1079 1.390 . S
C1071 C1070 1.387 . S
C1071 C1073 1.387 . S
H1072 C1079 0.950 . S
C1073 C1071 1.387 . S
C1073 C1075 1.390 . S
C1073 H1077 0.950 . S
H1074 C1070 0.950 . S
C1075 C1073 1.390 . S
C1075 C1076 1.387 . S
C1075 H1078 0.950 . S
C1076 C1075 1.387 . S
C1076 C1079 1.387 . S
H1077 C1073 0.950 . S
H1078 C1075 0.950 . S
C1079 C1070 1.390 . S
C1079 H1072 0.950 . S
C1079 C1076 1.387 . S
C1080 C1081 1.387 . S
C1080 H1084 0.950 . S
C1080 C1089 1.390 1_554 S
C1081 C1080 1.387 . S
C1081 C1083 1.387 1_455 S
H1082 C1089 0.950 . S
C1083 C1081 1.387 1_655 S
C1083 C1085 1.379 1_554 S
C1083 H1087 0.950 . S
H1084 C1080 0.950 . S
C1085 C1083 1.379 1_556 S
C1085 C1086 1.395 1_655 S
C1085 H1088 0.954 . S
C1086 C1085 1.395 1_455 S
C1086 C1089 1.387 . S
H1087 C1083 0.950 . S
H1088 C1085 0.954 . S
C1089 C1080 1.390 1_556 S
C1089 H1082 0.950 . S
C1089 C1086 1.387 . S
C1090 C1091 1.387 . S
C1090 H1094 0.950 . S
C1090 C1099 1.390 1_554 S
C1091 C1090 1.387 . S
C1091 C1093 1.387 . S
H1092 C1099 0.950 . S
C1093 C1091 1.387 . S
C1093 C1095 1.390 1_554 S
C1093 H1097 0.950 . S
H1094 C1090 0.950 . S
C1095 C1093 1.390 1_556 S
C1095 C1096 1.387 . S
C1095 H1098 0.950 . S
C1096 C1095 1.387 . S
C1096 C1099 1.387 . S
H1097 C1093 0.950 . S
H1098 C1095 0.950 . S
C1099 C1090 1.390 1_556 S
C1099 H1092 0.950 . S
C1099 C1096 1.387 . S
C1100 C1101 1.387 1_556 S
C1100 H1104 0.950 . S
C1100 C1109 1.390 . S
C1101 C1100 1.387 1_554 S
C1101 C1103 1.387 1_565 S
H1102 C1109 0.950 . S
C1103 C1101 1.387 1_545 S
C1103 C1105 1.390 1_554 S
C1103 H1107 0.950 . S
H1104 C1100 0.950 . S
C1105 C1103 1.390 1_556 S
C1105 C1106 1.387 . S
C1105 H1108 0.950 . S
C1106 C1105 1.387 . S
C1106 C1109 1.387 1_545 S
H1107 C1103 0.950 . S
H1108 C1105 0.950 . S
C1109 C1100 1.390 . S
C1109 H1102 0.950 . S
C1109 C1106 1.387 1_565 S
C1110 C1111 1.387 1_654 S
C1110 H1114 0.950 . S
C1110 C1119 1.390 . S
C1111 C1110 1.387 1_456 S
C1111 C1113 1.387 . S
H1112 C1119 0.950 . S
C1113 C1111 1.387 . S
C1113 C1115 1.390 1_556 S
C1113 H1117 0.950 . S
H1114 C1110 0.950 . S
C1115 C1113 1.390 1_554 S
C1115 C1116 1.396 . S
C1115 H1118 0.950 . S
C1116 C1115 1.396 . S
C1116 C1119 1.391 1_455 S
H1117 C1113 0.950 . S
H1118 C1115 0.950 . S
C1119 C1110 1.390 . S
C1119 H1112 0.950 . S
C1119 C1116 1.391 1_655 S
C1120 C1121 1.387 . S
C1120 H1124 0.950 . S
C1120 C1129 1.390 1_554 S
C1121 C1120 1.387 . S
C1121 C1123 1.387 . S
H1122 C1129 0.950 . S
C1123 C1121 1.387 . S
C1123 C1125 1.390 . S
C1123 H1127 0.950 . S
H1124 C1120 0.950 . S
C1125 C1123 1.390 . S
C1125 C1126 1.387 1_554 S
C1125 H1128 0.950 . S
C1126 C1125 1.387 1_556 S
C1126 C1129 1.387 . S
H1127 C1123 0.950 . S
H1128 C1125 0.950 . S
C1129 C1120 1.390 1_556 S
C1129 H1122 0.950 . S
C1129 C1126 1.387 . S
C1130 C1131 1.403 . S
C1130 H1134 0.950 . S
C1130 C1139 1.390 1_554 S
C1131 C1130 1.403 . S
C1131 C1133 1.354 1_565 S
H1132 C1139 0.950 . S
C1133 C1131 1.354 1_545 S
C1133 C1135 1.390 . S
C1133 H1137 0.950 . S
H1134 C1130 0.950 . S
C1135 C1133 1.390 . S
C1135 C1136 1.387 1_554 S
C1135 H1138 0.950 . S
C1136 C1135 1.387 1_556 S
C1136 C1139 1.387 1_545 S
H1137 C1133 0.950 . S
H1138 C1135 0.950 . S
C1139 C1130 1.390 1_556 S
C1139 H1132 0.950 . S
C1139 C1136 1.387 1_565 S
C1140 C1141 1.387 . S
C1140 H1144 0.950 . S
C1140 C1149 1.390 . S
C1141 C1140 1.387 . S
C1141 C1143 1.387 . S
H1142 C1149 0.950 . S
C1143 C1141 1.387 . S
C1143 C1145 1.390 . S
C1143 H1147 0.950 . S
H1144 C1140 0.950 . S
C1145 C1143 1.390 . S
C1145 C1146 1.387 . S
C1145 H1148 0.950 . S
C1146 C1145 1.387 . S
C1146 C1149 1.387 . S
H1147 C1143 0.950 . S
H1148 C1145 0.950 . S
C1149 C1140 1.390 . S
C1149 H1142 0.950 . S
C1149 C1146 1.387 . S
C1150 C1151 1.387 . S
C1150 H1154 0.950 . S
C1150 C1159 1.390 . S
C1151 C1150 1.387 . S
C1151 C1153 1.387 . S
H1152 C1159 0.950 . S
C1153 C1151 1.387 . S
C1153 C1155 1.390 . S
C1153 H1157 0.950 . S
H1154 C1150 0.950 . S
C1155 C1153 1.390 . S
C1155 C1156 1.387 . S
C1155 H1158 0.950 . S
C1156 C1155 1.387 . S
C1156 C1159 1.387 . S
H1157 C1153 0.950 . S
H1158 C1155 0.950 . S
C1159 C1150 1.390 . S
C1159 H1152 0.950 . S
C1159 C1156 1.387 . S
C1160 C1161 1.387 . S
C1160 H1164 0.950 . S
C1160 C1169 1.390 . S
C1161 C1160 1.387 . S
C1161 C1163 1.387 . S
H1162 C1169 0.950 . S
C1163 C1161 1.387 . S
C1163 C1165 1.390 . S
C1163 H1167 0.950 . S
H1164 C1160 0.950 . S
C1165 C1163 1.390 . S
C1165 C1166 1.387 . S
C1165 H1168 0.950 . S
C1166 C1165 1.387 . S
C1166 C1169 1.387 . S
H1167 C1163 0.950 . S
H1168 C1165 0.950 . S
C1169 C1160 1.390 . S
C1169 H1162 0.950 . S
C1169 C1166 1.387 . S
C1170 C1171 1.387 . S
C1170 H1174 0.950 . S
C1170 C1179 1.390 . S
C1171 C1170 1.387 . S
C1171 C1173 1.387 . S
H1172 C1179 0.950 . S
C1173 C1171 1.387 . S
C1173 C1175 1.390 . S
C1173 H1177 0.950 . S
H1174 C1170 0.950 . S
C1175 C1173 1.390 . S
C1175 C1176 1.387 . S
C1175 H1178 0.950 . S
C1176 C1175 1.387 . S
C1176 C1179 1.387 . S
H1177 C1173 0.950 . S
H1178 C1175 0.950 . S
C1179 C1170 1.390 . S
C1179 H1172 0.950 . S
C1179 C1176 1.387 . S
C1180 C1181 1.387 . S
C1180 H1184 0.950 . S
C1180 C1189 1.390 . S
C1181 C1180 1.387 . S
C1181 C1183 1.387 . S
H1182 C1189 0.950 . S
C1183 C1181 1.387 . S
C1183 C1185 1.390 . S
C1183 H1187 0.950 . S
H1184 C1180 0.950 . S
C1185 C1183 1.390 . S
C1185 C1186 1.387 . S
C1185 H1188 0.950 . S
C1186 C1185 1.387 . S
C1186 C1189 1.387 . S
H1187 C1183 0.950 . S
H1188 C1185 0.950 . S
C1189 C1180 1.390 . S
C1189 H1182 0.950 . S
C1189 C1186 1.387 . S
C1190 C1191 1.387 . S
C1190 H1194 0.950 . S
C1190 C1199 1.390 . S
C1191 C1190 1.387 . S
C1191 C1193 1.387 . S
H1192 C1199 0.950 . S
C1193 C1191 1.387 . S
C1193 C1195 1.390 . S
C1193 H1197 0.950 . S
H1194 C1190 0.950 . S
C1195 C1193 1.390 . S
C1195 C1196 1.387 . S
C1195 H1198 0.950 . S
C1196 C1195 1.387 . S
C1196 C1199 1.387 . S
H1197 C1193 0.950 . S
H1198 C1195 0.950 . S
C1199 C1190 1.390 . S
C1199 H1192 0.950 . S
C1199 C1196 1.387 . S
C1200 C1201 1.387 . S
C1200 H1204 0.950 . S
C1200 C1209 1.390 . S
C1201 C1200 1.387 . S
C1201 C1203 1.387 . S
H1202 C1209 0.950 . S
C1203 C1201 1.387 . S
C1203 C1205 1.390 . S
C1203 H1207 0.950 . S
H1204 C1200 0.950 . S
C1205 C1203 1.390 . S
C1205 C1206 1.387 . S
C1205 H1208 0.950 . S
C1206 C1205 1.387 . S
C1206 C1209 1.387 . S
H1207 C1203 0.950 . S
H1208 C1205 0.950 . S
C1209 C1200 1.390 . S
C1209 H1202 0.950 . S
C1209 C1206 1.387 . S
C1210 C1211 1.387 . S
C1210 H1214 0.950 . S
C1210 C1219 1.390 . S
C1211 C1210 1.387 . S
C1211 C1213 1.387 . S
H1212 C1219 0.950 . S
C1213 C1211 1.387 . S
C1213 C1215 1.390 . S
C1213 H1217 0.950 . S
H1214 C1210 0.950 . S
C1215 C1213 1.390 . S
C1215 C1216 1.387 . S
C1215 H1218 0.950 . S
C1216 C1215 1.387 . S
C1216 C1219 1.387 . S
H1217 C1213 0.950 . S
H1218 C1215 0.950 . S
C1219 C1210 1.390 . S
C1219 H1212 0.950 . S
C1219 C1216 1.387 . S
C1220 C1221 1.387 . S
C1220 H1224 0.950 . S
C1220 C1229 1.390 . S
C1221 C1220 1.387 . S
C1221 C1223 1.387 . S
H1222 C1229 0.950 . S
C1223 C1221 1.387 . S
C1223 C1225 1.390 . S
C1223 H1227 0.950 . S
H1224 C1220 0.950 . S
C1225 C1223 1.390 . S
C1225 C1226 1.387 . S
C1225 H1228 0.950 . S
C1226 C1225 1.387 . S
C1226 C1229 1.387 . S
H1227 C1223 0.950 . S
H1228 C1225 0.950 . S
C1229 C1220 1.390 . S
C1229 H1222 0.950 . S
C1229 C1226 1.387 . S
C1230 C1231 1.387 . S
C1230 H1234 0.950 . S
C1230 C1239 1.390 . S
C1231 C1230 1.387 . S
C1231 C1233 1.387 . S
H1232 C1239 0.950 . S
C1233 C1231 1.387 . S
C1233 C1235 1.390 . S
C1233 H1237 0.950 . S
H1234 C1230 0.950 . S
C1235 C1233 1.390 . S
C1235 C1236 1.387 . S
C1235 H1238 0.950 . S
C1236 C1235 1.387 . S
C1236 C1239 1.387 . S
H1237 C1233 0.950 . S
H1238 C1235 0.950 . S
C1239 C1230 1.390 . S
C1239 H1232 0.950 . S
C1239 C1236 1.387 . S
C1240 C1241 1.387 . S
C1240 H1244 0.950 . S
C1240 C1249 1.390 . S
C1241 C1240 1.387 . S
C1241 C1243 1.387 . S
H1242 C1249 0.950 . S
C1243 C1241 1.387 . S
C1243 C1245 1.390 . S
C1243 H1247 0.950 . S
H1244 C1240 0.950 . S
C1245 C1243 1.390 . S
C1245 C1246 1.387 . S
C1245 H1248 0.950 . S
C1246 C1245 1.387 . S
C1246 C1249 1.387 . S
H1247 C1243 0.950 . S
H1248 C1245 0.950 . S
C1249 C1240 1.390 . S
C1249 H1242 0.950 . S
C1249 C1246 1.387 . S
C1250 C1251 1.387 . S
C1250 H1254 0.950 . S
C1250 C1259 1.390 . S
C1251 C1250 1.387 . S
C1251 C1253 1.387 . S
H1252 C1259 0.950 . S
C1253 C1251 1.387 . S
C1253 C1255 1.390 . S
C1253 H1257 0.950 . S
H1254 C1250 0.950 . S
C1255 C1253 1.390 . S
C1255 C1256 1.387 . S
C1255 H1258 0.950 . S
C1256 C1255 1.387 . S
C1256 C1259 1.387 . S
H1257 C1253 0.950 . S
H1258 C1255 0.950 . S
C1259 C1250 1.390 . S
C1259 H1252 0.950 . S
C1259 C1256 1.387 . S
C721 C539 2.513 . S
C726 C19 2.523 . S
C731 C58 2.054 . S
C736 C578 2.049 . S
C741 C99 2.291 . S
C746 C498 2.328 . S
C751 C98 1.896 . S
C756 C298 1.897 . S
C761 C338 2.211 . S
C766 C18 2.203 . S
C771 C59 2.370 . S
C776 C258 2.412 . S
C781 C130 2.289 . S
C786 C409 2.306 . S
C791 C169 1.760 . S
C796 C449 1.758 . S
C801 C369 2.017 . S
C806 C210 1.974 . S
C811 C649 2.062 . S
C816 C209 2.068 . S
C821 C129 2.323 . S
C826 C690 2.296 . S
C831 C610 2.542 . S
C836 C170 2.508 . S
C841 C339 2.169 . S
C846 C538 2.215 . S
C851 C259 2.409 . S
C856 C579 2.396 . S
C861 C299 2.668 . S
C866 C499 2.694 . S
C871 C370 2.804 . S
C876 C650 2.793 . S
C881 C689 2.350 . S
C886 C410 2.331 . S
C891 C609 2.638 . S
C896 C450 2.599 . S
C901 C9 1.449 . S
C906 C178 1.452 . S
C911 C219 1.895 . S
C916 C50 1.898 . S
C921 C139 1.685 . S
C926 C89 1.533 . S
C931 C179 1.921 . S
C936 C90 1.972 . S
C941 C218 1.694 . S
C946 C10 1.735 . S
C951 C138 1.536 . S
C956 C49 1.593 . S
C961 C419 1.989 . S
C966 C250 1.973 . S
C971 C459 2.058 . S
C976 C290 2.045 . S
C981 C379 2.083 . S
C986 C330 1.968 . S
C991 C418 1.516 . S
C996 C329 1.520 . S
C1001 C458 1.439 . S
C1006 C249 1.585 . S
C1011 C378 1.463 . S
C1016 C289 1.479 . S
C1021 C658 1.586 . S
C1026 C489 1.530 . S
C1031 C699 1.965 . S
C1036 C530 1.914 . S
C1041 C569 1.692 . S
C1046 C619 1.728 . S
C1051 C570 2.083 . S
C1056 C659 2.087 . S
C1061 C490 1.837 . S
C1066 C698 1.682 . S
C1071 C618 1.562 . S
C1076 C529 1.556 . S
C1081 C15 1.401 . S
C1086 C6 1.392 . S
C1091 C46 1.535 . S
C1096 C55 1.535 . S
C1101 C95 1.396 . S
C1106 C86 1.396 . S
C1111 C126 1.503 . S
C1116 C135 1.496 1_455 S
C1121 C166 1.368 . S
C1126 C175 1.368 . S
C1131 C215 1.611 . S
C1136 C206 1.601 . S
C1141 C255 1.791 . S
C1146 C246 1.791 . S
C1151 C286 1.339 . S
C1156 C295 1.339 . S
C1161 C335 1.786 . S
C1166 C326 1.786 . S
C1171 C366 1.344 . S
C1176 C375 1.344 . S
C1181 C406 1.726 . S
C1186 C415 1.726 . S
C1191 C446 1.358 . S
C1196 C455 1.358 . S
C1201 C486 1.374 . S
C1206 C495 1.374 . S
C1211 C526 1.505 . S
C1216 C535 1.505 . S
C1221 C575 1.396 . S
C1226 C566 1.396 . S
C1231 C615 1.564 . S
C1236 C606 1.564 . S
C1241 C646 1.363 . S
C1246 C655 1.363 . S
C1251 C686 1.497 . S
C1256 C695 1.497 . S
