# Generated by pormake.
# Topology pcb, (4)-cn, num edge types: 1
# Building blocks:
#     Node 0, Type 0, BuildingBlock: KUFVIS_clean_sbu_0, # of connection points: 4
#     Node 1, Type 0, BuildingBlock: KUFVIS_clean_sbu_0, # of connection points: 4
#     Node 2, Type 0, BuildingBlock: KUFVIS_clean_sbu_0, # of connection points: 4
#     Node 3, Type 0, BuildingBlock: KUFVIS_clean_sbu_0, # of connection points: 4
#     Node 4, Type 0, BuildingBlock: KUFVIS_clean_sbu_0, # of connection points: 4
#     Node 5, Type 0, BuildingBlock: KUFVIS_clean_sbu_0, # of connection points: 4
#     Node 6, Type 0, BuildingBlock: KUFVIS_clean_sbu_0, # of connection points: 4
#     Node 7, Type 0, BuildingBlock: KUFVIS_clean_sbu_0, # of connection points: 4
#     Node 8, Type 0, BuildingBlock: KUFVIS_clean_sbu_0, # of connection points: 4
#     Node 9, Type 0, BuildingBlock: KUFVIS_clean_sbu_0, # of connection points: 4
#     Node 10, Type 0, BuildingBlock: KUFVIS_clean_sbu_0, # of connection points: 4
#     Node 11, Type 0, BuildingBlock: KUFVIS_clean_sbu_0, # of connection points: 4
#     Node 12, Type 0, BuildingBlock: KUFVIS_clean_sbu_0, # of connection points: 4
#     Node 13, Type 0, BuildingBlock: KUFVIS_clean_sbu_0, # of connection points: 4
#     Node 14, Type 0, BuildingBlock: KUFVIS_clean_sbu_0, # of connection points: 4
#     Node 15, Type 0, BuildingBlock: KUFVIS_clean_sbu_0, # of connection points: 4
#     Edge 16, Type (0, 0), BuildingBlock: AJUNOK_clean_linker_0, # of connection points: 2
#     Edge 17, Type (0, 0), BuildingBlock: AJUNOK_clean_linker_0, # of connection points: 2
#     Edge 18, Type (0, 0), BuildingBlock: AJUNOK_clean_linker_0, # of connection points: 2
#     Edge 19, Type (0, 0), BuildingBlock: AJUNOK_clean_linker_0, # of connection points: 2
#     Edge 20, Type (0, 0), BuildingBlock: AJUNOK_clean_linker_0, # of connection points: 2
#     Edge 21, Type (0, 0), BuildingBlock: AJUNOK_clean_linker_0, # of connection points: 2
#     Edge 22, Type (0, 0), BuildingBlock: AJUNOK_clean_linker_0, # of connection points: 2
#     Edge 23, Type (0, 0), BuildingBlock: AJUNOK_clean_linker_0, # of connection points: 2
#     Edge 24, Type (0, 0), BuildingBlock: AJUNOK_clean_linker_0, # of connection points: 2
#     Edge 25, Type (0, 0), BuildingBlock: AJUNOK_clean_linker_0, # of connection points: 2
#     Edge 26, Type (0, 0), BuildingBlock: AJUNOK_clean_linker_0, # of connection points: 2
#     Edge 27, Type (0, 0), BuildingBlock: AJUNOK_clean_linker_0, # of connection points: 2
#     Edge 28, Type (0, 0), BuildingBlock: AJUNOK_clean_linker_0, # of connection points: 2
#     Edge 29, Type (0, 0), BuildingBlock: AJUNOK_clean_linker_0, # of connection points: 2
#     Edge 30, Type (0, 0), BuildingBlock: AJUNOK_clean_linker_0, # of connection points: 2
#     Edge 31, Type (0, 0), BuildingBlock: AJUNOK_clean_linker_0, # of connection points: 2
#     Edge 32, Type (0, 0), BuildingBlock: AJUNOK_clean_linker_0, # of connection points: 2
#     Edge 33, Type (0, 0), BuildingBlock: AJUNOK_clean_linker_0, # of connection points: 2
#     Edge 34, Type (0, 0), BuildingBlock: AJUNOK_clean_linker_0, # of connection points: 2
#     Edge 35, Type (0, 0), BuildingBlock: AJUNOK_clean_linker_0, # of connection points: 2
#     Edge 36, Type (0, 0), BuildingBlock: AJUNOK_clean_linker_0, # of connection points: 2
#     Edge 37, Type (0, 0), BuildingBlock: AJUNOK_clean_linker_0, # of connection points: 2
#     Edge 38, Type (0, 0), BuildingBlock: AJUNOK_clean_linker_0, # of connection points: 2
#     Edge 39, Type (0, 0), BuildingBlock: AJUNOK_clean_linker_0, # of connection points: 2
#     Edge 40, Type (0, 0), BuildingBlock: AJUNOK_clean_linker_0, # of connection points: 2
#     Edge 41, Type (0, 0), BuildingBlock: AJUNOK_clean_linker_0, # of connection points: 2
#     Edge 42, Type (0, 0), BuildingBlock: AJUNOK_clean_linker_0, # of connection points: 2
#     Edge 43, Type (0, 0), BuildingBlock: AJUNOK_clean_linker_0, # of connection points: 2
#     Edge 44, Type (0, 0), BuildingBlock: AJUNOK_clean_linker_0, # of connection points: 2
#     Edge 45, Type (0, 0), BuildingBlock: AJUNOK_clean_linker_0, # of connection points: 2
#     Edge 46, Type (0, 0), BuildingBlock: AJUNOK_clean_linker_0, # of connection points: 2
#     Edge 47, Type (0, 0), BuildingBlock: AJUNOK_clean_linker_0, # of connection points: 2
# Relax obj value: 0.288
# Max RMSD: 0.151
# Mean RMSD: 0.151
data_MOF--net-pcb--node1-KUFVIS_clean_sbu_0--edge1-AJUNOK_clean_linker_0
_symmetry_space_group_name_H-M    P1
_symmetry_Int_Tables_number       1
_symmetry_cell_setting            triclinic
loop_
_symmetry_equiv_pos_as_xyz
'x, y, z'
_cell_length_a     28.729721
_cell_length_b     35.485749
_cell_length_c     35.497968
_cell_angle_alpha  90.00446
_cell_angle_beta   89.887781
_cell_angle_gamma 90.004649
loop_
_atom_site_label
_atom_site_type_symbol
_atom_site_fract_x
_atom_site_fract_y
_atom_site_fract_z
_atom_type_partial_charge
Mn0 Mn 0.17581 0.17102 0.15842 0.0
Mn1 Mn 0.12471 0.24725 0.11918 0.0
C2 C 0.10378 0.19262 0.18026 0.0
C3 C 0.19083 0.1061 0.16123 0.0
C4 C 0.20564 0.25296 0.17311 0.0
O5 O 0.20783 0.17493 0.10691 0.0
O6 O 0.16779 0.22375 0.08223 0.0
C7 C 0.07061 0.20138 0.06621 0.0
N8 N 0.07201 0.22978 0.09186 0.0
C9 C 0.98849 0.23426 0.09286 0.0
C10 C 0.98627 0.2056 0.06574 0.0
C11 C 0.02762 0.18842 0.05331 0.0
C12 C 0.0325 0.24484 0.10603 0.0
H13 H 0.10192 0.18736 0.0571 0.0
C14 C 0.19673 0.19646 0.07942 0.0
O15 O 0.21914 0.13056 0.17569 0.0
O16 O 0.15388 0.11929 0.14484 0.0
N17 N 0.08048 0.27223 0.15105 0.0
C18 C 0.08835 0.29447 0.1817 0.0
C19 C 0.05069 0.3125 0.19942 0.0
C20 C 0.00537 0.30752 0.1855 0.0
C21 C 0.99812 0.28465 0.15383 0.0
C22 C 0.03713 0.26816 0.1368 0.0
H23 H 0.12306 0.29851 0.19255 0.0
O24 O 0.13003 0.17201 0.20174 0.0
O25 O 0.12124 0.20016 0.14756 0.0
O26 O 0.20884 0.2176 0.17888 0.0
O27 O 0.1777 0.26732 0.14905 0.0
C28 C 0.9536 0.27641 0.13938 0.0
C29 C 0.94873 0.25079 0.10924 0.0
H30 H 0.953 0.19524 0.05583 0.0
H31 H 0.02685 0.16411 0.03511 0.0
H32 H 0.05655 0.33003 0.2239 0.0
H33 H 0.97633 0.3209 0.19967 0.0
H34 H 0.92276 0.28848 0.15218 0.0
H35 H 0.91423 0.24324 0.09956 0.0
Mn36 Mn 0.82981 0.16316 0.17108 0.0
Mn37 Mn 0.88329 0.12185 0.24516 0.0
C38 C 0.90304 0.18369 0.19112 0.0
C39 C 0.81246 0.16684 0.10656 0.0
C40 C 0.80259 0.1759 0.25395 0.0
O41 O 0.79689 0.11199 0.17517 0.0
O42 O 0.83875 0.08602 0.22228 0.0
C43 C 0.9351 0.06818 0.19794 0.0
N44 N 0.93497 0.09412 0.22611 0.0
C45 C 0.01857 0.09334 0.22959 0.0
C46 C 0.01951 0.06588 0.2012 0.0
C47 C 0.97753 0.05414 0.18466 0.0
C48 C 0.97513 0.10746 0.24067 0.0
H49 H 0.90319 0.05952 0.18452 0.0
C50 C 0.80811 0.08418 0.19625 0.0
O51 O 0.78537 0.18151 0.13185 0.0
O52 O 0.8496 0.14989 0.11867 0.0
N53 N 0.92879 0.15284 0.26953 0.0
C54 C 0.9221 0.18325 0.29235 0.0
C55 C 0.96057 0.20019 0.30989 0.0
C56 C 0.00548 0.18568 0.30386 0.0
C57 C 0.01149 0.15421 0.28046 0.0
C58 C 0.97175 0.13805 0.26438 0.0
H59 H 0.88769 0.19448 0.29722 0.0
O60 O 0.87649 0.20584 0.17148 0.0
O61 O 0.88529 0.15109 0.19857 0.0
O62 O 0.79872 0.18332 0.21891 0.0
O63 O 0.83128 0.15163 0.26693 0.0
C64 C 0.05547 0.13903 0.27144 0.0
C65 C 0.05905 0.1089 0.24564 0.0
H66 H 0.05227 0.05501 0.19064 0.0
H67 H 0.97752 0.03553 0.16068 0.0
H68 H 0.95566 0.2245 0.32787 0.0
H69 H 0.03513 0.19921 0.31695 0.0
H70 H 0.08686 0.15115 0.28318 0.0
H71 H 0.09313 0.09851 0.23767 0.0
Mn72 Mn 0.82722 0.861 0.16067 0.0
Mn73 Mn 0.87972 0.78679 0.11848 0.0
C74 C 0.8994 0.83906 0.18182 0.0
C75 C 0.81071 0.92549 0.16594 0.0
C76 C 0.79983 0.77809 0.17335 0.0
O77 O 0.7945 0.85837 0.10943 0.0
O78 O 0.8347 0.81032 0.08357 0.0
C79 C 0.93092 0.83739 0.0675 0.0
N80 N 0.93105 0.80711 0.09101 0.0
C81 C 0.01475 0.80458 0.09025 0.0
C82 C 0.01541 0.83515 0.06525 0.0
C83 C 0.97326 0.85227 0.0548 0.0
C84 C 0.97144 0.79227 0.10359 0.0
H85 H 0.89883 0.85118 0.0599 0.0
C86 C 0.80465 0.83679 0.08175 0.0
O87 O 0.78306 0.90004 0.17957 0.0
O88 O 0.84789 0.91358 0.14876 0.0
N89 N 0.92567 0.76093 0.14772 0.0
C90 C 0.91902 0.73449 0.17506 0.0
C91 C 0.95742 0.71458 0.18928 0.0
C92 C 0.00229 0.7222 0.17545 0.0
C93 C 0.00823 0.74912 0.14695 0.0
C94 C 0.96842 0.7669 0.13283 0.0
H95 H 0.88463 0.72826 0.18568 0.0
O96 O 0.873 0.85899 0.20387 0.0
O97 O 0.88237 0.83275 0.14876 0.0
O98 O 0.79538 0.81329 0.17962 0.0
O99 O 0.82817 0.76458 0.14893 0.0
C100 C 0.05207 0.75925 0.13223 0.0
C101 C 0.0554 0.78749 0.10435 0.0
H102 H 0.04808 0.84669 0.05523 0.0
H103 H 0.97313 0.87744 0.0377 0.0
H104 H 0.9525 0.69368 0.21112 0.0
H105 H 0.03193 0.70739 0.18707 0.0
H106 H 0.08353 0.7463 0.14291 0.0
H107 H 0.0894 0.79629 0.09444 0.0
Mn108 Mn 0.17172 0.86781 0.16871 0.0
Mn109 Mn 0.12108 0.91001 0.24361 0.0
C110 C 0.09994 0.8465 0.19171 0.0
C111 C 0.18633 0.86409 0.10381 0.0
C112 C 0.20158 0.85556 0.2509 0.0
O113 O 0.20467 0.91899 0.17108 0.0
O114 O 0.16412 0.94564 0.21848 0.0
C115 C 0.06666 0.95851 0.19324 0.0
N116 N 0.0683 0.93618 0.22436 0.0
C117 C 0.98474 0.93504 0.22878 0.0
C118 C 0.98226 0.95888 0.19736 0.0
C119 C 0.02348 0.9695 0.17879 0.0
C120 C 0.02885 0.92305 0.24043 0.0
H121 H 0.09799 0.96619 0.17837 0.0
C122 C 0.19386 0.94719 0.19171 0.0
O123 O 0.21463 0.84961 0.12827 0.0
O124 O 0.14937 0.88059 0.11699 0.0
N125 N 0.07694 0.88012 0.27096 0.0
C126 C 0.08528 0.85303 0.29732 0.0
C127 C 0.04806 0.83837 0.31845 0.0
C128 C 0.00262 0.85152 0.31213 0.0
C129 C 0.9949 0.87959 0.28509 0.0
C130 C 0.03363 0.89425 0.2661 0.0
H131 H 0.12012 0.84299 0.30261 0.0
O132 O 0.12578 0.82461 0.17113 0.0
O133 O 0.11749 0.87938 0.19805 0.0
O134 O 0.20462 0.84856 0.21572 0.0
O135 O 0.17423 0.88061 0.26464 0.0
C136 C 0.95029 0.89326 0.27585 0.0
C137 C 0.94514 0.92047 0.24717 0.0
H138 H 0.94891 0.96763 0.18619 0.0
H139 H 0.02227 0.98532 0.15281 0.0
H140 H 0.05433 0.81676 0.33934 0.0
H141 H 0.97388 0.83956 0.3279 0.0
H142 H 0.91963 0.88214 0.28974 0.0
H143 H 0.91056 0.92942 0.23896 0.0
Mn144 Mn 0.16842 0.85775 0.86534 0.0
Mn145 Mn 0.11693 0.78368 0.90845 0.0
C146 C 0.09627 0.83519 0.84467 0.0
C147 C 0.18369 0.92258 0.86076 0.0
C148 C 0.19819 0.77529 0.85464 0.0
O149 O 0.20136 0.85551 0.91656 0.0
O150 O 0.15994 0.80888 0.9438 0.0
C151 C 0.06238 0.83355 0.95778 0.0
N152 N 0.06406 0.80306 0.93459 0.0
C153 C 0.98052 0.79834 0.93393 0.0
C154 C 0.978 0.82908 0.95867 0.0
C155 C 0.01916 0.84745 0.96958 0.0
C156 C 0.02465 0.78703 0.92147 0.0
H157 H 0.09369 0.84824 0.96577 0.0
C158 C 0.19018 0.83523 0.94498 0.0
O159 O 0.21169 0.89769 0.84651 0.0
O160 O 0.1467 0.90989 0.87761 0.0
N161 N 0.07287 0.75651 0.87848 0.0
C162 C 0.08123 0.73046 0.85108 0.0
C163 C 0.04397 0.70973 0.83605 0.0
C164 C 0.99848 0.71612 0.84919 0.0
C165 C 0.99076 0.74282 0.87762 0.0
C166 C 0.02948 0.76152 0.89251 0.0
H167 H 0.1161 0.72515 0.84103 0.0
O168 O 0.12226 0.85523 0.82239 0.0
O169 O 0.11386 0.82906 0.87752 0.0
O170 O 0.20095 0.81023 0.84639 0.0
O171 O 0.17025 0.76224 0.8796 0.0
C172 C 0.94613 0.75197 0.89144 0.0
C173 C 0.94095 0.78018 0.91915 0.0
H174 H 0.94465 0.83987 0.96802 0.0
H175 H 0.01787 0.87289 0.98618 0.0
H176 H 0.05024 0.6891 0.81418 0.0
H177 H 0.96973 0.70063 0.83699 0.0
H178 H 0.91548 0.73828 0.88015 0.0
H179 H 0.90637 0.7882 0.92836 0.0
Mn180 Mn 0.16959 0.16099 0.85589 0.0
Mn181 Mn 0.11661 0.12019 0.78124 0.0
C182 C 0.09668 0.18184 0.83545 0.0
C183 C 0.18661 0.16493 0.92049 0.0
C184 C 0.19799 0.17373 0.77335 0.0
O185 O 0.20196 0.10956 0.85186 0.0
O186 O 0.16004 0.08374 0.80464 0.0
C187 C 0.06289 0.06673 0.82735 0.0
N188 N 0.06405 0.09296 0.79946 0.0
C189 C 0.98052 0.0932 0.79495 0.0
C190 C 0.97854 0.06546 0.82302 0.0
C191 C 0.01997 0.05308 0.83995 0.0
C192 C 0.02442 0.10689 0.78452 0.0
H193 H 0.09435 0.05755 0.84107 0.0
C194 C 0.19026 0.08166 0.831 0.0
O195 O 0.21396 0.17923 0.89519 0.0
O196 O 0.14944 0.14801 0.90836 0.0
N197 N 0.07213 0.1519 0.75655 0.0
C198 C 0.07977 0.18251 0.73419 0.0
C199 C 0.04192 0.20015 0.71646 0.0
C200 C 0.99665 0.18615 0.72185 0.0
C201 C 0.98964 0.1545 0.74481 0.0
C202 C 0.02881 0.13763 0.76111 0.0
H203 H 0.11445 0.19338 0.72982 0.0
O204 O 0.12322 0.20388 0.85522 0.0
O205 O 0.11428 0.14919 0.82802 0.0
O206 O 0.20126 0.1811 0.8084 0.0
O207 O 0.16952 0.14946 0.76008 0.0
C208 C 0.94523 0.13981 0.75322 0.0
C209 C 0.94063 0.10945 0.77863 0.0
H210 H 0.94539 0.05489 0.8331 0.0
H211 H 0.01916 0.03442 0.86384 0.0
H212 H 0.0476 0.2246 0.69883 0.0
H213 H 0.96748 0.20021 0.70863 0.0
H214 H 0.91428 0.15248 0.7413 0.0
H215 H 0.90621 0.09943 0.78612 0.0
Mn216 Mn 0.82339 0.17183 0.86822 0.0
Mn217 Mn 0.8769 0.24662 0.90814 0.0
C218 C 0.896 0.19223 0.84633 0.0
C219 C 0.80695 0.107 0.86563 0.0
C220 C 0.7951 0.25438 0.85518 0.0
O221 O 0.79142 0.17622 0.91983 0.0
O222 O 0.83415 0.22317 0.94519 0.0
C223 C 0.9313 0.19949 0.95978 0.0
N224 N 0.92982 0.22821 0.93449 0.0
C225 C 0.01335 0.23225 0.93276 0.0
C226 C 0.0157 0.2032 0.95945 0.0
C227 C 0.97437 0.18611 0.9721 0.0
C228 C 0.96925 0.24324 0.92015 0.0
H229 H 0.89993 0.18562 0.96905 0.0
C230 C 0.80377 0.19692 0.94763 0.0
O231 O 0.7792 0.13181 0.85101 0.0
O232 O 0.84414 0.11978 0.88196 0.0
N233 N 0.92084 0.27157 0.87602 0.0
C234 C 0.91271 0.29427 0.84577 0.0
C235 C 0.95027 0.3123 0.8279 0.0
C236 C 0.99575 0.30687 0.84131 0.0
C237 C 0.00327 0.28356 0.87261 0.0
C238 C 0.96437 0.26702 0.88977 0.0
H239 H 0.87786 0.2987 0.83538 0.0
O240 O 0.86923 0.17205 0.82487 0.0
O241 O 0.87876 0.19995 0.87906 0.0
O242 O 0.79159 0.21927 0.84779 0.0
O243 O 0.82356 0.26761 0.87948 0.0
C244 C 0.04792 0.27492 0.88655 0.0
C245 C 0.053 0.24886 0.91629 0.0
H246 H 0.04902 0.19255 0.9689 0.0
H247 H 0.97524 0.16163 0.99011 0.0
H248 H 0.94419 0.3302 0.80373 0.0
H249 H 0.02469 0.32029 0.82704 0.0
H250 H 0.07867 0.28703 0.87366 0.0
H251 H 0.08757 0.24104 0.92559 0.0
Mn252 Mn 0.82368 0.86815 0.85831 0.0
Mn253 Mn 0.87803 0.91088 0.78544 0.0
C254 C 0.89587 0.84626 0.83683 0.0
C255 C 0.80657 0.86368 0.92275 0.0
C256 C 0.79663 0.85766 0.77528 0.0
O257 O 0.79145 0.91971 0.85557 0.0
O258 O 0.83489 0.94668 0.81007 0.0
C259 C 0.93186 0.95795 0.83766 0.0
N260 N 0.93068 0.93606 0.80621 0.0
C261 C 0.0143 0.93431 0.803 0.0
C262 C 0.01635 0.95763 0.83483 0.0
C263 C 0.97486 0.96838 0.85292 0.0
C264 C 0.97032 0.92284 0.79053 0.0
H265 H 0.90023 0.96577 0.85209 0.0
C266 C 0.80375 0.94812 0.83574 0.0
O267 O 0.77898 0.84987 0.89739 0.0
O268 O 0.84408 0.88026 0.91077 0.0
N269 N 0.9224 0.88081 0.75858 0.0
C270 C 0.91434 0.85418 0.7317 0.0
C271 C 0.95189 0.83939 0.71106 0.0
C272 C 0.99736 0.85197 0.71835 0.0
C273 C 0.00477 0.87969 0.74581 0.0
C274 C 0.96578 0.89445 0.76437 0.0
H275 H 0.8795 0.8446 0.72563 0.0
O276 O 0.86903 0.82448 0.85666 0.0
O277 O 0.87927 0.87948 0.83055 0.0
O278 O 0.7925 0.84953 0.81017 0.0
O279 O 0.82497 0.88266 0.76283 0.0
C280 C 0.04931 0.89295 0.75584 0.0
C281 C 0.05413 0.91976 0.78493 0.0
H282 H 0.04956 0.96598 0.8466 0.0
H283 H 0.97579 0.9841 0.879 0.0
H284 H 0.94585 0.81811 0.68978 0.0
H285 H 0.02633 0.83992 0.70293 0.0
H286 H 0.08015 0.88179 0.74224 0.0
H287 H 0.08861 0.92837 0.79375 0.0
Mn288 Mn 0.67374 0.67185 0.66028 0.0
Mn289 Mn 0.6205 0.74608 0.61908 0.0
C290 C 0.60086 0.69243 0.68139 0.0
C291 C 0.69058 0.60718 0.66421 0.0
C292 C 0.70167 0.75462 0.67251 0.0
O293 O 0.70619 0.67557 0.60888 0.0
O294 O 0.66379 0.72225 0.58269 0.0
C295 C 0.56689 0.69825 0.56754 0.0
N296 N 0.56797 0.72727 0.59249 0.0
C297 C 0.48442 0.73123 0.59339 0.0
C298 C 0.48249 0.7019 0.56699 0.0
C299 C 0.52402 0.68468 0.55497 0.0
C300 C 0.52832 0.74241 0.6063 0.0
H301 H 0.59841 0.68428 0.55874 0.0
C302 C 0.69414 0.69595 0.58077 0.0
O303 O 0.71805 0.63244 0.67837 0.0
O304 O 0.6535 0.61941 0.64728 0.0
N305 N 0.57606 0.7713 0.65054 0.0
C306 C 0.58373 0.79434 0.68061 0.0
C307 C 0.54589 0.8125 0.69796 0.0
C308 C 0.5006 0.80684 0.68421 0.0
C309 C 0.49356 0.78317 0.6531 0.0
C310 C 0.53273 0.76653 0.63646 0.0
H311 H 0.61843 0.79895 0.69127 0.0
O312 O 0.62746 0.67261 0.70332 0.0
O313 O 0.61839 0.69971 0.64867 0.0
O314 O 0.70517 0.7196 0.68021 0.0
O315 O 0.67339 0.76758 0.64793 0.0
C316 C 0.44912 0.77432 0.63885 0.0
C317 C 0.44451 0.74795 0.60933 0.0
H318 H 0.44933 0.69111 0.55731 0.0
H319 H 0.52343 0.65995 0.53733 0.0
H320 H 0.55159 0.83067 0.72199 0.0
H321 H 0.47144 0.82036 0.69808 0.0
H322 H 0.41817 0.78651 0.65135 0.0
H323 H 0.41008 0.73997 0.59981 0.0
Mn324 Mn 0.32705 0.66108 0.67099 0.0
Mn325 Mn 0.38047 0.6203 0.74547 0.0
C326 C 0.40011 0.68184 0.69119 0.0
C327 C 0.30956 0.66584 0.60653 0.0
C328 C 0.29958 0.67414 0.75382 0.0
O329 O 0.29461 0.60964 0.67498 0.0
O330 O 0.33598 0.5843 0.72276 0.0
C331 C 0.43246 0.56617 0.69894 0.0
N332 N 0.43222 0.59242 0.72681 0.0
C333 C 0.5158 0.59159 0.73061 0.0
C334 C 0.51684 0.56379 0.70256 0.0
C335 C 0.47493 0.55196 0.68598 0.0
C336 C 0.47233 0.60588 0.74137 0.0
H337 H 0.40062 0.55741 0.68548 0.0
C338 C 0.30569 0.58207 0.69648 0.0
O339 O 0.28238 0.67966 0.6322 0.0
O340 O 0.34665 0.64846 0.61818 0.0
N341 N 0.42588 0.65152 0.76967 0.0
C342 C 0.4191 0.68217 0.79216 0.0
C343 C 0.45751 0.69931 0.8096 0.0
C344 C 0.50244 0.68476 0.80381 0.0
C345 C 0.50854 0.65306 0.78074 0.0
C346 C 0.46886 0.63671 0.76475 0.0
H347 H 0.38467 0.69345 0.79684 0.0
O348 O 0.37345 0.70396 0.67162 0.0
O349 O 0.3826 0.64914 0.69857 0.0
O350 O 0.29569 0.6811 0.71872 0.0
O351 O 0.32844 0.65017 0.76705 0.0
C352 C 0.55255 0.63778 0.77199 0.0
C353 C 0.55623 0.60734 0.74657 0.0
H354 H 0.54964 0.55278 0.69223 0.0
H355 H 0.47502 0.53324 0.66211 0.0
H356 H 0.45252 0.7238 0.82732 0.0
H357 H 0.53204 0.69843 0.81681 0.0
H358 H 0.5839 0.65003 0.78367 0.0
H359 H 0.59034 0.59686 0.73881 0.0
Mn360 Mn 0.32651 0.3585 0.66234 0.0
Mn361 Mn 0.37896 0.28537 0.61832 0.0
C362 C 0.39908 0.33648 0.68254 0.0
C363 C 0.30989 0.42299 0.66802 0.0
C364 C 0.29845 0.27556 0.67259 0.0
O365 O 0.29322 0.35642 0.61131 0.0
O366 O 0.33489 0.3102 0.58364 0.0
C367 C 0.43167 0.33619 0.56855 0.0
N368 N 0.431 0.3057 0.59179 0.0
C369 C 0.51462 0.30213 0.59157 0.0
C370 C 0.51611 0.33296 0.5669 0.0
C371 C 0.4744 0.35067 0.55627 0.0
C372 C 0.47095 0.29016 0.60442 0.0
H373 H 0.3999 0.35038 0.56078 0.0
C374 C 0.30431 0.33631 0.58276 0.0
O375 O 0.28251 0.39745 0.68186 0.0
O376 O 0.34698 0.41118 0.65065 0.0
N377 N 0.42404 0.25857 0.64759 0.0
C378 C 0.41663 0.23205 0.67473 0.0
C379 C 0.45455 0.21172 0.68918 0.0
C380 C 0.49971 0.21897 0.67576 0.0
C381 C 0.50644 0.24606 0.64754 0.0
C382 C 0.4671 0.26436 0.63322 0.0
H383 H 0.38202 0.2261 0.685 0.0
O384 O 0.37292 0.35606 0.7051 0.0
O385 O 0.38155 0.33058 0.64961 0.0
O386 O 0.295 0.31043 0.68091 0.0
O387 O 0.32654 0.26294 0.64752 0.0
C388 C 0.55065 0.25595 0.63336 0.0
C389 C 0.5548 0.28443 0.60582 0.0
H390 H 0.5491 0.3442 0.55724 0.0
H391 H 0.47492 0.37594 0.53933 0.0
H392 H 0.44904 0.19074 0.71086 0.0
H393 H 0.52897 0.20378 0.68754 0.0
H394 H 0.58175 0.24259 0.64421 0.0
H395 H 0.58906 0.29299 0.59631 0.0
Mn396 Mn 0.67167 0.36831 0.66977 0.0
Mn397 Mn 0.61772 0.41034 0.74323 0.0
C398 C 0.59955 0.34622 0.69134 0.0
C399 C 0.68832 0.36486 0.60518 0.0
C400 C 0.69929 0.35715 0.75263 0.0
O401 O 0.70381 0.41995 0.67276 0.0
O402 O 0.6607 0.44635 0.71879 0.0
C403 C 0.56363 0.4574 0.69132 0.0
N404 N 0.56497 0.4356 0.72283 0.0
C405 C 0.48138 0.43379 0.72633 0.0
C406 C 0.47915 0.45708 0.6945 0.0
C407 C 0.52054 0.46774 0.67619 0.0
C408 C 0.52543 0.42232 0.73861 0.0
H409 H 0.59518 0.46511 0.6767 0.0
C410 C 0.69168 0.44811 0.69302 0.0
O411 O 0.71607 0.35054 0.63015 0.0
O412 O 0.65075 0.38099 0.61765 0.0
N413 N 0.57353 0.38005 0.77004 0.0
C414 C 0.58177 0.35324 0.79669 0.0
C415 C 0.54436 0.33835 0.81744 0.0
C416 C 0.49886 0.35105 0.8105 0.0
C417 C 0.49127 0.37893 0.78324 0.0
C418 C 0.53013 0.39378 0.76458 0.0
H419 H 0.61665 0.34359 0.8025 0.0
O420 O 0.62628 0.32462 0.67121 0.0
O421 O 0.6163 0.37931 0.69791 0.0
O422 O 0.70327 0.34926 0.71766 0.0
O423 O 0.67093 0.38199 0.76536 0.0
C424 C 0.44666 0.39225 0.77348 0.0
C425 C 0.44166 0.41918 0.74452 0.0
H426 H 0.44587 0.46537 0.68283 0.0
H427 H 0.5195 0.48323 0.64999 0.0
H428 H 0.55054 0.31693 0.83855 0.0
H429 H 0.47 0.33893 0.82599 0.0
H430 H 0.41591 0.38102 0.78715 0.0
H431 H 0.40712 0.42781 0.73587 0.0
Mn432 Mn 0.67133 0.35834 0.36679 0.0
Mn433 Mn 0.62067 0.28409 0.41023 0.0
C434 C 0.59941 0.33516 0.34628 0.0
C435 C 0.68595 0.42319 0.36163 0.0
C436 C 0.70169 0.276 0.35615 0.0
O437 O 0.70426 0.35669 0.41807 0.0
O438 O 0.6638 0.30952 0.44531 0.0
C439 C 0.56626 0.33389 0.45979 0.0
N440 N 0.5679 0.30341 0.43658 0.0
C441 C 0.48437 0.29853 0.43622 0.0
C442 C 0.48189 0.32928 0.46094 0.0
C443 C 0.52306 0.34769 0.47177 0.0
C444 C 0.52846 0.28728 0.42363 0.0
H445 H 0.59758 0.34863 0.46771 0.0
C446 C 0.69356 0.33625 0.44649 0.0
O447 O 0.71421 0.39835 0.34763 0.0
O448 O 0.64909 0.41042 0.37863 0.0
N449 N 0.57652 0.25663 0.38061 0.0
C450 C 0.58484 0.2303 0.35346 0.0
C451 C 0.54758 0.20932 0.3388 0.0
C452 C 0.50214 0.21572 0.35203 0.0
C453 C 0.49447 0.24269 0.38021 0.0
C454 C 0.5332 0.26164 0.39478 0.0
H455 H 0.61968 0.22496 0.34336 0.0
O456 O 0.62522 0.35521 0.32387 0.0
O457 O 0.61706 0.32935 0.37917 0.0
O458 O 0.70433 0.31098 0.34811 0.0
O459 O 0.67385 0.26276 0.3811 0.0
C460 C 0.44989 0.25184 0.39412 0.0
C461 C 0.44477 0.28022 0.42167 0.0
H462 H 0.44855 0.34 0.47041 0.0
H463 H 0.52178 0.37303 0.48856 0.0
H464 H 0.55382 0.18846 0.31712 0.0
H465 H 0.47339 0.20002 0.3401 0.0
H466 H 0.41922 0.23799 0.38306 0.0
H467 H 0.41022 0.28821 0.43098 0.0
Mn468 Mn 0.67129 0.66101 0.35734 0.0
Mn469 Mn 0.62017 0.6217 0.28108 0.0
C470 C 0.59865 0.682 0.33637 0.0
C471 C 0.68736 0.66398 0.42214 0.0
C472 C 0.70093 0.67606 0.27541 0.0
O473 O 0.70398 0.60987 0.35276 0.0
O474 O 0.66348 0.58491 0.30429 0.0
C475 C 0.56606 0.56727 0.32569 0.0
N476 N 0.56751 0.59384 0.29815 0.0
C477 C 0.48402 0.59399 0.29297 0.0
C478 C 0.48178 0.56588 0.32066 0.0
C479 C 0.52303 0.55339 0.33777 0.0
C480 C 0.528 0.60792 0.28311 0.0
H481 H 0.59735 0.55802 0.33961 0.0
C482 C 0.69291 0.58236 0.33121 0.0
O483 O 0.71495 0.67871 0.39727 0.0
O484 O 0.65042 0.64711 0.40947 0.0
N485 N 0.57583 0.65367 0.25652 0.0
C486 C 0.58359 0.68476 0.23485 0.0
C487 C 0.5459 0.70257 0.21706 0.0
C488 C 0.50065 0.68826 0.2217 0.0
C489 C 0.49351 0.65614 0.24398 0.0
C490 C 0.53254 0.63911 0.26032 0.0
H491 H 0.61824 0.69591 0.23108 0.0
O492 O 0.62471 0.70374 0.35689 0.0
O493 O 0.6166 0.64958 0.32851 0.0
O494 O 0.70371 0.68202 0.31072 0.0
O495 O 0.67314 0.65186 0.26108 0.0
C496 C 0.44906 0.64118 0.25173 0.0
C497 C 0.44426 0.6104 0.27659 0.0
H498 H 0.44855 0.55512 0.33033 0.0
H499 H 0.52199 0.53446 0.36144 0.0
H500 H 0.55168 0.7274 0.19998 0.0
H501 H 0.47159 0.70247 0.20847 0.0
H502 H 0.41821 0.65397 0.23977 0.0
H503 H 0.4098 0.60018 0.28364 0.0
Mn504 Mn 0.32532 0.67062 0.36875 0.0
Mn505 Mn 0.37836 0.74603 0.40794 0.0
C506 C 0.39783 0.69115 0.34677 0.0
C507 C 0.30837 0.60608 0.36522 0.0
C508 C 0.29765 0.75315 0.35404 0.0
O509 O 0.29345 0.67488 0.42032 0.0
O510 O 0.33421 0.72349 0.44459 0.0
C511 C 0.43067 0.69842 0.46049 0.0
N512 N 0.43027 0.72738 0.43544 0.0
C513 C 0.5139 0.7304 0.43497 0.0
C514 C 0.51512 0.70119 0.46152 0.0
C515 C 0.47321 0.68443 0.47333 0.0
C516 C 0.47031 0.74191 0.42169 0.0
H517 H 0.39886 0.68473 0.46906 0.0
C518 C 0.30449 0.69678 0.44751 0.0
O519 O 0.28074 0.63131 0.35127 0.0
O520 O 0.34566 0.61826 0.38194 0.0
N521 N 0.42356 0.77033 0.37647 0.0
C522 C 0.41657 0.79307 0.34606 0.0
C523 C 0.45483 0.81081 0.3289 0.0
C524 C 0.49986 0.80505 0.34316 0.0
C525 C 0.50619 0.78172 0.37461 0.0
C526 C 0.46661 0.76556 0.39109 0.0
H527 H 0.38208 0.79776 0.33499 0.0
O528 O 0.37102 0.67098 0.32532 0.0
O529 O 0.3807 0.69885 0.37955 0.0
O530 O 0.29345 0.71782 0.34853 0.0
O531 O 0.3262 0.76717 0.37783 0.0
C532 C 0.55033 0.7727 0.38936 0.0
C533 C 0.55423 0.74658 0.41916 0.0
H534 H 0.54802 0.69009 0.47142 0.0
H535 H 0.47326 0.65976 0.49107 0.0
H536 H 0.44967 0.82873 0.30459 0.0
H537 H 0.52936 0.81821 0.32941 0.0
H538 H 0.58159 0.7845 0.37699 0.0
H539 H 0.58843 0.73836 0.429 0.0
Mn540 Mn 0.32699 0.36799 0.36004 0.0
Mn541 Mn 0.38091 0.40916 0.28603 0.0
C542 C 0.39899 0.34563 0.33866 0.0
C543 C 0.30987 0.36494 0.42448 0.0
C544 C 0.30007 0.35531 0.27723 0.0
O545 O 0.29487 0.41944 0.35661 0.0
O546 O 0.33728 0.44517 0.3098 0.0
C547 C 0.43403 0.45771 0.33738 0.0
N548 N 0.4332 0.43516 0.30639 0.0
C549 C 0.51686 0.43384 0.30348 0.0
C550 C 0.51855 0.4578 0.33482 0.0
C551 C 0.47687 0.46874 0.35253 0.0
C552 C 0.47305 0.42185 0.29111 0.0
H553 H 0.40226 0.46564 0.35157 0.0
C554 C 0.30656 0.44723 0.33577 0.0
O555 O 0.28232 0.3505 0.39945 0.0
O556 O 0.3476 0.38097 0.41218 0.0
N557 N 0.4257 0.3789 0.25986 0.0
C558 C 0.41801 0.35182 0.23334 0.0
C559 C 0.45576 0.337 0.21298 0.0
C560 C 0.50108 0.34999 0.22017 0.0
C561 C 0.50811 0.37817 0.24724 0.0
C562 C 0.46891 0.39294 0.26549 0.0
H563 H 0.38328 0.34191 0.22736 0.0
O564 O 0.37221 0.32423 0.35897 0.0
O565 O 0.38244 0.37875 0.33185 0.0
O566 O 0.29552 0.3487 0.31238 0.0
O567 O 0.32829 0.37995 0.26394 0.0
C568 C 0.55247 0.39189 0.25714 0.0
C569 C 0.55691 0.41923 0.28578 0.0
H570 H 0.55163 0.46659 0.34651 0.0
H571 H 0.47755 0.48509 0.37823 0.0
H572 H 0.45001 0.31538 0.192 0.0
H573 H 0.53021 0.33791 0.20499 0.0
H574 H 0.58347 0.38072 0.24379 0.0
H575 H 0.59127 0.42823 0.29452 0.0
C576 C 0.2635 0.34114 0.21398 0.0
C577 C 0.27539 0.32965 0.25072 0.0
C578 C 0.24142 0.31624 0.18871 0.0
C579 C 0.23167 0.27862 0.19885 0.0
H580 H 0.27078 0.36966 0.20485 0.0
H581 H 0.23207 0.32652 0.16101 0.0
S582 S 0.25753 0.23412 0.29135 0.0
N583 N 0.2767 0.2777 0.29551 0.0
N584 N 0.23607 0.23129 0.24841 0.0
C585 C 0.24417 0.26674 0.23534 0.0
C586 C 0.26578 0.29211 0.26112 0.0
C587 C 0.74077 0.26088 0.29518 0.0
C588 C 0.72857 0.2495 0.33191 0.0
C589 C 0.7635 0.23651 0.27024 0.0
C590 C 0.77585 0.19967 0.28091 0.0
H591 H 0.73199 0.28881 0.28513 0.0
H592 H 0.77217 0.24704 0.24244 0.0
S593 S 0.75222 0.15566 0.37387 0.0
N594 N 0.73024 0.19851 0.37767 0.0
N595 N 0.77422 0.15284 0.33092 0.0
C596 C 0.76425 0.18781 0.31763 0.0
C597 C 0.74024 0.21259 0.343 0.0
C598 C 0.76076 0.71568 0.18734 0.0
C599 C 0.77456 0.75192 0.19903 0.0
C600 C 0.73733 0.69101 0.21211 0.0
C601 C 0.728 0.70127 0.24979 0.0
H602 H 0.76748 0.70653 0.15873 0.0
H603 H 0.72656 0.66369 0.20168 0.0
S604 S 0.75915 0.79251 0.29482 0.0
N605 N 0.77846 0.79628 0.25123 0.0
N606 N 0.73527 0.75035 0.29742 0.0
C607 C 0.74256 0.73723 0.26188 0.0
C608 C 0.76559 0.76239 0.23664 0.0
C609 C 0.26224 0.81663 0.33864 0.0
C610 C 0.27179 0.77901 0.3284 0.0
C611 C 0.23968 0.8415 0.31361 0.0
C612 C 0.22705 0.82999 0.27703 0.0
H613 H 0.27198 0.82688 0.36626 0.0
H614 H 0.23248 0.87 0.32285 0.0
S615 S 0.24456 0.73447 0.23617 0.0
N616 N 0.26676 0.7317 0.27887 0.0
N617 N 0.2252 0.77802 0.23224 0.0
C618 C 0.23666 0.79247 0.2665 0.0
C619 C 0.25877 0.76714 0.29202 0.0
C620 C 0.26003 0.73478 0.76922 0.0
C621 C 0.2727 0.69818 0.78045 0.0
C622 C 0.23715 0.75943 0.79381 0.0
C623 C 0.22514 0.74856 0.83072 0.0
H624 H 0.26854 0.74492 0.74125 0.0
H625 H 0.22812 0.78716 0.78336 0.0
S626 S 0.24972 0.65554 0.87415 0.0
N627 N 0.27162 0.65215 0.83121 0.0
N628 N 0.22737 0.69833 0.87729 0.0
C629 C 0.23714 0.71189 0.84238 0.0
C630 C 0.2613 0.68684 0.81737 0.0
C631 C 0.23761 0.23438 0.7581 0.0
C632 C 0.22496 0.19779 0.74677 0.0
C633 C 0.26028 0.25916 0.73356 0.0
C634 C 0.27211 0.24848 0.69655 0.0
H635 H 0.22918 0.24443 0.78612 0.0
H636 H 0.26923 0.28688 0.74409 0.0
S637 S 0.24771 0.15559 0.65282 0.0
N638 N 0.22601 0.15196 0.69581 0.0
N639 N 0.2699 0.19844 0.64979 0.0
C640 C 0.26025 0.21182 0.6848 0.0
C641 C 0.23629 0.1866 0.70978 0.0
C642 C 0.75743 0.27048 0.79395 0.0
C643 C 0.76892 0.28126 0.83093 0.0
C644 C 0.73624 0.29563 0.76892 0.0
C645 C 0.72479 0.33269 0.77974 0.0
H646 H 0.76573 0.24248 0.7838 0.0
H647 H 0.72807 0.28553 0.7409 0.0
S648 S 0.74653 0.37504 0.87366 0.0
N649 N 0.76718 0.33175 0.87727 0.0
N650 N 0.72605 0.37882 0.83037 0.0
C651 C 0.73549 0.34385 0.81679 0.0
C652 C 0.75793 0.31828 0.84225 0.0
C653 C 0.75996 0.79613 0.75882 0.0
C654 C 0.7714 0.83319 0.74801 0.0
C655 C 0.73893 0.77095 0.73378 0.0
C656 C 0.72757 0.78166 0.69676 0.0
H657 H 0.76802 0.78603 0.78687 0.0
H658 H 0.73065 0.74295 0.74396 0.0
S659 S 0.75002 0.87541 0.65399 0.0
N660 N 0.77033 0.87927 0.69733 0.0
N661 N 0.72942 0.83209 0.65036 0.0
C662 C 0.73854 0.81869 0.68542 0.0
C663 C 0.76086 0.84431 0.71092 0.0
C664 C 0.21899 0.20214 0.9746 0.0
C665 C 0.19626 0.16952 0.96137 0.0
C666 C 0.22301 0.20955 1.01342 0.0
C667 C 0.20631 0.18384 0.04041 0.0
H668 H 0.23118 0.22323 0.95485 0.0
H669 H 0.23719 0.23638 0.02238 0.0
S670 S 0.14703 0.09315 0.02047 0.0
N671 N 0.15853 0.11073 0.97841 0.0
N672 N 0.1681 0.12371 0.0511 0.0
C673 C 0.1863 0.15003 0.02748 0.0
C674 C 0.18071 0.14313 0.98805 0.0
C675 C 0.77636 0.21045 1.01314 0.0
C676 C 0.79326 0.18447 0.98649 0.0
C677 C 0.78006 0.20342 0.05205 0.0
C678 C 0.80263 0.17091 0.06567 0.0
H679 H 0.76241 0.23724 1.00386 0.0
H680 H 0.76787 0.22475 0.07154 0.0
S681 S 0.85198 0.09384 1.00753 0.0
N682 N 0.83133 0.1242 0.97651 0.0
N683 N 0.84013 0.11179 0.04938 0.0
C684 C 0.8182 0.14418 0.03932 0.0
C685 C 0.81301 0.15075 0.99981 0.0
C686 C 0.81121 0.88723 0.9892 0.0
C687 C 0.79689 0.8593 0.96359 0.0
C688 C 0.80761 0.88161 0.0283 0.0
C689 C 0.79075 0.84744 0.04315 0.0
H690 H 0.82683 0.91309 0.97897 0.0
H691 H 0.82196 0.9028 0.04696 0.0
S692 S 0.74634 0.76632 0.98826 0.0
N693 N 0.76184 0.79742 0.95595 0.0
N694 N 0.75748 0.7862 0.02935 0.0
C695 C 0.77429 0.8201 0.01788 0.0
C696 C 0.77675 0.8262 0.97811 0.0
C697 C 0.21813 0.82868 0.04832 0.0
C698 C 0.19492 0.86057 0.06271 0.0
C699 C 0.2209 0.82208 1.0093 0.0
C700 C 0.20237 0.84792 0.98331 0.0
H701 H 0.23152 0.80742 0.06732 0.0
H702 H 0.23525 0.7956 0.99947 0.0
S703 S 0.14195 0.93731 1.00633 0.0
N704 N 0.15529 0.91913 0.04775 0.0
N705 N 0.16261 0.90762 0.97462 0.0
C706 C 0.1822 0.88119 0.99731 0.0
C707 C 0.17787 0.88727 0.03696 0.0
C708 C 0.02825 0.21367 0.20996 0.0
C709 C 0.05284 0.19076 0.18445 0.0
C710 C 0.97917 0.21275 0.21135 0.0
C711 C 0.95399 0.1875 0.18864 0.0
H712 H 0.04689 0.23279 0.22828 0.0
H713 H 0.961 0.2312 0.2307 0.0
S714 S 0.00259 0.12094 0.1184 0.0
N715 N 0.04854 0.14215 0.13648 0.0
N716 N 0.95711 0.13949 0.14001 0.0
C717 C 0.97846 0.1643 0.16351 0.0
C718 C 0.02778 0.16589 0.16146 0.0
C719 C 0.8154 0.99257 0.14399 0.0
C720 C 0.80145 0.96627 0.17143 0.0
C721 C 0.81157 0.03154 0.15051 0.0
C722 C 0.79486 0.04555 0.18509 0.0
H723 H 0.83076 0.98299 0.11779 0.0
H724 H 0.8255 0.05075 0.12959 0.0
S725 S 0.75188 0.98864 0.26539 0.0
N726 N 0.76723 0.95711 0.23346 0.0
N727 N 0.76251 0.03023 0.24632 0.0
C728 C 0.77901 0.01959 0.21204 0.0
C729 C 0.78168 0.97997 0.20505 0.0
C730 C 0.97597 0.86386 0.16338 0.0
C731 C 0.95021 0.83971 0.18675 0.0
C732 C 0.02441 0.86533 0.16547 0.0
C733 C 0.04903 0.84233 0.19066 0.0
H734 H 0.95844 0.88192 0.14328 0.0
H735 H 0.04285 0.8846 0.14704 0.0
S736 S 0.99801 0.7737 0.25758 0.0
N737 N 0.95241 0.793 0.23673 0.0
N738 N 0.04454 0.79354 0.23851 0.0
C739 C 0.02396 0.81744 0.21379 0.0
C740 C 0.97414 0.81693 0.21261 0.0
C741 C 0.22197 0.05084 0.1973 0.0
C742 C 0.19906 0.06497 0.16521 0.0
C743 C 0.22427 1.01188 0.20442 0.0
C744 C 0.20558 0.98566 0.1789 0.0
H745 H 0.23554 0.07005 0.21831 0.0
H746 H 0.23856 1.0023 0.23097 0.0
S747 S 0.14536 1.00794 0.08935 0.0
N748 N 0.15918 0.04951 0.10698 0.0
N749 N 0.16569 0.97647 0.11937 0.0
C750 C 0.18553 0.99937 0.1455 0.0
C751 C 0.18166 0.03898 0.13891 0.0
C752 C 0.97225 0.86335 0.86266 0.0
C753 C 0.9466 0.84085 0.83772 0.0
C754 C 0.02066 0.861 0.86423 0.0
C755 C 0.04535 0.83635 0.84061 0.0
H756 H 0.95467 0.88304 0.88119 0.0
H757 H 0.03904 0.87887 0.884 0.0
S758 S 0.99451 0.77099 0.77056 0.0
N759 N 0.94888 0.79182 0.79 0.0
N760 N 0.04098 0.78943 0.79092 0.0
C761 C 0.02036 0.81386 0.81517 0.0
C762 C 0.97055 0.81535 0.81448 0.0
C763 C 0.21505 0.9775 0.82412 0.0
C764 C 0.19268 0.9636 0.85663 0.0
C765 C 0.21838 0.01646 0.81721 0.0
C766 C 0.20133 0.0429 0.84333 0.0
H767 H 0.22741 0.95816 0.80271 0.0
H768 H 0.23215 0.02594 0.7904 0.0
S769 S 0.1432 0.0212 0.93413 0.0
N770 N 0.15518 0.97948 0.91592 0.0
N771 N 0.1635 0.05246 0.9038 0.0
C772 C 0.18183 0.02934 0.87708 0.0
C773 C 0.17692 0.98977 0.8835 0.0
C774 C 0.02086 0.2115 0.8153 0.0
C775 C 0.04572 0.18582 0.83774 0.0
C776 C 0.97178 0.21282 0.8167 0.0
C777 C 0.94689 0.18982 0.84194 0.0
H778 H 0.03927 0.23006 0.79621 0.0
H779 H 0.9534 0.23236 0.79866 0.0
S780 S 0.99621 0.11866 0.90701 0.0
N781 N 0.04194 0.13716 0.8857 0.0
N782 N 0.95054 0.14048 0.88918 0.0
C783 C 0.97162 0.16438 0.86455 0.0
C784 C 0.02093 0.16243 0.8625 0.0
C785 C 0.77419 1.01282 0.82203 0.0
C786 C 0.79135 0.98656 0.84823 0.0
C787 C 0.77657 0.05181 0.82905 0.0
C788 C 0.79806 0.06592 0.86177 0.0
H789 H 0.76122 1.00323 0.79504 0.0
H790 H 0.76435 0.07101 0.8075 0.0
S791 S 0.84682 1.00875 0.93976 0.0
N792 N 0.8278 0.97731 0.90914 0.0
N793 N 0.83455 0.05037 0.92145 0.0
C794 C 0.81372 0.03989 0.88878 0.0
C795 C 0.80973 1.00027 0.88223 0.0
C796 C 0.7183 0.70141 0.47647 0.0
C797 C 0.69636 0.66851 0.46311 0.0
C798 C 0.72168 0.70893 0.51528 0.0
C799 C 0.7051 0.68308 0.54214 0.0
H800 H 0.73029 0.72267 0.45681 0.0
H801 H 0.73511 0.73599 0.5243 0.0
S802 S 0.64848 0.59135 0.52201 0.0
N803 N 0.65988 0.6091 0.47997 0.0
N804 N 0.66837 0.62234 0.55273 0.0
C805 C 0.68607 0.64894 0.52916 0.0
C806 C 0.68109 0.64189 0.4897 0.0
C807 C 0.31326 0.64428 0.5392 0.0
C808 C 0.30008 0.67168 0.5658 0.0
C809 C 0.30896 0.65104 0.5003 0.0
C810 C 0.29259 0.68585 0.48659 0.0
H811 H 0.32827 0.61786 0.54847 0.0
H812 H 0.32213 0.63003 0.48084 0.0
S813 S 0.25195 0.76631 0.5444 0.0
N814 N 0.2672 0.73406 0.57559 0.0
N815 N 0.26163 0.74735 0.50261 0.0
C816 C 0.27773 0.71286 0.51288 0.0
C817 C 0.28083 0.70562 0.55244 0.0
C818 C 0.27835 0.32877 0.47939 0.0
C819 C 0.29981 0.36155 0.46531 0.0
C820 C 0.27505 0.32218 0.51835 0.0
C821 C 0.29136 0.3488 0.54454 0.0
H822 H 0.26703 0.30685 0.46024 0.0
H823 H 0.26238 0.29508 0.52801 0.0
S824 S 0.34522 0.44108 0.52216 0.0
N825 N 0.33434 0.42214 0.48058 0.0
N826 N 0.32627 0.41044 0.55368 0.0
C827 C 0.30929 0.383 0.53078 0.0
C828 C 0.31409 0.38919 0.49118 0.0
C829 C 0.72312 0.32242 0.511 0.0
C830 C 0.70597 0.34878 0.48488 0.0
C831 C 0.72005 0.32898 0.55 0.0
C832 C 0.698 0.36145 0.56424 0.0
H833 H 0.73644 0.29556 0.50126 0.0
H834 H 0.73212 0.30728 0.56909 0.0
S835 S 0.64973 0.44003 0.50767 0.0
N836 N 0.66917 0.40972 0.47602 0.0
N837 N 0.66167 0.42136 0.54916 0.0
C838 C 0.68269 0.38877 0.53843 0.0
C839 C 0.68719 0.38263 0.49879 0.0
C840 C 0.52476 0.71325 0.71034 0.0
C841 C 0.54993 0.69004 0.68547 0.0
C842 C 0.47568 0.71189 0.71144 0.0
C843 C 0.45106 0.68599 0.68906 0.0
H844 H 0.54295 0.73296 0.72834 0.0
H845 H 0.45705 0.73057 0.73028 0.0
S846 S 0.50133 0.6184 0.62058 0.0
N847 N 0.5468 0.64036 0.63857 0.0
N848 N 0.45537 0.63702 0.64144 0.0
C849 C 0.47613 0.66247 0.66461 0.0
C850 C 0.52545 0.66443 0.66289 0.0
C851 C 0.30964 0.52888 0.65134 0.0
C852 C 0.29273 0.54323 0.68573 0.0
C853 C 0.31391 0.48986 0.64532 0.0
C854 C 0.30025 0.46379 0.67308 0.0
H855 H 0.3234 0.54792 0.6302 0.0
H856 H 0.32937 0.48007 0.61923 0.0
S857 S 0.25026 0.48699 0.76669 0.0
N858 N 0.26044 0.52842 0.74711 0.0
N859 N 0.26603 0.45516 0.73518 0.0
C860 C 0.28027 0.47778 0.7065 0.0
C861 C 0.27713 0.51747 0.71298 0.0
C862 C 0.52353 0.36385 0.66519 0.0
C863 C 0.54877 0.3411 0.69019 0.0
C864 C 0.4751 0.36186 0.66341 0.0
C865 C 0.44998 0.33736 0.68687 0.0
H866 H 0.54146 0.38342 0.64676 0.0
H867 H 0.45707 0.37987 0.64357 0.0
S868 S 0.49962 0.27143 0.75694 0.0
N869 N 0.5456 0.29199 0.73778 0.0
N870 N 0.45349 0.29029 0.73645 0.0
C871 C 0.47455 0.31464 0.71238 0.0
C872 C 0.52437 0.31576 0.71329 0.0
C873 C 0.68413 0.54032 0.6417 0.0
C874 C 0.69966 0.56623 0.66895 0.0
C875 C 0.68733 0.50123 0.64779 0.0
C876 C 0.70513 0.48669 0.68174 0.0
H877 H 0.66793 0.55031 0.61603 0.0
H878 H 0.67221 0.48238 0.62714 0.0
S879 S 0.75231 0.54229 0.76127 0.0
N880 N 0.7364 0.57432 0.73007 0.0
N881 N 0.74011 0.50103 0.74213 0.0
C882 C 0.72254 0.5122 0.70843 0.0
C883 C 0.72042 0.55193 0.70187 0.0
C884 C 0.47535 0.36316 0.36419 0.0
C885 C 0.44971 0.34025 0.33961 0.0
C886 C 0.52377 0.36097 0.36567 0.0
C887 C 0.54849 0.33612 0.34228 0.0
H888 H 0.45774 0.38306 0.38249 0.0
H889 H 0.54213 0.37913 0.38519 0.0
S890 S 0.49769 0.26971 0.2732 0.0
N891 N 0.45204 0.29062 0.29252 0.0
N892 N 0.54416 0.28858 0.29319 0.0
C893 C 0.52351 0.31323 0.31719 0.0
C894 C 0.47369 0.31453 0.31663 0.0
C895 C 0.71719 0.47796 0.32468 0.0
C896 C 0.69459 0.46421 0.35717 0.0
C897 C 0.72051 0.51689 0.31757 0.0
C898 C 0.70324 0.54344 0.34349 0.0
H899 H 0.72986 0.45852 0.30349 0.0
H900 H 0.73462 0.52626 0.29084 0.0
S901 S 0.64397 0.52213 0.43391 0.0
N902 N 0.65628 0.48034 0.41603 0.0
N903 N 0.66462 0.55325 0.4036 0.0
C904 C 0.68332 0.53002 0.37714 0.0
C905 C 0.67841 0.49049 0.38373 0.0
C906 C 0.52261 0.71117 0.31602 0.0
C907 C 0.54763 0.68556 0.33842 0.0
C908 C 0.47352 0.71211 0.31723 0.0
C909 C 0.44873 0.68884 0.34229 0.0
H910 H 0.54093 0.73 0.29714 0.0
H911 H 0.45503 0.73159 0.2992 0.0
S912 S 0.49846 0.61759 0.40703 0.0
N913 N 0.5441 0.6365 0.38597 0.0
N914 N 0.45266 0.63926 0.38925 0.0
C915 C 0.47361 0.66344 0.36482 0.0
C916 C 0.52295 0.66181 0.36291 0.0
C917 C 0.31053 0.50014 0.38119 0.0
C918 C 0.29341 0.48588 0.34689 0.0
C919 C 0.31399 0.53916 0.38751 0.0
C920 C 0.29926 0.56524 0.36017 0.0
H921 H 0.32498 0.4811 0.40198 0.0
H922 H 0.32969 0.54896 0.41345 0.0
S923 S 0.24849 0.54208 0.26696 0.0
N924 N 0.25991 0.50066 0.28606 0.0
N925 N 0.26397 0.57387 0.29855 0.0
C926 C 0.27912 0.55124 0.32686 0.0
C927 C 0.27683 0.51158 0.32006 0.0
loop_
_geom_bond_atom_site_label_1
_geom_bond_atom_site_label_2
_geom_bond_distance
_geom_bond_site_symmetry_2
_ccdc_geom_bond_type
Mn0 O5 2.095 . S
Mn0 O15 2.162 . S
Mn0 O16 2.297 . S
Mn0 O24 2.385 . S
Mn0 O25 2.209 . S
Mn0 O26 2.094 . S
Mn1 O6 2.121 . S
Mn1 N8 2.257 . S
Mn1 N17 2.282 . S
Mn1 O25 2.215 . S
Mn1 O27 2.117 . S
C2 O24 1.234 . S
C2 O25 1.283 . S
C3 O15 1.281 . S
C3 O16 1.236 . S
C4 O26 1.240 . S
C4 O27 1.264 . S
O5 Mn0 2.095 . S
O5 C14 1.250 . S
O6 Mn1 2.121 . S
O6 C14 1.258 . S
C7 N8 1.326 . S
C7 C11 1.460 . S
C7 H13 0.929 . S
N8 Mn1 2.257 . S
N8 C7 1.326 . S
N8 C12 1.362 . S
C9 C10 1.258 1_455 S
C9 C12 1.431 . S
C9 C29 1.449 1_455 S
C10 C9 1.258 1_655 S
C10 C11 1.477 1_655 S
C10 H30 0.931 . S
C11 C7 1.460 . S
C11 C10 1.477 1_455 S
C11 H31 0.930 . S
C12 N8 1.362 . S
C12 C9 1.431 . S
C12 C22 1.476 . S
H13 C7 0.929 . S
C14 O5 1.250 . S
C14 O6 1.258 . S
O15 Mn0 2.162 . S
O15 C3 1.281 . S
O16 Mn0 2.297 . S
O16 C3 1.236 . S
N17 Mn1 2.282 . S
N17 C18 1.328 . S
N17 C22 1.318 . S
C18 N17 1.328 . S
C18 C19 1.457 . S
C18 H23 0.929 . S
C19 C18 1.457 . S
C19 C20 1.291 . S
C19 H32 0.931 . S
C20 C19 1.291 . S
C20 C21 1.373 . S
C20 H33 0.929 1_455 S
C21 C20 1.373 . S
C21 C22 1.396 . S
C21 C28 1.403 1_455 S
C22 C12 1.476 . S
C22 N17 1.318 . S
C22 C21 1.396 . S
H23 C18 0.929 . S
O24 Mn0 2.385 . S
O24 C2 1.234 . S
O25 Mn0 2.209 . S
O25 Mn1 2.215 . S
O25 C2 1.283 . S
O26 Mn0 2.094 . S
O26 C4 1.240 . S
O27 Mn1 2.117 . S
O27 C4 1.264 . S
C28 C21 1.403 1_655 S
C28 C29 1.399 . S
C28 H34 0.929 . S
C29 C9 1.449 1_655 S
C29 C28 1.399 . S
C29 H35 0.930 . S
H30 C10 0.931 . S
H31 C11 0.930 . S
H32 C19 0.931 . S
H33 C20 0.929 1_655 S
H34 C28 0.929 . S
H35 C29 0.930 . S
Mn36 O41 2.095 . S
Mn36 O51 2.162 . S
Mn36 O52 2.297 . S
Mn36 O60 2.385 . S
Mn36 O61 2.209 . S
Mn36 O62 2.094 . S
Mn37 O42 2.121 . S
Mn37 N44 2.257 . S
Mn37 N53 2.282 . S
Mn37 O61 2.215 . S
Mn37 O63 2.117 . S
C38 O60 1.234 . S
C38 O61 1.283 . S
C39 O51 1.281 . S
C39 O52 1.236 . S
C40 O62 1.240 . S
C40 O63 1.264 . S
O41 Mn36 2.095 . S
O41 C50 1.250 . S
O42 Mn37 2.121 . S
O42 C50 1.258 . S
C43 N44 1.326 . S
C43 C47 1.460 . S
C43 H49 0.929 . S
N44 Mn37 2.257 . S
N44 C43 1.326 . S
N44 C48 1.362 . S
C45 C46 1.258 1_655 S
C45 C48 1.431 . S
C45 C65 1.449 1_655 S
C46 C45 1.258 1_455 S
C46 C47 1.477 1_455 S
C46 H66 0.931 . S
C47 C43 1.460 . S
C47 C46 1.477 1_655 S
C47 H67 0.930 . S
C48 N44 1.362 . S
C48 C45 1.431 . S
C48 C58 1.476 . S
H49 C43 0.929 . S
C50 O41 1.250 . S
C50 O42 1.258 . S
O51 Mn36 2.162 . S
O51 C39 1.281 . S
O52 Mn36 2.297 . S
O52 C39 1.236 . S
N53 Mn37 2.282 . S
N53 C54 1.328 . S
N53 C58 1.318 . S
C54 N53 1.328 . S
C54 C55 1.457 . S
C54 H59 0.929 . S
C55 C54 1.457 . S
C55 C56 1.291 . S
C55 H68 0.931 . S
C56 C55 1.291 . S
C56 C57 1.373 . S
C56 H69 0.929 1_655 S
C57 C56 1.373 . S
C57 C58 1.396 . S
C57 C64 1.403 1_655 S
C58 C48 1.476 . S
C58 N53 1.318 . S
C58 C57 1.396 . S
H59 C54 0.929 . S
O60 Mn36 2.385 . S
O60 C38 1.234 . S
O61 Mn36 2.209 . S
O61 Mn37 2.215 . S
O61 C38 1.283 . S
O62 Mn36 2.094 . S
O62 C40 1.240 . S
O63 Mn37 2.117 . S
O63 C40 1.264 . S
C64 C57 1.403 1_455 S
C64 C65 1.399 . S
C64 H70 0.929 . S
C65 C45 1.449 1_455 S
C65 C64 1.399 . S
C65 H71 0.930 . S
H66 C46 0.931 . S
H67 C47 0.930 . S
H68 C55 0.931 . S
H69 C56 0.929 1_455 S
H70 C64 0.929 . S
H71 C65 0.930 . S
Mn72 O77 2.095 . S
Mn72 O87 2.162 . S
Mn72 O88 2.297 . S
Mn72 O96 2.385 . S
Mn72 O97 2.209 . S
Mn72 O98 2.094 . S
Mn73 O78 2.121 . S
Mn73 N80 2.257 . S
Mn73 N89 2.282 . S
Mn73 O97 2.215 . S
Mn73 O99 2.117 . S
C74 O96 1.234 . S
C74 O97 1.283 . S
C75 O87 1.281 . S
C75 O88 1.236 . S
C76 O98 1.240 . S
C76 O99 1.264 . S
O77 Mn72 2.095 . S
O77 C86 1.250 . S
O78 Mn73 2.121 . S
O78 C86 1.258 . S
C79 N80 1.326 . S
C79 C83 1.460 . S
C79 H85 0.929 . S
N80 Mn73 2.257 . S
N80 C79 1.326 . S
N80 C84 1.362 . S
C81 C82 1.258 1_655 S
C81 C84 1.431 . S
C81 C101 1.449 1_655 S
C82 C81 1.258 1_455 S
C82 C83 1.477 1_455 S
C82 H102 0.931 . S
C83 C79 1.460 . S
C83 C82 1.477 1_655 S
C83 H103 0.930 . S
C84 N80 1.362 . S
C84 C81 1.431 . S
C84 C94 1.476 . S
H85 C79 0.929 . S
C86 O77 1.250 . S
C86 O78 1.258 . S
O87 Mn72 2.162 . S
O87 C75 1.281 . S
O88 Mn72 2.297 . S
O88 C75 1.236 . S
N89 Mn73 2.282 . S
N89 C90 1.328 . S
N89 C94 1.318 . S
C90 N89 1.328 . S
C90 C91 1.457 . S
C90 H95 0.929 . S
C91 C90 1.457 . S
C91 C92 1.291 . S
C91 H104 0.931 . S
C92 C91 1.291 . S
C92 C93 1.373 . S
C92 H105 0.929 1_655 S
C93 C92 1.373 . S
C93 C94 1.396 . S
C93 C100 1.403 1_655 S
C94 C84 1.476 . S
C94 N89 1.318 . S
C94 C93 1.396 . S
H95 C90 0.929 . S
O96 Mn72 2.385 . S
O96 C74 1.234 . S
O97 Mn72 2.209 . S
O97 Mn73 2.215 . S
O97 C74 1.283 . S
O98 Mn72 2.094 . S
O98 C76 1.240 . S
O99 Mn73 2.117 . S
O99 C76 1.264 . S
C100 C93 1.403 1_455 S
C100 C101 1.399 . S
C100 H106 0.929 . S
C101 C81 1.449 1_455 S
C101 C100 1.399 . S
C101 H107 0.930 . S
H102 C82 0.931 . S
H103 C83 0.930 . S
H104 C91 0.931 . S
H105 C92 0.929 1_455 S
H106 C100 0.929 . S
H107 C101 0.930 . S
Mn108 O113 2.095 . S
Mn108 O123 2.162 . S
Mn108 O124 2.297 . S
Mn108 O132 2.385 . S
Mn108 O133 2.209 . S
Mn108 O134 2.094 . S
Mn109 O114 2.121 . S
Mn109 N116 2.257 . S
Mn109 N125 2.282 . S
Mn109 O133 2.215 . S
Mn109 O135 2.117 . S
C110 O132 1.234 . S
C110 O133 1.283 . S
C111 O123 1.281 . S
C111 O124 1.236 . S
C112 O134 1.240 . S
C112 O135 1.264 . S
O113 Mn108 2.095 . S
O113 C122 1.250 . S
O114 Mn109 2.121 . S
O114 C122 1.258 . S
C115 N116 1.326 . S
C115 C119 1.460 . S
C115 H121 0.929 . S
N116 Mn109 2.257 . S
N116 C115 1.326 . S
N116 C120 1.362 . S
C117 C118 1.258 1_455 S
C117 C120 1.431 . S
C117 C137 1.449 1_455 S
C118 C117 1.258 1_655 S
C118 C119 1.477 1_655 S
C118 H138 0.931 . S
C119 C115 1.460 . S
C119 C118 1.477 1_455 S
C119 H139 0.930 . S
C120 N116 1.362 . S
C120 C117 1.431 . S
C120 C130 1.476 . S
H121 C115 0.929 . S
C122 O113 1.250 . S
C122 O114 1.258 . S
O123 Mn108 2.162 . S
O123 C111 1.281 . S
O124 Mn108 2.297 . S
O124 C111 1.236 . S
N125 Mn109 2.282 . S
N125 C126 1.328 . S
N125 C130 1.318 . S
C126 N125 1.328 . S
C126 C127 1.457 . S
C126 H131 0.929 . S
C127 C126 1.457 . S
C127 C128 1.291 . S
C127 H140 0.931 . S
C128 C127 1.291 . S
C128 C129 1.373 . S
C128 H141 0.929 1_455 S
C129 C128 1.373 . S
C129 C130 1.396 . S
C129 C136 1.403 1_455 S
C130 C120 1.476 . S
C130 N125 1.318 . S
C130 C129 1.396 . S
H131 C126 0.929 . S
O132 Mn108 2.385 . S
O132 C110 1.234 . S
O133 Mn108 2.209 . S
O133 Mn109 2.215 . S
O133 C110 1.283 . S
O134 Mn108 2.094 . S
O134 C112 1.240 . S
O135 Mn109 2.117 . S
O135 C112 1.264 . S
C136 C129 1.403 1_655 S
C136 C137 1.399 . S
C136 H142 0.929 . S
C137 C117 1.449 1_655 S
C137 C136 1.399 . S
C137 H143 0.930 . S
H138 C118 0.931 . S
H139 C119 0.930 . S
H140 C127 0.931 . S
H141 C128 0.929 1_655 S
H142 C136 0.929 . S
H143 C137 0.930 . S
Mn144 O149 2.095 . S
Mn144 O159 2.162 . S
Mn144 O160 2.297 . S
Mn144 O168 2.385 . S
Mn144 O169 2.209 . S
Mn144 O170 2.094 . S
Mn145 O150 2.121 . S
Mn145 N152 2.257 . S
Mn145 N161 2.282 . S
Mn145 O169 2.215 . S
Mn145 O171 2.117 . S
C146 O168 1.234 . S
C146 O169 1.283 . S
C147 O159 1.281 . S
C147 O160 1.236 . S
C148 O170 1.240 . S
C148 O171 1.264 . S
O149 Mn144 2.095 . S
O149 C158 1.250 . S
O150 Mn145 2.121 . S
O150 C158 1.258 . S
C151 N152 1.326 . S
C151 C155 1.460 . S
C151 H157 0.929 . S
N152 Mn145 2.257 . S
N152 C151 1.326 . S
N152 C156 1.362 . S
C153 C154 1.258 1_455 S
C153 C156 1.431 . S
C153 C173 1.449 1_455 S
C154 C153 1.258 1_655 S
C154 C155 1.477 1_655 S
C154 H174 0.931 . S
C155 C151 1.460 . S
C155 C154 1.477 1_455 S
C155 H175 0.930 . S
C156 N152 1.362 . S
C156 C153 1.431 . S
C156 C166 1.476 . S
H157 C151 0.929 . S
C158 O149 1.250 . S
C158 O150 1.258 . S
O159 Mn144 2.162 . S
O159 C147 1.281 . S
O160 Mn144 2.297 . S
O160 C147 1.236 . S
N161 Mn145 2.282 . S
N161 C162 1.328 . S
N161 C166 1.318 . S
C162 N161 1.328 . S
C162 C163 1.457 . S
C162 H167 0.929 . S
C163 C162 1.457 . S
C163 C164 1.291 . S
C163 H176 0.931 . S
C164 C163 1.291 . S
C164 C165 1.373 . S
C164 H177 0.929 1_455 S
C165 C164 1.373 . S
C165 C166 1.396 . S
C165 C172 1.403 1_455 S
C166 C156 1.476 . S
C166 N161 1.318 . S
C166 C165 1.396 . S
H167 C162 0.929 . S
O168 Mn144 2.385 . S
O168 C146 1.234 . S
O169 Mn144 2.209 . S
O169 Mn145 2.215 . S
O169 C146 1.283 . S
O170 Mn144 2.094 . S
O170 C148 1.240 . S
O171 Mn145 2.117 . S
O171 C148 1.264 . S
C172 C165 1.403 1_655 S
C172 C173 1.399 . S
C172 H178 0.929 . S
C173 C153 1.449 1_655 S
C173 C172 1.399 . S
C173 H179 0.930 . S
H174 C154 0.931 . S
H175 C155 0.930 . S
H176 C163 0.931 . S
H177 C164 0.929 1_655 S
H178 C172 0.929 . S
H179 C173 0.930 . S
Mn180 O185 2.095 . S
Mn180 O195 2.162 . S
Mn180 O196 2.297 . S
Mn180 O204 2.385 . S
Mn180 O205 2.209 . S
Mn180 O206 2.094 . S
Mn181 O186 2.121 . S
Mn181 N188 2.257 . S
Mn181 N197 2.282 . S
Mn181 O205 2.215 . S
Mn181 O207 2.117 . S
C182 O204 1.234 . S
C182 O205 1.283 . S
C183 O195 1.281 . S
C183 O196 1.236 . S
C184 O206 1.240 . S
C184 O207 1.264 . S
O185 Mn180 2.095 . S
O185 C194 1.250 . S
O186 Mn181 2.121 . S
O186 C194 1.258 . S
C187 N188 1.326 . S
C187 C191 1.460 . S
C187 H193 0.929 . S
N188 Mn181 2.257 . S
N188 C187 1.326 . S
N188 C192 1.362 . S
C189 C190 1.258 1_455 S
C189 C192 1.431 . S
C189 C209 1.449 1_455 S
C190 C189 1.258 1_655 S
C190 C191 1.477 1_655 S
C190 H210 0.931 . S
C191 C187 1.460 . S
C191 C190 1.477 1_455 S
C191 H211 0.930 . S
C192 N188 1.362 . S
C192 C189 1.431 . S
C192 C202 1.476 . S
H193 C187 0.929 . S
C194 O185 1.250 . S
C194 O186 1.258 . S
O195 Mn180 2.162 . S
O195 C183 1.281 . S
O196 Mn180 2.297 . S
O196 C183 1.236 . S
N197 Mn181 2.282 . S
N197 C198 1.328 . S
N197 C202 1.318 . S
C198 N197 1.328 . S
C198 C199 1.457 . S
C198 H203 0.929 . S
C199 C198 1.457 . S
C199 C200 1.291 . S
C199 H212 0.931 . S
C200 C199 1.291 . S
C200 C201 1.373 . S
C200 H213 0.929 1_455 S
C201 C200 1.373 . S
C201 C202 1.396 . S
C201 C208 1.403 1_455 S
C202 C192 1.476 . S
C202 N197 1.318 . S
C202 C201 1.396 . S
H203 C198 0.929 . S
O204 Mn180 2.385 . S
O204 C182 1.234 . S
O205 Mn180 2.209 . S
O205 Mn181 2.215 . S
O205 C182 1.283 . S
O206 Mn180 2.094 . S
O206 C184 1.240 . S
O207 Mn181 2.117 . S
O207 C184 1.264 . S
C208 C201 1.403 1_655 S
C208 C209 1.399 . S
C208 H214 0.929 . S
C209 C189 1.449 1_655 S
C209 C208 1.399 . S
C209 H215 0.930 . S
H210 C190 0.931 . S
H211 C191 0.930 . S
H212 C199 0.931 . S
H213 C200 0.929 1_655 S
H214 C208 0.929 . S
H215 C209 0.930 . S
Mn216 O221 2.095 . S
Mn216 O231 2.162 . S
Mn216 O232 2.297 . S
Mn216 O240 2.385 . S
Mn216 O241 2.209 . S
Mn216 O242 2.094 . S
Mn217 O222 2.121 . S
Mn217 N224 2.257 . S
Mn217 N233 2.282 . S
Mn217 O241 2.215 . S
Mn217 O243 2.117 . S
C218 O240 1.234 . S
C218 O241 1.283 . S
C219 O231 1.281 . S
C219 O232 1.236 . S
C220 O242 1.240 . S
C220 O243 1.264 . S
O221 Mn216 2.095 . S
O221 C230 1.250 . S
O222 Mn217 2.121 . S
O222 C230 1.258 . S
C223 N224 1.326 . S
C223 C227 1.460 . S
C223 H229 0.929 . S
N224 Mn217 2.257 . S
N224 C223 1.326 . S
N224 C228 1.362 . S
C225 C226 1.258 1_655 S
C225 C228 1.431 . S
C225 C245 1.449 1_655 S
C226 C225 1.258 1_455 S
C226 C227 1.477 1_455 S
C226 H246 0.931 . S
C227 C223 1.460 . S
C227 C226 1.477 1_655 S
C227 H247 0.930 . S
C228 N224 1.362 . S
C228 C225 1.431 . S
C228 C238 1.476 . S
H229 C223 0.929 . S
C230 O221 1.250 . S
C230 O222 1.258 . S
O231 Mn216 2.162 . S
O231 C219 1.281 . S
O232 Mn216 2.297 . S
O232 C219 1.236 . S
N233 Mn217 2.282 . S
N233 C234 1.328 . S
N233 C238 1.318 . S
C234 N233 1.328 . S
C234 C235 1.457 . S
C234 H239 0.929 . S
C235 C234 1.457 . S
C235 C236 1.291 . S
C235 H248 0.931 . S
C236 C235 1.291 . S
C236 C237 1.373 . S
C236 H249 0.929 1_655 S
C237 C236 1.373 . S
C237 C238 1.396 . S
C237 C244 1.403 1_655 S
C238 C228 1.476 . S
C238 N233 1.318 . S
C238 C237 1.396 . S
H239 C234 0.929 . S
O240 Mn216 2.385 . S
O240 C218 1.234 . S
O241 Mn216 2.209 . S
O241 Mn217 2.215 . S
O241 C218 1.283 . S
O242 Mn216 2.094 . S
O242 C220 1.240 . S
O243 Mn217 2.117 . S
O243 C220 1.264 . S
C244 C237 1.403 1_455 S
C244 C245 1.399 . S
C244 H250 0.929 . S
C245 C225 1.449 1_455 S
C245 C244 1.399 . S
C245 H251 0.930 . S
H246 C226 0.931 . S
H247 C227 0.930 . S
H248 C235 0.931 . S
H249 C236 0.929 1_455 S
H250 C244 0.929 . S
H251 C245 0.930 . S
Mn252 O257 2.095 . S
Mn252 O267 2.162 . S
Mn252 O268 2.297 . S
Mn252 O276 2.385 . S
Mn252 O277 2.209 . S
Mn252 O278 2.094 . S
Mn253 O258 2.121 . S
Mn253 N260 2.257 . S
Mn253 N269 2.282 . S
Mn253 O277 2.215 . S
Mn253 O279 2.117 . S
C254 O276 1.234 . S
C254 O277 1.283 . S
C255 O267 1.281 . S
C255 O268 1.236 . S
C256 O278 1.240 . S
C256 O279 1.264 . S
O257 Mn252 2.095 . S
O257 C266 1.250 . S
O258 Mn253 2.121 . S
O258 C266 1.258 . S
C259 N260 1.326 . S
C259 C263 1.460 . S
C259 H265 0.929 . S
N260 Mn253 2.257 . S
N260 C259 1.326 . S
N260 C264 1.362 . S
C261 C262 1.258 1_655 S
C261 C264 1.431 . S
C261 C281 1.449 1_655 S
C262 C261 1.258 1_455 S
C262 C263 1.477 1_455 S
C262 H282 0.931 . S
C263 C259 1.460 . S
C263 C262 1.477 1_655 S
C263 H283 0.930 . S
C264 N260 1.362 . S
C264 C261 1.431 . S
C264 C274 1.476 . S
H265 C259 0.929 . S
C266 O257 1.250 . S
C266 O258 1.258 . S
O267 Mn252 2.162 . S
O267 C255 1.281 . S
O268 Mn252 2.297 . S
O268 C255 1.236 . S
N269 Mn253 2.282 . S
N269 C270 1.328 . S
N269 C274 1.318 . S
C270 N269 1.328 . S
C270 C271 1.457 . S
C270 H275 0.929 . S
C271 C270 1.457 . S
C271 C272 1.291 . S
C271 H284 0.931 . S
C272 C271 1.291 . S
C272 C273 1.373 . S
C272 H285 0.929 1_655 S
C273 C272 1.373 . S
C273 C274 1.396 . S
C273 C280 1.403 1_655 S
C274 C264 1.476 . S
C274 N269 1.318 . S
C274 C273 1.396 . S
H275 C270 0.929 . S
O276 Mn252 2.385 . S
O276 C254 1.234 . S
O277 Mn252 2.209 . S
O277 Mn253 2.215 . S
O277 C254 1.283 . S
O278 Mn252 2.094 . S
O278 C256 1.240 . S
O279 Mn253 2.117 . S
O279 C256 1.264 . S
C280 C273 1.403 1_455 S
C280 C281 1.399 . S
C280 H286 0.929 . S
C281 C261 1.449 1_455 S
C281 C280 1.399 . S
C281 H287 0.930 . S
H282 C262 0.931 . S
H283 C263 0.930 . S
H284 C271 0.931 . S
H285 C272 0.929 1_455 S
H286 C280 0.929 . S
H287 C281 0.930 . S
Mn288 O293 2.095 . S
Mn288 O303 2.162 . S
Mn288 O304 2.297 . S
Mn288 O312 2.385 . S
Mn288 O313 2.209 . S
Mn288 O314 2.094 . S
Mn289 O294 2.121 . S
Mn289 N296 2.257 . S
Mn289 N305 2.282 . S
Mn289 O313 2.215 . S
Mn289 O315 2.117 . S
C290 O312 1.234 . S
C290 O313 1.283 . S
C291 O303 1.281 . S
C291 O304 1.236 . S
C292 O314 1.240 . S
C292 O315 1.264 . S
O293 Mn288 2.095 . S
O293 C302 1.250 . S
O294 Mn289 2.121 . S
O294 C302 1.258 . S
C295 N296 1.326 . S
C295 C299 1.460 . S
C295 H301 0.929 . S
N296 Mn289 2.257 . S
N296 C295 1.326 . S
N296 C300 1.362 . S
C297 C298 1.258 . S
C297 C300 1.431 . S
C297 C317 1.449 . S
C298 C297 1.258 . S
C298 C299 1.477 . S
C298 H318 0.931 . S
C299 C295 1.460 . S
C299 C298 1.477 . S
C299 H319 0.930 . S
C300 N296 1.362 . S
C300 C297 1.431 . S
C300 C310 1.476 . S
H301 C295 0.929 . S
C302 O293 1.250 . S
C302 O294 1.258 . S
O303 Mn288 2.162 . S
O303 C291 1.281 . S
O304 Mn288 2.297 . S
O304 C291 1.236 . S
N305 Mn289 2.282 . S
N305 C306 1.328 . S
N305 C310 1.318 . S
C306 N305 1.328 . S
C306 C307 1.457 . S
C306 H311 0.929 . S
C307 C306 1.457 . S
C307 C308 1.291 . S
C307 H320 0.931 . S
C308 C307 1.291 . S
C308 C309 1.373 . S
C308 H321 0.929 . S
C309 C308 1.373 . S
C309 C310 1.396 . S
C309 C316 1.403 . S
C310 C300 1.476 . S
C310 N305 1.318 . S
C310 C309 1.396 . S
H311 C306 0.929 . S
O312 Mn288 2.385 . S
O312 C290 1.234 . S
O313 Mn288 2.209 . S
O313 Mn289 2.215 . S
O313 C290 1.283 . S
O314 Mn288 2.094 . S
O314 C292 1.240 . S
O315 Mn289 2.117 . S
O315 C292 1.264 . S
C316 C309 1.403 . S
C316 C317 1.399 . S
C316 H322 0.929 . S
C317 C297 1.449 . S
C317 C316 1.399 . S
C317 H323 0.930 . S
H318 C298 0.931 . S
H319 C299 0.930 . S
H320 C307 0.931 . S
H321 C308 0.929 . S
H322 C316 0.929 . S
H323 C317 0.930 . S
Mn324 O329 2.095 . S
Mn324 O339 2.162 . S
Mn324 O340 2.297 . S
Mn324 O348 2.385 . S
Mn324 O349 2.209 . S
Mn324 O350 2.094 . S
Mn325 O330 2.121 . S
Mn325 N332 2.257 . S
Mn325 N341 2.282 . S
Mn325 O349 2.215 . S
Mn325 O351 2.117 . S
C326 O348 1.234 . S
C326 O349 1.283 . S
C327 O339 1.281 . S
C327 O340 1.236 . S
C328 O350 1.240 . S
C328 O351 1.264 . S
O329 Mn324 2.095 . S
O329 C338 1.250 . S
O330 Mn325 2.121 . S
O330 C338 1.258 . S
C331 N332 1.326 . S
C331 C335 1.460 . S
C331 H337 0.929 . S
N332 Mn325 2.257 . S
N332 C331 1.326 . S
N332 C336 1.362 . S
C333 C334 1.258 . S
C333 C336 1.431 . S
C333 C353 1.449 . S
C334 C333 1.258 . S
C334 C335 1.477 . S
C334 H354 0.931 . S
C335 C331 1.460 . S
C335 C334 1.477 . S
C335 H355 0.930 . S
C336 N332 1.362 . S
C336 C333 1.431 . S
C336 C346 1.476 . S
H337 C331 0.929 . S
C338 O329 1.250 . S
C338 O330 1.258 . S
O339 Mn324 2.162 . S
O339 C327 1.281 . S
O340 Mn324 2.297 . S
O340 C327 1.236 . S
N341 Mn325 2.282 . S
N341 C342 1.328 . S
N341 C346 1.318 . S
C342 N341 1.328 . S
C342 C343 1.457 . S
C342 H347 0.929 . S
C343 C342 1.457 . S
C343 C344 1.291 . S
C343 H356 0.931 . S
C344 C343 1.291 . S
C344 C345 1.373 . S
C344 H357 0.929 . S
C345 C344 1.373 . S
C345 C346 1.396 . S
C345 C352 1.403 . S
C346 C336 1.476 . S
C346 N341 1.318 . S
C346 C345 1.396 . S
H347 C342 0.929 . S
O348 Mn324 2.385 . S
O348 C326 1.234 . S
O349 Mn324 2.209 . S
O349 Mn325 2.215 . S
O349 C326 1.283 . S
O350 Mn324 2.094 . S
O350 C328 1.240 . S
O351 Mn325 2.117 . S
O351 C328 1.264 . S
C352 C345 1.403 . S
C352 C353 1.399 . S
C352 H358 0.929 . S
C353 C333 1.449 . S
C353 C352 1.399 . S
C353 H359 0.930 . S
H354 C334 0.931 . S
H355 C335 0.930 . S
H356 C343 0.931 . S
H357 C344 0.929 . S
H358 C352 0.929 . S
H359 C353 0.930 . S
Mn360 O365 2.095 . S
Mn360 O375 2.162 . S
Mn360 O376 2.297 . S
Mn360 O384 2.385 . S
Mn360 O385 2.209 . S
Mn360 O386 2.094 . S
Mn361 O366 2.121 . S
Mn361 N368 2.257 . S
Mn361 N377 2.282 . S
Mn361 O385 2.215 . S
Mn361 O387 2.117 . S
C362 O384 1.234 . S
C362 O385 1.283 . S
C363 O375 1.281 . S
C363 O376 1.236 . S
C364 O386 1.240 . S
C364 O387 1.264 . S
O365 Mn360 2.095 . S
O365 C374 1.250 . S
O366 Mn361 2.121 . S
O366 C374 1.258 . S
C367 N368 1.326 . S
C367 C371 1.460 . S
C367 H373 0.929 . S
N368 Mn361 2.257 . S
N368 C367 1.326 . S
N368 C372 1.362 . S
C369 C370 1.258 . S
C369 C372 1.431 . S
C369 C389 1.449 . S
C370 C369 1.258 . S
C370 C371 1.477 . S
C370 H390 0.931 . S
C371 C367 1.460 . S
C371 C370 1.477 . S
C371 H391 0.930 . S
C372 N368 1.362 . S
C372 C369 1.431 . S
C372 C382 1.476 . S
H373 C367 0.929 . S
C374 O365 1.250 . S
C374 O366 1.258 . S
O375 Mn360 2.162 . S
O375 C363 1.281 . S
O376 Mn360 2.297 . S
O376 C363 1.236 . S
N377 Mn361 2.282 . S
N377 C378 1.328 . S
N377 C382 1.318 . S
C378 N377 1.328 . S
C378 C379 1.457 . S
C378 H383 0.929 . S
C379 C378 1.457 . S
C379 C380 1.291 . S
C379 H392 0.931 . S
C380 C379 1.291 . S
C380 C381 1.373 . S
C380 H393 0.929 . S
C381 C380 1.373 . S
C381 C382 1.396 . S
C381 C388 1.403 . S
C382 C372 1.476 . S
C382 N377 1.318 . S
C382 C381 1.396 . S
H383 C378 0.929 . S
O384 Mn360 2.385 . S
O384 C362 1.234 . S
O385 Mn360 2.209 . S
O385 Mn361 2.215 . S
O385 C362 1.283 . S
O386 Mn360 2.094 . S
O386 C364 1.240 . S
O387 Mn361 2.117 . S
O387 C364 1.264 . S
C388 C381 1.403 . S
C388 C389 1.399 . S
C388 H394 0.929 . S
C389 C369 1.449 . S
C389 C388 1.399 . S
C389 H395 0.930 . S
H390 C370 0.931 . S
H391 C371 0.930 . S
H392 C379 0.931 . S
H393 C380 0.929 . S
H394 C388 0.929 . S
H395 C389 0.930 . S
Mn396 O401 2.095 . S
Mn396 O411 2.162 . S
Mn396 O412 2.297 . S
Mn396 O420 2.385 . S
Mn396 O421 2.209 . S
Mn396 O422 2.094 . S
Mn397 O402 2.121 . S
Mn397 N404 2.257 . S
Mn397 N413 2.282 . S
Mn397 O421 2.215 . S
Mn397 O423 2.117 . S
C398 O420 1.234 . S
C398 O421 1.283 . S
C399 O411 1.281 . S
C399 O412 1.236 . S
C400 O422 1.240 . S
C400 O423 1.264 . S
O401 Mn396 2.095 . S
O401 C410 1.250 . S
O402 Mn397 2.121 . S
O402 C410 1.258 . S
C403 N404 1.326 . S
C403 C407 1.460 . S
C403 H409 0.929 . S
N404 Mn397 2.257 . S
N404 C403 1.326 . S
N404 C408 1.362 . S
C405 C406 1.258 . S
C405 C408 1.431 . S
C405 C425 1.449 . S
C406 C405 1.258 . S
C406 C407 1.477 . S
C406 H426 0.931 . S
C407 C403 1.460 . S
C407 C406 1.477 . S
C407 H427 0.930 . S
C408 N404 1.362 . S
C408 C405 1.431 . S
C408 C418 1.476 . S
H409 C403 0.929 . S
C410 O401 1.250 . S
C410 O402 1.258 . S
O411 Mn396 2.162 . S
O411 C399 1.281 . S
O412 Mn396 2.297 . S
O412 C399 1.236 . S
N413 Mn397 2.282 . S
N413 C414 1.328 . S
N413 C418 1.318 . S
C414 N413 1.328 . S
C414 C415 1.457 . S
C414 H419 0.929 . S
C415 C414 1.457 . S
C415 C416 1.291 . S
C415 H428 0.931 . S
C416 C415 1.291 . S
C416 C417 1.373 . S
C416 H429 0.929 . S
C417 C416 1.373 . S
C417 C418 1.396 . S
C417 C424 1.403 . S
C418 C408 1.476 . S
C418 N413 1.318 . S
C418 C417 1.396 . S
H419 C414 0.929 . S
O420 Mn396 2.385 . S
O420 C398 1.234 . S
O421 Mn396 2.209 . S
O421 Mn397 2.215 . S
O421 C398 1.283 . S
O422 Mn396 2.094 . S
O422 C400 1.240 . S
O423 Mn397 2.117 . S
O423 C400 1.264 . S
C424 C417 1.403 . S
C424 C425 1.399 . S
C424 H430 0.929 . S
C425 C405 1.449 . S
C425 C424 1.399 . S
C425 H431 0.930 . S
H426 C406 0.931 . S
H427 C407 0.930 . S
H428 C415 0.931 . S
H429 C416 0.929 . S
H430 C424 0.929 . S
H431 C425 0.930 . S
Mn432 O437 2.095 . S
Mn432 O447 2.162 . S
Mn432 O448 2.297 . S
Mn432 O456 2.385 . S
Mn432 O457 2.209 . S
Mn432 O458 2.094 . S
Mn433 O438 2.121 . S
Mn433 N440 2.257 . S
Mn433 N449 2.282 . S
Mn433 O457 2.215 . S
Mn433 O459 2.117 . S
C434 O456 1.234 . S
C434 O457 1.283 . S
C435 O447 1.281 . S
C435 O448 1.236 . S
C436 O458 1.240 . S
C436 O459 1.264 . S
O437 Mn432 2.095 . S
O437 C446 1.250 . S
O438 Mn433 2.121 . S
O438 C446 1.258 . S
C439 N440 1.326 . S
C439 C443 1.460 . S
C439 H445 0.929 . S
N440 Mn433 2.257 . S
N440 C439 1.326 . S
N440 C444 1.362 . S
C441 C442 1.258 . S
C441 C444 1.431 . S
C441 C461 1.449 . S
C442 C441 1.258 . S
C442 C443 1.477 . S
C442 H462 0.931 . S
C443 C439 1.460 . S
C443 C442 1.477 . S
C443 H463 0.930 . S
C444 N440 1.362 . S
C444 C441 1.431 . S
C444 C454 1.476 . S
H445 C439 0.929 . S
C446 O437 1.250 . S
C446 O438 1.258 . S
O447 Mn432 2.162 . S
O447 C435 1.281 . S
O448 Mn432 2.297 . S
O448 C435 1.236 . S
N449 Mn433 2.282 . S
N449 C450 1.328 . S
N449 C454 1.318 . S
C450 N449 1.328 . S
C450 C451 1.457 . S
C450 H455 0.929 . S
C451 C450 1.457 . S
C451 C452 1.291 . S
C451 H464 0.931 . S
C452 C451 1.291 . S
C452 C453 1.373 . S
C452 H465 0.929 . S
C453 C452 1.373 . S
C453 C454 1.396 . S
C453 C460 1.403 . S
C454 C444 1.476 . S
C454 N449 1.318 . S
C454 C453 1.396 . S
H455 C450 0.929 . S
O456 Mn432 2.385 . S
O456 C434 1.234 . S
O457 Mn432 2.209 . S
O457 Mn433 2.215 . S
O457 C434 1.283 . S
O458 Mn432 2.094 . S
O458 C436 1.240 . S
O459 Mn433 2.117 . S
O459 C436 1.264 . S
C460 C453 1.403 . S
C460 C461 1.399 . S
C460 H466 0.929 . S
C461 C441 1.449 . S
C461 C460 1.399 . S
C461 H467 0.930 . S
H462 C442 0.931 . S
H463 C443 0.930 . S
H464 C451 0.931 . S
H465 C452 0.929 . S
H466 C460 0.929 . S
H467 C461 0.930 . S
Mn468 O473 2.095 . S
Mn468 O483 2.162 . S
Mn468 O484 2.297 . S
Mn468 O492 2.385 . S
Mn468 O493 2.209 . S
Mn468 O494 2.094 . S
Mn469 O474 2.121 . S
Mn469 N476 2.257 . S
Mn469 N485 2.282 . S
Mn469 O493 2.215 . S
Mn469 O495 2.117 . S
C470 O492 1.234 . S
C470 O493 1.283 . S
C471 O483 1.281 . S
C471 O484 1.236 . S
C472 O494 1.240 . S
C472 O495 1.264 . S
O473 Mn468 2.095 . S
O473 C482 1.250 . S
O474 Mn469 2.121 . S
O474 C482 1.258 . S
C475 N476 1.326 . S
C475 C479 1.460 . S
C475 H481 0.929 . S
N476 Mn469 2.257 . S
N476 C475 1.326 . S
N476 C480 1.362 . S
C477 C478 1.258 . S
C477 C480 1.431 . S
C477 C497 1.449 . S
C478 C477 1.258 . S
C478 C479 1.477 . S
C478 H498 0.931 . S
C479 C475 1.460 . S
C479 C478 1.477 . S
C479 H499 0.930 . S
C480 N476 1.362 . S
C480 C477 1.431 . S
C480 C490 1.476 . S
H481 C475 0.929 . S
C482 O473 1.250 . S
C482 O474 1.258 . S
O483 Mn468 2.162 . S
O483 C471 1.281 . S
O484 Mn468 2.297 . S
O484 C471 1.236 . S
N485 Mn469 2.282 . S
N485 C486 1.328 . S
N485 C490 1.318 . S
C486 N485 1.328 . S
C486 C487 1.457 . S
C486 H491 0.929 . S
C487 C486 1.457 . S
C487 C488 1.291 . S
C487 H500 0.931 . S
C488 C487 1.291 . S
C488 C489 1.373 . S
C488 H501 0.929 . S
C489 C488 1.373 . S
C489 C490 1.396 . S
C489 C496 1.403 . S
C490 C480 1.476 . S
C490 N485 1.318 . S
C490 C489 1.396 . S
H491 C486 0.929 . S
O492 Mn468 2.385 . S
O492 C470 1.234 . S
O493 Mn468 2.209 . S
O493 Mn469 2.215 . S
O493 C470 1.283 . S
O494 Mn468 2.094 . S
O494 C472 1.240 . S
O495 Mn469 2.117 . S
O495 C472 1.264 . S
C496 C489 1.403 . S
C496 C497 1.399 . S
C496 H502 0.929 . S
C497 C477 1.449 . S
C497 C496 1.399 . S
C497 H503 0.930 . S
H498 C478 0.931 . S
H499 C479 0.930 . S
H500 C487 0.931 . S
H501 C488 0.929 . S
H502 C496 0.929 . S
H503 C497 0.930 . S
Mn504 O509 2.095 . S
Mn504 O519 2.162 . S
Mn504 O520 2.297 . S
Mn504 O528 2.385 . S
Mn504 O529 2.209 . S
Mn504 O530 2.094 . S
Mn505 O510 2.121 . S
Mn505 N512 2.257 . S
Mn505 N521 2.282 . S
Mn505 O529 2.215 . S
Mn505 O531 2.117 . S
C506 O528 1.234 . S
C506 O529 1.283 . S
C507 O519 1.281 . S
C507 O520 1.236 . S
C508 O530 1.240 . S
C508 O531 1.264 . S
O509 Mn504 2.095 . S
O509 C518 1.250 . S
O510 Mn505 2.121 . S
O510 C518 1.258 . S
C511 N512 1.326 . S
C511 C515 1.460 . S
C511 H517 0.929 . S
N512 Mn505 2.257 . S
N512 C511 1.326 . S
N512 C516 1.362 . S
C513 C514 1.258 . S
C513 C516 1.431 . S
C513 C533 1.449 . S
C514 C513 1.258 . S
C514 C515 1.477 . S
C514 H534 0.931 . S
C515 C511 1.460 . S
C515 C514 1.477 . S
C515 H535 0.930 . S
C516 N512 1.362 . S
C516 C513 1.431 . S
C516 C526 1.476 . S
H517 C511 0.929 . S
C518 O509 1.250 . S
C518 O510 1.258 . S
O519 Mn504 2.162 . S
O519 C507 1.281 . S
O520 Mn504 2.297 . S
O520 C507 1.236 . S
N521 Mn505 2.282 . S
N521 C522 1.328 . S
N521 C526 1.318 . S
C522 N521 1.328 . S
C522 C523 1.457 . S
C522 H527 0.929 . S
C523 C522 1.457 . S
C523 C524 1.291 . S
C523 H536 0.931 . S
C524 C523 1.291 . S
C524 C525 1.373 . S
C524 H537 0.929 . S
C525 C524 1.373 . S
C525 C526 1.396 . S
C525 C532 1.403 . S
C526 C516 1.476 . S
C526 N521 1.318 . S
C526 C525 1.396 . S
H527 C522 0.929 . S
O528 Mn504 2.385 . S
O528 C506 1.234 . S
O529 Mn504 2.209 . S
O529 Mn505 2.215 . S
O529 C506 1.283 . S
O530 Mn504 2.094 . S
O530 C508 1.240 . S
O531 Mn505 2.117 . S
O531 C508 1.264 . S
C532 C525 1.403 . S
C532 C533 1.399 . S
C532 H538 0.929 . S
C533 C513 1.449 . S
C533 C532 1.399 . S
C533 H539 0.930 . S
H534 C514 0.931 . S
H535 C515 0.930 . S
H536 C523 0.931 . S
H537 C524 0.929 . S
H538 C532 0.929 . S
H539 C533 0.930 . S
Mn540 O545 2.095 . S
Mn540 O555 2.162 . S
Mn540 O556 2.297 . S
Mn540 O564 2.385 . S
Mn540 O565 2.209 . S
Mn540 O566 2.094 . S
Mn541 O546 2.121 . S
Mn541 N548 2.257 . S
Mn541 N557 2.282 . S
Mn541 O565 2.215 . S
Mn541 O567 2.117 . S
C542 O564 1.234 . S
C542 O565 1.283 . S
C543 O555 1.281 . S
C543 O556 1.236 . S
C544 O566 1.240 . S
C544 O567 1.264 . S
O545 Mn540 2.095 . S
O545 C554 1.250 . S
O546 Mn541 2.121 . S
O546 C554 1.258 . S
C547 N548 1.326 . S
C547 C551 1.460 . S
C547 H553 0.929 . S
N548 Mn541 2.257 . S
N548 C547 1.326 . S
N548 C552 1.362 . S
C549 C550 1.258 . S
C549 C552 1.431 . S
C549 C569 1.449 . S
C550 C549 1.258 . S
C550 C551 1.477 . S
C550 H570 0.931 . S
C551 C547 1.460 . S
C551 C550 1.477 . S
C551 H571 0.930 . S
C552 N548 1.362 . S
C552 C549 1.431 . S
C552 C562 1.476 . S
H553 C547 0.929 . S
C554 O545 1.250 . S
C554 O546 1.258 . S
O555 Mn540 2.162 . S
O555 C543 1.281 . S
O556 Mn540 2.297 . S
O556 C543 1.236 . S
N557 Mn541 2.282 . S
N557 C558 1.328 . S
N557 C562 1.318 . S
C558 N557 1.328 . S
C558 C559 1.457 . S
C558 H563 0.929 . S
C559 C558 1.457 . S
C559 C560 1.291 . S
C559 H572 0.931 . S
C560 C559 1.291 . S
C560 C561 1.373 . S
C560 H573 0.929 . S
C561 C560 1.373 . S
C561 C562 1.396 . S
C561 C568 1.403 . S
C562 C552 1.476 . S
C562 N557 1.318 . S
C562 C561 1.396 . S
H563 C558 0.929 . S
O564 Mn540 2.385 . S
O564 C542 1.234 . S
O565 Mn540 2.209 . S
O565 Mn541 2.215 . S
O565 C542 1.283 . S
O566 Mn540 2.094 . S
O566 C544 1.240 . S
O567 Mn541 2.117 . S
O567 C544 1.264 . S
C568 C561 1.403 . S
C568 C569 1.399 . S
C568 H574 0.929 . S
C569 C549 1.449 . S
C569 C568 1.399 . S
C569 H575 0.930 . S
H570 C550 0.931 . S
H571 C551 0.930 . S
H572 C559 0.931 . S
H573 C560 0.929 . S
H574 C568 0.929 . S
H575 C569 0.930 . S
C576 C577 1.369 . S
C576 C578 1.419 . S
C576 H580 0.930 . S
C577 C576 1.369 . S
C577 C586 1.429 . S
C578 C576 1.419 . S
C578 C579 1.363 . S
C578 H581 0.929 . S
C579 C578 1.363 . S
C579 C585 1.428 . S
H580 C576 0.930 . S
H581 C578 0.929 . S
S582 N583 1.613 . S
S582 N584 1.610 . S
N583 S582 1.613 . S
N583 C586 1.350 . S
N584 S582 1.610 . S
N584 C585 1.351 . S
C585 C579 1.428 . S
C585 N584 1.351 . S
C585 C586 1.434 . S
C586 C577 1.429 . S
C586 N583 1.350 . S
C586 C585 1.434 . S
C587 C588 1.369 . S
C587 C589 1.419 . S
C587 H591 0.930 . S
C588 C587 1.369 . S
C588 C597 1.429 . S
C589 C587 1.419 . S
C589 C590 1.363 . S
C589 H592 0.929 . S
C590 C589 1.363 . S
C590 C596 1.428 . S
H591 C587 0.930 . S
H592 C589 0.929 . S
S593 N594 1.613 . S
S593 N595 1.610 . S
N594 S593 1.613 . S
N594 C597 1.350 . S
N595 S593 1.610 . S
N595 C596 1.351 . S
C596 C590 1.428 . S
C596 N595 1.351 . S
C596 C597 1.434 . S
C597 C588 1.429 . S
C597 N594 1.350 . S
C597 C596 1.434 . S
C598 C599 1.369 . S
C598 C600 1.419 . S
C598 H602 0.930 . S
C599 C598 1.369 . S
C599 C608 1.429 . S
C600 C598 1.419 . S
C600 C601 1.363 . S
C600 H603 0.929 . S
C601 C600 1.363 . S
C601 C607 1.428 . S
H602 C598 0.930 . S
H603 C600 0.929 . S
S604 N605 1.613 . S
S604 N606 1.610 . S
N605 S604 1.613 . S
N605 C608 1.350 . S
N606 S604 1.610 . S
N606 C607 1.351 . S
C607 C601 1.428 . S
C607 N606 1.351 . S
C607 C608 1.434 . S
C608 C599 1.429 . S
C608 N605 1.350 . S
C608 C607 1.434 . S
C609 C610 1.369 . S
C609 C611 1.419 . S
C609 H613 0.930 . S
C610 C609 1.369 . S
C610 C619 1.429 . S
C611 C609 1.419 . S
C611 C612 1.363 . S
C611 H614 0.929 . S
C612 C611 1.363 . S
C612 C618 1.428 . S
H613 C609 0.930 . S
H614 C611 0.929 . S
S615 N616 1.613 . S
S615 N617 1.610 . S
N616 S615 1.613 . S
N616 C619 1.350 . S
N617 S615 1.610 . S
N617 C618 1.351 . S
C618 C612 1.428 . S
C618 N617 1.351 . S
C618 C619 1.434 . S
C619 C610 1.429 . S
C619 N616 1.350 . S
C619 C618 1.434 . S
C620 C621 1.369 . S
C620 C622 1.419 . S
C620 H624 0.930 . S
C621 C620 1.369 . S
C621 C630 1.429 . S
C622 C620 1.419 . S
C622 C623 1.363 . S
C622 H625 0.929 . S
C623 C622 1.363 . S
C623 C629 1.428 . S
H624 C620 0.930 . S
H625 C622 0.929 . S
S626 N627 1.613 . S
S626 N628 1.610 . S
N627 S626 1.613 . S
N627 C630 1.350 . S
N628 S626 1.610 . S
N628 C629 1.351 . S
C629 C623 1.428 . S
C629 N628 1.351 . S
C629 C630 1.434 . S
C630 C621 1.429 . S
C630 N627 1.350 . S
C630 C629 1.434 . S
C631 C632 1.369 . S
C631 C633 1.419 . S
C631 H635 0.930 . S
C632 C631 1.369 . S
C632 C641 1.429 . S
C633 C631 1.419 . S
C633 C634 1.363 . S
C633 H636 0.929 . S
C634 C633 1.363 . S
C634 C640 1.428 . S
H635 C631 0.930 . S
H636 C633 0.929 . S
S637 N638 1.613 . S
S637 N639 1.610 . S
N638 S637 1.613 . S
N638 C641 1.350 . S
N639 S637 1.610 . S
N639 C640 1.351 . S
C640 C634 1.428 . S
C640 N639 1.351 . S
C640 C641 1.434 . S
C641 C632 1.429 . S
C641 N638 1.350 . S
C641 C640 1.434 . S
C642 C643 1.369 . S
C642 C644 1.419 . S
C642 H646 0.930 . S
C643 C642 1.369 . S
C643 C652 1.429 . S
C644 C642 1.419 . S
C644 C645 1.363 . S
C644 H647 0.929 . S
C645 C644 1.363 . S
C645 C651 1.428 . S
H646 C642 0.930 . S
H647 C644 0.929 . S
S648 N649 1.613 . S
S648 N650 1.610 . S
N649 S648 1.613 . S
N649 C652 1.350 . S
N650 S648 1.610 . S
N650 C651 1.351 . S
C651 C645 1.428 . S
C651 N650 1.351 . S
C651 C652 1.434 . S
C652 C643 1.429 . S
C652 N649 1.350 . S
C652 C651 1.434 . S
C653 C654 1.369 . S
C653 C655 1.419 . S
C653 H657 0.930 . S
C654 C653 1.369 . S
C654 C663 1.429 . S
C655 C653 1.419 . S
C655 C656 1.363 . S
C655 H658 0.929 . S
C656 C655 1.363 . S
C656 C662 1.428 . S
H657 C653 0.930 . S
H658 C655 0.929 . S
S659 N660 1.613 . S
S659 N661 1.610 . S
N660 S659 1.613 . S
N660 C663 1.350 . S
N661 S659 1.610 . S
N661 C662 1.351 . S
C662 C656 1.428 . S
C662 N661 1.351 . S
C662 C663 1.434 . S
C663 C654 1.429 . S
C663 N660 1.350 . S
C663 C662 1.434 . S
C664 C665 1.369 . S
C664 C666 1.419 1_556 S
C664 H668 0.930 . S
C665 C664 1.369 . S
C665 C674 1.429 . S
C666 C664 1.419 1_554 S
C666 C667 1.363 . S
C666 H669 0.929 . S
C667 C666 1.363 . S
C667 C673 1.428 . S
H668 C664 0.930 . S
H669 C666 0.929 . S
S670 N671 1.613 1_554 S
S670 N672 1.610 . S
N671 S670 1.613 1_556 S
N671 C674 1.350 . S
N672 S670 1.610 . S
N672 C673 1.351 . S
C673 C667 1.428 . S
C673 N672 1.351 . S
C673 C674 1.434 1_554 S
C674 C665 1.429 . S
C674 N671 1.350 . S
C674 C673 1.434 1_556 S
C675 C676 1.369 . S
C675 C677 1.419 1_556 S
C675 H679 0.930 . S
C676 C675 1.369 . S
C676 C685 1.429 . S
C677 C675 1.419 1_554 S
C677 C678 1.363 . S
C677 H680 0.929 . S
C678 C677 1.363 . S
C678 C684 1.428 . S
H679 C675 0.930 . S
H680 C677 0.929 . S
S681 N682 1.613 . S
S681 N683 1.610 1_556 S
N682 S681 1.613 . S
N682 C685 1.350 . S
N683 S681 1.610 1_554 S
N683 C684 1.351 . S
C684 C678 1.428 . S
C684 N683 1.351 . S
C684 C685 1.434 1_554 S
C685 C676 1.429 . S
C685 N682 1.350 . S
C685 C684 1.434 1_556 S
C686 C687 1.369 . S
C686 C688 1.419 1_556 S
C686 H690 0.930 . S
C687 C686 1.369 . S
C687 C696 1.429 . S
C688 C686 1.419 1_554 S
C688 C689 1.363 . S
C688 H691 0.929 . S
C689 C688 1.363 . S
C689 C695 1.428 . S
H690 C686 0.930 . S
H691 C688 0.929 . S
S692 N693 1.613 1_554 S
S692 N694 1.610 . S
N693 S692 1.613 1_556 S
N693 C696 1.350 . S
N694 S692 1.610 . S
N694 C695 1.351 . S
C695 C689 1.428 . S
C695 N694 1.351 . S
C695 C696 1.434 1_554 S
C696 C687 1.429 . S
C696 N693 1.350 . S
C696 C695 1.434 1_556 S
C697 C698 1.369 . S
C697 C699 1.419 1_554 S
C697 H701 0.930 . S
C698 C697 1.369 . S
C698 C707 1.429 . S
C699 C697 1.419 1_556 S
C699 C700 1.363 . S
C699 H702 0.929 . S
C700 C699 1.363 . S
C700 C706 1.428 . S
H701 C697 0.930 . S
H702 C699 0.929 . S
S703 N704 1.594 1_556 S
S703 N705 1.631 . S
N704 S703 1.594 1_554 S
N704 C707 1.350 . S
N705 S703 1.631 . S
N705 C706 1.351 . S
C706 C700 1.428 . S
C706 N705 1.351 . S
C706 C707 1.434 1_556 S
C707 C698 1.429 . S
C707 N704 1.350 . S
C707 C706 1.434 1_554 S
C708 C709 1.369 . S
C708 C710 1.419 1_455 S
C708 H712 0.930 . S
C709 C708 1.369 . S
C709 C718 1.429 . S
C710 C708 1.419 1_655 S
C710 C711 1.363 . S
C710 H713 0.929 . S
C711 C710 1.363 . S
C711 C717 1.428 . S
H712 C708 0.930 . S
H713 C710 0.929 . S
S714 N715 1.613 . S
S714 N716 1.610 1_455 S
N715 S714 1.613 . S
N715 C718 1.350 . S
N716 S714 1.610 1_655 S
N716 C717 1.351 . S
C717 C711 1.428 . S
C717 N716 1.351 . S
C717 C718 1.434 1_655 S
C718 C709 1.429 . S
C718 N715 1.350 . S
C718 C717 1.434 1_455 S
C719 C720 1.369 . S
C719 C721 1.419 1_565 S
C719 H723 0.930 . S
C720 C719 1.369 . S
C720 C729 1.429 . S
C721 C719 1.419 1_545 S
C721 C722 1.363 . S
C721 H724 0.929 . S
C722 C721 1.363 . S
C722 C728 1.428 . S
H723 C719 0.930 . S
H724 C721 0.929 . S
S725 N726 1.613 . S
S725 N727 1.610 1_565 S
N726 S725 1.613 . S
N726 C729 1.350 . S
N727 S725 1.610 1_545 S
N727 C728 1.351 . S
C728 C722 1.428 . S
C728 N727 1.351 . S
C728 C729 1.434 1_545 S
C729 C720 1.429 . S
C729 N726 1.350 . S
C729 C728 1.434 1_565 S
C730 C731 1.369 . S
C730 C732 1.419 1_655 S
C730 H734 0.930 . S
C731 C730 1.369 . S
C731 C740 1.429 . S
C732 C730 1.419 1_455 S
C732 C733 1.363 . S
C732 H735 0.929 . S
C733 C732 1.363 . S
C733 C739 1.428 . S
H734 C730 0.930 . S
H735 C732 0.929 . S
S736 N737 1.613 1_455 S
S736 N738 1.610 . S
N737 S736 1.613 1_655 S
N737 C740 1.350 . S
N738 S736 1.610 . S
N738 C739 1.351 . S
C739 C733 1.428 . S
C739 N738 1.351 . S
C739 C740 1.434 1_455 S
C740 C731 1.429 . S
C740 N737 1.350 . S
C740 C739 1.434 1_655 S
C741 C742 1.369 . S
C741 C743 1.419 1_545 S
C741 H745 0.930 . S
C742 C741 1.369 . S
C742 C751 1.429 . S
C743 C741 1.419 1_565 S
C743 C744 1.363 . S
C743 H746 0.929 . S
C744 C743 1.363 . S
C744 C750 1.428 . S
H745 C741 0.930 . S
H746 C743 0.929 . S
S747 N748 1.613 1_565 S
S747 N749 1.610 . S
N748 S747 1.613 1_545 S
N748 C751 1.350 . S
N749 S747 1.610 . S
N749 C750 1.351 . S
C750 C744 1.428 . S
C750 N749 1.351 . S
C750 C751 1.434 1_565 S
C751 C742 1.429 . S
C751 N748 1.350 . S
C751 C750 1.434 1_545 S
C752 C753 1.369 . S
C752 C754 1.419 1_655 S
C752 H756 0.930 . S
C753 C752 1.369 . S
C753 C762 1.429 . S
C754 C752 1.419 1_455 S
C754 C755 1.363 . S
C754 H757 0.929 . S
C755 C754 1.363 . S
C755 C761 1.428 . S
H756 C752 0.930 . S
H757 C754 0.929 . S
S758 N759 1.613 1_455 S
S758 N760 1.610 . S
N759 S758 1.613 1_655 S
N759 C762 1.350 . S
N760 S758 1.610 . S
N760 C761 1.351 . S
C761 C755 1.428 . S
C761 N760 1.351 . S
C761 C762 1.434 1_455 S
C762 C753 1.429 . S
C762 N759 1.350 . S
C762 C761 1.434 1_655 S
C763 C764 1.369 . S
C763 C765 1.419 1_565 S
C763 H767 0.930 . S
C764 C763 1.369 . S
C764 C773 1.429 . S
C765 C763 1.419 1_545 S
C765 C766 1.363 . S
C765 H768 0.929 . S
C766 C765 1.363 . S
C766 C772 1.428 . S
H767 C763 0.930 . S
H768 C765 0.929 . S
S769 N770 1.613 1_545 S
S769 N771 1.610 . S
N770 S769 1.613 1_565 S
N770 C773 1.350 . S
N771 S769 1.610 . S
N771 C772 1.351 . S
C772 C766 1.428 . S
C772 N771 1.351 . S
C772 C773 1.434 1_545 S
C773 C764 1.429 . S
C773 N770 1.350 . S
C773 C772 1.434 1_565 S
C774 C775 1.369 . S
C774 C776 1.419 1_455 S
C774 H778 0.930 . S
C775 C774 1.369 . S
C775 C784 1.429 . S
C776 C774 1.419 1_655 S
C776 C777 1.363 . S
C776 H779 0.929 . S
C777 C776 1.363 . S
C777 C783 1.428 . S
H778 C774 0.930 . S
H779 C776 0.929 . S
S780 N781 1.613 . S
S780 N782 1.610 1_455 S
N781 S780 1.613 . S
N781 C784 1.350 . S
N782 S780 1.610 1_655 S
N782 C783 1.351 . S
C783 C777 1.428 . S
C783 N782 1.351 . S
C783 C784 1.434 1_655 S
C784 C775 1.429 . S
C784 N781 1.350 . S
C784 C783 1.434 1_455 S
C785 C786 1.369 . S
C785 C787 1.419 1_565 S
C785 H789 0.930 . S
C786 C785 1.369 . S
C786 C795 1.429 . S
C787 C785 1.419 1_545 S
C787 C788 1.363 . S
C787 H790 0.929 . S
C788 C787 1.363 . S
C788 C794 1.428 . S
H789 C785 0.930 . S
H790 C787 0.929 . S
S791 N792 1.613 . S
S791 N793 1.610 1_565 S
N792 S791 1.613 . S
N792 C795 1.350 . S
N793 S791 1.610 1_545 S
N793 C794 1.351 . S
C794 C788 1.428 . S
C794 N793 1.351 . S
C794 C795 1.434 1_545 S
C795 C786 1.429 . S
C795 N792 1.350 . S
C795 C794 1.434 1_565 S
C796 C797 1.369 . S
C796 C798 1.419 . S
C796 H800 0.930 . S
C797 C796 1.369 . S
C797 C806 1.429 . S
C798 C796 1.419 . S
C798 C799 1.363 . S
C798 H801 0.929 . S
C799 C798 1.363 . S
C799 C805 1.428 . S
H800 C796 0.930 . S
H801 C798 0.929 . S
S802 N803 1.613 . S
S802 N804 1.610 . S
N803 S802 1.613 . S
N803 C806 1.350 . S
N804 S802 1.610 . S
N804 C805 1.351 . S
C805 C799 1.428 . S
C805 N804 1.351 . S
C805 C806 1.434 . S
C806 C797 1.429 . S
C806 N803 1.350 . S
C806 C805 1.434 . S
C807 C808 1.369 . S
C807 C809 1.419 . S
C807 H811 0.930 . S
C808 C807 1.369 . S
C808 C817 1.429 . S
C809 C807 1.419 . S
C809 C810 1.363 . S
C809 H812 0.929 . S
C810 C809 1.363 . S
C810 C816 1.428 . S
H811 C807 0.930 . S
H812 C809 0.929 . S
S813 N814 1.613 . S
S813 N815 1.610 . S
N814 S813 1.613 . S
N814 C817 1.350 . S
N815 S813 1.610 . S
N815 C816 1.351 . S
C816 C810 1.428 . S
C816 N815 1.351 . S
C816 C817 1.434 . S
C817 C808 1.429 . S
C817 N814 1.350 . S
C817 C816 1.434 . S
C818 C819 1.369 . S
C818 C820 1.419 . S
C818 H822 0.930 . S
C819 C818 1.369 . S
C819 C828 1.429 . S
C820 C818 1.419 . S
C820 C821 1.363 . S
C820 H823 0.929 . S
C821 C820 1.363 . S
C821 C827 1.428 . S
H822 C818 0.930 . S
H823 C820 0.929 . S
S824 N825 1.613 . S
S824 N826 1.610 . S
N825 S824 1.613 . S
N825 C828 1.350 . S
N826 S824 1.610 . S
N826 C827 1.351 . S
C827 C821 1.428 . S
C827 N826 1.351 . S
C827 C828 1.434 . S
C828 C819 1.429 . S
C828 N825 1.350 . S
C828 C827 1.434 . S
C829 C830 1.369 . S
C829 C831 1.419 . S
C829 H833 0.930 . S
C830 C829 1.369 . S
C830 C839 1.429 . S
C831 C829 1.419 . S
C831 C832 1.363 . S
C831 H834 0.929 . S
C832 C831 1.363 . S
C832 C838 1.428 . S
H833 C829 0.930 . S
H834 C831 0.929 . S
S835 N836 1.613 . S
S835 N837 1.610 . S
N836 S835 1.613 . S
N836 C839 1.350 . S
N837 S835 1.610 . S
N837 C838 1.351 . S
C838 C832 1.428 . S
C838 N837 1.351 . S
C838 C839 1.434 . S
C839 C830 1.429 . S
C839 N836 1.350 . S
C839 C838 1.434 . S
C840 C841 1.369 . S
C840 C842 1.419 . S
C840 H844 0.930 . S
C841 C840 1.369 . S
C841 C850 1.429 . S
C842 C840 1.419 . S
C842 C843 1.363 . S
C842 H845 0.929 . S
C843 C842 1.363 . S
C843 C849 1.428 . S
H844 C840 0.930 . S
H845 C842 0.929 . S
S846 N847 1.613 . S
S846 N848 1.610 . S
N847 S846 1.613 . S
N847 C850 1.350 . S
N848 S846 1.610 . S
N848 C849 1.351 . S
C849 C843 1.428 . S
C849 N848 1.351 . S
C849 C850 1.434 . S
C850 C841 1.429 . S
C850 N847 1.350 . S
C850 C849 1.434 . S
C851 C852 1.369 . S
C851 C853 1.419 . S
C851 H855 0.930 . S
C852 C851 1.369 . S
C852 C861 1.429 . S
C853 C851 1.419 . S
C853 C854 1.363 . S
C853 H856 0.929 . S
C854 C853 1.363 . S
C854 C860 1.428 . S
H855 C851 0.930 . S
H856 C853 0.929 . S
S857 N858 1.613 . S
S857 N859 1.610 . S
N858 S857 1.613 . S
N858 C861 1.350 . S
N859 S857 1.610 . S
N859 C860 1.351 . S
C860 C854 1.428 . S
C860 N859 1.351 . S
C860 C861 1.434 . S
C861 C852 1.429 . S
C861 N858 1.350 . S
C861 C860 1.434 . S
C862 C863 1.369 . S
C862 C864 1.419 . S
C862 H866 0.930 . S
C863 C862 1.369 . S
C863 C872 1.429 . S
C864 C862 1.419 . S
C864 C865 1.363 . S
C864 H867 0.929 . S
C865 C864 1.363 . S
C865 C871 1.428 . S
H866 C862 0.930 . S
H867 C864 0.929 . S
S868 N869 1.613 . S
S868 N870 1.610 . S
N869 S868 1.613 . S
N869 C872 1.350 . S
N870 S868 1.610 . S
N870 C871 1.351 . S
C871 C865 1.428 . S
C871 N870 1.351 . S
C871 C872 1.434 . S
C872 C863 1.429 . S
C872 N869 1.350 . S
C872 C871 1.434 . S
C873 C874 1.369 . S
C873 C875 1.419 . S
C873 H877 0.930 . S
C874 C873 1.369 . S
C874 C883 1.429 . S
C875 C873 1.419 . S
C875 C876 1.363 . S
C875 H878 0.929 . S
C876 C875 1.363 . S
C876 C882 1.428 . S
H877 C873 0.930 . S
H878 C875 0.929 . S
S879 N880 1.613 . S
S879 N881 1.610 . S
N880 S879 1.613 . S
N880 C883 1.350 . S
N881 S879 1.610 . S
N881 C882 1.351 . S
C882 C876 1.428 . S
C882 N881 1.351 . S
C882 C883 1.434 . S
C883 C874 1.429 . S
C883 N880 1.350 . S
C883 C882 1.434 . S
C884 C885 1.369 . S
C884 C886 1.419 . S
C884 H888 0.930 . S
C885 C884 1.369 . S
C885 C894 1.429 . S
C886 C884 1.419 . S
C886 C887 1.363 . S
C886 H889 0.929 . S
C887 C886 1.363 . S
C887 C893 1.428 . S
H888 C884 0.930 . S
H889 C886 0.929 . S
S890 N891 1.613 . S
S890 N892 1.610 . S
N891 S890 1.613 . S
N891 C894 1.350 . S
N892 S890 1.610 . S
N892 C893 1.351 . S
C893 C887 1.428 . S
C893 N892 1.351 . S
C893 C894 1.434 . S
C894 C885 1.429 . S
C894 N891 1.350 . S
C894 C893 1.434 . S
C895 C896 1.369 . S
C895 C897 1.419 . S
C895 H899 0.930 . S
C896 C895 1.369 . S
C896 C905 1.429 . S
C897 C895 1.419 . S
C897 C898 1.363 . S
C897 H900 0.929 . S
C898 C897 1.363 . S
C898 C904 1.428 . S
H899 C895 0.930 . S
H900 C897 0.929 . S
S901 N902 1.613 . S
S901 N903 1.610 . S
N902 S901 1.613 . S
N902 C905 1.350 . S
N903 S901 1.610 . S
N903 C904 1.351 . S
C904 C898 1.428 . S
C904 N903 1.351 . S
C904 C905 1.434 . S
C905 C896 1.429 . S
C905 N902 1.350 . S
C905 C904 1.434 . S
C906 C907 1.369 . S
C906 C908 1.419 . S
C906 H910 0.930 . S
C907 C906 1.369 . S
C907 C916 1.429 . S
C908 C906 1.419 . S
C908 C909 1.363 . S
C908 H911 0.929 . S
C909 C908 1.363 . S
C909 C915 1.428 . S
H910 C906 0.930 . S
H911 C908 0.929 . S
S912 N913 1.613 . S
S912 N914 1.610 . S
N913 S912 1.613 . S
N913 C916 1.350 . S
N914 S912 1.610 . S
N914 C915 1.351 . S
C915 C909 1.428 . S
C915 N914 1.351 . S
C915 C916 1.434 . S
C916 C907 1.429 . S
C916 N913 1.350 . S
C916 C915 1.434 . S
C917 C918 1.369 . S
C917 C919 1.419 . S
C917 H921 0.930 . S
C918 C917 1.369 . S
C918 C927 1.429 . S
C919 C917 1.419 . S
C919 C920 1.363 . S
C919 H922 0.929 . S
C920 C919 1.363 . S
C920 C926 1.428 . S
H921 C917 0.930 . S
H922 C919 0.929 . S
S923 N924 1.613 . S
S923 N925 1.610 . S
N924 S923 1.613 . S
N924 C927 1.350 . S
N925 S923 1.610 . S
N925 C926 1.351 . S
C926 C920 1.428 . S
C926 N925 1.351 . S
C926 C927 1.434 . S
C927 C918 1.429 . S
C927 N924 1.350 . S
C927 C926 1.434 . S
C577 C544 1.152 . S
C579 C4 1.146 . S
C588 C436 1.153 . S
C590 C40 1.147 . S
C599 C76 1.145 . S
C601 C472 1.153 . S
C610 C508 1.145 . S
C612 C112 1.152 . S
C621 C328 1.154 . S
C623 C148 1.146 . S
C632 C184 1.150 . S
C634 C364 1.150 . S
C643 C220 1.154 . S
C645 C400 1.146 . S
C654 C256 1.151 . S
C656 C292 1.148 . S
C665 C183 1.518 . S
C667 C14 1.444 . S
C676 C230 1.438 . S
C678 C39 1.519 . S
C687 C255 1.518 . S
C689 C86 1.439 . S
C698 C111 1.518 . S
C700 C158 1.445 . S
C709 C2 1.574 . S
C711 C38 1.574 . S
C720 C75 1.517 . S
C722 C50 1.445 . S
C731 C74 1.574 . S
C733 C110 1.574 . S
C742 C3 1.518 . S
C744 C122 1.445 . S
C753 C254 1.574 . S
C755 C146 1.574 . S
C764 C147 1.519 . S
C766 C194 1.440 . S
C775 C182 1.574 . S
C777 C218 1.574 . S
C786 C266 1.437 . S
C788 C219 1.519 . S
C797 C471 1.519 . S
C799 C302 1.438 . S
C808 C327 1.517 . S
C810 C518 1.443 . S
C819 C543 1.519 . S
C821 C374 1.442 . S
C830 C446 1.442 . S
C832 C399 1.519 . S
C841 C290 1.573 . S
C843 C326 1.573 . S
C852 C338 1.445 . S
C854 C363 1.517 . S
C863 C398 1.574 . S
C865 C362 1.575 . S
C874 C291 1.518 . S
C876 C410 1.441 . S
C885 C542 1.575 . S
C887 C434 1.574 . S
C896 C435 1.519 . S
C898 C482 1.439 . S
C907 C470 1.574 . S
C909 C506 1.574 . S
C918 C554 1.437 . S
C920 C507 1.519 . S
