# Generated by pormake.
# Topology wna, (6)-cn, num edge types: 1
# Building blocks:
#     Node 0, Type 0, BuildingBlock: BETGAK_clean_sbu_0, # of connection points: 6
#     Node 1, Type 0, BuildingBlock: BETGAK_clean_sbu_0, # of connection points: 6
#     Node 2, Type 0, BuildingBlock: BETGAK_clean_sbu_0, # of connection points: 6
#     Node 3, Type 0, BuildingBlock: BETGAK_clean_sbu_0, # of connection points: 6
#     Node 4, Type 0, BuildingBlock: BETGAK_clean_sbu_0, # of connection points: 6
#     Node 5, Type 0, BuildingBlock: BETGAK_clean_sbu_0, # of connection points: 6
#     Node 6, Type 0, BuildingBlock: BETGAK_clean_sbu_0, # of connection points: 6
#     Node 7, Type 0, BuildingBlock: BETGAK_clean_sbu_0, # of connection points: 6
#     Node 8, Type 0, BuildingBlock: BETGAK_clean_sbu_0, # of connection points: 6
#     Node 9, Type 0, BuildingBlock: BETGAK_clean_sbu_0, # of connection points: 6
#     Node 10, Type 0, BuildingBlock: BETGAK_clean_sbu_0, # of connection points: 6
#     Node 11, Type 0, BuildingBlock: BETGAK_clean_sbu_0, # of connection points: 6
#     Node 12, Type 0, BuildingBlock: BETGAK_clean_sbu_0, # of connection points: 6
#     Node 13, Type 0, BuildingBlock: BETGAK_clean_sbu_0, # of connection points: 6
#     Node 14, Type 0, BuildingBlock: BETGAK_clean_sbu_0, # of connection points: 6
#     Node 15, Type 0, BuildingBlock: BETGAK_clean_sbu_0, # of connection points: 6
#     Node 16, Type 0, BuildingBlock: BETGAK_clean_sbu_0, # of connection points: 6
#     Node 17, Type 0, BuildingBlock: BETGAK_clean_sbu_0, # of connection points: 6
#     Node 18, Type 0, BuildingBlock: BETGAK_clean_sbu_0, # of connection points: 6
#     Node 19, Type 0, BuildingBlock: BETGAK_clean_sbu_0, # of connection points: 6
#     Node 20, Type 0, BuildingBlock: BETGAK_clean_sbu_0, # of connection points: 6
#     Node 21, Type 0, BuildingBlock: BETGAK_clean_sbu_0, # of connection points: 6
#     Node 22, Type 0, BuildingBlock: BETGAK_clean_sbu_0, # of connection points: 6
#     Node 23, Type 0, BuildingBlock: BETGAK_clean_sbu_0, # of connection points: 6
#     Node 24, Type 0, BuildingBlock: BETGAK_clean_sbu_0, # of connection points: 6
#     Node 25, Type 0, BuildingBlock: BETGAK_clean_sbu_0, # of connection points: 6
#     Node 26, Type 0, BuildingBlock: BETGAK_clean_sbu_0, # of connection points: 6
#     Node 27, Type 0, BuildingBlock: BETGAK_clean_sbu_0, # of connection points: 6
#     Node 28, Type 0, BuildingBlock: BETGAK_clean_sbu_0, # of connection points: 6
#     Node 29, Type 0, BuildingBlock: BETGAK_clean_sbu_0, # of connection points: 6
#     Node 30, Type 0, BuildingBlock: BETGAK_clean_sbu_0, # of connection points: 6
#     Node 31, Type 0, BuildingBlock: BETGAK_clean_sbu_0, # of connection points: 6
#     Node 32, Type 0, BuildingBlock: BETGAK_clean_sbu_0, # of connection points: 6
#     Node 33, Type 0, BuildingBlock: BETGAK_clean_sbu_0, # of connection points: 6
#     Node 34, Type 0, BuildingBlock: BETGAK_clean_sbu_0, # of connection points: 6
#     Node 35, Type 0, BuildingBlock: BETGAK_clean_sbu_0, # of connection points: 6
#     Edge 36, Type (0, 0), BuildingBlock: CIFDUS_clean_linker_0, # of connection points: 2
#     Edge 37, Type (0, 0), BuildingBlock: CIFDUS_clean_linker_0, # of connection points: 2
#     Edge 38, Type (0, 0), BuildingBlock: CIFDUS_clean_linker_0, # of connection points: 2
#     Edge 39, Type (0, 0), BuildingBlock: CIFDUS_clean_linker_0, # of connection points: 2
#     Edge 40, Type (0, 0), BuildingBlock: CIFDUS_clean_linker_0, # of connection points: 2
#     Edge 41, Type (0, 0), BuildingBlock: CIFDUS_clean_linker_0, # of connection points: 2
#     Edge 42, Type (0, 0), BuildingBlock: CIFDUS_clean_linker_0, # of connection points: 2
#     Edge 43, Type (0, 0), BuildingBlock: CIFDUS_clean_linker_0, # of connection points: 2
#     Edge 44, Type (0, 0), BuildingBlock: CIFDUS_clean_linker_0, # of connection points: 2
#     Edge 45, Type (0, 0), BuildingBlock: CIFDUS_clean_linker_0, # of connection points: 2
#     Edge 46, Type (0, 0), BuildingBlock: CIFDUS_clean_linker_0, # of connection points: 2
#     Edge 47, Type (0, 0), BuildingBlock: CIFDUS_clean_linker_0, # of connection points: 2
#     Edge 48, Type (0, 0), BuildingBlock: CIFDUS_clean_linker_0, # of connection points: 2
#     Edge 49, Type (0, 0), BuildingBlock: CIFDUS_clean_linker_0, # of connection points: 2
#     Edge 50, Type (0, 0), BuildingBlock: CIFDUS_clean_linker_0, # of connection points: 2
#     Edge 51, Type (0, 0), BuildingBlock: CIFDUS_clean_linker_0, # of connection points: 2
#     Edge 52, Type (0, 0), BuildingBlock: CIFDUS_clean_linker_0, # of connection points: 2
#     Edge 53, Type (0, 0), BuildingBlock: CIFDUS_clean_linker_0, # of connection points: 2
#     Edge 54, Type (0, 0), BuildingBlock: CIFDUS_clean_linker_0, # of connection points: 2
#     Edge 55, Type (0, 0), BuildingBlock: CIFDUS_clean_linker_0, # of connection points: 2
#     Edge 56, Type (0, 0), BuildingBlock: CIFDUS_clean_linker_0, # of connection points: 2
#     Edge 57, Type (0, 0), BuildingBlock: CIFDUS_clean_linker_0, # of connection points: 2
#     Edge 58, Type (0, 0), BuildingBlock: CIFDUS_clean_linker_0, # of connection points: 2
#     Edge 59, Type (0, 0), BuildingBlock: CIFDUS_clean_linker_0, # of connection points: 2
#     Edge 60, Type (0, 0), BuildingBlock: CIFDUS_clean_linker_0, # of connection points: 2
#     Edge 61, Type (0, 0), BuildingBlock: CIFDUS_clean_linker_0, # of connection points: 2
#     Edge 62, Type (0, 0), BuildingBlock: CIFDUS_clean_linker_0, # of connection points: 2
#     Edge 63, Type (0, 0), BuildingBlock: CIFDUS_clean_linker_0, # of connection points: 2
#     Edge 64, Type (0, 0), BuildingBlock: CIFDUS_clean_linker_0, # of connection points: 2
#     Edge 65, Type (0, 0), BuildingBlock: CIFDUS_clean_linker_0, # of connection points: 2
#     Edge 66, Type (0, 0), BuildingBlock: CIFDUS_clean_linker_0, # of connection points: 2
#     Edge 67, Type (0, 0), BuildingBlock: CIFDUS_clean_linker_0, # of connection points: 2
#     Edge 68, Type (0, 0), BuildingBlock: CIFDUS_clean_linker_0, # of connection points: 2
#     Edge 69, Type (0, 0), BuildingBlock: CIFDUS_clean_linker_0, # of connection points: 2
#     Edge 70, Type (0, 0), BuildingBlock: CIFDUS_clean_linker_0, # of connection points: 2
#     Edge 71, Type (0, 0), BuildingBlock: CIFDUS_clean_linker_0, # of connection points: 2
#     Edge 72, Type (0, 0), BuildingBlock: CIFDUS_clean_linker_0, # of connection points: 2
#     Edge 73, Type (0, 0), BuildingBlock: CIFDUS_clean_linker_0, # of connection points: 2
#     Edge 74, Type (0, 0), BuildingBlock: CIFDUS_clean_linker_0, # of connection points: 2
#     Edge 75, Type (0, 0), BuildingBlock: CIFDUS_clean_linker_0, # of connection points: 2
#     Edge 76, Type (0, 0), BuildingBlock: CIFDUS_clean_linker_0, # of connection points: 2
#     Edge 77, Type (0, 0), BuildingBlock: CIFDUS_clean_linker_0, # of connection points: 2
#     Edge 78, Type (0, 0), BuildingBlock: CIFDUS_clean_linker_0, # of connection points: 2
#     Edge 79, Type (0, 0), BuildingBlock: CIFDUS_clean_linker_0, # of connection points: 2
#     Edge 80, Type (0, 0), BuildingBlock: CIFDUS_clean_linker_0, # of connection points: 2
#     Edge 81, Type (0, 0), BuildingBlock: CIFDUS_clean_linker_0, # of connection points: 2
#     Edge 82, Type (0, 0), BuildingBlock: CIFDUS_clean_linker_0, # of connection points: 2
#     Edge 83, Type (0, 0), BuildingBlock: CIFDUS_clean_linker_0, # of connection points: 2
#     Edge 84, Type (0, 0), BuildingBlock: CIFDUS_clean_linker_0, # of connection points: 2
#     Edge 85, Type (0, 0), BuildingBlock: CIFDUS_clean_linker_0, # of connection points: 2
#     Edge 86, Type (0, 0), BuildingBlock: CIFDUS_clean_linker_0, # of connection points: 2
#     Edge 87, Type (0, 0), BuildingBlock: CIFDUS_clean_linker_0, # of connection points: 2
#     Edge 88, Type (0, 0), BuildingBlock: CIFDUS_clean_linker_0, # of connection points: 2
#     Edge 89, Type (0, 0), BuildingBlock: CIFDUS_clean_linker_0, # of connection points: 2
#     Edge 90, Type (0, 0), BuildingBlock: CIFDUS_clean_linker_0, # of connection points: 2
#     Edge 91, Type (0, 0), BuildingBlock: CIFDUS_clean_linker_0, # of connection points: 2
#     Edge 92, Type (0, 0), BuildingBlock: CIFDUS_clean_linker_0, # of connection points: 2
#     Edge 93, Type (0, 0), BuildingBlock: CIFDUS_clean_linker_0, # of connection points: 2
#     Edge 94, Type (0, 0), BuildingBlock: CIFDUS_clean_linker_0, # of connection points: 2
#     Edge 95, Type (0, 0), BuildingBlock: CIFDUS_clean_linker_0, # of connection points: 2
#     Edge 96, Type (0, 0), BuildingBlock: CIFDUS_clean_linker_0, # of connection points: 2
#     Edge 97, Type (0, 0), BuildingBlock: CIFDUS_clean_linker_0, # of connection points: 2
#     Edge 98, Type (0, 0), BuildingBlock: CIFDUS_clean_linker_0, # of connection points: 2
#     Edge 99, Type (0, 0), BuildingBlock: CIFDUS_clean_linker_0, # of connection points: 2
#     Edge 100, Type (0, 0), BuildingBlock: CIFDUS_clean_linker_0, # of connection points: 2
#     Edge 101, Type (0, 0), BuildingBlock: CIFDUS_clean_linker_0, # of connection points: 2
#     Edge 102, Type (0, 0), BuildingBlock: CIFDUS_clean_linker_0, # of connection points: 2
#     Edge 103, Type (0, 0), BuildingBlock: CIFDUS_clean_linker_0, # of connection points: 2
#     Edge 104, Type (0, 0), BuildingBlock: CIFDUS_clean_linker_0, # of connection points: 2
#     Edge 105, Type (0, 0), BuildingBlock: CIFDUS_clean_linker_0, # of connection points: 2
#     Edge 106, Type (0, 0), BuildingBlock: CIFDUS_clean_linker_0, # of connection points: 2
#     Edge 107, Type (0, 0), BuildingBlock: CIFDUS_clean_linker_0, # of connection points: 2
#     Edge 108, Type (0, 0), BuildingBlock: CIFDUS_clean_linker_0, # of connection points: 2
#     Edge 109, Type (0, 0), BuildingBlock: CIFDUS_clean_linker_0, # of connection points: 2
#     Edge 110, Type (0, 0), BuildingBlock: CIFDUS_clean_linker_0, # of connection points: 2
#     Edge 111, Type (0, 0), BuildingBlock: CIFDUS_clean_linker_0, # of connection points: 2
#     Edge 112, Type (0, 0), BuildingBlock: CIFDUS_clean_linker_0, # of connection points: 2
#     Edge 113, Type (0, 0), BuildingBlock: CIFDUS_clean_linker_0, # of connection points: 2
#     Edge 114, Type (0, 0), BuildingBlock: CIFDUS_clean_linker_0, # of connection points: 2
#     Edge 115, Type (0, 0), BuildingBlock: CIFDUS_clean_linker_0, # of connection points: 2
#     Edge 116, Type (0, 0), BuildingBlock: CIFDUS_clean_linker_0, # of connection points: 2
#     Edge 117, Type (0, 0), BuildingBlock: CIFDUS_clean_linker_0, # of connection points: 2
#     Edge 118, Type (0, 0), BuildingBlock: CIFDUS_clean_linker_0, # of connection points: 2
#     Edge 119, Type (0, 0), BuildingBlock: CIFDUS_clean_linker_0, # of connection points: 2
#     Edge 120, Type (0, 0), BuildingBlock: CIFDUS_clean_linker_0, # of connection points: 2
#     Edge 121, Type (0, 0), BuildingBlock: CIFDUS_clean_linker_0, # of connection points: 2
#     Edge 122, Type (0, 0), BuildingBlock: CIFDUS_clean_linker_0, # of connection points: 2
#     Edge 123, Type (0, 0), BuildingBlock: CIFDUS_clean_linker_0, # of connection points: 2
#     Edge 124, Type (0, 0), BuildingBlock: CIFDUS_clean_linker_0, # of connection points: 2
#     Edge 125, Type (0, 0), BuildingBlock: CIFDUS_clean_linker_0, # of connection points: 2
#     Edge 126, Type (0, 0), BuildingBlock: CIFDUS_clean_linker_0, # of connection points: 2
#     Edge 127, Type (0, 0), BuildingBlock: CIFDUS_clean_linker_0, # of connection points: 2
#     Edge 128, Type (0, 0), BuildingBlock: CIFDUS_clean_linker_0, # of connection points: 2
#     Edge 129, Type (0, 0), BuildingBlock: CIFDUS_clean_linker_0, # of connection points: 2
#     Edge 130, Type (0, 0), BuildingBlock: CIFDUS_clean_linker_0, # of connection points: 2
#     Edge 131, Type (0, 0), BuildingBlock: CIFDUS_clean_linker_0, # of connection points: 2
#     Edge 132, Type (0, 0), BuildingBlock: CIFDUS_clean_linker_0, # of connection points: 2
#     Edge 133, Type (0, 0), BuildingBlock: CIFDUS_clean_linker_0, # of connection points: 2
#     Edge 134, Type (0, 0), BuildingBlock: CIFDUS_clean_linker_0, # of connection points: 2
#     Edge 135, Type (0, 0), BuildingBlock: CIFDUS_clean_linker_0, # of connection points: 2
#     Edge 136, Type (0, 0), BuildingBlock: CIFDUS_clean_linker_0, # of connection points: 2
#     Edge 137, Type (0, 0), BuildingBlock: CIFDUS_clean_linker_0, # of connection points: 2
#     Edge 138, Type (0, 0), BuildingBlock: CIFDUS_clean_linker_0, # of connection points: 2
#     Edge 139, Type (0, 0), BuildingBlock: CIFDUS_clean_linker_0, # of connection points: 2
#     Edge 140, Type (0, 0), BuildingBlock: CIFDUS_clean_linker_0, # of connection points: 2
#     Edge 141, Type (0, 0), BuildingBlock: CIFDUS_clean_linker_0, # of connection points: 2
#     Edge 142, Type (0, 0), BuildingBlock: CIFDUS_clean_linker_0, # of connection points: 2
#     Edge 143, Type (0, 0), BuildingBlock: CIFDUS_clean_linker_0, # of connection points: 2
# Relax obj value: 0.151
# Max RMSD: 0.224
# Mean RMSD: 0.208
data_MOF--net-wna--node1-BETGAK_clean_sbu_0--edge1-CIFDUS_clean_linker_0
_symmetry_space_group_name_H-M    P1
_symmetry_Int_Tables_number       1
_symmetry_cell_setting            triclinic
loop_
_symmetry_equiv_pos_as_xyz
'x, y, z'
_cell_length_a     35.812086
_cell_length_b     35.752531
_cell_length_c     140.18878
_cell_angle_alpha  90.022238
_cell_angle_beta   90.052559
_cell_angle_gamma 119.99707
loop_
_atom_site_label
_atom_site_type_symbol
_atom_site_fract_x
_atom_site_fract_y
_atom_site_fract_z
_atom_type_partial_charge
La0 La 0.14458 0.26746 0.18445 0.0
La1 La 0.14003 0.25701 0.20685 0.0
C2 C 0.1453 0.29466 0.16774 0.0
C3 C 0.16641 0.30793 0.15823 0.0
C4 C 0.15839 0.27693 0.15111 0.0
C5 C 0.17103 0.28944 0.14164 0.0
C6 C 0.19186 0.33328 0.13898 0.0
C7 C 0.20113 0.36429 0.14618 0.0
C8 C 0.18849 0.35177 0.15565 0.0
C9 C 0.15246 0.20221 0.19082 0.0
C10 C 0.23271 0.31481 0.19652 0.0
C11 C 0.13901 0.23465 0.22399 0.0
C12 C 0.11799 0.23128 0.23338 0.0
C13 C 0.13923 0.2635 0.24034 0.0
C14 C 0.12294 0.25807 0.24963 0.0
C15 C 0.08506 0.22008 0.2523 0.0
C16 C 0.06296 0.18843 0.24525 0.0
C17 C 0.07927 0.19389 0.23593 0.0
C18 C 0.11113 0.31012 0.20092 0.0
C19 C 0.0592 0.19751 0.19411 0.0
O20 O 0.12714 0.25382 0.17008 0.0
O21 O 0.16255 0.32028 0.17514 0.0
O22 O 0.14169 0.20573 0.18216 0.0
O23 O 0.16481 0.23771 0.19506 0.0
O24 O 0.21335 0.30949 0.18808 0.0
O25 O 0.21059 0.29582 0.20443 0.0
O26 O 0.16557 0.27349 0.22071 0.0
O27 O 0.11568 0.20787 0.21718 0.0
O28 O 0.11389 0.30091 0.20971 0.0
O29 O 0.12536 0.2901 0.19623 0.0
O30 O 0.08096 0.2 0.20196 0.0
O31 O 0.07571 0.22758 0.18738 0.0
H32 H 0.14089 0.24278 0.15277 0.0
H33 H 0.16384 0.26462 0.13636 0.0
H34 H 0.21654 0.39829 0.14444 0.0
H35 H 0.19436 0.37642 0.16088 0.0
H36 H 0.16927 0.29255 0.23868 0.0
H37 H 0.14049 0.28358 0.25478 0.0
H38 H 0.03393 0.15858 0.24701 0.0
H39 H 0.06222 0.16812 0.23081 0.0
La40 La 0.78333 0.88815 0.18534 0.0
La41 La 0.79312 0.89581 0.20618 0.0
C42 C 0.75783 0.86311 0.16845 0.0
C43 C 0.74494 0.87004 0.1588 0.0
C44 C 0.77584 0.88649 0.15145 0.0
C45 C 0.76343 0.88501 0.14193 0.0
C46 C 0.71974 0.86707 0.13946 0.0
C47 C 0.68891 0.85232 0.14683 0.0
C48 C 0.70134 0.85351 0.15639 0.0
C49 C 0.84832 0.96369 0.19082 0.0
C50 C 0.73618 0.93061 0.19669 0.0
C51 C 0.81544 0.91063 0.2236 0.0
C52 C 0.82557 0.89407 0.23238 0.0
C53 C 0.79428 0.85741 0.23731 0.0
C54 C 0.80383 0.84611 0.24623 0.0
C55 C 0.84481 0.87127 0.25044 0.0
C56 C 0.87598 0.9076 0.2454 0.0
C57 C 0.86651 0.91872 0.23652 0.0
C58 C 0.73183 0.81691 0.20012 0.0
C59 C 0.8543 0.87345 0.19426 0.0
O60 O 0.79811 0.88749 0.17095 0.0
O61 O 0.73151 0.85287 0.17573 0.0
O62 O 0.84558 0.94585 0.18264 0.0
O63 O 0.81267 0.94243 0.19505 0.0
O64 O 0.73642 0.90954 0.18888 0.0
O65 O 0.76138 0.93441 0.20401 0.0
O66 O 0.77554 0.89192 0.22063 0.0
O67 O 0.8426 0.92243 0.2165 0.0
O68 O 0.7301 0.83728 0.20754 0.0
O69 O 0.76826 0.84087 0.1964 0.0
O70 O 0.84982 0.89068 0.2022 0.0
O71 O 0.82506 0.86091 0.18743 0.0
H72 H 0.80966 0.89884 0.15299 0.0
H73 H 0.78808 0.89717 0.13646 0.0
H74 H 0.65494 0.83801 0.14518 0.0
H75 H 0.67661 0.8398 0.16182 0.0
H76 H 0.76221 0.83788 0.23437 0.0
H77 H 0.77907 0.81766 0.24981 0.0
H78 H 0.90758 0.92843 0.24843 0.0
H79 H 0.891 0.94758 0.233 0.0
La80 La 0.16311 0.91129 0.18368 0.0
La81 La 0.15545 0.90917 0.20609 0.0
C82 C 0.18974 0.91356 0.16693 0.0
C83 C 0.18132 0.89067 0.15767 0.0
C84 C 0.15304 0.89239 0.15094 0.0
C85 C 0.1518 0.87835 0.14156 0.0
C86 C 0.17894 0.8625 0.13868 0.0
C87 C 0.20572 0.859 0.14554 0.0
C88 C 0.20693 0.87298 0.15492 0.0
C89 C 0.08877 0.89938 0.19021 0.0
C90 C 0.12691 0.82071 0.19442 0.0
C91 C 0.13186 0.90634 0.22318 0.0
C92 C 0.14495 0.92804 0.23264 0.0
C93 C 0.18383 0.93766 0.2372 0.0
C94 C 0.19228 0.9537 0.24661 0.0
C95 C 0.16191 0.96013 0.25168 0.0
C96 C 0.12394 0.95199 0.24691 0.0
C97 C 0.11563 0.93615 0.23756 0.0
C98 C 0.238 0.94207 0.20006 0.0
C99 C 0.17872 0.99381 0.19443 0.0
O100 O 0.16457 0.92875 0.16939 0.0
O101 O 0.20117 0.89863 0.17424 0.0
O102 O 0.10456 0.91456 0.18185 0.0
O103 O 0.11176 0.8859 0.19411 0.0
O104 O 0.14089 0.8431 0.18637 0.0
O105 O 0.12692 0.83916 0.20273 0.0
O106 O 0.15086 0.88545 0.22002 0.0
O107 O 0.12424 0.92674 0.21636 0.0
O108 O 0.22605 0.93662 0.2089 0.0
O109 O 0.2036 0.92841 0.19552 0.0
O110 O 0.15845 0.96999 0.202 0.0
O111 O 0.19308 0.97899 0.18753 0.0
H112 H 0.1331 0.90618 0.15278 0.0
H113 H 0.13029 0.8809 0.13651 0.0
H114 H 0.22748 0.84751 0.14358 0.0
H115 H 0.22955 0.87189 0.15989 0.0
H116 H 0.20717 0.9318 0.2336 0.0
H117 H 0.22184 0.95953 0.25004 0.0
H118 H 0.10018 0.95737 0.25045 0.0
H119 H 0.08547 0.92912 0.23423 0.0
La120 La 0.27443 0.13128 0.37109 0.0
La121 La 0.26634 0.12747 0.35006 0.0
C122 C 0.2997 0.1329 0.388 0.0
C123 C 0.3189 0.15543 0.39714 0.0
C124 C 0.29659 0.16844 0.40334 0.0
C125 C 0.311 0.18121 0.41273 0.0
C126 C 0.34789 0.181 0.41618 0.0
C127 C 0.37081 0.16932 0.40983 0.0
C128 C 0.35653 0.15679 0.40045 0.0
C129 C 0.20981 0.14096 0.36513 0.0
C130 C 0.32316 0.21979 0.35928 0.0
C131 C 0.24539 0.11972 0.33255 0.0
C132 C 0.23822 0.09457 0.32359 0.0
C133 C 0.27133 0.09042 0.31922 0.0
C134 C 0.26576 0.07279 0.31001 0.0
C135 C 0.2271 0.05912 0.30489 0.0
C136 C 0.19355 0.06195 0.30946 0.0
C137 C 0.19908 0.07938 0.31866 0.0
C138 C 0.3241 0.10705 0.35711 0.0
C139 C 0.20305 0.04508 0.36209 0.0
O140 O 0.26112 0.12533 0.38572 0.0
O141 O 0.32435 0.14006 0.38052 0.0
O142 O 0.2117 0.12468 0.37323 0.0
O143 O 0.246 0.15589 0.361 0.0
O144 O 0.32182 0.19933 0.36731 0.0
O145 O 0.29891 0.19778 0.35191 0.0
O146 O 0.28482 0.14285 0.33573 0.0
O147 O 0.21757 0.10229 0.33949 0.0
O148 O 0.32787 0.12679 0.34916 0.0
O149 O 0.28792 0.09755 0.36039 0.0
O150 O 0.20883 0.06643 0.35402 0.0
O151 O 0.23086 0.06222 0.3692 0.0
H152 H 0.2671 0.16727 0.40106 0.0
H153 H 0.29277 0.19054 0.41733 0.0
H154 H 0.39884 0.16788 0.4122 0.0
H155 H 0.37384 0.14602 0.39593 0.0
H156 H 0.302 0.10191 0.32278 0.0
H157 H 0.29211 0.07044 0.30686 0.0
H158 H 0.16349 0.05242 0.30579 0.0
H159 H 0.1732 0.08266 0.32179 0.0
La160 La 0.9259 0.15797 0.36986 0.0
La161 La 0.91261 0.14513 0.34941 0.0
C162 C 0.93278 0.1853 0.38683 0.0
C163 C 0.91082 0.17986 0.39615 0.0
C164 C 0.92358 0.16445 0.40401 0.0
C165 C 0.90971 0.16628 0.41325 0.0
C166 C 0.88265 0.18365 0.4149 0.0
C167 C 0.86811 0.19703 0.40695 0.0
C168 C 0.88217 0.19536 0.3977 0.0
C169 C 0.90916 0.08026 0.36455 0.0
C170 C 0.82962 0.11701 0.36139 0.0
C171 C 0.91107 0.12787 0.33177 0.0
C172 C 0.9343 0.14542 0.32258 0.0
C173 C 0.91629 0.16014 0.31565 0.0
C174 C 0.9335 0.17051 0.30643 0.0
C175 C 0.9691 0.16619 0.30381 0.0
C176 C 0.98833 0.15319 0.31086 0.0
C177 C 0.97107 0.1428 0.32012 0.0
C178 C 0.93674 0.22591 0.35524 0.0
C179 C 1.00258 0.16538 0.35808 0.0
O180 O 0.94104 0.15512 0.38422 0.0
O181 O 0.9222 0.20116 0.37956 0.0
O182 O 0.93223 0.1013 0.37183 0.0
O183 O 0.89173 0.10056 0.36111 0.0
O184 O 0.85679 0.13924 0.36841 0.0
O185 O 0.84451 0.10934 0.35344 0.0
O186 O 0.89088 0.14628 0.3355 0.0
O187 O 0.92926 0.11632 0.33833 0.0
O188 O 0.90917 0.2045 0.34864 0.0
O189 O 0.95122 0.2023 0.35817 0.0
O190 O 0.97446 0.1479 0.35108 0.0
O191 O 0.99277 0.17964 0.36586 0.0
H192 H 0.94608 0.15282 0.40309 0.0
H193 H 0.92211 0.1561 0.41913 0.0
H194 H 0.84659 0.20982 0.40788 0.0
H195 H 0.87178 0.20765 0.39182 0.0
H196 H 0.88784 0.16228 0.31725 0.0
H197 H 0.91828 0.18125 0.30128 0.0
H198 H 1.01562 0.14923 0.30913 0.0
H199 H 0.98566 0.13126 0.32524 0.0
La200 La 0.89367 0.78036 0.37066 0.0
La201 La 0.89895 0.77464 0.34962 0.0
C202 C 0.86838 0.76257 0.38775 0.0
C203 C 0.87467 0.74828 0.39726 0.0
C204 C 0.90849 0.77672 0.40329 0.0
C205 C 0.90858 0.76701 0.41296 0.0
C206 C 0.87487 0.72872 0.41686 0.0
C207 C 0.84252 0.69907 0.4107 0.0
C208 C 0.84236 0.70885 0.40102 0.0
C209 C 0.96917 0.83805 0.36399 0.0
C210 C 0.92938 0.72084 0.36176 0.0
C211 C 0.91227 0.78706 0.3318 0.0
C212 C 0.89616 0.7969 0.3229 0.0
C213 C 0.8548 0.76893 0.3192 0.0
C214 C 0.84255 0.77683 0.31023 0.0
C215 C 0.87136 0.81281 0.30473 0.0
C216 C 0.91233 0.84119 0.30857 0.0
C217 C 0.92451 0.83329 0.31752 0.0
C218 C 0.82039 0.72407 0.35724 0.0
C219 C 0.88424 0.84814 0.3585 0.0
O220 O 0.89768 0.80081 0.38478 0.0
O221 O 0.85229 0.73442 0.38077 0.0
O222 O 0.95252 0.84172 0.37187 0.0
O223 O 0.94654 0.79996 0.36077 0.0
O224 O 0.91148 0.72931 0.36916 0.0
O225 O 0.93291 0.73981 0.35343 0.0
O226 O 0.88912 0.74905 0.33571 0.0
O227 O 0.92992 0.81756 0.33821 0.0
O228 O 0.83598 0.71396 0.35002 0.0
O229 O 0.8477 0.76201 0.35951 0.0
O230 O 0.89787 0.83491 0.35118 0.0
O231 O 0.87284 0.82623 0.36661 0.0
H232 H 0.93386 0.80751 0.40068 0.0
H233 H 0.93443 0.7902 0.41746 0.0
H234 H 0.81592 0.66939 0.41345 0.0
H235 H 0.81559 0.68655 0.3966 0.0
H236 H 0.8322 0.74041 0.32312 0.0
H237 H 0.81089 0.754 0.3075 0.0
H238 H 0.93518 0.86962 0.30467 0.0
H239 H 0.95666 0.8553 0.32015 0.0
La240 La 0.91211 0.78146 0.84928 0.0
La241 La 0.90839 0.76815 0.87089 0.0
C242 C 0.91832 0.80539 0.83207 0.0
C243 C 0.94217 0.81113 0.82305 0.0
C244 C 0.95193 0.78009 0.81959 0.0
C245 C 0.97047 0.78484 0.81052 0.0
C246 C 0.97948 0.82062 0.8047 0.0
C247 C 0.97052 0.852 0.80836 0.0
C248 C 0.95226 0.84732 0.81741 0.0
C249 C 0.93025 0.72022 0.85536 0.0
C250 C 0.99291 0.84537 0.86166 0.0
C251 C 0.91513 0.74187 0.88721 0.0
C252 C 0.89943 0.73476 0.89727 0.0
C253 C 0.91656 0.76937 0.9038 0.0
C254 C 0.90939 0.76195 0.91361 0.0
C255 C 0.88488 0.71976 0.91719 0.0
C256 C 0.86553 0.68531 0.91065 0.0
C257 C 0.87299 0.69271 0.9008 0.0
C258 C 0.88341 0.82524 0.86704 0.0
C259 C 0.82157 0.72534 0.85912 0.0
O260 O 0.89237 0.76597 0.83501 0.0
O261 O 0.93905 0.8316 0.83912 0.0
O262 O 0.91123 0.71993 0.8475 0.0
O263 O 0.94005 0.75573 0.85926 0.0
O264 O 0.97471 0.83623 0.85313 0.0
O265 O 0.97443 0.82085 0.86923 0.0
O266 O 0.93733 0.78194 0.88432 0.0
O267 O 0.89048 0.71582 0.88042 0.0
O268 O 0.88419 0.81088 0.87548 0.0
O269 O 0.89469 0.80577 0.86123 0.0
O270 O 0.84226 0.72012 0.86642 0.0
O271 O 0.84315 0.75329 0.85222 0.0
H272 H 0.94458 0.75185 0.82381 0.0
H273 H 0.97751 0.76034 0.80805 0.0
H274 H 0.97621 0.87964 0.80411 0.0
H275 H 0.94476 0.87152 0.81989 0.0
H276 H 0.93731 0.80224 0.90141 0.0
H277 H 0.92423 0.78929 0.91843 0.0
H278 H 0.84659 0.65239 0.91317 0.0
H279 H 0.85974 0.66529 0.896 0.0
La280 La 0.26891 0.14358 0.84793 0.0
La281 La 0.27464 0.14646 0.86915 0.0
C282 C 0.26198 0.13109 0.83009 0.0
C283 C 0.25191 0.14667 0.82113 0.0
C284 C 0.27591 0.1899 0.8181 0.0
C285 C 0.2679 0.20242 0.80917 0.0
C286 C 0.23581 0.17206 0.80302 0.0
C287 C 0.21132 0.12905 0.8062 0.0
C288 C 0.21928 0.11663 0.81512 0.0
C289 C 0.31115 0.22303 0.85537 0.0
C290 C 0.2021 0.15778 0.85921 0.0
C291 C 0.29559 0.15959 0.88644 0.0
C292 C 0.308 0.16738 0.89661 0.0
C293 C 0.27867 0.14243 0.90377 0.0
C294 C 0.29167 0.14766 0.91336 0.0
C295 C 0.33453 0.1774 0.91596 0.0
C296 C 0.36362 0.20253 0.90873 0.0
C297 C 0.3504 0.19773 0.89918 0.0
C298 C 0.20792 0.07534 0.86265 0.0
C299 C 0.32809 0.11148 0.85783 0.0
O300 O 0.29852 0.1566 0.83445 0.0
O301 O 0.23024 0.1101 0.83612 0.0
O302 O 0.28636 0.21154 0.84798 0.0
O303 O 0.31335 0.19061 0.85821 0.0
O304 O 0.20851 0.14028 0.85155 0.0
O305 O 0.22916 0.17027 0.86658 0.0
O306 O 0.27745 0.12116 0.88259 0.0
O307 O 0.30151 0.19064 0.88057 0.0
O308 O 0.20865 0.09493 0.87046 0.0
O309 O 0.24491 0.09467 0.85882 0.0
O310 O 0.32152 0.1255 0.86605 0.0
O311 O 0.3095 0.11403 0.84988 0.0
H312 H 0.30127 0.21396 0.82256 0.0
H313 H 0.28701 0.23596 0.80709 0.0
H314 H 0.18678 0.10446 0.80169 0.0
H315 H 0.20048 0.08305 0.81722 0.0
H316 H 0.2458 0.11859 0.90194 0.0
H317 H 0.26846 0.12749 0.91869 0.0
H318 H 0.39672 0.226 0.91045 0.0
H319 H 0.37367 0.21694 0.89375 0.0
La320 La 0.90658 0.13877 0.8499 0.0
La321 La 0.89597 0.1245 0.87022 0.0
C322 C 0.92291 0.14118 0.83223 0.0
C323 C 0.90917 0.1143 0.82342 0.0
C324 C 0.87089 0.10441 0.81856 0.0
C325 C 0.86125 0.0833 0.80969 0.0
C326 C 0.88968 0.07166 0.80546 0.0
C327 C 0.92762 0.08116 0.81043 0.0
C328 C 0.93717 0.10214 0.81927 0.0
C329 C 0.82706 0.11599 0.85619 0.0
C330 C 0.88367 0.04664 0.85818 0.0
C331 C 0.87152 0.11716 0.88737 0.0
C332 C 0.87741 0.13947 0.89661 0.0
C333 C 0.89078 0.12509 0.90453 0.0
C334 C 0.88956 0.13965 0.91371 0.0
C335 C 0.87494 0.1691 0.91521 0.0
C336 C 0.86367 0.18523 0.9072 0.0
C337 C 0.86473 0.17046 0.898 0.0
C338 C 0.97198 0.14 0.86419 0.0
C339 C 0.93653 0.22186 0.86217 0.0
O340 O 0.89682 0.15295 0.83587 0.0
O341 O 0.94218 0.13131 0.83886 0.0
O342 O 0.84855 0.14463 0.84977 0.0
O343 O 0.8501 0.10032 0.85882 0.0
O344 O 0.90094 0.07473 0.85114 0.0
O345 O 0.87118 0.05738 0.86608 0.0
O346 O 0.90277 0.11111 0.88449 0.0
O347 O 0.85317 0.12594 0.8803 0.0
O348 O 0.95058 0.11396 0.87106 0.0
O349 O 0.95239 0.1591 0.86135 0.0
O350 O 0.9161 0.19418 0.86923 0.0
O351 O 0.94154 0.20735 0.85387 0.0
H352 H 0.84869 0.11361 0.8215 0.0
H353 H 0.8315 0.07611 0.80615 0.0
H354 H 0.95075 0.07351 0.80737 0.0
H355 H 0.96724 0.10992 0.82275 0.0
H356 H 0.90028 0.10086 0.90368 0.0
H357 H 0.89797 0.126 0.91966 0.0
H358 H 0.853 0.20853 0.90806 0.0
H359 H 0.85422 0.18218 0.89204 0.0
La360 La 0.79122 0.90709 0.70738 0.0
La361 La 0.78707 0.90547 0.68676 0.0
C362 C 0.81071 0.91436 0.72493 0.0
C363 C 0.81974 0.9416 0.73355 0.0
C364 C 0.78967 0.95215 0.73725 0.0
C365 C 0.79691 0.97301 0.74611 0.0
C366 C 0.8343 0.98371 0.75146 0.0
C367 C 0.8648 0.97416 0.74757 0.0
C368 C 0.85754 0.95334 0.73875 0.0
C369 C 0.72907 0.92122 0.70056 0.0
C370 C 0.85601 0.99278 0.69609 0.0
C371 C 0.76494 0.89584 0.66946 0.0
C372 C 0.75269 0.88853 0.6592 0.0
C373 C 0.76078 0.86019 0.6538 0.0
C374 C 0.74882 0.85219 0.64418 0.0
C375 C 0.72844 0.87234 0.63966 0.0
C376 C 0.7208 0.90118 0.64504 0.0
C377 C 0.73265 0.90906 0.65471 0.0
C378 C 0.85332 0.90014 0.69331 0.0
C379 C 0.7368 0.81665 0.6982 0.0
O380 O 0.77124 0.8939 0.72166 0.0
O381 O 0.83916 0.92902 0.71806 0.0
O382 O 0.72631 0.89826 0.70792 0.0
O383 O 0.76654 0.93577 0.69719 0.0
O384 O 0.84395 0.97235 0.70434 0.0
O385 O 0.83584 0.97407 0.68802 0.0
O386 O 0.78815 0.88094 0.67327 0.0
O387 O 0.75396 0.91684 0.67546 0.0
O388 O 0.85325 0.91963 0.68554 0.0
O389 O 0.81582 0.88165 0.69688 0.0
O390 O 0.73575 0.83892 0.69073 0.0
O391 O 0.76312 0.83762 0.70532 0.0
H392 H 0.76005 0.94328 0.73345 0.0
H393 H 0.7725 0.97947 0.74889 0.0
H394 H 0.8943 0.98254 0.75138 0.0
H395 H 0.8811 0.94535 0.73608 0.0
H396 H 0.77624 0.84386 0.65701 0.0
H397 H 0.75593 0.83039 0.64026 0.0
H398 H 0.70492 0.91708 0.64182 0.0
H399 H 0.726 0.93108 0.65867 0.0
La400 La 0.14436 0.89455 0.70732 0.0
La401 La 0.1497 0.89273 0.68525 0.0
C402 C 0.14281 0.91605 0.72437 0.0
C403 C 0.11834 0.90163 0.73345 0.0
C404 C 0.11365 0.86574 0.73861 0.0
C405 C 0.09574 0.85704 0.74782 0.0
C406 C 0.08248 0.88423 0.75207 0.0
C407 C 0.08547 0.91881 0.74668 0.0
C408 C 0.10323 0.92742 0.73752 0.0
C409 C 0.11733 0.81339 0.70102 0.0
C410 C 0.06214 0.87334 0.69445 0.0
C411 C 0.16062 0.88344 0.66801 0.0
C412 C 0.16821 0.88063 0.65777 0.0
C413 C 0.18901 0.9186 0.65231 0.0
C414 C 0.19517 0.91669 0.64255 0.0
C415 C 0.18067 0.87677 0.63801 0.0
C416 C 0.16055 0.83873 0.64349 0.0
C417 C 0.15423 0.84065 0.6533 0.0
C418 C 0.15197 0.96147 0.69256 0.0
C419 C 0.23606 0.92692 0.69757 0.0
O420 O 0.16413 0.89702 0.72152 0.0
O421 O 0.12485 0.9253 0.71727 0.0
O422 O 0.11899 0.8245 0.70985 0.0
O423 O 0.13195 0.84809 0.69644 0.0
O424 O 0.08229 0.88748 0.70276 0.0
O425 O 0.08055 0.86605 0.687 0.0
O426 O 0.17699 0.92102 0.67224 0.0
O427 O 0.13804 0.85008 0.6736 0.0
O428 O 0.13396 0.94386 0.68452 0.0
O429 O 0.16986 0.94174 0.69606 0.0
O430 O 0.21563 0.9096 0.68943 0.0
O431 O 0.21476 0.92719 0.7053 0.0
H432 H 0.12504 0.84522 0.73568 0.0
H433 H 0.09401 0.83018 0.75176 0.0
H434 H 0.07479 0.93991 0.74961 0.0
H435 H 0.10648 0.9553 0.73373 0.0
H436 H 0.20025 0.94996 0.65555 0.0
H437 H 0.21138 0.94657 0.63855 0.0
H438 H 0.14882 0.80747 0.64016 0.0
H439 H 0.1381 0.81091 0.65735 0.0
La440 La 0.14962 0.25623 0.70644 0.0
La441 La 0.16591 0.26657 0.68377 0.0
C442 C 0.12433 0.23466 0.7234 0.0
C443 C 0.13946 0.22563 0.73261 0.0
C444 C 0.17187 0.25859 0.73824 0.0
C445 C 0.18212 0.2494 0.74732 0.0
C446 C 0.16009 0.20708 0.75103 0.0
C447 C 0.12887 0.1741 0.74521 0.0
C448 C 0.11863 0.18327 0.73619 0.0
C449 C 0.23409 0.30578 0.70128 0.0
C450 C 0.16811 0.19087 0.69509 0.0
C451 C 0.20632 0.29497 0.66839 0.0
C452 C 0.20399 0.30953 0.65868 0.0
C453 C 0.17088 0.28356 0.65223 0.0
C454 C 0.17401 0.29549 0.64261 0.0
C455 C 0.21038 0.33334 0.6393 0.0
C456 C 0.24198 0.36029 0.64591 0.0
C457 C 0.23884 0.34844 0.65547 0.0
C458 C 0.08423 0.20876 0.68734 0.0
C459 C 0.12399 0.31635 0.69417 0.0
O460 O 0.14301 0.27472 0.72032 0.0
O461 O 0.11563 0.20693 0.71644 0.0
O462 O 0.22024 0.29772 0.70998 0.0
O463 O 0.2003 0.28665 0.69649 0.0
O464 O 0.15094 0.19802 0.70273 0.0
O465 O 0.1823 0.21705 0.68759 0.0
O466 O 0.18221 0.25371 0.67032 0.0
O467 O 0.20912 0.31998 0.67555 0.0
O468 O 0.1009 0.22184 0.67891 0.0
O469 O 0.11345 0.2315 0.69339 0.0
O470 O 0.14474 0.3132 0.68661 0.0
O471 O 0.11912 0.29463 0.70226 0.0
H472 H 0.18864 0.29167 0.73574 0.0
H473 H 0.20622 0.27574 0.75157 0.0
H474 H 0.11181 0.14097 0.74767 0.0
H475 H 0.09354 0.15711 0.73207 0.0
H476 H 0.14353 0.25333 0.65453 0.0
H477 H 0.14911 0.27407 0.63769 0.0
H478 H 0.26992 0.3901 0.64363 0.0
H479 H 0.26472 0.36893 0.66031 0.0
La480 La 0.80851 0.60133 0.51882 0.0
La481 La 0.80555 0.5919 0.54084 0.0
C482 C 0.81862 0.62291 0.50161 0.0
C483 C 0.82585 0.63383 0.49133 0.0
C484 C 0.84711 0.61761 0.48572 0.0
C485 C 0.85312 0.62635 0.47596 0.0
C486 C 0.83816 0.65166 0.47154 0.0
C487 C 0.8175 0.66855 0.47718 0.0
C488 C 0.8112 0.65952 0.48698 0.0
C489 C 0.81568 0.53595 0.5255 0.0
C490 C 0.89417 0.65714 0.53058 0.0
C491 C 0.80451 0.56703 0.55779 0.0
C492 C 0.78193 0.55755 0.56716 0.0
C493 C 0.76744 0.58393 0.57131 0.0
C494 C 0.74979 0.57525 0.58059 0.0
C495 C 0.74665 0.5403 0.58593 0.0
C496 C 0.75987 0.51337 0.58155 0.0
C497 C 0.7772 0.52191 0.57234 0.0
C498 C 0.77759 0.64648 0.53569 0.0
C499 C 0.72344 0.52987 0.5278 0.0
O500 O 0.84022 0.60736 0.50598 0.0
O501 O 0.79128 0.62748 0.50706 0.0
O502 O 0.7982 0.53624 0.51745 0.0
O503 O 0.83147 0.57291 0.52928 0.0
O504 O 0.87039 0.65568 0.52321 0.0
O505 O 0.87624 0.63123 0.53806 0.0
O506 O 0.8274 0.6074 0.55502 0.0
O507 O 0.78401 0.54083 0.55069 0.0
O508 O 0.78172 0.63648 0.54431 0.0
O509 O 0.79011 0.62631 0.53044 0.0
O510 O 0.74431 0.53556 0.53602 0.0
O511 O 0.74024 0.55722 0.52059 0.0
H512 H 0.85876 0.59765 0.48885 0.0
H513 H 0.86967 0.61333 0.47186 0.0
H514 H 0.80535 0.68794 0.47398 0.0
H515 H 0.79472 0.67242 0.49114 0.0
H516 H 0.77055 0.61164 0.56747 0.0
H517 H 0.74001 0.59674 0.5837 0.0
H518 H 0.75721 0.48566 0.5853 0.0
H519 H 0.7879 0.50096 0.56932 0.0
La520 La 0.45227 0.21691 0.51829 0.0
La521 La 0.45822 0.22713 0.53913 0.0
C522 C 0.42815 0.19162 0.50136 0.0
C523 C 0.41094 0.19702 0.49214 0.0
C524 C 0.43592 0.23178 0.48597 0.0
C525 C 0.42232 0.23174 0.47656 0.0
C526 C 0.38356 0.19684 0.47308 0.0
C527 C 0.35814 0.16288 0.4794 0.0
C528 C 0.37163 0.16304 0.48878 0.0
C529 C 0.51666 0.29253 0.52397 0.0
C530 C 0.40296 0.26034 0.52819 0.0
C531 C 0.47927 0.24417 0.55659 0.0
C532 C 0.49185 0.23052 0.5655 0.0
C533 C 0.46296 0.19308 0.57058 0.0
C534 C 0.4735 0.18524 0.57976 0.0
C535 C 0.51295 0.21484 0.5841 0.0
C536 C 0.5424 0.25111 0.57879 0.0
C537 C 0.53195 0.25884 0.56965 0.0
C538 C 0.39695 0.1485 0.53324 0.0
C539 C 0.51947 0.20032 0.5282 0.0
O540 O 0.46756 0.22035 0.50377 0.0
O541 O 0.40241 0.17674 0.50876 0.0
O542 O 0.51645 0.27289 0.51621 0.0
O543 O 0.47978 0.27226 0.52772 0.0
O544 O 0.40545 0.23875 0.52076 0.0
O545 O 0.42571 0.26471 0.53603 0.0
O546 O 0.43959 0.22149 0.55355 0.0
O547 O 0.50676 0.25866 0.54954 0.0
O548 O 0.3942 0.17001 0.54032 0.0
O549 O 0.43425 0.17106 0.52977 0.0
O550 O 0.51425 0.21897 0.53586 0.0
O551 O 0.49169 0.18803 0.52109 0.0
H552 H 0.46668 0.25833 0.48828 0.0
H553 H 0.44254 0.25879 0.47199 0.0
H554 H 0.32854 0.13503 0.477 0.0
H555 H 0.35213 0.13541 0.49328 0.0
H556 H 0.43163 0.17066 0.56762 0.0
H557 H 0.44994 0.15703 0.58362 0.0
H558 H 0.5734 0.27421 0.58178 0.0
H559 H 0.55476 0.28807 0.56596 0.0
La560 La 0.82865 0.24563 0.5167 0.0
La561 La 0.82752 0.24291 0.53803 0.0
C562 C 0.84936 0.24787 0.49937 0.0
C563 C 0.84289 0.22558 0.49005 0.0
C564 C 0.82018 0.23263 0.48273 0.0
C565 C 0.82084 0.21935 0.47337 0.0
C566 C 0.84447 0.19886 0.47103 0.0
C567 C 0.86581 0.19031 0.47843 0.0
C568 C 0.86513 0.2036 0.48781 0.0
C569 C 0.75512 0.23164 0.52411 0.0
C570 C 0.79563 0.15457 0.52695 0.0
C571 C 0.81705 0.24711 0.5559 0.0
C572 C 0.83186 0.27448 0.56471 0.0
C573 C 0.86653 0.27855 0.57026 0.0
C574 C 0.87599 0.29923 0.57921 0.0
C575 C 0.85088 0.31619 0.58292 0.0
C576 C 0.8165 0.31234 0.57727 0.0
C577 C 0.80722 0.29192 0.56834 0.0
C578 C 0.90411 0.26619 0.52986 0.0
C579 C 0.84414 0.32834 0.52709 0.0
O580 O 0.81941 0.25582 0.50236 0.0
O581 O 0.86785 0.239 0.50641 0.0
O582 O 0.76971 0.24887 0.51585 0.0
O583 O 0.77827 0.21697 0.52735 0.0
O584 O 0.81361 0.17908 0.51934 0.0
O585 O 0.7926 0.17225 0.53507 0.0
O586 O 0.84144 0.23333 0.55218 0.0
O587 O 0.79746 0.25671 0.54931 0.0
O588 O 0.88959 0.24349 0.53754 0.0
O589 O 0.87684 0.27656 0.5274 0.0
O590 O 0.83005 0.3052 0.53503 0.0
O591 O 0.85522 0.3135 0.51965 0.0
H592 H 0.80326 0.25007 0.48416 0.0
H593 H 0.80344 0.22592 0.46792 0.0
H594 H 0.88476 0.17507 0.47691 0.0
H595 H 0.88362 0.1983 0.49321 0.0
H596 H 0.88586 0.26493 0.56779 0.0
H597 H 0.903 0.30181 0.58323 0.0
H598 H 0.79565 0.32395 0.57986 0.0
H599 H 0.77966 0.28853 0.5644 0.0
La600 La 0.93177 0.45879 0.70374 0.0
La601 La 0.93948 0.46984 0.68249 0.0
C602 C 0.94834 0.4521 0.72103 0.0
C603 C 0.96452 0.47319 0.73049 0.0
C604 C 0.94152 0.48784 0.736 0.0
C605 C 0.95213 0.49921 0.74562 0.0
C606 C 0.98585 0.49602 0.75003 0.0
C607 C 1.01016 0.48345 0.74435 0.0
C608 C 0.99956 0.47214 0.73474 0.0
C609 C 0.87452 0.47575 0.6963 0.0
C610 C 0.99241 0.55387 0.69492 0.0
C611 C 0.9281 0.4702 0.66456 0.0
C612 C 0.91822 0.4439 0.65566 0.0
C613 C 0.94523 0.42877 0.65224 0.0
C614 C 0.9377 0.40844 0.64328 0.0
C615 C 0.90302 0.40272 0.63746 0.0
C616 C 0.87563 0.4172 0.64101 0.0
C617 C 0.88317 0.43746 0.64995 0.0
C618 C 0.98966 0.44224 0.69053 0.0
C619 C 0.86598 0.38116 0.69143 0.0
O620 O 0.91134 0.44649 0.71798 0.0
O621 O 0.97582 0.46058 0.71406 0.0
O622 O 0.86978 0.45574 0.7043 0.0
O623 O 0.91313 0.49156 0.69346 0.0
O624 O 0.98288 0.52706 0.70226 0.0
O625 O 0.97474 0.53897 0.68642 0.0
O626 O 0.96566 0.48424 0.66863 0.0
O627 O 0.89746 0.45855 0.67088 0.0
O628 O 0.99999 0.46767 0.68326 0.0
O629 O 0.95158 0.43163 0.69267 0.0
O630 O 0.87954 0.40773 0.68404 0.0
O631 O 0.8871 0.39208 0.69965 0.0
H632 H 0.91418 0.48893 0.73301 0.0
H633 H 0.93316 0.50956 0.74967 0.0
H634 H 0.03606 0.48014 0.74745 0.0
H635 H 1.01753 0.46043 0.73074 0.0
H636 H 0.97278 0.43344 0.65639 0.0
H637 H 0.95989 0.39828 0.64081 0.0
H638 H 0.8482 0.41289 0.63687 0.0
H639 H 0.86192 0.44898 0.65234 0.0
La640 La 0.58869 0.48825 0.70508 0.0
La641 La 0.57957 0.47552 0.68313 0.0
C642 C 0.59324 0.51346 0.72215 0.0
C643 C 0.57099 0.51089 0.73129 0.0
C644 C 0.55921 0.47653 0.73772 0.0
C645 C 0.54605 0.47872 0.74704 0.0
C646 C 0.54459 0.51542 0.75019 0.0
C647 C 0.55513 0.54905 0.74362 0.0
C648 C 0.5681 0.54678 0.73432 0.0
C649 C 0.57919 0.41419 0.69868 0.0
C650 C 0.49401 0.44593 0.69573 0.0
C651 C 0.57654 0.45065 0.66609 0.0
C652 C 0.59899 0.46793 0.65677 0.0
C653 C 0.59869 0.50262 0.65208 0.0
C654 C 0.61657 0.51552 0.64291 0.0
C655 C 0.63522 0.49411 0.63812 0.0
C656 C 0.63649 0.4602 0.64297 0.0
C657 C 0.61866 0.44737 0.65213 0.0
C658 C 0.61007 0.5596 0.68756 0.0
C659 C 0.66939 0.50569 0.69359 0.0
O660 O 0.59738 0.48051 0.7196 0.0
O661 O 0.58734 0.53266 0.7148 0.0
O662 O 0.60127 0.4346 0.70616 0.0
O663 O 0.56091 0.43389 0.69537 0.0
O664 O 0.51935 0.46323 0.70331 0.0
O665 O 0.51017 0.44488 0.68721 0.0
O666 O 0.55238 0.46576 0.66942 0.0
O667 O 0.59834 0.44484 0.6729 0.0
O668 O 0.60089 0.54308 0.67912 0.0
O669 O 0.60056 0.52809 0.69302 0.0
O670 O 0.64342 0.4833 0.68644 0.0
O671 O 0.65562 0.51961 0.70077 0.0
H672 H 0.56155 0.44855 0.73569 0.0
H673 H 0.53764 0.45187 0.75182 0.0
H674 H 0.55525 0.57821 0.74576 0.0
H675 H 0.57782 0.57418 0.72963 0.0
H676 H 0.58405 0.51947 0.65541 0.0
H677 H 0.61559 0.5423 0.63956 0.0
H678 H 0.65 0.44244 0.63958 0.0
H679 H 0.6193 0.42045 0.65551 0.0
La680 La 0.56193 0.10488 0.70366 0.0
La681 La 0.57574 0.11812 0.68171 0.0
C682 C 0.52975 0.07598 0.7199 0.0
C683 C 0.53558 0.06367 0.72966 0.0
C684 C 0.56664 0.09399 0.73598 0.0
C685 C 0.56486 0.08488 0.74576 0.0
C686 C 0.53207 0.04544 0.74937 0.0
C687 C 0.50255 1.01435 0.74303 0.0
C688 C 0.50437 0.02335 0.73326 0.0
C689 C 0.63824 0.1696 0.69883 0.0
C690 C 0.60599 0.05781 0.69256 0.0
C691 C 0.6013 0.14172 0.66483 0.0
C692 C 0.58439 0.14643 0.65547 0.0
C693 C 0.54508 0.11386 0.65167 0.0
C694 C 0.53184 0.11803 0.64248 0.0
C695 C 0.55755 0.15482 0.63685 0.0
C696 C 0.59635 0.1877 0.64081 0.0
C697 C 0.60948 0.18353 0.64999 0.0
C698 C 0.49109 0.06536 0.68591 0.0
C699 C 0.55562 0.18011 0.6937 0.0
O700 O 0.55128 0.11695 0.71768 0.0
O701 O 0.52547 0.05094 0.71264 0.0
O702 O 0.62015 0.16483 0.70709 0.0
O703 O 0.61653 0.13494 0.69416 0.0
O704 O 0.58952 0.06244 0.70074 0.0
O705 O 0.60547 0.07798 0.6846 0.0
O706 O 0.58728 0.1024 0.66801 0.0
O707 O 0.60487 0.16846 0.67165 0.0
O708 O 0.50736 0.07605 0.67748 0.0
O709 O 0.52296 0.08434 0.69139 0.0
O710 O 0.57632 0.17658 0.68628 0.0
O711 O 0.53859 0.14977 0.70037 0.0
H712 H 0.5909 0.12557 0.73348 0.0
H713 H 0.58776 0.1094 0.75056 0.0
H714 H 0.47688 0.98382 0.74569 0.0
H715 H 0.47972 0.99968 0.7286 0.0
H716 H 0.52481 0.08492 0.65574 0.0
H717 H 0.5014 0.09232 0.6398 0.0
H718 H 0.61742 0.21628 0.63673 0.0
H719 H 0.63995 0.20906 0.65273 0.0
La720 La 0.58207 0.11665 0.18071 0.0
La721 La 0.59041 0.11091 0.20288 0.0
C722 C 0.57953 0.13867 0.16365 0.0
C723 C 0.60274 0.14452 0.1544 0.0
C724 C 0.58209 0.11633 0.14669 0.0
C725 C 0.60227 0.12348 0.13773 0.0
C726 C 0.64374 0.15924 0.13618 0.0
C727 C 0.66438 0.18728 0.14394 0.0
C728 C 0.64431 0.18003 0.15288 0.0
C729 C 0.61449 0.0646 0.18523 0.0
C730 C 0.66935 0.17839 0.1916 0.0
C731 C 0.59537 0.08626 0.21951 0.0
C732 C 0.57442 0.07195 0.229 0.0
C733 C 0.58912 0.10107 0.23671 0.0
C734 C 0.57636 0.08655 0.24607 0.0
C735 C 0.54861 0.04243 0.24798 0.0
C736 C 0.53209 1.01368 0.24019 0.0
C737 C 0.54498 0.0282 0.23084 0.0
C738 C 0.57717 0.17409 0.19714 0.0
C739 C 0.49637 0.05896 0.1933 0.0
O740 O 0.55546 0.09916 0.16687 0.0
O741 O 0.60071 0.16594 0.17056 0.0
O742 O 0.60541 0.07179 0.17676 0.0
O743 O 0.60433 0.08634 0.19056 0.0
O744 O 0.64338 0.17455 0.18446 0.0
O745 O 0.65705 0.14919 0.19845 0.0
O746 O 0.61024 0.12667 0.21712 0.0
O747 O 0.57925 0.06007 0.21218 0.0
O748 O 0.59436 0.17321 0.20522 0.0
O749 O 0.56271 0.13753 0.1932 0.0
O750 O 0.5215 0.06665 0.20089 0.0
O751 O 0.51255 0.0769 0.18481 0.0
H752 H 0.54996 0.08887 0.14756 0.0
H753 H 0.58533 0.10073 0.13204 0.0
H754 H 0.69588 0.21563 0.14307 0.0
H755 H 0.66123 0.20284 0.15857 0.0
H756 H 0.6123 0.1349 0.23559 0.0
H757 H 0.59018 0.10969 0.25184 0.0
H758 H 0.51002 0.97961 0.24135 0.0
H759 H 0.5332 1.00478 0.22509 0.0
La760 La 0.94087 0.482 0.18311 0.0
La761 La 0.9345 0.48799 0.2041 0.0
C762 C 0.92871 0.46826 0.16528 0.0
C763 C 0.9155 0.4819 0.15645 0.0
C764 C 0.94345 0.52063 0.15167 0.0
C765 C 0.93207 0.53009 0.14276 0.0
C766 C 0.89253 0.50102 0.13838 0.0
C767 C 0.86458 0.46257 0.14325 0.0
C768 C 0.87588 0.45323 0.15214 0.0
C769 C 0.99122 0.56078 0.19066 0.0
C770 C 0.8667 0.49648 0.19185 0.0
C771 C 0.9517 0.51249 0.22128 0.0
C772 C 0.97195 0.51001 0.23033 0.0
C773 C 0.95244 0.47314 0.2362 0.0
C774 C 0.96802 0.47426 0.24545 0.0
C775 C 1.00332 0.51231 0.24907 0.0
C776 C 1.02345 0.54864 0.24306 0.0
C777 C 1.00798 0.54746 0.23383 0.0
C778 C 0.87646 0.41291 0.19727 0.0
C779 C 0.99441 0.4522 0.19547 0.0
O780 O 0.96599 0.49487 0.16915 0.0
O781 O 0.89922 0.44739 0.17175 0.0
O782 O 1.00176 0.54466 0.18362 0.0
O783 O 0.95319 0.5337 0.1929 0.0
O784 O 0.88067 0.48346 0.18454 0.0
O785 O 0.888 0.50783 0.20005 0.0
O786 O 0.91615 0.47827 0.2185 0.0
O787 O 0.97683 0.5337 0.21409 0.0
O788 O 0.87181 0.43102 0.20483 0.0
O789 O 0.91505 0.43466 0.1943 0.0
O790 O 0.98538 0.47025 0.20275 0.0
O791 O 0.97651 0.44894 0.18701 0.0
H792 H 0.97447 0.54333 0.15472 0.0
H793 H 0.9543 0.56024 0.13931 0.0
H794 H 0.83427 0.43885 0.14009 0.0
H795 H 0.85396 0.42276 0.15553 0.0
H796 H 0.92431 0.44379 0.23378 0.0
H797 H 0.952 0.44544 0.2498 0.0
H798 H 0.05017 0.57878 0.2456 0.0
H799 H 1.02319 0.57661 0.22957 0.0
La800 La 0.57301 0.46546 0.1822 0.0
La801 La 0.56205 0.46709 0.20413 0.0
C802 C 0.5979 0.46625 0.16532 0.0
C803 C 0.58055 0.44259 0.15615 0.0
C804 C 0.5704 0.46206 0.14863 0.0
C805 C 0.55711 0.44167 0.13972 0.0
C806 C 0.55383 0.40129 0.13805 0.0
C807 C 0.56368 0.3817 0.14562 0.0
C808 C 0.57679 0.40201 0.15453 0.0
C809 C 0.48912 0.43497 0.18657 0.0
C810 C 0.54913 0.38246 0.19445 0.0
C811 C 0.53404 0.46681 0.22068 0.0
C812 C 0.53812 0.48901 0.22988 0.0
C813 C 0.57412 0.50253 0.23591 0.0
C814 C 0.57321 0.51549 0.24533 0.0
C815 C 0.53622 0.51493 0.24896 0.0
C816 C 0.50095 0.50267 0.24277 0.0
C817 C 0.50199 0.49003 0.23338 0.0
C818 C 0.63644 0.47555 0.1985 0.0
C819 C 0.60422 0.55701 0.19268 0.0
O820 O 0.58233 0.49052 0.16829 0.0
O821 O 0.60394 0.44563 0.17237 0.0
O822 O 0.50493 0.43972 0.1781 0.0
O823 O 0.52106 0.44797 0.19207 0.0
O824 O 0.56908 0.40507 0.18676 0.0
O825 O 0.53488 0.39827 0.20119 0.0
O826 O 0.56232 0.45497 0.21872 0.0
O827 O 0.52124 0.47859 0.21305 0.0
O828 O 0.61855 0.46068 0.20671 0.0
O829 O 0.61528 0.49033 0.19431 0.0
O830 O 0.58982 0.53674 0.20101 0.0
O831 O 0.60191 0.53556 0.18472 0.0
H832 H 0.57323 0.49344 0.1496 0.0
H833 H 0.54926 0.45761 0.13416 0.0
H834 H 0.56228 0.351 0.14461 0.0
H835 H 0.5847 0.38613 0.1601 0.0
H836 H 0.6024 0.50173 0.23347 0.0
H837 H 0.60126 0.52526 0.2498 0.0
H838 H 0.47152 0.50088 0.24527 0.0
H839 H 0.4735 0.47896 0.22897 0.0
La840 La 0.45634 0.24194 0.03938 0.0
La841 La 0.44662 0.24037 1.01855 0.0
C842 C 0.47937 0.24968 0.05674 0.0
C843 C 0.48746 0.27633 0.06549 0.0
C844 C 0.45734 0.26095 0.07299 0.0
C845 C 0.46694 0.28249 0.08178 0.0
C846 C 0.50713 0.31989 0.08337 0.0
C847 C 0.53689 0.33573 0.07579 0.0
C848 C 0.52722 0.31427 0.06698 0.0
C849 C 0.39505 0.25979 0.03352 0.0
C850 C 0.51755 0.32619 0.02769 0.0
C851 C 0.42174 0.24046 1.00162 0.0
C852 C 0.4081 0.22116 0.99194 0.0
C853 C 0.43777 0.23799 0.98436 0.0
C854 C 0.42418 0.22769 0.97487 0.0
C855 C 0.38039 0.20007 0.97263 0.0
C856 C 0.35109 0.18133 0.98027 0.0
C857 C 0.36468 0.19203 0.98978 0.0
C858 C 0.51224 0.23111 1.02404 0.0
C859 C 0.40044 0.15007 0.02979 0.0
O860 O 0.43957 0.2262 0.05382 0.0
O861 O 0.50611 0.26643 0.0496 0.0
O862 O 0.39365 0.23789 0.04095 0.0
O863 O 0.43124 0.27205 0.02969 0.0
O864 O 0.5128 0.30405 0.03557 0.0
O865 O 0.48881 0.30955 1.02074 0.0
O866 O 0.46178 0.25482 1.00412 0.0
O867 O 0.39531 0.22534 1.00892 0.0
O868 O 0.50958 0.24678 1.01593 0.0
O869 O 0.47631 0.21568 0.02818 0.0
O870 O 0.40066 0.17128 1.02196 0.0
O871 O 0.42519 0.17175 0.03715 0.0
H872 H 0.42663 0.23152 0.07214 0.0
H873 H 0.44286 0.26956 0.08736 0.0
H874 H 0.56841 0.364 0.07673 0.0
H875 H 0.55152 0.32674 0.06144 0.0
H876 H 0.47137 0.26116 0.98573 0.0
H877 H 0.44785 0.24336 0.96929 0.0
H878 H 0.31727 0.15913 0.97892 0.0
H879 H 0.34085 0.17876 0.99541 0.0
La880 La 0.80597 0.22371 0.03715 0.0
La881 La 0.80499 0.21881 1.01605 0.0
C882 C 0.7999 0.23635 0.05482 0.0
C883 C 0.77267 0.21871 0.06358 0.0
C884 C 0.78722 0.20369 0.0712 0.0
C885 C 0.76547 0.19244 0.07999 0.0
C886 C 0.72849 0.19609 0.08149 0.0
C887 C 0.71349 0.21038 0.07377 0.0
C888 C 0.73522 0.22153 0.06496 0.0
C889 C 0.78191 0.1451 0.02983 0.0
C890 C 0.72202 0.2066 1.02573 0.0
C891 C 0.80422 0.19604 0.99896 0.0
C892 C 0.82838 0.20374 0.98992 0.0
C893 C 0.82543 0.22999 0.98283 0.0
C894 C 0.84027 0.23055 0.97358 0.0
C895 C 0.85823 0.20471 0.97117 0.0
C896 C 0.86302 0.18 0.97837 0.0
C897 C 0.84813 0.17941 0.98763 0.0
C898 C 0.81943 0.29426 1.0224 0.0
C899 C 0.89506 0.25357 1.02688 0.0
O900 O 0.81916 0.21622 0.05149 0.0
O901 O 0.78649 0.25143 0.04794 0.0
O902 O 0.80391 0.16062 0.03757 0.0
O903 O 0.77247 0.17237 1.02688 0.0
O904 O 0.74498 0.22225 0.03364 0.0
O905 O 0.7369 0.19386 1.01857 0.0
O906 O 0.79434 0.22508 1.00163 0.0
O907 O 0.8135 0.17898 1.00623 0.0
O908 O 0.80175 0.27726 1.01432 0.0
O909 O 0.83387 0.27176 1.02612 0.0
O910 O 0.87155 0.23396 1.01922 0.0
O911 O 0.87649 0.25893 0.03457 0.0
H912 H 0.81624 0.20161 0.07045 0.0
H913 H 0.77787 0.18099 0.08563 0.0
H914 H 0.68561 0.21434 0.07459 0.0
H915 H 0.72327 0.23352 0.05933 0.0
H916 H 0.80989 0.24872 0.98429 0.0
H917 H 0.83667 0.25047 0.96825 0.0
H918 H 0.87629 0.15936 0.97675 0.0
H919 H 0.85025 0.1583 0.99288 0.0
La920 La 0.82586 0.59524 0.03968 0.0
La921 La 0.82737 0.59313 1.0186 0.0
C922 C 0.81526 0.58058 0.05748 0.0
C923 C 0.8332 0.57188 0.06624 0.0
C924 C 0.87289 0.60285 0.07021 0.0
C925 C 0.88621 0.59579 0.07913 0.0
C926 C 0.86016 0.55767 0.08432 0.0
C927 C 0.82096 0.52638 0.08021 0.0
C928 C 0.8077 0.53344 0.07131 0.0
C929 C 0.90359 0.6472 0.03172 0.0
C930 C 0.83729 0.5226 0.02964 0.0
C931 C 0.85038 0.61337 1.0014 0.0
C932 C 0.8427 0.6273 0.99193 0.0
C933 C 0.81323 0.59662 0.98545 0.0
C934 C 0.812 0.60753 0.97591 0.0
C935 C 0.84006 0.64955 0.97251 0.0
C936 C 0.8684 0.6807 0.9791 0.0
C937 C 0.86987 0.66964 0.98865 0.0
C938 C 0.75305 0.53323 1.02544 0.0
C939 C 0.79033 0.64862 0.02915 0.0
O940 O 0.83576 0.61918 0.05373 0.0
O941 O 0.799 0.5505 0.05095 0.0
O942 O 0.88885 0.65588 0.03929 0.0
O943 O 0.87575 0.60979 0.02919 0.0
O944 O 0.82523 0.53503 0.03731 0.0
O945 O 0.848 0.5458 1.02169 0.0
O946 O 0.82257 0.57448 1.00431 0.0
O947 O 0.86601 0.64104 1.00848 0.0
O948 O 0.76893 0.53151 1.01727 0.0
O949 O 0.77589 0.5708 0.02896 0.0
O950 O 0.8064 0.64185 1.02116 0.0
O951 O 0.79029 0.62903 0.03715 0.0
H952 H 0.8932 0.63304 0.06655 0.0
H953 H 0.91637 0.62088 0.08207 0.0
H954 H 0.8003 0.49633 0.08388 0.0
H955 H 0.7768 0.50914 0.06848 0.0
H956 H 0.79234 0.56344 0.98762 0.0
H957 H 0.79021 0.58226 0.97111 0.0
H958 H 0.89007 0.71358 0.97686 0.0
H959 H 0.89344 0.69391 0.99339 0.0
La960 La 0.48201 0.93507 0.85228 0.0
La961 La 0.47614 0.92242 0.87414 0.0
C962 C 0.49242 0.95863 0.83517 0.0
C963 C 0.49831 0.96828 0.82483 0.0
C964 C 0.5059 0.9417 0.8187 0.0
C965 C 0.51317 0.95102 0.80897 0.0
C966 C 0.51349 0.98748 0.80509 0.0
C967 C 0.50506 1.01368 0.81122 0.0
C968 C 0.4974 1.00407 0.82099 0.0
C969 C 0.48391 0.86617 0.8585 0.0
C970 C 0.56835 0.98298 0.86465 0.0
C971 C 0.47338 0.89627 0.89102 0.0
C972 C 0.4495 0.88893 0.90013 0.0
C973 C 0.43378 0.9159 0.90323 0.0
C974 C 0.41361 0.90925 0.91218 0.0
C975 C 0.40867 0.8755 0.91823 0.0
C976 C 0.42405 0.84837 0.91498 0.0
C977 C 0.44416 0.85506 0.90607 0.0
C978 C 0.45204 0.98039 0.86935 0.0
C979 C 0.39395 0.86501 0.86102 0.0
O980 O 0.50877 0.93673 0.83905 0.0
O981 O 0.47031 0.96873 0.84108 0.0
O982 O 0.467 0.86863 0.85054 0.0
O983 O 0.50143 0.90285 0.86248 0.0
O984 O 0.5482 0.98293 0.85669 0.0
O985 O 0.54661 0.95881 0.87208 0.0
O986 O 0.49822 0.9364 0.88828 0.0
O987 O 0.4526 0.87055 0.88385 0.0
O988 O 0.45435 0.96827 0.87788 0.0
O989 O 0.4643 0.9604 0.86395 0.0
O990 O 0.41395 0.8688 0.86924 0.0
O991 O 0.41275 0.89235 0.85384 0.0
H992 H 0.50626 0.91352 0.82142 0.0
H993 H 0.51835 0.92936 0.80449 0.0
H994 H 0.50532 0.04219 0.80854 0.0
H995 H 0.49162 0.02507 0.82556 0.0
H996 H 0.43754 0.9424 0.89881 0.0
H997 H 0.40264 0.93113 0.91442 0.0
H998 H 0.42026 0.82158 0.91929 0.0
H999 H 0.45597 0.83381 0.90385 0.0
La1000 La 0.12039 0.55782 0.85119 0.0
La1001 La 0.12143 0.56472 0.87344 0.0
C1002 C 0.09722 0.53011 0.83434 0.0
C1003 C 0.08305 0.53586 0.82473 0.0
C1004 C 0.10982 0.5713 0.81889 0.0
C1005 C 0.1001 0.57155 0.80919 0.0
C1006 C 0.06352 0.53632 0.80504 0.0
C1007 C 0.03568 0.50197 0.81103 0.0
C1008 C 0.04539 0.50176 0.82072 0.0
C1009 C 0.18145 0.6323 0.85784 0.0
C1010 C 0.06384 0.59401 0.86155 0.0
C1011 C 0.13975 0.58833 0.89061 0.0
C1012 C 0.14913 0.57435 0.89987 0.0
C1013 C 0.11764 0.53854 0.90499 0.0
C1014 C 0.1265 0.52946 0.91421 0.0
C1015 C 0.16693 0.55607 0.91852 0.0
C1016 C 0.19874 0.59074 0.9132 0.0
C1017 C 0.1899 0.59979 0.90403 0.0
C1018 C 0.07522 0.48156 0.86758 0.0
C1019 C 0.18922 0.54691 0.86311 0.0
O1020 O 0.13703 0.55684 0.83692 0.0
O1021 O 0.07035 0.51834 0.84155 0.0
O1022 O 0.18209 0.61594 0.84962 0.0
O1023 O 0.1443 0.60953 0.86157 0.0
O1024 O 0.07693 0.58502 0.85336 0.0
O1025 O 0.07741 0.58867 0.86999 0.0
O1026 O 0.10017 0.5675 0.88728 0.0
O1027 O 0.16857 0.59884 0.88385 0.0
O1028 O 0.08072 0.49427 0.87636 0.0
O1029 O 0.09529 0.51571 0.86284 0.0
O1030 O 0.18025 0.56415 0.87045 0.0
O1031 O 0.1646 0.53409 0.85531 0.0
H1032 H 0.13923 0.5981 0.8217 0.0
H1033 H 0.12192 0.59901 0.80489 0.0
H1034 H 1.00746 0.47406 0.80814 0.0
H1035 H 1.02448 0.47374 0.82499 0.0
H1036 H 0.08584 0.51822 0.90199 0.0
H1037 H 0.10114 0.50257 0.91808 0.0
H1038 H 0.23053 0.61142 0.91616 0.0
H1039 H 0.21482 0.62755 0.90028 0.0
La1040 La 0.49541 0.58004 0.85188 0.0
La1041 La 0.48316 0.56442 0.87238 0.0
C1042 C 0.52386 0.58785 0.83501 0.0
C1043 C 0.52101 0.56609 0.82577 0.0
C1044 C 0.48641 0.55427 0.8194 0.0
C1045 C 0.48809 0.54086 0.81007 0.0
C1046 C 0.52447 0.53913 0.80684 0.0
C1047 C 0.5584 0.54984 0.81334 0.0
C1048 C 0.55665 0.56307 0.82265 0.0
C1049 C 0.4187 0.56444 0.85739 0.0
C1050 C 0.453 0.48213 0.85986 0.0
C1051 C 0.46774 0.56288 0.89015 0.0
C1052 C 0.48048 0.59083 0.89885 0.0
C1053 C 0.51966 0.60377 0.90367 0.0
C1054 C 0.52861 0.62572 0.91245 0.0
C1055 C 0.49861 0.63524 0.91669 0.0
C1056 C 0.45972 0.62264 0.91177 0.0
C1057 C 0.45086 0.60085 0.90301 0.0
C1058 C 0.56254 0.5873 0.86614 0.0
C1059 C 0.50424 0.65593 0.86419 0.0
O1060 O 0.49192 0.59369 0.83745 0.0
O1061 O 0.54069 0.57907 0.84239 0.0
O1062 O 0.44009 0.58851 0.85025 0.0
O1063 O 0.43838 0.54586 0.86065 0.0
O1064 O 0.47248 0.50976 0.85273 0.0
O1065 O 0.44924 0.4962 0.86833 0.0
O1066 O 0.49557 0.5535 0.8865 0.0
O1067 O 0.44612 0.5695 0.8835 0.0
O1068 O 0.54069 0.55778 0.87237 0.0
O1069 O 0.53969 0.60332 0.8636 0.0
O1070 O 0.48825 0.62763 0.87119 0.0
O1071 O 0.51686 0.64651 0.85613 0.0
H1072 H 0.45857 0.55661 0.82151 0.0
H1073 H 0.46104 0.53234 0.80535 0.0
H1074 H 0.58733 0.54977 0.81114 0.0
H1075 H 0.58417 0.57274 0.8273 0.0
H1076 H 0.54318 0.59633 0.90075 0.0
H1077 H 0.55912 0.63525 0.91591 0.0
H1078 H 0.43533 0.62849 0.91481 0.0
H1079 H 0.4201 0.59075 0.8996 0.0
La1080 La 0.61064 0.79753 0.03634 0.0
La1081 La 0.59958 0.79748 1.0144 0.0
C1082 C 0.63534 0.80643 0.05336 0.0
C1083 C 0.64785 0.81133 0.06355 0.0
C1084 C 0.61907 0.80881 0.07066 0.0
C1085 C 0.63135 0.81487 0.08029 0.0
C1086 C 0.67318 0.82463 0.08305 0.0
C1087 C 0.70204 0.82779 0.07581 0.0
C1088 C 0.68932 0.82066 0.06621 0.0
C1089 C 0.54368 0.80346 0.03031 0.0
C1090 C 0.66321 0.88568 1.02491 0.0
C1091 C 0.57314 0.79623 0.9976 0.0
C1092 C 0.56698 0.77287 0.98842 0.0
C1093 C 0.59865 0.76484 0.98461 0.0
C1094 C 0.59269 0.74485 0.97566 0.0
C1095 C 0.55485 0.73221 0.97028 0.0
C1096 C 0.52306 0.73983 0.97422 0.0
C1097 C 0.5291 0.75988 0.98314 0.0
C1098 C 0.65608 0.77086 1.01857 0.0
C1099 C 0.54174 0.71232 1.02687 0.0
O1100 O 0.61167 0.82184 0.05001 0.0
O1101 O 0.64529 0.78555 0.04708 0.0
O1102 O 0.54472 0.78453 0.0381 0.0
O1103 O 0.58044 0.82074 1.02643 0.0
O1104 O 0.66162 0.86211 0.03234 0.0
O1105 O 0.63801 0.86779 1.01734 0.0
O1106 O 0.61285 0.82223 1.00046 0.0
O1107 O 0.54772 0.77419 1.00469 0.0
O1108 O 0.64482 0.77584 1.01015 0.0
O1109 O 0.63605 0.78203 1.02425 0.0
O1110 O 0.54533 0.73474 1.01902 0.0
O1111 O 0.56941 0.72891 0.03405 0.0
H1112 H 0.58682 0.80172 0.06877 0.0
H1113 H 0.60769 0.81127 0.08555 0.0
H1114 H 0.73487 0.83641 0.07748 0.0
H1115 H 0.71234 0.82351 0.06084 0.0
H1116 H 0.62827 0.77445 0.98849 0.0
H1117 H 0.6182 0.74009 0.97288 0.0
H1118 H 0.49317 0.72999 0.97044 0.0
H1119 H 0.50413 0.76558 0.98591 0.0
La1120 La 0.25399 0.8269 0.03825 0.0
La1121 La 0.25089 0.80764 1.01578 0.0
C1122 C 0.26292 0.86474 0.05393 0.0
C1123 C 0.24279 0.85702 0.06352 0.0
C1124 C 0.26096 0.84643 0.07123 0.0
C1125 C 0.24644 0.84517 0.08054 0.0
C1126 C 0.21345 0.85463 0.0824 0.0
C1127 C 0.19392 0.86324 0.07464 0.0
C1128 C 0.20849 0.86456 0.06531 0.0
C1129 C 0.22716 0.74377 0.03488 0.0
C1130 C 0.16385 0.78421 1.02737 0.0
C1131 C 0.24869 0.77914 0.99918 0.0
C1132 C 0.27272 0.79382 0.98998 0.0
C1133 C 0.27693 0.82964 0.98485 0.0
C1134 C 0.29816 0.84099 0.97596 0.0
C1135 C 0.31581 0.81692 0.97201 0.0
C1136 C 0.31144 0.78122 0.97721 0.0
C1137 C 0.29033 0.76997 0.98604 0.0
C1138 C 0.28196 0.89275 1.0197 0.0
C1139 C 0.33423 0.82938 0.02806 0.0
O1140 O 0.28241 0.84304 0.05179 0.0
O1141 O 0.2419 0.86844 0.04663 0.0
O1142 O 0.23019 0.76041 0.04328 0.0
O1143 O 0.23758 0.77399 0.02897 0.0
O1144 O 0.18742 0.80763 0.03473 0.0
O1145 O 0.18134 0.77672 1.01968 0.0
O1146 O 0.22534 0.79623 1.00187 0.0
O1147 O 0.26905 0.77375 1.00636 0.0
O1148 O 0.27566 0.87574 1.0113 0.0
O1149 O 0.27035 0.86123 1.02523 0.0
O1150 O 0.31178 0.81206 1.02013 0.0
O1151 O 0.32024 0.84393 0.03512 0.0
H1152 H 0.28767 0.84078 0.07011 0.0
H1153 H 0.26259 0.83885 0.08633 0.0
H1154 H 0.16794 0.86996 0.07579 0.0
H1155 H 0.19375 0.87285 0.05956 0.0
H1156 H 0.26375 0.84883 0.98766 0.0
H1157 H 0.30117 0.86892 0.97225 0.0
H1158 H 0.32372 0.76127 0.9744 0.0
H1159 H 0.28732 0.74203 0.98976 0.0
La1160 La 0.23157 0.44812 0.03687 0.0
La1161 La 0.23258 0.4467 1.01576 0.0
C1162 C 0.20865 0.42787 0.05406 0.0
C1163 C 0.21382 0.41175 0.06348 0.0
C1164 C 0.22979 0.44062 0.07122 0.0
C1165 C 0.22719 0.42561 0.08056 0.0
C1166 C 0.20852 0.38115 0.08246 0.0
C1167 C 0.1945 0.35243 0.07463 0.0
C1168 C 0.19686 0.36749 0.06527 0.0
C1169 C 0.30561 0.50761 0.02986 0.0
C1170 C 0.26741 0.39197 1.0262 0.0
C1171 C 0.24365 0.46167 0.99799 0.0
C1172 C 0.22664 0.4713 0.98923 0.0
C1173 C 0.18541 0.44263 0.98558 0.0
C1174 C 0.17289 0.44976 0.97657 0.0
C1175 C 0.20136 0.48554 0.97097 0.0
C1176 C 0.24204 0.51485 0.97483 0.0
C1177 C 0.25441 0.5078 0.98382 0.0
C1178 C 0.15516 0.39398 1.02369 0.0
C1179 C 0.22084 0.51909 1.02605 0.0
O1180 O 0.23885 0.46609 0.0513 0.0
O1181 O 0.19124 0.40102 0.04687 0.0
O1182 O 0.2903 0.50974 0.03808 0.0
O1183 O 0.28242 0.47012 1.02638 0.0
O1184 O 0.25233 0.3993 0.03428 0.0
O1185 O 0.26708 0.41157 1.01822 0.0
O1186 O 0.222 0.42304 1.00169 0.0
O1187 O 0.26052 0.49157 1.00454 0.0
O1188 O 0.1701 0.38582 1.01608 0.0
O1189 O 0.18276 0.43149 1.02629 0.0
O1190 O 0.2322 0.5067 1.01825 0.0
O1191 O 0.2114 0.49598 0.03401 0.0
H1192 H 0.24238 0.47486 0.07012 0.0
H1193 H 0.23785 0.44886 0.08633 0.0
H1194 H 0.18071 0.31806 0.07574 0.0
H1195 H 0.18394 0.34427 0.0595 0.0
H1196 H 0.1632 0.41413 0.98956 0.0
H1197 H 0.14101 0.42687 0.97396 0.0
H1198 H 0.26521 0.54245 0.97075 0.0
H1199 H 0.28654 0.53019 0.98641 0.0
La1200 La 0.25343 0.44891 0.51553 0.0
La1201 La 0.24922 0.44205 0.53672 0.0
C1202 C 0.24854 0.45752 0.49774 0.0
C1203 C 0.27478 0.4693 0.48886 0.0
C1204 C 0.26033 0.44064 0.48108 0.0
C1205 C 0.28093 0.45316 0.47219 0.0
C1206 C 0.31652 0.49487 0.47083 0.0
C1207 C 0.33195 0.52296 0.47874 0.0
C1208 C 0.31137 0.5104 0.48763 0.0
C1209 C 0.28897 0.40511 0.52294 0.0
C1210 C 0.33506 0.51218 0.52749 0.0
C1211 C 0.23932 0.42106 0.55393 0.0
C1212 C 0.23234 0.40939 0.56413 0.0
C1213 C 0.20527 0.41896 0.56958 0.0
C1214 C 0.19738 0.40705 0.57917 0.0
C1215 C 0.21618 0.38504 0.58353 0.0
C1216 C 0.24351 0.37569 0.57807 0.0
C1217 C 0.25158 0.38784 0.56847 0.0
C1218 C 0.24536 0.50913 0.52996 0.0
C1219 C 0.16286 0.38567 0.52537 0.0
O1220 O 0.23813 0.42055 0.50182 0.0
O1221 O 0.2581 0.48823 0.50401 0.0
O1222 O 0.30293 0.4301 0.51559 0.0
O1223 O 0.25459 0.40347 0.52571 0.0
O1224 O 0.31262 0.50831 0.51965 0.0
O1225 O 0.31828 0.48356 0.53449 0.0
O1226 O 0.21653 0.43511 0.54951 0.0
O1227 O 0.26841 0.41896 0.54861 0.0
O1228 O 0.26248 0.50842 0.53802 0.0
O1229 O 0.22806 0.47192 0.52632 0.0
O1230 O 0.18452 0.39076 0.53332 0.0
O1231 O 0.18263 0.40748 0.51754 0.0
H1232 H 0.23205 0.40891 0.48179 0.0
H1233 H 0.26779 0.43068 0.46629 0.0
H1234 H 0.35975 0.555 0.47805 0.0
H1235 H 0.32352 0.53338 0.49346 0.0
H1236 H 0.19011 0.43575 0.56645 0.0
H1237 H 0.17686 0.41554 0.58319 0.0
H1238 H 0.25815 0.35834 0.58116 0.0
H1239 H 0.2724 0.37987 0.56441 0.0
La1240 La 0.5973 0.81473 0.5149 0.0
La1241 La 0.60996 0.82041 0.53796 0.0
C1242 C 0.57461 0.79278 0.4978 0.0
C1243 C 0.56692 0.80795 0.48848 0.0
C1244 C 0.60088 0.83662 0.4825 0.0
C1245 C 0.59246 0.8453 0.47319 0.0
C1246 C 0.54997 0.82523 0.46962 0.0
C1247 C 0.51613 0.79806 0.47578 0.0
C1248 C 0.5245 0.78948 0.48503 0.0
C1249 C 0.65077 0.89577 0.52141 0.0
C1250 C 0.53574 0.83196 0.5281 0.0
C1251 C 0.63708 0.85361 0.55417 0.0
C1252 C 0.6524 0.8514 0.5639 0.0
C1253 C 0.62554 0.82045 0.57066 0.0
C1254 C 0.63779 0.8248 0.58031 0.0
C1255 C 0.67687 0.86042 0.58341 0.0
C1256 C 0.70452 0.88986 0.57653 0.0
C1257 C 0.6924 0.88543 0.56692 0.0
C1258 C 0.55083 0.74192 0.53202 0.0
C1259 C 0.65463 0.77936 0.52547 0.0
O1260 O 0.61444 0.80861 0.50085 0.0
O1261 O 0.54768 0.78687 0.50475 0.0
O1262 O 0.64113 0.88526 0.51254 0.0
O1263 O 0.63092 0.86066 0.52581 0.0
O1264 O 0.54119 0.8183 0.51969 0.0
O1265 O 0.56298 0.84149 0.53537 0.0
O1266 O 0.59618 0.82821 0.5521 0.0
O1267 O 0.66262 0.86054 0.54683 0.0
O1268 O 0.56234 0.75199 0.5409 0.0
O1269 O 0.57423 0.77536 0.52721 0.0
O1270 O 0.65421 0.79771 0.53373 0.0
O1271 O 0.63261 0.77962 0.51777 0.0
H1272 H 0.63402 0.85128 0.48489 0.0
H1273 H 0.61937 0.86629 0.46867 0.0
H1274 H 0.48295 0.78265 0.47338 0.0
H1275 H 0.49762 0.76711 0.4894 0.0
H1276 H 0.59429 0.79397 0.56858 0.0
H1277 H 0.61566 0.80154 0.58541 0.0
H1278 H 0.73519 0.91721 0.57861 0.0
H1279 H 0.71357 0.90997 0.56191 0.0
La1280 La 0.23063 0.79663 0.51637 0.0
La1281 La 0.2291 0.79929 0.5374 0.0
C1282 C 0.24346 0.79105 0.49877 0.0
C1283 C 0.22753 0.76604 0.48981 0.0
C1284 C 0.18416 0.74635 0.48694 0.0
C1285 C 0.17165 0.72705 0.47788 0.0
C1286 C 0.20228 0.7273 0.47152 0.0
C1287 C 0.24543 0.74631 0.47456 0.0
C1288 C 0.2578 0.76538 0.48358 0.0
C1289 C 0.15323 0.77496 0.5241 0.0
C1290 C 0.21349 0.71382 0.52795 0.0
C1291 C 0.2063 0.79937 0.55437 0.0
C1292 C 0.21442 0.82135 0.56369 0.0
C1293 C 0.24964 0.82816 0.56939 0.0
C1294 C 0.2508 0.83801 0.57907 0.0
C1295 C 0.21685 0.84125 0.58324 0.0
C1296 C 0.18322 0.83743 0.57738 0.0
C1297 C 0.182 0.82745 0.5677 0.0
C1298 C 0.30243 0.80929 0.53093 0.0
C1299 C 0.26775 0.88873 0.52603 0.0
O1300 O 0.22321 0.81014 0.50213 0.0
O1301 O 0.25682 0.7755 0.50556 0.0
O1302 O 0.16775 0.79524 0.51613 0.0
O1303 O 0.18073 0.76579 0.52698 0.0
O1304 O 0.22807 0.73554 0.51989 0.0
O1305 O 0.20288 0.73038 0.53517 0.0
O1306 O 0.23275 0.78612 0.55172 0.0
O1307 O 0.19223 0.81248 0.54719 0.0
O1308 O 0.28609 0.79386 0.53921 0.0
O1309 O 0.28061 0.82416 0.52701 0.0
O1310 O 0.25047 0.868 0.53414 0.0
O1311 O 0.2678 0.86692 0.51839 0.0
H1312 H 0.16018 0.74667 0.49158 0.0
H1313 H 0.1382 0.71301 0.47577 0.0
H1314 H 0.2698 0.74652 0.46996 0.0
H1315 H 0.29147 0.78054 0.48562 0.0
H1316 H 0.27512 0.82352 0.56653 0.0
H1317 H 0.27752 0.84154 0.58337 0.0
H1318 H 0.15642 0.83944 0.58037 0.0
H1319 H 0.15422 0.82177 0.5635 0.0
La1320 La 0.12451 0.57795 0.37198 0.0
La1321 La 0.11703 0.57297 0.35078 0.0
C1322 C 0.14573 0.58573 0.38945 0.0
C1323 C 0.1549 0.61211 0.39826 0.0
C1324 C 0.12156 0.60935 0.40407 0.0
C1325 C 0.13072 0.62946 0.41306 0.0
C1326 C 0.17341 0.6526 0.41649 0.0
C1327 C 0.20665 0.65575 0.41057 0.0
C1328 C 0.19751 0.63585 0.40161 0.0
C1329 C 0.06693 0.59793 0.36479 0.0
C1330 C 0.18816 0.65956 0.35962 0.0
C1331 C 0.09229 0.57129 0.33382 0.0
C1332 C 0.07374 0.5486 0.32468 0.0
C1333 C 0.09884 0.54104 0.31807 0.0
C1334 C 0.08432 0.52834 0.30869 0.0
C1335 C 0.04449 0.52316 0.30567 0.0
C1336 C 1.01884 0.52923 0.3124 0.0
C1337 C 0.03329 0.54178 0.32177 0.0
C1338 C 0.18071 0.56305 0.3573 0.0
C1339 C 0.06719 0.48513 0.36262 0.0
O1340 O 0.10599 0.56402 0.38636 0.0
O1341 O 0.17336 0.60154 0.38243 0.0
O1342 O 0.0636 0.5792 0.37287 0.0
O1343 O 0.10296 0.60705 0.3614 0.0
O1344 O 0.18205 0.63911 0.36785 0.0
O1345 O 0.1604 0.64191 0.35252 0.0
O1346 O 0.13113 0.57982 0.33618 0.0
O1347 O 0.06718 0.56332 0.34127 0.0
O1348 O 0.17945 0.57743 0.34891 0.0
O1349 O 0.1444 0.54921 0.36124 0.0
O1350 O 0.06948 0.50529 0.35449 0.0
O1351 O 0.09061 0.5073 0.3701 0.0
H1352 H 0.08824 0.59082 0.40179 0.0
H1353 H 0.10427 0.62666 0.41733 0.0
H1354 H 0.23983 0.67245 0.41298 0.0
H1355 H 0.22384 0.63782 0.39741 0.0
H1356 H 0.13049 0.54657 0.32002 0.0
H1357 H 0.10475 0.5234 0.30377 0.0
H1358 H 0.98836 0.52633 0.31035 0.0
H1359 H 1.01365 0.5483 0.3266 0.0
La1360 La 0.47313 0.56064 0.37306 0.0
La1361 La 0.4691 0.54752 0.3509 0.0
C1362 C 0.47509 0.58613 0.38997 0.0
C1363 C 0.45332 0.56829 0.39928 0.0
C1364 C 0.46089 0.53935 0.4046 0.0
C1365 C 0.44212 0.52513 0.41362 0.0
C1366 C 0.41515 0.53931 0.41758 0.0
C1367 C 0.40729 0.5679 0.41219 0.0
C1368 C 0.42619 0.58223 0.40319 0.0
C1369 C 0.44285 0.47665 0.36878 0.0
C1370 C 0.38739 0.53397 0.3614 0.0
C1371 C 0.46667 0.51943 0.33422 0.0
C1372 C 0.48918 0.52615 0.32494 0.0
C1373 C 0.49798 0.56113 0.31892 0.0
C1374 C 0.51209 0.56238 0.30952 0.0
C1375 C 0.51749 0.52858 0.30589 0.0
C1376 C 0.50993 0.49444 0.31208 0.0
C1377 C 0.49608 0.49334 0.32145 0.0
C1378 C 0.47982 0.62277 0.35677 0.0
C1379 C 0.56079 0.58812 0.36133 0.0
O1380 O 0.50135 0.57348 0.3867 0.0
O1381 O 0.45146 0.58889 0.38317 0.0
O1382 O 0.44998 0.49309 0.37723 0.0
O1383 O 0.45361 0.5081 0.36323 0.0
O1384 O 0.41178 0.55602 0.36877 0.0
O1385 O 0.40163 0.51787 0.35477 0.0
O1386 O 0.45249 0.54563 0.3365 0.0
O1387 O 0.4809 0.50795 0.34165 0.0
O1388 O 0.46467 0.60587 0.34849 0.0
O1389 O 0.49427 0.60093 0.36073 0.0
O1390 O 0.53759 0.57126 0.35346 0.0
O1391 O 0.54297 0.5903 0.36953 0.0
H1392 H 0.4818 0.52806 0.40187 0.0
H1393 H 0.44954 0.50364 0.41757 0.0
H1394 H 0.38626 0.57911 0.41488 0.0
H1395 H 0.41982 0.60463 0.39929 0.0
H1396 H 0.4927 0.58688 0.32135 0.0
H1397 H 0.51815 0.58955 0.30505 0.0
H1398 H 0.51286 0.46738 0.30957 0.0
H1399 H 0.48886 0.46565 0.32586 0.0
La1400 La 0.49073 0.92537 0.37098 0.0
La1401 La 0.49779 0.92903 0.34974 0.0
C1402 C 0.47443 0.90615 0.38851 0.0
C1403 C 0.4908 0.89829 0.39759 0.0
C1404 C 0.53419 0.92278 0.40042 0.0
C1405 C 0.54719 0.91704 0.40952 0.0
C1406 C 0.51708 0.88688 0.41603 0.0
C1407 C 0.47388 0.86191 0.41302 0.0
C1408 C 0.46106 0.86749 0.40393 0.0
C1409 C 0.56984 0.98059 0.36422 0.0
C1410 C 0.51043 0.85933 0.3599 0.0
C1411 C 0.52202 0.95034 0.33268 0.0
C1412 C 0.51519 0.96565 0.32333 0.0
C1413 C 0.49155 0.93561 0.31612 0.0
C1414 C 0.49176 0.94918 0.30674 0.0
C1415 C 0.51586 0.99316 0.30429 0.0
C1416 C 0.53818 0.02335 0.31159 0.0
C1417 C 0.53795 1.00976 0.32098 0.0
C1418 C 0.42198 0.86817 0.356 0.0
C1419 C 0.46232 0.98475 0.36002 0.0
O1420 O 0.49325 0.94554 0.38518 0.0
O1421 O 0.4636 0.87762 0.3817 0.0
O1422 O 0.55354 0.98579 0.37197 0.0
O1423 O 0.54313 0.94408 0.361 0.0
O1424 O 0.49288 0.86599 0.36757 0.0
O1425 O 0.52389 0.88712 0.35276 0.0
O1426 O 0.49359 0.91126 0.33538 0.0
O1427 O 0.53742 0.9773 0.33989 0.0
O1428 O 0.43886 0.86728 0.34791 0.0
O1429 O 0.44457 0.90509 0.35969 0.0
O1430 O 0.48245 0.98045 0.35252 0.0
O1431 O 0.45629 0.96111 0.36781 0.0
H1432 H 0.55788 0.94681 0.39567 0.0
H1433 H 0.58086 0.93642 0.41146 0.0
H1434 H 0.4494 0.8389 0.41778 0.0
H1435 H 0.42736 0.84843 0.40196 0.0
H1436 H 0.47416 0.9013 0.31762 0.0
H1437 H 0.47363 0.92501 0.30137 0.0
H1438 H 0.55751 0.05744 0.30998 0.0
H1439 H 0.55716 0.03371 0.3263 0.0
H1440 H 0.1787 0.15975 0.17945 0.0
H1441 H 0.14598 0.16697 0.20865 0.0
H1442 H 0.15197 0.10322 0.21259 0.0
H1443 H 0.16259 0.04254 0.20728 0.0
H1444 H 0.19959 0.04027 0.17804 0.0
H1445 H 0.19628 0.10499 0.17462 0.0
C1446 C 0.17326 0.14762 0.18671 0.0
C1447 C 0.16136 0.16764 0.19374 0.0
C1448 C 0.17756 0.1117 0.1889 0.0
C1449 C 0.15505 0.15204 0.20313 0.0
C1450 C 0.15836 0.11547 0.20535 0.0
C1451 C 0.17047 0.05656 0.2002 0.0
C1452 C 0.18125 0.03622 0.19295 0.0
C1453 C 0.169 0.09457 0.19824 0.0
C1454 C 0.1914 0.05501 0.18381 0.0
C1455 C 0.18934 0.09208 0.1818 0.0
H1456 H 1.00439 0.13714 0.20703 0.0
H1457 H 1.02001 0.16735 0.17696 0.0
H1458 H 0.95591 0.09847 0.17341 0.0
H1459 H 0.89773 0.02782 0.17863 0.0
H1460 H 0.87732 0.99845 0.20861 0.0
H1461 H 0.94077 0.06854 0.21242 0.0
C1462 C 0.99344 0.12885 0.19971 0.0
C1463 C 1.0172 0.1576 0.19228 0.0
C1464 C 0.95586 0.08912 0.1977 0.0
C1465 C 1.00238 0.14625 0.18284 0.0
C1466 C 0.96577 0.10663 0.18079 0.0
C1467 C 0.90695 0.03692 0.18601 0.0
C1468 C 0.88327 1.00776 0.19333 0.0
C1469 C 0.94264 0.0776 0.18812 0.0
C1470 C 0.89518 1.02022 0.20285 0.0
C1471 C 0.93151 0.0603 0.20502 0.0
H1472 H 1.02518 0.88768 0.17836 0.0
H1473 H 0.05269 0.88701 0.20823 0.0
H1474 H 0.98238 0.87913 0.21232 0.0
H1475 H 0.91383 0.87579 0.20716 0.0
H1476 H 0.88636 0.87032 0.17701 0.0
H1477 H 0.9555 0.87671 0.17329 0.0
C1478 C 1.01577 0.88552 0.18578 0.0
C1479 C 0.04462 0.889 0.193 0.0
C1480 C 0.97504 0.87972 0.18801 0.0
C1481 C 0.03149 0.88521 0.20256 0.0
C1482 C 0.99118 0.88062 0.20487 0.0
C1483 C 0.92282 0.87544 0.19979 0.0
C1484 C 0.89468 0.87247 0.19238 0.0
C1485 C 0.96282 0.87841 0.19764 0.0
C1486 C 0.90692 0.87207 0.18287 0.0
C1487 C 0.94669 0.876 0.18071 0.0
H1488 H 0.15567 0.12879 0.35026 0.0
H1489 H 0.19554 0.18879 0.37788 0.0
H1490 H 0.13651 0.20445 0.37801 0.0
H1491 H 0.06922 0.19488 0.37098 0.0
H1492 H 1.02852 0.13359 0.34342 0.0
H1493 H 0.09146 0.12473 0.34259 0.0
C1494 C 0.15199 0.14636 0.35616 0.0
C1495 C 0.18001 0.15797 0.36401 0.0
C1496 C 0.11721 0.15444 0.35629 0.0
C1497 C 0.17443 0.17982 0.37172 0.0
C1498 C 0.1405 0.18853 0.37184 0.0
C1499 C 0.07447 0.18026 0.36472 0.0
C1500 C 0.04392 0.16504 0.3573 0.0
C1501 C 0.11097 0.17502 0.36427 0.0
C1502 C 0.05133 0.14583 0.34927 0.0
C1503 C 0.08744 0.1406 0.34877 0.0
H1504 H 0.85771 0.88715 0.37155 0.0
H1505 H 0.91242 0.90346 0.34338 0.0
H1506 H 0.92031 0.97495 0.34225 0.0
H1507 H 0.91748 0.03599 0.34977 0.0
H1508 H 0.86477 0.02061 0.37802 0.0
H1509 H 0.84948 0.94585 0.37853 0.0
C1510 C 0.87073 0.90604 0.36511 0.0
C1511 C 0.88438 0.88967 0.35758 0.0
C1512 C 0.87543 0.94753 0.36449 0.0
C1513 C 0.90144 0.91492 0.34931 0.0
C1514 C 0.90609 0.95603 0.34863 0.0
C1515 C 0.90148 1.0157 0.35589 0.0
C1516 C 0.89165 0.0333 0.36379 0.0
C1517 C 0.89383 0.97301 0.35623 0.0
C1518 C 0.87206 1.00732 0.37182 0.0
C1519 C 0.86365 0.96473 0.37214 0.0
H1520 H 0.03479 0.87974 0.37614 0.0
H1521 H 1.00384 0.86794 0.34622 0.0
H1522 H 0.07492 0.93075 0.34278 0.0
H1523 H 0.14357 0.99293 0.34868 0.0
H1524 H 0.17324 1.00162 0.37876 0.0
H1525 H 0.10512 0.9361 0.38173 0.0
C1526 C 0.04395 0.89041 0.36884 0.0
C1527 C 1.01424 0.86936 0.36143 0.0
C1528 C 0.08455 0.92629 0.36697 0.0
C1529 C 1.02638 0.88336 0.35201 0.0
C1530 C 0.06686 0.91953 0.35008 0.0
C1531 C 0.13535 0.98013 0.35586 0.0
C1532 C 0.16361 1.00244 0.36348 0.0
C1533 C 0.09589 0.94188 0.35755 0.0
C1534 C 0.15241 0.98527 0.37274 0.0
C1535 C 0.11329 0.94776 0.37447 0.0
H1536 H 0.90985 0.8846 0.85221 0.0
H1537 H 0.83647 0.84622 0.87832 0.0
H1538 H 0.828 0.90954 0.87769 0.0
H1539 H 0.84556 0.97868 0.87052 0.0
H1540 H 0.91948 1.01931 0.8445 0.0
H1541 H 0.92344 0.95297 0.8443 0.0
C1542 C 0.89127 0.88975 0.85763 0.0
C1543 C 0.87375 0.86057 0.86531 0.0
C1544 C 0.88696 0.9271 0.85731 0.0
C1545 C 0.85033 0.86811 0.87234 0.0
C1546 C 0.84554 0.90448 0.87202 0.0
C1547 C 0.86206 0.97287 0.86472 0.0
C1548 C 0.88201 1.00413 0.85753 0.0
C1549 C 0.8644 0.93467 0.86466 0.0
C1550 C 0.90346 0.99583 0.85012 0.0
C1551 C 0.90592 0.95784 0.85001 0.0
H1552 H 0.14847 0.02244 0.87499 0.0
H1553 H 0.18761 0.02942 0.84568 0.0
H1554 H 0.12404 0.95785 0.84263 0.0
H1555 H 0.05561 0.89429 0.84845 0.0
H1556 H 1.02146 0.8895 0.87817 0.0
H1557 H 0.08493 0.95944 0.88089 0.0
C1558 C 0.14341 1.00833 0.86792 0.0
C1559 C 0.1725 0.03117 0.86055 0.0
C1560 C 0.10758 0.96757 0.86631 0.0
C1561 C 0.16561 1.01231 0.85146 0.0
C1562 C 0.12923 0.97154 0.84973 0.0
C1563 C 0.06242 0.90848 0.85553 0.0
C1564 C 0.03387 0.88643 0.86311 0.0
C1565 C 0.09973 0.94896 0.85711 0.0
C1566 C 0.04305 0.90527 0.87223 0.0
C1567 C 0.07928 0.94547 0.8738 0.0
H1568 H 1.00285 0.08617 0.86312 0.0
H1569 H 0.04172 0.22085 0.86088 0.0
H1570 H 0.1178 0.23964 0.85972 0.0
H1571 H 0.17365 0.2168 0.85977 0.0
H1572 H 0.13107 0.08082 0.8609 0.0
H1573 H 0.05647 0.06339 0.8621 0.0
C1574 C 1.02804 0.11962 0.86228 0.0
C1575 C 1.01701 0.1521 0.8621 0.0
C1576 C 0.07116 0.12989 0.86154 0.0
C1577 C 0.04963 0.1953 0.86094 0.0
C1578 C 0.09307 0.206 0.86037 0.0
C1579 C 0.14791 0.18354 0.86039 0.0
C1580 C 0.15789 0.15012 0.86053 0.0
C1581 C 0.10436 0.17354 0.86078 0.0
C1582 C 0.1243 0.10706 0.86103 0.0
C1583 C 0.08151 0.09701 0.86164 0.0
H1584 H 0.90566 0.89354 0.68055 0.0
H1585 H 0.87785 0.88298 0.71063 0.0
H1586 H 0.93976 0.87265 0.71378 0.0
H1587 H 1.00425 0.87025 0.70785 0.0
H1588 H 1.0272 0.87661 0.67749 0.0
H1589 H 0.96468 0.88464 0.6746 0.0
C1590 C 0.91293 0.88869 0.68781 0.0
C1591 C 0.88757 0.8895 0.69537 0.0
C1592 C 0.94776 0.88195 0.6895 0.0
C1593 C 0.89699 0.88255 0.7047 0.0
C1594 C 0.93244 0.87677 0.70649 0.0
C1595 C 0.99516 0.87274 0.7006 0.0
C1596 C 1.02056 0.87256 0.6929 0.0
C1597 C 0.95843 0.87688 0.69894 0.0
C1598 C 1.00824 0.87602 0.68356 0.0
C1599 C 0.97253 0.88095 0.68188 0.0
H1600 H 0.22103 0.15961 0.70044 0.0
H1601 H 0.09784 0.1239 0.68786 0.0
H1602 H 0.08018 0.04866 0.68685 0.0
H1603 H 0.10054 0.99357 0.689 0.0
H1604 H 0.22324 0.02686 0.70149 0.0
H1605 H 0.2406 0.10241 0.70315 0.0
C1606 C 0.19066 0.13521 0.6974 0.0
C1607 C 0.16101 0.14698 0.69402 0.0
C1608 C 0.18064 0.09174 0.6969 0.0
C1609 C 0.12132 0.11536 0.69029 0.0
C1610 C 0.11113 0.0724 0.68978 0.0
C1611 C 0.13086 1.01733 0.69221 0.0
C1612 C 0.16051 1.00496 0.69516 0.0
C1613 C 0.14059 0.0603 0.69301 0.0
C1614 C 0.19968 0.03574 0.69931 0.0
C1615 C 0.20974 0.07893 0.70015 0.0
H1616 H 0.91423 0.02897 0.68178 0.0
H1617 H 0.88828 0.05308 0.71042 0.0
H1618 H 0.95694 0.12151 0.71078 0.0
H1619 H 1.02608 0.17541 0.70277 0.0
H1620 H 0.04978 0.14672 0.67422 0.0
H1621 H 0.98185 0.07992 0.67415 0.0
C1622 C 0.92322 0.04951 0.68804 0.0
C1623 C 0.89567 0.03621 0.69597 0.0
C1624 C 0.96321 0.08823 0.6883 0.0
C1625 C 0.90865 0.06274 0.70415 0.0
C1626 C 0.94813 0.10186 0.70438 0.0
C1627 C 1.01633 0.15438 0.69659 0.0
C1628 C 0.04318 0.16681 0.68848 0.0
C1629 C 0.97606 0.11506 0.6965 0.0
C1630 C 0.02981 0.13881 0.68054 0.0
C1631 C 0.9907 0.10023 0.68045 0.0
H1632 H 0.83834 0.38129 0.5408 0.0
H1633 H 0.84913 0.36817 0.51041 0.0
H1634 H 0.84269 0.43124 0.50747 0.0
H1635 H 0.83017 0.48793 0.51317 0.0
H1636 H 0.82508 0.5079 0.5433 0.0
H1637 H 0.83314 0.44482 0.54671 0.0
C1638 C 0.83974 0.39261 0.53357 0.0
C1639 C 0.8442 0.36968 0.52587 0.0
C1640 C 0.83669 0.43001 0.53185 0.0
C1641 C 0.84604 0.38497 0.51652 0.0
C1642 C 0.84215 0.42112 0.51479 0.0
C1643 C 0.83111 0.47872 0.5205 0.0
C1644 C 0.82609 0.50193 0.52796 0.0
C1645 C 0.83692 0.44349 0.52236 0.0
C1646 C 0.82828 0.49018 0.53742 0.0
C1647 C 0.83291 0.45408 0.53936 0.0
H1648 H 0.5764 0.35089 0.51212 0.0
H1649 H 0.53368 0.33429 0.54131 0.0
H1650 H 0.59422 0.40617 0.5453 0.0
H1651 H 0.66111 0.47368 0.54038 0.0
H1652 H 0.69775 0.49036 0.51068 0.0
H1653 H 0.6379 0.41905 0.50702 0.0
C1654 C 0.58019 0.36302 0.51936 0.0
C1655 C 0.55103 0.337 0.52644 0.0
C1656 C 0.61406 0.4047 0.5215 0.0
C1657 C 0.55599 0.3535 0.53575 0.0
C1658 C 0.59059 0.39465 0.53802 0.0
C1659 C 0.65558 0.46182 0.53311 0.0
C1660 C 0.68387 0.48775 0.52582 0.0
C1661 C 0.62011 0.42056 0.53095 0.0
C1662 C 0.67628 0.4717 0.51642 0.0
C1663 C 0.64214 0.43063 0.51431 0.0
H1664 H 0.58709 0.22297 0.54073 0.0
H1665 H 0.54104 0.16986 0.51264 0.0
H1666 H 0.60842 0.1719 0.50929 0.0
H1667 H 0.68277 0.19416 0.51364 0.0
H1668 H 0.72997 0.24553 0.54162 0.0
H1669 H 0.66013 0.23818 0.54575 0.0
C1670 C 0.59151 0.21112 0.53395 0.0
C1671 C 0.55873 0.19642 0.52697 0.0
C1672 C 0.63075 0.2121 0.53202 0.0
C1673 C 0.56534 0.18137 0.5182 0.0
C1674 C 0.60408 0.1826 0.51622 0.0
C1675 C 0.67739 0.20285 0.52072 0.0
C1676 C 0.71128 0.21987 0.52736 0.0
C1677 C 0.63726 0.19863 0.52299 0.0
C1678 C 0.70414 0.23139 0.53647 0.0
C1679 C 0.66426 0.22766 0.53878 0.0
H1680 H 0.84504 0.51962 0.70629 0.0
H1681 H 0.83044 0.4555 0.67943 0.0
H1682 H 0.76644 0.46125 0.67578 0.0
H1683 H 0.71041 0.4784 0.68108 0.0
H1684 H 0.72709 0.5433 0.70809 0.0
H1685 H 0.79416 0.54351 0.71077 0.0
C1686 C 0.82851 0.50808 0.69951 0.0
C1687 C 0.84288 0.48805 0.69304 0.0
C1688 C 0.79158 0.5111 0.69755 0.0
C1689 C 0.82076 0.47228 0.68438 0.0
C1690 C 0.78377 0.47503 0.68237 0.0
C1691 C 0.72909 0.4933 0.68747 0.0
C1692 C 0.71324 0.51067 0.69437 0.0
C1693 C 0.76825 0.49353 0.68901 0.0
C1694 C 0.73807 0.52963 0.70262 0.0
C1695 C 0.77661 0.52974 0.7042 0.0
H1696 H 0.50926 0.21767 0.68732 0.0
H1697 H 0.61959 0.24111 0.70417 0.0
H1698 H 0.63793 0.31591 0.70672 0.0
H1699 H 0.62254 0.37465 0.70438 0.0
H1700 H 0.51262 0.35339 0.68765 0.0
H1701 H 0.49394 0.27807 0.68487 0.0
C1702 C 0.53682 0.23914 0.69167 0.0
C1703 C 0.56242 0.22367 0.69578 0.0
C1704 C 0.54731 0.28255 0.69309 0.0
C1705 C 0.59877 0.25197 0.70117 0.0
C1706 C 0.60948 0.29487 0.70256 0.0
C1707 C 0.59454 0.35358 0.70009 0.0
C1708 C 0.56901 0.36959 0.69623 0.0
C1709 C 0.58398 0.31049 0.69859 0.0
C1710 C 0.53298 0.34195 0.69065 0.0
C1711 C 0.52218 0.29881 0.68911 0.0
H1712 H 0.83058 0.3151 0.70427 0.0
H1713 H 0.80805 0.35385 0.67671 0.0
H1714 H 0.737 0.28906 0.67594 0.0
H1715 H 0.67818 0.22382 0.68377 0.0
H1716 H 0.70127 0.18699 0.71146 0.0
H1717 H 0.77489 0.24774 0.71143 0.0
C1718 C 0.81044 0.30914 0.69803 0.0
C1719 C 0.82485 0.33944 0.69057 0.0
C1720 C 0.76942 0.27186 0.69764 0.0
C1721 C 0.79804 0.33107 0.68255 0.0
C1722 C 0.75721 0.29399 0.68211 0.0
C1723 C 0.69986 0.22857 0.68964 0.0
C1724 C 0.68455 0.20089 0.69757 0.0
C1725 C 0.74218 0.26439 0.68968 0.0
C1726 C 0.71251 0.20785 0.70526 0.0
C1727 C 0.75455 0.24273 0.70527 0.0
H1728 H 0.56558 0.225 0.20948 0.0
H1729 H 0.56399 0.19948 0.17943 0.0
H1730 H 0.5552 0.26184 0.17581 0.0
H1731 H 0.55128 0.32614 0.18136 0.0
H1732 H 0.54624 0.34595 0.2116 0.0
H1733 H 0.55364 0.28314 0.21497 0.0
C1734 C 0.56295 0.23282 0.20212 0.0
C1735 C 0.56634 0.20809 0.19472 0.0
C1736 C 0.5565 0.26774 0.20015 0.0
C1737 C 0.56209 0.21823 0.18525 0.0
C1738 C 0.557 0.25393 0.18319 0.0
C1739 C 0.55118 0.31629 0.18868 0.0
C1740 C 0.54807 0.34085 0.19621 0.0
C1741 C 0.55469 0.27932 0.1906 0.0
C1742 C 0.54803 0.32756 0.20565 0.0
C1743 C 0.55258 0.29173 0.2076 0.0
H1744 H 0.80483 0.3613 0.2069 0.0
H1745 H 0.87307 0.36527 0.18126 0.0
H1746 H 0.81421 0.29249 0.17693 0.0
H1747 H 0.74186 0.22768 0.18061 0.0
H1748 H 0.67977 0.22564 0.20712 0.0
H1749 H 0.73745 0.29808 0.21088 0.0
C1750 C 0.80717 0.3464 0.20035 0.0
C1751 C 0.84321 0.3687 0.19439 0.0
C1752 C 0.77405 0.30488 0.19807 0.0
C1753 C 0.8456 0.3487 0.18597 0.0
C1754 C 0.81193 0.30718 0.1835 0.0
C1755 C 0.74145 0.2432 0.18722 0.0
C1756 C 0.70682 0.22133 0.19362 0.0
C1757 C 0.7758 0.2849 0.18951 0.0
C1758 C 0.7063 0.24162 0.20215 0.0
C1759 C 0.73921 0.2831 0.2043 0.0
H1760 H 0.83275 0.53459 0.20318 0.0
H1761 H 0.80423 0.4515 0.17867 0.0
H1762 H 0.73157 0.44078 0.1779 0.0
H1763 H 0.67371 0.45073 0.1849 0.0
H1764 H 0.70198 0.53327 0.2094 0.0
H1765 H 0.77688 0.54926 0.20934 0.0
C1766 C 0.81083 0.51465 0.19759 0.0
C1767 C 0.82419 0.49411 0.19098 0.0
C1768 C 0.76884 0.50864 0.19715 0.0
C1769 C 0.79517 0.46819 0.18381 0.0
C1770 C 0.75338 0.46183 0.18337 0.0
C1771 C 0.6967 0.47308 0.19004 0.0
C1772 C 0.68273 0.49121 0.19708 0.0
C1773 C 0.73961 0.48147 0.19007 0.0
C1774 C 0.71235 0.51931 0.20387 0.0
C1775 C 0.75506 0.5282 0.20388 0.0
H1776 H 0.6681 0.21082 0.03926 0.0
H1777 H 0.68363 0.2029 1.00889 0.0
H1778 H 0.62006 0.20865 1.00585 0.0
H1779 H 0.56195 0.21928 1.01155 0.0
H1780 H 0.5408 0.22229 0.04169 0.0
H1781 H 0.60425 0.21492 0.0451 0.0
C1782 C 0.65723 0.20993 0.032 0.0
C1783 C 0.6808 0.2064 1.02433 0.0
C1784 C 0.61972 0.21257 0.03024 0.0
C1785 C 0.66616 0.20521 1.01496 0.0
C1786 C 0.62979 0.20872 1.01318 0.0
C1787 C 0.571 0.218 1.01888 0.0
C1788 C 0.54713 0.22184 1.02636 0.0
C1789 C 0.60665 0.21286 1.02074 0.0
C1790 C 0.55883 0.21952 0.03581 0.0
C1791 C 0.59516 0.21543 0.03775 0.0
H1792 H 0.79487 0.33046 0.03608 0.0
H1793 H 0.87864 0.36047 1.01184 0.0
H1794 H 0.89321 0.43513 1.0119 0.0
H1795 H 0.87652 0.4902 1.01801 0.0
H1796 H 0.79165 0.45853 0.04225 0.0
H1797 H 0.78292 0.38681 0.04298 0.0
C1798 C 0.81741 0.35387 0.03104 0.0
C1799 C 0.83638 0.34057 1.02409 0.0
C1800 C 0.82471 0.39637 0.03098 0.0
C1801 C 0.86441 0.37055 1.01736 0.0
C1802 C 0.87232 0.41303 1.01733 0.0
C1803 C 0.85652 0.46771 1.02349 0.0
C1804 C 0.83502 0.48002 0.03007 0.0
C1805 C 0.85173 0.42608 1.02395 0.0
C1806 C 0.80908 0.45033 0.03714 0.0
C1807 C 0.80389 0.40906 0.03757 0.0
H1808 H 0.57668 0.38016 0.04104 0.0
H1809 H 0.54944 0.3666 1.01081 0.0
H1810 H 0.61849 0.43083 1.00767 0.0
H1811 H 0.68833 0.48796 1.01323 0.0
H1812 H 0.71711 0.50547 0.04328 0.0
H1813 H 0.64555 0.44317 0.04681 0.0
C1814 C 0.58563 0.39169 0.03379 0.0
C1815 C 0.5576 0.36843 1.02618 0.0
C1816 C 0.62565 0.42934 0.032 0.0
C1817 C 0.56988 0.38385 1.01682 0.0
C1818 C 0.60958 0.42058 1.015 0.0
C1819 C 0.67877 0.47858 1.02058 0.0
C1820 C 0.70799 0.50114 0.02799 0.0
C1821 C 0.63788 0.44316 1.0225 0.0
C1822 C 0.69506 0.48879 0.03746 0.0
C1823 C 0.65427 0.45296 0.03945 0.0
H1824 H 0.46362 0.80595 0.87235 0.0
H1825 H 0.53668 0.85586 0.84648 0.0
H1826 H 0.55221 0.79655 0.84614 0.0
H1827 H 0.53937 0.7267 0.85242 0.0
H1828 H 0.46526 0.67648 0.87826 0.0
H1829 H 0.45577 0.73905 0.87936 0.0
C1830 C 0.48379 0.80422 0.8668 0.0
C1831 C 0.49928 0.83511 0.85949 0.0
C1832 C 0.49189 0.7695 0.86655 0.0
C1833 C 0.52468 0.83234 0.85221 0.0
C1834 C 0.53334 0.79834 0.85198 0.0
C1835 C 0.52174 0.72978 0.85836 0.0
C1836 C 0.50328 0.69682 0.86524 0.0
C1837 C 0.51624 0.76609 0.85898 0.0
C1838 C 0.48026 0.70137 0.87288 0.0
C1839 C 0.47459 0.73719 0.87352 0.0
H1840 H 0.23471 0.69379 0.84578 0.0
H1841 H 0.20449 0.67152 0.87569 0.0
H1842 H 0.26767 0.74211 0.87946 0.0
H1843 H 0.3343 0.80895 0.87405 0.0
H1844 H 0.35922 0.8303 0.84382 0.0
H1845 H 0.29526 0.76148 0.84039 0.0
C1846 C 0.24156 0.70438 0.85314 0.0
C1847 C 0.21523 0.67695 0.86046 0.0
C1848 C 0.27718 0.74505 0.85518 0.0
C1849 C 0.22436 0.69165 0.86993 0.0
C1850 C 0.26059 0.73208 0.87207 0.0
C1851 C 0.32533 0.79878 0.86672 0.0
C1852 C 0.35173 0.8252 0.85921 0.0
C1853 C 0.28768 0.75888 0.86474 0.0
C1854 C 0.33954 0.81127 0.84975 0.0
C1855 C 0.30298 0.77164 0.84777 0.0
H1856 H 0.37503 0.57499 0.8719 0.0
H1857 H 0.35864 0.51979 0.84388 0.0
H1858 H 0.28474 0.50689 0.84313 0.0
H1859 H 0.2268 0.51787 0.8499 0.0
H1860 H 0.24548 0.57451 0.87799 0.0
H1861 H 0.31548 0.58034 0.87917 0.0
C1862 C 0.35468 0.55888 0.86578 0.0
C1863 C 0.37178 0.54759 0.85804 0.0
C1864 C 0.31257 0.55258 0.8653 0.0
C1865 C 0.34571 0.52805 0.85 0.0
C1866 C 0.3036 0.52107 0.84953 0.0
C1867 C 0.24588 0.53085 0.85633 0.0
C1868 C 0.2303 0.5457 0.86379 0.0
C1869 C 0.28692 0.53422 0.85705 0.0
C1870 C 0.25601 0.56269 0.87206 0.0
C1871 C 0.29644 0.56614 0.87279 0.0
H1872 H 0.48667 0.80407 0.04263 0.0
H1873 H 0.52179 0.82339 1.01292 0.0
H1874 H 0.4595 0.8325 1.0094 0.0
H1875 H 0.39342 0.83315 1.01492 0.0
H1876 H 0.36462 0.82058 0.04504 0.0
H1877 H 0.4261 0.81111 0.04825 0.0
C1878 C 0.48081 0.81039 0.03537 0.0
C1879 C 0.5083 0.8122 0.02801 0.0
C1880 C 0.44606 0.81705 0.03349 0.0
C1881 C 0.50077 0.82127 1.01869 0.0
C1882 C 0.46518 0.82656 1.01669 0.0
C1883 C 0.40097 0.82877 1.02218 0.0
C1884 C 0.37442 0.82778 0.02973 0.0
C1885 C 0.43734 0.82423 1.02404 0.0
C1886 C 0.38468 0.8221 0.0391 0.0
C1887 C 0.41975 0.81637 0.04095 0.0
H1888 H 0.24949 0.708 1.01993 0.0
H1889 H 0.18239 0.67777 0.04683 0.0
H1890 H 0.17322 0.60559 0.04651 0.0
H1891 H 0.18819 0.55201 0.03921 0.0
H1892 H 0.2551 0.5812 1.01227 0.0
H1893 H 0.26036 0.65183 1.01202 0.0
C1894 C 0.23205 0.68522 1.02559 0.0
C1895 C 0.21653 0.69832 0.03338 0.0
C1896 C 0.22729 0.64341 1.02544 0.0
C1897 C 0.19467 0.66858 0.04074 0.0
C1898 C 0.18952 0.62722 0.0406 0.0
C1899 C 0.20356 0.57362 0.03324 0.0
C1900 C 0.22105 0.56093 1.02579 0.0
C1901 C 0.2064 0.61446 0.03309 0.0
C1902 C 0.24095 0.58968 1.01811 0.0
C1903 C 0.24414 0.63036 1.01795 0.0
H1904 H 0.37286 0.54935 0.04165 0.0
H1905 H 0.33824 0.53772 1.01194 0.0
H1906 H 0.40955 0.5996 1.00816 0.0
H1907 H 0.47988 0.66083 1.01371 0.0
H1908 H 0.51324 0.66842 0.04357 0.0
H1909 H 0.44453 0.60431 0.04684 0.0
C1910 C 0.38116 0.55993 0.03431 0.0
C1911 C 0.35036 0.53924 1.02708 0.0
C1912 C 0.42202 0.59506 0.03224 0.0
C1913 C 0.36154 0.55301 1.01761 0.0
C1914 C 0.40221 0.58859 1.01548 0.0
C1915 C 0.47239 0.64805 1.0209 0.0
C1916 C 0.50202 0.66977 0.02837 0.0
C1917 C 0.43248 0.61047 1.02278 0.0
C1918 C 0.49154 0.65258 0.03764 0.0
C1919 C 0.45201 0.61587 0.03956 0.0
H1920 H 0.21606 0.54756 0.54178 0.0
H1921 H 0.25383 0.54782 0.51264 0.0
H1922 H 0.24523 0.61031 0.50917 0.0
H1923 H 0.23142 0.66791 0.51486 0.0
H1924 H 0.19159 0.66506 0.54407 0.0
H1925 H 0.1961 0.60048 0.54704 0.0
C1926 C 0.22186 0.56105 0.53464 0.0
C1927 C 0.2354 0.54321 0.52745 0.0
C1928 C 0.21658 0.59663 0.53273 0.0
C1929 C 0.24273 0.56066 0.51823 0.0
C1930 C 0.23815 0.59661 0.51629 0.0
C1931 C 0.22313 0.65281 0.52183 0.0
C1932 C 0.21131 0.67158 0.52923 0.0
C1933 C 0.22564 0.61528 0.52353 0.0
C1934 C 0.20076 0.65151 0.53823 0.0
C1935 C 0.20346 0.61454 0.53996 0.0
H1936 H 0.51012 0.66906 0.54226 0.0
H1937 H 0.50689 0.72156 0.51487 0.0
H1938 H 0.44042 0.65458 0.51078 0.0
H1939 H 0.38081 0.58179 0.51551 0.0
H1940 H 0.38658 0.53102 0.5431 0.0
H1941 H 0.45412 0.59632 0.54656 0.0
C1942 C 0.49516 0.66573 0.53534 0.0
C1943 C 0.5135 0.70031 0.52886 0.0
C1944 C 0.45705 0.62728 0.5331 0.0
C1945 C 0.49369 0.69541 0.51994 0.0
C1946 C 0.45548 0.65711 0.51764 0.0
C1947 C 0.39709 0.58481 0.52223 0.0
C1948 C 0.37826 0.55117 0.52902 0.0
C1949 C 0.4365 0.6229 0.52423 0.0
C1950 C 0.39995 0.556 0.53771 0.0
C1951 C 0.43874 0.59352 0.53973 0.0
H1952 H 0.48019 0.8362 0.51503 0.0
H1953 H 0.49901 0.8276 0.54524 0.0
H1954 H 0.42961 0.82125 0.54857 0.0
H1955 H 0.3625 0.81488 0.54311 0.0
H1956 H 0.34181 0.82629 0.51322 0.0
H1957 H 0.4132 0.83533 0.50956 0.0
C1958 C 0.46926 0.83346 0.52234 0.0
C1959 C 0.49513 0.83262 0.52987 0.0
C1960 C 0.429 0.83025 0.52427 0.0
C1961 C 0.48034 0.82896 0.5393 0.0
C1962 C 0.4404 0.82504 0.54123 0.0
C1963 C 0.3736 0.81967 0.53577 0.0
C1964 C 0.34679 0.81959 0.52843 0.0
C1965 C 0.41439 0.82524 0.53379 0.0
C1966 C 0.36191 0.82627 0.51899 0.0
C1967 C 0.40262 0.83125 0.51692 0.0
H1968 H 0.22737 0.54306 0.3456 0.0
H1969 H 0.21004 0.56042 0.37533 0.0
H1970 H 0.27263 0.55267 0.37943 0.0
H1971 H 0.33506 0.54469 0.37425 0.0
H1972 H 0.34678 0.52197 0.34442 0.0
H1973 H 0.28363 0.52772 0.34071 0.0
C1974 C 0.23701 0.54474 0.353 0.0
C1975 C 0.21451 0.55286 0.36015 0.0
C1976 C 0.27216 0.53927 0.35528 0.0
C1977 C 0.22697 0.55436 0.36971 0.0
C1978 C 0.26284 0.55004 0.37203 0.0
C1979 C 0.32338 0.54042 0.36697 0.0
C1980 C 0.34581 0.53277 0.35965 0.0
C1981 C 0.28614 0.54305 0.36485 0.0
C1982 C 0.33015 0.52738 0.35024 0.0
C1983 C 0.29406 0.53092 0.34807 0.0
H1984 H 0.52176 0.69639 0.3467 0.0
H1985 H 0.45355 0.64525 0.37302 0.0
H1986 H 0.45938 0.71475 0.3768 0.0
H1987 H 0.47934 0.78913 0.3719 0.0
H1988 H 0.54776 0.83932 0.34539 0.0
H1989 H 0.54647 0.77175 0.34243 0.0
C1990 C 0.50889 0.70082 0.35334 0.0
C1991 C 0.48814 0.66604 0.35969 0.0
C1992 C 0.51206 0.74083 0.35538 0.0
C1993 C 0.47108 0.67189 0.3682 0.0
C1994 C 0.47387 0.71157 0.37028 0.0
C1995 C 0.49456 0.78553 0.36556 0.0
C1996 C 0.5135 0.81951 0.35889 0.0
C1997 C 0.49378 0.74621 0.36385 0.0
C1998 C 0.53282 0.81395 0.35067 0.0
C1999 C 0.53208 0.77516 0.34894 0.0
H2000 H 0.24883 0.71438 0.37265 0.0
H2001 H 0.21799 0.69892 0.34257 0.0
H2002 H 0.28627 0.76298 0.33901 0.0
H2003 H 0.3567 0.82061 0.34411 0.0
H2004 H 0.3882 0.84114 0.374 0.0
H2005 H 0.31791 0.77826 0.37797 0.0
C2006 C 0.25687 0.72538 0.36534 0.0
C2007 C 0.2281 0.70154 0.3579 0.0
C2008 C 0.29647 0.76305 0.36329 0.0
C2009 C 0.23913 0.71644 0.34847 0.0
C2010 C 0.27839 0.75311 0.34639 0.0
C2011 C 0.34798 0.81165 0.35151 0.0
C2012 C 0.3777 0.83508 0.35875 0.0
C2013 C 0.30751 0.77622 0.3537 0.0
C2014 C 0.36587 0.82351 0.36831 0.0
C2015 C 0.32572 0.78744 0.37056 0.0
H2016 H 0.28944 0.36633 0.18283 0.0
H2017 H 0.28603 0.31662 0.21101 0.0
H2018 H 0.36488 0.35115 0.21105 0.0
H2019 H 0.43623 0.39333 0.20252 0.0
H2020 H 0.436 0.44188 0.17435 0.0
H2021 H 0.35848 0.41078 0.17497 0.0
C2022 C 0.30577 0.36321 0.18904 0.0
C2023 C 0.28126 0.33868 0.19689 0.0
C2024 C 0.35124 0.38327 0.18903 0.0
C2025 C 0.30364 0.33537 0.20484 0.0
C2026 C 0.34901 0.35512 0.20487 0.0
C2027 C 0.41923 0.39772 0.19662 0.0
C2028 C 0.44245 0.42014 0.18837 0.0
C2029 C 0.37343 0.379 0.19695 0.0
C2030 C 0.4194 0.42484 0.18077 0.0
C2031 C 0.37475 0.40689 0.18109 0.0
H2032 H 0.65965 0.0582 0.20108 0.0
H2033 H 0.60588 1.00147 0.17371 0.0
H2034 H 0.63687 0.95495 0.17486 0.0
H2035 H 0.68228 0.93197 0.183 0.0
H2036 H 0.73767 0.98697 0.21033 0.0
H2037 H 0.70349 0.03161 0.20983 0.0
C2038 C 0.65418 0.03514 0.19547 0.0
C2039 C 0.63019 0.03359 0.1873 0.0
C2040 C 0.67287 1.00806 0.1961 0.0
C2041 C 0.6241 1.00371 0.18007 0.0
C2042 C 0.64197 0.97692 0.18069 0.0
C2043 C 0.68668 0.95338 0.18891 0.0
C2044 C 0.71269 0.95571 0.19668 0.0
C2045 C 0.66694 0.97914 0.18858 0.0
C2046 C 0.71781 0.98406 0.20423 0.0
C2047 C 0.69824 1.00984 0.20395 0.0
H2048 H 0.06051 0.75451 0.20478 0.0
H2049 H 0.15053 0.77876 0.18195 0.0
H2050 H 0.11807 0.70162 0.17905 0.0
H2051 H 0.06266 0.62684 0.18244 0.0
H2052 H 0.96954 0.60062 0.2046 0.0
H2053 H 1.00441 0.67797 0.20833 0.0
C2054 C 0.07339 0.74281 0.19928 0.0
C2055 C 0.10833 0.77281 0.19364 0.0
C2056 C 0.05376 0.69772 0.19748 0.0
C2057 C 0.12386 0.75678 0.18642 0.0
C2058 C 0.10523 0.71247 0.18473 0.0
C2059 C 0.05015 0.63795 0.18814 0.0
C2060 C 1.01362 0.60771 0.19325 0.0
C2061 C 0.06994 0.6826 0.19013 0.0
C2062 C 0.99772 0.623 0.20056 0.0
C2063 C 1.01766 0.66738 0.20269 0.0
H2064 H 0.37744 0.27732 0.37264 0.0
H2065 H 0.32117 0.27219 0.34514 0.0
H2066 H 0.3549 0.35092 0.345 0.0
H2067 H 0.39826 0.42267 0.35322 0.0
H2068 H 0.4536 0.42489 0.38072 0.0
H2069 H 0.4232 0.34728 0.38022 0.0
C2070 C 0.3728 0.2933 0.36656 0.0
C2071 C 0.34662 0.26832 0.35894 0.0
C2072 C 0.39241 0.33883 0.3665 0.0
C2073 C 0.34117 0.29018 0.35114 0.0
C2074 C 0.36048 0.33549 0.35105 0.0
C2075 C 0.4043 0.40619 0.35899 0.0
C2076 C 0.42842 0.43005 0.36701 0.0
C2077 C 0.38602 0.36043 0.35874 0.0
C2078 C 0.43523 0.40772 0.37446 0.0
C2079 C 0.41769 0.36303 0.37422 0.0
H2080 H 0.6355 0.04434 0.37455 0.0
H2081 H 0.61038 0.96869 0.34894 0.0
H2082 H 0.68791 1.00455 0.34561 0.0
H2083 H 0.76348 0.05678 0.35018 0.0
H2084 H 0.78786 0.13041 0.37615 0.0
H2085 H 0.71051 0.09609 0.3791 0.0
C2086 C 0.64694 0.03589 0.3682 0.0
C2087 C 0.61696 1.00395 0.36198 0.0
C2088 C 0.69172 0.05629 0.3664 0.0
C2089 C 0.63258 0.99321 0.35383 0.0
C2090 C 0.67702 1.01371 0.35194 0.0
C2091 C 0.75194 0.06558 0.35647 0.0
C2092 C 0.78193 0.09654 0.36291 0.0
C2093 C 0.70701 0.04524 0.35819 0.0
C2094 C 0.76595 0.10694 0.37105 0.0
C2095 C 0.72153 0.08725 0.37275 0.0
H2096 H 0.98756 0.71266 0.3502 0.0
H2097 H 0.91861 0.66794 0.3768 0.0
H2098 H 0.9535 0.62549 0.37984 0.0
H2099 H 1.00459 0.6016 0.37525 0.0
H2100 H 0.0761 0.64761 0.34905 0.0
H2101 H 0.03935 0.68847 0.34556 0.0
C2102 C 0.97985 0.69335 0.35663 0.0
C2103 C 0.95001 0.69356 0.36323 0.0
C2104 C 1.00066 0.66911 0.35843 0.0
C2105 C 0.94116 0.66861 0.37156 0.0
C2106 C 0.9612 0.64419 0.37332 0.0
C2107 C 1.01197 0.62031 0.36873 0.0
C2108 C 0.04302 0.62119 0.3624 0.0
C2109 C 0.99111 0.64425 0.36685 0.0
C2110 C 0.05229 0.64607 0.35404 0.0
C2111 C 0.03128 0.66957 0.35205 0.0
H2112 H 0.61937 0.65397 0.85428 0.0
H2113 H 0.61474 0.56883 0.87663 0.0
H2114 H 0.69298 0.60334 0.87656 0.0
H2115 H 0.76379 0.6582 0.87039 0.0
H2116 H 0.7696 0.74173 0.84755 0.0
H2117 H 0.6911 0.70764 0.84757 0.0
C2118 C 0.63552 0.64291 0.8591 0.0
C2119 C 0.61074 0.60872 0.86548 0.0
C2120 C 0.68124 0.66272 0.85896 0.0
C2121 C 0.63256 0.59491 0.87163 0.0
C2122 C 0.67757 0.61474 0.87162 0.0
C2123 C 0.74797 0.6689 0.86538 0.0
C2124 C 0.77312 0.70265 0.85898 0.0
C2125 C 0.7024 0.64874 0.86535 0.0
C2126 C 0.75152 0.71576 0.85255 0.0
C2127 C 0.70635 0.69629 0.85257 0.0
H2128 H 0.37867 0.10794 0.872 0.0
H2129 H 0.33409 0.06175 0.84351 0.0
H2130 H 0.37042 1.01907 0.84395 0.0
H2131 H 0.41233 0.99105 0.85299 0.0
H2132 H 0.45594 0.03964 0.88143 0.0
H2133 H 0.42329 0.08473 0.88037 0.0
C2134 C 0.37716 0.08894 0.86582 0.0
C2135 C 0.35352 0.0884 0.85774 0.0
C2136 C 0.39823 0.06447 0.86611 0.0
C2137 C 0.35217 0.06327 0.84984 0.0
C2138 C 0.37291 0.03858 0.8501 0.0
C2139 C 0.41541 1.01221 0.85884 0.0
C2140 C 0.43687 1.01178 0.86729 0.0
C2141 C 0.39585 0.03848 0.85825 0.0
C2142 C 0.43975 0.03905 0.87485 0.0
C2143 C 0.42089 0.06495 0.87428 0.0
H2144 H 0.98452 0.29094 0.84992 0.0
H2145 H 0.93933 0.26111 0.879 0.0
H2146 H 0.9774 0.33749 0.88294 0.0
H2147 H 1.02447 0.41285 0.87849 0.0
H2148 H 0.07027 0.44596 0.84963 0.0
H2149 H 0.03105 0.36882 0.84525 0.0
C2150 C 0.98272 0.30115 0.8571 0.0
C2151 C 0.95862 0.26962 0.86413 0.0
C2152 C 1.00492 0.34595 0.85938 0.0
C2153 C 0.95714 0.28398 0.8734 0.0
C2154 C 0.9791 0.32793 0.87569 0.0
C2155 C 1.02581 0.40335 0.87121 0.0
C2156 C 0.05032 0.43537 0.86441 0.0
C2157 C 1.00319 0.35915 0.86878 0.0
C2158 C 0.0515 0.42221 0.85501 0.0
C2159 C 1.02914 0.37797 0.85252 0.0
H2160 H 0.65824 0.61236 0.70301 0.0
H2161 H 0.60025 0.6137 0.67611 0.0
H2162 H 0.63245 0.69155 0.67699 0.0
H2163 H 0.6802 0.76083 0.68478 0.0
H2164 H 0.7394 0.76205 0.71165 0.0
H2165 H 0.70422 0.68324 0.71137 0.0
C2166 C 0.65208 0.62966 0.69745 0.0
C2167 C 0.6265 0.60664 0.6895 0.0
C2168 C 0.67146 0.67556 0.69791 0.0
C2169 C 0.61965 0.63012 0.68232 0.0
C2170 C 0.63822 0.67498 0.68278 0.0
C2171 C 0.68518 0.74397 0.69063 0.0
C2172 C 0.7126 0.76796 0.69822 0.0
C2173 C 0.66473 0.69828 0.69045 0.0
C2174 C 0.71849 0.74492 0.70569 0.0
C2175 C 0.69831 0.69952 0.70555 0.0
H2176 H 0.44037 0.05159 0.70238 0.0
H2177 H 0.43559 1.00883 0.67338 0.0
H2178 H 0.35827 0.96174 0.67449 0.0
H2179 H 0.2907 0.93451 0.68314 0.0
H2180 H 0.29162 0.97609 0.71204 0.0
H2181 H 0.37041 0.0209 0.71152 0.0
C2182 C 0.4224 0.03148 0.69638 0.0
C2183 C 0.4443 0.03403 0.68778 0.0
C2184 C 0.37672 1.00411 0.697 0.0
C2185 C 0.42005 1.0079 0.68007 0.0
C2186 C 0.3755 0.98077 0.68068 0.0
C2187 C 0.30794 0.95288 0.6894 0.0
C2188 C 0.28465 0.95132 0.69763 0.0
C2189 C 0.35332 0.97892 0.68903 0.0
C2190 C 0.30825 0.97603 0.7056 0.0
C2191 C 0.35358 1.00197 0.7053 0.0
H2192 H 0.06033 0.44661 0.68222 0.0
H2193 H 0.96734 0.38027 0.70444 0.0
H2194 H 1.00117 0.33661 0.70797 0.0
H2195 H 0.0567 0.31556 0.70431 0.0
H2196 H 0.14716 0.38174 0.68153 0.0
H2197 H 0.115 0.42655 0.67871 0.0
C2198 C 0.04757 0.42282 0.68788 0.0
C2199 C 1.01137 0.417 0.69307 0.0
C2200 C 0.06682 0.39742 0.68977 0.0
C2201 C 0.99523 0.38565 0.70034 0.0
C2202 C 1.01458 0.36057 0.70235 0.0
C2203 C 0.06965 0.3401 0.6988 0.0
C2204 C 0.10467 0.34503 0.69317 0.0
C2205 C 0.05039 0.36592 0.69707 0.0
C2206 C 0.12037 0.37679 0.68598 0.0
C2207 C 0.10195 0.40266 0.68434 0.0
H2208 H 0.96182 0.65424 0.53994 0.0
H2209 H 0.93572 0.72505 0.51855 0.0
H2210 H 1.0119 0.76728 0.51481 0.0
H2211 H 0.08657 0.78311 0.51689 0.0
H2212 H 0.11499 0.71436 0.53825 0.0
H2213 H 0.03859 0.67325 0.54266 0.0
C2214 C 0.97287 0.67945 0.5346 0.0
C2215 C 0.94229 0.68613 0.52959 0.0
C2216 C 1.01765 0.70412 0.53236 0.0
C2217 C 0.95782 0.71873 0.52257 0.0
C2218 C 1.00172 0.7431 0.52037 0.0
C2219 C 0.07614 0.75937 0.52256 0.0
C2220 C 0.1068 0.75194 0.52717 0.0
C2221 C 0.03197 0.73584 0.5251 0.0
C2222 C 0.09236 0.72091 0.53453 0.0
C2223 C 0.04845 0.69726 0.53707 0.0
H2224 H 0.349 0.27672 0.53969 0.0
H2225 H 0.41584 0.30927 0.51271 0.0
H2226 H 0.38792 0.35713 0.50899 0.0
H2227 H 0.34426 0.38952 0.51306 0.0
H2228 H 0.27122 0.35434 0.53916 0.0
H2229 H 0.3014 0.30809 0.54354 0.0
C2230 C 0.35732 0.29433 0.53301 0.0
C2231 C 0.38443 0.28909 0.52647 0.0
C2232 C 0.33994 0.3214 0.53074 0.0
C2233 C 0.39474 0.31214 0.51783 0.0
C2234 C 0.37887 0.33974 0.51569 0.0
C2235 C 0.33482 0.37179 0.51972 0.0
C2236 C 0.30571 0.37583 0.52579 0.0
C2237 C 0.35134 0.34449 0.52204 0.0
C2238 C 0.2937 0.35214 0.53436 0.0
C2239 C 0.311 0.32561 0.53686 0.0
H2240 H 0.7084 0.96315 0.51127 0.0
H2241 H 0.6537 0.9307 0.53942 0.0
H2242 H 0.69435 1.00773 0.54398 0.0
H2243 H 0.74363 0.08609 0.53941 0.0
H2244 H 0.79799 0.11326 0.511 0.0
H2245 H 0.7595 0.03737 0.5072 0.0
C2246 C 0.70558 0.97274 0.51845 0.0
C2247 C 0.67802 0.94106 0.52497 0.0
C2248 C 0.72902 1.01671 0.52098 0.0
C2249 C 0.67496 0.95425 0.53426 0.0
C2250 C 0.69807 0.99846 0.53684 0.0
C2251 C 0.74747 0.07534 0.53244 0.0
C2252 C 0.77401 0.10634 0.52553 0.0
C2253 C 0.72502 0.03032 0.5302 0.0
C2254 C 0.77808 0.09111 0.51653 0.0
C2255 C 0.7559 0.04729 0.51429 0.0
H2256 H 0.0981 0.74375 0.71164 0.0
H2257 H 0.08846 0.77936 0.68282 0.0
H2258 H 0.05007 0.70264 0.67814 0.0
H2259 H 1.01654 0.62402 0.68261 0.0
H2260 H 1.02858 0.59225 0.71178 0.0
H2261 H 0.06807 0.66814 0.71588 0.0
C2262 C 0.08795 0.7349 0.7043 0.0
C2263 C 0.09665 0.76757 0.69759 0.0
C2264 C 0.06582 0.6909 0.70172 0.0
C2265 C 0.08297 0.75519 0.68812 0.0
C2266 C 0.06065 0.71113 0.68547 0.0
C2267 C 1.02814 0.63372 0.68983 0.0
C2268 C 1.01922 0.60163 0.69684 0.0
C2269 C 0.05155 0.67844 0.69224 0.0
C2270 C 0.0346 0.61542 0.70617 0.0
C2271 C 0.05735 0.65916 0.70857 0.0
H2272 H 0.30313 0.3586 0.71204 0.0
H2273 H 0.2696 0.30821 0.68351 0.0
H2274 H 0.34618 0.34779 0.67895 0.0
H2275 H 0.42442 0.39582 0.6834 0.0
H2276 H 0.45414 0.44496 0.71226 0.0
H2277 H 0.37844 0.40698 0.71624 0.0
C2278 C 0.31245 0.35638 0.70479 0.0
C2279 C 0.28031 0.33073 0.69812 0.0
C2280 C 0.35652 0.37908 0.70225 0.0
C2281 C 0.29331 0.3283 0.68877 0.0
C2282 C 0.33735 0.35076 0.68618 0.0
C2283 C 0.41433 0.39856 0.69053 0.0
C2284 C 0.44596 0.42372 0.69747 0.0
C2285 C 0.36955 0.37628 0.69289 0.0
C2286 C 0.43149 0.42624 0.70668 0.0
C2287 C 0.38777 0.40433 0.70903 0.0
H2288 H 0.73049 0.97877 0.68688 0.0
H2289 H 0.6665 0.91246 0.71275 0.0
H2290 H 0.62406 0.94835 0.71274 0.0
H2291 H 0.6046 0.99938 0.70564 0.0
H2292 H 0.66469 0.06307 0.67928 0.0
H2293 H 0.70809 0.0278 0.67925 0.0
C2294 C 0.70709 0.972 0.69248 0.0
C2295 C 0.70215 0.94273 0.69983 0.0
C2296 C 0.68166 0.99248 0.69237 0.0
C2297 C 0.67136 0.93458 0.70698 0.0
C2298 C 0.64689 0.95526 0.70701 0.0
C2299 C 0.62702 1.00546 0.69985 0.0
C2300 C 0.63092 0.03404 0.69248 0.0
C2301 C 0.6517 0.98439 0.69978 0.0
C2302 C 0.66037 0.04113 0.68505 0.0
C2303 C 0.68553 0.02098 0.68503 0.0
H2304 H 0.30743 0.9575 0.21034 0.0
H2305 H 0.27103 0.97216 0.18193 0.0
H2306 H 0.34729 1.00873 0.17699 0.0
H2307 H 0.42604 0.03924 0.18114 0.0
H2308 H 0.45755 1.02008 0.20987 0.0
H2309 H 0.38246 0.9833 0.21416 0.0
C2310 C 0.31602 0.96842 0.20303 0.0
C2311 C 0.28342 0.96195 0.19654 0.0
C2312 C 0.35965 0.9891 0.20027 0.0
C2313 C 0.29535 0.97635 0.18709 0.0
C2314 C 0.33911 0.99749 0.18428 0.0
C2315 C 0.41643 0.02661 0.1883 0.0
C2316 C 0.44846 0.03307 0.19512 0.0
C2317 C 0.37188 1.00441 0.19085 0.0
C2318 C 0.43465 1.01628 0.20438 0.0
C2319 C 0.39125 0.99497 0.20691 0.0
H2320 H 1.01823 0.40696 0.18298 0.0
H2321 H 1.02801 0.44661 0.21244 0.0
H2322 H 0.06498 0.40744 0.21639 0.0
H2323 H 0.09295 0.36033 0.2119 0.0
H2324 H 0.08613 0.31996 0.18271 0.0
H2325 H 0.05024 0.36102 0.17824 0.0
C2326 C 1.02884 0.4074 0.19024 0.0
C2327 C 1.02011 0.43018 0.19738 0.0
C2328 C 0.0507 0.38453 0.19254 0.0
C2329 C 0.0341 0.42987 0.20675 0.0
C2330 C 0.05532 0.40725 0.20905 0.0
C2331 C 0.08394 0.36068 0.20453 0.0
C2332 C 0.09233 0.33707 0.19766 0.0
C2333 C 0.06354 0.3843 0.20206 0.0
C2334 C 0.08037 0.33802 0.18814 0.0
C2335 C 0.05964 0.3614 0.18561 0.0
H2336 H 0.62363 0.61447 0.2075 0.0
H2337 H 0.64006 0.61009 0.17712 0.0
H2338 H 0.68185 0.68893 0.17657 0.0
H2339 H 0.71461 0.76075 0.18481 0.0
H2340 H 0.69502 0.76317 0.21511 0.0
H2341 H 0.65481 0.68475 0.21555 0.0
C2342 C 0.63605 0.63059 0.20073 0.0
C2343 C 0.62817 0.60569 0.19237 0.0
C2344 C 0.66016 0.6763 0.20043 0.0
C2345 C 0.64516 0.62786 0.18371 0.0
C2346 C 0.66934 0.67326 0.18338 0.0
C2347 C 0.70152 0.74404 0.19149 0.0
C2348 C 0.70792 0.76837 0.19991 0.0
C2349 C 0.67724 0.69806 0.1917 0.0
C2350 C 0.6905 0.7458 0.20849 0.0
C2351 C 0.66737 0.70064 0.20877 0.0
H2352 H 0.32643 0.94671 0.03527 0.0
H2353 H 0.27191 0.94512 1.00773 0.0
H2354 H 0.3018 0.0228 1.0084 0.0
H2355 H 0.34682 0.09276 1.01619 0.0
H2356 H 0.40297 0.0969 0.04366 0.0
H2357 H 0.36975 1.01824 0.04359 0.0
C2358 C 0.32051 0.96333 0.02952 0.0
C2359 C 0.29661 0.93957 1.02145 0.0
C2360 C 0.33869 1.00913 0.02985 0.0
C2361 C 0.29004 0.96217 1.01402 0.0
C2362 C 0.30731 1.0069 1.01437 0.0
C2363 C 0.35157 0.07658 1.02222 0.0
C2364 C 0.37754 0.10138 0.02991 0.0
C2365 C 0.33229 0.03097 1.02215 0.0
C2366 C 0.38314 0.07917 0.03761 0.0
C2367 C 0.36409 0.03385 0.03759 0.0
H2368 H 0.09049 0.31958 1.01608 0.0
H2369 H 0.11345 0.41787 0.03679 0.0
H2370 H 0.03574 0.38277 0.04004 0.0
H2371 H 0.95992 0.32446 0.03656 0.0
H2372 H 0.93907 0.22824 1.01538 0.0
H2373 H 1.01648 0.26173 1.01286 0.0
C2374 C 0.07861 0.33324 1.02136 0.0
C2375 C 0.10808 0.37139 1.02618 0.0
C2376 C 0.03379 0.31301 1.02314 0.0
C2377 C 0.09175 0.38851 0.03298 0.0
C2378 C 0.04715 0.36841 0.03483 0.0
C2379 C 0.97237 0.31052 0.03149 0.0
C2380 C 0.94319 0.27345 1.0262 0.0
C2381 C 1.01763 0.33062 0.02992 0.0
C2382 C 0.9603 0.25654 1.01956 0.0
C2383 C 1.00479 0.27577 1.01809 0.0
H2384 H 0.78267 0.69616 1.01461 0.0
H2385 H 0.74228 0.65555 0.04356 0.0
H2386 H 0.69916 0.69101 0.0434 0.0
H2387 H 0.66952 0.73189 0.03469 0.0
H2388 H 0.71196 0.77235 1.00581 0.0
H2389 H 0.75699 0.73958 1.00639 0.0
C2390 C 0.76477 0.69531 1.02092 0.0
C2391 C 0.76614 0.673 0.02905 0.0
C2392 C 0.73991 0.7161 1.02083 0.0
C2393 C 0.74233 0.67246 0.03715 0.0
C2394 C 0.71737 0.6928 0.03708 0.0
C2395 C 0.68922 0.73416 0.02861 0.0
C2396 C 0.68709 0.75483 1.02021 0.0
C2397 C 0.71553 0.71463 0.02893 0.0
C2398 C 0.71262 0.75674 1.01237 0.0
C2399 C 0.73853 0.73781 1.01266 0.0
H2400 H 0.77165 0.06055 0.87016 0.0
H2401 H 0.77307 0.12163 0.84352 0.0
H2402 H 0.69483 0.08684 0.84374 0.0
H2403 H 0.62506 0.03893 0.85132 0.0
H2404 H 0.62194 0.97985 0.87834 0.0
H2405 H 0.70058 1.01397 0.87818 0.0
C2406 C 0.75478 0.06626 0.86442 0.0
C2407 C 0.77873 0.09388 0.85681 0.0
C2408 C 0.70902 0.04659 0.86467 0.0
C2409 C 0.75598 0.10086 0.84949 0.0
C2410 C 0.71094 0.08086 0.84959 0.0
C2411 C 0.64143 0.03367 0.85723 0.0
C2412 C 0.61696 1.00673 0.86485 0.0
C2413 C 0.687 0.05374 0.85714 0.0
C2414 C 0.63942 1.00052 0.87239 0.0
C2415 C 0.68467 1.01996 0.87229 0.0
H2416 H 0.93782 0.66908 0.86913 0.0
H2417 H 0.98804 0.72861 0.84188 0.0
H2418 H 0.03285 0.69483 0.84112 0.0
H2419 H 0.05693 0.64638 0.84797 0.0
H2420 H 1.00732 0.58737 0.87532 0.0
H2421 H 0.96322 0.62176 0.87617 0.0
C2422 C 0.95872 0.67473 0.86306 0.0
C2423 C 0.95923 0.70118 0.85553 0.0
C2424 C 0.9843 0.65459 0.8626 0.0
C2425 C 0.98664 0.70813 0.84772 0.0
C2426 C 1.01231 0.68871 0.84727 0.0
C2427 C 0.03614 0.64069 0.85407 0.0
C2428 C 0.03532 0.61373 0.86152 0.0
C2429 C 1.01108 0.66134 0.8546 0.0
C2430 C 1.00871 0.60771 0.86945 0.0
C2431 C 0.98341 0.62754 0.86996 0.0
H2432 H 0.33481 0.29248 0.84409 0.0
H2433 H 0.35558 0.25821 0.87224 0.0
H2434 H 0.39995 0.33497 0.87636 0.0
H2435 H 0.4324 0.41298 0.87186 0.0
H2436 H 0.41664 0.44467 0.84299 0.0
H2437 H 0.37145 0.36831 0.83925 0.0
C2438 C 0.3491 0.30167 0.85114 0.0
C2439 C 0.34096 0.26934 0.85791 0.0
C2440 C 0.37588 0.34579 0.8533 0.0
C2441 C 0.36054 0.28212 0.86693 0.0
C2442 C 0.38612 0.32619 0.86927 0.0
C2443 C 0.41934 0.40306 0.86474 0.0
C2444 C 0.4282 0.43484 0.85771 0.0
C2445 C 0.39392 0.35848 0.86252 0.0
C2446 C 0.41097 0.42124 0.84851 0.0
C2447 C 0.38481 0.37742 0.84637 0.0
H2448 H 0.66113 0.95213 1.01497 0.0
H2449 H 0.7298 0.92806 0.03725 0.0
H2450 H 0.77247 1.00483 0.04052 0.0
H2451 H 0.78926 0.07936 0.03771 0.0
H2452 H 0.72193 0.10563 1.01561 0.0
H2453 H 0.68058 0.02854 1.01164 0.0
C2454 C 0.6859 0.96374 1.02042 0.0
C2455 C 0.69196 0.93373 1.02581 0.0
C2456 C 0.71068 1.00874 1.02239 0.0
C2457 C 0.72401 0.94984 0.03295 0.0
C2458 C 0.74862 0.99403 0.03487 0.0
C2459 C 0.76577 0.06829 0.03198 0.0
C2460 C 0.75877 0.09844 1.02701 0.0
C2461 C 0.74201 0.02381 0.02974 0.0
C2462 C 0.72807 0.08329 1.01959 0.0
C2463 C 0.70431 0.03905 1.01731 0.0
H2464 H 0.97008 0.7198 0.03955 0.0
H2465 H 0.94292 0.624 1.0179 0.0
H2466 H 1.02015 0.65805 1.0142 0.0
H2467 H 0.09693 0.71462 1.01758 0.0
H2468 H 0.12137 0.80902 0.03953 0.0
H2469 H 0.04473 0.77625 0.04255 0.0
C2470 C 0.98094 0.70647 0.03397 0.0
C2471 C 0.95044 0.66929 0.02903 0.0
C2472 C 1.02548 0.72611 0.03192 0.0
C2473 C 0.96546 0.65257 1.02184 0.0
C2474 C 1.0098 0.67208 1.01972 0.0
C2475 C 0.08546 0.72835 1.02293 0.0
C2476 C 0.11568 0.76462 0.02829 0.0
C2477 C 0.04039 0.70886 1.02476 0.0
C2478 C 0.0996 0.78127 0.03527 0.0
C2479 C 0.05542 0.76248 0.03704 0.0
H2480 H 0.29189 0.35924 0.04136 0.0
H2481 H 0.29586 0.36721 1.01065 0.0
H2482 H 0.33661 0.3294 1.01001 0.0
H2483 H 0.3721 0.29331 1.01818 0.0
H2484 H 0.36567 0.28361 0.04885 0.0
H2485 H 0.32625 0.32272 0.04945 0.0
C2486 C 0.30133 0.35245 0.03452 0.0
C2487 C 0.29032 0.36625 1.02609 0.0
C2488 C 0.32504 0.33037 0.03417 0.0
C2489 C 0.30354 0.35723 1.01731 0.0
C2490 C 0.32711 0.33552 1.01691 0.0
C2491 C 0.36208 0.29982 1.02498 0.0
C2492 C 0.37185 0.28508 0.03345 0.0
C2493 C 0.33828 0.32193 1.0253 0.0
C2494 C 0.35839 0.29395 0.04219 0.0
C2495 C 0.33574 0.31649 0.04256 0.0
H2496 H 0.0972 0.38926 0.51545 0.0
H2497 H 0.12032 0.31607 0.53676 0.0
H2498 H 0.04341 0.2724 0.53974 0.0
H2499 H 0.96932 0.25658 0.53709 0.0
H2500 H 0.94378 0.32904 0.51614 0.0
H2501 H 1.02087 0.37071 0.51224 0.0
C2502 C 0.08528 0.36317 0.52059 0.0
C2503 C 0.11498 0.35601 0.52582 0.0
C2504 C 0.04025 0.33807 0.52243 0.0
C2505 C 0.09862 0.3225 0.5326 0.0
C2506 C 0.05443 0.29741 0.53435 0.0
C2507 C 0.98051 0.28123 0.53161 0.0
C2508 C 0.95059 0.28956 0.52695 0.0
C2509 C 1.02493 0.30521 0.52944 0.0
C2510 C 0.96593 0.3218 0.51986 0.0
C2511 C 1.01017 0.34574 0.51763 0.0
H2512 H 0.71415 0.78184 0.53805 0.0
H2513 H 0.64806 0.71979 0.51202 0.0
H2514 H 0.68247 0.67527 0.51211 0.0
H2515 H 0.72882 0.65026 0.52034 0.0
H2516 H 0.79358 0.71438 0.54637 0.0
H2517 H 0.763 0.7614 0.54543 0.0
C2518 C 0.7074 0.75889 0.53233 0.0
C2519 C 0.67829 0.75447 0.52506 0.0
C2520 C 0.72741 0.7334 0.53241 0.0
C2521 C 0.67039 0.72435 0.51772 0.0
C2522 C 0.69006 0.69863 0.51778 0.0
C2523 C 0.73698 0.67523 0.52565 0.0
C2524 C 0.76383 0.67873 0.53342 0.0
C2525 C 0.71845 0.70244 0.52516 0.0
C2526 C 0.77321 0.71083 0.54032 0.0
C2527 C 0.75552 0.73779 0.53982 0.0
H2528 H 0.27336 0.94689 0.53965 0.0
H2529 H 0.32073 0.94064 0.51177 0.0
H2530 H 0.36535 1.01922 0.51142 0.0
H2531 H 0.39219 0.09128 0.51914 0.0
H2532 H 0.34112 0.09616 0.54669 0.0
H2533 H 0.29774 1.01788 0.54702 0.0
C2534 C 0.29322 0.96262 0.53347 0.0
C2535 C 0.29322 0.93729 0.52576 0.0
C2536 C 0.31873 1.00826 0.53324 0.0
C2537 C 0.31952 0.95882 0.51782 0.0
C2538 C 0.34537 1.00406 0.51761 0.0
C2539 C 0.37147 0.07516 0.52519 0.0
C2540 C 0.37024 0.10011 0.53288 0.0
C2541 C 0.34543 0.02935 0.52529 0.0
C2542 C 0.34291 0.0783 0.54063 0.0
C2543 C 0.31792 0.03322 0.54085 0.0
H2544 H 1.02253 0.4277 0.34825 0.0
H2545 H 0.05907 0.43264 0.37775 0.0
H2546 H 1.02414 0.35385 0.37815 0.0
H2547 H 0.98265 0.28215 0.37002 0.0
H2548 H 0.94452 0.27894 0.3407 0.0
H2549 H 0.9808 0.35741 0.34034 0.0
C2550 C 1.02269 0.41168 0.3548 0.0
C2551 C 0.04347 0.43661 0.36296 0.0
C2552 C 1.00235 0.36609 0.35501 0.0
C2553 C 0.04333 0.41472 0.37134 0.0
C2554 C 1.02339 0.36941 0.37158 0.0
C2555 C 0.9824 0.29871 0.36357 0.0
C2556 C 0.96062 0.27429 0.3554 0.0
C2557 C 1.0028 0.34455 0.36344 0.0
C2558 C 0.96059 0.29653 0.34712 0.0
C2559 C 0.98143 0.34164 0.34689 0.0
H2560 H 0.75399 0.65326 0.3489 0.0
H2561 H 0.78132 0.74534 0.37144 0.0
H2562 H 0.70414 0.71068 0.37522 0.0
H2563 H 0.62747 0.6548 0.37167 0.0
H2564 H 0.60247 0.56532 0.34857 0.0
H2565 H 0.67926 0.59806 0.34554 0.0
C2566 C 0.74316 0.66561 0.35469 0.0
C2567 C 0.77362 0.70183 0.35988 0.0
C2568 C 0.69867 0.64586 0.35673 0.0
C2569 C 0.75872 0.71748 0.36732 0.0
C2570 C 0.71445 0.69763 0.36948 0.0
C2571 C 0.6389 0.64213 0.36606 0.0
C2572 C 0.6087 0.60727 0.36039 0.0
C2573 C 0.68388 0.6618 0.3642 0.0
C2574 C 0.62449 0.59198 0.35306 0.0
C2575 C 0.66864 0.61074 0.3513 0.0
H2576 H 0.39029 0.10758 0.34735 0.0
H2577 H 0.31105 0.05322 0.37228 0.0
H2578 H 0.34718 1.01176 0.37574 0.0
H2579 H 0.40052 0.98891 0.37132 0.0
H2580 H 0.47811 0.04364 0.34609 0.0
H2581 H 0.44369 0.08635 0.34318 0.0
C2582 C 0.3811 0.08693 0.35358 0.0
C2583 C 0.34795 0.08375 0.35953 0.0
C2584 C 0.40182 0.06286 0.35549 0.0
C2585 C 0.33646 0.05649 0.36756 0.0
C2586 C 0.35714 0.03264 0.36954 0.0
C2587 C 0.41025 1.01054 0.36525 0.0
C2588 C 0.44229 1.01282 0.35897 0.0
C2589 C 0.38982 0.03529 0.36352 0.0
C2590 C 0.45379 0.04086 0.35108 0.0
C2591 C 0.43402 0.06549 0.34938 0.0
H2592 H 0.25984 0.4181 0.09827 0.0
H2593 H 0.13951 0.3074 0.08957 0.0
H2594 H 0.12493 0.2821 0.10599 0.0
H2595 H 0.14411 0.29294 0.12302 0.0
H2596 H 0.2637 0.40419 0.13181 0.0
H2597 H 0.27974 0.42818 0.11527 0.0
C2598 C 0.23027 0.38854 0.09993 0.0
C2599 C 0.20103 0.36479 0.09255 0.0
C2600 C 0.22152 0.3744 0.10949 0.0
C2601 C 0.16323 0.32615 0.09496 0.0
C2602 C 0.15455 0.31176 0.10442 0.0
C2603 C 0.17405 0.3221 0.12134 0.0
C2604 C 0.20254 0.34665 0.12875 0.0
C2605 C 0.18327 0.33576 0.11176 0.0
C2606 C 0.24075 0.38482 0.12634 0.0
C2607 C 0.25013 0.3985 0.11684 0.0
H2608 H 0.64567 0.85649 0.0978 0.0
H2609 H 0.7308 0.80617 0.09188 0.0
H2610 H 0.75394 0.81714 0.10841 0.0
H2611 H 0.74884 0.8386 0.12476 0.0
H2612 H 0.66021 0.88372 0.13112 0.0
H2613 H 0.63849 0.87541 0.11433 0.0
C2614 C 0.66879 0.84721 0.10008 0.0
C2615 C 0.68654 0.83083 0.09338 0.0
C2616 C 0.68113 0.85221 0.10977 0.0
C2617 C 0.71714 0.81994 0.09665 0.0
C2618 C 0.73019 0.82573 0.1062 0.0
C2619 C 0.72504 0.84702 0.12247 0.0
C2620 C 0.70645 0.8621 0.12921 0.0
C2621 C 0.71238 0.84174 0.11283 0.0
C2622 C 0.67496 0.8719 0.12611 0.0
C2623 C 0.66265 0.86731 0.1165 0.0
H2624 H 0.17732 0.90673 0.12299 0.0
H2625 H 0.18724 0.79584 0.13136 0.0
H2626 H 0.19747 0.78279 0.11472 0.0
H2627 H 0.20561 0.80405 0.09781 0.0
H2628 H 0.19618 0.91542 0.08959 0.0
H2629 H 0.18215 0.92596 0.10609 0.0
C2630 C 0.18085 0.87916 0.12118 0.0
C2631 C 0.18156 0.85238 0.12846 0.0
C2632 C 0.1866 0.87174 0.11159 0.0
C2633 C 0.1871 0.81736 0.12594 0.0
C2634 C 0.19277 0.80974 0.11641 0.0
C2635 C 0.20053 0.83066 0.09962 0.0
C2636 C 0.20192 0.8588 0.09242 0.0
C2637 C 0.19307 0.83701 0.10918 0.0
C2638 C 0.19464 0.89276 0.09492 0.0
C2639 C 0.18698 0.89911 0.10439 0.0
H2640 H 0.43504 0.22377 0.45714 0.0
H2641 H 0.30182 0.16459 0.46585 0.0
H2642 H 0.27923 0.15503 0.4492 0.0
H2643 H 0.29677 0.16061 0.43212 0.0
H2644 H 0.43022 0.22382 0.42342 0.0
H2645 H 0.45288 0.2347 0.44006 0.0
C2646 C 0.40108 0.20951 0.45544 0.0
C2647 C 0.37029 0.19461 0.46285 0.0
C2648 C 0.38816 0.2045 0.4458 0.0
C2649 C 0.32638 0.17561 0.46038 0.0
C2650 C 0.31334 0.17034 0.45083 0.0
C2651 C 0.33088 0.17752 0.43382 0.0
C2652 C 0.36159 0.19095 0.42642 0.0
C2653 C 0.34389 0.18423 0.44346 0.0
C2654 C 0.40563 0.21222 0.42889 0.0
C2655 C 0.41873 0.21875 0.43844 0.0
H2656 H 0.86664 0.13184 0.43064 0.0
H2657 H 0.87641 0.25209 0.42178 0.0
H2658 H 0.86366 0.26622 0.43809 0.0
H2659 H 0.85358 0.24672 0.45506 0.0
H2660 H 0.84483 0.12719 0.46408 0.0
H2661 H 0.85474 0.11144 0.44762 0.0
C2662 C 0.86617 0.16125 0.43226 0.0
C2663 C 0.87236 0.19067 0.42488 0.0
C2664 C 0.85955 0.1697 0.44175 0.0
C2665 C 0.87096 0.2283 0.42719 0.0
C2666 C 0.86408 0.2367 0.43657 0.0
C2667 C 0.85312 0.21684 0.45343 0.0
C2668 C 0.84845 0.18825 0.46088 0.0
C2669 C 0.85868 0.20784 0.44393 0.0
C2670 C 0.84889 0.15015 0.45857 0.0
C2671 C 0.85433 0.14096 0.44913 0.0
H2672 H 0.85142 0.65347 0.42646 0.0
H2673 H 0.89047 0.78753 0.43096 0.0
H2674 H 0.88281 0.77583 0.44816 0.0
H2675 H 0.86385 0.7273 0.462 0.0
H2676 H 0.82429 0.59316 0.4575 0.0
H2677 H 0.83316 0.6051 0.44031 0.0
C2678 C 0.85814 0.6801 0.4312 0.0
C2679 C 0.87171 0.72136 0.42738 0.0
C2680 C 0.85345 0.67313 0.44112 0.0
C2681 C 0.88069 0.75557 0.43367 0.0
C2682 C 0.87597 0.74886 0.44353 0.0
C2683 C 0.85688 0.70063 0.45725 0.0
C2684 C 0.84338 0.65939 0.46105 0.0
C2685 C 0.86217 0.70774 0.44734 0.0
C2686 C 0.83513 0.62534 0.45479 0.0
C2687 C 0.84002 0.63209 0.44494 0.0
H2688 H 0.81425 0.66629 0.92807 0.0
H2689 H 0.95103 0.75529 0.92998 0.0
H2690 H 0.94928 0.74253 0.9471 0.0
H2691 H 0.90962 0.70446 0.9615 0.0
H2692 H 0.77203 0.61804 0.95986 0.0
H2693 H 0.77372 0.63077 0.94276 0.0
C2694 C 0.84364 0.68282 0.93224 0.0
C2695 C 0.88267 0.71186 0.92771 0.0
C2696 C 0.84241 0.67556 0.94217 0.0
C2697 C 0.92041 0.73323 0.93326 0.0
C2698 C 0.9195 0.72578 0.94308 0.0
C2699 C 0.87975 0.68891 0.95749 0.0
C2700 C 0.8408 0.65998 0.9621 0.0
C2701 C 0.88072 0.69695 0.94762 0.0
C2702 C 0.80275 0.63976 0.95659 0.0
C2703 C 0.80358 0.64724 0.94676 0.0
H2704 H 0.29162 0.17752 0.93211 0.0
H2705 H 0.41052 0.18649 0.92272 0.0
H2706 H 0.43482 0.19342 0.93924 0.0
H2707 H 0.42213 0.19617 0.95642 0.0
H2708 H 0.30404 0.18981 0.96569 0.0
H2709 H 0.2793 0.18101 0.94926 0.0
C2710 C 0.3227 0.18061 0.93367 0.0
C2711 C 0.34912 0.18155 0.92612 0.0
C2712 C 0.33656 0.18453 0.94322 0.0
C2713 C 0.38963 0.18626 0.92833 0.0
C2714 C 0.40349 0.18994 0.9378 0.0
C2715 C 0.3911 0.19321 0.95489 0.0
C2716 C 0.36503 0.1933 0.96245 0.0
C2717 C 0.37725 0.18917 0.94533 0.0
C2718 C 0.32463 0.18881 0.96018 0.0
C2719 C 0.31051 0.18425 0.95071 0.0
H2720 H 0.92544 0.18247 0.93099 0.0
H2721 H 0.80884 0.17957 0.92182 0.0
H2722 H 0.79482 0.1925 0.93813 0.0
H2723 H 0.813 0.20018 0.95515 0.0
H2724 H 0.92842 0.20129 0.96449 0.0
H2725 H 0.94466 0.19208 0.94802 0.0
C2726 C 0.89687 0.18453 0.93254 0.0
C2727 C 0.86838 0.18014 0.92511 0.0
C2728 C 0.88841 0.19108 0.94201 0.0
C2729 C 0.83187 0.18359 0.92731 0.0
C2730 C 0.82352 0.19055 0.93668 0.0
C2731 C 0.84214 0.19918 0.95358 0.0
C2732 C 0.86947 0.20152 0.96108 0.0
C2733 C 0.85131 0.1939 0.9441 0.0
C2734 C 0.90656 0.19915 0.95889 0.0
C2735 C 0.91599 0.19409 0.94946 0.0
H2736 H 0.66747 0.80272 0.59749 0.0
H2737 H 0.71039 0.9375 0.59277 0.0
H2738 H 0.72946 0.953 0.60957 0.0
H2739 H 0.73507 0.92886 0.62567 0.0
H2740 H 0.69174 0.7941 0.63052 0.0
H2741 H 0.67196 0.77828 0.61373 0.0
C2742 C 0.68075 0.83542 0.60015 0.0
C2743 C 0.6878 0.86888 0.59379 0.0
C2744 C 0.69177 0.84427 0.60989 0.0
C2745 C 0.70533 0.91115 0.59741 0.0
C2746 C 0.71603 0.92007 0.60706 0.0
C2747 C 0.72088 0.89594 0.62309 0.0
C2748 C 0.71511 0.86284 0.62941 0.0
C2749 C 0.70955 0.88697 0.61337 0.0
C2750 C 0.69719 0.82045 0.62584 0.0
C2751 C 0.68562 0.81127 0.61622 0.0
H2752 H 0.19322 0.89172 0.59312 0.0
H2753 H 0.23457 0.79818 0.59695 0.0
H2754 H 0.22726 0.80091 0.61421 0.0
H2755 H 0.20772 0.82883 0.62823 0.0
H2756 H 0.16518 0.9214 0.62432 0.0
H2757 H 0.17419 0.91995 0.6071 0.0
C2758 C 0.20056 0.8719 0.59773 0.0
C2759 C 0.21461 0.84499 0.59375 0.0
C2760 C 0.19592 0.8733 0.60764 0.0
C2761 C 0.22441 0.81978 0.59984 0.0
C2762 C 0.21987 0.82101 0.6097 0.0
C2763 C 0.20013 0.8484 0.62359 0.0
C2764 C 0.1858 0.87514 0.62755 0.0
C2765 C 0.20539 0.84745 0.61368 0.0
C2766 C 0.17669 0.90085 0.62146 0.0
C2767 C 0.18166 0.89993 0.61161 0.0
H2768 H 0.27283 0.38795 0.59689 0.0
H2769 H 0.13973 0.35348 0.59321 0.0
H2770 H 0.12595 0.33459 0.61007 0.0
H2771 H 0.15193 0.3282 0.62598 0.0
H2772 H 0.28466 0.36081 0.62933 0.0
H2773 H 0.29805 0.37947 0.6125 0.0
C2774 C 0.24063 0.37574 0.59972 0.0
C2775 C 0.20746 0.37226 0.59376 0.0
C2776 C 0.2328 0.3646 0.60941 0.0
C2777 C 0.16611 0.35712 0.59765 0.0
C2778 C 0.15809 0.34602 0.60729 0.0
C2779 C 0.18367 0.33911 0.623 0.0
C2780 C 0.21733 0.34357 0.62895 0.0
C2781 C 0.19122 0.34972 0.61326 0.0
C2782 C 0.25836 0.35794 0.62497 0.0
C2783 C 0.26604 0.36838 0.61533 0.0
H2784 H 0.06327 0.53402 0.75967 0.0
H2785 H 0.92597 0.47278 0.76431 0.0
H2786 H 0.93766 0.48112 0.7815 0.0
H2787 H 0.98657 0.5041 0.79536 0.0
H2788 H 0.12366 0.56282 0.79074 0.0
H2789 H 0.11219 0.55717 0.77353 0.0
C2790 C 0.03581 0.5223 0.76442 0.0
C2791 C 0.99375 0.50295 0.76058 0.0
C2792 C 0.04269 0.52675 0.77438 0.0
C2793 C 0.95879 0.48854 0.76695 0.0
C2794 C 0.9654 0.49295 0.77683 0.0
C2795 C 1.014 0.51554 0.79061 0.0
C2796 C 0.056 0.5341 0.79445 0.0
C2797 C 1.00718 0.51179 0.78065 0.0
C2798 C 0.09101 0.54914 0.78808 0.0
C2799 C 0.08446 0.54558 0.7782 0.0
H2800 H 0.56648 0.48823 0.76651 0.0
H2801 H 0.49861 0.55265 0.75684 0.0
H2802 H 0.48601 0.56509 0.77332 0.0
H2803 H 0.49654 0.56033 0.79053 0.0
H2804 H 0.56084 0.49232 0.8002 0.0
H2805 H 0.57216 0.47863 0.78372 0.0
C2806 C 0.54823 0.50431 0.76797 0.0
C2807 C 0.53392 0.51973 0.76034 0.0
C2808 C 0.5406 0.51104 0.77751 0.0
C2809 C 0.51089 0.5411 0.76249 0.0
C2810 C 0.50338 0.54805 0.77195 0.0
C2811 C 0.51236 0.54183 0.78908 0.0
C2812 C 0.5281 0.52782 0.7967 0.0
C2813 C 0.51845 0.53356 0.77953 0.0
C2814 C 0.54909 0.50441 0.79455 0.0
C2815 C 0.55539 0.49627 0.7851 0.0
H2816 H 0.57067 1.01579 0.76155 0.0
H2817 H 0.47843 0.05944 0.76038 0.0
H2818 H 0.46494 0.04655 0.77753 0.0
H2819 H 0.47779 0.02066 0.79277 0.0
H2820 H 0.57136 0.97821 0.79398 0.0
H2821 H 0.58522 0.99196 0.77697 0.0
C2822 C 0.5478 0.02256 0.7651 0.0
C2823 C 0.52552 0.0385 0.75979 0.0
C2824 C 0.5401 1.01485 0.77496 0.0
C2825 C 0.49584 0.04711 0.76439 0.0
C2826 C 0.48814 0.03972 0.77418 0.0
C2827 C 0.50164 1.01493 0.78936 0.0
C2828 C 0.52311 0.99798 0.79472 0.0
C2829 C 0.50991 0.02336 0.77954 0.0
C2830 C 0.55354 0.99034 0.79007 0.0
C2831 C 0.56182 0.99851 0.78032 0.0
H2832 H 0.53557 0.08021 0.26376 0.0
H2833 H 0.54247 0.96805 0.25496 0.0
H2834 H 0.53133 0.94239 0.27137 0.0
H2835 H 0.52307 0.95312 0.28835 0.0
H2836 H 0.51689 0.06542 0.2973 0.0
H2837 H 0.52564 0.09013 0.28078 0.0
C2838 C 0.53479 0.05022 0.26541 0.0
C2839 C 0.53964 0.02612 0.25803 0.0
C2840 C 0.52901 0.0358 0.27494 0.0
C2841 C 0.53799 0.98702 0.26038 0.0
C2842 C 0.53203 0.97243 0.26981 0.0
C2843 C 0.52292 0.98267 0.2867 0.0
C2844 C 0.51928 1.00728 0.29413 0.0
C2845 C 0.52777 0.99666 0.27716 0.0
C2846 C 0.52014 0.04599 0.29179 0.0
C2847 C 0.52491 0.06007 0.28232 0.0
H2848 H 0.09427 0.55353 0.28957 0.0
H2849 H 0.96271 0.47125 0.2987 0.0
H2850 H 0.9386 0.46009 0.28214 0.0
H2851 H 0.95426 0.47595 0.26507 0.0
H2852 H 0.08626 0.55518 0.25591 0.0
H2853 H 0.11054 0.5649 0.27244 0.0
C2854 C 0.0604 0.53247 0.28797 0.0
C2855 C 0.03043 0.51355 0.29546 0.0
C2856 C 0.04666 0.52579 0.27838 0.0
C2857 C 0.98656 0.48696 0.29315 0.0
C2858 C 0.97269 0.48032 0.28365 0.0
C2859 C 0.98844 0.49471 0.26664 0.0
C2860 C 1.01823 0.51504 0.25917 0.0
C2861 C 1.00238 0.49991 0.2762 0.0
C2862 C 0.06235 0.53977 0.26146 0.0
C2863 C 0.07638 0.54519 0.27094 0.0
H2864 H 0.56912 0.49588 0.26476 0.0
H2865 H 0.49615 0.55686 0.25638 0.0
H2866 H 0.48457 0.567 0.27307 0.0
H2867 H 0.49197 0.55551 0.29009 0.0
H2868 H 0.56903 0.49902 0.29849 0.0
H2869 H 0.58224 0.49061 0.2818 0.0
C2870 C 0.5514 0.51219 0.26654 0.0
C2871 C 0.53316 0.52504 0.25921 0.0
C2872 C 0.54525 0.51853 0.27621 0.0
C2873 C 0.50981 0.54561 0.26179 0.0
C2874 C 0.50335 0.55173 0.27137 0.0
C2875 C 0.51239 0.54214 0.28832 0.0
C2876 C 0.52898 0.52752 0.29565 0.0
C2877 C 0.52043 0.53783 0.27865 0.0
C2878 C 0.55488 0.50972 0.29308 0.0
C2879 C 0.56275 0.50511 0.2835 0.0
H2880 H 0.05237 0.20465 0.29708 0.0
H2881 H 0.92008 0.14265 0.28755 0.0
H2882 H 0.94377 0.15403 0.27099 0.0
H2883 H 1.00197 0.1818 0.25906 0.0
H2884 H 0.13421 0.24176 0.26855 0.0
H2885 H 0.11059 0.23099 0.28513 0.0
C2886 C 1.02866 0.19333 0.29139 0.0
C2887 C 0.98441 0.17314 0.29366 0.0
C2888 C 0.04251 0.19974 0.2818 0.0
C2889 C 0.95436 0.1591 0.28611 0.0
C2890 C 0.96787 0.1653 0.27659 0.0
C2891 C 1.02568 0.19224 0.26474 0.0
C2892 C 0.06994 0.21294 0.26246 0.0
C2893 C 1.01186 0.18566 0.27433 0.0
C2894 C 0.1 0.22654 0.27 0.0
C2895 C 0.0865 0.2201 0.27953 0.0
H2896 H 0.92176 0.84199 0.28871 0.0
H2897 H 0.793 0.8008 0.29871 0.0
H2898 H 0.77297 0.81366 0.2829 0.0
H2899 H 0.79257 0.83888 0.26627 0.0
H2900 H 0.92133 0.87896 0.25637 0.0
H2901 H 0.94082 0.8655 0.2721 0.0
C2902 C 0.88939 0.83618 0.28749 0.0
C2903 C 0.85908 0.82053 0.29499 0.0
C2904 C 0.87805 0.84384 0.27836 0.0
C2905 C 0.81702 0.81241 0.29312 0.0
C2906 C 0.80555 0.82001 0.28406 0.0
C2907 C 0.82474 0.84415 0.26749 0.0
C2908 C 0.85541 0.86037 0.26005 0.0
C2909 C 0.83582 0.83585 0.27661 0.0
C2910 C 0.89711 0.86739 0.26192 0.0
C2911 C 0.90831 0.8594 0.27094 0.0
H2912 H 0.15472 0.99591 0.29582 0.0
H2913 H 0.28891 0.08841 0.29082 0.0
H2914 H 0.28141 0.06527 0.27422 0.0
H2915 H 0.23617 0.02026 0.26082 0.0
H2916 H 0.1017 0.92919 0.26589 0.0
H2917 H 0.10982 0.95115 0.28256 0.0
C2918 C 0.18237 1.01138 0.29112 0.0
C2919 C 0.22242 0.04388 0.29472 0.0
C2920 C 0.17773 0.99842 0.28148 0.0
C2921 C 0.25782 0.06277 0.28842 0.0
C2922 C 0.2535 0.0498 0.27885 0.0
C2923 C 0.20872 1.00495 0.26559 0.0
C2924 C 0.16825 0.9733 0.26199 0.0
C2925 C 0.21357 1.01773 0.27527 0.0
C2926 C 0.13307 0.95419 0.26833 0.0
C2927 C 0.13771 0.96653 0.27792 0.0
H2928 H 0.03726 0.8943 0.79531 0.0
H2929 H 0.96034 0.7562 0.79156 0.0
H2930 H 0.98629 0.76317 0.7752 0.0
H2931 H 1.02888 0.80888 0.76163 0.0
H2932 H 0.10386 0.94704 0.76547 0.0
H2933 H 0.07954 0.93956 0.78193 0.0
C2934 C 1.02573 0.86563 0.79092 0.0
C2935 C 0.99673 0.82475 0.79477 0.0
C2936 C 0.04011 0.86989 0.78143 0.0
C2937 C 0.98313 0.78808 0.78893 0.0
C2938 C 0.99768 0.79205 0.77951 0.0
C2939 C 0.04014 0.8373 0.76609 0.0
C2940 C 0.06788 0.87851 0.76223 0.0
C2941 C 1.02601 0.83283 0.77564 0.0
C2942 C 0.08186 0.91497 0.76814 0.0
C2943 C 0.0682 0.91074 0.77761 0.0
H2944 H 0.23694 0.24021 0.76094 0.0
H2945 H 0.10029 0.15186 0.76384 0.0
H2946 H 0.11143 0.13351 0.7799 0.0
H2947 H 0.15943 0.14247 0.79328 0.0
H2948 H 0.29627 0.23004 0.7905 0.0
H2949 H 0.28524 0.24952 0.77449 0.0
C2950 C 0.20951 0.21721 0.7651 0.0
C2951 C 0.16782 0.19722 0.76103 0.0
C2952 C 0.21606 0.20682 0.77446 0.0
C2953 C 0.13288 0.16721 0.7666 0.0
C2954 C 0.13915 0.15686 0.77587 0.0
C2955 C 0.18703 0.16556 0.78918 0.0
C2956 C 0.22869 0.18468 0.79323 0.0
C2957 C 0.18058 0.17629 0.77987 0.0
C2958 C 0.2637 0.21516 0.78774 0.0
C2959 C 0.25748 0.22613 0.7785 0.0
H2960 H 0.8538 0.0873 0.7897 0.0
H2961 H 0.90474 1.00729 0.79959 0.0
H2962 H 0.89294 0.97404 0.78389 0.0
H2963 H 0.86764 0.96683 0.76737 0.0
H2964 H 0.81618 0.04617 0.75738 0.0
H2965 H 0.82741 0.07927 0.77315 0.0
C2966 C 0.86183 0.0622 0.78848 0.0
C2967 C 0.8804 0.05015 0.79589 0.0
C2968 C 0.8546 0.04276 0.7794 0.0
C2969 C 0.89112 1.01792 0.79405 0.0
C2970 C 0.88412 0.9986 0.78506 0.0
C2971 C 0.85927 0.9917 0.76858 0.0
C2972 C 0.84119 1.00397 0.76112 0.0
C2973 C 0.86605 1.01084 0.77767 0.0
C2974 C 0.82973 0.03564 0.76297 0.0
C2975 C 0.83638 0.05482 0.77199 0.0
H2976 H 0.70529 0.49441 0.62989 0.0
H2977 H 0.60266 0.52054 0.62342 0.0
H2978 H 0.62853 0.53882 0.60705 0.0
H2979 H 0.6792 0.54537 0.59422 0.0
H2980 H 0.78064 0.51767 0.6008 0.0
H2981 H 0.75576 0.5013 0.61724 0.0
C2982 C 0.68821 0.50374 0.62492 0.0
C2983 C 0.65193 0.50608 0.62805 0.0
C2984 C 0.70293 0.51374 0.6154 0.0
C2985 C 0.63104 0.51905 0.6214 0.0
C2986 C 0.64566 0.52924 0.61195 0.0
C2987 C 0.6961 0.53612 0.59927 0.0
C2988 C 0.73163 0.53242 0.59614 0.0
C2989 C 0.68153 0.52661 0.60883 0.0
C2990 C 0.75277 0.52007 0.60286 0.0
C2991 C 0.73868 0.51088 0.61232 0.0
H2992 H 0.56898 0.22731 0.62748 0.0
H2993 H 0.51742 0.09046 0.62343 0.0
H2994 H 0.4979 0.09632 0.60704 0.0
H2995 H 0.49725 0.14071 0.59355 0.0
H2996 H 0.55029 0.27771 0.59769 0.0
H2997 H 0.56826 0.27135 0.61414 0.0
C2998 C 0.55383 0.19871 0.62302 0.0
C2999 C 0.54474 0.15846 0.62682 0.0
C3000 C 0.54319 0.20235 0.6135 0.0
C3001 C 0.5243 0.12182 0.62086 0.0
C3002 C 0.51338 0.12517 0.61141 0.0
C3003 C 0.51248 0.16913 0.59807 0.0
C3004 C 0.52275 0.20973 0.59427 0.0
C3005 C 0.52278 0.1653 0.60763 0.0
C3006 C 0.54273 0.24616 0.60028 0.0
C3007 C 0.5528 0.24254 0.60975 0.0
H3008 H 0.87556 0.42361 0.62099 0.0
H3009 H 0.91377 0.33484 0.6319 0.0
H3010 H 0.90231 0.30132 0.61619 0.0
H3011 H 0.87973 0.2957 0.59934 0.0
H3012 H 0.8426 0.38545 0.58847 0.0
H3013 H 0.85401 0.41868 0.60415 0.0
C3014 C 0.88102 0.39665 0.62 0.0
C3015 C 0.89561 0.38203 0.62775 0.0
C3016 C 0.87416 0.3772 0.6109 0.0
C3017 C 0.90314 0.34744 0.62614 0.0
C3018 C 0.89631 0.32795 0.61712 0.0
C3019 C 0.87461 0.32287 0.60033 0.0
C3020 C 0.85991 0.33752 0.59259 0.0
C3021 C 0.8818 0.3425 0.60943 0.0
C3022 C 0.85301 0.37254 0.59421 0.0
C3023 C 0.85987 0.39195 0.60321 0.0
H3024 H 0.76427 0.2096 0.09949 0.0
H3025 H 0.64153 0.15872 0.08518 0.0
H3026 H 0.60498 0.1434 0.10055 0.0
H3027 H 0.6074 0.1448 0.11817 0.0
H3028 H 0.72993 0.19219 0.13239 0.0
H3029 H 0.76638 0.20814 0.11703 0.0
C3030 C 0.72946 0.19462 0.09967 0.0
C3031 C 0.70604 0.18564 0.09104 0.0
C3032 C 0.70831 0.1853 0.1086 0.0
C3033 C 0.66087 0.16689 0.0916 0.0
C3034 C 0.63974 0.15775 0.10044 0.0
C3035 C 0.64202 0.15812 0.11795 0.0
C3036 C 0.66558 0.16746 0.12658 0.0
C3037 C 0.66307 0.16687 0.10901 0.0
C3038 C 0.71065 0.18535 0.12599 0.0
C3039 C 0.73168 0.19426 0.11716 0.0
H3040 H 0.94457 0.54011 0.12279 0.0
H3041 H 0.8124 0.48258 0.13219 0.0
H3042 H 0.79093 0.49397 0.11647 0.0
H3043 H 0.80923 0.52082 0.10004 0.0
H3044 H 0.94127 0.57917 0.09057 0.0
H3045 H 0.96311 0.56816 0.10635 0.0
C3046 C 0.91114 0.53053 0.12147 0.0
C3047 C 0.88025 0.51016 0.12876 0.0
C3048 C 0.89886 0.53759 0.11236 0.0
C3049 C 0.83696 0.49754 0.12675 0.0
C3050 C 0.82458 0.50432 0.11774 0.0
C3051 C 0.84276 0.53078 0.10136 0.0
C3052 C 0.87343 0.55077 0.09403 0.0
C3053 C 0.85517 0.52416 0.11048 0.0
C3054 C 0.91687 0.56416 0.09604 0.0
C3055 C 0.92942 0.55763 0.10508 0.0
H3056 H 0.57411 0.43885 0.12028 0.0
H3057 H 0.50322 0.31479 0.13413 0.0
H3058 H 0.48313 0.27908 0.11864 0.0
H3059 H 0.48614 0.28258 0.10113 0.0
H3060 H 0.55378 0.40682 0.08725 0.0
H3061 H 0.57439 0.44257 0.10274 0.0
C3062 C 0.55378 0.40404 0.11995 0.0
C3063 C 0.54053 0.37976 0.12847 0.0
C3064 C 0.54178 0.38353 0.11097 0.0
C3065 C 0.51473 0.33452 0.12778 0.0
C3066 C 0.50289 0.31396 0.11889 0.0
C3067 C 0.50486 0.31752 0.10145 0.0
C3068 C 0.51838 0.34175 0.09293 0.0
C3069 C 0.5163 0.33809 0.11043 0.0
C3070 C 0.54339 0.38705 0.09361 0.0
C3071 C 0.55502 0.40766 0.1025 0.0
H3072 H 0.43012 0.85046 0.9349 0.0
H3073 H 0.33918 0.88427 0.92334 0.0
H3074 H 0.30372 0.87104 0.93884 0.0
H3075 H 0.29652 0.84704 0.95565 0.0
H3076 H 0.38802 0.8135 0.96704 0.0
H3077 H 0.42405 0.82823 0.95166 0.0
C3078 C 0.4023 0.85461 0.93571 0.0
C3079 C 0.3875 0.86829 0.92784 0.0
C3080 C 0.38168 0.84655 0.94466 0.0
C3081 C 0.35186 0.8743 0.92921 0.0
C3082 C 0.33126 0.86642 0.9381 0.0
C3083 C 0.32464 0.84342 0.95482 0.0
C3084 C 0.33898 0.82862 0.96259 0.0
C3085 C 0.34571 0.8523 0.94588 0.0
C3086 C 0.37539 0.82387 0.96123 0.0
C3087 C 0.39636 0.8326 0.95241 0.0
H3088 H 0.22174 0.56115 0.96175 0.0
H3089 H 0.15479 0.42299 0.95759 0.0
H3090 H 0.13713 0.43218 0.94127 0.0
H3091 H 0.14256 0.47958 0.92788 0.0
H3092 H 0.21078 0.6177 0.9321 0.0
H3093 H 0.22704 0.60825 0.94849 0.0
C3094 C 0.20358 0.53295 0.95728 0.0
C3095 C 0.18959 0.49138 0.96102 0.0
C3096 C 0.19408 0.53844 0.9478 0.0
C3097 C 0.16543 0.45539 0.95506 0.0
C3098 C 0.15559 0.46061 0.94566 0.0
C3099 C 0.16067 0.50761 0.9324 0.0
C3100 C 0.17568 0.54934 0.92865 0.0
C3101 C 0.16986 0.50199 0.94192 0.0
C3102 C 0.19946 0.5852 0.93466 0.0
C3103 C 0.20856 0.57985 0.94409 0.0
H3104 H 0.53993 0.62663 0.93246 0.0
H3105 H 0.47695 0.69538 0.92243 0.0
H3106 H 0.48793 0.73029 0.93792 0.0
H3107 H 0.516 0.74237 0.95432 0.0
H3108 H 0.57919 0.67399 0.96443 0.0
H3109 H 0.56882 0.63941 0.94888 0.0
C3110 C 0.52903 0.64963 0.93359 0.0
C3111 C 0.5073 0.65787 0.92618 0.0
C3112 C 0.53581 0.67014 0.94257 0.0
C3113 C 0.49302 0.68749 0.92796 0.0
C3114 C 0.49957 0.70784 0.93683 0.0
C3115 C 0.52719 0.71959 0.9532 0.0
C3116 C 0.54844 0.71108 0.96066 0.0
C3117 C 0.52078 0.69936 0.94421 0.0
C3118 C 0.5633 0.68193 0.95887 0.0
C3119 C 0.5571 0.66178 0.94996 0.0
H3120 H 0.33072 0.44878 0.45701 0.0
H3121 H 0.34624 0.57449 0.46266 0.0
H3122 H 0.37806 0.59923 0.44693 0.0
H3123 H 0.4019 0.58559 0.43151 0.0
H3124 H 0.38364 0.45899 0.42559 0.0
H3125 H 0.35275 0.43457 0.44141 0.0
C3126 C 0.34074 0.48151 0.4548 0.0
C3127 C 0.33624 0.50968 0.46114 0.0
C3128 C 0.35875 0.49557 0.44565 0.0
C3129 C 0.34998 0.55217 0.45809 0.0
C3130 C 0.36794 0.56634 0.44903 0.0
C3131 C 0.39075 0.55248 0.43361 0.0
C3132 C 0.39544 0.52437 0.42728 0.0
C3133 C 0.37253 0.53836 0.44274 0.0
C3134 C 0.38129 0.48176 0.43029 0.0
C3135 C 0.36327 0.46758 0.43935 0.0
H3136 H 0.48584 0.81339 0.42694 0.0
H3137 H 0.57748 0.95014 0.42778 0.0
H3138 H 0.59695 0.94321 0.4441 0.0
H3139 H 0.58619 0.89875 0.45851 0.0
H3140 H 0.49277 0.76255 0.45761 0.0
H3141 H 0.4751 0.76934 0.44116 0.0
C3142 C 0.50979 0.84192 0.43068 0.0
C3143 C 0.53002 0.88227 0.42599 0.0
C3144 C 0.52032 0.83794 0.44018 0.0
C3145 C 0.56168 0.91844 0.43103 0.0
C3146 C 0.57264 0.91461 0.44045 0.0
C3147 C 0.5622 0.8705 0.4547 0.0
C3148 C 0.54061 0.83026 0.45941 0.0
C3149 C 0.55203 0.87456 0.44514 0.0
C3150 C 0.50939 0.79413 0.4543 0.0
C3151 C 0.49941 0.79789 0.44483 0.0
H3152 H 0.24639 0.75925 0.45483 0.0
H3153 H 0.12965 0.65241 0.46611 0.0
H3154 H 0.10983 0.62053 0.45017 0.0
H3155 H 0.12682 0.62167 0.43308 0.0
H3156 H 0.2432 0.72961 0.42189 0.0
H3157 H 0.26236 0.76142 0.43776 0.0
C3158 C 0.21673 0.7288 0.45384 0.0
C3159 C 0.1897 0.70827 0.46173 0.0
C3160 C 0.20557 0.71052 0.44465 0.0
C3161 C 0.15096 0.66925 0.4602 0.0
C3162 C 0.1397 0.65082 0.45108 0.0
C3163 C 0.15608 0.65246 0.43406 0.0
C3164 C 0.18356 0.67286 0.42621 0.0
C3165 C 0.16683 0.67107 0.44324 0.0
C3166 C 0.22168 0.71252 0.42775 0.0
C3167 C 0.23261 0.73101 0.43684 0.0
loop_
_geom_bond_atom_site_label_1
_geom_bond_atom_site_label_2
_geom_bond_distance
_geom_bond_site_symmetry_2
_ccdc_geom_bond_type
La0 C2 2.928 . S
La0 O20 2.521 . S
La0 O21 2.628 . S
La0 O22 2.554 . S
La0 O23 2.757 . S
La0 O24 2.470 . S
La0 O29 2.482 . S
La0 O31 2.503 . S
La1 C11 2.928 . S
La1 O23 2.482 . S
La1 O25 2.503 . S
La1 O26 2.521 . S
La1 O27 2.628 . S
La1 O28 2.554 . S
La1 O29 2.757 . S
La1 O30 2.470 . S
C2 La0 2.928 . S
C2 C3 1.503 . S
C2 O20 1.261 . S
C2 O21 1.243 . S
C3 C2 1.503 . S
C3 C4 1.394 . S
C3 C8 1.373 . S
C4 C3 1.394 . S
C4 C5 1.380 . S
C4 H32 0.930 . S
C5 C4 1.380 . S
C5 C6 1.376 . S
C5 H33 0.930 . S
C6 C5 1.376 . S
C6 C7 1.370 . S
C7 C6 1.370 . S
C7 C8 1.396 . S
C7 H34 0.929 . S
C8 C3 1.373 . S
C8 C7 1.396 . S
C8 H35 0.929 . S
C9 O22 1.240 . S
C9 O23 1.289 . S
C10 O24 1.258 . S
C10 O25 1.256 . S
C11 La1 2.928 . S
C11 C12 1.503 . S
C11 O26 1.261 . S
C11 O27 1.243 . S
C12 C11 1.503 . S
C12 C13 1.394 . S
C12 C17 1.373 . S
C13 C12 1.394 . S
C13 C14 1.380 . S
C13 H36 0.930 . S
C14 C13 1.380 . S
C14 C15 1.376 . S
C14 H37 0.930 . S
C15 C14 1.376 . S
C15 C16 1.370 . S
C16 C15 1.370 . S
C16 C17 1.396 . S
C16 H38 0.929 . S
C17 C12 1.373 . S
C17 C16 1.396 . S
C17 H39 0.929 . S
C18 O28 1.240 . S
C18 O29 1.289 . S
C19 O30 1.258 . S
C19 O31 1.256 . S
O20 La0 2.521 . S
O20 C2 1.261 . S
O21 La0 2.628 . S
O21 C2 1.243 . S
O22 La0 2.554 . S
O22 C9 1.240 . S
O23 La0 2.757 . S
O23 La1 2.482 . S
O23 C9 1.289 . S
O24 La0 2.470 . S
O24 C10 1.258 . S
O25 La1 2.503 . S
O25 C10 1.256 . S
O26 La1 2.521 . S
O26 C11 1.261 . S
O27 La1 2.628 . S
O27 C11 1.243 . S
O28 La1 2.554 . S
O28 C18 1.240 . S
O29 La0 2.482 . S
O29 La1 2.757 . S
O29 C18 1.289 . S
O30 La1 2.470 . S
O30 C19 1.258 . S
O31 La0 2.503 . S
O31 C19 1.256 . S
H32 C4 0.930 . S
H33 C5 0.930 . S
H34 C7 0.929 . S
H35 C8 0.929 . S
H36 C13 0.930 . S
H37 C14 0.930 . S
H38 C16 0.929 . S
H39 C17 0.929 . S
La40 C42 2.928 . S
La40 O60 2.521 . S
La40 O61 2.628 . S
La40 O62 2.554 . S
La40 O63 2.757 . S
La40 O64 2.470 . S
La40 O69 2.482 . S
La40 O71 2.503 . S
La41 C51 2.928 . S
La41 O63 2.482 . S
La41 O65 2.503 . S
La41 O66 2.521 . S
La41 O67 2.628 . S
La41 O68 2.554 . S
La41 O69 2.757 . S
La41 O70 2.470 . S
C42 La40 2.928 . S
C42 C43 1.503 . S
C42 O60 1.261 . S
C42 O61 1.243 . S
C43 C42 1.503 . S
C43 C44 1.394 . S
C43 C48 1.373 . S
C44 C43 1.394 . S
C44 C45 1.380 . S
C44 H72 0.930 . S
C45 C44 1.380 . S
C45 C46 1.376 . S
C45 H73 0.930 . S
C46 C45 1.376 . S
C46 C47 1.370 . S
C47 C46 1.370 . S
C47 C48 1.396 . S
C47 H74 0.929 . S
C48 C43 1.373 . S
C48 C47 1.396 . S
C48 H75 0.929 . S
C49 O62 1.240 . S
C49 O63 1.289 . S
C50 O64 1.258 . S
C50 O65 1.256 . S
C51 La41 2.928 . S
C51 C52 1.503 . S
C51 O66 1.261 . S
C51 O67 1.243 . S
C52 C51 1.503 . S
C52 C53 1.394 . S
C52 C57 1.373 . S
C53 C52 1.394 . S
C53 C54 1.380 . S
C53 H76 0.930 . S
C54 C53 1.380 . S
C54 C55 1.376 . S
C54 H77 0.930 . S
C55 C54 1.376 . S
C55 C56 1.370 . S
C56 C55 1.370 . S
C56 C57 1.396 . S
C56 H78 0.929 . S
C57 C52 1.373 . S
C57 C56 1.396 . S
C57 H79 0.929 . S
C58 O68 1.240 . S
C58 O69 1.289 . S
C59 O70 1.258 . S
C59 O71 1.256 . S
O60 La40 2.521 . S
O60 C42 1.261 . S
O61 La40 2.628 . S
O61 C42 1.243 . S
O62 La40 2.554 . S
O62 C49 1.240 . S
O63 La40 2.757 . S
O63 La41 2.482 . S
O63 C49 1.289 . S
O64 La40 2.470 . S
O64 C50 1.258 . S
O65 La41 2.503 . S
O65 C50 1.256 . S
O66 La41 2.521 . S
O66 C51 1.261 . S
O67 La41 2.628 . S
O67 C51 1.243 . S
O68 La41 2.554 . S
O68 C58 1.240 . S
O69 La40 2.482 . S
O69 La41 2.757 . S
O69 C58 1.289 . S
O70 La41 2.470 . S
O70 C59 1.258 . S
O71 La40 2.503 . S
O71 C59 1.256 . S
H72 C44 0.930 . S
H73 C45 0.930 . S
H74 C47 0.929 . S
H75 C48 0.929 . S
H76 C53 0.930 . S
H77 C54 0.930 . S
H78 C56 0.929 . S
H79 C57 0.929 . S
La80 C82 2.928 . S
La80 O100 2.521 . S
La80 O101 2.628 . S
La80 O102 2.554 . S
La80 O103 2.757 . S
La80 O104 2.470 . S
La80 O109 2.482 . S
La80 O111 2.503 . S
La81 C91 2.928 . S
La81 O103 2.482 . S
La81 O105 2.503 . S
La81 O106 2.521 . S
La81 O107 2.628 . S
La81 O108 2.554 . S
La81 O109 2.757 . S
La81 O110 2.470 . S
C82 La80 2.928 . S
C82 C83 1.503 . S
C82 O100 1.261 . S
C82 O101 1.243 . S
C83 C82 1.503 . S
C83 C84 1.394 . S
C83 C88 1.373 . S
C84 C83 1.394 . S
C84 C85 1.380 . S
C84 H112 0.930 . S
C85 C84 1.380 . S
C85 C86 1.376 . S
C85 H113 0.930 . S
C86 C85 1.376 . S
C86 C87 1.370 . S
C87 C86 1.370 . S
C87 C88 1.396 . S
C87 H114 0.929 . S
C88 C83 1.373 . S
C88 C87 1.396 . S
C88 H115 0.929 . S
C89 O102 1.240 . S
C89 O103 1.289 . S
C90 O104 1.258 . S
C90 O105 1.256 . S
C91 La81 2.928 . S
C91 C92 1.503 . S
C91 O106 1.261 . S
C91 O107 1.243 . S
C92 C91 1.503 . S
C92 C93 1.394 . S
C92 C97 1.373 . S
C93 C92 1.394 . S
C93 C94 1.380 . S
C93 H116 0.930 . S
C94 C93 1.380 . S
C94 C95 1.376 . S
C94 H117 0.930 . S
C95 C94 1.376 . S
C95 C96 1.370 . S
C96 C95 1.370 . S
C96 C97 1.396 . S
C96 H118 0.929 . S
C97 C92 1.373 . S
C97 C96 1.396 . S
C97 H119 0.929 . S
C98 O108 1.240 . S
C98 O109 1.289 . S
C99 O110 1.258 . S
C99 O111 1.256 . S
O100 La80 2.521 . S
O100 C82 1.261 . S
O101 La80 2.628 . S
O101 C82 1.243 . S
O102 La80 2.554 . S
O102 C89 1.240 . S
O103 La80 2.757 . S
O103 La81 2.482 . S
O103 C89 1.289 . S
O104 La80 2.470 . S
O104 C90 1.258 . S
O105 La81 2.503 . S
O105 C90 1.256 . S
O106 La81 2.521 . S
O106 C91 1.261 . S
O107 La81 2.628 . S
O107 C91 1.243 . S
O108 La81 2.554 . S
O108 C98 1.240 . S
O109 La80 2.482 . S
O109 La81 2.757 . S
O109 C98 1.289 . S
O110 La81 2.470 . S
O110 C99 1.258 . S
O111 La80 2.503 . S
O111 C99 1.256 . S
H112 C84 0.930 . S
H113 C85 0.930 . S
H114 C87 0.929 . S
H115 C88 0.929 . S
H116 C93 0.930 . S
H117 C94 0.930 . S
H118 C96 0.929 . S
H119 C97 0.929 . S
La120 C122 2.928 . S
La120 O140 2.521 . S
La120 O141 2.628 . S
La120 O142 2.554 . S
La120 O143 2.757 . S
La120 O144 2.470 . S
La120 O149 2.482 . S
La120 O151 2.503 . S
La121 C131 2.928 . S
La121 O143 2.482 . S
La121 O145 2.503 . S
La121 O146 2.521 . S
La121 O147 2.628 . S
La121 O148 2.554 . S
La121 O149 2.757 . S
La121 O150 2.470 . S
C122 La120 2.928 . S
C122 C123 1.503 . S
C122 O140 1.261 . S
C122 O141 1.243 . S
C123 C122 1.503 . S
C123 C124 1.394 . S
C123 C128 1.373 . S
C124 C123 1.394 . S
C124 C125 1.380 . S
C124 H152 0.930 . S
C125 C124 1.380 . S
C125 C126 1.376 . S
C125 H153 0.930 . S
C126 C125 1.376 . S
C126 C127 1.370 . S
C127 C126 1.370 . S
C127 C128 1.396 . S
C127 H154 0.929 . S
C128 C123 1.373 . S
C128 C127 1.396 . S
C128 H155 0.929 . S
C129 O142 1.240 . S
C129 O143 1.289 . S
C130 O144 1.258 . S
C130 O145 1.256 . S
C131 La121 2.928 . S
C131 C132 1.503 . S
C131 O146 1.261 . S
C131 O147 1.243 . S
C132 C131 1.503 . S
C132 C133 1.394 . S
C132 C137 1.373 . S
C133 C132 1.394 . S
C133 C134 1.380 . S
C133 H156 0.930 . S
C134 C133 1.380 . S
C134 C135 1.376 . S
C134 H157 0.930 . S
C135 C134 1.376 . S
C135 C136 1.370 . S
C136 C135 1.370 . S
C136 C137 1.396 . S
C136 H158 0.929 . S
C137 C132 1.373 . S
C137 C136 1.396 . S
C137 H159 0.929 . S
C138 O148 1.240 . S
C138 O149 1.289 . S
C139 O150 1.258 . S
C139 O151 1.256 . S
O140 La120 2.521 . S
O140 C122 1.261 . S
O141 La120 2.628 . S
O141 C122 1.243 . S
O142 La120 2.554 . S
O142 C129 1.240 . S
O143 La120 2.757 . S
O143 La121 2.482 . S
O143 C129 1.289 . S
O144 La120 2.470 . S
O144 C130 1.258 . S
O145 La121 2.503 . S
O145 C130 1.256 . S
O146 La121 2.521 . S
O146 C131 1.261 . S
O147 La121 2.628 . S
O147 C131 1.243 . S
O148 La121 2.554 . S
O148 C138 1.240 . S
O149 La120 2.482 . S
O149 La121 2.757 . S
O149 C138 1.289 . S
O150 La121 2.470 . S
O150 C139 1.258 . S
O151 La120 2.503 . S
O151 C139 1.256 . S
H152 C124 0.930 . S
H153 C125 0.930 . S
H154 C127 0.929 . S
H155 C128 0.929 . S
H156 C133 0.930 . S
H157 C134 0.930 . S
H158 C136 0.929 . S
H159 C137 0.929 . S
La160 C162 2.928 . S
La160 O180 2.521 . S
La160 O181 2.628 . S
La160 O182 2.554 . S
La160 O183 2.757 . S
La160 O184 2.470 . S
La160 O189 2.482 . S
La160 O191 2.503 . S
La161 C171 2.928 . S
La161 O183 2.482 . S
La161 O185 2.503 . S
La161 O186 2.521 . S
La161 O187 2.628 . S
La161 O188 2.554 . S
La161 O189 2.757 . S
La161 O190 2.470 . S
C162 La160 2.928 . S
C162 C163 1.503 . S
C162 O180 1.261 . S
C162 O181 1.243 . S
C163 C162 1.503 . S
C163 C164 1.394 . S
C163 C168 1.373 . S
C164 C163 1.394 . S
C164 C165 1.380 . S
C164 H192 0.930 . S
C165 C164 1.380 . S
C165 C166 1.376 . S
C165 H193 0.930 . S
C166 C165 1.376 . S
C166 C167 1.370 . S
C167 C166 1.370 . S
C167 C168 1.396 . S
C167 H194 0.929 . S
C168 C163 1.373 . S
C168 C167 1.396 . S
C168 H195 0.929 . S
C169 O182 1.240 . S
C169 O183 1.289 . S
C170 O184 1.258 . S
C170 O185 1.256 . S
C171 La161 2.928 . S
C171 C172 1.503 . S
C171 O186 1.261 . S
C171 O187 1.243 . S
C172 C171 1.503 . S
C172 C173 1.394 . S
C172 C177 1.373 . S
C173 C172 1.394 . S
C173 C174 1.380 . S
C173 H196 0.930 . S
C174 C173 1.380 . S
C174 C175 1.376 . S
C174 H197 0.930 . S
C175 C174 1.376 . S
C175 C176 1.370 . S
C176 C175 1.370 . S
C176 C177 1.396 . S
C176 H198 0.929 . S
C177 C172 1.373 . S
C177 C176 1.396 . S
C177 H199 0.929 . S
C178 O188 1.240 . S
C178 O189 1.289 . S
C179 O190 1.258 . S
C179 O191 1.256 . S
O180 La160 2.521 . S
O180 C162 1.261 . S
O181 La160 2.628 . S
O181 C162 1.243 . S
O182 La160 2.554 . S
O182 C169 1.240 . S
O183 La160 2.757 . S
O183 La161 2.482 . S
O183 C169 1.289 . S
O184 La160 2.470 . S
O184 C170 1.258 . S
O185 La161 2.503 . S
O185 C170 1.256 . S
O186 La161 2.521 . S
O186 C171 1.261 . S
O187 La161 2.628 . S
O187 C171 1.243 . S
O188 La161 2.554 . S
O188 C178 1.240 . S
O189 La160 2.482 . S
O189 La161 2.757 . S
O189 C178 1.289 . S
O190 La161 2.470 . S
O190 C179 1.258 . S
O191 La160 2.503 . S
O191 C179 1.256 . S
H192 C164 0.930 . S
H193 C165 0.930 . S
H194 C167 0.929 . S
H195 C168 0.929 . S
H196 C173 0.930 . S
H197 C174 0.930 . S
H198 C176 0.929 . S
H199 C177 0.929 . S
La200 C202 2.928 . S
La200 O220 2.521 . S
La200 O221 2.628 . S
La200 O222 2.554 . S
La200 O223 2.757 . S
La200 O224 2.470 . S
La200 O229 2.482 . S
La200 O231 2.503 . S
La201 C211 2.928 . S
La201 O223 2.482 . S
La201 O225 2.503 . S
La201 O226 2.521 . S
La201 O227 2.628 . S
La201 O228 2.554 . S
La201 O229 2.757 . S
La201 O230 2.470 . S
C202 La200 2.928 . S
C202 C203 1.503 . S
C202 O220 1.261 . S
C202 O221 1.243 . S
C203 C202 1.503 . S
C203 C204 1.394 . S
C203 C208 1.373 . S
C204 C203 1.394 . S
C204 C205 1.380 . S
C204 H232 0.930 . S
C205 C204 1.380 . S
C205 C206 1.376 . S
C205 H233 0.930 . S
C206 C205 1.376 . S
C206 C207 1.370 . S
C207 C206 1.370 . S
C207 C208 1.396 . S
C207 H234 0.929 . S
C208 C203 1.373 . S
C208 C207 1.396 . S
C208 H235 0.929 . S
C209 O222 1.240 . S
C209 O223 1.289 . S
C210 O224 1.258 . S
C210 O225 1.256 . S
C211 La201 2.928 . S
C211 C212 1.503 . S
C211 O226 1.261 . S
C211 O227 1.243 . S
C212 C211 1.503 . S
C212 C213 1.394 . S
C212 C217 1.373 . S
C213 C212 1.394 . S
C213 C214 1.380 . S
C213 H236 0.930 . S
C214 C213 1.380 . S
C214 C215 1.376 . S
C214 H237 0.930 . S
C215 C214 1.376 . S
C215 C216 1.370 . S
C216 C215 1.370 . S
C216 C217 1.396 . S
C216 H238 0.929 . S
C217 C212 1.373 . S
C217 C216 1.396 . S
C217 H239 0.929 . S
C218 O228 1.240 . S
C218 O229 1.289 . S
C219 O230 1.258 . S
C219 O231 1.256 . S
O220 La200 2.521 . S
O220 C202 1.261 . S
O221 La200 2.628 . S
O221 C202 1.243 . S
O222 La200 2.554 . S
O222 C209 1.240 . S
O223 La200 2.757 . S
O223 La201 2.482 . S
O223 C209 1.289 . S
O224 La200 2.470 . S
O224 C210 1.258 . S
O225 La201 2.503 . S
O225 C210 1.256 . S
O226 La201 2.521 . S
O226 C211 1.261 . S
O227 La201 2.628 . S
O227 C211 1.243 . S
O228 La201 2.554 . S
O228 C218 1.240 . S
O229 La200 2.482 . S
O229 La201 2.757 . S
O229 C218 1.289 . S
O230 La201 2.470 . S
O230 C219 1.258 . S
O231 La200 2.503 . S
O231 C219 1.256 . S
H232 C204 0.930 . S
H233 C205 0.930 . S
H234 C207 0.929 . S
H235 C208 0.929 . S
H236 C213 0.930 . S
H237 C214 0.930 . S
H238 C216 0.929 . S
H239 C217 0.929 . S
La240 C242 2.928 . S
La240 O260 2.521 . S
La240 O261 2.628 . S
La240 O262 2.554 . S
La240 O263 2.757 . S
La240 O264 2.470 . S
La240 O269 2.482 . S
La240 O271 2.503 . S
La241 C251 2.928 . S
La241 O263 2.482 . S
La241 O265 2.503 . S
La241 O266 2.521 . S
La241 O267 2.628 . S
La241 O268 2.554 . S
La241 O269 2.757 . S
La241 O270 2.470 . S
C242 La240 2.928 . S
C242 C243 1.503 . S
C242 O260 1.261 . S
C242 O261 1.243 . S
C243 C242 1.503 . S
C243 C244 1.394 . S
C243 C248 1.373 . S
C244 C243 1.394 . S
C244 C245 1.380 . S
C244 H272 0.930 . S
C245 C244 1.380 . S
C245 C246 1.376 . S
C245 H273 0.930 . S
C246 C245 1.376 . S
C246 C247 1.370 . S
C247 C246 1.370 . S
C247 C248 1.396 . S
C247 H274 0.929 . S
C248 C243 1.373 . S
C248 C247 1.396 . S
C248 H275 0.929 . S
C249 O262 1.240 . S
C249 O263 1.289 . S
C250 O264 1.258 . S
C250 O265 1.256 . S
C251 La241 2.928 . S
C251 C252 1.503 . S
C251 O266 1.261 . S
C251 O267 1.243 . S
C252 C251 1.503 . S
C252 C253 1.394 . S
C252 C257 1.373 . S
C253 C252 1.394 . S
C253 C254 1.380 . S
C253 H276 0.930 . S
C254 C253 1.380 . S
C254 C255 1.376 . S
C254 H277 0.930 . S
C255 C254 1.376 . S
C255 C256 1.370 . S
C256 C255 1.370 . S
C256 C257 1.396 . S
C256 H278 0.929 . S
C257 C252 1.373 . S
C257 C256 1.396 . S
C257 H279 0.929 . S
C258 O268 1.240 . S
C258 O269 1.289 . S
C259 O270 1.258 . S
C259 O271 1.256 . S
O260 La240 2.521 . S
O260 C242 1.261 . S
O261 La240 2.628 . S
O261 C242 1.243 . S
O262 La240 2.554 . S
O262 C249 1.240 . S
O263 La240 2.757 . S
O263 La241 2.482 . S
O263 C249 1.289 . S
O264 La240 2.470 . S
O264 C250 1.258 . S
O265 La241 2.503 . S
O265 C250 1.256 . S
O266 La241 2.521 . S
O266 C251 1.261 . S
O267 La241 2.628 . S
O267 C251 1.243 . S
O268 La241 2.554 . S
O268 C258 1.240 . S
O269 La240 2.482 . S
O269 La241 2.757 . S
O269 C258 1.289 . S
O270 La241 2.470 . S
O270 C259 1.258 . S
O271 La240 2.503 . S
O271 C259 1.256 . S
H272 C244 0.930 . S
H273 C245 0.930 . S
H274 C247 0.929 . S
H275 C248 0.929 . S
H276 C253 0.930 . S
H277 C254 0.930 . S
H278 C256 0.929 . S
H279 C257 0.929 . S
La280 C282 2.928 . S
La280 O300 2.521 . S
La280 O301 2.628 . S
La280 O302 2.554 . S
La280 O303 2.757 . S
La280 O304 2.470 . S
La280 O309 2.482 . S
La280 O311 2.503 . S
La281 C291 2.928 . S
La281 O303 2.482 . S
La281 O305 2.503 . S
La281 O306 2.521 . S
La281 O307 2.628 . S
La281 O308 2.554 . S
La281 O309 2.757 . S
La281 O310 2.470 . S
C282 La280 2.928 . S
C282 C283 1.503 . S
C282 O300 1.261 . S
C282 O301 1.243 . S
C283 C282 1.503 . S
C283 C284 1.394 . S
C283 C288 1.373 . S
C284 C283 1.394 . S
C284 C285 1.380 . S
C284 H312 0.930 . S
C285 C284 1.380 . S
C285 C286 1.376 . S
C285 H313 0.930 . S
C286 C285 1.376 . S
C286 C287 1.370 . S
C287 C286 1.370 . S
C287 C288 1.396 . S
C287 H314 0.929 . S
C288 C283 1.373 . S
C288 C287 1.396 . S
C288 H315 0.929 . S
C289 O302 1.240 . S
C289 O303 1.289 . S
C290 O304 1.258 . S
C290 O305 1.256 . S
C291 La281 2.928 . S
C291 C292 1.503 . S
C291 O306 1.261 . S
C291 O307 1.243 . S
C292 C291 1.503 . S
C292 C293 1.394 . S
C292 C297 1.373 . S
C293 C292 1.394 . S
C293 C294 1.380 . S
C293 H316 0.930 . S
C294 C293 1.380 . S
C294 C295 1.376 . S
C294 H317 0.930 . S
C295 C294 1.376 . S
C295 C296 1.370 . S
C296 C295 1.370 . S
C296 C297 1.396 . S
C296 H318 0.929 . S
C297 C292 1.373 . S
C297 C296 1.396 . S
C297 H319 0.929 . S
C298 O308 1.240 . S
C298 O309 1.289 . S
C299 O310 1.258 . S
C299 O311 1.256 . S
O300 La280 2.521 . S
O300 C282 1.261 . S
O301 La280 2.628 . S
O301 C282 1.243 . S
O302 La280 2.554 . S
O302 C289 1.240 . S
O303 La280 2.757 . S
O303 La281 2.482 . S
O303 C289 1.289 . S
O304 La280 2.470 . S
O304 C290 1.258 . S
O305 La281 2.503 . S
O305 C290 1.256 . S
O306 La281 2.521 . S
O306 C291 1.261 . S
O307 La281 2.628 . S
O307 C291 1.243 . S
O308 La281 2.554 . S
O308 C298 1.240 . S
O309 La280 2.482 . S
O309 La281 2.757 . S
O309 C298 1.289 . S
O310 La281 2.470 . S
O310 C299 1.258 . S
O311 La280 2.503 . S
O311 C299 1.256 . S
H312 C284 0.930 . S
H313 C285 0.930 . S
H314 C287 0.929 . S
H315 C288 0.929 . S
H316 C293 0.930 . S
H317 C294 0.930 . S
H318 C296 0.929 . S
H319 C297 0.929 . S
La320 C322 2.928 . S
La320 O340 2.521 . S
La320 O341 2.628 . S
La320 O342 2.554 . S
La320 O343 2.757 . S
La320 O344 2.470 . S
La320 O349 2.482 . S
La320 O351 2.503 . S
La321 C331 2.928 . S
La321 O343 2.482 . S
La321 O345 2.503 . S
La321 O346 2.521 . S
La321 O347 2.628 . S
La321 O348 2.554 . S
La321 O349 2.757 . S
La321 O350 2.470 . S
C322 La320 2.928 . S
C322 C323 1.503 . S
C322 O340 1.261 . S
C322 O341 1.243 . S
C323 C322 1.503 . S
C323 C324 1.394 . S
C323 C328 1.373 . S
C324 C323 1.394 . S
C324 C325 1.380 . S
C324 H352 0.930 . S
C325 C324 1.380 . S
C325 C326 1.376 . S
C325 H353 0.930 . S
C326 C325 1.376 . S
C326 C327 1.370 . S
C327 C326 1.370 . S
C327 C328 1.396 . S
C327 H354 0.929 . S
C328 C323 1.373 . S
C328 C327 1.396 . S
C328 H355 0.929 . S
C329 O342 1.240 . S
C329 O343 1.289 . S
C330 O344 1.258 . S
C330 O345 1.256 . S
C331 La321 2.928 . S
C331 C332 1.503 . S
C331 O346 1.261 . S
C331 O347 1.243 . S
C332 C331 1.503 . S
C332 C333 1.394 . S
C332 C337 1.373 . S
C333 C332 1.394 . S
C333 C334 1.380 . S
C333 H356 0.930 . S
C334 C333 1.380 . S
C334 C335 1.376 . S
C334 H357 0.930 . S
C335 C334 1.376 . S
C335 C336 1.370 . S
C336 C335 1.370 . S
C336 C337 1.396 . S
C336 H358 0.929 . S
C337 C332 1.373 . S
C337 C336 1.396 . S
C337 H359 0.929 . S
C338 O348 1.240 . S
C338 O349 1.289 . S
C339 O350 1.258 . S
C339 O351 1.256 . S
O340 La320 2.521 . S
O340 C322 1.261 . S
O341 La320 2.628 . S
O341 C322 1.243 . S
O342 La320 2.554 . S
O342 C329 1.240 . S
O343 La320 2.757 . S
O343 La321 2.482 . S
O343 C329 1.289 . S
O344 La320 2.470 . S
O344 C330 1.258 . S
O345 La321 2.503 . S
O345 C330 1.256 . S
O346 La321 2.521 . S
O346 C331 1.261 . S
O347 La321 2.628 . S
O347 C331 1.243 . S
O348 La321 2.554 . S
O348 C338 1.240 . S
O349 La320 2.482 . S
O349 La321 2.757 . S
O349 C338 1.289 . S
O350 La321 2.470 . S
O350 C339 1.258 . S
O351 La320 2.503 . S
O351 C339 1.256 . S
H352 C324 0.930 . S
H353 C325 0.930 . S
H354 C327 0.929 . S
H355 C328 0.929 . S
H356 C333 0.930 . S
H357 C334 0.930 . S
H358 C336 0.929 . S
H359 C337 0.929 . S
La360 C362 2.928 . S
La360 O380 2.521 . S
La360 O381 2.628 . S
La360 O382 2.554 . S
La360 O383 2.757 . S
La360 O384 2.470 . S
La360 O389 2.482 . S
La360 O391 2.503 . S
La361 C371 2.928 . S
La361 O383 2.482 . S
La361 O385 2.503 . S
La361 O386 2.521 . S
La361 O387 2.628 . S
La361 O388 2.554 . S
La361 O389 2.757 . S
La361 O390 2.470 . S
C362 La360 2.928 . S
C362 C363 1.503 . S
C362 O380 1.261 . S
C362 O381 1.243 . S
C363 C362 1.503 . S
C363 C364 1.394 . S
C363 C368 1.373 . S
C364 C363 1.394 . S
C364 C365 1.380 . S
C364 H392 0.930 . S
C365 C364 1.380 . S
C365 C366 1.376 . S
C365 H393 0.930 . S
C366 C365 1.376 . S
C366 C367 1.370 . S
C367 C366 1.370 . S
C367 C368 1.396 . S
C367 H394 0.929 . S
C368 C363 1.373 . S
C368 C367 1.396 . S
C368 H395 0.929 . S
C369 O382 1.240 . S
C369 O383 1.289 . S
C370 O384 1.258 . S
C370 O385 1.256 . S
C371 La361 2.928 . S
C371 C372 1.503 . S
C371 O386 1.261 . S
C371 O387 1.243 . S
C372 C371 1.503 . S
C372 C373 1.394 . S
C372 C377 1.373 . S
C373 C372 1.394 . S
C373 C374 1.380 . S
C373 H396 0.930 . S
C374 C373 1.380 . S
C374 C375 1.376 . S
C374 H397 0.930 . S
C375 C374 1.376 . S
C375 C376 1.370 . S
C376 C375 1.370 . S
C376 C377 1.396 . S
C376 H398 0.929 . S
C377 C372 1.373 . S
C377 C376 1.396 . S
C377 H399 0.929 . S
C378 O388 1.240 . S
C378 O389 1.289 . S
C379 O390 1.258 . S
C379 O391 1.256 . S
O380 La360 2.521 . S
O380 C362 1.261 . S
O381 La360 2.628 . S
O381 C362 1.243 . S
O382 La360 2.554 . S
O382 C369 1.240 . S
O383 La360 2.757 . S
O383 La361 2.482 . S
O383 C369 1.289 . S
O384 La360 2.470 . S
O384 C370 1.258 . S
O385 La361 2.503 . S
O385 C370 1.256 . S
O386 La361 2.521 . S
O386 C371 1.261 . S
O387 La361 2.628 . S
O387 C371 1.243 . S
O388 La361 2.554 . S
O388 C378 1.240 . S
O389 La360 2.482 . S
O389 La361 2.757 . S
O389 C378 1.289 . S
O390 La361 2.470 . S
O390 C379 1.258 . S
O391 La360 2.503 . S
O391 C379 1.256 . S
H392 C364 0.930 . S
H393 C365 0.930 . S
H394 C367 0.929 . S
H395 C368 0.929 . S
H396 C373 0.930 . S
H397 C374 0.930 . S
H398 C376 0.929 . S
H399 C377 0.929 . S
La400 C402 2.928 . S
La400 O420 2.521 . S
La400 O421 2.628 . S
La400 O422 2.554 . S
La400 O423 2.757 . S
La400 O424 2.470 . S
La400 O429 2.482 . S
La400 O431 2.503 . S
La401 C411 2.928 . S
La401 O423 2.482 . S
La401 O425 2.503 . S
La401 O426 2.521 . S
La401 O427 2.628 . S
La401 O428 2.554 . S
La401 O429 2.757 . S
La401 O430 2.470 . S
C402 La400 2.928 . S
C402 C403 1.503 . S
C402 O420 1.261 . S
C402 O421 1.243 . S
C403 C402 1.503 . S
C403 C404 1.394 . S
C403 C408 1.373 . S
C404 C403 1.394 . S
C404 C405 1.380 . S
C404 H432 0.930 . S
C405 C404 1.380 . S
C405 C406 1.376 . S
C405 H433 0.930 . S
C406 C405 1.376 . S
C406 C407 1.370 . S
C407 C406 1.370 . S
C407 C408 1.396 . S
C407 H434 0.929 . S
C408 C403 1.373 . S
C408 C407 1.396 . S
C408 H435 0.929 . S
C409 O422 1.240 . S
C409 O423 1.289 . S
C410 O424 1.258 . S
C410 O425 1.256 . S
C411 La401 2.928 . S
C411 C412 1.503 . S
C411 O426 1.261 . S
C411 O427 1.243 . S
C412 C411 1.503 . S
C412 C413 1.394 . S
C412 C417 1.373 . S
C413 C412 1.394 . S
C413 C414 1.380 . S
C413 H436 0.930 . S
C414 C413 1.380 . S
C414 C415 1.376 . S
C414 H437 0.930 . S
C415 C414 1.376 . S
C415 C416 1.370 . S
C416 C415 1.370 . S
C416 C417 1.396 . S
C416 H438 0.929 . S
C417 C412 1.373 . S
C417 C416 1.396 . S
C417 H439 0.929 . S
C418 O428 1.240 . S
C418 O429 1.289 . S
C419 O430 1.258 . S
C419 O431 1.256 . S
O420 La400 2.521 . S
O420 C402 1.261 . S
O421 La400 2.628 . S
O421 C402 1.243 . S
O422 La400 2.554 . S
O422 C409 1.240 . S
O423 La400 2.757 . S
O423 La401 2.482 . S
O423 C409 1.289 . S
O424 La400 2.470 . S
O424 C410 1.258 . S
O425 La401 2.503 . S
O425 C410 1.256 . S
O426 La401 2.521 . S
O426 C411 1.261 . S
O427 La401 2.628 . S
O427 C411 1.243 . S
O428 La401 2.554 . S
O428 C418 1.240 . S
O429 La400 2.482 . S
O429 La401 2.757 . S
O429 C418 1.289 . S
O430 La401 2.470 . S
O430 C419 1.258 . S
O431 La400 2.503 . S
O431 C419 1.256 . S
H432 C404 0.930 . S
H433 C405 0.930 . S
H434 C407 0.929 . S
H435 C408 0.929 . S
H436 C413 0.930 . S
H437 C414 0.930 . S
H438 C416 0.929 . S
H439 C417 0.929 . S
La440 C442 2.928 . S
La440 O460 2.521 . S
La440 O461 2.628 . S
La440 O462 2.554 . S
La440 O463 2.757 . S
La440 O464 2.470 . S
La440 O469 2.482 . S
La440 O471 2.503 . S
La441 C451 2.928 . S
La441 O463 2.482 . S
La441 O465 2.503 . S
La441 O466 2.521 . S
La441 O467 2.628 . S
La441 O468 2.554 . S
La441 O469 2.757 . S
La441 O470 2.470 . S
C442 La440 2.928 . S
C442 C443 1.503 . S
C442 O460 1.261 . S
C442 O461 1.243 . S
C443 C442 1.503 . S
C443 C444 1.394 . S
C443 C448 1.373 . S
C444 C443 1.394 . S
C444 C445 1.380 . S
C444 H472 0.930 . S
C445 C444 1.380 . S
C445 C446 1.376 . S
C445 H473 0.930 . S
C446 C445 1.376 . S
C446 C447 1.370 . S
C447 C446 1.370 . S
C447 C448 1.396 . S
C447 H474 0.929 . S
C448 C443 1.373 . S
C448 C447 1.396 . S
C448 H475 0.929 . S
C449 O462 1.240 . S
C449 O463 1.289 . S
C450 O464 1.258 . S
C450 O465 1.256 . S
C451 La441 2.928 . S
C451 C452 1.503 . S
C451 O466 1.261 . S
C451 O467 1.243 . S
C452 C451 1.503 . S
C452 C453 1.394 . S
C452 C457 1.373 . S
C453 C452 1.394 . S
C453 C454 1.380 . S
C453 H476 0.930 . S
C454 C453 1.380 . S
C454 C455 1.376 . S
C454 H477 0.930 . S
C455 C454 1.376 . S
C455 C456 1.370 . S
C456 C455 1.370 . S
C456 C457 1.396 . S
C456 H478 0.929 . S
C457 C452 1.373 . S
C457 C456 1.396 . S
C457 H479 0.929 . S
C458 O468 1.240 . S
C458 O469 1.289 . S
C459 O470 1.258 . S
C459 O471 1.256 . S
O460 La440 2.521 . S
O460 C442 1.261 . S
O461 La440 2.628 . S
O461 C442 1.243 . S
O462 La440 2.554 . S
O462 C449 1.240 . S
O463 La440 2.757 . S
O463 La441 2.482 . S
O463 C449 1.289 . S
O464 La440 2.470 . S
O464 C450 1.258 . S
O465 La441 2.503 . S
O465 C450 1.256 . S
O466 La441 2.521 . S
O466 C451 1.261 . S
O467 La441 2.628 . S
O467 C451 1.243 . S
O468 La441 2.554 . S
O468 C458 1.240 . S
O469 La440 2.482 . S
O469 La441 2.757 . S
O469 C458 1.289 . S
O470 La441 2.470 . S
O470 C459 1.258 . S
O471 La440 2.503 . S
O471 C459 1.256 . S
H472 C444 0.930 . S
H473 C445 0.930 . S
H474 C447 0.929 . S
H475 C448 0.929 . S
H476 C453 0.930 . S
H477 C454 0.930 . S
H478 C456 0.929 . S
H479 C457 0.929 . S
La480 C482 2.928 . S
La480 O500 2.521 . S
La480 O501 2.628 . S
La480 O502 2.554 . S
La480 O503 2.757 . S
La480 O504 2.470 . S
La480 O509 2.482 . S
La480 O511 2.503 . S
La481 C491 2.928 . S
La481 O503 2.482 . S
La481 O505 2.503 . S
La481 O506 2.521 . S
La481 O507 2.628 . S
La481 O508 2.554 . S
La481 O509 2.757 . S
La481 O510 2.470 . S
C482 La480 2.928 . S
C482 C483 1.503 . S
C482 O500 1.261 . S
C482 O501 1.243 . S
C483 C482 1.503 . S
C483 C484 1.394 . S
C483 C488 1.373 . S
C484 C483 1.394 . S
C484 C485 1.380 . S
C484 H512 0.930 . S
C485 C484 1.380 . S
C485 C486 1.376 . S
C485 H513 0.930 . S
C486 C485 1.376 . S
C486 C487 1.370 . S
C487 C486 1.370 . S
C487 C488 1.396 . S
C487 H514 0.929 . S
C488 C483 1.373 . S
C488 C487 1.396 . S
C488 H515 0.929 . S
C489 O502 1.240 . S
C489 O503 1.289 . S
C490 O504 1.258 . S
C490 O505 1.256 . S
C491 La481 2.928 . S
C491 C492 1.503 . S
C491 O506 1.261 . S
C491 O507 1.243 . S
C492 C491 1.503 . S
C492 C493 1.394 . S
C492 C497 1.373 . S
C493 C492 1.394 . S
C493 C494 1.380 . S
C493 H516 0.930 . S
C494 C493 1.380 . S
C494 C495 1.376 . S
C494 H517 0.930 . S
C495 C494 1.376 . S
C495 C496 1.370 . S
C496 C495 1.370 . S
C496 C497 1.396 . S
C496 H518 0.929 . S
C497 C492 1.373 . S
C497 C496 1.396 . S
C497 H519 0.929 . S
C498 O508 1.240 . S
C498 O509 1.289 . S
C499 O510 1.258 . S
C499 O511 1.256 . S
O500 La480 2.521 . S
O500 C482 1.261 . S
O501 La480 2.628 . S
O501 C482 1.243 . S
O502 La480 2.554 . S
O502 C489 1.240 . S
O503 La480 2.757 . S
O503 La481 2.482 . S
O503 C489 1.289 . S
O504 La480 2.470 . S
O504 C490 1.258 . S
O505 La481 2.503 . S
O505 C490 1.256 . S
O506 La481 2.521 . S
O506 C491 1.261 . S
O507 La481 2.628 . S
O507 C491 1.243 . S
O508 La481 2.554 . S
O508 C498 1.240 . S
O509 La480 2.482 . S
O509 La481 2.757 . S
O509 C498 1.289 . S
O510 La481 2.470 . S
O510 C499 1.258 . S
O511 La480 2.503 . S
O511 C499 1.256 . S
H512 C484 0.930 . S
H513 C485 0.930 . S
H514 C487 0.929 . S
H515 C488 0.929 . S
H516 C493 0.930 . S
H517 C494 0.930 . S
H518 C496 0.929 . S
H519 C497 0.929 . S
La520 C522 2.928 . S
La520 O540 2.521 . S
La520 O541 2.628 . S
La520 O542 2.554 . S
La520 O543 2.757 . S
La520 O544 2.470 . S
La520 O549 2.482 . S
La520 O551 2.503 . S
La521 C531 2.928 . S
La521 O543 2.482 . S
La521 O545 2.503 . S
La521 O546 2.521 . S
La521 O547 2.628 . S
La521 O548 2.554 . S
La521 O549 2.757 . S
La521 O550 2.470 . S
C522 La520 2.928 . S
C522 C523 1.503 . S
C522 O540 1.261 . S
C522 O541 1.243 . S
C523 C522 1.503 . S
C523 C524 1.394 . S
C523 C528 1.373 . S
C524 C523 1.394 . S
C524 C525 1.380 . S
C524 H552 0.930 . S
C525 C524 1.380 . S
C525 C526 1.376 . S
C525 H553 0.930 . S
C526 C525 1.376 . S
C526 C527 1.370 . S
C527 C526 1.370 . S
C527 C528 1.396 . S
C527 H554 0.929 . S
C528 C523 1.373 . S
C528 C527 1.396 . S
C528 H555 0.929 . S
C529 O542 1.240 . S
C529 O543 1.289 . S
C530 O544 1.258 . S
C530 O545 1.256 . S
C531 La521 2.928 . S
C531 C532 1.503 . S
C531 O546 1.261 . S
C531 O547 1.243 . S
C532 C531 1.503 . S
C532 C533 1.394 . S
C532 C537 1.373 . S
C533 C532 1.394 . S
C533 C534 1.380 . S
C533 H556 0.930 . S
C534 C533 1.380 . S
C534 C535 1.376 . S
C534 H557 0.930 . S
C535 C534 1.376 . S
C535 C536 1.370 . S
C536 C535 1.370 . S
C536 C537 1.396 . S
C536 H558 0.929 . S
C537 C532 1.373 . S
C537 C536 1.396 . S
C537 H559 0.929 . S
C538 O548 1.240 . S
C538 O549 1.289 . S
C539 O550 1.258 . S
C539 O551 1.256 . S
O540 La520 2.521 . S
O540 C522 1.261 . S
O541 La520 2.628 . S
O541 C522 1.243 . S
O542 La520 2.554 . S
O542 C529 1.240 . S
O543 La520 2.757 . S
O543 La521 2.482 . S
O543 C529 1.289 . S
O544 La520 2.470 . S
O544 C530 1.258 . S
O545 La521 2.503 . S
O545 C530 1.256 . S
O546 La521 2.521 . S
O546 C531 1.261 . S
O547 La521 2.628 . S
O547 C531 1.243 . S
O548 La521 2.554 . S
O548 C538 1.240 . S
O549 La520 2.482 . S
O549 La521 2.757 . S
O549 C538 1.289 . S
O550 La521 2.470 . S
O550 C539 1.258 . S
O551 La520 2.503 . S
O551 C539 1.256 . S
H552 C524 0.930 . S
H553 C525 0.930 . S
H554 C527 0.929 . S
H555 C528 0.929 . S
H556 C533 0.930 . S
H557 C534 0.930 . S
H558 C536 0.929 . S
H559 C537 0.929 . S
La560 C562 2.928 . S
La560 O580 2.521 . S
La560 O581 2.628 . S
La560 O582 2.554 . S
La560 O583 2.757 . S
La560 O584 2.470 . S
La560 O589 2.482 . S
La560 O591 2.503 . S
La561 C571 2.928 . S
La561 O583 2.482 . S
La561 O585 2.503 . S
La561 O586 2.521 . S
La561 O587 2.628 . S
La561 O588 2.554 . S
La561 O589 2.757 . S
La561 O590 2.470 . S
C562 La560 2.928 . S
C562 C563 1.503 . S
C562 O580 1.261 . S
C562 O581 1.243 . S
C563 C562 1.503 . S
C563 C564 1.394 . S
C563 C568 1.373 . S
C564 C563 1.394 . S
C564 C565 1.380 . S
C564 H592 0.930 . S
C565 C564 1.380 . S
C565 C566 1.376 . S
C565 H593 0.930 . S
C566 C565 1.376 . S
C566 C567 1.370 . S
C567 C566 1.370 . S
C567 C568 1.396 . S
C567 H594 0.929 . S
C568 C563 1.373 . S
C568 C567 1.396 . S
C568 H595 0.929 . S
C569 O582 1.240 . S
C569 O583 1.289 . S
C570 O584 1.258 . S
C570 O585 1.256 . S
C571 La561 2.928 . S
C571 C572 1.503 . S
C571 O586 1.261 . S
C571 O587 1.243 . S
C572 C571 1.503 . S
C572 C573 1.394 . S
C572 C577 1.373 . S
C573 C572 1.394 . S
C573 C574 1.380 . S
C573 H596 0.930 . S
C574 C573 1.380 . S
C574 C575 1.376 . S
C574 H597 0.930 . S
C575 C574 1.376 . S
C575 C576 1.370 . S
C576 C575 1.370 . S
C576 C577 1.396 . S
C576 H598 0.929 . S
C577 C572 1.373 . S
C577 C576 1.396 . S
C577 H599 0.929 . S
C578 O588 1.240 . S
C578 O589 1.289 . S
C579 O590 1.258 . S
C579 O591 1.256 . S
O580 La560 2.521 . S
O580 C562 1.261 . S
O581 La560 2.628 . S
O581 C562 1.243 . S
O582 La560 2.554 . S
O582 C569 1.240 . S
O583 La560 2.757 . S
O583 La561 2.482 . S
O583 C569 1.289 . S
O584 La560 2.470 . S
O584 C570 1.258 . S
O585 La561 2.503 . S
O585 C570 1.256 . S
O586 La561 2.521 . S
O586 C571 1.261 . S
O587 La561 2.628 . S
O587 C571 1.243 . S
O588 La561 2.554 . S
O588 C578 1.240 . S
O589 La560 2.482 . S
O589 La561 2.757 . S
O589 C578 1.289 . S
O590 La561 2.470 . S
O590 C579 1.258 . S
O591 La560 2.503 . S
O591 C579 1.256 . S
H592 C564 0.930 . S
H593 C565 0.930 . S
H594 C567 0.929 . S
H595 C568 0.929 . S
H596 C573 0.930 . S
H597 C574 0.930 . S
H598 C576 0.929 . S
H599 C577 0.929 . S
La600 C602 2.928 . S
La600 O620 2.521 . S
La600 O621 2.628 . S
La600 O622 2.554 . S
La600 O623 2.757 . S
La600 O624 2.470 . S
La600 O629 2.482 . S
La600 O631 2.503 . S
La601 C611 2.928 . S
La601 O623 2.482 . S
La601 O625 2.503 . S
La601 O626 2.521 . S
La601 O627 2.628 . S
La601 O628 2.554 . S
La601 O629 2.757 . S
La601 O630 2.470 . S
C602 La600 2.928 . S
C602 C603 1.503 . S
C602 O620 1.261 . S
C602 O621 1.243 . S
C603 C602 1.503 . S
C603 C604 1.394 . S
C603 C608 1.373 1_655 S
C604 C603 1.394 . S
C604 C605 1.380 . S
C604 H632 0.930 . S
C605 C604 1.380 . S
C605 C606 1.376 . S
C605 H633 0.930 . S
C606 C605 1.376 . S
C606 C607 1.370 1_655 S
C607 C606 1.370 1_455 S
C607 C608 1.396 . S
C607 H634 0.929 . S
C608 C603 1.373 1_455 S
C608 C607 1.396 . S
C608 H635 0.929 . S
C609 O622 1.240 . S
C609 O623 1.289 . S
C610 O624 1.258 . S
C610 O625 1.256 . S
C611 La601 2.928 . S
C611 C612 1.503 . S
C611 O626 1.261 . S
C611 O627 1.243 . S
C612 C611 1.503 . S
C612 C613 1.394 . S
C612 C617 1.373 . S
C613 C612 1.394 . S
C613 C614 1.380 . S
C613 H636 0.930 . S
C614 C613 1.380 . S
C614 C615 1.376 . S
C614 H637 0.930 . S
C615 C614 1.376 . S
C615 C616 1.370 . S
C616 C615 1.370 . S
C616 C617 1.396 . S
C616 H638 0.929 . S
C617 C612 1.373 . S
C617 C616 1.396 . S
C617 H639 0.929 . S
C618 O628 1.240 . S
C618 O629 1.289 . S
C619 O630 1.258 . S
C619 O631 1.256 . S
O620 La600 2.521 . S
O620 C602 1.261 . S
O621 La600 2.628 . S
O621 C602 1.243 . S
O622 La600 2.554 . S
O622 C609 1.240 . S
O623 La600 2.757 . S
O623 La601 2.482 . S
O623 C609 1.289 . S
O624 La600 2.470 . S
O624 C610 1.258 . S
O625 La601 2.503 . S
O625 C610 1.256 . S
O626 La601 2.521 . S
O626 C611 1.261 . S
O627 La601 2.628 . S
O627 C611 1.243 . S
O628 La601 2.554 . S
O628 C618 1.240 . S
O629 La600 2.482 . S
O629 La601 2.757 . S
O629 C618 1.289 . S
O630 La601 2.470 . S
O630 C619 1.258 . S
O631 La600 2.503 . S
O631 C619 1.256 . S
H632 C604 0.930 . S
H633 C605 0.930 . S
H634 C607 0.929 . S
H635 C608 0.929 . S
H636 C613 0.930 . S
H637 C614 0.930 . S
H638 C616 0.929 . S
H639 C617 0.929 . S
La640 C642 2.928 . S
La640 O660 2.521 . S
La640 O661 2.628 . S
La640 O662 2.554 . S
La640 O663 2.757 . S
La640 O664 2.470 . S
La640 O669 2.482 . S
La640 O671 2.503 . S
La641 C651 2.928 . S
La641 O663 2.482 . S
La641 O665 2.503 . S
La641 O666 2.521 . S
La641 O667 2.628 . S
La641 O668 2.554 . S
La641 O669 2.757 . S
La641 O670 2.470 . S
C642 La640 2.928 . S
C642 C643 1.503 . S
C642 O660 1.261 . S
C642 O661 1.243 . S
C643 C642 1.503 . S
C643 C644 1.394 . S
C643 C648 1.373 . S
C644 C643 1.394 . S
C644 C645 1.380 . S
C644 H672 0.930 . S
C645 C644 1.380 . S
C645 C646 1.376 . S
C645 H673 0.930 . S
C646 C645 1.376 . S
C646 C647 1.370 . S
C647 C646 1.370 . S
C647 C648 1.396 . S
C647 H674 0.929 . S
C648 C643 1.373 . S
C648 C647 1.396 . S
C648 H675 0.929 . S
C649 O662 1.240 . S
C649 O663 1.289 . S
C650 O664 1.258 . S
C650 O665 1.256 . S
C651 La641 2.928 . S
C651 C652 1.503 . S
C651 O666 1.261 . S
C651 O667 1.243 . S
C652 C651 1.503 . S
C652 C653 1.394 . S
C652 C657 1.373 . S
C653 C652 1.394 . S
C653 C654 1.380 . S
C653 H676 0.930 . S
C654 C653 1.380 . S
C654 C655 1.376 . S
C654 H677 0.930 . S
C655 C654 1.376 . S
C655 C656 1.370 . S
C656 C655 1.370 . S
C656 C657 1.396 . S
C656 H678 0.929 . S
C657 C652 1.373 . S
C657 C656 1.396 . S
C657 H679 0.929 . S
C658 O668 1.240 . S
C658 O669 1.289 . S
C659 O670 1.258 . S
C659 O671 1.256 . S
O660 La640 2.521 . S
O660 C642 1.261 . S
O661 La640 2.628 . S
O661 C642 1.243 . S
O662 La640 2.554 . S
O662 C649 1.240 . S
O663 La640 2.757 . S
O663 La641 2.482 . S
O663 C649 1.289 . S
O664 La640 2.470 . S
O664 C650 1.258 . S
O665 La641 2.503 . S
O665 C650 1.256 . S
O666 La641 2.521 . S
O666 C651 1.261 . S
O667 La641 2.628 . S
O667 C651 1.243 . S
O668 La641 2.554 . S
O668 C658 1.240 . S
O669 La640 2.482 . S
O669 La641 2.757 . S
O669 C658 1.289 . S
O670 La641 2.470 . S
O670 C659 1.258 . S
O671 La640 2.503 . S
O671 C659 1.256 . S
H672 C644 0.930 . S
H673 C645 0.930 . S
H674 C647 0.929 . S
H675 C648 0.929 . S
H676 C653 0.930 . S
H677 C654 0.930 . S
H678 C656 0.929 . S
H679 C657 0.929 . S
La680 C682 2.928 . S
La680 O700 2.521 . S
La680 O701 2.628 . S
La680 O702 2.554 . S
La680 O703 2.757 . S
La680 O704 2.470 . S
La680 O709 2.482 . S
La680 O711 2.503 . S
La681 C691 2.928 . S
La681 O703 2.482 . S
La681 O705 2.503 . S
La681 O706 2.521 . S
La681 O707 2.628 . S
La681 O708 2.554 . S
La681 O709 2.757 . S
La681 O710 2.470 . S
C682 La680 2.928 . S
C682 C683 1.503 . S
C682 O700 1.261 . S
C682 O701 1.243 . S
C683 C682 1.503 . S
C683 C684 1.394 . S
C683 C688 1.373 1_545 S
C684 C683 1.394 . S
C684 C685 1.380 . S
C684 H712 0.930 . S
C685 C684 1.380 . S
C685 C686 1.376 . S
C685 H713 0.930 . S
C686 C685 1.376 . S
C686 C687 1.370 1_545 S
C687 C686 1.370 1_565 S
C687 C688 1.396 . S
C687 H714 0.929 . S
C688 C683 1.373 1_565 S
C688 C687 1.396 . S
C688 H715 0.929 . S
C689 O702 1.240 . S
C689 O703 1.289 . S
C690 O704 1.258 . S
C690 O705 1.256 . S
C691 La681 2.928 . S
C691 C692 1.503 . S
C691 O706 1.261 . S
C691 O707 1.243 . S
C692 C691 1.503 . S
C692 C693 1.394 . S
C692 C697 1.373 . S
C693 C692 1.394 . S
C693 C694 1.380 . S
C693 H716 0.930 . S
C694 C693 1.380 . S
C694 C695 1.376 . S
C694 H717 0.930 . S
C695 C694 1.376 . S
C695 C696 1.370 . S
C696 C695 1.370 . S
C696 C697 1.396 . S
C696 H718 0.929 . S
C697 C692 1.373 . S
C697 C696 1.396 . S
C697 H719 0.929 . S
C698 O708 1.240 . S
C698 O709 1.289 . S
C699 O710 1.258 . S
C699 O711 1.256 . S
O700 La680 2.521 . S
O700 C682 1.261 . S
O701 La680 2.628 . S
O701 C682 1.243 . S
O702 La680 2.554 . S
O702 C689 1.240 . S
O703 La680 2.757 . S
O703 La681 2.482 . S
O703 C689 1.289 . S
O704 La680 2.470 . S
O704 C690 1.258 . S
O705 La681 2.503 . S
O705 C690 1.256 . S
O706 La681 2.521 . S
O706 C691 1.261 . S
O707 La681 2.628 . S
O707 C691 1.243 . S
O708 La681 2.554 . S
O708 C698 1.240 . S
O709 La680 2.482 . S
O709 La681 2.757 . S
O709 C698 1.289 . S
O710 La681 2.470 . S
O710 C699 1.258 . S
O711 La680 2.503 . S
O711 C699 1.256 . S
H712 C684 0.930 . S
H713 C685 0.930 . S
H714 C687 0.929 . S
H715 C688 0.929 . S
H716 C693 0.930 . S
H717 C694 0.930 . S
H718 C696 0.929 . S
H719 C697 0.929 . S
La720 C722 2.928 . S
La720 O740 2.521 . S
La720 O741 2.628 . S
La720 O742 2.554 . S
La720 O743 2.757 . S
La720 O744 2.470 . S
La720 O749 2.482 . S
La720 O751 2.503 . S
La721 C731 2.928 . S
La721 O743 2.482 . S
La721 O745 2.503 . S
La721 O746 2.521 . S
La721 O747 2.628 . S
La721 O748 2.554 . S
La721 O749 2.757 . S
La721 O750 2.470 . S
C722 La720 2.928 . S
C722 C723 1.503 . S
C722 O740 1.261 . S
C722 O741 1.243 . S
C723 C722 1.503 . S
C723 C724 1.394 . S
C723 C728 1.373 . S
C724 C723 1.394 . S
C724 C725 1.380 . S
C724 H752 0.930 . S
C725 C724 1.380 . S
C725 C726 1.376 . S
C725 H753 0.930 . S
C726 C725 1.376 . S
C726 C727 1.370 . S
C727 C726 1.370 . S
C727 C728 1.396 . S
C727 H754 0.929 . S
C728 C723 1.373 . S
C728 C727 1.396 . S
C728 H755 0.929 . S
C729 O742 1.240 . S
C729 O743 1.289 . S
C730 O744 1.258 . S
C730 O745 1.256 . S
C731 La721 2.928 . S
C731 C732 1.503 . S
C731 O746 1.261 . S
C731 O747 1.243 . S
C732 C731 1.503 . S
C732 C733 1.394 . S
C732 C737 1.373 . S
C733 C732 1.394 . S
C733 C734 1.380 . S
C733 H756 0.930 . S
C734 C733 1.380 . S
C734 C735 1.376 . S
C734 H757 0.930 . S
C735 C734 1.376 . S
C735 C736 1.370 1_545 S
C736 C735 1.370 1_565 S
C736 C737 1.396 1_565 S
C736 H758 0.929 . S
C737 C732 1.373 . S
C737 C736 1.396 1_545 S
C737 H759 0.929 1_545 S
C738 O748 1.240 . S
C738 O749 1.289 . S
C739 O750 1.258 . S
C739 O751 1.256 . S
O740 La720 2.521 . S
O740 C722 1.261 . S
O741 La720 2.628 . S
O741 C722 1.243 . S
O742 La720 2.554 . S
O742 C729 1.240 . S
O743 La720 2.757 . S
O743 La721 2.482 . S
O743 C729 1.289 . S
O744 La720 2.470 . S
O744 C730 1.258 . S
O745 La721 2.503 . S
O745 C730 1.256 . S
O746 La721 2.521 . S
O746 C731 1.261 . S
O747 La721 2.628 . S
O747 C731 1.243 . S
O748 La721 2.554 . S
O748 C738 1.240 . S
O749 La720 2.482 . S
O749 La721 2.757 . S
O749 C738 1.289 . S
O750 La721 2.470 . S
O750 C739 1.258 . S
O751 La720 2.503 . S
O751 C739 1.256 . S
H752 C724 0.930 . S
H753 C725 0.930 . S
H754 C727 0.929 . S
H755 C728 0.929 . S
H756 C733 0.930 . S
H757 C734 0.930 . S
H758 C736 0.929 . S
H759 C737 0.929 1_565 S
La760 C762 2.928 . S
La760 O780 2.521 . S
La760 O781 2.628 . S
La760 O782 2.554 . S
La760 O783 2.757 . S
La760 O784 2.470 . S
La760 O789 2.482 . S
La760 O791 2.503 . S
La761 C771 2.928 . S
La761 O783 2.482 . S
La761 O785 2.503 . S
La761 O786 2.521 . S
La761 O787 2.628 . S
La761 O788 2.554 . S
La761 O789 2.757 . S
La761 O790 2.470 . S
C762 La760 2.928 . S
C762 C763 1.503 . S
C762 O780 1.261 . S
C762 O781 1.243 . S
C763 C762 1.503 . S
C763 C764 1.394 . S
C763 C768 1.373 . S
C764 C763 1.394 . S
C764 C765 1.380 . S
C764 H792 0.930 . S
C765 C764 1.380 . S
C765 C766 1.376 . S
C765 H793 0.930 . S
C766 C765 1.376 . S
C766 C767 1.370 . S
C767 C766 1.370 . S
C767 C768 1.396 . S
C767 H794 0.929 . S
C768 C763 1.373 . S
C768 C767 1.396 . S
C768 H795 0.929 . S
C769 O782 1.240 . S
C769 O783 1.289 . S
C770 O784 1.258 . S
C770 O785 1.256 . S
C771 La761 2.928 . S
C771 C772 1.503 . S
C771 O786 1.261 . S
C771 O787 1.243 . S
C772 C771 1.503 . S
C772 C773 1.394 . S
C772 C777 1.373 . S
C773 C772 1.394 . S
C773 C774 1.380 . S
C773 H796 0.930 . S
C774 C773 1.380 . S
C774 C775 1.376 . S
C774 H797 0.930 . S
C775 C774 1.376 . S
C775 C776 1.370 1_655 S
C776 C775 1.370 1_455 S
C776 C777 1.396 1_455 S
C776 H798 0.929 . S
C777 C772 1.373 . S
C777 C776 1.396 1_655 S
C777 H799 0.929 1_655 S
C778 O788 1.240 . S
C778 O789 1.289 . S
C779 O790 1.258 . S
C779 O791 1.256 . S
O780 La760 2.521 . S
O780 C762 1.261 . S
O781 La760 2.628 . S
O781 C762 1.243 . S
O782 La760 2.554 . S
O782 C769 1.240 . S
O783 La760 2.757 . S
O783 La761 2.482 . S
O783 C769 1.289 . S
O784 La760 2.470 . S
O784 C770 1.258 . S
O785 La761 2.503 . S
O785 C770 1.256 . S
O786 La761 2.521 . S
O786 C771 1.261 . S
O787 La761 2.628 . S
O787 C771 1.243 . S
O788 La761 2.554 . S
O788 C778 1.240 . S
O789 La760 2.482 . S
O789 La761 2.757 . S
O789 C778 1.289 . S
O790 La761 2.470 . S
O790 C779 1.258 . S
O791 La760 2.503 . S
O791 C779 1.256 . S
H792 C764 0.930 . S
H793 C765 0.930 . S
H794 C767 0.929 . S
H795 C768 0.929 . S
H796 C773 0.930 . S
H797 C774 0.930 . S
H798 C776 0.929 . S
H799 C777 0.929 1_455 S
La800 C802 2.928 . S
La800 O820 2.521 . S
La800 O821 2.628 . S
La800 O822 2.554 . S
La800 O823 2.757 . S
La800 O824 2.470 . S
La800 O829 2.482 . S
La800 O831 2.503 . S
La801 C811 2.928 . S
La801 O823 2.482 . S
La801 O825 2.503 . S
La801 O826 2.521 . S
La801 O827 2.628 . S
La801 O828 2.554 . S
La801 O829 2.757 . S
La801 O830 2.470 . S
C802 La800 2.928 . S
C802 C803 1.503 . S
C802 O820 1.261 . S
C802 O821 1.243 . S
C803 C802 1.503 . S
C803 C804 1.394 . S
C803 C808 1.373 . S
C804 C803 1.394 . S
C804 C805 1.380 . S
C804 H832 0.930 . S
C805 C804 1.380 . S
C805 C806 1.376 . S
C805 H833 0.930 . S
C806 C805 1.376 . S
C806 C807 1.370 . S
C807 C806 1.370 . S
C807 C808 1.396 . S
C807 H834 0.929 . S
C808 C803 1.373 . S
C808 C807 1.396 . S
C808 H835 0.929 . S
C809 O822 1.240 . S
C809 O823 1.289 . S
C810 O824 1.258 . S
C810 O825 1.256 . S
C811 La801 2.928 . S
C811 C812 1.503 . S
C811 O826 1.261 . S
C811 O827 1.243 . S
C812 C811 1.503 . S
C812 C813 1.394 . S
C812 C817 1.373 . S
C813 C812 1.394 . S
C813 C814 1.380 . S
C813 H836 0.930 . S
C814 C813 1.380 . S
C814 C815 1.376 . S
C814 H837 0.930 . S
C815 C814 1.376 . S
C815 C816 1.370 . S
C816 C815 1.370 . S
C816 C817 1.396 . S
C816 H838 0.929 . S
C817 C812 1.373 . S
C817 C816 1.396 . S
C817 H839 0.929 . S
C818 O828 1.240 . S
C818 O829 1.289 . S
C819 O830 1.258 . S
C819 O831 1.256 . S
O820 La800 2.521 . S
O820 C802 1.261 . S
O821 La800 2.628 . S
O821 C802 1.243 . S
O822 La800 2.554 . S
O822 C809 1.240 . S
O823 La800 2.757 . S
O823 La801 2.482 . S
O823 C809 1.289 . S
O824 La800 2.470 . S
O824 C810 1.258 . S
O825 La801 2.503 . S
O825 C810 1.256 . S
O826 La801 2.521 . S
O826 C811 1.261 . S
O827 La801 2.628 . S
O827 C811 1.243 . S
O828 La801 2.554 . S
O828 C818 1.240 . S
O829 La800 2.482 . S
O829 La801 2.757 . S
O829 C818 1.289 . S
O830 La801 2.470 . S
O830 C819 1.258 . S
O831 La800 2.503 . S
O831 C819 1.256 . S
H832 C804 0.930 . S
H833 C805 0.930 . S
H834 C807 0.929 . S
H835 C808 0.929 . S
H836 C813 0.930 . S
H837 C814 0.930 . S
H838 C816 0.929 . S
H839 C817 0.929 . S
La840 C842 2.928 . S
La840 O860 2.521 . S
La840 O861 2.628 . S
La840 O862 2.554 . S
La840 O863 2.757 1_554 S
La840 O864 2.470 . S
La840 O869 2.482 . S
La840 O871 2.503 . S
La841 C851 2.928 . S
La841 O863 2.482 . S
La841 O865 2.503 . S
La841 O866 2.521 . S
La841 O867 2.628 . S
La841 O868 2.554 . S
La841 O869 2.757 1_556 S
La841 O870 2.470 . S
C842 La840 2.928 . S
C842 C843 1.503 . S
C842 O860 1.261 . S
C842 O861 1.243 . S
C843 C842 1.503 . S
C843 C844 1.394 . S
C843 C848 1.373 . S
C844 C843 1.394 . S
C844 C845 1.380 . S
C844 H872 0.930 . S
C845 C844 1.380 . S
C845 C846 1.376 . S
C845 H873 0.930 . S
C846 C845 1.376 . S
C846 C847 1.370 . S
C847 C846 1.370 . S
C847 C848 1.396 . S
C847 H874 0.929 . S
C848 C843 1.373 . S
C848 C847 1.396 . S
C848 H875 0.929 . S
C849 O862 1.240 . S
C849 O863 1.289 1_554 S
C850 O864 1.258 . S
C850 O865 1.256 1_554 S
C851 La841 2.928 . S
C851 C852 1.503 . S
C851 O866 1.261 . S
C851 O867 1.243 . S
C852 C851 1.503 . S
C852 C853 1.394 . S
C852 C857 1.373 . S
C853 C852 1.394 . S
C853 C854 1.380 . S
C853 H876 0.930 . S
C854 C853 1.380 . S
C854 C855 1.376 . S
C854 H877 0.930 . S
C855 C854 1.376 . S
C855 C856 1.370 . S
C856 C855 1.370 . S
C856 C857 1.396 . S
C856 H878 0.929 . S
C857 C852 1.373 . S
C857 C856 1.396 . S
C857 H879 0.929 . S
C858 O868 1.240 . S
C858 O869 1.289 1_556 S
C859 O870 1.258 . S
C859 O871 1.256 1_556 S
O860 La840 2.521 . S
O860 C842 1.261 . S
O861 La840 2.628 . S
O861 C842 1.243 . S
O862 La840 2.554 . S
O862 C849 1.240 . S
O863 La840 2.757 1_556 S
O863 La841 2.482 . S
O863 C849 1.289 1_556 S
O864 La840 2.470 . S
O864 C850 1.258 . S
O865 La841 2.503 . S
O865 C850 1.256 1_556 S
O866 La841 2.521 . S
O866 C851 1.261 . S
O867 La841 2.628 . S
O867 C851 1.243 . S
O868 La841 2.554 . S
O868 C858 1.240 . S
O869 La840 2.482 . S
O869 La841 2.757 1_554 S
O869 C858 1.289 1_554 S
O870 La841 2.470 . S
O870 C859 1.258 . S
O871 La840 2.503 . S
O871 C859 1.256 1_554 S
H872 C844 0.930 . S
H873 C845 0.930 . S
H874 C847 0.929 . S
H875 C848 0.929 . S
H876 C853 0.930 . S
H877 C854 0.930 . S
H878 C856 0.929 . S
H879 C857 0.929 . S
La880 C882 2.928 . S
La880 O900 2.521 . S
La880 O901 2.628 . S
La880 O902 2.554 . S
La880 O903 2.757 1_554 S
La880 O904 2.470 . S
La880 O909 2.482 . S
La880 O911 2.503 . S
La881 C891 2.928 . S
La881 O903 2.482 . S
La881 O905 2.503 . S
La881 O906 2.521 . S
La881 O907 2.628 . S
La881 O908 2.554 . S
La881 O909 2.757 1_556 S
La881 O910 2.470 . S
C882 La880 2.928 . S
C882 C883 1.503 . S
C882 O900 1.261 . S
C882 O901 1.243 . S
C883 C882 1.503 . S
C883 C884 1.394 . S
C883 C888 1.373 . S
C884 C883 1.394 . S
C884 C885 1.380 . S
C884 H912 0.930 . S
C885 C884 1.380 . S
C885 C886 1.376 . S
C885 H913 0.930 . S
C886 C885 1.376 . S
C886 C887 1.370 . S
C887 C886 1.370 . S
C887 C888 1.396 . S
C887 H914 0.929 . S
C888 C883 1.373 . S
C888 C887 1.396 . S
C888 H915 0.929 . S
C889 O902 1.240 . S
C889 O903 1.289 1_554 S
C890 O904 1.258 . S
C890 O905 1.256 1_554 S
C891 La881 2.928 . S
C891 C892 1.503 . S
C891 O906 1.261 . S
C891 O907 1.243 . S
C892 C891 1.503 . S
C892 C893 1.394 . S
C892 C897 1.373 . S
C893 C892 1.394 . S
C893 C894 1.380 . S
C893 H916 0.930 . S
C894 C893 1.380 . S
C894 C895 1.376 . S
C894 H917 0.930 . S
C895 C894 1.376 . S
C895 C896 1.370 . S
C896 C895 1.370 . S
C896 C897 1.396 . S
C896 H918 0.929 . S
C897 C892 1.373 . S
C897 C896 1.396 . S
C897 H919 0.929 . S
C898 O908 1.240 . S
C898 O909 1.289 1_556 S
C899 O910 1.258 . S
C899 O911 1.256 1_556 S
O900 La880 2.521 . S
O900 C882 1.261 . S
O901 La880 2.628 . S
O901 C882 1.243 . S
O902 La880 2.554 . S
O902 C889 1.240 . S
O903 La880 2.757 1_556 S
O903 La881 2.482 . S
O903 C889 1.289 1_556 S
O904 La880 2.470 . S
O904 C890 1.258 . S
O905 La881 2.503 . S
O905 C890 1.256 1_556 S
O906 La881 2.521 . S
O906 C891 1.261 . S
O907 La881 2.628 . S
O907 C891 1.243 . S
O908 La881 2.554 . S
O908 C898 1.240 . S
O909 La880 2.482 . S
O909 La881 2.757 1_554 S
O909 C898 1.289 1_554 S
O910 La881 2.470 . S
O910 C899 1.258 . S
O911 La880 2.503 . S
O911 C899 1.256 1_554 S
H912 C884 0.930 . S
H913 C885 0.930 . S
H914 C887 0.929 . S
H915 C888 0.929 . S
H916 C893 0.930 . S
H917 C894 0.930 . S
H918 C896 0.929 . S
H919 C897 0.929 . S
La920 C922 2.928 . S
La920 O940 2.521 . S
La920 O941 2.628 . S
La920 O942 2.554 . S
La920 O943 2.757 1_554 S
La920 O944 2.470 . S
La920 O949 2.482 . S
La920 O951 2.503 . S
La921 C931 2.928 . S
La921 O943 2.482 . S
La921 O945 2.503 . S
La921 O946 2.521 . S
La921 O947 2.628 . S
La921 O948 2.554 . S
La921 O949 2.757 1_556 S
La921 O950 2.470 . S
C922 La920 2.928 . S
C922 C923 1.503 . S
C922 O940 1.261 . S
C922 O941 1.243 . S
C923 C922 1.503 . S
C923 C924 1.394 . S
C923 C928 1.373 . S
C924 C923 1.394 . S
C924 C925 1.380 . S
C924 H952 0.930 . S
C925 C924 1.380 . S
C925 C926 1.376 . S
C925 H953 0.930 . S
C926 C925 1.376 . S
C926 C927 1.370 . S
C927 C926 1.370 . S
C927 C928 1.396 . S
C927 H954 0.929 . S
C928 C923 1.373 . S
C928 C927 1.396 . S
C928 H955 0.929 . S
C929 O942 1.240 . S
C929 O943 1.289 1_554 S
C930 O944 1.258 . S
C930 O945 1.256 1_554 S
C931 La921 2.928 . S
C931 C932 1.503 . S
C931 O946 1.261 . S
C931 O947 1.243 . S
C932 C931 1.503 . S
C932 C933 1.394 . S
C932 C937 1.373 . S
C933 C932 1.394 . S
C933 C934 1.380 . S
C933 H956 0.930 . S
C934 C933 1.380 . S
C934 C935 1.376 . S
C934 H957 0.930 . S
C935 C934 1.376 . S
C935 C936 1.370 . S
C936 C935 1.370 . S
C936 C937 1.396 . S
C936 H958 0.929 . S
C937 C932 1.373 . S
C937 C936 1.396 . S
C937 H959 0.929 . S
C938 O948 1.240 . S
C938 O949 1.289 1_556 S
C939 O950 1.258 . S
C939 O951 1.256 1_556 S
O940 La920 2.521 . S
O940 C922 1.261 . S
O941 La920 2.628 . S
O941 C922 1.243 . S
O942 La920 2.554 . S
O942 C929 1.240 . S
O943 La920 2.757 1_556 S
O943 La921 2.482 . S
O943 C929 1.289 1_556 S
O944 La920 2.470 . S
O944 C930 1.258 . S
O945 La921 2.503 . S
O945 C930 1.256 1_556 S
O946 La921 2.521 . S
O946 C931 1.261 . S
O947 La921 2.628 . S
O947 C931 1.243 . S
O948 La921 2.554 . S
O948 C938 1.240 . S
O949 La920 2.482 . S
O949 La921 2.757 1_554 S
O949 C938 1.289 1_554 S
O950 La921 2.470 . S
O950 C939 1.258 . S
O951 La920 2.503 . S
O951 C939 1.256 1_554 S
H952 C924 0.930 . S
H953 C925 0.930 . S
H954 C927 0.929 . S
H955 C928 0.929 . S
H956 C933 0.930 . S
H957 C934 0.930 . S
H958 C936 0.929 . S
H959 C937 0.929 . S
La960 C962 2.928 . S
La960 O980 2.521 . S
La960 O981 2.628 . S
La960 O982 2.554 . S
La960 O983 2.757 . S
La960 O984 2.470 . S
La960 O989 2.482 . S
La960 O991 2.503 . S
La961 C971 2.928 . S
La961 O983 2.482 . S
La961 O985 2.503 . S
La961 O986 2.521 . S
La961 O987 2.628 . S
La961 O988 2.554 . S
La961 O989 2.757 . S
La961 O990 2.470 . S
C962 La960 2.928 . S
C962 C963 1.503 . S
C962 O980 1.261 . S
C962 O981 1.243 . S
C963 C962 1.503 . S
C963 C964 1.394 . S
C963 C968 1.373 . S
C964 C963 1.394 . S
C964 C965 1.380 . S
C964 H992 0.930 . S
C965 C964 1.380 . S
C965 C966 1.376 . S
C965 H993 0.930 . S
C966 C965 1.376 . S
C966 C967 1.370 1_565 S
C967 C966 1.370 1_545 S
C967 C968 1.396 1_545 S
C967 H994 0.929 . S
C968 C963 1.373 . S
C968 C967 1.396 1_565 S
C968 H995 0.929 1_565 S
C969 O982 1.240 . S
C969 O983 1.289 . S
C970 O984 1.258 . S
C970 O985 1.256 . S
C971 La961 2.928 . S
C971 C972 1.503 . S
C971 O986 1.261 . S
C971 O987 1.243 . S
C972 C971 1.503 . S
C972 C973 1.394 . S
C972 C977 1.373 . S
C973 C972 1.394 . S
C973 C974 1.380 . S
C973 H996 0.930 . S
C974 C973 1.380 . S
C974 C975 1.376 . S
C974 H997 0.930 . S
C975 C974 1.376 . S
C975 C976 1.370 . S
C976 C975 1.370 . S
C976 C977 1.396 . S
C976 H998 0.929 . S
C977 C972 1.373 . S
C977 C976 1.396 . S
C977 H999 0.929 . S
C978 O988 1.240 . S
C978 O989 1.289 . S
C979 O990 1.258 . S
C979 O991 1.256 . S
O980 La960 2.521 . S
O980 C962 1.261 . S
O981 La960 2.628 . S
O981 C962 1.243 . S
O982 La960 2.554 . S
O982 C969 1.240 . S
O983 La960 2.757 . S
O983 La961 2.482 . S
O983 C969 1.289 . S
O984 La960 2.470 . S
O984 C970 1.258 . S
O985 La961 2.503 . S
O985 C970 1.256 . S
O986 La961 2.521 . S
O986 C971 1.261 . S
O987 La961 2.628 . S
O987 C971 1.243 . S
O988 La961 2.554 . S
O988 C978 1.240 . S
O989 La960 2.482 . S
O989 La961 2.757 . S
O989 C978 1.289 . S
O990 La961 2.470 . S
O990 C979 1.258 . S
O991 La960 2.503 . S
O991 C979 1.256 . S
H992 C964 0.930 . S
H993 C965 0.930 . S
H994 C967 0.929 . S
H995 C968 0.929 1_545 S
H996 C973 0.930 . S
H997 C974 0.930 . S
H998 C976 0.929 . S
H999 C977 0.929 . S
La1000 C1002 2.928 . S
La1000 O1020 2.521 . S
La1000 O1021 2.628 . S
La1000 O1022 2.554 . S
La1000 O1023 2.757 . S
La1000 O1024 2.470 . S
La1000 O1029 2.482 . S
La1000 O1031 2.503 . S
La1001 C1011 2.928 . S
La1001 O1023 2.482 . S
La1001 O1025 2.503 . S
La1001 O1026 2.521 . S
La1001 O1027 2.628 . S
La1001 O1028 2.554 . S
La1001 O1029 2.757 . S
La1001 O1030 2.470 . S
C1002 La1000 2.928 . S
C1002 C1003 1.503 . S
C1002 O1020 1.261 . S
C1002 O1021 1.243 . S
C1003 C1002 1.503 . S
C1003 C1004 1.394 . S
C1003 C1008 1.373 . S
C1004 C1003 1.394 . S
C1004 C1005 1.380 . S
C1004 H1032 0.930 . S
C1005 C1004 1.380 . S
C1005 C1006 1.376 . S
C1005 H1033 0.930 . S
C1006 C1005 1.376 . S
C1006 C1007 1.370 1_455 S
C1007 C1006 1.370 1_655 S
C1007 C1008 1.396 1_655 S
C1007 H1034 0.929 . S
C1008 C1003 1.373 . S
C1008 C1007 1.396 1_455 S
C1008 H1035 0.929 1_455 S
C1009 O1022 1.240 . S
C1009 O1023 1.289 . S
C1010 O1024 1.258 . S
C1010 O1025 1.256 . S
C1011 La1001 2.928 . S
C1011 C1012 1.503 . S
C1011 O1026 1.261 . S
C1011 O1027 1.243 . S
C1012 C1011 1.503 . S
C1012 C1013 1.394 . S
C1012 C1017 1.373 . S
C1013 C1012 1.394 . S
C1013 C1014 1.380 . S
C1013 H1036 0.930 . S
C1014 C1013 1.380 . S
C1014 C1015 1.376 . S
C1014 H1037 0.930 . S
C1015 C1014 1.376 . S
C1015 C1016 1.370 . S
C1016 C1015 1.370 . S
C1016 C1017 1.396 . S
C1016 H1038 0.929 . S
C1017 C1012 1.373 . S
C1017 C1016 1.396 . S
C1017 H1039 0.929 . S
C1018 O1028 1.240 . S
C1018 O1029 1.289 . S
C1019 O1030 1.258 . S
C1019 O1031 1.256 . S
O1020 La1000 2.521 . S
O1020 C1002 1.261 . S
O1021 La1000 2.628 . S
O1021 C1002 1.243 . S
O1022 La1000 2.554 . S
O1022 C1009 1.240 . S
O1023 La1000 2.757 . S
O1023 La1001 2.482 . S
O1023 C1009 1.289 . S
O1024 La1000 2.470 . S
O1024 C1010 1.258 . S
O1025 La1001 2.503 . S
O1025 C1010 1.256 . S
O1026 La1001 2.521 . S
O1026 C1011 1.261 . S
O1027 La1001 2.628 . S
O1027 C1011 1.243 . S
O1028 La1001 2.554 . S
O1028 C1018 1.240 . S
O1029 La1000 2.482 . S
O1029 La1001 2.757 . S
O1029 C1018 1.289 . S
O1030 La1001 2.470 . S
O1030 C1019 1.258 . S
O1031 La1000 2.503 . S
O1031 C1019 1.256 . S
H1032 C1004 0.930 . S
H1033 C1005 0.930 . S
H1034 C1007 0.929 . S
H1035 C1008 0.929 1_655 S
H1036 C1013 0.930 . S
H1037 C1014 0.930 . S
H1038 C1016 0.929 . S
H1039 C1017 0.929 . S
La1040 C1042 2.928 . S
La1040 O1060 2.521 . S
La1040 O1061 2.628 . S
La1040 O1062 2.554 . S
La1040 O1063 2.757 . S
La1040 O1064 2.470 . S
La1040 O1069 2.482 . S
La1040 O1071 2.503 . S
La1041 C1051 2.928 . S
La1041 O1063 2.482 . S
La1041 O1065 2.503 . S
La1041 O1066 2.521 . S
La1041 O1067 2.628 . S
La1041 O1068 2.554 . S
La1041 O1069 2.757 . S
La1041 O1070 2.470 . S
C1042 La1040 2.928 . S
C1042 C1043 1.503 . S
C1042 O1060 1.261 . S
C1042 O1061 1.243 . S
C1043 C1042 1.503 . S
C1043 C1044 1.394 . S
C1043 C1048 1.373 . S
C1044 C1043 1.394 . S
C1044 C1045 1.380 . S
C1044 H1072 0.930 . S
C1045 C1044 1.380 . S
C1045 C1046 1.376 . S
C1045 H1073 0.930 . S
C1046 C1045 1.376 . S
C1046 C1047 1.370 . S
C1047 C1046 1.370 . S
C1047 C1048 1.396 . S
C1047 H1074 0.929 . S
C1048 C1043 1.373 . S
C1048 C1047 1.396 . S
C1048 H1075 0.929 . S
C1049 O1062 1.240 . S
C1049 O1063 1.289 . S
C1050 O1064 1.258 . S
C1050 O1065 1.256 . S
C1051 La1041 2.928 . S
C1051 C1052 1.503 . S
C1051 O1066 1.261 . S
C1051 O1067 1.243 . S
C1052 C1051 1.503 . S
C1052 C1053 1.394 . S
C1052 C1057 1.373 . S
C1053 C1052 1.394 . S
C1053 C1054 1.380 . S
C1053 H1076 0.930 . S
C1054 C1053 1.380 . S
C1054 C1055 1.376 . S
C1054 H1077 0.930 . S
C1055 C1054 1.376 . S
C1055 C1056 1.370 . S
C1056 C1055 1.370 . S
C1056 C1057 1.396 . S
C1056 H1078 0.929 . S
C1057 C1052 1.373 . S
C1057 C1056 1.396 . S
C1057 H1079 0.929 . S
C1058 O1068 1.240 . S
C1058 O1069 1.289 . S
C1059 O1070 1.258 . S
C1059 O1071 1.256 . S
O1060 La1040 2.521 . S
O1060 C1042 1.261 . S
O1061 La1040 2.628 . S
O1061 C1042 1.243 . S
O1062 La1040 2.554 . S
O1062 C1049 1.240 . S
O1063 La1040 2.757 . S
O1063 La1041 2.482 . S
O1063 C1049 1.289 . S
O1064 La1040 2.470 . S
O1064 C1050 1.258 . S
O1065 La1041 2.503 . S
O1065 C1050 1.256 . S
O1066 La1041 2.521 . S
O1066 C1051 1.261 . S
O1067 La1041 2.628 . S
O1067 C1051 1.243 . S
O1068 La1041 2.554 . S
O1068 C1058 1.240 . S
O1069 La1040 2.482 . S
O1069 La1041 2.757 . S
O1069 C1058 1.289 . S
O1070 La1041 2.470 . S
O1070 C1059 1.258 . S
O1071 La1040 2.503 . S
O1071 C1059 1.256 . S
H1072 C1044 0.930 . S
H1073 C1045 0.930 . S
H1074 C1047 0.929 . S
H1075 C1048 0.929 . S
H1076 C1053 0.930 . S
H1077 C1054 0.930 . S
H1078 C1056 0.929 . S
H1079 C1057 0.929 . S
La1080 C1082 2.928 . S
La1080 O1100 2.521 . S
La1080 O1101 2.628 . S
La1080 O1102 2.554 . S
La1080 O1103 2.757 1_554 S
La1080 O1104 2.470 . S
La1080 O1109 2.482 . S
La1080 O1111 2.503 . S
La1081 C1091 2.928 . S
La1081 O1103 2.482 . S
La1081 O1105 2.503 . S
La1081 O1106 2.521 . S
La1081 O1107 2.628 . S
La1081 O1108 2.554 . S
La1081 O1109 2.757 1_556 S
La1081 O1110 2.470 . S
C1082 La1080 2.928 . S
C1082 C1083 1.503 . S
C1082 O1100 1.261 . S
C1082 O1101 1.243 . S
C1083 C1082 1.503 . S
C1083 C1084 1.394 . S
C1083 C1088 1.373 . S
C1084 C1083 1.394 . S
C1084 C1085 1.380 . S
C1084 H1112 0.930 . S
C1085 C1084 1.380 . S
C1085 C1086 1.376 . S
C1085 H1113 0.930 . S
C1086 C1085 1.376 . S
C1086 C1087 1.370 . S
C1087 C1086 1.370 . S
C1087 C1088 1.396 . S
C1087 H1114 0.929 . S
C1088 C1083 1.373 . S
C1088 C1087 1.396 . S
C1088 H1115 0.929 . S
C1089 O1102 1.240 . S
C1089 O1103 1.289 1_554 S
C1090 O1104 1.258 . S
C1090 O1105 1.256 1_554 S
C1091 La1081 2.928 . S
C1091 C1092 1.503 . S
C1091 O1106 1.261 . S
C1091 O1107 1.243 . S
C1092 C1091 1.503 . S
C1092 C1093 1.394 . S
C1092 C1097 1.373 . S
C1093 C1092 1.394 . S
C1093 C1094 1.380 . S
C1093 H1116 0.930 . S
C1094 C1093 1.380 . S
C1094 C1095 1.376 . S
C1094 H1117 0.930 . S
C1095 C1094 1.376 . S
C1095 C1096 1.370 . S
C1096 C1095 1.370 . S
C1096 C1097 1.396 . S
C1096 H1118 0.929 . S
C1097 C1092 1.373 . S
C1097 C1096 1.396 . S
C1097 H1119 0.929 . S
C1098 O1108 1.240 . S
C1098 O1109 1.289 1_556 S
C1099 O1110 1.258 . S
C1099 O1111 1.256 1_556 S
O1100 La1080 2.521 . S
O1100 C1082 1.261 . S
O1101 La1080 2.628 . S
O1101 C1082 1.243 . S
O1102 La1080 2.554 . S
O1102 C1089 1.240 . S
O1103 La1080 2.757 1_556 S
O1103 La1081 2.482 . S
O1103 C1089 1.289 1_556 S
O1104 La1080 2.470 . S
O1104 C1090 1.258 . S
O1105 La1081 2.503 . S
O1105 C1090 1.256 1_556 S
O1106 La1081 2.521 . S
O1106 C1091 1.261 . S
O1107 La1081 2.628 . S
O1107 C1091 1.243 . S
O1108 La1081 2.554 . S
O1108 C1098 1.240 . S
O1109 La1080 2.482 . S
O1109 La1081 2.757 1_554 S
O1109 C1098 1.289 1_554 S
O1110 La1081 2.470 . S
O1110 C1099 1.258 . S
O1111 La1080 2.503 . S
O1111 C1099 1.256 1_554 S
H1112 C1084 0.930 . S
H1113 C1085 0.930 . S
H1114 C1087 0.929 . S
H1115 C1088 0.929 . S
H1116 C1093 0.930 . S
H1117 C1094 0.930 . S
H1118 C1096 0.929 . S
H1119 C1097 0.929 . S
La1120 C1122 2.928 . S
La1120 O1140 2.521 . S
La1120 O1141 2.628 . S
La1120 O1142 2.554 . S
La1120 O1143 2.757 1_554 S
La1120 O1144 2.470 . S
La1120 O1149 2.482 . S
La1120 O1151 2.503 . S
La1121 C1131 2.928 . S
La1121 O1143 2.482 . S
La1121 O1145 2.503 . S
La1121 O1146 2.521 . S
La1121 O1147 2.628 . S
La1121 O1148 2.554 . S
La1121 O1149 2.757 1_556 S
La1121 O1150 2.470 . S
C1122 La1120 2.928 . S
C1122 C1123 1.503 . S
C1122 O1140 1.261 . S
C1122 O1141 1.243 . S
C1123 C1122 1.503 . S
C1123 C1124 1.394 . S
C1123 C1128 1.373 . S
C1124 C1123 1.394 . S
C1124 C1125 1.380 . S
C1124 H1152 0.930 . S
C1125 C1124 1.380 . S
C1125 C1126 1.376 . S
C1125 H1153 0.930 . S
C1126 C1125 1.376 . S
C1126 C1127 1.370 . S
C1127 C1126 1.370 . S
C1127 C1128 1.396 . S
C1127 H1154 0.929 . S
C1128 C1123 1.373 . S
C1128 C1127 1.396 . S
C1128 H1155 0.929 . S
C1129 O1142 1.240 . S
C1129 O1143 1.289 1_554 S
C1130 O1144 1.258 . S
C1130 O1145 1.256 1_554 S
C1131 La1121 2.928 . S
C1131 C1132 1.503 . S
C1131 O1146 1.261 . S
C1131 O1147 1.243 . S
C1132 C1131 1.503 . S
C1132 C1133 1.394 . S
C1132 C1137 1.373 . S
C1133 C1132 1.394 . S
C1133 C1134 1.380 . S
C1133 H1156 0.930 . S
C1134 C1133 1.380 . S
C1134 C1135 1.376 . S
C1134 H1157 0.930 . S
C1135 C1134 1.376 . S
C1135 C1136 1.370 . S
C1136 C1135 1.370 . S
C1136 C1137 1.396 . S
C1136 H1158 0.929 . S
C1137 C1132 1.373 . S
C1137 C1136 1.396 . S
C1137 H1159 0.929 . S
C1138 O1148 1.240 . S
C1138 O1149 1.289 1_556 S
C1139 O1150 1.258 . S
C1139 O1151 1.256 1_556 S
O1140 La1120 2.521 . S
O1140 C1122 1.261 . S
O1141 La1120 2.628 . S
O1141 C1122 1.243 . S
O1142 La1120 2.554 . S
O1142 C1129 1.240 . S
O1143 La1120 2.757 1_556 S
O1143 La1121 2.482 . S
O1143 C1129 1.289 1_556 S
O1144 La1120 2.470 . S
O1144 C1130 1.258 . S
O1145 La1121 2.503 . S
O1145 C1130 1.256 1_556 S
O1146 La1121 2.521 . S
O1146 C1131 1.261 . S
O1147 La1121 2.628 . S
O1147 C1131 1.243 . S
O1148 La1121 2.554 . S
O1148 C1138 1.240 . S
O1149 La1120 2.482 . S
O1149 La1121 2.757 1_554 S
O1149 C1138 1.289 1_554 S
O1150 La1121 2.470 . S
O1150 C1139 1.258 . S
O1151 La1120 2.503 . S
O1151 C1139 1.256 1_554 S
H1152 C1124 0.930 . S
H1153 C1125 0.930 . S
H1154 C1127 0.929 . S
H1155 C1128 0.929 . S
H1156 C1133 0.930 . S
H1157 C1134 0.930 . S
H1158 C1136 0.929 . S
H1159 C1137 0.929 . S
La1160 C1162 2.928 . S
La1160 O1180 2.521 . S
La1160 O1181 2.628 . S
La1160 O1182 2.554 . S
La1160 O1183 2.757 1_554 S
La1160 O1184 2.470 . S
La1160 O1189 2.482 . S
La1160 O1191 2.503 . S
La1161 C1171 2.928 . S
La1161 O1183 2.482 . S
La1161 O1185 2.503 . S
La1161 O1186 2.521 . S
La1161 O1187 2.628 . S
La1161 O1188 2.554 . S
La1161 O1189 2.757 1_556 S
La1161 O1190 2.470 . S
C1162 La1160 2.928 . S
C1162 C1163 1.503 . S
C1162 O1180 1.261 . S
C1162 O1181 1.243 . S
C1163 C1162 1.503 . S
C1163 C1164 1.394 . S
C1163 C1168 1.373 . S
C1164 C1163 1.394 . S
C1164 C1165 1.380 . S
C1164 H1192 0.930 . S
C1165 C1164 1.380 . S
C1165 C1166 1.376 . S
C1165 H1193 0.930 . S
C1166 C1165 1.376 . S
C1166 C1167 1.370 . S
C1167 C1166 1.370 . S
C1167 C1168 1.396 . S
C1167 H1194 0.929 . S
C1168 C1163 1.373 . S
C1168 C1167 1.396 . S
C1168 H1195 0.929 . S
C1169 O1182 1.240 . S
C1169 O1183 1.289 1_554 S
C1170 O1184 1.258 . S
C1170 O1185 1.256 1_554 S
C1171 La1161 2.928 . S
C1171 C1172 1.503 . S
C1171 O1186 1.261 . S
C1171 O1187 1.243 . S
C1172 C1171 1.503 . S
C1172 C1173 1.394 . S
C1172 C1177 1.373 . S
C1173 C1172 1.394 . S
C1173 C1174 1.380 . S
C1173 H1196 0.930 . S
C1174 C1173 1.380 . S
C1174 C1175 1.376 . S
C1174 H1197 0.930 . S
C1175 C1174 1.376 . S
C1175 C1176 1.370 . S
C1176 C1175 1.370 . S
C1176 C1177 1.396 . S
C1176 H1198 0.929 . S
C1177 C1172 1.373 . S
C1177 C1176 1.396 . S
C1177 H1199 0.929 . S
C1178 O1188 1.240 . S
C1178 O1189 1.289 1_556 S
C1179 O1190 1.258 . S
C1179 O1191 1.256 1_556 S
O1180 La1160 2.521 . S
O1180 C1162 1.261 . S
O1181 La1160 2.628 . S
O1181 C1162 1.243 . S
O1182 La1160 2.554 . S
O1182 C1169 1.240 . S
O1183 La1160 2.757 1_556 S
O1183 La1161 2.482 . S
O1183 C1169 1.289 1_556 S
O1184 La1160 2.470 . S
O1184 C1170 1.258 . S
O1185 La1161 2.503 . S
O1185 C1170 1.256 1_556 S
O1186 La1161 2.521 . S
O1186 C1171 1.261 . S
O1187 La1161 2.628 . S
O1187 C1171 1.243 . S
O1188 La1161 2.554 . S
O1188 C1178 1.240 . S
O1189 La1160 2.482 . S
O1189 La1161 2.757 1_554 S
O1189 C1178 1.289 1_554 S
O1190 La1161 2.470 . S
O1190 C1179 1.258 . S
O1191 La1160 2.503 . S
O1191 C1179 1.256 1_554 S
H1192 C1164 0.930 . S
H1193 C1165 0.930 . S
H1194 C1167 0.929 . S
H1195 C1168 0.929 . S
H1196 C1173 0.930 . S
H1197 C1174 0.930 . S
H1198 C1176 0.929 . S
H1199 C1177 0.929 . S
La1200 C1202 2.928 . S
La1200 O1220 2.521 . S
La1200 O1221 2.628 . S
La1200 O1222 2.554 . S
La1200 O1223 2.757 . S
La1200 O1224 2.470 . S
La1200 O1229 2.482 . S
La1200 O1231 2.503 . S
La1201 C1211 2.928 . S
La1201 O1223 2.482 . S
La1201 O1225 2.503 . S
La1201 O1226 2.521 . S
La1201 O1227 2.628 . S
La1201 O1228 2.554 . S
La1201 O1229 2.757 . S
La1201 O1230 2.470 . S
C1202 La1200 2.928 . S
C1202 C1203 1.503 . S
C1202 O1220 1.261 . S
C1202 O1221 1.243 . S
C1203 C1202 1.503 . S
C1203 C1204 1.394 . S
C1203 C1208 1.373 . S
C1204 C1203 1.394 . S
C1204 C1205 1.380 . S
C1204 H1232 0.930 . S
C1205 C1204 1.380 . S
C1205 C1206 1.376 . S
C1205 H1233 0.930 . S
C1206 C1205 1.376 . S
C1206 C1207 1.370 . S
C1207 C1206 1.370 . S
C1207 C1208 1.396 . S
C1207 H1234 0.929 . S
C1208 C1203 1.373 . S
C1208 C1207 1.396 . S
C1208 H1235 0.929 . S
C1209 O1222 1.240 . S
C1209 O1223 1.289 . S
C1210 O1224 1.258 . S
C1210 O1225 1.256 . S
C1211 La1201 2.928 . S
C1211 C1212 1.503 . S
C1211 O1226 1.261 . S
C1211 O1227 1.243 . S
C1212 C1211 1.503 . S
C1212 C1213 1.394 . S
C1212 C1217 1.373 . S
C1213 C1212 1.394 . S
C1213 C1214 1.380 . S
C1213 H1236 0.930 . S
C1214 C1213 1.380 . S
C1214 C1215 1.376 . S
C1214 H1237 0.930 . S
C1215 C1214 1.376 . S
C1215 C1216 1.370 . S
C1216 C1215 1.370 . S
C1216 C1217 1.396 . S
C1216 H1238 0.929 . S
C1217 C1212 1.373 . S
C1217 C1216 1.396 . S
C1217 H1239 0.929 . S
C1218 O1228 1.240 . S
C1218 O1229 1.289 . S
C1219 O1230 1.258 . S
C1219 O1231 1.256 . S
O1220 La1200 2.521 . S
O1220 C1202 1.261 . S
O1221 La1200 2.628 . S
O1221 C1202 1.243 . S
O1222 La1200 2.554 . S
O1222 C1209 1.240 . S
O1223 La1200 2.757 . S
O1223 La1201 2.482 . S
O1223 C1209 1.289 . S
O1224 La1200 2.470 . S
O1224 C1210 1.258 . S
O1225 La1201 2.503 . S
O1225 C1210 1.256 . S
O1226 La1201 2.521 . S
O1226 C1211 1.261 . S
O1227 La1201 2.628 . S
O1227 C1211 1.243 . S
O1228 La1201 2.554 . S
O1228 C1218 1.240 . S
O1229 La1200 2.482 . S
O1229 La1201 2.757 . S
O1229 C1218 1.289 . S
O1230 La1201 2.470 . S
O1230 C1219 1.258 . S
O1231 La1200 2.503 . S
O1231 C1219 1.256 . S
H1232 C1204 0.930 . S
H1233 C1205 0.930 . S
H1234 C1207 0.929 . S
H1235 C1208 0.929 . S
H1236 C1213 0.930 . S
H1237 C1214 0.930 . S
H1238 C1216 0.929 . S
H1239 C1217 0.929 . S
La1240 C1242 2.928 . S
La1240 O1260 2.521 . S
La1240 O1261 2.628 . S
La1240 O1262 2.554 . S
La1240 O1263 2.757 . S
La1240 O1264 2.470 . S
La1240 O1269 2.482 . S
La1240 O1271 2.503 . S
La1241 C1251 2.928 . S
La1241 O1263 2.482 . S
La1241 O1265 2.503 . S
La1241 O1266 2.521 . S
La1241 O1267 2.628 . S
La1241 O1268 2.554 . S
La1241 O1269 2.757 . S
La1241 O1270 2.470 . S
C1242 La1240 2.928 . S
C1242 C1243 1.503 . S
C1242 O1260 1.261 . S
C1242 O1261 1.243 . S
C1243 C1242 1.503 . S
C1243 C1244 1.394 . S
C1243 C1248 1.373 . S
C1244 C1243 1.394 . S
C1244 C1245 1.380 . S
C1244 H1272 0.930 . S
C1245 C1244 1.380 . S
C1245 C1246 1.376 . S
C1245 H1273 0.930 . S
C1246 C1245 1.376 . S
C1246 C1247 1.370 . S
C1247 C1246 1.370 . S
C1247 C1248 1.396 . S
C1247 H1274 0.929 . S
C1248 C1243 1.373 . S
C1248 C1247 1.396 . S
C1248 H1275 0.929 . S
C1249 O1262 1.240 . S
C1249 O1263 1.289 . S
C1250 O1264 1.258 . S
C1250 O1265 1.256 . S
C1251 La1241 2.928 . S
C1251 C1252 1.503 . S
C1251 O1266 1.261 . S
C1251 O1267 1.243 . S
C1252 C1251 1.503 . S
C1252 C1253 1.394 . S
C1252 C1257 1.373 . S
C1253 C1252 1.394 . S
C1253 C1254 1.380 . S
C1253 H1276 0.930 . S
C1254 C1253 1.380 . S
C1254 C1255 1.376 . S
C1254 H1277 0.930 . S
C1255 C1254 1.376 . S
C1255 C1256 1.370 . S
C1256 C1255 1.370 . S
C1256 C1257 1.396 . S
C1256 H1278 0.929 . S
C1257 C1252 1.373 . S
C1257 C1256 1.396 . S
C1257 H1279 0.929 . S
C1258 O1268 1.240 . S
C1258 O1269 1.289 . S
C1259 O1270 1.258 . S
C1259 O1271 1.256 . S
O1260 La1240 2.521 . S
O1260 C1242 1.261 . S
O1261 La1240 2.628 . S
O1261 C1242 1.243 . S
O1262 La1240 2.554 . S
O1262 C1249 1.240 . S
O1263 La1240 2.757 . S
O1263 La1241 2.482 . S
O1263 C1249 1.289 . S
O1264 La1240 2.470 . S
O1264 C1250 1.258 . S
O1265 La1241 2.503 . S
O1265 C1250 1.256 . S
O1266 La1241 2.521 . S
O1266 C1251 1.261 . S
O1267 La1241 2.628 . S
O1267 C1251 1.243 . S
O1268 La1241 2.554 . S
O1268 C1258 1.240 . S
O1269 La1240 2.482 . S
O1269 La1241 2.757 . S
O1269 C1258 1.289 . S
O1270 La1241 2.470 . S
O1270 C1259 1.258 . S
O1271 La1240 2.503 . S
O1271 C1259 1.256 . S
H1272 C1244 0.930 . S
H1273 C1245 0.930 . S
H1274 C1247 0.929 . S
H1275 C1248 0.929 . S
H1276 C1253 0.930 . S
H1277 C1254 0.930 . S
H1278 C1256 0.929 . S
H1279 C1257 0.929 . S
La1280 C1282 2.928 . S
La1280 O1300 2.521 . S
La1280 O1301 2.628 . S
La1280 O1302 2.554 . S
La1280 O1303 2.757 . S
La1280 O1304 2.470 . S
La1280 O1309 2.482 . S
La1280 O1311 2.503 . S
La1281 C1291 2.928 . S
La1281 O1303 2.482 . S
La1281 O1305 2.503 . S
La1281 O1306 2.521 . S
La1281 O1307 2.628 . S
La1281 O1308 2.554 . S
La1281 O1309 2.757 . S
La1281 O1310 2.470 . S
C1282 La1280 2.928 . S
C1282 C1283 1.503 . S
C1282 O1300 1.261 . S
C1282 O1301 1.243 . S
C1283 C1282 1.503 . S
C1283 C1284 1.394 . S
C1283 C1288 1.373 . S
C1284 C1283 1.394 . S
C1284 C1285 1.380 . S
C1284 H1312 0.930 . S
C1285 C1284 1.380 . S
C1285 C1286 1.376 . S
C1285 H1313 0.930 . S
C1286 C1285 1.376 . S
C1286 C1287 1.370 . S
C1287 C1286 1.370 . S
C1287 C1288 1.396 . S
C1287 H1314 0.929 . S
C1288 C1283 1.373 . S
C1288 C1287 1.396 . S
C1288 H1315 0.929 . S
C1289 O1302 1.240 . S
C1289 O1303 1.289 . S
C1290 O1304 1.258 . S
C1290 O1305 1.256 . S
C1291 La1281 2.928 . S
C1291 C1292 1.503 . S
C1291 O1306 1.261 . S
C1291 O1307 1.243 . S
C1292 C1291 1.503 . S
C1292 C1293 1.394 . S
C1292 C1297 1.373 . S
C1293 C1292 1.394 . S
C1293 C1294 1.380 . S
C1293 H1316 0.930 . S
C1294 C1293 1.380 . S
C1294 C1295 1.376 . S
C1294 H1317 0.930 . S
C1295 C1294 1.376 . S
C1295 C1296 1.370 . S
C1296 C1295 1.370 . S
C1296 C1297 1.396 . S
C1296 H1318 0.929 . S
C1297 C1292 1.373 . S
C1297 C1296 1.396 . S
C1297 H1319 0.929 . S
C1298 O1308 1.240 . S
C1298 O1309 1.289 . S
C1299 O1310 1.258 . S
C1299 O1311 1.256 . S
O1300 La1280 2.521 . S
O1300 C1282 1.261 . S
O1301 La1280 2.628 . S
O1301 C1282 1.243 . S
O1302 La1280 2.554 . S
O1302 C1289 1.240 . S
O1303 La1280 2.757 . S
O1303 La1281 2.482 . S
O1303 C1289 1.289 . S
O1304 La1280 2.470 . S
O1304 C1290 1.258 . S
O1305 La1281 2.503 . S
O1305 C1290 1.256 . S
O1306 La1281 2.521 . S
O1306 C1291 1.261 . S
O1307 La1281 2.628 . S
O1307 C1291 1.243 . S
O1308 La1281 2.554 . S
O1308 C1298 1.240 . S
O1309 La1280 2.482 . S
O1309 La1281 2.757 . S
O1309 C1298 1.289 . S
O1310 La1281 2.470 . S
O1310 C1299 1.258 . S
O1311 La1280 2.503 . S
O1311 C1299 1.256 . S
H1312 C1284 0.930 . S
H1313 C1285 0.930 . S
H1314 C1287 0.929 . S
H1315 C1288 0.929 . S
H1316 C1293 0.930 . S
H1317 C1294 0.930 . S
H1318 C1296 0.929 . S
H1319 C1297 0.929 . S
La1320 C1322 2.928 . S
La1320 O1340 2.521 . S
La1320 O1341 2.628 . S
La1320 O1342 2.554 . S
La1320 O1343 2.757 . S
La1320 O1344 2.470 . S
La1320 O1349 2.482 . S
La1320 O1351 2.503 . S
La1321 C1331 2.928 . S
La1321 O1343 2.482 . S
La1321 O1345 2.503 . S
La1321 O1346 2.521 . S
La1321 O1347 2.628 . S
La1321 O1348 2.554 . S
La1321 O1349 2.757 . S
La1321 O1350 2.470 . S
C1322 La1320 2.928 . S
C1322 C1323 1.503 . S
C1322 O1340 1.261 . S
C1322 O1341 1.243 . S
C1323 C1322 1.503 . S
C1323 C1324 1.394 . S
C1323 C1328 1.373 . S
C1324 C1323 1.394 . S
C1324 C1325 1.380 . S
C1324 H1352 0.930 . S
C1325 C1324 1.380 . S
C1325 C1326 1.376 . S
C1325 H1353 0.930 . S
C1326 C1325 1.376 . S
C1326 C1327 1.370 . S
C1327 C1326 1.370 . S
C1327 C1328 1.396 . S
C1327 H1354 0.929 . S
C1328 C1323 1.373 . S
C1328 C1327 1.396 . S
C1328 H1355 0.929 . S
C1329 O1342 1.240 . S
C1329 O1343 1.289 . S
C1330 O1344 1.258 . S
C1330 O1345 1.256 . S
C1331 La1321 2.928 . S
C1331 C1332 1.503 . S
C1331 O1346 1.261 . S
C1331 O1347 1.243 . S
C1332 C1331 1.503 . S
C1332 C1333 1.394 . S
C1332 C1337 1.373 1_455 S
C1333 C1332 1.394 . S
C1333 C1334 1.380 . S
C1333 H1356 0.930 . S
C1334 C1333 1.380 . S
C1334 C1335 1.376 . S
C1334 H1357 0.930 . S
C1335 C1334 1.376 . S
C1335 C1336 1.370 1_455 S
C1336 C1335 1.370 1_655 S
C1336 C1337 1.396 . S
C1336 H1358 0.929 . S
C1337 C1332 1.373 1_655 S
C1337 C1336 1.396 . S
C1337 H1359 0.929 . S
C1338 O1348 1.240 . S
C1338 O1349 1.289 . S
C1339 O1350 1.258 . S
C1339 O1351 1.256 . S
O1340 La1320 2.521 . S
O1340 C1322 1.261 . S
O1341 La1320 2.628 . S
O1341 C1322 1.243 . S
O1342 La1320 2.554 . S
O1342 C1329 1.240 . S
O1343 La1320 2.757 . S
O1343 La1321 2.482 . S
O1343 C1329 1.289 . S
O1344 La1320 2.470 . S
O1344 C1330 1.258 . S
O1345 La1321 2.503 . S
O1345 C1330 1.256 . S
O1346 La1321 2.521 . S
O1346 C1331 1.261 . S
O1347 La1321 2.628 . S
O1347 C1331 1.243 . S
O1348 La1321 2.554 . S
O1348 C1338 1.240 . S
O1349 La1320 2.482 . S
O1349 La1321 2.757 . S
O1349 C1338 1.289 . S
O1350 La1321 2.470 . S
O1350 C1339 1.258 . S
O1351 La1320 2.503 . S
O1351 C1339 1.256 . S
H1352 C1324 0.930 . S
H1353 C1325 0.930 . S
H1354 C1327 0.929 . S
H1355 C1328 0.929 . S
H1356 C1333 0.930 . S
H1357 C1334 0.930 . S
H1358 C1336 0.929 . S
H1359 C1337 0.929 . S
La1360 C1362 2.928 . S
La1360 O1380 2.521 . S
La1360 O1381 2.628 . S
La1360 O1382 2.554 . S
La1360 O1383 2.757 . S
La1360 O1384 2.470 . S
La1360 O1389 2.482 . S
La1360 O1391 2.503 . S
La1361 C1371 2.928 . S
La1361 O1383 2.482 . S
La1361 O1385 2.503 . S
La1361 O1386 2.521 . S
La1361 O1387 2.628 . S
La1361 O1388 2.554 . S
La1361 O1389 2.757 . S
La1361 O1390 2.470 . S
C1362 La1360 2.928 . S
C1362 C1363 1.503 . S
C1362 O1380 1.261 . S
C1362 O1381 1.243 . S
C1363 C1362 1.503 . S
C1363 C1364 1.394 . S
C1363 C1368 1.373 . S
C1364 C1363 1.394 . S
C1364 C1365 1.380 . S
C1364 H1392 0.930 . S
C1365 C1364 1.380 . S
C1365 C1366 1.376 . S
C1365 H1393 0.930 . S
C1366 C1365 1.376 . S
C1366 C1367 1.370 . S
C1367 C1366 1.370 . S
C1367 C1368 1.396 . S
C1367 H1394 0.929 . S
C1368 C1363 1.373 . S
C1368 C1367 1.396 . S
C1368 H1395 0.929 . S
C1369 O1382 1.240 . S
C1369 O1383 1.289 . S
C1370 O1384 1.258 . S
C1370 O1385 1.256 . S
C1371 La1361 2.928 . S
C1371 C1372 1.503 . S
C1371 O1386 1.261 . S
C1371 O1387 1.243 . S
C1372 C1371 1.503 . S
C1372 C1373 1.394 . S
C1372 C1377 1.373 . S
C1373 C1372 1.394 . S
C1373 C1374 1.380 . S
C1373 H1396 0.930 . S
C1374 C1373 1.380 . S
C1374 C1375 1.376 . S
C1374 H1397 0.930 . S
C1375 C1374 1.376 . S
C1375 C1376 1.370 . S
C1376 C1375 1.370 . S
C1376 C1377 1.396 . S
C1376 H1398 0.929 . S
C1377 C1372 1.373 . S
C1377 C1376 1.396 . S
C1377 H1399 0.929 . S
C1378 O1388 1.240 . S
C1378 O1389 1.289 . S
C1379 O1390 1.258 . S
C1379 O1391 1.256 . S
O1380 La1360 2.521 . S
O1380 C1362 1.261 . S
O1381 La1360 2.628 . S
O1381 C1362 1.243 . S
O1382 La1360 2.554 . S
O1382 C1369 1.240 . S
O1383 La1360 2.757 . S
O1383 La1361 2.482 . S
O1383 C1369 1.289 . S
O1384 La1360 2.470 . S
O1384 C1370 1.258 . S
O1385 La1361 2.503 . S
O1385 C1370 1.256 . S
O1386 La1361 2.521 . S
O1386 C1371 1.261 . S
O1387 La1361 2.628 . S
O1387 C1371 1.243 . S
O1388 La1361 2.554 . S
O1388 C1378 1.240 . S
O1389 La1360 2.482 . S
O1389 La1361 2.757 . S
O1389 C1378 1.289 . S
O1390 La1361 2.470 . S
O1390 C1379 1.258 . S
O1391 La1360 2.503 . S
O1391 C1379 1.256 . S
H1392 C1364 0.930 . S
H1393 C1365 0.930 . S
H1394 C1367 0.929 . S
H1395 C1368 0.929 . S
H1396 C1373 0.930 . S
H1397 C1374 0.930 . S
H1398 C1376 0.929 . S
H1399 C1377 0.929 . S
La1400 C1402 2.928 . S
La1400 O1420 2.521 . S
La1400 O1421 2.628 . S
La1400 O1422 2.554 . S
La1400 O1423 2.757 . S
La1400 O1424 2.470 . S
La1400 O1429 2.482 . S
La1400 O1431 2.503 . S
La1401 C1411 2.928 . S
La1401 O1423 2.482 . S
La1401 O1425 2.503 . S
La1401 O1426 2.521 . S
La1401 O1427 2.628 . S
La1401 O1428 2.554 . S
La1401 O1429 2.757 . S
La1401 O1430 2.470 . S
C1402 La1400 2.928 . S
C1402 C1403 1.503 . S
C1402 O1420 1.261 . S
C1402 O1421 1.243 . S
C1403 C1402 1.503 . S
C1403 C1404 1.394 . S
C1403 C1408 1.373 . S
C1404 C1403 1.394 . S
C1404 C1405 1.380 . S
C1404 H1432 0.930 . S
C1405 C1404 1.380 . S
C1405 C1406 1.376 . S
C1405 H1433 0.930 . S
C1406 C1405 1.376 . S
C1406 C1407 1.370 . S
C1407 C1406 1.370 . S
C1407 C1408 1.396 . S
C1407 H1434 0.929 . S
C1408 C1403 1.373 . S
C1408 C1407 1.396 . S
C1408 H1435 0.929 . S
C1409 O1422 1.240 . S
C1409 O1423 1.289 . S
C1410 O1424 1.258 . S
C1410 O1425 1.256 . S
C1411 La1401 2.928 . S
C1411 C1412 1.503 . S
C1411 O1426 1.261 . S
C1411 O1427 1.243 . S
C1412 C1411 1.503 . S
C1412 C1413 1.394 . S
C1412 C1417 1.373 1_565 S
C1413 C1412 1.394 . S
C1413 C1414 1.380 . S
C1413 H1436 0.930 . S
C1414 C1413 1.380 . S
C1414 C1415 1.376 . S
C1414 H1437 0.930 . S
C1415 C1414 1.376 . S
C1415 C1416 1.370 1_565 S
C1416 C1415 1.370 1_545 S
C1416 C1417 1.396 . S
C1416 H1438 0.929 . S
C1417 C1412 1.373 1_545 S
C1417 C1416 1.396 . S
C1417 H1439 0.929 . S
C1418 O1428 1.240 . S
C1418 O1429 1.289 . S
C1419 O1430 1.258 . S
C1419 O1431 1.256 . S
O1420 La1400 2.521 . S
O1420 C1402 1.261 . S
O1421 La1400 2.628 . S
O1421 C1402 1.243 . S
O1422 La1400 2.554 . S
O1422 C1409 1.240 . S
O1423 La1400 2.757 . S
O1423 La1401 2.482 . S
O1423 C1409 1.289 . S
O1424 La1400 2.470 . S
O1424 C1410 1.258 . S
O1425 La1401 2.503 . S
O1425 C1410 1.256 . S
O1426 La1401 2.521 . S
O1426 C1411 1.261 . S
O1427 La1401 2.628 . S
O1427 C1411 1.243 . S
O1428 La1401 2.554 . S
O1428 C1418 1.240 . S
O1429 La1400 2.482 . S
O1429 La1401 2.757 . S
O1429 C1418 1.289 . S
O1430 La1401 2.470 . S
O1430 C1419 1.258 . S
O1431 La1400 2.503 . S
O1431 C1419 1.256 . S
H1432 C1404 0.930 . S
H1433 C1405 0.930 . S
H1434 C1407 0.929 . S
H1435 C1408 0.929 . S
H1436 C1413 0.930 . S
H1437 C1414 0.930 . S
H1438 C1416 0.929 . S
H1439 C1417 0.929 . S
H1440 C1446 0.930 . S
H1441 C1449 0.930 . S
H1442 C1450 0.930 . S
H1443 C1451 0.930 1_565 S
H1444 C1454 0.930 . S
H1445 C1455 0.930 . S
C1446 H1440 0.930 . S
C1446 C1447 1.355 . S
C1446 C1448 1.415 . S
C1447 C1446 1.355 . S
C1447 C1449 1.419 . S
C1448 C1446 1.415 . S
C1448 C1453 1.425 . S
C1448 C1455 1.409 . S
C1449 H1441 0.930 . S
C1449 C1447 1.419 . S
C1449 C1450 1.362 . S
C1450 H1442 0.930 . S
C1450 C1449 1.362 . S
C1450 C1453 1.409 . S
C1451 H1443 0.930 1_545 S
C1451 C1452 1.355 1_545 S
C1451 C1453 1.415 . S
C1452 C1451 1.355 1_565 S
C1452 C1454 1.419 1_565 S
C1453 C1448 1.425 . S
C1453 C1450 1.409 . S
C1453 C1451 1.415 . S
C1454 H1444 0.930 . S
C1454 C1452 1.419 1_545 S
C1454 C1455 1.362 . S
C1455 H1445 0.930 . S
C1455 C1448 1.409 . S
C1455 C1454 1.362 . S
H1456 C1462 0.930 1_455 S
H1457 C1465 0.930 . S
H1458 C1466 0.930 . S
H1459 C1467 0.930 . S
H1460 C1470 0.930 1_565 S
H1461 C1471 0.930 . S
C1462 H1456 0.930 1_655 S
C1462 C1463 1.355 1_655 S
C1462 C1464 1.415 . S
C1463 C1462 1.355 1_455 S
C1463 C1465 1.419 1_455 S
C1464 C1462 1.415 . S
C1464 C1469 1.425 . S
C1464 C1471 1.409 . S
C1465 H1457 0.930 . S
C1465 C1463 1.419 1_655 S
C1465 C1466 1.362 . S
C1466 H1458 0.930 . S
C1466 C1465 1.362 . S
C1466 C1469 1.409 . S
C1467 H1459 0.930 . S
C1467 C1468 1.355 . S
C1467 C1469 1.415 . S
C1468 C1467 1.355 . S
C1468 C1470 1.419 . S
C1469 C1464 1.425 . S
C1469 C1466 1.409 . S
C1469 C1467 1.415 . S
C1470 H1460 0.930 1_545 S
C1470 C1468 1.419 . S
C1470 C1471 1.362 . S
C1471 H1461 0.930 . S
C1471 C1464 1.409 . S
C1471 C1470 1.362 . S
H1472 C1478 0.930 . S
H1473 C1481 0.930 . S
H1474 C1482 0.930 . S
H1475 C1483 0.930 . S
H1476 C1486 0.930 . S
H1477 C1487 0.930 . S
C1478 H1472 0.930 . S
C1478 C1479 1.355 . S
C1478 C1480 1.415 . S
C1479 C1478 1.355 . S
C1479 C1481 1.419 . S
C1480 C1478 1.415 . S
C1480 C1485 1.425 . S
C1480 C1487 1.409 . S
C1481 H1473 0.930 . S
C1481 C1479 1.419 . S
C1481 C1482 1.362 . S
C1482 H1474 0.930 . S
C1482 C1481 1.362 . S
C1482 C1485 1.409 . S
C1483 H1475 0.930 . S
C1483 C1484 1.355 . S
C1483 C1485 1.415 . S
C1484 C1483 1.355 . S
C1484 C1486 1.419 . S
C1485 C1480 1.425 . S
C1485 C1482 1.409 . S
C1485 C1483 1.415 . S
C1486 H1476 0.930 . S
C1486 C1484 1.419 . S
C1486 C1487 1.362 . S
C1487 H1477 0.930 . S
C1487 C1480 1.409 . S
C1487 C1486 1.362 . S
H1488 C1494 0.930 . S
H1489 C1497 0.930 . S
H1490 C1498 0.930 . S
H1491 C1499 0.930 . S
H1492 C1502 0.930 1_655 S
H1493 C1503 0.930 . S
C1494 H1488 0.930 . S
C1494 C1495 1.355 . S
C1494 C1496 1.415 . S
C1495 C1494 1.355 . S
C1495 C1497 1.419 . S
C1496 C1494 1.415 . S
C1496 C1501 1.425 . S
C1496 C1503 1.409 . S
C1497 H1489 0.930 . S
C1497 C1495 1.419 . S
C1497 C1498 1.362 . S
C1498 H1490 0.930 . S
C1498 C1497 1.362 . S
C1498 C1501 1.409 . S
C1499 H1491 0.930 . S
C1499 C1500 1.355 1_455 S
C1499 C1501 1.415 . S
C1500 C1499 1.355 1_655 S
C1500 C1502 1.419 1_655 S
C1501 C1496 1.425 . S
C1501 C1498 1.409 . S
C1501 C1499 1.415 . S
C1502 H1492 0.930 1_455 S
C1502 C1500 1.419 1_455 S
C1502 C1503 1.362 . S
C1503 H1493 0.930 . S
C1503 C1496 1.409 . S
C1503 C1502 1.362 . S
H1504 C1510 0.930 . S
H1505 C1513 0.930 . S
H1506 C1514 0.930 . S
H1507 C1515 0.930 . S
H1508 C1518 0.930 . S
H1509 C1519 0.930 . S
C1510 H1504 0.930 . S
C1510 C1511 1.355 . S
C1510 C1512 1.415 . S
C1511 C1510 1.355 . S
C1511 C1513 1.419 . S
C1512 C1510 1.415 . S
C1512 C1517 1.425 . S
C1512 C1519 1.409 . S
C1513 H1505 0.930 . S
C1513 C1511 1.419 . S
C1513 C1514 1.362 . S
C1514 H1506 0.930 . S
C1514 C1513 1.362 . S
C1514 C1517 1.409 . S
C1515 H1507 0.930 . S
C1515 C1516 1.355 . S
C1515 C1517 1.415 . S
C1516 C1515 1.355 . S
C1516 C1518 1.419 . S
C1517 C1512 1.425 . S
C1517 C1514 1.409 . S
C1517 C1515 1.415 . S
C1518 H1508 0.930 . S
C1518 C1516 1.419 . S
C1518 C1519 1.362 . S
C1519 H1509 0.930 . S
C1519 C1512 1.409 . S
C1519 C1518 1.362 . S
H1520 C1526 0.930 . S
H1521 C1529 0.930 1_655 S
H1522 C1530 0.930 . S
H1523 C1531 0.930 1_545 S
H1524 C1534 0.930 . S
H1525 C1535 0.930 . S
C1526 H1520 0.930 . S
C1526 C1527 1.355 . S
C1526 C1528 1.415 . S
C1527 C1526 1.355 . S
C1527 C1529 1.419 . S
C1528 C1526 1.415 . S
C1528 C1533 1.425 . S
C1528 C1535 1.409 . S
C1529 H1521 0.930 1_455 S
C1529 C1527 1.419 . S
C1529 C1530 1.362 . S
C1530 H1522 0.930 . S
C1530 C1529 1.362 . S
C1530 C1533 1.409 . S
C1531 H1523 0.930 1_565 S
C1531 C1532 1.355 1_565 S
C1531 C1533 1.415 . S
C1532 C1531 1.355 1_545 S
C1532 C1534 1.419 1_545 S
C1533 C1528 1.425 . S
C1533 C1530 1.409 . S
C1533 C1531 1.415 . S
C1534 H1524 0.930 . S
C1534 C1532 1.419 1_565 S
C1534 C1535 1.362 . S
C1535 H1525 0.930 . S
C1535 C1528 1.409 . S
C1535 C1534 1.362 . S
H1536 C1542 0.930 . S
H1537 C1545 0.930 . S
H1538 C1546 0.930 . S
H1539 C1547 0.930 . S
H1540 C1550 0.930 1_545 S
H1541 C1551 0.930 . S
C1542 H1536 0.930 . S
C1542 C1543 1.355 . S
C1542 C1544 1.415 . S
C1543 C1542 1.355 . S
C1543 C1545 1.419 . S
C1544 C1542 1.415 . S
C1544 C1549 1.425 . S
C1544 C1551 1.409 . S
C1545 H1537 0.930 . S
C1545 C1543 1.419 . S
C1545 C1546 1.362 . S
C1546 H1538 0.930 . S
C1546 C1545 1.362 . S
C1546 C1549 1.409 . S
C1547 H1539 0.930 . S
C1547 C1548 1.355 1_565 S
C1547 C1549 1.415 . S
C1548 C1547 1.355 1_545 S
C1548 C1550 1.419 1_545 S
C1549 C1544 1.425 . S
C1549 C1546 1.409 . S
C1549 C1547 1.415 . S
C1550 H1540 0.930 1_565 S
C1550 C1548 1.419 1_565 S
C1550 C1551 1.362 . S
C1551 H1541 0.930 . S
C1551 C1544 1.409 . S
C1551 C1550 1.362 . S
H1552 C1558 0.959 . S
H1553 C1561 0.930 . S
H1554 C1562 0.930 . S
H1555 C1563 0.930 . S
H1556 C1566 0.930 . S
H1557 C1567 0.930 . S
C1558 H1552 0.959 . S
C1558 C1559 1.355 . S
C1558 C1560 1.415 . S
C1559 C1558 1.355 . S
C1559 C1561 1.419 . S
C1560 C1558 1.415 . S
C1560 C1565 1.425 . S
C1560 C1567 1.409 . S
C1561 H1553 0.930 . S
C1561 C1559 1.419 . S
C1561 C1562 1.362 . S
C1562 H1554 0.930 . S
C1562 C1561 1.362 . S
C1562 C1565 1.409 . S
C1563 H1555 0.930 . S
C1563 C1564 1.355 1_455 S
C1563 C1565 1.415 . S
C1564 C1563 1.355 1_655 S
C1564 C1566 1.419 . S
C1565 C1560 1.425 . S
C1565 C1562 1.409 . S
C1565 C1563 1.415 . S
C1566 H1556 0.930 . S
C1566 C1564 1.419 . S
C1566 C1567 1.362 1_655 S
C1567 H1557 0.930 . S
C1567 C1560 1.409 . S
C1567 C1566 1.362 1_455 S
H1568 C1574 0.930 . S
H1569 C1577 0.930 . S
H1570 C1578 0.930 . S
H1571 C1579 0.930 . S
H1572 C1582 0.930 . S
H1573 C1583 0.930 . S
C1574 H1568 0.930 . S
C1574 C1575 1.355 . S
C1574 C1576 1.415 . S
C1575 C1574 1.355 . S
C1575 C1577 1.419 . S
C1576 C1574 1.415 . S
C1576 C1581 1.425 . S
C1576 C1583 1.409 . S
C1577 H1569 0.930 . S
C1577 C1575 1.419 . S
C1577 C1578 1.362 . S
C1578 H1570 0.930 . S
C1578 C1577 1.362 . S
C1578 C1581 1.409 . S
C1579 H1571 0.930 . S
C1579 C1580 1.355 . S
C1579 C1581 1.415 . S
C1580 C1579 1.355 . S
C1580 C1582 1.419 . S
C1581 C1576 1.425 . S
C1581 C1578 1.409 . S
C1581 C1579 1.415 . S
C1582 H1572 0.930 . S
C1582 C1580 1.419 . S
C1582 C1583 1.362 . S
C1583 H1573 0.930 . S
C1583 C1576 1.409 . S
C1583 C1582 1.362 . S
H1584 C1590 0.930 . S
H1585 C1593 0.930 . S
H1586 C1594 0.930 . S
H1587 C1595 0.930 . S
H1588 C1598 0.930 . S
H1589 C1599 0.930 . S
C1590 H1584 0.930 . S
C1590 C1591 1.355 . S
C1590 C1592 1.415 . S
C1591 C1590 1.355 . S
C1591 C1593 1.419 . S
C1592 C1590 1.415 . S
C1592 C1597 1.425 . S
C1592 C1599 1.409 . S
C1593 H1585 0.930 . S
C1593 C1591 1.419 . S
C1593 C1594 1.362 . S
C1594 H1586 0.930 . S
C1594 C1593 1.362 . S
C1594 C1597 1.409 . S
C1595 H1587 0.930 . S
C1595 C1596 1.355 1_655 S
C1595 C1597 1.415 . S
C1596 C1595 1.355 1_455 S
C1596 C1598 1.419 . S
C1597 C1592 1.425 . S
C1597 C1594 1.409 . S
C1597 C1595 1.415 . S
C1598 H1588 0.930 . S
C1598 C1596 1.419 . S
C1598 C1599 1.362 1_455 S
C1599 H1589 0.930 . S
C1599 C1592 1.409 . S
C1599 C1598 1.362 1_655 S
H1600 C1606 0.930 . S
H1601 C1609 0.930 . S
H1602 C1610 0.930 . S
H1603 C1611 0.930 . S
H1604 C1614 0.930 . S
H1605 C1615 0.930 . S
C1606 H1600 0.930 . S
C1606 C1607 1.355 . S
C1606 C1608 1.415 . S
C1607 C1606 1.355 . S
C1607 C1609 1.419 . S
C1608 C1606 1.415 . S
C1608 C1613 1.425 . S
C1608 C1615 1.409 . S
C1609 H1601 0.930 . S
C1609 C1607 1.419 . S
C1609 C1610 1.362 . S
C1610 H1602 0.930 . S
C1610 C1609 1.362 . S
C1610 C1613 1.409 . S
C1611 H1603 0.930 . S
C1611 C1612 1.355 . S
C1611 C1613 1.415 . S
C1612 C1611 1.355 . S
C1612 C1614 1.419 . S
C1613 C1608 1.425 . S
C1613 C1610 1.409 . S
C1613 C1611 1.415 . S
C1614 H1604 0.930 . S
C1614 C1612 1.419 . S
C1614 C1615 1.362 . S
C1615 H1605 0.930 . S
C1615 C1608 1.409 . S
C1615 C1614 1.362 . S
H1616 C1622 0.930 1_565 S
H1617 C1625 0.930 . S
H1618 C1626 0.930 . S
H1619 C1627 0.930 . S
H1620 C1630 0.930 1_455 S
H1621 C1631 0.930 . S
C1622 H1616 0.930 1_545 S
C1622 C1623 1.355 1_545 S
C1622 C1624 1.415 . S
C1623 C1622 1.355 1_565 S
C1623 C1625 1.419 1_565 S
C1624 C1622 1.415 . S
C1624 C1629 1.425 . S
C1624 C1631 1.409 . S
C1625 H1617 0.930 . S
C1625 C1623 1.419 1_545 S
C1625 C1626 1.362 . S
C1626 H1618 0.930 . S
C1626 C1625 1.362 . S
C1626 C1629 1.409 . S
C1627 H1619 0.930 . S
C1627 C1628 1.355 . S
C1627 C1629 1.415 . S
C1628 C1627 1.355 . S
C1628 C1630 1.419 . S
C1629 C1624 1.425 . S
C1629 C1626 1.409 . S
C1629 C1627 1.415 . S
C1630 H1620 0.930 1_655 S
C1630 C1628 1.419 . S
C1630 C1631 1.362 . S
C1631 H1621 0.930 . S
C1631 C1624 1.409 . S
C1631 C1630 1.362 . S
H1632 C1638 0.930 . S
H1633 C1641 0.930 . S
H1634 C1642 0.930 . S
H1635 C1643 0.930 . S
H1636 C1646 0.930 . S
H1637 C1647 0.930 . S
C1638 H1632 0.930 . S
C1638 C1639 1.355 . S
C1638 C1640 1.415 . S
C1639 C1638 1.355 . S
C1639 C1641 1.419 . S
C1640 C1638 1.415 . S
C1640 C1645 1.425 . S
C1640 C1647 1.409 . S
C1641 H1633 0.930 . S
C1641 C1639 1.419 . S
C1641 C1642 1.362 . S
C1642 H1634 0.930 . S
C1642 C1641 1.362 . S
C1642 C1645 1.409 . S
C1643 H1635 0.930 . S
C1643 C1644 1.355 . S
C1643 C1645 1.415 . S
C1644 C1643 1.355 . S
C1644 C1646 1.419 . S
C1645 C1640 1.425 . S
C1645 C1642 1.409 . S
C1645 C1643 1.415 . S
C1646 H1636 0.930 . S
C1646 C1644 1.419 . S
C1646 C1647 1.362 . S
C1647 H1637 0.930 . S
C1647 C1640 1.409 . S
C1647 C1646 1.362 . S
H1648 C1654 0.930 . S
H1649 C1657 0.930 . S
H1650 C1658 0.930 . S
H1651 C1659 0.930 . S
H1652 C1662 0.930 . S
H1653 C1663 0.930 . S
C1654 H1648 0.930 . S
C1654 C1655 1.355 . S
C1654 C1656 1.415 . S
C1655 C1654 1.355 . S
C1655 C1657 1.419 . S
C1656 C1654 1.415 . S
C1656 C1661 1.425 . S
C1656 C1663 1.409 . S
C1657 H1649 0.930 . S
C1657 C1655 1.419 . S
C1657 C1658 1.362 . S
C1658 H1650 0.930 . S
C1658 C1657 1.362 . S
C1658 C1661 1.409 . S
C1659 H1651 0.930 . S
C1659 C1660 1.355 . S
C1659 C1661 1.415 . S
C1660 C1659 1.355 . S
C1660 C1662 1.419 . S
C1661 C1656 1.425 . S
C1661 C1658 1.409 . S
C1661 C1659 1.415 . S
C1662 H1652 0.930 . S
C1662 C1660 1.419 . S
C1662 C1663 1.362 . S
C1663 H1653 0.930 . S
C1663 C1656 1.409 . S
C1663 C1662 1.362 . S
H1664 C1670 0.930 . S
H1665 C1673 0.930 . S
H1666 C1674 0.930 . S
H1667 C1675 0.930 . S
H1668 C1678 0.930 . S
H1669 C1679 0.930 . S
C1670 H1664 0.930 . S
C1670 C1671 1.355 . S
C1670 C1672 1.415 . S
C1671 C1670 1.355 . S
C1671 C1673 1.419 . S
C1672 C1670 1.415 . S
C1672 C1677 1.425 . S
C1672 C1679 1.409 . S
C1673 H1665 0.930 . S
C1673 C1671 1.419 . S
C1673 C1674 1.362 . S
C1674 H1666 0.930 . S
C1674 C1673 1.362 . S
C1674 C1677 1.409 . S
C1675 H1667 0.930 . S
C1675 C1676 1.355 . S
C1675 C1677 1.415 . S
C1676 C1675 1.355 . S
C1676 C1678 1.419 . S
C1677 C1672 1.425 . S
C1677 C1674 1.409 . S
C1677 C1675 1.415 . S
C1678 H1668 0.930 . S
C1678 C1676 1.419 . S
C1678 C1679 1.362 . S
C1679 H1669 0.930 . S
C1679 C1672 1.409 . S
C1679 C1678 1.362 . S
H1680 C1686 0.930 . S
H1681 C1689 0.930 . S
H1682 C1690 0.930 . S
H1683 C1691 0.930 . S
H1684 C1694 0.930 . S
H1685 C1695 0.930 . S
C1686 H1680 0.930 . S
C1686 C1687 1.355 . S
C1686 C1688 1.415 . S
C1687 C1686 1.355 . S
C1687 C1689 1.419 . S
C1688 C1686 1.415 . S
C1688 C1693 1.425 . S
C1688 C1695 1.409 . S
C1689 H1681 0.930 . S
C1689 C1687 1.419 . S
C1689 C1690 1.362 . S
C1690 H1682 0.930 . S
C1690 C1689 1.362 . S
C1690 C1693 1.409 . S
C1691 H1683 0.930 . S
C1691 C1692 1.355 . S
C1691 C1693 1.415 . S
C1692 C1691 1.355 . S
C1692 C1694 1.419 . S
C1693 C1688 1.425 . S
C1693 C1690 1.409 . S
C1693 C1691 1.415 . S
C1694 H1684 0.930 . S
C1694 C1692 1.419 . S
C1694 C1695 1.362 . S
C1695 H1685 0.930 . S
C1695 C1688 1.409 . S
C1695 C1694 1.362 . S
H1696 C1702 0.930 . S
H1697 C1705 0.930 . S
H1698 C1706 0.930 . S
H1699 C1707 0.930 . S
H1700 C1710 0.930 . S
H1701 C1711 0.930 . S
C1702 H1696 0.930 . S
C1702 C1703 1.355 . S
C1702 C1704 1.415 . S
C1703 C1702 1.355 . S
C1703 C1705 1.419 . S
C1704 C1702 1.415 . S
C1704 C1709 1.425 . S
C1704 C1711 1.409 . S
C1705 H1697 0.930 . S
C1705 C1703 1.419 . S
C1705 C1706 1.362 . S
C1706 H1698 0.930 . S
C1706 C1705 1.362 . S
C1706 C1709 1.409 . S
C1707 H1699 0.930 . S
C1707 C1708 1.355 . S
C1707 C1709 1.415 . S
C1708 C1707 1.355 . S
C1708 C1710 1.419 . S
C1709 C1704 1.425 . S
C1709 C1706 1.409 . S
C1709 C1707 1.415 . S
C1710 H1700 0.930 . S
C1710 C1708 1.419 . S
C1710 C1711 1.362 . S
C1711 H1701 0.930 . S
C1711 C1704 1.409 . S
C1711 C1710 1.362 . S
H1712 C1718 0.930 . S
H1713 C1721 0.930 . S
H1714 C1722 0.930 . S
H1715 C1723 0.930 . S
H1716 C1726 0.930 . S
H1717 C1727 0.930 . S
C1718 H1712 0.930 . S
C1718 C1719 1.355 . S
C1718 C1720 1.415 . S
C1719 C1718 1.355 . S
C1719 C1721 1.419 . S
C1720 C1718 1.415 . S
C1720 C1725 1.425 . S
C1720 C1727 1.409 . S
C1721 H1713 0.930 . S
C1721 C1719 1.419 . S
C1721 C1722 1.362 . S
C1722 H1714 0.930 . S
C1722 C1721 1.362 . S
C1722 C1725 1.409 . S
C1723 H1715 0.930 . S
C1723 C1724 1.355 . S
C1723 C1725 1.415 . S
C1724 C1723 1.355 . S
C1724 C1726 1.419 . S
C1725 C1720 1.425 . S
C1725 C1722 1.409 . S
C1725 C1723 1.415 . S
C1726 H1716 0.930 . S
C1726 C1724 1.419 . S
C1726 C1727 1.362 . S
C1727 H1717 0.930 . S
C1727 C1720 1.409 . S
C1727 C1726 1.362 . S
H1728 C1734 0.930 . S
H1729 C1737 0.930 . S
H1730 C1738 0.930 . S
H1731 C1739 0.930 . S
H1732 C1742 0.930 . S
H1733 C1743 0.930 . S
C1734 H1728 0.930 . S
C1734 C1735 1.355 . S
C1734 C1736 1.415 . S
C1735 C1734 1.355 . S
C1735 C1737 1.419 . S
C1736 C1734 1.415 . S
C1736 C1741 1.425 . S
C1736 C1743 1.409 . S
C1737 H1729 0.930 . S
C1737 C1735 1.419 . S
C1737 C1738 1.362 . S
C1738 H1730 0.930 . S
C1738 C1737 1.362 . S
C1738 C1741 1.409 . S
C1739 H1731 0.930 . S
C1739 C1740 1.355 . S
C1739 C1741 1.415 . S
C1740 C1739 1.355 . S
C1740 C1742 1.419 . S
C1741 C1736 1.425 . S
C1741 C1738 1.409 . S
C1741 C1739 1.415 . S
C1742 H1732 0.930 . S
C1742 C1740 1.419 . S
C1742 C1743 1.362 . S
C1743 H1733 0.930 . S
C1743 C1736 1.409 . S
C1743 C1742 1.362 . S
H1744 C1750 0.930 . S
H1745 C1753 0.930 . S
H1746 C1754 0.930 . S
H1747 C1755 0.930 . S
H1748 C1758 0.930 . S
H1749 C1759 0.930 . S
C1750 H1744 0.930 . S
C1750 C1751 1.355 . S
C1750 C1752 1.415 . S
C1751 C1750 1.355 . S
C1751 C1753 1.419 . S
C1752 C1750 1.415 . S
C1752 C1757 1.425 . S
C1752 C1759 1.409 . S
C1753 H1745 0.930 . S
C1753 C1751 1.419 . S
C1753 C1754 1.362 . S
C1754 H1746 0.930 . S
C1754 C1753 1.362 . S
C1754 C1757 1.409 . S
C1755 H1747 0.930 . S
C1755 C1756 1.355 . S
C1755 C1757 1.415 . S
C1756 C1755 1.355 . S
C1756 C1758 1.419 . S
C1757 C1752 1.425 . S
C1757 C1754 1.409 . S
C1757 C1755 1.415 . S
C1758 H1748 0.930 . S
C1758 C1756 1.419 . S
C1758 C1759 1.362 . S
C1759 H1749 0.930 . S
C1759 C1752 1.409 . S
C1759 C1758 1.362 . S
H1760 C1766 0.930 . S
H1761 C1769 0.930 . S
H1762 C1770 0.930 . S
H1763 C1771 0.930 . S
H1764 C1774 0.930 . S
H1765 C1775 0.930 . S
C1766 H1760 0.930 . S
C1766 C1767 1.355 . S
C1766 C1768 1.415 . S
C1767 C1766 1.355 . S
C1767 C1769 1.419 . S
C1768 C1766 1.415 . S
C1768 C1773 1.425 . S
C1768 C1775 1.409 . S
C1769 H1761 0.930 . S
C1769 C1767 1.419 . S
C1769 C1770 1.362 . S
C1770 H1762 0.930 . S
C1770 C1769 1.362 . S
C1770 C1773 1.409 . S
C1771 H1763 0.930 . S
C1771 C1772 1.355 . S
C1771 C1773 1.415 . S
C1772 C1771 1.355 . S
C1772 C1774 1.419 . S
C1773 C1768 1.425 . S
C1773 C1770 1.409 . S
C1773 C1771 1.415 . S
C1774 H1764 0.930 . S
C1774 C1772 1.419 . S
C1774 C1775 1.362 . S
C1775 H1765 0.930 . S
C1775 C1768 1.409 . S
C1775 C1774 1.362 . S
H1776 C1782 0.930 . S
H1777 C1785 0.930 . S
H1778 C1786 0.930 . S
H1779 C1787 0.930 . S
H1780 C1790 0.930 . S
H1781 C1791 0.930 . S
C1782 H1776 0.930 . S
C1782 C1783 1.355 . S
C1782 C1784 1.415 . S
C1783 C1782 1.355 . S
C1783 C1785 1.419 1_554 S
C1784 C1782 1.415 . S
C1784 C1789 1.425 1_554 S
C1784 C1791 1.409 . S
C1785 H1777 0.930 . S
C1785 C1783 1.419 1_556 S
C1785 C1786 1.362 . S
C1786 H1778 0.930 . S
C1786 C1785 1.362 . S
C1786 C1789 1.409 . S
C1787 H1779 0.930 . S
C1787 C1788 1.355 1_556 S
C1787 C1789 1.415 . S
C1788 C1787 1.355 1_554 S
C1788 C1790 1.419 . S
C1789 C1784 1.425 1_556 S
C1789 C1786 1.409 . S
C1789 C1787 1.415 . S
C1790 H1780 0.930 . S
C1790 C1788 1.419 . S
C1790 C1791 1.362 . S
C1791 H1781 0.930 . S
C1791 C1784 1.409 . S
C1791 C1790 1.362 . S
H1792 C1798 0.930 . S
H1793 C1801 0.930 . S
H1794 C1802 0.930 . S
H1795 C1803 0.930 . S
H1796 C1806 0.930 . S
H1797 C1807 0.930 . S
C1798 H1792 0.930 . S
C1798 C1799 1.356 . S
C1798 C1800 1.415 . S
C1799 C1798 1.356 . S
C1799 C1801 1.417 1_554 S
C1800 C1798 1.415 . S
C1800 C1805 1.425 1_554 S
C1800 C1807 1.409 . S
C1801 H1793 0.930 . S
C1801 C1799 1.417 1_556 S
C1801 C1802 1.362 . S
C1802 H1794 0.930 . S
C1802 C1801 1.362 . S
C1802 C1805 1.409 . S
C1803 H1795 0.930 . S
C1803 C1804 1.355 1_556 S
C1803 C1805 1.415 . S
C1804 C1803 1.355 1_554 S
C1804 C1806 1.419 . S
C1805 C1800 1.425 1_556 S
C1805 C1802 1.409 . S
C1805 C1803 1.415 . S
C1806 H1796 0.930 . S
C1806 C1804 1.419 . S
C1806 C1807 1.362 . S
C1807 H1797 0.930 . S
C1807 C1800 1.409 . S
C1807 C1806 1.362 . S
H1808 C1814 0.930 . S
H1809 C1817 0.920 1_556 S
H1810 C1818 0.955 . S
H1811 C1819 0.927 1_556 S
H1812 C1822 0.930 . S
H1813 C1823 0.930 . S
C1814 H1808 0.930 . S
C1814 C1815 1.355 . S
C1814 C1816 1.415 . S
C1815 C1814 1.355 . S
C1815 C1817 1.438 . S
C1816 C1814 1.415 . S
C1816 C1821 1.425 . S
C1816 C1823 1.409 . S
C1817 H1809 0.920 1_554 S
C1817 C1815 1.438 . S
C1817 C1818 1.352 1_554 S
C1818 H1810 0.955 . S
C1818 C1817 1.352 1_556 S
C1818 C1821 1.398 1_556 S
C1819 H1811 0.927 1_554 S
C1819 C1820 1.356 . S
C1819 C1821 1.416 . S
C1820 C1819 1.356 . S
C1820 C1822 1.419 . S
C1821 C1816 1.425 . S
C1821 C1818 1.398 1_554 S
C1821 C1819 1.416 . S
C1822 H1812 0.930 . S
C1822 C1820 1.419 . S
C1822 C1823 1.362 . S
C1823 H1813 0.930 . S
C1823 C1816 1.409 . S
C1823 C1822 1.362 . S
H1824 C1830 0.930 . S
H1825 C1833 0.930 . S
H1826 C1834 0.930 . S
H1827 C1835 0.930 . S
H1828 C1838 0.930 . S
H1829 C1839 0.930 . S
C1830 H1824 0.930 . S
C1830 C1831 1.355 . S
C1830 C1832 1.415 . S
C1831 C1830 1.355 . S
C1831 C1833 1.419 . S
C1832 C1830 1.415 . S
C1832 C1837 1.425 . S
C1832 C1839 1.409 . S
C1833 H1825 0.930 . S
C1833 C1831 1.419 . S
C1833 C1834 1.362 . S
C1834 H1826 0.930 . S
C1834 C1833 1.362 . S
C1834 C1837 1.409 . S
C1835 H1827 0.930 . S
C1835 C1836 1.355 . S
C1835 C1837 1.415 . S
C1836 C1835 1.355 . S
C1836 C1838 1.419 . S
C1837 C1832 1.425 . S
C1837 C1834 1.409 . S
C1837 C1835 1.415 . S
C1838 H1828 0.930 . S
C1838 C1836 1.419 . S
C1838 C1839 1.362 . S
C1839 H1829 0.930 . S
C1839 C1832 1.409 . S
C1839 C1838 1.362 . S
H1840 C1846 0.930 . S
H1841 C1849 0.930 . S
H1842 C1850 0.930 . S
H1843 C1851 0.930 . S
H1844 C1854 0.930 . S
H1845 C1855 0.930 . S
C1846 H1840 0.930 . S
C1846 C1847 1.355 . S
C1846 C1848 1.415 . S
C1847 C1846 1.355 . S
C1847 C1849 1.419 . S
C1848 C1846 1.415 . S
C1848 C1853 1.425 . S
C1848 C1855 1.409 . S
C1849 H1841 0.930 . S
C1849 C1847 1.419 . S
C1849 C1850 1.362 . S
C1850 H1842 0.930 . S
C1850 C1849 1.362 . S
C1850 C1853 1.409 . S
C1851 H1843 0.930 . S
C1851 C1852 1.355 . S
C1851 C1853 1.415 . S
C1852 C1851 1.355 . S
C1852 C1854 1.419 . S
C1853 C1848 1.425 . S
C1853 C1850 1.409 . S
C1853 C1851 1.415 . S
C1854 H1844 0.930 . S
C1854 C1852 1.419 . S
C1854 C1855 1.362 . S
C1855 H1845 0.930 . S
C1855 C1848 1.409 . S
C1855 C1854 1.362 . S
H1856 C1862 0.930 . S
H1857 C1865 0.930 . S
H1858 C1866 0.930 . S
H1859 C1867 0.930 . S
H1860 C1870 0.930 . S
H1861 C1871 0.930 . S
C1862 H1856 0.930 . S
C1862 C1863 1.355 . S
C1862 C1864 1.415 . S
C1863 C1862 1.355 . S
C1863 C1865 1.419 . S
C1864 C1862 1.415 . S
C1864 C1869 1.425 . S
C1864 C1871 1.409 . S
C1865 H1857 0.930 . S
C1865 C1863 1.419 . S
C1865 C1866 1.362 . S
C1866 H1858 0.930 . S
C1866 C1865 1.362 . S
C1866 C1869 1.409 . S
C1867 H1859 0.930 . S
C1867 C1868 1.355 . S
C1867 C1869 1.415 . S
C1868 C1867 1.355 . S
C1868 C1870 1.419 . S
C1869 C1864 1.425 . S
C1869 C1866 1.409 . S
C1869 C1867 1.415 . S
C1870 H1860 0.930 . S
C1870 C1868 1.419 . S
C1870 C1871 1.362 . S
C1871 H1861 0.930 . S
C1871 C1864 1.409 . S
C1871 C1870 1.362 . S
H1872 C1878 0.930 . S
H1873 C1881 0.930 . S
H1874 C1882 0.930 . S
H1875 C1883 0.930 . S
H1876 C1886 0.930 . S
H1877 C1887 0.930 . S
C1878 H1872 0.930 . S
C1878 C1879 1.355 1_554 S
C1878 C1880 1.415 . S
C1879 C1878 1.355 1_556 S
C1879 C1881 1.419 . S
C1880 C1878 1.415 . S
C1880 C1885 1.425 1_554 S
C1880 C1887 1.409 . S
C1881 H1873 0.930 . S
C1881 C1879 1.419 . S
C1881 C1882 1.362 . S
C1882 H1874 0.930 . S
C1882 C1881 1.362 . S
C1882 C1885 1.409 . S
C1883 H1875 0.930 . S
C1883 C1884 1.355 . S
C1883 C1885 1.415 . S
C1884 C1883 1.355 . S
C1884 C1886 1.419 1_556 S
C1885 C1880 1.425 1_556 S
C1885 C1882 1.409 . S
C1885 C1883 1.415 . S
C1886 H1876 0.930 . S
C1886 C1884 1.419 1_554 S
C1886 C1887 1.362 . S
C1887 H1877 0.930 . S
C1887 C1880 1.409 . S
C1887 C1886 1.362 . S
H1888 C1894 0.930 . S
H1889 C1897 0.930 . S
H1890 C1898 0.930 . S
H1891 C1899 1.010 . S
H1892 C1902 0.930 . S
H1893 C1903 0.930 . S
C1894 H1888 0.930 . S
C1894 C1895 1.405 . S
C1894 C1896 1.415 . S
C1895 C1894 1.405 . S
C1895 C1897 1.369 1_556 S
C1896 C1894 1.415 . S
C1896 C1901 1.395 1_556 S
C1896 C1903 1.409 . S
C1897 H1889 0.930 . S
C1897 C1895 1.369 1_554 S
C1897 C1898 1.362 . S
C1898 H1890 0.930 . S
C1898 C1897 1.362 . S
C1898 C1901 1.437 . S
C1899 H1891 1.010 . S
C1899 C1900 1.291 1_554 S
C1899 C1901 1.413 . S
C1900 C1899 1.291 1_556 S
C1900 C1902 1.419 . S
C1901 C1896 1.395 1_554 S
C1901 C1898 1.437 . S
C1901 C1899 1.413 . S
C1902 H1892 0.930 . S
C1902 C1900 1.419 . S
C1902 C1903 1.362 . S
C1903 H1893 0.930 . S
C1903 C1896 1.409 . S
C1903 C1902 1.362 . S
H1904 C1910 0.930 . S
H1905 C1913 0.930 . S
H1906 C1914 0.930 . S
H1907 C1915 0.930 . S
H1908 C1918 0.930 . S
H1909 C1919 0.930 . S
C1910 H1904 0.930 . S
C1910 C1911 1.355 1_554 S
C1910 C1912 1.415 . S
C1911 C1910 1.355 1_556 S
C1911 C1913 1.419 . S
C1912 C1910 1.415 . S
C1912 C1917 1.425 1_554 S
C1912 C1919 1.409 . S
C1913 H1905 0.930 . S
C1913 C1911 1.419 . S
C1913 C1914 1.362 . S
C1914 H1906 0.930 . S
C1914 C1913 1.362 . S
C1914 C1917 1.409 . S
C1915 H1907 0.930 . S
C1915 C1916 1.355 . S
C1915 C1917 1.415 . S
C1916 C1915 1.355 . S
C1916 C1918 1.419 1_556 S
C1917 C1912 1.425 1_556 S
C1917 C1914 1.409 . S
C1917 C1915 1.415 . S
C1918 H1908 0.930 . S
C1918 C1916 1.419 1_554 S
C1918 C1919 1.362 . S
C1919 H1909 0.930 . S
C1919 C1912 1.409 . S
C1919 C1918 1.362 . S
H1920 C1926 0.930 . S
H1921 C1929 0.930 . S
H1922 C1930 0.930 . S
H1923 C1931 0.930 . S
H1924 C1934 0.930 . S
H1925 C1935 0.930 . S
C1926 H1920 0.930 . S
C1926 C1927 1.355 . S
C1926 C1928 1.415 . S
C1927 C1926 1.355 . S
C1927 C1929 1.419 . S
C1928 C1926 1.415 . S
C1928 C1933 1.425 . S
C1928 C1935 1.409 . S
C1929 H1921 0.930 . S
C1929 C1927 1.419 . S
C1929 C1930 1.362 . S
C1930 H1922 0.930 . S
C1930 C1929 1.362 . S
C1930 C1933 1.409 . S
C1931 H1923 0.930 . S
C1931 C1932 1.355 . S
C1931 C1933 1.415 . S
C1932 C1931 1.355 . S
C1932 C1934 1.419 . S
C1933 C1928 1.425 . S
C1933 C1930 1.409 . S
C1933 C1931 1.415 . S
C1934 H1924 0.930 . S
C1934 C1932 1.419 . S
C1934 C1935 1.362 . S
C1935 H1925 0.930 . S
C1935 C1928 1.409 . S
C1935 C1934 1.362 . S
H1936 C1942 0.930 . S
H1937 C1945 0.930 . S
H1938 C1946 0.930 . S
H1939 C1947 0.930 . S
H1940 C1950 0.930 . S
H1941 C1951 0.930 . S
C1942 H1936 0.930 . S
C1942 C1943 1.355 . S
C1942 C1944 1.415 . S
C1943 C1942 1.355 . S
C1943 C1945 1.419 . S
C1944 C1942 1.415 . S
C1944 C1949 1.425 . S
C1944 C1951 1.409 . S
C1945 H1937 0.930 . S
C1945 C1943 1.419 . S
C1945 C1946 1.362 . S
C1946 H1938 0.930 . S
C1946 C1945 1.362 . S
C1946 C1949 1.409 . S
C1947 H1939 0.930 . S
C1947 C1948 1.355 . S
C1947 C1949 1.415 . S
C1948 C1947 1.355 . S
C1948 C1950 1.419 . S
C1949 C1944 1.425 . S
C1949 C1946 1.409 . S
C1949 C1947 1.415 . S
C1950 H1940 0.930 . S
C1950 C1948 1.419 . S
C1950 C1951 1.362 . S
C1951 H1941 0.930 . S
C1951 C1944 1.409 . S
C1951 C1950 1.362 . S
H1952 C1958 0.930 . S
H1953 C1961 0.930 . S
H1954 C1962 0.930 . S
H1955 C1963 0.930 . S
H1956 C1966 0.930 . S
H1957 C1967 0.930 . S
C1958 H1952 0.930 . S
C1958 C1959 1.355 . S
C1958 C1960 1.415 . S
C1959 C1958 1.355 . S
C1959 C1961 1.419 . S
C1960 C1958 1.415 . S
C1960 C1965 1.425 . S
C1960 C1967 1.409 . S
C1961 H1953 0.930 . S
C1961 C1959 1.419 . S
C1961 C1962 1.362 . S
C1962 H1954 0.930 . S
C1962 C1961 1.362 . S
C1962 C1965 1.409 . S
C1963 H1955 0.930 . S
C1963 C1964 1.355 . S
C1963 C1965 1.415 . S
C1964 C1963 1.355 . S
C1964 C1966 1.419 . S
C1965 C1960 1.425 . S
C1965 C1962 1.409 . S
C1965 C1963 1.415 . S
C1966 H1956 0.930 . S
C1966 C1964 1.419 . S
C1966 C1967 1.362 . S
C1967 H1957 0.930 . S
C1967 C1960 1.409 . S
C1967 C1966 1.362 . S
H1968 C1974 0.930 . S
H1969 C1977 0.930 . S
H1970 C1978 0.930 . S
H1971 C1979 0.930 . S
H1972 C1982 0.930 . S
H1973 C1983 0.930 . S
C1974 H1968 0.930 . S
C1974 C1975 1.355 . S
C1974 C1976 1.415 . S
C1975 C1974 1.355 . S
C1975 C1977 1.419 . S
C1976 C1974 1.415 . S
C1976 C1981 1.425 . S
C1976 C1983 1.409 . S
C1977 H1969 0.930 . S
C1977 C1975 1.419 . S
C1977 C1978 1.362 . S
C1978 H1970 0.930 . S
C1978 C1977 1.362 . S
C1978 C1981 1.409 . S
C1979 H1971 0.930 . S
C1979 C1980 1.355 . S
C1979 C1981 1.415 . S
C1980 C1979 1.355 . S
C1980 C1982 1.419 . S
C1981 C1976 1.425 . S
C1981 C1978 1.409 . S
C1981 C1979 1.415 . S
C1982 H1972 0.930 . S
C1982 C1980 1.419 . S
C1982 C1983 1.362 . S
C1983 H1973 0.930 . S
C1983 C1976 1.409 . S
C1983 C1982 1.362 . S
H1984 C1990 0.930 . S
H1985 C1993 0.930 . S
H1986 C1994 0.930 . S
H1987 C1995 0.930 . S
H1988 C1998 0.930 . S
H1989 C1999 0.930 . S
C1990 H1984 0.930 . S
C1990 C1991 1.355 . S
C1990 C1992 1.415 . S
C1991 C1990 1.355 . S
C1991 C1993 1.419 . S
C1992 C1990 1.415 . S
C1992 C1997 1.425 . S
C1992 C1999 1.409 . S
C1993 H1985 0.930 . S
C1993 C1991 1.419 . S
C1993 C1994 1.362 . S
C1994 H1986 0.930 . S
C1994 C1993 1.362 . S
C1994 C1997 1.409 . S
C1995 H1987 0.930 . S
C1995 C1996 1.355 . S
C1995 C1997 1.415 . S
C1996 C1995 1.355 . S
C1996 C1998 1.419 . S
C1997 C1992 1.425 . S
C1997 C1994 1.409 . S
C1997 C1995 1.415 . S
C1998 H1988 0.930 . S
C1998 C1996 1.419 . S
C1998 C1999 1.362 . S
C1999 H1989 0.930 . S
C1999 C1992 1.409 . S
C1999 C1998 1.362 . S
H2000 C2006 0.930 . S
H2001 C2009 0.930 . S
H2002 C2010 0.930 . S
H2003 C2011 0.930 . S
H2004 C2014 0.930 . S
H2005 C2015 0.930 . S
C2006 H2000 0.930 . S
C2006 C2007 1.355 . S
C2006 C2008 1.415 . S
C2007 C2006 1.355 . S
C2007 C2009 1.419 . S
C2008 C2006 1.415 . S
C2008 C2013 1.425 . S
C2008 C2015 1.409 . S
C2009 H2001 0.930 . S
C2009 C2007 1.419 . S
C2009 C2010 1.362 . S
C2010 H2002 0.930 . S
C2010 C2009 1.362 . S
C2010 C2013 1.409 . S
C2011 H2003 0.930 . S
C2011 C2012 1.355 . S
C2011 C2013 1.415 . S
C2012 C2011 1.355 . S
C2012 C2014 1.419 . S
C2013 C2008 1.425 . S
C2013 C2010 1.409 . S
C2013 C2011 1.415 . S
C2014 H2004 0.930 . S
C2014 C2012 1.419 . S
C2014 C2015 1.362 . S
C2015 H2005 0.930 . S
C2015 C2008 1.409 . S
C2015 C2014 1.362 . S
H2016 C2022 0.930 . S
H2017 C2025 0.930 . S
H2018 C2026 0.930 . S
H2019 C2027 0.930 . S
H2020 C2030 0.930 . S
H2021 C2031 0.930 . S
C2022 H2016 0.930 . S
C2022 C2023 1.355 . S
C2022 C2024 1.415 . S
C2023 C2022 1.355 . S
C2023 C2025 1.419 . S
C2024 C2022 1.415 . S
C2024 C2029 1.425 . S
C2024 C2031 1.409 . S
C2025 H2017 0.930 . S
C2025 C2023 1.419 . S
C2025 C2026 1.362 . S
C2026 H2018 0.930 . S
C2026 C2025 1.362 . S
C2026 C2029 1.409 . S
C2027 H2019 0.930 . S
C2027 C2028 1.355 . S
C2027 C2029 1.415 . S
C2028 C2027 1.355 . S
C2028 C2030 1.419 . S
C2029 C2024 1.425 . S
C2029 C2026 1.409 . S
C2029 C2027 1.415 . S
C2030 H2020 0.930 . S
C2030 C2028 1.419 . S
C2030 C2031 1.362 . S
C2031 H2021 0.930 . S
C2031 C2024 1.409 . S
C2031 C2030 1.362 . S
H2032 C2038 0.930 . S
H2033 C2041 0.930 . S
H2034 C2042 0.930 . S
H2035 C2043 0.930 . S
H2036 C2046 0.930 . S
H2037 C2047 0.930 1_545 S
C2038 H2032 0.930 . S
C2038 C2039 1.355 1_545 S
C2038 C2040 1.415 1_545 S
C2039 C2038 1.355 1_565 S
C2039 C2041 1.419 . S
C2040 C2038 1.415 1_565 S
C2040 C2045 1.425 . S
C2040 C2047 1.409 . S
C2041 H2033 0.930 . S
C2041 C2039 1.419 . S
C2041 C2042 1.362 . S
C2042 H2034 0.930 . S
C2042 C2041 1.362 . S
C2042 C2045 1.409 . S
C2043 H2035 0.930 . S
C2043 C2044 1.355 . S
C2043 C2045 1.415 . S
C2044 C2043 1.355 . S
C2044 C2046 1.419 . S
C2045 C2040 1.425 . S
C2045 C2042 1.409 . S
C2045 C2043 1.415 . S
C2046 H2036 0.930 . S
C2046 C2044 1.419 . S
C2046 C2047 1.362 . S
C2047 H2037 0.930 1_565 S
C2047 C2040 1.409 . S
C2047 C2046 1.362 . S
H2048 C2054 0.930 . S
H2049 C2057 0.930 . S
H2050 C2058 0.930 . S
H2051 C2059 0.930 . S
H2052 C2062 0.930 . S
H2053 C2063 0.930 . S
C2054 H2048 0.930 . S
C2054 C2055 1.355 . S
C2054 C2056 1.415 . S
C2055 C2054 1.355 . S
C2055 C2057 1.419 . S
C2056 C2054 1.415 . S
C2056 C2061 1.425 . S
C2056 C2063 1.409 1_455 S
C2057 H2049 0.930 . S
C2057 C2055 1.419 . S
C2057 C2058 1.362 . S
C2058 H2050 0.930 . S
C2058 C2057 1.362 . S
C2058 C2061 1.409 . S
C2059 H2051 0.930 . S
C2059 C2060 1.355 1_455 S
C2059 C2061 1.415 . S
C2060 C2059 1.355 1_655 S
C2060 C2062 1.419 . S
C2061 C2056 1.425 . S
C2061 C2058 1.409 . S
C2061 C2059 1.415 . S
C2062 H2052 0.930 . S
C2062 C2060 1.419 . S
C2062 C2063 1.362 . S
C2063 H2053 0.930 . S
C2063 C2056 1.409 1_655 S
C2063 C2062 1.362 . S
H2064 C2070 0.930 . S
H2065 C2073 0.930 . S
H2066 C2074 0.930 . S
H2067 C2075 0.930 . S
H2068 C2078 0.930 . S
H2069 C2079 0.930 . S
C2070 H2064 0.930 . S
C2070 C2071 1.355 . S
C2070 C2072 1.415 . S
C2071 C2070 1.355 . S
C2071 C2073 1.419 . S
C2072 C2070 1.415 . S
C2072 C2077 1.425 . S
C2072 C2079 1.409 . S
C2073 H2065 0.930 . S
C2073 C2071 1.419 . S
C2073 C2074 1.362 . S
C2074 H2066 0.930 . S
C2074 C2073 1.362 . S
C2074 C2077 1.409 . S
C2075 H2067 0.930 . S
C2075 C2076 1.355 . S
C2075 C2077 1.415 . S
C2076 C2075 1.355 . S
C2076 C2078 1.419 . S
C2077 C2072 1.425 . S
C2077 C2074 1.409 . S
C2077 C2075 1.415 . S
C2078 H2068 0.930 . S
C2078 C2076 1.419 . S
C2078 C2079 1.362 . S
C2079 H2069 0.930 . S
C2079 C2072 1.409 . S
C2079 C2078 1.362 . S
H2080 C2086 0.930 . S
H2081 C2089 0.930 . S
H2082 C2090 0.930 . S
H2083 C2091 0.930 . S
H2084 C2094 0.930 . S
H2085 C2095 0.930 . S
C2086 H2080 0.930 . S
C2086 C2087 1.355 1_545 S
C2086 C2088 1.415 . S
C2087 C2086 1.355 1_565 S
C2087 C2089 1.419 . S
C2088 C2086 1.415 . S
C2088 C2093 1.425 . S
C2088 C2095 1.409 . S
C2089 H2081 0.930 . S
C2089 C2087 1.419 . S
C2089 C2090 1.362 . S
C2090 H2082 0.930 . S
C2090 C2089 1.362 . S
C2090 C2093 1.409 1_565 S
C2091 H2083 0.930 . S
C2091 C2092 1.355 . S
C2091 C2093 1.415 . S
C2092 C2091 1.355 . S
C2092 C2094 1.419 . S
C2093 C2088 1.425 . S
C2093 C2090 1.409 1_545 S
C2093 C2091 1.415 . S
C2094 H2084 0.930 . S
C2094 C2092 1.419 . S
C2094 C2095 1.362 . S
C2095 H2085 0.930 . S
C2095 C2088 1.409 . S
C2095 C2094 1.362 . S
H2096 C2102 0.930 . S
H2097 C2105 0.930 . S
H2098 C2106 0.930 . S
H2099 C2107 0.930 . S
H2100 C2110 0.930 . S
H2101 C2111 0.930 . S
C2102 H2096 0.930 . S
C2102 C2103 1.355 . S
C2102 C2104 1.415 . S
C2103 C2102 1.355 . S
C2103 C2105 1.419 . S
C2104 C2102 1.415 . S
C2104 C2109 1.425 . S
C2104 C2111 1.409 1_655 S
C2105 H2097 0.930 . S
C2105 C2103 1.419 . S
C2105 C2106 1.362 . S
C2106 H2098 0.930 . S
C2106 C2105 1.362 . S
C2106 C2109 1.409 . S
C2107 H2099 0.930 . S
C2107 C2108 1.355 1_655 S
C2107 C2109 1.415 . S
C2108 C2107 1.355 1_455 S
C2108 C2110 1.419 . S
C2109 C2104 1.425 . S
C2109 C2106 1.409 . S
C2109 C2107 1.415 . S
C2110 H2100 0.930 . S
C2110 C2108 1.419 . S
C2110 C2111 1.362 . S
C2111 H2101 0.930 . S
C2111 C2104 1.409 1_455 S
C2111 C2110 1.362 . S
H2112 C2118 0.930 . S
H2113 C2121 0.930 . S
H2114 C2122 0.930 . S
H2115 C2123 0.930 . S
H2116 C2126 0.930 . S
H2117 C2127 0.930 . S
C2118 H2112 0.930 . S
C2118 C2119 1.355 . S
C2118 C2120 1.415 . S
C2119 C2118 1.355 . S
C2119 C2121 1.419 . S
C2120 C2118 1.415 . S
C2120 C2125 1.425 . S
C2120 C2127 1.409 . S
C2121 H2113 0.930 . S
C2121 C2119 1.419 . S
C2121 C2122 1.362 . S
C2122 H2114 0.930 . S
C2122 C2121 1.362 . S
C2122 C2125 1.409 . S
C2123 H2115 0.930 . S
C2123 C2124 1.355 . S
C2123 C2125 1.415 . S
C2124 C2123 1.355 . S
C2124 C2126 1.419 . S
C2125 C2120 1.425 . S
C2125 C2122 1.409 . S
C2125 C2123 1.415 . S
C2126 H2116 0.930 . S
C2126 C2124 1.419 . S
C2126 C2127 1.362 . S
C2127 H2117 0.930 . S
C2127 C2120 1.409 . S
C2127 C2126 1.362 . S
H2128 C2134 0.930 . S
H2129 C2137 0.930 . S
H2130 C2138 0.930 . S
H2131 C2139 0.930 . S
H2132 C2142 0.930 . S
H2133 C2143 0.930 . S
C2134 H2128 0.930 . S
C2134 C2135 1.355 . S
C2134 C2136 1.415 . S
C2135 C2134 1.355 . S
C2135 C2137 1.419 . S
C2136 C2134 1.415 . S
C2136 C2141 1.425 . S
C2136 C2143 1.409 . S
C2137 H2129 0.930 . S
C2137 C2135 1.419 . S
C2137 C2138 1.362 1_545 S
C2138 H2130 0.930 . S
C2138 C2137 1.362 1_565 S
C2138 C2141 1.409 1_565 S
C2139 H2131 0.930 . S
C2139 C2140 1.355 1_565 S
C2139 C2141 1.415 1_565 S
C2140 C2139 1.355 1_545 S
C2140 C2142 1.419 . S
C2141 C2136 1.425 . S
C2141 C2138 1.409 1_545 S
C2141 C2139 1.415 1_545 S
C2142 H2132 0.930 . S
C2142 C2140 1.419 . S
C2142 C2143 1.362 . S
C2143 H2133 0.930 . S
C2143 C2136 1.409 . S
C2143 C2142 1.362 . S
H2144 C2150 0.930 . S
H2145 C2153 0.930 . S
H2146 C2154 0.930 . S
H2147 C2155 0.930 . S
H2148 C2158 0.930 1_455 S
H2149 C2159 0.930 . S
C2150 H2144 0.930 . S
C2150 C2151 1.355 . S
C2150 C2152 1.415 . S
C2151 C2150 1.355 . S
C2151 C2153 1.419 . S
C2152 C2150 1.415 . S
C2152 C2157 1.425 . S
C2152 C2159 1.409 . S
C2153 H2145 0.930 . S
C2153 C2151 1.419 . S
C2153 C2154 1.362 . S
C2154 H2146 0.930 . S
C2154 C2153 1.362 . S
C2154 C2157 1.409 . S
C2155 H2147 0.930 . S
C2155 C2156 1.354 . S
C2155 C2157 1.415 . S
C2156 C2155 1.354 . S
C2156 C2158 1.419 . S
C2157 C2152 1.425 . S
C2157 C2154 1.409 . S
C2157 C2155 1.415 . S
C2158 H2148 0.930 1_655 S
C2158 C2156 1.419 . S
C2158 C2159 1.362 . S
C2159 H2149 0.930 . S
C2159 C2152 1.409 . S
C2159 C2158 1.362 . S
H2160 C2166 0.930 . S
H2161 C2169 0.930 . S
H2162 C2170 0.930 . S
H2163 C2171 0.930 . S
H2164 C2174 0.930 . S
H2165 C2175 0.930 . S
C2166 H2160 0.930 . S
C2166 C2167 1.355 . S
C2166 C2168 1.415 . S
C2167 C2166 1.355 . S
C2167 C2169 1.419 . S
C2168 C2166 1.415 . S
C2168 C2173 1.425 . S
C2168 C2175 1.409 . S
C2169 H2161 0.930 . S
C2169 C2167 1.419 . S
C2169 C2170 1.362 . S
C2170 H2162 0.930 . S
C2170 C2169 1.362 . S
C2170 C2173 1.409 . S
C2171 H2163 0.930 . S
C2171 C2172 1.355 . S
C2171 C2173 1.415 . S
C2172 C2171 1.355 . S
C2172 C2174 1.419 . S
C2173 C2168 1.425 . S
C2173 C2170 1.409 . S
C2173 C2171 1.415 . S
C2174 H2164 0.930 . S
C2174 C2172 1.419 . S
C2174 C2175 1.362 . S
C2175 H2165 0.930 . S
C2175 C2168 1.409 . S
C2175 C2174 1.362 . S
H2176 C2182 0.930 . S
H2177 C2185 0.930 . S
H2178 C2186 0.930 . S
H2179 C2187 0.930 . S
H2180 C2190 0.930 . S
H2181 C2191 0.930 1_545 S
C2182 H2176 0.930 . S
C2182 C2183 1.355 1_545 S
C2182 C2184 1.415 1_545 S
C2183 C2182 1.355 1_565 S
C2183 C2185 1.419 . S
C2184 C2182 1.415 1_565 S
C2184 C2189 1.425 . S
C2184 C2191 1.409 . S
C2185 H2177 0.930 . S
C2185 C2183 1.419 . S
C2185 C2186 1.362 . S
C2186 H2178 0.930 . S
C2186 C2185 1.362 . S
C2186 C2189 1.409 . S
C2187 H2179 0.930 . S
C2187 C2188 1.355 . S
C2187 C2189 1.415 . S
C2188 C2187 1.355 . S
C2188 C2190 1.419 . S
C2189 C2184 1.425 . S
C2189 C2186 1.409 . S
C2189 C2187 1.415 . S
C2190 H2180 0.930 . S
C2190 C2188 1.419 . S
C2190 C2191 1.362 . S
C2191 H2181 0.930 1_565 S
C2191 C2184 1.409 . S
C2191 C2190 1.362 . S
H2192 C2198 0.930 . S
H2193 C2201 0.930 . S
H2194 C2202 0.930 . S
H2195 C2203 0.930 . S
H2196 C2206 0.930 . S
H2197 C2207 0.930 . S
C2198 H2192 0.930 . S
C2198 C2199 1.355 1_455 S
C2198 C2200 1.415 . S
C2199 C2198 1.355 1_655 S
C2199 C2201 1.419 . S
C2200 C2198 1.415 . S
C2200 C2205 1.425 . S
C2200 C2207 1.409 . S
C2201 H2193 0.930 . S
C2201 C2199 1.419 . S
C2201 C2202 1.362 . S
C2202 H2194 0.930 . S
C2202 C2201 1.362 . S
C2202 C2205 1.409 1_655 S
C2203 H2195 0.930 . S
C2203 C2204 1.355 . S
C2203 C2205 1.415 . S
C2204 C2203 1.355 . S
C2204 C2206 1.419 . S
C2205 C2200 1.425 . S
C2205 C2202 1.409 1_455 S
C2205 C2203 1.415 . S
C2206 H2196 0.930 . S
C2206 C2204 1.419 . S
C2206 C2207 1.362 . S
C2207 H2197 0.930 . S
C2207 C2200 1.409 . S
C2207 C2206 1.362 . S
H2208 C2214 0.930 . S
H2209 C2217 0.930 . S
H2210 C2218 0.930 1_455 S
H2211 C2219 0.930 . S
H2212 C2222 0.930 . S
H2213 C2223 0.930 . S
C2214 H2208 0.930 . S
C2214 C2215 1.355 . S
C2214 C2216 1.415 1_655 S
C2215 C2214 1.355 . S
C2215 C2217 1.419 . S
C2216 C2214 1.415 1_455 S
C2216 C2221 1.425 . S
C2216 C2223 1.409 . S
C2217 H2209 0.930 . S
C2217 C2215 1.419 . S
C2217 C2218 1.362 . S
C2218 H2210 0.930 1_655 S
C2218 C2217 1.362 . S
C2218 C2221 1.409 1_655 S
C2219 H2211 0.930 . S
C2219 C2220 1.355 . S
C2219 C2221 1.415 . S
C2220 C2219 1.355 . S
C2220 C2222 1.419 . S
C2221 C2216 1.425 . S
C2221 C2218 1.409 1_455 S
C2221 C2219 1.415 . S
C2222 H2212 0.930 . S
C2222 C2220 1.419 . S
C2222 C2223 1.362 . S
C2223 H2213 0.930 . S
C2223 C2216 1.409 . S
C2223 C2222 1.362 . S
H2224 C2230 0.930 . S
H2225 C2233 0.930 . S
H2226 C2234 0.930 . S
H2227 C2235 0.930 . S
H2228 C2238 0.930 . S
H2229 C2239 0.930 . S
C2230 H2224 0.930 . S
C2230 C2231 1.355 . S
C2230 C2232 1.415 . S
C2231 C2230 1.355 . S
C2231 C2233 1.419 . S
C2232 C2230 1.415 . S
C2232 C2237 1.425 . S
C2232 C2239 1.409 . S
C2233 H2225 0.930 . S
C2233 C2231 1.419 . S
C2233 C2234 1.362 . S
C2234 H2226 0.930 . S
C2234 C2233 1.362 . S
C2234 C2237 1.409 . S
C2235 H2227 0.930 . S
C2235 C2236 1.355 . S
C2235 C2237 1.415 . S
C2236 C2235 1.355 . S
C2236 C2238 1.419 . S
C2237 C2232 1.425 . S
C2237 C2234 1.409 . S
C2237 C2235 1.415 . S
C2238 H2228 0.930 . S
C2238 C2236 1.419 . S
C2238 C2239 1.362 . S
C2239 H2229 0.930 . S
C2239 C2232 1.409 . S
C2239 C2238 1.362 . S
H2240 C2246 0.930 . S
H2241 C2249 0.930 . S
H2242 C2250 0.930 . S
H2243 C2251 0.930 . S
H2244 C2254 0.930 . S
H2245 C2255 0.930 1_565 S
C2246 H2240 0.930 . S
C2246 C2247 1.355 . S
C2246 C2248 1.415 . S
C2247 C2246 1.355 . S
C2247 C2249 1.419 . S
C2248 C2246 1.415 . S
C2248 C2253 1.425 . S
C2248 C2255 1.409 1_565 S
C2249 H2241 0.930 . S
C2249 C2247 1.419 . S
C2249 C2250 1.362 . S
C2250 H2242 0.930 . S
C2250 C2249 1.362 . S
C2250 C2253 1.409 . S
C2251 H2243 0.930 . S
C2251 C2252 1.355 . S
C2251 C2253 1.415 1_545 S
C2252 C2251 1.355 . S
C2252 C2254 1.419 . S
C2253 C2248 1.425 . S
C2253 C2250 1.409 . S
C2253 C2251 1.415 1_565 S
C2254 H2244 0.930 . S
C2254 C2252 1.419 . S
C2254 C2255 1.362 . S
C2255 H2245 0.930 1_545 S
C2255 C2248 1.409 1_545 S
C2255 C2254 1.362 . S
H2256 C2262 0.930 . S
H2257 C2265 0.930 . S
H2258 C2266 0.930 . S
H2259 C2267 0.930 . S
H2260 C2270 0.930 . S
H2261 C2271 0.930 . S
C2262 H2256 0.930 . S
C2262 C2263 1.355 . S
C2262 C2264 1.415 . S
C2263 C2262 1.355 . S
C2263 C2265 1.419 . S
C2264 C2262 1.415 . S
C2264 C2269 1.425 . S
C2264 C2271 1.409 . S
C2265 H2257 0.930 . S
C2265 C2263 1.419 . S
C2265 C2266 1.362 . S
C2266 H2258 0.930 . S
C2266 C2265 1.362 . S
C2266 C2269 1.409 . S
C2267 H2259 0.930 . S
C2267 C2268 1.355 . S
C2267 C2269 1.415 . S
C2268 C2267 1.355 . S
C2268 C2270 1.419 . S
C2269 C2264 1.425 . S
C2269 C2266 1.409 . S
C2269 C2267 1.415 . S
C2270 H2260 0.930 . S
C2270 C2268 1.419 . S
C2270 C2271 1.362 . S
C2271 H2261 0.930 . S
C2271 C2264 1.409 . S
C2271 C2270 1.362 . S
H2272 C2278 0.930 . S
H2273 C2281 0.930 . S
H2274 C2282 0.930 . S
H2275 C2283 0.930 . S
H2276 C2286 0.930 . S
H2277 C2287 0.930 . S
C2278 H2272 0.930 . S
C2278 C2279 1.355 . S
C2278 C2280 1.415 . S
C2279 C2278 1.355 . S
C2279 C2281 1.419 . S
C2280 C2278 1.415 . S
C2280 C2285 1.425 . S
C2280 C2287 1.409 . S
C2281 H2273 0.930 . S
C2281 C2279 1.419 . S
C2281 C2282 1.362 . S
C2282 H2274 0.930 . S
C2282 C2281 1.362 . S
C2282 C2285 1.409 . S
C2283 H2275 0.930 . S
C2283 C2284 1.355 . S
C2283 C2285 1.415 . S
C2284 C2283 1.355 . S
C2284 C2286 1.419 . S
C2285 C2280 1.425 . S
C2285 C2282 1.409 . S
C2285 C2283 1.415 . S
C2286 H2276 0.930 . S
C2286 C2284 1.419 . S
C2286 C2287 1.362 . S
C2287 H2277 0.930 . S
C2287 C2280 1.409 . S
C2287 C2286 1.362 . S
H2288 C2294 0.930 . S
H2289 C2297 0.930 . S
H2290 C2298 0.930 . S
H2291 C2299 0.930 . S
H2292 C2302 0.930 . S
H2293 C2303 0.930 1_545 S
C2294 H2288 0.930 . S
C2294 C2295 1.355 . S
C2294 C2296 1.415 . S
C2295 C2294 1.355 . S
C2295 C2297 1.419 . S
C2296 C2294 1.415 . S
C2296 C2301 1.425 . S
C2296 C2303 1.409 . S
C2297 H2289 0.930 . S
C2297 C2295 1.419 . S
C2297 C2298 1.362 . S
C2298 H2290 0.930 . S
C2298 C2297 1.362 . S
C2298 C2301 1.409 . S
C2299 H2291 0.930 . S
C2299 C2300 1.355 . S
C2299 C2301 1.415 . S
C2300 C2299 1.355 . S
C2300 C2302 1.419 1_565 S
C2301 C2296 1.425 . S
C2301 C2298 1.409 . S
C2301 C2299 1.415 . S
C2302 H2292 0.930 . S
C2302 C2300 1.419 1_545 S
C2302 C2303 1.362 1_545 S
C2303 H2293 0.930 1_565 S
C2303 C2296 1.409 . S
C2303 C2302 1.362 1_565 S
H2304 C2310 0.930 . S
H2305 C2313 0.930 . S
H2306 C2314 0.930 . S
H2307 C2315 0.930 . S
H2308 C2318 0.930 . S
H2309 C2319 0.930 . S
C2310 H2304 0.930 . S
C2310 C2311 1.355 . S
C2310 C2312 1.415 . S
C2311 C2310 1.355 . S
C2311 C2313 1.419 . S
C2312 C2310 1.415 . S
C2312 C2317 1.425 . S
C2312 C2319 1.409 . S
C2313 H2305 0.930 . S
C2313 C2311 1.419 . S
C2313 C2314 1.362 . S
C2314 H2306 0.930 . S
C2314 C2313 1.362 . S
C2314 C2317 1.409 . S
C2315 H2307 0.930 . S
C2315 C2316 1.355 . S
C2315 C2317 1.415 . S
C2316 C2315 1.355 . S
C2316 C2318 1.419 1_565 S
C2317 C2312 1.425 . S
C2317 C2314 1.409 . S
C2317 C2315 1.415 . S
C2318 H2308 0.930 . S
C2318 C2316 1.419 1_545 S
C2318 C2319 1.362 1_545 S
C2319 H2309 0.930 . S
C2319 C2312 1.409 . S
C2319 C2318 1.362 1_565 S
H2320 C2326 0.930 . S
H2321 C2329 0.930 . S
H2322 C2330 0.930 1_655 S
H2323 C2331 0.930 . S
H2324 C2334 0.930 . S
H2325 C2335 0.930 . S
C2326 H2320 0.930 . S
C2326 C2327 1.355 . S
C2326 C2328 1.415 . S
C2327 C2326 1.355 . S
C2327 C2329 1.419 1_455 S
C2328 C2326 1.415 . S
C2328 C2333 1.425 . S
C2328 C2335 1.409 . S
C2329 H2321 0.930 . S
C2329 C2327 1.419 1_655 S
C2329 C2330 1.362 1_655 S
C2330 H2322 0.930 1_455 S
C2330 C2329 1.362 1_455 S
C2330 C2333 1.409 . S
C2331 H2323 0.930 . S
C2331 C2332 1.355 . S
C2331 C2333 1.415 . S
C2332 C2331 1.355 . S
C2332 C2334 1.419 . S
C2333 C2328 1.425 . S
C2333 C2330 1.409 . S
C2333 C2331 1.415 . S
C2334 H2324 0.930 . S
C2334 C2332 1.419 . S
C2334 C2335 1.362 . S
C2335 H2325 0.930 . S
C2335 C2328 1.409 . S
C2335 C2334 1.362 . S
H2336 C2342 0.930 . S
H2337 C2345 0.930 . S
H2338 C2346 0.930 . S
H2339 C2347 0.930 . S
H2340 C2350 0.930 . S
H2341 C2351 0.930 . S
C2342 H2336 0.930 . S
C2342 C2343 1.355 . S
C2342 C2344 1.415 . S
C2343 C2342 1.355 . S
C2343 C2345 1.419 . S
C2344 C2342 1.415 . S
C2344 C2349 1.425 . S
C2344 C2351 1.409 . S
C2345 H2337 0.930 . S
C2345 C2343 1.419 . S
C2345 C2346 1.362 . S
C2346 H2338 0.930 . S
C2346 C2345 1.362 . S
C2346 C2349 1.409 . S
C2347 H2339 0.930 . S
C2347 C2348 1.355 . S
C2347 C2349 1.415 . S
C2348 C2347 1.355 . S
C2348 C2350 1.419 . S
C2349 C2344 1.425 . S
C2349 C2346 1.409 . S
C2349 C2347 1.415 . S
C2350 H2340 0.930 . S
C2350 C2348 1.419 . S
C2350 C2351 1.362 . S
C2351 H2341 0.930 . S
C2351 C2344 1.409 . S
C2351 C2350 1.362 . S
H2352 C2358 0.930 . S
H2353 C2361 0.930 . S
H2354 C2362 0.930 . S
H2355 C2363 0.930 . S
H2356 C2366 0.938 . S
H2357 C2367 0.931 . S
C2358 H2352 0.930 . S
C2358 C2359 1.354 . S
C2358 C2360 1.405 1_554 S
C2359 C2358 1.354 . S
C2359 C2361 1.421 1_554 S
C2360 C2358 1.405 1_556 S
C2360 C2365 1.444 . S
C2360 C2367 1.406 1_556 S
C2361 H2353 0.930 . S
C2361 C2359 1.421 1_556 S
C2361 C2362 1.362 . S
C2362 H2354 0.930 . S
C2362 C2361 1.362 . S
C2362 C2365 1.409 . S
C2363 H2355 0.930 . S
C2363 C2364 1.355 . S
C2363 C2365 1.415 1_545 S
C2364 C2363 1.355 . S
C2364 C2366 1.419 . S
C2365 C2360 1.444 . S
C2365 C2362 1.409 . S
C2365 C2363 1.415 1_565 S
C2366 H2356 0.938 . S
C2366 C2364 1.419 . S
C2366 C2367 1.362 1_546 S
C2367 H2357 0.931 . S
C2367 C2360 1.406 1_554 S
C2367 C2366 1.362 1_564 S
H2368 C2374 0.930 . S
H2369 C2377 0.930 . S
H2370 C2378 0.930 . S
H2371 C2379 0.930 . S
H2372 C2382 0.930 . S
H2373 C2383 0.930 . S
C2374 H2368 0.930 . S
C2374 C2375 1.333 1_554 S
C2374 C2376 1.422 . S
C2375 C2374 1.333 1_556 S
C2375 C2377 1.462 . S
C2376 C2374 1.422 . S
C2376 C2381 1.405 1_554 S
C2376 C2383 1.423 1_455 S
C2377 H2369 0.930 . S
C2377 C2375 1.462 . S
C2377 C2378 1.362 . S
C2378 H2370 0.930 . S
C2378 C2377 1.362 . S
C2378 C2381 1.409 . S
C2379 H2371 0.930 . S
C2379 C2380 1.355 . S
C2379 C2381 1.415 1_655 S
C2380 C2379 1.355 . S
C2380 C2382 1.419 1_556 S
C2381 C2376 1.405 1_556 S
C2381 C2378 1.409 . S
C2381 C2379 1.415 1_455 S
C2382 H2372 0.930 . S
C2382 C2380 1.419 1_554 S
C2382 C2383 1.362 . S
C2383 H2373 0.930 . S
C2383 C2376 1.423 1_655 S
C2383 C2382 1.362 . S
H2384 C2390 0.930 . S
H2385 C2393 0.930 . S
H2386 C2394 0.930 . S
H2387 C2395 0.930 . S
H2388 C2398 0.930 . S
H2389 C2399 0.930 . S
C2390 H2384 0.930 . S
C2390 C2391 1.355 . S
C2390 C2392 1.415 . S
C2391 C2390 1.355 . S
C2391 C2393 1.419 1_556 S
C2392 C2390 1.415 . S
C2392 C2397 1.425 1_556 S
C2392 C2399 1.409 . S
C2393 H2385 0.930 . S
C2393 C2391 1.419 1_554 S
C2393 C2394 1.362 . S
C2394 H2386 0.930 . S
C2394 C2393 1.362 . S
C2394 C2397 1.409 . S
C2395 H2387 0.930 . S
C2395 C2396 1.355 1_554 S
C2395 C2397 1.415 . S
C2396 C2395 1.355 1_556 S
C2396 C2398 1.419 . S
C2397 C2392 1.425 1_554 S
C2397 C2394 1.409 . S
C2397 C2395 1.415 . S
C2398 H2388 0.930 . S
C2398 C2396 1.419 . S
C2398 C2399 1.362 . S
C2399 H2389 0.930 . S
C2399 C2392 1.409 . S
C2399 C2398 1.362 . S
H2400 C2406 0.930 . S
H2401 C2409 0.930 . S
H2402 C2410 0.930 . S
H2403 C2411 0.930 . S
H2404 C2414 0.930 . S
H2405 C2415 0.930 . S
C2406 H2400 0.930 . S
C2406 C2407 1.355 . S
C2406 C2408 1.415 . S
C2407 C2406 1.355 . S
C2407 C2409 1.419 . S
C2408 C2406 1.415 . S
C2408 C2413 1.425 . S
C2408 C2415 1.409 . S
C2409 H2401 0.930 . S
C2409 C2407 1.419 . S
C2409 C2410 1.362 . S
C2410 H2402 0.930 . S
C2410 C2409 1.362 . S
C2410 C2413 1.409 . S
C2411 H2403 0.930 . S
C2411 C2412 1.355 . S
C2411 C2413 1.415 . S
C2412 C2411 1.355 . S
C2412 C2414 1.419 . S
C2413 C2408 1.425 . S
C2413 C2410 1.409 . S
C2413 C2411 1.415 . S
C2414 H2404 0.930 . S
C2414 C2412 1.419 . S
C2414 C2415 1.362 . S
C2415 H2405 0.930 . S
C2415 C2408 1.409 . S
C2415 C2414 1.362 . S
H2416 C2422 0.930 . S
H2417 C2425 0.930 . S
H2418 C2426 0.930 1_455 S
H2419 C2427 0.930 1_455 S
H2420 C2430 0.930 . S
H2421 C2431 0.930 . S
C2422 H2416 0.930 . S
C2422 C2423 1.355 . S
C2422 C2424 1.415 . S
C2423 C2422 1.355 . S
C2423 C2425 1.419 . S
C2424 C2422 1.415 . S
C2424 C2429 1.425 . S
C2424 C2431 1.409 . S
C2425 H2417 0.930 . S
C2425 C2423 1.419 . S
C2425 C2426 1.362 . S
C2426 H2418 0.930 1_655 S
C2426 C2425 1.362 . S
C2426 C2429 1.409 . S
C2427 H2419 0.930 1_655 S
C2427 C2428 1.355 . S
C2427 C2429 1.415 . S
C2428 C2427 1.355 . S
C2428 C2430 1.419 . S
C2429 C2424 1.425 . S
C2429 C2426 1.409 . S
C2429 C2427 1.415 . S
C2430 H2420 0.930 . S
C2430 C2428 1.419 . S
C2430 C2431 1.362 . S
C2431 H2421 0.930 . S
C2431 C2424 1.409 . S
C2431 C2430 1.362 . S
H2432 C2438 0.930 . S
H2433 C2441 0.930 . S
H2434 C2442 0.930 . S
H2435 C2443 0.930 . S
H2436 C2446 0.930 . S
H2437 C2447 0.930 . S
C2438 H2432 0.930 . S
C2438 C2439 1.355 . S
C2438 C2440 1.415 . S
C2439 C2438 1.355 . S
C2439 C2441 1.419 . S
C2440 C2438 1.415 . S
C2440 C2445 1.425 . S
C2440 C2447 1.409 . S
C2441 H2433 0.930 . S
C2441 C2439 1.419 . S
C2441 C2442 1.362 . S
C2442 H2434 0.930 . S
C2442 C2441 1.362 . S
C2442 C2445 1.409 . S
C2443 H2435 0.930 . S
C2443 C2444 1.355 . S
C2443 C2445 1.415 . S
C2444 C2443 1.355 . S
C2444 C2446 1.419 . S
C2445 C2440 1.425 . S
C2445 C2442 1.409 . S
C2445 C2443 1.415 . S
C2446 H2436 0.930 . S
C2446 C2444 1.419 . S
C2446 C2447 1.362 . S
C2447 H2437 0.930 . S
C2447 C2440 1.409 . S
C2447 C2446 1.362 . S
H2448 C2454 0.930 . S
H2449 C2457 0.930 . S
H2450 C2458 0.936 . S
H2451 C2459 0.927 . S
H2452 C2462 0.930 . S
H2453 C2463 0.930 . S
C2454 H2448 0.930 . S
C2454 C2455 1.355 . S
C2454 C2456 1.415 1_565 S
C2455 C2454 1.355 . S
C2455 C2457 1.419 . S
C2456 C2454 1.415 1_545 S
C2456 C2461 1.425 . S
C2456 C2463 1.409 . S
C2457 H2449 0.930 . S
C2457 C2455 1.419 . S
C2457 C2458 1.362 . S
C2458 H2450 0.936 . S
C2458 C2457 1.362 . S
C2458 C2461 1.409 1_565 S
C2459 H2451 0.927 . S
C2459 C2460 1.355 . S
C2459 C2461 1.424 . S
C2460 C2459 1.355 . S
C2460 C2462 1.430 . S
C2461 C2456 1.425 . S
C2461 C2458 1.409 1_545 S
C2461 C2459 1.424 . S
C2462 H2452 0.930 . S
C2462 C2460 1.430 . S
C2462 C2463 1.362 . S
C2463 H2453 0.930 . S
C2463 C2456 1.409 . S
C2463 C2462 1.362 . S
H2464 C2470 0.923 1_556 S
H2465 C2473 0.930 . S
H2466 C2474 0.930 . S
H2467 C2475 0.930 . S
H2468 C2478 0.930 . S
H2469 C2479 0.923 1_655 S
C2470 H2464 0.923 1_554 S
C2470 C2471 1.355 1_554 S
C2470 C2472 1.413 . S
C2471 C2470 1.355 1_556 S
C2471 C2473 1.414 1_556 S
C2472 C2470 1.413 . S
C2472 C2477 1.425 . S
C2472 C2479 1.409 1_655 S
C2473 H2465 0.930 . S
C2473 C2471 1.414 1_554 S
C2473 C2474 1.373 . S
C2474 H2466 0.930 . S
C2474 C2473 1.373 . S
C2474 C2477 1.409 . S
C2475 H2467 0.930 . S
C2475 C2476 1.355 . S
C2475 C2477 1.415 1_455 S
C2476 C2475 1.355 . S
C2476 C2478 1.419 . S
C2477 C2472 1.425 . S
C2477 C2474 1.409 . S
C2477 C2475 1.415 1_655 S
C2478 H2468 0.930 . S
C2478 C2476 1.419 . S
C2478 C2479 1.362 . S
C2479 H2469 0.923 1_455 S
C2479 C2472 1.409 1_455 S
C2479 C2478 1.362 . S
H2480 C2486 0.930 . S
H2481 C2489 0.930 . S
H2482 C2490 0.930 . S
H2483 C2491 0.930 . S
H2484 C2494 0.930 . S
H2485 C2495 0.930 . S
C2486 H2480 0.930 . S
C2486 C2487 1.355 . S
C2486 C2488 1.415 . S
C2487 C2486 1.355 . S
C2487 C2489 1.419 1_554 S
C2488 C2486 1.415 . S
C2488 C2493 1.386 1_554 S
C2488 C2495 1.409 . S
C2489 H2481 0.930 . S
C2489 C2487 1.419 1_556 S
C2489 C2490 1.362 . S
C2490 H2482 0.930 . S
C2490 C2489 1.362 . S
C2490 C2493 1.438 . S
C2491 H2483 0.930 . S
C2491 C2492 1.316 1_556 S
C2491 C2493 1.429 . S
C2492 C2491 1.316 1_554 S
C2492 C2494 1.492 . S
C2493 C2488 1.386 1_556 S
C2493 C2490 1.438 . S
C2493 C2491 1.429 . S
C2494 H2484 0.930 . S
C2494 C2492 1.492 . S
C2494 C2495 1.362 . S
C2495 H2485 0.930 . S
C2495 C2488 1.409 . S
C2495 C2494 1.362 . S
H2496 C2502 0.930 . S
H2497 C2505 0.930 . S
H2498 C2506 0.930 1_655 S
H2499 C2507 0.930 . S
H2500 C2510 0.930 . S
H2501 C2511 0.930 . S
C2502 H2496 0.930 . S
C2502 C2503 1.355 . S
C2502 C2504 1.415 1_455 S
C2503 C2502 1.355 . S
C2503 C2505 1.419 . S
C2504 C2502 1.415 1_655 S
C2504 C2509 1.425 . S
C2504 C2511 1.409 . S
C2505 H2497 0.930 . S
C2505 C2503 1.419 . S
C2505 C2506 1.362 . S
C2506 H2498 0.930 1_455 S
C2506 C2505 1.362 . S
C2506 C2509 1.409 1_455 S
C2507 H2499 0.930 . S
C2507 C2508 1.355 . S
C2507 C2509 1.415 . S
C2508 C2507 1.355 . S
C2508 C2510 1.419 . S
C2509 C2504 1.425 . S
C2509 C2506 1.409 1_655 S
C2509 C2507 1.415 . S
C2510 H2500 0.930 . S
C2510 C2508 1.419 . S
C2510 C2511 1.362 . S
C2511 H2501 0.930 . S
C2511 C2504 1.409 . S
C2511 C2510 1.362 . S
H2512 C2518 0.930 . S
H2513 C2521 0.930 . S
H2514 C2522 0.930 . S
H2515 C2523 0.930 . S
H2516 C2526 0.930 . S
H2517 C2527 0.930 . S
C2518 H2512 0.930 . S
C2518 C2519 1.355 . S
C2518 C2520 1.415 . S
C2519 C2518 1.355 . S
C2519 C2521 1.419 . S
C2520 C2518 1.415 . S
C2520 C2525 1.425 . S
C2520 C2527 1.409 . S
C2521 H2513 0.930 . S
C2521 C2519 1.419 . S
C2521 C2522 1.362 . S
C2522 H2514 0.930 . S
C2522 C2521 1.362 . S
C2522 C2525 1.409 . S
C2523 H2515 0.930 . S
C2523 C2524 1.355 . S
C2523 C2525 1.415 . S
C2524 C2523 1.355 . S
C2524 C2526 1.419 . S
C2525 C2520 1.425 . S
C2525 C2522 1.409 . S
C2525 C2523 1.415 . S
C2526 H2516 0.930 . S
C2526 C2524 1.419 . S
C2526 C2527 1.362 . S
C2527 H2517 0.930 . S
C2527 C2520 1.409 . S
C2527 C2526 1.362 . S
H2528 C2534 0.930 . S
H2529 C2537 0.930 . S
H2530 C2538 0.930 . S
H2531 C2539 0.930 . S
H2532 C2542 0.930 . S
H2533 C2543 0.930 . S
C2534 H2528 0.930 . S
C2534 C2535 1.355 . S
C2534 C2536 1.415 1_565 S
C2535 C2534 1.355 . S
C2535 C2537 1.419 . S
C2536 C2534 1.415 1_545 S
C2536 C2541 1.425 . S
C2536 C2543 1.409 . S
C2537 H2529 0.930 . S
C2537 C2535 1.419 . S
C2537 C2538 1.362 1_565 S
C2538 H2530 0.930 . S
C2538 C2537 1.362 1_545 S
C2538 C2541 1.409 . S
C2539 H2531 0.930 . S
C2539 C2540 1.355 . S
C2539 C2541 1.415 . S
C2540 C2539 1.355 . S
C2540 C2542 1.419 . S
C2541 C2536 1.425 . S
C2541 C2538 1.409 . S
C2541 C2539 1.415 . S
C2542 H2532 0.930 . S
C2542 C2540 1.419 . S
C2542 C2543 1.362 . S
C2543 H2533 0.930 . S
C2543 C2536 1.409 . S
C2543 C2542 1.362 . S
H2544 C2550 0.930 1_455 S
H2545 C2553 0.930 . S
H2546 C2554 0.930 . S
H2547 C2555 0.930 . S
H2548 C2558 0.930 . S
H2549 C2559 0.930 . S
C2550 H2544 0.930 1_655 S
C2550 C2551 1.355 . S
C2550 C2552 1.415 . S
C2551 C2550 1.355 . S
C2551 C2553 1.419 . S
C2552 C2550 1.415 . S
C2552 C2557 1.425 . S
C2552 C2559 1.409 . S
C2553 H2545 0.930 . S
C2553 C2551 1.419 . S
C2553 C2554 1.362 . S
C2554 H2546 0.930 . S
C2554 C2553 1.362 . S
C2554 C2557 1.409 . S
C2555 H2547 0.930 . S
C2555 C2556 1.355 . S
C2555 C2557 1.415 . S
C2556 C2555 1.355 . S
C2556 C2558 1.419 . S
C2557 C2552 1.425 . S
C2557 C2554 1.409 . S
C2557 C2555 1.415 . S
C2558 H2548 0.930 . S
C2558 C2556 1.419 . S
C2558 C2559 1.362 . S
C2559 H2549 0.930 . S
C2559 C2552 1.409 . S
C2559 C2558 1.362 . S
H2560 C2566 0.930 . S
H2561 C2569 0.930 . S
H2562 C2570 0.930 . S
H2563 C2571 0.930 . S
H2564 C2574 0.930 . S
H2565 C2575 0.930 . S
C2566 H2560 0.930 . S
C2566 C2567 1.355 . S
C2566 C2568 1.415 . S
C2567 C2566 1.355 . S
C2567 C2569 1.419 . S
C2568 C2566 1.415 . S
C2568 C2573 1.425 . S
C2568 C2575 1.409 . S
C2569 H2561 0.930 . S
C2569 C2567 1.419 . S
C2569 C2570 1.362 . S
C2570 H2562 0.930 . S
C2570 C2569 1.362 . S
C2570 C2573 1.409 . S
C2571 H2563 0.930 . S
C2571 C2572 1.355 . S
C2571 C2573 1.415 . S
C2572 C2571 1.355 . S
C2572 C2574 1.419 . S
C2573 C2568 1.425 . S
C2573 C2570 1.409 . S
C2573 C2571 1.415 . S
C2574 H2564 0.930 . S
C2574 C2572 1.419 . S
C2574 C2575 1.362 . S
C2575 H2565 0.930 . S
C2575 C2568 1.409 . S
C2575 C2574 1.362 . S
H2576 C2582 0.930 . S
H2577 C2585 0.930 . S
H2578 C2586 0.930 1_565 S
H2579 C2587 0.930 1_565 S
H2580 C2590 0.930 . S
H2581 C2591 0.930 . S
C2582 H2576 0.930 . S
C2582 C2583 1.355 . S
C2582 C2584 1.415 . S
C2583 C2582 1.355 . S
C2583 C2585 1.419 . S
C2584 C2582 1.415 . S
C2584 C2589 1.425 . S
C2584 C2591 1.409 . S
C2585 H2577 0.930 . S
C2585 C2583 1.419 . S
C2585 C2586 1.362 . S
C2586 H2578 0.930 1_545 S
C2586 C2585 1.362 . S
C2586 C2589 1.409 . S
C2587 H2579 0.930 1_545 S
C2587 C2588 1.355 . S
C2587 C2589 1.415 . S
C2588 C2587 1.355 . S
C2588 C2590 1.419 . S
C2589 C2584 1.425 . S
C2589 C2586 1.409 . S
C2589 C2587 1.415 . S
C2590 H2580 0.930 . S
C2590 C2588 1.419 . S
C2590 C2591 1.362 . S
C2591 H2581 0.930 . S
C2591 C2584 1.409 . S
C2591 C2590 1.362 . S
H2592 C2598 0.930 . S
H2593 C2601 0.930 . S
H2594 C2602 0.930 . S
H2595 C2603 0.930 . S
H2596 C2606 0.930 . S
H2597 C2607 0.930 . S
C2598 H2592 0.930 . S
C2598 C2599 1.355 . S
C2598 C2600 1.415 . S
C2599 C2598 1.355 . S
C2599 C2601 1.419 . S
C2600 C2598 1.415 . S
C2600 C2605 1.425 . S
C2600 C2607 1.409 . S
C2601 H2593 0.930 . S
C2601 C2599 1.419 . S
C2601 C2602 1.362 . S
C2602 H2594 0.930 . S
C2602 C2601 1.362 . S
C2602 C2605 1.409 . S
C2603 H2595 0.930 . S
C2603 C2604 1.355 . S
C2603 C2605 1.415 . S
C2604 C2603 1.355 . S
C2604 C2606 1.419 . S
C2605 C2600 1.425 . S
C2605 C2602 1.409 . S
C2605 C2603 1.415 . S
C2606 H2596 0.930 . S
C2606 C2604 1.419 . S
C2606 C2607 1.362 . S
C2607 H2597 0.930 . S
C2607 C2600 1.409 . S
C2607 C2606 1.362 . S
H2608 C2614 0.930 . S
H2609 C2617 0.930 . S
H2610 C2618 0.930 . S
H2611 C2619 0.930 . S
H2612 C2622 0.930 . S
H2613 C2623 0.930 . S
C2614 H2608 0.930 . S
C2614 C2615 1.355 . S
C2614 C2616 1.415 . S
C2615 C2614 1.355 . S
C2615 C2617 1.419 . S
C2616 C2614 1.415 . S
C2616 C2621 1.425 . S
C2616 C2623 1.409 . S
C2617 H2609 0.930 . S
C2617 C2615 1.419 . S
C2617 C2618 1.362 . S
C2618 H2610 0.930 . S
C2618 C2617 1.362 . S
C2618 C2621 1.409 . S
C2619 H2611 0.930 . S
C2619 C2620 1.355 . S
C2619 C2621 1.415 . S
C2620 C2619 1.355 . S
C2620 C2622 1.419 . S
C2621 C2616 1.425 . S
C2621 C2618 1.409 . S
C2621 C2619 1.415 . S
C2622 H2612 0.930 . S
C2622 C2620 1.419 . S
C2622 C2623 1.362 . S
C2623 H2613 0.930 . S
C2623 C2616 1.409 . S
C2623 C2622 1.362 . S
H2624 C2630 0.930 . S
H2625 C2633 0.930 . S
H2626 C2634 0.930 . S
H2627 C2635 0.930 . S
H2628 C2638 0.930 . S
H2629 C2639 0.930 . S
C2630 H2624 0.930 . S
C2630 C2631 1.355 . S
C2630 C2632 1.415 . S
C2631 C2630 1.355 . S
C2631 C2633 1.419 . S
C2632 C2630 1.415 . S
C2632 C2637 1.425 . S
C2632 C2639 1.409 . S
C2633 H2625 0.930 . S
C2633 C2631 1.419 . S
C2633 C2634 1.362 . S
C2634 H2626 0.930 . S
C2634 C2633 1.362 . S
C2634 C2637 1.409 . S
C2635 H2627 0.930 . S
C2635 C2636 1.355 . S
C2635 C2637 1.415 . S
C2636 C2635 1.355 . S
C2636 C2638 1.419 . S
C2637 C2632 1.425 . S
C2637 C2634 1.409 . S
C2637 C2635 1.415 . S
C2638 H2628 0.930 . S
C2638 C2636 1.419 . S
C2638 C2639 1.362 . S
C2639 H2629 0.930 . S
C2639 C2632 1.409 . S
C2639 C2638 1.362 . S
H2640 C2646 0.930 . S
H2641 C2649 0.930 . S
H2642 C2650 0.930 . S
H2643 C2651 0.930 . S
H2644 C2654 0.930 . S
H2645 C2655 0.930 . S
C2646 H2640 0.930 . S
C2646 C2647 1.355 . S
C2646 C2648 1.415 . S
C2647 C2646 1.355 . S
C2647 C2649 1.419 . S
C2648 C2646 1.415 . S
C2648 C2653 1.425 . S
C2648 C2655 1.409 . S
C2649 H2641 0.930 . S
C2649 C2647 1.419 . S
C2649 C2650 1.362 . S
C2650 H2642 0.930 . S
C2650 C2649 1.362 . S
C2650 C2653 1.409 . S
C2651 H2643 0.930 . S
C2651 C2652 1.355 . S
C2651 C2653 1.415 . S
C2652 C2651 1.355 . S
C2652 C2654 1.419 . S
C2653 C2648 1.425 . S
C2653 C2650 1.409 . S
C2653 C2651 1.415 . S
C2654 H2644 0.930 . S
C2654 C2652 1.419 . S
C2654 C2655 1.362 . S
C2655 H2645 0.930 . S
C2655 C2648 1.409 . S
C2655 C2654 1.362 . S
H2656 C2662 0.930 . S
H2657 C2665 0.930 . S
H2658 C2666 0.930 . S
H2659 C2667 0.930 . S
H2660 C2670 0.930 . S
H2661 C2671 0.930 1_565 S
C2662 H2656 0.930 . S
C2662 C2663 1.355 . S
C2662 C2664 1.415 . S
C2663 C2662 1.355 . S
C2663 C2665 1.419 . S
C2664 C2662 1.415 . S
C2664 C2669 1.425 . S
C2664 C2671 1.409 . S
C2665 H2657 0.930 . S
C2665 C2663 1.419 . S
C2665 C2666 1.362 . S
C2666 H2658 0.930 . S
C2666 C2665 1.362 . S
C2666 C2669 1.409 . S
C2667 H2659 0.930 . S
C2667 C2668 1.355 . S
C2667 C2669 1.415 . S
C2668 C2667 1.355 . S
C2668 C2670 1.419 . S
C2669 C2664 1.425 . S
C2669 C2666 1.409 . S
C2669 C2667 1.415 . S
C2670 H2660 0.930 . S
C2670 C2668 1.419 . S
C2670 C2671 1.362 . S
C2671 H2661 0.930 1_545 S
C2671 C2664 1.409 . S
C2671 C2670 1.362 . S
H2672 C2678 0.930 . S
H2673 C2681 0.930 . S
H2674 C2682 0.930 . S
H2675 C2683 0.930 . S
H2676 C2686 0.930 . S
H2677 C2687 0.930 . S
C2678 H2672 0.930 . S
C2678 C2679 1.355 . S
C2678 C2680 1.415 . S
C2679 C2678 1.355 . S
C2679 C2681 1.419 . S
C2680 C2678 1.415 . S
C2680 C2685 1.425 . S
C2680 C2687 1.409 . S
C2681 H2673 0.930 . S
C2681 C2679 1.419 . S
C2681 C2682 1.362 . S
C2682 H2674 0.930 . S
C2682 C2681 1.362 . S
C2682 C2685 1.409 . S
C2683 H2675 0.930 . S
C2683 C2684 1.355 . S
C2683 C2685 1.415 . S
C2684 C2683 1.355 . S
C2684 C2686 1.419 . S
C2685 C2680 1.425 . S
C2685 C2682 1.409 . S
C2685 C2683 1.415 . S
C2686 H2676 0.930 . S
C2686 C2684 1.419 . S
C2686 C2687 1.362 . S
C2687 H2677 0.930 . S
C2687 C2680 1.409 . S
C2687 C2686 1.362 . S
H2688 C2694 0.930 . S
H2689 C2697 0.930 . S
H2690 C2698 0.930 . S
H2691 C2699 0.930 . S
H2692 C2702 0.930 . S
H2693 C2703 0.930 . S
C2694 H2688 0.930 . S
C2694 C2695 1.355 . S
C2694 C2696 1.415 . S
C2695 C2694 1.355 . S
C2695 C2697 1.419 . S
C2696 C2694 1.415 . S
C2696 C2701 1.425 . S
C2696 C2703 1.409 . S
C2697 H2689 0.930 . S
C2697 C2695 1.419 . S
C2697 C2698 1.362 . S
C2698 H2690 0.930 . S
C2698 C2697 1.362 . S
C2698 C2701 1.409 . S
C2699 H2691 0.930 . S
C2699 C2700 1.355 . S
C2699 C2701 1.415 . S
C2700 C2699 1.355 . S
C2700 C2702 1.419 . S
C2701 C2696 1.425 . S
C2701 C2698 1.409 . S
C2701 C2699 1.415 . S
C2702 H2692 0.930 . S
C2702 C2700 1.419 . S
C2702 C2703 1.362 . S
C2703 H2693 0.930 . S
C2703 C2696 1.409 . S
C2703 C2702 1.362 . S
H2704 C2710 0.930 . S
H2705 C2713 0.930 . S
H2706 C2714 0.930 . S
H2707 C2715 0.930 . S
H2708 C2718 0.930 . S
H2709 C2719 0.930 . S
C2710 H2704 0.930 . S
C2710 C2711 1.355 . S
C2710 C2712 1.415 . S
C2711 C2710 1.355 . S
C2711 C2713 1.419 . S
C2712 C2710 1.415 . S
C2712 C2717 1.425 . S
C2712 C2719 1.409 . S
C2713 H2705 0.930 . S
C2713 C2711 1.419 . S
C2713 C2714 1.362 . S
C2714 H2706 0.930 . S
C2714 C2713 1.362 . S
C2714 C2717 1.409 . S
C2715 H2707 0.930 . S
C2715 C2716 1.355 . S
C2715 C2717 1.415 . S
C2716 C2715 1.355 . S
C2716 C2718 1.419 . S
C2717 C2712 1.425 . S
C2717 C2714 1.409 . S
C2717 C2715 1.415 . S
C2718 H2708 0.930 . S
C2718 C2716 1.419 . S
C2718 C2719 1.362 . S
C2719 H2709 0.930 . S
C2719 C2712 1.409 . S
C2719 C2718 1.362 . S
H2720 C2726 0.930 . S
H2721 C2729 0.930 . S
H2722 C2730 0.930 . S
H2723 C2731 0.930 . S
H2724 C2734 0.930 . S
H2725 C2735 0.930 1_455 S
C2726 H2720 0.930 . S
C2726 C2727 1.355 . S
C2726 C2728 1.415 . S
C2727 C2726 1.355 . S
C2727 C2729 1.419 . S
C2728 C2726 1.415 . S
C2728 C2733 1.425 . S
C2728 C2735 1.409 . S
C2729 H2721 0.930 . S
C2729 C2727 1.419 . S
C2729 C2730 1.362 . S
C2730 H2722 0.930 . S
C2730 C2729 1.362 . S
C2730 C2733 1.409 . S
C2731 H2723 0.930 . S
C2731 C2732 1.355 . S
C2731 C2733 1.415 . S
C2732 C2731 1.355 . S
C2732 C2734 1.419 . S
C2733 C2728 1.425 . S
C2733 C2730 1.409 . S
C2733 C2731 1.415 . S
C2734 H2724 0.930 . S
C2734 C2732 1.419 . S
C2734 C2735 1.362 . S
C2735 H2725 0.930 1_655 S
C2735 C2728 1.409 . S
C2735 C2734 1.362 . S
H2736 C2742 0.930 . S
H2737 C2745 0.930 . S
H2738 C2746 0.930 . S
H2739 C2747 0.930 . S
H2740 C2750 0.930 . S
H2741 C2751 0.930 . S
C2742 H2736 0.930 . S
C2742 C2743 1.355 . S
C2742 C2744 1.415 . S
C2743 C2742 1.355 . S
C2743 C2745 1.419 . S
C2744 C2742 1.415 . S
C2744 C2749 1.425 . S
C2744 C2751 1.409 . S
C2745 H2737 0.930 . S
C2745 C2743 1.419 . S
C2745 C2746 1.362 . S
C2746 H2738 0.930 . S
C2746 C2745 1.362 . S
C2746 C2749 1.409 . S
C2747 H2739 0.930 . S
C2747 C2748 1.355 . S
C2747 C2749 1.415 . S
C2748 C2747 1.355 . S
C2748 C2750 1.419 . S
C2749 C2744 1.425 . S
C2749 C2746 1.409 . S
C2749 C2747 1.415 . S
C2750 H2740 0.930 . S
C2750 C2748 1.419 . S
C2750 C2751 1.362 . S
C2751 H2741 0.930 . S
C2751 C2744 1.409 . S
C2751 C2750 1.362 . S
H2752 C2758 0.930 . S
H2753 C2761 0.930 . S
H2754 C2762 0.930 . S
H2755 C2763 0.930 . S
H2756 C2766 0.930 . S
H2757 C2767 0.930 . S
C2758 H2752 0.930 . S
C2758 C2759 1.355 . S
C2758 C2760 1.415 . S
C2759 C2758 1.355 . S
C2759 C2761 1.419 . S
C2760 C2758 1.415 . S
C2760 C2765 1.425 . S
C2760 C2767 1.409 . S
C2761 H2753 0.930 . S
C2761 C2759 1.419 . S
C2761 C2762 1.362 . S
C2762 H2754 0.930 . S
C2762 C2761 1.362 . S
C2762 C2765 1.409 . S
C2763 H2755 0.930 . S
C2763 C2764 1.355 . S
C2763 C2765 1.415 . S
C2764 C2763 1.355 . S
C2764 C2766 1.419 . S
C2765 C2760 1.425 . S
C2765 C2762 1.409 . S
C2765 C2763 1.415 . S
C2766 H2756 0.930 . S
C2766 C2764 1.419 . S
C2766 C2767 1.362 . S
C2767 H2757 0.930 . S
C2767 C2760 1.409 . S
C2767 C2766 1.362 . S
H2768 C2774 0.930 . S
H2769 C2777 0.930 . S
H2770 C2778 0.930 . S
H2771 C2779 0.930 . S
H2772 C2782 0.930 . S
H2773 C2783 0.930 . S
C2774 H2768 0.930 . S
C2774 C2775 1.355 . S
C2774 C2776 1.415 . S
C2775 C2774 1.355 . S
C2775 C2777 1.419 . S
C2776 C2774 1.415 . S
C2776 C2781 1.425 . S
C2776 C2783 1.409 . S
C2777 H2769 0.930 . S
C2777 C2775 1.419 . S
C2777 C2778 1.362 . S
C2778 H2770 0.930 . S
C2778 C2777 1.362 . S
C2778 C2781 1.409 . S
C2779 H2771 0.930 . S
C2779 C2780 1.355 . S
C2779 C2781 1.415 . S
C2780 C2779 1.355 . S
C2780 C2782 1.419 . S
C2781 C2776 1.425 . S
C2781 C2778 1.409 . S
C2781 C2779 1.415 . S
C2782 H2772 0.930 . S
C2782 C2780 1.419 . S
C2782 C2783 1.362 . S
C2783 H2773 0.930 . S
C2783 C2776 1.409 . S
C2783 C2782 1.362 . S
H2784 C2790 0.930 . S
H2785 C2793 0.930 . S
H2786 C2794 0.930 . S
H2787 C2795 0.930 . S
H2788 C2798 0.930 . S
H2789 C2799 0.930 . S
C2790 H2784 0.930 . S
C2790 C2791 1.353 . S
C2790 C2792 1.415 . S
C2791 C2790 1.353 . S
C2791 C2793 1.421 1_455 S
C2792 C2790 1.415 . S
C2792 C2797 1.425 1_455 S
C2792 C2799 1.409 . S
C2793 H2785 0.930 . S
C2793 C2791 1.421 1_655 S
C2793 C2794 1.362 . S
C2794 H2786 0.930 . S
C2794 C2793 1.362 . S
C2794 C2797 1.409 . S
C2795 H2787 0.930 . S
C2795 C2796 1.355 1_655 S
C2795 C2797 1.415 . S
C2796 C2795 1.355 1_455 S
C2796 C2798 1.419 . S
C2797 C2792 1.425 1_655 S
C2797 C2794 1.409 . S
C2797 C2795 1.415 . S
C2798 H2788 0.930 . S
C2798 C2796 1.419 . S
C2798 C2799 1.362 . S
C2799 H2789 0.930 . S
C2799 C2792 1.409 . S
C2799 C2798 1.362 . S
H2800 C2806 0.930 . S
H2801 C2809 0.930 . S
H2802 C2810 0.930 . S
H2803 C2811 0.930 . S
H2804 C2814 0.930 . S
H2805 C2815 0.930 . S
C2806 H2800 0.930 . S
C2806 C2807 1.355 . S
C2806 C2808 1.415 . S
C2807 C2806 1.355 . S
C2807 C2809 1.419 . S
C2808 C2806 1.415 . S
C2808 C2813 1.425 . S
C2808 C2815 1.409 . S
C2809 H2801 0.930 . S
C2809 C2807 1.419 . S
C2809 C2810 1.362 . S
C2810 H2802 0.930 . S
C2810 C2809 1.362 . S
C2810 C2813 1.409 . S
C2811 H2803 0.930 . S
C2811 C2812 1.355 . S
C2811 C2813 1.415 . S
C2812 C2811 1.355 . S
C2812 C2814 1.419 . S
C2813 C2808 1.425 . S
C2813 C2810 1.409 . S
C2813 C2811 1.415 . S
C2814 H2804 0.930 . S
C2814 C2812 1.419 . S
C2814 C2815 1.362 . S
C2815 H2805 0.930 . S
C2815 C2808 1.409 . S
C2815 C2814 1.362 . S
H2816 C2822 0.930 . S
H2817 C2825 0.930 . S
H2818 C2826 0.930 . S
H2819 C2827 0.930 . S
H2820 C2830 0.930 . S
H2821 C2831 0.930 . S
C2822 H2816 0.930 . S
C2822 C2823 1.355 . S
C2822 C2824 1.415 . S
C2823 C2822 1.355 . S
C2823 C2825 1.419 1_565 S
C2824 C2822 1.415 . S
C2824 C2829 1.425 1_565 S
C2824 C2831 1.409 . S
C2825 H2817 0.930 . S
C2825 C2823 1.419 1_545 S
C2825 C2826 1.362 . S
C2826 H2818 0.930 . S
C2826 C2825 1.362 . S
C2826 C2829 1.409 . S
C2827 H2819 0.930 . S
C2827 C2828 1.355 1_545 S
C2827 C2829 1.415 . S
C2828 C2827 1.355 1_565 S
C2828 C2830 1.419 . S
C2829 C2824 1.425 1_545 S
C2829 C2826 1.409 . S
C2829 C2827 1.415 . S
C2830 H2820 0.930 . S
C2830 C2828 1.419 . S
C2830 C2831 1.362 . S
C2831 H2821 0.930 . S
C2831 C2824 1.409 . S
C2831 C2830 1.362 . S
H2832 C2838 0.930 . S
H2833 C2841 0.930 . S
H2834 C2842 0.930 . S
H2835 C2843 0.930 . S
H2836 C2846 0.930 . S
H2837 C2847 0.930 . S
C2838 H2832 0.930 . S
C2838 C2839 1.355 . S
C2838 C2840 1.415 . S
C2839 C2838 1.355 . S
C2839 C2841 1.419 1_545 S
C2840 C2838 1.415 . S
C2840 C2845 1.425 1_545 S
C2840 C2847 1.409 . S
C2841 H2833 0.930 . S
C2841 C2839 1.419 1_565 S
C2841 C2842 1.362 . S
C2842 H2834 0.930 . S
C2842 C2841 1.362 . S
C2842 C2845 1.409 . S
C2843 H2835 0.930 . S
C2843 C2844 1.355 1_565 S
C2843 C2845 1.415 . S
C2844 C2843 1.355 1_545 S
C2844 C2846 1.419 . S
C2845 C2840 1.425 1_565 S
C2845 C2842 1.409 . S
C2845 C2843 1.415 . S
C2846 H2836 0.930 . S
C2846 C2844 1.419 . S
C2846 C2847 1.362 . S
C2847 H2837 0.930 . S
C2847 C2840 1.409 . S
C2847 C2846 1.362 . S
H2848 C2854 0.930 . S
H2849 C2857 0.930 . S
H2850 C2858 0.930 . S
H2851 C2859 0.930 . S
H2852 C2862 0.930 . S
H2853 C2863 0.930 . S
C2854 H2848 0.930 . S
C2854 C2855 1.355 1_455 S
C2854 C2856 1.415 . S
C2855 C2854 1.355 1_655 S
C2855 C2857 1.419 . S
C2856 C2854 1.415 . S
C2856 C2861 1.425 1_455 S
C2856 C2863 1.409 . S
C2857 H2849 0.930 . S
C2857 C2855 1.419 . S
C2857 C2858 1.362 . S
C2858 H2850 0.930 . S
C2858 C2857 1.362 . S
C2858 C2861 1.409 . S
C2859 H2851 0.930 . S
C2859 C2860 1.345 1_655 S
C2859 C2861 1.415 . S
C2860 C2859 1.345 1_455 S
C2860 C2862 1.431 . S
C2861 C2856 1.425 1_655 S
C2861 C2858 1.409 . S
C2861 C2859 1.415 . S
C2862 H2852 0.930 . S
C2862 C2860 1.431 . S
C2862 C2863 1.362 . S
C2863 H2853 0.930 . S
C2863 C2856 1.409 . S
C2863 C2862 1.362 . S
H2864 C2870 0.930 . S
H2865 C2873 0.930 . S
H2866 C2874 0.930 . S
H2867 C2875 0.930 . S
H2868 C2878 0.930 . S
H2869 C2879 0.930 . S
C2870 H2864 0.930 . S
C2870 C2871 1.355 . S
C2870 C2872 1.415 . S
C2871 C2870 1.355 . S
C2871 C2873 1.419 . S
C2872 C2870 1.415 . S
C2872 C2877 1.425 . S
C2872 C2879 1.409 . S
C2873 H2865 0.930 . S
C2873 C2871 1.419 . S
C2873 C2874 1.362 . S
C2874 H2866 0.930 . S
C2874 C2873 1.362 . S
C2874 C2877 1.409 . S
C2875 H2867 0.930 . S
C2875 C2876 1.355 . S
C2875 C2877 1.415 . S
C2876 C2875 1.355 . S
C2876 C2878 1.419 . S
C2877 C2872 1.425 . S
C2877 C2874 1.409 . S
C2877 C2875 1.415 . S
C2878 H2868 0.930 . S
C2878 C2876 1.419 . S
C2878 C2879 1.362 . S
C2879 H2869 0.930 . S
C2879 C2872 1.409 . S
C2879 C2878 1.362 . S
H2880 C2886 0.930 . S
H2881 C2889 0.930 . S
H2882 C2890 0.930 . S
H2883 C2891 0.930 . S
H2884 C2894 0.930 . S
H2885 C2895 0.930 . S
C2886 H2880 0.930 . S
C2886 C2887 1.355 1_455 S
C2886 C2888 1.415 . S
C2887 C2886 1.355 1_655 S
C2887 C2889 1.419 . S
C2888 C2886 1.415 . S
C2888 C2893 1.425 1_455 S
C2888 C2895 1.409 . S
C2889 H2881 0.930 . S
C2889 C2887 1.419 . S
C2889 C2890 1.362 . S
C2890 H2882 0.930 . S
C2890 C2889 1.362 . S
C2890 C2893 1.409 . S
C2891 H2883 0.930 . S
C2891 C2892 1.355 1_655 S
C2891 C2893 1.415 . S
C2892 C2891 1.355 1_455 S
C2892 C2894 1.419 . S
C2893 C2888 1.425 1_655 S
C2893 C2890 1.409 . S
C2893 C2891 1.415 . S
C2894 H2884 0.930 . S
C2894 C2892 1.419 . S
C2894 C2895 1.362 . S
C2895 H2885 0.930 . S
C2895 C2888 1.409 . S
C2895 C2894 1.362 . S
H2896 C2902 0.930 . S
H2897 C2905 0.930 . S
H2898 C2906 0.930 . S
H2899 C2907 0.930 . S
H2900 C2910 0.930 . S
H2901 C2911 0.930 . S
C2902 H2896 0.930 . S
C2902 C2903 1.355 . S
C2902 C2904 1.415 . S
C2903 C2902 1.355 . S
C2903 C2905 1.419 . S
C2904 C2902 1.415 . S
C2904 C2909 1.425 . S
C2904 C2911 1.409 . S
C2905 H2897 0.930 . S
C2905 C2903 1.419 . S
C2905 C2906 1.362 . S
C2906 H2898 0.930 . S
C2906 C2905 1.362 . S
C2906 C2909 1.409 . S
C2907 H2899 0.930 . S
C2907 C2908 1.355 . S
C2907 C2909 1.415 . S
C2908 C2907 1.355 . S
C2908 C2910 1.419 . S
C2909 C2904 1.425 . S
C2909 C2906 1.409 . S
C2909 C2907 1.415 . S
C2910 H2900 0.930 . S
C2910 C2908 1.419 . S
C2910 C2911 1.362 . S
C2911 H2901 0.930 . S
C2911 C2904 1.409 . S
C2911 C2910 1.362 . S
H2912 C2918 0.930 . S
H2913 C2921 0.930 . S
H2914 C2922 0.930 . S
H2915 C2923 0.930 . S
H2916 C2926 0.930 . S
H2917 C2927 0.930 . S
C2918 H2912 0.930 . S
C2918 C2919 1.355 1_565 S
C2918 C2920 1.415 . S
C2919 C2918 1.355 1_545 S
C2919 C2921 1.419 . S
C2920 C2918 1.415 . S
C2920 C2925 1.425 1_565 S
C2920 C2927 1.409 . S
C2921 H2913 0.930 . S
C2921 C2919 1.419 . S
C2921 C2922 1.362 . S
C2922 H2914 0.930 . S
C2922 C2921 1.362 . S
C2922 C2925 1.409 . S
C2923 H2915 0.930 . S
C2923 C2924 1.355 1_545 S
C2923 C2925 1.415 . S
C2924 C2923 1.355 1_565 S
C2924 C2926 1.419 . S
C2925 C2920 1.425 1_545 S
C2925 C2922 1.409 . S
C2925 C2923 1.415 . S
C2926 H2916 0.930 . S
C2926 C2924 1.419 . S
C2926 C2927 1.362 . S
C2927 H2917 0.930 . S
C2927 C2920 1.409 . S
C2927 C2926 1.362 . S
H2928 C2934 0.930 1_455 S
H2929 C2937 0.930 . S
H2930 C2938 0.930 . S
H2931 C2939 0.930 1_655 S
H2932 C2942 0.930 . S
H2933 C2943 0.930 . S
C2934 H2928 0.930 1_655 S
C2934 C2935 1.355 . S
C2934 C2936 1.415 1_655 S
C2935 C2934 1.355 . S
C2935 C2937 1.419 . S
C2936 C2934 1.415 1_455 S
C2936 C2941 1.425 1_455 S
C2936 C2943 1.409 . S
C2937 H2929 0.930 . S
C2937 C2935 1.419 . S
C2937 C2938 1.362 . S
C2938 H2930 0.930 . S
C2938 C2937 1.362 . S
C2938 C2941 1.409 . S
C2939 H2931 0.930 1_455 S
C2939 C2940 1.355 . S
C2939 C2941 1.415 1_455 S
C2940 C2939 1.355 . S
C2940 C2942 1.419 . S
C2941 C2936 1.425 1_655 S
C2941 C2938 1.409 . S
C2941 C2939 1.415 1_655 S
C2942 H2932 0.930 . S
C2942 C2940 1.419 . S
C2942 C2943 1.362 . S
C2943 H2933 0.930 . S
C2943 C2936 1.409 . S
C2943 C2942 1.362 . S
H2944 C2950 0.930 . S
H2945 C2953 0.930 . S
H2946 C2954 0.930 . S
H2947 C2955 0.930 . S
H2948 C2958 0.930 . S
H2949 C2959 0.930 . S
C2950 H2944 0.930 . S
C2950 C2951 1.355 . S
C2950 C2952 1.415 . S
C2951 C2950 1.355 . S
C2951 C2953 1.419 . S
C2952 C2950 1.415 . S
C2952 C2957 1.425 . S
C2952 C2959 1.409 . S
C2953 H2945 0.930 . S
C2953 C2951 1.419 . S
C2953 C2954 1.362 . S
C2954 H2946 0.930 . S
C2954 C2953 1.362 . S
C2954 C2957 1.409 . S
C2955 H2947 0.930 . S
C2955 C2956 1.355 . S
C2955 C2957 1.415 . S
C2956 C2955 1.355 . S
C2956 C2958 1.419 . S
C2957 C2952 1.425 . S
C2957 C2954 1.409 . S
C2957 C2955 1.415 . S
C2958 H2948 0.930 . S
C2958 C2956 1.419 . S
C2958 C2959 1.362 . S
C2959 H2949 0.930 . S
C2959 C2952 1.409 . S
C2959 C2958 1.362 . S
H2960 C2966 0.930 . S
H2961 C2969 0.920 1_565 S
H2962 C2970 0.930 . S
H2963 C2971 0.930 . S
H2964 C2974 0.919 1_545 S
H2965 C2975 0.930 . S
C2966 H2960 0.930 . S
C2966 C2967 1.355 . S
C2966 C2968 1.415 . S
C2967 C2966 1.355 . S
C2967 C2969 1.419 . S
C2968 C2966 1.415 . S
C2968 C2973 1.425 1_545 S
C2968 C2975 1.409 . S
C2969 H2961 0.920 1_545 S
C2969 C2967 1.419 . S
C2969 C2970 1.362 1_545 S
C2970 H2962 0.930 . S
C2970 C2969 1.362 1_565 S
C2970 C2973 1.409 . S
C2971 H2963 0.930 . S
C2971 C2972 1.355 . S
C2971 C2973 1.415 . S
C2972 C2971 1.355 . S
C2972 C2974 1.419 . S
C2973 C2968 1.425 1_565 S
C2973 C2970 1.409 . S
C2973 C2971 1.415 . S
C2974 H2964 0.919 1_565 S
C2974 C2972 1.419 . S
C2974 C2975 1.362 1_565 S
C2975 H2965 0.930 . S
C2975 C2968 1.409 . S
C2975 C2974 1.362 1_545 S
H2976 C2982 0.930 . S
H2977 C2985 0.930 . S
H2978 C2986 0.930 . S
H2979 C2987 0.930 . S
H2980 C2990 0.930 . S
H2981 C2991 0.930 . S
C2982 H2976 0.930 . S
C2982 C2983 1.355 . S
C2982 C2984 1.415 . S
C2983 C2982 1.355 . S
C2983 C2985 1.419 . S
C2984 C2982 1.415 . S
C2984 C2989 1.425 . S
C2984 C2991 1.409 . S
C2985 H2977 0.930 . S
C2985 C2983 1.419 . S
C2985 C2986 1.362 . S
C2986 H2978 0.930 . S
C2986 C2985 1.362 . S
C2986 C2989 1.409 . S
C2987 H2979 0.930 . S
C2987 C2988 1.355 . S
C2987 C2989 1.415 . S
C2988 C2987 1.355 . S
C2988 C2990 1.419 . S
C2989 C2984 1.425 . S
C2989 C2986 1.409 . S
C2989 C2987 1.415 . S
C2990 H2980 0.930 . S
C2990 C2988 1.419 . S
C2990 C2991 1.362 . S
C2991 H2981 0.930 . S
C2991 C2984 1.409 . S
C2991 C2990 1.362 . S
H2992 C2998 0.930 . S
H2993 C3001 0.930 . S
H2994 C3002 0.930 . S
H2995 C3003 0.930 . S
H2996 C3006 0.930 . S
H2997 C3007 0.930 . S
C2998 H2992 0.930 . S
C2998 C2999 1.355 . S
C2998 C3000 1.415 . S
C2999 C2998 1.355 . S
C2999 C3001 1.419 . S
C3000 C2998 1.415 . S
C3000 C3005 1.425 . S
C3000 C3007 1.409 . S
C3001 H2993 0.930 . S
C3001 C2999 1.419 . S
C3001 C3002 1.362 . S
C3002 H2994 0.930 . S
C3002 C3001 1.362 . S
C3002 C3005 1.409 . S
C3003 H2995 0.930 . S
C3003 C3004 1.355 . S
C3003 C3005 1.415 . S
C3004 C3003 1.355 . S
C3004 C3006 1.419 . S
C3005 C3000 1.425 . S
C3005 C3002 1.409 . S
C3005 C3003 1.415 . S
C3006 H2996 0.930 . S
C3006 C3004 1.419 . S
C3006 C3007 1.362 . S
C3007 H2997 0.930 . S
C3007 C3000 1.409 . S
C3007 C3006 1.362 . S
H3008 C3014 0.930 . S
H3009 C3017 0.930 . S
H3010 C3018 0.930 . S
H3011 C3019 0.930 . S
H3012 C3022 0.930 . S
H3013 C3023 0.930 . S
C3014 H3008 0.930 . S
C3014 C3015 1.355 . S
C3014 C3016 1.415 . S
C3015 C3014 1.355 . S
C3015 C3017 1.419 . S
C3016 C3014 1.415 . S
C3016 C3021 1.425 . S
C3016 C3023 1.409 . S
C3017 H3009 0.930 . S
C3017 C3015 1.419 . S
C3017 C3018 1.362 . S
C3018 H3010 0.930 . S
C3018 C3017 1.362 . S
C3018 C3021 1.409 . S
C3019 H3011 0.930 . S
C3019 C3020 1.355 . S
C3019 C3021 1.415 . S
C3020 C3019 1.355 . S
C3020 C3022 1.419 . S
C3021 C3016 1.425 . S
C3021 C3018 1.409 . S
C3021 C3019 1.415 . S
C3022 H3012 0.930 . S
C3022 C3020 1.419 . S
C3022 C3023 1.362 . S
C3023 H3013 0.930 . S
C3023 C3016 1.409 . S
C3023 C3022 1.362 . S
H3024 C3030 0.930 . S
H3025 C3033 0.930 . S
H3026 C3034 0.930 . S
H3027 C3035 0.930 . S
H3028 C3038 0.930 . S
H3029 C3039 0.930 . S
C3030 H3024 0.930 . S
C3030 C3031 1.355 . S
C3030 C3032 1.415 . S
C3031 C3030 1.355 . S
C3031 C3033 1.419 . S
C3032 C3030 1.415 . S
C3032 C3037 1.425 . S
C3032 C3039 1.409 . S
C3033 H3025 0.930 . S
C3033 C3031 1.419 . S
C3033 C3034 1.362 . S
C3034 H3026 0.930 . S
C3034 C3033 1.362 . S
C3034 C3037 1.409 . S
C3035 H3027 0.930 . S
C3035 C3036 1.355 . S
C3035 C3037 1.415 . S
C3036 C3035 1.355 . S
C3036 C3038 1.419 . S
C3037 C3032 1.425 . S
C3037 C3034 1.409 . S
C3037 C3035 1.415 . S
C3038 H3028 0.930 . S
C3038 C3036 1.419 . S
C3038 C3039 1.362 . S
C3039 H3029 0.930 . S
C3039 C3032 1.409 . S
C3039 C3038 1.362 . S
H3040 C3046 0.930 . S
H3041 C3049 0.930 . S
H3042 C3050 0.930 . S
H3043 C3051 0.930 . S
H3044 C3054 0.930 . S
H3045 C3055 0.930 . S
C3046 H3040 0.930 . S
C3046 C3047 1.355 . S
C3046 C3048 1.415 . S
C3047 C3046 1.355 . S
C3047 C3049 1.419 . S
C3048 C3046 1.415 . S
C3048 C3053 1.425 . S
C3048 C3055 1.409 . S
C3049 H3041 0.930 . S
C3049 C3047 1.419 . S
C3049 C3050 1.362 . S
C3050 H3042 0.930 . S
C3050 C3049 1.362 . S
C3050 C3053 1.409 . S
C3051 H3043 0.930 . S
C3051 C3052 1.355 . S
C3051 C3053 1.415 . S
C3052 C3051 1.355 . S
C3052 C3054 1.419 . S
C3053 C3048 1.425 . S
C3053 C3050 1.409 . S
C3053 C3051 1.415 . S
C3054 H3044 0.930 . S
C3054 C3052 1.419 . S
C3054 C3055 1.362 . S
C3055 H3045 0.930 . S
C3055 C3048 1.409 . S
C3055 C3054 1.362 . S
H3056 C3062 0.930 . S
H3057 C3065 0.930 . S
H3058 C3066 0.930 . S
H3059 C3067 0.930 . S
H3060 C3070 0.930 . S
H3061 C3071 0.930 . S
C3062 H3056 0.930 . S
C3062 C3063 1.355 . S
C3062 C3064 1.415 . S
C3063 C3062 1.355 . S
C3063 C3065 1.419 . S
C3064 C3062 1.415 . S
C3064 C3069 1.425 . S
C3064 C3071 1.409 . S
C3065 H3057 0.930 . S
C3065 C3063 1.419 . S
C3065 C3066 1.362 . S
C3066 H3058 0.930 . S
C3066 C3065 1.362 . S
C3066 C3069 1.409 . S
C3067 H3059 0.930 . S
C3067 C3068 1.355 . S
C3067 C3069 1.415 . S
C3068 C3067 1.355 . S
C3068 C3070 1.419 . S
C3069 C3064 1.425 . S
C3069 C3066 1.409 . S
C3069 C3067 1.415 . S
C3070 H3060 0.930 . S
C3070 C3068 1.419 . S
C3070 C3071 1.362 . S
C3071 H3061 0.930 . S
C3071 C3064 1.409 . S
C3071 C3070 1.362 . S
H3072 C3078 0.930 . S
H3073 C3081 0.930 . S
H3074 C3082 0.930 . S
H3075 C3083 0.930 . S
H3076 C3086 0.930 . S
H3077 C3087 0.930 . S
C3078 H3072 0.930 . S
C3078 C3079 1.355 . S
C3078 C3080 1.415 . S
C3079 C3078 1.355 . S
C3079 C3081 1.419 . S
C3080 C3078 1.415 . S
C3080 C3085 1.425 . S
C3080 C3087 1.409 . S
C3081 H3073 0.930 . S
C3081 C3079 1.419 . S
C3081 C3082 1.362 . S
C3082 H3074 0.930 . S
C3082 C3081 1.362 . S
C3082 C3085 1.409 . S
C3083 H3075 0.930 . S
C3083 C3084 1.355 . S
C3083 C3085 1.415 . S
C3084 C3083 1.355 . S
C3084 C3086 1.419 . S
C3085 C3080 1.425 . S
C3085 C3082 1.409 . S
C3085 C3083 1.415 . S
C3086 H3076 0.930 . S
C3086 C3084 1.419 . S
C3086 C3087 1.362 . S
C3087 H3077 0.930 . S
C3087 C3080 1.409 . S
C3087 C3086 1.362 . S
H3088 C3094 0.930 . S
H3089 C3097 0.930 . S
H3090 C3098 0.930 . S
H3091 C3099 0.930 . S
H3092 C3102 0.930 . S
H3093 C3103 0.930 . S
C3094 H3088 0.930 . S
C3094 C3095 1.355 . S
C3094 C3096 1.415 . S
C3095 C3094 1.355 . S
C3095 C3097 1.419 . S
C3096 C3094 1.415 . S
C3096 C3101 1.425 . S
C3096 C3103 1.409 . S
C3097 H3089 0.930 . S
C3097 C3095 1.419 . S
C3097 C3098 1.362 . S
C3098 H3090 0.930 . S
C3098 C3097 1.362 . S
C3098 C3101 1.409 . S
C3099 H3091 0.930 . S
C3099 C3100 1.355 . S
C3099 C3101 1.415 . S
C3100 C3099 1.355 . S
C3100 C3102 1.419 . S
C3101 C3096 1.425 . S
C3101 C3098 1.409 . S
C3101 C3099 1.415 . S
C3102 H3092 0.930 . S
C3102 C3100 1.419 . S
C3102 C3103 1.362 . S
C3103 H3093 0.930 . S
C3103 C3096 1.409 . S
C3103 C3102 1.362 . S
H3104 C3110 0.930 . S
H3105 C3113 0.930 . S
H3106 C3114 0.930 . S
H3107 C3115 0.930 . S
H3108 C3118 0.930 . S
H3109 C3119 0.930 . S
C3110 H3104 0.930 . S
C3110 C3111 1.355 . S
C3110 C3112 1.415 . S
C3111 C3110 1.355 . S
C3111 C3113 1.419 . S
C3112 C3110 1.415 . S
C3112 C3117 1.425 . S
C3112 C3119 1.409 . S
C3113 H3105 0.930 . S
C3113 C3111 1.419 . S
C3113 C3114 1.362 . S
C3114 H3106 0.930 . S
C3114 C3113 1.362 . S
C3114 C3117 1.409 . S
C3115 H3107 0.930 . S
C3115 C3116 1.355 . S
C3115 C3117 1.415 . S
C3116 C3115 1.355 . S
C3116 C3118 1.419 . S
C3117 C3112 1.425 . S
C3117 C3114 1.409 . S
C3117 C3115 1.415 . S
C3118 H3108 0.930 . S
C3118 C3116 1.419 . S
C3118 C3119 1.362 . S
C3119 H3109 0.930 . S
C3119 C3112 1.409 . S
C3119 C3118 1.362 . S
H3120 C3126 0.930 . S
H3121 C3129 0.930 . S
H3122 C3130 0.930 . S
H3123 C3131 0.930 . S
H3124 C3134 0.930 . S
H3125 C3135 0.930 . S
C3126 H3120 0.930 . S
C3126 C3127 1.355 . S
C3126 C3128 1.415 . S
C3127 C3126 1.355 . S
C3127 C3129 1.419 . S
C3128 C3126 1.415 . S
C3128 C3133 1.425 . S
C3128 C3135 1.409 . S
C3129 H3121 0.930 . S
C3129 C3127 1.419 . S
C3129 C3130 1.362 . S
C3130 H3122 0.930 . S
C3130 C3129 1.362 . S
C3130 C3133 1.409 . S
C3131 H3123 0.930 . S
C3131 C3132 1.355 . S
C3131 C3133 1.415 . S
C3132 C3131 1.355 . S
C3132 C3134 1.419 . S
C3133 C3128 1.425 . S
C3133 C3130 1.409 . S
C3133 C3131 1.415 . S
C3134 H3124 0.930 . S
C3134 C3132 1.419 . S
C3134 C3135 1.362 . S
C3135 H3125 0.930 . S
C3135 C3128 1.409 . S
C3135 C3134 1.362 . S
H3136 C3142 0.930 . S
H3137 C3145 0.930 . S
H3138 C3146 0.930 . S
H3139 C3147 0.930 . S
H3140 C3150 0.930 . S
H3141 C3151 0.930 . S
C3142 H3136 0.930 . S
C3142 C3143 1.355 . S
C3142 C3144 1.415 . S
C3143 C3142 1.355 . S
C3143 C3145 1.419 . S
C3144 C3142 1.415 . S
C3144 C3149 1.425 . S
C3144 C3151 1.409 . S
C3145 H3137 0.930 . S
C3145 C3143 1.419 . S
C3145 C3146 1.362 . S
C3146 H3138 0.930 . S
C3146 C3145 1.362 . S
C3146 C3149 1.409 . S
C3147 H3139 0.930 . S
C3147 C3148 1.355 . S
C3147 C3149 1.415 . S
C3148 C3147 1.355 . S
C3148 C3150 1.419 . S
C3149 C3144 1.425 . S
C3149 C3146 1.409 . S
C3149 C3147 1.415 . S
C3150 H3140 0.930 . S
C3150 C3148 1.419 . S
C3150 C3151 1.362 . S
C3151 H3141 0.930 . S
C3151 C3144 1.409 . S
C3151 C3150 1.362 . S
H3152 C3158 0.930 . S
H3153 C3161 0.930 . S
H3154 C3162 0.930 . S
H3155 C3163 0.930 . S
H3156 C3166 0.930 . S
H3157 C3167 0.930 . S
C3158 H3152 0.930 . S
C3158 C3159 1.355 . S
C3158 C3160 1.415 . S
C3159 C3158 1.355 . S
C3159 C3161 1.419 . S
C3160 C3158 1.415 . S
C3160 C3165 1.425 . S
C3160 C3167 1.409 . S
C3161 H3153 0.930 . S
C3161 C3159 1.419 . S
C3161 C3162 1.362 . S
C3162 H3154 0.930 . S
C3162 C3161 1.362 . S
C3162 C3165 1.409 . S
C3163 H3155 0.930 . S
C3163 C3164 1.355 . S
C3163 C3165 1.415 . S
C3164 C3163 1.355 . S
C3164 C3166 1.419 . S
C3165 C3160 1.425 . S
C3165 C3162 1.409 . S
C3165 C3163 1.415 . S
C3166 H3156 0.930 . S
C3166 C3164 1.419 . S
C3166 C3167 1.362 . S
C3167 H3157 0.930 . S
C3167 C3160 1.409 . S
C3167 C3166 1.362 . S
C1447 C9 1.695 . S
C1452 C99 1.783 . S
C1463 C19 1.777 . S
C1468 C49 1.699 1_545 S
C1479 C89 1.742 1_655 S
C1484 C59 1.764 . S
C1495 C129 1.791 . S
C1500 C179 1.884 . S
C1511 C219 1.882 . S
C1516 C169 1.799 1_565 S
C1527 C209 1.765 1_455 S
C1532 C139 1.854 . S
C1543 C258 1.692 . S
C1548 C330 1.809 . S
C1559 C298 1.743 1_565 S
C1564 C250 1.807 . S
C1575 C338 1.702 1_455 S
C1580 C290 1.814 . S
C1591 C378 1.833 . S
C1596 C410 1.855 . S
C1607 C450 1.860 . S
C1612 C418 1.831 1_545 S
C1623 C370 1.864 . S
C1628 C458 1.759 1_655 S
C1639 C579 1.831 . S
C1644 C489 1.818 . S
C1655 C529 1.821 . S
C1660 C499 1.850 . S
C1671 C539 1.835 . S
C1676 C569 1.765 . S
C1687 C609 1.782 . S
C1692 C659 1.875 . S
C1703 C699 1.899 . S
C1708 C649 1.811 . S
C1719 C619 1.896 . S
C1724 C689 1.824 . S
C1735 C738 1.782 . S
C1740 C810 1.797 . S
C1751 C778 1.775 . S
C1756 C730 1.836 . S
C1767 C770 1.839 . S
C1772 C818 1.770 . S
C1783 C890 1.697 . S
C1788 C858 1.668 1_554 S
C1799 C898 1.642 1_554 S
C1804 C930 1.742 . S
C1815 C850 1.717 . S
C1820 C938 1.703 1_554 S
C1831 C969 1.772 . S
C1836 C1059 1.839 . S
C1847 C1009 1.791 . S
C1852 C979 1.819 . S
C1863 C1049 1.754 . S
C1868 C1019 1.844 . S
C1879 C1089 1.705 1_556 S
C1884 C1139 1.711 . S
C1895 C1129 1.661 1_556 S
C1900 C1179 1.737 . S
C1911 C1169 1.670 1_556 S
C1916 C1099 1.696 . S
C1927 C1218 1.762 . S
C1932 C1290 1.838 . S
C1943 C1258 1.777 . S
C1948 C1210 1.830 . S
C1959 C1250 1.857 . S
C1964 C1298 1.815 . S
C1975 C1338 1.849 . S
C1980 C1370 1.865 . S
C1991 C1378 1.789 . S
C1996 C1410 1.866 . S
C2007 C1330 1.878 . S
C2012 C1418 1.778 . S
C2023 C10 1.775 . S
C2028 C809 1.806 . S
C2039 C729 1.775 1_565 S
C2044 C50 1.778 . S
C2055 C90 1.824 . S
C2060 C769 1.801 . S
C2071 C130 1.678 . S
C2076 C1369 1.695 . S
C2087 C1409 1.686 . S
C2092 C170 1.735 . S
C2103 C210 1.720 . S
C2108 C1329 1.667 . S
C2119 C1058 1.810 . S
C2124 C259 1.777 . S
C2135 C299 1.774 . S
C2140 C978 1.783 1_545 S
C2151 C339 1.803 . S
C2156 C1018 1.821 1_655 S
C2167 C658 1.711 . S
C2172 C379 1.684 . S
C2183 C698 1.692 1_565 S
C2188 C419 1.678 . S
C2199 C618 1.667 . S
C2204 C459 1.720 . S
C2215 C490 1.774 . S
C2220 C1289 1.726 . S
C2231 C530 1.745 . S
C2236 C1209 1.773 . S
C2247 C1249 1.773 . S
C2252 C570 1.760 . S
C2263 C409 1.765 . S
C2268 C610 1.750 1_455 S
C2279 C449 1.762 . S
C2284 C650 1.759 . S
C2295 C369 1.731 . S
C2300 C690 1.715 1_565 S
C2311 C98 1.817 . S
C2316 C739 1.801 1_565 S
C2327 C779 1.775 1_455 S
C2332 C18 1.810 . S
C2343 C819 1.814 . S
C2348 C58 1.773 . S
C2359 C1138 1.768 1_554 S
C2364 C859 1.745 . S
C2375 C1178 1.728 . S
C2380 C899 1.773 . S
C2391 C939 1.744 . S
C2396 C1098 1.718 . S
C2407 C329 1.762 . S
C2412 C970 1.797 1_545 S
C2423 C249 1.778 . S
C2428 C1010 1.817 1_655 S
C2439 C289 1.803 . S
C2444 C1050 1.769 . S
C2455 C1090 1.784 . S
C2460 C889 1.730 . S
C2471 C929 1.744 1_556 S
C2476 C1130 1.798 . S
C2487 C1170 1.770 . S
C2492 C849 1.728 . S
C2503 C1219 1.779 . S
C2508 C578 1.736 . S
C2519 C1259 1.726 . S
C2524 C498 1.746 . S
C2535 C1299 1.754 . S
C2540 C538 1.714 . S
C2551 C1339 1.762 1_655 S
C2556 C178 1.711 . S
C2567 C218 1.722 . S
C2572 C1379 1.770 . S
C2583 C138 1.713 . S
C2588 C1419 1.763 1_545 S
C2599 C1166 2.269 . S
C2604 C6 2.263 . S
C2615 C1086 2.266 . S
C2620 C46 2.264 . S
C2631 C86 2.277 . S
C2636 C1126 2.238 . S
C2647 C526 2.478 . S
C2652 C126 2.465 . S
C2663 C166 2.462 . S
C2668 C566 2.479 . S
C2679 C206 2.440 . S
C2684 C486 2.461 . S
C2695 C255 2.237 . S
C2700 C935 2.237 . S
C2711 C295 2.279 . S
C2716 C855 2.248 . S
C2727 C335 2.248 . S
C2732 C895 2.255 . S
C2743 C1255 2.445 . S
C2748 C375 2.465 . S
C2759 C1295 2.442 . S
C2764 C415 2.449 . S
C2775 C1215 2.473 . S
C2780 C455 2.449 . S
C2791 C606 2.488 1_455 S
C2796 C1006 2.494 . S
C2807 C646 2.521 . S
C2812 C1046 2.512 . S
C2823 C686 2.490 1_565 S
C2828 C966 2.515 . S
C2839 C735 2.498 . S
C2844 C1415 2.517 1_545 S
C2855 C1335 2.520 1_655 S
C2860 C775 2.512 1_455 S
C2871 C815 2.506 . S
C2876 C1375 2.521 . S
C2887 C175 1.179 . S
C2892 C15 1.190 . S
C2903 C215 1.182 . S
C2908 C55 1.201 . S
C2919 C135 1.175 . S
C2924 C95 1.195 . S
C2935 C246 1.180 . S
C2940 C406 1.190 . S
C2951 C446 1.203 . S
C2956 C286 1.177 . S
C2967 C326 1.201 . S
C2972 C366 1.183 . S
C2983 C655 1.252 . S
C2988 C495 1.264 . S
C2999 C695 1.250 . S
C3004 C535 1.269 . S
C3015 C615 1.261 . S
C3020 C575 1.275 . S
C3031 C886 1.506 . S
C3036 C726 1.537 . S
C3047 C766 1.524 . S
C3052 C926 1.507 . S
C3063 C806 1.519 . S
C3068 C846 1.530 . S
C3079 C975 1.520 . S
C3084 C1135 1.531 . S
C3095 C1175 1.482 . S
C3100 C1015 1.530 . S
C3111 C1055 1.518 . S
C3116 C1095 1.496 . S
C3127 C1206 1.276 . S
C3132 C1366 1.251 . S
C3143 C1406 1.249 . S
C3148 C1246 1.272 . S
C3159 C1286 1.262 . S
C3164 C1326 1.275 . S
