# Generated by pormake.
# Topology hjm, (4)-cn, num edge types: 1
# Building blocks:
#     Node 0, Type 0, BuildingBlock: GALJAG_clean_sbu_0, # of connection points: 4
#     Node 1, Type 0, BuildingBlock: GALJAG_clean_sbu_0, # of connection points: 4
#     Node 2, Type 0, BuildingBlock: GALJAG_clean_sbu_0, # of connection points: 4
#     Node 3, Type 0, BuildingBlock: GALJAG_clean_sbu_0, # of connection points: 4
#     Node 4, Type 0, BuildingBlock: GALJAG_clean_sbu_0, # of connection points: 4
#     Node 5, Type 0, BuildingBlock: GALJAG_clean_sbu_0, # of connection points: 4
#     Node 6, Type 0, BuildingBlock: GALJAG_clean_sbu_0, # of connection points: 4
#     Node 7, Type 0, BuildingBlock: GALJAG_clean_sbu_0, # of connection points: 4
#     Edge 8, Type (0, 0), BuildingBlock: OJICUG_clean_linker_0, # of connection points: 2
#     Edge 9, Type (0, 0), BuildingBlock: OJICUG_clean_linker_0, # of connection points: 2
#     Edge 10, Type (0, 0), BuildingBlock: OJICUG_clean_linker_0, # of connection points: 2
#     Edge 11, Type (0, 0), BuildingBlock: OJICUG_clean_linker_0, # of connection points: 2
#     Edge 12, Type (0, 0), BuildingBlock: OJICUG_clean_linker_0, # of connection points: 2
#     Edge 13, Type (0, 0), BuildingBlock: OJICUG_clean_linker_0, # of connection points: 2
#     Edge 14, Type (0, 0), BuildingBlock: OJICUG_clean_linker_0, # of connection points: 2
#     Edge 15, Type (0, 0), BuildingBlock: OJICUG_clean_linker_0, # of connection points: 2
#     Edge 16, Type (0, 0), BuildingBlock: OJICUG_clean_linker_0, # of connection points: 2
#     Edge 17, Type (0, 0), BuildingBlock: OJICUG_clean_linker_0, # of connection points: 2
#     Edge 18, Type (0, 0), BuildingBlock: OJICUG_clean_linker_0, # of connection points: 2
#     Edge 19, Type (0, 0), BuildingBlock: OJICUG_clean_linker_0, # of connection points: 2
#     Edge 20, Type (0, 0), BuildingBlock: OJICUG_clean_linker_0, # of connection points: 2
#     Edge 21, Type (0, 0), BuildingBlock: OJICUG_clean_linker_0, # of connection points: 2
#     Edge 22, Type (0, 0), BuildingBlock: OJICUG_clean_linker_0, # of connection points: 2
#     Edge 23, Type (0, 0), BuildingBlock: OJICUG_clean_linker_0, # of connection points: 2
# Relax obj value: 0.069
# Max RMSD: 0.136
# Mean RMSD: 0.136
data_MOF--net-hjm--node1-GALJAG_clean_sbu_0--edge1-OJICUG_clean_linker_0
_symmetry_space_group_name_H-M    P1
_symmetry_Int_Tables_number       1
_symmetry_cell_setting            triclinic
loop_
_symmetry_equiv_pos_as_xyz
'x, y, z'
_cell_length_a     18.707838
_cell_length_b     15.533104
_cell_length_c     18.707314
_cell_angle_alpha  90.000409
_cell_angle_beta   69.500506
_cell_angle_gamma 89.998008
loop_
_atom_site_label
_atom_site_type_symbol
_atom_site_fract_x
_atom_site_fract_y
_atom_site_fract_z
_atom_type_partial_charge
In0 In 0.18604 0.25031 0.31339 0.0
O1 O 0.08809 0.34597 0.34131 0.0
O2 O 0.15833 0.34848 0.40948 0.0
C3 C 0.20827 0.24986 0.16341 0.0
C4 C 0.10022 0.12295 0.39839 0.0
C5 C 0.33547 0.25035 0.29354 0.0
O6 O 0.19867 0.31835 0.20192 0.0
O7 O 0.2036 0.18152 0.20122 0.0
O8 O 0.2972 0.18193 0.30083 0.0
O9 O 0.29761 0.31888 0.29938 0.0
C10 C 0.10086 0.37851 0.39749 0.0
O11 O 0.15614 0.15508 0.41187 0.0
O12 O 0.08934 0.15294 0.34034 0.0
In13 In 0.81274 0.24686 0.18637 0.0
O14 O 0.912 0.34106 0.15617 0.0
O15 O 0.83899 0.34564 0.09093 0.0
C16 C 0.79295 0.24544 0.3358 0.0
C17 C 0.89676 0.11887 0.10065 0.0
C18 C 0.66278 0.24881 0.20859 0.0
O19 O 0.80348 0.31404 0.29733 0.0
O20 O 0.79549 0.17741 0.29815 0.0
O21 O 0.70087 0.18 0.19894 0.0
O22 O 0.70101 0.31682 0.20398 0.0
C23 C 0.89776 0.37447 0.10112 0.0
O24 O 0.84152 0.15276 0.08712 0.0
O25 O 0.90781 0.14744 0.15907 0.0
In26 In 0.81064 0.75018 0.68463 0.0
O27 O 0.90908 0.65507 0.65641 0.0
O28 O 0.83913 0.65275 0.58795 0.0
C29 C 0.7883 0.75047 0.83463 0.0
C30 C 0.89564 0.87843 0.60026 0.0
C31 C 0.66124 0.74861 0.70436 0.0
O32 O 0.79832 0.68204 0.79598 0.0
O33 O 0.7926 0.81883 0.79694 0.0
O34 O 0.69889 0.81743 0.69755 0.0
O35 O 0.69969 0.68048 0.69812 0.0
C36 C 0.89665 0.62286 0.59993 0.0
O37 O 0.83977 0.84619 0.58676 0.0
O38 O 0.90685 0.84807 0.65801 0.0
In39 In 0.18403 0.74675 0.81103 0.0
O40 O 0.15459 0.84039 0.91061 0.0
O41 O 0.08881 0.84606 0.83819 0.0
C42 C 0.33398 0.74643 0.78892 0.0
C43 C 0.09948 0.61875 0.89611 0.0
C44 C 0.20384 0.74728 0.66159 0.0
O45 O 0.29531 0.81481 0.79868 0.0
O46 O 0.29632 0.678 0.79335 0.0
O47 O 0.19362 0.67888 0.70029 0.0
O48 O 0.20097 0.81558 0.69901 0.0
C49 C 0.09948 0.87434 0.89689 0.0
O50 O 0.08492 0.65243 0.84135 0.0
O51 O 0.15836 0.64751 0.90611 0.0
In52 In 0.68408 0.74985 0.31131 0.0
O53 O 0.58476 0.84389 0.34178 0.0
O54 O 0.65886 0.84978 0.4058 0.0
C55 C 0.70374 0.74933 0.16191 0.0
C56 C 0.59939 0.62256 0.39751 0.0
C57 C 0.83406 0.74954 0.28907 0.0
O58 O 0.69387 0.81778 0.20052 0.0
O59 O 0.70061 0.68105 0.19941 0.0
O60 O 0.79525 0.68128 0.29872 0.0
O61 O 0.79654 0.81811 0.29372 0.0
C62 C 0.59969 0.87813 0.3961 0.0
O63 O 0.65425 0.65687 0.41142 0.0
O64 O 0.58906 0.65032 0.33848 0.0
In65 In 0.31079 0.74511 0.18431 0.0
O66 O 0.4103 0.83884 0.15517 0.0
O67 O 0.33878 0.84345 0.08837 0.0
C68 C 0.28853 0.7453 0.3343 0.0
C69 C 0.39539 0.61655 0.10003 0.0
C70 C 0.16137 0.74682 0.20409 0.0
O71 O 0.29923 0.81357 0.29537 0.0
O72 O 0.29213 0.67686 0.29689 0.0
O73 O 0.19908 0.67796 0.19671 0.0
O74 O 0.19978 0.8149 0.19837 0.0
C75 C 0.39716 0.87211 0.09947 0.0
O76 O 0.3404 0.64998 0.08574 0.0
O77 O 0.40588 0.64586 0.15849 0.0
In78 In 0.31282 0.24977 0.68668 0.0
O79 O 0.41268 0.15632 0.65596 0.0
O80 O 0.33898 0.15068 0.5915 0.0
C81 C 0.293 0.25057 0.83611 0.0
C82 C 0.39654 0.37806 0.60114 0.0
C83 C 0.16287 0.24781 0.70882 0.0
O84 O 0.3035 0.1821 0.79747 0.0
O85 O 0.29559 0.31875 0.79863 0.0
O86 O 0.20087 0.31666 0.69942 0.0
O87 O 0.20119 0.17983 0.704 0.0
C88 C 0.39816 0.12246 0.60125 0.0
O89 O 0.34169 0.34368 0.58727 0.0
O90 O 0.40734 0.34983 0.65979 0.0
In91 In 0.6862 0.24493 0.81307 0.0
O92 O 0.58755 0.15018 0.84145 0.0
O93 O 0.65929 0.14541 0.90802 0.0
C94 C 0.70846 0.2455 0.66308 0.0
C95 C 0.60025 0.37201 0.89843 0.0
C96 C 0.8356 0.24541 0.7934 0.0
O97 O 0.69843 0.177 0.70161 0.0
O98 O 0.70422 0.31378 0.70087 0.0
O99 O 0.79706 0.31369 0.80123 0.0
O100 O 0.79804 0.17677 0.79859 0.0
C101 C 0.6011 0.11644 0.89675 0.0
O102 O 0.65541 0.33883 0.91261 0.0
O103 O 0.59024 0.34322 0.83957 0.0
C104 C 0.06089 0.03133 0.51549 0.0
C105 C 0.04873 0.05916 0.44922 0.0
H106 H 0.0214 0.95283 0.61575 0.0
C107 C 0.98513 0.02828 0.43364 0.0
H108 H 0.10923 0.05445 0.52915 0.0
C109 C 0.93463 0.9705 0.48343 0.0
C110 C 0.94686 0.94258 0.54964 0.0
H111 H 0.97414 0.04898 0.38315 0.0
H112 H 0.8863 0.94735 0.46977 0.0
C113 C 0.0104 0.97355 0.56527 0.0
C114 C 0.05913 0.96227 0.01619 0.0
C115 C 0.04857 0.93823 0.94817 0.0
H116 H 0.01873 0.0377 0.11827 0.0
C117 C 0.98701 0.97296 0.93124 0.0
H118 H 0.10583 0.93607 0.03094 0.0
C119 C 0.9369 0.03074 0.98143 0.0
C120 C 0.94751 0.05482 0.04942 0.0
H121 H 0.97734 0.95532 0.87933 0.0
H122 H 0.89021 0.05696 0.96669 0.0
C123 C 0.00905 0.02005 0.06637 0.0
C124 C 0.50809 0.4779 0.56756 0.0
C125 C 0.44723 0.44222 0.55 0.0
H126 H 0.6044 0.56259 0.53263 0.0
C127 C 0.43732 0.46542 0.48149 0.0
H128 H 0.51721 0.46097 0.61989 0.0
C129 C 0.48747 0.5232 0.43134 0.0
C130 C 0.54839 0.55879 0.44885 0.0
H131 H 0.39116 0.43848 0.46627 0.0
H132 H 0.47836 0.54011 0.37899 0.0
C133 C 0.55823 0.53568 0.51742 0.0
C134 C 0.43592 0.52646 0.98197 0.0
C135 C 0.44657 0.55228 0.04951 0.0
H136 H 0.47681 0.4497 0.88071 0.0
C137 C 0.5086 0.51915 0.0666 0.0
H138 H 0.3888 0.55133 0.96716 0.0
C139 C 0.55919 0.46137 0.01692 0.0
C140 C 0.54865 0.4357 0.9493 0.0
H141 H 0.51834 0.53818 0.11816 0.0
H142 H 0.60633 0.43655 0.03171 0.0
C143 C 0.48652 0.46868 0.93229 0.0
C144 C 0.93144 0.47149 0.98767 0.0
C145 C 0.94855 0.43832 0.04967 0.0
H146 H 0.96627 0.55414 0.88997 0.0
C147 C 0.01627 0.46382 0.06011 0.0
H148 H 0.87978 0.45265 0.97804 0.0
C149 C 0.06599 0.52152 0.00945 0.0
C150 C 0.04884 0.55474 0.94749 0.0
H151 H 0.03113 0.43887 0.10717 0.0
H152 H 0.11765 0.54038 0.01907 0.0
C153 C 0.98114 0.52918 0.93702 0.0
C154 C 0.06466 0.47442 0.51181 0.0
C155 C 0.04968 0.44262 0.44818 0.0
H156 H 0.02747 0.55596 0.61022 0.0
C157 C 0.98353 0.46966 0.43535 0.0
H158 H 0.11508 0.45441 0.52326 0.0
C159 C 0.93318 0.52738 0.48533 0.0
C160 C 0.9481 0.5591 0.54903 0.0
H161 H 0.97034 0.44584 0.38695 0.0
H162 H 0.88275 0.54737 0.47389 0.0
C163 C 0.0143 0.53215 0.56181 0.0
C164 C 0.48255 0.02729 0.93614 0.0
C165 C 0.55002 0.05221 0.94739 0.0
H166 H 0.38078 0.95132 0.97607 0.0
C167 C 0.56645 0.01825 0.0095 0.0
H168 H 0.46822 0.05284 0.88896 0.0
C169 C 0.5162 0.96052 0.0596 0.0
C170 C 0.44864 0.93575 0.04844 0.0
H171 H 0.61796 0.03654 0.01968 0.0
H172 H 0.5305 0.93501 0.1068 0.0
C173 C 0.4323 0.96957 0.98623 0.0
C174 C 0.56712 0.97673 0.50848 0.0
C175 C 0.54914 0.94225 0.44743 0.0
H176 H 0.53296 0.0604 0.60552 0.0
C177 C 0.48071 0.9666 0.4379 0.0
H178 H 0.61938 0.95887 0.51734 0.0
C179 C 0.43107 0.02431 0.4886 0.0
C180 C 0.44899 0.0587 0.54971 0.0
H181 H 0.46519 0.94063 0.39158 0.0
H182 H 0.3788 0.04214 0.47974 0.0
C183 C 0.51746 0.03445 0.55919 0.0
C184 C 0.25017 0.66843 0.45931 0.0
C185 C 0.26829 0.74573 0.41785 0.0
H186 H 0.21456 0.60847 0.56922 0.0
C187 C 0.26353 0.82372 0.45725 0.0
H188 H 0.2528 0.60739 0.43045 0.0
C189 C 0.24119 0.82438 0.53671 0.0
C190 C 0.22325 0.74705 0.57814 0.0
H191 H 0.27686 0.88432 0.42676 0.0
H192 H 0.23861 0.8854 0.56557 0.0
C193 C 0.22783 0.66908 0.53875 0.0
C194 C 0.76273 0.67237 0.95779 0.0
C195 C 0.76806 0.75031 0.91819 0.0
H196 H 0.73742 0.61095 0.06625 0.0
C197 C 0.75052 0.82779 0.95943 0.0
H198 H 0.7756 0.61164 0.92747 0.0
C199 C 0.72821 0.82735 0.03888 0.0
C200 C 0.72309 0.74944 0.07847 0.0
H201 H 0.75359 0.88879 0.9304 0.0
H202 H 0.7154 0.88809 0.0692 0.0
C203 C 0.74043 0.67194 0.03724 0.0
C204 C 0.76881 0.32293 0.459 0.0
C205 C 0.77358 0.24519 0.41924 0.0
H206 H 0.7437 0.38399 0.56759 0.0
C207 C 0.75589 0.1676 0.46031 0.0
H208 H 0.78187 0.38373 0.42881 0.0
C209 C 0.73363 0.16778 0.53977 0.0
C210 C 0.72865 0.24556 0.57953 0.0
H211 H 0.75862 0.10675 0.43117 0.0
H212 H 0.7205 0.107 0.56997 0.0
C213 C 0.74651 0.32312 0.53844 0.0
C214 C 0.24591 0.17237 0.03871 0.0
C215 C 0.2285 0.24991 0.07986 0.0
H216 H 0.28101 0.11192 0.929 0.0
C217 C 0.23398 0.32781 0.04016 0.0
H218 H 0.24271 0.1114 0.06781 0.0
C219 C 0.2563 0.32814 0.96071 0.0
C220 C 0.27357 0.25057 0.91956 0.0
H221 H 0.22121 0.38859 0.0704 0.0
H222 H 0.25944 0.3891 0.93162 0.0
C223 C 0.26829 0.1727 0.95925 0.0
C224 C 0.45948 0.32793 0.26395 0.0
C225 C 0.41892 0.25007 0.27405 0.0
H226 H 0.56877 0.38856 0.23457 0.0
C227 C 0.45919 0.1719 0.26155 0.0
H228 H 0.42991 0.38916 0.27287 0.0
C229 C 0.53864 0.17156 0.23906 0.0
C230 C 0.57922 0.24939 0.22885 0.0
H231 H 0.42943 0.11091 0.26852 0.0
H232 H 0.56817 0.11031 0.23007 0.0
C233 C 0.53896 0.32759 0.24159 0.0
C234 C 0.53674 0.82564 0.73744 0.0
C235 C 0.5778 0.74798 0.72376 0.0
H236 H 0.42715 0.88593 0.76977 0.0
C237 C 0.53804 0.66968 0.73258 0.0
H238 H 0.56588 0.88695 0.73151 0.0
C239 C 0.45858 0.66909 0.75483 0.0
C240 C 0.41752 0.74678 0.76875 0.0
H241 H 0.56823 0.60882 0.72269 0.0
H242 H 0.42939 0.60781 0.76082 0.0
C243 C 0.45731 0.82505 0.75982 0.0
C244 C 0.03817 0.82591 0.23315 0.0
C245 C 0.07792 0.74755 0.22355 0.0
H246 H 0.92955 0.88797 0.26212 0.0
C247 C 0.03684 0.66991 0.23657 0.0
H248 H 0.06837 0.88676 0.2238 0.0
C249 C 0.95739 0.67062 0.25907 0.0
C250 C 0.91762 0.74897 0.26878 0.0
H251 H 0.06598 0.60854 0.23002 0.0
H252 H 0.92721 0.60976 0.26848 0.0
C253 C 0.95871 0.82662 0.25552 0.0
C254 C 0.03855 0.32482 0.7396 0.0
C255 C 0.07932 0.24709 0.72902 0.0
H256 H 0.92917 0.38517 0.76925 0.0
C257 C 0.03926 0.16878 0.74131 0.0
H258 H 0.06793 0.38615 0.73096 0.0
C259 C 0.9598 0.16822 0.76356 0.0
C260 C 0.91904 0.24596 0.77403 0.0
H261 H 0.06921 0.10788 0.734 0.0
H262 H 0.9304 0.1069 0.77213 0.0
C263 C 0.9591 0.32426 0.76199 0.0
loop_
_geom_bond_atom_site_label_1
_geom_bond_atom_site_label_2
_geom_bond_distance
_geom_bond_site_symmetry_2
_ccdc_geom_bond_type
In0 O1 2.294 . S
In0 O2 2.326 . S
In0 O6 2.266 . S
In0 O7 2.326 . S
In0 O8 2.266 . S
In0 O9 2.326 . S
In0 O11 2.294 . S
In0 O12 2.326 . S
O1 In0 2.294 . S
O1 C10 1.240 . S
O2 In0 2.326 . S
O2 C10 1.252 . S
C3 O6 1.252 . S
C3 O7 1.260 . S
C4 O11 1.240 . S
C4 O12 1.252 . S
C5 O8 1.252 . S
C5 O9 1.260 . S
O6 In0 2.266 . S
O6 C3 1.252 . S
O7 In0 2.326 . S
O7 C3 1.260 . S
O8 In0 2.266 . S
O8 C5 1.252 . S
O9 In0 2.326 . S
O9 C5 1.260 . S
C10 O1 1.240 . S
C10 O2 1.252 . S
O11 In0 2.294 . S
O11 C4 1.240 . S
O12 In0 2.326 . S
O12 C4 1.252 . S
In13 O14 2.294 . S
In13 O15 2.326 . S
In13 O19 2.266 . S
In13 O20 2.326 . S
In13 O21 2.266 . S
In13 O22 2.326 . S
In13 O24 2.294 . S
In13 O25 2.326 . S
O14 In13 2.294 . S
O14 C23 1.240 . S
O15 In13 2.326 . S
O15 C23 1.252 . S
C16 O19 1.252 . S
C16 O20 1.260 . S
C17 O24 1.240 . S
C17 O25 1.252 . S
C18 O21 1.252 . S
C18 O22 1.260 . S
O19 In13 2.266 . S
O19 C16 1.252 . S
O20 In13 2.326 . S
O20 C16 1.260 . S
O21 In13 2.266 . S
O21 C18 1.252 . S
O22 In13 2.326 . S
O22 C18 1.260 . S
C23 O14 1.240 . S
C23 O15 1.252 . S
O24 In13 2.294 . S
O24 C17 1.240 . S
O25 In13 2.326 . S
O25 C17 1.252 . S
In26 O27 2.294 . S
In26 O28 2.326 . S
In26 O32 2.266 . S
In26 O33 2.326 . S
In26 O34 2.266 . S
In26 O35 2.326 . S
In26 O37 2.294 . S
In26 O38 2.326 . S
O27 In26 2.294 . S
O27 C36 1.240 . S
O28 In26 2.326 . S
O28 C36 1.252 . S
C29 O32 1.252 . S
C29 O33 1.260 . S
C30 O37 1.240 . S
C30 O38 1.252 . S
C31 O34 1.252 . S
C31 O35 1.260 . S
O32 In26 2.266 . S
O32 C29 1.252 . S
O33 In26 2.326 . S
O33 C29 1.260 . S
O34 In26 2.266 . S
O34 C31 1.252 . S
O35 In26 2.326 . S
O35 C31 1.260 . S
C36 O27 1.240 . S
C36 O28 1.252 . S
O37 In26 2.294 . S
O37 C30 1.240 . S
O38 In26 2.326 . S
O38 C30 1.252 . S
In39 O40 2.294 . S
In39 O41 2.326 . S
In39 O45 2.266 . S
In39 O46 2.326 . S
In39 O47 2.266 . S
In39 O48 2.326 . S
In39 O50 2.294 . S
In39 O51 2.326 . S
O40 In39 2.294 . S
O40 C49 1.240 . S
O41 In39 2.326 . S
O41 C49 1.252 . S
C42 O45 1.252 . S
C42 O46 1.260 . S
C43 O50 1.240 . S
C43 O51 1.252 . S
C44 O47 1.252 . S
C44 O48 1.260 . S
O45 In39 2.266 . S
O45 C42 1.252 . S
O46 In39 2.326 . S
O46 C42 1.260 . S
O47 In39 2.266 . S
O47 C44 1.252 . S
O48 In39 2.326 . S
O48 C44 1.260 . S
C49 O40 1.240 . S
C49 O41 1.252 . S
O50 In39 2.294 . S
O50 C43 1.240 . S
O51 In39 2.326 . S
O51 C43 1.252 . S
In52 O53 2.294 . S
In52 O54 2.326 . S
In52 O58 2.266 . S
In52 O59 2.326 . S
In52 O60 2.266 . S
In52 O61 2.326 . S
In52 O63 2.294 . S
In52 O64 2.326 . S
O53 In52 2.294 . S
O53 C62 1.240 . S
O54 In52 2.326 . S
O54 C62 1.252 . S
C55 O58 1.252 . S
C55 O59 1.260 . S
C56 O63 1.240 . S
C56 O64 1.252 . S
C57 O60 1.252 . S
C57 O61 1.260 . S
O58 In52 2.266 . S
O58 C55 1.252 . S
O59 In52 2.326 . S
O59 C55 1.260 . S
O60 In52 2.266 . S
O60 C57 1.252 . S
O61 In52 2.326 . S
O61 C57 1.260 . S
C62 O53 1.240 . S
C62 O54 1.252 . S
O63 In52 2.294 . S
O63 C56 1.240 . S
O64 In52 2.326 . S
O64 C56 1.252 . S
In65 O66 2.294 . S
In65 O67 2.326 . S
In65 O71 2.266 . S
In65 O72 2.326 . S
In65 O73 2.266 . S
In65 O74 2.326 . S
In65 O76 2.294 . S
In65 O77 2.326 . S
O66 In65 2.294 . S
O66 C75 1.240 . S
O67 In65 2.326 . S
O67 C75 1.252 . S
C68 O71 1.252 . S
C68 O72 1.260 . S
C69 O76 1.240 . S
C69 O77 1.252 . S
C70 O73 1.252 . S
C70 O74 1.260 . S
O71 In65 2.266 . S
O71 C68 1.252 . S
O72 In65 2.326 . S
O72 C68 1.260 . S
O73 In65 2.266 . S
O73 C70 1.252 . S
O74 In65 2.326 . S
O74 C70 1.260 . S
C75 O66 1.240 . S
C75 O67 1.252 . S
O76 In65 2.294 . S
O76 C69 1.240 . S
O77 In65 2.326 . S
O77 C69 1.252 . S
In78 O79 2.294 . S
In78 O80 2.326 . S
In78 O84 2.266 . S
In78 O85 2.326 . S
In78 O86 2.266 . S
In78 O87 2.326 . S
In78 O89 2.294 . S
In78 O90 2.326 . S
O79 In78 2.294 . S
O79 C88 1.240 . S
O80 In78 2.326 . S
O80 C88 1.252 . S
C81 O84 1.252 . S
C81 O85 1.260 . S
C82 O89 1.240 . S
C82 O90 1.252 . S
C83 O86 1.252 . S
C83 O87 1.260 . S
O84 In78 2.266 . S
O84 C81 1.252 . S
O85 In78 2.326 . S
O85 C81 1.260 . S
O86 In78 2.266 . S
O86 C83 1.252 . S
O87 In78 2.326 . S
O87 C83 1.260 . S
C88 O79 1.240 . S
C88 O80 1.252 . S
O89 In78 2.294 . S
O89 C82 1.240 . S
O90 In78 2.326 . S
O90 C82 1.252 . S
In91 O92 2.294 . S
In91 O93 2.326 . S
In91 O97 2.266 . S
In91 O98 2.326 . S
In91 O99 2.266 . S
In91 O100 2.326 . S
In91 O102 2.294 . S
In91 O103 2.326 . S
O92 In91 2.294 . S
O92 C101 1.240 . S
O93 In91 2.326 . S
O93 C101 1.252 . S
C94 O97 1.252 . S
C94 O98 1.260 . S
C95 O102 1.240 . S
C95 O103 1.252 . S
C96 O99 1.252 . S
C96 O100 1.260 . S
O97 In91 2.266 . S
O97 C94 1.252 . S
O98 In91 2.326 . S
O98 C94 1.260 . S
O99 In91 2.266 . S
O99 C96 1.252 . S
O100 In91 2.326 . S
O100 C96 1.260 . S
C101 O92 1.240 . S
C101 O93 1.252 . S
O102 In91 2.294 . S
O102 C95 1.240 . S
O103 In91 2.326 . S
O103 C95 1.252 . S
C104 C105 1.387 . S
C104 H108 0.950 . S
C104 C113 1.390 1_545 S
C105 C104 1.387 . S
C105 C107 1.387 1_455 S
H106 C113 0.950 . S
C107 C105 1.387 1_655 S
C107 C109 1.390 1_545 S
C107 H111 0.950 . S
H108 C104 0.950 . S
C109 C107 1.390 1_565 S
C109 C110 1.387 . S
C109 H112 0.950 . S
C110 C109 1.387 . S
C110 C113 1.387 1_655 S
H111 C107 0.950 . S
H112 C109 0.950 . S
C113 C104 1.390 1_565 S
C113 H106 0.950 . S
C113 C110 1.387 1_455 S
C114 C115 1.387 1_554 S
C114 H118 0.950 . S
C114 C123 1.390 1_455 S
C115 C114 1.387 1_556 S
C115 C117 1.387 1_565 S
H116 C123 0.950 . S
C117 C115 1.387 1_545 S
C117 C119 1.390 1_455 S
C117 H121 0.950 . S
H118 C114 0.950 . S
C119 C117 1.390 1_655 S
C119 C120 1.387 1_556 S
C119 H122 0.950 . S
C120 C119 1.387 1_554 S
C120 C123 1.387 1_545 S
H121 C117 0.950 . S
H122 C119 0.950 . S
C123 C114 1.390 1_655 S
C123 H116 0.950 . S
C123 C120 1.387 1_565 S
C124 C125 1.387 . S
C124 H128 0.950 . S
C124 C133 1.390 . S
C125 C124 1.387 . S
C125 C127 1.387 . S
H126 C133 0.950 . S
C127 C125 1.387 . S
C127 C129 1.390 . S
C127 H131 0.950 . S
H128 C124 0.950 . S
C129 C127 1.390 . S
C129 C130 1.387 . S
C129 H132 0.950 . S
C130 C129 1.387 . S
C130 C133 1.387 . S
H131 C127 0.950 . S
H132 C129 0.950 . S
C133 C124 1.390 . S
C133 H126 0.950 . S
C133 C130 1.387 . S
C134 C135 1.387 1_556 S
C134 H138 0.950 . S
C134 C143 1.390 . S
C135 C134 1.387 1_554 S
C135 C137 1.387 . S
H136 C143 0.950 . S
C137 C135 1.387 . S
C137 C139 1.390 . S
C137 H141 0.950 . S
H138 C134 0.950 . S
C139 C137 1.390 . S
C139 C140 1.387 1_554 S
C139 H142 0.950 . S
C140 C139 1.387 1_556 S
C140 C143 1.387 . S
H141 C137 0.950 . S
H142 C139 0.950 . S
C143 C134 1.390 . S
C143 H136 0.950 . S
C143 C140 1.387 . S
C144 C145 1.387 1_556 S
C144 H148 0.950 . S
C144 C153 1.390 1_655 S
C145 C144 1.387 1_554 S
C145 C147 1.387 . S
H146 C153 0.950 . S
C147 C145 1.387 . S
C147 C149 1.390 1_655 S
C147 H151 0.950 . S
H148 C144 0.950 . S
C149 C147 1.390 1_455 S
C149 C150 1.387 1_554 S
C149 H152 0.950 . S
C150 C149 1.387 1_556 S
C150 C153 1.387 . S
H151 C147 0.950 . S
H152 C149 0.950 . S
C153 C144 1.390 1_455 S
C153 H146 0.950 . S
C153 C150 1.387 . S
C154 C155 1.387 . S
C154 H158 0.950 . S
C154 C163 1.390 1_455 S
C155 C154 1.387 . S
C155 C157 1.387 . S
H156 C163 0.950 . S
C157 C155 1.387 . S
C157 C159 1.390 1_455 S
C157 H161 0.950 . S
H158 C154 0.950 . S
C159 C157 1.390 1_655 S
C159 C160 1.387 . S
C159 H162 0.950 . S
C160 C159 1.387 . S
C160 C163 1.387 . S
H161 C157 0.950 . S
H162 C159 0.950 . S
C163 C154 1.390 1_655 S
C163 H156 0.950 . S
C163 C160 1.387 . S
C164 C165 1.387 1_565 S
C164 H168 0.950 . S
C164 C173 1.390 . S
C165 C164 1.387 1_545 S
C165 C167 1.387 1_556 S
H166 C173 0.950 . S
C167 C165 1.387 1_554 S
C167 C169 1.390 . S
C167 H171 0.950 . S
H168 C164 0.950 . S
C169 C167 1.390 . S
C169 C170 1.387 1_545 S
C169 H172 0.950 . S
C170 C169 1.387 1_565 S
C170 C173 1.387 1_554 S
H171 C167 0.950 . S
H172 C169 0.950 . S
C173 C164 1.390 . S
C173 H166 0.950 . S
C173 C170 1.387 1_556 S
C174 C175 1.387 1_545 S
C174 H178 0.950 . S
C174 C183 1.390 . S
C175 C174 1.387 1_565 S
C175 C177 1.387 . S
H176 C183 0.950 . S
C177 C175 1.387 . S
C177 C179 1.390 . S
C177 H181 0.950 . S
H178 C174 0.950 . S
C179 C177 1.390 . S
C179 C180 1.387 1_565 S
C179 H182 0.950 . S
C180 C179 1.387 1_545 S
C180 C183 1.387 . S
H181 C177 0.950 . S
H182 C179 0.950 . S
C183 C174 1.390 . S
C183 H176 0.950 . S
C183 C180 1.387 . S
C184 C185 1.387 . S
C184 H188 0.950 . S
C184 C193 1.390 . S
C185 C184 1.387 . S
C185 C187 1.387 . S
H186 C193 0.950 . S
C187 C185 1.387 . S
C187 C189 1.390 . S
C187 H191 0.950 . S
H188 C184 0.950 . S
C189 C187 1.390 . S
C189 C190 1.387 . S
C189 H192 0.950 . S
C190 C189 1.387 . S
C190 C193 1.387 . S
H191 C187 0.950 . S
H192 C189 0.950 . S
C193 C184 1.390 . S
C193 H186 0.950 . S
C193 C190 1.387 . S
C194 C195 1.387 . S
C194 H198 0.950 . S
C194 C203 1.390 1_556 S
C195 C194 1.387 . S
C195 C197 1.387 . S
H196 C203 0.950 . S
C197 C195 1.387 . S
C197 C199 1.390 1_556 S
C197 H201 0.950 . S
H198 C194 0.950 . S
C199 C197 1.390 1_554 S
C199 C200 1.387 . S
C199 H202 0.950 . S
C200 C199 1.387 . S
C200 C203 1.387 . S
H201 C197 0.950 . S
H202 C199 0.950 . S
C203 C194 1.390 1_554 S
C203 H196 0.950 . S
C203 C200 1.387 . S
C204 C205 1.387 . S
C204 H208 0.950 . S
C204 C213 1.390 . S
C205 C204 1.387 . S
C205 C207 1.387 . S
H206 C213 0.950 . S
C207 C205 1.387 . S
C207 C209 1.390 . S
C207 H211 0.950 . S
H208 C204 0.950 . S
C209 C207 1.390 . S
C209 C210 1.387 . S
C209 H212 0.950 . S
C210 C209 1.387 . S
C210 C213 1.387 . S
H211 C207 0.950 . S
H212 C209 0.950 . S
C213 C204 1.390 . S
C213 H206 0.950 . S
C213 C210 1.387 . S
C214 C215 1.387 . S
C214 H218 0.950 . S
C214 C223 1.390 1_554 S
C215 C214 1.387 . S
C215 C217 1.387 . S
H216 C223 0.950 . S
C217 C215 1.387 . S
C217 C219 1.390 1_554 S
C217 H221 0.950 . S
H218 C214 0.950 . S
C219 C217 1.390 1_556 S
C219 C220 1.387 . S
C219 H222 0.950 . S
C220 C219 1.387 . S
C220 C223 1.387 . S
H221 C217 0.950 . S
H222 C219 0.950 . S
C223 C214 1.390 1_556 S
C223 H216 0.950 . S
C223 C220 1.387 . S
C224 C225 1.387 . S
C224 H228 0.950 . S
C224 C233 1.390 . S
C225 C224 1.387 . S
C225 C227 1.387 . S
H226 C233 0.950 . S
C227 C225 1.387 . S
C227 C229 1.390 . S
C227 H231 0.950 . S
H228 C224 0.950 . S
C229 C227 1.390 . S
C229 C230 1.387 . S
C229 H232 0.950 . S
C230 C229 1.387 . S
C230 C233 1.387 . S
H231 C227 0.950 . S
H232 C229 0.950 . S
C233 C224 1.390 . S
C233 H226 0.950 . S
C233 C230 1.387 . S
C234 C235 1.387 . S
C234 H238 0.950 . S
C234 C243 1.390 . S
C235 C234 1.387 . S
C235 C237 1.387 . S
H236 C243 0.950 . S
C237 C235 1.387 . S
C237 C239 1.390 . S
C237 H241 0.950 . S
H238 C234 0.950 . S
C239 C237 1.390 . S
C239 C240 1.387 . S
C239 H242 0.950 . S
C240 C239 1.387 . S
C240 C243 1.387 . S
H241 C237 0.950 . S
H242 C239 0.950 . S
C243 C234 1.390 . S
C243 H236 0.950 . S
C243 C240 1.387 . S
C244 C245 1.387 . S
C244 H248 0.950 . S
C244 C253 1.390 1_455 S
C245 C244 1.387 . S
C245 C247 1.387 . S
H246 C253 0.950 . S
C247 C245 1.387 . S
C247 C249 1.390 1_455 S
C247 H251 0.950 . S
H248 C244 0.950 . S
C249 C247 1.390 1_655 S
C249 C250 1.387 . S
C249 H252 0.950 . S
C250 C249 1.387 . S
C250 C253 1.387 . S
H251 C247 0.950 . S
H252 C249 0.950 . S
C253 C244 1.390 1_655 S
C253 H246 0.950 . S
C253 C250 1.387 . S
C254 C255 1.387 . S
C254 H258 0.950 . S
C254 C263 1.390 1_455 S
C255 C254 1.387 . S
C255 C257 1.387 . S
H256 C263 0.950 . S
C257 C255 1.387 . S
C257 C259 1.390 1_455 S
C257 H261 0.950 . S
H258 C254 0.950 . S
C259 C257 1.390 1_655 S
C259 C260 1.387 . S
C259 H262 0.950 . S
C260 C259 1.387 . S
C260 C263 1.387 . S
H261 C257 0.950 . S
H262 C259 0.950 . S
C263 C254 1.390 1_655 S
C263 H256 0.950 . S
C263 C260 1.387 . S
C105 C4 1.778 . S
C110 C30 1.778 . S
C115 C49 1.779 . S
C120 C17 1.779 . S
C125 C82 1.778 . S
C130 C56 1.778 . S
C135 C69 1.778 . S
C140 C95 1.778 . S
C145 C23 1.333 . S
C150 C43 1.333 . S
C155 C10 1.333 . S
C160 C36 1.333 . S
C165 C101 1.333 . S
C170 C75 1.333 . S
C175 C62 1.335 . S
C180 C88 1.335 . S
C185 C68 1.534 . S
C190 C44 1.534 . S
C195 C29 1.534 . S
C200 C55 1.534 . S
C205 C16 1.535 . S
C210 C94 1.535 . S
C215 C3 1.534 . S
C220 C81 1.534 . S
C225 C5 1.551 . S
C230 C18 1.551 . S
C235 C31 1.551 . S
C240 C42 1.551 . S
C245 C70 1.551 . S
C250 C57 1.551 . S
C255 C83 1.551 . S
C260 C96 1.551 . S
