# Generated by pormake.
# Topology wkc, (5)-cn, num edge types: 1
# Building blocks:
#     Node 0, Type 0, BuildingBlock: XOMCOT_clean_sbu_0, # of connection points: 5
#     Node 1, Type 0, BuildingBlock: XOMCOT_clean_sbu_0, # of connection points: 5
#     Node 2, Type 0, BuildingBlock: XOMCOT_clean_sbu_0, # of connection points: 5
#     Node 3, Type 0, BuildingBlock: XOMCOT_clean_sbu_0, # of connection points: 5
#     Node 4, Type 0, BuildingBlock: XOMCOT_clean_sbu_0, # of connection points: 5
#     Node 5, Type 0, BuildingBlock: XOMCOT_clean_sbu_0, # of connection points: 5
#     Node 6, Type 0, BuildingBlock: XOMCOT_clean_sbu_0, # of connection points: 5
#     Node 7, Type 0, BuildingBlock: XOMCOT_clean_sbu_0, # of connection points: 5
#     Node 8, Type 0, BuildingBlock: XOMCOT_clean_sbu_0, # of connection points: 5
#     Node 9, Type 0, BuildingBlock: XOMCOT_clean_sbu_0, # of connection points: 5
#     Node 10, Type 0, BuildingBlock: XOMCOT_clean_sbu_0, # of connection points: 5
#     Node 11, Type 0, BuildingBlock: XOMCOT_clean_sbu_0, # of connection points: 5
#     Edge 12, Type (0, 0), BuildingBlock: XIVTED_clean_linker_0, # of connection points: 2
#     Edge 13, Type (0, 0), BuildingBlock: XIVTED_clean_linker_0, # of connection points: 2
#     Edge 14, Type (0, 0), BuildingBlock: XIVTED_clean_linker_0, # of connection points: 2
#     Edge 15, Type (0, 0), BuildingBlock: XIVTED_clean_linker_0, # of connection points: 2
#     Edge 16, Type (0, 0), BuildingBlock: XIVTED_clean_linker_0, # of connection points: 2
#     Edge 17, Type (0, 0), BuildingBlock: XIVTED_clean_linker_0, # of connection points: 2
#     Edge 18, Type (0, 0), BuildingBlock: XIVTED_clean_linker_0, # of connection points: 2
#     Edge 19, Type (0, 0), BuildingBlock: XIVTED_clean_linker_0, # of connection points: 2
#     Edge 20, Type (0, 0), BuildingBlock: XIVTED_clean_linker_0, # of connection points: 2
#     Edge 21, Type (0, 0), BuildingBlock: XIVTED_clean_linker_0, # of connection points: 2
#     Edge 22, Type (0, 0), BuildingBlock: XIVTED_clean_linker_0, # of connection points: 2
#     Edge 23, Type (0, 0), BuildingBlock: XIVTED_clean_linker_0, # of connection points: 2
#     Edge 24, Type (0, 0), BuildingBlock: XIVTED_clean_linker_0, # of connection points: 2
#     Edge 25, Type (0, 0), BuildingBlock: XIVTED_clean_linker_0, # of connection points: 2
#     Edge 26, Type (0, 0), BuildingBlock: XIVTED_clean_linker_0, # of connection points: 2
#     Edge 27, Type (0, 0), BuildingBlock: XIVTED_clean_linker_0, # of connection points: 2
#     Edge 28, Type (0, 0), BuildingBlock: XIVTED_clean_linker_0, # of connection points: 2
#     Edge 29, Type (0, 0), BuildingBlock: XIVTED_clean_linker_0, # of connection points: 2
#     Edge 30, Type (0, 0), BuildingBlock: XIVTED_clean_linker_0, # of connection points: 2
#     Edge 31, Type (0, 0), BuildingBlock: XIVTED_clean_linker_0, # of connection points: 2
#     Edge 32, Type (0, 0), BuildingBlock: XIVTED_clean_linker_0, # of connection points: 2
#     Edge 33, Type (0, 0), BuildingBlock: XIVTED_clean_linker_0, # of connection points: 2
#     Edge 34, Type (0, 0), BuildingBlock: XIVTED_clean_linker_0, # of connection points: 2
#     Edge 35, Type (0, 0), BuildingBlock: XIVTED_clean_linker_0, # of connection points: 2
#     Edge 36, Type (0, 0), BuildingBlock: XIVTED_clean_linker_0, # of connection points: 2
#     Edge 37, Type (0, 0), BuildingBlock: XIVTED_clean_linker_0, # of connection points: 2
#     Edge 38, Type (0, 0), BuildingBlock: XIVTED_clean_linker_0, # of connection points: 2
#     Edge 39, Type (0, 0), BuildingBlock: XIVTED_clean_linker_0, # of connection points: 2
#     Edge 40, Type (0, 0), BuildingBlock: XIVTED_clean_linker_0, # of connection points: 2
#     Edge 41, Type (0, 0), BuildingBlock: XIVTED_clean_linker_0, # of connection points: 2
# Relax obj value: 0.256
# Max RMSD: 0.219
# Mean RMSD: 0.219
data_MOF--net-wkc--node1-XOMCOT_clean_sbu_0--edge1-XIVTED_clean_linker_0
_symmetry_space_group_name_H-M    P1
_symmetry_Int_Tables_number       1
_symmetry_cell_setting            triclinic
loop_
_symmetry_equiv_pos_as_xyz
'x, y, z'
_cell_length_a     39.030168
_cell_length_b     38.957444
_cell_length_c     45.718075
_cell_angle_alpha  89.964951
_cell_angle_beta   90.034423
_cell_angle_gamma 120.04791
loop_
_atom_site_label
_atom_site_type_symbol
_atom_site_fract_x
_atom_site_fract_y
_atom_site_fract_z
_atom_type_partial_charge
Co0 Co 0.25379 0.42364 0.99515 0.0
C1 C 0.2764 0.38755 0.9474 0.0
C2 C 0.21415 0.35382 0.95579 0.0
C3 C 0.22391 0.33339 0.93595 0.0
N4 N 0.24721 0.3878 0.96314 0.0
N5 N 0.26323 0.35447 0.93098 0.0
H6 H 0.30722 0.41003 0.94916 0.0
H7 H 0.18531 0.34306 0.96551 0.0
C8 C 0.17097 0.40854 0.99111 0.0
O9 O 0.18382 0.44072 0.97518 0.0
N10 N 0.26102 0.45923 0.02714 0.0
C11 C 0.28442 0.46609 0.05068 0.0
C12 C 0.28426 0.49535 0.06737 0.0
C13 C 0.24774 0.48511 0.02945 0.0
N14 N 0.26129 0.50736 0.05396 0.0
C15 C 0.28366 0.37699 0.02043 0.0
C16 C 0.23543 0.35344 0.06934 0.0
C17 C 0.2673 0.34638 0.06828 0.0
C18 C 0.29035 0.35672 0.04278 0.0
C19 C 0.22936 0.37329 0.04626 0.0
N20 N 0.25435 0.38615 0.02275 0.0
H21 H 0.30364 0.38742 0.00204 0.0
H22 H 0.20665 0.38123 0.04856 0.0
H23 H 0.30149 0.45172 0.05499 0.0
H24 H 0.22955 0.48846 0.01322 0.0
O25 O 0.30965 0.4547 0.98759 0.0
O26 O 0.26462 0.4658 0.96722 0.0
O27 O 0.1948 0.39729 0.99973 0.0
C28 C 0.30181 0.47602 0.96999 0.0
H29 H 0.20405 0.30394 0.92764 0.0
H30 H 0.30132 0.50814 0.08708 0.0
H31 H 0.21713 0.34644 0.08869 0.0
H32 H 0.31477 0.35114 0.04071 0.0
Co33 Co 0.84001 0.26619 0.1624 0.0
C34 C 0.90309 0.28211 0.11878 0.0
C35 C 0.84888 0.22924 0.10848 0.0
C36 C 0.87594 0.23592 0.08667 0.0
N37 N 0.86633 0.25739 0.1293 0.0
N38 N 0.9099 0.26935 0.09317 0.0
H39 H 0.92403 0.30993 0.12864 0.0
H40 H 0.81814 0.20609 0.10857 0.0
C41 C 0.81244 0.17982 0.1665 0.0
O42 O 0.84925 0.18957 0.16088 0.0
N43 N 0.81405 0.27642 0.19446 0.0
C44 C 0.83294 0.30226 0.21637 0.0
C45 C 0.80589 0.30724 0.23212 0.0
C46 C 0.7756 0.26625 0.19701 0.0
N47 N 0.76993 0.28493 0.21986 0.0
C48 C 0.91572 0.29532 0.19102 0.0
C49 C 0.88736 0.24199 0.23689 0.0
C50 C 0.92681 0.2727 0.23762 0.0
C51 C 0.9411 0.29926 0.21402 0.0
C52 C 0.86294 0.23956 0.21384 0.0
N53 N 0.87721 0.26533 0.19073 0.0
H54 H 0.92637 0.31849 0.17491 0.0
H55 H 0.83178 0.21844 0.21587 0.0
H56 H 0.8646 0.31817 0.21976 0.0
H57 H 0.75294 0.24796 0.18134 0.0
O58 O 0.86744 0.32208 0.1533 0.0
O59 O 0.80929 0.2777 0.13489 0.0
O60 O 0.80285 0.20684 0.16734 0.0
C61 C 0.83769 0.31451 0.13635 0.0
H62 H 0.87051 0.21864 0.06691 0.0
H63 H 0.81245 0.32714 0.25047 0.0
H64 H 0.87473 0.22088 0.25465 0.0
H65 H 0.97088 0.32448 0.21415 0.0
Co66 Co 0.58508 0.83528 0.32471 0.0
C67 C 0.63729 0.90418 0.28567 0.0
C68 C 0.62954 0.84882 0.27034 0.0
C69 C 0.65163 0.87764 0.25009 0.0
N70 N 0.62133 0.86548 0.29313 0.0
N71 N 0.65648 0.91251 0.25971 0.0
H72 H 0.63403 0.92573 0.29817 0.0
H73 H 0.61909 0.81746 0.26816 0.0
C74 C 0.64541 0.8097 0.32662 0.0
O75 O 0.67209 0.84702 0.32198 0.0
N76 N 0.54795 0.80471 0.35512 0.0
C77 C 0.53763 0.8193 0.37804 0.0
C78 C 0.50937 0.78813 0.3941 0.0
C79 C 0.52545 0.76494 0.35716 0.0
N80 N 0.50167 0.75401 0.38094 0.0
C81 C 0.62779 0.90771 0.35786 0.0
C82 C 0.65205 0.87583 0.40174 0.0
C83 C 0.65968 0.91474 0.40466 0.0
C84 C 0.64786 0.93095 0.38212 0.0
C85 C 0.63202 0.85374 0.37722 0.0
N86 N 0.6209 0.86986 0.35512 0.0
H87 H 0.615 0.91921 0.34264 0.0
H88 H 0.62291 0.82266 0.37731 0.0
H89 H 0.5493 0.85047 0.38248 0.0
H90 H 0.52617 0.74456 0.34144 0.0
O91 O 0.55535 0.86187 0.31773 0.0
O92 O 0.54471 0.80674 0.29547 0.0
O93 O 0.60864 0.79926 0.3273 0.0
C94 C 0.53476 0.83377 0.29909 0.0
H95 H 0.66192 0.87289 0.22934 0.0
H96 H 0.49449 0.79042 0.41335 0.0
H97 H 0.65985 0.86184 0.41895 0.0
H98 H 0.65158 0.96032 0.38416 0.0
Co99 Co 0.75983 0.58906 0.49444 0.0
C100 C 0.74447 0.63986 0.45296 0.0
C101 C 0.79052 0.62929 0.43846 0.0
C102 C 0.78424 0.6505 0.41719 0.0
N103 N 0.76638 0.62343 0.46134 0.0
N104 N 0.75519 0.65708 0.42628 0.0
H105 H 0.7203 0.63829 0.46534 0.0
H106 H 0.81057 0.61778 0.43696 0.0
C107 C 0.84615 0.64781 0.49425 0.0
O108 O 0.83615 0.67478 0.48887 0.0
N109 N 0.75282 0.55364 0.52631 0.0
C110 C 0.72862 0.5452 0.5495 0.0
C111 C 0.72996 0.51627 0.5659 0.0
C112 C 0.76813 0.52949 0.5286 0.0
N113 N 0.75466 0.5063 0.55268 0.0
C114 C 0.73233 0.63494 0.52566 0.0
C115 C 0.78825 0.65958 0.56969 0.0
C116 C 0.75682 0.66692 0.57251 0.0
C117 C 0.72913 0.65521 0.54977 0.0
C118 C 0.79036 0.63931 0.54531 0.0
N119 N 0.76294 0.62754 0.52329 0.0
H120 H 0.70806 0.62206 0.51045 0.0
H121 H 0.81223 0.63015 0.54567 0.0
H122 H 0.71035 0.55827 0.55372 0.0
H123 H 0.78795 0.52834 0.5126 0.0
O124 O 0.70347 0.56065 0.48806 0.0
O125 O 0.74567 0.5459 0.46708 0.0
O126 O 0.81922 0.61127 0.49646 0.0
C127 C 0.7092 0.5377 0.47058 0.0
H128 H 0.79882 0.65895 0.39614 0.0
H129 H 0.71254 0.50228 0.58526 0.0
H130 H 0.8099 0.66746 0.58699 0.0
H131 H 0.70346 0.65885 0.55162 0.0
Co132 Co 0.17721 0.75036 0.65977 0.0
C133 C 0.11466 0.73835 0.61669 0.0
C134 C 0.17096 0.78805 0.60559 0.0
C135 C 0.1444 0.78282 0.58375 0.0
N136 N 0.15205 0.76089 0.6268 0.0
N137 N 0.109 0.75138 0.59075 0.0
H138 H 0.09231 0.71185 0.62715 0.0
H139 H 0.20229 0.80945 0.60553 0.0
C140 C 0.20554 0.83663 0.66489 0.0
O141 O 0.16899 0.82717 0.65857 0.0
N142 N 0.20222 0.73853 0.69163 0.0
C143 C 0.1828 0.7117 0.71287 0.0
C144 C 0.20946 0.70583 0.72843 0.0
C145 C 0.24055 0.74844 0.69437 0.0
N146 N 0.24566 0.72862 0.71669 0.0
C147 C 0.10138 0.72149 0.6883 0.0
C148 C 0.13081 0.77268 0.73536 0.0
C149 C 0.09118 0.74266 0.7356 0.0
C150 C 0.07616 0.71733 0.71145 0.0
C151 C 0.15481 0.77599 0.7118 0.0
N152 N 0.1401 0.75111 0.6882 0.0
H153 H 0.0905 0.69848 0.67207 0.0
H154 H 0.18608 0.79656 0.71398 0.0
H155 H 0.15107 0.69577 0.71589 0.0
H156 H 0.26353 0.76736 0.67912 0.0
O157 O 0.1491 0.69474 0.64972 0.0
O158 O 0.20786 0.73893 0.63214 0.0
O159 O 0.21494 0.80945 0.66565 0.0
C160 C 0.17906 0.70227 0.63304 0.0
H161 H 0.15108 0.79979 0.56371 0.0
H162 H 0.20248 0.68505 0.74625 0.0
H163 H 0.14378 0.79207 0.75405 0.0
H164 H 0.0461 0.69257 0.71153 0.0
Co165 Co 0.4332 0.17123 0.8305 0.0
C166 C 0.38053 0.10676 0.79062 0.0
C167 C 0.38075 0.16082 0.78092 0.0
C168 C 0.35703 0.13241 0.76081 0.0
N169 N 0.39528 0.1446 0.7996 0.0
N170 N 0.35696 0.09839 0.76686 0.0
H171 H 0.38724 0.08599 0.80123 0.0
H172 H 0.3877 0.1914 0.78142 0.0
C173 C 0.40823 0.22093 0.86317 0.0
O174 O 0.41878 0.20948 0.88686 0.0
N175 N 0.47272 0.19862 0.86094 0.0
C176 C 0.48243 0.18384 0.88422 0.0
C177 C 0.51262 0.21461 0.89937 0.0
C178 C 0.49816 0.23817 0.86191 0.0
N179 N 0.52242 0.24872 0.88535 0.0
C180 C 0.40349 0.10271 0.86772 0.0
C181 C 0.33694 0.10386 0.88684 0.0
C182 C 0.3473 0.078 0.9001 0.0
C183 C 0.37985 0.07611 0.88934 0.0
C184 C 0.36095 0.12925 0.86476 0.0
N185 N 0.39598 0.13131 0.85767 0.0
H186 H 0.42898 0.10142 0.86008 0.0
H187 H 0.35148 0.14765 0.85388 0.0
H188 H 0.46952 0.15311 0.89007 0.0
H189 H 0.49835 0.25884 0.84599 0.0
O190 O 0.46196 0.14529 0.81867 0.0
O191 O 0.47279 0.20321 0.80157 0.0
O192 O 0.41044 0.20744 0.83807 0.0
C193 C 0.48249 0.17573 0.80188 0.0
H194 H 0.34202 0.13697 0.74262 0.0
H195 H 0.52697 0.21195 0.91881 0.0
H196 H 0.31085 0.10477 0.89375 0.0
H197 H 0.38814 0.05567 0.89856 0.0
Co198 Co 0.576 0.73403 0.82629 0.0
C199 C 0.6314 0.7294 0.86707 0.0
C200 C 0.63065 0.78365 0.87325 0.0
C201 C 0.65611 0.78196 0.89348 0.0
N202 N 0.61538 0.75067 0.85675 0.0
N203 N 0.65636 0.74768 0.88962 0.0
H204 H 0.62476 0.701 0.85815 0.0
H205 H 0.62329 0.80686 0.87112 0.0
C206 C 0.59845 0.80348 0.78769 0.0
O207 O 0.5882 0.77796 0.76609 0.0
N208 N 0.53511 0.71619 0.79633 0.0
C209 C 0.52146 0.68451 0.77836 0.0
C210 C 0.48902 0.68039 0.7635 0.0
C211 C 0.50997 0.73023 0.7925 0.0
N212 N 0.48182 0.70912 0.77241 0.0
C213 C 0.60643 0.69339 0.79177 0.0
C214 C 0.67245 0.7604 0.77092 0.0
C215 C 0.66251 0.72346 0.75903 0.0
C216 C 0.63011 0.68946 0.77073 0.0
C217 C 0.64815 0.7628 0.79225 0.0
N218 N 0.61335 0.72994 0.80013 0.0
H219 H 0.58203 0.6669 0.80091 0.0
H220 H 0.65716 0.79131 0.80195 0.0
H221 H 0.53245 0.66422 0.77673 0.0
H222 H 0.51143 0.7545 0.80503 0.0
O223 O 0.55009 0.68114 0.84228 0.0
O224 O 0.53629 0.72782 0.85479 0.0
O225 O 0.59633 0.79152 0.81417 0.0
C226 C 0.52874 0.6914 0.85772 0.0
H227 H 0.67234 0.80384 0.91019 0.0
H228 H 0.47152 0.65738 0.74781 0.0
H229 H 0.69854 0.7872 0.76363 0.0
H230 H 0.62218 0.66014 0.76295 0.0
Co231 Co 0.84159 0.58585 0.99613 0.0
C232 C 0.90658 0.63108 0.03873 0.0
C233 C 0.85766 0.63985 0.04694 0.0
C234 C 0.88608 0.65972 0.06814 0.0
N235 N 0.87119 0.62315 0.02764 0.0
N236 N 0.91683 0.65399 0.06293 0.0
H237 H 0.92379 0.61867 0.03034 0.0
H238 H 0.82853 0.63667 0.04644 0.0
C239 C 0.81769 0.64688 0.9884 0.0
O240 O 0.85542 0.67332 0.99131 0.0
N241 N 0.81214 0.54753 0.96596 0.0
C242 C 0.82784 0.53644 0.94422 0.0
C243 C 0.79759 0.50698 0.92825 0.0
C244 C 0.77256 0.52406 0.96341 0.0
N245 N 0.76291 0.49912 0.94036 0.0
C246 C 0.91672 0.6319 0.96674 0.0
C247 C 0.88641 0.6474 0.91708 0.0
C248 C 0.9267 0.65904 0.91775 0.0
C249 C 0.94189 0.65197 0.94344 0.0
C250 C 0.86247 0.62833 0.94122 0.0
N251 N 0.87761 0.62084 0.96587 0.0
H252 H 0.92855 0.62312 0.98447 0.0
H253 H 0.83106 0.61719 0.93921 0.0
H254 H 0.85918 0.54841 0.94061 0.0
H255 H 0.75143 0.52476 0.97836 0.0
O256 O 0.86782 0.55646 0.00524 0.0
O257 O 0.81179 0.546 0.02559 0.0
O258 O 0.80624 0.60989 0.99091 0.0
C259 C 0.83923 0.53633 0.02361 0.0
H260 H 0.88356 0.6757 0.08659 0.0
H261 H 0.80089 0.4913 0.90991 0.0
H262 H 0.87276 0.65086 0.89753 0.0
H263 H 0.97277 0.66041 0.94528 0.0
Co264 Co 0.2714 0.84399 0.1602 0.0
C265 C 0.28817 0.91383 0.19456 0.0
C266 C 0.23592 0.86275 0.21074 0.0
C267 C 0.24398 0.89502 0.22814 0.0
N268 N 0.26371 0.87487 0.18971 0.0
N269 N 0.27688 0.92713 0.21783 0.0
H270 H 0.31448 0.93178 0.18172 0.0
H271 H 0.21194 0.83262 0.21349 0.0
C272 C 0.19401 0.79208 0.13125 0.0
O273 O 0.21411 0.80031 0.10672 0.0
N274 N 0.28062 0.81315 0.13093 0.0
C275 C 0.30417 0.82605 0.10707 0.0
C276 C 0.30206 0.79409 0.09278 0.0
C277 C 0.26563 0.77342 0.13124 0.0
N278 N 0.27775 0.76105 0.10789 0.0
C279 C 0.30896 0.90923 0.11987 0.0
C280 C 0.24092 0.90766 0.10105 0.0
C281 C 0.27674 0.9326 0.08698 0.0
C282 C 0.31137 0.93465 0.09747 0.0
C283 C 0.24011 0.88351 0.12391 0.0
N284 N 0.27317 0.88159 0.13106 0.0
H285 H 0.33593 0.91087 0.12743 0.0
H286 H 0.21267 0.86628 0.13555 0.0
H287 H 0.32245 0.85631 0.10027 0.0
H288 H 0.24559 0.75395 0.14788 0.0
O289 O 0.3269 0.86966 0.17005 0.0
O290 O 0.28014 0.81431 0.19054 0.0
O291 O 0.2117 0.80832 0.1553 0.0
C292 C 0.31749 0.84093 0.18849 0.0
H293 H 0.22689 0.89479 0.24685 0.0
H294 H 0.31799 0.79518 0.07309 0.0
H295 H 0.21386 0.90678 0.09435 0.0
H296 H 0.33981 0.95448 0.08761 0.0
Co297 Co 0.43684 0.27585 0.33 0.0
C298 C 0.38048 0.27985 0.37002 0.0
C299 C 0.38022 0.225 0.37553 0.0
C300 C 0.35482 0.22667 0.3958 0.0
N301 N 0.3961 0.25837 0.35943 0.0
N302 N 0.35525 0.26136 0.39239 0.0
H303 H 0.3879 0.30872 0.3616 0.0
H304 H 0.38739 0.20167 0.37328 0.0
C305 C 0.41537 0.20761 0.29031 0.0
O306 O 0.42728 0.23386 0.26909 0.0
N307 N 0.47913 0.29456 0.30108 0.0
C308 C 0.49388 0.32721 0.28401 0.0
C309 C 0.52676 0.33173 0.26965 0.0
C310 C 0.50415 0.28034 0.29725 0.0
N311 N 0.53324 0.30231 0.27797 0.0
C312 C 0.40944 0.31921 0.29584 0.0
C313 C 0.34581 0.25448 0.27026 0.0
C314 C 0.35835 0.29238 0.25893 0.0
C315 C 0.38895 0.32515 0.27333 0.0
C316 C 0.36713 0.25006 0.29311 0.0
N317 N 0.4013 0.28193 0.30314 0.0
H318 H 0.43293 0.34482 0.3066 0.0
H319 H 0.35681 0.22077 0.30187 0.0
H320 H 0.48335 0.3479 0.28274 0.0
H321 H 0.50188 0.25526 0.30918 0.0
O322 O 0.46242 0.32797 0.34714 0.0
O323 O 0.47499 0.28033 0.35937 0.0
O324 O 0.41634 0.21881 0.31685 0.0
C325 C 0.48272 0.31674 0.36288 0.0
H326 H 0.33841 0.20463 0.41238 0.0
H327 H 0.54504 0.35548 0.25468 0.0
H328 H 0.32112 0.22836 0.26071 0.0
H329 H 0.39792 0.35515 0.26657 0.0
Co330 Co 0.17682 0.4284 0.4973 0.0
C331 C 0.10806 0.37874 0.53609 0.0
C332 C 0.16119 0.38171 0.55154 0.0
C333 C 0.13153 0.36091 0.57168 0.0
N334 N 0.14622 0.39205 0.52875 0.0
N335 N 0.09818 0.35933 0.56195 0.0
H336 H 0.08813 0.38447 0.52364 0.0
H337 H 0.19195 0.38999 0.55389 0.0
C338 C 0.20075 0.36674 0.49483 0.0
O339 O 0.16328 0.34054 0.49928 0.0
N340 N 0.20752 0.46552 0.46692 0.0
C341 C 0.19317 0.47618 0.44401 0.0
C342 C 0.22443 0.5043 0.42797 0.0
C343 C 0.24725 0.4877 0.46487 0.0
N344 N 0.25837 0.51159 0.44112 0.0
C345 C 0.10434 0.38809 0.46426 0.0
C346 C 0.13287 0.3601 0.42063 0.0
C347 C 0.09442 0.35388 0.41811 0.0
C348 C 0.08018 0.36802 0.44046 0.0
C349 C 0.1561 0.38051 0.44473 0.0
N350 N 0.14143 0.39309 0.46688 0.0
H351 H 0.09413 0.40232 0.47921 0.0
H352 H 0.18677 0.38831 0.44436 0.0
H353 H 0.16212 0.46486 0.43958 0.0
H354 H 0.26747 0.48667 0.48058 0.0
O355 O 0.15089 0.45853 0.5049 0.0
O356 O 0.20609 0.46892 0.52654 0.0
O357 O 0.21186 0.40377 0.49433 0.0
C358 C 0.17898 0.47887 0.52356 0.0
H359 H 0.13478 0.34951 0.59246 0.0
H360 H 0.22233 0.51939 0.40874 0.0
H361 H 0.14554 0.35054 0.40363 0.0
H362 H 0.05147 0.36583 0.43876 0.0
Co363 Co 0.7424 0.16831 0.65847 0.0
C364 C 0.72412 0.09818 0.69321 0.0
C365 C 0.77826 0.14818 0.70811 0.0
C366 C 0.76977 0.11578 0.72553 0.0
N367 N 0.74955 0.13683 0.68787 0.0
N368 N 0.73569 0.08434 0.71602 0.0
H369 H 0.69708 0.08085 0.68096 0.0
H370 H 0.80327 0.17787 0.71027 0.0
C371 C 0.81841 0.21617 0.62738 0.0
O372 O 0.79691 0.20646 0.60346 0.0
N373 N 0.73397 0.20003 0.6294 0.0
C374 C 0.71034 0.18815 0.60555 0.0
C375 C 0.71352 0.22085 0.59162 0.0
C376 C 0.75025 0.23992 0.62998 0.0
N377 N 0.73864 0.25334 0.60693 0.0
C378 C 0.70088 0.10306 0.61889 0.0
C379 C 0.76557 0.09769 0.60086 0.0
C380 C 0.72891 0.07375 0.58744 0.0
C381 C 0.69599 0.07559 0.59744 0.0
C382 C 0.76891 0.12432 0.62265 0.0
N383 N 0.73754 0.12927 0.62953 0.0
H384 H 0.67507 0.10389 0.62632 0.0
H385 H 0.79685 0.14081 0.63385 0.0
H386 H 0.69143 0.15817 0.59841 0.0
H387 H 0.7707 0.25874 0.64668 0.0
O388 O 0.68756 0.14489 0.66936 0.0
O389 O 0.73653 0.19966 0.68894 0.0
O390 O 0.802 0.20189 0.65217 0.0
C391 C 0.69877 0.17419 0.68752 0.0
H392 H 0.78748 0.11543 0.74363 0.0
H393 H 0.69774 0.22063 0.57208 0.0
H394 H 0.7913 0.09569 0.59469 0.0
H395 H 0.66689 0.05685 0.58814 0.0
H396 H 0.34817 0.22153 0.83162 0.0
H397 H 0.34029 0.37716 0.94185 0.0
H398 H 0.42814 0.27806 0.9038 0.0
H399 H 0.24121 0.3002 0.88687 0.0
H400 H 0.37847 0.35026 0.9202 0.0
H401 H 0.31428 0.2587 0.84413 0.0
C402 C 0.35902 0.24231 0.84968 0.0
C403 C 0.39079 0.24666 0.86685 0.0
C404 C 0.34847 0.33939 0.91265 0.0
C405 C 0.35251 0.28894 0.88117 0.0
C406 C 0.32659 0.35508 0.92487 0.0
C407 C 0.28718 0.34096 0.91631 0.0
C408 C 0.33107 0.30914 0.89167 0.0
C409 C 0.27125 0.31162 0.89445 0.0
C410 C 0.33955 0.26322 0.85694 0.0
C411 C 0.40352 0.27359 0.89017 0.0
N412 N 0.29316 0.29648 0.88298 0.0
N413 N 0.38434 0.29357 0.89666 0.0
H414 H 0.11952 0.43671 0.99785 0.0
H415 H 0.94227 0.23399 0.06162 0.0
H416 H 0.12861 0.33168 0.00971 0.0
H417 H 0.95853 0.34837 0.08496 0.0
H418 H 1.00427 0.26714 0.03359 0.0
H419 H 0.05379 0.40224 0.02079 0.0
C420 C 0.10746 0.40624 0.00485 0.0
C421 C 0.1296 0.38705 0.00191 0.0
C422 C 0.99415 0.28494 0.04478 0.0
C423 C 0.05453 0.34753 0.028 0.0
C424 C 0.95877 0.26606 0.06061 0.0
C425 C 0.94547 0.28849 0.07577 0.0
C426 C 0.016 0.32656 0.04359 0.0
C427 C 0.96806 0.33002 0.07392 0.0
C428 C 0.07012 0.38673 0.01812 0.0
C429 C 0.11264 0.34765 0.01165 0.0
N430 N 1.00214 0.34773 0.05805 0.0
N431 N 0.07613 0.32918 0.02418 0.0
H432 H 0.7422 0.15227 0.19656 0.0
H433 H 0.71636 0.93649 0.22056 0.0
H434 H 0.81993 0.1143 0.16044 0.0
H435 H 0.64376 0.9752 0.26445 0.0
H436 H 0.75082 0.99998 0.19529 0.0
H437 H 0.70176 0.0861 0.21816 0.0
C438 C 0.75045 0.1299 0.19281 0.0
C439 C 0.78463 0.13893 0.17673 0.0
C440 C 0.72731 0.99466 0.2104 0.0
C441 C 0.73874 0.06337 0.20158 0.0
C442 C 0.70742 0.9582 0.22477 0.0
C443 C 0.677 0.95026 0.24474 0.0
C444 C 0.71686 0.02372 0.21588 0.0
C445 C 0.66729 0.98006 0.24957 0.0
C446 C 0.72751 0.09223 0.20531 0.0
C447 C 0.79402 0.10884 0.17279 0.0
N448 N 0.68714 0.01543 0.23525 0.0
N449 N 0.77137 0.07261 0.18518 0.0
H450 H 0.79183 0.71498 0.38566 0.0
H451 H 0.60225 0.73868 0.35559 0.0
H452 H 0.68015 0.64505 0.42983 0.0
H453 H 0.71931 0.81878 0.32251 0.0
H454 H 0.62779 0.69906 0.37853 0.0
H455 H 0.76345 0.74864 0.35842 0.0
C456 C 0.76124 0.70649 0.38952 0.0
C457 C 0.73844 0.67712 0.41016 0.0
C458 C 0.64778 0.72513 0.36604 0.0
C459 C 0.70562 0.71587 0.37901 0.0
C460 C 0.63315 0.7476 0.35273 0.0
C461 C 0.65871 0.78222 0.33714 0.0
C462 C 0.68817 0.73722 0.36359 0.0
C463 C 0.69855 0.79247 0.33441 0.0
C464 C 0.74506 0.72589 0.37403 0.0
C465 C 0.69904 0.66783 0.41446 0.0
N466 N 0.71203 0.77021 0.34757 0.0
N467 N 0.68388 0.68711 0.39902 0.0
H468 H 0.0488 0.67457 0.59048 0.0
H469 H 0.91128 0.7213 0.4877 0.0
H470 H 0.08639 0.78919 0.55202 0.0
H471 H 0.87502 0.60483 0.5221 0.0
H472 H 0.97705 0.74538 0.50839 0.0
H473 H 0.98648 0.64757 0.56367 0.0
C474 C 0.044 0.69416 0.57647 0.0
C475 C 0.0729 0.73443 0.57379 0.0
C476 C 0.95488 0.71446 0.51121 0.0
C477 C 1.00147 0.70343 0.54266 0.0
C478 C 0.91726 0.70062 0.49933 0.0
C479 C 0.88744 0.66099 0.50327 0.0
C480 C 0.96286 0.68861 0.5274 0.0
C481 C 0.89707 0.6356 0.51847 0.0
C482 C 1.00843 0.67859 0.56096 0.0
C483 C 0.06517 0.758 0.55469 0.0
N484 N 0.93382 0.64993 0.53022 0.0
N485 N 0.03016 0.74224 0.54006 0.0
H486 H 0.27572 0.86353 0.69511 0.0
H487 H 0.29286 0.07304 0.73132 0.0
H488 H 0.19694 0.90175 0.66138 0.0
H489 H 0.37464 0.03878 0.76527 0.0
H490 H 0.25955 0.01126 0.70396 0.0
H491 H 0.31488 0.92842 0.71885 0.0
C492 C 0.26697 0.8857 0.69232 0.0
C493 C 0.23285 0.87705 0.67629 0.0
C494 C 0.28484 0.01721 0.71733 0.0
C495 C 0.27722 0.95112 0.70367 0.0
C496 C 0.30408 0.05273 0.73294 0.0
C497 C 0.33679 0.06146 0.75075 0.0
C498 C 0.29817 0.98981 0.71942 0.0
C499 C 0.34932 0.03331 0.75218 0.0
C500 C 0.2892 0.92265 0.70604 0.0
C501 C 0.22282 0.90688 0.67364 0.0
N502 N 0.32999 0.99879 0.73677 0.0
N503 N 0.2447 0.94233 0.68727 0.0
H504 H 0.74192 0.60157 0.96695 0.0
H505 H 0.72438 0.79099 0.92055 0.0
H506 H 0.83103 0.72264 0.98539 0.0
H507 H 0.63791 0.67087 0.89712 0.0
H508 H 0.76115 0.76584 0.94771 0.0
H509 H 0.70058 0.62563 0.94485 0.0
C510 C 0.75259 0.63314 0.96672 0.0
C511 C 0.79011 0.66011 0.97798 0.0
C512 C 0.73407 0.74494 0.93667 0.0
C513 C 0.7431 0.6879 0.95246 0.0
C514 C 0.71293 0.75932 0.92124 0.0
C515 C 0.67802 0.73313 0.90629 0.0
C516 C 0.72028 0.70397 0.93733 0.0
C517 C 0.66496 0.69232 0.90781 0.0
C518 C 0.72907 0.64689 0.95394 0.0
C519 C 0.80244 0.70072 0.97687 0.0
N520 N 0.68609 0.67905 0.92297 0.0
N521 N 0.77914 0.71333 0.96425 0.0
H522 H 0.13594 0.80204 0.15738 0.0
H523 H 0.9642 0.62146 0.06706 0.0
H524 H 0.15395 0.72488 0.09987 0.0
H525 H 0.95297 0.72049 0.09684 0.0
H526 H 0.02932 0.6511 0.08963 0.0
H527 H 0.06451 0.76445 0.14588 0.0
C528 C 0.12467 0.77661 0.14296 0.0
C529 C 0.15064 0.76642 0.12949 0.0
C530 C 0.01253 0.66628 0.0914 0.0
C531 C 0.06973 0.72367 0.11632 0.0
C532 C 0.97533 0.64947 0.07831 0.0
C533 C 0.95324 0.66891 0.07936 0.0
C534 C 0.02804 0.70284 0.10587 0.0
C535 C 0.96893 0.7045 0.09534 0.0
C536 C 0.08412 0.75547 0.13621 0.0
C537 C 0.13483 0.7337 0.11061 0.0
N538 N 1.00557 0.72055 0.10773 0.0
N539 N 0.09552 0.71359 0.10456 0.0
H540 H 0.36897 0.14103 0.32409 0.0
H541 H 0.32442 0.99473 0.18793 0.0
H542 H 0.4196 0.17726 0.23792 0.0
H543 H 0.27465 0.95169 0.27349 0.0
H544 H 0.35961 0.06175 0.20709 0.0
H545 H 0.33494 0.07151 0.30751 0.0
C546 C 0.37323 0.1344 0.30184 0.0
C547 C 0.39701 0.16509 0.28233 0.0
C548 C 0.3411 0.03776 0.22182 0.0
C549 C 0.35808 0.08596 0.26322 0.0
C550 C 0.32104 0.99925 0.21085 0.0
C551 C 0.29667 0.96721 0.22911 0.0
C552 C 0.3369 0.04479 0.25138 0.0
C553 C 0.29288 0.97541 0.25854 0.0
C554 C 0.35368 0.09477 0.29236 0.0
C555 C 0.40134 0.15476 0.25372 0.0
N556 N 0.31283 0.0134 0.26879 0.0
N557 N 0.38204 0.1163 0.24508 0.0
H558 H 0.27549 0.41069 0.47149 0.0
H559 H 0.28765 0.21887 0.42396 0.0
H560 H 0.18702 0.29066 0.49356 0.0
H561 H 0.37561 0.33857 0.40071 0.0
H562 H 0.25274 0.24502 0.45233 0.0
H563 H 0.31517 0.38537 0.44864 0.0
C564 C 0.26464 0.37908 0.47192 0.0
C565 C 0.22772 0.35278 0.48439 0.0
C566 C 0.27974 0.26559 0.44107 0.0
C567 C 0.27284 0.32352 0.45792 0.0
C568 C 0.29981 0.25064 0.42492 0.0
C569 C 0.33458 0.27642 0.40966 0.0
C570 C 0.29448 0.30671 0.44209 0.0
C571 C 0.34859 0.31739 0.41158 0.0
C572 C 0.28723 0.36461 0.45871 0.0
C573 C 0.21516 0.31209 0.48411 0.0
N574 N 0.32849 0.3312 0.4274 0.0
N575 N 0.23751 0.29874 0.47095 0.0
H576 H 0.85471 0.28027 0.59259 0.0
H577 H 0.06657 0.29819 0.60101 0.0
H578 H 0.87955 0.21181 0.65424 0.0
H579 H 0.04299 0.38199 0.55664 0.0
H580 H 0.99998 0.26712 0.62249 0.0
H581 H 0.92483 0.31898 0.58089 0.0
C582 C 0.87521 0.27378 0.60395 0.0
C583 C 0.86146 0.24285 0.62434 0.0
C584 C 0.00962 0.29252 0.60823 0.0
C585 C 0.94204 0.28655 0.61057 0.0
C586 C 0.04763 0.31031 0.59599 0.0
C587 C 0.06028 0.34237 0.57651 0.0
C588 C 0.98408 0.30684 0.60086 0.0
C589 C 0.03435 0.35671 0.57077 0.0
C590 C 0.9153 0.29588 0.59726 0.0
C591 C 0.88917 0.23566 0.63851 0.0
N592 N 0.99756 0.3387 0.58267 0.0
N593 N 0.92824 0.257 0.63101 0.0
H594 H 0.64529 0.86974 0.8217 0.0
H595 H 0.68471 0.01715 0.68696 0.0
H596 H 0.59203 0.83431 0.73622 0.0
H597 H 0.74022 0.05933 0.77111 0.0
H598 H 0.64937 0.95022 0.70623 0.0
H599 H 0.6786 0.9395 0.80549 0.0
C600 C 0.64025 0.87661 0.79971 0.0
C601 C 0.61603 0.8461 0.78023 0.0
C602 C 0.66917 0.974 0.72063 0.0
C603 C 0.65409 0.92543 0.76155 0.0
C604 C 0.68932 0.0125 0.70961 0.0
C605 C 0.71541 0.04428 0.72741 0.0
C606 C 0.675 0.96669 0.7498 0.0
C607 C 0.72066 0.03582 0.75648 0.0
C608 C 0.65941 0.91635 0.79042 0.0
C609 C 0.61071 0.85669 0.75195 0.0
N610 N 0.70062 0.99784 0.76679 0.0
N611 N 0.62961 0.89523 0.74351 0.0
H612 H 0.26918 0.73071 0.05356 0.0
H613 H 0.26218 0.53342 0.10908 0.0
H614 H 0.26384 0.70082 0.14487 0.0
H615 H 0.24917 0.55638 0.01864 0.0
H616 H 0.25991 0.59285 0.12304 0.0
H617 H 0.25878 0.66543 0.04061 0.0
C618 C 0.26569 0.71025 0.07089 0.0
C619 C 0.26784 0.72128 0.10032 0.0
C620 C 0.25715 0.58467 0.10017 0.0
C621 C 0.25595 0.64639 0.08571 0.0
C622 C 0.25867 0.55088 0.09218 0.0
C623 C 0.25621 0.54009 0.06262 0.0
C624 C 0.25353 0.60811 0.07842 0.0
C625 C 0.25097 0.5634 0.04167 0.0
C626 C 0.25954 0.6729 0.0635 0.0
C627 C 0.26233 0.6934 0.12193 0.0
N628 N 0.25023 0.59652 0.04995 0.0
N629 N 0.25711 0.65734 0.1142 0.0
H630 H 0.76675 0.34914 0.23773 0.0
H631 H 0.53496 0.23367 0.2719 0.0
H632 H 0.69335 0.2247 0.21845 0.0
H633 H 0.60722 0.3608 0.26504 0.0
H634 H 0.59223 0.22758 0.25659 0.0
H635 H 0.70824 0.35195 0.25201 0.0
C636 C 0.73819 0.32228 0.23666 0.0
C637 C 0.73489 0.28654 0.22715 0.0
C638 C 0.59535 0.25672 0.25836 0.0
C639 C 0.66734 0.28952 0.2434 0.0
C640 C 0.56286 0.26021 0.26728 0.0
C641 C 0.56635 0.29779 0.26961 0.0
C642 C 0.63156 0.29112 0.25221 0.0
C643 C 0.603 0.33125 0.26315 0.0
C644 C 0.7047 0.32394 0.24464 0.0
C645 C 0.69701 0.25281 0.22562 0.0
N646 N 0.6341 0.32711 0.25489 0.0
N647 N 0.66458 0.25501 0.23389 0.0
H648 H 0.45694 0.69161 0.34527 0.0
H649 H 0.32083 0.55589 0.47681 0.0
H650 H 0.47731 0.7269 0.43587 0.0
H651 H 0.28552 0.53587 0.3862 0.0
H652 H 0.38505 0.61173 0.46211 0.0
H653 H 0.40082 0.62753 0.35998 0.0
C654 C 0.44999 0.68562 0.36828 0.0
C655 C 0.47151 0.71472 0.38937 0.0
C656 C 0.36336 0.59486 0.44543 0.0
C657 C 0.40735 0.64173 0.40635 0.0
C658 C 0.32685 0.56285 0.4538 0.0
C659 C 0.29771 0.54152 0.4327 0.0
C660 C 0.37086 0.60536 0.41573 0.0
C661 C 0.30695 0.55201 0.40318 0.0
C662 C 0.41782 0.64919 0.37665 0.0
C663 C 0.46103 0.70551 0.41889 0.0
N664 N 0.34262 0.58329 0.39557 0.0
N665 N 0.42959 0.66992 0.42651 0.0
H666 H 0.77084 0.46074 0.51673 0.0
H667 H 0.75427 0.31292 0.64501 0.0
H668 H 0.75256 0.4781 0.60732 0.0
H669 H 0.74723 0.28535 0.55313 0.0
H670 H 0.76576 0.37914 0.63238 0.0
H671 H 0.77464 0.40219 0.5306 0.0
C672 C 0.76823 0.45262 0.5396 0.0
C673 C 0.76099 0.47416 0.56087 0.0
C674 C 0.762 0.35867 0.615 0.0
C675 C 0.76488 0.40684 0.57689 0.0
C676 C 0.7557 0.32103 0.62221 0.0
C677 C 0.74932 0.29355 0.60007 0.0
C678 C 0.76231 0.36889 0.58546 0.0
C679 C 0.75125 0.30543 0.57085 0.0
C680 C 0.77011 0.41899 0.54749 0.0
C681 C 0.75746 0.46193 0.59016 0.0
N682 N 0.7574 0.34211 0.5644 0.0
N683 N 0.75922 0.42897 0.5973 0.0
H684 H 0.2485 0.66364 0.73311 0.0
H685 H 0.47971 0.77769 0.76841 0.0
H686 H 0.32219 0.78873 0.71616 0.0
H687 H 0.40856 0.65105 0.75721 0.0
H688 H 0.4225 0.78417 0.75372 0.0
H689 H 0.30697 0.66013 0.74653 0.0
C690 C 0.2771 0.69048 0.73239 0.0
C691 C 0.28054 0.72662 0.72376 0.0
C692 C 0.41962 0.75505 0.75437 0.0
C693 C 0.34794 0.72282 0.73899 0.0
C694 C 0.45207 0.75132 0.76293 0.0
C695 C 0.44885 0.71378 0.76393 0.0
C696 C 0.38368 0.7209 0.74726 0.0
C697 C 0.41253 0.68057 0.75638 0.0
C698 C 0.31055 0.68842 0.73985 0.0
C699 C 0.31845 0.76033 0.72264 0.0
N700 N 0.3814 0.68491 0.74853 0.0
N701 N 0.35081 0.75772 0.7304 0.0
H702 H 0.73754 0.473 0.8855 0.0
H703 H 0.54675 0.27648 0.94019 0.0
H704 H 0.70072 0.45291 0.97573 0.0
H705 H 0.56843 0.31027 0.84933 0.0
H706 H 0.60235 0.34128 0.95374 0.0
H707 H 0.67514 0.41433 0.87166 0.0
C708 C 0.71609 0.45633 0.90236 0.0
C709 C 0.72437 0.4676 0.93181 0.0
C710 C 0.59477 0.3347 0.93084 0.0
C711 C 0.65301 0.40023 0.91623 0.0
C712 C 0.56321 0.29762 0.9231 0.0
C713 C 0.55322 0.28787 0.89358 0.0
C714 C 0.61691 0.36213 0.90889 0.0
C715 C 0.57507 0.31663 0.87234 0.0
C716 C 0.68044 0.42294 0.89446 0.0
C717 C 0.69541 0.44532 0.95278 0.0
N718 N 0.60618 0.3523 0.88038 0.0
N719 N 0.66121 0.41237 0.94463 0.0
H720 H 0.28095 0.25446 0.23913 0.0
H721 H 0.34259 0.37323 0.08761 0.0
H722 H 0.40006 0.34205 0.21452 0.0
H723 H 0.22073 0.29159 0.11024 0.0
H724 H 0.36341 0.35728 0.13301 0.0
H725 H 0.25745 0.26381 0.19151 0.0
C726 C 0.30209 0.27564 0.22378 0.0
C727 C 0.34246 0.2979 0.23096 0.0
C728 C 0.33207 0.34256 0.12808 0.0
C729 C 0.31595 0.30848 0.17666 0.0
C730 C 0.32012 0.35132 0.10186 0.0
C731 C 0.27977 0.33355 0.09487 0.0
C732 C 0.30359 0.31598 0.14782 0.0
C733 C 0.25213 0.30625 0.11483 0.0
C734 C 0.28868 0.28098 0.19667 0.0
C735 C 0.36857 0.32491 0.21027 0.0
N736 N 0.26455 0.29838 0.1405 0.0
N737 N 0.35488 0.32939 0.18417 0.0
H738 H 0.12021 0.36496 0.36112 0.0
H739 H 0.9029 0.26193 0.29492 0.0
H740 H 0.01431 0.30333 0.41351 0.0
H741 H 1.00691 0.29981 0.24133 0.0
H742 H 0.94351 0.27607 0.3384 0.0
H743 H 0.07985 0.34043 0.31702 0.0
C744 C 0.08855 0.34573 0.36343 0.0
C745 C 0.07065 0.33632 0.39118 0.0
C746 C 0.95746 0.28094 0.31715 0.0
C747 C 0.02418 0.30888 0.34061 0.0
C748 C 0.93419 0.27257 0.29218 0.0
C749 C 0.95137 0.2794 0.26423 0.0
C750 C 0.99844 0.29683 0.31436 0.0
C751 C 0.99239 0.29446 0.26236 0.0
C752 C 0.0655 0.33195 0.33817 0.0
C753 C 0.02937 0.31191 0.39263 0.0
N754 N 0.01457 0.3029 0.2871 0.0
N755 N 1.00754 0.29931 0.36773 0.0
H756 H 0.63763 0.88586 0.45998 0.0
H757 H 0.77555 0.09362 0.53884 0.0
H758 H 0.71634 0.99281 0.41281 0.0
H759 H 0.67288 0.99605 0.57889 0.0
H760 H 0.76355 0.05337 0.49473 0.0
H761 H 0.65974 0.9225 0.50583 0.0
C762 C 0.66007 0.91696 0.45931 0.0
C763 C 0.67525 0.93636 0.43255 0.0
C764 C 0.74391 0.0407 0.51329 0.0
C765 C 0.70027 0.97857 0.48498 0.0
C766 C 0.7509 0.06348 0.53849 0.0
C767 C 0.72497 0.04812 0.56236 0.0
C768 C 0.71101 1.00223 0.51217 0.0
C769 C 0.69326 0.00909 0.56077 0.0
C770 C 0.67243 0.9379 0.48548 0.0
C771 C 0.7037 0.97686 0.43297 0.0
N772 N 0.68708 0.98751 0.53604 0.0
N773 N 0.71527 0.99671 0.45882 0.0
H774 H 0.73362 0.72211 0.58123 0.0
H775 H 0.68901 0.67101 0.75051 0.0
H776 H 0.76323 0.64398 0.62768 0.0
H777 H 0.68459 0.76845 0.70943 0.0
H778 H 0.71773 0.66173 0.70577 0.0
H779 H 0.71658 0.74066 0.62795 0.0
C780 C 0.73686 0.70917 0.60127 0.0
C781 C 0.74994 0.68156 0.60058 0.0
C782 C 0.71091 0.68544 0.70663 0.0
C783 C 0.7303 0.70231 0.65396 0.0
C784 C 0.69441 0.69064 0.73212 0.0
C785 C 0.68427 0.7204 0.73358 0.0
C786 C 0.71676 0.70981 0.68227 0.0
C787 C 0.69223 0.74529 0.70925 0.0
C788 C 0.72731 0.71984 0.62792 0.0
C789 C 0.75379 0.66578 0.6272 0.0
N790 N 0.70758 0.73915 0.68445 0.0
N791 N 0.74367 0.6761 0.65274 0.0
H792 H 0.11283 0.73331 0.78999 0.0
H793 H 0.92296 0.70614 0.87392 0.0
H794 H 0.01639 0.73174 0.7427 0.0
H795 H 0.98749 0.64761 0.89998 0.0
H796 H 0.96272 0.72842 0.82911 0.0
H797 H 0.07349 0.71593 0.83474 0.0
C798 C 0.08348 0.72976 0.78916 0.0
C799 C 0.06777 0.73408 0.76275 0.0
C800 C 0.96806 0.71084 0.84486 0.0
C801 C 0.02271 0.71418 0.81376 0.0
C802 C 0.94536 0.69795 0.8704 0.0
C803 C 0.95182 0.67502 0.8911 0.0
C804 C 0.99788 0.70138 0.84029 0.0
C805 C 0.98187 0.66604 0.88533 0.0
C806 C 0.06101 0.7196 0.81461 0.0
C807 C 0.02939 0.72856 0.76272 0.0
N808 N 1.00382 0.6794 0.86061 0.0
N809 N 1.00807 0.71902 0.78797 0.0
H810 H 0.23621 0.90186 0.03652 0.0
H811 H 0.33652 0.10765 0.95071 0.0
H812 H 0.32081 0.01229 0.07684 0.0
H813 H 0.31287 0.9982 0.90985 0.0
H814 H 0.31172 0.07219 0.99723 0.0
H815 H 0.24552 0.9369 0.98989 0.0
C816 C 0.25606 0.93364 0.03562 0.0
C817 C 0.27791 0.9544 0.06031 0.0
C818 C 0.31138 0.05592 0.97792 0.0
C819 C 0.28835 0.9943 0.00759 0.0
C820 C 0.3252 0.07596 0.95145 0.0
C821 C 0.3267 0.05565 0.92662 0.0
C822 C 0.29836 0.01526 0.97931 0.0
C823 C 0.31225 0.01477 0.92865 0.0
C824 C 0.2615 0.95345 0.00911 0.0
C825 C 0.30362 0.99539 0.05813 0.0
N826 N 0.29866 0.99581 0.95464 0.0
N827 N 0.30818 0.01411 0.03213 0.0
H828 H 0.30045 0.53669 0.93955 0.0
H829 H 0.52018 0.62242 0.87879 0.0
H830 H 0.37716 0.49118 0.96352 0.0
H831 H 0.46316 0.69288 0.87833 0.0
H832 H 0.46468 0.57123 0.90639 0.0
H833 H 0.35628 0.59153 0.91336 0.0
C834 C 0.32891 0.53819 0.93926 0.0
C835 C 0.33417 0.50934 0.95371 0.0
C836 C 0.46428 0.59795 0.90046 0.0
C837 C 0.39772 0.57148 0.92387 0.0
C838 C 0.49599 0.6272 0.88466 0.0
C839 C 0.49633 0.66199 0.87635 0.0
C840 C 0.43216 0.60307 0.90772 0.0
C841 C 0.46416 0.66658 0.88455 0.0
C842 C 0.36074 0.56952 0.92448 0.0
C843 C 0.3717 0.51276 0.95278 0.0
N844 N 0.43311 0.63725 0.89961 0.0
N845 N 0.40183 0.54302 0.93803 0.0
H846 H 0.90121 0.52538 0.03586 0.0
H847 H 0.77357 0.31343 0.11066 0.0
H848 H 0.7759 0.47405 0.05106 0.0
H849 H 0.89914 0.38839 0.12449 0.0
H850 H 0.77291 0.36786 0.0839 0.0
H851 H 0.90021 0.47126 0.06353 0.0
C852 C 0.87344 0.50266 0.04505 0.0
C853 C 0.83857 0.50417 0.04119 0.0
C854 C 0.80053 0.37231 0.09288 0.0
C855 C 0.83715 0.44187 0.07268 0.0
C856 C 0.80098 0.34127 0.10798 0.0
C857 C 0.83648 0.34647 0.11978 0.0
C858 C 0.83595 0.40846 0.08917 0.0
C859 C 0.8711 0.38316 0.11584 0.0
C860 C 0.87293 0.47186 0.06092 0.0
C861 C 0.80346 0.47405 0.05368 0.0
N862 N 0.87001 0.41263 0.10072 0.0
N863 N 0.80355 0.44387 0.06871 0.0
H864 H 0.48336 0.8561 0.31939 0.0
H865 H 0.39075 0.86046 0.1693 0.0
H866 H 0.51 0.8084 0.24327 0.0
H867 H 0.31418 0.81414 0.24444 0.0
H868 H 0.44246 0.8555 0.19637 0.0
H869 H 0.42792 0.85469 0.29273 0.0
C870 C 0.47751 0.84541 0.29705 0.0
C871 C 0.50111 0.83235 0.2834 0.0
C872 C 0.41428 0.84637 0.20683 0.0
C873 C 0.43875 0.83151 0.25288 0.0
C874 C 0.38496 0.8494 0.19156 0.0
C875 C 0.34833 0.83773 0.20479 0.0
C876 C 0.40731 0.8328 0.2358 0.0
C877 C 0.34207 0.8233 0.23354 0.0
C878 C 0.44587 0.8444 0.28201 0.0
C879 C 0.49229 0.81855 0.25452 0.0
N880 N 0.37159 0.82179 0.24835 0.0
N881 N 0.46212 0.81907 0.23998 0.0
H882 H 0.54842 0.31523 0.38301 0.0
H883 H 0.63319 0.52225 0.46719 0.0
H884 H 0.48965 0.38397 0.38605 0.0
H885 H 0.70817 0.47561 0.44108 0.0
H886 H 0.57717 0.46605 0.44362 0.0
H887 H 0.60406 0.36792 0.4107 0.0
C888 C 0.54699 0.34109 0.38987 0.0
C889 C 0.5145 0.34537 0.38224 0.0
C890 C 0.60585 0.46804 0.443 0.0
C891 C 0.57765 0.4054 0.41365 0.0
C892 C 0.63788 0.50013 0.45649 0.0
C893 C 0.67547 0.50374 0.45594 0.0
C894 C 0.61118 0.43897 0.42904 0.0
C895 C 0.67972 0.47409 0.44179 0.0
C896 C 0.57881 0.37122 0.40542 0.0
C897 C 0.51423 0.37959 0.39137 0.0
N898 N 0.64789 0.44283 0.42891 0.0
N899 N 0.54526 0.40821 0.40657 0.0
H900 H 0.11723 0.49115 0.53317 0.0
H901 H 0.24362 0.70277 0.60877 0.0
H902 H 0.24155 0.54094 0.55189 0.0
H903 H 0.11741 0.62892 0.61995 0.0
H904 H 0.2446 0.64814 0.58261 0.0
H905 H 0.11782 0.54579 0.55975 0.0
C906 C 0.1447 0.51364 0.54289 0.0
C907 C 0.17941 0.51151 0.54036 0.0
C908 C 0.21676 0.64399 0.59085 0.0
C909 C 0.18035 0.57445 0.5706 0.0
C910 C 0.21613 0.67516 0.60559 0.0
C911 C 0.18036 0.67032 0.61651 0.0
C912 C 0.18127 0.60807 0.58658 0.0
C913 C 0.14565 0.63388 0.61196 0.0
C914 C 0.14497 0.54475 0.55814 0.0
C915 C 0.21411 0.5414 0.55348 0.0
N916 N 0.14694 0.60428 0.59721 0.0
N917 N 0.21381 0.57188 0.56789 0.0
H918 H 0.62755 0.16068 0.66824 0.0
H919 H 0.53419 0.15267 0.81945 0.0
H920 H 0.70321 0.19883 0.7442 0.0
H921 H 0.50837 0.20773 0.74749 0.0
H922 H 0.5905 0.15773 0.79188 0.0
H923 H 0.57695 0.16633 0.69625 0.0
C924 C 0.63341 0.17027 0.69084 0.0
C925 C 0.66933 0.1792 0.70411 0.0
C926 C 0.5726 0.1689 0.78228 0.0
C927 C 0.61166 0.18489 0.73613 0.0
C928 C 0.54043 0.16577 0.7978 0.0
C929 C 0.51671 0.17967 0.78554 0.0
C930 C 0.58021 0.18484 0.75399 0.0
C931 C 0.5261 0.19674 0.7576 0.0
C932 C 0.60476 0.17372 0.70665 0.0
C933 C 0.67581 0.19179 0.73331 0.0
N934 N 0.55683 0.19822 0.74244 0.0
N935 N 0.64683 0.19357 0.74862 0.0
loop_
_geom_bond_atom_site_label_1
_geom_bond_atom_site_label_2
_geom_bond_distance
_geom_bond_site_symmetry_2
_ccdc_geom_bond_type
Co0 N4 2.148 . S
Co0 N10 2.128 1_556 S
Co0 N20 2.194 1_556 S
Co0 O25 2.351 . S
Co0 O26 2.155 . S
Co0 O27 2.096 . S
C1 N4 1.301 . S
C1 N5 1.328 . S
C1 H6 0.930 . S
C2 C3 1.333 . S
C2 N4 1.317 . S
C2 H7 0.930 . S
C3 C2 1.333 . S
C3 N5 1.350 . S
C3 H29 0.931 . S
N4 Co0 2.148 . S
N4 C1 1.301 . S
N4 C2 1.317 . S
N5 C1 1.328 . S
N5 C3 1.350 . S
H6 C1 0.930 . S
H7 C2 0.930 . S
C8 O9 1.224 . S
C8 O27 1.247 1_554 S
O9 C8 1.224 . S
N10 Co0 2.128 1_554 S
N10 C11 1.355 . S
N10 C13 1.311 . S
C11 N10 1.355 . S
C11 C12 1.363 . S
C11 H23 0.929 . S
C12 C11 1.363 . S
C12 N14 1.375 . S
C12 H30 0.931 . S
C13 N10 1.311 . S
C13 N14 1.347 . S
C13 H24 0.929 . S
N14 C12 1.375 . S
N14 C13 1.347 . S
C15 C18 1.365 . S
C15 N20 1.328 . S
C15 H21 0.929 . S
C16 C17 1.362 . S
C16 C19 1.378 . S
C16 H31 0.929 . S
C17 C16 1.362 . S
C17 C18 1.366 . S
C18 C15 1.365 . S
C18 C17 1.366 . S
C18 H32 0.930 . S
C19 C16 1.378 . S
C19 N20 1.315 . S
C19 H22 0.930 . S
N20 Co0 2.194 1_554 S
N20 C15 1.328 . S
N20 C19 1.315 . S
H21 C15 0.929 . S
H22 C19 0.930 . S
H23 C11 0.929 . S
H24 C13 0.929 . S
O25 Co0 2.351 . S
O25 C28 1.244 . S
O26 Co0 2.155 . S
O26 C28 1.240 . S
O27 Co0 2.096 . S
O27 C8 1.247 1_556 S
C28 O25 1.244 . S
C28 O26 1.240 . S
H29 C3 0.931 . S
H30 C12 0.931 . S
H31 C16 0.929 . S
H32 C18 0.930 . S
Co33 N37 2.148 . S
Co33 N43 2.128 . S
Co33 N53 2.194 . S
Co33 O58 2.351 . S
Co33 O59 2.155 . S
Co33 O60 2.096 . S
C34 N37 1.301 . S
C34 N38 1.328 . S
C34 H39 0.930 . S
C35 C36 1.333 . S
C35 N37 1.317 . S
C35 H40 0.930 . S
C36 C35 1.333 . S
C36 N38 1.350 . S
C36 H62 0.931 . S
N37 Co33 2.148 . S
N37 C34 1.301 . S
N37 C35 1.317 . S
N38 C34 1.328 . S
N38 C36 1.350 . S
H39 C34 0.930 . S
H40 C35 0.930 . S
C41 O42 1.224 . S
C41 O60 1.247 . S
O42 C41 1.224 . S
N43 Co33 2.128 . S
N43 C44 1.355 . S
N43 C46 1.311 . S
C44 N43 1.355 . S
C44 C45 1.363 . S
C44 H56 0.929 . S
C45 C44 1.363 . S
C45 N47 1.375 . S
C45 H63 0.931 . S
C46 N43 1.311 . S
C46 N47 1.347 . S
C46 H57 0.929 . S
N47 C45 1.375 . S
N47 C46 1.347 . S
C48 C51 1.365 . S
C48 N53 1.328 . S
C48 H54 0.929 . S
C49 C50 1.362 . S
C49 C52 1.378 . S
C49 H64 0.929 . S
C50 C49 1.362 . S
C50 C51 1.366 . S
C51 C48 1.365 . S
C51 C50 1.366 . S
C51 H65 0.930 . S
C52 C49 1.378 . S
C52 N53 1.315 . S
C52 H55 0.930 . S
N53 Co33 2.194 . S
N53 C48 1.328 . S
N53 C52 1.315 . S
H54 C48 0.929 . S
H55 C52 0.930 . S
H56 C44 0.929 . S
H57 C46 0.929 . S
O58 Co33 2.351 . S
O58 C61 1.244 . S
O59 Co33 2.155 . S
O59 C61 1.240 . S
O60 Co33 2.096 . S
O60 C41 1.247 . S
C61 O58 1.244 . S
C61 O59 1.240 . S
H62 C36 0.931 . S
H63 C45 0.931 . S
H64 C49 0.929 . S
H65 C51 0.930 . S
Co66 N70 2.148 . S
Co66 N76 2.128 . S
Co66 N86 2.194 . S
Co66 O91 2.351 . S
Co66 O92 2.155 . S
Co66 O93 2.096 . S
C67 N70 1.301 . S
C67 N71 1.328 . S
C67 H72 0.930 . S
C68 C69 1.333 . S
C68 N70 1.317 . S
C68 H73 0.930 . S
C69 C68 1.333 . S
C69 N71 1.350 . S
C69 H95 0.931 . S
N70 Co66 2.148 . S
N70 C67 1.301 . S
N70 C68 1.317 . S
N71 C67 1.328 . S
N71 C69 1.350 . S
H72 C67 0.930 . S
H73 C68 0.930 . S
C74 O75 1.224 . S
C74 O93 1.247 . S
O75 C74 1.224 . S
N76 Co66 2.128 . S
N76 C77 1.355 . S
N76 C79 1.311 . S
C77 N76 1.355 . S
C77 C78 1.363 . S
C77 H89 0.929 . S
C78 C77 1.363 . S
C78 N80 1.375 . S
C78 H96 0.931 . S
C79 N76 1.311 . S
C79 N80 1.347 . S
C79 H90 0.929 . S
N80 C78 1.375 . S
N80 C79 1.347 . S
C81 C84 1.365 . S
C81 N86 1.328 . S
C81 H87 0.929 . S
C82 C83 1.362 . S
C82 C85 1.378 . S
C82 H97 0.929 . S
C83 C82 1.362 . S
C83 C84 1.366 . S
C84 C81 1.365 . S
C84 C83 1.366 . S
C84 H98 0.930 . S
C85 C82 1.378 . S
C85 N86 1.315 . S
C85 H88 0.930 . S
N86 Co66 2.194 . S
N86 C81 1.328 . S
N86 C85 1.315 . S
H87 C81 0.929 . S
H88 C85 0.930 . S
H89 C77 0.929 . S
H90 C79 0.929 . S
O91 Co66 2.351 . S
O91 C94 1.244 . S
O92 Co66 2.155 . S
O92 C94 1.240 . S
O93 Co66 2.096 . S
O93 C74 1.247 . S
C94 O91 1.244 . S
C94 O92 1.240 . S
H95 C69 0.931 . S
H96 C78 0.931 . S
H97 C82 0.929 . S
H98 C84 0.930 . S
Co99 N103 2.148 . S
Co99 N109 2.128 . S
Co99 N119 2.194 . S
Co99 O124 2.351 . S
Co99 O125 2.155 . S
Co99 O126 2.096 . S
C100 N103 1.301 . S
C100 N104 1.328 . S
C100 H105 0.930 . S
C101 C102 1.333 . S
C101 N103 1.317 . S
C101 H106 0.930 . S
C102 C101 1.333 . S
C102 N104 1.350 . S
C102 H128 0.931 . S
N103 Co99 2.148 . S
N103 C100 1.301 . S
N103 C101 1.317 . S
N104 C100 1.328 . S
N104 C102 1.350 . S
H105 C100 0.930 . S
H106 C101 0.930 . S
C107 O108 1.224 . S
C107 O126 1.247 . S
O108 C107 1.224 . S
N109 Co99 2.128 . S
N109 C110 1.355 . S
N109 C112 1.311 . S
C110 N109 1.355 . S
C110 C111 1.363 . S
C110 H122 0.929 . S
C111 C110 1.363 . S
C111 N113 1.375 . S
C111 H129 0.931 . S
C112 N109 1.311 . S
C112 N113 1.347 . S
C112 H123 0.929 . S
N113 C111 1.375 . S
N113 C112 1.347 . S
C114 C117 1.365 . S
C114 N119 1.328 . S
C114 H120 0.929 . S
C115 C116 1.362 . S
C115 C118 1.378 . S
C115 H130 0.929 . S
C116 C115 1.362 . S
C116 C117 1.366 . S
C117 C114 1.365 . S
C117 C116 1.366 . S
C117 H131 0.930 . S
C118 C115 1.378 . S
C118 N119 1.315 . S
C118 H121 0.930 . S
N119 Co99 2.194 . S
N119 C114 1.328 . S
N119 C118 1.315 . S
H120 C114 0.929 . S
H121 C118 0.930 . S
H122 C110 0.929 . S
H123 C112 0.929 . S
O124 Co99 2.351 . S
O124 C127 1.244 . S
O125 Co99 2.155 . S
O125 C127 1.240 . S
O126 Co99 2.096 . S
O126 C107 1.247 . S
C127 O124 1.244 . S
C127 O125 1.240 . S
H128 C102 0.931 . S
H129 C111 0.931 . S
H130 C115 0.929 . S
H131 C117 0.930 . S
Co132 N136 2.148 . S
Co132 N142 2.128 . S
Co132 N152 2.194 . S
Co132 O157 2.351 . S
Co132 O158 2.155 . S
Co132 O159 2.096 . S
C133 N136 1.301 . S
C133 N137 1.328 . S
C133 H138 0.930 . S
C134 C135 1.333 . S
C134 N136 1.317 . S
C134 H139 0.930 . S
C135 C134 1.333 . S
C135 N137 1.350 . S
C135 H161 0.931 . S
N136 Co132 2.148 . S
N136 C133 1.301 . S
N136 C134 1.317 . S
N137 C133 1.328 . S
N137 C135 1.350 . S
H138 C133 0.930 . S
H139 C134 0.930 . S
C140 O141 1.224 . S
C140 O159 1.247 . S
O141 C140 1.224 . S
N142 Co132 2.128 . S
N142 C143 1.355 . S
N142 C145 1.311 . S
C143 N142 1.355 . S
C143 C144 1.363 . S
C143 H155 0.929 . S
C144 C143 1.363 . S
C144 N146 1.375 . S
C144 H162 0.931 . S
C145 N142 1.311 . S
C145 N146 1.347 . S
C145 H156 0.929 . S
N146 C144 1.375 . S
N146 C145 1.347 . S
C147 C150 1.365 . S
C147 N152 1.328 . S
C147 H153 0.929 . S
C148 C149 1.362 . S
C148 C151 1.378 . S
C148 H163 0.929 . S
C149 C148 1.362 . S
C149 C150 1.366 . S
C150 C147 1.365 . S
C150 C149 1.366 . S
C150 H164 0.930 . S
C151 C148 1.378 . S
C151 N152 1.315 . S
C151 H154 0.930 . S
N152 Co132 2.194 . S
N152 C147 1.328 . S
N152 C151 1.315 . S
H153 C147 0.929 . S
H154 C151 0.930 . S
H155 C143 0.929 . S
H156 C145 0.929 . S
O157 Co132 2.351 . S
O157 C160 1.244 . S
O158 Co132 2.155 . S
O158 C160 1.240 . S
O159 Co132 2.096 . S
O159 C140 1.247 . S
C160 O157 1.244 . S
C160 O158 1.240 . S
H161 C135 0.931 . S
H162 C144 0.931 . S
H163 C148 0.929 . S
H164 C150 0.930 . S
Co165 N169 2.148 . S
Co165 N175 2.128 . S
Co165 N185 2.194 . S
Co165 O190 2.351 . S
Co165 O191 2.155 . S
Co165 O192 2.096 . S
C166 N169 1.301 . S
C166 N170 1.328 . S
C166 H171 0.930 . S
C167 C168 1.333 . S
C167 N169 1.317 . S
C167 H172 0.930 . S
C168 C167 1.333 . S
C168 N170 1.350 . S
C168 H194 0.931 . S
N169 Co165 2.148 . S
N169 C166 1.301 . S
N169 C167 1.317 . S
N170 C166 1.328 . S
N170 C168 1.350 . S
H171 C166 0.930 . S
H172 C167 0.930 . S
C173 O174 1.224 . S
C173 O192 1.247 . S
O174 C173 1.224 . S
N175 Co165 2.128 . S
N175 C176 1.355 . S
N175 C178 1.311 . S
C176 N175 1.355 . S
C176 C177 1.363 . S
C176 H188 0.929 . S
C177 C176 1.363 . S
C177 N179 1.375 . S
C177 H195 0.931 . S
C178 N175 1.311 . S
C178 N179 1.347 . S
C178 H189 0.929 . S
N179 C177 1.375 . S
N179 C178 1.347 . S
C180 C183 1.365 . S
C180 N185 1.328 . S
C180 H186 0.929 . S
C181 C182 1.362 . S
C181 C184 1.378 . S
C181 H196 0.929 . S
C182 C181 1.362 . S
C182 C183 1.366 . S
C183 C180 1.365 . S
C183 C182 1.366 . S
C183 H197 0.930 . S
C184 C181 1.378 . S
C184 N185 1.315 . S
C184 H187 0.930 . S
N185 Co165 2.194 . S
N185 C180 1.328 . S
N185 C184 1.315 . S
H186 C180 0.929 . S
H187 C184 0.930 . S
H188 C176 0.929 . S
H189 C178 0.929 . S
O190 Co165 2.351 . S
O190 C193 1.244 . S
O191 Co165 2.155 . S
O191 C193 1.240 . S
O192 Co165 2.096 . S
O192 C173 1.247 . S
C193 O190 1.244 . S
C193 O191 1.240 . S
H194 C168 0.931 . S
H195 C177 0.931 . S
H196 C181 0.929 . S
H197 C183 0.930 . S
Co198 N202 2.148 . S
Co198 N208 2.128 . S
Co198 N218 2.194 . S
Co198 O223 2.351 . S
Co198 O224 2.155 . S
Co198 O225 2.096 . S
C199 N202 1.301 . S
C199 N203 1.328 . S
C199 H204 0.930 . S
C200 C201 1.333 . S
C200 N202 1.317 . S
C200 H205 0.930 . S
C201 C200 1.333 . S
C201 N203 1.350 . S
C201 H227 0.931 . S
N202 Co198 2.148 . S
N202 C199 1.301 . S
N202 C200 1.317 . S
N203 C199 1.328 . S
N203 C201 1.350 . S
H204 C199 0.930 . S
H205 C200 0.930 . S
C206 O207 1.224 . S
C206 O225 1.247 . S
O207 C206 1.224 . S
N208 Co198 2.128 . S
N208 C209 1.355 . S
N208 C211 1.311 . S
C209 N208 1.355 . S
C209 C210 1.363 . S
C209 H221 0.929 . S
C210 C209 1.363 . S
C210 N212 1.375 . S
C210 H228 0.931 . S
C211 N208 1.311 . S
C211 N212 1.347 . S
C211 H222 0.929 . S
N212 C210 1.375 . S
N212 C211 1.347 . S
C213 C216 1.365 . S
C213 N218 1.328 . S
C213 H219 0.929 . S
C214 C215 1.362 . S
C214 C217 1.378 . S
C214 H229 0.929 . S
C215 C214 1.362 . S
C215 C216 1.366 . S
C216 C213 1.365 . S
C216 C215 1.366 . S
C216 H230 0.930 . S
C217 C214 1.378 . S
C217 N218 1.315 . S
C217 H220 0.930 . S
N218 Co198 2.194 . S
N218 C213 1.328 . S
N218 C217 1.315 . S
H219 C213 0.929 . S
H220 C217 0.930 . S
H221 C209 0.929 . S
H222 C211 0.929 . S
O223 Co198 2.351 . S
O223 C226 1.244 . S
O224 Co198 2.155 . S
O224 C226 1.240 . S
O225 Co198 2.096 . S
O225 C206 1.247 . S
C226 O223 1.244 . S
C226 O224 1.240 . S
H227 C201 0.931 . S
H228 C210 0.931 . S
H229 C214 0.929 . S
H230 C216 0.930 . S
Co231 N235 2.148 1_556 S
Co231 N241 2.128 . S
Co231 N251 2.194 . S
Co231 O256 2.351 1_556 S
Co231 O257 2.155 1_556 S
Co231 O258 2.096 1_556 S
C232 N235 1.301 . S
C232 N236 1.328 . S
C232 H237 0.930 . S
C233 C234 1.333 . S
C233 N235 1.317 . S
C233 H238 0.930 . S
C234 C233 1.333 . S
C234 N236 1.350 . S
C234 H260 0.931 . S
N235 Co231 2.148 1_554 S
N235 C232 1.301 . S
N235 C233 1.317 . S
N236 C232 1.328 . S
N236 C234 1.350 . S
H237 C232 0.930 . S
H238 C233 0.930 . S
C239 O240 1.224 . S
C239 O258 1.247 1_556 S
O240 C239 1.224 . S
N241 Co231 2.128 . S
N241 C242 1.355 . S
N241 C244 1.311 . S
C242 N241 1.355 . S
C242 C243 1.363 . S
C242 H254 0.929 . S
C243 C242 1.363 . S
C243 N245 1.375 . S
C243 H261 0.931 . S
C244 N241 1.311 . S
C244 N245 1.347 . S
C244 H255 0.929 . S
N245 C243 1.375 . S
N245 C244 1.347 . S
C246 C249 1.365 . S
C246 N251 1.328 . S
C246 H252 0.929 . S
C247 C248 1.362 . S
C247 C250 1.378 . S
C247 H262 0.929 . S
C248 C247 1.362 . S
C248 C249 1.366 . S
C249 C246 1.365 . S
C249 C248 1.366 . S
C249 H263 0.930 . S
C250 C247 1.378 . S
C250 N251 1.315 . S
C250 H253 0.930 . S
N251 Co231 2.194 . S
N251 C246 1.328 . S
N251 C250 1.315 . S
H252 C246 0.929 . S
H253 C250 0.930 . S
H254 C242 0.929 . S
H255 C244 0.929 . S
O256 Co231 2.351 1_554 S
O256 C259 1.244 . S
O257 Co231 2.155 1_554 S
O257 C259 1.240 . S
O258 Co231 2.096 1_554 S
O258 C239 1.247 1_554 S
C259 O256 1.244 . S
C259 O257 1.240 . S
H260 C234 0.931 . S
H261 C243 0.931 . S
H262 C247 0.929 . S
H263 C249 0.930 . S
Co264 N268 2.148 . S
Co264 N274 2.128 . S
Co264 N284 2.194 . S
Co264 O289 2.351 . S
Co264 O290 2.155 . S
Co264 O291 2.096 . S
C265 N268 1.301 . S
C265 N269 1.328 . S
C265 H270 0.930 . S
C266 C267 1.333 . S
C266 N268 1.317 . S
C266 H271 0.930 . S
C267 C266 1.333 . S
C267 N269 1.350 . S
C267 H293 0.931 . S
N268 Co264 2.148 . S
N268 C265 1.301 . S
N268 C266 1.317 . S
N269 C265 1.328 . S
N269 C267 1.350 . S
H270 C265 0.930 . S
H271 C266 0.930 . S
C272 O273 1.224 . S
C272 O291 1.247 . S
O273 C272 1.224 . S
N274 Co264 2.128 . S
N274 C275 1.355 . S
N274 C277 1.311 . S
C275 N274 1.355 . S
C275 C276 1.363 . S
C275 H287 0.929 . S
C276 C275 1.363 . S
C276 N278 1.375 . S
C276 H294 0.931 . S
C277 N274 1.311 . S
C277 N278 1.347 . S
C277 H288 0.929 . S
N278 C276 1.375 . S
N278 C277 1.347 . S
C279 C282 1.365 . S
C279 N284 1.328 . S
C279 H285 0.929 . S
C280 C281 1.362 . S
C280 C283 1.378 . S
C280 H295 0.929 . S
C281 C280 1.362 . S
C281 C282 1.366 . S
C282 C279 1.365 . S
C282 C281 1.366 . S
C282 H296 0.930 . S
C283 C280 1.378 . S
C283 N284 1.315 . S
C283 H286 0.930 . S
N284 Co264 2.194 . S
N284 C279 1.328 . S
N284 C283 1.315 . S
H285 C279 0.929 . S
H286 C283 0.930 . S
H287 C275 0.929 . S
H288 C277 0.929 . S
O289 Co264 2.351 . S
O289 C292 1.244 . S
O290 Co264 2.155 . S
O290 C292 1.240 . S
O291 Co264 2.096 . S
O291 C272 1.247 . S
C292 O289 1.244 . S
C292 O290 1.240 . S
H293 C267 0.931 . S
H294 C276 0.931 . S
H295 C280 0.929 . S
H296 C282 0.930 . S
Co297 N301 2.148 . S
Co297 N307 2.128 . S
Co297 N317 2.194 . S
Co297 O322 2.351 . S
Co297 O323 2.155 . S
Co297 O324 2.096 . S
C298 N301 1.301 . S
C298 N302 1.328 . S
C298 H303 0.930 . S
C299 C300 1.333 . S
C299 N301 1.317 . S
C299 H304 0.930 . S
C300 C299 1.333 . S
C300 N302 1.350 . S
C300 H326 0.931 . S
N301 Co297 2.148 . S
N301 C298 1.301 . S
N301 C299 1.317 . S
N302 C298 1.328 . S
N302 C300 1.350 . S
H303 C298 0.930 . S
H304 C299 0.930 . S
C305 O306 1.224 . S
C305 O324 1.247 . S
O306 C305 1.224 . S
N307 Co297 2.128 . S
N307 C308 1.355 . S
N307 C310 1.311 . S
C308 N307 1.355 . S
C308 C309 1.363 . S
C308 H320 0.929 . S
C309 C308 1.363 . S
C309 N311 1.375 . S
C309 H327 0.931 . S
C310 N307 1.311 . S
C310 N311 1.347 . S
C310 H321 0.929 . S
N311 C309 1.375 . S
N311 C310 1.347 . S
C312 C315 1.365 . S
C312 N317 1.328 . S
C312 H318 0.929 . S
C313 C314 1.362 . S
C313 C316 1.378 . S
C313 H328 0.929 . S
C314 C313 1.362 . S
C314 C315 1.366 . S
C315 C312 1.365 . S
C315 C314 1.366 . S
C315 H329 0.930 . S
C316 C313 1.378 . S
C316 N317 1.315 . S
C316 H319 0.930 . S
N317 Co297 2.194 . S
N317 C312 1.328 . S
N317 C316 1.315 . S
H318 C312 0.929 . S
H319 C316 0.930 . S
H320 C308 0.929 . S
H321 C310 0.929 . S
O322 Co297 2.351 . S
O322 C325 1.244 . S
O323 Co297 2.155 . S
O323 C325 1.240 . S
O324 Co297 2.096 . S
O324 C305 1.247 . S
C325 O322 1.244 . S
C325 O323 1.240 . S
H326 C300 0.931 . S
H327 C309 0.931 . S
H328 C313 0.929 . S
H329 C315 0.930 . S
Co330 N334 2.148 . S
Co330 N340 2.128 . S
Co330 N350 2.194 . S
Co330 O355 2.351 . S
Co330 O356 2.155 . S
Co330 O357 2.096 . S
C331 N334 1.301 . S
C331 N335 1.328 . S
C331 H336 0.930 . S
C332 C333 1.333 . S
C332 N334 1.317 . S
C332 H337 0.930 . S
C333 C332 1.333 . S
C333 N335 1.350 . S
C333 H359 0.931 . S
N334 Co330 2.148 . S
N334 C331 1.301 . S
N334 C332 1.317 . S
N335 C331 1.328 . S
N335 C333 1.350 . S
H336 C331 0.930 . S
H337 C332 0.930 . S
C338 O339 1.224 . S
C338 O357 1.247 . S
O339 C338 1.224 . S
N340 Co330 2.128 . S
N340 C341 1.355 . S
N340 C343 1.311 . S
C341 N340 1.355 . S
C341 C342 1.363 . S
C341 H353 0.929 . S
C342 C341 1.363 . S
C342 N344 1.375 . S
C342 H360 0.931 . S
C343 N340 1.311 . S
C343 N344 1.347 . S
C343 H354 0.929 . S
N344 C342 1.375 . S
N344 C343 1.347 . S
C345 C348 1.365 . S
C345 N350 1.328 . S
C345 H351 0.929 . S
C346 C347 1.362 . S
C346 C349 1.378 . S
C346 H361 0.929 . S
C347 C346 1.362 . S
C347 C348 1.366 . S
C348 C345 1.365 . S
C348 C347 1.366 . S
C348 H362 0.930 . S
C349 C346 1.378 . S
C349 N350 1.315 . S
C349 H352 0.930 . S
N350 Co330 2.194 . S
N350 C345 1.328 . S
N350 C349 1.315 . S
H351 C345 0.929 . S
H352 C349 0.930 . S
H353 C341 0.929 . S
H354 C343 0.929 . S
O355 Co330 2.351 . S
O355 C358 1.244 . S
O356 Co330 2.155 . S
O356 C358 1.240 . S
O357 Co330 2.096 . S
O357 C338 1.247 . S
C358 O355 1.244 . S
C358 O356 1.240 . S
H359 C333 0.931 . S
H360 C342 0.931 . S
H361 C346 0.929 . S
H362 C348 0.930 . S
Co363 N367 2.148 . S
Co363 N373 2.128 . S
Co363 N383 2.194 . S
Co363 O388 2.351 . S
Co363 O389 2.155 . S
Co363 O390 2.096 . S
C364 N367 1.301 . S
C364 N368 1.328 . S
C364 H369 0.930 . S
C365 C366 1.333 . S
C365 N367 1.317 . S
C365 H370 0.930 . S
C366 C365 1.333 . S
C366 N368 1.350 . S
C366 H392 0.931 . S
N367 Co363 2.148 . S
N367 C364 1.301 . S
N367 C365 1.317 . S
N368 C364 1.328 . S
N368 C366 1.350 . S
H369 C364 0.930 . S
H370 C365 0.930 . S
C371 O372 1.224 . S
C371 O390 1.247 . S
O372 C371 1.224 . S
N373 Co363 2.128 . S
N373 C374 1.355 . S
N373 C376 1.311 . S
C374 N373 1.355 . S
C374 C375 1.363 . S
C374 H386 0.929 . S
C375 C374 1.363 . S
C375 N377 1.375 . S
C375 H393 0.931 . S
C376 N373 1.311 . S
C376 N377 1.347 . S
C376 H387 0.929 . S
N377 C375 1.375 . S
N377 C376 1.347 . S
C378 C381 1.365 . S
C378 N383 1.328 . S
C378 H384 0.929 . S
C379 C380 1.362 . S
C379 C382 1.378 . S
C379 H394 0.929 . S
C380 C379 1.362 . S
C380 C381 1.366 . S
C381 C378 1.365 . S
C381 C380 1.366 . S
C381 H395 0.930 . S
C382 C379 1.378 . S
C382 N383 1.315 . S
C382 H385 0.930 . S
N383 Co363 2.194 . S
N383 C378 1.328 . S
N383 C382 1.315 . S
H384 C378 0.929 . S
H385 C382 0.930 . S
H386 C374 0.929 . S
H387 C376 0.929 . S
O388 Co363 2.351 . S
O388 C391 1.244 . S
O389 Co363 2.155 . S
O389 C391 1.240 . S
O390 Co363 2.096 . S
O390 C371 1.247 . S
C391 O388 1.244 . S
C391 O389 1.240 . S
H392 C366 0.931 . S
H393 C375 0.931 . S
H394 C379 0.929 . S
H395 C381 0.930 . S
H396 C402 0.930 . S
H397 C406 0.930 . S
H398 C411 0.929 . S
H399 C409 0.929 . S
H400 C404 0.929 . S
H401 C410 0.929 . S
C402 H396 0.930 . S
C402 C403 1.367 . S
C402 C410 1.378 . S
C403 C402 1.367 . S
C403 C411 1.433 . S
C404 H400 0.929 . S
C404 C406 1.378 . S
C404 C408 1.350 . S
C405 C408 1.463 . S
C405 C410 1.350 . S
C405 N413 1.427 . S
C406 H397 0.930 . S
C406 C404 1.378 . S
C406 C407 1.367 . S
C407 C406 1.367 . S
C407 C409 1.433 . S
C408 C404 1.350 . S
C408 C405 1.463 . S
C408 N412 1.427 . S
C409 H399 0.929 . S
C409 C407 1.433 . S
C409 N412 1.384 . S
C410 H401 0.929 . S
C410 C402 1.378 . S
C410 C405 1.350 . S
C411 H398 0.929 . S
C411 C403 1.433 . S
C411 N413 1.384 . S
N412 C408 1.427 . S
N412 C409 1.384 . S
N413 C405 1.427 . S
N413 C411 1.384 . S
H414 C420 0.930 . S
H415 C424 0.930 . S
H416 C429 0.929 . S
H417 C427 0.929 . S
H418 C422 0.929 . S
H419 C428 0.929 . S
C420 H414 0.930 . S
C420 C421 1.367 . S
C420 C428 1.378 . S
C421 C420 1.367 . S
C421 C429 1.433 . S
C422 H418 0.929 . S
C422 C424 1.378 1_455 S
C422 C426 1.350 . S
C423 C426 1.463 . S
C423 C428 1.350 . S
C423 N431 1.427 . S
C424 H415 0.930 . S
C424 C422 1.378 1_655 S
C424 C425 1.367 . S
C425 C424 1.367 . S
C425 C427 1.433 . S
C426 C422 1.350 . S
C426 C423 1.463 . S
C426 N430 1.427 . S
C427 H417 0.929 . S
C427 C425 1.433 . S
C427 N430 1.384 1_655 S
C428 H419 0.929 . S
C428 C420 1.378 . S
C428 C423 1.350 . S
C429 H416 0.929 . S
C429 C421 1.433 . S
C429 N431 1.384 . S
N430 C426 1.427 . S
N430 C427 1.384 1_455 S
N431 C423 1.427 . S
N431 C429 1.384 . S
H432 C438 0.930 . S
H433 C442 0.930 . S
H434 C447 0.929 . S
H435 C445 0.929 . S
H436 C440 0.929 . S
H437 C446 0.929 . S
C438 H432 0.930 . S
C438 C439 1.367 . S
C438 C446 1.378 . S
C439 C438 1.367 . S
C439 C447 1.433 . S
C440 H436 0.929 . S
C440 C442 1.378 1_545 S
C440 C444 1.350 . S
C441 C444 1.463 . S
C441 C446 1.350 . S
C441 N449 1.427 . S
C442 H433 0.930 . S
C442 C440 1.378 1_565 S
C442 C443 1.367 . S
C443 C442 1.367 . S
C443 C445 1.433 1_565 S
C444 C440 1.350 . S
C444 C441 1.463 . S
C444 N448 1.427 . S
C445 H435 0.929 . S
C445 C443 1.433 1_545 S
C445 N448 1.384 . S
C446 H437 0.929 . S
C446 C438 1.378 . S
C446 C441 1.350 . S
C447 H434 0.929 . S
C447 C439 1.433 . S
C447 N449 1.384 . S
N448 C444 1.427 . S
N448 C445 1.384 . S
N449 C441 1.427 . S
N449 C447 1.384 . S
H450 C456 0.930 . S
H451 C460 0.930 . S
H452 C465 0.929 . S
H453 C463 0.929 . S
H454 C458 0.929 . S
H455 C464 0.929 . S
C456 H450 0.930 . S
C456 C457 1.367 . S
C456 C464 1.378 . S
C457 C456 1.367 . S
C457 C465 1.433 . S
C458 H454 0.929 . S
C458 C460 1.378 . S
C458 C462 1.350 . S
C459 C462 1.463 . S
C459 C464 1.350 . S
C459 N467 1.427 . S
C460 H451 0.930 . S
C460 C458 1.378 . S
C460 C461 1.367 . S
C461 C460 1.367 . S
C461 C463 1.433 . S
C462 C458 1.350 . S
C462 C459 1.463 . S
C462 N466 1.427 . S
C463 H453 0.929 . S
C463 C461 1.433 . S
C463 N466 1.384 . S
C464 H455 0.929 . S
C464 C456 1.378 . S
C464 C459 1.350 . S
C465 H452 0.929 . S
C465 C457 1.433 . S
C465 N467 1.384 . S
N466 C462 1.427 . S
N466 C463 1.384 . S
N467 C459 1.427 . S
N467 C465 1.384 . S
H468 C474 0.930 . S
H469 C478 0.930 . S
H470 C483 0.929 . S
H471 C481 0.929 . S
H472 C476 0.929 . S
H473 C482 0.929 . S
C474 H468 0.930 . S
C474 C475 1.367 1_655 S
C474 C482 1.378 . S
C475 C474 1.367 1_455 S
C475 C483 1.433 . S
C476 H472 0.929 . S
C476 C478 1.378 . S
C476 C480 1.350 . S
C477 C480 1.463 . S
C477 C482 1.350 . S
C477 N485 1.427 . S
C478 H469 0.930 . S
C478 C476 1.378 . S
C478 C479 1.367 . S
C479 C478 1.367 . S
C479 C481 1.433 . S
C480 C476 1.350 . S
C480 C477 1.463 . S
C480 N484 1.427 . S
C481 H471 0.929 . S
C481 C479 1.433 . S
C481 N484 1.384 . S
C482 H473 0.929 . S
C482 C474 1.378 . S
C482 C477 1.350 . S
C483 H470 0.929 . S
C483 C475 1.433 . S
C483 N485 1.384 1_455 S
N484 C480 1.427 . S
N484 C481 1.384 . S
N485 C477 1.427 . S
N485 C483 1.384 1_655 S
H486 C492 0.930 . S
H487 C496 0.930 . S
H488 C501 0.929 . S
H489 C499 0.929 . S
H490 C494 0.929 . S
H491 C500 0.929 . S
C492 H486 0.930 . S
C492 C493 1.367 . S
C492 C500 1.378 . S
C493 C492 1.367 . S
C493 C501 1.433 . S
C494 H490 0.929 . S
C494 C496 1.378 1_565 S
C494 C498 1.350 . S
C495 C498 1.463 . S
C495 C500 1.350 . S
C495 N503 1.427 . S
C496 H487 0.930 . S
C496 C494 1.378 1_545 S
C496 C497 1.367 . S
C497 C496 1.367 . S
C497 C499 1.433 1_545 S
C498 C494 1.350 . S
C498 C495 1.463 . S
C498 N502 1.427 . S
C499 H489 0.929 . S
C499 C497 1.433 1_565 S
C499 N502 1.384 . S
C500 H491 0.929 . S
C500 C492 1.378 . S
C500 C495 1.350 . S
C501 H488 0.929 . S
C501 C493 1.433 . S
C501 N503 1.384 . S
N502 C498 1.427 . S
N502 C499 1.384 . S
N503 C495 1.427 . S
N503 C501 1.384 . S
H504 C510 0.930 . S
H505 C514 0.930 . S
H506 C519 0.929 1_554 S
H507 C517 0.929 . S
H508 C512 0.929 . S
H509 C518 0.929 . S
C510 H504 0.930 . S
C510 C511 1.367 . S
C510 C518 1.378 . S
C511 C510 1.367 . S
C511 C519 1.433 . S
C512 H508 0.929 . S
C512 C514 1.378 . S
C512 C516 1.350 . S
C513 C516 1.463 . S
C513 C518 1.350 . S
C513 N521 1.427 . S
C514 H505 0.930 . S
C514 C512 1.378 . S
C514 C515 1.367 . S
C515 C514 1.367 . S
C515 C517 1.433 . S
C516 C512 1.350 . S
C516 C513 1.463 . S
C516 N520 1.427 . S
C517 H507 0.929 . S
C517 C515 1.433 . S
C517 N520 1.384 . S
C518 H509 0.929 . S
C518 C510 1.378 . S
C518 C513 1.350 . S
C519 H506 0.929 1_556 S
C519 C511 1.433 . S
C519 N521 1.384 . S
N520 C516 1.427 . S
N520 C517 1.384 . S
N521 C513 1.427 . S
N521 C519 1.384 . S
H522 C528 0.930 . S
H523 C532 0.930 . S
H524 C537 0.929 . S
H525 C535 0.929 . S
H526 C530 0.929 . S
H527 C536 0.929 . S
C528 H522 0.930 . S
C528 C529 1.367 . S
C528 C536 1.378 . S
C529 C528 1.367 . S
C529 C537 1.433 . S
C530 H526 0.929 . S
C530 C532 1.378 1_455 S
C530 C534 1.350 . S
C531 C534 1.463 . S
C531 C536 1.350 . S
C531 N539 1.427 . S
C532 H523 0.930 . S
C532 C530 1.378 1_655 S
C532 C533 1.367 . S
C533 C532 1.367 . S
C533 C535 1.433 1_655 S
C534 C530 1.350 . S
C534 C531 1.463 . S
C534 N538 1.427 . S
C535 H525 0.929 . S
C535 C533 1.433 1_455 S
C535 N538 1.384 . S
C536 H527 0.929 . S
C536 C528 1.378 . S
C536 C531 1.350 . S
C537 H524 0.929 . S
C537 C529 1.433 . S
C537 N539 1.384 . S
N538 C534 1.427 . S
N538 C535 1.384 . S
N539 C531 1.427 . S
N539 C537 1.384 . S
H540 C546 0.930 . S
H541 C550 0.930 1_565 S
H542 C555 0.929 . S
H543 C553 0.929 . S
H544 C548 0.929 . S
H545 C554 0.929 . S
C546 H540 0.930 . S
C546 C547 1.367 . S
C546 C554 1.378 . S
C547 C546 1.367 . S
C547 C555 1.433 . S
C548 H544 0.929 . S
C548 C550 1.378 . S
C548 C552 1.350 . S
C549 C552 1.463 . S
C549 C554 1.350 . S
C549 N557 1.427 . S
C550 H541 0.930 1_545 S
C550 C548 1.378 . S
C550 C551 1.367 1_545 S
C551 C550 1.367 1_565 S
C551 C553 1.433 . S
C552 C548 1.350 . S
C552 C549 1.463 . S
C552 N556 1.427 . S
C553 H543 0.929 . S
C553 C551 1.433 . S
C553 N556 1.384 1_565 S
C554 H545 0.929 . S
C554 C546 1.378 . S
C554 C549 1.350 . S
C555 H542 0.929 . S
C555 C547 1.433 . S
C555 N557 1.384 . S
N556 C552 1.427 . S
N556 C553 1.384 1_545 S
N557 C549 1.427 . S
N557 C555 1.384 . S
H558 C564 0.930 . S
H559 C568 0.930 . S
H560 C573 0.929 . S
H561 C571 0.929 . S
H562 C566 0.929 . S
H563 C572 0.929 . S
C564 H558 0.930 . S
C564 C565 1.367 . S
C564 C572 1.378 . S
C565 C564 1.367 . S
C565 C573 1.433 . S
C566 H562 0.929 . S
C566 C568 1.378 . S
C566 C570 1.350 . S
C567 C570 1.463 . S
C567 C572 1.350 . S
C567 N575 1.427 . S
C568 H559 0.930 . S
C568 C566 1.378 . S
C568 C569 1.367 . S
C569 C568 1.367 . S
C569 C571 1.433 . S
C570 C566 1.350 . S
C570 C567 1.463 . S
C570 N574 1.427 . S
C571 H561 0.929 . S
C571 C569 1.433 . S
C571 N574 1.384 . S
C572 H563 0.929 . S
C572 C564 1.378 . S
C572 C567 1.350 . S
C573 H560 0.929 . S
C573 C565 1.433 . S
C573 N575 1.384 . S
N574 C570 1.427 . S
N574 C571 1.384 . S
N575 C567 1.427 . S
N575 C573 1.384 . S
H576 C582 0.930 . S
H577 C586 0.930 . S
H578 C591 0.929 . S
H579 C589 0.929 . S
H580 C584 0.929 . S
H581 C590 0.929 . S
C582 H576 0.930 . S
C582 C583 1.367 . S
C582 C590 1.378 . S
C583 C582 1.367 . S
C583 C591 1.433 . S
C584 H580 0.929 . S
C584 C586 1.378 . S
C584 C588 1.350 . S
C585 C588 1.463 . S
C585 C590 1.350 . S
C585 N593 1.427 . S
C586 H577 0.930 . S
C586 C584 1.378 . S
C586 C587 1.367 1_655 S
C587 C586 1.367 1_455 S
C587 C589 1.433 . S
C588 C584 1.350 . S
C588 C585 1.463 . S
C588 N592 1.427 . S
C589 H579 0.929 . S
C589 C587 1.433 . S
C589 N592 1.384 1_455 S
C590 H581 0.929 . S
C590 C582 1.378 . S
C590 C585 1.350 . S
C591 H578 0.929 . S
C591 C583 1.433 . S
C591 N593 1.384 . S
N592 C588 1.427 . S
N592 C589 1.384 1_655 S
N593 C585 1.427 . S
N593 C591 1.384 . S
H594 C600 0.930 . S
H595 C604 0.930 . S
H596 C609 0.929 . S
H597 C607 0.929 . S
H598 C602 0.929 . S
H599 C608 0.929 . S
C600 H594 0.930 . S
C600 C601 1.367 . S
C600 C608 1.378 . S
C601 C600 1.367 . S
C601 C609 1.433 . S
C602 H598 0.929 . S
C602 C604 1.378 . S
C602 C606 1.350 . S
C603 C606 1.463 . S
C603 C608 1.350 . S
C603 N611 1.427 . S
C604 H595 0.930 . S
C604 C602 1.378 . S
C604 C605 1.367 1_565 S
C605 C604 1.367 1_545 S
C605 C607 1.433 . S
C606 C602 1.350 . S
C606 C603 1.463 . S
C606 N610 1.427 . S
C607 H597 0.929 . S
C607 C605 1.433 . S
C607 N610 1.384 1_545 S
C608 H599 0.929 . S
C608 C600 1.378 . S
C608 C603 1.350 . S
C609 H596 0.929 . S
C609 C601 1.433 . S
C609 N611 1.384 . S
N610 C606 1.427 . S
N610 C607 1.384 1_565 S
N611 C603 1.427 . S
N611 C609 1.384 . S
H612 C618 0.930 . S
H613 C622 0.930 . S
H614 C627 0.929 . S
H615 C625 0.929 . S
H616 C620 0.929 . S
H617 C626 0.929 . S
C618 H612 0.930 . S
C618 C619 1.367 . S
C618 C626 1.378 . S
C619 C618 1.367 . S
C619 C627 1.433 . S
C620 H616 0.929 . S
C620 C622 1.378 . S
C620 C624 1.350 . S
C621 C624 1.463 . S
C621 C626 1.350 . S
C621 N629 1.427 . S
C622 H613 0.930 . S
C622 C620 1.378 . S
C622 C623 1.367 . S
C623 C622 1.367 . S
C623 C625 1.433 . S
C624 C620 1.350 . S
C624 C621 1.463 . S
C624 N628 1.427 . S
C625 H615 0.929 . S
C625 C623 1.433 . S
C625 N628 1.384 . S
C626 H617 0.929 . S
C626 C618 1.378 . S
C626 C621 1.350 . S
C627 H614 0.929 . S
C627 C619 1.433 . S
C627 N629 1.384 . S
N628 C624 1.427 . S
N628 C625 1.384 . S
N629 C621 1.427 . S
N629 C627 1.384 . S
H630 C636 0.930 . S
H631 C640 0.930 . S
H632 C645 0.929 . S
H633 C643 0.929 . S
H634 C638 0.929 . S
H635 C644 0.929 . S
C636 H630 0.930 . S
C636 C637 1.367 . S
C636 C644 1.378 . S
C637 C636 1.367 . S
C637 C645 1.433 . S
C638 H634 0.929 . S
C638 C640 1.378 . S
C638 C642 1.350 . S
C639 C642 1.463 . S
C639 C644 1.350 . S
C639 N647 1.427 . S
C640 H631 0.930 . S
C640 C638 1.378 . S
C640 C641 1.367 . S
C641 C640 1.367 . S
C641 C643 1.433 . S
C642 C638 1.350 . S
C642 C639 1.463 . S
C642 N646 1.427 . S
C643 H633 0.929 . S
C643 C641 1.433 . S
C643 N646 1.384 . S
C644 H635 0.929 . S
C644 C636 1.378 . S
C644 C639 1.350 . S
C645 H632 0.929 . S
C645 C637 1.433 . S
C645 N647 1.384 . S
N646 C642 1.427 . S
N646 C643 1.384 . S
N647 C639 1.427 . S
N647 C645 1.384 . S
H648 C654 0.930 . S
H649 C658 0.930 . S
H650 C663 0.929 . S
H651 C661 0.929 . S
H652 C656 0.929 . S
H653 C662 0.929 . S
C654 H648 0.930 . S
C654 C655 1.367 . S
C654 C662 1.378 . S
C655 C654 1.367 . S
C655 C663 1.433 . S
C656 H652 0.929 . S
C656 C658 1.378 . S
C656 C660 1.350 . S
C657 C660 1.463 . S
C657 C662 1.350 . S
C657 N665 1.427 . S
C658 H649 0.930 . S
C658 C656 1.378 . S
C658 C659 1.367 . S
C659 C658 1.367 . S
C659 C661 1.433 . S
C660 C656 1.350 . S
C660 C657 1.463 . S
C660 N664 1.427 . S
C661 H651 0.929 . S
C661 C659 1.433 . S
C661 N664 1.384 . S
C662 H653 0.929 . S
C662 C654 1.378 . S
C662 C657 1.350 . S
C663 H650 0.929 . S
C663 C655 1.433 . S
C663 N665 1.384 . S
N664 C660 1.427 . S
N664 C661 1.384 . S
N665 C657 1.427 . S
N665 C663 1.384 . S
H666 C672 0.930 . S
H667 C676 0.930 . S
H668 C681 0.929 . S
H669 C679 0.929 . S
H670 C674 0.929 . S
H671 C680 0.929 . S
C672 H666 0.930 . S
C672 C673 1.367 . S
C672 C680 1.378 . S
C673 C672 1.367 . S
C673 C681 1.433 . S
C674 H670 0.929 . S
C674 C676 1.378 . S
C674 C678 1.350 . S
C675 C678 1.463 . S
C675 C680 1.350 . S
C675 N683 1.427 . S
C676 H667 0.930 . S
C676 C674 1.378 . S
C676 C677 1.367 . S
C677 C676 1.367 . S
C677 C679 1.433 . S
C678 C674 1.350 . S
C678 C675 1.463 . S
C678 N682 1.427 . S
C679 H669 0.929 . S
C679 C677 1.433 . S
C679 N682 1.384 . S
C680 H671 0.929 . S
C680 C672 1.378 . S
C680 C675 1.350 . S
C681 H668 0.929 . S
C681 C673 1.433 . S
C681 N683 1.384 . S
N682 C678 1.427 . S
N682 C679 1.384 . S
N683 C675 1.427 . S
N683 C681 1.384 . S
H684 C690 0.930 . S
H685 C694 0.930 . S
H686 C699 0.929 . S
H687 C697 0.929 . S
H688 C692 0.929 . S
H689 C698 0.929 . S
C690 H684 0.930 . S
C690 C691 1.367 . S
C690 C698 1.378 . S
C691 C690 1.367 . S
C691 C699 1.433 . S
C692 H688 0.929 . S
C692 C694 1.378 . S
C692 C696 1.350 . S
C693 C696 1.463 . S
C693 C698 1.350 . S
C693 N701 1.427 . S
C694 H685 0.930 . S
C694 C692 1.378 . S
C694 C695 1.367 . S
C695 C694 1.367 . S
C695 C697 1.433 . S
C696 C692 1.350 . S
C696 C693 1.463 . S
C696 N700 1.427 . S
C697 H687 0.929 . S
C697 C695 1.433 . S
C697 N700 1.384 . S
C698 H689 0.929 . S
C698 C690 1.378 . S
C698 C693 1.350 . S
C699 H686 0.929 . S
C699 C691 1.433 . S
C699 N701 1.384 . S
N700 C696 1.427 . S
N700 C697 1.384 . S
N701 C693 1.427 . S
N701 C699 1.384 . S
H702 C708 0.930 . S
H703 C712 0.930 . S
H704 C717 0.929 . S
H705 C715 0.929 . S
H706 C710 0.929 . S
H707 C716 0.929 . S
C708 H702 0.930 . S
C708 C709 1.367 . S
C708 C716 1.378 . S
C709 C708 1.367 . S
C709 C717 1.433 . S
C710 H706 0.929 . S
C710 C712 1.378 . S
C710 C714 1.350 . S
C711 C714 1.463 . S
C711 C716 1.350 . S
C711 N719 1.427 . S
C712 H703 0.930 . S
C712 C710 1.378 . S
C712 C713 1.367 . S
C713 C712 1.367 . S
C713 C715 1.433 . S
C714 C710 1.350 . S
C714 C711 1.463 . S
C714 N718 1.427 . S
C715 H705 0.929 . S
C715 C713 1.433 . S
C715 N718 1.384 . S
C716 H707 0.929 . S
C716 C708 1.378 . S
C716 C711 1.350 . S
C717 H704 0.929 . S
C717 C709 1.433 . S
C717 N719 1.384 . S
N718 C714 1.427 . S
N718 C715 1.384 . S
N719 C711 1.427 . S
N719 C717 1.384 . S
H720 C726 0.930 . S
H721 C730 0.930 . S
H722 C735 0.929 . S
H723 C733 0.929 . S
H724 C728 0.929 . S
H725 C734 0.929 . S
C726 H720 0.930 . S
C726 C727 1.367 . S
C726 C734 1.378 . S
C727 C726 1.367 . S
C727 C735 1.433 . S
C728 H724 0.929 . S
C728 C730 1.378 . S
C728 C732 1.350 . S
C729 C732 1.463 . S
C729 C734 1.350 . S
C729 N737 1.427 . S
C730 H721 0.930 . S
C730 C728 1.378 . S
C730 C731 1.367 . S
C731 C730 1.367 . S
C731 C733 1.433 . S
C732 C728 1.350 . S
C732 C729 1.463 . S
C732 N736 1.427 . S
C733 H723 0.929 . S
C733 C731 1.433 . S
C733 N736 1.384 . S
C734 H725 0.929 . S
C734 C726 1.378 . S
C734 C729 1.350 . S
C735 H722 0.929 . S
C735 C727 1.433 . S
C735 N737 1.384 . S
N736 C732 1.427 . S
N736 C733 1.384 . S
N737 C729 1.427 . S
N737 C735 1.384 . S
H738 C744 0.930 . S
H739 C748 0.930 . S
H740 C753 0.929 . S
H741 C751 0.929 . S
H742 C746 0.929 . S
H743 C752 0.929 . S
C744 H738 0.930 . S
C744 C745 1.367 . S
C744 C752 1.378 . S
C745 C744 1.367 . S
C745 C753 1.433 . S
C746 H742 0.929 . S
C746 C748 1.378 . S
C746 C750 1.350 . S
C747 C750 1.463 1_455 S
C747 C752 1.350 . S
C747 N755 1.427 1_455 S
C748 H739 0.930 . S
C748 C746 1.378 . S
C748 C749 1.367 . S
C749 C748 1.367 . S
C749 C751 1.433 . S
C750 C746 1.350 . S
C750 C747 1.463 1_655 S
C750 N754 1.427 1_655 S
C751 H741 0.929 . S
C751 C749 1.433 . S
C751 N754 1.384 1_655 S
C752 H743 0.929 . S
C752 C744 1.378 . S
C752 C747 1.350 . S
C753 H740 0.929 . S
C753 C745 1.433 . S
C753 N755 1.384 1_455 S
N754 C750 1.427 1_455 S
N754 C751 1.384 1_455 S
N755 C747 1.427 1_655 S
N755 C753 1.384 1_655 S
H756 C762 0.930 . S
H757 C766 0.930 . S
H758 C771 0.924 1_545 S
H759 C769 0.924 1_565 S
H760 C764 0.929 . S
H761 C770 0.929 . S
C762 H756 0.930 . S
C762 C763 1.367 . S
C762 C770 1.378 . S
C763 C762 1.367 . S
C763 C771 1.433 . S
C764 H760 0.929 . S
C764 C766 1.378 . S
C764 C768 1.350 . S
C765 C768 1.463 1_565 S
C765 C770 1.350 . S
C765 N773 1.427 1_565 S
C766 H757 0.930 . S
C766 C764 1.378 . S
C766 C767 1.367 . S
C767 C766 1.367 . S
C767 C769 1.433 . S
C768 C764 1.350 . S
C768 C765 1.463 1_545 S
C768 N772 1.427 1_545 S
C769 H759 0.924 1_545 S
C769 C767 1.433 . S
C769 N772 1.384 1_545 S
C770 H761 0.929 . S
C770 C762 1.378 . S
C770 C765 1.350 . S
C771 H758 0.924 1_565 S
C771 C763 1.433 . S
C771 N773 1.384 1_565 S
N772 C768 1.427 1_565 S
N772 C769 1.384 1_565 S
N773 C765 1.427 1_545 S
N773 C771 1.384 1_545 S
H774 C780 0.930 . S
H775 C784 0.930 . S
H776 C789 0.929 . S
H777 C787 0.929 . S
H778 C782 0.929 . S
H779 C788 0.929 . S
C780 H774 0.930 . S
C780 C781 1.367 . S
C780 C788 1.378 . S
C781 C780 1.367 . S
C781 C789 1.433 . S
C782 H778 0.929 . S
C782 C784 1.378 . S
C782 C786 1.350 . S
C783 C786 1.463 . S
C783 C788 1.350 . S
C783 N791 1.427 . S
C784 H775 0.930 . S
C784 C782 1.378 . S
C784 C785 1.367 . S
C785 C784 1.367 . S
C785 C787 1.433 . S
C786 C782 1.350 . S
C786 C783 1.463 . S
C786 N790 1.427 . S
C787 H777 0.929 . S
C787 C785 1.433 . S
C787 N790 1.384 . S
C788 H779 0.929 . S
C788 C780 1.378 . S
C788 C783 1.350 . S
C789 H776 0.929 . S
C789 C781 1.433 . S
C789 N791 1.384 . S
N790 C786 1.427 . S
N790 C787 1.384 . S
N791 C783 1.427 . S
N791 C789 1.384 . S
H792 C798 0.930 . S
H793 C802 0.930 . S
H794 C807 0.929 . S
H795 C805 0.929 . S
H796 C800 0.929 . S
H797 C806 0.929 . S
C798 H792 0.930 . S
C798 C799 1.367 . S
C798 C806 1.378 . S
C799 C798 1.367 . S
C799 C807 1.433 . S
C800 H796 0.929 . S
C800 C802 1.378 . S
C800 C804 1.350 . S
C801 C804 1.463 1_455 S
C801 C806 1.350 . S
C801 N809 1.427 . S
C802 H793 0.930 . S
C802 C800 1.378 . S
C802 C803 1.367 . S
C803 C802 1.367 . S
C803 C805 1.433 . S
C804 C800 1.350 . S
C804 C801 1.463 1_655 S
C804 N808 1.427 . S
C805 H795 0.929 . S
C805 C803 1.433 . S
C805 N808 1.384 . S
C806 H797 0.929 . S
C806 C798 1.378 . S
C806 C801 1.350 . S
C807 H794 0.929 . S
C807 C799 1.433 . S
C807 N809 1.384 . S
N808 C804 1.427 . S
N808 C805 1.384 . S
N809 C801 1.427 . S
N809 C807 1.384 . S
H810 C816 0.930 . S
H811 C820 0.930 . S
H812 C825 0.929 . S
H813 C823 0.929 . S
H814 C818 0.929 . S
H815 C824 0.929 1_556 S
C816 H810 0.930 . S
C816 C817 1.367 . S
C816 C824 1.378 . S
C817 C816 1.367 . S
C817 C825 1.433 . S
C818 H814 0.929 . S
C818 C820 1.378 . S
C818 C822 1.350 . S
C819 C822 1.463 1_564 S
C819 C824 1.350 . S
C819 N827 1.427 1_565 S
C820 H811 0.930 . S
C820 C818 1.378 . S
C820 C821 1.367 . S
C821 C820 1.367 . S
C821 C823 1.433 . S
C822 C818 1.350 . S
C822 C819 1.463 1_546 S
C822 N826 1.427 1_545 S
C823 H813 0.929 . S
C823 C821 1.433 . S
C823 N826 1.384 1_545 S
C824 H815 0.929 1_554 S
C824 C816 1.378 . S
C824 C819 1.350 . S
C825 H812 0.929 . S
C825 C817 1.433 . S
C825 N827 1.384 1_565 S
N826 C822 1.427 1_565 S
N826 C823 1.384 1_565 S
N827 C819 1.427 1_545 S
N827 C825 1.384 1_545 S
H828 C834 0.930 . S
H829 C838 0.930 . S
H830 C843 0.929 . S
H831 C841 0.929 . S
H832 C836 0.929 . S
H833 C842 0.929 . S
C834 H828 0.930 . S
C834 C835 1.367 . S
C834 C842 1.378 . S
C835 C834 1.367 . S
C835 C843 1.433 . S
C836 H832 0.929 . S
C836 C838 1.378 . S
C836 C840 1.350 . S
C837 C840 1.463 . S
C837 C842 1.350 . S
C837 N845 1.427 . S
C838 H829 0.930 . S
C838 C836 1.378 . S
C838 C839 1.367 . S
C839 C838 1.367 . S
C839 C841 1.433 . S
C840 C836 1.350 . S
C840 C837 1.463 . S
C840 N844 1.427 . S
C841 H831 0.929 . S
C841 C839 1.433 . S
C841 N844 1.384 . S
C842 H833 0.929 . S
C842 C834 1.378 . S
C842 C837 1.350 . S
C843 H830 0.929 . S
C843 C835 1.433 . S
C843 N845 1.384 . S
N844 C840 1.427 . S
N844 C841 1.384 . S
N845 C837 1.427 . S
N845 C843 1.384 . S
H846 C852 0.930 . S
H847 C856 0.930 . S
H848 C861 0.929 . S
H849 C859 0.929 . S
H850 C854 0.929 . S
H851 C860 0.929 . S
C852 H846 0.930 . S
C852 C853 1.367 . S
C852 C860 1.378 . S
C853 C852 1.367 . S
C853 C861 1.433 . S
C854 H850 0.929 . S
C854 C856 1.378 . S
C854 C858 1.350 . S
C855 C858 1.463 . S
C855 C860 1.350 . S
C855 N863 1.427 . S
C856 H847 0.930 . S
C856 C854 1.378 . S
C856 C857 1.367 . S
C857 C856 1.367 . S
C857 C859 1.433 . S
C858 C854 1.350 . S
C858 C855 1.463 . S
C858 N862 1.427 . S
C859 H849 0.929 . S
C859 C857 1.433 . S
C859 N862 1.384 . S
C860 H851 0.929 . S
C860 C852 1.378 . S
C860 C855 1.350 . S
C861 H848 0.929 . S
C861 C853 1.433 . S
C861 N863 1.384 . S
N862 C858 1.427 . S
N862 C859 1.384 . S
N863 C855 1.427 . S
N863 C861 1.384 . S
H864 C870 0.930 . S
H865 C874 0.930 . S
H866 C879 0.929 . S
H867 C877 0.929 . S
H868 C872 0.929 . S
H869 C878 0.929 . S
C870 H864 0.930 . S
C870 C871 1.367 . S
C870 C878 1.378 . S
C871 C870 1.367 . S
C871 C879 1.433 . S
C872 H868 0.929 . S
C872 C874 1.378 . S
C872 C876 1.350 . S
C873 C876 1.463 . S
C873 C878 1.350 . S
C873 N881 1.427 . S
C874 H865 0.930 . S
C874 C872 1.378 . S
C874 C875 1.367 . S
C875 C874 1.367 . S
C875 C877 1.433 . S
C876 C872 1.350 . S
C876 C873 1.463 . S
C876 N880 1.427 . S
C877 H867 0.929 . S
C877 C875 1.433 . S
C877 N880 1.384 . S
C878 H869 0.929 . S
C878 C870 1.378 . S
C878 C873 1.350 . S
C879 H866 0.929 . S
C879 C871 1.433 . S
C879 N881 1.384 . S
N880 C876 1.427 . S
N880 C877 1.384 . S
N881 C873 1.427 . S
N881 C879 1.384 . S
H882 C888 0.930 . S
H883 C892 0.930 . S
H884 C897 0.929 . S
H885 C895 0.929 . S
H886 C890 0.929 . S
H887 C896 0.929 . S
C888 H882 0.930 . S
C888 C889 1.367 . S
C888 C896 1.378 . S
C889 C888 1.367 . S
C889 C897 1.433 . S
C890 H886 0.929 . S
C890 C892 1.378 . S
C890 C894 1.350 . S
C891 C894 1.463 . S
C891 C896 1.350 . S
C891 N899 1.427 . S
C892 H883 0.930 . S
C892 C890 1.378 . S
C892 C893 1.367 . S
C893 C892 1.367 . S
C893 C895 1.433 . S
C894 C890 1.350 . S
C894 C891 1.463 . S
C894 N898 1.427 . S
C895 H885 0.929 . S
C895 C893 1.433 . S
C895 N898 1.384 . S
C896 H887 0.929 . S
C896 C888 1.378 . S
C896 C891 1.350 . S
C897 H884 0.929 . S
C897 C889 1.433 . S
C897 N899 1.384 . S
N898 C894 1.427 . S
N898 C895 1.384 . S
N899 C891 1.427 . S
N899 C897 1.384 . S
H900 C906 0.930 . S
H901 C910 0.930 . S
H902 C915 0.929 . S
H903 C913 0.929 . S
H904 C908 0.929 . S
H905 C914 0.929 . S
C906 H900 0.930 . S
C906 C907 1.367 . S
C906 C914 1.378 . S
C907 C906 1.367 . S
C907 C915 1.433 . S
C908 H904 0.929 . S
C908 C910 1.378 . S
C908 C912 1.350 . S
C909 C912 1.463 . S
C909 C914 1.350 . S
C909 N917 1.427 . S
C910 H901 0.930 . S
C910 C908 1.378 . S
C910 C911 1.367 . S
C911 C910 1.367 . S
C911 C913 1.433 . S
C912 C908 1.350 . S
C912 C909 1.463 . S
C912 N916 1.427 . S
C913 H903 0.929 . S
C913 C911 1.433 . S
C913 N916 1.384 . S
C914 H905 0.929 . S
C914 C906 1.378 . S
C914 C909 1.350 . S
C915 H902 0.929 . S
C915 C907 1.433 . S
C915 N917 1.384 . S
N916 C912 1.427 . S
N916 C913 1.384 . S
N917 C909 1.427 . S
N917 C915 1.384 . S
H918 C924 0.930 . S
H919 C928 0.930 . S
H920 C933 0.929 . S
H921 C931 0.929 . S
H922 C926 0.929 . S
H923 C932 0.929 . S
C924 H918 0.930 . S
C924 C925 1.367 . S
C924 C932 1.378 . S
C925 C924 1.367 . S
C925 C933 1.433 . S
C926 H922 0.929 . S
C926 C928 1.378 . S
C926 C930 1.350 . S
C927 C930 1.463 . S
C927 C932 1.350 . S
C927 N935 1.427 . S
C928 H919 0.930 . S
C928 C926 1.378 . S
C928 C929 1.367 . S
C929 C928 1.367 . S
C929 C931 1.433 . S
C930 C926 1.350 . S
C930 C927 1.463 . S
C930 N934 1.427 . S
C931 H921 0.929 . S
C931 C929 1.433 . S
C931 N934 1.384 . S
C932 H923 0.929 . S
C932 C924 1.378 . S
C932 C927 1.350 . S
C933 H920 0.929 . S
C933 C925 1.433 . S
C933 N935 1.384 . S
N934 C930 1.427 . S
N934 C931 1.384 . S
N935 C927 1.427 . S
N935 C933 1.384 . S
C403 C173 1.639 . S
C407 N5 1.723 . S
C421 C8 1.646 . S
C425 N38 1.724 . S
C439 C41 1.641 . S
C443 N71 1.723 . S
C457 N104 1.723 . S
C461 C74 1.638 . S
C475 N137 1.725 . S
C479 C107 1.651 . S
C493 C140 1.641 . S
C497 N170 1.723 . S
C511 C239 1.640 . S
C515 N203 1.723 . S
C529 C272 1.638 . S
C533 N236 1.723 . S
C547 C305 1.645 . S
C551 N269 1.724 . S
C565 C338 1.641 . S
C569 N302 1.723 . S
C583 C371 1.651 . S
C587 N335 1.725 . S
C601 C206 1.647 . S
C605 N368 1.724 . S
C619 N278 1.296 . S
C623 N14 1.308 . S
C637 N47 1.294 . S
C641 N311 1.308 . S
C655 N80 1.298 . S
C659 N344 1.297 . S
C673 N113 1.299 . S
C677 N377 1.296 . S
C691 N146 1.292 . S
C695 N212 1.308 . S
C709 N245 1.304 . S
C713 N179 1.301 . S
C727 C314 1.091 . S
C731 C17 1.097 . S
C745 C347 1.095 . S
C749 C50 1.092 . S
C763 C83 1.094 . S
C767 C380 1.094 . S
C781 C116 1.092 . S
C785 C215 1.096 . S
C799 C149 1.097 . S
C803 C248 1.091 . S
C817 C281 1.093 . S
C821 C182 1.095 . S
C835 C28 0.942 . S
C839 C226 0.943 . S
C853 C259 0.925 . S
C857 C61 0.922 . S
C871 C94 0.921 . S
C875 C292 0.922 . S
C889 C325 0.921 . S
C893 C127 0.921 . S
C907 C358 0.935 . S
C911 C160 0.931 . S
C925 C391 0.922 . S
C929 C193 0.921 . S
