# Generated by pormake.
# Topology ung, (4)-cn, num edge types: 1
# Building blocks:
#     Node 0, Type 0, BuildingBlock: GALJAG_clean_sbu_0, # of connection points: 4
#     Node 1, Type 0, BuildingBlock: GALJAG_clean_sbu_0, # of connection points: 4
#     Node 2, Type 0, BuildingBlock: GALJAG_clean_sbu_0, # of connection points: 4
#     Node 3, Type 0, BuildingBlock: GALJAG_clean_sbu_0, # of connection points: 4
#     Node 4, Type 0, BuildingBlock: GALJAG_clean_sbu_0, # of connection points: 4
#     Node 5, Type 0, BuildingBlock: GALJAG_clean_sbu_0, # of connection points: 4
#     Node 6, Type 0, BuildingBlock: GALJAG_clean_sbu_0, # of connection points: 4
#     Node 7, Type 0, BuildingBlock: GALJAG_clean_sbu_0, # of connection points: 4
#     Node 8, Type 0, BuildingBlock: GALJAG_clean_sbu_0, # of connection points: 4
#     Node 9, Type 0, BuildingBlock: GALJAG_clean_sbu_0, # of connection points: 4
#     Node 10, Type 0, BuildingBlock: GALJAG_clean_sbu_0, # of connection points: 4
#     Node 11, Type 0, BuildingBlock: GALJAG_clean_sbu_0, # of connection points: 4
#     Node 12, Type 0, BuildingBlock: GALJAG_clean_sbu_0, # of connection points: 4
#     Node 13, Type 0, BuildingBlock: GALJAG_clean_sbu_0, # of connection points: 4
#     Node 14, Type 0, BuildingBlock: GALJAG_clean_sbu_0, # of connection points: 4
#     Node 15, Type 0, BuildingBlock: GALJAG_clean_sbu_0, # of connection points: 4
#     Node 16, Type 0, BuildingBlock: GALJAG_clean_sbu_0, # of connection points: 4
#     Node 17, Type 0, BuildingBlock: GALJAG_clean_sbu_0, # of connection points: 4
#     Edge 18, Type (0, 0), BuildingBlock: CIFDUS_clean_linker_0, # of connection points: 2
#     Edge 19, Type (0, 0), BuildingBlock: CIFDUS_clean_linker_0, # of connection points: 2
#     Edge 20, Type (0, 0), BuildingBlock: CIFDUS_clean_linker_0, # of connection points: 2
#     Edge 21, Type (0, 0), BuildingBlock: CIFDUS_clean_linker_0, # of connection points: 2
#     Edge 22, Type (0, 0), BuildingBlock: CIFDUS_clean_linker_0, # of connection points: 2
#     Edge 23, Type (0, 0), BuildingBlock: CIFDUS_clean_linker_0, # of connection points: 2
#     Edge 24, Type (0, 0), BuildingBlock: CIFDUS_clean_linker_0, # of connection points: 2
#     Edge 25, Type (0, 0), BuildingBlock: CIFDUS_clean_linker_0, # of connection points: 2
#     Edge 26, Type (0, 0), BuildingBlock: CIFDUS_clean_linker_0, # of connection points: 2
#     Edge 27, Type (0, 0), BuildingBlock: CIFDUS_clean_linker_0, # of connection points: 2
#     Edge 28, Type (0, 0), BuildingBlock: CIFDUS_clean_linker_0, # of connection points: 2
#     Edge 29, Type (0, 0), BuildingBlock: CIFDUS_clean_linker_0, # of connection points: 2
#     Edge 30, Type (0, 0), BuildingBlock: CIFDUS_clean_linker_0, # of connection points: 2
#     Edge 31, Type (0, 0), BuildingBlock: CIFDUS_clean_linker_0, # of connection points: 2
#     Edge 32, Type (0, 0), BuildingBlock: CIFDUS_clean_linker_0, # of connection points: 2
#     Edge 33, Type (0, 0), BuildingBlock: CIFDUS_clean_linker_0, # of connection points: 2
#     Edge 34, Type (0, 0), BuildingBlock: CIFDUS_clean_linker_0, # of connection points: 2
#     Edge 35, Type (0, 0), BuildingBlock: CIFDUS_clean_linker_0, # of connection points: 2
#     Edge 36, Type (0, 0), BuildingBlock: CIFDUS_clean_linker_0, # of connection points: 2
#     Edge 37, Type (0, 0), BuildingBlock: CIFDUS_clean_linker_0, # of connection points: 2
#     Edge 38, Type (0, 0), BuildingBlock: CIFDUS_clean_linker_0, # of connection points: 2
#     Edge 39, Type (0, 0), BuildingBlock: CIFDUS_clean_linker_0, # of connection points: 2
#     Edge 40, Type (0, 0), BuildingBlock: CIFDUS_clean_linker_0, # of connection points: 2
#     Edge 41, Type (0, 0), BuildingBlock: CIFDUS_clean_linker_0, # of connection points: 2
#     Edge 42, Type (0, 0), BuildingBlock: CIFDUS_clean_linker_0, # of connection points: 2
#     Edge 43, Type (0, 0), BuildingBlock: CIFDUS_clean_linker_0, # of connection points: 2
#     Edge 44, Type (0, 0), BuildingBlock: CIFDUS_clean_linker_0, # of connection points: 2
#     Edge 45, Type (0, 0), BuildingBlock: CIFDUS_clean_linker_0, # of connection points: 2
#     Edge 46, Type (0, 0), BuildingBlock: CIFDUS_clean_linker_0, # of connection points: 2
#     Edge 47, Type (0, 0), BuildingBlock: CIFDUS_clean_linker_0, # of connection points: 2
#     Edge 48, Type (0, 0), BuildingBlock: CIFDUS_clean_linker_0, # of connection points: 2
#     Edge 49, Type (0, 0), BuildingBlock: CIFDUS_clean_linker_0, # of connection points: 2
#     Edge 50, Type (0, 0), BuildingBlock: CIFDUS_clean_linker_0, # of connection points: 2
#     Edge 51, Type (0, 0), BuildingBlock: CIFDUS_clean_linker_0, # of connection points: 2
#     Edge 52, Type (0, 0), BuildingBlock: CIFDUS_clean_linker_0, # of connection points: 2
#     Edge 53, Type (0, 0), BuildingBlock: CIFDUS_clean_linker_0, # of connection points: 2
# Relax obj value: 0.030
# Max RMSD: 0.133
# Mean RMSD: 0.133
data_MOF--net-ung--node1-GALJAG_clean_sbu_0--edge1-CIFDUS_clean_linker_0
_symmetry_space_group_name_H-M    P1
_symmetry_Int_Tables_number       1
_symmetry_cell_setting            triclinic
loop_
_symmetry_equiv_pos_as_xyz
'x, y, z'
_cell_length_a     69.185373
_cell_length_b     69.034701
_cell_length_c     17.931102
_cell_angle_alpha  89.796571
_cell_angle_beta   90.220592
_cell_angle_gamma 119.86275
loop_
_atom_site_label
_atom_site_type_symbol
_atom_site_fract_x
_atom_site_fract_y
_atom_site_fract_z
_atom_type_partial_charge
In0 In 0.08771 0.65654 0.26314 0.0
O1 O 0.10474 0.64856 0.16907 0.0
O2 O 0.0706 0.62541 0.19418 0.0
C3 C 0.11719 0.69556 0.32507 0.0
C4 C 0.0873 0.62889 0.36828 0.0
C5 C 0.05856 0.6677 0.20666 0.0
O6 O 0.11971 0.69073 0.25904 0.0
O7 O 0.10005 0.68094 0.35823 0.0
O8 O 0.05575 0.65877 0.2705 0.0
O9 O 0.07587 0.67094 0.17281 0.0
C10 C 0.08744 0.63001 0.15478 0.0
O11 O 0.0702 0.63058 0.35419 0.0
O12 O 0.10438 0.64137 0.33007 0.0
In13 In 0.50885 0.51952 0.25326 0.0
O14 O 0.51441 0.54316 0.15604 0.0
O15 O 0.53672 0.53036 0.17202 0.0
C16 C 0.47522 0.51081 0.34456 0.0
C17 C 0.53926 0.54834 0.34696 0.0
C18 C 0.4904 0.47883 0.19352 0.0
O19 O 0.47738 0.5205 0.28218 0.0
O20 O 0.48996 0.50563 0.35974 0.0
O21 O 0.50776 0.48619 0.23395 0.0
O22 O 0.48283 0.49197 0.18398 0.0
C23 C 0.53184 0.54296 0.13502 0.0
O24 O 0.53692 0.52904 0.33692 0.0
O25 O 0.52618 0.55259 0.31011 0.0
In26 In 0.65363 0.08315 0.2186 0.0
O27 O 0.62894 0.06719 0.12275 0.0
O28 O 0.63822 0.10039 0.15858 0.0
C29 C 0.66769 0.0585 0.29047 0.0
C30 C 0.62398 0.07826 0.32067 0.0
C31 C 0.69081 0.1125 0.14933 0.0
O32 O 0.65814 0.05249 0.22729 0.0
O33 O 0.67053 0.07689 0.3149 0.0
O34 O 0.68556 0.11701 0.21209 0.0
O35 O 0.67781 0.09316 0.1243 0.0
C36 C 0.62665 0.0843 0.11506 0.0
O37 O 0.64181 0.09686 0.31149 0.0
O38 O 0.62171 0.06239 0.27952 0.0
In39 In 0.06575 0.50587 0.76716 0.0
O40 O 0.08452 0.53261 0.6794 0.0
O41 O 0.04985 0.52122 0.6987 0.0
C42 C 0.08714 0.48901 0.84325 0.0
C43 C 0.06511 0.53128 0.87691 0.0
C44 C 0.04346 0.47004 0.6813 0.0
O45 O 0.09739 0.50493 0.79708 0.0
O46 O 0.06652 0.4821 0.85055 0.0
O47 O 0.03379 0.47422 0.73393 0.0
O48 O 0.06399 0.48399 0.67305 0.0
C49 C 0.0674 0.53413 0.6631 0.0
O50 O 0.04762 0.5132 0.85909 0.0
O51 O 0.08247 0.53577 0.84047 0.0
In52 In 0.65686 0.64921 0.75491 0.0
O53 O 0.64894 0.62336 0.84654 0.0
O54 O 0.62544 0.63413 0.82207 0.0
C55 C 0.69687 0.66537 0.69332 0.0
C56 C 0.63291 0.62441 0.64015 0.0
C57 C 0.66975 0.68775 0.8244 0.0
O58 O 0.69002 0.64982 0.7415 0.0
O59 O 0.68336 0.67193 0.67561 0.0
O60 O 0.65525 0.68118 0.7727 0.0
O61 O 0.67662 0.67446 0.84205 0.0
C62 C 0.63013 0.6216 0.8602 0.0
O63 O 0.63278 0.64209 0.65858 0.0
O64 O 0.6455 0.61988 0.67855 0.0
In65 In 0.50966 0.07595 0.71296 0.0
O66 O 0.533 0.08991 0.81305 0.0
O67 O 0.52615 0.05854 0.76701 0.0
C68 C 0.49499 0.10369 0.6712 0.0
C69 C 0.53659 0.0816 0.59879 0.0
C70 C 0.47109 0.04361 0.76725 0.0
O71 O 0.51008 0.10941 0.72043 0.0
O72 O 0.48764 0.08435 0.64474 0.0
O73 O 0.4771 0.04292 0.70107 0.0
O74 O 0.48458 0.06039 0.80506 0.0
C75 C 0.53644 0.07347 0.81543 0.0
O76 O 0.51956 0.06282 0.61238 0.0
O77 O 0.53935 0.09731 0.64122 0.0
In78 In 0.75195 0.98902 0.58131 0.0
O79 O 0.72997 0.96365 0.66968 0.0
O80 O 0.76456 0.97364 0.66488 0.0
C81 C 0.72791 0.00059 0.49306 0.0
C82 C 0.75587 0.96228 0.48348 0.0
C83 C 0.77746 0.02808 0.65019 0.0
O84 O 0.72059 0.99108 0.55549 0.0
O85 O 0.74717 0.0043 0.47626 0.0
O86 O 0.78564 0.02055 0.60292 0.0
O87 O 0.75677 0.01603 0.66097 0.0
C88 C 0.74591 0.9615 0.69545 0.0
O89 O 0.77235 0.98125 0.49982 0.0
O90 O 0.7378 0.95733 0.51591 0.0
In91 In 0.18069 0.85601 0.55239 0.0
O92 O 0.18862 0.88478 0.47218 0.0
O93 O 0.2122 0.87358 0.48592 0.0
C94 C 0.14086 0.84453 0.61247 0.0
C95 C 0.20786 0.87804 0.66576 0.0
C96 C 0.17183 0.81864 0.4785 0.0
O97 O 0.14649 0.8539 0.54929 0.0
O98 O 0.15514 0.84101 0.64395 0.0
O99 O 0.18 0.82257 0.54362 0.0
O100 O 0.16802 0.83334 0.45189 0.0
C101 C 0.20747 0.88718 0.45516 0.0
O102 O 0.20473 0.85914 0.64505 0.0
O103 O 0.19693 0.88526 0.63028 0.0
In104 In 0.31781 0.41991 0.58694 0.0
O105 O 0.2953 0.40631 0.48484 0.0
O106 O 0.30437 0.43891 0.52624 0.0
C107 C 0.32898 0.3918 0.65045 0.0
C108 C 0.28703 0.41515 0.68473 0.0
C109 C 0.35691 0.45027 0.53064 0.0
O110 O 0.32084 0.38833 0.58506 0.0
O111 O 0.33169 0.40934 0.6818 0.0
O112 O 0.35091 0.45287 0.59488 0.0
O113 O 0.34368 0.43237 0.49754 0.0
C114 C 0.29369 0.42383 0.47854 0.0
O115 O 0.30536 0.4334 0.67867 0.0
O116 O 0.28478 0.39941 0.64308 0.0
In117 In 0.7435 0.84438 0.08534 0.0
O118 O 0.76517 0.87074 -0.00072 0.0
O119 O 0.7314 0.86298 0.01347 0.0
C120 C 0.7658 0.82645 0.15093 0.0
C121 C 0.74128 0.86738 0.20116 0.0
C122 C 0.71693 0.80754 0.00791 0.0
O123 O 0.7756 0.84322 0.10794 0.0
O124 O 0.74532 0.81944 0.1614 0.0
O125 O 0.70924 0.81419 0.05981 0.0
O126 O 0.73746 0.81989 -0.00548 0.0
C127 C 0.74973 0.87462 0.98037 0.0
O128 O 0.72411 0.85013 0.17695 0.0
O129 O 0.75922 0.87235 0.16796 0.0
In130 In 0.3245 0.99144 0.05575 0.0
O131 O 0.31951 0.96815 0.15377 0.0
O132 O 0.2983 0.98213 0.14491 0.0
C133 C 0.36043 0.99238 -0.0036 0.0
C134 C 0.29423 0.96749 0.95108 0.0
C135 C 0.34134 0.03495 0.09014 0.0
O136 O 0.35567 0.98836 0.06488 0.0
O137 O 0.34687 0.99557 0.95818 0.0
O138 O 0.32124 0.02284 0.07092 0.0
O139 O 0.35262 0.02524 0.09114 0.0
C140 C 0.30316 0.96927 0.17983 0.0
O141 O 0.3021 0.98835 0.95721 0.0
O142 O 0.30177 0.95907 -0.00283 0.0
In143 In 0.17768 0.41815 0.07973 0.0
O144 O 0.18372 0.4031 0.97561 0.0
O145 O 0.20412 0.43817 -0.00404 0.0
C146 C 0.14411 0.388 0.1622 0.0
C147 C 0.20896 0.41835 0.16698 0.0
C148 C 0.1596 0.44291 0.03878 0.0
O149 O 0.14652 0.38413 0.09467 0.0
O150 O 0.15839 0.40701 0.18657 0.0
O151 O 0.17715 0.45108 0.0784 0.0
O152 O 0.15143 0.42258 0.02158 0.0
C153 C 0.20005 0.42169 0.95518 0.0
O154 O 0.20478 0.43432 0.16835 0.0
O155 O 0.19744 0.4028 0.12173 0.0
In156 In 0.41855 0.32407 0.90962 0.0
O157 O 0.39752 0.29927 0.00039 0.0
O158 O 0.43218 0.30973 -0.00614 0.0
C159 C 0.39248 0.33386 0.82517 0.0
C160 C 0.42264 0.29753 0.81101 0.0
C161 C 0.44358 0.36399 0.97433 0.0
O162 O 0.3861 0.32425 0.8879 0.0
O163 O 0.41185 0.33848 0.80584 0.0
O164 O 0.45204 0.35619 0.92921 0.0
O165 O 0.42293 0.35175 0.98526 0.0
C166 C 0.41377 0.29764 0.02592 0.0
O167 O 0.43886 0.3168 0.82586 0.0
O168 O 0.40475 0.29217 0.84535 0.0
In169 In 0.8457 0.18576 0.90829 0.0
O170 O 0.87019 0.19366 0.0039 0.0
O171 O 0.86605 0.21991 0.95588 0.0
C172 C 0.82646 0.14324 0.86538 0.0
C173 C 0.87128 0.20572 0.79029 0.0
C174 C 0.81053 0.18218 0.98087 0.0
O175 O 0.84365 0.15162 0.90676 0.0
O176 O 0.81936 0.15624 0.84656 0.0
O177 O 0.81398 0.18809 0.91283 0.0
O178 O 0.82484 0.17839 0.01117 0.0
C179 C 0.87573 0.21421 0.00377 0.0
O180 O 0.85605 0.20979 0.80991 0.0
O181 O 0.87254 0.19087 0.82774 0.0
In182 In 0.99186 0.75296 0.91069 0.0
O183 O 0.98548 0.77316 -0.00252 0.0
O184 O 0.96129 0.7387 0.98308 0.0
C185 C 0.03122 0.78408 0.85382 0.0
C186 C 0.96293 0.74814 0.80283 0.0
C187 C 0.0025 0.72335 0.96862 0.0
O188 O 0.02592 0.78489 0.92066 0.0
O189 O 0.01681 0.76777 0.8168 0.0
O190 O -0.0039 0.72208 0.90177 0.0
O191 O 0.00334 0.73927 0.00531 0.0
C192 C 0.96682 0.75681 0.01638 0.0
O193 O 0.96586 0.73214 0.82257 0.0
O194 O 0.97482 0.76632 0.83666 0.0
In195 In 0.41134 0.18021 0.41265 0.0
O196 O 0.39155 0.18584 0.50298 0.0
O197 O 0.42686 0.20758 0.49724 0.0
C198 C 0.3857 0.14593 0.32334 0.0
C199 C 0.41868 0.21193 0.31291 0.0
C200 C 0.43102 0.16004 0.48081 0.0
O201 O 0.37757 0.15077 0.37883 0.0
O202 O 0.40641 0.15854 0.31357 0.0
O203 O 0.44218 0.17732 0.44093 0.0
O204 O 0.41048 0.15352 0.48632 0.0
C205 C 0.40873 0.20278 0.52885 0.0
O206 O 0.43389 0.20753 0.33057 0.0
O207 O 0.4002 0.2002 0.3451 0.0
In208 In 0.99105 0.31695 0.41614 0.0
O209 O 0.98237 0.29357 0.51641 0.0
O210 O 0.9655 0.31216 0.50165 0.0
C211 C 0.02653 0.32037 0.34563 0.0
C212 C 0.96061 0.28784 0.32245 0.0
C213 C 0.00747 0.35999 0.44987 0.0
O214 O 0.02377 0.3163 0.41507 0.0
O215 O 0.01149 0.32256 0.31325 0.0
O216 O 0.9895 0.34928 0.41325 0.0
O217 O 0.01698 0.3491 0.46795 0.0
C218 C 0.9674 0.29766 0.53879 0.0
O219 O 0.96653 0.30846 0.32029 0.0
O220 O 0.97002 0.2823 0.37175 0.0
In221 In 0.84982 0.75059 0.4076 0.0
O222 O 0.85478 0.73073 0.31543 0.0
O223 O 0.87907 0.76512 0.32945 0.0
C224 C 0.8124 0.72227 0.48008 0.0
C225 C 0.87867 0.75559 0.51611 0.0
C226 C 0.83546 0.77635 0.34312 0.0
O227 O 0.81938 0.71595 0.42528 0.0
O228 O 0.82434 0.7426 0.49744 0.0
O229 O 0.85137 0.78428 0.38967 0.0
O230 O 0.82722 0.7558 0.32945 0.0
C231 C 0.87311 0.74717 0.29459 0.0
O232 O 0.87501 0.77125 0.4983 0.0
O233 O 0.86761 0.73772 0.4799 0.0
H234 H 0.1 0.57153 0.91242 0.0
H235 H 0.03108 0.52632 0.96717 0.0
H236 H 0.03198 0.55329 0.05757 0.0
H237 H 0.05236 0.58963 0.11999 0.0
H238 H 0.12122 0.63481 0.06417 0.0
H239 H 0.12028 0.6078 0.9742 0.0
C240 C 0.08516 0.56749 0.9443 0.0
C241 C 0.06549 0.54694 0.93342 0.0
C242 C 0.08578 0.58307 -0.00461 0.0
C243 C 0.04641 0.54202 0.9748 0.0
C244 C 0.04692 0.55743 0.02626 0.0
C245 C 0.06716 0.59362 0.08798 0.0
C246 C 0.08685 0.61419 0.09854 0.0
C247 C 0.0665 0.57802 0.03677 0.0
C248 C 0.10588 0.61911 0.05684 0.0
C249 C 0.10535 0.60366 0.00562 0.0
H250 H 0.58919 0.61507 0.89312 0.0
H251 H 0.63512 0.5919 0.94773 0.0
H252 H 0.60801 0.56467 0.03485 0.0
H253 H 0.5717 0.54797 0.09617 0.0
H254 H 0.52595 0.57152 0.04382 0.0
H255 H 0.5526 0.59806 0.95379 0.0
C256 C 0.5933 0.60409 0.92418 0.0
C257 C 0.61415 0.60553 0.91431 0.0
C258 C 0.57766 0.58852 0.97389 0.0
C259 C 0.61921 0.59116 0.95467 0.0
C260 C 0.60371 0.57557 0.00424 0.0
C261 C 0.56744 0.55878 0.06467 0.0
C262 C 0.54686 0.55778 0.07639 0.0
C263 C 0.58293 0.57414 0.01423 0.0
C264 C 0.54166 0.57196 0.03552 0.0
C265 C 0.55691 0.58716 0.98437 0.0
H266 H 0.59825 0.0522 0.01849 0.0
H267 H 0.6201 0.11947 0.0923 0.0
H268 H 0.59381 0.12193 0.00777 0.0
H269 H 0.56452 0.1051 0.91276 0.0
H270 H 0.54281 0.03805 0.83734 0.0
H271 H 0.56896 0.03538 0.9226 0.0
C272 C 0.59728 0.06739 0.01578 0.0
C273 C 0.6111 0.08559 0.06147 0.0
C274 C 0.58206 0.06874 0.96698 0.0
C275 C 0.60965 0.10518 0.05759 0.0
C276 C 0.59458 0.10663 0.00936 0.0
C277 C 0.56547 0.08989 0.91529 0.0
C278 C 0.55176 0.07182 0.86906 0.0
C279 C 0.58067 0.08851 0.96393 0.0
C280 C 0.55322 0.05223 0.87251 0.0
C281 C 0.56818 0.05067 0.92116 0.0
H282 H 0.61985 0.11055 0.39217 0.0
H283 H 0.58803 0.03914 0.36307 0.0
H284 H 0.55734 0.03387 0.44306 0.0
H285 H 0.53973 0.04949 0.52241 0.0
H286 H 0.57155 0.12089 0.55192 0.0
H287 H 0.60186 0.12624 0.46972 0.0
C288 C 0.60626 0.09386 0.40381 0.0
C289 C 0.60623 0.07528 0.37227 0.0
C290 C 0.58855 0.09094 0.44918 0.0
C291 C 0.58843 0.05372 0.387 0.0
C292 C 0.57084 0.05067 0.43248 0.0
C293 C 0.55317 0.06622 0.51007 0.0
C294 C 0.55343 0.08474 0.54292 0.0
C295 C 0.57069 0.06916 0.46371 0.0
C296 C 0.57101 0.10634 0.5271 0.0
C297 C 0.58839 0.10942 0.48043 0.0
H298 H 0.05208 0.59715 0.44578 0.0
H299 H 0.12277 0.6249 0.41314 0.0
H300 H 0.12296 0.59783 0.50062 0.0
H301 H 0.10295 0.56607 0.58621 0.0
H302 H 0.03219 0.53833 0.61781 0.0
H303 H 0.03212 0.56547 0.53081 0.0
C304 C 0.06752 0.59732 0.45812 0.0
C305 C 0.08735 0.61299 0.42327 0.0
C306 C 0.0675 0.58162 0.50802 0.0
C307 C 0.10725 0.61297 0.43939 0.0
C308 C 0.10739 0.59749 0.4893 0.0
C309 C 0.08754 0.56594 0.57377 0.0
C310 C 0.06764 0.55023 0.6083 0.0
C311 C 0.08759 0.58167 0.52378 0.0
C312 C 0.04777 0.55028 0.59191 0.0
C313 C 0.04769 0.56581 0.54224 0.0
H314 H 0.60184 0.62801 0.55802 0.0
H315 H 0.63105 0.58614 0.5928 0.0
H316 H 0.60476 0.55884 0.5046 0.0
H317 H 0.57249 0.54614 0.42097 0.0
H318 H 0.54339 0.58814 0.38642 0.0
H319 H 0.57053 0.616 0.47113 0.0
C320 C 0.60256 0.61301 0.54573 0.0
C321 C 0.61828 0.60907 0.58191 0.0
C322 C 0.58729 0.59728 0.49543 0.0
C323 C 0.61904 0.58954 0.56563 0.0
C324 C 0.60398 0.57388 0.51538 0.0
C325 C 0.57213 0.5614 0.43206 0.0
C326 C 0.55593 0.56502 0.39792 0.0
C327 C 0.58785 0.57744 0.48065 0.0
C328 C 0.55571 0.58493 0.41224 0.0
C329 C 0.57122 0.6009 0.46062 0.0
H330 H 0.77547 0.90656 0.24939 0.0
H331 H 0.70544 0.8606 0.28449 0.0
H332 H 0.70407 0.88597 0.37652 0.0
H333 H 0.72248 0.92161 0.44316 0.0
H334 H 0.79232 0.96795 0.40612 0.0
H335 H 0.79407 0.9419 0.31789 0.0
C336 C 0.75992 0.902 0.27754 0.0
C337 C 0.74056 0.88176 0.26028 0.0
C338 C 0.75922 0.91676 0.32938 0.0
C339 C 0.72055 0.8761 0.29696 0.0
C340 C 0.71976 0.89061 0.34934 0.0
C341 C 0.73812 0.92602 0.41587 0.0
C342 C 0.75725 0.9467 0.43078 0.0
C343 C 0.73894 0.91106 0.3653 0.0
C344 C 0.77737 0.95216 0.39526 0.0
C345 C 0.77837 0.93728 0.34498 0.0
H346 H 0.24885 0.89574 0.42 0.0
H347 H 0.20167 0.91818 0.37797 0.0
H348 H 0.22815 0.94696 0.29311 0.0
H349 H 0.26396 0.96448 0.22725 0.0
H350 H 0.31059 0.94122 0.26723 0.0
H351 H 0.28508 0.9141 0.35795 0.0
C352 C 0.24434 0.90694 0.39235 0.0
C353 C 0.22329 0.90476 0.40462 0.0
C354 C 0.25956 0.92331 0.34382 0.0
C355 C 0.21774 0.91947 0.36894 0.0
C356 C 0.23288 0.93593 0.32064 0.0
C357 C 0.26866 0.95365 0.25648 0.0
C358 C 0.28909 0.95478 0.24064 0.0
C359 C 0.25375 0.93785 0.30726 0.0
C360 C 0.29494 0.94062 0.27859 0.0
C361 C 0.28034 0.92508 0.33014 0.0
H362 H 0.2702 0.39546 0.36574 0.0
H363 H 0.28616 0.45867 0.46444 0.0
H364 H 0.26202 0.46307 0.37513 0.0
H365 H 0.23522 0.44836 0.27184 0.0
H366 H 0.2193 0.38523 0.17272 0.0
H367 H 0.2446 0.38152 0.25878 0.0
C368 C 0.26844 0.41021 0.36737 0.0
C369 C 0.27983 0.42661 0.42171 0.0
C370 C 0.25451 0.41268 0.31582 0.0
C371 C 0.27752 0.44573 0.42311 0.0
C372 C 0.2637 0.44829 0.37213 0.0
C373 C 0.23741 0.43388 0.26889 0.0
C374 C 0.22534 0.41708 0.21645 0.0
C375 C 0.25195 0.43178 0.31868 0.0
C376 C 0.22836 0.3984 0.21294 0.0
C377 C 0.24281 0.39622 0.26215 0.0
H378 H 0.20278 0.38836 0.88491 0.0
H379 H 0.23243 0.46006 0.89337 0.0
H380 H 0.26228 0.46443 0.81084 0.0
H381 H 0.28125 0.44801 0.7427 0.0
H382 H 0.25163 0.37637 0.73295 0.0
H383 H 0.22062 0.37183 0.81025 0.0
C384 C 0.21555 0.40489 0.86751 0.0
C385 C 0.21548 0.42384 0.89528 0.0
C386 C 0.2329 0.40732 0.82109 0.0
C387 C 0.23219 0.4452 0.87277 0.0
C388 C 0.24934 0.44774 0.82599 0.0
C389 C 0.26806 0.43144 0.75793 0.0
C390 C 0.26881 0.41258 0.73328 0.0
C391 C 0.25015 0.42895 0.80128 0.0
C392 C 0.25143 0.39115 0.75194 0.0
C393 C 0.23367 0.38853 0.79583 0.0
H394 H 0.71879 0.88523 0.93487 0.0
H395 H 0.78746 0.90285 0.90329 0.0
H396 H 0.7924 0.93189 0.81423 0.0
H397 H 0.77711 0.95188 0.74498 0.0
H398 H 0.7083 0.93397 0.77481 0.0
H399 H 0.70352 0.90541 0.8659 0.0
C400 C 0.73484 0.8954 0.90843 0.0
C401 C 0.75274 0.89188 0.92543 0.0
C402 C 0.73753 0.91201 0.85747 0.0
C403 C 0.77343 0.9052 0.8909 0.0
C404 C 0.77626 0.92182 0.84017 0.0
C405 C 0.76108 0.94182 0.7717 0.0
C406 C 0.74307 0.94504 0.75338 0.0
C407 C 0.75842 0.92534 0.8231 0.0
C408 C 0.7224 0.93182 0.78814 0.0
C409 C 0.71967 0.91547 0.84001 0.0
H410 H 0.27894 0.92389 0.92131 0.0
H411 H 0.27215 0.98033 0.85426 0.0
H412 H 0.24421 0.95721 0.76132 0.0
H413 H 0.2221 0.92117 0.69896 0.0
H414 H 0.22967 0.865 0.76323 0.0
H415 H 0.25701 0.88789 0.85822 0.0
C416 C 0.27133 0.93113 0.8864 0.0
C417 C 0.27753 0.95375 0.89454 0.0
C418 C 0.25546 0.91782 0.83297 0.0
C419 C 0.26763 0.96296 0.84884 0.0
C420 C 0.25166 0.94975 0.79587 0.0
C421 C 0.22964 0.91389 0.73402 0.0
C422 C 0.22386 0.89143 0.7245 0.0
C423 C 0.24548 0.92719 0.78751 0.0
C424 C 0.23389 0.88226 0.76972 0.0
C425 C 0.24949 0.89533 0.82387 0.0
H426 H 0.38942 0.25675 0.77061 0.0
H427 H 0.45909 0.30358 0.73276 0.0
H428 H 0.46103 0.27763 0.64455 0.0
H429 H 0.44269 0.24218 0.57663 0.0
H430 H 0.37278 0.19579 0.61204 0.0
H431 H 0.3712 0.2211 0.70391 0.0
C432 C 0.40506 0.26129 0.74316 0.0
C433 C 0.4241 0.28206 0.75792 0.0
C434 C 0.40599 0.24639 0.69253 0.0
C435 C 0.44422 0.28771 0.72204 0.0
C436 C 0.44533 0.27288 0.67179 0.0
C437 C 0.42713 0.23751 0.60484 0.0
C438 C 0.40786 0.21715 0.58778 0.0
C439 C 0.42629 0.25224 0.65648 0.0
C440 C 0.38781 0.21137 0.62439 0.0
C441 C 0.3869 0.22585 0.67667 0.0
H442 H 0.88444 0.2482 0.74924 0.0
H443 H 0.89789 0.19428 0.71393 0.0
H444 H 0.93034 0.21867 0.63794 0.0
H445 H 0.95501 0.25547 0.5822 0.0
H446 H 0.94155 0.30937 0.61808 0.0
H447 H 0.90936 0.28507 0.69505 0.0
C448 C 0.89428 0.24174 0.72379 0.0
C449 C 0.8887 0.21949 0.73614 0.0
C450 C 0.91321 0.25599 0.68194 0.0
C451 C 0.90183 0.21137 0.70443 0.0
C452 C 0.92046 0.22533 0.6616 0.0
C453 C 0.94527 0.26196 0.60818 0.0
C454 C 0.95068 0.28415 0.59525 0.0
C455 C 0.92646 0.24775 0.6507 0.0
C456 C 0.93772 0.29232 0.62784 0.0
C457 C 0.91922 0.27841 0.67122 0.0
H458 H 0.95278 0.77969 0.76083 0.0
H459 H 0.93595 0.71153 0.71855 0.0
H460 H 0.90813 0.70788 0.62656 0.0
H461 H 0.88873 0.72406 0.55869 0.0
H462 H 0.90543 0.79217 0.60111 0.0
H463 H 0.93323 0.79583 0.6933 0.0
C464 C 0.94306 0.76404 0.73135 0.0
C465 C 0.94643 0.7459 0.74622 0.0
C466 C 0.92709 0.76205 0.67901 0.0
C467 C 0.93367 0.72572 0.7079 0.0
C468 C 0.91777 0.72363 0.65545 0.0
C469 C 0.89842 0.73971 0.58821 0.0
C470 C 0.89505 0.75784 0.57323 0.0
C471 C 0.91434 0.74168 0.64071 0.0
C472 C 0.90772 0.77799 0.61181 0.0
C473 C 0.92361 0.78008 0.66434 0.0
H474 H 0.9139 0.77967 0.25165 0.0
H475 H 0.86457 0.71083 0.21032 0.0
H476 H 0.88951 0.7078 0.12066 0.0
H477 H 0.92546 0.72457 0.05609 0.0
H478 H 0.97483 0.79335 0.09823 0.0
H479 H 0.94967 0.79652 0.18641 0.0
C480 C 0.90853 0.76402 0.22272 0.0
C481 C 0.88743 0.7455 0.23737 0.0
C482 C 0.92299 0.76237 0.17204 0.0
C483 C 0.88073 0.72533 0.19976 0.0
C484 C 0.89499 0.72358 0.14875 0.0
C485 C 0.93075 0.74025 0.08472 0.0
C486 C 0.95198 0.7587 0.07099 0.0
C487 C 0.9162 0.74195 0.1349 0.0
C488 C 0.95858 0.77891 0.10812 0.0
C489 C 0.9442 0.78074 0.15834 0.0
H490 H 0.38798 0.22297 0.26967 0.0
H491 H 0.45648 0.2403 0.23572 0.0
H492 H 0.46117 0.26915 0.14602 0.0
H493 H 0.44549 0.2887 0.07569 0.0
H494 H 0.37675 0.27073 0.10816 0.0
H495 H 0.37249 0.24283 0.20099 0.0
C496 C 0.40397 0.23306 0.24274 0.0
C497 C 0.42187 0.22948 0.25906 0.0
C498 C 0.40648 0.24948 0.19135 0.0
C499 C 0.44246 0.24271 0.22387 0.0
C500 C 0.44514 0.2592 0.17273 0.0
C501 C 0.4296 0.27879 0.10345 0.0
C502 C 0.41143 0.28176 0.08523 0.0
C503 C 0.42723 0.26264 0.15589 0.0
C504 C 0.39096 0.26875 0.12134 0.0
C505 C 0.38852 0.25278 0.17422 0.0
H506 H 0.94141 0.29566 0.20278 0.0
H507 H 0.94392 0.24294 0.32469 0.0
H508 H 0.91816 0.21538 0.23602 0.0
H509 H 0.89495 0.20624 0.12345 0.0
H510 H 0.89248 0.25906 0.00192 0.0
H511 H 0.91826 0.28655 0.09047 0.0
C512 C 0.93623 0.27813 0.20999 0.0
C513 C 0.94449 0.27133 0.26998 0.0
C514 C 0.92151 0.26238 0.15869 0.0
C515 C 0.93776 0.24858 0.27871 0.0
C516 C 0.92306 0.2328 0.22806 0.0
C517 C 0.90015 0.22378 0.11633 0.0
C518 C 0.89187 0.23061 0.05647 0.0
C519 C 0.91488 0.23952 0.16769 0.0
C520 C 0.89862 0.25337 0.04784 0.0
C521 C 0.91334 0.26912 0.09841 0.0
H522 H 0.13665 0.73654 0.26116 0.0
H523 H 0.12978 0.70253 0.4697 0.0
H524 H 0.14893 0.73828 0.53525 0.0
H525 H 0.16364 0.77882 0.53531 0.0
H526 H 0.16674 0.81241 0.32877 0.0
H527 H 0.15322 0.77746 0.26029 0.0
C528 C 0.13987 0.73711 0.3206 0.0
C529 C 0.13201 0.71713 0.36076 0.0
C530 C 0.14992 0.75765 0.35839 0.0
C531 C 0.13578 0.71785 0.43795 0.0
C532 C 0.14662 0.73823 0.47541 0.0
C533 C 0.16168 0.77849 0.47519 0.0
C534 C 0.16605 0.79804 0.4371 0.0
C535 C 0.15315 0.75819 0.43659 0.0
C536 C 0.16329 0.79746 0.35929 0.0
C537 C 0.15558 0.7775 0.3201 0.0
H538 H 0.43464 0.50484 0.30761 0.0
H539 H 0.47294 0.50177 0.49286 0.0
H540 H 0.43987 0.48586 0.57211 0.0
H541 H 0.39904 0.46845 0.58393 0.0
H542 H 0.36041 0.46783 0.39415 0.0
H543 H 0.39444 0.48983 0.32184 0.0
C544 C 0.43579 0.50109 0.36573 0.0
C545 C 0.45607 0.50433 0.39438 0.0
C546 C 0.41655 0.49117 0.41006 0.0
C547 C 0.45738 0.49923 0.46954 0.0
C548 C 0.43849 0.49013 0.51485 0.0
C549 C 0.39827 0.47371 0.52742 0.0
C550 C 0.37751 0.46682 0.49412 0.0
C551 C 0.41784 0.4854 0.48512 0.0
C552 C 0.3764 0.47315 0.42049 0.0
C553 C 0.39579 0.4856 0.37915 0.0
H554 H 0.69829 0.01344 0.53349 0.0
H555 H 0.73032 0.00417 0.34223 0.0
H556 H 0.71234 0.01893 0.26022 0.0
H557 H 0.68965 0.03723 0.24418 0.0
H558 H 0.66137 0.05039 0.43785 0.0
H559 H 0.67541 0.03127 0.51747 0.0
C560 C 0.70103 0.01438 0.47373 0.0
C561 C 0.71548 0.0077 0.44374 0.0
C562 C 0.69135 0.0237 0.4274 0.0
C563 C 0.71926 0.0093 0.36643 0.0
C564 C 0.70899 0.01774 0.31956 0.0
C565 C 0.68634 0.03554 0.30362 0.0
C566 C 0.67445 0.04499 0.33537 0.0
C567 C 0.69531 0.02537 0.34953 0.0
C568 C 0.67053 0.04317 0.41254 0.0
C569 C 0.67856 0.03229 0.45802 0.0
H570 H 0.73063 0.14485 0.20344 0.0
H571 H 0.69499 0.11525 -0.00043 0.0
H572 H 0.72865 0.13804 0.92692 0.0
H573 H 0.76917 0.16243 0.92281 0.0
H574 H 0.80582 0.18843 0.12739 0.0
H575 H 0.771 0.17157 0.19828 0.0
C576 C 0.73025 0.14377 0.14307 0.0
C577 C 0.71056 0.12837 0.10674 0.0
C578 C 0.74991 0.15628 0.10185 0.0
C579 C 0.71014 0.12687 0.02858 0.0
C580 C 0.72934 0.1399 0.98703 0.0
C581 C 0.76939 0.16492 0.9826 0.0
C582 C 0.78982 0.17666 0.02008 0.0
C583 C 0.74947 0.15414 0.0232 0.0
C584 C 0.79013 0.17944 0.09769 0.0
C585 C 0.77028 0.1697 0.13818 0.0
H586 H 0.00306 0.71348 0.11438 0.0
H587 H 0.01917 0.70047 0.89487 0.0
H588 H 0.03687 0.68064 0.94982 0.0
H589 H 0.05073 0.67019 0.06063 0.0
H590 H 0.03317 0.68157 0.28007 0.0
H591 H 0.01278 0.69872 0.22491 0.0
C592 C 0.0102 0.70603 0.07866 0.0
C593 C 0.0101 0.70861 0.00083 0.0
C594 C 0.02014 0.69453 0.11064 0.0
C595 C 0.01909 0.69867 0.95493 0.0
C596 C 0.0293 0.68746 0.98633 0.0
C597 C 0.04218 0.67619 0.09623 0.0
C598 C 0.04361 0.67494 0.17416 0.0
C599 C 0.03038 0.68577 0.06412 0.0
C600 C 0.03225 0.68241 0.21991 0.0
C601 C 0.02072 0.6923 0.1884 0.0
H602 H 0.4267 0.38657 0.04395 0.0
H603 H 0.48903 0.38994 0.99077 0.0
H604 H 0.50935 0.42532 0.05928 0.0
H605 H 0.50907 0.45565 0.13332 0.0
H606 H 0.44623 0.45232 0.17725 0.0
H607 H 0.42635 0.41636 0.11427 0.0
C608 C 0.44475 0.395 0.04736 0.0
C609 C 0.45637 0.38568 0.01265 0.0
C610 C 0.45617 0.41526 0.0857 0.0
C611 C 0.47975 0.39689 0.01692 0.0
C612 C 0.49133 0.41703 0.05631 0.0
C613 C 0.49103 0.44683 0.12963 0.0
C614 C 0.47904 0.45641 0.16017 0.0
C615 C 0.47969 0.42639 0.09102 0.0
C616 C 0.45573 0.44517 0.1541 0.0
C617 C 0.44436 0.42466 0.11802 0.0
H618 H 0.98493 0.37758 0.51857 0.0
H619 H 0.05004 0.39324 0.44118 0.0
H620 H 0.0666 0.42985 0.50092 0.0
H621 H 0.0631 0.45562 0.58438 0.0
H622 H -0.00117 0.4391 0.67339 0.0
H623 H 0.98127 0.40452 0.60013 0.0
C624 C 0.00264 0.38932 0.51358 0.0
C625 C 0.01632 0.38307 0.47509 0.0
C626 C 0.01216 0.40991 0.55112 0.0
C627 C 0.0393 0.39796 0.47023 0.0
C628 C 0.04874 0.41876 0.50466 0.0
C629 C 0.0452 0.44459 0.58733 0.0
C630 C 0.03227 0.44983 0.63438 0.0
C631 C 0.03542 0.42464 0.54679 0.0
C632 C 0.00913 0.43533 0.63778 0.0
C633 C -0.00089 0.4156 0.59587 0.0
H634 H 0.71956 0.64958 0.61337 0.0
H635 H 0.72504 0.70886 0.71284 0.0
H636 H 0.76217 0.7315 0.65985 0.0
H637 H 0.79175 0.73489 0.57892 0.0
H638 H 0.78594 0.67672 0.46926 0.0
H639 H 0.75026 0.6531 0.53215 0.0
C640 C 0.72917 0.66738 0.62409 0.0
C641 C 0.71994 0.67767 0.66724 0.0
C642 C 0.75023 0.68045 0.59097 0.0
C643 C 0.73209 0.70074 0.68001 0.0
C644 C 0.75321 0.71366 0.64957 0.0
C645 C 0.78279 0.71701 0.56913 0.0
C646 C 0.79141 0.70754 0.51957 0.0
C647 C 0.76225 0.70377 0.60394 0.0
C648 C 0.77955 0.68438 0.50709 0.0
C649 C 0.75919 0.6709 0.54305 0.0
H650 H 0.4726 0.1756 0.54104 0.0
H651 H 0.41014 0.11553 0.49807 0.0
H652 H 0.42437 0.09298 0.55476 0.0
H653 H 0.45443 0.0901 0.61467 0.0
H654 H 0.51636 0.14954 0.66703 0.0
H655 H 0.50245 0.1727 0.6098 0.0
C656 C 0.46225 0.15758 0.54409 0.0
C657 C 0.44046 0.14715 0.51501 0.0
C658 C 0.47035 0.14469 0.5789 0.0
C659 C 0.42697 0.12386 0.52017 0.0
C660 C 0.43507 0.11096 0.55254 0.0
C661 C 0.46485 0.10816 0.61387 0.0
C662 C 0.48638 0.11816 0.64435 0.0
C663 C 0.45669 0.12118 0.58194 0.0
C664 C 0.49966 0.14153 0.644 0.0
C665 C 0.49176 0.15472 0.61089 0.0
H666 H 0.37021 0.99133 0.85093 0.0
H667 H 0.39847 0.00273 0.07219 0.0
H668 H 0.43568 0.01725 0.01951 0.0
H669 H 0.46043 0.03183 0.91093 0.0
H670 H 0.43238 0.01995 0.6895 0.0
H671 H 0.39471 0.0001 0.74168 0.0
C672 C 0.38449 0.99658 0.88748 0.0
C673 C 0.38176 0.99638 0.96515 0.0
C674 C 0.40581 0.00497 0.85679 0.0
C675 C 0.40024 0.00285 0.01216 0.0
C676 C 0.42152 0.01128 0.98209 0.0
C677 C 0.44603 0.02446 0.8742 0.0
C678 C 0.449 0.02757 0.7968 0.0
C679 C 0.42455 0.0132 0.90458 0.0
C680 C 0.43038 0.01774 0.74936 0.0
C681 C 0.40888 0.00656 0.77919 0.0
H682 H 0.13083 0.50716 0.88515 0.0
H683 H 0.06704 0.44651 0.89257 0.0
H684 H 0.08374 0.42729 0.95687 0.0
H685 H 0.11649 0.42714 0.00661 0.0
H686 H 0.18021 0.48771 0.00744 0.0
H687 H 0.16355 0.50772 0.94545 0.0
C688 C 0.12069 0.48976 0.90101 0.0
C689 C 0.09782 0.47817 0.88358 0.0
C690 C 0.13033 0.47887 0.93972 0.0
C691 C 0.0847 0.45574 0.90534 0.0
C692 C 0.09421 0.44473 0.94207 0.0
C693 C 0.12668 0.44478 -0.00623 0.0
C694 C 0.1495 0.45595 0.01085 0.0
C695 C 0.11699 0.45606 0.959 0.0
C696 C 0.16254 0.47884 -0.00507 0.0
C697 C 0.15305 0.4902 0.95906 0.0
H698 H 0.651 0.71266 0.86935 0.0
H699 H 0.71352 0.71363 0.84605 0.0
H700 H 0.73357 0.7514 0.89558 0.0
H701 H 0.73348 0.78348 0.94899 0.0
H702 H 0.67151 0.78244 0.987 0.0
H703 H 0.65095 0.74535 0.92856 0.0
C704 C 0.66899 0.72131 0.87507 0.0
C705 C 0.68086 0.71057 0.85412 0.0
C706 C 0.68043 0.74288 0.90631 0.0
C707 C 0.70411 0.72164 0.86228 0.0
C708 C 0.71559 0.74322 0.89041 0.0
C709 C 0.71547 0.77526 0.94386 0.0
C710 C 0.70399 0.78568 0.9712 0.0
C711 C 0.70393 0.75389 0.91301 0.0
C712 C 0.68065 0.77467 0.96585 0.0
C713 C 0.66895 0.75352 0.93255 0.0
H714 H 0.76146 0.04856 0.73668 0.0
H715 H 0.82299 0.05524 0.65429 0.0
H716 H 0.84414 0.09071 0.72148 0.0
H717 H 0.84472 0.12081 0.79888 0.0
H718 H 0.78251 0.11452 0.87125 0.0
H719 H 0.76195 0.07763 0.81398 0.0
C720 C 0.77952 0.05769 0.73359 0.0
C721 C 0.79066 0.04936 0.6905 0.0
C722 C 0.7914 0.07805 0.77112 0.0
C723 C 0.81404 0.06142 0.68686 0.0
C724 C 0.82612 0.08163 0.72542 0.0
C725 C 0.82671 0.11105 0.8031 0.0
C726 C 0.81503 0.12002 0.83969 0.0
C727 C 0.81494 0.09021 0.76728 0.0
C728 C 0.79171 0.1077 0.84362 0.0
C729 C 0.77999 0.08672 0.81063 0.0
H730 H 0.13143 0.84116 0.75909 0.0
H731 H 0.10121 0.83054 0.54134 0.0
H732 H 0.06408 0.81205 0.59808 0.0
H733 H 0.04047 0.79559 0.70893 0.0
H734 H 0.07076 0.80773 0.927 0.0
H735 H 0.10779 0.82927 0.871 0.0
C736 C 0.11668 0.83506 0.72427 0.0
C737 C 0.11888 0.83686 0.6463 0.0
C738 C 0.09554 0.82468 0.7573 0.0
C739 C 0.09981 0.82927 0.60153 0.0
C740 C 0.07863 0.81862 0.63392 0.0
C741 C 0.0552 0.80324 0.74412 0.0
C742 C 0.05306 0.7999 0.82171 0.0
C743 C 0.07632 0.81571 0.71158 0.0
C744 C 0.07211 0.81011 0.86709 0.0
C745 C 0.09324 0.82229 0.83508 0.0
H746 H 0.35185 0.37277 0.59371 0.0
H747 H 0.32091 0.37855 0.794 0.0
H748 H 0.33559 0.35833 0.86472 0.0
H749 H 0.36044 0.34254 0.8723 0.0
H750 H 0.39496 0.34064 0.67532 0.0
H751 H 0.37573 0.35561 0.60047 0.0
C752 C 0.34801 0.36914 0.65245 0.0
C753 C 0.33529 0.37692 0.68883 0.0
C754 C 0.3574 0.35843 0.69346 0.0
C755 C 0.33071 0.37262 0.76519 0.0
C756 C 0.33914 0.36114 0.8056 0.0
C757 C 0.36343 0.34508 0.81277 0.0
C758 C 0.37904 0.34055 0.77925 0.0
C759 C 0.35299 0.35449 0.77078 0.0
C760 C 0.38305 0.34414 0.70229 0.0
C761 C 0.37208 0.3527 0.65951 0.0
H762 H 0.06853 0.34115 0.4 0.0
H763 H 0.03003 0.31154 0.20099 0.0
H764 H 0.06411 0.32729 0.12671 0.0
H765 H 0.1041 0.35426 0.1158 0.0
H766 H 0.14195 0.38703 0.31323 0.0
H767 H 0.10912 0.36526 0.39075 0.0
C768 C 0.06775 0.33764 0.34079 0.0
C769 C 0.04697 0.32529 0.30572 0.0
C770 C 0.0873 0.34769 0.29797 0.0
C771 C 0.04597 0.32109 0.22883 0.0
C772 C 0.0654 0.33018 0.18636 0.0
C773 C 0.10521 0.35625 0.17592 0.0
C774 C 0.12525 0.37232 0.2088 0.0
C775 C 0.08607 0.34427 0.21983 0.0
C776 C 0.12655 0.37489 0.28669 0.0
C777 C 0.10781 0.36246 0.33105 0.0
H778 H 0.79458 0.76044 0.28469 0.0
H779 H 0.85593 0.82182 0.32477 0.0
H780 H 0.84033 0.84307 0.26469 0.0
H781 H 0.80865 0.84392 0.20139 0.0
H782 H 0.74672 0.78218 0.17236 0.0
H783 H 0.76313 0.76129 0.22693 0.0
C784 C 0.80458 0.77848 0.28007 0.0
C785 C 0.82639 0.78958 0.30848 0.0
C786 C 0.79536 0.79048 0.24729 0.0
C787 C 0.83906 0.81296 0.30321 0.0
C788 C 0.83016 0.82507 0.26875 0.0
C789 C 0.79891 0.8259 0.20687 0.0
C790 C 0.77659 0.81453 0.18281 0.0
C791 C 0.80828 0.81399 0.24057 0.0
C792 C 0.76392 0.79124 0.19088 0.0
C793 C 0.77328 0.77929 0.22195 0.0
H794 H 0.32138 0.05316 0.17178 0.0
H795 H 0.38324 0.06831 0.06614 0.0
H796 H 0.4018 0.1053 0.12309 0.0
H797 H 0.40148 0.13147 0.21266 0.0
H798 H 0.34083 0.11573 0.32848 0.0
H799 H 0.32065 0.08087 0.25769 0.0
C800 C 0.33878 0.06483 0.16016 0.0
C801 C 0.351 0.05822 0.11486 0.0
C802 C 0.34958 0.08576 0.1957 0.0
C803 C 0.3736 0.07317 0.10095 0.0
C804 C 0.38422 0.09425 0.13366 0.0
C805 C 0.38377 0.12057 0.22194 0.0
C806 C 0.37268 0.12607 0.27606 0.0
C807 C 0.37253 0.10043 0.18276 0.0
C808 C 0.34975 0.11178 0.2873 0.0
C809 C 0.33823 0.09185 0.24693 0.0
loop_
_geom_bond_atom_site_label_1
_geom_bond_atom_site_label_2
_geom_bond_distance
_geom_bond_site_symmetry_2
_ccdc_geom_bond_type
In0 O1 2.294 . S
In0 O2 2.326 . S
In0 O6 2.266 . S
In0 O7 2.326 . S
In0 O8 2.266 . S
In0 O9 2.326 . S
In0 O11 2.294 . S
In0 O12 2.326 . S
O1 In0 2.294 . S
O1 C10 1.240 . S
O2 In0 2.326 . S
O2 C10 1.252 . S
C3 O6 1.252 . S
C3 O7 1.260 . S
C4 O11 1.240 . S
C4 O12 1.252 . S
C5 O8 1.252 . S
C5 O9 1.260 . S
O6 In0 2.266 . S
O6 C3 1.252 . S
O7 In0 2.326 . S
O7 C3 1.260 . S
O8 In0 2.266 . S
O8 C5 1.252 . S
O9 In0 2.326 . S
O9 C5 1.260 . S
C10 O1 1.240 . S
C10 O2 1.252 . S
O11 In0 2.294 . S
O11 C4 1.240 . S
O12 In0 2.326 . S
O12 C4 1.252 . S
In13 O14 2.294 . S
In13 O15 2.326 . S
In13 O19 2.266 . S
In13 O20 2.326 . S
In13 O21 2.266 . S
In13 O22 2.326 . S
In13 O24 2.294 . S
In13 O25 2.326 . S
O14 In13 2.294 . S
O14 C23 1.240 . S
O15 In13 2.326 . S
O15 C23 1.252 . S
C16 O19 1.252 . S
C16 O20 1.260 . S
C17 O24 1.240 . S
C17 O25 1.252 . S
C18 O21 1.252 . S
C18 O22 1.260 . S
O19 In13 2.266 . S
O19 C16 1.252 . S
O20 In13 2.326 . S
O20 C16 1.260 . S
O21 In13 2.266 . S
O21 C18 1.252 . S
O22 In13 2.326 . S
O22 C18 1.260 . S
C23 O14 1.240 . S
C23 O15 1.252 . S
O24 In13 2.294 . S
O24 C17 1.240 . S
O25 In13 2.326 . S
O25 C17 1.252 . S
In26 O27 2.294 . S
In26 O28 2.326 . S
In26 O32 2.266 . S
In26 O33 2.326 . S
In26 O34 2.266 . S
In26 O35 2.326 . S
In26 O37 2.294 . S
In26 O38 2.326 . S
O27 In26 2.294 . S
O27 C36 1.240 . S
O28 In26 2.326 . S
O28 C36 1.252 . S
C29 O32 1.252 . S
C29 O33 1.260 . S
C30 O37 1.240 . S
C30 O38 1.252 . S
C31 O34 1.252 . S
C31 O35 1.260 . S
O32 In26 2.266 . S
O32 C29 1.252 . S
O33 In26 2.326 . S
O33 C29 1.260 . S
O34 In26 2.266 . S
O34 C31 1.252 . S
O35 In26 2.326 . S
O35 C31 1.260 . S
C36 O27 1.240 . S
C36 O28 1.252 . S
O37 In26 2.294 . S
O37 C30 1.240 . S
O38 In26 2.326 . S
O38 C30 1.252 . S
In39 O40 2.294 . S
In39 O41 2.326 . S
In39 O45 2.266 . S
In39 O46 2.326 . S
In39 O47 2.266 . S
In39 O48 2.326 . S
In39 O50 2.294 . S
In39 O51 2.326 . S
O40 In39 2.294 . S
O40 C49 1.240 . S
O41 In39 2.326 . S
O41 C49 1.252 . S
C42 O45 1.252 . S
C42 O46 1.260 . S
C43 O50 1.240 . S
C43 O51 1.252 . S
C44 O47 1.252 . S
C44 O48 1.260 . S
O45 In39 2.266 . S
O45 C42 1.252 . S
O46 In39 2.326 . S
O46 C42 1.260 . S
O47 In39 2.266 . S
O47 C44 1.252 . S
O48 In39 2.326 . S
O48 C44 1.260 . S
C49 O40 1.240 . S
C49 O41 1.252 . S
O50 In39 2.294 . S
O50 C43 1.240 . S
O51 In39 2.326 . S
O51 C43 1.252 . S
In52 O53 2.294 . S
In52 O54 2.326 . S
In52 O58 2.266 . S
In52 O59 2.326 . S
In52 O60 2.266 . S
In52 O61 2.326 . S
In52 O63 2.294 . S
In52 O64 2.326 . S
O53 In52 2.294 . S
O53 C62 1.240 . S
O54 In52 2.326 . S
O54 C62 1.252 . S
C55 O58 1.252 . S
C55 O59 1.260 . S
C56 O63 1.240 . S
C56 O64 1.252 . S
C57 O60 1.252 . S
C57 O61 1.260 . S
O58 In52 2.266 . S
O58 C55 1.252 . S
O59 In52 2.326 . S
O59 C55 1.260 . S
O60 In52 2.266 . S
O60 C57 1.252 . S
O61 In52 2.326 . S
O61 C57 1.260 . S
C62 O53 1.240 . S
C62 O54 1.252 . S
O63 In52 2.294 . S
O63 C56 1.240 . S
O64 In52 2.326 . S
O64 C56 1.252 . S
In65 O66 2.294 . S
In65 O67 2.326 . S
In65 O71 2.266 . S
In65 O72 2.326 . S
In65 O73 2.266 . S
In65 O74 2.326 . S
In65 O76 2.294 . S
In65 O77 2.326 . S
O66 In65 2.294 . S
O66 C75 1.240 . S
O67 In65 2.326 . S
O67 C75 1.252 . S
C68 O71 1.252 . S
C68 O72 1.260 . S
C69 O76 1.240 . S
C69 O77 1.252 . S
C70 O73 1.252 . S
C70 O74 1.260 . S
O71 In65 2.266 . S
O71 C68 1.252 . S
O72 In65 2.326 . S
O72 C68 1.260 . S
O73 In65 2.266 . S
O73 C70 1.252 . S
O74 In65 2.326 . S
O74 C70 1.260 . S
C75 O66 1.240 . S
C75 O67 1.252 . S
O76 In65 2.294 . S
O76 C69 1.240 . S
O77 In65 2.326 . S
O77 C69 1.252 . S
In78 O79 2.294 . S
In78 O80 2.326 . S
In78 O84 2.266 . S
In78 O85 2.326 1_565 S
In78 O86 2.266 1_565 S
In78 O87 2.326 1_565 S
In78 O89 2.294 . S
In78 O90 2.326 . S
O79 In78 2.294 . S
O79 C88 1.240 . S
O80 In78 2.326 . S
O80 C88 1.252 . S
C81 O84 1.252 1_545 S
C81 O85 1.260 . S
C82 O89 1.240 . S
C82 O90 1.252 . S
C83 O86 1.252 . S
C83 O87 1.260 . S
O84 In78 2.266 . S
O84 C81 1.252 1_565 S
O85 In78 2.326 1_545 S
O85 C81 1.260 . S
O86 In78 2.266 1_545 S
O86 C83 1.252 . S
O87 In78 2.326 1_545 S
O87 C83 1.260 . S
C88 O79 1.240 . S
C88 O80 1.252 . S
O89 In78 2.294 . S
O89 C82 1.240 . S
O90 In78 2.326 . S
O90 C82 1.252 . S
In91 O92 2.294 . S
In91 O93 2.326 . S
In91 O97 2.266 . S
In91 O98 2.326 . S
In91 O99 2.266 . S
In91 O100 2.326 . S
In91 O102 2.294 . S
In91 O103 2.326 . S
O92 In91 2.294 . S
O92 C101 1.240 . S
O93 In91 2.326 . S
O93 C101 1.252 . S
C94 O97 1.252 . S
C94 O98 1.260 . S
C95 O102 1.240 . S
C95 O103 1.252 . S
C96 O99 1.252 . S
C96 O100 1.260 . S
O97 In91 2.266 . S
O97 C94 1.252 . S
O98 In91 2.326 . S
O98 C94 1.260 . S
O99 In91 2.266 . S
O99 C96 1.252 . S
O100 In91 2.326 . S
O100 C96 1.260 . S
C101 O92 1.240 . S
C101 O93 1.252 . S
O102 In91 2.294 . S
O102 C95 1.240 . S
O103 In91 2.326 . S
O103 C95 1.252 . S
In104 O105 2.294 . S
In104 O106 2.326 . S
In104 O110 2.266 . S
In104 O111 2.326 . S
In104 O112 2.266 . S
In104 O113 2.326 . S
In104 O115 2.294 . S
In104 O116 2.326 . S
O105 In104 2.294 . S
O105 C114 1.240 . S
O106 In104 2.326 . S
O106 C114 1.252 . S
C107 O110 1.252 . S
C107 O111 1.260 . S
C108 O115 1.240 . S
C108 O116 1.252 . S
C109 O112 1.252 . S
C109 O113 1.260 . S
O110 In104 2.266 . S
O110 C107 1.252 . S
O111 In104 2.326 . S
O111 C107 1.260 . S
O112 In104 2.266 . S
O112 C109 1.252 . S
O113 In104 2.326 . S
O113 C109 1.260 . S
C114 O105 1.240 . S
C114 O106 1.252 . S
O115 In104 2.294 . S
O115 C108 1.240 . S
O116 In104 2.326 . S
O116 C108 1.252 . S
In117 O118 2.294 . S
In117 O119 2.326 . S
In117 O123 2.266 . S
In117 O124 2.326 . S
In117 O125 2.266 . S
In117 O126 2.326 1_554 S
In117 O128 2.294 . S
In117 O129 2.326 . S
O118 In117 2.294 . S
O118 C127 1.240 1_554 S
O119 In117 2.326 . S
O119 C127 1.252 1_554 S
C120 O123 1.252 . S
C120 O124 1.260 . S
C121 O128 1.240 . S
C121 O129 1.252 . S
C122 O125 1.252 . S
C122 O126 1.260 1_554 S
O123 In117 2.266 . S
O123 C120 1.252 . S
O124 In117 2.326 . S
O124 C120 1.260 . S
O125 In117 2.266 . S
O125 C122 1.252 . S
O126 In117 2.326 1_556 S
O126 C122 1.260 1_556 S
C127 O118 1.240 1_556 S
C127 O119 1.252 1_556 S
O128 In117 2.294 . S
O128 C121 1.240 . S
O129 In117 2.326 . S
O129 C121 1.252 . S
In130 O131 2.294 . S
In130 O132 2.326 . S
In130 O136 2.266 . S
In130 O137 2.326 1_564 S
In130 O138 2.266 1_565 S
In130 O139 2.326 1_565 S
In130 O141 2.294 . S
In130 O142 2.326 . S
O131 In130 2.294 . S
O131 C140 1.240 . S
O132 In130 2.326 . S
O132 C140 1.252 . S
C133 O136 1.252 1_545 S
C133 O137 1.260 1_554 S
C134 O141 1.240 1_556 S
C134 O142 1.252 1_556 S
C135 O138 1.252 . S
C135 O139 1.260 . S
O136 In130 2.266 . S
O136 C133 1.252 1_565 S
O137 In130 2.326 1_546 S
O137 C133 1.260 1_556 S
O138 In130 2.266 1_545 S
O138 C135 1.252 . S
O139 In130 2.326 1_545 S
O139 C135 1.260 . S
C140 O131 1.240 . S
C140 O132 1.252 . S
O141 In130 2.294 . S
O141 C134 1.240 1_554 S
O142 In130 2.326 . S
O142 C134 1.252 1_554 S
In143 O144 2.294 . S
In143 O145 2.326 . S
In143 O149 2.266 . S
In143 O150 2.326 . S
In143 O151 2.266 . S
In143 O152 2.326 1_554 S
In143 O154 2.294 . S
In143 O155 2.326 . S
O144 In143 2.294 . S
O144 C153 1.240 1_554 S
O145 In143 2.326 . S
O145 C153 1.252 1_554 S
C146 O149 1.252 . S
C146 O150 1.260 . S
C147 O154 1.240 . S
C147 O155 1.252 . S
C148 O151 1.252 . S
C148 O152 1.260 1_554 S
O149 In143 2.266 . S
O149 C146 1.252 . S
O150 In143 2.326 . S
O150 C146 1.260 . S
O151 In143 2.266 . S
O151 C148 1.252 . S
O152 In143 2.326 1_556 S
O152 C148 1.260 1_556 S
C153 O144 1.240 1_556 S
C153 O145 1.252 1_556 S
O154 In143 2.294 . S
O154 C147 1.240 . S
O155 In143 2.326 . S
O155 C147 1.252 . S
In156 O157 2.294 . S
In156 O158 2.326 . S
In156 O162 2.266 . S
In156 O163 2.326 . S
In156 O164 2.266 . S
In156 O165 2.326 1_556 S
In156 O167 2.294 . S
In156 O168 2.326 . S
O157 In156 2.294 . S
O157 C166 1.240 1_556 S
O158 In156 2.326 . S
O158 C166 1.252 1_556 S
C159 O162 1.252 . S
C159 O163 1.260 . S
C160 O167 1.240 . S
C160 O168 1.252 . S
C161 O164 1.252 . S
C161 O165 1.260 1_556 S
O162 In156 2.266 . S
O162 C159 1.252 . S
O163 In156 2.326 . S
O163 C159 1.260 . S
O164 In156 2.266 . S
O164 C161 1.252 . S
O165 In156 2.326 1_554 S
O165 C161 1.260 1_554 S
C166 O157 1.240 1_554 S
C166 O158 1.252 1_554 S
O167 In156 2.294 . S
O167 C160 1.240 . S
O168 In156 2.326 . S
O168 C160 1.252 . S
In169 O170 2.294 . S
In169 O171 2.326 . S
In169 O175 2.266 . S
In169 O176 2.326 . S
In169 O177 2.266 . S
In169 O178 2.326 1_556 S
In169 O180 2.294 . S
In169 O181 2.326 . S
O170 In169 2.294 . S
O170 C179 1.240 1_556 S
O171 In169 2.326 . S
O171 C179 1.252 1_556 S
C172 O175 1.252 . S
C172 O176 1.260 . S
C173 O180 1.240 . S
C173 O181 1.252 . S
C174 O177 1.252 . S
C174 O178 1.260 1_556 S
O175 In169 2.266 . S
O175 C172 1.252 . S
O176 In169 2.326 . S
O176 C172 1.260 . S
O177 In169 2.266 . S
O177 C174 1.252 . S
O178 In169 2.326 1_554 S
O178 C174 1.260 1_554 S
C179 O170 1.240 1_554 S
C179 O171 1.252 1_554 S
O180 In169 2.294 . S
O180 C173 1.240 . S
O181 In169 2.326 . S
O181 C173 1.252 . S
In182 O183 2.294 . S
In182 O184 2.326 . S
In182 O188 2.266 1_655 S
In182 O189 2.326 1_655 S
In182 O190 2.266 . S
In182 O191 2.326 1_656 S
In182 O193 2.294 . S
In182 O194 2.326 . S
O183 In182 2.294 . S
O183 C192 1.240 1_556 S
O184 In182 2.326 . S
O184 C192 1.252 1_556 S
C185 O188 1.252 . S
C185 O189 1.260 . S
C186 O193 1.240 . S
C186 O194 1.252 . S
C187 O190 1.252 1_455 S
C187 O191 1.260 1_556 S
O188 In182 2.266 1_455 S
O188 C185 1.252 . S
O189 In182 2.326 1_455 S
O189 C185 1.260 . S
O190 In182 2.266 . S
O190 C187 1.252 1_655 S
O191 In182 2.326 1_454 S
O191 C187 1.260 1_554 S
C192 O183 1.240 1_554 S
C192 O184 1.252 1_554 S
O193 In182 2.294 . S
O193 C186 1.240 . S
O194 In182 2.326 . S
O194 C186 1.252 . S
In195 O196 2.294 . S
In195 O197 2.326 . S
In195 O201 2.266 . S
In195 O202 2.326 . S
In195 O203 2.266 . S
In195 O204 2.326 . S
In195 O206 2.294 . S
In195 O207 2.326 . S
O196 In195 2.294 . S
O196 C205 1.240 . S
O197 In195 2.326 . S
O197 C205 1.252 . S
C198 O201 1.252 . S
C198 O202 1.260 . S
C199 O206 1.240 . S
C199 O207 1.252 . S
C200 O203 1.252 . S
C200 O204 1.260 . S
O201 In195 2.266 . S
O201 C198 1.252 . S
O202 In195 2.326 . S
O202 C198 1.260 . S
O203 In195 2.266 . S
O203 C200 1.252 . S
O204 In195 2.326 . S
O204 C200 1.260 . S
C205 O196 1.240 . S
C205 O197 1.252 . S
O206 In195 2.294 . S
O206 C199 1.240 . S
O207 In195 2.326 . S
O207 C199 1.252 . S
In208 O209 2.294 . S
In208 O210 2.326 . S
In208 O214 2.266 1_655 S
In208 O215 2.326 1_655 S
In208 O216 2.266 . S
In208 O217 2.326 1_655 S
In208 O219 2.294 . S
In208 O220 2.326 . S
O209 In208 2.294 . S
O209 C218 1.240 . S
O210 In208 2.326 . S
O210 C218 1.252 . S
C211 O214 1.252 . S
C211 O215 1.260 . S
C212 O219 1.240 . S
C212 O220 1.252 . S
C213 O216 1.252 1_455 S
C213 O217 1.260 . S
O214 In208 2.266 1_455 S
O214 C211 1.252 . S
O215 In208 2.326 1_455 S
O215 C211 1.260 . S
O216 In208 2.266 . S
O216 C213 1.252 1_655 S
O217 In208 2.326 1_455 S
O217 C213 1.260 . S
C218 O209 1.240 . S
C218 O210 1.252 . S
O219 In208 2.294 . S
O219 C212 1.240 . S
O220 In208 2.326 . S
O220 C212 1.252 . S
In221 O222 2.294 . S
In221 O223 2.326 . S
In221 O227 2.266 . S
In221 O228 2.326 . S
In221 O229 2.266 . S
In221 O230 2.326 . S
In221 O232 2.294 . S
In221 O233 2.326 . S
O222 In221 2.294 . S
O222 C231 1.240 . S
O223 In221 2.326 . S
O223 C231 1.252 . S
C224 O227 1.252 . S
C224 O228 1.260 . S
C225 O232 1.240 . S
C225 O233 1.252 . S
C226 O229 1.252 . S
C226 O230 1.260 . S
O227 In221 2.266 . S
O227 C224 1.252 . S
O228 In221 2.326 . S
O228 C224 1.260 . S
O229 In221 2.266 . S
O229 C226 1.252 . S
O230 In221 2.326 . S
O230 C226 1.260 . S
C231 O222 1.240 . S
C231 O223 1.252 . S
O232 In221 2.294 . S
O232 C225 1.240 . S
O233 In221 2.326 . S
O233 C225 1.252 . S
H234 C240 0.930 . S
H235 C243 0.930 . S
H236 C244 0.930 . S
H237 C245 0.930 . S
H238 C248 0.930 . S
H239 C249 0.930 . S
C240 H234 0.930 . S
C240 C241 1.355 . S
C240 C242 1.415 1_556 S
C241 C240 1.355 . S
C241 C243 1.419 . S
C242 C240 1.415 1_554 S
C242 C247 1.425 1_554 S
C242 C249 1.409 . S
C243 H235 0.930 . S
C243 C241 1.419 . S
C243 C244 1.362 . S
C244 H236 0.930 . S
C244 C243 1.362 . S
C244 C247 1.409 . S
C245 H237 0.930 . S
C245 C246 1.355 . S
C245 C247 1.415 1_554 S
C246 C245 1.355 . S
C246 C248 1.419 . S
C247 C242 1.425 1_556 S
C247 C244 1.409 . S
C247 C245 1.415 1_556 S
C248 H238 0.930 . S
C248 C246 1.419 . S
C248 C249 1.362 . S
C249 H239 0.930 . S
C249 C242 1.409 . S
C249 C248 1.362 . S
H250 C256 0.930 . S
H251 C259 0.930 . S
H252 C260 0.930 . S
H253 C261 0.930 . S
H254 C264 0.930 . S
H255 C265 0.930 . S
C256 H250 0.930 . S
C256 C257 1.355 . S
C256 C258 1.415 . S
C257 C256 1.355 . S
C257 C259 1.419 . S
C258 C256 1.415 . S
C258 C263 1.425 1_556 S
C258 C265 1.409 1_556 S
C259 H251 0.930 . S
C259 C257 1.419 . S
C259 C260 1.362 . S
C260 H252 0.930 . S
C260 C259 1.362 . S
C260 C263 1.409 1_556 S
C261 H253 0.930 . S
C261 C262 1.355 . S
C261 C263 1.415 . S
C262 C261 1.355 . S
C262 C264 1.419 . S
C263 C258 1.425 1_554 S
C263 C260 1.409 1_554 S
C263 C261 1.415 . S
C264 H254 0.930 . S
C264 C262 1.419 . S
C264 C265 1.362 . S
C265 H255 0.930 . S
C265 C258 1.409 1_554 S
C265 C264 1.362 . S
H266 C272 0.930 . S
H267 C275 0.930 . S
H268 C276 0.930 . S
H269 C277 0.930 . S
H270 C280 0.930 . S
H271 C281 0.930 . S
C272 H266 0.930 . S
C272 C273 1.355 . S
C272 C274 1.415 1_554 S
C273 C272 1.355 . S
C273 C275 1.419 . S
C274 C272 1.415 1_556 S
C274 C279 1.425 1_556 S
C274 C281 1.409 . S
C275 H267 0.930 . S
C275 C273 1.419 . S
C275 C276 1.362 . S
C276 H268 0.930 . S
C276 C275 1.362 . S
C276 C279 1.409 . S
C277 H269 0.930 . S
C277 C278 1.355 . S
C277 C279 1.415 1_556 S
C278 C277 1.355 . S
C278 C280 1.419 . S
C279 C274 1.425 1_554 S
C279 C276 1.409 . S
C279 C277 1.415 1_554 S
C280 H270 0.930 . S
C280 C278 1.419 . S
C280 C281 1.362 . S
C281 H271 0.930 . S
C281 C274 1.409 . S
C281 C280 1.362 . S
H282 C288 0.930 . S
H283 C291 0.930 . S
H284 C292 0.930 . S
H285 C293 0.930 . S
H286 C296 0.930 . S
H287 C297 0.930 . S
C288 H282 0.930 . S
C288 C289 1.355 . S
C288 C290 1.415 . S
C289 C288 1.355 . S
C289 C291 1.419 . S
C290 C288 1.415 . S
C290 C295 1.425 . S
C290 C297 1.409 . S
C291 H283 0.930 . S
C291 C289 1.419 . S
C291 C292 1.362 . S
C292 H284 0.930 . S
C292 C291 1.362 . S
C292 C295 1.409 . S
C293 H285 0.930 . S
C293 C294 1.355 . S
C293 C295 1.415 . S
C294 C293 1.355 . S
C294 C296 1.419 . S
C295 C290 1.425 . S
C295 C292 1.409 . S
C295 C293 1.415 . S
C296 H286 0.930 . S
C296 C294 1.419 . S
C296 C297 1.362 . S
C297 H287 0.930 . S
C297 C290 1.409 . S
C297 C296 1.362 . S
H298 C304 0.930 . S
H299 C307 0.930 . S
H300 C308 0.930 . S
H301 C309 0.930 . S
H302 C312 0.930 . S
H303 C313 0.930 . S
C304 H298 0.930 . S
C304 C305 1.355 . S
C304 C306 1.415 . S
C305 C304 1.355 . S
C305 C307 1.419 . S
C306 C304 1.415 . S
C306 C311 1.425 . S
C306 C313 1.409 . S
C307 H299 0.930 . S
C307 C305 1.419 . S
C307 C308 1.362 . S
C308 H300 0.930 . S
C308 C307 1.362 . S
C308 C311 1.409 . S
C309 H301 0.930 . S
C309 C310 1.355 . S
C309 C311 1.415 . S
C310 C309 1.355 . S
C310 C312 1.419 . S
C311 C306 1.425 . S
C311 C308 1.409 . S
C311 C309 1.415 . S
C312 H302 0.930 . S
C312 C310 1.419 . S
C312 C313 1.362 . S
C313 H303 0.930 . S
C313 C306 1.409 . S
C313 C312 1.362 . S
H314 C320 0.930 . S
H315 C323 0.930 . S
H316 C324 0.930 . S
H317 C325 0.930 . S
H318 C328 0.930 . S
H319 C329 0.930 . S
C320 H314 0.930 . S
C320 C321 1.355 . S
C320 C322 1.415 . S
C321 C320 1.355 . S
C321 C323 1.419 . S
C322 C320 1.415 . S
C322 C327 1.425 . S
C322 C329 1.409 . S
C323 H315 0.930 . S
C323 C321 1.419 . S
C323 C324 1.362 . S
C324 H316 0.930 . S
C324 C323 1.362 . S
C324 C327 1.409 . S
C325 H317 0.930 . S
C325 C326 1.355 . S
C325 C327 1.415 . S
C326 C325 1.355 . S
C326 C328 1.419 . S
C327 C322 1.425 . S
C327 C324 1.409 . S
C327 C325 1.415 . S
C328 H318 0.930 . S
C328 C326 1.419 . S
C328 C329 1.362 . S
C329 H319 0.930 . S
C329 C322 1.409 . S
C329 C328 1.362 . S
H330 C336 0.930 . S
H331 C339 0.930 . S
H332 C340 0.930 . S
H333 C341 0.930 . S
H334 C344 0.930 . S
H335 C345 0.930 . S
C336 H330 0.930 . S
C336 C337 1.355 . S
C336 C338 1.415 . S
C337 C336 1.355 . S
C337 C339 1.419 . S
C338 C336 1.415 . S
C338 C343 1.425 . S
C338 C345 1.409 . S
C339 H331 0.930 . S
C339 C337 1.419 . S
C339 C340 1.362 . S
C340 H332 0.930 . S
C340 C339 1.362 . S
C340 C343 1.409 . S
C341 H333 0.930 . S
C341 C342 1.355 . S
C341 C343 1.415 . S
C342 C341 1.355 . S
C342 C344 1.419 . S
C343 C338 1.425 . S
C343 C340 1.409 . S
C343 C341 1.415 . S
C344 H334 0.930 . S
C344 C342 1.419 . S
C344 C345 1.362 . S
C345 H335 0.930 . S
C345 C338 1.409 . S
C345 C344 1.362 . S
H346 C352 0.930 . S
H347 C355 0.930 . S
H348 C356 0.930 . S
H349 C357 0.930 . S
H350 C360 0.930 . S
H351 C361 0.930 . S
C352 H346 0.930 . S
C352 C353 1.355 . S
C352 C354 1.415 . S
C353 C352 1.355 . S
C353 C355 1.419 . S
C354 C352 1.415 . S
C354 C359 1.425 . S
C354 C361 1.409 . S
C355 H347 0.930 . S
C355 C353 1.419 . S
C355 C356 1.362 . S
C356 H348 0.930 . S
C356 C355 1.362 . S
C356 C359 1.409 . S
C357 H349 0.930 . S
C357 C358 1.355 . S
C357 C359 1.415 . S
C358 C357 1.355 . S
C358 C360 1.419 . S
C359 C354 1.425 . S
C359 C356 1.409 . S
C359 C357 1.415 . S
C360 H350 0.930 . S
C360 C358 1.419 . S
C360 C361 1.362 . S
C361 H351 0.930 . S
C361 C354 1.409 . S
C361 C360 1.362 . S
H362 C368 0.930 . S
H363 C371 0.930 . S
H364 C372 0.930 . S
H365 C373 0.930 . S
H366 C376 0.930 . S
H367 C377 0.930 . S
C368 H362 0.930 . S
C368 C369 1.355 . S
C368 C370 1.415 . S
C369 C368 1.355 . S
C369 C371 1.419 . S
C370 C368 1.415 . S
C370 C375 1.425 . S
C370 C377 1.409 . S
C371 H363 0.930 . S
C371 C369 1.419 . S
C371 C372 1.362 . S
C372 H364 0.930 . S
C372 C371 1.362 . S
C372 C375 1.409 . S
C373 H365 0.930 . S
C373 C374 1.355 . S
C373 C375 1.415 . S
C374 C373 1.355 . S
C374 C376 1.419 . S
C375 C370 1.425 . S
C375 C372 1.409 . S
C375 C373 1.415 . S
C376 H366 0.930 . S
C376 C374 1.419 . S
C376 C377 1.362 . S
C377 H367 0.930 . S
C377 C370 1.409 . S
C377 C376 1.362 . S
H378 C384 0.930 . S
H379 C387 0.930 . S
H380 C388 0.930 . S
H381 C389 0.930 . S
H382 C392 0.930 . S
H383 C393 0.930 . S
C384 H378 0.930 . S
C384 C385 1.355 . S
C384 C386 1.415 . S
C385 C384 1.355 . S
C385 C387 1.419 . S
C386 C384 1.415 . S
C386 C391 1.425 . S
C386 C393 1.409 . S
C387 H379 0.930 . S
C387 C385 1.419 . S
C387 C388 1.362 . S
C388 H380 0.930 . S
C388 C387 1.362 . S
C388 C391 1.409 . S
C389 H381 0.930 . S
C389 C390 1.355 . S
C389 C391 1.415 . S
C390 C389 1.355 . S
C390 C392 1.419 . S
C391 C386 1.425 . S
C391 C388 1.409 . S
C391 C389 1.415 . S
C392 H382 0.930 . S
C392 C390 1.419 . S
C392 C393 1.362 . S
C393 H383 0.930 . S
C393 C386 1.409 . S
C393 C392 1.362 . S
H394 C400 0.930 . S
H395 C403 0.930 1_554 S
H396 C404 0.930 . S
H397 C405 0.930 . S
H398 C408 0.930 . S
H399 C409 0.930 . S
C400 H394 0.930 . S
C400 C401 1.355 . S
C400 C402 1.415 . S
C401 C400 1.355 . S
C401 C403 1.419 . S
C402 C400 1.415 . S
C402 C407 1.425 . S
C402 C409 1.409 . S
C403 H395 0.930 1_556 S
C403 C401 1.419 . S
C403 C404 1.362 . S
C404 H396 0.930 . S
C404 C403 1.362 . S
C404 C407 1.409 . S
C405 H397 0.930 . S
C405 C406 1.355 . S
C405 C407 1.415 . S
C406 C405 1.355 . S
C406 C408 1.419 . S
C407 C402 1.425 . S
C407 C404 1.409 . S
C407 C405 1.415 . S
C408 H398 0.930 . S
C408 C406 1.419 . S
C408 C409 1.362 . S
C409 H399 0.930 . S
C409 C402 1.409 . S
C409 C408 1.362 . S
H410 C416 0.930 . S
H411 C419 0.930 . S
H412 C420 0.930 . S
H413 C421 0.930 . S
H414 C424 0.930 . S
H415 C425 0.930 . S
C416 H410 0.930 . S
C416 C417 1.355 . S
C416 C418 1.415 . S
C417 C416 1.355 . S
C417 C419 1.419 . S
C418 C416 1.415 . S
C418 C423 1.425 . S
C418 C425 1.409 . S
C419 H411 0.930 . S
C419 C417 1.419 . S
C419 C420 1.362 . S
C420 H412 0.930 . S
C420 C419 1.362 . S
C420 C423 1.409 . S
C421 H413 0.930 . S
C421 C422 1.355 . S
C421 C423 1.415 . S
C422 C421 1.355 . S
C422 C424 1.419 . S
C423 C418 1.425 . S
C423 C420 1.409 . S
C423 C421 1.415 . S
C424 H414 0.930 . S
C424 C422 1.419 . S
C424 C425 1.362 . S
C425 H415 0.930 . S
C425 C418 1.409 . S
C425 C424 1.362 . S
H426 C432 0.930 . S
H427 C435 0.930 . S
H428 C436 0.930 . S
H429 C437 0.930 . S
H430 C440 0.930 . S
H431 C441 0.930 . S
C432 H426 0.930 . S
C432 C433 1.355 . S
C432 C434 1.415 . S
C433 C432 1.355 . S
C433 C435 1.419 . S
C434 C432 1.415 . S
C434 C439 1.425 . S
C434 C441 1.409 . S
C435 H427 0.930 . S
C435 C433 1.419 . S
C435 C436 1.362 . S
C436 H428 0.930 . S
C436 C435 1.362 . S
C436 C439 1.409 . S
C437 H429 0.930 . S
C437 C438 1.355 . S
C437 C439 1.415 . S
C438 C437 1.355 . S
C438 C440 1.419 . S
C439 C434 1.425 . S
C439 C436 1.409 . S
C439 C437 1.415 . S
C440 H430 0.930 . S
C440 C438 1.419 . S
C440 C441 1.362 . S
C441 H431 0.930 . S
C441 C434 1.409 . S
C441 C440 1.362 . S
H442 C448 0.930 . S
H443 C451 0.930 . S
H444 C452 0.930 . S
H445 C453 0.930 . S
H446 C456 0.930 . S
H447 C457 0.930 . S
C448 H442 0.930 . S
C448 C449 1.355 . S
C448 C450 1.415 . S
C449 C448 1.355 . S
C449 C451 1.419 . S
C450 C448 1.415 . S
C450 C455 1.425 . S
C450 C457 1.409 . S
C451 H443 0.930 . S
C451 C449 1.419 . S
C451 C452 1.362 . S
C452 H444 0.930 . S
C452 C451 1.362 . S
C452 C455 1.409 . S
C453 H445 0.930 . S
C453 C454 1.355 . S
C453 C455 1.415 . S
C454 C453 1.355 . S
C454 C456 1.419 . S
C455 C450 1.425 . S
C455 C452 1.409 . S
C455 C453 1.415 . S
C456 H446 0.930 . S
C456 C454 1.419 . S
C456 C457 1.362 . S
C457 H447 0.930 . S
C457 C450 1.409 . S
C457 C456 1.362 . S
H458 C464 0.930 . S
H459 C467 0.930 . S
H460 C468 0.930 . S
H461 C469 0.930 . S
H462 C472 0.930 . S
H463 C473 0.930 . S
C464 H458 0.930 . S
C464 C465 1.355 . S
C464 C466 1.415 . S
C465 C464 1.355 . S
C465 C467 1.419 . S
C466 C464 1.415 . S
C466 C471 1.425 . S
C466 C473 1.409 . S
C467 H459 0.930 . S
C467 C465 1.419 . S
C467 C468 1.362 . S
C468 H460 0.930 . S
C468 C467 1.362 . S
C468 C471 1.409 . S
C469 H461 0.930 . S
C469 C470 1.355 . S
C469 C471 1.415 . S
C470 C469 1.355 . S
C470 C472 1.419 . S
C471 C466 1.425 . S
C471 C468 1.409 . S
C471 C469 1.415 . S
C472 H462 0.930 . S
C472 C470 1.419 . S
C472 C473 1.362 . S
C473 H463 0.930 . S
C473 C466 1.409 . S
C473 C472 1.362 . S
H474 C480 0.930 . S
H475 C483 0.930 . S
H476 C484 0.930 . S
H477 C485 0.930 . S
H478 C488 0.930 . S
H479 C489 0.930 . S
C480 H474 0.930 . S
C480 C481 1.355 . S
C480 C482 1.415 . S
C481 C480 1.355 . S
C481 C483 1.419 . S
C482 C480 1.415 . S
C482 C487 1.425 . S
C482 C489 1.409 . S
C483 H475 0.930 . S
C483 C481 1.419 . S
C483 C484 1.362 . S
C484 H476 0.930 . S
C484 C483 1.362 . S
C484 C487 1.409 . S
C485 H477 0.930 . S
C485 C486 1.355 . S
C485 C487 1.415 . S
C486 C485 1.355 . S
C486 C488 1.419 . S
C487 C482 1.425 . S
C487 C484 1.409 . S
C487 C485 1.415 . S
C488 H478 0.930 . S
C488 C486 1.419 . S
C488 C489 1.362 . S
C489 H479 0.930 . S
C489 C482 1.409 . S
C489 C488 1.362 . S
H490 C496 0.930 . S
H491 C499 0.930 . S
H492 C500 0.930 . S
H493 C501 0.930 . S
H494 C504 0.930 . S
H495 C505 0.930 . S
C496 H490 0.930 . S
C496 C497 1.355 . S
C496 C498 1.415 . S
C497 C496 1.355 . S
C497 C499 1.419 . S
C498 C496 1.415 . S
C498 C503 1.425 . S
C498 C505 1.409 . S
C499 H491 0.930 . S
C499 C497 1.419 . S
C499 C500 1.362 . S
C500 H492 0.930 . S
C500 C499 1.362 . S
C500 C503 1.409 . S
C501 H493 0.930 . S
C501 C502 1.355 . S
C501 C503 1.415 . S
C502 C501 1.355 . S
C502 C504 1.419 . S
C503 C498 1.425 . S
C503 C500 1.409 . S
C503 C501 1.415 . S
C504 H494 0.930 . S
C504 C502 1.419 . S
C504 C505 1.362 . S
C505 H495 0.930 . S
C505 C498 1.409 . S
C505 C504 1.362 . S
H506 C512 0.930 . S
H507 C515 0.930 . S
H508 C516 0.930 . S
H509 C517 0.930 . S
H510 C520 0.930 . S
H511 C521 0.930 . S
C512 H506 0.930 . S
C512 C513 1.355 . S
C512 C514 1.415 . S
C513 C512 1.355 . S
C513 C515 1.419 . S
C514 C512 1.415 . S
C514 C519 1.425 . S
C514 C521 1.409 . S
C515 H507 0.930 . S
C515 C513 1.419 . S
C515 C516 1.362 . S
C516 H508 0.930 . S
C516 C515 1.362 . S
C516 C519 1.409 . S
C517 H509 0.930 . S
C517 C518 1.355 . S
C517 C519 1.415 . S
C518 C517 1.355 . S
C518 C520 1.419 . S
C519 C514 1.425 . S
C519 C516 1.409 . S
C519 C517 1.415 . S
C520 H510 0.930 . S
C520 C518 1.419 . S
C520 C521 1.362 . S
C521 H511 0.930 . S
C521 C514 1.409 . S
C521 C520 1.362 . S
H522 C528 0.930 . S
H523 C531 0.930 . S
H524 C532 0.930 . S
H525 C533 0.930 . S
H526 C536 0.930 . S
H527 C537 0.930 . S
C528 H522 0.930 . S
C528 C529 1.355 . S
C528 C530 1.415 . S
C529 C528 1.355 . S
C529 C531 1.419 . S
C530 C528 1.415 . S
C530 C535 1.425 . S
C530 C537 1.409 . S
C531 H523 0.930 . S
C531 C529 1.419 . S
C531 C532 1.362 . S
C532 H524 0.930 . S
C532 C531 1.362 . S
C532 C535 1.409 . S
C533 H525 0.930 . S
C533 C534 1.355 . S
C533 C535 1.415 . S
C534 C533 1.355 . S
C534 C536 1.419 . S
C535 C530 1.425 . S
C535 C532 1.409 . S
C535 C533 1.415 . S
C536 H526 0.930 . S
C536 C534 1.419 . S
C536 C537 1.362 . S
C537 H527 0.930 . S
C537 C530 1.409 . S
C537 C536 1.362 . S
H538 C544 0.930 . S
H539 C547 0.930 . S
H540 C548 0.930 . S
H541 C549 0.930 . S
H542 C552 0.930 . S
H543 C553 0.930 . S
C544 H538 0.930 . S
C544 C545 1.355 . S
C544 C546 1.415 . S
C545 C544 1.355 . S
C545 C547 1.419 . S
C546 C544 1.415 . S
C546 C551 1.425 . S
C546 C553 1.409 . S
C547 H539 0.930 . S
C547 C545 1.419 . S
C547 C548 1.362 . S
C548 H540 0.930 . S
C548 C547 1.362 . S
C548 C551 1.409 . S
C549 H541 0.930 . S
C549 C550 1.355 . S
C549 C551 1.415 . S
C550 C549 1.355 . S
C550 C552 1.419 . S
C551 C546 1.425 . S
C551 C548 1.409 . S
C551 C549 1.415 . S
C552 H542 0.930 . S
C552 C550 1.419 . S
C552 C553 1.362 . S
C553 H543 0.930 . S
C553 C546 1.409 . S
C553 C552 1.362 . S
H554 C560 0.930 . S
H555 C563 0.930 . S
H556 C564 0.930 . S
H557 C565 0.930 . S
H558 C568 0.930 . S
H559 C569 0.930 . S
C560 H554 0.930 . S
C560 C561 1.355 . S
C560 C562 1.415 . S
C561 C560 1.355 . S
C561 C563 1.419 . S
C562 C560 1.415 . S
C562 C567 1.425 . S
C562 C569 1.409 . S
C563 H555 0.930 . S
C563 C561 1.419 . S
C563 C564 1.362 . S
C564 H556 0.930 . S
C564 C563 1.362 . S
C564 C567 1.409 . S
C565 H557 0.930 . S
C565 C566 1.355 . S
C565 C567 1.415 . S
C566 C565 1.355 . S
C566 C568 1.419 . S
C567 C562 1.425 . S
C567 C564 1.409 . S
C567 C565 1.415 . S
C568 H558 0.930 . S
C568 C566 1.419 . S
C568 C569 1.362 . S
C569 H559 0.930 . S
C569 C562 1.409 . S
C569 C568 1.362 . S
H570 C576 0.930 . S
H571 C579 0.930 . S
H572 C580 0.930 1_556 S
H573 C581 0.943 . S
H574 C584 0.930 . S
H575 C585 0.930 . S
C576 H570 0.930 . S
C576 C577 1.355 . S
C576 C578 1.415 . S
C577 C576 1.355 . S
C577 C579 1.419 . S
C578 C576 1.415 . S
C578 C583 1.425 . S
C578 C585 1.409 . S
C579 H571 0.930 . S
C579 C577 1.419 . S
C579 C580 1.362 . S
C580 H572 0.930 1_554 S
C580 C579 1.362 . S
C580 C583 1.409 . S
C581 H573 0.943 . S
C581 C582 1.351 1_556 S
C581 C583 1.405 1_556 S
C582 C581 1.351 1_554 S
C582 C584 1.419 . S
C583 C578 1.425 . S
C583 C580 1.409 . S
C583 C581 1.405 1_554 S
C584 H574 0.930 . S
C584 C582 1.419 . S
C584 C585 1.362 . S
C585 H575 0.930 . S
C585 C578 1.409 . S
C585 C584 1.362 . S
H586 C592 0.930 . S
H587 C595 0.930 . S
H588 C596 0.930 . S
H589 C597 0.930 . S
H590 C600 0.930 . S
H591 C601 0.930 . S
C592 H586 0.930 . S
C592 C593 1.355 . S
C592 C594 1.415 . S
C593 C592 1.355 . S
C593 C595 1.419 1_554 S
C594 C592 1.415 . S
C594 C599 1.425 . S
C594 C601 1.409 . S
C595 H587 0.930 . S
C595 C593 1.419 1_556 S
C595 C596 1.362 . S
C596 H588 0.930 . S
C596 C595 1.362 . S
C596 C599 1.409 1_556 S
C597 H589 0.930 . S
C597 C598 1.355 . S
C597 C599 1.415 . S
C598 C597 1.355 . S
C598 C600 1.419 . S
C599 C594 1.425 . S
C599 C596 1.409 1_554 S
C599 C597 1.415 . S
C600 H590 0.930 . S
C600 C598 1.419 . S
C600 C601 1.362 . S
C601 H591 0.930 . S
C601 C594 1.409 . S
C601 C600 1.362 . S
H602 C608 0.930 1_556 S
H603 C611 0.930 . S
H604 C612 0.930 . S
H605 C613 0.930 . S
H606 C616 0.930 . S
H607 C617 0.930 . S
C608 H602 0.930 1_554 S
C608 C609 1.355 . S
C608 C610 1.415 . S
C609 C608 1.355 . S
C609 C611 1.419 . S
C610 C608 1.415 . S
C610 C615 1.425 . S
C610 C617 1.409 . S
C611 H603 0.930 . S
C611 C609 1.419 . S
C611 C612 1.362 . S
C612 H604 0.930 . S
C612 C611 1.362 . S
C612 C615 1.409 . S
C613 H605 0.930 . S
C613 C614 1.355 . S
C613 C615 1.415 . S
C614 C613 1.355 . S
C614 C616 1.419 . S
C615 C610 1.425 . S
C615 C612 1.409 . S
C615 C613 1.415 . S
C616 H606 0.930 . S
C616 C614 1.419 . S
C616 C617 1.362 . S
C617 H607 0.930 . S
C617 C610 1.409 . S
C617 C616 1.362 . S
H618 C624 0.930 1_655 S
H619 C627 0.930 . S
H620 C628 0.930 . S
H621 C629 0.930 . S
H622 C632 0.930 . S
H623 C633 0.930 1_655 S
C624 H618 0.930 1_455 S
C624 C625 1.355 . S
C624 C626 1.415 . S
C625 C624 1.355 . S
C625 C627 1.419 . S
C626 C624 1.415 . S
C626 C631 1.425 . S
C626 C633 1.409 . S
C627 H619 0.930 . S
C627 C625 1.419 . S
C627 C628 1.362 . S
C628 H620 0.930 . S
C628 C627 1.362 . S
C628 C631 1.409 . S
C629 H621 0.930 . S
C629 C630 1.355 . S
C629 C631 1.415 . S
C630 C629 1.355 . S
C630 C632 1.419 . S
C631 C626 1.425 . S
C631 C628 1.409 . S
C631 C629 1.415 . S
C632 H622 0.930 . S
C632 C630 1.419 . S
C632 C633 1.362 . S
C633 H623 0.930 1_455 S
C633 C626 1.409 . S
C633 C632 1.362 . S
H634 C640 0.930 . S
H635 C643 0.930 . S
H636 C644 0.930 . S
H637 C645 0.930 . S
H638 C648 0.930 . S
H639 C649 0.930 . S
C640 H634 0.930 . S
C640 C641 1.355 . S
C640 C642 1.415 . S
C641 C640 1.355 . S
C641 C643 1.419 . S
C642 C640 1.415 . S
C642 C647 1.425 . S
C642 C649 1.409 . S
C643 H635 0.930 . S
C643 C641 1.419 . S
C643 C644 1.362 . S
C644 H636 0.930 . S
C644 C643 1.362 . S
C644 C647 1.409 . S
C645 H637 0.930 . S
C645 C646 1.355 . S
C645 C647 1.415 . S
C646 C645 1.355 . S
C646 C648 1.419 . S
C647 C642 1.425 . S
C647 C644 1.409 . S
C647 C645 1.415 . S
C648 H638 0.930 . S
C648 C646 1.419 . S
C648 C649 1.362 . S
C649 H639 0.930 . S
C649 C642 1.409 . S
C649 C648 1.362 . S
H650 C656 0.930 . S
H651 C659 0.930 . S
H652 C660 0.930 . S
H653 C661 0.930 . S
H654 C664 0.930 . S
H655 C665 0.930 . S
C656 H650 0.930 . S
C656 C657 1.355 . S
C656 C658 1.415 . S
C657 C656 1.355 . S
C657 C659 1.419 . S
C658 C656 1.415 . S
C658 C663 1.425 . S
C658 C665 1.409 . S
C659 H651 0.930 . S
C659 C657 1.419 . S
C659 C660 1.362 . S
C660 H652 0.930 . S
C660 C659 1.362 . S
C660 C663 1.409 . S
C661 H653 0.930 . S
C661 C662 1.355 . S
C661 C663 1.415 . S
C662 C661 1.355 . S
C662 C664 1.419 . S
C663 C658 1.425 . S
C663 C660 1.409 . S
C663 C661 1.415 . S
C664 H654 0.930 . S
C664 C662 1.419 . S
C664 C665 1.362 . S
C665 H655 0.930 . S
C665 C658 1.409 . S
C665 C664 1.362 . S
H666 C672 0.930 . S
H667 C675 0.930 1_565 S
H668 C676 0.930 1_554 S
H669 C677 0.930 . S
H670 C680 0.930 . S
H671 C681 0.930 . S
C672 H666 0.930 . S
C672 C673 1.355 . S
C672 C674 1.415 . S
C673 C672 1.355 . S
C673 C675 1.419 1_556 S
C674 C672 1.415 . S
C674 C679 1.425 . S
C674 C681 1.409 . S
C675 H667 0.930 1_545 S
C675 C673 1.419 1_554 S
C675 C676 1.362 1_554 S
C676 H668 0.930 1_556 S
C676 C675 1.362 1_556 S
C676 C679 1.409 . S
C677 H669 0.930 . S
C677 C678 1.355 . S
C677 C679 1.415 . S
C678 C677 1.355 . S
C678 C680 1.419 . S
C679 C674 1.425 . S
C679 C676 1.409 . S
C679 C677 1.415 . S
C680 H670 0.930 . S
C680 C678 1.419 . S
C680 C681 1.362 . S
C681 H671 0.930 . S
C681 C674 1.409 . S
C681 C680 1.362 . S
H682 C688 0.930 . S
H683 C691 0.930 . S
H684 C692 0.930 . S
H685 C693 0.930 . S
H686 C696 0.930 1_554 S
H687 C697 0.930 . S
C688 H682 0.930 . S
C688 C689 1.355 . S
C688 C690 1.415 . S
C689 C688 1.355 . S
C689 C691 1.419 . S
C690 C688 1.415 . S
C690 C695 1.425 . S
C690 C697 1.409 . S
C691 H683 0.930 . S
C691 C689 1.419 . S
C691 C692 1.362 . S
C692 H684 0.930 . S
C692 C691 1.362 . S
C692 C695 1.409 . S
C693 H685 0.930 . S
C693 C694 1.355 . S
C693 C695 1.415 . S
C694 C693 1.355 . S
C694 C696 1.419 . S
C695 C690 1.425 . S
C695 C692 1.409 . S
C695 C693 1.415 . S
C696 H686 0.930 1_556 S
C696 C694 1.419 . S
C696 C697 1.362 . S
C697 H687 0.930 . S
C697 C690 1.409 . S
C697 C696 1.362 . S
H698 C704 0.930 . S
H699 C707 0.930 . S
H700 C708 0.930 . S
H701 C709 0.930 . S
H702 C712 0.930 1_554 S
H703 C713 0.930 . S
C704 H698 0.930 . S
C704 C705 1.355 . S
C704 C706 1.415 . S
C705 C704 1.355 . S
C705 C707 1.419 . S
C706 C704 1.415 . S
C706 C711 1.425 . S
C706 C713 1.409 . S
C707 H699 0.930 . S
C707 C705 1.419 . S
C707 C708 1.362 . S
C708 H700 0.930 . S
C708 C707 1.362 . S
C708 C711 1.409 . S
C709 H701 0.930 . S
C709 C710 1.355 . S
C709 C711 1.415 . S
C710 C709 1.355 . S
C710 C712 1.419 . S
C711 C706 1.425 . S
C711 C708 1.409 . S
C711 C709 1.415 . S
C712 H702 0.930 1_556 S
C712 C710 1.419 . S
C712 C713 1.362 . S
C713 H703 0.930 . S
C713 C706 1.409 . S
C713 C712 1.362 . S
H714 C720 0.930 . S
H715 C723 0.930 . S
H716 C724 0.930 . S
H717 C725 0.930 . S
H718 C728 0.930 . S
H719 C729 0.930 . S
C720 H714 0.930 . S
C720 C721 1.355 . S
C720 C722 1.415 . S
C721 C720 1.355 . S
C721 C723 1.419 . S
C722 C720 1.415 . S
C722 C727 1.425 . S
C722 C729 1.409 . S
C723 H715 0.930 . S
C723 C721 1.419 . S
C723 C724 1.362 . S
C724 H716 0.930 . S
C724 C723 1.362 . S
C724 C727 1.409 . S
C725 H717 0.930 . S
C725 C726 1.355 . S
C725 C727 1.415 . S
C726 C725 1.355 . S
C726 C728 1.419 . S
C727 C722 1.425 . S
C727 C724 1.409 . S
C727 C725 1.415 . S
C728 H718 0.930 . S
C728 C726 1.419 . S
C728 C729 1.362 . S
C729 H719 0.930 . S
C729 C722 1.409 . S
C729 C728 1.362 . S
H730 C736 0.930 . S
H731 C739 0.930 . S
H732 C740 0.930 . S
H733 C741 0.930 . S
H734 C744 0.930 . S
H735 C745 0.930 . S
C736 H730 0.930 . S
C736 C737 1.355 . S
C736 C738 1.415 . S
C737 C736 1.355 . S
C737 C739 1.419 . S
C738 C736 1.415 . S
C738 C743 1.425 . S
C738 C745 1.409 . S
C739 H731 0.930 . S
C739 C737 1.419 . S
C739 C740 1.362 . S
C740 H732 0.930 . S
C740 C739 1.362 . S
C740 C743 1.409 . S
C741 H733 0.930 . S
C741 C742 1.355 . S
C741 C743 1.415 . S
C742 C741 1.355 . S
C742 C744 1.419 . S
C743 C738 1.425 . S
C743 C740 1.409 . S
C743 C741 1.415 . S
C744 H734 0.930 . S
C744 C742 1.419 . S
C744 C745 1.362 . S
C745 H735 0.930 . S
C745 C738 1.409 . S
C745 C744 1.362 . S
H746 C752 0.930 . S
H747 C755 0.930 . S
H748 C756 0.930 . S
H749 C757 0.930 . S
H750 C760 0.930 . S
H751 C761 0.930 . S
C752 H746 0.930 . S
C752 C753 1.355 . S
C752 C754 1.415 . S
C753 C752 1.355 . S
C753 C755 1.419 . S
C754 C752 1.415 . S
C754 C759 1.425 . S
C754 C761 1.409 . S
C755 H747 0.930 . S
C755 C753 1.419 . S
C755 C756 1.362 . S
C756 H748 0.930 . S
C756 C755 1.362 . S
C756 C759 1.409 . S
C757 H749 0.930 . S
C757 C758 1.355 . S
C757 C759 1.415 . S
C758 C757 1.355 . S
C758 C760 1.419 . S
C759 C754 1.425 . S
C759 C756 1.409 . S
C759 C757 1.415 . S
C760 H750 0.930 . S
C760 C758 1.419 . S
C760 C761 1.362 . S
C761 H751 0.930 . S
C761 C754 1.409 . S
C761 C760 1.362 . S
H762 C768 0.930 . S
H763 C771 0.930 . S
H764 C772 0.930 . S
H765 C773 0.930 . S
H766 C776 0.930 . S
H767 C777 0.930 . S
C768 H762 0.930 . S
C768 C769 1.355 . S
C768 C770 1.415 . S
C769 C768 1.355 . S
C769 C771 1.419 . S
C770 C768 1.415 . S
C770 C775 1.425 . S
C770 C777 1.409 . S
C771 H763 0.930 . S
C771 C769 1.419 . S
C771 C772 1.362 . S
C772 H764 0.930 . S
C772 C771 1.362 . S
C772 C775 1.409 . S
C773 H765 0.930 . S
C773 C774 1.355 . S
C773 C775 1.415 . S
C774 C773 1.355 . S
C774 C776 1.419 . S
C775 C770 1.425 . S
C775 C772 1.409 . S
C775 C773 1.415 . S
C776 H766 0.930 . S
C776 C774 1.419 . S
C776 C777 1.362 . S
C777 H767 0.930 . S
C777 C770 1.409 . S
C777 C776 1.362 . S
H778 C784 0.930 . S
H779 C787 0.930 . S
H780 C788 0.930 . S
H781 C789 0.930 . S
H782 C792 0.930 . S
H783 C793 0.930 . S
C784 H778 0.930 . S
C784 C785 1.355 . S
C784 C786 1.415 . S
C785 C784 1.355 . S
C785 C787 1.419 . S
C786 C784 1.415 . S
C786 C791 1.425 . S
C786 C793 1.409 . S
C787 H779 0.930 . S
C787 C785 1.419 . S
C787 C788 1.362 . S
C788 H780 0.930 . S
C788 C787 1.362 . S
C788 C791 1.409 . S
C789 H781 0.930 . S
C789 C790 1.355 . S
C789 C791 1.415 . S
C790 C789 1.355 . S
C790 C792 1.419 . S
C791 C786 1.425 . S
C791 C788 1.409 . S
C791 C789 1.415 . S
C792 H782 0.930 . S
C792 C790 1.419 . S
C792 C793 1.362 . S
C793 H783 0.930 . S
C793 C786 1.409 . S
C793 C792 1.362 . S
H794 C800 0.930 . S
H795 C803 0.930 . S
H796 C804 0.930 . S
H797 C805 0.930 . S
H798 C808 0.930 . S
H799 C809 0.930 . S
C800 H794 0.930 . S
C800 C801 1.355 . S
C800 C802 1.415 . S
C801 C800 1.355 . S
C801 C803 1.419 . S
C802 C800 1.415 . S
C802 C807 1.425 . S
C802 C809 1.409 . S
C803 H795 0.930 . S
C803 C801 1.419 . S
C803 C804 1.362 . S
C804 H796 0.930 . S
C804 C803 1.362 . S
C804 C807 1.409 . S
C805 H797 0.930 . S
C805 C806 1.355 . S
C805 C807 1.415 . S
C806 C805 1.355 . S
C806 C808 1.419 . S
C807 C802 1.425 . S
C807 C804 1.409 . S
C807 C805 1.415 . S
C808 H798 0.930 . S
C808 C806 1.419 . S
C808 C809 1.362 . S
C809 H799 0.930 . S
C809 C802 1.409 . S
C809 C808 1.362 . S
C241 C43 1.392 . S
C246 C10 1.392 . S
C257 C62 1.402 . S
C262 C23 1.402 . S
C273 C36 1.364 . S
C278 C75 1.364 . S
C289 C30 1.362 . S
C294 C69 1.362 . S
C305 C4 1.366 . S
C310 C49 1.366 . S
C321 C56 1.375 . S
C326 C17 1.375 . S
C337 C121 1.382 . S
C342 C82 1.382 . S
C353 C101 1.373 . S
C358 C140 1.373 . S
C369 C114 1.371 . S
C374 C147 1.371 . S
C385 C153 1.367 . S
C390 C108 1.367 . S
C401 C127 1.381 . S
C406 C88 1.381 . S
C417 C134 1.399 . S
C422 C95 1.399 . S
C433 C160 1.399 . S
C438 C205 1.399 . S
C449 C173 1.363 . S
C454 C218 1.363 . S
C465 C186 1.400 . S
C470 C225 1.400 . S
C481 C231 1.402 . S
C486 C192 1.402 . S
C497 C199 1.401 . S
C502 C166 1.401 . S
C513 C212 1.368 . S
C518 C179 1.368 . S
C529 C3 1.368 . S
C534 C96 1.344 . S
C545 C16 1.347 . S
C550 C109 1.352 . S
C561 C81 1.352 . S
C566 C29 1.347 . S
C577 C31 1.348 . S
C582 C174 1.352 1_554 S
C593 C187 1.372 1_554 S
C598 C5 1.365 . S
C609 C161 1.367 1_554 S
C614 C18 1.344 . S
C625 C213 1.352 . S
C630 C44 1.375 . S
C641 C55 1.347 . S
C646 C224 1.373 . S
C657 C200 1.357 . S
C662 C68 1.375 . S
C673 C133 1.375 1_556 S
C678 C70 1.353 . S
C689 C42 1.353 . S
C694 C148 1.375 1_556 S
C705 C57 1.352 . S
C710 C122 1.375 1_556 S
C721 C83 1.375 . S
C726 C172 1.353 . S
C737 C94 1.360 . S
C742 C185 1.375 . S
C753 C107 1.353 . S
C758 C159 1.346 . S
C769 C211 1.344 . S
C774 C146 1.368 . S
C785 C226 1.369 . S
C790 C120 1.344 . S
C801 C135 1.344 . S
C806 C198 1.369 . S
