# Generated by pormake.
# Topology umg, (4)-cn, num edge types: 1
# Building blocks:
#     Node 0, Type 0, BuildingBlock: QUQFOY_clean_sbu_1, # of connection points: 4
#     Node 1, Type 0, BuildingBlock: QUQFOY_clean_sbu_1, # of connection points: 4
#     Node 2, Type 0, BuildingBlock: QUQFOY_clean_sbu_1, # of connection points: 4
#     Node 3, Type 0, BuildingBlock: QUQFOY_clean_sbu_1, # of connection points: 4
#     Node 4, Type 0, BuildingBlock: QUQFOY_clean_sbu_1, # of connection points: 4
#     Node 5, Type 0, BuildingBlock: QUQFOY_clean_sbu_1, # of connection points: 4
#     Node 6, Type 0, BuildingBlock: QUQFOY_clean_sbu_1, # of connection points: 4
#     Node 7, Type 0, BuildingBlock: QUQFOY_clean_sbu_1, # of connection points: 4
#     Node 8, Type 0, BuildingBlock: QUQFOY_clean_sbu_1, # of connection points: 4
#     Node 9, Type 0, BuildingBlock: QUQFOY_clean_sbu_1, # of connection points: 4
#     Node 10, Type 0, BuildingBlock: QUQFOY_clean_sbu_1, # of connection points: 4
#     Node 11, Type 0, BuildingBlock: QUQFOY_clean_sbu_1, # of connection points: 4
#     Edge 12, Type (0, 0), BuildingBlock: OJICUG_clean_linker_0, # of connection points: 2
#     Edge 13, Type (0, 0), BuildingBlock: OJICUG_clean_linker_0, # of connection points: 2
#     Edge 14, Type (0, 0), BuildingBlock: OJICUG_clean_linker_0, # of connection points: 2
#     Edge 15, Type (0, 0), BuildingBlock: OJICUG_clean_linker_0, # of connection points: 2
#     Edge 16, Type (0, 0), BuildingBlock: OJICUG_clean_linker_0, # of connection points: 2
#     Edge 17, Type (0, 0), BuildingBlock: OJICUG_clean_linker_0, # of connection points: 2
#     Edge 18, Type (0, 0), BuildingBlock: OJICUG_clean_linker_0, # of connection points: 2
#     Edge 19, Type (0, 0), BuildingBlock: OJICUG_clean_linker_0, # of connection points: 2
#     Edge 20, Type (0, 0), BuildingBlock: OJICUG_clean_linker_0, # of connection points: 2
#     Edge 21, Type (0, 0), BuildingBlock: OJICUG_clean_linker_0, # of connection points: 2
#     Edge 22, Type (0, 0), BuildingBlock: OJICUG_clean_linker_0, # of connection points: 2
#     Edge 23, Type (0, 0), BuildingBlock: OJICUG_clean_linker_0, # of connection points: 2
#     Edge 24, Type (0, 0), BuildingBlock: OJICUG_clean_linker_0, # of connection points: 2
#     Edge 25, Type (0, 0), BuildingBlock: OJICUG_clean_linker_0, # of connection points: 2
#     Edge 26, Type (0, 0), BuildingBlock: OJICUG_clean_linker_0, # of connection points: 2
#     Edge 27, Type (0, 0), BuildingBlock: OJICUG_clean_linker_0, # of connection points: 2
#     Edge 28, Type (0, 0), BuildingBlock: OJICUG_clean_linker_0, # of connection points: 2
#     Edge 29, Type (0, 0), BuildingBlock: OJICUG_clean_linker_0, # of connection points: 2
#     Edge 30, Type (0, 0), BuildingBlock: OJICUG_clean_linker_0, # of connection points: 2
#     Edge 31, Type (0, 0), BuildingBlock: OJICUG_clean_linker_0, # of connection points: 2
#     Edge 32, Type (0, 0), BuildingBlock: OJICUG_clean_linker_0, # of connection points: 2
#     Edge 33, Type (0, 0), BuildingBlock: OJICUG_clean_linker_0, # of connection points: 2
#     Edge 34, Type (0, 0), BuildingBlock: OJICUG_clean_linker_0, # of connection points: 2
#     Edge 35, Type (0, 0), BuildingBlock: OJICUG_clean_linker_0, # of connection points: 2
# Relax obj value: 0.087
# Max RMSD: 0.314
# Mean RMSD: 0.205
data_MOF--net-umg--node1-QUQFOY_clean_sbu_1--edge1-OJICUG_clean_linker_0
_symmetry_space_group_name_H-M    P1
_symmetry_Int_Tables_number       1
_symmetry_cell_setting            triclinic
loop_
_symmetry_equiv_pos_as_xyz
'x, y, z'
_cell_length_a     20.983563
_cell_length_b     20.794556
_cell_length_c     63.056529
_cell_angle_alpha  89.931649
_cell_angle_beta   90.850677
_cell_angle_gamma 119.75629
loop_
_atom_site_label
_atom_site_type_symbol
_atom_site_fract_x
_atom_site_fract_y
_atom_site_fract_z
_atom_type_partial_charge
O0 O 0.36095 0.65864 0.05486 0.0
Cd1 Cd 0.34569 0.59451 0.08089 0.0
Cd2 Cd 0.36217 0.71302 0.10038 0.0
O3 O 0.41717 0.76508 0.07242 0.0
O4 O 0.37297 0.51619 0.07403 0.0
O5 O 0.44265 0.61561 0.09356 0.0
C6 C 0.43382 0.55651 0.08435 0.0
C7 C 0.40542 0.71427 0.13498 0.0
C8 C 0.39865 0.72888 0.05495 0.0
C9 C 0.21088 0.58968 0.09756 0.0
O10 O 0.24982 0.65991 0.09807 0.0
O11 O 0.24126 0.55043 0.0943 0.0
O12 O 0.39769 0.76889 0.12824 0.0
O13 O 0.39336 0.66253 0.12163 0.0
O14 O 0.71583 0.33885 0.38891 0.0
Cd15 Cd 0.76082 0.32681 0.41651 0.0
Cd16 Cd 0.65384 0.34411 0.43243 0.0
O17 O 0.66018 0.39484 0.40306 0.0
O18 O 0.86568 0.35122 0.41131 0.0
O19 O 0.83708 0.42564 0.42847 0.0
C20 C 0.88674 0.41409 0.42063 0.0
C21 C 0.69476 0.39266 0.46661 0.0
C22 C 0.6818 0.3748 0.38682 0.0
C23 C 0.62861 0.19182 0.43282 0.0
O24 O 0.59716 0.23059 0.43157 0.0
O25 O 0.6982 0.22262 0.4307 0.0
O26 O 0.63269 0.38334 0.45932 0.0
O27 O 0.73437 0.3793 0.45395 0.0
O28 O 0.38042 0.72311 0.72176 0.0
Cd29 Cd 0.45912 0.76454 0.74549 0.0
Cd30 Cd 0.34541 0.64944 0.76502 0.0
O31 O 0.2813 0.64177 0.73858 0.0
O32 O 0.53028 0.86485 0.73387 0.0
O33 O 0.46788 0.84969 0.7631 0.0
C34 C 0.5117 0.89355 0.74901 0.0
C35 C 0.34371 0.69013 0.79941 0.0
C36 C 0.31209 0.67698 0.72181 0.0
C37 C 0.47735 0.63388 0.75716 0.0
O38 O 0.40928 0.60082 0.76135 0.0
O39 O 0.51088 0.70263 0.75243 0.0
O40 O 0.29629 0.62349 0.7934 0.0
O41 O 0.38789 0.73431 0.7854 0.0
O42 O 0.74563 0.39316 0.05251 0.0
Cd43 Cd 0.75872 0.45208 0.07957 0.0
Cd44 Cd 0.74245 0.32997 0.09715 0.0
O45 O 0.68955 0.28349 0.06794 0.0
O46 O 0.73141 0.53173 0.07423 0.0
O47 O 0.66028 0.42751 0.09101 0.0
C48 C 0.66979 0.48885 0.08331 0.0
C49 C 0.69688 0.32656 0.13114 0.0
C50 C 0.70885 0.32298 0.05121 0.0
C51 C 0.89338 0.45385 0.09685 0.0
O52 O 0.85469 0.3836 0.09623 0.0
O53 O 0.86282 0.49341 0.09412 0.0
O54 O 0.70388 0.2717 0.12433 0.0
O55 O 0.71165 0.37987 0.11823 0.0
O56 O 0.36222 0.71664 0.39092 0.0
Cd57 Cd 0.31673 0.73345 0.41726 0.0
Cd58 Cd 0.42343 0.71943 0.43588 0.0
O59 O 0.41852 0.66437 0.40745 0.0
O60 O 0.21168 0.70762 0.41057 0.0
O61 O 0.24073 0.63667 0.4297 0.0
C62 C 0.19086 0.64658 0.42076 0.0
C63 C 0.38184 0.67617 0.47005 0.0
C64 C 0.3969 0.68105 0.39035 0.0
C65 C 0.44858 0.87137 0.4338 0.0
O66 O 0.48015 0.83265 0.43408 0.0
O67 O 0.3791 0.84006 0.43067 0.0
O68 O 0.44399 0.68435 0.46385 0.0
O69 O 0.34254 0.68767 0.45638 0.0
O70 O 0.71941 0.36887 0.72048 0.0
Cd71 Cd 0.64317 0.33045 0.74425 0.0
Cd72 Cd 0.76243 0.44926 0.76329 0.0
O73 O 0.82086 0.45462 0.73638 0.0
O74 O 0.56884 0.22945 0.73289 0.0
O75 O 0.63415 0.24577 0.76216 0.0
C76 C 0.58806 0.20123 0.74822 0.0
C77 C 0.76669 0.40496 0.79699 0.0
C78 C 0.78745 0.41611 0.72002 0.0
C79 C 0.62874 0.46378 0.75623 0.0
O80 O 0.69737 0.49697 0.76032 0.0
O81 O 0.59445 0.39491 0.75131 0.0
O82 O 0.81416 0.47211 0.79183 0.0
O83 O 0.72118 0.36282 0.78253 0.0
O84 O 0.37305 0.69555 0.63469 0.0
Cd85 Cd 0.44876 0.73404 0.61073 0.0
Cd86 Cd 0.32931 0.73426 0.5922 0.0
O87 O 0.27152 0.68119 0.61921 0.0
O88 O 0.52335 0.70746 0.62187 0.0
O89 O 0.45769 0.65865 0.59265 0.0
C90 C 0.50402 0.66018 0.60651 0.0
C91 C 0.32301 0.68546 0.55844 0.0
C92 C 0.30517 0.67525 0.63539 0.0
C93 C 0.46351 0.88242 0.59903 0.0
O94 O 0.39481 0.84712 0.59506 0.0
O95 O 0.49764 0.84758 0.60382 0.0
O96 O 0.2763 0.70573 0.56388 0.0
O97 O 0.36901 0.6884 0.57269 0.0
O98 O 0.74225 0.39313 0.96287 0.0
Cd99 Cd 0.77974 0.4575 0.93641 0.0
Cd100 Cd 0.66296 0.3341 0.91928 0.0
O101 O 0.66959 0.28442 0.94751 0.0
O102 O 0.88446 0.53842 0.94274 0.0
O103 O 0.85649 0.44279 0.92182 0.0
C104 C 0.90594 0.5014 0.93134 0.0
C105 C 0.70399 0.33258 0.88509 0.0
C106 C 0.70198 0.32321 0.96398 0.0
C107 C 0.64457 0.46528 0.92248 0.0
O108 O 0.61114 0.39489 0.92173 0.0
O109 O 0.71432 0.50196 0.92532 0.0
O110 O 0.64081 0.27959 0.89106 0.0
O111 O 0.74418 0.3819 0.89898 0.0
O112 O 0.37198 0.70964 0.29942 0.0
Cd113 Cd 0.34641 0.74213 0.27142 0.0
Cd114 Cd 0.3503 0.61778 0.25817 0.0
O115 O 0.40179 0.62774 0.28765 0.0
O116 O 0.37038 0.84877 0.27547 0.0
O117 O 0.43745 0.81677 0.25634 0.0
C118 C 0.42855 0.86828 0.26449 0.0
C119 C 0.39857 0.65472 0.22426 0.0
C120 C 0.39764 0.66644 0.30269 0.0
C121 C 0.20337 0.6045 0.25835 0.0
O122 O 0.23852 0.56928 0.25906 0.0
O123 O 0.23749 0.6752 0.26022 0.0
O124 O 0.38488 0.59077 0.2314 0.0
O125 O 0.38924 0.69762 0.23691 0.0
O126 O 0.71313 0.39157 0.63337 0.0
Cd127 Cd 0.63479 0.35378 0.60948 0.0
Cd128 Cd 0.74883 0.35191 0.59044 0.0
O129 O 0.81222 0.40733 0.61703 0.0
O130 O 0.56335 0.38262 0.62092 0.0
O131 O 0.62573 0.42989 0.59167 0.0
C132 C 0.58178 0.4298 0.60572 0.0
C133 C 0.75356 0.39604 0.55611 0.0
C134 C 0.78126 0.41278 0.63359 0.0
C135 C 0.61608 0.20436 0.59803 0.0
O136 O 0.68416 0.23924 0.59384 0.0
O137 O 0.58285 0.2398 0.60276 0.0
O138 O 0.79981 0.37565 0.56239 0.0
O139 O 0.70864 0.39604 0.56984 0.0
O140 O 0.37507 0.67541 0.9657 0.0
Cd141 Cd 0.33644 0.61742 0.93794 0.0
Cd142 Cd 0.45096 0.74298 0.92286 0.0
O143 O 0.44291 0.78701 0.952 0.0
O144 O 0.23146 0.53571 0.94243 0.0
O145 O 0.2603 0.63707 0.92428 0.0
C146 C 0.21049 0.57609 0.93224 0.0
C147 C 0.40949 0.74917 0.8886 0.0
C148 C 0.4133 0.74525 0.96793 0.0
C149 C 0.4713 0.61294 0.9236 0.0
O150 O 0.50438 0.68333 0.92438 0.0
O151 O 0.40148 0.5755 0.92554 0.0
O152 O 0.47211 0.80196 0.89557 0.0
O153 O 0.37009 0.69713 0.90156 0.0
O154 O 0.71668 0.33733 0.29724 0.0
Cd155 Cd 0.74183 0.30092 0.27018 0.0
Cd156 Cd 0.7374 0.42097 0.25479 0.0
O157 O 0.68371 0.41429 0.28313 0.0
O158 O 0.71741 0.19491 0.27541 0.0
O159 O 0.65024 0.22472 0.25482 0.0
C160 C 0.65902 0.17418 0.26386 0.0
C161 C 0.69233 0.38267 0.22024 0.0
C162 C 0.68907 0.37931 0.29907 0.0
C163 C 0.88456 0.43622 0.25748 0.0
O164 O 0.84923 0.47126 0.25732 0.0
O165 O 0.85051 0.36574 0.25962 0.0
O166 O 0.70493 0.44662 0.22714 0.0
O167 O 0.70053 0.34007 0.23344 0.0
C168 C 0.48429 0.78301 1.00178 0.0
C169 C 0.42385 0.77467 0.98968 0.0
H170 H 0.52426 0.77658 0.03283 0.0
C171 C 0.36302 0.76972 1.00012 0.0
H172 H 0.53081 0.78462 0.99404 0.0
C173 C 0.35945 0.76549 0.02225 0.0
C174 C 0.4165 0.7658 0.03423 0.0
H175 H 0.31502 0.76118 0.99111 0.0
H176 H 0.30879 0.75392 0.02978 0.0
C177 C 0.48055 0.77837 0.02397 0.0
C178 C 0.61455 0.32275 0.35325 0.0
C179 C 0.66305 0.3859 0.36506 0.0
H180 H 0.58385 0.27208 0.32249 0.0
C181 C 0.70814 0.45224 0.35438 0.0
H182 H 0.58046 0.27062 0.36116 0.0
C183 C 0.70965 0.45324 0.33211 0.0
C184 C 0.66665 0.38769 0.32043 0.0
H185 H 0.74738 0.50102 0.36319 0.0
H186 H 0.75004 0.50283 0.32421 0.0
C187 C 0.6165 0.32356 0.33113 0.0
C188 C 0.27044 0.59779 0.68985 0.0
C189 C 0.27398 0.65779 0.70106 0.0
H190 H 0.27692 0.55593 0.65937 0.0
C191 C 0.26696 0.71235 0.68983 0.0
H192 H 0.27776 0.55616 0.69814 0.0
C193 C 0.26455 0.71117 0.66761 0.0
C194 C 0.27123 0.65656 0.65641 0.0
H195 H 0.27152 0.76012 0.69811 0.0
H196 H 0.26723 0.7581 0.65931 0.0
C197 C 0.27008 0.59769 0.66765 0.0
C198 C 0.75507 0.29793 0.01843 0.0
C199 C 0.69474 0.29013 0.02983 0.0
H200 H 0.80364 0.31253 0.98789 0.0
C201 C 0.62994 0.27434 0.01878 0.0
H202 H 0.80615 0.3119 0.02662 0.0
C203 C 0.6283 0.27406 0.99652 0.0
C204 C 0.69167 0.29027 0.98519 0.0
H205 H 0.58353 0.27023 0.02725 0.0
H206 H 0.58059 0.26975 0.9883 0.0
C207 C 0.75365 0.29827 0.99627 0.0
C208 C 0.37329 0.59619 0.33644 0.0
C209 C 0.41801 0.66022 0.32473 0.0
H210 H 0.3321 0.55225 0.3673 0.0
C211 C 0.46764 0.72535 0.33557 0.0
H212 H 0.33328 0.54589 0.32838 0.0
C213 C 0.46743 0.72872 0.35768 0.0
C214 C 0.41723 0.6672 0.36931 0.0
H215 H 0.50159 0.77571 0.32688 0.0
H216 H 0.50126 0.78164 0.36552 0.0
C217 C 0.37257 0.5998 0.35868 0.0
C218 C 0.82701 0.49342 0.68794 0.0
C219 C 0.82186 0.43256 0.69907 0.0
H220 H 0.81876 0.53521 0.6575 0.0
C221 C 0.82435 0.37575 0.68776 0.0
H222 H 0.82323 0.53688 0.6963 0.0
C223 C 0.82385 0.37585 0.66555 0.0
C224 C 0.81878 0.43168 0.65442 0.0
H225 H 0.81862 0.32744 0.696 0.0
H226 H 0.81765 0.32748 0.65721 0.0
C227 C 0.82443 0.49249 0.66572 0.0
C228 C 0.42421 0.74384 0.1945 0.0
C229 C 0.41552 0.67574 0.20166 0.0
H230 H 0.42837 0.80982 0.16785 0.0
C231 C 0.41397 0.62518 0.18665 0.0
H232 H 0.42612 0.78442 0.20563 0.0
C233 C 0.41574 0.64013 0.16492 0.0
C234 C 0.41872 0.7058 0.15775 0.0
H235 H 0.40753 0.57241 0.1916 0.0
H236 H 0.41079 0.5983 0.15375 0.0
C237 C 0.42558 0.7586 0.1728 0.0
C238 C 0.78123 0.41082 0.49675 0.0
C239 C 0.71663 0.4089 0.48934 0.0
H240 H 0.84385 0.4087 0.5236 0.0
C241 C 0.66964 0.41319 0.5042 0.0
H242 H 0.81904 0.4081 0.48576 0.0
C243 C 0.68437 0.41416 0.526 0.0
C244 C 0.74608 0.41026 0.53337 0.0
H245 H 0.61958 0.41199 0.49905 0.0
H246 H 0.64512 0.41374 0.53704 0.0
C247 C 0.7956 0.41116 0.51849 0.0
C248 C 0.41603 0.77823 0.82905 0.0
C249 C 0.35331 0.71264 0.82211 0.0
H250 H 0.4832 0.84169 0.85555 0.0
C251 C 0.30474 0.66486 0.83734 0.0
H252 H 0.45461 0.81642 0.81773 0.0
C253 C 0.32086 0.67976 0.85898 0.0
C254 C 0.38633 0.74247 0.86595 0.0
H255 H 0.25579 0.61418 0.83256 0.0
H256 H 0.28361 0.63989 0.87023 0.0
C257 C 0.43253 0.79285 0.85075 0.0
C258 C 0.67447 0.28101 0.16872 0.0
C259 C 0.68082 0.33342 0.15362 0.0
H260 H 0.67172 0.2549 0.20164 0.0
C261 C 0.68035 0.39756 0.1606 0.0
H262 H 0.67436 0.23097 0.16391 0.0
C263 C 0.67925 0.41163 0.18227 0.0
C264 C 0.67824 0.36171 0.19743 0.0
H265 H 0.68465 0.43898 0.14939 0.0
H266 H 0.68299 0.46336 0.18712 0.0
C267 C 0.67301 0.29491 0.19038 0.0
C268 C 0.28126 0.66661 0.52033 0.0
C269 C 0.33002 0.66812 0.53605 0.0
H270 H 0.25859 0.66627 0.48716 0.0
C271 C 0.3909 0.66173 0.52984 0.0
H272 H 0.23369 0.67099 0.52454 0.0
C273 C 0.40569 0.65964 0.50833 0.0
C274 C 0.35958 0.66331 0.49259 0.0
H275 H 0.42952 0.66244 0.54156 0.0
H276 H 0.45514 0.6589 0.50408 0.0
C277 C 0.29569 0.6639 0.49885 0.0
C278 C 0.68047 0.2945 0.84664 0.0
C279 C 0.72679 0.34285 0.86259 0.0
H280 H 0.65753 0.27561 0.81332 0.0
C281 C 0.79173 0.40694 0.85662 0.0
H282 H 0.63023 0.24466 0.85067 0.0
C283 C 0.80711 0.42517 0.83523 0.0
C284 C 0.75831 0.37937 0.81929 0.0
H285 H 0.82901 0.44533 0.86849 0.0
H286 H 0.85555 0.47682 0.83124 0.0
C287 C 0.69625 0.31241 0.82521 0.0
C288 C 1.00834 0.44473 0.09923 0.0
C289 C 0.97457 0.48882 0.09915 0.0
H290 H 0.10887 0.44153 0.09878 0.0
C291 C 1.01945 0.56619 0.09996 0.0
H292 H 0.97561 0.38488 0.09864 0.0
C293 C 0.09606 0.59863 0.10016 0.0
C294 C 0.12979 0.55457 0.09941 0.0
H295 H 0.99548 0.60185 0.09998 0.0
H296 H 0.12879 0.6585 0.10032 0.0
C297 C 0.08493 0.47718 0.09928 0.0
C298 C 0.61513 0.06501 0.43642 0.0
C299 C 0.58285 0.1101 0.43521 0.0
H300 H 0.59837 0.95485 0.43715 0.0
C301 C 0.5056 0.07586 0.43501 0.0
H302 H 0.67429 0.0893 0.43666 0.0
C303 C 0.46184 0.99855 0.43517 0.0
C304 C 0.49415 0.95342 0.43566 0.0
H305 H 0.47864 0.10872 0.43413 0.0
H306 H 0.40271 0.97423 0.43443 0.0
C307 C 0.57137 0.98772 0.4367 0.0
C308 C 0.51267 0.47129 0.75687 0.0
C309 C 0.58967 0.50696 0.75678 0.0
H310 H 0.41709 0.4832 0.7573 0.0
C311 C 0.6296 0.58503 0.757 0.0
H312 H 0.48023 0.41139 0.75673 0.0
C313 C 0.59344 0.62637 0.75709 0.0
C314 C 0.51646 0.5907 0.75727 0.0
H315 H 0.68904 0.61447 0.75685 0.0
H316 H 0.62587 0.68627 0.7571 0.0
C317 C 0.47654 0.51263 0.75726 0.0
C318 C 0.49965 0.08074 0.59821 0.0
C319 C 0.57665 0.12195 0.59794 0.0
H320 H 0.40379 0.97326 0.59854 0.0
C321 C 0.61628 0.08357 0.59788 0.0
H322 H 0.46742 0.10837 0.59824 0.0
C323 C 0.57989 1.00601 0.5983 0.0
C324 C 0.50288 0.96479 0.59847 0.0
H325 H 0.67573 0.11348 0.59777 0.0
H326 H 0.61213 0.9784 0.59838 0.0
C327 C 0.46323 1.00317 0.59832 0.0
C328 C 0.59275 0.61657 0.92193 0.0
C329 C 0.51539 0.57512 0.92162 0.0
H330 H 0.69415 0.61493 0.92245 0.0
C331 C 0.48131 0.49757 0.92045 0.0
H332 H 0.62107 0.67649 0.92281 0.0
C333 C 0.52341 0.46234 0.92014 0.0
C334 C 0.60075 0.50368 0.92112 0.0
H335 H 0.42202 0.46388 0.92013 0.0
H336 H 0.49503 0.40238 0.9196 0.0
C337 C 0.63487 0.58131 0.92174 0.0
C338 C 0.08441 0.48365 0.25633 0.0
C339 C 0.12182 0.56177 0.25647 0.0
H340 H 0.98082 0.38285 0.25653 0.0
C341 C 0.08027 0.59783 0.25584 0.0
H342 H 0.11447 0.45378 0.25677 0.0
C343 C 1.00342 0.55692 0.25562 0.0
C344 C 0.96604 0.47885 0.25612 0.0
H345 H 0.10703 0.65775 0.25589 0.0
H346 H 0.97336 0.5868 0.2555 0.0
C347 C 1.00757 0.44276 0.2562 0.0
C348 C 0.62496 0.5803 0.08503 0.0
C349 C 0.60985 0.50668 0.08403 0.0
H350 H 0.58061 0.65344 0.08652 0.0
C351 C 0.53623 0.44921 0.08344 0.0
H352 H 0.68113 0.62554 0.08553 0.0
C353 C 0.47876 0.46511 0.08341 0.0
C354 C 0.49383 0.53868 0.08467 0.0
H355 H 0.52306 0.39188 0.08253 0.0
H356 H 0.4226 0.4199 0.08259 0.0
C357 C 0.56744 0.59609 0.0857 0.0
C358 C 1.02139 0.45606 0.4218 0.0
C359 C 0.96465 0.47324 0.42129 0.0
H360 H 0.1376 0.49791 0.42261 0.0
C361 C 0.98277 0.54812 0.4209 0.0
H362 H 1.00897 0.39891 0.42211 0.0
C363 C 0.05623 0.60472 0.42055 0.0
C364 C 0.11296 0.58756 0.4213 0.0
H365 H 0.94003 0.56293 0.42035 0.0
H366 H 0.06864 0.66184 0.41989 0.0
C367 C 0.09485 0.51273 0.42216 0.0
C368 C 0.55497 0.08277 0.72956 0.0
C369 C 0.56474 0.12154 0.74865 0.0
H370 H 0.53336 0.98095 0.71479 0.0
C371 C 0.55866 0.08531 0.76797 0.0
H372 H 0.56049 0.10975 0.71444 0.0
C373 C 0.5417 1.01109 0.76817 0.0
C374 C 0.53348 0.97288 0.74905 0.0
H375 H 0.56661 0.11425 0.7829 0.0
H376 H 0.53586 0.98383 0.78325 0.0
C377 C 0.54058 1.00951 0.72976 0.0
C378 C 0.53771 0.57508 0.62511 0.0
C379 C 0.52751 0.60393 0.60603 0.0
H380 H 0.56007 0.49534 0.63989 0.0
C381 C 0.53362 0.57392 0.58671 0.0
H382 H 0.53222 0.59642 0.64023 0.0
C383 C 0.55108 0.517 0.58651 0.0
C384 C 0.55974 0.48717 0.60563 0.0
H385 H 0.52536 0.59481 0.57178 0.0
H386 H 0.55695 0.49571 0.57143 0.0
C387 C 0.55257 0.51655 0.62491 0.0
C388 C 0.07629 0.48254 0.92988 0.0
C389 C 0.13254 0.55665 0.93098 0.0
H390 H 0.96026 0.40738 0.92846 0.0
C391 C 0.11388 0.61296 0.93162 0.0
H392 H 0.08921 0.43818 0.92939 0.0
C393 C 1.04024 0.59539 0.93176 0.0
C394 C 0.98398 0.5213 0.9305 0.0
H395 H 0.15633 0.67063 0.93264 0.0
H396 H 1.02731 0.63966 0.93276 0.0
C397 C 1.00268 0.4651 0.92926 0.0
C398 C 0.47004 1.00386 0.26238 0.0
C399 C 0.4869 0.94653 0.26284 0.0
H400 H 0.51192 0.12115 0.26162 0.0
C401 C 0.561 0.96446 0.26278 0.0
H402 H 0.41344 0.99149 0.26244 0.0
C403 C 0.61732 0.03847 0.263 0.0
C404 C 0.60048 0.0958 0.26251 0.0
H405 H 0.57549 0.9212 0.26331 0.0
H406 H 0.67393 0.05086 0.26357 0.0
C407 C 0.52636 0.07784 0.26182 0.0
loop_
_geom_bond_atom_site_label_1
_geom_bond_atom_site_label_2
_geom_bond_distance
_geom_bond_site_symmetry_2
_ccdc_geom_bond_type
O0 Cd1 2.223 . S
O0 C8 1.315 . S
Cd1 O0 2.223 . S
Cd1 O4 2.297 . S
Cd1 O5 2.439 . S
Cd1 O11 2.240 . S
Cd2 O3 2.240 . S
Cd2 O10 2.223 . S
Cd2 O12 2.297 . S
Cd2 O13 2.439 . S
O3 Cd2 2.240 . S
O3 C8 1.279 . S
O4 Cd1 2.297 . S
O4 C6 1.247 . S
O5 Cd1 2.439 . S
O5 C6 1.208 . S
C6 O4 1.247 . S
C6 O5 1.208 . S
C7 O12 1.247 . S
C7 O13 1.208 . S
C8 O0 1.315 . S
C8 O3 1.279 . S
C9 O10 1.315 . S
C9 O11 1.279 . S
O10 Cd2 2.223 . S
O10 C9 1.315 . S
O11 Cd1 2.240 . S
O11 C9 1.279 . S
O12 Cd2 2.297 . S
O12 C7 1.247 . S
O13 Cd2 2.439 . S
O13 C7 1.208 . S
O14 Cd15 2.223 . S
O14 C22 1.315 . S
Cd15 O14 2.223 . S
Cd15 O18 2.297 . S
Cd15 O19 2.439 . S
Cd15 O25 2.240 . S
Cd16 O17 2.240 . S
Cd16 O24 2.223 . S
Cd16 O26 2.297 . S
Cd16 O27 2.439 . S
O17 Cd16 2.240 . S
O17 C22 1.279 . S
O18 Cd15 2.297 . S
O18 C20 1.247 . S
O19 Cd15 2.439 . S
O19 C20 1.208 . S
C20 O18 1.247 . S
C20 O19 1.208 . S
C21 O26 1.247 . S
C21 O27 1.208 . S
C22 O14 1.315 . S
C22 O17 1.279 . S
C23 O24 1.315 . S
C23 O25 1.279 . S
O24 Cd16 2.223 . S
O24 C23 1.315 . S
O25 Cd15 2.240 . S
O25 C23 1.279 . S
O26 Cd16 2.297 . S
O26 C21 1.247 . S
O27 Cd16 2.439 . S
O27 C21 1.208 . S
O28 Cd29 2.223 . S
O28 C36 1.315 . S
Cd29 O28 2.223 . S
Cd29 O32 2.297 . S
Cd29 O33 2.439 . S
Cd29 O39 2.240 . S
Cd30 O31 2.240 . S
Cd30 O38 2.223 . S
Cd30 O40 2.297 . S
Cd30 O41 2.439 . S
O31 Cd30 2.240 . S
O31 C36 1.279 . S
O32 Cd29 2.297 . S
O32 C34 1.247 . S
O33 Cd29 2.439 . S
O33 C34 1.208 . S
C34 O32 1.247 . S
C34 O33 1.208 . S
C35 O40 1.247 . S
C35 O41 1.208 . S
C36 O28 1.315 . S
C36 O31 1.279 . S
C37 O38 1.315 . S
C37 O39 1.279 . S
O38 Cd30 2.223 . S
O38 C37 1.315 . S
O39 Cd29 2.240 . S
O39 C37 1.279 . S
O40 Cd30 2.297 . S
O40 C35 1.247 . S
O41 Cd30 2.439 . S
O41 C35 1.208 . S
O42 Cd43 2.223 . S
O42 C50 1.315 . S
Cd43 O42 2.223 . S
Cd43 O46 2.297 . S
Cd43 O47 2.439 . S
Cd43 O53 2.240 . S
Cd44 O45 2.240 . S
Cd44 O52 2.223 . S
Cd44 O54 2.297 . S
Cd44 O55 2.439 . S
O45 Cd44 2.240 . S
O45 C50 1.279 . S
O46 Cd43 2.297 . S
O46 C48 1.247 . S
O47 Cd43 2.439 . S
O47 C48 1.208 . S
C48 O46 1.247 . S
C48 O47 1.208 . S
C49 O54 1.247 . S
C49 O55 1.208 . S
C50 O42 1.315 . S
C50 O45 1.279 . S
C51 O52 1.315 . S
C51 O53 1.279 . S
O52 Cd44 2.223 . S
O52 C51 1.315 . S
O53 Cd43 2.240 . S
O53 C51 1.279 . S
O54 Cd44 2.297 . S
O54 C49 1.247 . S
O55 Cd44 2.439 . S
O55 C49 1.208 . S
O56 Cd57 2.223 . S
O56 C64 1.315 . S
Cd57 O56 2.223 . S
Cd57 O60 2.297 . S
Cd57 O61 2.439 . S
Cd57 O67 2.240 . S
Cd58 O59 2.240 . S
Cd58 O66 2.223 . S
Cd58 O68 2.297 . S
Cd58 O69 2.439 . S
O59 Cd58 2.240 . S
O59 C64 1.279 . S
O60 Cd57 2.297 . S
O60 C62 1.247 . S
O61 Cd57 2.439 . S
O61 C62 1.208 . S
C62 O60 1.247 . S
C62 O61 1.208 . S
C63 O68 1.247 . S
C63 O69 1.208 . S
C64 O56 1.315 . S
C64 O59 1.279 . S
C65 O66 1.315 . S
C65 O67 1.279 . S
O66 Cd58 2.223 . S
O66 C65 1.315 . S
O67 Cd57 2.240 . S
O67 C65 1.279 . S
O68 Cd58 2.297 . S
O68 C63 1.247 . S
O69 Cd58 2.439 . S
O69 C63 1.208 . S
O70 Cd71 2.223 . S
O70 C78 1.315 . S
Cd71 O70 2.223 . S
Cd71 O74 2.297 . S
Cd71 O75 2.439 . S
Cd71 O81 2.240 . S
Cd72 O73 2.240 . S
Cd72 O80 2.223 . S
Cd72 O82 2.297 . S
Cd72 O83 2.439 . S
O73 Cd72 2.240 . S
O73 C78 1.279 . S
O74 Cd71 2.297 . S
O74 C76 1.247 . S
O75 Cd71 2.439 . S
O75 C76 1.208 . S
C76 O74 1.247 . S
C76 O75 1.208 . S
C77 O82 1.247 . S
C77 O83 1.208 . S
C78 O70 1.315 . S
C78 O73 1.279 . S
C79 O80 1.315 . S
C79 O81 1.279 . S
O80 Cd72 2.223 . S
O80 C79 1.315 . S
O81 Cd71 2.240 . S
O81 C79 1.279 . S
O82 Cd72 2.297 . S
O82 C77 1.247 . S
O83 Cd72 2.439 . S
O83 C77 1.208 . S
O84 Cd85 2.223 . S
O84 C92 1.315 . S
Cd85 O84 2.223 . S
Cd85 O88 2.297 . S
Cd85 O89 2.439 . S
Cd85 O95 2.240 . S
Cd86 O87 2.240 . S
Cd86 O94 2.223 . S
Cd86 O96 2.297 . S
Cd86 O97 2.439 . S
O87 Cd86 2.240 . S
O87 C92 1.279 . S
O88 Cd85 2.297 . S
O88 C90 1.247 . S
O89 Cd85 2.439 . S
O89 C90 1.208 . S
C90 O88 1.247 . S
C90 O89 1.208 . S
C91 O96 1.247 . S
C91 O97 1.208 . S
C92 O84 1.315 . S
C92 O87 1.279 . S
C93 O94 1.315 . S
C93 O95 1.279 . S
O94 Cd86 2.223 . S
O94 C93 1.315 . S
O95 Cd85 2.240 . S
O95 C93 1.279 . S
O96 Cd86 2.297 . S
O96 C91 1.247 . S
O97 Cd86 2.439 . S
O97 C91 1.208 . S
O98 Cd99 2.223 . S
O98 C106 1.315 . S
Cd99 O98 2.223 . S
Cd99 O102 2.297 . S
Cd99 O103 2.439 . S
Cd99 O109 2.240 . S
Cd100 O101 2.240 . S
Cd100 O108 2.223 . S
Cd100 O110 2.297 . S
Cd100 O111 2.439 . S
O101 Cd100 2.240 . S
O101 C106 1.279 . S
O102 Cd99 2.297 . S
O102 C104 1.247 . S
O103 Cd99 2.439 . S
O103 C104 1.208 . S
C104 O102 1.247 . S
C104 O103 1.208 . S
C105 O110 1.247 . S
C105 O111 1.208 . S
C106 O98 1.315 . S
C106 O101 1.279 . S
C107 O108 1.315 . S
C107 O109 1.279 . S
O108 Cd100 2.223 . S
O108 C107 1.315 . S
O109 Cd99 2.240 . S
O109 C107 1.279 . S
O110 Cd100 2.297 . S
O110 C105 1.247 . S
O111 Cd100 2.439 . S
O111 C105 1.208 . S
O112 Cd113 2.223 . S
O112 C120 1.315 . S
Cd113 O112 2.223 . S
Cd113 O116 2.297 . S
Cd113 O117 2.439 . S
Cd113 O123 2.240 . S
Cd114 O115 2.240 . S
Cd114 O122 2.223 . S
Cd114 O124 2.297 . S
Cd114 O125 2.439 . S
O115 Cd114 2.240 . S
O115 C120 1.279 . S
O116 Cd113 2.297 . S
O116 C118 1.247 . S
O117 Cd113 2.439 . S
O117 C118 1.208 . S
C118 O116 1.247 . S
C118 O117 1.208 . S
C119 O124 1.247 . S
C119 O125 1.208 . S
C120 O112 1.315 . S
C120 O115 1.279 . S
C121 O122 1.315 . S
C121 O123 1.279 . S
O122 Cd114 2.223 . S
O122 C121 1.315 . S
O123 Cd113 2.240 . S
O123 C121 1.279 . S
O124 Cd114 2.297 . S
O124 C119 1.247 . S
O125 Cd114 2.439 . S
O125 C119 1.208 . S
O126 Cd127 2.223 . S
O126 C134 1.315 . S
Cd127 O126 2.223 . S
Cd127 O130 2.297 . S
Cd127 O131 2.439 . S
Cd127 O137 2.240 . S
Cd128 O129 2.240 . S
Cd128 O136 2.223 . S
Cd128 O138 2.297 . S
Cd128 O139 2.439 . S
O129 Cd128 2.240 . S
O129 C134 1.279 . S
O130 Cd127 2.297 . S
O130 C132 1.247 . S
O131 Cd127 2.439 . S
O131 C132 1.208 . S
C132 O130 1.247 . S
C132 O131 1.208 . S
C133 O138 1.247 . S
C133 O139 1.208 . S
C134 O126 1.315 . S
C134 O129 1.279 . S
C135 O136 1.315 . S
C135 O137 1.279 . S
O136 Cd128 2.223 . S
O136 C135 1.315 . S
O137 Cd127 2.240 . S
O137 C135 1.279 . S
O138 Cd128 2.297 . S
O138 C133 1.247 . S
O139 Cd128 2.439 . S
O139 C133 1.208 . S
O140 Cd141 2.223 . S
O140 C148 1.315 . S
Cd141 O140 2.223 . S
Cd141 O144 2.297 . S
Cd141 O145 2.439 . S
Cd141 O151 2.240 . S
Cd142 O143 2.240 . S
Cd142 O150 2.223 . S
Cd142 O152 2.297 . S
Cd142 O153 2.439 . S
O143 Cd142 2.240 . S
O143 C148 1.279 . S
O144 Cd141 2.297 . S
O144 C146 1.247 . S
O145 Cd141 2.439 . S
O145 C146 1.208 . S
C146 O144 1.247 . S
C146 O145 1.208 . S
C147 O152 1.247 . S
C147 O153 1.208 . S
C148 O140 1.315 . S
C148 O143 1.279 . S
C149 O150 1.315 . S
C149 O151 1.279 . S
O150 Cd142 2.223 . S
O150 C149 1.315 . S
O151 Cd141 2.240 . S
O151 C149 1.279 . S
O152 Cd142 2.297 . S
O152 C147 1.247 . S
O153 Cd142 2.439 . S
O153 C147 1.208 . S
O154 Cd155 2.223 . S
O154 C162 1.315 . S
Cd155 O154 2.223 . S
Cd155 O158 2.297 . S
Cd155 O159 2.439 . S
Cd155 O165 2.240 . S
Cd156 O157 2.240 . S
Cd156 O164 2.223 . S
Cd156 O166 2.297 . S
Cd156 O167 2.439 . S
O157 Cd156 2.240 . S
O157 C162 1.279 . S
O158 Cd155 2.297 . S
O158 C160 1.247 . S
O159 Cd155 2.439 . S
O159 C160 1.208 . S
C160 O158 1.247 . S
C160 O159 1.208 . S
C161 O166 1.247 . S
C161 O167 1.208 . S
C162 O154 1.315 . S
C162 O157 1.279 . S
C163 O164 1.315 . S
C163 O165 1.279 . S
O164 Cd156 2.223 . S
O164 C163 1.315 . S
O165 Cd155 2.240 . S
O165 C163 1.279 . S
O166 Cd156 2.297 . S
O166 C161 1.247 . S
O167 Cd156 2.439 . S
O167 C161 1.208 . S
C168 C169 1.387 . S
C168 H172 0.950 . S
C168 C177 1.390 1_556 S
C169 C168 1.387 . S
C169 C171 1.387 1_556 S
H170 C177 0.950 . S
C171 C169 1.387 1_554 S
C171 C173 1.390 . S
C171 H175 0.950 . S
H172 C168 0.950 . S
C173 C171 1.390 . S
C173 C174 1.387 . S
C173 H176 0.950 . S
C174 C173 1.387 . S
C174 C177 1.387 . S
H175 C171 0.950 . S
H176 C173 0.950 . S
C177 C168 1.390 1_554 S
C177 H170 0.950 . S
C177 C174 1.387 . S
C178 C179 1.387 . S
C178 H182 0.950 . S
C178 C187 1.390 . S
C179 C178 1.387 . S
C179 C181 1.387 . S
H180 C187 0.950 . S
C181 C179 1.387 . S
C181 C183 1.390 . S
C181 H185 0.950 . S
H182 C178 0.950 . S
C183 C181 1.390 . S
C183 C184 1.387 . S
C183 H186 0.950 . S
C184 C183 1.387 . S
C184 C187 1.387 . S
H185 C181 0.950 . S
H186 C183 0.950 . S
C187 C178 1.390 . S
C187 H180 0.950 . S
C187 C184 1.387 . S
C188 C189 1.387 . S
C188 H192 0.950 . S
C188 C197 1.390 . S
C189 C188 1.387 . S
C189 C191 1.387 . S
H190 C197 0.950 . S
C191 C189 1.387 . S
C191 C193 1.390 . S
C191 H195 0.950 . S
H192 C188 0.950 . S
C193 C191 1.390 . S
C193 C194 1.387 . S
C193 H196 0.950 . S
C194 C193 1.387 . S
C194 C197 1.387 . S
H195 C191 0.950 . S
H196 C193 0.950 . S
C197 C188 1.390 . S
C197 H190 0.950 . S
C197 C194 1.387 . S
C198 C199 1.387 . S
C198 H202 0.950 . S
C198 C207 1.390 1_554 S
C199 C198 1.387 . S
C199 C201 1.387 1_554 S
H200 C207 0.950 . S
C201 C199 1.387 1_556 S
C201 C203 1.390 . S
C201 H205 0.950 . S
H202 C198 0.950 . S
C203 C201 1.390 . S
C203 C204 1.387 . S
C203 H206 0.950 . S
C204 C203 1.387 . S
C204 C207 1.387 . S
H205 C201 0.950 . S
H206 C203 0.950 . S
C207 C198 1.390 1_556 S
C207 H200 0.950 . S
C207 C204 1.387 . S
C208 C209 1.387 . S
C208 H212 0.950 . S
C208 C217 1.390 . S
C209 C208 1.387 . S
C209 C211 1.387 . S
H210 C217 0.950 . S
C211 C209 1.387 . S
C211 C213 1.390 . S
C211 H215 0.950 . S
H212 C208 0.950 . S
C213 C211 1.390 . S
C213 C214 1.387 . S
C213 H216 0.950 . S
C214 C213 1.387 . S
C214 C217 1.387 . S
H215 C211 0.950 . S
H216 C213 0.950 . S
C217 C208 1.390 . S
C217 H210 0.950 . S
C217 C214 1.387 . S
C218 C219 1.387 . S
C218 H222 0.950 . S
C218 C227 1.390 . S
C219 C218 1.387 . S
C219 C221 1.387 . S
H220 C227 0.950 . S
C221 C219 1.387 . S
C221 C223 1.390 . S
C221 H225 0.950 . S
H222 C218 0.950 . S
C223 C221 1.390 . S
C223 C224 1.387 . S
C223 H226 0.950 . S
C224 C223 1.387 . S
C224 C227 1.387 . S
H225 C221 0.950 . S
H226 C223 0.950 . S
C227 C218 1.390 . S
C227 H220 0.950 . S
C227 C224 1.387 . S
C228 C229 1.387 . S
C228 H232 0.950 . S
C228 C237 1.390 . S
C229 C228 1.387 . S
C229 C231 1.387 . S
H230 C237 0.950 . S
C231 C229 1.387 . S
C231 C233 1.390 . S
C231 H235 0.950 . S
H232 C228 0.950 . S
C233 C231 1.390 . S
C233 C234 1.387 . S
C233 H236 0.950 . S
C234 C233 1.387 . S
C234 C237 1.387 . S
H235 C231 0.950 . S
H236 C233 0.950 . S
C237 C228 1.390 . S
C237 H230 0.950 . S
C237 C234 1.387 . S
C238 C239 1.387 . S
C238 H242 0.950 . S
C238 C247 1.390 . S
C239 C238 1.387 . S
C239 C241 1.387 . S
H240 C247 0.950 . S
C241 C239 1.387 . S
C241 C243 1.390 . S
C241 H245 0.950 . S
H242 C238 0.950 . S
C243 C241 1.390 . S
C243 C244 1.387 . S
C243 H246 0.950 . S
C244 C243 1.387 . S
C244 C247 1.387 . S
H245 C241 0.950 . S
H246 C243 0.950 . S
C247 C238 1.390 . S
C247 H240 0.950 . S
C247 C244 1.387 . S
C248 C249 1.387 . S
C248 H252 0.950 . S
C248 C257 1.390 . S
C249 C248 1.387 . S
C249 C251 1.387 . S
H250 C257 0.950 . S
C251 C249 1.387 . S
C251 C253 1.390 . S
C251 H255 0.950 . S
H252 C248 0.950 . S
C253 C251 1.390 . S
C253 C254 1.387 . S
C253 H256 0.950 . S
C254 C253 1.387 . S
C254 C257 1.387 . S
H255 C251 0.950 . S
H256 C253 0.950 . S
C257 C248 1.390 . S
C257 H250 0.950 . S
C257 C254 1.387 . S
C258 C259 1.387 . S
C258 H262 0.950 . S
C258 C267 1.390 . S
C259 C258 1.387 . S
C259 C261 1.387 . S
H260 C267 0.950 . S
C261 C259 1.387 . S
C261 C263 1.390 . S
C261 H265 0.950 . S
H262 C258 0.950 . S
C263 C261 1.390 . S
C263 C264 1.387 . S
C263 H266 0.950 . S
C264 C263 1.387 . S
C264 C267 1.387 . S
H265 C261 0.950 . S
H266 C263 0.950 . S
C267 C258 1.390 . S
C267 H260 0.950 . S
C267 C264 1.387 . S
C268 C269 1.387 . S
C268 H272 0.950 . S
C268 C277 1.390 . S
C269 C268 1.387 . S
C269 C271 1.387 . S
H270 C277 0.950 . S
C271 C269 1.387 . S
C271 C273 1.390 . S
C271 H275 0.950 . S
H272 C268 0.950 . S
C273 C271 1.390 . S
C273 C274 1.387 . S
C273 H276 0.950 . S
C274 C273 1.387 . S
C274 C277 1.387 . S
H275 C271 0.950 . S
H276 C273 0.950 . S
C277 C268 1.390 . S
C277 H270 0.950 . S
C277 C274 1.387 . S
C278 C279 1.387 . S
C278 H282 0.950 . S
C278 C287 1.390 . S
C279 C278 1.387 . S
C279 C281 1.387 . S
H280 C287 0.950 . S
C281 C279 1.387 . S
C281 C283 1.390 . S
C281 H285 0.950 . S
H282 C278 0.950 . S
C283 C281 1.390 . S
C283 C284 1.387 . S
C283 H286 0.950 . S
C284 C283 1.387 . S
C284 C287 1.387 . S
H285 C281 0.950 . S
H286 C283 0.950 . S
C287 C278 1.390 . S
C287 H280 0.950 . S
C287 C284 1.387 . S
C288 C289 1.387 . S
C288 H292 0.950 . S
C288 C297 1.390 . S
C289 C288 1.387 . S
C289 C291 1.387 . S
H290 C297 0.950 . S
C291 C289 1.387 . S
C291 C293 1.390 1_655 S
C291 H295 0.950 . S
H292 C288 0.950 . S
C293 C291 1.390 1_455 S
C293 C294 1.387 . S
C293 H296 0.950 . S
C294 C293 1.387 . S
C294 C297 1.387 1_455 S
H295 C291 0.950 . S
H296 C293 0.950 . S
C297 C288 1.390 . S
C297 H290 0.950 . S
C297 C294 1.387 1_655 S
C298 C299 1.387 . S
C298 H302 0.950 . S
C298 C307 1.390 . S
C299 C298 1.387 . S
C299 C301 1.387 . S
H300 C307 0.950 1_565 S
C301 C299 1.387 . S
C301 C303 1.390 . S
C301 H305 0.950 . S
H302 C298 0.950 . S
C303 C301 1.390 . S
C303 C304 1.387 1_545 S
C303 H306 0.950 1_545 S
C304 C303 1.387 1_565 S
C304 C307 1.387 1_565 S
H305 C301 0.950 . S
H306 C303 0.950 1_565 S
C307 C298 1.390 . S
C307 H300 0.950 1_545 S
C307 C304 1.387 1_545 S
C308 C309 1.387 . S
C308 H312 0.950 . S
C308 C317 1.390 . S
C309 C308 1.387 . S
C309 C311 1.387 . S
H310 C317 0.950 . S
C311 C309 1.387 . S
C311 C313 1.390 . S
C311 H315 0.950 . S
H312 C308 0.950 . S
C313 C311 1.390 . S
C313 C314 1.387 . S
C313 H316 0.950 . S
C314 C313 1.387 . S
C314 C317 1.387 . S
H315 C311 0.950 . S
H316 C313 0.950 . S
C317 C308 1.390 . S
C317 H310 0.950 . S
C317 C314 1.387 . S
C318 C319 1.387 . S
C318 H322 0.950 . S
C318 C327 1.390 . S
C319 C318 1.387 . S
C319 C321 1.387 . S
H320 C327 0.950 . S
C321 C319 1.387 . S
C321 C323 1.390 . S
C321 H325 0.950 . S
H322 C318 0.950 . S
C323 C321 1.390 . S
C323 C324 1.387 . S
C323 H326 0.950 . S
C324 C323 1.387 . S
C324 C327 1.387 . S
H325 C321 0.950 . S
H326 C323 0.950 . S
C327 C318 1.390 . S
C327 H320 0.950 . S
C327 C324 1.387 . S
C328 C329 1.387 . S
C328 H332 0.950 . S
C328 C337 1.390 . S
C329 C328 1.387 . S
C329 C331 1.387 . S
H330 C337 0.950 . S
C331 C329 1.387 . S
C331 C333 1.390 . S
C331 H335 0.950 . S
H332 C328 0.950 . S
C333 C331 1.390 . S
C333 C334 1.387 . S
C333 H336 0.950 . S
C334 C333 1.387 . S
C334 C337 1.387 . S
H335 C331 0.950 . S
H336 C333 0.950 . S
C337 C328 1.390 . S
C337 H330 0.950 . S
C337 C334 1.387 . S
C338 C339 1.387 . S
C338 H342 0.950 . S
C338 C347 1.390 . S
C339 C338 1.387 . S
C339 C341 1.387 . S
H340 C347 0.950 1_655 S
C341 C339 1.387 . S
C341 C343 1.390 1_455 S
C341 H345 0.950 . S
H342 C338 0.950 . S
C343 C341 1.390 1_655 S
C343 C344 1.387 . S
C343 H346 0.950 . S
C344 C343 1.387 . S
C344 C347 1.387 1_655 S
H345 C341 0.950 . S
H346 C343 0.950 . S
C347 C338 1.390 . S
C347 H340 0.950 1_455 S
C347 C344 1.387 1_455 S
C348 C349 1.387 . S
C348 H352 0.950 . S
C348 C357 1.390 . S
C349 C348 1.387 . S
C349 C351 1.387 . S
H350 C357 0.950 . S
C351 C349 1.387 . S
C351 C353 1.390 . S
C351 H355 0.950 . S
H352 C348 0.950 . S
C353 C351 1.390 . S
C353 C354 1.387 . S
C353 H356 0.950 . S
C354 C353 1.387 . S
C354 C357 1.387 . S
H355 C351 0.950 . S
H356 C353 0.950 . S
C357 C348 1.390 . S
C357 H350 0.950 . S
C357 C354 1.387 . S
C358 C359 1.387 . S
C358 H362 0.950 . S
C358 C367 1.390 1_655 S
C359 C358 1.387 . S
C359 C361 1.387 . S
H360 C367 0.950 . S
C361 C359 1.387 . S
C361 C363 1.390 1_655 S
C361 H365 0.950 . S
H362 C358 0.950 . S
C363 C361 1.390 1_455 S
C363 C364 1.387 . S
C363 H366 0.950 . S
C364 C363 1.387 . S
C364 C367 1.387 . S
H365 C361 0.950 . S
H366 C363 0.950 . S
C367 C358 1.390 1_455 S
C367 H360 0.950 . S
C367 C364 1.387 . S
C368 C369 1.387 . S
C368 H372 0.950 . S
C368 C377 1.390 1_545 S
C369 C368 1.387 . S
C369 C371 1.387 . S
H370 C377 0.950 . S
C371 C369 1.387 . S
C371 C373 1.390 1_545 S
C371 H375 0.950 . S
H372 C368 0.950 . S
C373 C371 1.390 1_565 S
C373 C374 1.387 . S
C373 H376 0.950 . S
C374 C373 1.387 . S
C374 C377 1.387 . S
H375 C371 0.950 . S
H376 C373 0.950 . S
C377 C368 1.390 1_565 S
C377 H370 0.950 . S
C377 C374 1.387 . S
C378 C379 1.387 . S
C378 H382 0.950 . S
C378 C387 1.390 . S
C379 C378 1.387 . S
C379 C381 1.387 . S
H380 C387 0.950 . S
C381 C379 1.387 . S
C381 C383 1.390 . S
C381 H385 0.950 . S
H382 C378 0.950 . S
C383 C381 1.390 . S
C383 C384 1.387 . S
C383 H386 0.950 . S
C384 C383 1.387 . S
C384 C387 1.387 . S
H385 C381 0.950 . S
H386 C383 0.950 . S
C387 C378 1.390 . S
C387 H380 0.950 . S
C387 C384 1.387 . S
C388 C389 1.387 . S
C388 H392 0.950 . S
C388 C397 1.390 1_455 S
C389 C388 1.387 . S
C389 C391 1.387 . S
H390 C397 0.950 . S
C391 C389 1.387 . S
C391 C393 1.390 . S
C391 H395 0.950 . S
H392 C388 0.950 . S
C393 C391 1.390 . S
C393 C394 1.387 1_455 S
C393 H396 0.950 . S
C394 C393 1.387 1_655 S
C394 C397 1.387 . S
H395 C391 0.950 . S
H396 C393 0.950 . S
C397 C388 1.390 1_655 S
C397 H390 0.950 . S
C397 C394 1.387 . S
C398 C399 1.387 . S
C398 H402 0.950 . S
C398 C407 1.390 . S
C399 C398 1.387 . S
C399 C401 1.387 . S
H400 C407 0.950 . S
C401 C399 1.387 . S
C401 C403 1.390 . S
C401 H405 0.950 . S
H402 C398 0.950 . S
C403 C401 1.390 . S
C403 C404 1.387 . S
C403 H406 0.950 . S
C404 C403 1.387 . S
C404 C407 1.387 . S
H405 C401 0.950 . S
H406 C403 0.950 . S
C407 C398 1.390 . S
C407 H400 0.950 . S
C407 C404 1.387 . S
C169 C148 1.399 . S
C174 C8 1.698 . S
C179 C22 1.398 . S
C184 C162 1.697 . S
C189 C36 1.325 . S
C194 C92 1.589 . S
C199 C50 1.346 . S
C204 C106 1.646 . S
C209 C120 1.348 . S
C214 C64 1.647 . S
C219 C78 1.589 . S
C224 C134 1.330 . S
C229 C119 1.797 . S
C234 C7 1.869 . S
C239 C21 2.243 . S
C244 C133 2.256 . S
C249 C35 2.254 . S
C254 C147 2.242 . S
C259 C49 1.800 . S
C264 C161 1.871 . S
C269 C91 1.434 . S
C274 C63 1.432 . S
C279 C105 1.433 . S
C284 C77 1.434 . S
C289 C51 1.564 . S
C294 C9 1.565 . S
C299 C23 1.563 . S
C304 C65 1.553 . S
C309 C79 1.550 . S
C314 C37 1.563 . S
C319 C135 1.563 . S
C324 C93 1.550 1_545 S
C329 C149 1.563 . S
C334 C107 1.553 . S
C339 C121 1.563 . S
C344 C163 1.564 . S
C349 C48 1.343 . S
C354 C6 1.345 . S
C359 C20 1.341 . S
C364 C62 1.343 . S
C369 C76 1.346 . S
C374 C34 1.342 . S
C379 C90 1.346 . S
C384 C132 1.342 . S
C389 C146 1.343 . S
C394 C104 1.344 . S
C399 C118 1.343 . S
C404 C160 1.345 1_565 S
