# Generated by pormake.
# Topology una, (4)-cn, num edge types: 1
# Building blocks:
#     Node 0, Type 0, BuildingBlock: UXUYUI_clean_sbu_0, # of connection points: 4
#     Node 1, Type 0, BuildingBlock: UXUYUI_clean_sbu_0, # of connection points: 4
#     Node 2, Type 0, BuildingBlock: UXUYUI_clean_sbu_0, # of connection points: 4
#     Node 3, Type 0, BuildingBlock: UXUYUI_clean_sbu_0, # of connection points: 4
#     Node 4, Type 0, BuildingBlock: UXUYUI_clean_sbu_0, # of connection points: 4
#     Node 5, Type 0, BuildingBlock: UXUYUI_clean_sbu_0, # of connection points: 4
#     Node 6, Type 0, BuildingBlock: UXUYUI_clean_sbu_0, # of connection points: 4
#     Node 7, Type 0, BuildingBlock: UXUYUI_clean_sbu_0, # of connection points: 4
#     Node 8, Type 0, BuildingBlock: UXUYUI_clean_sbu_0, # of connection points: 4
#     Node 9, Type 0, BuildingBlock: UXUYUI_clean_sbu_0, # of connection points: 4
#     Node 10, Type 0, BuildingBlock: UXUYUI_clean_sbu_0, # of connection points: 4
#     Node 11, Type 0, BuildingBlock: UXUYUI_clean_sbu_0, # of connection points: 4
#     Edge 12, Type (0, 0), BuildingBlock: AJUNOK_clean_linker_0, # of connection points: 2
#     Edge 13, Type (0, 0), BuildingBlock: AJUNOK_clean_linker_0, # of connection points: 2
#     Edge 14, Type (0, 0), BuildingBlock: AJUNOK_clean_linker_0, # of connection points: 2
#     Edge 15, Type (0, 0), BuildingBlock: AJUNOK_clean_linker_0, # of connection points: 2
#     Edge 16, Type (0, 0), BuildingBlock: AJUNOK_clean_linker_0, # of connection points: 2
#     Edge 17, Type (0, 0), BuildingBlock: AJUNOK_clean_linker_0, # of connection points: 2
#     Edge 18, Type (0, 0), BuildingBlock: AJUNOK_clean_linker_0, # of connection points: 2
#     Edge 19, Type (0, 0), BuildingBlock: AJUNOK_clean_linker_0, # of connection points: 2
#     Edge 20, Type (0, 0), BuildingBlock: AJUNOK_clean_linker_0, # of connection points: 2
#     Edge 21, Type (0, 0), BuildingBlock: AJUNOK_clean_linker_0, # of connection points: 2
#     Edge 22, Type (0, 0), BuildingBlock: AJUNOK_clean_linker_0, # of connection points: 2
#     Edge 23, Type (0, 0), BuildingBlock: AJUNOK_clean_linker_0, # of connection points: 2
#     Edge 24, Type (0, 0), BuildingBlock: AJUNOK_clean_linker_0, # of connection points: 2
#     Edge 25, Type (0, 0), BuildingBlock: AJUNOK_clean_linker_0, # of connection points: 2
#     Edge 26, Type (0, 0), BuildingBlock: AJUNOK_clean_linker_0, # of connection points: 2
#     Edge 27, Type (0, 0), BuildingBlock: AJUNOK_clean_linker_0, # of connection points: 2
#     Edge 28, Type (0, 0), BuildingBlock: AJUNOK_clean_linker_0, # of connection points: 2
#     Edge 29, Type (0, 0), BuildingBlock: AJUNOK_clean_linker_0, # of connection points: 2
#     Edge 30, Type (0, 0), BuildingBlock: AJUNOK_clean_linker_0, # of connection points: 2
#     Edge 31, Type (0, 0), BuildingBlock: AJUNOK_clean_linker_0, # of connection points: 2
#     Edge 32, Type (0, 0), BuildingBlock: AJUNOK_clean_linker_0, # of connection points: 2
#     Edge 33, Type (0, 0), BuildingBlock: AJUNOK_clean_linker_0, # of connection points: 2
#     Edge 34, Type (0, 0), BuildingBlock: AJUNOK_clean_linker_0, # of connection points: 2
#     Edge 35, Type (0, 0), BuildingBlock: AJUNOK_clean_linker_0, # of connection points: 2
# Relax obj value: 0.208
# Max RMSD: 0.213
# Mean RMSD: 0.213
data_MOF--net-una--node1-UXUYUI_clean_sbu_0--edge1-AJUNOK_clean_linker_0
_symmetry_space_group_name_H-M    P1
_symmetry_Int_Tables_number       1
_symmetry_cell_setting            triclinic
loop_
_symmetry_equiv_pos_as_xyz
'x, y, z'
_cell_length_a     68.338923
_cell_length_b     68.331401
_cell_length_c     26.574892
_cell_angle_alpha  89.992663
_cell_angle_beta   90.013168
_cell_angle_gamma 120.00233
loop_
_atom_site_label
_atom_site_type_symbol
_atom_site_fract_x
_atom_site_fract_y
_atom_site_fract_z
_atom_type_partial_charge
Li0 Li 0.13293 0.45838 0.04954 0.0
Li1 Li 0.13881 0.42793 0.07661 0.0
Li2 Li 0.14688 0.44123 0.9904 0.0
Li3 Li 0.10681 0.41816 0.01902 0.0
C4 C 0.17663 0.47825 0.07276 0.0
N5 N 0.20632 0.51948 0.11568 0.0
C6 C 0.18262 0.47949 0.12347 0.0
C7 C 0.18583 0.49797 0.04386 0.0
C8 C 0.19765 0.50049 0.14446 0.0
C9 C 0.20077 0.51865 0.06627 0.0
C10 C 0.10092 0.42063 0.13218 0.0
C11 C 0.07394 0.38742 0.17743 0.0
N12 N 0.07919 0.39979 0.2205 0.0
C13 C 0.10594 0.43308 0.17677 0.0
C14 C 0.08468 0.39767 0.13233 0.0
C15 C 0.09481 0.42221 0.22109 0.0
C16 C 0.12492 0.4948 0.03552 0.0
N17 N 0.13311 0.48548 0.06861 0.0
C18 C 0.14078 0.51445 0.12886 0.0
C19 C 0.14075 0.49474 0.11479 0.0
C20 C 0.13231 0.52441 0.09558 0.0
C21 C 0.12439 0.51437 0.04826 0.0
H22 H 0.11856 0.48691 0.99938 0.0
H23 H 0.14684 0.48686 0.14079 0.0
C24 C 0.17314 0.42279 0.11604 0.0
N25 N 0.15203 0.41838 0.12864 0.0
C26 C 0.18643 0.41919 0.15044 0.0
C27 C 0.1561 0.40637 0.2108 0.0
C28 C 0.14317 0.40984 0.17472 0.0
C29 C 0.1782 0.41132 0.19904 0.0
H30 H 0.17994 0.42978 0.07941 0.0
H31 H 0.1264 0.4063 0.18431 0.0
C32 C 0.12428 0.45372 0.93135 0.0
N33 N 0.13078 0.46608 0.8311 0.0
C34 C 0.111 0.43819 0.89434 0.0
C35 C 0.14077 0.47557 0.91742 0.0
C36 C 0.11456 0.44476 0.84385 0.0
C37 C 0.14383 0.48148 0.86653 0.0
C38 C 0.1349 0.39281 0.02492 0.0
C39 C 0.15473 0.39404 0.00716 0.0
C40 C 0.12029 0.37483 0.05577 0.0
C41 C 0.15973 0.3773 0.02103 0.0
C42 C 0.12591 0.35844 0.06885 0.0
N43 N 0.14535 0.36001 0.05137 0.0
C44 C 0.18793 0.46148 0.93458 0.0
C45 C 0.15646 0.43026 0.89621 0.0
C46 C 0.20192 0.46274 0.89489 0.0
N47 N 0.16572 0.44531 0.93454 0.0
C48 C 0.16976 0.43099 0.85574 0.0
C49 C 0.1929 0.44708 0.85532 0.0
H50 H 0.19492 0.47293 0.96605 0.0
H51 H 0.13883 0.41735 0.89772 0.0
C52 C 0.06395 0.40735 0.98494 0.0
N53 N 0.07726 0.39818 0.9939 0.0
C54 C 0.04385 0.39528 0.95784 0.0
C55 C 0.051 0.36413 0.95153 0.0
C56 C 0.07111 0.3769 0.97843 0.0
C57 C 0.03737 0.37355 0.93971 0.0
H58 H 0.06953 0.4245 0.99674 0.0
H59 H 0.08221 0.37016 0.98531 0.0
O60 O 0.16187 0.45786 0.0515 0.0
O61 O 0.1114 0.43102 0.08835 0.0
O62 O 0.1214 0.44748 0.98091 0.0
O63 O 0.12994 0.40928 0.01259 0.0
H64 H 0.17554 0.46448 0.14661 0.0
H65 H 0.18138 0.49734 0.00461 0.0
H66 H 0.20236 0.50171 0.18369 0.0
H67 H 0.20793 0.53406 0.04439 0.0
H68 H 0.06139 0.36963 0.17816 0.0
H69 H 0.11836 0.45089 0.17721 0.0
H70 H 0.08037 0.38789 0.09797 0.0
H71 H 0.09859 0.43159 0.25595 0.0
H72 H 0.14752 0.52187 0.16527 0.0
H73 H 0.11757 0.5214 0.02161 0.0
H74 H 0.20324 0.42304 0.13936 0.0
H75 H 0.14914 0.40071 0.24805 0.0
H76 H 0.09828 0.42116 0.90435 0.0
H77 H 0.15117 0.48779 0.94559 0.0
H78 H 0.10449 0.43289 0.81478 0.0
H79 H 0.15659 0.4983 0.8552 0.0
H80 H 0.16626 0.40789 0.98337 0.0
H81 H 0.10489 0.37364 0.06983 0.0
H82 H 0.17508 0.37809 0.0078 0.0
H83 H 0.11483 0.3445 0.09295 0.0
H84 H 0.21972 0.4753 0.89595 0.0
H85 H 0.16211 0.41887 0.82547 0.0
H86 H 0.03397 0.40327 0.9494 0.0
H87 H 0.04641 0.34724 0.93935 0.0
Li88 Li 0.67361 0.1308 0.22251 0.0
Li89 Li 0.71027 0.13673 0.25303 0.0
Li90 Li 0.70675 0.1493 0.16854 0.0
Li91 Li 0.69034 0.10895 0.18765 0.0
C92 C 0.71146 0.18233 0.22994 0.0
N93 N 0.73207 0.22862 0.21786 0.0
C94 C 0.73244 0.1965 0.25221 0.0
C95 C 0.70088 0.19172 0.20188 0.0
C96 C 0.7426 0.21985 0.24558 0.0
C97 C 0.7116 0.21516 0.19609 0.0
C98 C 0.67967 0.10285 0.30641 0.0
C99 C 0.69223 0.08746 0.37231 0.0
N100 N 0.68083 0.09276 0.4066 0.0
C101 C 0.66796 0.10801 0.34218 0.0
C102 C 0.69179 0.09236 0.32143 0.0
C103 C 0.66879 0.10281 0.3927 0.0
C104 C 0.626 0.11101 0.23295 0.0
N105 N 0.64626 0.12997 0.24126 0.0
C106 C 0.62791 0.14875 0.27662 0.0
C107 C 0.64756 0.14857 0.26317 0.0
C108 C 0.60678 0.12964 0.26716 0.0
C109 C 0.6059 0.11059 0.245 0.0
H110 H 0.62545 0.09622 0.21687 0.0
H111 H 0.66387 0.16327 0.27027 0.0
C112 C 0.75161 0.15036 0.30485 0.0
N113 N 0.73025 0.1468 0.3097 0.0
C114 C 0.76778 0.16211 0.34214 0.0
C115 C 0.73949 0.16564 0.38935 0.0
C116 C 0.72393 0.15398 0.35107 0.0
C117 C 0.76186 0.1702 0.38474 0.0
H118 H 0.7564 0.14509 0.27091 0.0
H119 H 0.70716 0.15183 0.35301 0.0
C120 C 0.65676 0.11892 0.12843 0.0
N121 N 0.6156 0.10756 0.08544 0.0
C122 C 0.64081 0.09627 0.11942 0.0
C123 C 0.65186 0.1358 0.11516 0.0
C124 C 0.62009 0.09087 0.09771 0.0
C125 C 0.63092 0.12971 0.09363 0.0
C126 C 0.73309 0.12304 0.16594 0.0
C127 C 0.74005 0.12824 0.11589 0.0
C128 C 0.73625 0.10697 0.19153 0.0
C129 C 0.74986 0.11704 0.09203 0.0
C130 C 0.74611 0.09612 0.16633 0.0
N131 N 0.75264 0.10132 0.11751 0.0
C132 C 0.74362 0.18822 0.12802 0.0
C133 C 0.71299 0.16847 0.07165 0.0
C134 C 0.75646 0.20342 0.0903 0.0
N135 N 0.72233 0.17122 0.1181 0.0
C136 C 0.72539 0.18306 0.03252 0.0
C137 C 0.74759 0.20057 0.04144 0.0
H138 H 0.75086 0.18959 0.16489 0.0
H139 H 0.69624 0.15445 0.0645 0.0
C140 C 0.67203 0.06089 0.1803 0.0
N141 N 0.68275 0.08099 0.15556 0.0
C142 C 0.66371 0.04059 0.15357 0.0
C143 C 0.67833 0.06214 0.07696 0.0
C144 C 0.68615 0.08194 0.10498 0.0
C145 C 0.66649 0.04111 0.10105 0.0
H146 H 0.66923 0.0606 0.22042 0.0
H147 H 0.69412 0.09812 0.08606 0.0
O148 O 0.70132 0.1594 0.23553 0.0
O149 O 0.67937 0.10812 0.25693 0.0
O150 O 0.67707 0.12456 0.15007 0.0
O151 O 0.72313 0.13355 0.18974 0.0
H152 H 0.74093 0.18956 0.27388 0.0
H153 H 0.6846 0.18102 0.18464 0.0
H154 H 0.75888 0.231 0.26237 0.0
H155 H 0.70365 0.22264 0.17429 0.0
H156 H 0.70164 0.07946 0.38456 0.0
H157 H 0.65849 0.11613 0.33113 0.0
H158 H 0.70085 0.08817 0.2941 0.0
H159 H 0.65991 0.10682 0.42087 0.0
H160 H 0.62916 0.16375 0.29362 0.0
H161 H 0.58985 0.0955 0.23765 0.0
H162 H 0.7849 0.16544 0.33705 0.0
H163 H 0.73438 0.1721 0.42086 0.0
H164 H 0.64425 0.08296 0.12961 0.0
H165 H 0.66406 0.15341 0.12156 0.0
H166 H 0.60754 0.0734 0.09078 0.0
H167 H 0.62686 0.14259 0.08341 0.0
H168 H 0.73773 0.14065 0.09554 0.0
H169 H 0.73101 0.10283 0.23034 0.0
H170 H 0.75523 0.1208 0.05321 0.0
H171 H 0.74855 0.08355 0.18557 0.0
H172 H 0.77332 0.21697 0.09908 0.0
H173 H 0.718 0.18016 0.99528 0.0
H174 H 0.65482 0.02467 0.17352 0.0
H175 H 0.68061 0.06324 0.03651 0.0
Li176 Li 0.57493 0.71345 0.41496 0.0
Li177 Li 0.54465 0.67609 0.38748 0.0
Li178 Li 0.5842 0.6923 0.35122 0.0
Li179 Li 0.55933 0.70706 0.32826 0.0
C180 C 0.5822 0.67956 0.46439 0.0
N181 N 0.59953 0.67052 0.54955 0.0
C182 C 0.56874 0.67059 0.50719 0.0
C183 C 0.60434 0.6835 0.46455 0.0
C184 C 0.57785 0.66627 0.54999 0.0
C185 C 0.61283 0.67894 0.50806 0.0
C186 C 0.52333 0.69904 0.41241 0.0
C187 C 0.48275 0.6805 0.40526 0.0
N188 N 0.48155 0.68676 0.45323 0.0
C189 C 0.52171 0.70543 0.46151 0.0
C190 C 0.50372 0.68663 0.3839 0.0
C191 C 0.50044 0.69902 0.48151 0.0
C192 C 0.59364 0.75723 0.4541 0.0
N193 N 0.58503 0.73532 0.46841 0.0
C194 C 0.5846 0.74536 0.55456 0.0
C195 C 0.58084 0.72922 0.51768 0.0
C196 C 0.59261 0.76795 0.54054 0.0
C197 C 0.59782 0.77391 0.48972 0.0
H198 H 0.59639 0.76163 0.41465 0.0
H199 H 0.57335 0.71168 0.52816 0.0
C200 C 0.51021 0.63074 0.37617 0.0
N201 N 0.51851 0.64864 0.40818 0.0
C202 C 0.49081 0.61046 0.38868 0.0
C203 C 0.4889 0.62731 0.4671 0.0
C204 C 0.50843 0.64721 0.45323 0.0
C205 C 0.47988 0.60856 0.43467 0.0
H206 H 0.51865 0.63222 0.34079 0.0
H207 H 0.51537 0.6616 0.47821 0.0
C208 C 0.61411 0.73957 0.35297 0.0
N209 N 0.65977 0.77029 0.36029 0.0
C210 C 0.62489 0.75599 0.31575 0.0
C211 C 0.62648 0.73891 0.39412 0.0
C212 C 0.64801 0.77133 0.32005 0.0
C213 C 0.64956 0.75455 0.3971 0.0
C214 C 0.54722 0.67207 0.26807 0.0
C215 C 0.56259 0.67554 0.22962 0.0
C216 C 0.52467 0.66468 0.25611 0.0
C217 C 0.55519 0.67191 0.17969 0.0
C218 C 0.51793 0.66125 0.20572 0.0
N219 N 0.53321 0.66493 0.16887 0.0
C220 C 0.59929 0.66206 0.3273 0.0
C221 C 0.62251 0.6987 0.29371 0.0
C222 C 0.61105 0.65374 0.2999 0.0
N223 N 0.60493 0.6841 0.32315 0.0
C224 C 0.63481 0.69114 0.26593 0.0
C225 C 0.6287 0.66823 0.26765 0.0
H226 H 0.58495 0.6507 0.35013 0.0
H227 H 0.62638 0.71598 0.28976 0.0
C228 C 0.536 0.72586 0.27648 0.0
N229 N 0.55299 0.72099 0.27405 0.0
C230 C 0.53254 0.7372 0.23678 0.0
C231 C 0.564 0.73809 0.19298 0.0
C232 C 0.56699 0.72698 0.23364 0.0
C233 C 0.54663 0.74336 0.19439 0.0
H234 H 0.52544 0.72136 0.30954 0.0
H235 H 0.58073 0.72342 0.23343 0.0
O236 O 0.57344 0.68349 0.4218 0.0
O237 O 0.54402 0.705 0.39236 0.0
O238 O 0.59149 0.72444 0.3492 0.0
O239 O 0.55425 0.67598 0.31713 0.0
H240 H 0.5515 0.66719 0.50756 0.0
H241 H 0.61482 0.68988 0.43132 0.0
H242 H 0.56767 0.65951 0.58352 0.0
H243 H 0.62997 0.68201 0.50877 0.0
H244 H 0.46743 0.67077 0.3837 0.0
H245 H 0.53669 0.71518 0.48401 0.0
H246 H 0.50466 0.68166 0.34579 0.0
H247 H 0.49893 0.70377 0.51952 0.0
H248 H 0.58018 0.73999 0.59326 0.0
H249 H 0.60443 0.79119 0.47736 0.0
H250 H 0.48448 0.59636 0.36273 0.0
H251 H 0.48075 0.62676 0.50243 0.0
H252 H 0.6155 0.7568 0.28378 0.0
H253 H 0.6183 0.72664 0.4237 0.0
H254 H 0.65661 0.78407 0.29143 0.0
H255 H 0.65934 0.75422 0.42877 0.0
H256 H 0.5801 0.68125 0.23809 0.0
H257 H 0.5125 0.66163 0.28538 0.0
H258 H 0.56694 0.6747 0.14954 0.0
H259 H 0.50055 0.65564 0.19592 0.0
H260 H 0.60573 0.63594 0.30221 0.0
H261 H 0.64859 0.70299 0.24237 0.0
H262 H 0.51912 0.74122 0.23922 0.0
H263 H 0.57554 0.74309 0.1614 0.0
Li264 Li 0.8702 0.54143 0.55667 0.0
Li265 Li 0.86244 0.57087 0.58015 0.0
Li266 Li 0.85351 0.55708 0.49704 0.0
Li267 Li 0.89434 0.58194 0.52393 0.0
C268 C 0.824 0.51759 0.55296 0.0
N269 N 0.79137 0.47278 0.53992 0.0
C270 C 0.80741 0.5064 0.58964 0.0
C271 C 0.82403 0.50595 0.50979 0.0
C272 C 0.79104 0.48376 0.58233 0.0
C273 C 0.80739 0.48333 0.50381 0.0
C274 C 0.89565 0.57606 0.64262 0.0
C275 C 0.91853 0.60316 0.70593 0.0
N276 N 0.90505 0.58867 0.74231 0.0
C277 C 0.88213 0.56135 0.68057 0.0
C278 C 0.91406 0.59708 0.65525 0.0
C279 C 0.88711 0.56809 0.73079 0.0
C280 C 0.88594 0.51047 0.55025 0.0
N281 N 0.87159 0.51531 0.57556 0.0
C282 C 0.85863 0.48218 0.62617 0.0
C283 C 0.8582 0.50177 0.61323 0.0
C284 C 0.87298 0.47655 0.6 0.0
C285 C 0.88675 0.49094 0.56161 0.0
H286 H 0.89665 0.52173 0.521 0.0
H287 H 0.84705 0.50609 0.63299 0.0
C288 C 0.82617 0.56799 0.63302 0.0
N289 N 0.84914 0.57995 0.63332 0.0
C290 C 0.81375 0.57197 0.66907 0.0
C291 C 0.84872 0.60113 0.70486 0.0
C292 C 0.86054 0.59662 0.6678 0.0
C293 C 0.82497 0.58852 0.70605 0.0
H294 H 0.81738 0.55531 0.60449 0.0
H295 H 0.87875 0.60653 0.6665 0.0
C296 C 0.88342 0.54741 0.43911 0.0
N297 N 0.89173 0.53784 0.34294 0.0
C298 C 0.895 0.56484 0.40434 0.0
C299 C 0.87627 0.52511 0.42497 0.0
C300 C 0.89898 0.55967 0.35592 0.0
C301 C 0.88056 0.52062 0.37618 0.0
C302 C 0.86483 0.60509 0.53332 0.0
C303 C 0.84305 0.60165 0.52662 0.0
C304 C 0.8811 0.62438 0.5584 0.0
C305 C 0.83785 0.61759 0.54554 0.0
C306 C 0.87524 0.63994 0.57665 0.0
N307 N 0.85391 0.63624 0.56996 0.0
C308 C 0.81049 0.53952 0.44975 0.0
C309 C 0.8421 0.56111 0.39714 0.0
C310 C 0.79571 0.53635 0.41026 0.0
N311 N 0.83324 0.55137 0.44229 0.0
C312 C 0.82797 0.55839 0.35666 0.0
C313 C 0.80445 0.54577 0.36293 0.0
H314 H 0.80375 0.5329 0.48657 0.0
H315 H 0.86012 0.57163 0.39292 0.0
C316 C 0.93718 0.59266 0.49128 0.0
N317 N 0.92378 0.6019 0.49787 0.0
C318 C 0.9571 0.60403 0.46335 0.0
C319 C 0.94978 0.63486 0.45178 0.0
C320 C 0.92978 0.62273 0.47945 0.0
C321 C 0.96341 0.62522 0.44209 0.0
H322 H 0.93172 0.57585 0.50541 0.0
H323 H 0.91861 0.62951 0.48433 0.0
O324 O 0.84045 0.53961 0.56027 0.0
O325 O 0.89107 0.5698 0.59331 0.0
O326 O 0.87982 0.55222 0.48716 0.0
O327 O 0.87003 0.58937 0.51637 0.0
H328 H 0.80728 0.51507 0.62362 0.0
H329 H 0.83662 0.51437 0.48099 0.0
H330 H 0.77812 0.47489 0.61045 0.0
H331 H 0.8072 0.47416 0.47045 0.0
H332 H 0.93266 0.61941 0.71633 0.0
H333 H 0.8678 0.54504 0.67128 0.0
H334 H 0.9247 0.6086 0.62617 0.0
H335 H 0.87671 0.55696 0.76059 0.0
H336 H 0.8476 0.47134 0.65568 0.0
H337 H 0.89811 0.48716 0.54086 0.0
H338 H 0.79548 0.56187 0.66849 0.0
H339 H 0.85803 0.61443 0.73201 0.0
H340 H 0.90057 0.58218 0.41428 0.0
H341 H 0.86756 0.51137 0.45136 0.0
H342 H 0.9078 0.573 0.32864 0.0
H343 H 0.87507 0.50344 0.36478 0.0
H344 H 0.83025 0.58672 0.50751 0.0
H345 H 0.89795 0.62711 0.56441 0.0
H346 H 0.82103 0.61511 0.54093 0.0
H347 H 0.88761 0.65489 0.59643 0.0
H348 H 0.77765 0.52684 0.41679 0.0
H349 H 0.83536 0.5667 0.32132 0.0
H350 H 0.96692 0.59583 0.45662 0.0
H351 H 0.95423 0.65137 0.43723 0.0
Li352 Li 0.29111 0.86324 0.74711 0.0
Li353 Li 0.32936 0.87036 0.71719 0.0
Li354 Li 0.31182 0.89327 0.68298 0.0
Li355 Li 0.29622 0.85399 0.66488 0.0
C356 C 0.32856 0.9013 0.79921 0.0
N357 N 0.3431 0.92114 0.89258 0.0
C358 C 0.33628 0.89165 0.83471 0.0
C359 C 0.32858 0.92126 0.81088 0.0
C360 C 0.34345 0.90186 0.8818 0.0
C361 C 0.3359 0.93097 0.85838 0.0
C362 C 0.29129 0.81944 0.71649 0.0
C363 C 0.29381 0.78767 0.68511 0.0
N364 N 0.271 0.77446 0.68946 0.0
C365 C 0.26791 0.80554 0.72096 0.0
C366 C 0.3044 0.81047 0.69864 0.0
C367 C 0.25795 0.78284 0.70696 0.0
C368 C 0.24833 0.8439 0.79759 0.0
N369 N 0.27078 0.85146 0.80375 0.0
C370 C 0.26382 0.83462 0.88562 0.0
C371 C 0.27866 0.84709 0.84681 0.0
C372 C 0.24054 0.82634 0.87998 0.0
C373 C 0.23288 0.83143 0.83554 0.0
H374 H 0.24212 0.84638 0.7622 0.0
H375 H 0.29631 0.85218 0.85003 0.0
C376 C 0.37643 0.8882 0.71401 0.0
N377 N 0.35691 0.87169 0.73458 0.0
C378 C 0.39695 0.88925 0.72483 0.0
C379 C 0.37687 0.85649 0.77839 0.0
C380 C 0.35673 0.856 0.76634 0.0
C381 C 0.39727 0.87314 0.75713 0.0
H382 H 0.37602 0.90047 0.68895 0.0
H383 H 0.34091 0.84306 0.78211 0.0
C384 C 0.26701 0.87979 0.69459 0.0
N385 N 0.24261 0.90106 0.71609 0.0
C386 C 0.24908 0.87648 0.66358 0.0
C387 C 0.27253 0.89395 0.73648 0.0
C388 C 0.23695 0.88738 0.67507 0.0
C389 C 0.25999 0.90452 0.74676 0.0
C390 C 0.32994 0.87695 0.59761 0.0
C391 C 0.3165 0.87987 0.5622 0.0
C392 C 0.34636 0.87186 0.58153 0.0
C393 C 0.31957 0.87744 0.51109 0.0
C394 C 0.34894 0.86961 0.53006 0.0
N395 N 0.33559 0.8724 0.49622 0.0
C396 C 0.34094 0.93991 0.66616 0.0
C397 C 0.30687 0.92395 0.61936 0.0
C398 C 0.34927 0.96034 0.64011 0.0
N399 N 0.32019 0.92218 0.655 0.0
C400 C 0.31454 0.94404 0.59237 0.0
C401 C 0.33613 0.96248 0.60213 0.0
H402 H 0.3514 0.93785 0.6938 0.0
H403 H 0.29067 0.90946 0.6103 0.0
C404 C 0.25908 0.82576 0.60552 0.0
N405 N 0.28109 0.83202 0.61337 0.0
C406 C 0.24678 0.81045 0.56754 0.0
C407 C 0.27988 0.80788 0.5469 0.0
C408 C 0.29151 0.82311 0.5857 0.0
C409 C 0.25731 0.80162 0.53723 0.0
H410 H 0.2511 0.83278 0.62866 0.0
H411 H 0.30885 0.82791 0.59352 0.0
O412 O 0.32177 0.89176 0.7526 0.0
O413 O 0.30127 0.84181 0.72886 0.0
O414 O 0.27918 0.86942 0.6832 0.0
O415 O 0.32699 0.87894 0.64782 0.0
H416 H 0.33659 0.87634 0.82613 0.0
H417 H 0.32307 0.92921 0.78346 0.0
H418 H 0.34932 0.89447 0.90976 0.0
H419 H 0.33591 0.94636 0.86799 0.0
H420 H 0.30371 0.78051 0.67093 0.0
H421 H 0.25754 0.81229 0.73451 0.0
H422 H 0.32251 0.82107 0.69465 0.0
H423 H 0.23985 0.77191 0.70989 0.0
H424 H 0.27038 0.83086 0.91909 0.0
H425 H 0.21502 0.8248 0.829 0.0
H426 H 0.41239 0.90257 0.70838 0.0
H427 H 0.37646 0.84377 0.80338 0.0
H428 H 0.24466 0.86571 0.63076 0.0
H429 H 0.28613 0.89654 0.76114 0.0
H430 H 0.22306 0.88499 0.65134 0.0
H431 H 0.26406 0.91546 0.77918 0.0
H432 H 0.30355 0.88355 0.57412 0.0
H433 H 0.35686 0.86951 0.60854 0.0
H434 H 0.30916 0.87947 0.48327 0.0
H435 H 0.36151 0.86559 0.51703 0.0
H436 H 0.3662 0.97396 0.64806 0.0
H437 H 0.30391 0.94499 0.56335 0.0
H438 H 0.22937 0.80596 0.56113 0.0
H439 H 0.2884 0.80107 0.52473 0.0
Li440 Li 0.46075 0.32998 0.88438 0.0
Li441 Li 0.43005 0.29266 0.91066 0.0
Li442 Li 0.44521 0.29754 0.82828 0.0
Li443 Li 0.42106 0.31303 0.84618 0.0
C444 C 0.46592 0.28466 0.90226 0.0
N445 N 0.4739 0.24979 0.92476 0.0
C446 C 0.45053 0.26257 0.88724 0.0
C447 C 0.48535 0.289 0.92871 0.0
C448 C 0.45487 0.24518 0.899 0.0
C449 C 0.4891 0.27114 0.9397 0.0
C450 C 0.42544 0.3268 0.96309 0.0
C451 C 0.39854 0.32934 0.01754 0.0
N452 N 0.41357 0.33571 0.05616 0.0
C453 C 0.44075 0.33378 0.00306 0.0
C454 C 0.40428 0.32491 0.97013 0.0
C455 C 0.43438 0.33804 0.04992 0.0
C456 C 0.49299 0.37607 0.87502 0.0
N457 N 0.48686 0.35733 0.90342 0.0
C458 C 0.51875 0.37783 0.95735 0.0
C459 C 0.49931 0.35777 0.94378 0.0
C460 C 0.52553 0.39741 0.92854 0.0
C461 C 0.51249 0.39639 0.88678 0.0
H462 H 0.48281 0.37516 0.84296 0.0
H463 H 0.49418 0.34251 0.96525 0.0
C464 C 0.40505 0.24983 0.96185 0.0
N465 N 0.42085 0.27207 0.96731 0.0
C466 C 0.40174 0.23426 0.99976 0.0
C467 C 0.43098 0.26459 0.04846 0.0
C468 C 0.43376 0.27957 0.0096 0.0
C469 C 0.41494 0.24154 0.04361 0.0
H470 H 0.39583 0.24379 0.92704 0.0
H471 H 0.44719 0.29692 0.01195 0.0
C472 C 0.46188 0.33228 0.76814 0.0
N473 N 0.48319 0.33818 0.67654 0.0
C474 C 0.44979 0.32872 0.72343 0.0
C475 C 0.48482 0.33896 0.76636 0.0
C476 C 0.46087 0.33176 0.67746 0.0
C477 C 0.49529 0.34183 0.71964 0.0
C478 C 0.39004 0.26731 0.85204 0.0
C479 C 0.37768 0.24962 0.81838 0.0
C480 C 0.3789 0.27129 0.89128 0.0
C481 C 0.35431 0.23626 0.82449 0.0
C482 C 0.35553 0.25755 0.8962 0.0
N483 N 0.34381 0.24047 0.86294 0.0
C484 C 0.47115 0.28239 0.77126 0.0
C485 C 0.43516 0.27358 0.73982 0.0
C486 C 0.47386 0.27028 0.73208 0.0
N487 N 0.45182 0.28343 0.77468 0.0
C488 C 0.43716 0.26139 0.70021 0.0
C489 C 0.45653 0.25934 0.69644 0.0
H490 H 0.48421 0.29057 0.79941 0.0
H491 H 0.42018 0.27505 0.74317 0.0
C492 C 0.40097 0.34015 0.82817 0.0
N493 N 0.40071 0.3208 0.81502 0.0
C494 C 0.38917 0.34802 0.79933 0.0
C495 C 0.37656 0.31554 0.74501 0.0
C496 C 0.38857 0.30831 0.77483 0.0
C497 C 0.37728 0.33597 0.7563 0.0
H498 H 0.41115 0.34999 0.85971 0.0
H499 H 0.38906 0.29325 0.76453 0.0
O500 O 0.46188 0.30195 0.89213 0.0
O501 O 0.43144 0.32278 0.91674 0.0
O502 O 0.45121 0.32876 0.8135 0.0
O503 O 0.41289 0.28072 0.84603 0.0
H504 H 0.43533 0.25885 0.86695 0.0
H505 H 0.49738 0.306 0.94075 0.0
H506 H 0.44308 0.22801 0.88772 0.0
H507 H 0.50407 0.27426 0.96018 0.0
H508 H 0.38217 0.3278 0.02358 0.0
H509 H 0.45735 0.33581 0.99805 0.0
H510 H 0.39243 0.32019 0.93925 0.0
H511 H 0.44601 0.34325 0.08129 0.0
H512 H 0.52862 0.37797 0.98939 0.0
H513 H 0.51728 0.41118 0.86371 0.0
H514 H 0.38942 0.21658 0.99422 0.0
H515 H 0.44208 0.27081 0.08081 0.0
H516 H 0.432 0.32346 0.72421 0.0
H517 H 0.49435 0.34162 0.80071 0.0
H518 H 0.45172 0.32896 0.64253 0.0
H519 H 0.513 0.34687 0.71765 0.0
H520 H 0.38604 0.24624 0.78783 0.0
H521 H 0.38826 0.28459 0.91806 0.0
H522 H 0.34453 0.22254 0.79866 0.0
H523 H 0.34671 0.26043 0.92655 0.0
H524 H 0.48896 0.2689 0.73056 0.0
H525 H 0.42357 0.25342 0.67306 0.0
H526 H 0.3902 0.36389 0.8092 0.0
H527 H 0.36729 0.30556 0.71267 0.0
Li528 Li 0.58332 0.89325 0.88587 0.0
Li529 Li 0.56061 0.85435 0.90923 0.0
Li530 Li 0.57497 0.86377 0.8244 0.0
Li531 Li 0.54536 0.8709 0.85238 0.0
C532 C 0.61505 0.87937 0.87557 0.0
N533 N 0.66026 0.89833 0.85142 0.0
C534 C 0.62859 0.87261 0.90097 0.0
C535 C 0.6245 0.89577 0.83782 0.0
C536 C 0.65141 0.88241 0.88825 0.0
C537 C 0.64739 0.90515 0.82617 0.0
C538 C 0.55844 0.88559 0.97275 0.0
C539 C 0.55091 0.9013 0.04654 0.0
N540 N 0.56776 0.90024 0.07136 0.0
C541 C 0.57569 0.88464 0.99901 0.0
C542 C 0.54594 0.89397 0.99667 0.0
C543 C 0.58013 0.89212 0.04882 0.0
C544 C 0.5959 0.93737 0.91348 0.0
N545 N 0.60347 0.92237 0.91427 0.0
C546 C 0.6335 0.94625 0.97024 0.0
C547 C 0.62205 0.92653 0.94147 0.0
C548 C 0.62542 0.96151 0.97183 0.0
C549 C 0.60668 0.95715 0.94211 0.0
H550 H 0.58077 0.93339 0.89255 0.0
H551 H 0.62732 0.91406 0.94321 0.0
C552 C 0.56633 0.82197 0.95859 0.0
N553 N 0.55409 0.83264 0.96032 0.0
C554 C 0.56326 0.80604 0.99505 0.0
C555 C 0.53474 0.81209 0.03407 0.0
C556 C 0.53844 0.82803 0.99686 0.0
C557 C 0.54725 0.80088 0.03335 0.0
H558 H 0.57867 0.82607 0.92906 0.0
H559 H 0.52897 0.83682 0.99734 0.0
C560 C 0.56783 0.89377 0.76593 0.0
N561 N 0.55635 0.8972 0.66793 0.0
C562 C 0.5537 0.8743 0.73838 0.0
C563 C 0.5761 0.91499 0.74365 0.0
C564 C 0.5481 0.87638 0.68889 0.0
C565 C 0.57011 0.91637 0.69406 0.0
C566 C 0.52299 0.8236 0.85602 0.0
C567 C 0.51531 0.80308 0.83089 0.0
C568 C 0.5091 0.82578 0.89153 0.0
C569 C 0.4938 0.78502 0.84173 0.0
C570 C 0.48771 0.80733 0.90131 0.0
N571 N 0.48057 0.7875 0.87642 0.0
C572 C 0.57919 0.82992 0.7792 0.0
C573 C 0.59489 0.86265 0.72781 0.0
C574 C 0.58298 0.81781 0.74196 0.0
N575 N 0.58472 0.85174 0.77123 0.0
C576 C 0.59885 0.85107 0.68923 0.0
C577 C 0.59245 0.8282 0.69582 0.0
H578 H 0.57121 0.82172 0.81419 0.0
H579 H 0.59935 0.88009 0.72253 0.0
C580 C 0.51486 0.8873 0.85463 0.0
N581 N 0.51887 0.87166 0.83278 0.0
C582 C 0.49551 0.8883 0.84208 0.0
C583 C 0.48491 0.85721 0.78447 0.0
C584 C 0.50438 0.85673 0.79829 0.0
C585 C 0.48033 0.87318 0.80637 0.0
H586 H 0.52669 0.89897 0.88188 0.0
H587 H 0.50782 0.84432 0.78173 0.0
O588 O 0.59266 0.86979 0.88773 0.0
O589 O 0.55418 0.87904 0.92341 0.0
O590 O 0.57349 0.89228 0.81461 0.0
O591 O 0.54405 0.84136 0.84579 0.0
H592 H 0.62152 0.85993 0.9303 0.0
H593 H 0.61437 0.90127 0.81771 0.0
H594 H 0.66209 0.87735 0.90765 0.0
H595 H 0.65492 0.91785 0.79706 0.0
H596 H 0.5414 0.90788 0.06547 0.0
H597 H 0.5857 0.8784 0.98108 0.0
H598 H 0.5326 0.89491 0.97681 0.0
H599 H 0.59347 0.89155 0.06951 0.0
H600 H 0.6478 0.94899 0.99299 0.0
H601 H 0.60009 0.96865 0.94208 0.0
H602 H 0.57368 0.79822 0.99391 0.0
H603 H 0.52229 0.80859 0.06309 0.0
H604 H 0.54719 0.85773 0.75484 0.0
H605 H 0.58702 0.93023 0.76454 0.0
H606 H 0.53721 0.86144 0.66715 0.0
H607 H 0.57639 0.93269 0.67634 0.0
H608 H 0.52586 0.80114 0.80327 0.0
H609 H 0.51473 0.84152 0.91132 0.0
H610 H 0.48764 0.76903 0.82256 0.0
H611 H 0.4768 0.80877 0.92869 0.0
H612 H 0.57773 0.80021 0.74847 0.0
H613 H 0.60651 0.85977 0.6544 0.0
H614 H 0.49253 0.90085 0.85974 0.0
H615 H 0.47338 0.84498 0.75753 0.0
Li616 Li 0.70869 0.55904 0.07341 0.0
Li617 Li 0.69203 0.58314 0.05541 0.0
Li618 Li 0.67661 0.54492 0.01956 0.0
Li619 Li 0.71392 0.57542 0.99077 0.0
C620 C 0.65768 0.53861 0.10971 0.0
N621 N 0.61484 0.50754 0.14295 0.0
C622 C 0.64202 0.54549 0.1207 0.0
C623 C 0.65162 0.51597 0.11631 0.0
C624 C 0.62044 0.52952 0.13736 0.0
C625 C 0.62986 0.5005 0.13289 0.0
C626 C 0.73776 0.61466 0.0502 0.0
C627 C 0.74529 0.64924 0.00931 0.0
N628 N 0.76378 0.66094 0.03905 0.0
C629 C 0.75678 0.62701 0.08046 0.0
C630 C 0.7319 0.62583 0.01442 0.0
C631 C 0.76975 0.6504 0.0742 0.0
C632 C 0.74693 0.56267 0.12001 0.0
N633 N 0.7241 0.5526 0.12416 0.0
C634 C 0.7248 0.53587 0.20254 0.0
C635 C 0.71288 0.53937 0.16426 0.0
C636 C 0.7484 0.54606 0.19919 0.0
C637 C 0.75948 0.55953 0.1572 0.0
H638 H 0.75539 0.57345 0.08809 0.0
H639 H 0.69477 0.53189 0.16699 0.0
C640 C 0.66653 0.60544 0.0674 0.0
N641 N 0.68433 0.6038 0.08506 0.0
C642 C 0.65861 0.61769 0.09429 0.0
C643 C 0.68805 0.62705 0.15579 0.0
C644 C 0.69529 0.61449 0.12796 0.0
C645 C 0.66923 0.62848 0.13953 0.0
H646 H 0.65779 0.59629 0.03382 0.0
H647 H 0.70916 0.61258 0.14155 0.0
C648 C 0.71592 0.53251 0.0167 0.0
N649 N 0.73981 0.51072 0.03837 0.0
C650 C 0.73835 0.54175 0.00093 0.0
C651 C 0.70561 0.5121 0.04316 0.0
C652 C 0.75014 0.53049 0.01229 0.0
C653 C 0.71798 0.50138 0.05387 0.0
C654 C 0.67744 0.57512 0.93673 0.0
C655 C 0.67056 0.55699 0.90352 0.0
C656 C 0.67755 0.59467 0.92077 0.0
C657 C 0.66423 0.55885 0.85455 0.0
C658 C 0.67109 0.59587 0.8715 0.0
N659 N 0.66463 0.57809 0.83968 0.0
C660 C 0.62937 0.51926 0.00263 0.0
C661 C 0.6495 0.50035 0.98257 0.0
C662 C 0.60886 0.49992 0.99119 0.0
N663 N 0.64907 0.51894 0.99921 0.0
C664 C 0.62942 0.48076 0.96997 0.0
C665 C 0.60879 0.48034 0.97507 0.0
H666 H 0.62959 0.53443 0.01508 0.0
H667 H 0.66543 0.50068 0.97939 0.0
C668 C 0.75663 0.60224 0.93952 0.0
N669 N 0.73471 0.58548 0.93459 0.0
C670 C 0.77242 0.60595 0.9018 0.0
C671 C 0.74287 0.57545 0.85409 0.0
C672 C 0.72769 0.57225 0.89273 0.0
C673 C 0.76569 0.59212 0.85889 0.0
H674 H 0.76229 0.61199 0.97373 0.0
H675 H 0.71061 0.55827 0.89059 0.0
O676 O 0.67876 0.55393 0.09235 0.0
O677 O 0.7248 0.59179 0.05636 0.0
O678 O 0.70426 0.54358 0.00705 0.0
O679 O 0.68342 0.57359 0.98508 0.0
H680 H 0.64641 0.56293 0.1162 0.0
H681 H 0.66348 0.51032 0.10796 0.0
H682 H 0.60813 0.5346 0.14572 0.0
H683 H 0.62488 0.48289 0.13761 0.0
H684 H 0.74098 0.6581 0.98169 0.0
H685 H 0.76147 0.61858 0.10848 0.0
H686 H 0.71725 0.61653 0.99076 0.0
H687 H 0.78454 0.66019 0.09732 0.0
H688 H 0.71573 0.5255 0.23461 0.0
H689 H 0.77771 0.56809 0.15391 0.0
H690 H 0.64369 0.61781 0.08099 0.0
H691 H 0.69675 0.63513 0.19034 0.0
H692 H 0.7467 0.55758 0.98069 0.0
H693 H 0.68831 0.5047 0.05572 0.0
H694 H 0.76753 0.53753 1.00056 0.0
H695 H 0.71024 0.48564 0.0746 0.0
H696 H 0.67032 0.54171 0.9152 0.0
H697 H 0.68251 0.60875 0.94621 0.0
H698 H 0.659 0.54499 0.82837 0.0
H699 H 0.67115 0.61092 0.85861 0.0
H700 H 0.59324 0.50026 0.99477 0.0
H701 H 0.62994 0.46595 0.95737 0.0
H702 H 0.78986 0.61905 0.90687 0.0
H703 H 0.73705 0.56416 0.82201 0.0
Li704 Li 0.15005 0.70742 0.2447 0.0
Li705 Li 0.11076 0.69102 0.22393 0.0
Li706 Li 0.13379 0.67449 0.1903 0.0
Li707 Li 0.14076 0.71247 0.16067 0.0
C708 C 0.12017 0.6744 0.31096 0.0
N709 N 0.1078 0.66961 0.41112 0.0
C710 C 0.11905 0.6918 0.33606 0.0
C711 C 0.11501 0.65458 0.33679 0.0
C712 C 0.11276 0.68905 0.38669 0.0
C713 C 0.10879 0.65249 0.38744 0.0
C714 C 0.1251 0.73728 0.21911 0.0
C715 C 0.10347 0.74997 0.17155 0.0
N716 N 0.10606 0.76447 0.20941 0.0
C717 C 0.12762 0.75235 0.25747 0.0
C718 C 0.11297 0.73607 0.17576 0.0
C719 C 0.11783 0.76594 0.25189 0.0
C720 C 0.18186 0.74552 0.29665 0.0
N721 N 0.17161 0.72261 0.29628 0.0
C722 C 0.19176 0.7229 0.36996 0.0
C723 C 0.17635 0.71116 0.33156 0.0
C724 C 0.20251 0.74657 0.37136 0.0
C725 C 0.19751 0.75793 0.33401 0.0
H726 H 0.17771 0.75411 0.26802 0.0
H727 H 0.16804 0.69292 0.33004 0.0
C728 C 0.06979 0.65875 0.2645 0.0
N729 N 0.08117 0.68105 0.25195 0.0
C730 C 0.0501 0.64987 0.29336 0.0
C731 C 0.05313 0.68662 0.29317 0.0
C732 C 0.07305 0.69494 0.26504 0.0
C733 C 0.04174 0.66394 0.3086 0.0
H734 H 0.07663 0.64807 0.25401 0.0
H735 H 0.08232 0.71262 0.25553 0.0
C736 C 0.1847 0.71263 0.19397 0.0
N737 N 0.2292 0.7329 0.2249 0.0
C738 C 0.19951 0.73543 0.18353 0.0
C739 C 0.19252 0.70008 0.21989 0.0
C740 C 0.22194 0.74538 0.19955 0.0
C741 C 0.21509 0.71065 0.23526 0.0
C742 C 0.10238 0.6771 0.10849 0.0
C743 C 0.10925 0.6676 0.07079 0.0
C744 C 0.08459 0.68117 0.09932 0.0
C745 C 0.09858 0.66287 0.02391 0.0
C746 C 0.07434 0.67621 0.05195 0.0
N747 N 0.08152 0.66727 0.01553 0.0
C748 C 0.11401 0.6273 0.18169 0.0
C749 C 0.15118 0.64817 0.14895 0.0
C750 C 0.11307 0.60694 0.16957 0.0
N751 N 0.13292 0.64731 0.17154 0.0
C752 C 0.15105 0.62824 0.13659 0.0
C753 C 0.1319 0.60725 0.14736 0.0
H754 H 0.09969 0.62718 0.19933 0.0
H755 H 0.16592 0.66436 0.1409 0.0
C756 C 0.16142 0.75552 0.11227 0.0
N757 N 0.15252 0.73294 0.10446 0.0
C758 C 0.17384 0.77104 0.07442 0.0
C759 C 0.16777 0.73991 0.02104 0.0
C760 C 0.15542 0.72498 0.05984 0.0
C761 C 0.17745 0.7633 0.02833 0.0
H762 H 0.16001 0.76163 0.1488 0.0
H763 H 0.1492 0.70713 0.05521 0.0
O764 O 0.12595 0.6765 0.26115 0.0
O765 O 0.13455 0.72387 0.22431 0.0
O766 O 0.16251 0.70278 0.18006 0.0
O767 O 0.11247 0.68165 0.15473 0.0
H768 H 0.12293 0.70724 0.31668 0.0
H769 H 0.11573 0.64094 0.3178 0.0
H770 H 0.11179 0.70236 0.40655 0.0
H771 H 0.10473 0.63723 0.4079 0.0
H772 H 0.09406 0.74923 0.13817 0.0
H773 H 0.13697 0.75346 0.29128 0.0
H774 H 0.11107 0.72468 0.14557 0.0
H775 H 0.11958 0.77763 0.28134 0.0
H776 H 0.19523 0.71364 0.3983 0.0
H777 H 0.20519 0.77616 0.33446 0.0
H778 H 0.0417 0.63226 0.30446 0.0
H779 H 0.04723 0.698 0.30458 0.0
H780 H 0.19368 0.7454 0.16376 0.0
H781 H 0.18119 0.68247 0.22877 0.0
H782 H 0.23357 0.76306 0.19199 0.0
H783 H 0.22135 0.7012 0.25566 0.0
H784 H 0.1228 0.66405 0.07759 0.0
H785 H 0.07867 0.68798 0.12855 0.0
H786 H 0.10385 0.65569 0.99423 0.0
H787 H 0.06063 0.67938 0.04422 0.0
H788 H 0.09774 0.59116 0.17724 0.0
H789 H 0.1659 0.62924 0.11946 0.0
H790 H 0.18158 0.78895 0.08218 0.0
H791 H 0.17036 0.73327 0.98622 0.0
Li792 Li 0.44269 0.15025 0.40545 0.0
Li793 Li 0.41908 0.1108 0.38826 0.0
Li794 Li 0.45925 0.13375 0.35285 0.0
Li795 Li 0.42785 0.14055 0.32375 0.0
C796 C 0.45396 0.12783 0.47272 0.0
N797 N 0.46454 0.13272 0.57394 0.0
C798 C 0.43756 0.12444 0.50844 0.0
C799 C 0.47573 0.13363 0.48842 0.0
C800 C 0.44324 0.12703 0.55945 0.0
C801 C 0.48074 0.13604 0.5398 0.0
C802 C 0.38743 0.12386 0.37745 0.0
C803 C 0.35521 0.09738 0.32859 0.0
N804 N 0.34158 0.10198 0.35753 0.0
C805 C 0.37308 0.12825 0.4068 0.0
C806 C 0.3784 0.10823 0.33815 0.0
C807 C 0.34997 0.11705 0.39609 0.0
C808 C 0.43333 0.17783 0.46514 0.0
N809 N 0.44962 0.17236 0.45674 0.0
C810 C 0.4723 0.19696 0.52301 0.0
C811 C 0.46909 0.1819 0.48401 0.0
C812 C 0.45533 0.20223 0.53349 0.0
C813 C 0.43581 0.19273 0.50356 0.0
H814 H 0.4183 0.17045 0.44216 0.0
H815 H 0.48199 0.1776 0.476 0.0
C816 C 0.4023 0.06442 0.40826 0.0
N817 N 0.3989 0.08206 0.41764 0.0
C818 C 0.39066 0.04441 0.43601 0.0
C819 C 0.37172 0.06082 0.48133 0.0
C820 C 0.38369 0.08048 0.45274 0.0
C821 C 0.3756 0.04268 0.47408 0.0
H822 H 0.41479 0.06628 0.38076 0.0
H823 H 0.38157 0.09485 0.46026 0.0
C824 C 0.47204 0.18456 0.35292 0.0
N825 N 0.49702 0.22962 0.37902 0.0
C826 C 0.46256 0.19847 0.34883 0.0
C827 C 0.49426 0.19355 0.36985 0.0
C828 C 0.47545 0.22122 0.36235 0.0
C829 C 0.5066 0.21639 0.38296 0.0
C830 C 0.42752 0.10345 0.27046 0.0
C831 C 0.44451 0.11454 0.23461 0.0
C832 C 0.40812 0.08314 0.25789 0.0
C833 C 0.44161 0.10541 0.18633 0.0
C834 C 0.40585 0.07454 0.20921 0.0
N835 N 0.42249 0.08577 0.17472 0.0
C836 C 0.48934 0.11715 0.35961 0.0
C837 C 0.50023 0.14695 0.30079 0.0
C838 C 0.50887 0.11615 0.34945 0.0
N839 N 0.4855 0.13246 0.33552 0.0
C840 C 0.51982 0.1463 0.28891 0.0
C841 C 0.52438 0.1309 0.3138 0.0
H842 H 0.47729 0.10585 0.38706 0.0
H843 H 0.49681 0.15907 0.28253 0.0
C844 C 0.40207 0.15711 0.27058 0.0
N845 N 0.4192 0.15242 0.26716 0.0
C846 C 0.39905 0.1698 0.23323 0.0
C847 C 0.43124 0.17265 0.18915 0.0
C848 C 0.43361 0.15987 0.22726 0.0
C849 C 0.4141 0.17823 0.19246 0.0
H850 H 0.39137 0.15211 0.30337 0.0
H851 H 0.4478 0.15705 0.2264 0.0
O852 O 0.44878 0.12552 0.42261 0.0
O853 O 0.41005 0.13446 0.38823 0.0
O854 O 0.45952 0.16215 0.34104 0.0
O855 O 0.43009 0.11202 0.31808 0.0
H856 H 0.42073 0.12024 0.49685 0.0
H857 H 0.48864 0.13641 0.4612 0.0
H858 H 0.43076 0.12459 0.58751 0.0
H859 H 0.49753 0.14059 0.55252 0.0
H860 H 0.34805 0.08533 0.29813 0.0
H861 H 0.37967 0.14008 0.43779 0.0
H862 H 0.38916 0.10469 0.31492 0.0
H863 H 0.33869 0.1203 0.41853 0.0
H864 H 0.48753 0.20388 0.54552 0.0
H865 H 0.42251 0.19666 0.5101 0.0
H866 H 0.39417 0.03082 0.42935 0.0
H867 H 0.35997 0.06002 0.50969 0.0
H868 H 0.44534 0.1917 0.3359 0.0
H869 H 0.50177 0.18293 0.37343 0.0
H870 H 0.4683 0.23217 0.35971 0.0
H871 H 0.52377 0.22357 0.39645 0.0
H872 H 0.45972 0.1301 0.24386 0.0
H873 H 0.39497 0.07409 0.28549 0.0
H874 H 0.45457 0.11392 0.15812 0.0
H875 H 0.39088 0.05889 0.1989 0.0
H876 H 0.5118 0.10394 0.369 0.0
H877 H 0.5315 0.15797 0.26133 0.0
H878 H 0.38548 0.17353 0.23703 0.0
H879 H 0.44341 0.17909 0.15872 0.0
Li880 Li 0.29428 0.44095 0.56778 0.0
Li881 Li 0.31223 0.42012 0.54613 0.0
Li882 Li 0.32809 0.45936 0.51745 0.0
Li883 Li 0.2915 0.42869 0.48307 0.0
C884 C 0.32706 0.44349 0.63594 0.0
N885 N 0.33153 0.43343 0.73448 0.0
C886 C 0.30876 0.42578 0.6609 0.0
C887 C 0.34763 0.45606 0.66107 0.0
C888 C 0.31136 0.42096 0.71071 0.0
C889 C 0.34955 0.45072 0.71091 0.0
C890 C 0.26789 0.38729 0.52913 0.0
C891 C 0.26447 0.35697 0.47653 0.0
N892 N 0.24468 0.34251 0.49974 0.0
C893 C 0.24751 0.37214 0.55241 0.0
C894 C 0.27646 0.37967 0.49082 0.0
C895 C 0.23603 0.34956 0.53705 0.0
C896 C 0.25442 0.43136 0.61595 0.0
N897 N 0.27717 0.44511 0.61861 0.0
C898 C 0.2737 0.46172 0.69472 0.0
C899 C 0.287 0.46033 0.65655 0.0
C900 C 0.25021 0.44715 0.69375 0.0
C901 C 0.24053 0.43211 0.65334 0.0
H902 H 0.24713 0.41959 0.58503 0.0
H903 H 0.30517 0.4711 0.65756 0.0
C904 C 0.34339 0.40577 0.56764 0.0
N905 N 0.32133 0.39985 0.573 0.0
C906 C 0.35214 0.39409 0.59389 0.0
C907 C 0.31519 0.37015 0.62991 0.0
C908 C 0.30715 0.38225 0.60291 0.0
C909 C 0.33803 0.37621 0.62608 0.0
H910 H 0.35444 0.42023 0.54474 0.0
H911 H 0.28984 0.37826 0.60783 0.0
C912 C 0.29255 0.47371 0.52302 0.0
N913 N 0.27789 0.50187 0.56065 0.0
C914 C 0.27095 0.46981 0.51127 0.0
C915 C 0.30672 0.49198 0.55375 0.0
C916 C 0.26384 0.48422 0.53073 0.0
C917 C 0.299 0.50602 0.57241 0.0
C918 C 0.33153 0.43839 0.42977 0.0
C919 C 0.33103 0.4562 0.40504 0.0
C920 C 0.34163 0.42735 0.40643 0.0
C921 C 0.3406 0.46261 0.35717 0.0
C922 C 0.35097 0.43423 0.35849 0.0
N923 N 0.35028 0.45157 0.33507 0.0
C924 C 0.37531 0.48754 0.51563 0.0
C925 C 0.3552 0.50423 0.48066 0.0
C926 C 0.39592 0.50704 0.50559 0.0
N927 N 0.35554 0.48654 0.50323 0.0
C928 C 0.37539 0.52408 0.47015 0.0
C929 C 0.39611 0.52572 0.4829 0.0
H930 H 0.37504 0.47309 0.53306 0.0
H931 H 0.33924 0.5029 0.47064 0.0
C932 C 0.24942 0.41396 0.44036 0.0
N933 N 0.27059 0.41863 0.42748 0.0
C934 C 0.23326 0.40976 0.40332 0.0
C935 C 0.26058 0.41415 0.3402 0.0
C936 C 0.27614 0.41798 0.37856 0.0
C937 C 0.23899 0.41044 0.35243 0.0
H938 H 0.24536 0.41442 0.47954 0.0
H939 H 0.29276 0.42106 0.36887 0.0
O940 O 0.32511 0.44837 0.5869 0.0
O941 O 0.27919 0.40943 0.54402 0.0
O942 O 0.29965 0.45949 0.5054 0.0
O943 O 0.32284 0.43215 0.4772 0.0
H944 H 0.29275 0.41575 0.64197 0.0
H945 H 0.36197 0.46977 0.64217 0.0
H946 H 0.29735 0.40728 0.73043 0.0
H947 H 0.36537 0.46031 0.73083 0.0
H948 H 0.2709 0.35084 0.44696 0.0
H949 H 0.24066 0.37778 0.58214 0.0
H950 H 0.29216 0.39106 0.47223 0.0
H951 H 0.22025 0.33765 0.55479 0.0
H952 H 0.28169 0.47354 0.72538 0.0
H953 H 0.22243 0.42089 0.65102 0.0
H954 H 0.36997 0.39966 0.59076 0.0
H955 H 0.3038 0.35654 0.65447 0.0
H956 H 0.25977 0.45579 0.48752 0.0
H957 H 0.32336 0.49505 0.56384 0.0
H958 H 0.24714 0.48136 0.52207 0.0
H959 H 0.30973 0.52013 0.59649 0.0
H960 H 0.32311 0.46481 0.42227 0.0
H961 H 0.34227 0.41363 0.42527 0.0
H962 H 0.34027 0.47631 0.33755 0.0
H963 H 0.35883 0.42582 0.33995 0.0
H964 H 0.41151 0.50738 0.51485 0.0
H965 H 0.3748 0.53808 0.45259 0.0
H966 H 0.21685 0.40714 0.41425 0.0
H967 H 0.26552 0.41459 0.3013 0.0
Li968 Li 0.89033 0.30732 0.72064 0.0
Li969 Li 0.84998 0.29212 0.73989 0.0
Li970 Li 0.86235 0.28759 0.65555 0.0
Li971 Li 0.86943 0.32487 0.68414 0.0
C972 C 0.87481 0.26415 0.74321 0.0
N973 N 0.89521 0.24312 0.79102 0.0
C974 C 0.86863 0.25612 0.79236 0.0
C975 C 0.89117 0.26128 0.71817 0.0
C976 C 0.87919 0.24558 0.81593 0.0
C977 C 0.90135 0.25066 0.74305 0.0
C978 C 0.88028 0.3413 0.77998 0.0
C979 C 0.86824 0.36599 0.81569 0.0
N980 N 0.89012 0.38134 0.82656 0.0
C981 C 0.90263 0.35723 0.79182 0.0
C982 C 0.86292 0.34561 0.79233 0.0
C983 C 0.90726 0.3774 0.81528 0.0
C984 C 0.9384 0.32621 0.73152 0.0
N985 N 0.91789 0.3145 0.75422 0.0
C986 C 0.93538 0.31734 0.83392 0.0
C987 C 0.91608 0.30995 0.80434 0.0
C988 C 0.95687 0.33001 0.81208 0.0
C989 C 0.95824 0.33423 0.75994 0.0
H990 H 0.93937 0.33017 0.69186 0.0
H991 H 0.89958 0.30131 0.82177 0.0
C992 C 0.80905 0.25831 0.7842 0.0
N993 N 0.82857 0.2781 0.79219 0.0
C994 C 0.79477 0.24678 0.82444 0.0
C995 C 0.82119 0.27598 0.88043 0.0
C996 C 0.83476 0.28713 0.83904 0.0
C997 C 0.8011 0.25546 0.87323 0.0
H998 H 0.80501 0.25097 0.74703 0.0
H999 H 0.85071 0.30248 0.84459 0.0
C1000 C 0.89653 0.31728 0.6012 0.0
N1001 N 0.90603 0.31537 0.50093 0.0
C1002 C 0.89122 0.32879 0.56514 0.0
C1003 C 0.90685 0.30498 0.58642 0.0
C1004 C 0.89613 0.32757 0.51459 0.0
C1005 C 0.91146 0.30416 0.53549 0.0
C1006 C 0.81738 0.28829 0.67558 0.0
C1007 C 0.80296 0.26732 0.65356 0.0
C1008 C 0.80824 0.29987 0.70059 0.0
C1009 C 0.7796 0.2582 0.65728 0.0
C1010 C 0.78479 0.29018 0.70354 0.0
N1011 N 0.77108 0.26972 0.68202 0.0
C1012 C 0.848 0.24572 0.60578 0.0
C1013 C 0.84452 0.27311 0.55798 0.0
C1014 C 0.83566 0.22912 0.56973 0.0
N1015 N 0.8518 0.26711 0.59973 0.0
C1016 C 0.83225 0.25709 0.52091 0.0
C1017 C 0.82707 0.2346 0.52732 0.0
H1018 H 0.8535 0.24124 0.63983 0.0
H1019 H 0.84702 0.28999 0.55492 0.0
C1020 C 0.8903 0.37251 0.67596 0.0
N1021 N 0.87124 0.35265 0.66538 0.0
C1022 C 0.89132 0.39304 0.66562 0.0
C1023 C 0.85367 0.37232 0.63065 0.0
C1024 C 0.85324 0.35218 0.64236 0.0
C1025 C 0.87274 0.39303 0.64318 0.0
H1026 H 0.90462 0.3724 0.69289 0.0
H1027 H 0.83849 0.33617 0.63336 0.0
O1028 O 0.86493 0.27482 0.71975 0.0
O1029 O 0.87544 0.32158 0.75648 0.0
O1030 O 0.89156 0.31799 0.65073 0.0
O1031 O 0.84031 0.29752 0.6723 0.0
H1032 H 0.85594 0.25816 0.81222 0.0
H1033 H 0.89605 0.26731 0.68005 0.0
H1034 H 0.87467 0.23939 0.85406 0.0
H1035 H 0.91415 0.24844 0.72424 0.0
H1036 H 0.85498 0.3696 0.82523 0.0
H1037 H 0.91629 0.35417 0.78253 0.0
H1038 H 0.84553 0.33335 0.78392 0.0
H1039 H 0.92448 0.38994 0.82441 0.0
H1040 H 0.93348 0.31368 0.87386 0.0
H1041 H 0.97439 0.34447 0.74167 0.0
H1042 H 0.77954 0.23074 0.81794 0.0
H1043 H 0.8266 0.28294 0.91781 0.0
H1044 H 0.88323 0.33839 0.576 0.0
H1045 H 0.91117 0.29611 0.61397 0.0
H1046 H 0.89201 0.33629 0.4862 0.0
H1047 H 0.91934 0.29462 0.52344 0.0
H1048 H 0.80968 0.25802 0.63429 0.0
H1049 H 0.81913 0.31619 0.71749 0.0
H1050 H 0.76825 0.24194 0.64061 0.0
H1051 H 0.77749 0.29895 0.72289 0.0
H1052 H 0.83222 0.21201 0.57576 0.0
H1053 H 0.82574 0.26195 0.48901 0.0
H1054 H 0.90648 0.40875 0.67487 0.0
H1055 H 0.8391 0.37173 0.61297 0.0
C1056 C 0.21603 0.42749 0.24115 0.0
C1057 C 0.19335 0.40997 0.23776 0.0
C1058 C 0.23072 0.42714 0.27747 0.0
C1059 C 0.22332 0.4094 0.3124 0.0
H1060 H 0.22246 0.44192 0.21614 0.0
H1061 H 0.24789 0.4412 0.27908 0.0
S1062 S 0.16621 0.35867 0.31818 0.0
N1063 N 0.16467 0.37364 0.27111 0.0
N1064 N 0.1922 0.37342 0.34041 0.0
C1065 C 0.20083 0.39165 0.30939 0.0
C1066 C 0.18587 0.39184 0.27191 0.0
C1067 C 0.81489 0.21991 0.43951 0.0
C1068 C 0.81136 0.21683 0.49176 0.0
C1069 C 0.79924 0.20426 0.40523 0.0
C1070 C 0.7793 0.18509 0.42188 0.0
H1071 H 0.82973 0.23471 0.425 0.0
H1072 H 0.80239 0.20763 0.36534 0.0
S1073 S 0.76232 0.16893 0.55475 0.0
N1074 N 0.78661 0.19289 0.55847 0.0
N1075 N 0.75731 0.16349 0.49408 0.0
C1076 C 0.77581 0.18157 0.47401 0.0
C1077 C 0.79181 0.1974 0.50891 0.0
C1078 C 0.60377 0.78625 0.62584 0.0
C1079 C 0.59405 0.78477 0.57827 0.0
C1080 C 0.60386 0.80087 0.66311 0.0
C1081 C 0.5943 0.81464 0.65424 0.0
H1082 H 0.61119 0.77586 0.6345 0.0
H1083 H 0.61124 0.80121 0.69942 0.0
S1084 S 0.5657 0.81637 0.5371 0.0
N1085 N 0.57395 0.7979 0.52507 0.0
N1086 N 0.57435 0.82545 0.59488 0.0
C1087 C 0.58477 0.81354 0.60671 0.0
C1088 C 0.58458 0.7986 0.56884 0.0
C1089 C 0.7924 0.59342 0.73242 0.0
C1090 C 0.81163 0.59205 0.74574 0.0
C1091 C 0.77807 0.59421 0.76918 0.0
C1092 C 0.78243 0.59376 0.82078 0.0
H1093 H 0.78815 0.59347 0.69316 0.0
H1094 H 0.76323 0.59481 0.75712 0.0
S1095 S 0.8303 0.58984 0.87568 0.0
N1096 N 0.83418 0.59016 0.81429 0.0
N1097 N 0.80732 0.59173 0.88334 0.0
C1098 C 0.80189 0.59294 0.83468 0.0
C1099 C 0.81647 0.59208 0.79721 0.0
C1100 C 0.2259 0.79213 0.93511 0.0
C1101 C 0.22426 0.81078 0.9182 0.0
C1102 C 0.21052 0.77678 0.97007 0.0
C1103 C 0.19294 0.77952 0.9899 0.0
H1104 H 0.23906 0.78921 0.92073 0.0
H1105 H 0.21262 0.7628 0.9822 0.0
S1106 S 0.1812 0.82553 0.95809 0.0
N1107 N 0.20366 0.83117 0.9241 0.0
N1108 N 0.17466 0.80223 0.98972 0.0
C1109 C 0.19109 0.7981 0.97342 0.0
C1110 C 0.20671 0.81369 0.93751 0.0
C1111 C 0.41405 0.19042 0.10324 0.0
C1112 C 0.41291 0.19388 0.15511 0.0
C1113 C 0.41411 0.20558 0.06748 0.0
C1114 C 0.41327 0.22495 0.08219 0.0
H1115 H 0.41501 0.1759 0.09018 0.0
H1116 H 0.41541 0.20241 0.02803 0.0
S1117 S 0.40995 0.24175 0.21324 0.0
N1118 N 0.41091 0.21819 0.21932 0.0
N1119 N 0.4107 0.24645 0.15213 0.0
C1120 C 0.41187 0.22849 0.13387 0.0
C1121 C 0.41172 0.21301 0.17028 0.0
C1122 C 0.13944 0.56331 0.07544 0.0
C1123 C 0.13185 0.54526 0.10975 0.0
C1124 C 0.13937 0.58322 0.08789 0.0
C1125 C 0.13164 0.58587 0.1351 0.0
H1126 H 0.14573 0.56216 0.0388 0.0
H1127 H 0.14527 0.59659 0.06012 0.0
S1128 S 0.10989 0.54362 0.23836 0.0
N1129 N 0.11594 0.53116 0.19264 0.0
N1130 N 0.11653 0.56884 0.21665 0.0
C1131 C 0.124 0.56795 0.16978 0.0
C1132 C 0.12399 0.54764 0.15702 0.0
C1133 C 0.56986 0.12607 0.24226 0.0
C1134 C 0.58573 0.12965 0.28003 0.0
C1135 C 0.55009 0.12666 0.2534 0.0
C1136 C 0.54535 0.13038 0.30283 0.0
H1137 H 0.57294 0.12315 0.20375 0.0
H1138 H 0.53833 0.124 0.22326 0.0
S1139 S 0.5813 0.14026 0.41516 0.0
N1140 N 0.59539 0.13691 0.36864 0.0
N1141 N 0.55803 0.13763 0.38975 0.0
C1142 C 0.56096 0.13372 0.34096 0.0
C1143 C 0.58122 0.13348 0.3295 0.0
C1144 C 0.42122 0.55689 0.42394 0.0
C1145 C 0.41774 0.54672 0.47162 0.0
C1146 C 0.44138 0.57675 0.41229 0.0
C1147 C 0.45885 0.58729 0.44794 0.0
H1148 H 0.4083 0.54936 0.39518 0.0
H1149 H 0.44318 0.58405 0.37522 0.0
S1150 S 0.45826 0.56744 0.57824 0.0
N1151 N 0.4334 0.54882 0.55495 0.0
N1152 N 0.47152 0.5858 0.53265 0.0
C1153 C 0.45565 0.57725 0.49572 0.0
C1154 C 0.43509 0.55703 0.5076 0.0
C1155 C 0.8695 0.43982 0.57353 0.0
C1156 C 0.87327 0.45551 0.6119 0.0
C1157 C 0.86925 0.41958 0.58397 0.0
C1158 C 0.87315 0.41453 0.63296 0.0
H1159 H 0.86642 0.44309 0.53529 0.0
H1160 H 0.86616 0.40786 0.55346 0.0
S1161 S 0.88409 0.45008 0.74647 0.0
N1162 N 0.88108 0.4647 0.70064 0.0
N1163 N 0.8808 0.42672 0.72017 0.0
C1164 C 0.87711 0.43014 0.67155 0.0
C1165 C 0.87708 0.4506 0.66106 0.0
C1166 C 0.42484 0.87297 0.819 0.0
C1167 C 0.41876 0.87362 0.76871 0.0
C1168 C 0.44495 0.87318 0.83088 0.0
C1169 C 0.45955 0.87375 0.79286 0.0
H1170 H 0.41403 0.87242 0.84943 0.0
H1171 H 0.44892 0.87252 0.87009 0.0
S1172 S 0.45138 0.87564 0.65533 0.0
N1173 N 0.42891 0.87483 0.68063 0.0
N1174 N 0.46675 0.87536 0.70297 0.0
C1175 C 0.4537 0.87447 0.74244 0.0
C1176 C 0.43332 0.87442 0.73037 0.0
C1177 C 0.56364 0.42928 0.90492 0.0
C1178 C 0.54645 0.41871 0.94111 0.0
C1179 C 0.58382 0.4492 0.91623 0.0
C1180 C 0.58728 0.45944 0.96379 0.0
H1181 H 0.5616 0.4219 0.86785 0.0
H1182 H 0.59674 0.45675 0.8875 0.0
S1183 S 0.54737 0.43867 0.07125 0.0
N1184 N 0.53411 0.41997 0.02618 0.0
N1185 N 0.57194 0.45762 0.04723 0.0
C1186 C 0.57014 0.44918 1.00009 0.0
C1187 C 0.54975 0.42873 0.98883 0.0
C1188 C 0.23667 0.46711 0.75074 0.0
C1189 C 0.23586 0.44701 0.73556 0.0
C1190 C 0.22278 0.46707 0.78966 0.0
C1191 C 0.2077 0.44693 0.81472 0.0
H1192 H 0.24784 0.48289 0.73185 0.0
H1193 H 0.2236 0.48283 0.79972 0.0
S1194 S 0.20117 0.39034 0.79275 0.0
N1195 N 0.22005 0.40683 0.75077 0.0
N1196 N 0.19414 0.40675 0.82419 0.0
C1197 C 0.20723 0.42686 0.80072 0.0
C1198 C 0.22127 0.4269 0.76108 0.0
C1199 C 0.75262 0.22393 0.96446 0.0
C1200 C 0.7617 0.2151 0.99943 0.0
C1201 C 0.76547 0.23711 0.92366 0.0
C1202 C 0.78787 0.2421 0.9169 0.0
H1203 H 0.73548 0.22066 0.96872 0.0
H1204 H 0.75791 0.24353 0.89737 0.0
S1205 S 0.81907 0.22183 0.99489 0.0
N1206 N 0.79412 0.21122 0.02224 0.0
N1207 N 0.81837 0.23662 0.9465 0.0
C1208 C 0.79715 0.23338 0.95121 0.0
C1209 C 0.78404 0.21975 0.9923 0.0
C1210 C 0.54477 0.7769 0.16348 0.0
C1211 C 0.54426 0.75649 0.15298 0.0
C1212 C 0.54498 0.79082 0.12453 0.0
C1213 C 0.54459 0.78476 0.07378 0.0
H1214 H 0.54591 0.78256 0.202 0.0
H1215 H 0.54632 0.80685 0.13423 0.0
S1216 S 0.54003 0.73148 0.02692 0.0
N1217 N 0.54129 0.72986 0.08874 0.0
N1218 N 0.54133 0.75586 0.01539 0.0
C1219 C 0.54295 0.76384 0.06295 0.0
C1220 C 0.54287 0.74975 0.10259 0.0
C1221 C 0.7719 0.54896 0.32985 0.0
C1222 C 0.78917 0.54385 0.32123 0.0
C1223 C 0.75835 0.54898 0.29035 0.0
C1224 C 0.7616 0.54393 0.24083 0.0
H1225 H 0.76932 0.55371 0.3671 0.0
H1226 H 0.74572 0.55372 0.29835 0.0
S1227 S 0.80269 0.52684 0.19943 0.0
N1228 N 0.8075 0.53173 0.26032 0.0
N1229 N 0.78205 0.53191 0.18594 0.0
C1230 C 0.77824 0.538 0.23199 0.0
C1231 C 0.79202 0.53793 0.27222 0.0
C1232 C 0.21019 0.75401 0.46318 0.0
C1233 C 0.21783 0.75941 0.41326 0.0
C1234 C 0.22337 0.76741 0.50331 0.0
C1235 C 0.24475 0.78646 0.49489 0.0
H1236 H 0.19356 0.73983 0.47111 0.0
H1237 H 0.21664 0.76308 0.54114 0.0
S1238 S 0.27297 0.80692 0.37143 0.0
N1239 N 0.24849 0.78437 0.3577 0.0
N1240 N 0.27331 0.8096 0.43324 0.0
C1241 C 0.25293 0.79155 0.44534 0.0
C1242 C 0.23943 0.77802 0.40446 0.0
C1243 C 0.43928 0.22288 0.64979 0.0
C1244 C 0.45774 0.24478 0.65673 0.0
C1245 C 0.43898 0.20913 0.61056 0.0
C1246 C 0.45715 0.21672 0.57671 0.0
H1247 H 0.42481 0.21638 0.67471 0.0
H1248 H 0.4243 0.19245 0.60642 0.0
S1249 S 0.50956 0.27264 0.57852 0.0
N1250 N 0.49477 0.2734 0.62689 0.0
N1251 N 0.49422 0.24742 0.55278 0.0
C1252 C 0.47599 0.23836 0.58384 0.0
C1253 C 0.47629 0.25243 0.62395 0.0
C1254 C 0.99677 0.36101 0.92092 0.0
C1255 C 0.01683 0.36128 0.90751 0.0
C1256 C 0.97755 0.35069 0.89014 0.0
C1257 C 0.97748 0.34014 0.84451 0.0
H1258 H 0.99593 0.36893 0.95553 0.0
H1259 H 0.96272 0.35138 0.90183 0.0
S1260 S 0.02555 0.33586 0.79223 0.0
N1261 N 0.03548 0.35017 0.84509 0.0
N1262 N 0.99908 0.33009 0.78815 0.0
C1263 C 0.99732 0.34003 0.83087 0.0
C1264 C 0.01699 0.35066 0.86217 0.0
C1265 C 0.65908 0.99694 0.00386 0.0
C1266 C 0.63579 0.98129 0.00625 0.0
C1267 C 0.66898 0.01608 0.03516 0.0
C1268 C 0.65602 0.02 0.07065 0.0
H1269 H 0.66963 0.99461 0.97688 0.0
H1270 H 0.6869 0.02794 0.03149 0.0
S1271 S 0.59449 0.98356 0.09307 0.0
N1272 N 0.60018 0.97057 0.04787 0.0
N1273 N 0.61872 0.00645 0.10664 0.0
C1274 C 0.63281 0.0042 0.07409 0.0
C1275 C 0.62271 0.98489 0.04188 0.0
C1276 C 0.65675 0.63511 0.22352 0.0
C1277 C 0.65984 0.63975 0.17155 0.0
C1278 C 0.64695 0.64457 0.25433 0.0
C1279 C 0.63994 0.65917 0.23453 0.0
H1280 H 0.6615 0.62366 0.24044 0.0
H1281 H 0.64481 0.64037 0.29401 0.0
S1282 S 0.64451 0.67704 0.10103 0.0
N1283 N 0.65559 0.66041 0.10194 0.0
N1284 N 0.63665 0.6777 0.15945 0.0
C1285 C 0.64311 0.66413 0.18271 0.0
C1286 C 0.65312 0.65451 0.15134 0.0
C1287 C 0.02233 0.64555 0.38913 0.0
C1288 C 0.0219 0.65515 0.34265 0.0
C1289 C 0.00361 0.63652 0.42153 0.0
C1290 C 0.98361 0.63651 0.40853 0.0
H1291 H 0.03729 0.64505 0.40058 0.0
H1292 H 0.00481 0.6294 0.45702 0.0
S1293 S 0.9737 0.65875 0.28945 0.0
N1294 N 0.99997 0.66394 0.28466 0.0
N1295 N 0.96446 0.64635 0.34457 0.0
C1296 C 0.98305 0.64613 0.36196 0.0
C1297 C 0.00225 0.65558 0.32929 0.0
C1298 C 0.35404 1.00062 0.48674 0.0
C1299 C 0.36486 0.02249 0.50748 0.0
C1300 C 0.3444 0.98136 0.51762 0.0
C1301 C 0.34545 0.98322 0.57047 0.0
H1302 H 0.35299 0.99837 0.44628 0.0
H1303 H 0.3365 0.96488 0.49992 0.0
S1304 S 0.37191 0.03661 0.64361 0.0
N1305 N 0.37616 0.04487 0.58426 0.0
N1306 N 0.35784 0.00871 0.64215 0.0
C1307 C 0.35611 0.00498 0.59169 0.0
C1308 C 0.36582 0.02459 0.56027 0.0
C1309 C 0.34313 0.36262 0.71017 0.0
C1310 C 0.3474 0.36493 0.65802 0.0
C1311 C 0.35269 0.35311 0.74163 0.0
C1312 C 0.36669 0.3453 0.7221 0.0
H1313 H 0.33271 0.36868 0.72701 0.0
H1314 H 0.34911 0.35187 0.78158 0.0
S1315 S 0.38287 0.34714 0.58809 0.0
N1316 N 0.36623 0.35822 0.58818 0.0
N1317 N 0.38442 0.34063 0.64723 0.0
C1318 C 0.37089 0.34729 0.66994 0.0
C1319 C 0.36124 0.35706 0.63797 0.0
loop_
_geom_bond_atom_site_label_1
_geom_bond_atom_site_label_2
_geom_bond_distance
_geom_bond_site_symmetry_2
_ccdc_geom_bond_type
Li0 N17 1.990 . S
Li0 O60 1.956 . S
Li0 O61 1.970 . S
Li0 O62 1.961 1_554 S
Li1 N25 1.990 . S
Li1 O60 1.970 . S
Li1 O61 1.956 . S
Li1 O63 1.961 . S
Li2 N47 1.990 . S
Li2 O60 1.961 1_556 S
Li2 O62 1.956 . S
Li2 O63 1.970 1_556 S
Li3 N53 1.990 . S
Li3 O61 1.961 . S
Li3 O62 1.970 1_554 S
Li3 O63 1.956 . S
C4 C6 1.348 . S
C4 C7 1.356 . S
C4 O60 1.325 . S
N5 C8 1.314 . S
N5 C9 1.279 . S
C6 C4 1.348 . S
C6 C8 1.353 . S
C6 H64 0.929 . S
C7 C4 1.356 . S
C7 C9 1.358 . S
C7 H65 0.930 1_554 S
C8 N5 1.314 . S
C8 C6 1.353 . S
C8 H66 0.930 . S
C9 N5 1.279 . S
C9 C7 1.358 . S
C9 H67 0.930 . S
C10 C13 1.348 . S
C10 C14 1.356 . S
C10 O61 1.325 . S
C11 N12 1.279 . S
C11 C14 1.358 . S
C11 H68 0.930 . S
N12 C11 1.279 . S
N12 C15 1.314 . S
C13 C10 1.348 . S
C13 C15 1.353 . S
C13 H69 0.929 . S
C14 C10 1.356 . S
C14 C11 1.358 . S
C14 H70 0.930 . S
C15 N12 1.314 . S
C15 C13 1.353 . S
C15 H71 0.930 . S
C16 N17 1.314 . S
C16 C21 1.353 . S
C16 H22 0.930 . S
N17 Li0 1.990 . S
N17 C16 1.314 . S
N17 C19 1.279 . S
C18 C19 1.358 . S
C18 C20 1.356 . S
C18 H72 0.930 . S
C19 N17 1.279 . S
C19 C18 1.358 . S
C19 H23 0.930 . S
C20 C18 1.356 . S
C20 C21 1.348 . S
C21 C16 1.353 . S
C21 C20 1.348 . S
C21 H73 0.929 . S
H22 C16 0.930 . S
H23 C19 0.930 . S
C24 N25 1.314 . S
C24 C26 1.353 . S
C24 H30 0.930 . S
N25 Li1 1.990 . S
N25 C24 1.314 . S
N25 C28 1.279 . S
C26 C24 1.353 . S
C26 C29 1.348 . S
C26 H74 0.929 . S
C27 C28 1.358 . S
C27 C29 1.356 . S
C27 H75 0.930 . S
C28 N25 1.279 . S
C28 C27 1.358 . S
C28 H31 0.930 . S
C29 C26 1.348 . S
C29 C27 1.356 . S
H30 C24 0.930 . S
H31 C28 0.930 . S
C32 C34 1.348 . S
C32 C35 1.356 . S
C32 O62 1.325 . S
N33 C36 1.314 . S
N33 C37 1.279 . S
C34 C32 1.348 . S
C34 C36 1.353 . S
C34 H76 0.929 . S
C35 C32 1.356 . S
C35 C37 1.358 . S
C35 H77 0.930 . S
C36 N33 1.314 . S
C36 C34 1.353 . S
C36 H78 0.930 . S
C37 N33 1.279 . S
C37 C35 1.358 . S
C37 H79 0.930 . S
C38 C39 1.348 1_554 S
C38 C40 1.356 . S
C38 O63 1.325 . S
C39 C38 1.348 1_556 S
C39 C41 1.353 . S
C39 H80 0.929 . S
C40 C38 1.356 . S
C40 C42 1.358 . S
C40 H81 0.930 . S
C41 C39 1.353 . S
C41 N43 1.314 . S
C41 H82 0.930 . S
C42 C40 1.358 . S
C42 N43 1.279 1_554 S
C42 H83 0.930 . S
N43 C41 1.314 . S
N43 C42 1.279 1_556 S
C44 C46 1.353 . S
C44 N47 1.314 . S
C44 H50 0.930 . S
C45 N47 1.279 . S
C45 C48 1.358 . S
C45 H51 0.930 . S
C46 C44 1.353 . S
C46 C49 1.348 . S
C46 H84 0.929 . S
N47 Li2 1.990 . S
N47 C44 1.314 . S
N47 C45 1.279 . S
C48 C45 1.358 . S
C48 C49 1.356 . S
C48 H85 0.930 . S
C49 C46 1.348 . S
C49 C48 1.356 . S
H50 C44 0.930 . S
H51 C45 0.930 . S
C52 N53 1.314 . S
C52 C54 1.353 1_554 S
C52 H58 0.930 . S
N53 Li3 1.990 . S
N53 C52 1.314 . S
N53 C56 1.279 1_554 S
C54 C52 1.353 1_556 S
C54 C57 1.348 . S
C54 H86 0.929 1_556 S
C55 C56 1.358 . S
C55 C57 1.356 . S
C55 H87 0.930 . S
C56 N53 1.279 1_556 S
C56 C55 1.358 . S
C56 H59 0.930 . S
C57 C54 1.348 . S
C57 C55 1.356 . S
H58 C52 0.930 . S
H59 C56 0.930 . S
O60 Li0 1.956 . S
O60 Li1 1.970 . S
O60 Li2 1.961 1_554 S
O60 C4 1.325 . S
O61 Li0 1.970 . S
O61 Li1 1.956 . S
O61 Li3 1.961 . S
O61 C10 1.325 . S
O62 Li0 1.961 1_556 S
O62 Li2 1.956 . S
O62 Li3 1.970 1_556 S
O62 C32 1.325 . S
O63 Li1 1.961 . S
O63 Li2 1.970 1_554 S
O63 Li3 1.956 . S
O63 C38 1.325 . S
H64 C6 0.929 . S
H65 C7 0.930 1_556 S
H66 C8 0.930 . S
H67 C9 0.930 . S
H68 C11 0.930 . S
H69 C13 0.929 . S
H70 C14 0.930 . S
H71 C15 0.930 . S
H72 C18 0.930 . S
H73 C21 0.929 . S
H74 C26 0.929 . S
H75 C27 0.930 . S
H76 C34 0.929 . S
H77 C35 0.930 . S
H78 C36 0.930 . S
H79 C37 0.930 . S
H80 C39 0.929 . S
H81 C40 0.930 . S
H82 C41 0.930 . S
H83 C42 0.930 . S
H84 C46 0.929 . S
H85 C48 0.930 . S
H86 C54 0.929 1_554 S
H87 C55 0.930 . S
Li88 N105 1.990 . S
Li88 O148 1.956 . S
Li88 O149 1.970 . S
Li88 O150 1.961 . S
Li89 N113 1.990 . S
Li89 O148 1.970 . S
Li89 O149 1.956 . S
Li89 O151 1.961 . S
Li90 N135 1.990 . S
Li90 O148 1.961 . S
Li90 O150 1.956 . S
Li90 O151 1.970 . S
Li91 N141 1.990 . S
Li91 O149 1.961 . S
Li91 O150 1.970 . S
Li91 O151 1.956 . S
C92 C94 1.348 . S
C92 C95 1.356 . S
C92 O148 1.325 . S
N93 C96 1.314 . S
N93 C97 1.279 . S
C94 C92 1.348 . S
C94 C96 1.353 . S
C94 H152 0.929 . S
C95 C92 1.356 . S
C95 C97 1.358 . S
C95 H153 0.930 . S
C96 N93 1.314 . S
C96 C94 1.353 . S
C96 H154 0.930 . S
C97 N93 1.279 . S
C97 C95 1.358 . S
C97 H155 0.930 . S
C98 C101 1.348 . S
C98 C102 1.356 . S
C98 O149 1.325 . S
C99 N100 1.279 . S
C99 C102 1.358 . S
C99 H156 0.930 . S
N100 C99 1.279 . S
N100 C103 1.314 . S
C101 C98 1.348 . S
C101 C103 1.353 . S
C101 H157 0.929 . S
C102 C98 1.356 . S
C102 C99 1.358 . S
C102 H158 0.930 . S
C103 N100 1.314 . S
C103 C101 1.353 . S
C103 H159 0.930 . S
C104 N105 1.314 . S
C104 C109 1.353 . S
C104 H110 0.930 . S
N105 Li88 1.990 . S
N105 C104 1.314 . S
N105 C107 1.279 . S
C106 C107 1.358 . S
C106 C108 1.356 . S
C106 H160 0.930 . S
C107 N105 1.279 . S
C107 C106 1.358 . S
C107 H111 0.930 . S
C108 C106 1.356 . S
C108 C109 1.348 . S
C109 C104 1.353 . S
C109 C108 1.348 . S
C109 H161 0.929 . S
H110 C104 0.930 . S
H111 C107 0.930 . S
C112 N113 1.314 . S
C112 C114 1.353 . S
C112 H118 0.930 . S
N113 Li89 1.990 . S
N113 C112 1.314 . S
N113 C116 1.279 . S
C114 C112 1.353 . S
C114 C117 1.348 . S
C114 H162 0.929 . S
C115 C116 1.358 . S
C115 C117 1.356 . S
C115 H163 0.930 . S
C116 N113 1.279 . S
C116 C115 1.358 . S
C116 H119 0.930 . S
C117 C114 1.348 . S
C117 C115 1.356 . S
H118 C112 0.930 . S
H119 C116 0.930 . S
C120 C122 1.348 . S
C120 C123 1.356 . S
C120 O150 1.325 . S
N121 C124 1.314 . S
N121 C125 1.279 . S
C122 C120 1.348 . S
C122 C124 1.353 . S
C122 H164 0.929 . S
C123 C120 1.356 . S
C123 C125 1.358 . S
C123 H165 0.930 . S
C124 N121 1.314 . S
C124 C122 1.353 . S
C124 H166 0.930 . S
C125 N121 1.279 . S
C125 C123 1.358 . S
C125 H167 0.930 . S
C126 C127 1.348 . S
C126 C128 1.356 . S
C126 O151 1.325 . S
C127 C126 1.348 . S
C127 C129 1.353 . S
C127 H168 0.929 . S
C128 C126 1.356 . S
C128 C130 1.358 . S
C128 H169 0.930 . S
C129 C127 1.353 . S
C129 N131 1.314 . S
C129 H170 0.930 . S
C130 C128 1.358 . S
C130 N131 1.279 . S
C130 H171 0.930 . S
N131 C129 1.314 . S
N131 C130 1.279 . S
C132 C134 1.353 . S
C132 N135 1.314 . S
C132 H138 0.930 . S
C133 N135 1.279 . S
C133 C136 1.358 . S
C133 H139 0.930 . S
C134 C132 1.353 . S
C134 C137 1.348 . S
C134 H172 0.929 . S
N135 Li90 1.990 . S
N135 C132 1.314 . S
N135 C133 1.279 . S
C136 C133 1.358 . S
C136 C137 1.356 . S
C136 H173 0.930 1_554 S
C137 C134 1.348 . S
C137 C136 1.356 . S
H138 C132 0.930 . S
H139 C133 0.930 . S
C140 N141 1.314 . S
C140 C142 1.353 . S
C140 H146 0.930 . S
N141 Li91 1.990 . S
N141 C140 1.314 . S
N141 C144 1.279 . S
C142 C140 1.353 . S
C142 C145 1.348 . S
C142 H174 0.929 . S
C143 C144 1.358 . S
C143 C145 1.356 . S
C143 H175 0.930 . S
C144 N141 1.279 . S
C144 C143 1.358 . S
C144 H147 0.930 . S
C145 C142 1.348 . S
C145 C143 1.356 . S
H146 C140 0.930 . S
H147 C144 0.930 . S
O148 Li88 1.956 . S
O148 Li89 1.970 . S
O148 Li90 1.961 . S
O148 C92 1.325 . S
O149 Li88 1.970 . S
O149 Li89 1.956 . S
O149 Li91 1.961 . S
O149 C98 1.325 . S
O150 Li88 1.961 . S
O150 Li90 1.956 . S
O150 Li91 1.970 . S
O150 C120 1.325 . S
O151 Li89 1.961 . S
O151 Li90 1.970 . S
O151 Li91 1.956 . S
O151 C126 1.325 . S
H152 C94 0.929 . S
H153 C95 0.930 . S
H154 C96 0.930 . S
H155 C97 0.930 . S
H156 C99 0.930 . S
H157 C101 0.929 . S
H158 C102 0.930 . S
H159 C103 0.930 . S
H160 C106 0.930 . S
H161 C109 0.929 . S
H162 C114 0.929 . S
H163 C115 0.930 . S
H164 C122 0.929 . S
H165 C123 0.930 . S
H166 C124 0.930 . S
H167 C125 0.930 . S
H168 C127 0.929 . S
H169 C128 0.930 . S
H170 C129 0.930 . S
H171 C130 0.930 . S
H172 C134 0.929 . S
H173 C136 0.930 1_556 S
H174 C142 0.929 . S
H175 C143 0.930 . S
Li176 N193 1.990 . S
Li176 O236 1.956 . S
Li176 O237 1.970 . S
Li176 O238 1.961 . S
Li177 N201 1.990 . S
Li177 O236 1.970 . S
Li177 O237 1.956 . S
Li177 O239 1.961 . S
Li178 N223 1.990 . S
Li178 O236 1.961 . S
Li178 O238 1.956 . S
Li178 O239 1.970 . S
Li179 N229 1.990 . S
Li179 O237 1.961 . S
Li179 O238 1.970 . S
Li179 O239 1.956 . S
C180 C182 1.348 . S
C180 C183 1.356 . S
C180 O236 1.325 . S
N181 C184 1.314 . S
N181 C185 1.279 . S
C182 C180 1.348 . S
C182 C184 1.353 . S
C182 H240 0.929 . S
C183 C180 1.356 . S
C183 C185 1.358 . S
C183 H241 0.930 . S
C184 N181 1.314 . S
C184 C182 1.353 . S
C184 H242 0.930 . S
C185 N181 1.279 . S
C185 C183 1.358 . S
C185 H243 0.930 . S
C186 C189 1.348 . S
C186 C190 1.356 . S
C186 O237 1.325 . S
C187 N188 1.279 . S
C187 C190 1.358 . S
C187 H244 0.930 . S
N188 C187 1.279 . S
N188 C191 1.314 . S
C189 C186 1.348 . S
C189 C191 1.353 . S
C189 H245 0.929 . S
C190 C186 1.356 . S
C190 C187 1.358 . S
C190 H246 0.930 . S
C191 N188 1.314 . S
C191 C189 1.353 . S
C191 H247 0.930 . S
C192 N193 1.314 . S
C192 C197 1.353 . S
C192 H198 0.930 . S
N193 Li176 1.990 . S
N193 C192 1.314 . S
N193 C195 1.279 . S
C194 C195 1.358 . S
C194 C196 1.356 . S
C194 H248 0.930 . S
C195 N193 1.279 . S
C195 C194 1.358 . S
C195 H199 0.930 . S
C196 C194 1.356 . S
C196 C197 1.348 . S
C197 C192 1.353 . S
C197 C196 1.348 . S
C197 H249 0.929 . S
H198 C192 0.930 . S
H199 C195 0.930 . S
C200 N201 1.314 . S
C200 C202 1.353 . S
C200 H206 0.930 . S
N201 Li177 1.990 . S
N201 C200 1.314 . S
N201 C204 1.279 . S
C202 C200 1.353 . S
C202 C205 1.348 . S
C202 H250 0.929 . S
C203 C204 1.358 . S
C203 C205 1.356 . S
C203 H251 0.930 . S
C204 N201 1.279 . S
C204 C203 1.358 . S
C204 H207 0.930 . S
C205 C202 1.348 . S
C205 C203 1.356 . S
H206 C200 0.930 . S
H207 C204 0.930 . S
C208 C210 1.348 . S
C208 C211 1.356 . S
C208 O238 1.325 . S
N209 C212 1.314 . S
N209 C213 1.279 . S
C210 C208 1.348 . S
C210 C212 1.353 . S
C210 H252 0.929 . S
C211 C208 1.356 . S
C211 C213 1.358 . S
C211 H253 0.930 . S
C212 N209 1.314 . S
C212 C210 1.353 . S
C212 H254 0.930 . S
C213 N209 1.279 . S
C213 C211 1.358 . S
C213 H255 0.930 . S
C214 C215 1.348 . S
C214 C216 1.356 . S
C214 O239 1.325 . S
C215 C214 1.348 . S
C215 C217 1.353 . S
C215 H256 0.929 . S
C216 C214 1.356 . S
C216 C218 1.358 . S
C216 H257 0.930 . S
C217 C215 1.353 . S
C217 N219 1.314 . S
C217 H258 0.930 . S
C218 C216 1.358 . S
C218 N219 1.279 . S
C218 H259 0.930 . S
N219 C217 1.314 . S
N219 C218 1.279 . S
C220 C222 1.353 . S
C220 N223 1.314 . S
C220 H226 0.930 . S
C221 N223 1.279 . S
C221 C224 1.358 . S
C221 H227 0.930 . S
C222 C220 1.353 . S
C222 C225 1.348 . S
C222 H260 0.929 . S
N223 Li178 1.990 . S
N223 C220 1.314 . S
N223 C221 1.279 . S
C224 C221 1.358 . S
C224 C225 1.356 . S
C224 H261 0.930 . S
C225 C222 1.348 . S
C225 C224 1.356 . S
H226 C220 0.930 . S
H227 C221 0.930 . S
C228 N229 1.314 . S
C228 C230 1.353 . S
C228 H234 0.930 . S
N229 Li179 1.990 . S
N229 C228 1.314 . S
N229 C232 1.279 . S
C230 C228 1.353 . S
C230 C233 1.348 . S
C230 H262 0.929 . S
C231 C232 1.358 . S
C231 C233 1.356 . S
C231 H263 0.930 . S
C232 N229 1.279 . S
C232 C231 1.358 . S
C232 H235 0.930 . S
C233 C230 1.348 . S
C233 C231 1.356 . S
H234 C228 0.930 . S
H235 C232 0.930 . S
O236 Li176 1.956 . S
O236 Li177 1.970 . S
O236 Li178 1.961 . S
O236 C180 1.325 . S
O237 Li176 1.970 . S
O237 Li177 1.956 . S
O237 Li179 1.961 . S
O237 C186 1.325 . S
O238 Li176 1.961 . S
O238 Li178 1.956 . S
O238 Li179 1.970 . S
O238 C208 1.325 . S
O239 Li177 1.961 . S
O239 Li178 1.970 . S
O239 Li179 1.956 . S
O239 C214 1.325 . S
H240 C182 0.929 . S
H241 C183 0.930 . S
H242 C184 0.930 . S
H243 C185 0.930 . S
H244 C187 0.930 . S
H245 C189 0.929 . S
H246 C190 0.930 . S
H247 C191 0.930 . S
H248 C194 0.930 . S
H249 C197 0.929 . S
H250 C202 0.929 . S
H251 C203 0.930 . S
H252 C210 0.929 . S
H253 C211 0.930 . S
H254 C212 0.930 . S
H255 C213 0.930 . S
H256 C215 0.929 . S
H257 C216 0.930 . S
H258 C217 0.930 . S
H259 C218 0.930 . S
H260 C222 0.929 . S
H261 C224 0.930 . S
H262 C230 0.929 . S
H263 C231 0.930 . S
Li264 N281 1.990 . S
Li264 O324 1.956 . S
Li264 O325 1.970 . S
Li264 O326 1.961 . S
Li265 N289 1.990 . S
Li265 O324 1.970 . S
Li265 O325 1.956 . S
Li265 O327 1.961 . S
Li266 N311 1.990 . S
Li266 O324 1.961 . S
Li266 O326 1.956 . S
Li266 O327 1.970 . S
Li267 N317 1.990 . S
Li267 O325 1.961 . S
Li267 O326 1.970 . S
Li267 O327 1.956 . S
C268 C270 1.348 . S
C268 C271 1.356 . S
C268 O324 1.325 . S
N269 C272 1.314 . S
N269 C273 1.279 . S
C270 C268 1.348 . S
C270 C272 1.353 . S
C270 H328 0.929 . S
C271 C268 1.356 . S
C271 C273 1.358 . S
C271 H329 0.930 . S
C272 N269 1.314 . S
C272 C270 1.353 . S
C272 H330 0.930 . S
C273 N269 1.279 . S
C273 C271 1.358 . S
C273 H331 0.930 . S
C274 C277 1.348 . S
C274 C278 1.356 . S
C274 O325 1.325 . S
C275 N276 1.279 . S
C275 C278 1.358 . S
C275 H332 0.930 . S
N276 C275 1.279 . S
N276 C279 1.314 . S
C277 C274 1.348 . S
C277 C279 1.353 . S
C277 H333 0.929 . S
C278 C274 1.356 . S
C278 C275 1.358 . S
C278 H334 0.930 . S
C279 N276 1.314 . S
C279 C277 1.353 . S
C279 H335 0.930 . S
C280 N281 1.314 . S
C280 C285 1.353 . S
C280 H286 0.930 . S
N281 Li264 1.990 . S
N281 C280 1.314 . S
N281 C283 1.279 . S
C282 C283 1.358 . S
C282 C284 1.356 . S
C282 H336 0.930 . S
C283 N281 1.279 . S
C283 C282 1.358 . S
C283 H287 0.930 . S
C284 C282 1.356 . S
C284 C285 1.348 . S
C285 C280 1.353 . S
C285 C284 1.348 . S
C285 H337 0.929 . S
H286 C280 0.930 . S
H287 C283 0.930 . S
C288 N289 1.314 . S
C288 C290 1.353 . S
C288 H294 0.930 . S
N289 Li265 1.990 . S
N289 C288 1.314 . S
N289 C292 1.279 . S
C290 C288 1.353 . S
C290 C293 1.348 . S
C290 H338 0.929 . S
C291 C292 1.358 . S
C291 C293 1.356 . S
C291 H339 0.930 . S
C292 N289 1.279 . S
C292 C291 1.358 . S
C292 H295 0.930 . S
C293 C290 1.348 . S
C293 C291 1.356 . S
H294 C288 0.930 . S
H295 C292 0.930 . S
C296 C298 1.348 . S
C296 C299 1.356 . S
C296 O326 1.325 . S
N297 C300 1.314 . S
N297 C301 1.279 . S
C298 C296 1.348 . S
C298 C300 1.353 . S
C298 H340 0.929 . S
C299 C296 1.356 . S
C299 C301 1.358 . S
C299 H341 0.930 . S
C300 N297 1.314 . S
C300 C298 1.353 . S
C300 H342 0.930 . S
C301 N297 1.279 . S
C301 C299 1.358 . S
C301 H343 0.930 . S
C302 C303 1.348 . S
C302 C304 1.356 . S
C302 O327 1.325 . S
C303 C302 1.348 . S
C303 C305 1.353 . S
C303 H344 0.929 . S
C304 C302 1.356 . S
C304 C306 1.358 . S
C304 H345 0.930 . S
C305 C303 1.353 . S
C305 N307 1.314 . S
C305 H346 0.930 . S
C306 C304 1.358 . S
C306 N307 1.279 . S
C306 H347 0.930 . S
N307 C305 1.314 . S
N307 C306 1.279 . S
C308 C310 1.353 . S
C308 N311 1.314 . S
C308 H314 0.930 . S
C309 N311 1.279 . S
C309 C312 1.358 . S
C309 H315 0.930 . S
C310 C308 1.353 . S
C310 C313 1.348 . S
C310 H348 0.929 . S
N311 Li266 1.990 . S
N311 C308 1.314 . S
N311 C309 1.279 . S
C312 C309 1.358 . S
C312 C313 1.356 . S
C312 H349 0.930 . S
C313 C310 1.348 . S
C313 C312 1.356 . S
H314 C308 0.930 . S
H315 C309 0.930 . S
C316 N317 1.314 . S
C316 C318 1.353 . S
C316 H322 0.930 . S
N317 Li267 1.990 . S
N317 C316 1.314 . S
N317 C320 1.279 . S
C318 C316 1.353 . S
C318 C321 1.348 . S
C318 H350 0.929 . S
C319 C320 1.358 . S
C319 C321 1.356 . S
C319 H351 0.930 . S
C320 N317 1.279 . S
C320 C319 1.358 . S
C320 H323 0.930 . S
C321 C318 1.348 . S
C321 C319 1.356 . S
H322 C316 0.930 . S
H323 C320 0.930 . S
O324 Li264 1.956 . S
O324 Li265 1.970 . S
O324 Li266 1.961 . S
O324 C268 1.325 . S
O325 Li264 1.970 . S
O325 Li265 1.956 . S
O325 Li267 1.961 . S
O325 C274 1.325 . S
O326 Li264 1.961 . S
O326 Li266 1.956 . S
O326 Li267 1.970 . S
O326 C296 1.325 . S
O327 Li265 1.961 . S
O327 Li266 1.970 . S
O327 Li267 1.956 . S
O327 C302 1.325 . S
H328 C270 0.929 . S
H329 C271 0.930 . S
H330 C272 0.930 . S
H331 C273 0.930 . S
H332 C275 0.930 . S
H333 C277 0.929 . S
H334 C278 0.930 . S
H335 C279 0.930 . S
H336 C282 0.930 . S
H337 C285 0.929 . S
H338 C290 0.929 . S
H339 C291 0.930 . S
H340 C298 0.929 . S
H341 C299 0.930 . S
H342 C300 0.930 . S
H343 C301 0.930 . S
H344 C303 0.929 . S
H345 C304 0.930 . S
H346 C305 0.930 . S
H347 C306 0.930 . S
H348 C310 0.929 . S
H349 C312 0.930 . S
H350 C318 0.929 . S
H351 C319 0.930 . S
Li352 N369 1.990 . S
Li352 O412 1.956 . S
Li352 O413 1.970 . S
Li352 O414 1.961 . S
Li353 N377 1.990 . S
Li353 O412 1.970 . S
Li353 O413 1.956 . S
Li353 O415 1.961 . S
Li354 N399 1.990 . S
Li354 O412 1.961 . S
Li354 O414 1.956 . S
Li354 O415 1.970 . S
Li355 N405 1.990 . S
Li355 O413 1.961 . S
Li355 O414 1.970 . S
Li355 O415 1.956 . S
C356 C358 1.348 . S
C356 C359 1.356 . S
C356 O412 1.325 . S
N357 C360 1.314 . S
N357 C361 1.279 . S
C358 C356 1.348 . S
C358 C360 1.353 . S
C358 H416 0.929 . S
C359 C356 1.356 . S
C359 C361 1.358 . S
C359 H417 0.930 . S
C360 N357 1.314 . S
C360 C358 1.353 . S
C360 H418 0.930 . S
C361 N357 1.279 . S
C361 C359 1.358 . S
C361 H419 0.930 . S
C362 C365 1.348 . S
C362 C366 1.356 . S
C362 O413 1.325 . S
C363 N364 1.279 . S
C363 C366 1.358 . S
C363 H420 0.930 . S
N364 C363 1.279 . S
N364 C367 1.314 . S
C365 C362 1.348 . S
C365 C367 1.353 . S
C365 H421 0.929 . S
C366 C362 1.356 . S
C366 C363 1.358 . S
C366 H422 0.930 . S
C367 N364 1.314 . S
C367 C365 1.353 . S
C367 H423 0.930 . S
C368 N369 1.314 . S
C368 C373 1.353 . S
C368 H374 0.930 . S
N369 Li352 1.990 . S
N369 C368 1.314 . S
N369 C371 1.279 . S
C370 C371 1.358 . S
C370 C372 1.356 . S
C370 H424 0.930 . S
C371 N369 1.279 . S
C371 C370 1.358 . S
C371 H375 0.930 . S
C372 C370 1.356 . S
C372 C373 1.348 . S
C373 C368 1.353 . S
C373 C372 1.348 . S
C373 H425 0.929 . S
H374 C368 0.930 . S
H375 C371 0.930 . S
C376 N377 1.314 . S
C376 C378 1.353 . S
C376 H382 0.930 . S
N377 Li353 1.990 . S
N377 C376 1.314 . S
N377 C380 1.279 . S
C378 C376 1.353 . S
C378 C381 1.348 . S
C378 H426 0.929 . S
C379 C380 1.358 . S
C379 C381 1.356 . S
C379 H427 0.930 . S
C380 N377 1.279 . S
C380 C379 1.358 . S
C380 H383 0.930 . S
C381 C378 1.348 . S
C381 C379 1.356 . S
H382 C376 0.930 . S
H383 C380 0.930 . S
C384 C386 1.348 . S
C384 C387 1.356 . S
C384 O414 1.325 . S
N385 C388 1.314 . S
N385 C389 1.279 . S
C386 C384 1.348 . S
C386 C388 1.353 . S
C386 H428 0.929 . S
C387 C384 1.356 . S
C387 C389 1.358 . S
C387 H429 0.930 . S
C388 N385 1.314 . S
C388 C386 1.353 . S
C388 H430 0.930 . S
C389 N385 1.279 . S
C389 C387 1.358 . S
C389 H431 0.930 . S
C390 C391 1.348 . S
C390 C392 1.356 . S
C390 O415 1.325 . S
C391 C390 1.348 . S
C391 C393 1.353 . S
C391 H432 0.929 . S
C392 C390 1.356 . S
C392 C394 1.358 . S
C392 H433 0.930 . S
C393 C391 1.353 . S
C393 N395 1.314 . S
C393 H434 0.930 . S
C394 C392 1.358 . S
C394 N395 1.279 . S
C394 H435 0.930 . S
N395 C393 1.314 . S
N395 C394 1.279 . S
C396 C398 1.353 . S
C396 N399 1.314 . S
C396 H402 0.930 . S
C397 N399 1.279 . S
C397 C400 1.358 . S
C397 H403 0.930 . S
C398 C396 1.353 . S
C398 C401 1.348 . S
C398 H436 0.929 . S
N399 Li354 1.990 . S
N399 C396 1.314 . S
N399 C397 1.279 . S
C400 C397 1.358 . S
C400 C401 1.356 . S
C400 H437 0.930 . S
C401 C398 1.348 . S
C401 C400 1.356 . S
H402 C396 0.930 . S
H403 C397 0.930 . S
C404 N405 1.314 . S
C404 C406 1.353 . S
C404 H410 0.930 . S
N405 Li355 1.990 . S
N405 C404 1.314 . S
N405 C408 1.279 . S
C406 C404 1.353 . S
C406 C409 1.348 . S
C406 H438 0.929 . S
C407 C408 1.358 . S
C407 C409 1.356 . S
C407 H439 0.930 . S
C408 N405 1.279 . S
C408 C407 1.358 . S
C408 H411 0.930 . S
C409 C406 1.348 . S
C409 C407 1.356 . S
H410 C404 0.930 . S
H411 C408 0.930 . S
O412 Li352 1.956 . S
O412 Li353 1.970 . S
O412 Li354 1.961 . S
O412 C356 1.325 . S
O413 Li352 1.970 . S
O413 Li353 1.956 . S
O413 Li355 1.961 . S
O413 C362 1.325 . S
O414 Li352 1.961 . S
O414 Li354 1.956 . S
O414 Li355 1.970 . S
O414 C384 1.325 . S
O415 Li353 1.961 . S
O415 Li354 1.970 . S
O415 Li355 1.956 . S
O415 C390 1.325 . S
H416 C358 0.929 . S
H417 C359 0.930 . S
H418 C360 0.930 . S
H419 C361 0.930 . S
H420 C363 0.930 . S
H421 C365 0.929 . S
H422 C366 0.930 . S
H423 C367 0.930 . S
H424 C370 0.930 . S
H425 C373 0.929 . S
H426 C378 0.929 . S
H427 C379 0.930 . S
H428 C386 0.929 . S
H429 C387 0.930 . S
H430 C388 0.930 . S
H431 C389 0.930 . S
H432 C391 0.929 . S
H433 C392 0.930 . S
H434 C393 0.930 . S
H435 C394 0.930 . S
H436 C398 0.929 . S
H437 C400 0.930 . S
H438 C406 0.929 . S
H439 C407 0.930 . S
Li440 N457 1.990 . S
Li440 O500 1.956 . S
Li440 O501 1.970 . S
Li440 O502 1.961 . S
Li441 N465 1.990 . S
Li441 O500 1.970 . S
Li441 O501 1.956 . S
Li441 O503 1.961 . S
Li442 N487 1.990 . S
Li442 O500 1.961 . S
Li442 O502 1.956 . S
Li442 O503 1.970 . S
Li443 N493 1.990 . S
Li443 O501 1.961 . S
Li443 O502 1.970 . S
Li443 O503 1.956 . S
C444 C446 1.348 . S
C444 C447 1.356 . S
C444 O500 1.325 . S
N445 C448 1.314 . S
N445 C449 1.279 . S
C446 C444 1.348 . S
C446 C448 1.353 . S
C446 H504 0.929 . S
C447 C444 1.356 . S
C447 C449 1.358 . S
C447 H505 0.930 . S
C448 N445 1.314 . S
C448 C446 1.353 . S
C448 H506 0.930 . S
C449 N445 1.279 . S
C449 C447 1.358 . S
C449 H507 0.930 . S
C450 C453 1.348 . S
C450 C454 1.356 . S
C450 O501 1.325 . S
C451 N452 1.279 . S
C451 C454 1.358 1_554 S
C451 H508 0.930 . S
N452 C451 1.279 . S
N452 C455 1.314 . S
C453 C450 1.348 . S
C453 C455 1.353 1_556 S
C453 H509 0.929 . S
C454 C450 1.356 . S
C454 C451 1.358 1_556 S
C454 H510 0.930 . S
C455 N452 1.314 . S
C455 C453 1.353 1_554 S
C455 H511 0.930 . S
C456 N457 1.314 . S
C456 C461 1.353 . S
C456 H462 0.930 . S
N457 Li440 1.990 . S
N457 C456 1.314 . S
N457 C459 1.279 . S
C458 C459 1.358 . S
C458 C460 1.356 . S
C458 H512 0.930 . S
C459 N457 1.279 . S
C459 C458 1.358 . S
C459 H463 0.930 . S
C460 C458 1.356 . S
C460 C461 1.348 . S
C461 C456 1.353 . S
C461 C460 1.348 . S
C461 H513 0.929 . S
H462 C456 0.930 . S
H463 C459 0.930 . S
C464 N465 1.314 . S
C464 C466 1.353 1_556 S
C464 H470 0.930 . S
N465 Li441 1.990 . S
N465 C464 1.314 . S
N465 C468 1.279 1_556 S
C466 C464 1.353 1_554 S
C466 C469 1.348 . S
C466 H514 0.929 . S
C467 C468 1.358 . S
C467 C469 1.356 . S
C467 H515 0.930 . S
C468 N465 1.279 1_554 S
C468 C467 1.358 . S
C468 H471 0.930 . S
C469 C466 1.348 . S
C469 C467 1.356 . S
H470 C464 0.930 . S
H471 C468 0.930 . S
C472 C474 1.348 . S
C472 C475 1.356 . S
C472 O502 1.325 . S
N473 C476 1.314 . S
N473 C477 1.279 . S
C474 C472 1.348 . S
C474 C476 1.353 . S
C474 H516 0.929 . S
C475 C472 1.356 . S
C475 C477 1.358 . S
C475 H517 0.930 . S
C476 N473 1.314 . S
C476 C474 1.353 . S
C476 H518 0.930 . S
C477 N473 1.279 . S
C477 C475 1.358 . S
C477 H519 0.930 . S
C478 C479 1.348 . S
C478 C480 1.356 . S
C478 O503 1.325 . S
C479 C478 1.348 . S
C479 C481 1.353 . S
C479 H520 0.929 . S
C480 C478 1.356 . S
C480 C482 1.358 . S
C480 H521 0.930 . S
C481 C479 1.353 . S
C481 N483 1.314 . S
C481 H522 0.930 . S
C482 C480 1.358 . S
C482 N483 1.279 . S
C482 H523 0.930 . S
N483 C481 1.314 . S
N483 C482 1.279 . S
C484 C486 1.353 . S
C484 N487 1.314 . S
C484 H490 0.930 . S
C485 N487 1.279 . S
C485 C488 1.358 . S
C485 H491 0.930 . S
C486 C484 1.353 . S
C486 C489 1.348 . S
C486 H524 0.929 . S
N487 Li442 1.990 . S
N487 C484 1.314 . S
N487 C485 1.279 . S
C488 C485 1.358 . S
C488 C489 1.356 . S
C488 H525 0.930 . S
C489 C486 1.348 . S
C489 C488 1.356 . S
H490 C484 0.930 . S
H491 C485 0.930 . S
C492 N493 1.314 . S
C492 C494 1.353 . S
C492 H498 0.930 . S
N493 Li443 1.990 . S
N493 C492 1.314 . S
N493 C496 1.279 . S
C494 C492 1.353 . S
C494 C497 1.348 . S
C494 H526 0.929 . S
C495 C496 1.358 . S
C495 C497 1.356 . S
C495 H527 0.930 . S
C496 N493 1.279 . S
C496 C495 1.358 . S
C496 H499 0.930 . S
C497 C494 1.348 . S
C497 C495 1.356 . S
H498 C492 0.930 . S
H499 C496 0.930 . S
O500 Li440 1.956 . S
O500 Li441 1.970 . S
O500 Li442 1.961 . S
O500 C444 1.325 . S
O501 Li440 1.970 . S
O501 Li441 1.956 . S
O501 Li443 1.961 . S
O501 C450 1.325 . S
O502 Li440 1.961 . S
O502 Li442 1.956 . S
O502 Li443 1.970 . S
O502 C472 1.325 . S
O503 Li441 1.961 . S
O503 Li442 1.970 . S
O503 Li443 1.956 . S
O503 C478 1.325 . S
H504 C446 0.929 . S
H505 C447 0.930 . S
H506 C448 0.930 . S
H507 C449 0.930 . S
H508 C451 0.930 . S
H509 C453 0.929 . S
H510 C454 0.930 . S
H511 C455 0.930 . S
H512 C458 0.930 . S
H513 C461 0.929 . S
H514 C466 0.929 . S
H515 C467 0.930 . S
H516 C474 0.929 . S
H517 C475 0.930 . S
H518 C476 0.930 . S
H519 C477 0.930 . S
H520 C479 0.929 . S
H521 C480 0.930 . S
H522 C481 0.930 . S
H523 C482 0.930 . S
H524 C486 0.929 . S
H525 C488 0.930 . S
H526 C494 0.929 . S
H527 C495 0.930 . S
Li528 N545 1.990 . S
Li528 O588 1.956 . S
Li528 O589 1.970 . S
Li528 O590 1.961 . S
Li529 N553 1.990 . S
Li529 O588 1.970 . S
Li529 O589 1.956 . S
Li529 O591 1.961 . S
Li530 N575 1.990 . S
Li530 O588 1.961 . S
Li530 O590 1.956 . S
Li530 O591 1.970 . S
Li531 N581 1.990 . S
Li531 O589 1.961 . S
Li531 O590 1.970 . S
Li531 O591 1.956 . S
C532 C534 1.348 . S
C532 C535 1.356 . S
C532 O588 1.325 . S
N533 C536 1.314 . S
N533 C537 1.279 . S
C534 C532 1.348 . S
C534 C536 1.353 . S
C534 H592 0.929 . S
C535 C532 1.356 . S
C535 C537 1.358 . S
C535 H593 0.930 . S
C536 N533 1.314 . S
C536 C534 1.353 . S
C536 H594 0.930 . S
C537 N533 1.279 . S
C537 C535 1.358 . S
C537 H595 0.930 . S
C538 C541 1.348 . S
C538 C542 1.356 . S
C538 O589 1.325 . S
C539 N540 1.279 . S
C539 C542 1.358 1_554 S
C539 H596 0.930 . S
N540 C539 1.279 . S
N540 C543 1.314 . S
C541 C538 1.348 . S
C541 C543 1.353 1_556 S
C541 H597 0.929 . S
C542 C538 1.356 . S
C542 C539 1.358 1_556 S
C542 H598 0.930 . S
C543 N540 1.314 . S
C543 C541 1.353 1_554 S
C543 H599 0.930 . S
C544 N545 1.314 . S
C544 C549 1.353 . S
C544 H550 0.930 . S
N545 Li528 1.990 . S
N545 C544 1.314 . S
N545 C547 1.279 . S
C546 C547 1.358 . S
C546 C548 1.356 . S
C546 H600 0.930 . S
C547 N545 1.279 . S
C547 C546 1.358 . S
C547 H551 0.930 . S
C548 C546 1.356 . S
C548 C549 1.348 . S
C549 C544 1.353 . S
C549 C548 1.348 . S
C549 H601 0.929 . S
H550 C544 0.930 . S
H551 C547 0.930 . S
C552 N553 1.314 . S
C552 C554 1.353 1_556 S
C552 H558 0.930 . S
N553 Li529 1.990 . S
N553 C552 1.314 . S
N553 C556 1.279 1_556 S
C554 C552 1.353 1_554 S
C554 C557 1.348 . S
C554 H602 0.931 . S
C555 C556 1.358 . S
C555 C557 1.356 . S
C555 H603 0.930 . S
C556 N553 1.279 1_554 S
C556 C555 1.358 . S
C556 H559 0.930 . S
C557 C554 1.348 . S
C557 C555 1.356 . S
H558 C552 0.930 . S
H559 C556 0.930 . S
C560 C562 1.348 . S
C560 C563 1.356 . S
C560 O590 1.325 . S
N561 C564 1.314 . S
N561 C565 1.279 . S
C562 C560 1.348 . S
C562 C564 1.353 . S
C562 H604 0.929 . S
C563 C560 1.356 . S
C563 C565 1.358 . S
C563 H605 0.930 . S
C564 N561 1.314 . S
C564 C562 1.353 . S
C564 H606 0.930 . S
C565 N561 1.279 . S
C565 C563 1.358 . S
C565 H607 0.930 . S
C566 C567 1.348 . S
C566 C568 1.356 . S
C566 O591 1.325 . S
C567 C566 1.348 . S
C567 C569 1.353 . S
C567 H608 0.929 . S
C568 C566 1.356 . S
C568 C570 1.358 . S
C568 H609 0.930 . S
C569 C567 1.353 . S
C569 N571 1.314 . S
C569 H610 0.930 . S
C570 C568 1.358 . S
C570 N571 1.279 . S
C570 H611 0.930 . S
N571 C569 1.314 . S
N571 C570 1.279 . S
C572 C574 1.353 . S
C572 N575 1.314 . S
C572 H578 0.930 . S
C573 N575 1.279 . S
C573 C576 1.358 . S
C573 H579 0.930 . S
C574 C572 1.353 . S
C574 C577 1.348 . S
C574 H612 0.929 . S
N575 Li530 1.990 . S
N575 C572 1.314 . S
N575 C573 1.279 . S
C576 C573 1.358 . S
C576 C577 1.356 . S
C576 H613 0.930 . S
C577 C574 1.348 . S
C577 C576 1.356 . S
H578 C572 0.930 . S
H579 C573 0.930 . S
C580 N581 1.314 . S
C580 C582 1.353 . S
C580 H586 0.930 . S
N581 Li531 1.990 . S
N581 C580 1.314 . S
N581 C584 1.279 . S
C582 C580 1.353 . S
C582 C585 1.348 . S
C582 H614 0.929 . S
C583 C584 1.358 . S
C583 C585 1.356 . S
C583 H615 0.930 . S
C584 N581 1.279 . S
C584 C583 1.358 . S
C584 H587 0.930 . S
C585 C582 1.348 . S
C585 C583 1.356 . S
H586 C580 0.930 . S
H587 C584 0.930 . S
O588 Li528 1.956 . S
O588 Li529 1.970 . S
O588 Li530 1.961 . S
O588 C532 1.325 . S
O589 Li528 1.970 . S
O589 Li529 1.956 . S
O589 Li531 1.961 . S
O589 C538 1.325 . S
O590 Li528 1.961 . S
O590 Li530 1.956 . S
O590 Li531 1.970 . S
O590 C560 1.325 . S
O591 Li529 1.961 . S
O591 Li530 1.970 . S
O591 Li531 1.956 . S
O591 C566 1.325 . S
H592 C534 0.929 . S
H593 C535 0.930 . S
H594 C536 0.930 . S
H595 C537 0.930 . S
H596 C539 0.930 . S
H597 C541 0.929 . S
H598 C542 0.930 . S
H599 C543 0.930 . S
H600 C546 0.930 . S
H601 C549 0.929 . S
H602 C554 0.931 . S
H603 C555 0.930 . S
H604 C562 0.929 . S
H605 C563 0.930 . S
H606 C564 0.930 . S
H607 C565 0.930 . S
H608 C567 0.929 . S
H609 C568 0.930 . S
H610 C569 0.930 . S
H611 C570 0.930 . S
H612 C574 0.929 . S
H613 C576 0.930 . S
H614 C582 0.929 . S
H615 C583 0.930 . S
Li616 N633 1.990 . S
Li616 O676 1.956 . S
Li616 O677 1.970 . S
Li616 O678 1.961 . S
Li617 N641 1.990 . S
Li617 O676 1.970 . S
Li617 O677 1.956 . S
Li617 O679 1.961 1_554 S
Li618 N663 1.990 . S
Li618 O676 1.961 . S
Li618 O678 1.956 . S
Li618 O679 1.970 1_554 S
Li619 N669 1.990 . S
Li619 O677 1.961 1_556 S
Li619 O678 1.970 1_556 S
Li619 O679 1.956 . S
C620 C622 1.348 . S
C620 C623 1.356 . S
C620 O676 1.325 . S
N621 C624 1.314 . S
N621 C625 1.279 . S
C622 C620 1.348 . S
C622 C624 1.353 . S
C622 H680 0.929 . S
C623 C620 1.356 . S
C623 C625 1.358 . S
C623 H681 0.930 . S
C624 N621 1.314 . S
C624 C622 1.353 . S
C624 H682 0.930 . S
C625 N621 1.279 . S
C625 C623 1.358 . S
C625 H683 0.930 . S
C626 C629 1.348 . S
C626 C630 1.356 . S
C626 O677 1.325 . S
C627 N628 1.279 . S
C627 C630 1.358 . S
C627 H684 0.930 . S
N628 C627 1.279 . S
N628 C631 1.314 . S
C629 C626 1.348 . S
C629 C631 1.353 . S
C629 H685 0.929 . S
C630 C626 1.356 . S
C630 C627 1.358 . S
C630 H686 0.930 1_554 S
C631 N628 1.314 . S
C631 C629 1.353 . S
C631 H687 0.930 . S
C632 N633 1.314 . S
C632 C637 1.353 . S
C632 H638 0.930 . S
N633 Li616 1.990 . S
N633 C632 1.314 . S
N633 C635 1.279 . S
C634 C635 1.358 . S
C634 C636 1.356 . S
C634 H688 0.930 . S
C635 N633 1.279 . S
C635 C634 1.358 . S
C635 H639 0.930 . S
C636 C634 1.356 . S
C636 C637 1.348 . S
C637 C632 1.353 . S
C637 C636 1.348 . S
C637 H689 0.929 . S
H638 C632 0.930 . S
H639 C635 0.930 . S
C640 N641 1.314 . S
C640 C642 1.353 . S
C640 H646 0.930 . S
N641 Li617 1.990 . S
N641 C640 1.314 . S
N641 C644 1.279 . S
C642 C640 1.353 . S
C642 C645 1.348 . S
C642 H690 0.929 . S
C643 C644 1.358 . S
C643 C645 1.356 . S
C643 H691 0.930 . S
C644 N641 1.279 . S
C644 C643 1.358 . S
C644 H647 0.930 . S
C645 C642 1.348 . S
C645 C643 1.356 . S
H646 C640 0.930 . S
H647 C644 0.930 . S
C648 C650 1.348 1_554 S
C648 C651 1.356 . S
C648 O678 1.325 . S
N649 C652 1.314 . S
N649 C653 1.279 1_556 S
C650 C648 1.348 1_556 S
C650 C652 1.353 . S
C650 H692 0.929 . S
C651 C648 1.356 . S
C651 C653 1.358 . S
C651 H693 0.930 . S
C652 N649 1.314 . S
C652 C650 1.353 . S
C652 H694 0.930 . S
C653 N649 1.279 1_554 S
C653 C651 1.358 . S
C653 H695 0.930 . S
C654 C655 1.348 . S
C654 C656 1.356 . S
C654 O679 1.325 . S
C655 C654 1.348 . S
C655 C657 1.353 . S
C655 H696 0.929 . S
C656 C654 1.356 . S
C656 C658 1.358 . S
C656 H697 0.930 . S
C657 C655 1.353 . S
C657 N659 1.314 . S
C657 H698 0.930 . S
C658 C656 1.358 . S
C658 N659 1.279 . S
C658 H699 0.930 . S
N659 C657 1.314 . S
N659 C658 1.279 . S
C660 C662 1.353 . S
C660 N663 1.314 . S
C660 H666 0.930 . S
C661 N663 1.279 1_556 S
C661 C664 1.358 . S
C661 H667 0.930 . S
C662 C660 1.353 . S
C662 C665 1.348 1_554 S
C662 H700 0.929 . S
N663 Li618 1.990 . S
N663 C660 1.314 . S
N663 C661 1.279 1_554 S
C664 C661 1.358 . S
C664 C665 1.356 . S
C664 H701 0.930 . S
C665 C662 1.348 1_556 S
C665 C664 1.356 . S
H666 C660 0.930 . S
H667 C661 0.930 . S
C668 N669 1.314 . S
C668 C670 1.353 . S
C668 H674 0.930 . S
N669 Li619 1.990 . S
N669 C668 1.314 . S
N669 C672 1.279 . S
C670 C668 1.353 . S
C670 C673 1.348 . S
C670 H702 0.929 . S
C671 C672 1.358 . S
C671 C673 1.356 . S
C671 H703 0.930 . S
C672 N669 1.279 . S
C672 C671 1.358 . S
C672 H675 0.930 . S
C673 C670 1.348 . S
C673 C671 1.356 . S
H674 C668 0.930 . S
H675 C672 0.930 . S
O676 Li616 1.956 . S
O676 Li617 1.970 . S
O676 Li618 1.961 . S
O676 C620 1.325 . S
O677 Li616 1.970 . S
O677 Li617 1.956 . S
O677 Li619 1.961 1_554 S
O677 C626 1.325 . S
O678 Li616 1.961 . S
O678 Li618 1.956 . S
O678 Li619 1.970 1_554 S
O678 C648 1.325 . S
O679 Li617 1.961 1_556 S
O679 Li618 1.970 1_556 S
O679 Li619 1.956 . S
O679 C654 1.325 . S
H680 C622 0.929 . S
H681 C623 0.930 . S
H682 C624 0.930 . S
H683 C625 0.930 . S
H684 C627 0.930 . S
H685 C629 0.929 . S
H686 C630 0.930 1_556 S
H687 C631 0.930 . S
H688 C634 0.930 . S
H689 C637 0.929 . S
H690 C642 0.929 . S
H691 C643 0.930 . S
H692 C650 0.929 . S
H693 C651 0.930 . S
H694 C652 0.930 . S
H695 C653 0.930 . S
H696 C655 0.929 . S
H697 C656 0.930 . S
H698 C657 0.930 . S
H699 C658 0.930 . S
H700 C662 0.929 . S
H701 C664 0.930 . S
H702 C670 0.929 . S
H703 C671 0.930 . S
Li704 N721 1.990 . S
Li704 O764 1.956 . S
Li704 O765 1.970 . S
Li704 O766 1.961 . S
Li705 N729 1.990 . S
Li705 O764 1.970 . S
Li705 O765 1.956 . S
Li705 O767 1.961 . S
Li706 N751 1.990 . S
Li706 O764 1.961 . S
Li706 O766 1.956 . S
Li706 O767 1.970 . S
Li707 N757 1.990 . S
Li707 O765 1.961 . S
Li707 O766 1.970 . S
Li707 O767 1.956 . S
C708 C710 1.348 . S
C708 C711 1.356 . S
C708 O764 1.325 . S
N709 C712 1.314 . S
N709 C713 1.279 . S
C710 C708 1.348 . S
C710 C712 1.353 . S
C710 H768 0.929 . S
C711 C708 1.356 . S
C711 C713 1.358 . S
C711 H769 0.930 . S
C712 N709 1.314 . S
C712 C710 1.353 . S
C712 H770 0.930 . S
C713 N709 1.279 . S
C713 C711 1.358 . S
C713 H771 0.930 . S
C714 C717 1.348 . S
C714 C718 1.356 . S
C714 O765 1.325 . S
C715 N716 1.279 . S
C715 C718 1.358 . S
C715 H772 0.930 . S
N716 C715 1.279 . S
N716 C719 1.314 . S
C717 C714 1.348 . S
C717 C719 1.353 . S
C717 H773 0.929 . S
C718 C714 1.356 . S
C718 C715 1.358 . S
C718 H774 0.930 . S
C719 N716 1.314 . S
C719 C717 1.353 . S
C719 H775 0.930 . S
C720 N721 1.314 . S
C720 C725 1.353 . S
C720 H726 0.930 . S
N721 Li704 1.990 . S
N721 C720 1.314 . S
N721 C723 1.279 . S
C722 C723 1.358 . S
C722 C724 1.356 . S
C722 H776 0.930 . S
C723 N721 1.279 . S
C723 C722 1.358 . S
C723 H727 0.930 . S
C724 C722 1.356 . S
C724 C725 1.348 . S
C725 C720 1.353 . S
C725 C724 1.348 . S
C725 H777 0.929 . S
H726 C720 0.930 . S
H727 C723 0.930 . S
C728 N729 1.314 . S
C728 C730 1.353 . S
C728 H734 0.930 . S
N729 Li705 1.990 . S
N729 C728 1.314 . S
N729 C732 1.279 . S
C730 C728 1.353 . S
C730 C733 1.348 . S
C730 H778 0.929 . S
C731 C732 1.358 . S
C731 C733 1.356 . S
C731 H779 0.930 . S
C732 N729 1.279 . S
C732 C731 1.358 . S
C732 H735 0.930 . S
C733 C730 1.348 . S
C733 C731 1.356 . S
H734 C728 0.930 . S
H735 C732 0.930 . S
C736 C738 1.348 . S
C736 C739 1.356 . S
C736 O766 1.325 . S
N737 C740 1.314 . S
N737 C741 1.279 . S
C738 C736 1.348 . S
C738 C740 1.353 . S
C738 H780 0.929 . S
C739 C736 1.356 . S
C739 C741 1.358 . S
C739 H781 0.930 . S
C740 N737 1.314 . S
C740 C738 1.353 . S
C740 H782 0.930 . S
C741 N737 1.279 . S
C741 C739 1.358 . S
C741 H783 0.930 . S
C742 C743 1.348 . S
C742 C744 1.356 . S
C742 O767 1.325 . S
C743 C742 1.348 . S
C743 C745 1.353 . S
C743 H784 0.929 . S
C744 C742 1.356 . S
C744 C746 1.358 . S
C744 H785 0.930 . S
C745 C743 1.353 . S
C745 N747 1.314 . S
C745 H786 0.930 . S
C746 C744 1.358 . S
C746 N747 1.279 . S
C746 H787 0.930 . S
N747 C745 1.314 . S
N747 C746 1.279 . S
C748 C750 1.353 . S
C748 N751 1.314 . S
C748 H754 0.930 . S
C749 N751 1.279 . S
C749 C752 1.358 . S
C749 H755 0.930 . S
C750 C748 1.353 . S
C750 C753 1.348 . S
C750 H788 0.929 . S
N751 Li706 1.990 . S
N751 C748 1.314 . S
N751 C749 1.279 . S
C752 C749 1.358 . S
C752 C753 1.356 . S
C752 H789 0.930 . S
C753 C750 1.348 . S
C753 C752 1.356 . S
H754 C748 0.930 . S
H755 C749 0.930 . S
C756 N757 1.314 . S
C756 C758 1.353 . S
C756 H762 0.930 . S
N757 Li707 1.990 . S
N757 C756 1.314 . S
N757 C760 1.279 . S
C758 C756 1.353 . S
C758 C761 1.348 . S
C758 H790 0.929 . S
C759 C760 1.358 . S
C759 C761 1.356 . S
C759 H791 0.930 1_554 S
C760 N757 1.279 . S
C760 C759 1.358 . S
C760 H763 0.930 . S
C761 C758 1.348 . S
C761 C759 1.356 . S
H762 C756 0.930 . S
H763 C760 0.930 . S
O764 Li704 1.956 . S
O764 Li705 1.970 . S
O764 Li706 1.961 . S
O764 C708 1.325 . S
O765 Li704 1.970 . S
O765 Li705 1.956 . S
O765 Li707 1.961 . S
O765 C714 1.325 . S
O766 Li704 1.961 . S
O766 Li706 1.956 . S
O766 Li707 1.970 . S
O766 C736 1.325 . S
O767 Li705 1.961 . S
O767 Li706 1.970 . S
O767 Li707 1.956 . S
O767 C742 1.325 . S
H768 C710 0.929 . S
H769 C711 0.930 . S
H770 C712 0.930 . S
H771 C713 0.930 . S
H772 C715 0.930 . S
H773 C717 0.929 . S
H774 C718 0.930 . S
H775 C719 0.930 . S
H776 C722 0.930 . S
H777 C725 0.929 . S
H778 C730 0.929 . S
H779 C731 0.930 . S
H780 C738 0.929 . S
H781 C739 0.930 . S
H782 C740 0.930 . S
H783 C741 0.930 . S
H784 C743 0.929 . S
H785 C744 0.930 . S
H786 C745 0.930 . S
H787 C746 0.930 . S
H788 C750 0.929 . S
H789 C752 0.930 . S
H790 C758 0.929 . S
H791 C759 0.930 1_556 S
Li792 N809 1.990 . S
Li792 O852 1.956 . S
Li792 O853 1.970 . S
Li792 O854 1.961 . S
Li793 N817 1.990 . S
Li793 O852 1.970 . S
Li793 O853 1.956 . S
Li793 O855 1.961 . S
Li794 N839 1.990 . S
Li794 O852 1.961 . S
Li794 O854 1.956 . S
Li794 O855 1.970 . S
Li795 N845 1.990 . S
Li795 O853 1.961 . S
Li795 O854 1.970 . S
Li795 O855 1.956 . S
C796 C798 1.348 . S
C796 C799 1.356 . S
C796 O852 1.325 . S
N797 C800 1.314 . S
N797 C801 1.279 . S
C798 C796 1.348 . S
C798 C800 1.353 . S
C798 H856 0.929 . S
C799 C796 1.356 . S
C799 C801 1.358 . S
C799 H857 0.930 . S
C800 N797 1.314 . S
C800 C798 1.353 . S
C800 H858 0.930 . S
C801 N797 1.279 . S
C801 C799 1.358 . S
C801 H859 0.930 . S
C802 C805 1.348 . S
C802 C806 1.356 . S
C802 O853 1.325 . S
C803 N804 1.279 . S
C803 C806 1.358 . S
C803 H860 0.930 . S
N804 C803 1.279 . S
N804 C807 1.314 . S
C805 C802 1.348 . S
C805 C807 1.353 . S
C805 H861 0.929 . S
C806 C802 1.356 . S
C806 C803 1.358 . S
C806 H862 0.930 . S
C807 N804 1.314 . S
C807 C805 1.353 . S
C807 H863 0.930 . S
C808 N809 1.314 . S
C808 C813 1.353 . S
C808 H814 0.930 . S
N809 Li792 1.990 . S
N809 C808 1.314 . S
N809 C811 1.279 . S
C810 C811 1.358 . S
C810 C812 1.356 . S
C810 H864 0.930 . S
C811 N809 1.279 . S
C811 C810 1.358 . S
C811 H815 0.930 . S
C812 C810 1.356 . S
C812 C813 1.348 . S
C813 C808 1.353 . S
C813 C812 1.348 . S
C813 H865 0.929 . S
H814 C808 0.930 . S
H815 C811 0.930 . S
C816 N817 1.314 . S
C816 C818 1.353 . S
C816 H822 0.930 . S
N817 Li793 1.990 . S
N817 C816 1.314 . S
N817 C820 1.279 . S
C818 C816 1.353 . S
C818 C821 1.348 . S
C818 H866 0.929 . S
C819 C820 1.358 . S
C819 C821 1.356 . S
C819 H867 0.930 . S
C820 N817 1.279 . S
C820 C819 1.358 . S
C820 H823 0.930 . S
C821 C818 1.348 . S
C821 C819 1.356 . S
H822 C816 0.930 . S
H823 C820 0.930 . S
C824 C826 1.348 . S
C824 C827 1.356 . S
C824 O854 1.325 . S
N825 C828 1.314 . S
N825 C829 1.279 . S
C826 C824 1.348 . S
C826 C828 1.353 . S
C826 H868 0.929 . S
C827 C824 1.356 . S
C827 C829 1.358 . S
C827 H869 0.930 . S
C828 N825 1.314 . S
C828 C826 1.353 . S
C828 H870 0.930 . S
C829 N825 1.279 . S
C829 C827 1.358 . S
C829 H871 0.930 . S
C830 C831 1.348 . S
C830 C832 1.356 . S
C830 O855 1.325 . S
C831 C830 1.348 . S
C831 C833 1.353 . S
C831 H872 0.929 . S
C832 C830 1.356 . S
C832 C834 1.358 . S
C832 H873 0.930 . S
C833 C831 1.353 . S
C833 N835 1.314 . S
C833 H874 0.930 . S
C834 C832 1.358 . S
C834 N835 1.279 . S
C834 H875 0.930 . S
N835 C833 1.314 . S
N835 C834 1.279 . S
C836 C838 1.353 . S
C836 N839 1.314 . S
C836 H842 0.930 . S
C837 N839 1.279 . S
C837 C840 1.358 . S
C837 H843 0.930 . S
C838 C836 1.353 . S
C838 C841 1.348 . S
C838 H876 0.929 . S
N839 Li794 1.990 . S
N839 C836 1.314 . S
N839 C837 1.279 . S
C840 C837 1.358 . S
C840 C841 1.356 . S
C840 H877 0.930 . S
C841 C838 1.348 . S
C841 C840 1.356 . S
H842 C836 0.930 . S
H843 C837 0.930 . S
C844 N845 1.314 . S
C844 C846 1.353 . S
C844 H850 0.930 . S
N845 Li795 1.990 . S
N845 C844 1.314 . S
N845 C848 1.279 . S
C846 C844 1.353 . S
C846 C849 1.348 . S
C846 H878 0.929 . S
C847 C848 1.358 . S
C847 C849 1.356 . S
C847 H879 0.930 . S
C848 N845 1.279 . S
C848 C847 1.358 . S
C848 H851 0.930 . S
C849 C846 1.348 . S
C849 C847 1.356 . S
H850 C844 0.930 . S
H851 C848 0.930 . S
O852 Li792 1.956 . S
O852 Li793 1.970 . S
O852 Li794 1.961 . S
O852 C796 1.325 . S
O853 Li792 1.970 . S
O853 Li793 1.956 . S
O853 Li795 1.961 . S
O853 C802 1.325 . S
O854 Li792 1.961 . S
O854 Li794 1.956 . S
O854 Li795 1.970 . S
O854 C824 1.325 . S
O855 Li793 1.961 . S
O855 Li794 1.970 . S
O855 Li795 1.956 . S
O855 C830 1.325 . S
H856 C798 0.929 . S
H857 C799 0.930 . S
H858 C800 0.930 . S
H859 C801 0.930 . S
H860 C803 0.930 . S
H861 C805 0.929 . S
H862 C806 0.930 . S
H863 C807 0.930 . S
H864 C810 0.930 . S
H865 C813 0.929 . S
H866 C818 0.929 . S
H867 C819 0.930 . S
H868 C826 0.929 . S
H869 C827 0.930 . S
H870 C828 0.930 . S
H871 C829 0.930 . S
H872 C831 0.929 . S
H873 C832 0.930 . S
H874 C833 0.930 . S
H875 C834 0.930 . S
H876 C838 0.929 . S
H877 C840 0.930 . S
H878 C846 0.929 . S
H879 C847 0.930 . S
Li880 N897 1.990 . S
Li880 O940 1.956 . S
Li880 O941 1.970 . S
Li880 O942 1.961 . S
Li881 N905 1.990 . S
Li881 O940 1.970 . S
Li881 O941 1.956 . S
Li881 O943 1.961 . S
Li882 N927 1.990 . S
Li882 O940 1.961 . S
Li882 O942 1.956 . S
Li882 O943 1.970 . S
Li883 N933 1.990 . S
Li883 O941 1.961 . S
Li883 O942 1.970 . S
Li883 O943 1.956 . S
C884 C886 1.348 . S
C884 C887 1.356 . S
C884 O940 1.325 . S
N885 C888 1.314 . S
N885 C889 1.279 . S
C886 C884 1.348 . S
C886 C888 1.353 . S
C886 H944 0.929 . S
C887 C884 1.356 . S
C887 C889 1.358 . S
C887 H945 0.930 . S
C888 N885 1.314 . S
C888 C886 1.353 . S
C888 H946 0.930 . S
C889 N885 1.279 . S
C889 C887 1.358 . S
C889 H947 0.930 . S
C890 C893 1.348 . S
C890 C894 1.356 . S
C890 O941 1.325 . S
C891 N892 1.279 . S
C891 C894 1.358 . S
C891 H948 0.930 . S
N892 C891 1.279 . S
N892 C895 1.314 . S
C893 C890 1.348 . S
C893 C895 1.353 . S
C893 H949 0.929 . S
C894 C890 1.356 . S
C894 C891 1.358 . S
C894 H950 0.930 . S
C895 N892 1.314 . S
C895 C893 1.353 . S
C895 H951 0.930 . S
C896 N897 1.314 . S
C896 C901 1.353 . S
C896 H902 0.930 . S
N897 Li880 1.990 . S
N897 C896 1.314 . S
N897 C899 1.279 . S
C898 C899 1.358 . S
C898 C900 1.356 . S
C898 H952 0.930 . S
C899 N897 1.279 . S
C899 C898 1.358 . S
C899 H903 0.930 . S
C900 C898 1.356 . S
C900 C901 1.348 . S
C901 C896 1.353 . S
C901 C900 1.348 . S
C901 H953 0.929 . S
H902 C896 0.930 . S
H903 C899 0.930 . S
C904 N905 1.314 . S
C904 C906 1.353 . S
C904 H910 0.930 . S
N905 Li881 1.990 . S
N905 C904 1.314 . S
N905 C908 1.279 . S
C906 C904 1.353 . S
C906 C909 1.348 . S
C906 H954 0.929 . S
C907 C908 1.358 . S
C907 C909 1.356 . S
C907 H955 0.930 . S
C908 N905 1.279 . S
C908 C907 1.358 . S
C908 H911 0.930 . S
C909 C906 1.348 . S
C909 C907 1.356 . S
H910 C904 0.930 . S
H911 C908 0.930 . S
C912 C914 1.348 . S
C912 C915 1.356 . S
C912 O942 1.325 . S
N913 C916 1.314 . S
N913 C917 1.279 . S
C914 C912 1.348 . S
C914 C916 1.353 . S
C914 H956 0.929 . S
C915 C912 1.356 . S
C915 C917 1.358 . S
C915 H957 0.930 . S
C916 N913 1.314 . S
C916 C914 1.353 . S
C916 H958 0.930 . S
C917 N913 1.279 . S
C917 C915 1.358 . S
C917 H959 0.930 . S
C918 C919 1.348 . S
C918 C920 1.356 . S
C918 O943 1.325 . S
C919 C918 1.348 . S
C919 C921 1.353 . S
C919 H960 0.929 . S
C920 C918 1.356 . S
C920 C922 1.358 . S
C920 H961 0.930 . S
C921 C919 1.353 . S
C921 N923 1.314 . S
C921 H962 0.930 . S
C922 C920 1.358 . S
C922 N923 1.279 . S
C922 H963 0.930 . S
N923 C921 1.314 . S
N923 C922 1.279 . S
C924 C926 1.353 . S
C924 N927 1.314 . S
C924 H930 0.930 . S
C925 N927 1.279 . S
C925 C928 1.358 . S
C925 H931 0.930 . S
C926 C924 1.353 . S
C926 C929 1.348 . S
C926 H964 0.929 . S
N927 Li882 1.990 . S
N927 C924 1.314 . S
N927 C925 1.279 . S
C928 C925 1.358 . S
C928 C929 1.356 . S
C928 H965 0.930 . S
C929 C926 1.348 . S
C929 C928 1.356 . S
H930 C924 0.930 . S
H931 C925 0.930 . S
C932 N933 1.314 . S
C932 C934 1.353 . S
C932 H938 0.930 . S
N933 Li883 1.990 . S
N933 C932 1.314 . S
N933 C936 1.279 . S
C934 C932 1.353 . S
C934 C937 1.348 . S
C934 H966 0.929 . S
C935 C936 1.358 . S
C935 C937 1.356 . S
C935 H967 0.930 . S
C936 N933 1.279 . S
C936 C935 1.358 . S
C936 H939 0.930 . S
C937 C934 1.348 . S
C937 C935 1.356 . S
H938 C932 0.930 . S
H939 C936 0.930 . S
O940 Li880 1.956 . S
O940 Li881 1.970 . S
O940 Li882 1.961 . S
O940 C884 1.325 . S
O941 Li880 1.970 . S
O941 Li881 1.956 . S
O941 Li883 1.961 . S
O941 C890 1.325 . S
O942 Li880 1.961 . S
O942 Li882 1.956 . S
O942 Li883 1.970 . S
O942 C912 1.325 . S
O943 Li881 1.961 . S
O943 Li882 1.970 . S
O943 Li883 1.956 . S
O943 C918 1.325 . S
H944 C886 0.929 . S
H945 C887 0.930 . S
H946 C888 0.930 . S
H947 C889 0.930 . S
H948 C891 0.930 . S
H949 C893 0.929 . S
H950 C894 0.930 . S
H951 C895 0.930 . S
H952 C898 0.930 . S
H953 C901 0.929 . S
H954 C906 0.929 . S
H955 C907 0.930 . S
H956 C914 0.929 . S
H957 C915 0.930 . S
H958 C916 0.930 . S
H959 C917 0.930 . S
H960 C919 0.929 . S
H961 C920 0.930 . S
H962 C921 0.930 . S
H963 C922 0.930 . S
H964 C926 0.929 . S
H965 C928 0.930 . S
H966 C934 0.929 . S
H967 C935 0.930 . S
Li968 N985 1.990 . S
Li968 O1028 1.956 . S
Li968 O1029 1.970 . S
Li968 O1030 1.961 . S
Li969 N993 1.990 . S
Li969 O1028 1.970 . S
Li969 O1029 1.956 . S
Li969 O1031 1.961 . S
Li970 N1015 1.990 . S
Li970 O1028 1.961 . S
Li970 O1030 1.956 . S
Li970 O1031 1.970 . S
Li971 N1021 1.990 . S
Li971 O1029 1.961 . S
Li971 O1030 1.970 . S
Li971 O1031 1.956 . S
C972 C974 1.348 . S
C972 C975 1.356 . S
C972 O1028 1.325 . S
N973 C976 1.314 . S
N973 C977 1.279 . S
C974 C972 1.348 . S
C974 C976 1.353 . S
C974 H1032 0.929 . S
C975 C972 1.356 . S
C975 C977 1.358 . S
C975 H1033 0.930 . S
C976 N973 1.314 . S
C976 C974 1.353 . S
C976 H1034 0.930 . S
C977 N973 1.279 . S
C977 C975 1.358 . S
C977 H1035 0.930 . S
C978 C981 1.348 . S
C978 C982 1.356 . S
C978 O1029 1.325 . S
C979 N980 1.279 . S
C979 C982 1.358 . S
C979 H1036 0.930 . S
N980 C979 1.279 . S
N980 C983 1.314 . S
C981 C978 1.348 . S
C981 C983 1.353 . S
C981 H1037 0.929 . S
C982 C978 1.356 . S
C982 C979 1.358 . S
C982 H1038 0.930 . S
C983 N980 1.314 . S
C983 C981 1.353 . S
C983 H1039 0.930 . S
C984 N985 1.314 . S
C984 C989 1.353 . S
C984 H990 0.930 . S
N985 Li968 1.990 . S
N985 C984 1.314 . S
N985 C987 1.279 . S
C986 C987 1.358 . S
C986 C988 1.356 . S
C986 H1040 0.930 . S
C987 N985 1.279 . S
C987 C986 1.358 . S
C987 H991 0.930 . S
C988 C986 1.356 . S
C988 C989 1.348 . S
C989 C984 1.353 . S
C989 C988 1.348 . S
C989 H1041 0.929 . S
H990 C984 0.930 . S
H991 C987 0.930 . S
C992 N993 1.314 . S
C992 C994 1.353 . S
C992 H998 0.930 . S
N993 Li969 1.990 . S
N993 C992 1.314 . S
N993 C996 1.279 . S
C994 C992 1.353 . S
C994 C997 1.348 . S
C994 H1042 0.929 . S
C995 C996 1.358 . S
C995 C997 1.356 . S
C995 H1043 0.930 . S
C996 N993 1.279 . S
C996 C995 1.358 . S
C996 H999 0.930 . S
C997 C994 1.348 . S
C997 C995 1.356 . S
H998 C992 0.930 . S
H999 C996 0.930 . S
C1000 C1002 1.348 . S
C1000 C1003 1.356 . S
C1000 O1030 1.325 . S
N1001 C1004 1.314 . S
N1001 C1005 1.279 . S
C1002 C1000 1.348 . S
C1002 C1004 1.353 . S
C1002 H1044 0.929 . S
C1003 C1000 1.356 . S
C1003 C1005 1.358 . S
C1003 H1045 0.930 . S
C1004 N1001 1.314 . S
C1004 C1002 1.353 . S
C1004 H1046 0.930 . S
C1005 N1001 1.279 . S
C1005 C1003 1.358 . S
C1005 H1047 0.930 . S
C1006 C1007 1.348 . S
C1006 C1008 1.356 . S
C1006 O1031 1.325 . S
C1007 C1006 1.348 . S
C1007 C1009 1.353 . S
C1007 H1048 0.929 . S
C1008 C1006 1.356 . S
C1008 C1010 1.358 . S
C1008 H1049 0.930 . S
C1009 C1007 1.353 . S
C1009 N1011 1.314 . S
C1009 H1050 0.930 . S
C1010 C1008 1.358 . S
C1010 N1011 1.279 . S
C1010 H1051 0.930 . S
N1011 C1009 1.314 . S
N1011 C1010 1.279 . S
C1012 C1014 1.353 . S
C1012 N1015 1.314 . S
C1012 H1018 0.930 . S
C1013 N1015 1.279 . S
C1013 C1016 1.358 . S
C1013 H1019 0.930 . S
C1014 C1012 1.353 . S
C1014 C1017 1.348 . S
C1014 H1052 0.929 . S
N1015 Li970 1.990 . S
N1015 C1012 1.314 . S
N1015 C1013 1.279 . S
C1016 C1013 1.358 . S
C1016 C1017 1.356 . S
C1016 H1053 0.930 . S
C1017 C1014 1.348 . S
C1017 C1016 1.356 . S
H1018 C1012 0.930 . S
H1019 C1013 0.930 . S
C1020 N1021 1.314 . S
C1020 C1022 1.353 . S
C1020 H1026 0.930 . S
N1021 Li971 1.990 . S
N1021 C1020 1.314 . S
N1021 C1024 1.279 . S
C1022 C1020 1.353 . S
C1022 C1025 1.348 . S
C1022 H1054 0.929 . S
C1023 C1024 1.358 . S
C1023 C1025 1.356 . S
C1023 H1055 0.930 . S
C1024 N1021 1.279 . S
C1024 C1023 1.358 . S
C1024 H1027 0.930 . S
C1025 C1022 1.348 . S
C1025 C1023 1.356 . S
H1026 C1020 0.930 . S
H1027 C1024 0.930 . S
O1028 Li968 1.956 . S
O1028 Li969 1.970 . S
O1028 Li970 1.961 . S
O1028 C972 1.325 . S
O1029 Li968 1.970 . S
O1029 Li969 1.956 . S
O1029 Li971 1.961 . S
O1029 C978 1.325 . S
O1030 Li968 1.961 . S
O1030 Li970 1.956 . S
O1030 Li971 1.970 . S
O1030 C1000 1.325 . S
O1031 Li969 1.961 . S
O1031 Li970 1.970 . S
O1031 Li971 1.956 . S
O1031 C1006 1.325 . S
H1032 C974 0.929 . S
H1033 C975 0.930 . S
H1034 C976 0.930 . S
H1035 C977 0.930 . S
H1036 C979 0.930 . S
H1037 C981 0.929 . S
H1038 C982 0.930 . S
H1039 C983 0.930 . S
H1040 C986 0.930 . S
H1041 C989 0.929 . S
H1042 C994 0.929 . S
H1043 C995 0.930 . S
H1044 C1002 0.929 . S
H1045 C1003 0.930 . S
H1046 C1004 0.930 . S
H1047 C1005 0.930 . S
H1048 C1007 0.929 . S
H1049 C1008 0.930 . S
H1050 C1009 0.930 . S
H1051 C1010 0.930 . S
H1052 C1014 0.929 . S
H1053 C1016 0.930 . S
H1054 C1022 0.929 . S
H1055 C1023 0.930 . S
C1056 C1057 1.369 . S
C1056 C1058 1.419 . S
C1056 H1060 0.930 . S
C1057 C1056 1.369 . S
C1057 C1066 1.429 . S
C1058 C1056 1.419 . S
C1058 C1059 1.363 . S
C1058 H1061 0.929 . S
C1059 C1058 1.363 . S
C1059 C1065 1.428 . S
H1060 C1056 0.930 . S
H1061 C1058 0.929 . S
S1062 N1063 1.613 . S
S1062 N1064 1.610 . S
N1063 S1062 1.613 . S
N1063 C1066 1.350 . S
N1064 S1062 1.610 . S
N1064 C1065 1.351 . S
C1065 C1059 1.428 . S
C1065 N1064 1.351 . S
C1065 C1066 1.434 . S
C1066 C1057 1.429 . S
C1066 N1063 1.350 . S
C1066 C1065 1.434 . S
C1067 C1068 1.369 . S
C1067 C1069 1.419 . S
C1067 H1071 0.930 . S
C1068 C1067 1.369 . S
C1068 C1077 1.429 . S
C1069 C1067 1.419 . S
C1069 C1070 1.363 . S
C1069 H1072 0.929 . S
C1070 C1069 1.363 . S
C1070 C1076 1.428 . S
H1071 C1067 0.930 . S
H1072 C1069 0.929 . S
S1073 N1074 1.613 . S
S1073 N1075 1.610 . S
N1074 S1073 1.613 . S
N1074 C1077 1.350 . S
N1075 S1073 1.610 . S
N1075 C1076 1.351 . S
C1076 C1070 1.428 . S
C1076 N1075 1.351 . S
C1076 C1077 1.434 . S
C1077 C1068 1.429 . S
C1077 N1074 1.350 . S
C1077 C1076 1.434 . S
C1078 C1079 1.369 . S
C1078 C1080 1.419 . S
C1078 H1082 0.930 . S
C1079 C1078 1.369 . S
C1079 C1088 1.429 . S
C1080 C1078 1.419 . S
C1080 C1081 1.363 . S
C1080 H1083 0.929 . S
C1081 C1080 1.363 . S
C1081 C1087 1.428 . S
H1082 C1078 0.930 . S
H1083 C1080 0.929 . S
S1084 N1085 1.613 . S
S1084 N1086 1.610 . S
N1085 S1084 1.613 . S
N1085 C1088 1.350 . S
N1086 S1084 1.610 . S
N1086 C1087 1.351 . S
C1087 C1081 1.428 . S
C1087 N1086 1.351 . S
C1087 C1088 1.434 . S
C1088 C1079 1.429 . S
C1088 N1085 1.350 . S
C1088 C1087 1.434 . S
C1089 C1090 1.369 . S
C1089 C1091 1.419 . S
C1089 H1093 0.930 . S
C1090 C1089 1.369 . S
C1090 C1099 1.429 . S
C1091 C1089 1.419 . S
C1091 C1092 1.363 . S
C1091 H1094 0.929 . S
C1092 C1091 1.363 . S
C1092 C1098 1.428 . S
H1093 C1089 0.930 . S
H1094 C1091 0.929 . S
S1095 N1096 1.613 . S
S1095 N1097 1.610 . S
N1096 S1095 1.613 . S
N1096 C1099 1.350 . S
N1097 S1095 1.610 . S
N1097 C1098 1.351 . S
C1098 C1092 1.428 . S
C1098 N1097 1.351 . S
C1098 C1099 1.434 . S
C1099 C1090 1.429 . S
C1099 N1096 1.350 . S
C1099 C1098 1.434 . S
C1100 C1101 1.369 . S
C1100 C1102 1.419 . S
C1100 H1104 0.930 . S
C1101 C1100 1.369 . S
C1101 C1110 1.429 . S
C1102 C1100 1.419 . S
C1102 C1103 1.363 . S
C1102 H1105 0.929 . S
C1103 C1102 1.363 . S
C1103 C1109 1.428 . S
H1104 C1100 0.930 . S
H1105 C1102 0.929 . S
S1106 N1107 1.613 . S
S1106 N1108 1.610 . S
N1107 S1106 1.613 . S
N1107 C1110 1.350 . S
N1108 S1106 1.610 . S
N1108 C1109 1.351 . S
C1109 C1103 1.428 . S
C1109 N1108 1.351 . S
C1109 C1110 1.434 . S
C1110 C1101 1.429 . S
C1110 N1107 1.350 . S
C1110 C1109 1.434 . S
C1111 C1112 1.369 . S
C1111 C1113 1.419 . S
C1111 H1115 0.930 . S
C1112 C1111 1.369 . S
C1112 C1121 1.429 . S
C1113 C1111 1.419 . S
C1113 C1114 1.363 . S
C1113 H1116 0.929 . S
C1114 C1113 1.363 . S
C1114 C1120 1.428 . S
H1115 C1111 0.930 . S
H1116 C1113 0.929 . S
S1117 N1118 1.613 . S
S1117 N1119 1.610 . S
N1118 S1117 1.613 . S
N1118 C1121 1.350 . S
N1119 S1117 1.610 . S
N1119 C1120 1.351 . S
C1120 C1114 1.428 . S
C1120 N1119 1.351 . S
C1120 C1121 1.434 . S
C1121 C1112 1.429 . S
C1121 N1118 1.350 . S
C1121 C1120 1.434 . S
C1122 C1123 1.369 . S
C1122 C1124 1.419 . S
C1122 H1126 0.930 . S
C1123 C1122 1.369 . S
C1123 C1132 1.429 . S
C1124 C1122 1.419 . S
C1124 C1125 1.363 . S
C1124 H1127 0.929 . S
C1125 C1124 1.363 . S
C1125 C1131 1.428 . S
H1126 C1122 0.930 . S
H1127 C1124 0.929 . S
S1128 N1129 1.613 . S
S1128 N1130 1.610 . S
N1129 S1128 1.613 . S
N1129 C1132 1.350 . S
N1130 S1128 1.610 . S
N1130 C1131 1.351 . S
C1131 C1125 1.428 . S
C1131 N1130 1.351 . S
C1131 C1132 1.434 . S
C1132 C1123 1.429 . S
C1132 N1129 1.350 . S
C1132 C1131 1.434 . S
C1133 C1134 1.369 . S
C1133 C1135 1.419 . S
C1133 H1137 0.930 . S
C1134 C1133 1.369 . S
C1134 C1143 1.429 . S
C1135 C1133 1.419 . S
C1135 C1136 1.363 . S
C1135 H1138 0.929 . S
C1136 C1135 1.363 . S
C1136 C1142 1.428 . S
H1137 C1133 0.930 . S
H1138 C1135 0.929 . S
S1139 N1140 1.613 . S
S1139 N1141 1.610 . S
N1140 S1139 1.613 . S
N1140 C1143 1.350 . S
N1141 S1139 1.610 . S
N1141 C1142 1.351 . S
C1142 C1136 1.428 . S
C1142 N1141 1.351 . S
C1142 C1143 1.434 . S
C1143 C1134 1.429 . S
C1143 N1140 1.350 . S
C1143 C1142 1.434 . S
C1144 C1145 1.369 . S
C1144 C1146 1.419 . S
C1144 H1148 0.930 . S
C1145 C1144 1.369 . S
C1145 C1154 1.429 . S
C1146 C1144 1.419 . S
C1146 C1147 1.363 . S
C1146 H1149 0.929 . S
C1147 C1146 1.363 . S
C1147 C1153 1.428 . S
H1148 C1144 0.930 . S
H1149 C1146 0.929 . S
S1150 N1151 1.613 . S
S1150 N1152 1.610 . S
N1151 S1150 1.613 . S
N1151 C1154 1.350 . S
N1152 S1150 1.610 . S
N1152 C1153 1.351 . S
C1153 C1147 1.428 . S
C1153 N1152 1.351 . S
C1153 C1154 1.434 . S
C1154 C1145 1.429 . S
C1154 N1151 1.350 . S
C1154 C1153 1.434 . S
C1155 C1156 1.369 . S
C1155 C1157 1.419 . S
C1155 H1159 0.930 . S
C1156 C1155 1.369 . S
C1156 C1165 1.429 . S
C1157 C1155 1.419 . S
C1157 C1158 1.363 . S
C1157 H1160 0.929 . S
C1158 C1157 1.363 . S
C1158 C1164 1.428 . S
H1159 C1155 0.930 . S
H1160 C1157 0.929 . S
S1161 N1162 1.613 . S
S1161 N1163 1.610 . S
N1162 S1161 1.613 . S
N1162 C1165 1.350 . S
N1163 S1161 1.610 . S
N1163 C1164 1.351 . S
C1164 C1158 1.428 . S
C1164 N1163 1.351 . S
C1164 C1165 1.434 . S
C1165 C1156 1.429 . S
C1165 N1162 1.350 . S
C1165 C1164 1.434 . S
C1166 C1167 1.369 . S
C1166 C1168 1.419 . S
C1166 H1170 0.930 . S
C1167 C1166 1.369 . S
C1167 C1176 1.429 . S
C1168 C1166 1.419 . S
C1168 C1169 1.363 . S
C1168 H1171 0.929 . S
C1169 C1168 1.363 . S
C1169 C1175 1.428 . S
H1170 C1166 0.930 . S
H1171 C1168 0.929 . S
S1172 N1173 1.613 . S
S1172 N1174 1.610 . S
N1173 S1172 1.613 . S
N1173 C1176 1.350 . S
N1174 S1172 1.610 . S
N1174 C1175 1.351 . S
C1175 C1169 1.428 . S
C1175 N1174 1.351 . S
C1175 C1176 1.434 . S
C1176 C1167 1.429 . S
C1176 N1173 1.350 . S
C1176 C1175 1.434 . S
C1177 C1178 1.369 . S
C1177 C1179 1.419 . S
C1177 H1181 0.930 . S
C1178 C1177 1.369 . S
C1178 C1187 1.429 . S
C1179 C1177 1.419 . S
C1179 C1180 1.363 . S
C1179 H1182 0.929 . S
C1180 C1179 1.363 . S
C1180 C1186 1.428 . S
H1181 C1177 0.930 . S
H1182 C1179 0.929 . S
S1183 N1184 1.613 1_554 S
S1183 N1185 1.610 . S
N1184 S1183 1.613 1_556 S
N1184 C1187 1.350 . S
N1185 S1183 1.610 . S
N1185 C1186 1.351 1_554 S
C1186 C1180 1.428 . S
C1186 N1185 1.351 1_556 S
C1186 C1187 1.434 . S
C1187 C1178 1.429 . S
C1187 N1184 1.350 . S
C1187 C1186 1.434 . S
C1188 C1189 1.369 . S
C1188 C1190 1.419 . S
C1188 H1192 0.930 . S
C1189 C1188 1.369 . S
C1189 C1198 1.429 . S
C1190 C1188 1.419 . S
C1190 C1191 1.363 . S
C1190 H1193 0.929 . S
C1191 C1190 1.363 . S
C1191 C1197 1.428 . S
H1192 C1188 0.930 . S
H1193 C1190 0.929 . S
S1194 N1195 1.613 . S
S1194 N1196 1.610 . S
N1195 S1194 1.613 . S
N1195 C1198 1.350 . S
N1196 S1194 1.610 . S
N1196 C1197 1.351 . S
C1197 C1191 1.428 . S
C1197 N1196 1.351 . S
C1197 C1198 1.434 . S
C1198 C1189 1.429 . S
C1198 N1195 1.350 . S
C1198 C1197 1.434 . S
C1199 C1200 1.369 . S
C1199 C1201 1.419 . S
C1199 H1203 0.930 . S
C1200 C1199 1.369 . S
C1200 C1209 1.429 . S
C1201 C1199 1.419 . S
C1201 C1202 1.363 . S
C1201 H1204 0.929 . S
C1202 C1201 1.363 . S
C1202 C1208 1.428 . S
H1203 C1199 0.930 . S
H1204 C1201 0.929 . S
S1205 N1206 1.613 . S
S1205 N1207 1.610 1_554 S
N1206 S1205 1.613 . S
N1206 C1209 1.350 1_554 S
N1207 S1205 1.610 1_556 S
N1207 C1208 1.351 . S
C1208 C1202 1.428 . S
C1208 N1207 1.351 . S
C1208 C1209 1.434 . S
C1209 C1200 1.429 . S
C1209 N1206 1.350 1_556 S
C1209 C1208 1.434 . S
C1210 C1211 1.369 . S
C1210 C1212 1.419 . S
C1210 H1214 0.930 . S
C1211 C1210 1.369 . S
C1211 C1220 1.429 . S
C1212 C1210 1.419 . S
C1212 C1213 1.363 . S
C1212 H1215 0.929 . S
C1213 C1212 1.363 . S
C1213 C1219 1.428 . S
H1214 C1210 0.930 . S
H1215 C1212 0.929 . S
S1216 N1217 1.613 . S
S1216 N1218 1.610 . S
N1217 S1216 1.613 . S
N1217 C1220 1.350 . S
N1218 S1216 1.610 . S
N1218 C1219 1.351 . S
C1219 C1213 1.428 . S
C1219 N1218 1.351 . S
C1219 C1220 1.434 . S
C1220 C1211 1.429 . S
C1220 N1217 1.350 . S
C1220 C1219 1.434 . S
C1221 C1222 1.369 . S
C1221 C1223 1.419 . S
C1221 H1225 0.930 . S
C1222 C1221 1.369 . S
C1222 C1231 1.429 . S
C1223 C1221 1.419 . S
C1223 C1224 1.363 . S
C1223 H1226 0.929 . S
C1224 C1223 1.363 . S
C1224 C1230 1.428 . S
H1225 C1221 0.930 . S
H1226 C1223 0.929 . S
S1227 N1228 1.613 . S
S1227 N1229 1.610 . S
N1228 S1227 1.613 . S
N1228 C1231 1.350 . S
N1229 S1227 1.610 . S
N1229 C1230 1.351 . S
C1230 C1224 1.428 . S
C1230 N1229 1.351 . S
C1230 C1231 1.434 . S
C1231 C1222 1.429 . S
C1231 N1228 1.350 . S
C1231 C1230 1.434 . S
C1232 C1233 1.369 . S
C1232 C1234 1.419 . S
C1232 H1236 0.930 . S
C1233 C1232 1.369 . S
C1233 C1242 1.429 . S
C1234 C1232 1.419 . S
C1234 C1235 1.363 . S
C1234 H1237 0.929 . S
C1235 C1234 1.363 . S
C1235 C1241 1.428 . S
H1236 C1232 0.930 . S
H1237 C1234 0.929 . S
S1238 N1239 1.613 . S
S1238 N1240 1.610 . S
N1239 S1238 1.613 . S
N1239 C1242 1.350 . S
N1240 S1238 1.610 . S
N1240 C1241 1.351 . S
C1241 C1235 1.428 . S
C1241 N1240 1.351 . S
C1241 C1242 1.434 . S
C1242 C1233 1.429 . S
C1242 N1239 1.350 . S
C1242 C1241 1.434 . S
C1243 C1244 1.369 . S
C1243 C1245 1.419 . S
C1243 H1247 0.930 . S
C1244 C1243 1.369 . S
C1244 C1253 1.429 . S
C1245 C1243 1.419 . S
C1245 C1246 1.363 . S
C1245 H1248 0.929 . S
C1246 C1245 1.363 . S
C1246 C1252 1.428 . S
H1247 C1243 0.930 . S
H1248 C1245 0.929 . S
S1249 N1250 1.613 . S
S1249 N1251 1.610 . S
N1250 S1249 1.613 . S
N1250 C1253 1.350 . S
N1251 S1249 1.610 . S
N1251 C1252 1.351 . S
C1252 C1246 1.428 . S
C1252 N1251 1.351 . S
C1252 C1253 1.434 . S
C1253 C1244 1.429 . S
C1253 N1250 1.350 . S
C1253 C1252 1.434 . S
C1254 C1255 1.369 1_655 S
C1254 C1256 1.419 . S
C1254 H1258 0.930 . S
C1255 C1254 1.369 1_455 S
C1255 C1264 1.429 . S
C1256 C1254 1.419 . S
C1256 C1257 1.363 . S
C1256 H1259 0.929 . S
C1257 C1256 1.363 . S
C1257 C1263 1.428 1_655 S
H1258 C1254 0.930 . S
H1259 C1256 0.929 . S
S1260 N1261 1.613 . S
S1260 N1262 1.610 . S
N1261 S1260 1.613 . S
N1261 C1264 1.350 . S
N1262 S1260 1.610 . S
N1262 C1263 1.351 . S
C1263 C1257 1.428 1_455 S
C1263 N1262 1.351 . S
C1263 C1264 1.434 . S
C1264 C1255 1.429 . S
C1264 N1261 1.350 . S
C1264 C1263 1.434 . S
C1265 C1266 1.369 1_544 S
C1265 C1267 1.419 . S
C1265 H1269 0.930 1_554 S
C1266 C1265 1.369 1_566 S
C1266 C1275 1.429 1_556 S
C1267 C1265 1.419 . S
C1267 C1268 1.363 . S
C1267 H1270 0.929 . S
C1268 C1267 1.363 . S
C1268 C1274 1.428 1_545 S
H1269 C1265 0.930 1_556 S
H1270 C1267 0.929 . S
S1271 N1272 1.613 . S
S1271 N1273 1.610 . S
N1272 S1271 1.613 . S
N1272 C1275 1.350 . S
N1273 S1271 1.610 . S
N1273 C1274 1.351 . S
C1274 C1268 1.428 1_565 S
C1274 N1273 1.351 . S
C1274 C1275 1.434 . S
C1275 C1266 1.429 1_554 S
C1275 N1272 1.350 . S
C1275 C1274 1.434 . S
C1276 C1277 1.369 . S
C1276 C1278 1.419 . S
C1276 H1280 0.930 . S
C1277 C1276 1.369 . S
C1277 C1286 1.429 . S
C1278 C1276 1.419 . S
C1278 C1279 1.363 . S
C1278 H1281 0.929 . S
C1279 C1278 1.363 . S
C1279 C1285 1.428 . S
H1280 C1276 0.930 . S
H1281 C1278 0.929 . S
S1282 N1283 1.613 . S
S1282 N1284 1.610 . S
N1283 S1282 1.613 . S
N1283 C1286 1.350 . S
N1284 S1282 1.610 . S
N1284 C1285 1.351 . S
C1285 C1279 1.428 . S
C1285 N1284 1.351 . S
C1285 C1286 1.434 . S
C1286 C1277 1.429 . S
C1286 N1283 1.350 . S
C1286 C1285 1.434 . S
C1287 C1288 1.369 . S
C1287 C1289 1.419 . S
C1287 H1291 0.930 . S
C1288 C1287 1.369 . S
C1288 C1297 1.429 1_455 S
C1289 C1287 1.419 . S
C1289 C1290 1.363 1_455 S
C1289 H1292 0.929 . S
C1290 C1289 1.363 1_655 S
C1290 C1296 1.428 . S
H1291 C1287 0.930 . S
H1292 C1289 0.929 . S
S1293 N1294 1.613 . S
S1293 N1295 1.610 . S
N1294 S1293 1.613 . S
N1294 C1297 1.350 . S
N1295 S1293 1.610 . S
N1295 C1296 1.351 . S
C1296 C1290 1.428 . S
C1296 N1295 1.351 . S
C1296 C1297 1.434 . S
C1297 C1288 1.429 1_655 S
C1297 N1294 1.350 . S
C1297 C1296 1.434 . S
C1298 C1299 1.369 1_565 S
C1298 C1300 1.419 . S
C1298 H1302 0.930 . S
C1299 C1298 1.369 1_545 S
C1299 C1308 1.429 . S
C1300 C1298 1.419 . S
C1300 C1301 1.363 . S
C1300 H1303 0.929 . S
C1301 C1300 1.363 . S
C1301 C1307 1.428 1_565 S
H1302 C1298 0.930 . S
H1303 C1300 0.929 . S
S1304 N1305 1.613 . S
S1304 N1306 1.610 . S
N1305 S1304 1.613 . S
N1305 C1308 1.350 . S
N1306 S1304 1.610 . S
N1306 C1307 1.351 . S
C1307 C1301 1.428 1_545 S
C1307 N1306 1.351 . S
C1307 C1308 1.434 . S
C1308 C1299 1.429 . S
C1308 N1305 1.350 . S
C1308 C1307 1.434 . S
C1309 C1310 1.369 . S
C1309 C1311 1.419 . S
C1309 H1313 0.930 . S
C1310 C1309 1.369 . S
C1310 C1319 1.429 . S
C1311 C1309 1.419 . S
C1311 C1312 1.363 . S
C1311 H1314 0.929 . S
C1312 C1311 1.363 . S
C1312 C1318 1.428 . S
H1313 C1309 0.930 . S
H1314 C1311 0.929 . S
S1315 N1316 1.613 . S
S1315 N1317 1.610 . S
N1316 S1315 1.613 . S
N1316 C1319 1.350 . S
N1317 S1315 1.610 . S
N1317 C1318 1.351 . S
C1318 C1312 1.428 . S
C1318 N1317 1.351 . S
C1318 C1319 1.434 . S
C1319 C1310 1.429 . S
C1319 N1316 1.350 . S
C1319 C1318 1.434 . S
C1057 C29 1.492 . S
C1059 C937 1.485 . S
C1068 C1017 1.484 . S
C1070 C117 1.491 . S
C1079 C196 1.483 . S
C1081 C577 1.491 . S
C1090 C293 1.489 . S
C1092 C673 1.483 . S
C1101 C372 1.492 . S
C1103 C761 1.488 1_556 S
C1112 C849 1.484 . S
C1114 C469 1.491 . S
C1123 C20 1.647 . S
C1125 C753 1.650 . S
C1134 C108 1.647 . S
C1136 C841 1.651 . S
C1145 C929 1.651 . S
C1147 C205 1.648 . S
C1156 C284 1.647 . S
C1158 C1025 1.651 . S
C1167 C381 1.651 . S
C1169 C585 1.647 . S
C1178 C460 1.648 . S
C1180 C665 1.650 . S
C1189 C900 0.730 . S
C1191 C49 0.731 . S
C1200 C137 0.731 1_556 S
C1202 C997 0.732 . S
C1211 C233 0.732 . S
C1213 C557 0.731 . S
C1222 C313 0.732 . S
C1224 C636 0.732 . S
C1233 C724 0.732 . S
C1235 C409 0.732 . S
C1244 C489 0.733 . S
C1246 C812 0.732 . S
C1255 C57 1.961 . S
C1257 C988 1.969 . S
C1266 C548 1.964 . S
C1268 C145 1.965 . S
C1277 C645 1.969 . S
C1279 C225 1.963 . S
C1288 C733 1.968 . S
C1290 C321 1.965 . S
C1299 C821 1.960 . S
C1301 C401 1.969 . S
C1310 C909 1.969 . S
C1312 C497 1.964 . S
