# Generated by pormake.
# Topology whz, (6)-cn, num edge types: 1
# Building blocks:
#     Node 0, Type 0, BuildingBlock: CUWYAW_clean_sbu_0, # of connection points: 6
#     Node 1, Type 0, BuildingBlock: CUWYAW_clean_sbu_0, # of connection points: 6
#     Node 2, Type 0, BuildingBlock: CUWYAW_clean_sbu_0, # of connection points: 6
#     Node 3, Type 0, BuildingBlock: CUWYAW_clean_sbu_0, # of connection points: 6
#     Node 4, Type 0, BuildingBlock: CUWYAW_clean_sbu_0, # of connection points: 6
#     Node 5, Type 0, BuildingBlock: CUWYAW_clean_sbu_0, # of connection points: 6
#     Node 6, Type 0, BuildingBlock: CUWYAW_clean_sbu_0, # of connection points: 6
#     Node 7, Type 0, BuildingBlock: CUWYAW_clean_sbu_0, # of connection points: 6
#     Node 8, Type 0, BuildingBlock: CUWYAW_clean_sbu_0, # of connection points: 6
#     Node 9, Type 0, BuildingBlock: CUWYAW_clean_sbu_0, # of connection points: 6
#     Node 10, Type 0, BuildingBlock: CUWYAW_clean_sbu_0, # of connection points: 6
#     Node 11, Type 0, BuildingBlock: CUWYAW_clean_sbu_0, # of connection points: 6
#     Node 12, Type 0, BuildingBlock: CUWYAW_clean_sbu_0, # of connection points: 6
#     Node 13, Type 0, BuildingBlock: CUWYAW_clean_sbu_0, # of connection points: 6
#     Node 14, Type 0, BuildingBlock: CUWYAW_clean_sbu_0, # of connection points: 6
#     Node 15, Type 0, BuildingBlock: CUWYAW_clean_sbu_0, # of connection points: 6
#     Edge 16, Type (0, 0), BuildingBlock: UVAHIK_clean_linker_0, # of connection points: 2
#     Edge 17, Type (0, 0), BuildingBlock: UVAHIK_clean_linker_0, # of connection points: 2
#     Edge 18, Type (0, 0), BuildingBlock: UVAHIK_clean_linker_0, # of connection points: 2
#     Edge 19, Type (0, 0), BuildingBlock: UVAHIK_clean_linker_0, # of connection points: 2
#     Edge 20, Type (0, 0), BuildingBlock: UVAHIK_clean_linker_0, # of connection points: 2
#     Edge 21, Type (0, 0), BuildingBlock: UVAHIK_clean_linker_0, # of connection points: 2
#     Edge 22, Type (0, 0), BuildingBlock: UVAHIK_clean_linker_0, # of connection points: 2
#     Edge 23, Type (0, 0), BuildingBlock: UVAHIK_clean_linker_0, # of connection points: 2
#     Edge 24, Type (0, 0), BuildingBlock: UVAHIK_clean_linker_0, # of connection points: 2
#     Edge 25, Type (0, 0), BuildingBlock: UVAHIK_clean_linker_0, # of connection points: 2
#     Edge 26, Type (0, 0), BuildingBlock: UVAHIK_clean_linker_0, # of connection points: 2
#     Edge 27, Type (0, 0), BuildingBlock: UVAHIK_clean_linker_0, # of connection points: 2
#     Edge 28, Type (0, 0), BuildingBlock: UVAHIK_clean_linker_0, # of connection points: 2
#     Edge 29, Type (0, 0), BuildingBlock: UVAHIK_clean_linker_0, # of connection points: 2
#     Edge 30, Type (0, 0), BuildingBlock: UVAHIK_clean_linker_0, # of connection points: 2
#     Edge 31, Type (0, 0), BuildingBlock: UVAHIK_clean_linker_0, # of connection points: 2
#     Edge 32, Type (0, 0), BuildingBlock: UVAHIK_clean_linker_0, # of connection points: 2
#     Edge 33, Type (0, 0), BuildingBlock: UVAHIK_clean_linker_0, # of connection points: 2
#     Edge 34, Type (0, 0), BuildingBlock: UVAHIK_clean_linker_0, # of connection points: 2
#     Edge 35, Type (0, 0), BuildingBlock: UVAHIK_clean_linker_0, # of connection points: 2
#     Edge 36, Type (0, 0), BuildingBlock: UVAHIK_clean_linker_0, # of connection points: 2
#     Edge 37, Type (0, 0), BuildingBlock: UVAHIK_clean_linker_0, # of connection points: 2
#     Edge 38, Type (0, 0), BuildingBlock: UVAHIK_clean_linker_0, # of connection points: 2
#     Edge 39, Type (0, 0), BuildingBlock: UVAHIK_clean_linker_0, # of connection points: 2
#     Edge 40, Type (0, 0), BuildingBlock: UVAHIK_clean_linker_0, # of connection points: 2
#     Edge 41, Type (0, 0), BuildingBlock: UVAHIK_clean_linker_0, # of connection points: 2
#     Edge 42, Type (0, 0), BuildingBlock: UVAHIK_clean_linker_0, # of connection points: 2
#     Edge 43, Type (0, 0), BuildingBlock: UVAHIK_clean_linker_0, # of connection points: 2
#     Edge 44, Type (0, 0), BuildingBlock: UVAHIK_clean_linker_0, # of connection points: 2
#     Edge 45, Type (0, 0), BuildingBlock: UVAHIK_clean_linker_0, # of connection points: 2
#     Edge 46, Type (0, 0), BuildingBlock: UVAHIK_clean_linker_0, # of connection points: 2
#     Edge 47, Type (0, 0), BuildingBlock: UVAHIK_clean_linker_0, # of connection points: 2
#     Edge 48, Type (0, 0), BuildingBlock: UVAHIK_clean_linker_0, # of connection points: 2
#     Edge 49, Type (0, 0), BuildingBlock: UVAHIK_clean_linker_0, # of connection points: 2
#     Edge 50, Type (0, 0), BuildingBlock: UVAHIK_clean_linker_0, # of connection points: 2
#     Edge 51, Type (0, 0), BuildingBlock: UVAHIK_clean_linker_0, # of connection points: 2
#     Edge 52, Type (0, 0), BuildingBlock: UVAHIK_clean_linker_0, # of connection points: 2
#     Edge 53, Type (0, 0), BuildingBlock: UVAHIK_clean_linker_0, # of connection points: 2
#     Edge 54, Type (0, 0), BuildingBlock: UVAHIK_clean_linker_0, # of connection points: 2
#     Edge 55, Type (0, 0), BuildingBlock: UVAHIK_clean_linker_0, # of connection points: 2
#     Edge 56, Type (0, 0), BuildingBlock: UVAHIK_clean_linker_0, # of connection points: 2
#     Edge 57, Type (0, 0), BuildingBlock: UVAHIK_clean_linker_0, # of connection points: 2
#     Edge 58, Type (0, 0), BuildingBlock: UVAHIK_clean_linker_0, # of connection points: 2
#     Edge 59, Type (0, 0), BuildingBlock: UVAHIK_clean_linker_0, # of connection points: 2
#     Edge 60, Type (0, 0), BuildingBlock: UVAHIK_clean_linker_0, # of connection points: 2
#     Edge 61, Type (0, 0), BuildingBlock: UVAHIK_clean_linker_0, # of connection points: 2
#     Edge 62, Type (0, 0), BuildingBlock: UVAHIK_clean_linker_0, # of connection points: 2
#     Edge 63, Type (0, 0), BuildingBlock: UVAHIK_clean_linker_0, # of connection points: 2
# Relax obj value: 0.636
# Max RMSD: 0.301
# Mean RMSD: 0.301
data_MOF--net-whz--node1-CUWYAW_clean_sbu_0--edge1-UVAHIK_clean_linker_0
_symmetry_space_group_name_H-M    P1
_symmetry_Int_Tables_number       1
_symmetry_cell_setting            triclinic
loop_
_symmetry_equiv_pos_as_xyz
'x, y, z'
_cell_length_a     44.912032
_cell_length_b     45.115026
_cell_length_c     88.363526
_cell_angle_alpha  90.138399
_cell_angle_beta   89.958203
_cell_angle_gamma 89.831278
loop_
_atom_site_label
_atom_site_type_symbol
_atom_site_fract_x
_atom_site_fract_y
_atom_site_fract_z
_atom_type_partial_charge
C0 C 0.31342 0.13936 0.10964 0.0
Eu1 Eu 0.31435 0.15725 0.13797 0.0
C2 C 0.29506 0.13299 0.09592 0.0
C3 C 0.30007 0.10662 0.08784 0.0
C4 C 0.28685 0.10184 0.07365 0.0
C5 C 0.2683 0.12344 0.06695 0.0
C6 C 0.26241 0.14947 0.07538 0.0
C7 C 0.27558 0.15418 0.08964 0.0
C8 C 0.3302 0.12523 0.16342 0.0
C9 C 0.24943 0.14737 0.15389 0.0
C10 C 0.30571 0.2046 0.19457 0.0
Eu11 Eu 0.3019 0.18527 0.16722 0.0
C12 C 0.32876 0.22089 0.20288 0.0
C13 C 0.324 0.25072 0.20644 0.0
C14 C 0.3421 0.26473 0.21698 0.0
C15 C 0.36468 0.24871 0.22454 0.0
C16 C 0.37267 0.22064 0.21887 0.0
C17 C 0.35451 0.20657 0.20826 0.0
C18 C 0.27846 0.21655 0.14426 0.0
C19 C 0.36787 0.19542 0.15119 0.0
O20 O 0.31615 0.16698 0.11388 0.0
O21 O 0.3127 0.12112 0.12113 0.0
O22 O 0.34738 0.12739 0.15158 0.0
O23 O 0.30685 0.13926 0.16087 0.0
O24 O 0.26413 0.15001 0.14094 0.0
O25 O 0.26159 0.15614 0.16672 0.0
O26 O 0.31207 0.17726 0.1908 0.0
O27 O 0.29176 0.21921 0.18393 0.0
O28 O 0.26489 0.21071 0.15683 0.0
O29 O 0.30433 0.20483 0.14415 0.0
O30 O 0.35109 0.19721 0.16349 0.0
O31 O 0.35793 0.18195 0.13895 0.0
H32 H 0.31509 0.08996 0.0923 0.0
H33 H 0.29154 0.08117 0.06786 0.0
H34 H 0.24855 0.16687 0.07073 0.0
H35 H 0.27129 0.17488 0.0955 0.0
H36 H 0.30484 0.26256 0.20205 0.0
H37 H 0.33538 0.28668 0.2206 0.0
H38 H 0.39053 0.20807 0.22405 0.0
H39 H 0.35942 0.18379 0.20523 0.0
C40 C 0.64437 0.56259 0.35987 0.0
Eu41 Eu 0.62428 0.56197 0.38773 0.0
C42 C 0.65074 0.54586 0.34571 0.0
C43 C 0.67265 0.55687 0.33593 0.0
C44 C 0.67734 0.54417 0.32165 0.0
C45 C 0.66013 0.52001 0.31662 0.0
C46 C 0.63876 0.50826 0.32669 0.0
C47 C 0.63404 0.52111 0.34107 0.0
C48 C 0.65585 0.57868 0.41327 0.0
C49 C 0.63058 0.49682 0.40289 0.0
C50 C 0.57786 0.5485 0.44438 0.0
Eu51 Eu 0.59491 0.55275 0.41676 0.0
C52 C 0.55776 0.56744 0.45325 0.0
C53 C 0.52991 0.55664 0.45753 0.0
C54 C 0.51227 0.57276 0.46753 0.0
C55 C 0.52254 0.59976 0.47372 0.0
C56 C 0.54865 0.6123 0.46783 0.0
C57 C 0.56627 0.59617 0.45775 0.0
C58 C 0.55645 0.54556 0.39335 0.0
C59 C 0.58776 0.61675 0.40158 0.0
O60 O 0.61648 0.56712 0.36354 0.0
O61 O 0.66149 0.55849 0.37166 0.0
O62 O 0.65359 0.59548 0.40139 0.0
O63 O 0.64153 0.55565 0.41085 0.0
O64 O 0.63463 0.51305 0.39061 0.0
O65 O 0.61626 0.50745 0.4148 0.0
O66 O 0.60315 0.56062 0.44049 0.0
O67 O 0.56567 0.5328 0.43353 0.0
O68 O 0.55149 0.56199 0.4051 0.0
O69 O 0.58305 0.53617 0.39374 0.0
O70 O 0.59196 0.60298 0.41458 0.0
O71 O 0.59461 0.60306 0.38881 0.0
H72 H 0.68577 0.57594 0.33921 0.0
H73 H 0.69445 0.55354 0.3145 0.0
H74 H 0.62493 0.48979 0.32329 0.0
H75 H 0.61689 0.5122 0.34837 0.0
H76 H 0.52252 0.53492 0.45388 0.0
H77 H 0.49227 0.56215 0.47166 0.0
H78 H 0.55697 0.63314 0.47221 0.0
H79 H 0.58731 0.60559 0.45421 0.0
C80 C 0.21777 0.8907 0.60975 0.0
Eu81 Eu 0.21747 0.87255 0.63801 0.0
C82 C 0.23635 0.89614 0.59597 0.0
C83 C 0.237 0.92453 0.58948 0.0
C84 C 0.25012 0.92927 0.57523 0.0
C85 C 0.26318 0.90572 0.56699 0.0
C86 C 0.26359 0.87749 0.57388 0.0
C87 C 0.25027 0.87275 0.58807 0.0
C88 C 0.20129 0.90385 0.66359 0.0
C89 C 0.2827 0.88349 0.65358 0.0
C90 C 0.22807 0.8256 0.69437 0.0
Eu91 Eu 0.23125 0.84458 0.66698 0.0
C92 C 0.20537 0.80921 0.70286 0.0
C93 C 0.21041 0.77939 0.7063 0.0
C94 C 0.19278 0.76531 0.71699 0.0
C95 C 0.1704 0.78121 0.72481 0.0
C96 C 0.16205 0.80924 0.71928 0.0
C97 C 0.17976 0.8234 0.70853 0.0
C98 C 0.25479 0.81375 0.6438 0.0
C99 C 0.16476 0.83384 0.65149 0.0
O100 O 0.21362 0.86323 0.61391 0.0
O101 O 0.2198 0.90874 0.62133 0.0
O102 O 0.18389 0.9013 0.65188 0.0
O103 O 0.22502 0.89054 0.66089 0.0
O104 O 0.26737 0.88164 0.64079 0.0
O105 O 0.27162 0.87351 0.66639 0.0
O106 O 0.22141 0.85286 0.69061 0.0
O107 O 0.24191 0.81094 0.68366 0.0
O108 O 0.26853 0.81994 0.65629 0.0
O109 O 0.22873 0.82508 0.64385 0.0
O110 O 0.18243 0.831 0.6634 0.0
O111 O 0.17369 0.84846 0.63943 0.0
H112 H 0.22623 0.94298 0.59516 0.0
H113 H 0.24883 0.9513 0.57048 0.0
H114 H 0.27397 0.85877 0.56829 0.0
H115 H 0.25023 0.8505 0.59265 0.0
H116 H 0.22946 0.76764 0.70169 0.0
H117 H 0.19975 0.74339 0.7205 0.0
H118 H 0.14428 0.82171 0.72464 0.0
H119 H 0.17464 0.84616 0.7056 0.0
C120 C 0.89368 0.46927 0.85969 0.0
Eu121 Eu 0.91041 0.46776 0.8882 0.0
C122 C 0.8861 0.48721 0.84603 0.0
C123 C 0.86131 0.4791 0.8373 0.0
C124 C 0.85599 0.4921 0.82313 0.0
C125 C 0.87544 0.5136 0.81713 0.0
C126 C 0.89972 0.52255 0.82621 0.0
C127 C 0.90499 0.50952 0.84044 0.0
C128 C 0.87616 0.45188 0.91295 0.0
C129 C 0.89884 0.53187 0.90448 0.0
C130 C 0.95208 0.47294 0.94576 0.0
Eu131 Eu 0.93582 0.47898 0.91802 0.0
C132 C 0.97198 0.45192 0.95344 0.0
C133 C 1.00204 0.45894 0.95546 0.0
C134 C 0.01939 0.44251 0.96539 0.0
C135 C 1.00663 0.41928 0.97388 0.0
C136 C 0.97834 0.40893 0.96957 0.0
C137 C 0.96083 0.42556 0.95968 0.0
C138 C 0.96931 0.5032 0.89626 0.0
C139 C 0.94866 0.41413 0.90132 0.0
O140 O 0.92138 0.4688 0.86419 0.0
O141 O 0.87486 0.46783 0.87098 0.0
O142 O 0.88001 0.43452 0.9013 0.0
O143 O 0.89023 0.47511 0.91067 0.0
O144 O 0.9029 0.51779 0.89144 0.0
O145 O 0.90593 0.51888 0.91735 0.0
O146 O 0.92717 0.46206 0.94051 0.0
O147 O 0.96459 0.49196 0.93658 0.0
O148 O 0.96301 0.51573 0.90906 0.0
O149 O 0.95773 0.47744 0.89534 0.0
O150 O 0.94999 0.43067 0.91371 0.0
O151 O 0.9354 0.42423 0.88906 0.0
H152 H 0.84646 0.46187 0.84123 0.0
H153 H 0.83667 0.48494 0.81681 0.0
H154 H 0.91543 0.53879 0.82209 0.0
H155 H 0.92444 0.51622 0.84682 0.0
H156 H 1.01162 0.47853 0.95034 0.0
H157 H 0.0414 0.45095 0.96783 0.0
H158 H 0.96827 0.3903 0.97532 0.0
H159 H 0.93795 0.41892 0.95784 0.0
C160 C 0.73295 0.82676 0.84983 0.0
Eu161 Eu 0.72849 0.84396 0.87745 0.0
C162 C 0.71397 0.80701 0.84085 0.0
C163 C 0.72475 0.7792 0.83651 0.0
C164 C 0.70875 0.76204 0.8263 0.0
C165 C 0.68193 0.77277 0.81997 0.0
C166 C 0.66936 0.79885 0.82588 0.0
C167 C 0.68534 0.81597 0.83619 0.0
C168 C 0.73483 0.80544 0.9008 0.0
C169 C 0.66407 0.8376 0.89259 0.0
C170 C 0.71951 0.89286 0.93458 0.0
Eu171 Eu 0.71929 0.87328 0.90658 0.0
C172 C 0.73749 0.89718 0.94863 0.0
C173 C 0.73827 0.92529 0.95546 0.0
C174 C 0.75105 0.92937 0.96981 0.0
C175 C 0.76378 0.90543 0.97783 0.0
C176 C 0.764 0.87742 0.97061 0.0
C177 C 0.7509 0.87332 0.95629 0.0
C178 C 0.7032 0.9051 0.88105 0.0
C179 C 0.78494 0.87849 0.89145 0.0
O180 O 0.72081 0.85204 0.85373 0.0
O181 O 0.74849 0.81446 0.86071 0.0
O182 O 0.71844 0.80091 0.889 0.0
O183 O 0.74464 0.83173 0.90051 0.0
O184 O 0.67801 0.84173 0.8796 0.0
O185 O 0.67773 0.84433 0.90538 0.0
O186 O 0.71241 0.86577 0.93068 0.0
O187 O 0.72468 0.90981 0.92286 0.0
O188 O 0.6863 0.90347 0.89298 0.0
O189 O 0.72603 0.89034 0.88352 0.0
O190 O 0.76863 0.88243 0.90377 0.0
O191 O 0.77419 0.86463 0.87946 0.0
H192 H 0.7464 0.77151 0.84025 0.0
H193 H 0.71936 0.74207 0.8221 0.0
H194 H 0.64873 0.80755 0.82133 0.0
H195 H 0.67596 0.83701 0.83974 0.0
H196 H 0.72789 0.94407 0.94992 0.0
H197 H 0.74978 0.95125 0.9748 0.0
H198 H 0.77411 0.8584 0.97601 0.0
H199 H 0.75072 0.85128 0.95141 0.0
C200 C 0.45472 0.47353 0.59946 0.0
Eu201 Eu 0.43645 0.47894 0.62693 0.0
C202 C 0.47426 0.45193 0.5919 0.0
C203 C 0.50402 0.4592 0.58917 0.0
C204 C 0.521 0.442 0.57935 0.0
C205 C 0.50809 0.41775 0.57165 0.0
C206 C 0.48026 0.40745 0.57669 0.0
C207 C 0.46315 0.42478 0.58652 0.0
C208 C 0.46837 0.50292 0.64937 0.0
C209 C 0.44813 0.41344 0.64309 0.0
C210 C 0.3924 0.46782 0.68466 0.0
Eu211 Eu 0.40925 0.46663 0.65618 0.0
C212 C 0.38497 0.48597 0.69831 0.0
C213 C 0.36008 0.47822 0.70705 0.0
C214 C 0.35487 0.49143 0.72121 0.0
C215 C 0.37458 0.51274 0.72721 0.0
C216 C 0.39898 0.52132 0.71813 0.0
C217 C 0.40411 0.50812 0.7039 0.0
C218 C 0.37665 0.4508 0.6309 0.0
C219 C 0.39775 0.53111 0.64018 0.0
O220 O 0.42881 0.46374 0.60399 0.0
O221 O 0.4674 0.49138 0.60921 0.0
O222 O 0.46226 0.51591 0.63669 0.0
O223 O 0.45696 0.47704 0.64988 0.0
O224 O 0.45143 0.43088 0.63118 0.0
O225 O 0.43294 0.42256 0.65498 0.0
O226 O 0.42013 0.46719 0.68017 0.0
O227 O 0.37361 0.46651 0.67337 0.0
O228 O 0.37945 0.43354 0.64262 0.0
O229 O 0.39042 0.47413 0.63349 0.0
O230 O 0.39961 0.51617 0.65305 0.0
O231 O 0.40741 0.51945 0.62738 0.0
H232 H 0.51354 0.47947 0.59362 0.0
H233 H 0.54271 0.4505 0.57635 0.0
H234 H 0.47012 0.38815 0.57156 0.0
H235 H 0.44055 0.41794 0.58896 0.0
H236 H 0.34504 0.46112 0.70312 0.0
H237 H 0.33544 0.48455 0.72753 0.0
H238 H 0.41489 0.5374 0.72224 0.0
H239 H 0.42365 0.51454 0.69752 0.0
C240 C 0.80039 0.20573 0.35076 0.0
Eu241 Eu 0.80504 0.18801 0.37823 0.0
C242 C 0.82014 0.22478 0.34187 0.0
C243 C 0.80922 0.25149 0.33617 0.0
C244 C 0.82637 0.26793 0.32616 0.0
C245 C 0.85459 0.25752 0.3214 0.0
C246 C 0.86687 0.23265 0.32861 0.0
C247 C 0.84975 0.21633 0.33876 0.0
C248 C 0.79782 0.22557 0.40196 0.0
C249 C 0.86944 0.19475 0.39343 0.0
C250 C 0.81441 0.13858 0.4351 0.0
Eu251 Eu 0.81489 0.15799 0.40712 0.0
C252 C 0.79606 0.13288 0.44888 0.0
C253 C 0.79934 0.10578 0.45648 0.0
C254 C 0.78596 0.10108 0.47063 0.0
C255 C 0.76895 0.12347 0.47775 0.0
C256 C 0.76473 0.1503 0.46981 0.0
C257 C 0.7781 0.15495 0.45559 0.0
C258 C 0.83211 0.12746 0.38136 0.0
C259 C 0.74969 0.15109 0.39169 0.0
O260 O 0.81132 0.17978 0.35436 0.0
O261 O 0.7858 0.21857 0.36184 0.0
O262 O 0.81447 0.23072 0.39031 0.0
O263 O 0.78857 0.19908 0.40137 0.0
O264 O 0.85552 0.19102 0.38039 0.0
O265 O 0.85595 0.18742 0.40616 0.0
O266 O 0.81941 0.16615 0.43131 0.0
O267 O 0.81141 0.12118 0.42332 0.0
O268 O 0.84883 0.12907 0.39337 0.0
O269 O 0.80883 0.14155 0.38389 0.0
O270 O 0.76673 0.14541 0.40353 0.0
O271 O 0.75915 0.16766 0.38035 0.0
H272 H 0.78677 0.25879 0.33875 0.0
H273 H 0.81592 0.28698 0.32094 0.0
H274 H 0.88852 0.22422 0.32528 0.0
H275 H 0.85919 0.19624 0.34345 0.0
H276 H 0.8131 0.0884 0.45165 0.0
H277 H 0.7893 0.07985 0.47605 0.0
H278 H 0.75204 0.16825 0.47481 0.0
H279 H 0.77514 0.17618 0.45009 0.0
C280 C 0.07808 0.55587 0.09954 0.0
Eu281 Eu 0.09633 0.55062 0.12701 0.0
C282 C 0.05906 0.5776 0.0918 0.0
C283 C 0.02911 0.57095 0.08916 0.0
C284 C 1.01268 0.58786 0.07903 0.0
C285 C 0.02631 0.61116 0.07096 0.0
C286 C 0.05433 0.62114 0.07591 0.0
C287 C 0.07091 0.60407 0.08603 0.0
C288 C 0.06473 0.52605 0.14938 0.0
C289 C 0.08439 0.616 0.14336 0.0
C290 C 0.14161 0.56217 0.18448 0.0
Eu291 Eu 0.12371 0.56307 0.15615 0.0
C292 C 0.14997 0.54433 0.19807 0.0
C293 C 0.17545 0.55224 0.20633 0.0
C294 C 0.18164 0.53932 0.22043 0.0
C295 C 0.16238 0.51812 0.22686 0.0
C296 C 0.13735 0.5094 0.21827 0.0
C297 C 0.13122 0.52232 0.20409 0.0
C298 C 0.15598 0.57904 0.13074 0.0
C299 C 0.13533 0.49864 0.14008 0.0
O300 O 0.10417 0.56524 0.10402 0.0
O301 O 0.06499 0.53859 0.10938 0.0
O302 O 0.07091 0.51332 0.13661 0.0
O303 O 0.0759 0.55206 0.15006 0.0
O304 O 0.08143 0.59868 0.13135 0.0
O305 O 0.09939 0.60682 0.15527 0.0
O306 O 0.11372 0.56226 0.18026 0.0
O307 O 0.15994 0.56379 0.17299 0.0
O308 O 0.15297 0.59639 0.14245 0.0
O309 O 0.14244 0.55561 0.13337 0.0
O310 O 0.13343 0.51359 0.15298 0.0
O311 O 0.12555 0.51021 0.12732 0.0
H312 H 0.01904 0.55125 0.09391 0.0
H313 H 0.99079 0.5797 0.07611 0.0
H314 H 0.06501 0.63982 0.0705 0.0
H315 H 0.09368 0.61046 0.08837 0.0
H316 H 0.19022 0.56924 0.20207 0.0
H317 H 0.2015 0.5463 0.22636 0.0
H318 H 0.12173 0.4934 0.22271 0.0
H319 H 0.11125 0.51578 0.19811 0.0
C320 C 0.81534 0.6393 0.60971 0.0
Eu321 Eu 0.81551 0.65751 0.638 0.0
C322 C 0.79706 0.63394 0.59582 0.0
C323 C 0.79709 0.60574 0.58905 0.0
C324 C 0.7843 0.60113 0.57472 0.0
C325 C 0.77088 0.62464 0.56666 0.0
C326 C 0.76983 0.65267 0.57381 0.0
C327 C 0.78284 0.65729 0.58809 0.0
C328 C 0.83222 0.62567 0.66333 0.0
C329 C 0.75085 0.64593 0.65375 0.0
C330 C 0.80554 0.70371 0.69456 0.0
Eu331 Eu 0.80236 0.68466 0.66715 0.0
C332 C 0.82842 0.72039 0.70277 0.0
C333 C 0.82275 0.74985 0.70675 0.0
C334 C 0.84133 0.76431 0.71689 0.0
C335 C 0.86546 0.74913 0.72364 0.0
C336 C 0.8739 0.72149 0.71756 0.0
C337 C 0.85524 0.70698 0.70735 0.0
C338 C 0.77839 0.71611 0.64434 0.0
C339 C 0.86839 0.69598 0.65149 0.0
O340 O 0.81962 0.66673 0.61393 0.0
O341 O 0.81294 0.62131 0.62124 0.0
O342 O 0.84962 0.62901 0.65167 0.0
O343 O 0.80837 0.63877 0.66077 0.0
O344 O 0.76532 0.64942 0.64078 0.0
O345 O 0.76298 0.65452 0.66659 0.0
O346 O 0.81229 0.67646 0.69076 0.0
O347 O 0.79134 0.71815 0.68394 0.0
O348 O 0.76483 0.70948 0.65681 0.0
O349 O 0.80447 0.70486 0.64419 0.0
O350 O 0.85147 0.69728 0.66375 0.0
O351 O 0.85868 0.68277 0.63914 0.0
H352 H 0.80814 0.58735 0.59459 0.0
H353 H 0.78612 0.57926 0.56976 0.0
H354 H 0.75917 0.67133 0.56835 0.0
H355 H 0.78238 0.6794 0.59289 0.0
H356 H 0.80271 0.76101 0.70294 0.0
H357 H 0.83412 0.78589 0.72083 0.0
H358 H 0.89288 0.70958 0.72208 0.0
H359 H 0.86083 0.68457 0.70393 0.0
C360 C 0.14271 0.06396 0.85955 0.0
Eu361 Eu 0.12363 0.06386 0.88761 0.0
C362 C 0.14893 0.0458 0.84578 0.0
C363 C 0.17484 0.05152 0.83742 0.0
C364 C 0.17966 0.03807 0.8233 0.0
C365 C 0.15858 0.0185 0.817 0.0
C366 C 0.13307 1.01186 0.8257 0.0
C367 C 0.12828 0.02535 0.8399 0.0
C368 C 0.15446 0.08101 0.91322 0.0
C369 C 0.13155 0.99849 0.90251 0.0
C370 C 0.07812 0.04799 0.94426 0.0
Eu371 Eu 0.09428 0.05317 0.91655 0.0
C372 C 0.06006 0.06804 0.95358 0.0
C373 C 0.0327 0.05833 0.9591 0.0
C374 C 1.01688 0.07576 0.9693 0.0
C375 C 0.02855 0.10307 0.97445 0.0
C376 C 0.05417 0.1143 0.96743 0.0
C377 C 0.06991 0.09687 0.9571 0.0
C378 C 0.0562 0.04588 0.89306 0.0
C379 C 0.08631 0.11778 0.90183 0.0
O380 O 0.11488 0.06802 0.86347 0.0
O381 O 0.16046 0.06155 0.87123 0.0
O382 O 0.15197 0.09795 0.90138 0.0
O383 O 0.1408 0.05761 0.9107 0.0
O384 O 0.13738 0.01599 0.89091 0.0
O385 O 0.11455 1.00741 0.91387 0.0
O386 O 0.10424 0.05813 0.94032 0.0
O387 O 0.06421 0.03423 0.93327 0.0
O388 O 0.0509 0.06214 0.90486 0.0
O389 O 0.083 0.03699 0.89344 0.0
O390 O 0.09014 0.1035 0.91474 0.0
O391 O 0.09375 0.10469 0.88897 0.0
H392 H 0.19109 0.0672 0.84163 0.0
H393 H 0.19993 0.04335 0.81725 0.0
H394 H 0.11616 0.9971 0.82133 0.0
H395 H 0.108 0.02047 0.84604 0.0
H396 H 0.02432 0.03654 0.95619 0.0
H397 H 0.9972 0.06607 0.97431 0.0
H398 H 0.06356 0.13527 0.971 0.0
H399 H 0.09056 0.10543 0.95255 0.0
C400 C 0.72006 0.3923 0.10991 0.0
Eu401 Eu 0.71785 0.37376 0.13801 0.0
C402 C 0.73806 0.39704 0.09592 0.0
C403 C 0.73889 0.42536 0.08937 0.0
C404 C 0.75139 0.42978 0.07499 0.0
C405 C 0.76375 0.40598 0.06666 0.0
C406 C 0.76394 0.37776 0.07359 0.0
C407 C 0.75112 0.37332 0.08793 0.0
C408 C 0.70315 0.40708 0.16314 0.0
C409 C 0.78299 0.37997 0.15458 0.0
C410 C 0.71503 0.34154 0.19724 0.0
Eu411 Eu 0.72727 0.34624 0.16903 0.0
C412 C 0.69896 0.31919 0.20594 0.0
C413 C 0.70908 0.28986 0.20658 0.0
C414 C 0.69557 0.26997 0.21638 0.0
C415 C 0.67182 0.27919 0.22579 0.0
C416 C 0.65882 0.3071 0.22314 0.0
C417 C 0.67271 0.3272 0.21352 0.0
C418 C 0.74447 0.30386 0.14977 0.0
C419 C 0.66418 0.3338 0.15075 0.0
O420 O 0.71368 0.36509 0.11384 0.0
O421 O 0.72409 0.40976 0.12158 0.0
O422 O 0.68611 0.40586 0.15124 0.0
O423 O 0.72526 0.39112 0.16075 0.0
O424 O 0.76791 0.37981 0.14164 0.0
O425 O 0.77106 0.37022 0.16733 0.0
O426 O 0.69823 0.35639 0.18778 0.0
O427 O 0.74124 0.33406 0.19168 0.0
O428 O 0.7449 0.30136 0.16437 0.0
O429 O 0.73482 0.3292 0.14549 0.0
O430 O 0.68012 0.33146 0.16325 0.0
O431 O 0.67436 0.34831 0.13887 0.0
H432 H 0.7287 0.44403 0.09515 0.0
H433 H 0.75018 0.4518 0.07022 0.0
H434 H 0.77377 0.35883 0.06793 0.0
H435 H 0.75083 0.35113 0.09257 0.0
H436 H 0.7285 0.2827 0.20026 0.0
H437 H 0.70619 0.24858 0.21772 0.0
H438 H 0.63993 0.31459 0.22976 0.0
H439 H 0.66383 0.34949 0.21261 0.0
C440 C 0.39038 0.96729 0.36008 0.0
Eu441 Eu 0.41076 0.96686 0.38799 0.0
C442 C 0.3858 0.98534 0.34608 0.0
C443 C 0.35702 0.98862 0.34007 0.0
C444 C 0.3525 1.00129 0.32572 0.0
C445 C 0.37667 1.01131 0.31687 0.0
C446 C 0.40543 1.00907 0.32327 0.0
C447 C 0.40993 0.99614 0.33756 0.0
C448 C 0.38019 0.95089 0.41393 0.0
C449 C 0.40186 0.03182 0.40365 0.0
C450 C 0.46189 0.97748 0.44365 0.0
Eu451 Eu 0.44052 0.97969 0.41666 0.0
C452 C 0.47434 0.9536 0.45291 0.0
C453 C 0.50384 0.95576 0.45772 0.0
C454 C 0.51423 0.93738 0.46914 0.0
C455 C 0.49481 0.91721 0.47632 0.0
C456 C 0.46713 0.91145 0.46948 0.0
C457 C 0.45673 0.92986 0.45795 0.0
C458 C 0.46973 1.00416 0.39325 0.0
C459 C 0.44911 0.91341 0.40117 0.0
O460 O 0.41765 0.96024 0.36381 0.0
O461 O 0.3736 0.97225 0.37194 0.0
O462 O 0.38154 0.93403 0.40197 0.0
O463 O 0.39397 0.97416 0.41122 0.0
O464 O 0.40403 0.01701 0.39072 0.0
O465 O 0.41126 0.01992 0.4164 0.0
O466 O 0.43335 0.97621 0.44081 0.0
O467 O 0.47784 0.98563 0.432 0.0
O468 O 0.46428 0.01723 0.40601 0.0
O469 O 0.45872 0.97811 0.39317 0.0
O470 O 0.4509 0.93022 0.41343 0.0
O471 O 0.43577 0.92339 0.38891 0.0
H472 H 0.33797 0.98027 0.34623 0.0
H473 H 0.33 1.00206 0.32139 0.0
H474 H 0.42474 0.01706 0.31722 0.0
H475 H 0.43249 0.994 0.34175 0.0
H476 H 0.51813 0.97328 0.45356 0.0
H477 H 0.5361 0.94223 0.47362 0.0
H478 H 0.45204 0.89535 0.47431 0.0
H479 H 0.43417 0.9269 0.4539 0.0
C480 C 0.23317 0.32262 0.35097 0.0
Eu481 Eu 0.22736 0.34221 0.37822 0.0
C482 C 0.21184 0.30876 0.34066 0.0
C483 C 0.21755 0.28009 0.33544 0.0
C484 C 0.1996 0.2677 0.32434 0.0
C485 C 0.17588 0.28414 0.31799 0.0
C486 C 0.16795 0.3113 0.3247 0.0
C487 C 0.18595 0.32363 0.3359 0.0
C488 C 0.24184 0.30668 0.40172 0.0
C489 C 0.16447 0.33391 0.39366 0.0
C490 C 0.21665 0.3901 0.43457 0.0
Eu491 Eu 0.22169 0.3727 0.40629 0.0
C492 C 0.23423 0.39501 0.44873 0.0
C493 C 0.23522 0.42341 0.45528 0.0
C494 C 0.24826 0.42802 0.46955 0.0
C495 C 0.26097 0.40434 0.47776 0.0
C496 C 0.26095 0.37606 0.47085 0.0
C497 C 0.24766 0.37143 0.45663 0.0
C498 C 0.20628 0.40525 0.38088 0.0
C499 C 0.2834 0.38047 0.39041 0.0
O500 O 0.22903 0.35068 0.35406 0.0
O501 O 0.24033 0.30689 0.3628 0.0
O502 O 0.22291 0.30009 0.39125 0.0
O503 O 0.2502 0.33334 0.40024 0.0
O504 O 0.17832 0.334 0.38053 0.0
O505 O 0.17777 0.34549 0.40576 0.0
O506 O 0.21253 0.3628 0.43001 0.0
O507 O 0.22055 0.40834 0.42326 0.0
O508 O 0.22264 0.41552 0.39178 0.0
O509 O 0.19882 0.37941 0.3842 0.0
O510 O 0.2711 0.37752 0.40381 0.0
O511 O 0.2688 0.37169 0.37824 0.0
H512 H 0.23693 0.26791 0.33931 0.0
H513 H 0.20664 0.24665 0.31963 0.0
H514 H 0.14967 0.32431 0.32024 0.0
H515 H 0.18043 0.3454 0.34017 0.0
H516 H 0.22495 0.44203 0.44957 0.0
H517 H 0.24727 0.45011 0.47431 0.0
H518 H 0.27105 0.35722 0.47642 0.0
H519 H 0.24744 0.3492 0.45198 0.0
C520 C 0.9539 0.97967 0.10002 0.0
Eu521 Eu 0.93745 0.97583 0.12774 0.0
C522 C 0.97323 0.96023 0.091 0.0
C523 C 1.00059 0.97085 0.08589 0.0
C524 C 0.01735 0.95418 0.07575 0.0
C525 C 1.00666 0.92676 0.07024 0.0
C526 C 0.98111 0.91457 0.07688 0.0
C527 C 0.96441 0.93123 0.08715 0.0
C528 C 0.97638 0.98297 0.15098 0.0
C529 C 0.94473 0.91213 0.1431 0.0
C530 C 0.88896 0.96763 0.18496 0.0
Eu531 Eu 0.90854 0.96712 0.15698 0.0
C532 C 0.88497 0.98578 0.199 0.0
C533 C 0.85615 0.99103 0.2047 0.0
C534 C 0.85191 1.00422 0.21897 0.0
C535 C 0.87641 1.01205 0.22801 0.0
C536 C 0.90523 1.00752 0.2222 0.0
C537 C 0.90949 0.99474 0.20784 0.0
C538 C 0.87657 0.95033 0.13159 0.0
C539 C 0.90276 0.03223 0.14163 0.0
O540 O 0.92842 0.96819 0.10408 0.0
O541 O 0.9668 0.99503 0.11078 0.0
O542 O 0.98105 0.9665 0.13921 0.0
O543 O 0.94983 0.99247 0.1507 0.0
O544 O 0.94019 0.92568 0.13007 0.0
O545 O 0.93818 0.926 0.15587 0.0
O546 O 0.91607 0.96006 0.18104 0.0
O547 O 0.87193 0.97297 0.17325 0.0
O548 O 0.87886 0.93359 0.14349 0.0
O549 O 0.89097 0.97329 0.13398 0.0
O550 O 0.89912 0.01627 0.15404 0.0
O551 O 0.9165 0.02128 0.12963 0.0
H552 H 1.00818 0.99281 0.08903 0.0
H553 H 0.03694 0.96458 0.07101 0.0
H554 H 0.97247 0.89348 0.07301 0.0
H555 H 0.94376 0.92198 0.09134 0.0
H556 H 0.83682 0.98401 0.19831 0.0
H557 H 0.82946 1.00726 0.22319 0.0
H558 H 0.92451 1.01354 0.22888 0.0
H559 H 0.93203 0.99103 0.2039 0.0
C560 C 0.306 0.70404 0.8498 0.0
Eu561 Eu 0.30291 0.68566 0.8773 0.0
C562 C 0.32868 0.72035 0.84127 0.0
C563 C 0.32365 0.75013 0.83776 0.0
C564 C 0.34141 0.76417 0.82711 0.0
C565 C 0.36394 0.74826 0.8194 0.0
C566 C 0.3722 0.72025 0.82499 0.0
C567 C 0.35436 0.70613 0.83569 0.0
C568 C 0.27818 0.71727 0.89996 0.0
C569 C 0.36876 0.69765 0.89301 0.0
C570 C 0.31587 0.64018 0.93449 0.0
Eu571 Eu 0.31595 0.65892 0.90632 0.0
C572 C 0.29755 0.63451 0.94832 0.0
C573 C 0.2982 0.60637 0.95508 0.0
C574 C 0.28531 0.60156 0.96937 0.0
C575 C 0.27116 0.62478 0.97738 0.0
C576 C 0.26947 0.65272 0.97022 0.0
C577 C 0.28258 0.65754 0.95598 0.0
C578 C 0.33267 0.62688 0.88093 0.0
C579 C 0.2513 0.64712 0.89073 0.0
O580 O 0.31276 0.67691 0.85371 0.0
O581 O 0.29206 0.71884 0.86042 0.0
O582 O 0.26505 0.7105 0.88739 0.0
O583 O 0.30436 0.70624 0.9003 0.0
O584 O 0.352 0.69855 0.8807 0.0
O585 O 0.35892 0.68463 0.90535 0.0
O586 O 0.32009 0.66769 0.93046 0.0
O587 O 0.31352 0.62242 0.92283 0.0
O588 O 0.35023 0.63063 0.89249 0.0
O589 O 0.30879 0.63981 0.88364 0.0
O590 O 0.26577 0.65078 0.90367 0.0
O591 O 0.26345 0.65556 0.87787 0.0
H592 H 0.30453 0.7619 0.84229 0.0
H593 H 0.33447 0.78607 0.82355 0.0
H594 H 0.39005 0.70777 0.81971 0.0
H595 H 0.35948 0.68341 0.83868 0.0
H596 H 0.30981 0.58823 0.94957 0.0
H597 H 0.28761 0.57978 0.97433 0.0
H598 H 0.25824 0.67114 0.97565 0.0
H599 H 0.28161 0.67959 0.95118 0.0
C600 C 0.57715 0.05369 0.60009 0.0
Eu601 Eu 0.59613 0.0506 0.6275 0.0
C602 C 0.56477 0.07775 0.59089 0.0
C603 C 0.53478 0.07667 0.58677 0.0
C604 C 0.52412 0.09509 0.57543 0.0
C605 C 0.54371 0.11415 0.5676 0.0
C606 C 0.57212 0.11909 0.57381 0.0
C607 C 0.58282 0.1006 0.58523 0.0
C608 C 0.56454 0.0275 0.65043 0.0
C609 C 0.58514 0.11663 0.64316 0.0
C610 C 0.63837 0.06303 0.68553 0.0
Eu611 Eu 0.62323 0.06388 0.65684 0.0
C612 C 0.64859 0.04644 0.69915 0.0
C613 C 0.66618 0.0613 0.70984 0.0
C614 C 0.67209 0.04875 0.72404 0.0
C615 C 0.66043 0.02087 0.72808 0.0
C616 C 0.64377 1.00539 0.71706 0.0
C617 C 0.63785 0.01804 0.70279 0.0
C618 C 0.65537 0.07992 0.63149 0.0
C619 C 0.63572 0.999 0.64084 0.0
O620 O 0.60537 0.0556 0.6036 0.0
O621 O 0.56049 0.04432 0.61124 0.0
O622 O 0.57121 1.01361 0.63804 0.0
O623 O 0.57582 0.05338 0.65041 0.0
O624 O 0.5852 0.10018 0.63071 0.0
O625 O 0.59695 0.1064 0.65575 0.0
O626 O 0.61162 0.05749 0.68047 0.0
O627 O 0.65713 0.06971 0.67471 0.0
O628 O 0.65245 0.09728 0.64323 0.0
O629 O 0.64202 0.05636 0.63412 0.0
O630 O 0.63568 1.01498 0.65346 0.0
O631 O 0.62385 1.00926 0.62825 0.0
H632 H 0.52014 0.0599 0.59139 0.0
H633 H 0.50169 0.09098 0.57151 0.0
H634 H 0.58739 0.13447 0.56853 0.0
H635 H 0.60583 0.10279 0.58873 0.0
H636 H 0.67452 0.0833 0.70742 0.0
H637 H 0.68556 0.06125 0.73193 0.0
H638 H 0.63419 0.98399 0.71963 0.0
H639 H 0.62398 1.00607 0.69485 0.0
C640 C 0.3638 0.23302 0.25106 0.0
C641 C 0.37021 0.25589 0.24073 0.0
C642 C 0.34273 0.23807 0.26235 0.0
C643 C 0.27789 0.28254 0.2583 0.0
H644 H 0.24888 0.23903 0.29298 0.0
C645 C 0.17347 0.30118 0.29182 0.0
C646 C 0.16763 0.27801 0.30203 0.0
C647 C 0.19295 0.296 0.27983 0.0
C648 C 0.25659 0.25065 0.28301 0.0
H649 H 0.37199 0.30359 0.23851 0.0
H650 H 0.33527 0.31272 0.25825 0.0
H651 H 0.30221 0.24091 0.28805 0.0
H652 H 0.16455 0.23034 0.30383 0.0
H653 H 0.19852 0.22099 0.28291 0.0
H654 H 0.23225 0.29243 0.25333 0.0
C655 C 0.34386 0.29044 0.25676 0.0
C656 C 0.28715 0.25228 0.28044 0.0
C657 C 0.36523 0.28521 0.24558 0.0
C658 C 0.17089 0.2488 0.29671 0.0
C659 C 0.1907 0.24343 0.28482 0.0
C660 C 0.24732 0.28094 0.26089 0.0
C661 C 0.32979 0.26628 0.26374 0.0
C662 C 0.29811 0.26834 0.2681 0.0
C663 C 0.20486 0.26748 0.27779 0.0
C664 C 0.23637 0.26492 0.27324 0.0
H665 H 0.36924 0.21015 0.24851 0.0
H666 H 0.33324 0.21906 0.26804 0.0
H667 H 0.28561 0.29423 0.24836 0.0
H668 H 0.16924 0.32406 0.2949 0.0
H669 H 0.2025 0.31497 0.27413 0.0
C670 C 0.54624 0.42111 0.55136 0.0
C671 C 0.51752 0.41209 0.55573 0.0
C672 C 0.54902 0.44202 0.53982 0.0
C673 C 0.50497 0.48879 0.51344 0.0
H674 H 0.53089 0.55226 0.54012 0.0
C675 C 0.48334 0.59993 0.49339 0.0
C676 C 0.51234 0.60805 0.48913 0.0
C677 C 0.47974 0.58093 0.5057 0.0
C678 C 0.52335 0.53474 0.53265 0.0
H679 H 0.47287 0.40497 0.54685 0.0
H680 H 0.47779 0.43987 0.52662 0.0
H681 H 0.54133 0.50082 0.54678 0.0
H682 H 0.55675 0.61573 0.49805 0.0
H683 H 0.55055 0.58369 0.51946 0.0
H684 H 0.48709 0.52261 0.49928 0.0
C685 C 0.49756 0.43417 0.53301 0.0
C686 C 0.52991 0.50537 0.53624 0.0
C687 C 0.49486 0.41379 0.54473 0.0
C688 C 0.53452 0.60767 0.50038 0.0
C689 C 0.53105 0.58894 0.51275 0.0
C690 C 0.49842 0.51813 0.50985 0.0
C691 C 0.52351 0.45124 0.53191 0.0
C692 C 0.52085 0.48212 0.52663 0.0
C693 C 0.50488 0.57224 0.51407 0.0
C694 C 0.50744 0.54141 0.51946 0.0
H695 H 0.56496 0.41782 0.5589 0.0
H696 H 0.56982 0.45387 0.53861 0.0
H697 H 0.49749 0.47128 0.50595 0.0
H698 H 0.4652 0.6019 0.48537 0.0
H699 H 0.45879 0.56938 0.507 0.0
C700 C 0.17136 0.79697 0.75142 0.0
C701 C 0.16543 0.77397 0.74103 0.0
C702 C 0.19202 0.79218 0.7629 0.0
C703 C 0.25765 0.74875 0.75953 0.0
H704 H 0.28415 0.79246 0.79476 0.0
C705 C 0.36333 0.73249 0.79281 0.0
C706 C 0.3692 0.75548 0.80321 0.0
C707 C 0.34272 0.73729 0.78131 0.0
C708 C 0.27713 0.78076 0.78466 0.0
H709 H 0.16451 0.72622 0.73868 0.0
H710 H 0.2007 0.71764 0.75869 0.0
H711 H 0.2311 0.78961 0.78919 0.0
H712 H 0.3702 0.80322 0.80556 0.0
H713 H 0.33411 0.81185 0.78551 0.0
H714 H 0.30368 0.7399 0.755 0.0
C715 C 0.19185 0.7398 0.75717 0.0
C716 C 0.24674 0.77858 0.78171 0.0
C717 C 0.17083 0.74472 0.74581 0.0
C718 C 0.36391 0.78473 0.79841 0.0
C719 C 0.34293 0.78968 0.78703 0.0
C720 C 0.28804 0.75093 0.76248 0.0
C721 C 0.20525 0.76414 0.76437 0.0
C722 C 0.23669 0.76249 0.76914 0.0
C723 C 0.32953 0.76535 0.77982 0.0
C724 C 0.29809 0.76702 0.77505 0.0
H725 H 0.16572 0.81976 0.74888 0.0
H726 H 0.20102 0.81131 0.76873 0.0
H727 H 0.25063 0.73705 0.74943 0.0
H728 H 0.36894 0.70969 0.79537 0.0
H729 H 0.33372 0.71817 0.77548 0.0
C730 C 0.99515 0.41767 1.00112 0.0
C731 C 1.01703 0.41503 0.98974 0.0
C732 C 0.99915 0.43822 1.0127 0.0
C733 C 0.03357 0.5086 1.00897 0.0
H734 H 0.99185 0.5275 0.04614 0.0
C735 C 0.04002 0.61321 0.04399 0.0
C736 C 0.01724 0.61583 0.05491 0.0
C737 C 0.03688 0.59277 0.03228 0.0
C738 C 1.00293 0.52253 0.03553 0.0
H739 H 0.06429 0.41991 0.98557 0.0
H740 H 0.0714 0.45616 1.00569 0.0
H741 H 1.00081 0.47577 0.03948 0.0
H742 H 0.96965 0.61116 0.05805 0.0
H743 H 0.9641 0.57493 0.0378 0.0
H744 H 0.03579 0.5554 1.00508 0.0
C745 C 0.05024 0.44479 1.00489 0.0
C746 C 1.00862 0.49297 0.03193 0.0
C747 C 0.04618 0.4238 0.99345 0.0
C748 C 0.98837 0.60726 0.05056 0.0
C749 C 0.98518 0.5863 0.03902 0.0
C750 C 0.02794 0.53817 1.0126 0.0
C751 C 0.02554 0.45471 1.01328 0.0
C752 C 0.024 0.4857 1.01862 0.0
C753 C 1.0105 0.57639 0.03114 0.0
C754 C 1.01242 0.5454 0.02586 0.0
H755 H 0.97282 0.40929 0.99947 0.0
H756 H 0.97996 0.44445 1.01945 0.0
H757 H 0.0446 0.50366 0.99835 0.0
H758 H 0.06222 0.62148 0.04612 0.0
H759 H 0.05654 0.58648 0.02591 0.0
C760 C 0.67654 0.78513 0.7933 0.0
C761 C 0.67419 0.76305 0.80446 0.0
C762 C 0.69603 0.78066 0.78124 0.0
C763 C 0.76503 0.74293 0.78479 0.0
H764 H 0.78724 0.78652 0.74886 0.0
C765 C 0.8696 0.73321 0.75006 0.0
C766 C 0.87302 0.7565 0.73961 0.0
C767 C 0.84962 0.73672 0.76199 0.0
C768 C 0.78135 0.77489 0.75914 0.0
H769 H 0.67781 0.71589 0.80827 0.0
H770 H 0.71123 0.70758 0.78701 0.0
H771 H 0.73468 0.77959 0.75475 0.0
H772 H 0.87148 0.80427 0.7376 0.0
H773 H 0.83622 0.81064 0.75828 0.0
H774 H 0.8117 0.73807 0.78911 0.0
C775 C 0.70075 0.72912 0.78824 0.0
C776 C 0.75129 0.77036 0.76228 0.0
C777 C 0.68119 0.73378 0.8003 0.0
C778 C 0.86679 0.7854 0.74477 0.0
C779 C 0.8463 0.78905 0.75653 0.0
C780 C 0.79506 0.74738 0.78161 0.0
C781 C 0.71143 0.75363 0.78009 0.0
C782 C 0.74281 0.75425 0.77511 0.0
C783 C 0.83483 0.76391 0.76381 0.0
C784 C 0.80351 0.76348 0.7688 0.0
H785 H 0.66949 0.80769 0.79559 0.0
H786 H 0.7028 0.79979 0.77471 0.0
H787 H 0.75924 0.73135 0.7951 0.0
H788 H 0.87633 0.71079 0.74727 0.0
H789 H 0.84216 0.71707 0.7679 0.0
C790 C 0.6709 0.28434 0.25346 0.0
C791 C 0.6688 0.26516 0.24091 0.0
C792 C 0.69191 0.27844 0.26461 0.0
C793 C 0.76381 0.24636 0.2585 0.0
H794 H 0.7824 0.28557 0.29631 0.0
C795 C 0.86573 0.24283 0.29545 0.0
C796 C 0.86513 0.26604 0.30613 0.0
C797 C 0.84807 0.24517 0.28255 0.0
C798 C 0.77748 0.27517 0.28554 0.0
H799 H 0.6756 0.21967 0.23381 0.0
H800 H 0.7123 0.20908 0.25333 0.0
H801 H 0.7308 0.27464 0.29025 0.0
H802 H 0.85898 0.31333 0.30855 0.0
H803 H 0.82818 0.31769 0.28608 0.0
H804 H 0.81081 0.24632 0.25407 0.0
C805 C 0.70017 0.22986 0.25383 0.0
C806 C 0.748 0.26836 0.28225 0.0
C807 C 0.67888 0.23584 0.24274 0.0
C808 C 0.85773 0.29453 0.30092 0.0
C809 C 0.83981 0.29699 0.28809 0.0
C810 C 0.79341 0.25286 0.2619 0.0
C811 C 0.70949 0.25274 0.26352 0.0
C812 C 0.74077 0.25421 0.26861 0.0
C813 C 0.8315 0.27116 0.28026 0.0
C814 C 0.80041 0.26779 0.27532 0.0
H815 H 0.6617 0.30653 0.25316 0.0
H816 H 0.69759 0.29618 0.27236 0.0
H817 H 0.75894 0.23616 0.24768 0.0
H818 H 0.87334 0.22088 0.29859 0.0
H819 H 0.84303 0.22514 0.27627 0.0
C820 C 0.99283 0.91776 0.04397 0.0
C821 C 1.01577 0.91736 0.05482 0.0
C822 C 0.99541 0.93676 0.03164 0.0
C823 C 0.04218 0.99825 1.01707 0.0
H824 H 0.97573 0.04571 0.03177 0.0
C825 C 0.04352 0.11303 1.00045 0.0
C826 C 0.02018 0.11343 0.98982 0.0
C827 C 0.04127 0.09415 1.01284 0.0
C828 C 0.99443 0.03277 0.02766 0.0
H829 H 0.06317 0.92304 0.05765 0.0
H830 H 0.06799 0.95642 0.0364 0.0
H831 H 0.97727 0.9928 0.03697 0.0
H832 H 0.97257 0.10849 0.9876 0.0
H833 H 0.96832 0.07517 1.00889 0.0
H834 H 0.05932 0.03819 1.00773 0.0
C835 C 0.04716 0.94471 0.03781 0.0
C836 C 0.99509 1.00236 0.03033 0.0
C837 C 0.04448 0.92521 0.04998 0.0
C838 C 0.99158 0.10613 0.99505 0.0
C839 C 0.98922 0.08665 1.00725 0.0
C840 C 0.04151 0.02866 1.01439 0.0
C841 C 0.02139 0.95367 0.03002 0.0
C842 C 0.01893 0.98477 0.02501 0.0
C843 C 1.01524 0.07742 1.01474 0.0
C844 C 0.01768 0.04627 1.01972 0.0
H845 H 0.97079 0.90965 0.04669 0.0
H846 H 0.97564 0.94201 0.02514 0.0
H847 H 0.06089 0.9853 1.01299 0.0
H848 H 0.06551 0.12094 0.99748 0.0
H849 H 0.06125 0.08881 1.01916 0.0
C850 C 0.52727 0.91546 0.499 0.0
C851 C 0.49855 0.91241 0.49287 0.0
C852 C 0.53201 0.93702 0.5101 0.0
C853 C 0.49284 1.00626 0.51394 0.0
H854 H 0.56038 0.02932 0.53838 0.0
C855 C 0.50971 0.11528 0.54546 0.0
C856 C 0.53888 0.11827 0.55106 0.0
C857 C 0.50395 0.09315 0.53479 0.0
C858 C 0.54175 0.02325 0.53125 0.0
H859 H 0.45157 0.91711 0.49854 0.0
H860 H 0.45964 0.95277 0.51844 0.0
H861 H 0.5508 0.97695 0.53396 0.0
H862 H 0.58537 0.11278 0.54456 0.0
H863 H 0.57551 0.07603 0.52542 0.0
H864 H 0.48381 0.05259 0.51124 0.0
C865 C 0.47885 0.94202 0.51338 0.0
C866 C 0.53602 0.99323 0.52898 0.0
C867 C 0.47432 0.92105 0.50203 0.0
C868 C 0.56235 0.10888 0.54157 0.0
C869 C 0.5568 0.0873 0.53065 0.0
C870 C 0.49855 0.03628 0.51623 0.0
C871 C 0.5076 0.95304 0.51588 0.0
C872 C 0.51152 0.9844 0.5203 0.0
C873 C 0.52776 0.07653 0.52883 0.0
C874 C 0.52319 0.04508 0.5248 0.0
H875 H 0.54642 0.90695 0.49289 0.0
H876 H 0.55464 0.94407 0.51227 0.0
H877 H 0.47427 1.00023 0.50676 0.0
H878 H 0.49109 0.12445 0.55174 0.0
H879 H 0.48111 0.08626 0.53309 0.0
C880 C 0.17278 0.0634 0.93833 0.0
C881 C 0.16815 0.08729 0.92835 0.0
C882 C 0.18336 0.06786 0.95306 0.0
C883 C 0.19453 0.12632 0.98292 0.0
H884 H 0.24242 0.06458 1.00131 0.0
C885 C 0.22843 0.13116 0.04675 0.0
C886 C 0.25618 0.11923 0.05113 0.0
C887 C 0.21756 0.12751 0.03192 0.0
C888 C 0.22939 0.08234 0.9964 0.0
H889 H 0.17125 0.1349 0.92625 0.0
H890 H 0.19072 0.14289 0.95196 0.0
H891 H 0.22574 0.05901 0.97541 0.0
H892 H 0.29433 0.0945 0.0427 0.0
H893 H 0.27559 0.08817 1.01721 0.0
H894 H 0.1993 0.15016 1.0038 0.0
C895 C 0.18565 0.1205 0.94841 0.0
C896 C 0.21928 0.0789 0.98146 0.0
C897 C 0.17483 0.11597 0.93355 0.0
C898 C 0.27259 0.10352 0.04008 0.0
C899 C 0.26173 0.09988 0.02529 0.0
C900 C 0.2049 0.12989 0.99786 0.0
C901 C 0.1901 0.09646 0.95844 0.0
C902 C 0.20155 0.10075 0.97441 0.0
C903 C 0.23401 0.11181 1.02088 0.0
C904 C 0.22255 0.10796 1.0049 0.0
H905 H 0.16771 0.04094 0.93482 0.0
H906 H 0.18562 0.04869 0.96031 0.0
H907 H 0.18066 0.14356 0.97814 0.0
H908 H 0.21473 0.14302 0.05484 0.0
H909 H 0.19592 0.13668 0.02922 0.0
C910 C 0.67058 0.52729 0.28869 0.0
C911 C 0.66403 0.50805 0.30079 0.0
C912 C 0.6745 0.51651 0.27392 0.0
C913 C 0.68908 0.44705 0.2517 0.0
H914 H 0.66239 0.49514 0.21799 0.0
C915 C 0.71947 0.41806 0.18964 0.0
C916 C 0.69749 0.42093 0.17832 0.0
C917 C 0.71472 0.42846 0.20439 0.0
C918 C 0.66974 0.48126 0.22724 0.0
H919 H 0.65663 0.46194 0.30649 0.0
H920 H 0.66267 0.44323 0.28071 0.0
H921 H 0.65529 0.51289 0.24382 0.0
H922 H 0.65362 0.43852 0.1737 0.0
H923 H 0.64552 0.45779 0.1995 0.0
H924 H 0.70315 0.41523 0.23508 0.0
C925 C 0.66525 0.46677 0.2827 0.0
C926 C 0.66604 0.49164 0.24214 0.0
C927 C 0.66138 0.47758 0.29754 0.0
C928 C 0.67094 0.43576 0.1821 0.0
C929 C 0.66637 0.44679 0.19691 0.0
C930 C 0.69285 0.43672 0.2368 0.0
C931 C 0.67181 0.48608 0.27061 0.0
C932 C 0.67566 0.47475 0.25465 0.0
C933 C 0.68805 0.44286 0.20834 0.0
C934 C 0.68327 0.45366 0.22431 0.0
H935 H 0.67238 0.55094 0.29055 0.0
H936 H 0.67995 0.53218 0.26509 0.0
H937 H 0.69715 0.43343 0.26091 0.0
H938 H 0.74039 0.40702 0.18723 0.0
H939 H 0.73221 0.42539 0.21268 0.0
C940 C 0.28711 0.93783 0.54657 0.0
C941 C 0.27536 0.91031 0.55118 0.0
C942 C 0.29773 0.94215 0.53175 0.0
C943 C 0.29747 0.90732 0.49267 0.0
H944 H 0.36145 0.96289 0.48558 0.0
C945 C 0.35596 0.91698 0.4335 0.0
C946 C 0.36632 0.945 0.42907 0.0
C947 C 0.34465 0.91243 0.44825 0.0
C948 C 0.34331 0.94747 0.48721 0.0
H949 H 0.26557 0.86586 0.54311 0.0
H950 H 0.28553 0.87274 0.51794 0.0
H951 H 0.34248 0.95617 0.51103 0.0
H952 H 0.37201 0.99039 0.4367 0.0
H953 H 0.35222 0.98275 0.46187 0.0
H954 H 0.29853 0.89853 0.46882 0.0
C955 C 0.28589 0.89145 0.52562 0.0
C956 C 0.33228 0.94362 0.50198 0.0
C957 C 0.27486 0.88727 0.54035 0.0
C958 C 0.36454 0.96835 0.43967 0.0
C959 C 0.35333 0.96388 0.45429 0.0
C960 C 0.30859 0.91109 0.47791 0.0
C961 C 0.29743 0.919 0.52096 0.0
C962 C 0.30912 0.92343 0.50504 0.0
C963 C 0.34335 0.93581 0.45896 0.0
C964 C 0.3317 0.93128 0.47487 0.0
H965 H 0.28842 0.95621 0.55442 0.0
H966 H 0.30588 0.96391 0.52876 0.0
H967 H 0.27925 0.892 0.49427 0.0
H968 H 0.35708 0.89848 0.42569 0.0
H969 H 0.33749 0.89037 0.45133 0.0
C970 C 0.86748 0.60927 0.6844 0.0
C971 C 0.83861 0.61207 0.67843 0.0
C972 C 0.87187 0.59898 0.69934 0.0
C973 C 0.83236 0.55867 0.73092 0.0
H974 H 0.89671 0.58918 0.75552 0.0
C975 C 0.85915 0.50762 0.78974 0.0
C976 C 0.87094 0.52564 0.80133 0.0
C977 C 0.85528 0.51844 0.77497 0.0
C978 C 0.87835 0.58054 0.74895 0.0
H979 H 0.79179 0.60631 0.68362 0.0
H980 H 0.79927 0.58867 0.70922 0.0
H981 H 0.88995 0.60745 0.72984 0.0
H982 H 0.88745 0.56983 0.80607 0.0
H983 H 0.88057 0.58867 0.78051 0.0
H984 H 0.81993 0.53267 0.75012 0.0
C985 C 0.81875 0.59382 0.70251 0.0
C986 C 0.87476 0.59077 0.734 0.0
C987 C 0.81442 0.60414 0.68773 0.0
C988 C 0.8787 0.55497 0.79754 0.0
C989 C 0.87476 0.56584 0.78275 0.0
C990 C 0.83579 0.54864 0.74587 0.0
C991 C 0.84753 0.59102 0.70866 0.0
C992 C 0.85175 0.57996 0.72467 0.0
C993 C 0.863 0.54777 0.77115 0.0
C994 C 0.85896 0.55921 0.75518 0.0
H995 H 0.88656 0.61568 0.67768 0.0
H996 H 0.89443 0.59708 0.70353 0.0
H997 H 0.81451 0.54936 0.72422 0.0
H998 H 0.85346 0.48474 0.79193 0.0
H999 H 0.84678 0.50338 0.76648 0.0
C1000 C 0.86017 0.96746 0.10605 0.0
C1001 C 0.86283 0.94401 0.11649 0.0
C1002 C 0.8495 0.96275 0.09136 0.0
C1003 C 0.80792 0.90859 0.06708 0.0
H1004 H 0.84092 0.95583 0.03461 0.0
C1005 C 0.77569 0.88607 1.00425 0.0
C1006 C 0.77583 0.90952 0.9937 0.0
C1007 C 0.78645 0.88994 1.01905 0.0
C1008 C 0.83093 0.94266 0.04347 0.0
H1009 H 0.85584 0.89703 0.1195 0.0
H1010 H 0.83713 0.8885 0.0937 0.0
H1011 H 0.85892 0.96256 0.06021 0.0
H1012 H 0.78818 0.95578 0.99107 0.0
H1013 H 0.80484 0.96293 1.01684 0.0
H1014 H 0.77969 0.8889 0.05038 0.0
C1015 C 0.84314 0.91081 0.09699 0.0
C1016 C 0.84144 0.94652 0.05832 0.0
C1017 C 0.8539 0.9156 0.11183 0.0
C1018 C 0.78703 0.93708 0.99868 0.0
C1019 C 0.79726 0.94109 1.01358 0.0
C1020 C 0.79729 0.90483 0.05222 0.0
C1021 C 0.84102 0.93432 0.08644 0.0
C1022 C 0.83011 0.92959 0.07044 0.0
C1023 C 0.7973 0.91757 0.02408 0.0
C1024 C 0.80859 0.92176 0.04009 0.0
H1025 H 0.86669 0.98975 0.1092 0.0
H1026 H 0.84771 0.98168 0.08391 0.0
H1027 H 0.79814 0.8954 0.076 0.0
H1028 H 0.76687 0.86458 1.00122 0.0
H1029 H 0.78641 0.87094 0.0265 0.0
C1030 C 0.36772 0.60928 0.85996 0.0
C1031 C 0.33887 0.6131 0.86582 0.0
C1032 C 0.37202 0.59869 0.84504 0.0
C1033 C 0.33162 0.55958 0.81328 0.0
H1034 H 0.39748 0.58762 0.78897 0.0
C1035 C 0.35793 0.50729 0.75457 0.0
C1036 C 0.37021 0.52497 0.743 0.0
C1037 C 0.35417 0.51829 0.76933 0.0
C1038 C 0.37871 0.57969 0.79547 0.0
H1039 H 0.29196 0.60875 0.86047 0.0
H1040 H 0.29926 0.59079 0.83488 0.0
H1041 H 0.39095 0.60624 0.81465 0.0
H1042 H 0.38771 0.56879 0.73833 0.0
H1043 H 0.38113 0.58789 0.7639 0.0
H1044 H 0.31861 0.53395 0.794 0.0
C1045 C 0.31879 0.59531 0.84167 0.0
C1046 C 0.37524 0.5901 0.81041 0.0
C1047 C 0.31457 0.60585 0.85644 0.0
C1048 C 0.37859 0.55415 0.74683 0.0
C1049 C 0.3748 0.56518 0.76163 0.0
C1050 C 0.33495 0.54936 0.79834 0.0
C1051 C 0.34757 0.59149 0.83562 0.0
C1052 C 0.35167 0.58018 0.81963 0.0
C1053 C 0.36254 0.54745 0.77319 0.0
C1054 C 0.35865 0.55907 0.78914 0.0
H1055 H 0.3869 0.61507 0.86676 0.0
H1056 H 0.39457 0.59596 0.84094 0.0
H1057 H 0.31332 0.55095 0.8199 0.0
H1058 H 0.35177 0.48451 0.75237 0.0
H1059 H 0.34524 0.5035 0.77781 0.0
C1060 C 0.72953 0.13204 0.49811 0.0
C1061 C 0.75671 0.11912 0.49352 0.0
C1062 C 0.71852 0.12815 0.5129 0.0
C1063 C 0.72904 0.08123 0.5479 0.0
H1064 H 0.68168 0.14298 0.56679 0.0
C1065 C 0.67335 0.06225 0.60623 0.0
C1066 C 0.66887 0.08613 0.6163 0.0
C1067 C 0.68368 0.06673 0.59146 0.0
C1068 C 0.69518 0.12557 0.56184 0.0
H1069 H 0.79377 0.09239 0.50149 0.0
H1070 H 0.77495 0.08582 0.52693 0.0
H1071 H 0.70042 0.14988 0.54121 0.0
H1072 H 0.6721 0.13372 0.61852 0.0
H1073 H 0.6913 0.14173 0.59279 0.0
H1074 H 0.7251 0.05749 0.56869 0.0
C1075 C 0.76153 0.09843 0.51906 0.0
C1076 C 0.7056 0.12933 0.54693 0.0
C1077 C 0.77246 0.10224 0.5043 0.0
C1078 C 0.67553 0.1148 0.61115 0.0
C1079 C 0.68618 0.11934 0.59627 0.0
C1080 C 0.71897 0.07764 0.56284 0.0
C1081 C 0.73433 0.11129 0.52369 0.0
C1082 C 0.72276 0.10723 0.53965 0.0
C1083 C 0.69043 0.09532 0.58613 0.0
C1084 C 0.70174 0.09968 0.57013 0.0
H1085 H 0.71638 0.14487 0.49021 0.0
H1086 H 0.69728 0.13808 0.51574 0.0
H1087 H 0.74163 0.0633 0.54281 0.0
H1088 H 0.66833 0.03979 0.6097 0.0
H1089 H 0.68576 0.04756 0.58414 0.0
C1090 C 0.18379 0.40354 0.35492 0.0
C1091 C 0.20203 0.41825 0.36543 0.0
C1092 C 0.18072 0.41376 0.34001 0.0
C1093 C 0.21158 0.47043 0.31205 0.0
H1094 H 0.14227 0.44615 0.28915 0.0
C1095 C 0.18118 0.5238 0.25389 0.0
C1096 C 0.16795 0.50606 0.24258 0.0
C1097 C 0.18611 0.51289 0.26858 0.0
C1098 C 0.162 0.45299 0.29524 0.0
H1099 H 0.231 0.45597 0.36842 0.0
H1100 H 0.22421 0.47524 0.34285 0.0
H1101 H 0.14864 0.42884 0.31473 0.0
H1102 H 0.15002 0.46223 0.23828 0.0
H1103 H 0.15838 0.4434 0.26373 0.0
H1104 H 0.22412 0.49549 0.29245 0.0
C1105 C 0.21301 0.45488 0.34577 0.0
C1106 C 0.16589 0.44282 0.31014 0.0
C1107 C 0.21666 0.44409 0.36066 0.0
C1108 C 0.15982 0.47693 0.24658 0.0
C1109 C 0.16467 0.46604 0.26129 0.0
C1110 C 0.20742 0.48096 0.2972 0.0
C1111 C 0.195 0.43986 0.33505 0.0
C1112 C 0.19084 0.45116 0.31894 0.0
C1113 C 0.17787 0.48383 0.27259 0.0
C1114 C 0.18258 0.47238 0.28849 0.0
H1115 H 0.17206 0.38363 0.35819 0.0
H1116 H 0.16733 0.40058 0.33241 0.0
H1117 H 0.23149 0.47725 0.31796 0.0
H1118 H 0.18724 0.54653 0.25156 0.0
H1119 H 0.1958 0.52763 0.2769 0.0
C1120 C 0.75902 0.64346 0.54015 0.0
C1121 C 0.75896 0.62017 0.55078 0.0
C1122 C 0.74823 0.63936 0.52536 0.0
C1123 C 0.70319 0.58665 0.50128 0.0
H1124 H 0.73619 0.63291 0.46844 0.0
C1125 C 0.6719 0.56164 0.43892 0.0
C1126 C 0.66977 0.58493 0.42836 0.0
C1127 C 0.68298 0.56632 0.45354 0.0
C1128 C 0.72633 0.62 0.47744 0.0
H1129 H 0.74691 0.57392 0.55362 0.0
H1130 H 0.7299 0.56639 0.52788 0.0
H1131 H 0.75507 0.63957 0.49397 0.0
H1132 H 0.67819 0.63161 0.42507 0.0
H1133 H 0.69752 0.6401 0.45075 0.0
H1134 H 0.6746 0.56695 0.48475 0.0
C1135 C 0.73751 0.58827 0.53105 0.0
C1136 C 0.73723 0.62386 0.49225 0.0
C1137 C 0.74788 0.5925 0.54592 0.0
C1138 C 0.67963 0.61315 0.43285 0.0
C1139 C 0.69079 0.61791 0.44762 0.0
C1140 C 0.69237 0.58274 0.48648 0.0
C1141 C 0.73736 0.61166 0.52046 0.0
C1142 C 0.72586 0.60729 0.5045 0.0
C1143 C 0.69241 0.59458 0.45829 0.0
C1144 C 0.70374 0.59931 0.47424 0.0
H1145 H 0.76778 0.66502 0.5431 0.0
H1146 H 0.74823 0.65823 0.51783 0.0
H1147 H 0.69318 0.57375 0.51025 0.0
H1148 H 0.66471 0.53949 0.43592 0.0
H1149 H 0.68436 0.54748 0.46108 0.0
C1150 C 0.1765 0.02318 0.78987 0.0
C1151 C 0.16281 1.00612 0.80126 0.0
C1152 C 0.18029 1.01207 0.77515 0.0
C1153 C 0.15407 0.95181 0.74872 0.0
H1154 H 0.2214 0.9782 0.72495 0.0
C1155 C 0.16625 0.9223 0.68433 0.0
C1156 C 0.19514 0.9175 0.67872 0.0
C1157 C 0.16183 0.93289 0.69923 0.0
C1158 C 0.20256 0.97021 0.73139 0.0
H1159 H 0.14273 0.96336 0.80571 0.0
H1160 H 0.14954 0.94392 0.7802 0.0
H1161 H 0.21588 0.99517 0.75083 0.0
H1162 H 0.24201 0.9201 0.68446 0.0
H1163 H 0.23449 0.93805 0.71003 0.0
H1164 H 0.14155 0.92582 0.72939 0.0
C1165 C 0.15692 0.96627 0.78256 0.0
C1166 C 0.19909 0.98045 0.74631 0.0
C1167 C 0.15303 0.97746 0.79732 0.0
C1168 C 0.21937 0.92376 0.68831 0.0
C1169 C 0.21503 0.9343 0.70307 0.0
C1170 C 0.15771 0.94134 0.73381 0.0
C1171 C 0.17062 0.98338 0.77117 0.0
C1172 C 0.17467 0.97163 0.75526 0.0
C1173 C 0.18621 0.93909 0.70887 0.0
C1174 C 0.18197 0.95042 0.72483 0.0
H1175 H 0.18379 0.04558 0.7922 0.0
H1176 H 0.19031 0.02644 0.76679 0.0
H1177 H 0.13475 0.94459 0.75502 0.0
H1178 H 0.14711 0.91731 0.67734 0.0
H1179 H 0.13925 0.9364 0.70314 0.0
C1180 C 0.7747 0.38725 0.03999 0.0
C1181 C 0.77545 0.41039 0.05076 0.0
C1182 C 0.78529 0.39133 0.02518 0.0
C1183 C 0.8304 0.44385 1.00106 0.0
H1184 H 0.79668 0.39762 0.9683 0.0
C1185 C 0.85921 0.46906 0.93848 0.0
C1186 C 0.86211 0.44558 0.928 0.0
C1187 C 0.84855 0.46434 0.95317 0.0
C1188 C 0.8067 0.41052 0.97729 0.0
H1189 H 0.78854 0.45637 0.05378 0.0
H1190 H 0.80495 0.46394 0.02799 0.0
H1191 H 0.77819 0.39109 0.9939 0.0
H1192 H 0.85531 0.39856 0.92492 0.0
H1193 H 0.83636 0.39008 0.95068 0.0
H1194 H 0.85859 0.46358 0.98436 0.0
C1195 C 0.79705 0.44215 0.03108 0.0
C1196 C 0.79606 0.40673 0.99213 0.0
C1197 C 0.78698 0.4379 0.04599 0.0
C1198 C 0.85325 0.41716 0.93261 0.0
C1199 C 0.84237 0.41239 0.94743 0.0
C1200 C 0.84087 0.44777 0.9862 0.0
C1201 C 0.79655 0.4189 1.02037 0.0
C1202 C 0.80773 0.42326 1.00435 0.0
C1203 C 0.84016 0.4359 0.95803 0.0
C1204 C 0.82923 0.43117 0.97402 0.0
H1205 H 0.76556 0.36583 0.04286 0.0
H1206 H 0.78481 0.37253 1.01757 0.0
H1207 H 0.84065 0.45672 1.00998 0.0
H1208 H 0.86558 0.49137 0.93541 0.0
H1209 H 0.8467 0.48325 0.96068 0.0
C1210 C 0.31295 0.10981 0.18919 0.0
C1211 C 0.33629 0.11134 0.17853 0.0
C1212 C 0.31763 0.09896 0.20384 0.0
C1213 C 0.36993 0.05381 0.22742 0.0
H1214 H 0.32759 0.09103 0.26066 0.0
C1215 C 0.39434 0.02015 0.28982 0.0
C1216 C 0.37204 0.0231 0.30099 0.0
C1217 C 0.39011 0.03087 0.27505 0.0
C1218 C 0.33934 0.07985 0.2516 0.0
H1219 H 0.38297 0.10174 0.17507 0.0
H1220 H 0.39134 0.08238 0.20074 0.0
H1221 H 0.32054 0.10916 0.2351 0.0
H1222 H 0.32738 0.04026 0.30476 0.0
H1223 H 0.31937 0.05699 0.27907 0.0
H1224 H 0.38829 0.0241 0.24378 0.0
C1225 C 0.36919 0.08972 0.19768 0.0
C1226 C 0.33532 0.09045 0.23678 0.0
C1227 C 0.36448 0.10086 0.18292 0.0
C1228 C 0.34517 0.03698 0.29666 0.0
C1229 C 0.34072 0.04721 0.28179 0.0
C1230 C 0.37375 0.043 0.24223 0.0
C1231 C 0.34586 0.08889 0.20846 0.0
C1232 C 0.35059 0.07768 0.22439 0.0
C1233 C 0.36316 0.04451 0.27066 0.0
C1234 C 0.35864 0.05585 0.25467 0.0
H1235 H 0.29078 0.11738 0.18627 0.0
H1236 H 0.29884 0.09823 0.21151 0.0
H1237 H 0.38174 0.04292 0.21828 0.0
H1238 H 0.41519 1.00917 0.29234 0.0
H1239 H 0.40836 0.0286 0.26714 0.0
C1240 C 0.35289 0.4165 0.61129 0.0
C1241 C 0.36268 0.44471 0.61581 0.0
C1242 C 0.34174 0.41178 0.59652 0.0
C1243 C 0.34046 0.44666 0.55767 0.0
H1244 H 0.27684 0.39076 0.55039 0.0
C1245 C 0.28508 0.43644 0.49819 0.0
C1246 C 0.27324 0.40893 0.49356 0.0
C1247 C 0.2956 0.44084 0.51302 0.0
C1248 C 0.29495 0.40618 0.55204 0.0
H1249 H 0.36761 0.49021 0.6083 0.0
H1250 H 0.34813 0.48224 0.5831 0.0
H1251 H 0.29576 0.3975 0.57589 0.0
H1252 H 0.26338 0.36453 0.50158 0.0
H1253 H 0.28329 0.3715 0.52674 0.0
H1254 H 0.33994 0.45522 0.53387 0.0
C1255 C 0.34949 0.46341 0.59064 0.0
C1256 C 0.30586 0.41009 0.56683 0.0
C1257 C 0.36048 0.46806 0.60528 0.0
C1258 C 0.27271 0.38594 0.50435 0.0
C1259 C 0.28369 0.39018 0.51909 0.0
C1260 C 0.32967 0.44265 0.54288 0.0
C1261 C 0.34011 0.43516 0.58589 0.0
C1262 C 0.32877 0.43044 0.56995 0.0
C1263 C 0.2952 0.41776 0.52378 0.0
C1264 C 0.30669 0.4223 0.53973 0.0
H1265 H 0.35437 0.398 0.61904 0.0
H1266 H 0.33502 0.3896 0.59336 0.0
H1267 H 0.35845 0.46222 0.55939 0.0
H1268 H 0.2865 0.45478 0.49036 0.0
H1269 H 0.30375 0.46261 0.51603 0.0
C1270 C 0.88369 1.0083 0.25618 0.0
C1271 C 0.87198 0.02364 0.24371 0.0
C1272 C 0.87923 0.01873 0.271 0.0
C1273 C 0.83676 0.0776 0.29357 0.0
H1274 H 0.8892 0.05047 0.32544 0.0
C1275 C 0.81456 0.11113 0.35586 0.0
C1276 C 0.83818 0.11347 0.36628 0.0
C1277 C 0.819 0.09991 0.34125 0.0
C1278 C 0.87453 0.05883 0.31673 0.0
H1279 H 0.84668 0.06218 0.237 0.0
H1280 H 0.84068 0.08175 0.26247 0.0
H1281 H 0.8969 0.03324 0.2999 0.0
H1282 H 0.88522 0.10536 0.36933 0.0
H1283 H 0.89344 0.08627 0.34364 0.0
H1284 H 0.81597 0.10504 0.31021 0.0
C1285 C 0.85221 0.06084 0.26119 0.0
C1286 C 0.87853 0.04827 0.30187 0.0
C1287 C 0.85589 0.04983 0.2464 0.0
C1288 C 0.86651 0.10377 0.36166 0.0
C1289 C 0.87109 0.09268 0.34685 0.0
C1290 C 0.83332 0.08877 0.30832 0.0
C1291 C 0.86368 0.04548 0.27389 0.0
C1292 C 0.8596 0.05719 0.28992 0.0
C1293 C 0.8474 0.09076 0.3363 0.0
C1294 C 0.85191 0.0794 0.32029 0.0
H1295 H 0.89587 0.9878 0.25446 0.0
H1296 H 0.88781 1.0053 0.28012 0.0
H1297 H 0.82105 0.08502 0.28512 0.0
H1298 H 0.7923 0.11819 0.35898 0.0
H1299 H 0.79978 0.09823 0.33393 0.0
C1300 C 0.17936 0.61334 0.11105 0.0
C1301 C 0.16997 0.58507 0.11563 0.0
C1302 C 0.19053 0.61796 0.09627 0.0
C1303 C 0.19299 0.58208 0.0575 0.0
H1304 H 0.25475 0.63985 0.04999 0.0
C1305 C 0.24869 0.59231 0.99807 0.0
C1306 C 0.25918 0.62018 0.99323 0.0
C1307 C 0.23829 0.58798 1.01292 0.0
C1308 C 0.23717 0.62387 0.05172 0.0
H1309 H 0.16578 0.53937 0.10822 0.0
H1310 H 0.18538 0.54714 0.08304 0.0
H1311 H 0.23589 0.63319 0.07552 0.0
H1312 H 0.26692 0.66529 1.00092 0.0
H1313 H 0.24735 0.65829 0.02616 0.0
H1314 H 0.19407 0.57281 0.03374 0.0
C1315 C 0.18365 0.56611 0.09052 0.0
C1316 C 0.22628 0.62002 0.06652 0.0
C1317 C 0.1726 0.56157 0.10516 0.0
C1318 C 0.25862 0.64357 1.00386 0.0
C1319 C 0.24783 0.63935 1.01863 0.0
C1320 C 0.2038 0.58599 0.0427 0.0
C1321 C 0.19262 0.59441 0.08568 0.0
C1322 C 0.20401 0.59902 0.06973 0.0
C1323 C 0.23756 0.61145 0.02352 0.0
C1324 C 0.22612 0.60699 0.03948 0.0
H1325 H 0.17755 0.63197 0.11874 0.0
H1326 H 0.1969 0.64019 0.09307 0.0
H1327 H 0.17548 0.56601 0.05925 0.0
H1328 H 0.24821 0.57364 0.99036 0.0
H1329 H 0.23113 0.56597 1.01609 0.0
C1330 C 0.66768 0.97816 0.7466 0.0
C1331 C 0.66476 1.0088 0.74387 0.0
C1332 C 0.67139 0.96718 0.76139 0.0
C1333 C 0.66257 0.98905 0.80238 0.0
H1334 H 0.71013 0.91866 0.8093 0.0
C1335 C 0.66975 0.93148 0.86186 0.0
C1336 C 0.6973 0.91902 0.86594 0.0
C1337 C 0.66522 0.94278 0.84711 0.0
C1338 C 0.69691 0.9385 0.80767 0.0
H1339 H 0.66307 0.05169 0.75506 0.0
H1340 H 0.67068 0.03286 0.78044 0.0
H1341 H 0.70459 0.93769 0.78374 0.0
H1342 H 0.74195 0.90968 0.85774 0.0
H1343 H 0.7341 0.92887 0.83248 0.0
H1344 H 0.65572 0.9903 0.82642 0.0
C1345 C 0.66961 0.01707 0.77122 0.0
C1346 C 0.69338 0.94927 0.79286 0.0
C1347 C 0.66573 0.028 0.75648 0.0
C1348 C 0.72023 0.91875 0.85503 0.0
C1349 C 0.71568 0.92965 0.84039 0.0
C1350 C 0.66619 0.97831 0.81721 0.0
C1351 C 0.67238 0.98644 0.774 0.0
C1352 C 0.67614 0.97477 0.78991 0.0
C1353 C 0.68805 0.94168 0.83607 0.0
C1354 C 0.68347 0.95288 0.82014 0.0
H1355 H 0.66736 0.96251 0.7373 0.0
H1356 H 0.67306 0.94343 0.7629 0.0
H1357 H 0.64878 1.00848 0.80074 0.0
H1358 H 0.65164 0.93212 0.86994 0.0
H1359 H 0.64357 0.95177 0.84428 0.0
C1360 C 0.41574 0.21 0.13784 0.0
C1361 C 0.39833 0.20932 0.1511 0.0
C1362 C 0.44407 0.22334 0.1377 0.0
C1363 C 0.50425 0.25299 0.16387 0.0
H1364 H 0.5355 0.28464 0.12646 0.0
C1365 C 0.62523 0.29962 0.16176 0.0
C1366 C 0.63389 0.31957 0.15036 0.0
C1367 C 0.59698 0.28623 0.16165 0.0
C1368 C 0.52734 0.27649 0.13717 0.0
H1369 H 0.39763 0.22263 0.17468 0.0
H1370 H 0.44615 0.24635 0.17441 0.0
H1371 H 0.4863 0.26332 0.12688 0.0
H1372 H 0.6188 0.34116 0.1299 0.0
H1373 H 0.56937 0.3194 0.13003 0.0
H1374 H 0.54414 0.26788 0.17445 0.0
C1375 C 0.43849 0.23603 0.16407 0.0
C1376 C 0.49884 0.26346 0.13733 0.0
C1377 C 0.41023 0.22253 0.16422 0.0
C1378 C 0.61316 0.32582 0.13886 0.0
C1379 C 0.58457 0.31291 0.13891 0.0
C1380 C 0.53243 0.26661 0.16379 0.0
C1381 C 0.45612 0.23674 0.15081 0.0
C1382 C 0.48669 0.25121 0.15066 0.0
C1383 C 0.57573 0.2927 0.1503 0.0
C1384 C 0.54488 0.27851 0.15041 0.0
H1385 H 0.4075 0.20019 0.12747 0.0
H1386 H 0.45663 0.22267 0.12725 0.0
H1387 H 0.4965 0.2436 0.1744 0.0
H1388 H 0.64047 0.29396 0.1708 0.0
H1389 H 0.59226 0.27043 0.1705 0.0
C1390 C 0.56603 0.66173 0.41496 0.0
C1391 C 0.5742 0.64734 0.4014 0.0
C1392 C 0.55262 0.69 0.41485 0.0
C1393 C 0.51379 0.74489 0.38919 0.0
H1394 H 0.52901 0.79843 0.42244 0.0
C1395 C 0.46041 0.86386 0.38863 0.0
C1396 C 0.46272 0.88283 0.40123 0.0
C1397 C 0.47379 0.83555 0.38857 0.0
C1398 C 0.52372 0.78425 0.413 0.0
H1399 H 0.57434 0.65208 0.37701 0.0
H1400 H 0.55173 0.70131 0.37678 0.0
H1401 H 0.55164 0.75033 0.42232 0.0
H1402 H 0.48115 0.88618 0.42378 0.0
H1403 H 0.50336 0.8377 0.42405 0.0
H1404 H 0.48588 0.77805 0.37977 0.0
C1405 C 0.55517 0.69064 0.3876 0.0
C1406 C 0.53709 0.75596 0.41299 0.0
C1407 C 0.56851 0.66229 0.38771 0.0
C1408 C 0.47871 0.87237 0.41382 0.0
C1409 C 0.4919 0.84399 0.41384 0.0
C1410 C 0.50021 0.77312 0.38922 0.0
C1411 C 0.5469 0.70512 0.40117 0.0
C1412 C 0.53246 0.73563 0.4011 0.0
C1413 C 0.49002 0.82465 0.40118 0.0
C1414 C 0.50473 0.79379 0.40113 0.0
H1415 H 0.56975 0.65103 0.42576 0.0
H1416 H 0.54627 0.69972 0.42559 0.0
H1417 H 0.50903 0.73008 0.37986 0.0
H1418 H 0.44832 0.87094 0.37867 0.0
H1419 H 0.4713 0.82272 0.37835 0.0
C1420 C 0.91057 0.72276 0.66485 0.0
C1421 C 0.89884 0.70985 0.65162 0.0
C1422 C 0.9389 0.7361 0.66489 0.0
C1423 C 0.99963 0.76372 0.63847 0.0
H1424 H 0.04468 0.76749 0.6757 0.0
C1425 C 0.1133 0.82637 0.6403 0.0
C1426 C 0.13431 0.82 0.65166 0.0
C1427 C 0.08481 0.81341 0.64042 0.0
C1428 C 0.033 0.76641 0.66503 0.0
H1429 H 0.90839 0.701 0.62799 0.0
H1430 H 0.95762 0.72318 0.6281 0.0
H1431 H 0.99691 0.74327 0.67545 0.0
H1432 H 0.14141 0.79432 0.67202 0.0
H1433 H 0.09303 0.77066 0.67187 0.0
H1434 H 0.03638 0.78494 0.62776 0.0
C1435 C 0.94488 0.72379 0.63849 0.0
C1436 C 1.0048 0.75283 0.66498 0.0
C1437 C 0.91649 0.71063 0.63844 0.0
C1438 C 0.12591 0.80001 0.66308 0.0
C1439 C 0.09764 0.78654 0.66305 0.0
C1440 C 0.02812 0.77669 0.63843 0.0
C1441 C 0.95675 0.73692 0.65171 0.0
C1442 C 0.98735 0.7513 0.65172 0.0
C1443 C 0.07626 0.79297 0.65174 0.0
C1444 C 0.04553 0.77857 0.65174 0.0
H1445 H 0.89778 0.72273 0.67525 0.0
H1446 H 0.94646 0.74621 0.67531 0.0
H1447 H 0.98719 0.76377 0.62799 0.0
H1448 H 0.11872 0.84173 0.63132 0.0
H1449 H 0.06949 0.82 0.63162 0.0
C1450 C 0.96538 0.36703 0.88783 0.0
C1451 C 0.96261 0.38368 0.90129 0.0
C1452 C 0.9787 0.33866 0.88782 0.0
C1453 C 0.99971 0.27548 0.91349 0.0
H1454 H 0.0494 0.2513 0.87983 0.0
C1455 C 0.06417 0.16257 0.9153 0.0
C1456 C 0.07277 0.14841 0.90176 0.0
C1457 C 0.05107 0.19103 0.91522 0.0
C1458 C 0.03523 0.25708 0.88929 0.0
H1459 H 0.97192 0.38283 0.92536 0.0
H1460 H 0.99491 0.33374 0.92535 0.0
H1461 H 0.02591 0.29976 0.87964 0.0
H1462 H 0.07377 0.15365 0.87741 0.0
H1463 H 0.05023 0.20214 0.87712 0.0
H1464 H 1.0081 0.23278 0.92301 0.0
C1465 C 0.98662 0.34244 0.91475 0.0
C1466 C 0.0217 0.28534 0.88918 0.0
C1467 C 0.97352 0.37088 0.91474 0.0
C1468 C 0.06766 0.16369 0.88812 0.0
C1469 C 0.05424 0.19199 0.888 0.0
C1470 C 1.01286 0.24706 0.91351 0.0
C1471 C 0.98954 0.32575 0.90129 0.0
C1472 C 1.00378 0.29519 0.90131 0.0
C1473 C 0.04562 0.20645 0.90156 0.0
C1474 C 0.03111 0.23714 0.90145 0.0
H1475 H 0.95735 0.37595 0.87722 0.0
H1476 H 0.98007 0.32667 0.87722 0.0
H1477 H 0.98576 0.28174 0.92297 0.0
H1478 H 0.0676 0.15169 0.92607 0.0
H1479 H 0.04564 0.20091 0.92603 0.0
C1480 C 0.6193 0.81555 0.87917 0.0
C1481 C 0.63347 0.82393 0.89273 0.0
C1482 C 0.591 0.80212 0.87924 0.0
C1483 C 0.52505 0.78507 0.90512 0.0
H1484 H 0.50129 0.73596 0.87124 0.0
C1485 C 0.41585 0.71453 0.90637 0.0
C1486 C 0.39917 0.7117 0.89294 0.0
C1487 C 0.44412 0.72803 0.90638 0.0
C1488 C 0.5073 0.74981 0.88077 0.0
H1489 H 0.62847 0.82409 0.9171 0.0
H1490 H 0.58013 0.80002 0.91736 0.0
H1491 H 0.55015 0.75866 0.87131 0.0
H1492 H 0.39985 0.7211 0.86889 0.0
H1493 H 0.44885 0.74447 0.86889 0.0
H1494 H 0.48224 0.77532 0.9147 0.0
C1495 C 0.59019 0.80448 0.90648 0.0
C1496 C 0.53564 0.76316 0.88082 0.0
C1497 C 0.61837 0.81823 0.90639 0.0
C1498 C 0.41185 0.72274 0.87949 0.0
C1499 C 0.44022 0.73606 0.87948 0.0
C1500 C 0.49686 0.77136 0.90516 0.0
C1501 C 0.57574 0.7961 0.8929 0.0
C1502 C 0.54521 0.78129 0.89296 0.0
C1503 C 0.45691 0.73906 0.89293 0.0
C1504 C 0.48734 0.75356 0.89296 0.0
H1505 H 0.63007 0.81937 0.86838 0.0
H1506 H 0.5811 0.79687 0.86842 0.0
H1507 H 0.53058 0.79913 0.91463 0.0
H1508 H 0.40702 0.70641 0.91698 0.0
H1509 H 0.45613 0.72943 0.91697 0.0
C1510 C 0.45525 0.36218 0.65437 0.0
C1511 C 0.46205 0.38302 0.64307 0.0
C1512 C 0.46812 0.33364 0.65429 0.0
C1513 C 0.51564 0.28158 0.62978 0.0
H1514 H 0.51685 0.23554 0.66665 0.0
C1515 C 0.55915 0.15923 0.62971 0.0
C1516 C 0.57138 0.14713 0.64302 0.0
C1517 C 0.54586 0.18758 0.6297 0.0
C1518 C 0.51731 0.24802 0.65622 0.0
H1519 H 0.48846 0.38979 0.62286 0.0
H1520 H 0.51195 0.3414 0.62308 0.0
H1521 H 0.4959 0.28476 0.66693 0.0
H1522 H 0.57906 0.1561 0.6668 0.0
H1523 H 0.55706 0.20532 0.66674 0.0
H1524 H 0.53898 0.2455 0.61936 0.0
C1525 C 0.4958 0.34614 0.63183 0.0
C1526 C 0.50447 0.27656 0.65628 0.0
C1527 C 0.48243 0.37444 0.63175 0.0
C1528 C 0.56997 0.16446 0.65629 0.0
C1529 C 0.55689 0.19287 0.65627 0.0
C1530 C 0.52911 0.25332 0.62981 0.0
C1531 C 0.48889 0.32489 0.64306 0.0
C1532 C 0.50312 0.29407 0.64304 0.0
C1533 C 0.54443 0.20512 0.64299 0.0
C1534 C 0.53013 0.23577 0.643 0.0
H1535 H 0.43958 0.36774 0.66327 0.0
H1536 H 0.46119 0.31846 0.66304 0.0
H1537 H 0.51496 0.29331 0.61914 0.0
H1538 H 0.55965 0.1467 0.61924 0.0
H1539 H 0.53626 0.19541 0.61922 0.0
C1540 C 0.11781 0.31783 0.40802 0.0
C1541 C 0.13382 0.32054 0.3944 0.0
C1542 C 0.08948 0.30426 0.40832 0.0
C1543 C 0.0377 0.25726 0.38386 0.0
H1544 H 0.97996 0.27721 0.41483 0.0
C1545 C 0.91481 0.21615 0.3803 0.0
C1546 C 0.89994 0.20847 0.39378 0.0
C1547 C 0.94304 0.22967 0.38063 0.0
C1548 C 0.99582 0.27108 0.40613 0.0
H1549 H 0.13174 0.31123 0.37031 0.0
H1550 H 0.08291 0.2892 0.37068 0.0
H1551 H 0.02853 0.30088 0.41501 0.0
H1552 H 0.90363 0.20946 0.41823 0.0
H1553 H 0.95269 0.23262 0.41881 0.0
H1554 H 1.00469 0.22789 0.37485 0.0
C1555 C 0.09214 0.29643 0.38136 0.0
C1556 C 0.02405 0.28472 0.40625 0.0
C1557 C 0.12041 0.3096 0.3811 0.0
C1558 C 0.91426 0.21487 0.40759 0.0
C1559 C 0.94247 0.22848 0.40792 0.0
C1560 C 1.00941 0.24394 0.38365 0.0
C1561 C 0.07603 0.29312 0.39497 0.0
C1562 C 0.04566 0.27819 0.39509 0.0
C1563 C 0.95745 0.23612 0.39445 0.0
C1564 C 0.98787 0.25056 0.39476 0.0
H1565 H 0.1273 0.32587 0.41852 0.0
H1566 H 0.07848 0.3021 0.41915 0.0
H1567 H 0.05344 0.25054 0.37524 0.0
H1568 H 0.90458 0.21188 0.36942 0.0
H1569 H 0.95334 0.23551 0.36997 0.0
C1570 C 0.05124 0.65536 0.13167 0.0
C1571 C 0.07031 0.64634 0.14341 0.0
C1572 C 0.03772 0.68356 0.13176 0.0
C1573 C 0.0308 0.75499 0.15603 0.0
H1574 H 0.98468 0.78013 0.12142 0.0
C1575 C 0.96394 0.86661 0.15697 0.0
C1576 C 0.95847 0.88164 0.1433 0.0
C1577 C 0.97736 0.8383 0.15708 0.0
C1578 C 0.99784 0.77398 0.13117 0.0
H1579 H 0.09027 0.66075 0.16444 0.0
H1580 H 0.0683 0.70944 0.16449 0.0
H1581 H 1.00861 0.73282 0.12096 0.0
H1582 H 0.96355 0.87829 0.11896 0.0
H1583 H 0.98746 0.82996 0.11911 0.0
H1584 H 0.02099 0.79744 0.16574 0.0
C1585 C 0.06252 0.69509 0.15518 0.0
C1586 C 1.01154 0.74587 0.13108 0.0
C1587 C 0.07564 0.66667 0.15518 0.0
C1588 C 0.96707 0.86749 0.12975 0.0
C1589 C 0.98071 0.83935 0.12985 0.0
C1590 C 0.01754 0.78336 0.15597 0.0
C1591 C 0.04298 0.70445 0.1435 0.0
C1592 C 0.02836 0.73533 0.14354 0.0
C1593 C 0.9861 0.82401 0.14352 0.0
C1594 C 1.00063 0.79349 0.14357 0.0
H1595 H 0.04641 0.64044 0.12238 0.0
H1596 H 0.02293 0.6883 0.12248 0.0
H1597 H 0.04284 0.74898 0.16612 0.0
H1598 H 0.9578 0.87668 0.16767 0.0
H1599 H 0.98044 0.82756 0.1679 0.0
C1600 C 0.2443 0.24943 0.1302 0.0
C1601 C 0.27157 0.2456 0.13769 0.0
C1602 C 0.2317 0.2777 0.12877 0.0
C1603 C 0.22752 0.34689 0.14956 0.0
H1604 H 0.19288 0.37952 0.11309 0.0
C1605 C 0.17276 0.46287 0.15032 0.0
C1606 C 0.15056 0.46957 0.13972 0.0
C1607 C 0.18851 0.43613 0.14945 0.0
C1608 C 0.20178 0.37066 0.12351 0.0
H1609 H 0.30711 0.26804 0.14957 0.0
H1610 H 0.28512 0.31755 0.14709 0.0
H1611 H 0.21881 0.33221 0.11203 0.0
H1612 H 0.12685 0.45337 0.12006 0.0
H1613 H 0.15244 0.40593 0.11915 0.0
H1614 H 0.2092 0.38387 0.16137 0.0
C1615 C 0.27379 0.2988 0.14205 0.0
C1616 C 0.21701 0.34358 0.1228 0.0
C1617 C 0.28666 0.27061 0.1432 0.0
C1618 C 0.14397 0.44879 0.12838 0.0
C1619 C 0.15904 0.42163 0.12777 0.0
C1620 C 0.21163 0.37354 0.15038 0.0
C1621 C 0.2458 0.30249 0.13518 0.0
C1622 C 0.23024 0.33156 0.13579 0.0
C1623 C 0.18185 0.41489 0.1382 0.0
C1624 C 0.19859 0.38607 0.13735 0.0
H1625 H 0.23174 0.23033 0.12641 0.0
H1626 H 0.20996 0.27985 0.12358 0.0
H1627 H 0.23703 0.33782 0.15983 0.0
H1628 H 0.17864 0.4787 0.15906 0.0
H1629 H 0.2063 0.43258 0.15748 0.0
C1630 C 0.32592 0.40114 0.37505 0.0
C1631 C 0.31323 0.39452 0.38919 0.0
C1632 C 0.35341 0.41575 0.37413 0.0
C1633 C 0.42084 0.43446 0.39691 0.0
H1634 H 0.43182 0.49541 0.36659 0.0
C1635 C 0.53331 0.49557 0.38986 0.0
C1636 C 0.53153 0.52656 0.3883 0.0
C1637 C 0.50766 0.47805 0.38869 0.0
C1638 C 0.42912 0.47851 0.37516 0.0
H1639 H 0.31977 0.39796 0.41346 0.0
H1640 H 0.36718 0.42349 0.41187 0.0
H1641 H 0.38524 0.46785 0.36744 0.0
H1642 H 0.50179 0.56334 0.38406 0.0
H1643 H 0.45719 0.53284 0.38149 0.0
H1644 H 0.46435 0.4458 0.40493 0.0
C1645 C 0.35625 0.41709 0.40145 0.0
C1646 C 0.40248 0.46243 0.37554 0.0
C1647 C 0.32886 0.40256 0.40236 0.0
C1648 C 0.50387 0.53948 0.38496 0.0
C1649 C 0.47832 0.52196 0.38356 0.0
C1650 C 0.44748 0.45052 0.39652 0.0
C1651 C 0.36892 0.42403 0.38734 0.0
C1652 C 0.39785 0.44031 0.38649 0.0
C1653 C 0.47972 0.49108 0.38576 0.0
C1654 C 0.45193 0.47291 0.38569 0.0
H1655 H 0.31448 0.39534 0.36467 0.0
H1656 H 0.36258 0.42041 0.36306 0.0
H1657 H 0.4183 0.4174 0.40541 0.0
H1658 H 0.55418 0.48503 0.39288 0.0
H1659 H 0.50963 0.45436 0.39036 0.0
C1660 C 0.28891 0.78045 0.62981 0.0
C1661 C 0.26177 0.78446 0.63741 0.0
C1662 C 0.30163 0.75218 0.62852 0.0
C1663 C 0.3063 0.68349 0.64968 0.0
H1664 H 0.3404 0.64995 0.61318 0.0
C1665 C 0.36039 0.56714 0.65044 0.0
C1666 C 0.38267 0.56028 0.63986 0.0
C1667 C 0.34477 0.59395 0.64957 0.0
C1668 C 0.33164 0.65907 0.6236 0.0
H1669 H 0.22661 0.7623 0.64971 0.0
H1670 H 0.24879 0.71282 0.64748 0.0
H1671 H 0.31451 0.69728 0.61205 0.0
H1672 H 0.40661 0.57629 0.62026 0.0
H1673 H 0.38117 0.62383 0.61934 0.0
H1674 H 0.32465 0.64665 0.66152 0.0
C1675 C 0.25993 0.73141 0.64223 0.0
C1676 C 0.31645 0.68616 0.62286 0.0
C1677 C 0.24695 0.75959 0.64323 0.0
C1678 C 0.38944 0.58098 0.62855 0.0
C1679 C 0.37446 0.60819 0.62794 0.0
C1680 C 0.32212 0.65679 0.65052 0.0
C1681 C 0.28778 0.72756 0.6352 0.0
C1682 C 0.30341 0.69852 0.63586 0.0
C1683 C 0.3516 0.61508 0.63834 0.0
C1684 C 0.33495 0.64395 0.63747 0.0
H1685 H 0.3013 0.79945 0.62579 0.0
H1686 H 0.32326 0.74992 0.6232 0.0
H1687 H 0.29695 0.69279 0.65996 0.0
H1688 H 0.35437 0.55137 0.65914 0.0
H1689 H 0.32692 0.59766 0.65758 0.0
C1690 C 1.00007 0.54272 0.88552 0.0
C1691 C 0.99713 0.51257 0.88898 0.0
C1692 C 0.02814 0.55551 0.884 0.0
C1693 C 0.10622 0.54402 0.89633 0.0
H1694 H 0.11947 0.61239 0.87076 0.0
C1695 C 0.20949 0.61977 0.9035 0.0
C1696 C 0.22209 0.63189 0.89034 0.0
C1697 C 0.18251 0.60429 0.9028 0.0
C1698 C 0.11645 0.5931 0.87786 0.0
H1699 H 0.02114 0.47182 0.89327 0.0
H1700 H 0.07057 0.49379 0.88991 0.0
H1701 H 0.07314 0.58536 0.86878 0.0
H1702 H 0.21616 0.63715 0.86611 0.0
H1703 H 0.16986 0.60989 0.86484 0.0
H1704 H 0.15011 0.55126 0.90502 0.0
C1705 C 0.0511 0.50773 0.88851 0.0
C1706 C 0.08956 0.57777 0.87686 0.0
C1707 C 0.02282 0.49492 0.89005 0.0
C1708 C 0.20707 0.62827 0.87651 0.0
C1709 C 0.18029 0.61272 0.87579 0.0
C1710 C 0.13336 0.55918 0.89719 0.0
C1711 C 0.05413 0.53842 0.88592 0.0
C1712 C 0.08388 0.55317 0.88618 0.0
C1713 C 0.16756 0.6005 0.88891 0.0
C1714 C 0.13878 0.58406 0.88802 0.0
H1715 H 0.98059 0.55696 0.88517 0.0
H1716 H 0.02933 0.57923 0.88231 0.0
H1717 H 0.10259 0.52552 0.90388 0.0
H1718 H 0.22054 0.62205 0.91433 0.0
H1719 H 0.17326 0.59556 0.91318 0.0
C1720 C 0.7846 0.78164 0.90487 0.0
C1721 C 0.75337 0.78021 0.90584 0.0
C1722 C 0.80187 0.75576 0.90581 0.0
C1723 C 0.79943 0.67686 0.91776 0.0
H1724 H 0.86276 0.66655 0.88834 0.0
C1725 C 0.87684 0.57465 0.91881 0.0
C1726 C 0.88443 0.56152 0.90487 0.0
C1727 C 0.86216 0.602 0.91933 0.0
C1728 C 0.84505 0.669 0.89658 0.0
H1729 H 0.71586 0.7509 0.90883 0.0
H1730 H 0.74585 0.70591 0.91096 0.0
H1731 H 0.83481 0.71304 0.88913 0.0
H1732 H 0.88277 0.56711 0.88053 0.0
H1733 H 0.85696 0.61483 0.88142 0.0
H1734 H 0.80899 0.63262 0.92494 0.0
C1735 C 0.75713 0.7269 0.90954 0.0
C1736 C 0.82927 0.69582 0.89717 0.0
C1737 C 0.7399 0.75268 0.90841 0.0
C1738 C 0.8773 0.57661 0.89145 0.0
C1739 C 0.86264 0.60407 0.89197 0.0
C1740 C 0.8152 0.6501 0.91719 0.0
C1741 C 0.78828 0.72798 0.9079 0.0
C1742 C 0.80615 0.70004 0.90773 0.0
C1743 C 0.85468 0.61701 0.90592 0.0
C1744 C 0.83816 0.64575 0.90656 0.0
H1745 H 0.79559 0.80246 0.90246 0.0
H1746 H 0.8258 0.75743 0.9046 0.0
H1747 H 0.78193 0.67938 0.92611 0.0
H1748 H 0.88196 0.5637 0.92939 0.0
H1749 H 0.85681 0.61144 0.93028 0.0
C1750 C 0.7086 0.61913 0.641 0.0
C1751 C 0.72165 0.63072 0.65419 0.0
C1752 C 0.68158 0.60372 0.64176 0.0
C1753 C 0.61643 0.59163 0.66727 0.0
H1754 H 0.60119 0.52539 0.64041 0.0
C1755 C 0.49962 0.5417 0.66052 0.0
C1756 C 0.49644 0.51177 0.65657 0.0
C1757 C 0.52779 0.55438 0.66184 0.0
C1758 C 0.60523 0.5435 0.64819 0.0
H1759 H 0.71651 0.63505 0.67853 0.0
H1760 H 0.67025 0.60784 0.67989 0.0
H1761 H 0.64872 0.55108 0.63906 0.0
H1762 H 0.5202 0.47131 0.65118 0.0
H1763 H 0.56979 0.49303 0.65422 0.0
H1764 H 0.57358 0.58348 0.67681 0.0
C1765 C 0.68029 0.61109 0.66888 0.0
C1766 C 0.63236 0.55864 0.64722 0.0
C1767 C 0.70707 0.62661 0.66811 0.0
C1768 C 0.52206 0.49419 0.65481 0.0
C1769 C 0.55044 0.5069 0.65615 0.0
C1770 C 0.58957 0.57627 0.66839 0.0
C1771 C 0.66707 0.59943 0.65573 0.0
C1772 C 0.63827 0.58305 0.65669 0.0
C1773 C 0.55364 0.53742 0.65922 0.0
C1774 C 0.58339 0.55216 0.65878 0.0
H1775 H 0.7193 0.62182 0.63011 0.0
H1776 H 0.67197 0.59544 0.63135 0.0
H1777 H 0.61981 0.61055 0.67462 0.0
H1778 H 0.48019 0.55593 0.66138 0.0
H1779 H 0.52908 0.578 0.66391 0.0
C1780 C 0.79095 0.27777 0.41041 0.0
C1781 C 0.77832 0.25024 0.40684 0.0
C1782 C 0.77317 0.30324 0.41141 0.0
C1783 C 0.70316 0.33415 0.39655 0.0
H1784 H 0.71603 0.39532 0.42673 0.0
C1785 C 0.65575 0.45315 0.39063 0.0
C1786 C 0.64438 0.46692 0.40371 0.0
C1787 C 0.67053 0.42585 0.39154 0.0
C1788 C 0.71195 0.37837 0.41829 0.0
H1789 H 0.73708 0.2277 0.40144 0.0
H1790 H 0.70594 0.27216 0.40324 0.0
H1791 H 0.74405 0.34897 0.42814 0.0
H1792 H 0.63975 0.46269 0.42806 0.0
H1793 H 0.66549 0.41509 0.42963 0.0
H1794 H 0.6711 0.36359 0.38667 0.0
C1795 C 0.72959 0.27405 0.40543 0.0
C1796 C 0.72822 0.3519 0.41902 0.0
C1797 C 0.74734 0.24848 0.40466 0.0
C1798 C 0.64798 0.45262 0.41772 0.0
C1799 C 0.663 0.42544 0.41865 0.0
C1800 C 0.68701 0.36071 0.39576 0.0
C1801 C 0.74238 0.30183 0.40856 0.0
C1802 C 0.7241 0.32948 0.40815 0.0
C1803 C 0.67457 0.41176 0.40558 0.0
C1804 C 0.69126 0.3832 0.4066 0.0
H1805 H 0.81484 0.27983 0.41174 0.0
H1806 H 0.78382 0.3243 0.41366 0.0
H1807 H 0.69968 0.31752 0.38787 0.0
H1808 H 0.6535 0.4636 0.37966 0.0
H1809 H 0.67945 0.41614 0.38127 0.0
C1810 C 0.82821 0.39681 0.16893 0.0
C1811 C 0.81264 0.39459 0.15517 0.0
C1812 C 0.8549 0.41266 0.16984 0.0
C1813 C 0.90039 0.46914 0.14924 0.0
H1814 H 0.962 0.44184 0.17656 0.0
C1815 C 1.01112 0.53384 0.15587 0.0
C1816 C 0.037 0.51638 0.15674 0.0
C1817 C 0.98292 0.52078 0.15748 0.0
C1818 C 0.94521 0.44978 0.16877 0.0
H1819 H 0.81326 0.40732 0.13152 0.0
H1820 H 0.86018 0.43407 0.13296 0.0
H1821 H 0.91589 0.41445 0.17461 0.0
H1822 H 0.05382 0.472 0.16023 0.0
H1823 H 1.00533 0.44932 0.16315 0.0
H1824 H 0.93055 0.50351 0.14275 0.0
C1825 C 0.85151 0.42409 0.14318 0.0
C1826 C 0.9184 0.43421 0.16781 0.0
C1827 C 0.82469 0.40836 0.14229 0.0
C1828 C 0.03425 0.48613 0.16004 0.0
C1829 C 1.00628 0.47309 0.1616 0.0
C1830 C 0.92744 0.48452 0.15005 0.0
C1831 C 0.86697 0.42662 0.15699 0.0
C1832 C 0.89555 0.44356 0.15802 0.0
C1833 C 0.98009 0.48999 0.15992 0.0
C1834 C 0.95036 0.47498 0.15978 0.0
H1835 H 0.81953 0.38679 0.17914 0.0
H1836 H 0.8657 0.41443 0.18075 0.0
H1837 H 0.88326 0.47741 0.14173 0.0
H1838 H 1.01257 0.55701 0.15276 0.0
H1839 H 0.96336 0.53464 0.15627 0.0
C1840 C 0.78616 0.77031 0.64394 0.0
C1841 C 0.77121 0.74545 0.63816 0.0
C1842 C 0.77329 0.79853 0.64295 0.0
C1843 C 0.71654 0.84354 0.62365 0.0
H1844 H 0.70984 0.88451 0.6621 0.0
C1845 C 0.64338 0.94854 0.62964 0.0
C1846 C 0.65103 0.96994 0.64051 0.0
C1847 C 0.65842 0.92136 0.62902 0.0
C1848 C 0.71194 0.8739 0.65116 0.0
H1849 H 0.73157 0.73047 0.62663 0.0
H1850 H 0.70976 0.78005 0.6241 0.0
H1851 H 0.73724 0.83812 0.6606 0.0
H1852 H 0.68095 0.98005 0.659 0.0
H1853 H 0.70833 0.93367 0.65744 0.0
H1854 H 0.69228 0.87951 0.61398 0.0
C1855 C 0.73141 0.77777 0.62937 0.0
C1856 C 0.7276 0.8471 0.65035 0.0
C1857 C 0.74402 0.74947 0.63064 0.0
C1858 C 0.67425 0.96378 0.65064 0.0
C1859 C 0.68985 0.93694 0.64978 0.0
C1860 C 0.70144 0.8707 0.62436 0.0
C1861 C 0.74541 0.80242 0.63599 0.0
C1862 C 0.72995 0.83157 0.63661 0.0
C1863 C 0.68213 0.91517 0.639 0.0
C1864 C 0.6987 0.88629 0.63816 0.0
H1865 H 0.80656 0.76759 0.65035 0.0
H1866 H 0.78457 0.81715 0.64814 0.0
H1867 H 0.71808 0.83207 0.61289 0.0
H1868 H 0.62548 0.95265 0.62169 0.0
H1869 H 0.65111 0.90519 0.62078 0.0
C1870 C 0.82818 0.90427 0.90373 0.0
C1871 C 0.81502 0.8921 0.8907 0.0
C1872 C 0.85548 0.91907 0.90288 0.0
C1873 C 0.90437 0.95862 0.87598 0.0
H1874 H 0.96346 0.94927 0.9076 0.0
C1875 C 1.00426 0.03839 0.88398 0.0
C1876 C 0.03175 0.02615 0.88823 0.0
C1877 C 0.97888 0.02054 0.88287 0.0
C1878 C 0.94734 0.95193 0.89859 0.0
H1879 H 0.82044 0.88605 0.86648 0.0
H1880 H 0.86812 0.91172 0.86501 0.0
H1881 H 0.91748 0.92065 0.90862 0.0
H1882 H 0.05426 0.98559 0.89478 0.0
H1883 H 1.00997 0.95438 0.89286 0.0
H1884 H 0.93425 0.98995 0.86597 0.0
C1885 C 0.85724 0.9099 0.87591 0.0
C1886 C 0.9208 0.93576 0.89927 0.0
C1887 C 0.83001 0.8949 0.87678 0.0
C1888 C 0.03355 0.99551 0.89103 0.0
C1889 C 1.00806 0.97773 0.89018 0.0
C1890 C 0.93083 0.97493 0.87535 0.0
C1891 C 0.87028 0.92229 0.88894 0.0
C1892 C 0.8989 0.93895 0.888 0.0
C1893 C 0.98029 0.99013 0.88634 0.0
C1894 C 0.95263 0.97186 0.88666 0.0
H1895 H 0.81721 0.90271 0.91462 0.0
H1896 H 0.86463 0.92864 0.91311 0.0
H1897 H 0.8879 0.96189 0.86719 0.0
H1898 H 1.00215 0.06204 0.88216 0.0
H1899 H 0.95783 0.03089 0.88005 0.0
C1900 C 0.8788 0.07656 0.15389 0.0
C1901 C 0.88903 0.06216 0.14075 0.0
C1902 C 0.86411 0.10391 0.15297 0.0
C1903 C 0.8211 0.15119 0.12671 0.0
H1904 H 0.83851 0.213 0.15591 0.0
C1905 C 0.7467 0.25535 0.13671 0.0
C1906 C 0.76087 0.28194 0.14065 0.0
C1907 C 0.76335 0.22939 0.13435 0.0
C1908 C 0.83358 0.19614 0.14754 0.0
H1909 H 0.89158 0.06521 0.11628 0.0
H1910 H 0.86596 0.1129 0.11468 0.0
H1911 H 0.86566 0.16621 0.15697 0.0
H1912 H 0.8035 0.30244 0.14497 0.0
H1913 H 0.8327 0.25749 0.14048 0.0
H1914 H 0.78889 0.18118 0.11734 0.0
C1915 C 0.8693 0.10303 0.12571 0.0
C1916 C 0.84891 0.16914 0.14828 0.0
C1917 C 0.88428 0.07582 0.12665 0.0
C1918 C 0.7921 0.28251 0.14134 0.0
C1919 C 0.80875 0.25657 0.13913 0.0
C1920 C 0.80559 0.17818 0.12603 0.0
C1921 C 0.85899 0.1174 0.13886 0.0
C1922 C 0.84286 0.14629 0.13789 0.0
C1923 C 0.7945 0.22943 0.13619 0.0
C1924 C 0.81168 0.20103 0.13642 0.0
H1925 H 0.88193 0.0666 0.16492 0.0
H1926 H 0.85619 0.11419 0.1633 0.0
H1927 H 0.81565 0.13396 0.11863 0.0
H1928 H 0.72261 0.25404 0.13676 0.0
H1929 H 0.7516 0.20886 0.13226 0.0
C1930 C 0.50087 0.04047 0.37977 0.0
C1931 C 0.49818 1.01218 0.38619 0.0
C1932 C 0.52879 0.05387 0.37838 0.0
C1933 C 0.60007 0.05526 0.39797 0.0
H1934 H 0.62792 0.10018 0.36345 0.0
C1935 C 0.71567 0.10981 0.39882 0.0
C1936 C 0.72054 0.13595 0.39059 0.0
C1937 C 0.68903 0.09421 0.39738 0.0
C1938 C 0.62037 0.08822 0.37332 0.0
H1939 H 0.52244 0.97559 0.39614 0.0
H1940 H 0.57139 0.99884 0.3936 0.0
H1941 H 0.58111 0.07318 0.36182 0.0
H1942 H 0.7012 0.16623 0.37434 0.0
H1943 H 0.65383 0.14011 0.37249 0.0
H1944 H 0.63809 0.0712 0.40983 0.0
C1945 C 0.55195 1.01049 0.38941 0.0
C1946 C 0.59359 0.07249 0.3723 0.0
C1947 C 0.52405 0.9969 0.39056 0.0
C1948 C 0.69803 0.14623 0.3809 0.0
C1949 C 0.67095 0.13097 0.37973 0.0
C1950 C 0.62648 0.07142 0.39911 0.0
C1951 C 0.5545 0.03948 0.38372 0.0
C1952 C 0.58329 0.05562 0.38456 0.0
C1953 C 0.66603 0.10463 0.38795 0.0
C1954 C 0.63727 0.08799 0.38676 0.0
H1955 H 0.48113 0.05314 0.37692 0.0
H1956 H 0.52998 0.07634 0.37414 0.0
H1957 H 0.59237 0.04303 0.40775 0.0
H1958 H 0.73281 0.10086 0.40613 0.0
H1959 H 0.68683 0.07365 0.40355 0.0
C1960 C 0.29237 0.28356 0.40381 0.0
C1961 C 0.26163 0.28254 0.40677 0.0
C1962 C 0.30964 0.25764 0.40455 0.0
C1963 C 0.30902 0.18005 0.41881 0.0
H1964 H 0.3651 0.16561 0.38621 0.0
C1965 C 0.38368 0.07619 0.41801 0.0
C1966 C 0.38811 0.06172 0.40407 0.0
C1967 C 0.36982 0.10391 0.41864 0.0
C1968 C 0.34938 0.16921 0.39534 0.0
H1969 H 0.22503 0.25412 0.41308 0.0
H1970 H 0.255 0.20921 0.41474 0.0
H1971 H 0.33837 0.21276 0.38745 0.0
H1972 H 0.38166 0.06526 0.37983 0.0
H1973 H 0.35714 0.11362 0.38094 0.0
H1974 H 0.31908 0.13625 0.42641 0.0
C1975 C 0.26601 0.22984 0.412 0.0
C1976 C 0.33438 0.19644 0.39618 0.0
C1977 C 0.24881 0.25559 0.41114 0.0
C1978 C 0.37862 0.07581 0.39075 0.0
C1979 C 0.36472 0.10363 0.39138 0.0
C1980 C 0.32392 0.15289 0.41796 0.0
C1981 C 0.2965 0.23033 0.40836 0.0
C1982 C 0.3139 0.20214 0.4079 0.0
C1983 C 0.35995 0.11793 0.40536 0.0
C1984 C 0.34427 0.14706 0.4062 0.0
H1985 H 0.30266 0.30389 0.39997 0.0
H1986 H 0.33309 0.25884 0.40177 0.0
H1987 H 0.29359 0.18372 0.42806 0.0
H1988 H 0.39069 0.06604 0.42852 0.0
H1989 H 0.36697 0.11441 0.42958 0.0
C1990 C 0.02874 0.98903 0.15955 0.0
C1991 C 1.00135 1.00201 0.15576 0.0
C1992 C 0.05449 1.00631 0.16059 0.0
C1993 C 0.08666 0.07542 0.1457 0.0
H1994 H 0.14719 0.0614 0.17613 0.0
C1995 C 0.20609 0.12305 0.14088 0.0
C1996 C 0.21981 0.13293 0.15425 0.0
C1997 C 0.17873 0.10827 0.14141 0.0
C1998 C 0.13044 0.06584 0.16761 0.0
H1999 H 0.97933 0.04329 0.14998 0.0
H2000 H 0.02428 0.07356 0.15185 0.0
H2001 H 0.10035 0.03442 0.17731 0.0
H2002 H 0.2153 0.13519 0.1787 0.0
H2003 H 0.16764 0.10988 0.17959 0.0
H2004 H 0.11666 0.10706 0.13608 0.0
C2005 C 0.02585 0.05004 0.15418 0.0
C2006 C 0.10368 0.05012 0.16821 0.0
C2007 C 1.0 0.0328 0.15337 0.0
C2008 C 0.20541 0.12793 0.16815 0.0
C2009 C 0.17812 0.11316 0.16869 0.0
C2010 C 0.11348 0.09113 0.14509 0.0
C2011 C 0.05351 0.03691 0.15755 0.0
C2012 C 0.08147 0.05462 0.15725 0.0
C2013 C 0.16448 0.10296 0.15534 0.0
C2014 C 0.13576 0.0865 0.15602 0.0
H2015 H 0.03046 0.96526 0.16106 0.0
H2016 H 0.07544 0.99539 0.16304 0.0
H2017 H 0.07021 0.07918 0.13696 0.0
H2018 H 0.21662 0.12643 0.12999 0.0
H2019 H 0.16907 0.10043 0.13092 0.0
C2020 C 0.17178 0.96361 0.89427 0.0
C2021 C 0.14657 0.96918 0.90326 0.0
C2022 C 0.18728 0.93682 0.89539 0.0
C2023 C 0.19573 0.86946 0.91991 0.0
H2024 H 0.23612 0.83909 0.88428 0.0
C2025 C 0.2427 0.74961 0.91368 0.0
C2026 C 0.27022 0.74634 0.90633 0.0
C2027 C 0.22932 0.77757 0.91501 0.0
C2028 C 0.22525 0.84744 0.89439 0.0
H2029 H 0.1178 0.9508 0.92052 0.0
H2030 H 0.14378 0.90333 0.92194 0.0
H2031 H 0.208 0.88499 0.88266 0.0
H2032 H 0.30535 0.76954 0.89454 0.0
H2033 H 0.28212 0.8185 0.89692 0.0
H2034 H 0.21212 0.8308 0.93135 0.0
C2035 C 0.15227 0.92 0.9143 0.0
C2036 C 0.20912 0.87394 0.8935 0.0
C2037 C 0.13709 0.94716 0.91338 0.0
C2038 C 0.28471 0.77166 0.90082 0.0
C2039 C 0.2711 0.79956 0.9019 0.0
C2040 C 0.21145 0.84262 0.92071 0.0
C2041 C 0.1777 0.91442 0.90533 0.0
C2042 C 0.19428 0.88557 0.90627 0.0
C2043 C 0.24287 0.80269 0.90865 0.0
C2044 C 0.2266 0.83146 0.90799 0.0
H2045 H 0.18011 0.98029 0.88656 0.0
H2046 H 0.20715 0.93404 0.8886 0.0
H2047 H 0.18513 0.87769 0.93009 0.0
H2048 H 0.2306 0.73025 0.91747 0.0
H2049 H 0.20743 0.77918 0.92011 0.0
C2050 C 0.31818 0.92109 0.64337 0.0
C2051 C 0.31183 0.89862 0.6538 0.0
C2052 C 0.34487 0.93691 0.64428 0.0
C2053 C 0.41009 0.95033 0.67028 0.0
H2054 H 0.44342 0.98552 0.63409 0.0
C2055 C 0.53136 0.99362 0.66437 0.0
C2056 C 0.53517 0.02057 0.65675 0.0
C2057 C 0.50308 0.98092 0.66563 0.0
C2058 C 0.43421 0.97605 0.64432 0.0
H2059 H 0.32863 0.8745 0.67317 0.0
H2060 H 0.37594 0.90032 0.67415 0.0
H2061 H 0.39748 0.95754 0.63238 0.0
H2062 H 0.51267 0.05548 0.64445 0.0
H2063 H 0.46313 0.03333 0.64663 0.0
H2064 H 0.44818 0.96765 0.68194 0.0
C2065 C 0.36 0.907 0.66564 0.0
C2066 C 0.40765 0.96005 0.6434 0.0
C2067 C 0.33293 0.89181 0.66498 0.0
C2068 C 0.51009 0.03527 0.65092 0.0
C2069 C 0.48189 0.0223 0.6519 0.0
C2070 C 0.43705 0.96572 0.67111 0.0
C2071 C 0.36633 0.9301 0.65541 0.0
C2072 C 0.39499 0.94701 0.65638 0.0
C2073 C 0.47825 0.9946 0.65891 0.0
C2074 C 0.44927 0.97892 0.65817 0.0
H2075 H 0.30209 0.92713 0.63477 0.0
H2076 H 0.34819 0.9549 0.6364 0.0
H2077 H 0.40107 0.9414 0.68065 0.0
H2078 H 0.55054 0.98136 0.66842 0.0
H2079 H 0.50098 0.9594 0.67094 0.0
loop_
_geom_bond_atom_site_label_1
_geom_bond_atom_site_label_2
_geom_bond_distance
_geom_bond_site_symmetry_2
_ccdc_geom_bond_type
C0 Eu1 2.835 . S
C0 C2 1.500 . S
C0 O20 1.257 . S
C0 O21 1.260 . S
Eu1 C0 2.835 . S
Eu1 O20 2.473 . S
Eu1 O21 2.480 . S
Eu1 O22 2.430 . S
Eu1 O23 2.670 . S
Eu1 O24 2.394 . S
Eu1 O29 2.355 . S
Eu1 O31 2.374 . S
C2 C0 1.500 . S
C2 C3 1.377 . S
C2 C7 1.377 . S
C3 C2 1.377 . S
C3 C4 1.395 . S
C3 H32 0.931 . S
C4 C3 1.395 . S
C4 C5 1.383 . S
C4 H33 0.931 . S
C5 C4 1.383 . S
C5 C6 1.394 . S
C6 C5 1.394 . S
C6 C7 1.378 . S
C6 H34 0.931 . S
C7 C2 1.377 . S
C7 C6 1.378 . S
C7 H35 0.931 . S
C8 O22 1.259 . S
C8 O23 1.270 . S
C9 O24 1.251 . S
C9 O25 1.251 . S
C10 Eu11 2.835 . S
C10 C12 1.500 . S
C10 O26 1.257 . S
C10 O27 1.260 . S
Eu11 C10 2.835 . S
Eu11 O23 2.355 . S
Eu11 O25 2.374 . S
Eu11 O26 2.473 . S
Eu11 O27 2.480 . S
Eu11 O28 2.430 . S
Eu11 O29 2.670 . S
Eu11 O30 2.394 . S
C12 C10 1.500 . S
C12 C13 1.377 . S
C12 C17 1.377 . S
C13 C12 1.377 . S
C13 C14 1.395 . S
C13 H36 0.931 . S
C14 C13 1.395 . S
C14 C15 1.383 . S
C14 H37 0.931 . S
C15 C14 1.383 . S
C15 C16 1.394 . S
C16 C15 1.394 . S
C16 C17 1.378 . S
C16 H38 0.931 . S
C17 C12 1.377 . S
C17 C16 1.378 . S
C17 H39 0.931 . S
C18 O28 1.259 . S
C18 O29 1.270 . S
C19 O30 1.251 . S
C19 O31 1.251 . S
O20 C0 1.257 . S
O20 Eu1 2.473 . S
O21 C0 1.260 . S
O21 Eu1 2.480 . S
O22 Eu1 2.430 . S
O22 C8 1.259 . S
O23 Eu1 2.670 . S
O23 C8 1.270 . S
O23 Eu11 2.355 . S
O24 Eu1 2.394 . S
O24 C9 1.251 . S
O25 C9 1.251 . S
O25 Eu11 2.374 . S
O26 C10 1.257 . S
O26 Eu11 2.473 . S
O27 C10 1.260 . S
O27 Eu11 2.480 . S
O28 Eu11 2.430 . S
O28 C18 1.259 . S
O29 Eu1 2.355 . S
O29 Eu11 2.670 . S
O29 C18 1.270 . S
O30 Eu11 2.394 . S
O30 C19 1.251 . S
O31 Eu1 2.374 . S
O31 C19 1.251 . S
H32 C3 0.931 . S
H33 C4 0.931 . S
H34 C6 0.931 . S
H35 C7 0.931 . S
H36 C13 0.931 . S
H37 C14 0.931 . S
H38 C16 0.931 . S
H39 C17 0.931 . S
C40 Eu41 2.835 . S
C40 C42 1.500 . S
C40 O60 1.257 . S
C40 O61 1.260 . S
Eu41 C40 2.835 . S
Eu41 O60 2.473 . S
Eu41 O61 2.480 . S
Eu41 O62 2.430 . S
Eu41 O63 2.670 . S
Eu41 O64 2.394 . S
Eu41 O69 2.355 . S
Eu41 O71 2.374 . S
C42 C40 1.500 . S
C42 C43 1.377 . S
C42 C47 1.377 . S
C43 C42 1.377 . S
C43 C44 1.395 . S
C43 H72 0.931 . S
C44 C43 1.395 . S
C44 C45 1.383 . S
C44 H73 0.931 . S
C45 C44 1.383 . S
C45 C46 1.394 . S
C46 C45 1.394 . S
C46 C47 1.378 . S
C46 H74 0.931 . S
C47 C42 1.377 . S
C47 C46 1.378 . S
C47 H75 0.931 . S
C48 O62 1.259 . S
C48 O63 1.270 . S
C49 O64 1.251 . S
C49 O65 1.251 . S
C50 Eu51 2.835 . S
C50 C52 1.500 . S
C50 O66 1.257 . S
C50 O67 1.260 . S
Eu51 C50 2.835 . S
Eu51 O63 2.355 . S
Eu51 O65 2.374 . S
Eu51 O66 2.473 . S
Eu51 O67 2.480 . S
Eu51 O68 2.430 . S
Eu51 O69 2.670 . S
Eu51 O70 2.394 . S
C52 C50 1.500 . S
C52 C53 1.377 . S
C52 C57 1.377 . S
C53 C52 1.377 . S
C53 C54 1.395 . S
C53 H76 0.931 . S
C54 C53 1.395 . S
C54 C55 1.383 . S
C54 H77 0.931 . S
C55 C54 1.383 . S
C55 C56 1.394 . S
C56 C55 1.394 . S
C56 C57 1.378 . S
C56 H78 0.931 . S
C57 C52 1.377 . S
C57 C56 1.378 . S
C57 H79 0.931 . S
C58 O68 1.259 . S
C58 O69 1.270 . S
C59 O70 1.251 . S
C59 O71 1.251 . S
O60 C40 1.257 . S
O60 Eu41 2.473 . S
O61 C40 1.260 . S
O61 Eu41 2.480 . S
O62 Eu41 2.430 . S
O62 C48 1.259 . S
O63 Eu41 2.670 . S
O63 C48 1.270 . S
O63 Eu51 2.355 . S
O64 Eu41 2.394 . S
O64 C49 1.251 . S
O65 C49 1.251 . S
O65 Eu51 2.374 . S
O66 C50 1.257 . S
O66 Eu51 2.473 . S
O67 C50 1.260 . S
O67 Eu51 2.480 . S
O68 Eu51 2.430 . S
O68 C58 1.259 . S
O69 Eu41 2.355 . S
O69 Eu51 2.670 . S
O69 C58 1.270 . S
O70 Eu51 2.394 . S
O70 C59 1.251 . S
O71 Eu41 2.374 . S
O71 C59 1.251 . S
H72 C43 0.931 . S
H73 C44 0.931 . S
H74 C46 0.931 . S
H75 C47 0.931 . S
H76 C53 0.931 . S
H77 C54 0.931 . S
H78 C56 0.931 . S
H79 C57 0.931 . S
C80 Eu81 2.835 . S
C80 C82 1.500 . S
C80 O100 1.257 . S
C80 O101 1.260 . S
Eu81 C80 2.835 . S
Eu81 O100 2.473 . S
Eu81 O101 2.480 . S
Eu81 O102 2.430 . S
Eu81 O103 2.670 . S
Eu81 O104 2.394 . S
Eu81 O109 2.355 . S
Eu81 O111 2.374 . S
C82 C80 1.500 . S
C82 C83 1.377 . S
C82 C87 1.377 . S
C83 C82 1.377 . S
C83 C84 1.395 . S
C83 H112 0.931 . S
C84 C83 1.395 . S
C84 C85 1.383 . S
C84 H113 0.931 . S
C85 C84 1.383 . S
C85 C86 1.394 . S
C86 C85 1.394 . S
C86 C87 1.378 . S
C86 H114 0.931 . S
C87 C82 1.377 . S
C87 C86 1.378 . S
C87 H115 0.931 . S
C88 O102 1.259 . S
C88 O103 1.270 . S
C89 O104 1.251 . S
C89 O105 1.251 . S
C90 Eu91 2.835 . S
C90 C92 1.500 . S
C90 O106 1.257 . S
C90 O107 1.260 . S
Eu91 C90 2.835 . S
Eu91 O103 2.355 . S
Eu91 O105 2.374 . S
Eu91 O106 2.473 . S
Eu91 O107 2.480 . S
Eu91 O108 2.430 . S
Eu91 O109 2.670 . S
Eu91 O110 2.394 . S
C92 C90 1.500 . S
C92 C93 1.377 . S
C92 C97 1.377 . S
C93 C92 1.377 . S
C93 C94 1.395 . S
C93 H116 0.931 . S
C94 C93 1.395 . S
C94 C95 1.383 . S
C94 H117 0.931 . S
C95 C94 1.383 . S
C95 C96 1.394 . S
C96 C95 1.394 . S
C96 C97 1.378 . S
C96 H118 0.931 . S
C97 C92 1.377 . S
C97 C96 1.378 . S
C97 H119 0.931 . S
C98 O108 1.259 . S
C98 O109 1.270 . S
C99 O110 1.251 . S
C99 O111 1.251 . S
O100 C80 1.257 . S
O100 Eu81 2.473 . S
O101 C80 1.260 . S
O101 Eu81 2.480 . S
O102 Eu81 2.430 . S
O102 C88 1.259 . S
O103 Eu81 2.670 . S
O103 C88 1.270 . S
O103 Eu91 2.355 . S
O104 Eu81 2.394 . S
O104 C89 1.251 . S
O105 C89 1.251 . S
O105 Eu91 2.374 . S
O106 C90 1.257 . S
O106 Eu91 2.473 . S
O107 C90 1.260 . S
O107 Eu91 2.480 . S
O108 Eu91 2.430 . S
O108 C98 1.259 . S
O109 Eu81 2.355 . S
O109 Eu91 2.670 . S
O109 C98 1.270 . S
O110 Eu91 2.394 . S
O110 C99 1.251 . S
O111 Eu81 2.374 . S
O111 C99 1.251 . S
H112 C83 0.931 . S
H113 C84 0.931 . S
H114 C86 0.931 . S
H115 C87 0.931 . S
H116 C93 0.931 . S
H117 C94 0.931 . S
H118 C96 0.931 . S
H119 C97 0.931 . S
C120 Eu121 2.835 . S
C120 C122 1.500 . S
C120 O140 1.257 . S
C120 O141 1.260 . S
Eu121 C120 2.835 . S
Eu121 O140 2.473 . S
Eu121 O141 2.480 . S
Eu121 O142 2.430 . S
Eu121 O143 2.670 . S
Eu121 O144 2.394 . S
Eu121 O149 2.355 . S
Eu121 O151 2.374 . S
C122 C120 1.500 . S
C122 C123 1.377 . S
C122 C127 1.377 . S
C123 C122 1.377 . S
C123 C124 1.395 . S
C123 H152 0.931 . S
C124 C123 1.395 . S
C124 C125 1.383 . S
C124 H153 0.931 . S
C125 C124 1.383 . S
C125 C126 1.394 . S
C126 C125 1.394 . S
C126 C127 1.378 . S
C126 H154 0.931 . S
C127 C122 1.377 . S
C127 C126 1.378 . S
C127 H155 0.931 . S
C128 O142 1.259 . S
C128 O143 1.270 . S
C129 O144 1.251 . S
C129 O145 1.251 . S
C130 Eu131 2.835 . S
C130 C132 1.500 . S
C130 O146 1.257 . S
C130 O147 1.260 . S
Eu131 C130 2.835 . S
Eu131 O143 2.355 . S
Eu131 O145 2.374 . S
Eu131 O146 2.473 . S
Eu131 O147 2.480 . S
Eu131 O148 2.430 . S
Eu131 O149 2.670 . S
Eu131 O150 2.394 . S
C132 C130 1.500 . S
C132 C133 1.377 . S
C132 C137 1.377 . S
C133 C132 1.377 . S
C133 C134 1.395 . S
C133 H156 0.931 . S
C134 C133 1.395 . S
C134 C135 1.383 . S
C134 H157 0.931 1_655 S
C135 C134 1.383 . S
C135 C136 1.394 . S
C136 C135 1.394 . S
C136 C137 1.378 . S
C136 H158 0.931 . S
C137 C132 1.377 . S
C137 C136 1.378 . S
C137 H159 0.931 . S
C138 O148 1.259 . S
C138 O149 1.270 . S
C139 O150 1.251 . S
C139 O151 1.251 . S
O140 C120 1.257 . S
O140 Eu121 2.473 . S
O141 C120 1.260 . S
O141 Eu121 2.480 . S
O142 Eu121 2.430 . S
O142 C128 1.259 . S
O143 Eu121 2.670 . S
O143 C128 1.270 . S
O143 Eu131 2.355 . S
O144 Eu121 2.394 . S
O144 C129 1.251 . S
O145 C129 1.251 . S
O145 Eu131 2.374 . S
O146 C130 1.257 . S
O146 Eu131 2.473 . S
O147 C130 1.260 . S
O147 Eu131 2.480 . S
O148 Eu131 2.430 . S
O148 C138 1.259 . S
O149 Eu121 2.355 . S
O149 Eu131 2.670 . S
O149 C138 1.270 . S
O150 Eu131 2.394 . S
O150 C139 1.251 . S
O151 Eu121 2.374 . S
O151 C139 1.251 . S
H152 C123 0.931 . S
H153 C124 0.931 . S
H154 C126 0.931 . S
H155 C127 0.931 . S
H156 C133 0.931 . S
H157 C134 0.931 1_455 S
H158 C136 0.931 . S
H159 C137 0.931 . S
C160 Eu161 2.835 . S
C160 C162 1.500 . S
C160 O180 1.257 . S
C160 O181 1.260 . S
Eu161 C160 2.835 . S
Eu161 O180 2.473 . S
Eu161 O181 2.480 . S
Eu161 O182 2.430 . S
Eu161 O183 2.670 . S
Eu161 O184 2.394 . S
Eu161 O189 2.355 . S
Eu161 O191 2.374 . S
C162 C160 1.500 . S
C162 C163 1.377 . S
C162 C167 1.377 . S
C163 C162 1.377 . S
C163 C164 1.395 . S
C163 H192 0.931 . S
C164 C163 1.395 . S
C164 C165 1.383 . S
C164 H193 0.931 . S
C165 C164 1.383 . S
C165 C166 1.394 . S
C166 C165 1.394 . S
C166 C167 1.378 . S
C166 H194 0.931 . S
C167 C162 1.377 . S
C167 C166 1.378 . S
C167 H195 0.931 . S
C168 O182 1.259 . S
C168 O183 1.270 . S
C169 O184 1.251 . S
C169 O185 1.251 . S
C170 Eu171 2.835 . S
C170 C172 1.500 . S
C170 O186 1.257 . S
C170 O187 1.260 . S
Eu171 C170 2.835 . S
Eu171 O183 2.355 . S
Eu171 O185 2.374 . S
Eu171 O186 2.473 . S
Eu171 O187 2.480 . S
Eu171 O188 2.430 . S
Eu171 O189 2.670 . S
Eu171 O190 2.394 . S
C172 C170 1.500 . S
C172 C173 1.377 . S
C172 C177 1.377 . S
C173 C172 1.377 . S
C173 C174 1.395 . S
C173 H196 0.931 . S
C174 C173 1.395 . S
C174 C175 1.383 . S
C174 H197 0.931 . S
C175 C174 1.383 . S
C175 C176 1.394 . S
C176 C175 1.394 . S
C176 C177 1.378 . S
C176 H198 0.931 . S
C177 C172 1.377 . S
C177 C176 1.378 . S
C177 H199 0.931 . S
C178 O188 1.259 . S
C178 O189 1.270 . S
C179 O190 1.251 . S
C179 O191 1.251 . S
O180 C160 1.257 . S
O180 Eu161 2.473 . S
O181 C160 1.260 . S
O181 Eu161 2.480 . S
O182 Eu161 2.430 . S
O182 C168 1.259 . S
O183 Eu161 2.670 . S
O183 C168 1.270 . S
O183 Eu171 2.355 . S
O184 Eu161 2.394 . S
O184 C169 1.251 . S
O185 C169 1.251 . S
O185 Eu171 2.374 . S
O186 C170 1.257 . S
O186 Eu171 2.473 . S
O187 C170 1.260 . S
O187 Eu171 2.480 . S
O188 Eu171 2.430 . S
O188 C178 1.259 . S
O189 Eu161 2.355 . S
O189 Eu171 2.670 . S
O189 C178 1.270 . S
O190 Eu171 2.394 . S
O190 C179 1.251 . S
O191 Eu161 2.374 . S
O191 C179 1.251 . S
H192 C163 0.931 . S
H193 C164 0.931 . S
H194 C166 0.931 . S
H195 C167 0.931 . S
H196 C173 0.931 . S
H197 C174 0.931 . S
H198 C176 0.931 . S
H199 C177 0.931 . S
C200 Eu201 2.835 . S
C200 C202 1.500 . S
C200 O220 1.257 . S
C200 O221 1.260 . S
Eu201 C200 2.835 . S
Eu201 O220 2.473 . S
Eu201 O221 2.480 . S
Eu201 O222 2.430 . S
Eu201 O223 2.670 . S
Eu201 O224 2.394 . S
Eu201 O229 2.355 . S
Eu201 O231 2.374 . S
C202 C200 1.500 . S
C202 C203 1.377 . S
C202 C207 1.377 . S
C203 C202 1.377 . S
C203 C204 1.395 . S
C203 H232 0.931 . S
C204 C203 1.395 . S
C204 C205 1.383 . S
C204 H233 0.931 . S
C205 C204 1.383 . S
C205 C206 1.394 . S
C206 C205 1.394 . S
C206 C207 1.378 . S
C206 H234 0.931 . S
C207 C202 1.377 . S
C207 C206 1.378 . S
C207 H235 0.931 . S
C208 O222 1.259 . S
C208 O223 1.270 . S
C209 O224 1.251 . S
C209 O225 1.251 . S
C210 Eu211 2.835 . S
C210 C212 1.500 . S
C210 O226 1.257 . S
C210 O227 1.260 . S
Eu211 C210 2.835 . S
Eu211 O223 2.355 . S
Eu211 O225 2.374 . S
Eu211 O226 2.473 . S
Eu211 O227 2.480 . S
Eu211 O228 2.430 . S
Eu211 O229 2.670 . S
Eu211 O230 2.394 . S
C212 C210 1.500 . S
C212 C213 1.377 . S
C212 C217 1.377 . S
C213 C212 1.377 . S
C213 C214 1.395 . S
C213 H236 0.931 . S
C214 C213 1.395 . S
C214 C215 1.383 . S
C214 H237 0.931 . S
C215 C214 1.383 . S
C215 C216 1.394 . S
C216 C215 1.394 . S
C216 C217 1.378 . S
C216 H238 0.931 . S
C217 C212 1.377 . S
C217 C216 1.378 . S
C217 H239 0.931 . S
C218 O228 1.259 . S
C218 O229 1.270 . S
C219 O230 1.251 . S
C219 O231 1.251 . S
O220 C200 1.257 . S
O220 Eu201 2.473 . S
O221 C200 1.260 . S
O221 Eu201 2.480 . S
O222 Eu201 2.430 . S
O222 C208 1.259 . S
O223 Eu201 2.670 . S
O223 C208 1.270 . S
O223 Eu211 2.355 . S
O224 Eu201 2.394 . S
O224 C209 1.251 . S
O225 C209 1.251 . S
O225 Eu211 2.374 . S
O226 C210 1.257 . S
O226 Eu211 2.473 . S
O227 C210 1.260 . S
O227 Eu211 2.480 . S
O228 Eu211 2.430 . S
O228 C218 1.259 . S
O229 Eu201 2.355 . S
O229 Eu211 2.670 . S
O229 C218 1.270 . S
O230 Eu211 2.394 . S
O230 C219 1.251 . S
O231 Eu201 2.374 . S
O231 C219 1.251 . S
H232 C203 0.931 . S
H233 C204 0.931 . S
H234 C206 0.931 . S
H235 C207 0.931 . S
H236 C213 0.931 . S
H237 C214 0.931 . S
H238 C216 0.931 . S
H239 C217 0.931 . S
C240 Eu241 2.835 . S
C240 C242 1.500 . S
C240 O260 1.257 . S
C240 O261 1.260 . S
Eu241 C240 2.835 . S
Eu241 O260 2.473 . S
Eu241 O261 2.480 . S
Eu241 O262 2.430 . S
Eu241 O263 2.670 . S
Eu241 O264 2.394 . S
Eu241 O269 2.355 . S
Eu241 O271 2.374 . S
C242 C240 1.500 . S
C242 C243 1.377 . S
C242 C247 1.377 . S
C243 C242 1.377 . S
C243 C244 1.395 . S
C243 H272 0.931 . S
C244 C243 1.395 . S
C244 C245 1.383 . S
C244 H273 0.931 . S
C245 C244 1.383 . S
C245 C246 1.394 . S
C246 C245 1.394 . S
C246 C247 1.378 . S
C246 H274 0.931 . S
C247 C242 1.377 . S
C247 C246 1.378 . S
C247 H275 0.931 . S
C248 O262 1.259 . S
C248 O263 1.270 . S
C249 O264 1.251 . S
C249 O265 1.251 . S
C250 Eu251 2.835 . S
C250 C252 1.500 . S
C250 O266 1.257 . S
C250 O267 1.260 . S
Eu251 C250 2.835 . S
Eu251 O263 2.355 . S
Eu251 O265 2.374 . S
Eu251 O266 2.473 . S
Eu251 O267 2.480 . S
Eu251 O268 2.430 . S
Eu251 O269 2.670 . S
Eu251 O270 2.394 . S
C252 C250 1.500 . S
C252 C253 1.377 . S
C252 C257 1.377 . S
C253 C252 1.377 . S
C253 C254 1.395 . S
C253 H276 0.931 . S
C254 C253 1.395 . S
C254 C255 1.383 . S
C254 H277 0.931 . S
C255 C254 1.383 . S
C255 C256 1.394 . S
C256 C255 1.394 . S
C256 C257 1.378 . S
C256 H278 0.931 . S
C257 C252 1.377 . S
C257 C256 1.378 . S
C257 H279 0.931 . S
C258 O268 1.259 . S
C258 O269 1.270 . S
C259 O270 1.251 . S
C259 O271 1.251 . S
O260 C240 1.257 . S
O260 Eu241 2.473 . S
O261 C240 1.260 . S
O261 Eu241 2.480 . S
O262 Eu241 2.430 . S
O262 C248 1.259 . S
O263 Eu241 2.670 . S
O263 C248 1.270 . S
O263 Eu251 2.355 . S
O264 Eu241 2.394 . S
O264 C249 1.251 . S
O265 C249 1.251 . S
O265 Eu251 2.374 . S
O266 C250 1.257 . S
O266 Eu251 2.473 . S
O267 C250 1.260 . S
O267 Eu251 2.480 . S
O268 Eu251 2.430 . S
O268 C258 1.259 . S
O269 Eu241 2.355 . S
O269 Eu251 2.670 . S
O269 C258 1.270 . S
O270 Eu251 2.394 . S
O270 C259 1.251 . S
O271 Eu241 2.374 . S
O271 C259 1.251 . S
H272 C243 0.931 . S
H273 C244 0.931 . S
H274 C246 0.931 . S
H275 C247 0.931 . S
H276 C253 0.931 . S
H277 C254 0.931 . S
H278 C256 0.931 . S
H279 C257 0.931 . S
C280 Eu281 2.835 . S
C280 C282 1.500 . S
C280 O300 1.257 . S
C280 O301 1.260 . S
Eu281 C280 2.835 . S
Eu281 O300 2.473 . S
Eu281 O301 2.480 . S
Eu281 O302 2.430 . S
Eu281 O303 2.670 . S
Eu281 O304 2.394 . S
Eu281 O309 2.355 . S
Eu281 O311 2.374 . S
C282 C280 1.500 . S
C282 C283 1.377 . S
C282 C287 1.377 . S
C283 C282 1.377 . S
C283 C284 1.395 . S
C283 H312 0.931 . S
C284 C283 1.395 . S
C284 C285 1.383 . S
C284 H313 0.931 1_455 S
C285 C284 1.383 . S
C285 C286 1.394 . S
C286 C285 1.394 . S
C286 C287 1.378 . S
C286 H314 0.931 . S
C287 C282 1.377 . S
C287 C286 1.378 . S
C287 H315 0.931 . S
C288 O302 1.259 . S
C288 O303 1.270 . S
C289 O304 1.251 . S
C289 O305 1.251 . S
C290 Eu291 2.835 . S
C290 C292 1.500 . S
C290 O306 1.257 . S
C290 O307 1.260 . S
Eu291 C290 2.835 . S
Eu291 O303 2.355 . S
Eu291 O305 2.374 . S
Eu291 O306 2.473 . S
Eu291 O307 2.480 . S
Eu291 O308 2.430 . S
Eu291 O309 2.670 . S
Eu291 O310 2.394 . S
C292 C290 1.500 . S
C292 C293 1.377 . S
C292 C297 1.377 . S
C293 C292 1.377 . S
C293 C294 1.395 . S
C293 H316 0.931 . S
C294 C293 1.395 . S
C294 C295 1.383 . S
C294 H317 0.931 . S
C295 C294 1.383 . S
C295 C296 1.394 . S
C296 C295 1.394 . S
C296 C297 1.378 . S
C296 H318 0.931 . S
C297 C292 1.377 . S
C297 C296 1.378 . S
C297 H319 0.931 . S
C298 O308 1.259 . S
C298 O309 1.270 . S
C299 O310 1.251 . S
C299 O311 1.251 . S
O300 C280 1.257 . S
O300 Eu281 2.473 . S
O301 C280 1.260 . S
O301 Eu281 2.480 . S
O302 Eu281 2.430 . S
O302 C288 1.259 . S
O303 Eu281 2.670 . S
O303 C288 1.270 . S
O303 Eu291 2.355 . S
O304 Eu281 2.394 . S
O304 C289 1.251 . S
O305 C289 1.251 . S
O305 Eu291 2.374 . S
O306 C290 1.257 . S
O306 Eu291 2.473 . S
O307 C290 1.260 . S
O307 Eu291 2.480 . S
O308 Eu291 2.430 . S
O308 C298 1.259 . S
O309 Eu281 2.355 . S
O309 Eu291 2.670 . S
O309 C298 1.270 . S
O310 Eu291 2.394 . S
O310 C299 1.251 . S
O311 Eu281 2.374 . S
O311 C299 1.251 . S
H312 C283 0.931 . S
H313 C284 0.931 1_655 S
H314 C286 0.931 . S
H315 C287 0.931 . S
H316 C293 0.931 . S
H317 C294 0.931 . S
H318 C296 0.931 . S
H319 C297 0.931 . S
C320 Eu321 2.835 . S
C320 C322 1.500 . S
C320 O340 1.257 . S
C320 O341 1.260 . S
Eu321 C320 2.835 . S
Eu321 O340 2.473 . S
Eu321 O341 2.480 . S
Eu321 O342 2.430 . S
Eu321 O343 2.670 . S
Eu321 O344 2.394 . S
Eu321 O349 2.355 . S
Eu321 O351 2.374 . S
C322 C320 1.500 . S
C322 C323 1.377 . S
C322 C327 1.377 . S
C323 C322 1.377 . S
C323 C324 1.395 . S
C323 H352 0.931 . S
C324 C323 1.395 . S
C324 C325 1.383 . S
C324 H353 0.931 . S
C325 C324 1.383 . S
C325 C326 1.394 . S
C326 C325 1.394 . S
C326 C327 1.378 . S
C326 H354 0.931 . S
C327 C322 1.377 . S
C327 C326 1.378 . S
C327 H355 0.931 . S
C328 O342 1.259 . S
C328 O343 1.270 . S
C329 O344 1.251 . S
C329 O345 1.251 . S
C330 Eu331 2.835 . S
C330 C332 1.500 . S
C330 O346 1.257 . S
C330 O347 1.260 . S
Eu331 C330 2.835 . S
Eu331 O343 2.355 . S
Eu331 O345 2.374 . S
Eu331 O346 2.473 . S
Eu331 O347 2.480 . S
Eu331 O348 2.430 . S
Eu331 O349 2.670 . S
Eu331 O350 2.394 . S
C332 C330 1.500 . S
C332 C333 1.377 . S
C332 C337 1.377 . S
C333 C332 1.377 . S
C333 C334 1.395 . S
C333 H356 0.931 . S
C334 C333 1.395 . S
C334 C335 1.383 . S
C334 H357 0.931 . S
C335 C334 1.383 . S
C335 C336 1.394 . S
C336 C335 1.394 . S
C336 C337 1.378 . S
C336 H358 0.931 . S
C337 C332 1.377 . S
C337 C336 1.378 . S
C337 H359 0.931 . S
C338 O348 1.259 . S
C338 O349 1.270 . S
C339 O350 1.251 . S
C339 O351 1.251 . S
O340 C320 1.257 . S
O340 Eu321 2.473 . S
O341 C320 1.260 . S
O341 Eu321 2.480 . S
O342 Eu321 2.430 . S
O342 C328 1.259 . S
O343 Eu321 2.670 . S
O343 C328 1.270 . S
O343 Eu331 2.355 . S
O344 Eu321 2.394 . S
O344 C329 1.251 . S
O345 C329 1.251 . S
O345 Eu331 2.374 . S
O346 C330 1.257 . S
O346 Eu331 2.473 . S
O347 C330 1.260 . S
O347 Eu331 2.480 . S
O348 Eu331 2.430 . S
O348 C338 1.259 . S
O349 Eu321 2.355 . S
O349 Eu331 2.670 . S
O349 C338 1.270 . S
O350 Eu331 2.394 . S
O350 C339 1.251 . S
O351 Eu321 2.374 . S
O351 C339 1.251 . S
H352 C323 0.931 . S
H353 C324 0.931 . S
H354 C326 0.931 . S
H355 C327 0.931 . S
H356 C333 0.931 . S
H357 C334 0.931 . S
H358 C336 0.931 . S
H359 C337 0.931 . S
C360 Eu361 2.835 . S
C360 C362 1.500 . S
C360 O380 1.257 . S
C360 O381 1.260 . S
Eu361 C360 2.835 . S
Eu361 O380 2.473 . S
Eu361 O381 2.480 . S
Eu361 O382 2.430 . S
Eu361 O383 2.670 . S
Eu361 O384 2.394 . S
Eu361 O389 2.355 . S
Eu361 O391 2.374 . S
C362 C360 1.500 . S
C362 C363 1.377 . S
C362 C367 1.377 1_545 S
C363 C362 1.377 . S
C363 C364 1.395 . S
C363 H392 0.931 . S
C364 C363 1.395 . S
C364 C365 1.383 1_545 S
C364 H393 0.931 . S
C365 C364 1.383 1_565 S
C365 C366 1.394 . S
C366 C365 1.394 . S
C366 C367 1.378 . S
C366 H394 0.931 . S
C367 C362 1.377 1_565 S
C367 C366 1.378 . S
C367 H395 0.931 . S
C368 O382 1.259 . S
C368 O383 1.270 . S
C369 O384 1.251 1_565 S
C369 O385 1.251 . S
C370 Eu371 2.835 . S
C370 C372 1.500 . S
C370 O386 1.257 . S
C370 O387 1.260 . S
Eu371 C370 2.835 . S
Eu371 O383 2.355 . S
Eu371 O385 2.374 1_545 S
Eu371 O386 2.473 . S
Eu371 O387 2.480 . S
Eu371 O388 2.425 1_545 S
Eu371 O389 2.670 . S
Eu371 O390 2.394 . S
C372 C370 1.500 . S
C372 C373 1.377 . S
C372 C377 1.377 . S
C373 C372 1.377 . S
C373 C374 1.395 . S
C373 H396 0.931 . S
C374 C373 1.395 . S
C374 C375 1.383 . S
C374 H397 0.931 1_455 S
C375 C374 1.383 . S
C375 C376 1.394 . S
C376 C375 1.394 . S
C376 C377 1.378 . S
C376 H398 0.931 . S
C377 C372 1.377 . S
C377 C376 1.378 . S
C377 H399 0.931 . S
C378 O388 1.252 1_545 S
C378 O389 1.270 . S
C379 O390 1.251 . S
C379 O391 1.251 . S
O380 C360 1.257 . S
O380 Eu361 2.473 . S
O381 C360 1.260 . S
O381 Eu361 2.480 . S
O382 Eu361 2.430 . S
O382 C368 1.259 . S
O383 Eu361 2.670 . S
O383 C368 1.270 . S
O383 Eu371 2.355 . S
O384 Eu361 2.394 . S
O384 C369 1.251 1_545 S
O385 C369 1.251 . S
O385 Eu371 2.374 1_565 S
O386 C370 1.257 . S
O386 Eu371 2.473 . S
O387 C370 1.260 . S
O387 Eu371 2.480 . S
O388 Eu371 2.425 1_565 S
O388 C378 1.252 1_565 S
O389 Eu361 2.355 . S
O389 Eu371 2.670 . S
O389 C378 1.270 . S
O390 Eu371 2.394 . S
O390 C379 1.251 . S
O391 Eu361 2.374 . S
O391 C379 1.251 . S
H392 C363 0.931 . S
H393 C364 0.931 . S
H394 C366 0.931 . S
H395 C367 0.931 . S
H396 C373 0.931 . S
H397 C374 0.931 1_655 S
H398 C376 0.931 . S
H399 C377 0.931 . S
C400 Eu401 2.835 . S
C400 C402 1.500 . S
C400 O420 1.257 . S
C400 O421 1.260 . S
Eu401 C400 2.835 . S
Eu401 O420 2.473 . S
Eu401 O421 2.480 . S
Eu401 O422 2.430 . S
Eu401 O423 2.670 . S
Eu401 O424 2.394 . S
Eu401 O429 2.355 . S
Eu401 O431 2.374 . S
C402 C400 1.500 . S
C402 C403 1.377 . S
C402 C407 1.377 . S
C403 C402 1.377 . S
C403 C404 1.395 . S
C403 H432 0.931 . S
C404 C403 1.395 . S
C404 C405 1.383 . S
C404 H433 0.931 . S
C405 C404 1.383 . S
C405 C406 1.394 . S
C406 C405 1.394 . S
C406 C407 1.378 . S
C406 H434 0.931 . S
C407 C402 1.377 . S
C407 C406 1.378 . S
C407 H435 0.931 . S
C408 O422 1.259 . S
C408 O423 1.270 . S
C409 O424 1.251 . S
C409 O425 1.251 . S
C410 Eu411 2.835 . S
C410 C412 1.500 . S
C410 O426 1.257 . S
C410 O427 1.260 . S
Eu411 C410 2.835 . S
Eu411 O423 2.355 . S
Eu411 O425 2.374 . S
Eu411 O426 2.473 . S
Eu411 O427 2.480 . S
Eu411 O428 2.430 . S
Eu411 O429 2.670 . S
Eu411 O430 2.394 . S
C412 C410 1.500 . S
C412 C413 1.377 . S
C412 C417 1.377 . S
C413 C412 1.377 . S
C413 C414 1.395 . S
C413 H436 0.931 . S
C414 C413 1.395 . S
C414 C415 1.383 . S
C414 H437 0.931 . S
C415 C414 1.383 . S
C415 C416 1.394 . S
C416 C415 1.394 . S
C416 C417 1.378 . S
C416 H438 0.931 . S
C417 C412 1.377 . S
C417 C416 1.378 . S
C417 H439 0.931 . S
C418 O428 1.259 . S
C418 O429 1.270 . S
C419 O430 1.251 . S
C419 O431 1.251 . S
O420 C400 1.257 . S
O420 Eu401 2.473 . S
O421 C400 1.260 . S
O421 Eu401 2.480 . S
O422 Eu401 2.430 . S
O422 C408 1.259 . S
O423 Eu401 2.670 . S
O423 C408 1.270 . S
O423 Eu411 2.355 . S
O424 Eu401 2.394 . S
O424 C409 1.251 . S
O425 C409 1.251 . S
O425 Eu411 2.374 . S
O426 C410 1.257 . S
O426 Eu411 2.473 . S
O427 C410 1.260 . S
O427 Eu411 2.480 . S
O428 Eu411 2.430 . S
O428 C418 1.259 . S
O429 Eu401 2.355 . S
O429 Eu411 2.670 . S
O429 C418 1.270 . S
O430 Eu411 2.394 . S
O430 C419 1.251 . S
O431 Eu401 2.374 . S
O431 C419 1.251 . S
H432 C403 0.931 . S
H433 C404 0.931 . S
H434 C406 0.931 . S
H435 C407 0.931 . S
H436 C413 0.931 . S
H437 C414 0.931 . S
H438 C416 0.931 . S
H439 C417 0.931 . S
C440 Eu441 2.835 . S
C440 C442 1.500 . S
C440 O460 1.257 . S
C440 O461 1.260 . S
Eu441 C440 2.835 . S
Eu441 O460 2.473 . S
Eu441 O461 2.480 . S
Eu441 O462 2.430 . S
Eu441 O463 2.670 . S
Eu441 O464 2.394 . S
Eu441 O469 2.355 . S
Eu441 O471 2.374 . S
C442 C440 1.500 . S
C442 C443 1.377 . S
C442 C447 1.377 1_565 S
C443 C442 1.377 . S
C443 C444 1.395 . S
C443 H472 0.931 . S
C444 C443 1.395 . S
C444 C445 1.383 1_565 S
C444 H473 0.931 . S
C445 C444 1.383 1_545 S
C445 C446 1.394 . S
C446 C445 1.394 . S
C446 C447 1.378 . S
C446 H474 0.931 . S
C447 C442 1.377 1_545 S
C447 C446 1.378 . S
C447 H475 0.931 . S
C448 O462 1.259 . S
C448 O463 1.270 . S
C449 O464 1.251 1_545 S
C449 O465 1.251 . S
C450 Eu451 2.835 . S
C450 C452 1.500 . S
C450 O466 1.257 . S
C450 O467 1.260 . S
Eu451 C450 2.835 . S
Eu451 O463 2.355 . S
Eu451 O465 2.374 1_565 S
Eu451 O466 2.473 . S
Eu451 O467 2.480 . S
Eu451 O468 2.425 1_565 S
Eu451 O469 2.670 . S
Eu451 O470 2.394 . S
C452 C450 1.500 . S
C452 C453 1.377 . S
C452 C457 1.377 . S
C453 C452 1.377 . S
C453 C454 1.395 . S
C453 H476 0.931 . S
C454 C453 1.395 . S
C454 C455 1.383 . S
C454 H477 0.931 . S
C455 C454 1.383 . S
C455 C456 1.394 . S
C456 C455 1.394 . S
C456 C457 1.378 . S
C456 H478 0.931 . S
C457 C452 1.377 . S
C457 C456 1.378 . S
C457 H479 0.931 . S
C458 O468 1.252 1_565 S
C458 O469 1.270 . S
C459 O470 1.251 . S
C459 O471 1.251 . S
O460 C440 1.257 . S
O460 Eu441 2.473 . S
O461 C440 1.260 . S
O461 Eu441 2.480 . S
O462 Eu441 2.430 . S
O462 C448 1.259 . S
O463 Eu441 2.670 . S
O463 C448 1.270 . S
O463 Eu451 2.355 . S
O464 Eu441 2.394 . S
O464 C449 1.251 1_565 S
O465 C449 1.251 . S
O465 Eu451 2.374 1_545 S
O466 C450 1.257 . S
O466 Eu451 2.473 . S
O467 C450 1.260 . S
O467 Eu451 2.480 . S
O468 Eu451 2.425 1_545 S
O468 C458 1.252 1_545 S
O469 Eu441 2.355 . S
O469 Eu451 2.670 . S
O469 C458 1.270 . S
O470 Eu451 2.394 . S
O470 C459 1.251 . S
O471 Eu441 2.374 . S
O471 C459 1.251 . S
H472 C443 0.931 . S
H473 C444 0.931 . S
H474 C446 0.931 . S
H475 C447 0.931 . S
H476 C453 0.931 . S
H477 C454 0.931 . S
H478 C456 0.931 . S
H479 C457 0.931 . S
C480 Eu481 2.835 . S
C480 C482 1.500 . S
C480 O500 1.257 . S
C480 O501 1.260 . S
Eu481 C480 2.835 . S
Eu481 O500 2.473 . S
Eu481 O501 2.480 . S
Eu481 O502 2.430 . S
Eu481 O503 2.670 . S
Eu481 O504 2.394 . S
Eu481 O509 2.355 . S
Eu481 O511 2.374 . S
C482 C480 1.500 . S
C482 C483 1.377 . S
C482 C487 1.377 . S
C483 C482 1.377 . S
C483 C484 1.395 . S
C483 H512 0.931 . S
C484 C483 1.395 . S
C484 C485 1.383 . S
C484 H513 0.931 . S
C485 C484 1.383 . S
C485 C486 1.394 . S
C486 C485 1.394 . S
C486 C487 1.378 . S
C486 H514 0.931 . S
C487 C482 1.377 . S
C487 C486 1.378 . S
C487 H515 0.931 . S
C488 O502 1.259 . S
C488 O503 1.270 . S
C489 O504 1.251 . S
C489 O505 1.251 . S
C490 Eu491 2.835 . S
C490 C492 1.500 . S
C490 O506 1.257 . S
C490 O507 1.260 . S
Eu491 C490 2.835 . S
Eu491 O503 2.355 . S
Eu491 O505 2.374 . S
Eu491 O506 2.473 . S
Eu491 O507 2.480 . S
Eu491 O508 2.430 . S
Eu491 O509 2.670 . S
Eu491 O510 2.394 . S
C492 C490 1.500 . S
C492 C493 1.377 . S
C492 C497 1.377 . S
C493 C492 1.377 . S
C493 C494 1.395 . S
C493 H516 0.931 . S
C494 C493 1.395 . S
C494 C495 1.383 . S
C494 H517 0.931 . S
C495 C494 1.383 . S
C495 C496 1.394 . S
C496 C495 1.394 . S
C496 C497 1.378 . S
C496 H518 0.931 . S
C497 C492 1.377 . S
C497 C496 1.378 . S
C497 H519 0.931 . S
C498 O508 1.259 . S
C498 O509 1.270 . S
C499 O510 1.251 . S
C499 O511 1.251 . S
O500 C480 1.257 . S
O500 Eu481 2.473 . S
O501 C480 1.260 . S
O501 Eu481 2.480 . S
O502 Eu481 2.430 . S
O502 C488 1.259 . S
O503 Eu481 2.670 . S
O503 C488 1.270 . S
O503 Eu491 2.355 . S
O504 Eu481 2.394 . S
O504 C489 1.251 . S
O505 C489 1.251 . S
O505 Eu491 2.374 . S
O506 C490 1.257 . S
O506 Eu491 2.473 . S
O507 C490 1.260 . S
O507 Eu491 2.480 . S
O508 Eu491 2.430 . S
O508 C498 1.259 . S
O509 Eu481 2.355 . S
O509 Eu491 2.670 . S
O509 C498 1.270 . S
O510 Eu491 2.394 . S
O510 C499 1.251 . S
O511 Eu481 2.374 . S
O511 C499 1.251 . S
H512 C483 0.931 . S
H513 C484 0.931 . S
H514 C486 0.931 . S
H515 C487 0.931 . S
H516 C493 0.931 . S
H517 C494 0.931 . S
H518 C496 0.931 . S
H519 C497 0.931 . S
C520 Eu521 2.835 . S
C520 C522 1.500 . S
C520 O540 1.257 . S
C520 O541 1.260 . S
Eu521 C520 2.835 . S
Eu521 O540 2.473 . S
Eu521 O541 2.480 . S
Eu521 O542 2.425 1_565 S
Eu521 O543 2.670 . S
Eu521 O544 2.394 . S
Eu521 O549 2.355 . S
Eu521 O551 2.374 1_565 S
C522 C520 1.500 . S
C522 C523 1.377 . S
C522 C527 1.377 . S
C523 C522 1.377 . S
C523 C524 1.395 . S
C523 H552 0.931 . S
C524 C523 1.395 . S
C524 C525 1.383 . S
C524 H553 0.931 1_655 S
C525 C524 1.383 . S
C525 C526 1.394 . S
C526 C525 1.394 . S
C526 C527 1.378 . S
C526 H554 0.931 . S
C527 C522 1.377 . S
C527 C526 1.378 . S
C527 H555 0.931 . S
C528 O542 1.252 1_565 S
C528 O543 1.270 . S
C529 O544 1.251 . S
C529 O545 1.251 . S
C530 Eu531 2.835 . S
C530 C532 1.500 . S
C530 O546 1.257 . S
C530 O547 1.260 . S
Eu531 C530 2.835 . S
Eu531 O543 2.355 . S
Eu531 O545 2.374 . S
Eu531 O546 2.473 . S
Eu531 O547 2.480 . S
Eu531 O548 2.430 . S
Eu531 O549 2.670 . S
Eu531 O550 2.394 . S
C532 C530 1.500 . S
C532 C533 1.377 . S
C532 C537 1.377 1_565 S
C533 C532 1.377 . S
C533 C534 1.395 . S
C533 H556 0.931 . S
C534 C533 1.395 . S
C534 C535 1.383 1_565 S
C534 H557 0.931 . S
C535 C534 1.383 1_545 S
C535 C536 1.394 . S
C536 C535 1.394 . S
C536 C537 1.378 . S
C536 H558 0.931 . S
C537 C532 1.377 1_545 S
C537 C536 1.378 . S
C537 H559 0.931 . S
C538 O548 1.259 . S
C538 O549 1.270 . S
C539 O550 1.251 1_545 S
C539 O551 1.251 . S
O540 C520 1.257 . S
O540 Eu521 2.473 . S
O541 C520 1.260 . S
O541 Eu521 2.480 . S
O542 Eu521 2.425 1_545 S
O542 C528 1.252 1_545 S
O543 Eu521 2.670 . S
O543 C528 1.270 . S
O543 Eu531 2.355 . S
O544 Eu521 2.394 . S
O544 C529 1.251 . S
O545 C529 1.251 . S
O545 Eu531 2.374 . S
O546 C530 1.257 . S
O546 Eu531 2.473 . S
O547 C530 1.260 . S
O547 Eu531 2.480 . S
O548 Eu531 2.430 . S
O548 C538 1.259 . S
O549 Eu521 2.355 . S
O549 Eu531 2.670 . S
O549 C538 1.270 . S
O550 Eu531 2.394 . S
O550 C539 1.251 1_565 S
O551 Eu521 2.374 1_545 S
O551 C539 1.251 . S
H552 C523 0.931 . S
H553 C524 0.931 1_455 S
H554 C526 0.931 . S
H555 C527 0.931 . S
H556 C533 0.931 . S
H557 C534 0.931 . S
H558 C536 0.931 . S
H559 C537 0.931 . S
C560 Eu561 2.835 . S
C560 C562 1.500 . S
C560 O580 1.257 . S
C560 O581 1.260 . S
Eu561 C560 2.835 . S
Eu561 O580 2.473 . S
Eu561 O581 2.480 . S
Eu561 O582 2.430 . S
Eu561 O583 2.670 . S
Eu561 O584 2.394 . S
Eu561 O589 2.355 . S
Eu561 O591 2.374 . S
C562 C560 1.500 . S
C562 C563 1.377 . S
C562 C567 1.377 . S
C563 C562 1.377 . S
C563 C564 1.395 . S
C563 H592 0.931 . S
C564 C563 1.395 . S
C564 C565 1.383 . S
C564 H593 0.931 . S
C565 C564 1.383 . S
C565 C566 1.394 . S
C566 C565 1.394 . S
C566 C567 1.378 . S
C566 H594 0.931 . S
C567 C562 1.377 . S
C567 C566 1.378 . S
C567 H595 0.931 . S
C568 O582 1.259 . S
C568 O583 1.270 . S
C569 O584 1.251 . S
C569 O585 1.251 . S
C570 Eu571 2.835 . S
C570 C572 1.500 . S
C570 O586 1.257 . S
C570 O587 1.260 . S
Eu571 C570 2.835 . S
Eu571 O583 2.355 . S
Eu571 O585 2.374 . S
Eu571 O586 2.473 . S
Eu571 O587 2.480 . S
Eu571 O588 2.430 . S
Eu571 O589 2.670 . S
Eu571 O590 2.394 . S
C572 C570 1.500 . S
C572 C573 1.377 . S
C572 C577 1.377 . S
C573 C572 1.377 . S
C573 C574 1.395 . S
C573 H596 0.931 . S
C574 C573 1.395 . S
C574 C575 1.383 . S
C574 H597 0.931 . S
C575 C574 1.383 . S
C575 C576 1.394 . S
C576 C575 1.394 . S
C576 C577 1.378 . S
C576 H598 0.931 . S
C577 C572 1.377 . S
C577 C576 1.378 . S
C577 H599 0.931 . S
C578 O588 1.259 . S
C578 O589 1.270 . S
C579 O590 1.251 . S
C579 O591 1.251 . S
O580 C560 1.257 . S
O580 Eu561 2.473 . S
O581 C560 1.260 . S
O581 Eu561 2.480 . S
O582 Eu561 2.430 . S
O582 C568 1.259 . S
O583 Eu561 2.670 . S
O583 C568 1.270 . S
O583 Eu571 2.355 . S
O584 Eu561 2.394 . S
O584 C569 1.251 . S
O585 C569 1.251 . S
O585 Eu571 2.374 . S
O586 C570 1.257 . S
O586 Eu571 2.473 . S
O587 C570 1.260 . S
O587 Eu571 2.480 . S
O588 Eu571 2.430 . S
O588 C578 1.259 . S
O589 Eu561 2.355 . S
O589 Eu571 2.670 . S
O589 C578 1.270 . S
O590 Eu571 2.394 . S
O590 C579 1.251 . S
O591 Eu561 2.374 . S
O591 C579 1.251 . S
H592 C563 0.931 . S
H593 C564 0.931 . S
H594 C566 0.931 . S
H595 C567 0.931 . S
H596 C573 0.931 . S
H597 C574 0.931 . S
H598 C576 0.931 . S
H599 C577 0.931 . S
C600 Eu601 2.835 . S
C600 C602 1.500 . S
C600 O620 1.257 . S
C600 O621 1.260 . S
Eu601 C600 2.835 . S
Eu601 O620 2.473 . S
Eu601 O621 2.480 . S
Eu601 O622 2.425 1_545 S
Eu601 O623 2.670 . S
Eu601 O624 2.394 . S
Eu601 O629 2.355 . S
Eu601 O631 2.374 1_545 S
C602 C600 1.500 . S
C602 C603 1.377 . S
C602 C607 1.377 . S
C603 C602 1.377 . S
C603 C604 1.395 . S
C603 H632 0.931 . S
C604 C603 1.395 . S
C604 C605 1.383 . S
C604 H633 0.931 . S
C605 C604 1.383 . S
C605 C606 1.394 . S
C606 C605 1.394 . S
C606 C607 1.378 . S
C606 H634 0.931 . S
C607 C602 1.377 . S
C607 C606 1.378 . S
C607 H635 0.931 . S
C608 O622 1.252 1_545 S
C608 O623 1.270 . S
C609 O624 1.251 . S
C609 O625 1.251 . S
C610 Eu611 2.835 . S
C610 C612 1.500 . S
C610 O626 1.257 . S
C610 O627 1.260 . S
Eu611 C610 2.835 . S
Eu611 O623 2.355 . S
Eu611 O625 2.374 . S
Eu611 O626 2.473 . S
Eu611 O627 2.480 . S
Eu611 O628 2.430 . S
Eu611 O629 2.670 . S
Eu611 O630 2.394 . S
C612 C610 1.500 . S
C612 C613 1.377 . S
C612 C617 1.377 1_545 S
C613 C612 1.377 . S
C613 C614 1.395 . S
C613 H636 0.931 . S
C614 C613 1.395 . S
C614 C615 1.383 1_545 S
C614 H637 0.931 . S
C615 C614 1.383 1_565 S
C615 C616 1.394 . S
C616 C615 1.394 . S
C616 C617 1.378 . S
C616 H638 0.931 . S
C617 C612 1.377 1_565 S
C617 C616 1.378 . S
C617 H639 0.931 . S
C618 O628 1.259 . S
C618 O629 1.270 . S
C619 O630 1.251 1_565 S
C619 O631 1.251 . S
O620 C600 1.257 . S
O620 Eu601 2.473 . S
O621 C600 1.260 . S
O621 Eu601 2.480 . S
O622 Eu601 2.425 1_565 S
O622 C608 1.252 1_565 S
O623 Eu601 2.670 . S
O623 C608 1.270 . S
O623 Eu611 2.355 . S
O624 Eu601 2.394 . S
O624 C609 1.251 . S
O625 C609 1.251 . S
O625 Eu611 2.374 . S
O626 C610 1.257 . S
O626 Eu611 2.473 . S
O627 C610 1.260 . S
O627 Eu611 2.480 . S
O628 Eu611 2.430 . S
O628 C618 1.259 . S
O629 Eu601 2.355 . S
O629 Eu611 2.670 . S
O629 C618 1.270 . S
O630 Eu611 2.394 . S
O630 C619 1.251 1_545 S
O631 Eu601 2.374 1_565 S
O631 C619 1.251 . S
H632 C603 0.931 . S
H633 C604 0.931 . S
H634 C606 0.931 . S
H635 C607 0.931 . S
H636 C613 0.931 . S
H637 C614 0.931 . S
H638 C616 0.931 . S
H639 C617 0.931 . S
C640 C641 1.349 . S
C640 C642 1.327 . S
C640 H665 0.950 . S
C641 C640 1.349 . S
C641 C657 1.349 . S
C642 C640 1.327 . S
C642 C661 1.429 . S
C642 H666 0.950 . S
C643 C660 1.574 . S
C643 C662 1.368 . S
C643 H667 0.949 . S
H644 C648 0.949 . S
C645 C646 1.349 . S
C645 C647 1.327 . S
C645 H668 0.950 . S
C646 C645 1.349 . S
C646 C658 1.349 . S
C647 C645 1.327 . S
C647 C663 1.429 . S
C647 H669 0.950 . S
C648 H644 0.949 . S
C648 C656 1.574 . S
C648 C664 1.368 . S
H649 C657 0.950 . S
H650 C655 0.950 . S
H651 C656 0.949 . S
H652 C658 0.950 . S
H653 C659 0.950 . S
H654 C660 0.949 . S
C655 H650 0.950 . S
C655 C657 1.327 . S
C655 C661 1.429 . S
C656 C648 1.574 . S
C656 H651 0.949 . S
C656 C662 1.368 . S
C657 C641 1.349 . S
C657 H649 0.950 . S
C657 C655 1.327 . S
C658 C646 1.349 . S
C658 H652 0.950 . S
C658 C659 1.327 . S
C659 H653 0.950 . S
C659 C658 1.327 . S
C659 C663 1.429 . S
C660 C643 1.574 . S
C660 H654 0.949 . S
C660 C664 1.368 . S
C661 C642 1.429 . S
C661 C655 1.429 . S
C661 C662 1.523 . S
C662 C643 1.368 . S
C662 C656 1.368 . S
C662 C661 1.523 . S
C663 C647 1.429 . S
C663 C659 1.429 . S
C663 C664 1.523 . S
C664 C648 1.368 . S
C664 C660 1.368 . S
C664 C663 1.523 . S
H665 C640 0.950 . S
H666 C642 0.950 . S
H667 C643 0.949 . S
H668 C645 0.950 . S
H669 C647 0.950 . S
C670 C671 1.349 . S
C670 C672 1.327 . S
C670 H695 0.950 . S
C671 C670 1.349 . S
C671 C687 1.349 . S
C672 C670 1.327 . S
C672 C691 1.429 . S
C672 H696 0.950 . S
C673 C690 1.574 . S
C673 C692 1.368 . S
C673 H697 0.949 . S
H674 C678 0.949 . S
C675 C676 1.349 . S
C675 C677 1.327 . S
C675 H698 0.950 . S
C676 C675 1.349 . S
C676 C688 1.349 . S
C677 C675 1.327 . S
C677 C693 1.429 . S
C677 H699 0.950 . S
C678 H674 0.949 . S
C678 C686 1.574 . S
C678 C694 1.368 . S
H679 C687 0.950 . S
H680 C685 0.950 . S
H681 C686 0.949 . S
H682 C688 0.950 . S
H683 C689 0.950 . S
H684 C690 0.949 . S
C685 H680 0.950 . S
C685 C687 1.327 . S
C685 C691 1.429 . S
C686 C678 1.574 . S
C686 H681 0.949 . S
C686 C692 1.368 . S
C687 C671 1.349 . S
C687 H679 0.950 . S
C687 C685 1.327 . S
C688 C676 1.349 . S
C688 H682 0.950 . S
C688 C689 1.327 . S
C689 H683 0.950 . S
C689 C688 1.327 . S
C689 C693 1.429 . S
C690 C673 1.574 . S
C690 H684 0.949 . S
C690 C694 1.368 . S
C691 C672 1.429 . S
C691 C685 1.429 . S
C691 C692 1.523 . S
C692 C673 1.368 . S
C692 C686 1.368 . S
C692 C691 1.523 . S
C693 C677 1.429 . S
C693 C689 1.429 . S
C693 C694 1.523 . S
C694 C678 1.368 . S
C694 C690 1.368 . S
C694 C693 1.523 . S
H695 C670 0.950 . S
H696 C672 0.950 . S
H697 C673 0.949 . S
H698 C675 0.950 . S
H699 C677 0.950 . S
C700 C701 1.349 . S
C700 C702 1.327 . S
C700 H725 0.950 . S
C701 C700 1.349 . S
C701 C717 1.349 . S
C702 C700 1.327 . S
C702 C721 1.429 . S
C702 H726 0.950 . S
C703 C720 1.574 . S
C703 C722 1.368 . S
C703 H727 0.949 . S
H704 C708 0.949 . S
C705 C706 1.349 . S
C705 C707 1.327 . S
C705 H728 0.950 . S
C706 C705 1.349 . S
C706 C718 1.349 . S
C707 C705 1.327 . S
C707 C723 1.429 . S
C707 H729 0.950 . S
C708 H704 0.949 . S
C708 C716 1.574 . S
C708 C724 1.368 . S
H709 C717 0.950 . S
H710 C715 0.950 . S
H711 C716 0.949 . S
H712 C718 0.950 . S
H713 C719 0.950 . S
H714 C720 0.949 . S
C715 H710 0.950 . S
C715 C717 1.327 . S
C715 C721 1.429 . S
C716 C708 1.574 . S
C716 H711 0.949 . S
C716 C722 1.368 . S
C717 C701 1.349 . S
C717 H709 0.950 . S
C717 C715 1.327 . S
C718 C706 1.349 . S
C718 H712 0.950 . S
C718 C719 1.327 . S
C719 H713 0.950 . S
C719 C718 1.327 . S
C719 C723 1.429 . S
C720 C703 1.574 . S
C720 H714 0.949 . S
C720 C724 1.368 . S
C721 C702 1.429 . S
C721 C715 1.429 . S
C721 C722 1.523 . S
C722 C703 1.368 . S
C722 C716 1.368 . S
C722 C721 1.523 . S
C723 C707 1.429 . S
C723 C719 1.429 . S
C723 C724 1.523 . S
C724 C708 1.368 . S
C724 C720 1.368 . S
C724 C723 1.523 . S
H725 C700 0.950 . S
H726 C702 0.950 . S
H727 C703 0.949 . S
H728 C705 0.950 . S
H729 C707 0.950 . S
C730 C731 1.349 . S
C730 C732 1.327 . S
C730 H755 0.950 . S
C731 C730 1.349 . S
C731 C747 1.349 . S
C732 C730 1.327 . S
C732 C751 1.429 . S
C732 H756 0.950 . S
C733 C750 1.574 . S
C733 C752 1.368 . S
C733 H757 0.949 . S
H734 C738 0.949 . S
C735 C736 1.349 . S
C735 C737 1.327 . S
C735 H758 0.950 . S
C736 C735 1.349 . S
C736 C748 1.349 . S
C737 C735 1.327 . S
C737 C753 1.429 . S
C737 H759 0.950 . S
C738 H734 0.949 . S
C738 C746 1.574 . S
C738 C754 1.368 . S
H739 C747 0.950 . S
H740 C745 0.950 . S
H741 C746 0.949 . S
H742 C748 0.950 . S
H743 C749 0.950 . S
H744 C750 0.949 . S
C745 H740 0.950 . S
C745 C747 1.327 . S
C745 C751 1.429 . S
C746 C738 1.574 . S
C746 H741 0.949 . S
C746 C752 1.368 1_454 S
C747 C731 1.349 . S
C747 H739 0.950 . S
C747 C745 1.327 . S
C748 C736 1.349 . S
C748 H742 0.950 . S
C748 C749 1.327 . S
C749 H743 0.950 . S
C749 C748 1.327 . S
C749 C753 1.429 . S
C750 C733 1.574 . S
C750 H744 0.949 . S
C750 C754 1.368 1_656 S
C751 C732 1.429 . S
C751 C745 1.429 . S
C751 C752 1.523 . S
C752 C733 1.368 . S
C752 C746 1.368 1_656 S
C752 C751 1.523 . S
C753 C737 1.429 . S
C753 C749 1.429 . S
C753 C754 1.523 . S
C754 C738 1.368 . S
C754 C750 1.368 1_454 S
C754 C753 1.523 . S
H755 C730 0.950 . S
H756 C732 0.950 . S
H757 C733 0.949 . S
H758 C735 0.950 . S
H759 C737 0.950 . S
C760 C761 1.349 . S
C760 C762 1.327 . S
C760 H785 0.950 . S
C761 C760 1.349 . S
C761 C777 1.349 . S
C762 C760 1.327 . S
C762 C781 1.429 . S
C762 H786 0.950 . S
C763 C780 1.574 . S
C763 C782 1.368 . S
C763 H787 0.949 . S
H764 C768 0.949 . S
C765 C766 1.349 . S
C765 C767 1.327 . S
C765 H788 0.950 . S
C766 C765 1.349 . S
C766 C778 1.349 . S
C767 C765 1.327 . S
C767 C783 1.429 . S
C767 H789 0.950 . S
C768 H764 0.949 . S
C768 C776 1.574 . S
C768 C784 1.368 . S
H769 C777 0.950 . S
H770 C775 0.950 . S
H771 C776 0.949 . S
H772 C778 0.950 . S
H773 C779 0.950 . S
H774 C780 0.949 . S
C775 H770 0.950 . S
C775 C777 1.327 . S
C775 C781 1.429 . S
C776 C768 1.574 . S
C776 H771 0.949 . S
C776 C782 1.368 . S
C777 C761 1.349 . S
C777 H769 0.950 . S
C777 C775 1.327 . S
C778 C766 1.349 . S
C778 H772 0.950 . S
C778 C779 1.327 . S
C779 H773 0.950 . S
C779 C778 1.327 . S
C779 C783 1.429 . S
C780 C763 1.574 . S
C780 H774 0.949 . S
C780 C784 1.368 . S
C781 C762 1.429 . S
C781 C775 1.429 . S
C781 C782 1.523 . S
C782 C763 1.368 . S
C782 C776 1.368 . S
C782 C781 1.523 . S
C783 C767 1.429 . S
C783 C779 1.429 . S
C783 C784 1.523 . S
C784 C768 1.368 . S
C784 C780 1.368 . S
C784 C783 1.523 . S
H785 C760 0.950 . S
H786 C762 0.950 . S
H787 C763 0.949 . S
H788 C765 0.950 . S
H789 C767 0.950 . S
C790 C791 1.349 . S
C790 C792 1.327 . S
C790 H815 0.950 . S
C791 C790 1.349 . S
C791 C807 1.349 . S
C792 C790 1.327 . S
C792 C811 1.429 . S
C792 H816 0.950 . S
C793 C810 1.574 . S
C793 C812 1.368 . S
C793 H817 0.949 . S
H794 C798 0.949 . S
C795 C796 1.349 . S
C795 C797 1.327 . S
C795 H818 0.950 . S
C796 C795 1.349 . S
C796 C808 1.349 . S
C797 C795 1.327 . S
C797 C813 1.429 . S
C797 H819 0.950 . S
C798 H794 0.949 . S
C798 C806 1.574 . S
C798 C814 1.368 . S
H799 C807 0.950 . S
H800 C805 0.950 . S
H801 C806 0.949 . S
H802 C808 0.950 . S
H803 C809 0.950 . S
H804 C810 0.949 . S
C805 H800 0.950 . S
C805 C807 1.327 . S
C805 C811 1.429 . S
C806 C798 1.574 . S
C806 H801 0.949 . S
C806 C812 1.368 . S
C807 C791 1.349 . S
C807 H799 0.950 . S
C807 C805 1.327 . S
C808 C796 1.349 . S
C808 H802 0.950 . S
C808 C809 1.327 . S
C809 H803 0.950 . S
C809 C808 1.327 . S
C809 C813 1.429 . S
C810 C793 1.574 . S
C810 H804 0.949 . S
C810 C814 1.368 . S
C811 C792 1.429 . S
C811 C805 1.429 . S
C811 C812 1.523 . S
C812 C793 1.368 . S
C812 C806 1.368 . S
C812 C811 1.523 . S
C813 C797 1.429 . S
C813 C809 1.429 . S
C813 C814 1.523 . S
C814 C798 1.368 . S
C814 C810 1.368 . S
C814 C813 1.523 . S
H815 C790 0.950 . S
H816 C792 0.950 . S
H817 C793 0.949 . S
H818 C795 0.950 . S
H819 C797 0.950 . S
C820 C821 1.349 . S
C820 C822 1.327 . S
C820 H845 0.950 . S
C821 C820 1.349 . S
C821 C837 1.349 1_655 S
C822 C820 1.327 . S
C822 C841 1.429 . S
C822 H846 0.950 . S
C823 C840 1.574 1_564 S
C823 C842 1.368 1_455 S
C823 H847 0.949 . S
H824 C828 0.949 . S
C825 C826 1.349 . S
C825 C827 1.327 . S
C825 H848 0.950 . S
C826 C825 1.349 . S
C826 C838 1.349 1_455 S
C827 C825 1.327 . S
C827 C843 1.429 . S
C827 H849 0.950 . S
C828 H824 0.949 . S
C828 C836 1.574 1_546 S
C828 C844 1.368 1_655 S
H829 C837 0.950 . S
H830 C835 0.950 . S
H831 C836 0.949 . S
H832 C838 0.950 . S
H833 C839 0.950 . S
H834 C840 0.949 . S
C835 H830 0.950 . S
C835 C837 1.327 . S
C835 C841 1.429 1_455 S
C836 C828 1.574 1_564 S
C836 H831 0.949 . S
C836 C842 1.368 . S
C837 C821 1.349 1_455 S
C837 H829 0.950 . S
C837 C835 1.327 . S
C838 C826 1.349 1_655 S
C838 H832 0.950 . S
C838 C839 1.327 . S
C839 H833 0.950 . S
C839 C838 1.327 . S
C839 C843 1.429 1_655 S
C840 C823 1.574 1_546 S
C840 H834 0.949 . S
C840 C844 1.368 . S
C841 C822 1.429 . S
C841 C835 1.429 1_655 S
C841 C842 1.523 . S
C842 C823 1.368 1_655 S
C842 C836 1.368 . S
C842 C841 1.523 . S
C843 C827 1.429 . S
C843 C839 1.429 1_455 S
C843 C844 1.523 . S
C844 C828 1.368 1_455 S
C844 C840 1.368 . S
C844 C843 1.523 . S
H845 C820 0.950 . S
H846 C822 0.950 . S
H847 C823 0.949 . S
H848 C825 0.950 . S
H849 C827 0.950 . S
C850 C851 1.349 . S
C850 C852 1.327 . S
C850 H875 0.950 . S
C851 C850 1.349 . S
C851 C867 1.349 . S
C852 C850 1.327 . S
C852 C871 1.429 . S
C852 H876 0.950 . S
C853 C870 1.571 1_565 S
C853 C872 1.371 . S
C853 H877 0.949 . S
H854 C858 0.949 . S
C855 C856 1.349 . S
C855 C857 1.327 . S
C855 H878 0.950 . S
C856 C855 1.349 . S
C856 C868 1.349 . S
C857 C855 1.327 . S
C857 C873 1.429 . S
C857 H879 0.950 . S
C858 H854 0.949 . S
C858 C866 1.571 1_545 S
C858 C874 1.371 . S
H859 C867 0.950 . S
H860 C865 0.950 . S
H861 C866 0.949 . S
H862 C868 0.950 . S
H863 C869 0.950 . S
H864 C870 0.949 . S
C865 H860 0.950 . S
C865 C867 1.327 . S
C865 C871 1.429 . S
C866 C858 1.571 1_565 S
C866 H861 0.949 . S
C866 C872 1.368 . S
C867 C851 1.349 . S
C867 H859 0.950 . S
C867 C865 1.327 . S
C868 C856 1.349 . S
C868 H862 0.950 . S
C868 C869 1.327 . S
C869 H863 0.950 . S
C869 C868 1.327 . S
C869 C873 1.429 . S
C870 C853 1.571 1_545 S
C870 H864 0.949 . S
C870 C874 1.368 . S
C871 C852 1.429 . S
C871 C865 1.429 . S
C871 C872 1.523 . S
C872 C853 1.371 . S
C872 C866 1.368 . S
C872 C871 1.523 . S
C873 C857 1.429 . S
C873 C869 1.429 . S
C873 C874 1.523 . S
C874 C858 1.371 . S
C874 C870 1.368 . S
C874 C873 1.523 . S
H875 C850 0.950 . S
H876 C852 0.950 . S
H877 C853 0.949 . S
H878 C855 0.950 . S
H879 C857 0.950 . S
C880 C881 1.349 . S
C880 C882 1.327 . S
C880 H905 0.950 . S
C881 C880 1.349 . S
C881 C897 1.349 . S
C882 C880 1.327 . S
C882 C901 1.429 . S
C882 H906 0.950 . S
C883 C900 1.574 . S
C883 C902 1.368 . S
C883 H907 0.949 . S
H884 C888 0.949 . S
C885 C886 1.349 . S
C885 C887 1.327 . S
C885 H908 0.950 . S
C886 C885 1.349 . S
C886 C898 1.349 . S
C887 C885 1.327 . S
C887 C903 1.429 . S
C887 H909 0.950 . S
C888 H884 0.949 . S
C888 C896 1.574 . S
C888 C904 1.368 . S
H889 C897 0.950 . S
H890 C895 0.950 . S
H891 C896 0.949 . S
H892 C898 0.950 . S
H893 C899 0.950 . S
H894 C900 0.949 . S
C895 H890 0.950 . S
C895 C897 1.327 . S
C895 C901 1.429 . S
C896 C888 1.574 . S
C896 H891 0.949 . S
C896 C902 1.368 . S
C897 C881 1.349 . S
C897 H889 0.950 . S
C897 C895 1.327 . S
C898 C886 1.349 . S
C898 H892 0.950 . S
C898 C899 1.327 . S
C899 H893 0.950 . S
C899 C898 1.327 . S
C899 C903 1.429 . S
C900 C883 1.574 . S
C900 H894 0.949 . S
C900 C904 1.368 . S
C901 C882 1.429 . S
C901 C895 1.429 . S
C901 C902 1.523 . S
C902 C883 1.368 . S
C902 C896 1.368 . S
C902 C901 1.523 . S
C903 C887 1.429 . S
C903 C899 1.429 . S
C903 C904 1.523 1_554 S
C904 C888 1.368 . S
C904 C900 1.368 . S
C904 C903 1.523 1_556 S
H905 C880 0.950 . S
H906 C882 0.950 . S
H907 C883 0.949 . S
H908 C885 0.950 . S
H909 C887 0.950 . S
C910 C911 1.349 . S
C910 C912 1.327 . S
C910 H935 0.950 . S
C911 C910 1.349 . S
C911 C927 1.349 . S
C912 C910 1.327 . S
C912 C931 1.429 . S
C912 H936 0.950 . S
C913 C930 1.574 . S
C913 C932 1.368 . S
C913 H937 0.949 . S
H914 C918 0.949 . S
C915 C916 1.349 . S
C915 C917 1.327 . S
C915 H938 0.950 . S
C916 C915 1.349 . S
C916 C928 1.349 . S
C917 C915 1.327 . S
C917 C933 1.429 . S
C917 H939 0.950 . S
C918 H914 0.949 . S
C918 C926 1.574 . S
C918 C934 1.368 . S
H919 C927 0.950 . S
H920 C925 0.950 . S
H921 C926 0.949 . S
H922 C928 0.950 . S
H923 C929 0.950 . S
H924 C930 0.949 . S
C925 H920 0.950 . S
C925 C927 1.327 . S
C925 C931 1.429 . S
C926 C918 1.574 . S
C926 H921 0.949 . S
C926 C932 1.368 . S
C927 C911 1.349 . S
C927 H919 0.950 . S
C927 C925 1.327 . S
C928 C916 1.349 . S
C928 H922 0.950 . S
C928 C929 1.327 . S
C929 H923 0.950 . S
C929 C928 1.327 . S
C929 C933 1.429 . S
C930 C913 1.574 . S
C930 H924 0.949 . S
C930 C934 1.368 . S
C931 C912 1.429 . S
C931 C925 1.429 . S
C931 C932 1.523 . S
C932 C913 1.368 . S
C932 C926 1.368 . S
C932 C931 1.523 . S
C933 C917 1.429 . S
C933 C929 1.429 . S
C933 C934 1.523 . S
C934 C918 1.368 . S
C934 C930 1.368 . S
C934 C933 1.523 . S
H935 C910 0.950 . S
H936 C912 0.950 . S
H937 C913 0.949 . S
H938 C915 0.950 . S
H939 C917 0.950 . S
C940 C941 1.349 . S
C940 C942 1.327 . S
C940 H965 0.950 . S
C941 C940 1.349 . S
C941 C957 1.349 . S
C942 C940 1.327 . S
C942 C961 1.429 . S
C942 H966 0.950 . S
C943 C960 1.574 . S
C943 C962 1.368 . S
C943 H967 0.949 . S
H944 C948 0.949 . S
C945 C946 1.349 . S
C945 C947 1.327 . S
C945 H968 0.950 . S
C946 C945 1.349 . S
C946 C958 1.349 . S
C947 C945 1.327 . S
C947 C963 1.429 . S
C947 H969 0.950 . S
C948 H944 0.949 . S
C948 C956 1.574 . S
C948 C964 1.368 . S
H949 C957 0.950 . S
H950 C955 0.950 . S
H951 C956 0.949 . S
H952 C958 0.950 . S
H953 C959 0.950 . S
H954 C960 0.949 . S
C955 H950 0.950 . S
C955 C957 1.327 . S
C955 C961 1.429 . S
C956 C948 1.574 . S
C956 H951 0.949 . S
C956 C962 1.368 . S
C957 C941 1.349 . S
C957 H949 0.950 . S
C957 C955 1.327 . S
C958 C946 1.349 . S
C958 H952 0.950 . S
C958 C959 1.327 . S
C959 H953 0.950 . S
C959 C958 1.327 . S
C959 C963 1.429 . S
C960 C943 1.574 . S
C960 H954 0.949 . S
C960 C964 1.368 . S
C961 C942 1.429 . S
C961 C955 1.429 . S
C961 C962 1.523 . S
C962 C943 1.368 . S
C962 C956 1.368 . S
C962 C961 1.523 . S
C963 C947 1.429 . S
C963 C959 1.429 . S
C963 C964 1.523 . S
C964 C948 1.368 . S
C964 C960 1.368 . S
C964 C963 1.523 . S
H965 C940 0.950 . S
H966 C942 0.950 . S
H967 C943 0.949 . S
H968 C945 0.950 . S
H969 C947 0.950 . S
C970 C971 1.349 . S
C970 C972 1.327 . S
C970 H995 0.950 . S
C971 C970 1.349 . S
C971 C987 1.349 . S
C972 C970 1.327 . S
C972 C991 1.429 . S
C972 H996 0.950 . S
C973 C990 1.574 . S
C973 C992 1.368 . S
C973 H997 0.949 . S
H974 C978 0.949 . S
C975 C976 1.349 . S
C975 C977 1.327 . S
C975 H998 0.950 . S
C976 C975 1.349 . S
C976 C988 1.349 . S
C977 C975 1.327 . S
C977 C993 1.429 . S
C977 H999 0.950 . S
C978 H974 0.949 . S
C978 C986 1.574 . S
C978 C994 1.368 . S
H979 C987 0.950 . S
H980 C985 0.950 . S
H981 C986 0.949 . S
H982 C988 0.950 . S
H983 C989 0.950 . S
H984 C990 0.949 . S
C985 H980 0.950 . S
C985 C987 1.327 . S
C985 C991 1.429 . S
C986 C978 1.574 . S
C986 H981 0.949 . S
C986 C992 1.368 . S
C987 C971 1.349 . S
C987 H979 0.950 . S
C987 C985 1.327 . S
C988 C976 1.349 . S
C988 H982 0.950 . S
C988 C989 1.327 . S
C989 H983 0.950 . S
C989 C988 1.327 . S
C989 C993 1.429 . S
C990 C973 1.574 . S
C990 H984 0.949 . S
C990 C994 1.368 . S
C991 C972 1.429 . S
C991 C985 1.429 . S
C991 C992 1.523 . S
C992 C973 1.368 . S
C992 C986 1.368 . S
C992 C991 1.523 . S
C993 C977 1.429 . S
C993 C989 1.429 . S
C993 C994 1.523 . S
C994 C978 1.368 . S
C994 C990 1.368 . S
C994 C993 1.523 . S
H995 C970 0.950 . S
H996 C972 0.950 . S
H997 C973 0.949 . S
H998 C975 0.950 . S
H999 C977 0.950 . S
C1000 C1001 1.349 . S
C1000 C1002 1.327 . S
C1000 H1025 0.950 . S
C1001 C1000 1.349 . S
C1001 C1017 1.349 . S
C1002 C1000 1.327 . S
C1002 C1021 1.429 . S
C1002 H1026 0.950 . S
C1003 C1020 1.574 . S
C1003 C1022 1.368 . S
C1003 H1027 0.949 . S
H1004 C1008 0.949 . S
C1005 C1006 1.349 . S
C1005 C1007 1.327 . S
C1005 H1028 0.950 . S
C1006 C1005 1.349 . S
C1006 C1018 1.349 . S
C1007 C1005 1.327 . S
C1007 C1023 1.429 . S
C1007 H1029 0.950 . S
C1008 H1004 0.949 . S
C1008 C1016 1.574 . S
C1008 C1024 1.368 . S
H1009 C1017 0.950 . S
H1010 C1015 0.950 . S
H1011 C1016 0.949 . S
H1012 C1018 0.950 . S
H1013 C1019 0.950 . S
H1014 C1020 0.949 . S
C1015 H1010 0.950 . S
C1015 C1017 1.327 . S
C1015 C1021 1.429 . S
C1016 C1008 1.574 . S
C1016 H1011 0.949 . S
C1016 C1022 1.368 . S
C1017 C1001 1.349 . S
C1017 H1009 0.950 . S
C1017 C1015 1.327 . S
C1018 C1006 1.349 . S
C1018 H1012 0.950 . S
C1018 C1019 1.327 . S
C1019 H1013 0.950 . S
C1019 C1018 1.327 . S
C1019 C1023 1.429 . S
C1020 C1003 1.574 . S
C1020 H1014 0.949 . S
C1020 C1024 1.368 . S
C1021 C1002 1.429 . S
C1021 C1015 1.429 . S
C1021 C1022 1.523 . S
C1022 C1003 1.368 . S
C1022 C1016 1.368 . S
C1022 C1021 1.523 . S
C1023 C1007 1.429 . S
C1023 C1019 1.429 . S
C1023 C1024 1.523 1_556 S
C1024 C1008 1.368 . S
C1024 C1020 1.368 . S
C1024 C1023 1.523 1_554 S
H1025 C1000 0.950 . S
H1026 C1002 0.950 . S
H1027 C1003 0.949 . S
H1028 C1005 0.950 . S
H1029 C1007 0.950 . S
C1030 C1031 1.349 . S
C1030 C1032 1.327 . S
C1030 H1055 0.950 . S
C1031 C1030 1.349 . S
C1031 C1047 1.349 . S
C1032 C1030 1.327 . S
C1032 C1051 1.429 . S
C1032 H1056 0.950 . S
C1033 C1050 1.574 . S
C1033 C1052 1.368 . S
C1033 H1057 0.949 . S
H1034 C1038 0.949 . S
C1035 C1036 1.349 . S
C1035 C1037 1.327 . S
C1035 H1058 0.950 . S
C1036 C1035 1.349 . S
C1036 C1048 1.349 . S
C1037 C1035 1.327 . S
C1037 C1053 1.429 . S
C1037 H1059 0.950 . S
C1038 H1034 0.949 . S
C1038 C1046 1.574 . S
C1038 C1054 1.368 . S
H1039 C1047 0.950 . S
H1040 C1045 0.950 . S
H1041 C1046 0.949 . S
H1042 C1048 0.950 . S
H1043 C1049 0.950 . S
H1044 C1050 0.949 . S
C1045 H1040 0.950 . S
C1045 C1047 1.327 . S
C1045 C1051 1.429 . S
C1046 C1038 1.574 . S
C1046 H1041 0.949 . S
C1046 C1052 1.368 . S
C1047 C1031 1.349 . S
C1047 H1039 0.950 . S
C1047 C1045 1.327 . S
C1048 C1036 1.349 . S
C1048 H1042 0.950 . S
C1048 C1049 1.327 . S
C1049 H1043 0.950 . S
C1049 C1048 1.327 . S
C1049 C1053 1.429 . S
C1050 C1033 1.574 . S
C1050 H1044 0.949 . S
C1050 C1054 1.368 . S
C1051 C1032 1.429 . S
C1051 C1045 1.429 . S
C1051 C1052 1.523 . S
C1052 C1033 1.368 . S
C1052 C1046 1.368 . S
C1052 C1051 1.523 . S
C1053 C1037 1.429 . S
C1053 C1049 1.429 . S
C1053 C1054 1.523 . S
C1054 C1038 1.368 . S
C1054 C1050 1.368 . S
C1054 C1053 1.523 . S
H1055 C1030 0.950 . S
H1056 C1032 0.950 . S
H1057 C1033 0.949 . S
H1058 C1035 0.950 . S
H1059 C1037 0.950 . S
C1060 C1061 1.349 . S
C1060 C1062 1.327 . S
C1060 H1085 0.950 . S
C1061 C1060 1.349 . S
C1061 C1077 1.349 . S
C1062 C1060 1.327 . S
C1062 C1081 1.429 . S
C1062 H1086 0.950 . S
C1063 C1080 1.574 . S
C1063 C1082 1.368 . S
C1063 H1087 0.949 . S
H1064 C1068 0.949 . S
C1065 C1066 1.349 . S
C1065 C1067 1.327 . S
C1065 H1088 0.950 . S
C1066 C1065 1.349 . S
C1066 C1078 1.349 . S
C1067 C1065 1.327 . S
C1067 C1083 1.429 . S
C1067 H1089 0.950 . S
C1068 H1064 0.949 . S
C1068 C1076 1.574 . S
C1068 C1084 1.368 . S
H1069 C1077 0.950 . S
H1070 C1075 0.950 . S
H1071 C1076 0.949 . S
H1072 C1078 0.950 . S
H1073 C1079 0.950 . S
H1074 C1080 0.949 . S
C1075 H1070 0.950 . S
C1075 C1077 1.327 . S
C1075 C1081 1.429 . S
C1076 C1068 1.574 . S
C1076 H1071 0.949 . S
C1076 C1082 1.368 . S
C1077 C1061 1.349 . S
C1077 H1069 0.950 . S
C1077 C1075 1.327 . S
C1078 C1066 1.349 . S
C1078 H1072 0.950 . S
C1078 C1079 1.327 . S
C1079 H1073 0.950 . S
C1079 C1078 1.327 . S
C1079 C1083 1.429 . S
C1080 C1063 1.574 . S
C1080 H1074 0.949 . S
C1080 C1084 1.368 . S
C1081 C1062 1.429 . S
C1081 C1075 1.429 . S
C1081 C1082 1.523 . S
C1082 C1063 1.368 . S
C1082 C1076 1.368 . S
C1082 C1081 1.523 . S
C1083 C1067 1.429 . S
C1083 C1079 1.429 . S
C1083 C1084 1.523 . S
C1084 C1068 1.368 . S
C1084 C1080 1.368 . S
C1084 C1083 1.523 . S
H1085 C1060 0.950 . S
H1086 C1062 0.950 . S
H1087 C1063 0.949 . S
H1088 C1065 0.950 . S
H1089 C1067 0.950 . S
C1090 C1091 1.349 . S
C1090 C1092 1.327 . S
C1090 H1115 0.950 . S
C1091 C1090 1.349 . S
C1091 C1107 1.349 . S
C1092 C1090 1.327 . S
C1092 C1111 1.429 . S
C1092 H1116 0.950 . S
C1093 C1110 1.574 . S
C1093 C1112 1.368 . S
C1093 H1117 0.949 . S
H1094 C1098 0.949 . S
C1095 C1096 1.349 . S
C1095 C1097 1.327 . S
C1095 H1118 0.950 . S
C1096 C1095 1.349 . S
C1096 C1108 1.349 . S
C1097 C1095 1.327 . S
C1097 C1113 1.429 . S
C1097 H1119 0.950 . S
C1098 H1094 0.949 . S
C1098 C1106 1.574 . S
C1098 C1114 1.368 . S
H1099 C1107 0.950 . S
H1100 C1105 0.950 . S
H1101 C1106 0.949 . S
H1102 C1108 0.950 . S
H1103 C1109 0.950 . S
H1104 C1110 0.949 . S
C1105 H1100 0.950 . S
C1105 C1107 1.327 . S
C1105 C1111 1.429 . S
C1106 C1098 1.574 . S
C1106 H1101 0.949 . S
C1106 C1112 1.368 . S
C1107 C1091 1.349 . S
C1107 H1099 0.950 . S
C1107 C1105 1.327 . S
C1108 C1096 1.349 . S
C1108 H1102 0.950 . S
C1108 C1109 1.327 . S
C1109 H1103 0.950 . S
C1109 C1108 1.327 . S
C1109 C1113 1.429 . S
C1110 C1093 1.574 . S
C1110 H1104 0.949 . S
C1110 C1114 1.368 . S
C1111 C1092 1.429 . S
C1111 C1105 1.429 . S
C1111 C1112 1.523 . S
C1112 C1093 1.368 . S
C1112 C1106 1.368 . S
C1112 C1111 1.523 . S
C1113 C1097 1.429 . S
C1113 C1109 1.429 . S
C1113 C1114 1.523 . S
C1114 C1098 1.368 . S
C1114 C1110 1.368 . S
C1114 C1113 1.523 . S
H1115 C1090 0.950 . S
H1116 C1092 0.950 . S
H1117 C1093 0.949 . S
H1118 C1095 0.950 . S
H1119 C1097 0.950 . S
C1120 C1121 1.349 . S
C1120 C1122 1.327 . S
C1120 H1145 0.950 . S
C1121 C1120 1.349 . S
C1121 C1137 1.349 . S
C1122 C1120 1.327 . S
C1122 C1141 1.429 . S
C1122 H1146 0.950 . S
C1123 C1140 1.574 . S
C1123 C1142 1.368 . S
C1123 H1147 0.949 . S
H1124 C1128 0.949 . S
C1125 C1126 1.349 . S
C1125 C1127 1.327 . S
C1125 H1148 0.950 . S
C1126 C1125 1.349 . S
C1126 C1138 1.349 . S
C1127 C1125 1.327 . S
C1127 C1143 1.429 . S
C1127 H1149 0.950 . S
C1128 H1124 0.949 . S
C1128 C1136 1.574 . S
C1128 C1144 1.368 . S
H1129 C1137 0.950 . S
H1130 C1135 0.950 . S
H1131 C1136 0.949 . S
H1132 C1138 0.950 . S
H1133 C1139 0.950 . S
H1134 C1140 0.949 . S
C1135 H1130 0.950 . S
C1135 C1137 1.327 . S
C1135 C1141 1.429 . S
C1136 C1128 1.574 . S
C1136 H1131 0.949 . S
C1136 C1142 1.368 . S
C1137 C1121 1.349 . S
C1137 H1129 0.950 . S
C1137 C1135 1.327 . S
C1138 C1126 1.349 . S
C1138 H1132 0.950 . S
C1138 C1139 1.327 . S
C1139 H1133 0.950 . S
C1139 C1138 1.327 . S
C1139 C1143 1.429 . S
C1140 C1123 1.574 . S
C1140 H1134 0.949 . S
C1140 C1144 1.368 . S
C1141 C1122 1.429 . S
C1141 C1135 1.429 . S
C1141 C1142 1.523 . S
C1142 C1123 1.368 . S
C1142 C1136 1.368 . S
C1142 C1141 1.523 . S
C1143 C1127 1.429 . S
C1143 C1139 1.429 . S
C1143 C1144 1.523 . S
C1144 C1128 1.368 . S
C1144 C1140 1.368 . S
C1144 C1143 1.523 . S
H1145 C1120 0.950 . S
H1146 C1122 0.950 . S
H1147 C1123 0.949 . S
H1148 C1125 0.950 . S
H1149 C1127 0.950 . S
C1150 C1151 1.366 . S
C1150 C1152 1.334 . S
C1150 H1175 0.926 1_565 S
C1151 C1150 1.366 . S
C1151 C1167 1.349 . S
C1152 C1150 1.334 . S
C1152 C1171 1.429 . S
C1152 H1176 0.950 1_565 S
C1153 C1170 1.574 . S
C1153 C1172 1.368 . S
C1153 H1177 0.949 . S
H1154 C1158 0.949 . S
C1155 C1156 1.349 . S
C1155 C1157 1.327 . S
C1155 H1178 0.950 . S
C1156 C1155 1.349 . S
C1156 C1168 1.349 . S
C1157 C1155 1.327 . S
C1157 C1173 1.429 . S
C1157 H1179 0.950 . S
C1158 H1154 0.949 . S
C1158 C1166 1.574 . S
C1158 C1174 1.368 . S
H1159 C1167 0.950 . S
H1160 C1165 0.950 . S
H1161 C1166 0.949 . S
H1162 C1168 0.950 . S
H1163 C1169 0.950 . S
H1164 C1170 0.949 . S
C1165 H1160 0.950 . S
C1165 C1167 1.327 . S
C1165 C1171 1.429 . S
C1166 C1158 1.574 . S
C1166 H1161 0.949 . S
C1166 C1172 1.368 . S
C1167 C1151 1.349 . S
C1167 H1159 0.950 . S
C1167 C1165 1.327 . S
C1168 C1156 1.349 . S
C1168 H1162 0.950 . S
C1168 C1169 1.327 . S
C1169 H1163 0.950 . S
C1169 C1168 1.327 . S
C1169 C1173 1.429 . S
C1170 C1153 1.574 . S
C1170 H1164 0.949 . S
C1170 C1174 1.368 . S
C1171 C1152 1.429 . S
C1171 C1165 1.429 . S
C1171 C1172 1.523 . S
C1172 C1153 1.368 . S
C1172 C1166 1.368 . S
C1172 C1171 1.523 . S
C1173 C1157 1.429 . S
C1173 C1169 1.429 . S
C1173 C1174 1.523 . S
C1174 C1158 1.368 . S
C1174 C1170 1.368 . S
C1174 C1173 1.523 . S
H1175 C1150 0.926 1_545 S
H1176 C1152 0.950 1_545 S
H1177 C1153 0.949 . S
H1178 C1155 0.950 . S
H1179 C1157 0.950 . S
C1180 C1181 1.349 . S
C1180 C1182 1.327 . S
C1180 H1205 0.950 . S
C1181 C1180 1.349 . S
C1181 C1197 1.349 . S
C1182 C1180 1.327 . S
C1182 C1201 1.429 . S
C1182 H1206 0.950 . S
C1183 C1200 1.574 . S
C1183 C1202 1.368 . S
C1183 H1207 0.949 . S
H1184 C1188 0.949 . S
C1185 C1186 1.349 . S
C1185 C1187 1.327 . S
C1185 H1208 0.950 . S
C1186 C1185 1.349 . S
C1186 C1198 1.349 . S
C1187 C1185 1.327 . S
C1187 C1203 1.429 . S
C1187 H1209 0.950 . S
C1188 H1184 0.949 . S
C1188 C1196 1.574 . S
C1188 C1204 1.368 . S
H1189 C1197 0.950 . S
H1190 C1195 0.950 . S
H1191 C1196 0.949 . S
H1192 C1198 0.950 . S
H1193 C1199 0.950 . S
H1194 C1200 0.949 . S
C1195 H1190 0.950 . S
C1195 C1197 1.327 . S
C1195 C1201 1.429 . S
C1196 C1188 1.574 . S
C1196 H1191 0.949 . S
C1196 C1202 1.368 . S
C1197 C1181 1.349 . S
C1197 H1189 0.950 . S
C1197 C1195 1.327 . S
C1198 C1186 1.349 . S
C1198 H1192 0.950 . S
C1198 C1199 1.327 . S
C1199 H1193 0.950 . S
C1199 C1198 1.327 . S
C1199 C1203 1.429 . S
C1200 C1183 1.574 . S
C1200 H1194 0.949 . S
C1200 C1204 1.368 . S
C1201 C1182 1.429 . S
C1201 C1195 1.429 . S
C1201 C1202 1.523 1_554 S
C1202 C1183 1.368 . S
C1202 C1196 1.368 . S
C1202 C1201 1.523 1_556 S
C1203 C1187 1.429 . S
C1203 C1199 1.429 . S
C1203 C1204 1.523 . S
C1204 C1188 1.368 . S
C1204 C1200 1.368 . S
C1204 C1203 1.523 . S
H1205 C1180 0.950 . S
H1206 C1182 0.950 . S
H1207 C1183 0.949 . S
H1208 C1185 0.950 . S
H1209 C1187 0.950 . S
C1210 C1211 1.349 . S
C1210 C1212 1.327 . S
C1210 H1235 0.950 . S
C1211 C1210 1.349 . S
C1211 C1227 1.349 . S
C1212 C1210 1.327 . S
C1212 C1231 1.429 . S
C1212 H1236 0.950 . S
C1213 C1230 1.574 . S
C1213 C1232 1.368 . S
C1213 H1237 0.949 . S
H1214 C1218 0.949 . S
C1215 C1216 1.349 . S
C1215 C1217 1.327 . S
C1215 H1238 0.950 1_545 S
C1216 C1215 1.349 . S
C1216 C1228 1.349 . S
C1217 C1215 1.327 . S
C1217 C1233 1.429 . S
C1217 H1239 0.950 1_545 S
C1218 H1214 0.949 . S
C1218 C1226 1.574 . S
C1218 C1234 1.368 . S
H1219 C1227 0.950 . S
H1220 C1225 0.950 . S
H1221 C1226 0.949 . S
H1222 C1228 0.950 . S
H1223 C1229 0.950 . S
H1224 C1230 0.949 . S
C1225 H1220 0.950 . S
C1225 C1227 1.327 . S
C1225 C1231 1.429 . S
C1226 C1218 1.574 . S
C1226 H1221 0.949 . S
C1226 C1232 1.368 . S
C1227 C1211 1.349 . S
C1227 H1219 0.950 . S
C1227 C1225 1.327 . S
C1228 C1216 1.349 . S
C1228 H1222 0.950 . S
C1228 C1229 1.327 . S
C1229 H1223 0.950 . S
C1229 C1228 1.327 . S
C1229 C1233 1.429 . S
C1230 C1213 1.574 . S
C1230 H1224 0.949 . S
C1230 C1234 1.368 . S
C1231 C1212 1.429 . S
C1231 C1225 1.429 . S
C1231 C1232 1.523 . S
C1232 C1213 1.368 . S
C1232 C1226 1.368 . S
C1232 C1231 1.523 . S
C1233 C1217 1.429 . S
C1233 C1229 1.429 . S
C1233 C1234 1.523 . S
C1234 C1218 1.368 . S
C1234 C1230 1.368 . S
C1234 C1233 1.523 . S
H1235 C1210 0.950 . S
H1236 C1212 0.950 . S
H1237 C1213 0.949 . S
H1238 C1215 0.950 1_565 S
H1239 C1217 0.950 1_565 S
C1240 C1241 1.349 . S
C1240 C1242 1.327 . S
C1240 H1265 0.950 . S
C1241 C1240 1.349 . S
C1241 C1257 1.349 . S
C1242 C1240 1.327 . S
C1242 C1261 1.429 . S
C1242 H1266 0.950 . S
C1243 C1260 1.574 . S
C1243 C1262 1.368 . S
C1243 H1267 0.949 . S
H1244 C1248 0.949 . S
C1245 C1246 1.349 . S
C1245 C1247 1.327 . S
C1245 H1268 0.950 . S
C1246 C1245 1.349 . S
C1246 C1258 1.349 . S
C1247 C1245 1.327 . S
C1247 C1263 1.429 . S
C1247 H1269 0.950 . S
C1248 H1244 0.949 . S
C1248 C1256 1.574 . S
C1248 C1264 1.368 . S
H1249 C1257 0.950 . S
H1250 C1255 0.950 . S
H1251 C1256 0.949 . S
H1252 C1258 0.950 . S
H1253 C1259 0.950 . S
H1254 C1260 0.949 . S
C1255 H1250 0.950 . S
C1255 C1257 1.327 . S
C1255 C1261 1.429 . S
C1256 C1248 1.574 . S
C1256 H1251 0.949 . S
C1256 C1262 1.368 . S
C1257 C1241 1.349 . S
C1257 H1249 0.950 . S
C1257 C1255 1.327 . S
C1258 C1246 1.349 . S
C1258 H1252 0.950 . S
C1258 C1259 1.327 . S
C1259 H1253 0.950 . S
C1259 C1258 1.327 . S
C1259 C1263 1.429 . S
C1260 C1243 1.574 . S
C1260 H1254 0.949 . S
C1260 C1264 1.368 . S
C1261 C1242 1.429 . S
C1261 C1255 1.429 . S
C1261 C1262 1.523 . S
C1262 C1243 1.368 . S
C1262 C1256 1.368 . S
C1262 C1261 1.523 . S
C1263 C1247 1.429 . S
C1263 C1259 1.429 . S
C1263 C1264 1.523 . S
C1264 C1248 1.368 . S
C1264 C1260 1.368 . S
C1264 C1263 1.523 . S
H1265 C1240 0.950 . S
H1266 C1242 0.950 . S
H1267 C1243 0.949 . S
H1268 C1245 0.950 . S
H1269 C1247 0.950 . S
C1270 C1271 1.372 . S
C1270 C1272 1.337 . S
C1270 H1295 0.917 1_545 S
C1271 C1270 1.372 . S
C1271 C1287 1.349 . S
C1272 C1270 1.337 . S
C1272 C1291 1.429 . S
C1272 H1296 0.950 1_545 S
C1273 C1290 1.574 . S
C1273 C1292 1.368 . S
C1273 H1297 0.949 . S
H1274 C1278 0.949 . S
C1275 C1276 1.349 . S
C1275 C1277 1.327 . S
C1275 H1298 0.950 . S
C1276 C1275 1.349 . S
C1276 C1288 1.349 . S
C1277 C1275 1.327 . S
C1277 C1293 1.429 . S
C1277 H1299 0.950 . S
C1278 H1274 0.949 . S
C1278 C1286 1.574 . S
C1278 C1294 1.368 . S
H1279 C1287 0.950 . S
H1280 C1285 0.950 . S
H1281 C1286 0.949 . S
H1282 C1288 0.950 . S
H1283 C1289 0.950 . S
H1284 C1290 0.949 . S
C1285 H1280 0.950 . S
C1285 C1287 1.327 . S
C1285 C1291 1.429 . S
C1286 C1278 1.574 . S
C1286 H1281 0.949 . S
C1286 C1292 1.368 . S
C1287 C1271 1.349 . S
C1287 H1279 0.950 . S
C1287 C1285 1.327 . S
C1288 C1276 1.349 . S
C1288 H1282 0.950 . S
C1288 C1289 1.327 . S
C1289 H1283 0.950 . S
C1289 C1288 1.327 . S
C1289 C1293 1.429 . S
C1290 C1273 1.574 . S
C1290 H1284 0.949 . S
C1290 C1294 1.368 . S
C1291 C1272 1.429 . S
C1291 C1285 1.429 . S
C1291 C1292 1.523 . S
C1292 C1273 1.368 . S
C1292 C1286 1.368 . S
C1292 C1291 1.523 . S
C1293 C1277 1.429 . S
C1293 C1289 1.429 . S
C1293 C1294 1.523 . S
C1294 C1278 1.368 . S
C1294 C1290 1.368 . S
C1294 C1293 1.523 . S
H1295 C1270 0.917 1_565 S
H1296 C1272 0.950 1_565 S
H1297 C1273 0.949 . S
H1298 C1275 0.950 . S
H1299 C1277 0.950 . S
C1300 C1301 1.349 . S
C1300 C1302 1.327 . S
C1300 H1325 0.950 . S
C1301 C1300 1.349 . S
C1301 C1317 1.349 . S
C1302 C1300 1.327 . S
C1302 C1321 1.429 . S
C1302 H1326 0.950 . S
C1303 C1320 1.574 . S
C1303 C1322 1.368 . S
C1303 H1327 0.949 . S
H1304 C1308 0.949 . S
C1305 C1306 1.349 . S
C1305 C1307 1.327 . S
C1305 H1328 0.950 . S
C1306 C1305 1.349 . S
C1306 C1318 1.349 . S
C1307 C1305 1.327 . S
C1307 C1323 1.429 . S
C1307 H1329 0.950 . S
C1308 H1304 0.949 . S
C1308 C1316 1.574 . S
C1308 C1324 1.368 . S
H1309 C1317 0.950 . S
H1310 C1315 0.950 . S
H1311 C1316 0.949 . S
H1312 C1318 0.950 . S
H1313 C1319 0.950 . S
H1314 C1320 0.949 . S
C1315 H1310 0.950 . S
C1315 C1317 1.327 . S
C1315 C1321 1.429 . S
C1316 C1308 1.574 . S
C1316 H1311 0.949 . S
C1316 C1322 1.368 . S
C1317 C1301 1.349 . S
C1317 H1309 0.950 . S
C1317 C1315 1.327 . S
C1318 C1306 1.349 . S
C1318 H1312 0.950 . S
C1318 C1319 1.327 . S
C1319 H1313 0.950 . S
C1319 C1318 1.327 . S
C1319 C1323 1.429 . S
C1320 C1303 1.574 . S
C1320 H1314 0.949 . S
C1320 C1324 1.368 . S
C1321 C1302 1.429 . S
C1321 C1315 1.429 . S
C1321 C1322 1.523 . S
C1322 C1303 1.368 . S
C1322 C1316 1.368 . S
C1322 C1321 1.523 . S
C1323 C1307 1.429 . S
C1323 C1319 1.429 . S
C1323 C1324 1.523 1_556 S
C1324 C1308 1.368 . S
C1324 C1320 1.368 . S
C1324 C1323 1.523 1_554 S
H1325 C1300 0.950 . S
H1326 C1302 0.950 . S
H1327 C1303 0.949 . S
H1328 C1305 0.950 . S
H1329 C1307 0.950 . S
C1330 C1331 1.349 . S
C1330 C1332 1.327 . S
C1330 H1355 0.950 . S
C1331 C1330 1.349 . S
C1331 C1347 1.336 1_565 S
C1332 C1330 1.327 . S
C1332 C1351 1.429 . S
C1332 H1356 0.950 . S
C1333 C1350 1.574 . S
C1333 C1352 1.368 . S
C1333 H1357 0.949 . S
H1334 C1338 0.949 . S
C1335 C1336 1.349 . S
C1335 C1337 1.327 . S
C1335 H1358 0.950 . S
C1336 C1335 1.349 . S
C1336 C1348 1.349 . S
C1337 C1335 1.327 . S
C1337 C1353 1.429 . S
C1337 H1359 0.950 . S
C1338 H1334 0.949 . S
C1338 C1346 1.574 . S
C1338 C1354 1.368 . S
H1339 C1347 0.967 . S
H1340 C1345 0.950 1_545 S
H1341 C1346 0.949 . S
H1342 C1348 0.950 . S
H1343 C1349 0.950 . S
H1344 C1350 0.949 . S
C1345 H1340 0.950 1_565 S
C1345 C1347 1.323 1_565 S
C1345 C1351 1.429 . S
C1346 C1338 1.574 . S
C1346 H1341 0.949 . S
C1346 C1352 1.368 . S
C1347 C1331 1.336 1_545 S
C1347 H1339 0.967 . S
C1347 C1345 1.323 1_545 S
C1348 C1336 1.349 . S
C1348 H1342 0.950 . S
C1348 C1349 1.327 . S
C1349 H1343 0.950 . S
C1349 C1348 1.327 . S
C1349 C1353 1.429 . S
C1350 C1333 1.574 . S
C1350 H1344 0.949 . S
C1350 C1354 1.368 . S
C1351 C1332 1.429 . S
C1351 C1345 1.429 . S
C1351 C1352 1.523 . S
C1352 C1333 1.368 . S
C1352 C1346 1.368 . S
C1352 C1351 1.523 . S
C1353 C1337 1.429 . S
C1353 C1349 1.429 . S
C1353 C1354 1.523 . S
C1354 C1338 1.368 . S
C1354 C1350 1.368 . S
C1354 C1353 1.523 . S
H1355 C1330 0.950 . S
H1356 C1332 0.950 . S
H1357 C1333 0.949 . S
H1358 C1335 0.950 . S
H1359 C1337 0.950 . S
C1360 C1361 1.349 . S
C1360 C1362 1.327 . S
C1360 H1385 0.950 . S
C1361 C1360 1.349 . S
C1361 C1377 1.349 . S
C1362 C1360 1.327 . S
C1362 C1381 1.429 . S
C1362 H1386 0.950 . S
C1363 C1380 1.574 . S
C1363 C1382 1.368 . S
C1363 H1387 0.949 . S
H1364 C1368 0.949 . S
C1365 C1366 1.349 . S
C1365 C1367 1.327 . S
C1365 H1388 0.950 . S
C1366 C1365 1.349 . S
C1366 C1378 1.349 . S
C1367 C1365 1.327 . S
C1367 C1383 1.429 . S
C1367 H1389 0.950 . S
C1368 H1364 0.949 . S
C1368 C1376 1.574 . S
C1368 C1384 1.368 . S
H1369 C1377 0.950 . S
H1370 C1375 0.950 . S
H1371 C1376 0.949 . S
H1372 C1378 0.950 . S
H1373 C1379 0.950 . S
H1374 C1380 0.949 . S
C1375 H1370 0.950 . S
C1375 C1377 1.327 . S
C1375 C1381 1.429 . S
C1376 C1368 1.574 . S
C1376 H1371 0.949 . S
C1376 C1382 1.368 . S
C1377 C1361 1.349 . S
C1377 H1369 0.950 . S
C1377 C1375 1.327 . S
C1378 C1366 1.349 . S
C1378 H1372 0.950 . S
C1378 C1379 1.327 . S
C1379 H1373 0.950 . S
C1379 C1378 1.327 . S
C1379 C1383 1.429 . S
C1380 C1363 1.574 . S
C1380 H1374 0.949 . S
C1380 C1384 1.368 . S
C1381 C1362 1.429 . S
C1381 C1375 1.429 . S
C1381 C1382 1.523 . S
C1382 C1363 1.368 . S
C1382 C1376 1.368 . S
C1382 C1381 1.523 . S
C1383 C1367 1.429 . S
C1383 C1379 1.429 . S
C1383 C1384 1.523 . S
C1384 C1368 1.368 . S
C1384 C1380 1.368 . S
C1384 C1383 1.523 . S
H1385 C1360 0.950 . S
H1386 C1362 0.950 . S
H1387 C1363 0.949 . S
H1388 C1365 0.950 . S
H1389 C1367 0.950 . S
C1390 C1391 1.349 . S
C1390 C1392 1.327 . S
C1390 H1415 0.950 . S
C1391 C1390 1.349 . S
C1391 C1407 1.349 . S
C1392 C1390 1.327 . S
C1392 C1411 1.429 . S
C1392 H1416 0.950 . S
C1393 C1410 1.574 . S
C1393 C1412 1.368 . S
C1393 H1417 0.949 . S
H1394 C1398 0.949 . S
C1395 C1396 1.349 . S
C1395 C1397 1.327 . S
C1395 H1418 0.950 . S
C1396 C1395 1.349 . S
C1396 C1408 1.349 . S
C1397 C1395 1.327 . S
C1397 C1413 1.429 . S
C1397 H1419 0.950 . S
C1398 H1394 0.949 . S
C1398 C1406 1.574 . S
C1398 C1414 1.368 . S
H1399 C1407 0.950 . S
H1400 C1405 0.950 . S
H1401 C1406 0.949 . S
H1402 C1408 0.950 . S
H1403 C1409 0.950 . S
H1404 C1410 0.949 . S
C1405 H1400 0.950 . S
C1405 C1407 1.327 . S
C1405 C1411 1.429 . S
C1406 C1398 1.574 . S
C1406 H1401 0.949 . S
C1406 C1412 1.368 . S
C1407 C1391 1.349 . S
C1407 H1399 0.950 . S
C1407 C1405 1.327 . S
C1408 C1396 1.349 . S
C1408 H1402 0.950 . S
C1408 C1409 1.327 . S
C1409 H1403 0.950 . S
C1409 C1408 1.327 . S
C1409 C1413 1.429 . S
C1410 C1393 1.574 . S
C1410 H1404 0.949 . S
C1410 C1414 1.368 . S
C1411 C1392 1.429 . S
C1411 C1405 1.429 . S
C1411 C1412 1.523 . S
C1412 C1393 1.368 . S
C1412 C1406 1.368 . S
C1412 C1411 1.523 . S
C1413 C1397 1.429 . S
C1413 C1409 1.429 . S
C1413 C1414 1.523 . S
C1414 C1398 1.368 . S
C1414 C1410 1.368 . S
C1414 C1413 1.523 . S
H1415 C1390 0.950 . S
H1416 C1392 0.950 . S
H1417 C1393 0.949 . S
H1418 C1395 0.950 . S
H1419 C1397 0.950 . S
C1420 C1421 1.349 . S
C1420 C1422 1.327 . S
C1420 H1445 0.950 . S
C1421 C1420 1.349 . S
C1421 C1437 1.349 . S
C1422 C1420 1.327 . S
C1422 C1441 1.429 . S
C1422 H1446 0.950 . S
C1423 C1440 1.574 1_655 S
C1423 C1442 1.368 . S
C1423 H1447 0.949 . S
H1424 C1428 0.949 . S
C1425 C1426 1.349 . S
C1425 C1427 1.327 . S
C1425 H1448 0.950 . S
C1426 C1425 1.349 . S
C1426 C1438 1.349 . S
C1427 C1425 1.327 . S
C1427 C1443 1.429 . S
C1427 H1449 0.950 . S
C1428 H1424 0.949 . S
C1428 C1436 1.574 1_455 S
C1428 C1444 1.368 . S
H1429 C1437 0.950 . S
H1430 C1435 0.950 . S
H1431 C1436 0.949 . S
H1432 C1438 0.950 . S
H1433 C1439 0.950 . S
H1434 C1440 0.949 . S
C1435 H1430 0.950 . S
C1435 C1437 1.327 . S
C1435 C1441 1.429 . S
C1436 C1428 1.574 1_655 S
C1436 H1431 0.949 . S
C1436 C1442 1.368 . S
C1437 C1421 1.349 . S
C1437 H1429 0.950 . S
C1437 C1435 1.327 . S
C1438 C1426 1.349 . S
C1438 H1432 0.950 . S
C1438 C1439 1.327 . S
C1439 H1433 0.950 . S
C1439 C1438 1.327 . S
C1439 C1443 1.429 . S
C1440 C1423 1.574 1_455 S
C1440 H1434 0.949 . S
C1440 C1444 1.368 . S
C1441 C1422 1.429 . S
C1441 C1435 1.429 . S
C1441 C1442 1.523 . S
C1442 C1423 1.368 . S
C1442 C1436 1.368 . S
C1442 C1441 1.523 . S
C1443 C1427 1.429 . S
C1443 C1439 1.429 . S
C1443 C1444 1.523 . S
C1444 C1428 1.368 . S
C1444 C1440 1.368 . S
C1444 C1443 1.523 . S
H1445 C1420 0.950 . S
H1446 C1422 0.950 . S
H1447 C1423 0.949 . S
H1448 C1425 0.950 . S
H1449 C1427 0.950 . S
C1450 C1451 1.349 . S
C1450 C1452 1.327 . S
C1450 H1475 0.950 . S
C1451 C1450 1.349 . S
C1451 C1467 1.349 . S
C1452 C1450 1.327 . S
C1452 C1471 1.429 . S
C1452 H1476 0.950 . S
C1453 C1470 1.574 . S
C1453 C1472 1.368 . S
C1453 H1477 0.949 . S
H1454 C1458 0.949 . S
C1455 C1456 1.349 . S
C1455 C1457 1.327 . S
C1455 H1478 0.950 . S
C1456 C1455 1.349 . S
C1456 C1468 1.349 . S
C1457 C1455 1.327 . S
C1457 C1473 1.429 . S
C1457 H1479 0.950 . S
C1458 H1454 0.949 . S
C1458 C1466 1.574 . S
C1458 C1474 1.368 . S
H1459 C1467 0.950 . S
H1460 C1465 0.950 . S
H1461 C1466 0.949 . S
H1462 C1468 0.950 . S
H1463 C1469 0.950 . S
H1464 C1470 0.949 . S
C1465 H1460 0.950 . S
C1465 C1467 1.327 . S
C1465 C1471 1.429 . S
C1466 C1458 1.574 . S
C1466 H1461 0.949 . S
C1466 C1472 1.368 1_455 S
C1467 C1451 1.349 . S
C1467 H1459 0.950 . S
C1467 C1465 1.327 . S
C1468 C1456 1.349 . S
C1468 H1462 0.950 . S
C1468 C1469 1.327 . S
C1469 H1463 0.950 . S
C1469 C1468 1.327 . S
C1469 C1473 1.429 . S
C1470 C1453 1.574 . S
C1470 H1464 0.949 . S
C1470 C1474 1.368 1_655 S
C1471 C1452 1.429 . S
C1471 C1465 1.429 . S
C1471 C1472 1.523 . S
C1472 C1453 1.368 . S
C1472 C1466 1.368 1_655 S
C1472 C1471 1.523 . S
C1473 C1457 1.429 . S
C1473 C1469 1.429 . S
C1473 C1474 1.523 . S
C1474 C1458 1.368 . S
C1474 C1470 1.368 1_455 S
C1474 C1473 1.523 . S
H1475 C1450 0.950 . S
H1476 C1452 0.950 . S
H1477 C1453 0.949 . S
H1478 C1455 0.950 . S
H1479 C1457 0.950 . S
C1480 C1481 1.349 . S
C1480 C1482 1.327 . S
C1480 H1505 0.950 . S
C1481 C1480 1.349 . S
C1481 C1497 1.349 . S
C1482 C1480 1.327 . S
C1482 C1501 1.429 . S
C1482 H1506 0.950 . S
C1483 C1500 1.574 . S
C1483 C1502 1.368 . S
C1483 H1507 0.949 . S
H1484 C1488 0.949 . S
C1485 C1486 1.349 . S
C1485 C1487 1.327 . S
C1485 H1508 0.950 . S
C1486 C1485 1.349 . S
C1486 C1498 1.349 . S
C1487 C1485 1.327 . S
C1487 C1503 1.429 . S
C1487 H1509 0.950 . S
C1488 H1484 0.949 . S
C1488 C1496 1.574 . S
C1488 C1504 1.368 . S
H1489 C1497 0.950 . S
H1490 C1495 0.950 . S
H1491 C1496 0.949 . S
H1492 C1498 0.950 . S
H1493 C1499 0.950 . S
H1494 C1500 0.949 . S
C1495 H1490 0.950 . S
C1495 C1497 1.327 . S
C1495 C1501 1.429 . S
C1496 C1488 1.574 . S
C1496 H1491 0.949 . S
C1496 C1502 1.368 . S
C1497 C1481 1.349 . S
C1497 H1489 0.950 . S
C1497 C1495 1.327 . S
C1498 C1486 1.349 . S
C1498 H1492 0.950 . S
C1498 C1499 1.327 . S
C1499 H1493 0.950 . S
C1499 C1498 1.327 . S
C1499 C1503 1.429 . S
C1500 C1483 1.574 . S
C1500 H1494 0.949 . S
C1500 C1504 1.368 . S
C1501 C1482 1.429 . S
C1501 C1495 1.429 . S
C1501 C1502 1.523 . S
C1502 C1483 1.368 . S
C1502 C1496 1.368 . S
C1502 C1501 1.523 . S
C1503 C1487 1.429 . S
C1503 C1499 1.429 . S
C1503 C1504 1.523 . S
C1504 C1488 1.368 . S
C1504 C1500 1.368 . S
C1504 C1503 1.523 . S
H1505 C1480 0.950 . S
H1506 C1482 0.950 . S
H1507 C1483 0.949 . S
H1508 C1485 0.950 . S
H1509 C1487 0.950 . S
C1510 C1511 1.349 . S
C1510 C1512 1.327 . S
C1510 H1535 0.950 . S
C1511 C1510 1.349 . S
C1511 C1527 1.349 . S
C1512 C1510 1.327 . S
C1512 C1531 1.429 . S
C1512 H1536 0.950 . S
C1513 C1530 1.574 . S
C1513 C1532 1.368 . S
C1513 H1537 0.949 . S
H1514 C1518 0.949 . S
C1515 C1516 1.349 . S
C1515 C1517 1.327 . S
C1515 H1538 0.950 . S
C1516 C1515 1.349 . S
C1516 C1528 1.349 . S
C1517 C1515 1.327 . S
C1517 C1533 1.429 . S
C1517 H1539 0.950 . S
C1518 H1514 0.949 . S
C1518 C1526 1.574 . S
C1518 C1534 1.368 . S
H1519 C1527 0.950 . S
H1520 C1525 0.950 . S
H1521 C1526 0.949 . S
H1522 C1528 0.950 . S
H1523 C1529 0.950 . S
H1524 C1530 0.949 . S
C1525 H1520 0.950 . S
C1525 C1527 1.327 . S
C1525 C1531 1.429 . S
C1526 C1518 1.574 . S
C1526 H1521 0.949 . S
C1526 C1532 1.368 . S
C1527 C1511 1.349 . S
C1527 H1519 0.950 . S
C1527 C1525 1.327 . S
C1528 C1516 1.349 . S
C1528 H1522 0.950 . S
C1528 C1529 1.327 . S
C1529 H1523 0.950 . S
C1529 C1528 1.327 . S
C1529 C1533 1.429 . S
C1530 C1513 1.574 . S
C1530 H1524 0.949 . S
C1530 C1534 1.368 . S
C1531 C1512 1.429 . S
C1531 C1525 1.429 . S
C1531 C1532 1.523 . S
C1532 C1513 1.368 . S
C1532 C1526 1.368 . S
C1532 C1531 1.523 . S
C1533 C1517 1.429 . S
C1533 C1529 1.429 . S
C1533 C1534 1.523 . S
C1534 C1518 1.368 . S
C1534 C1530 1.368 . S
C1534 C1533 1.523 . S
H1535 C1510 0.950 . S
H1536 C1512 0.950 . S
H1537 C1513 0.949 . S
H1538 C1515 0.950 . S
H1539 C1517 0.950 . S
C1540 C1541 1.349 . S
C1540 C1542 1.327 . S
C1540 H1565 0.950 . S
C1541 C1540 1.349 . S
C1541 C1557 1.349 . S
C1542 C1540 1.327 . S
C1542 C1561 1.429 . S
C1542 H1566 0.950 . S
C1543 C1560 1.574 1_455 S
C1543 C1562 1.368 . S
C1543 H1567 0.949 . S
H1544 C1548 0.949 . S
C1545 C1546 1.349 . S
C1545 C1547 1.327 . S
C1545 H1568 0.950 . S
C1546 C1545 1.349 . S
C1546 C1558 1.349 . S
C1547 C1545 1.327 . S
C1547 C1563 1.429 . S
C1547 H1569 0.950 . S
C1548 H1544 0.949 . S
C1548 C1556 1.574 1_655 S
C1548 C1564 1.368 . S
H1549 C1557 0.950 . S
H1550 C1555 0.950 . S
H1551 C1556 0.949 . S
H1552 C1558 0.950 . S
H1553 C1559 0.950 . S
H1554 C1560 0.949 . S
C1555 H1550 0.950 . S
C1555 C1557 1.327 . S
C1555 C1561 1.429 . S
C1556 C1548 1.574 1_455 S
C1556 H1551 0.949 . S
C1556 C1562 1.368 . S
C1557 C1541 1.349 . S
C1557 H1549 0.950 . S
C1557 C1555 1.327 . S
C1558 C1546 1.349 . S
C1558 H1552 0.950 . S
C1558 C1559 1.327 . S
C1559 H1553 0.950 . S
C1559 C1558 1.327 . S
C1559 C1563 1.429 . S
C1560 C1543 1.574 1_655 S
C1560 H1554 0.949 . S
C1560 C1564 1.368 . S
C1561 C1542 1.429 . S
C1561 C1555 1.429 . S
C1561 C1562 1.523 . S
C1562 C1543 1.368 . S
C1562 C1556 1.368 . S
C1562 C1561 1.523 . S
C1563 C1547 1.429 . S
C1563 C1559 1.429 . S
C1563 C1564 1.523 . S
C1564 C1548 1.368 . S
C1564 C1560 1.368 . S
C1564 C1563 1.523 . S
H1565 C1540 0.950 . S
H1566 C1542 0.950 . S
H1567 C1543 0.949 . S
H1568 C1545 0.950 . S
H1569 C1547 0.950 . S
C1570 C1571 1.349 . S
C1570 C1572 1.327 . S
C1570 H1595 0.950 . S
C1571 C1570 1.349 . S
C1571 C1587 1.349 . S
C1572 C1570 1.327 . S
C1572 C1591 1.429 . S
C1572 H1596 0.950 . S
C1573 C1590 1.574 . S
C1573 C1592 1.368 . S
C1573 H1597 0.949 . S
H1574 C1578 0.949 . S
C1575 C1576 1.349 . S
C1575 C1577 1.327 . S
C1575 H1598 0.950 . S
C1576 C1575 1.349 . S
C1576 C1588 1.349 . S
C1577 C1575 1.327 . S
C1577 C1593 1.429 . S
C1577 H1599 0.950 . S
C1578 H1574 0.949 . S
C1578 C1586 1.574 . S
C1578 C1594 1.368 . S
H1579 C1587 0.950 . S
H1580 C1585 0.950 . S
H1581 C1586 0.949 . S
H1582 C1588 0.950 . S
H1583 C1589 0.950 . S
H1584 C1590 0.949 . S
C1585 H1580 0.950 . S
C1585 C1587 1.327 . S
C1585 C1591 1.429 . S
C1586 C1578 1.574 . S
C1586 H1581 0.949 . S
C1586 C1592 1.368 1_655 S
C1587 C1571 1.349 . S
C1587 H1579 0.950 . S
C1587 C1585 1.327 . S
C1588 C1576 1.349 . S
C1588 H1582 0.950 . S
C1588 C1589 1.327 . S
C1589 H1583 0.950 . S
C1589 C1588 1.327 . S
C1589 C1593 1.429 . S
C1590 C1573 1.574 . S
C1590 H1584 0.949 . S
C1590 C1594 1.368 1_455 S
C1591 C1572 1.429 . S
C1591 C1585 1.429 . S
C1591 C1592 1.523 . S
C1592 C1573 1.368 . S
C1592 C1586 1.368 1_455 S
C1592 C1591 1.523 . S
C1593 C1577 1.429 . S
C1593 C1589 1.429 . S
C1593 C1594 1.523 . S
C1594 C1578 1.368 . S
C1594 C1590 1.368 1_655 S
C1594 C1593 1.523 . S
H1595 C1570 0.950 . S
H1596 C1572 0.950 . S
H1597 C1573 0.949 . S
H1598 C1575 0.950 . S
H1599 C1577 0.950 . S
C1600 C1601 1.349 . S
C1600 C1602 1.327 . S
C1600 H1625 0.950 . S
C1601 C1600 1.349 . S
C1601 C1617 1.349 . S
C1602 C1600 1.327 . S
C1602 C1621 1.429 . S
C1602 H1626 0.950 . S
C1603 C1620 1.574 . S
C1603 C1622 1.368 . S
C1603 H1627 0.949 . S
H1604 C1608 0.949 . S
C1605 C1606 1.349 . S
C1605 C1607 1.327 . S
C1605 H1628 0.950 . S
C1606 C1605 1.349 . S
C1606 C1618 1.349 . S
C1607 C1605 1.327 . S
C1607 C1623 1.429 . S
C1607 H1629 0.950 . S
C1608 H1604 0.949 . S
C1608 C1616 1.574 . S
C1608 C1624 1.368 . S
H1609 C1617 0.950 . S
H1610 C1615 0.950 . S
H1611 C1616 0.949 . S
H1612 C1618 0.950 . S
H1613 C1619 0.950 . S
H1614 C1620 0.949 . S
C1615 H1610 0.950 . S
C1615 C1617 1.327 . S
C1615 C1621 1.429 . S
C1616 C1608 1.574 . S
C1616 H1611 0.949 . S
C1616 C1622 1.368 . S
C1617 C1601 1.349 . S
C1617 H1609 0.950 . S
C1617 C1615 1.327 . S
C1618 C1606 1.349 . S
C1618 H1612 0.950 . S
C1618 C1619 1.327 . S
C1619 H1613 0.950 . S
C1619 C1618 1.327 . S
C1619 C1623 1.429 . S
C1620 C1603 1.574 . S
C1620 H1614 0.949 . S
C1620 C1624 1.368 . S
C1621 C1602 1.429 . S
C1621 C1615 1.429 . S
C1621 C1622 1.523 . S
C1622 C1603 1.368 . S
C1622 C1616 1.368 . S
C1622 C1621 1.523 . S
C1623 C1607 1.429 . S
C1623 C1619 1.429 . S
C1623 C1624 1.523 . S
C1624 C1608 1.368 . S
C1624 C1620 1.368 . S
C1624 C1623 1.523 . S
H1625 C1600 0.950 . S
H1626 C1602 0.950 . S
H1627 C1603 0.949 . S
H1628 C1605 0.950 . S
H1629 C1607 0.950 . S
C1630 C1631 1.349 . S
C1630 C1632 1.327 . S
C1630 H1655 0.950 . S
C1631 C1630 1.349 . S
C1631 C1647 1.349 . S
C1632 C1630 1.327 . S
C1632 C1651 1.429 . S
C1632 H1656 0.950 . S
C1633 C1650 1.574 . S
C1633 C1652 1.368 . S
C1633 H1657 0.949 . S
H1634 C1638 0.949 . S
C1635 C1636 1.349 . S
C1635 C1637 1.327 . S
C1635 H1658 0.950 . S
C1636 C1635 1.349 . S
C1636 C1648 1.349 . S
C1637 C1635 1.327 . S
C1637 C1653 1.429 . S
C1637 H1659 0.950 . S
C1638 H1634 0.949 . S
C1638 C1646 1.574 . S
C1638 C1654 1.368 . S
H1639 C1647 0.950 . S
H1640 C1645 0.950 . S
H1641 C1646 0.949 . S
H1642 C1648 0.950 . S
H1643 C1649 0.950 . S
H1644 C1650 0.949 . S
C1645 H1640 0.950 . S
C1645 C1647 1.327 . S
C1645 C1651 1.429 . S
C1646 C1638 1.574 . S
C1646 H1641 0.949 . S
C1646 C1652 1.368 . S
C1647 C1631 1.349 . S
C1647 H1639 0.950 . S
C1647 C1645 1.327 . S
C1648 C1636 1.349 . S
C1648 H1642 0.950 . S
C1648 C1649 1.327 . S
C1649 H1643 0.950 . S
C1649 C1648 1.327 . S
C1649 C1653 1.429 . S
C1650 C1633 1.574 . S
C1650 H1644 0.949 . S
C1650 C1654 1.368 . S
C1651 C1632 1.429 . S
C1651 C1645 1.429 . S
C1651 C1652 1.523 . S
C1652 C1633 1.368 . S
C1652 C1646 1.368 . S
C1652 C1651 1.523 . S
C1653 C1637 1.429 . S
C1653 C1649 1.429 . S
C1653 C1654 1.523 . S
C1654 C1638 1.368 . S
C1654 C1650 1.368 . S
C1654 C1653 1.523 . S
H1655 C1630 0.950 . S
H1656 C1632 0.950 . S
H1657 C1633 0.949 . S
H1658 C1635 0.950 . S
H1659 C1637 0.950 . S
C1660 C1661 1.349 . S
C1660 C1662 1.327 . S
C1660 H1685 0.950 . S
C1661 C1660 1.349 . S
C1661 C1677 1.349 . S
C1662 C1660 1.327 . S
C1662 C1681 1.429 . S
C1662 H1686 0.950 . S
C1663 C1680 1.574 . S
C1663 C1682 1.368 . S
C1663 H1687 0.949 . S
H1664 C1668 0.949 . S
C1665 C1666 1.349 . S
C1665 C1667 1.327 . S
C1665 H1688 0.950 . S
C1666 C1665 1.349 . S
C1666 C1678 1.349 . S
C1667 C1665 1.327 . S
C1667 C1683 1.429 . S
C1667 H1689 0.950 . S
C1668 H1664 0.949 . S
C1668 C1676 1.574 . S
C1668 C1684 1.368 . S
H1669 C1677 0.950 . S
H1670 C1675 0.950 . S
H1671 C1676 0.949 . S
H1672 C1678 0.950 . S
H1673 C1679 0.950 . S
H1674 C1680 0.949 . S
C1675 H1670 0.950 . S
C1675 C1677 1.327 . S
C1675 C1681 1.429 . S
C1676 C1668 1.574 . S
C1676 H1671 0.949 . S
C1676 C1682 1.368 . S
C1677 C1661 1.349 . S
C1677 H1669 0.950 . S
C1677 C1675 1.327 . S
C1678 C1666 1.349 . S
C1678 H1672 0.950 . S
C1678 C1679 1.327 . S
C1679 H1673 0.950 . S
C1679 C1678 1.327 . S
C1679 C1683 1.429 . S
C1680 C1663 1.574 . S
C1680 H1674 0.949 . S
C1680 C1684 1.368 . S
C1681 C1662 1.429 . S
C1681 C1675 1.429 . S
C1681 C1682 1.523 . S
C1682 C1663 1.368 . S
C1682 C1676 1.368 . S
C1682 C1681 1.523 . S
C1683 C1667 1.429 . S
C1683 C1679 1.429 . S
C1683 C1684 1.523 . S
C1684 C1668 1.368 . S
C1684 C1680 1.368 . S
C1684 C1683 1.523 . S
H1685 C1660 0.950 . S
H1686 C1662 0.950 . S
H1687 C1663 0.949 . S
H1688 C1665 0.950 . S
H1689 C1667 0.950 . S
C1690 C1691 1.349 . S
C1690 C1692 1.330 1_655 S
C1690 H1715 0.950 . S
C1691 C1690 1.349 . S
C1691 C1707 1.349 . S
C1692 C1690 1.330 1_455 S
C1692 C1711 1.426 . S
C1692 H1716 0.949 . S
C1693 C1710 1.574 . S
C1693 C1712 1.368 . S
C1693 H1717 0.949 . S
H1694 C1698 0.949 . S
C1695 C1696 1.349 . S
C1695 C1697 1.327 . S
C1695 H1718 0.950 . S
C1696 C1695 1.349 . S
C1696 C1708 1.349 . S
C1697 C1695 1.327 . S
C1697 C1713 1.429 . S
C1697 H1719 0.950 . S
C1698 H1694 0.949 . S
C1698 C1706 1.574 . S
C1698 C1714 1.368 . S
H1699 C1707 0.950 . S
H1700 C1705 0.950 . S
H1701 C1706 0.949 . S
H1702 C1708 0.950 . S
H1703 C1709 0.950 . S
H1704 C1710 0.949 . S
C1705 H1700 0.950 . S
C1705 C1707 1.327 1_455 S
C1705 C1711 1.429 . S
C1706 C1698 1.574 . S
C1706 H1701 0.949 . S
C1706 C1712 1.368 . S
C1707 C1691 1.349 . S
C1707 H1699 0.950 . S
C1707 C1705 1.327 1_655 S
C1708 C1696 1.349 . S
C1708 H1702 0.950 . S
C1708 C1709 1.327 . S
C1709 H1703 0.950 . S
C1709 C1708 1.327 . S
C1709 C1713 1.429 . S
C1710 C1693 1.574 . S
C1710 H1704 0.949 . S
C1710 C1714 1.368 . S
C1711 C1692 1.426 . S
C1711 C1705 1.429 . S
C1711 C1712 1.523 . S
C1712 C1693 1.368 . S
C1712 C1706 1.368 . S
C1712 C1711 1.523 . S
C1713 C1697 1.429 . S
C1713 C1709 1.429 . S
C1713 C1714 1.523 . S
C1714 C1698 1.368 . S
C1714 C1710 1.368 . S
C1714 C1713 1.523 . S
H1715 C1690 0.950 . S
H1716 C1692 0.949 . S
H1717 C1693 0.949 . S
H1718 C1695 0.950 . S
H1719 C1697 0.950 . S
C1720 C1721 1.349 . S
C1720 C1722 1.327 . S
C1720 H1745 0.950 . S
C1721 C1720 1.349 . S
C1721 C1737 1.349 . S
C1722 C1720 1.327 . S
C1722 C1741 1.429 . S
C1722 H1746 0.950 . S
C1723 C1740 1.574 . S
C1723 C1742 1.368 . S
C1723 H1747 0.949 . S
H1724 C1728 0.949 . S
C1725 C1726 1.349 . S
C1725 C1727 1.327 . S
C1725 H1748 0.950 . S
C1726 C1725 1.349 . S
C1726 C1738 1.349 . S
C1727 C1725 1.327 . S
C1727 C1743 1.429 . S
C1727 H1749 0.950 . S
C1728 H1724 0.949 . S
C1728 C1736 1.574 . S
C1728 C1744 1.368 . S
H1729 C1737 0.950 . S
H1730 C1735 0.950 . S
H1731 C1736 0.949 . S
H1732 C1738 0.950 . S
H1733 C1739 0.950 . S
H1734 C1740 0.949 . S
C1735 H1730 0.950 . S
C1735 C1737 1.327 . S
C1735 C1741 1.429 . S
C1736 C1728 1.574 . S
C1736 H1731 0.949 . S
C1736 C1742 1.368 . S
C1737 C1721 1.349 . S
C1737 H1729 0.950 . S
C1737 C1735 1.327 . S
C1738 C1726 1.349 . S
C1738 H1732 0.950 . S
C1738 C1739 1.327 . S
C1739 H1733 0.950 . S
C1739 C1738 1.327 . S
C1739 C1743 1.429 . S
C1740 C1723 1.574 . S
C1740 H1734 0.949 . S
C1740 C1744 1.368 . S
C1741 C1722 1.429 . S
C1741 C1735 1.429 . S
C1741 C1742 1.523 . S
C1742 C1723 1.368 . S
C1742 C1736 1.368 . S
C1742 C1741 1.523 . S
C1743 C1727 1.429 . S
C1743 C1739 1.429 . S
C1743 C1744 1.523 . S
C1744 C1728 1.368 . S
C1744 C1740 1.368 . S
C1744 C1743 1.523 . S
H1745 C1720 0.950 . S
H1746 C1722 0.950 . S
H1747 C1723 0.949 . S
H1748 C1725 0.950 . S
H1749 C1727 0.950 . S
C1750 C1751 1.349 . S
C1750 C1752 1.327 . S
C1750 H1775 0.950 . S
C1751 C1750 1.349 . S
C1751 C1767 1.349 . S
C1752 C1750 1.327 . S
C1752 C1771 1.429 . S
C1752 H1776 0.950 . S
C1753 C1770 1.574 . S
C1753 C1772 1.368 . S
C1753 H1777 0.949 . S
H1754 C1758 0.949 . S
C1755 C1756 1.349 . S
C1755 C1757 1.327 . S
C1755 H1778 0.950 . S
C1756 C1755 1.349 . S
C1756 C1768 1.349 . S
C1757 C1755 1.327 . S
C1757 C1773 1.429 . S
C1757 H1779 0.950 . S
C1758 H1754 0.949 . S
C1758 C1766 1.574 . S
C1758 C1774 1.368 . S
H1759 C1767 0.950 . S
H1760 C1765 0.950 . S
H1761 C1766 0.949 . S
H1762 C1768 0.950 . S
H1763 C1769 0.950 . S
H1764 C1770 0.949 . S
C1765 H1760 0.950 . S
C1765 C1767 1.327 . S
C1765 C1771 1.429 . S
C1766 C1758 1.574 . S
C1766 H1761 0.949 . S
C1766 C1772 1.368 . S
C1767 C1751 1.349 . S
C1767 H1759 0.950 . S
C1767 C1765 1.327 . S
C1768 C1756 1.349 . S
C1768 H1762 0.950 . S
C1768 C1769 1.327 . S
C1769 H1763 0.950 . S
C1769 C1768 1.327 . S
C1769 C1773 1.429 . S
C1770 C1753 1.574 . S
C1770 H1764 0.949 . S
C1770 C1774 1.368 . S
C1771 C1752 1.429 . S
C1771 C1765 1.429 . S
C1771 C1772 1.523 . S
C1772 C1753 1.368 . S
C1772 C1766 1.368 . S
C1772 C1771 1.523 . S
C1773 C1757 1.429 . S
C1773 C1769 1.429 . S
C1773 C1774 1.523 . S
C1774 C1758 1.368 . S
C1774 C1770 1.368 . S
C1774 C1773 1.523 . S
H1775 C1750 0.950 . S
H1776 C1752 0.950 . S
H1777 C1753 0.949 . S
H1778 C1755 0.950 . S
H1779 C1757 0.950 . S
C1780 C1781 1.349 . S
C1780 C1782 1.327 . S
C1780 H1805 0.950 . S
C1781 C1780 1.349 . S
C1781 C1797 1.349 . S
C1782 C1780 1.327 . S
C1782 C1801 1.429 . S
C1782 H1806 0.950 . S
C1783 C1800 1.574 . S
C1783 C1802 1.368 . S
C1783 H1807 0.949 . S
H1784 C1788 0.949 . S
C1785 C1786 1.349 . S
C1785 C1787 1.327 . S
C1785 H1808 0.950 . S
C1786 C1785 1.349 . S
C1786 C1798 1.349 . S
C1787 C1785 1.327 . S
C1787 C1803 1.429 . S
C1787 H1809 0.950 . S
C1788 H1784 0.949 . S
C1788 C1796 1.574 . S
C1788 C1804 1.368 . S
H1789 C1797 0.950 . S
H1790 C1795 0.950 . S
H1791 C1796 0.949 . S
H1792 C1798 0.950 . S
H1793 C1799 0.950 . S
H1794 C1800 0.949 . S
C1795 H1790 0.950 . S
C1795 C1797 1.327 . S
C1795 C1801 1.429 . S
C1796 C1788 1.574 . S
C1796 H1791 0.949 . S
C1796 C1802 1.368 . S
C1797 C1781 1.349 . S
C1797 H1789 0.950 . S
C1797 C1795 1.327 . S
C1798 C1786 1.349 . S
C1798 H1792 0.950 . S
C1798 C1799 1.327 . S
C1799 H1793 0.950 . S
C1799 C1798 1.327 . S
C1799 C1803 1.429 . S
C1800 C1783 1.574 . S
C1800 H1794 0.949 . S
C1800 C1804 1.368 . S
C1801 C1782 1.429 . S
C1801 C1795 1.429 . S
C1801 C1802 1.523 . S
C1802 C1783 1.368 . S
C1802 C1796 1.368 . S
C1802 C1801 1.523 . S
C1803 C1787 1.429 . S
C1803 C1799 1.429 . S
C1803 C1804 1.523 . S
C1804 C1788 1.368 . S
C1804 C1800 1.368 . S
C1804 C1803 1.523 . S
H1805 C1780 0.950 . S
H1806 C1782 0.950 . S
H1807 C1783 0.949 . S
H1808 C1785 0.950 . S
H1809 C1787 0.950 . S
C1810 C1811 1.349 . S
C1810 C1812 1.327 . S
C1810 H1835 0.950 . S
C1811 C1810 1.349 . S
C1811 C1827 1.349 . S
C1812 C1810 1.327 . S
C1812 C1831 1.429 . S
C1812 H1836 0.950 . S
C1813 C1830 1.574 . S
C1813 C1832 1.368 . S
C1813 H1837 0.949 . S
H1814 C1818 0.949 . S
C1815 C1816 1.349 . S
C1815 C1817 1.327 1_455 S
C1815 H1838 0.950 . S
C1816 C1815 1.349 . S
C1816 C1828 1.349 . S
C1817 C1815 1.327 1_655 S
C1817 C1833 1.429 . S
C1817 H1839 0.950 . S
C1818 H1814 0.949 . S
C1818 C1826 1.574 . S
C1818 C1834 1.368 . S
H1819 C1827 0.950 . S
H1820 C1825 0.950 . S
H1821 C1826 0.949 . S
H1822 C1828 0.950 . S
H1823 C1829 0.947 1_655 S
H1824 C1830 0.949 . S
C1825 H1820 0.950 . S
C1825 C1827 1.327 . S
C1825 C1831 1.429 . S
C1826 C1818 1.574 . S
C1826 H1821 0.949 . S
C1826 C1832 1.368 . S
C1827 C1811 1.349 . S
C1827 H1819 0.950 . S
C1827 C1825 1.327 . S
C1828 C1816 1.349 . S
C1828 H1822 0.950 . S
C1828 C1829 1.338 . S
C1829 H1823 0.947 1_455 S
C1829 C1828 1.338 . S
C1829 C1833 1.420 1_455 S
C1830 C1813 1.574 . S
C1830 H1824 0.949 . S
C1830 C1834 1.368 . S
C1831 C1812 1.429 . S
C1831 C1825 1.429 . S
C1831 C1832 1.523 . S
C1832 C1813 1.368 . S
C1832 C1826 1.368 . S
C1832 C1831 1.523 . S
C1833 C1817 1.429 . S
C1833 C1829 1.420 1_655 S
C1833 C1834 1.523 . S
C1834 C1818 1.368 . S
C1834 C1830 1.368 . S
C1834 C1833 1.523 . S
H1835 C1810 0.950 . S
H1836 C1812 0.950 . S
H1837 C1813 0.949 . S
H1838 C1815 0.950 . S
H1839 C1817 0.950 . S
C1840 C1841 1.349 . S
C1840 C1842 1.327 . S
C1840 H1865 0.950 . S
C1841 C1840 1.349 . S
C1841 C1857 1.349 . S
C1842 C1840 1.327 . S
C1842 C1861 1.429 . S
C1842 H1866 0.950 . S
C1843 C1860 1.574 . S
C1843 C1862 1.368 . S
C1843 H1867 0.949 . S
H1844 C1848 0.949 . S
C1845 C1846 1.349 . S
C1845 C1847 1.327 . S
C1845 H1868 0.950 . S
C1846 C1845 1.349 . S
C1846 C1858 1.349 . S
C1847 C1845 1.327 . S
C1847 C1863 1.429 . S
C1847 H1869 0.950 . S
C1848 H1844 0.949 . S
C1848 C1856 1.574 . S
C1848 C1864 1.368 . S
H1849 C1857 0.950 . S
H1850 C1855 0.950 . S
H1851 C1856 0.949 . S
H1852 C1858 0.950 . S
H1853 C1859 0.950 . S
H1854 C1860 0.949 . S
C1855 H1850 0.950 . S
C1855 C1857 1.327 . S
C1855 C1861 1.429 . S
C1856 C1848 1.574 . S
C1856 H1851 0.949 . S
C1856 C1862 1.368 . S
C1857 C1841 1.349 . S
C1857 H1849 0.950 . S
C1857 C1855 1.327 . S
C1858 C1846 1.349 . S
C1858 H1852 0.950 . S
C1858 C1859 1.327 . S
C1859 H1853 0.950 . S
C1859 C1858 1.327 . S
C1859 C1863 1.429 . S
C1860 C1843 1.574 . S
C1860 H1854 0.949 . S
C1860 C1864 1.368 . S
C1861 C1842 1.429 . S
C1861 C1855 1.429 . S
C1861 C1862 1.523 . S
C1862 C1843 1.368 . S
C1862 C1856 1.368 . S
C1862 C1861 1.523 . S
C1863 C1847 1.429 . S
C1863 C1859 1.429 . S
C1863 C1864 1.523 . S
C1864 C1848 1.368 . S
C1864 C1860 1.368 . S
C1864 C1863 1.523 . S
H1865 C1840 0.950 . S
H1866 C1842 0.950 . S
H1867 C1843 0.949 . S
H1868 C1845 0.950 . S
H1869 C1847 0.950 . S
C1870 C1871 1.349 . S
C1870 C1872 1.327 . S
C1870 H1895 0.950 . S
C1871 C1870 1.349 . S
C1871 C1887 1.349 . S
C1872 C1870 1.327 . S
C1872 C1891 1.429 . S
C1872 H1896 0.950 . S
C1873 C1890 1.574 . S
C1873 C1892 1.368 . S
C1873 H1897 0.949 . S
H1874 C1878 0.949 . S
C1875 C1876 1.349 1_545 S
C1875 C1877 1.327 1_445 S
C1875 H1898 0.950 . S
C1876 C1875 1.349 1_565 S
C1876 C1888 1.349 . S
C1877 C1875 1.327 1_665 S
C1877 C1893 1.429 . S
C1877 H1899 0.950 . S
C1878 H1874 0.949 . S
C1878 C1886 1.574 . S
C1878 C1894 1.368 . S
H1879 C1887 0.950 . S
H1880 C1885 0.950 . S
H1881 C1886 0.949 . S
H1882 C1888 0.950 . S
H1883 C1889 0.960 . S
H1884 C1890 0.949 . S
C1885 H1880 0.950 . S
C1885 C1887 1.327 . S
C1885 C1891 1.429 . S
C1886 C1878 1.574 . S
C1886 H1881 0.949 . S
C1886 C1892 1.368 . S
C1887 C1871 1.349 . S
C1887 H1879 0.950 . S
C1887 C1885 1.327 . S
C1888 C1876 1.349 . S
C1888 H1882 0.950 . S
C1888 C1889 1.292 1_455 S
C1889 H1883 0.960 . S
C1889 C1888 1.292 1_655 S
C1889 C1893 1.455 . S
C1890 C1873 1.574 . S
C1890 H1884 0.949 . S
C1890 C1894 1.368 . S
C1891 C1872 1.429 . S
C1891 C1885 1.429 . S
C1891 C1892 1.523 . S
C1892 C1873 1.368 . S
C1892 C1886 1.368 . S
C1892 C1891 1.523 . S
C1893 C1877 1.429 . S
C1893 C1889 1.455 . S
C1893 C1894 1.523 . S
C1894 C1878 1.368 . S
C1894 C1890 1.368 . S
C1894 C1893 1.523 . S
H1895 C1870 0.950 . S
H1896 C1872 0.950 . S
H1897 C1873 0.949 . S
H1898 C1875 0.950 . S
H1899 C1877 0.950 . S
C1900 C1901 1.349 . S
C1900 C1902 1.327 . S
C1900 H1925 0.950 . S
C1901 C1900 1.349 . S
C1901 C1917 1.349 . S
C1902 C1900 1.327 . S
C1902 C1921 1.429 . S
C1902 H1926 0.950 . S
C1903 C1920 1.574 . S
C1903 C1922 1.368 . S
C1903 H1927 0.949 . S
H1904 C1908 0.949 . S
C1905 C1906 1.349 . S
C1905 C1907 1.327 . S
C1905 H1928 0.950 . S
C1906 C1905 1.349 . S
C1906 C1918 1.349 . S
C1907 C1905 1.327 . S
C1907 C1923 1.429 . S
C1907 H1929 0.950 . S
C1908 H1904 0.949 . S
C1908 C1916 1.574 . S
C1908 C1924 1.368 . S
H1909 C1917 0.950 . S
H1910 C1915 0.950 . S
H1911 C1916 0.949 . S
H1912 C1918 0.950 . S
H1913 C1919 0.950 . S
H1914 C1920 0.949 . S
C1915 H1910 0.950 . S
C1915 C1917 1.327 . S
C1915 C1921 1.429 . S
C1916 C1908 1.574 . S
C1916 H1911 0.949 . S
C1916 C1922 1.368 . S
C1917 C1901 1.349 . S
C1917 H1909 0.950 . S
C1917 C1915 1.327 . S
C1918 C1906 1.349 . S
C1918 H1912 0.950 . S
C1918 C1919 1.327 . S
C1919 H1913 0.950 . S
C1919 C1918 1.327 . S
C1919 C1923 1.429 . S
C1920 C1903 1.574 . S
C1920 H1914 0.949 . S
C1920 C1924 1.368 . S
C1921 C1902 1.429 . S
C1921 C1915 1.429 . S
C1921 C1922 1.523 . S
C1922 C1903 1.368 . S
C1922 C1916 1.368 . S
C1922 C1921 1.523 . S
C1923 C1907 1.429 . S
C1923 C1919 1.429 . S
C1923 C1924 1.523 . S
C1924 C1908 1.368 . S
C1924 C1920 1.368 . S
C1924 C1923 1.523 . S
H1925 C1900 0.950 . S
H1926 C1902 0.950 . S
H1927 C1903 0.949 . S
H1928 C1905 0.950 . S
H1929 C1907 0.950 . S
C1930 C1931 1.349 . S
C1930 C1932 1.327 . S
C1930 H1955 0.950 . S
C1931 C1930 1.349 . S
C1931 C1947 1.349 1_545 S
C1932 C1930 1.327 . S
C1932 C1951 1.429 . S
C1932 H1956 0.950 . S
C1933 C1950 1.574 . S
C1933 C1952 1.368 . S
C1933 H1957 0.949 . S
H1934 C1938 0.949 . S
C1935 C1936 1.349 . S
C1935 C1937 1.327 . S
C1935 H1958 0.950 . S
C1936 C1935 1.349 . S
C1936 C1948 1.349 . S
C1937 C1935 1.327 . S
C1937 C1953 1.429 . S
C1937 H1959 0.950 . S
C1938 H1934 0.949 . S
C1938 C1946 1.574 . S
C1938 C1954 1.368 . S
H1939 C1947 0.950 . S
H1940 C1945 0.950 1_565 S
H1941 C1946 0.949 . S
H1942 C1948 0.950 . S
H1943 C1949 0.950 . S
H1944 C1950 0.949 . S
C1945 H1940 0.950 1_545 S
C1945 C1947 1.327 1_545 S
C1945 C1951 1.429 . S
C1946 C1938 1.574 . S
C1946 H1941 0.949 . S
C1946 C1952 1.368 . S
C1947 C1931 1.349 1_565 S
C1947 H1939 0.950 . S
C1947 C1945 1.327 1_565 S
C1948 C1936 1.349 . S
C1948 H1942 0.950 . S
C1948 C1949 1.327 . S
C1949 H1943 0.950 . S
C1949 C1948 1.327 . S
C1949 C1953 1.429 . S
C1950 C1933 1.574 . S
C1950 H1944 0.949 . S
C1950 C1954 1.368 . S
C1951 C1932 1.429 . S
C1951 C1945 1.429 . S
C1951 C1952 1.523 . S
C1952 C1933 1.368 . S
C1952 C1946 1.368 . S
C1952 C1951 1.523 . S
C1953 C1937 1.429 . S
C1953 C1949 1.429 . S
C1953 C1954 1.523 . S
C1954 C1938 1.368 . S
C1954 C1950 1.368 . S
C1954 C1953 1.523 . S
H1955 C1930 0.950 . S
H1956 C1932 0.950 . S
H1957 C1933 0.949 . S
H1958 C1935 0.950 . S
H1959 C1937 0.950 . S
C1960 C1961 1.349 . S
C1960 C1962 1.327 . S
C1960 H1985 0.950 . S
C1961 C1960 1.349 . S
C1961 C1977 1.349 . S
C1962 C1960 1.327 . S
C1962 C1981 1.429 . S
C1962 H1986 0.950 . S
C1963 C1980 1.574 . S
C1963 C1982 1.368 . S
C1963 H1987 0.949 . S
H1964 C1968 0.949 . S
C1965 C1966 1.349 . S
C1965 C1967 1.327 . S
C1965 H1988 0.950 . S
C1966 C1965 1.349 . S
C1966 C1978 1.349 . S
C1967 C1965 1.327 . S
C1967 C1983 1.429 . S
C1967 H1989 0.950 . S
C1968 H1964 0.949 . S
C1968 C1976 1.574 . S
C1968 C1984 1.368 . S
H1969 C1977 0.950 . S
H1970 C1975 0.950 . S
H1971 C1976 0.949 . S
H1972 C1978 0.950 . S
H1973 C1979 0.950 . S
H1974 C1980 0.949 . S
C1975 H1970 0.950 . S
C1975 C1977 1.327 . S
C1975 C1981 1.429 . S
C1976 C1968 1.574 . S
C1976 H1971 0.949 . S
C1976 C1982 1.368 . S
C1977 C1961 1.349 . S
C1977 H1969 0.950 . S
C1977 C1975 1.327 . S
C1978 C1966 1.349 . S
C1978 H1972 0.950 . S
C1978 C1979 1.327 . S
C1979 H1973 0.950 . S
C1979 C1978 1.327 . S
C1979 C1983 1.429 . S
C1980 C1963 1.574 . S
C1980 H1974 0.949 . S
C1980 C1984 1.368 . S
C1981 C1962 1.429 . S
C1981 C1975 1.429 . S
C1981 C1982 1.523 . S
C1982 C1963 1.368 . S
C1982 C1976 1.368 . S
C1982 C1981 1.523 . S
C1983 C1967 1.429 . S
C1983 C1979 1.429 . S
C1983 C1984 1.523 . S
C1984 C1968 1.368 . S
C1984 C1980 1.368 . S
C1984 C1983 1.523 . S
H1985 C1960 0.950 . S
H1986 C1962 0.950 . S
H1987 C1963 0.949 . S
H1988 C1965 0.950 . S
H1989 C1967 0.950 . S
C1990 C1991 1.349 1_565 S
C1990 C1992 1.327 1_665 S
C1990 H2015 0.950 . S
C1991 C1990 1.349 1_545 S
C1991 C2007 1.349 . S
C1992 C1990 1.327 1_445 S
C1992 C2011 1.429 . S
C1992 H2016 0.950 . S
C1993 C2010 1.574 . S
C1993 C2012 1.368 . S
C1993 H2017 0.949 . S
H1994 C1998 0.949 . S
C1995 C1996 1.349 . S
C1995 C1997 1.327 . S
C1995 H2018 0.950 . S
C1996 C1995 1.349 . S
C1996 C2008 1.349 . S
C1997 C1995 1.327 . S
C1997 C2013 1.429 . S
C1997 H2019 0.950 . S
C1998 H1994 0.949 . S
C1998 C2006 1.574 . S
C1998 C2014 1.368 . S
H1999 C2007 0.950 . S
H2000 C2005 0.960 . S
H2001 C2006 0.949 . S
H2002 C2008 0.950 . S
H2003 C2009 0.950 . S
H2004 C2010 0.949 . S
C2005 H2000 0.960 . S
C2005 C2007 1.291 1_455 S
C2005 C2011 1.455 . S
C2006 C1998 1.574 . S
C2006 H2001 0.949 . S
C2006 C2012 1.368 . S
C2007 C1991 1.349 . S
C2007 H1999 0.950 . S
C2007 C2005 1.291 1_655 S
C2008 C1996 1.349 . S
C2008 H2002 0.950 . S
C2008 C2009 1.327 . S
C2009 H2003 0.950 . S
C2009 C2008 1.327 . S
C2009 C2013 1.429 . S
C2010 C1993 1.574 . S
C2010 H2004 0.949 . S
C2010 C2014 1.368 . S
C2011 C1992 1.429 . S
C2011 C2005 1.455 . S
C2011 C2012 1.523 . S
C2012 C1993 1.368 . S
C2012 C2006 1.368 . S
C2012 C2011 1.523 . S
C2013 C1997 1.429 . S
C2013 C2009 1.429 . S
C2013 C2014 1.523 . S
C2014 C1998 1.368 . S
C2014 C2010 1.368 . S
C2014 C2013 1.523 . S
H2015 C1990 0.950 . S
H2016 C1992 0.950 . S
H2017 C1993 0.949 . S
H2018 C1995 0.950 . S
H2019 C1997 0.950 . S
C2020 C2021 1.349 . S
C2020 C2022 1.327 . S
C2020 H2045 0.950 . S
C2021 C2020 1.349 . S
C2021 C2037 1.349 . S
C2022 C2020 1.327 . S
C2022 C2041 1.429 . S
C2022 H2046 0.950 . S
C2023 C2040 1.574 . S
C2023 C2042 1.368 . S
C2023 H2047 0.949 . S
H2024 C2028 0.949 . S
C2025 C2026 1.349 . S
C2025 C2027 1.327 . S
C2025 H2048 0.950 . S
C2026 C2025 1.349 . S
C2026 C2038 1.349 . S
C2027 C2025 1.327 . S
C2027 C2043 1.429 . S
C2027 H2049 0.950 . S
C2028 H2024 0.949 . S
C2028 C2036 1.574 . S
C2028 C2044 1.368 . S
H2029 C2037 0.950 . S
H2030 C2035 0.950 . S
H2031 C2036 0.949 . S
H2032 C2038 0.950 . S
H2033 C2039 0.950 . S
H2034 C2040 0.949 . S
C2035 H2030 0.950 . S
C2035 C2037 1.327 . S
C2035 C2041 1.429 . S
C2036 C2028 1.574 . S
C2036 H2031 0.949 . S
C2036 C2042 1.368 . S
C2037 C2021 1.349 . S
C2037 H2029 0.950 . S
C2037 C2035 1.327 . S
C2038 C2026 1.349 . S
C2038 H2032 0.950 . S
C2038 C2039 1.327 . S
C2039 H2033 0.950 . S
C2039 C2038 1.327 . S
C2039 C2043 1.429 . S
C2040 C2023 1.574 . S
C2040 H2034 0.949 . S
C2040 C2044 1.368 . S
C2041 C2022 1.429 . S
C2041 C2035 1.429 . S
C2041 C2042 1.523 . S
C2042 C2023 1.368 . S
C2042 C2036 1.368 . S
C2042 C2041 1.523 . S
C2043 C2027 1.429 . S
C2043 C2039 1.429 . S
C2043 C2044 1.523 . S
C2044 C2028 1.368 . S
C2044 C2040 1.368 . S
C2044 C2043 1.523 . S
H2045 C2020 0.950 . S
H2046 C2022 0.950 . S
H2047 C2023 0.949 . S
H2048 C2025 0.950 . S
H2049 C2027 0.950 . S
C2050 C2051 1.349 . S
C2050 C2052 1.327 . S
C2050 H2075 0.950 . S
C2051 C2050 1.349 . S
C2051 C2067 1.349 . S
C2052 C2050 1.327 . S
C2052 C2071 1.429 . S
C2052 H2076 0.950 . S
C2053 C2070 1.574 . S
C2053 C2072 1.368 . S
C2053 H2077 0.949 . S
H2054 C2058 0.949 . S
C2055 C2056 1.349 . S
C2055 C2057 1.327 . S
C2055 H2078 0.950 . S
C2056 C2055 1.349 . S
C2056 C2068 1.349 1_565 S
C2057 C2055 1.327 . S
C2057 C2073 1.429 . S
C2057 H2079 0.950 . S
C2058 H2054 0.949 . S
C2058 C2066 1.574 . S
C2058 C2074 1.368 . S
H2059 C2067 0.950 . S
H2060 C2065 0.950 . S
H2061 C2066 0.949 . S
H2062 C2068 0.950 . S
H2063 C2069 0.950 1_545 S
H2064 C2070 0.949 . S
C2065 H2060 0.950 . S
C2065 C2067 1.327 . S
C2065 C2071 1.429 . S
C2066 C2058 1.574 . S
C2066 H2061 0.949 . S
C2066 C2072 1.368 . S
C2067 C2051 1.349 . S
C2067 H2059 0.950 . S
C2067 C2065 1.327 . S
C2068 C2056 1.349 1_545 S
C2068 H2062 0.950 . S
C2068 C2069 1.327 1_545 S
C2069 H2063 0.950 1_565 S
C2069 C2068 1.327 1_565 S
C2069 C2073 1.429 . S
C2070 C2053 1.574 . S
C2070 H2064 0.949 . S
C2070 C2074 1.368 . S
C2071 C2052 1.429 . S
C2071 C2065 1.429 . S
C2071 C2072 1.523 . S
C2072 C2053 1.368 . S
C2072 C2066 1.368 . S
C2072 C2071 1.523 . S
C2073 C2057 1.429 . S
C2073 C2069 1.429 . S
C2073 C2074 1.523 . S
C2074 C2058 1.368 . S
C2074 C2070 1.368 . S
C2074 C2073 1.523 . S
H2075 C2050 0.950 . S
H2076 C2052 0.950 . S
H2077 C2053 0.949 . S
H2078 C2055 0.950 . S
H2079 C2057 0.950 . S
C641 C15 1.269 . S
C646 C485 1.269 . S
C671 C205 1.270 . S
C676 C55 1.270 . S
C701 C95 1.269 . S
C706 C565 1.269 . S
C731 C135 1.269 . S
C736 C285 1.269 . S
C761 C165 1.269 . S
C766 C335 1.269 . S
C791 C415 1.269 . S
C796 C245 1.269 . S
C821 C525 1.270 . S
C826 C375 1.270 . S
C851 C455 1.269 . S
C856 C605 1.269 . S
C881 C368 1.978 . S
C886 C5 1.955 . S
C911 C45 1.956 . S
C916 C408 1.979 . S
C941 C85 1.955 . S
C946 C448 1.979 . S
C971 C328 1.979 . S
C976 C125 1.956 . S
C1001 C538 1.978 . S
C1006 C175 1.955 . S
C1031 C578 1.979 . S
C1036 C215 1.956 . S
C1061 C255 1.956 . S
C1066 C618 1.979 . S
C1091 C498 1.979 . S
C1096 C295 1.956 . S
C1121 C325 1.955 . S
C1126 C48 1.978 . S
C1151 C365 1.956 . S
C1156 C88 1.979 . S
C1181 C405 1.955 . S
C1186 C128 1.978 . S
C1211 C8 1.979 . S
C1216 C445 1.955 . S
C1241 C218 1.978 . S
C1246 C495 1.955 . S
C1271 C535 1.955 . S
C1276 C258 1.979 . S
C1301 C298 1.978 . S
C1306 C575 1.955 . S
C1331 C615 1.955 . S
C1336 C178 1.978 . S
C1361 C19 3.244 . S
C1366 C419 3.244 . S
C1391 C59 3.245 . S
C1396 C459 3.245 . S
C1421 C339 3.244 . S
C1426 C99 3.244 . S
C1451 C139 3.245 . S
C1456 C379 3.245 . S
C1481 C169 3.244 . S
C1486 C569 3.244 . S
C1511 C209 3.245 . S
C1516 C609 3.245 . S
C1541 C489 3.244 . S
C1546 C249 3.244 . S
C1571 C289 3.245 . S
C1576 C529 3.245 . S
C1601 C18 1.711 . S
C1606 C299 1.928 . S
C1631 C499 1.928 . S
C1636 C58 1.711 . S
C1661 C98 1.711 . S
C1666 C219 1.928 . S
C1691 C138 1.711 . S
C1696 C579 1.928 . S
C1721 C168 1.711 . S
C1726 C129 1.928 . S
C1751 C329 1.928 . S
C1756 C208 1.711 . S
C1781 C248 1.711 . S
C1786 C49 1.928 . S
C1811 C409 1.928 . S
C1816 C288 1.711 . S
C1841 C338 1.711 . S
C1846 C619 1.928 . S
C1871 C179 1.928 . S
C1876 C378 1.711 1_565 S
C1901 C539 1.928 . S
C1906 C418 1.711 . S
C1931 C458 1.711 1_545 S
C1936 C259 1.928 . S
C1961 C488 1.711 . S
C1966 C449 1.928 . S
C1991 C528 1.711 1_545 S
C1996 C9 1.928 . S
C2021 C369 1.928 . S
C2026 C568 1.711 . S
C2051 C89 1.928 . S
C2056 C608 1.711 1_565 S
