# Generated by pormake.
# Topology wjk, (5)-cn, num edge types: 1
# Building blocks:
#     Node 0, Type 0, BuildingBlock: XOMCOT_clean_sbu_0, # of connection points: 5
#     Node 1, Type 0, BuildingBlock: XOMCOT_clean_sbu_0, # of connection points: 5
#     Node 2, Type 0, BuildingBlock: XOMCOT_clean_sbu_0, # of connection points: 5
#     Node 3, Type 0, BuildingBlock: XOMCOT_clean_sbu_0, # of connection points: 5
#     Node 4, Type 0, BuildingBlock: XOMCOT_clean_sbu_0, # of connection points: 5
#     Node 5, Type 0, BuildingBlock: XOMCOT_clean_sbu_0, # of connection points: 5
#     Node 6, Type 0, BuildingBlock: XOMCOT_clean_sbu_0, # of connection points: 5
#     Node 7, Type 0, BuildingBlock: XOMCOT_clean_sbu_0, # of connection points: 5
#     Node 8, Type 0, BuildingBlock: XOMCOT_clean_sbu_0, # of connection points: 5
#     Node 9, Type 0, BuildingBlock: XOMCOT_clean_sbu_0, # of connection points: 5
#     Node 10, Type 0, BuildingBlock: XOMCOT_clean_sbu_0, # of connection points: 5
#     Node 11, Type 0, BuildingBlock: XOMCOT_clean_sbu_0, # of connection points: 5
#     Edge 12, Type (0, 0), BuildingBlock: ZUJKAS_clean_linker_0, # of connection points: 2
#     Edge 13, Type (0, 0), BuildingBlock: ZUJKAS_clean_linker_0, # of connection points: 2
#     Edge 14, Type (0, 0), BuildingBlock: ZUJKAS_clean_linker_0, # of connection points: 2
#     Edge 15, Type (0, 0), BuildingBlock: ZUJKAS_clean_linker_0, # of connection points: 2
#     Edge 16, Type (0, 0), BuildingBlock: ZUJKAS_clean_linker_0, # of connection points: 2
#     Edge 17, Type (0, 0), BuildingBlock: ZUJKAS_clean_linker_0, # of connection points: 2
#     Edge 18, Type (0, 0), BuildingBlock: ZUJKAS_clean_linker_0, # of connection points: 2
#     Edge 19, Type (0, 0), BuildingBlock: ZUJKAS_clean_linker_0, # of connection points: 2
#     Edge 20, Type (0, 0), BuildingBlock: ZUJKAS_clean_linker_0, # of connection points: 2
#     Edge 21, Type (0, 0), BuildingBlock: ZUJKAS_clean_linker_0, # of connection points: 2
#     Edge 22, Type (0, 0), BuildingBlock: ZUJKAS_clean_linker_0, # of connection points: 2
#     Edge 23, Type (0, 0), BuildingBlock: ZUJKAS_clean_linker_0, # of connection points: 2
#     Edge 24, Type (0, 0), BuildingBlock: ZUJKAS_clean_linker_0, # of connection points: 2
#     Edge 25, Type (0, 0), BuildingBlock: ZUJKAS_clean_linker_0, # of connection points: 2
#     Edge 26, Type (0, 0), BuildingBlock: ZUJKAS_clean_linker_0, # of connection points: 2
#     Edge 27, Type (0, 0), BuildingBlock: ZUJKAS_clean_linker_0, # of connection points: 2
#     Edge 28, Type (0, 0), BuildingBlock: ZUJKAS_clean_linker_0, # of connection points: 2
#     Edge 29, Type (0, 0), BuildingBlock: ZUJKAS_clean_linker_0, # of connection points: 2
#     Edge 30, Type (0, 0), BuildingBlock: ZUJKAS_clean_linker_0, # of connection points: 2
#     Edge 31, Type (0, 0), BuildingBlock: ZUJKAS_clean_linker_0, # of connection points: 2
#     Edge 32, Type (0, 0), BuildingBlock: ZUJKAS_clean_linker_0, # of connection points: 2
#     Edge 33, Type (0, 0), BuildingBlock: ZUJKAS_clean_linker_0, # of connection points: 2
#     Edge 34, Type (0, 0), BuildingBlock: ZUJKAS_clean_linker_0, # of connection points: 2
#     Edge 35, Type (0, 0), BuildingBlock: ZUJKAS_clean_linker_0, # of connection points: 2
#     Edge 36, Type (0, 0), BuildingBlock: ZUJKAS_clean_linker_0, # of connection points: 2
#     Edge 37, Type (0, 0), BuildingBlock: ZUJKAS_clean_linker_0, # of connection points: 2
#     Edge 38, Type (0, 0), BuildingBlock: ZUJKAS_clean_linker_0, # of connection points: 2
#     Edge 39, Type (0, 0), BuildingBlock: ZUJKAS_clean_linker_0, # of connection points: 2
#     Edge 40, Type (0, 0), BuildingBlock: ZUJKAS_clean_linker_0, # of connection points: 2
#     Edge 41, Type (0, 0), BuildingBlock: ZUJKAS_clean_linker_0, # of connection points: 2
# Relax obj value: 0.559
# Max RMSD: 0.271
# Mean RMSD: 0.271
data_MOF--net-wjk--node1-XOMCOT_clean_sbu_0--edge1-ZUJKAS_clean_linker_0
_symmetry_space_group_name_H-M    P1
_symmetry_Int_Tables_number       1
_symmetry_cell_setting            triclinic
loop_
_symmetry_equiv_pos_as_xyz
'x, y, z'
_cell_length_a     41.442681
_cell_length_b     41.399215
_cell_length_c     90.497469
_cell_angle_alpha  89.989754
_cell_angle_beta   89.991985
_cell_angle_gamma 119.98235
loop_
_atom_site_label
_atom_site_type_symbol
_atom_site_fract_x
_atom_site_fract_y
_atom_site_fract_z
_atom_type_partial_charge
Co0 Co 0.22659 0.2964 0.23842 0.0
C1 C 0.28317 0.37285 0.24663 0.0
C2 C 0.24176 0.37499 0.23335 0.0
C3 C 0.27223 0.41059 0.23449 0.0
N4 N 0.24943 0.3508 0.24036 0.0
N5 N 0.29849 0.40894 0.24271 0.0
H6 H 0.29863 0.36232 0.25253 0.0
H7 H 0.21675 0.36774 0.22725 0.0
C8 C 0.17841 0.30229 0.21378 0.0
O9 O 0.20836 0.3263 0.20652 0.0
N10 N 0.20592 0.24333 0.237 0.0
C11 C 0.22575 0.22576 0.23578 0.0
C12 C 0.20158 0.18801 0.23594 0.0
C13 C 0.17007 0.21626 0.23806 0.0
N14 N 0.1666 0.18205 0.23736 0.0
C15 C 0.29363 0.32377 0.22145 0.0
C16 C 0.2616 0.27932 0.19698 0.0
C17 C 0.3005 0.30073 0.19792 0.0
C18 C 0.31641 0.32394 0.21013 0.0
C19 C 0.23975 0.28 0.20859 0.0
N20 N 0.25574 0.30227 0.22065 0.0
H21 H 0.3071 0.33863 0.23133 0.0
H22 H 0.21009 0.2608 0.20827 0.0
H23 H 0.25579 0.23955 0.23504 0.0
H24 H 0.14721 0.22158 0.23939 0.0
O25 O 0.26126 0.29671 0.25278 0.0
O26 O 0.20628 0.28995 0.25836 0.0
O27 O 0.18157 0.29074 0.2266 0.0
C28 C 0.23685 0.29136 0.2629 0.0
H29 H 0.27558 0.4353 0.22899 0.0
H30 H 0.20934 0.16666 0.23544 0.0
H31 H 0.24828 0.25989 0.18797 0.0
H32 H 0.34639 0.34008 0.21144 0.0
Co33 Co 0.92708 0.22626 0.57152 0.0
C34 C 0.90921 0.2845 0.57939 0.0
C35 C 0.86772 0.24629 0.56454 0.0
C36 C 0.86455 0.27798 0.56561 0.0
N37 N 0.89717 0.25114 0.57266 0.0
N38 N 0.89122 0.30225 0.57482 0.0
H39 H 0.93388 0.29808 0.58617 0.0
H40 H 0.85041 0.22244 0.55777 0.0
C41 C 0.87691 0.18222 0.5453 0.0
O42 O 0.88589 0.21345 0.53834 0.0
N43 N 0.95831 0.20406 0.57096 0.0
C44 C 0.99583 0.22372 0.57107 0.0
C45 C 0.0091 0.19939 0.57165 0.0
C46 C 0.94907 0.16791 0.57155 0.0
N47 N 0.97979 0.16438 0.57201 0.0
C48 C 0.97254 0.29482 0.55599 0.0
C49 C 0.98805 0.26349 0.53208 0.0
C50 C 0.00747 0.30234 0.53373 0.0
C51 C 0.99858 0.31801 0.54559 0.0
C52 C 0.96219 0.24127 0.54276 0.0
N53 N 0.95453 0.25689 0.55459 0.0
H54 H 0.96975 0.30775 0.56579 0.0
H55 H 0.95034 0.2114 0.54205 0.0
H56 H 0.01239 0.25383 0.57087 0.0
H57 H 0.92072 0.14492 0.57205 0.0
O58 O 0.95906 0.25852 0.587 0.0
O59 O 0.90868 0.20367 0.59083 0.0
O60 O 0.88898 0.18329 0.55849 0.0
C61 C 0.9373 0.23314 0.59636 0.0
H62 H 0.84547 0.28351 0.55942 0.0
H63 H 0.03815 0.20689 0.57172 0.0
H64 H 0.99513 0.25019 0.52336 0.0
H65 H 0.01371 0.34786 0.54744 0.0
Co66 Co 0.70261 0.92849 0.90565 0.0
C67 C 0.62489 0.90765 0.91226 0.0
C68 C 0.62554 0.872 0.89539 0.0
C69 C 0.59067 0.86876 0.89574 0.0
N70 N 0.64783 0.89791 0.90532 0.0
N71 N 0.59064 0.892 0.90617 0.0
H72 H 0.63443 0.93018 0.92012 0.0
H73 H 0.63402 0.85791 0.88767 0.0
C74 C 0.70429 0.88231 0.8792 0.0
O75 O 0.68594 0.89391 0.87099 0.0
N76 N 0.75599 0.95998 0.90653 0.0
C77 C 0.7738 0.9974 0.90791 0.0
C78 C 0.81132 0.0105 0.90883 0.0
C79 C 0.78282 0.95065 0.90668 0.0
N80 N 0.81696 0.98116 0.90808 0.0
C81 C 0.67988 0.97296 0.88929 0.0
C82 C 0.73633 0.99841 0.86865 0.0
C83 C 0.71544 0.01644 0.87003 0.0
C84 C 0.68559 1.00196 0.87991 0.0
C85 C 0.72933 0.96902 0.87812 0.0
N86 N 0.70201 0.9572 0.88863 0.0
H87 H 0.66012 0.96635 0.89802 0.0
H88 H 0.74814 0.95805 0.87785 0.0
H89 H 0.76033 0.01402 0.90815 0.0
H90 H 0.7775 0.9223 0.90601 0.0
O91 O 0.69963 0.9596 0.92083 0.0
O92 O 0.70384 0.90927 0.92521 0.0
O93 O 0.70994 0.89124 0.89296 0.0
C94 C 0.70244 0.9379 0.93047 0.0
H95 H 0.56809 0.85263 0.88814 0.0
H96 H 0.83286 0.03946 0.90973 0.0
H97 H 0.76026 0.00917 0.86138 0.0
H98 H 0.66891 0.0152 0.88138 0.0
Co99 Co 0.77143 0.71535 0.2344 0.0
C100 C 0.71271 0.64082 0.24191 0.0
C101 C 0.75331 0.63735 0.22847 0.0
C102 C 0.72137 0.60253 0.22901 0.0
N103 N 0.74762 0.66153 0.2365 0.0
N104 N 0.69593 0.60502 0.2375 0.0
H105 H 0.69769 0.65248 0.24739 0.0
H106 H 0.77716 0.64507 0.22144 0.0
C107 C 0.8284 0.74029 0.21026 0.0
O108 O 0.81309 0.75952 0.20551 0.0
N109 N 0.79321 0.76883 0.23265 0.0
C110 C 0.77554 0.78838 0.2305 0.0
C111 C 0.80077 0.82568 0.23196 0.0
C112 C 0.82886 0.79457 0.23563 0.0
N113 N 0.83419 0.82946 0.23519 0.0
C114 C 0.70709 0.70809 0.21983 0.0
C115 C 0.71842 0.68563 0.19255 0.0
C116 C 0.68841 0.69177 0.19448 0.0
C117 C 0.682 0.70156 0.20849 0.0
C118 C 0.74236 0.69147 0.20442 0.0
N119 N 0.73848 0.70585 0.2175 0.0
H120 H 0.70137 0.71595 0.23042 0.0
H121 H 0.76405 0.68466 0.2029 0.0
H122 H 0.74623 0.77693 0.22852 0.0
H123 H 0.85016 0.78778 0.23849 0.0
O124 O 0.73963 0.71671 0.24964 0.0
O125 O 0.79473 0.72291 0.25396 0.0
O126 O 0.81406 0.71851 0.22151 0.0
C127 C 0.76502 0.72212 0.2592 0.0
H128 H 0.71636 0.57814 0.22278 0.0
H129 H 0.79494 0.8483 0.23082 0.0
H130 H 0.72372 0.6772 0.18191 0.0
H131 H 0.659 0.70645 0.21049 0.0
Co132 Co 0.0722 0.77906 0.57384 0.0
C133 C 0.08679 0.71834 0.58127 0.0
C134 C 0.1312 0.75783 0.56776 0.0
C135 C 0.1336 0.72567 0.56873 0.0
N136 N 0.10051 0.75254 0.57507 0.0
N137 N 0.10516 0.70067 0.57712 0.0
H138 H 0.06109 0.70447 0.58744 0.0
H139 H 0.15009 0.78245 0.56167 0.0
C140 C 0.12634 0.82441 0.5487 0.0
O141 O 0.118 0.79378 0.5414 0.0
N142 N 0.0423 0.80277 0.57311 0.0
C143 C 0.00478 0.78398 0.57266 0.0
C144 C 0.99251 0.80907 0.57167 0.0
C145 C 0.05251 0.83919 0.57265 0.0
N146 N 0.02244 0.84372 0.57159 0.0
C147 C 0.02611 0.71256 0.55731 0.0
C148 C 0.01323 0.74756 0.53399 0.0
C149 C 0.99138 0.70876 0.53544 0.0
C150 C 0.99927 0.69112 0.54685 0.0
C151 C 0.04013 0.76799 0.54463 0.0
N152 N 0.0459 0.75058 0.55634 0.0
H153 H 0.02773 0.69837 0.56693 0.0
H154 H 0.0538 0.79805 0.54415 0.0
H155 H 0.98753 0.75393 0.57283 0.0
H156 H 0.08109 0.8617 0.57288 0.0
O157 O 0.0381 0.74606 0.58867 0.0
O158 O 0.0892 0.79947 0.59355 0.0
O159 O 0.11228 0.82246 0.56157 0.0
C160 C 0.05944 0.7701 0.59851 0.0
H161 H 0.15362 0.72051 0.56309 0.0
H162 H 0.96371 0.8023 0.5712 0.0
H163 H 0.00755 0.76222 0.52538 0.0
H164 H 0.9822 0.66133 0.54861 0.0
Co165 Co 0.2924 0.07147 0.90322 0.0
C166 C 0.36601 0.08373 0.91188 0.0
C167 C 0.37348 0.13173 0.90019 0.0
C168 C 0.40779 0.13384 0.90173 0.0
N169 N 0.34679 0.0992 0.906 0.0
N170 N 0.40277 0.10324 0.909 0.0
H171 H 0.35312 0.05654 0.91697 0.0
H172 H 0.36886 0.15224 0.89478 0.0
C173 C 0.3051 0.13187 0.88008 0.0
O174 O 0.32985 0.12686 0.87293 0.0
N175 N 0.23924 0.04193 0.90083 0.0
C176 C 0.22082 0.00495 0.89823 0.0
C177 C 0.18353 0.99284 0.89726 0.0
C178 C 0.21292 0.05188 0.9017 0.0
N179 N 0.17854 0.02229 0.8994 0.0
C180 C 0.31488 0.02837 0.88587 0.0
C181 C 0.27785 0.02714 0.86037 0.0
C182 C 0.29361 0.00405 0.86134 0.0
C183 C 0.31333 0.00587 0.87417 0.0
C184 C 0.27928 0.04857 0.87251 0.0
N185 N 0.29799 0.0494 0.88507 0.0
H186 H 0.32674 0.02584 0.89604 0.0
H187 H 0.26306 0.06238 0.87211 0.0
H188 H 0.23375 0.98793 0.89716 0.0
H189 H 0.21878 0.07995 0.90397 0.0
O190 O 0.28861 0.03412 0.91709 0.0
O191 O 0.28553 0.08417 0.92325 0.0
O192 O 0.29083 0.11413 0.89218 0.0
C193 C 0.28443 0.05351 0.92743 0.0
H194 H 0.43405 0.1554 0.89728 0.0
H195 H 0.16166 0.96433 0.89548 0.0
H196 H 0.26226 0.02678 0.85071 0.0
H197 H 0.32472 0.98762 0.8758 0.0
Co198 Co 0.71737 0.79363 0.43636 0.0
C199 C 0.65838 0.716 0.43969 0.0
C200 C 0.63579 0.75218 0.44284 0.0
C201 C 0.60734 0.71546 0.44413 0.0
N202 N 0.66771 0.75226 0.44007 0.0
N203 N 0.6217 0.69272 0.44216 0.0
H204 H 0.67821 0.70694 0.43731 0.0
H205 H 0.63328 0.77689 0.44374 0.0
C206 C 0.71772 0.86016 0.44806 0.0
O207 O 0.72096 0.87027 0.43414 0.0
N208 N 0.76756 0.83443 0.43257 0.0
C209 C 0.78054 0.85465 0.42002 0.0
C210 C 0.81651 0.88263 0.42227 0.0
C211 C 0.79604 0.85075 0.4423 0.0
N212 N 0.82616 0.88007 0.43623 0.0
C213 C 0.7582 0.76148 0.44754 0.0
C214 C 0.72246 0.74098 0.47464 0.0
C215 C 0.74308 0.72471 0.46973 0.0
C216 C 0.76226 0.73624 0.45631 0.0
C217 C 0.71867 0.76591 0.46538 0.0
N218 N 0.73527 0.77452 0.45179 0.0
H219 H 0.77142 0.7686 0.43681 0.0
H220 H 0.69988 0.77567 0.46858 0.0
H221 H 0.76509 0.85032 0.40992 0.0
H222 H 0.79455 0.84212 0.45368 0.0
O223 O 0.72163 0.76557 0.42036 0.0
O224 O 0.69996 0.80434 0.41778 0.0
O225 O 0.71155 0.82736 0.45115 0.0
C226 C 0.70823 0.78074 0.41167 0.0
H227 H 0.5784 0.70635 0.44639 0.0
H228 H 0.83434 0.90324 0.41423 0.0
H229 H 0.70773 0.73284 0.48508 0.0
H230 H 0.77923 0.72481 0.45243 0.0
Co231 Co 0.93621 0.70862 0.77665 0.0
C232 C 0.91441 0.63144 0.76805 0.0
C233 C 0.8809 0.63062 0.78612 0.0
C234 C 0.8775 0.59578 0.7848 0.0
N235 N 0.90553 0.65377 0.776 0.0
N236 N 0.89957 0.59665 0.77366 0.0
H237 H 0.9362 0.64183 0.75985 0.0
H238 H 0.86834 0.6386 0.79471 0.0
C239 C 0.88998 0.7088 0.80331 0.0
O240 O 0.90285 0.69151 0.81148 0.0
N241 N 0.96745 0.76229 0.77664 0.0
C242 C 0.00484 0.78079 0.77526 0.0
C243 C 0.01755 0.81836 0.77583 0.0
C244 C 0.95775 0.7888 0.77781 0.0
N245 N 0.98801 0.8234 0.77748 0.0
C246 C 0.97692 0.68124 0.79314 0.0
C247 C 0.0073 0.73873 0.8133 0.0
C248 C 0.02242 0.71506 0.81206 0.0
C249 C 0.00484 0.68445 0.80257 0.0
C250 C 0.97801 0.73347 0.80409 0.0
N251 N 0.96418 0.70597 0.79362 0.0
H252 H 0.96851 0.6607 0.78464 0.0
H253 H 0.96858 0.75353 0.80459 0.0
H254 H 0.02174 0.76777 0.7741 0.0
H255 H 0.92937 0.78294 0.7791 0.0
O256 O 0.968 0.7073 0.76138 0.0
O257 O 0.91782 0.71187 0.75719 0.0
O258 O 0.89825 0.71429 0.78949 0.0
C259 C 0.94658 0.71091 0.75184 0.0
H260 H 0.86234 0.57264 0.79229 0.0
H261 H 0.04633 0.84028 0.77493 0.0
H262 H 0.01984 0.76309 0.82035 0.0
H263 H 0.01467 0.66477 0.80143 0.0
Co264 Co 0.22365 0.92426 0.10477 0.0
C265 C 0.2787 0.90243 0.09644 0.0
C266 C 0.24939 0.87252 0.11566 0.0
C267 C 0.28237 0.87197 0.11475 0.0
N268 N 0.24786 0.89357 0.1046 0.0
N269 N 0.30163 0.89219 0.10291 0.0
H270 H 0.28691 0.92039 0.08692 0.0
H271 H 0.22993 0.86077 0.12461 0.0
C272 C 0.17749 0.8787 0.13179 0.0
O273 O 0.20757 0.89135 0.13997 0.0
N274 N 0.20179 0.95586 0.10443 0.0
C275 C 0.22123 0.99329 0.10311 0.0
C276 C 0.1968 0.00647 0.10316 0.0
C277 C 0.16573 0.9466 0.10512 0.0
N278 N 0.16196 0.97717 0.10441 0.0
C279 C 0.29231 0.96901 0.12002 0.0
C280 C 0.2637 0.99515 0.14141 0.0
C281 C 0.3024 0.01302 0.13937 0.0
C282 C 0.31665 0.99835 0.12904 0.0
C283 C 0.24029 0.96563 0.13221 0.0
N284 N 0.25457 0.95334 0.12138 0.0
H285 H 0.3043 0.96186 0.11099 0.0
H286 H 0.21061 0.95484 0.13298 0.0
H287 H 0.25126 0.00989 0.1024 0.0
H288 H 0.14285 0.91827 0.10594 0.0
O289 O 0.25631 0.95507 0.08918 0.0
O290 O 0.20146 0.90467 0.08547 0.0
O291 O 0.18022 0.88726 0.11799 0.0
C292 C 0.23096 0.93317 0.07985 0.0
H293 H 0.29298 0.86109 0.12314 0.0
H294 H 0.20421 0.0355 0.10264 0.0
H295 H 0.25139 0.00614 0.14902 0.0
H296 H 0.34635 0.01155 0.12703 0.0
Co297 Co 0.3077 0.21749 0.43869 0.0
C298 C 0.38491 0.27646 0.43218 0.0
C299 C 0.38609 0.23464 0.44558 0.0
C300 C 0.42151 0.26556 0.44512 0.0
N301 N 0.36249 0.24217 0.43804 0.0
N302 N 0.42048 0.29212 0.43685 0.0
H303 H 0.37479 0.29183 0.42593 0.0
H304 H 0.37849 0.20931 0.45153 0.0
C305 C 0.31226 0.17049 0.46413 0.0
O306 O 0.3344 0.20088 0.47159 0.0
N307 N 0.25413 0.19498 0.43882 0.0
C308 C 0.23563 0.21403 0.43849 0.0
C309 C 0.19818 0.1892 0.43965 0.0
C310 C 0.22774 0.15876 0.43999 0.0
N311 N 0.19325 0.15451 0.44065 0.0
C312 C 0.33037 0.28386 0.45573 0.0
C313 C 0.27848 0.25014 0.47792 0.0
C314 C 0.29806 0.28918 0.47688 0.0
C315 C 0.32579 0.30593 0.46614 0.0
C316 C 0.28461 0.229 0.46746 0.0
N317 N 0.30966 0.24584 0.45624 0.0
H318 H 0.34797 0.298 0.44652 0.0
H319 H 0.26672 0.19907 0.46766 0.0
H320 H 0.24863 0.24407 0.43796 0.0
H321 H 0.23356 0.1361 0.44032 0.0
O322 O 0.30902 0.2519 0.42396 0.0
O323 O 0.30478 0.1977 0.41884 0.0
O324 O 0.30205 0.17301 0.45096 0.0
C325 C 0.30565 0.22784 0.414 0.0
H326 H 0.44564 0.26889 0.45107 0.0
H327 H 0.17638 0.1963 0.44029 0.0
H328 H 0.25613 0.23586 0.48583 0.0
H329 H 0.34151 0.33597 0.46491 0.0
Co330 Co 0.07452 0.29768 0.77294 0.0
C331 C 0.09225 0.37277 0.76331 0.0
C332 C 0.13549 0.37763 0.77752 0.0
C333 C 0.13868 0.4124 0.77596 0.0
N334 N 0.105 0.35213 0.77015 0.0
N335 N 0.11082 0.40903 0.76722 0.0
H336 H 0.06663 0.3609 0.7571 0.0
H337 H 0.15348 0.3718 0.78417 0.0
C338 C 0.12999 0.30639 0.79768 0.0
O339 O 0.12385 0.33032 0.8049 0.0
N340 N 0.04275 0.24456 0.77522 0.0
C341 C 0.00544 0.22716 0.77668 0.0
C342 C 0.99202 0.18957 0.77795 0.0
C343 C 0.05161 0.21736 0.77537 0.0
N344 N 0.02101 0.18339 0.77718 0.0
C345 C 0.03415 0.32571 0.789 0.0
C346 C 0.02336 0.28456 0.81436 0.0
C347 C 0.00512 0.30519 0.81282 0.0
C348 C 0.01175 0.32689 0.80016 0.0
C349 C 0.04588 0.28438 0.80292 0.0
N350 N 0.05128 0.30496 0.7904 0.0
H351 H 0.03478 0.33905 0.77877 0.0
H352 H 0.05694 0.26571 0.80374 0.0
H353 H 0.98914 0.24097 0.77681 0.0
H354 H 0.0797 0.22236 0.77422 0.0
O355 O 0.0398 0.29596 0.75826 0.0
O356 O 0.08861 0.28952 0.75336 0.0
O357 O 0.11461 0.2939 0.78503 0.0
C358 C 0.05942 0.29032 0.74848 0.0
H359 H 0.15858 0.43765 0.78159 0.0
H360 H 0.96302 0.16837 0.77909 0.0
H361 H 0.01783 0.26626 0.82374 0.0
H362 H 0.99741 0.34242 0.79839 0.0
Co363 Co 0.77889 0.06914 0.10768 0.0
C364 C 0.72465 0.09166 0.0987 0.0
C365 C 0.75203 0.11994 0.11849 0.0
C366 C 0.71936 0.12092 0.1171 0.0
N367 N 0.7546 0.09974 0.10731 0.0
N368 N 0.70131 0.10173 0.1049 0.0
H369 H 0.71713 0.07423 0.08903 0.0
H370 H 0.77014 0.13019 0.12789 0.0
C371 C 0.82613 0.11583 0.13415 0.0
O372 O 0.79647 0.10186 0.14262 0.0
N373 N 0.80119 0.03784 0.10749 0.0
C374 C 0.78207 1.00039 0.10614 0.0
C375 C 0.80649 0.9873 0.10729 0.0
C376 C 0.83713 0.0472 0.10919 0.0
N377 N 0.84097 0.01667 0.10926 0.0
C378 C 0.71134 0.02717 0.12408 0.0
C379 C 0.73947 0.99642 0.14364 0.0
C380 C 0.70065 0.97974 0.14204 0.0
C381 C 0.6869 0.9974 0.13291 0.0
C382 C 0.76307 0.02723 0.135 0.0
N383 N 0.74896 0.04111 0.12473 0.0
H384 H 0.6992 0.03612 0.11573 0.0
H385 H 0.79269 0.03755 0.13558 0.0
H386 H 0.7522 0.98365 0.1048 0.0
H387 H 0.85974 0.07544 0.1107 0.0
O388 O 0.74514 0.03694 0.09269 0.0
O389 O 0.79958 0.08704 0.088 0.0
O390 O 0.82289 0.10749 0.12031 0.0
C391 C 0.76972 0.05788 0.08293 0.0
H392 H 0.70783 0.13101 0.12544 0.0
H393 H 0.79943 0.95838 0.10668 0.0
H394 H 0.75185 0.98398 0.15043 0.0
H395 H 0.65726 0.9864 0.13157 0.0
H396 H 0.65217 0.59745 0.26078 0.0
H397 H 0.58407 0.56361 0.2614 0.0
H398 H 0.5812 0.52135 0.21761 0.0
H399 H 0.64965 0.5557 0.21686 0.0
H400 H 0.53924 0.57619 0.24024 0.0
H401 H 0.50562 0.42822 0.24213 0.0
H402 H 0.55075 0.4664 0.24734 0.0
H403 H 0.53821 0.45732 0.2282 0.0
C404 C 0.63704 0.58049 0.25136 0.0
C405 C 0.65636 0.57934 0.23876 0.0
C406 C 0.59813 0.56124 0.25172 0.0
C407 C 0.5775 0.54002 0.23955 0.0
C408 C 0.59656 0.53729 0.22719 0.0
H409 H 0.3413 0.45992 0.2219 0.0
H410 H 0.40958 0.49466 0.22099 0.0
C411 C 0.63568 0.55673 0.2268 0.0
C412 C 0.53622 0.52275 0.23961 0.0
H413 H 0.45499 0.43911 0.24051 0.0
C414 C 0.52078 0.54621 0.24024 0.0
C415 C 0.51222 0.48367 0.2397 0.0
C416 C 0.52734 0.45725 0.23941 0.0
C417 C 0.48202 0.53163 0.24099 0.0
C418 C 0.45801 0.49256 0.24107 0.0
C419 C 0.47344 0.46909 0.24041 0.0
C420 C 0.41683 0.4753 0.24227 0.0
C421 C 0.467 0.55806 0.24204 0.0
C422 C 0.39822 0.45363 0.25467 0.0
C423 C 0.35928 0.43416 0.25529 0.0
C424 C 0.33798 0.43548 0.24343 0.0
C425 C 0.35674 0.45871 0.23132 0.0
C426 C 0.39582 0.47838 0.23074 0.0
H427 H 0.48922 0.58699 0.24462 0.0
H428 H 0.45417 0.55845 0.23133 0.0
H429 H 0.44508 0.54864 0.25068 0.0
H430 H 0.41384 0.451 0.26373 0.0
H431 H 0.34573 0.41675 0.26481 0.0
H432 H 0.06454 0.65559 0.59962 0.0
H433 H 0.02823 0.58745 0.59935 0.0
H434 H 0.07394 0.58629 0.55671 0.0
H435 H 0.10993 0.65469 0.55679 0.0
H436 H 0.97381 0.54538 0.57674 0.0
H437 H 0.08387 0.50645 0.58149 0.0
H438 H 0.09153 0.55177 0.58688 0.0
H439 H 0.0911 0.54071 0.56768 0.0
C440 C 0.06729 0.64087 0.59026 0.0
C441 C 0.0901 0.66075 0.5782 0.0
C442 C 0.04645 0.60187 0.59012 0.0
C443 C 0.04822 0.58168 0.57801 0.0
C444 C 0.07236 0.60123 0.56625 0.0
H445 H 0.88973 0.34965 0.5543 0.0
H446 H 0.92564 0.418 0.555 0.0
C447 C 0.09315 0.64039 0.56635 0.0
C448 C 0.02311 0.54046 0.57738 0.0
H449 H 0.02223 0.45743 0.5776 0.0
C450 C 0.98439 0.52613 0.5769 0.0
C451 C 0.03689 0.51536 0.57766 0.0
C452 C 0.07809 0.52914 0.57856 0.0
C453 C 0.95915 0.48746 0.57665 0.0
C454 C 0.97294 0.46236 0.57686 0.0
C455 C 0.01166 0.47668 0.57739 0.0
C456 C 0.94775 0.42111 0.57694 0.0
C457 C 0.91789 0.47367 0.57648 0.0
C458 C 0.9475 0.40008 0.58914 0.0
C459 C 0.92668 0.36109 0.58883 0.0
C460 C 0.90592 0.34205 0.57623 0.0
C461 C 0.90485 0.36326 0.56426 0.0
C462 C 0.92562 0.4024 0.56461 0.0
H463 H 0.91166 0.49617 0.57917 0.0
H464 H 0.90669 0.46284 0.5653 0.0
H465 H 0.90311 0.45048 0.58448 0.0
H466 H 0.96417 0.41385 0.59881 0.0
H467 H 0.9279 0.3457 0.59828 0.0
H468 H 0.45798 0.11308 0.89 0.0
H469 H 0.49091 0.07751 0.88973 0.0
H470 H 0.43565 0.02249 0.93011 0.0
H471 H 0.40322 0.05822 0.93056 0.0
H472 H 0.53745 0.06713 0.91182 0.0
H473 H 0.4055 0.93674 0.89918 0.0
H474 H 0.41082 0.98247 0.89678 0.0
H475 H 0.40371 0.96233 0.9149 0.0
C476 C 0.45363 0.09418 0.89903 0.0
C477 C 0.42768 0.0883 0.91024 0.0
C478 C 0.47222 0.07361 0.8988 0.0
C479 C 0.4651 0.0467 0.90973 0.0
C480 C 0.44101 0.04249 0.92139 0.0
H481 H 0.57892 0.92378 0.93026 0.0
H482 H 0.5477 0.96071 0.93088 0.0
C483 C 0.42258 0.06305 0.92166 0.0
C484 C 0.4815 0.02187 0.9087 0.0
H485 H 0.45814 0.9305 0.90461 0.0
C486 C 0.52015 0.03729 0.91021 0.0
C487 C 0.45896 0.98295 0.9064 0.0
C488 C 0.41747 0.96503 0.90409 0.0
C489 C 0.5367 0.01472 0.90986 0.0
C490 C 0.514 0.97562 0.90807 0.0
C491 C 0.47548 0.96035 0.90616 0.0
C492 C 0.52996 0.95033 0.90806 0.0
C493 C 0.57846 0.0329 0.91129 0.0
C494 C 0.52889 0.93069 0.89523 0.0
C495 C 0.54681 0.90953 0.89484 0.0
C496 C 0.56602 0.90736 0.90731 0.0
C497 C 0.56494 0.92524 0.9204 0.0
C498 C 0.54721 0.94651 0.92075 0.0
H499 H 0.59253 0.06343 0.90926 0.0
H500 H 0.58554 0.0284 0.92264 0.0
H501 H 0.58966 0.02036 0.90341 0.0
H502 H 0.5155 0.93299 0.88533 0.0
H503 H 0.54727 0.89657 0.88452 0.0
H504 H 0.65137 0.64799 0.44722 0.0
H505 H 0.61961 0.58006 0.44601 0.0
H506 H 0.51608 0.57649 0.43635 0.0
H507 H 0.54776 0.6447 0.4373 0.0
H508 H 0.50968 0.52396 0.45794 0.0
H509 H 0.58373 0.51689 0.40801 0.0
H510 H 0.61367 0.54536 0.42267 0.0
H511 H 0.58383 0.55889 0.41347 0.0
C512 C 0.62195 0.63298 0.44466 0.0
C513 C 0.60237 0.65223 0.44216 0.0
C514 C 0.60377 0.59396 0.44399 0.0
C515 C 0.56554 0.57306 0.44082 0.0
C516 C 0.54564 0.59198 0.43873 0.0
H517 H 0.4312 0.34052 0.41469 0.0
H518 H 0.46798 0.40874 0.41575 0.0
C519 C 0.56382 0.63108 0.43935 0.0
C520 C 0.54635 0.53151 0.43979 0.0
H521 H 0.54517 0.45984 0.42045 0.0
C522 C 0.51746 0.50996 0.44975 0.0
C523 C 0.55617 0.51313 0.429 0.0
C524 C 0.58581 0.53466 0.41758 0.0
C525 C 0.49855 0.47068 0.44934 0.0
C526 C 0.50898 0.4523 0.43878 0.0
C527 C 0.53749 0.47385 0.42867 0.0
C528 C 0.48953 0.41077 0.4377 0.0
C529 C 0.46697 0.44913 0.46003 0.0
C530 C 0.49042 0.38901 0.44945 0.0
C531 C 0.46952 0.34992 0.44884 0.0
C532 C 0.44718 0.33172 0.43646 0.0
C533 C 0.44786 0.35362 0.42442 0.0
C534 C 0.4689 0.39264 0.42501 0.0
H535 H 0.45707 0.46701 0.46515 0.0
H536 H 0.44312 0.42533 0.45441 0.0
H537 H 0.47666 0.43774 0.469 0.0
H538 H 0.50659 0.4023 0.45927 0.0
H539 H 0.46943 0.33407 0.45836 0.0
H540 H 0.93246 0.58925 0.74887 0.0
H541 H 0.96873 0.55756 0.74676 0.0
H542 H 0.93885 0.51699 0.79135 0.0
H543 H 0.9034 0.54936 0.79373 0.0
H544 H 0.03094 0.57199 0.76638 0.0
H545 H 0.91855 0.42339 0.76636 0.0
H546 H 0.91014 0.46098 0.76166 0.0
H547 H 0.91589 0.45224 0.78063 0.0
C548 C 0.93327 0.57336 0.75821 0.0
C549 C 0.91496 0.57222 0.7715 0.0
C550 C 0.95407 0.55521 0.75697 0.0
C551 C 0.9566 0.53489 0.76889 0.0
C552 C 0.93705 0.5322 0.78194 0.0
H553 H 0.11738 0.46183 0.78693 0.0
H554 H 0.08227 0.49503 0.78679 0.0
C555 C 0.91648 0.55061 0.78324 0.0
C556 C 0.98124 0.51824 0.76794 0.0
H557 H 0.98057 0.43529 0.76793 0.0
C558 C 0.01994 0.5421 0.76669 0.0
C559 C 0.96691 0.47925 0.76827 0.0
C560 C 0.92559 0.45231 0.76919 0.0
C561 C 0.04464 0.52803 0.76597 0.0
C562 C 0.03034 0.48905 0.76653 0.0
C563 C 0.9916 0.46518 0.76757 0.0
C564 C 0.05494 0.47229 0.7659 0.0
C565 C 0.08583 0.55491 0.76443 0.0
C566 C 0.05195 0.44901 0.75408 0.0
C567 C 0.07235 0.43037 0.75404 0.0
C568 C 0.09591 0.43404 0.76593 0.0
C569 C 0.10006 0.45867 0.77748 0.0
C570 C 0.07976 0.47754 0.77746 0.0
H571 H 0.09171 0.58319 0.76113 0.0
H572 H 0.09968 0.55725 0.77519 0.0
H573 H 0.09834 0.54464 0.75613 0.0
H574 H 0.03315 0.44463 0.745 0.0
H575 H 0.06871 0.41201 0.74489 0.0
H576 H 0.34911 0.86924 0.11294 0.0
H577 H 0.41742 0.90469 0.11233 0.0
H578 H 0.41405 0.99239 0.08799 0.0
H579 H 0.34683 0.95815 0.08864 0.0
H580 H 0.46636 0.97592 0.0769 0.0
H581 H 0.48124 0.99801 0.13764 0.0
H582 H 0.45493 0.9501 0.13191 0.0
H583 H 0.43728 0.98107 0.12824 0.0
C584 C 0.36283 0.89596 0.10739 0.0
C585 C 0.34177 0.91041 0.10088 0.0
C586 C 0.40196 0.91631 0.10711 0.0
C587 C 0.42092 0.95156 0.10032 0.0
C588 C 0.40013 0.96532 0.09331 0.0
H589 H 0.6538 0.12596 0.11334 0.0
H590 H 0.58549 0.09125 0.1117 0.0
C591 C 0.36123 0.94521 0.09361 0.0
C592 C 0.46235 0.97474 0.10064 0.0
H593 H 0.53694 0.02066 0.12383 0.0
C594 C 0.48179 0.98564 0.08717 0.0
C595 C 0.48246 0.98815 0.11401 0.0
C596 C 0.463 0.97909 0.12879 0.0
C597 C 0.52071 0.00895 0.08672 0.0
C598 C 0.54095 0.02142 0.1001 0.0
C599 C 0.52148 0.01105 0.11357 0.0
C600 C 0.58242 0.04378 0.10037 0.0
C601 C 0.53975 0.02046 0.07188 0.0
C602 C 0.60344 0.02878 0.09455 0.0
C603 C 0.64227 0.0484 0.09549 0.0
C604 C 0.66142 0.08374 0.10234 0.0
C605 C 0.64022 0.09899 0.10798 0.0
C606 C 0.60114 0.07915 0.10707 0.0
H607 H 0.52004 0.01793 0.06303 0.0
H608 H 0.56324 0.04966 0.07213 0.0
H609 H 0.55104 1.00199 0.06896 0.0
H610 H 0.5897 1.00119 0.08967 0.0
H611 H 0.65689 0.03475 0.09138 0.0
H612 H 0.30363 0.2872 0.40215 0.0
H613 H 0.29111 0.29649 0.37666 0.0
H614 H 0.28392 0.1925 0.36428 0.0
H615 H 0.29558 0.1825 0.39004 0.0
H616 H 0.32829 0.30448 0.3517 0.0
H617 H 0.18795 0.17919 0.34712 0.0
H618 H 0.21189 0.19522 0.36455 0.0
H619 H 0.22378 0.1689 0.3521 0.0
C620 C 0.29943 0.26621 0.39404 0.0
C621 C 0.30049 0.23398 0.39819 0.0
C622 C 0.29224 0.2716 0.37942 0.0
C623 C 0.28587 0.24495 0.36852 0.0
C624 C 0.2878 0.21308 0.37253 0.0
H625 H 0.29688 0.28964 0.27416 0.0
H626 H 0.30796 0.27837 0.29959 0.0
C627 C 0.29485 0.20755 0.38724 0.0
C628 C 0.27787 0.25123 0.353 0.0
H629 H 0.21378 0.21392 0.3251 0.0
C630 C 0.30322 0.28464 0.34591 0.0
C631 C 0.24482 0.22575 0.34547 0.0
C632 C 0.21534 0.19042 0.35272 0.0
C633 C 0.29674 0.29306 0.33154 0.0
C634 C 0.26437 0.267 0.32381 0.0
C635 C 0.23873 0.2338 0.33095 0.0
C636 C 0.25703 0.27348 0.30824 0.0
C637 C 0.32434 0.33026 0.32492 0.0
C638 C 0.2241 0.27348 0.30442 0.0
C639 C 0.21746 0.27963 0.28974 0.0
C640 C 0.24358 0.28577 0.27859 0.0
C641 C 0.2763 0.28542 0.28246 0.0
C642 C 0.28282 0.27914 0.29706 0.0
H643 H 0.34073 0.35103 0.3336 0.0
H644 H 0.3442 0.32673 0.31782 0.0
H645 H 0.31015 0.34161 0.31802 0.0
H646 H 0.20364 0.26895 0.31282 0.0
H647 H 0.19188 0.27947 0.28713 0.0
H648 H 0.9132 0.17874 0.61767 0.0
H649 H 0.93327 0.18622 0.64356 0.0
H650 H 1.00137 0.30497 0.637 0.0
H651 H 0.9826 0.29739 0.61108 0.0
H652 H 0.03954 0.28046 0.65126 0.0
H653 H 0.90191 0.22243 0.67852 0.0
H654 H 0.90445 0.19001 0.6661 0.0
H655 H 0.90814 0.23235 0.65899 0.0
C656 C 0.93207 0.20646 0.62183 0.0
C657 C 0.94622 0.23748 0.61236 0.0
C658 C 0.94343 0.21076 0.63666 0.0
C659 C 0.96851 0.24627 0.64238 0.0
C660 C 0.98207 0.27727 0.63292 0.0
H661 H 0.01153 0.30755 0.73478 0.0
H662 H 0.99119 0.29676 0.70903 0.0
C663 C 0.9712 0.27292 0.61809 0.0
C664 C 0.98197 0.25134 0.65798 0.0
H665 H 0.95316 0.23504 0.69398 0.0
C666 C 0.0206 0.27058 0.6606 0.0
C667 C 0.9574 0.23886 0.67023 0.0
C668 C 0.91569 0.2201 0.66836 0.0
C669 C 0.03529 0.27789 0.67501 0.0
C670 C 0.01072 0.2645 0.68726 0.0
C671 C 0.97209 0.24507 0.68464 0.0
C672 C 0.02427 0.2717 0.70287 0.0
C673 C 0.07697 0.30105 0.67691 0.0
C674 C 0.04977 0.2613 0.70811 0.0
C675 C 0.06199 0.26809 0.72284 0.0
C676 C 0.04831 0.28465 0.73269 0.0
C677 C 0.02259 0.2947 0.72747 0.0
C678 C 0.01084 0.28844 0.71274 0.0
H679 H 0.09064 0.31806 0.66693 0.0
H680 H 0.08437 0.32005 0.68655 0.0
H681 H 0.0885 0.28227 0.67874 0.0
H682 H 0.05985 0.24743 0.70088 0.0
H683 H 0.08147 0.25961 0.72658 0.0
H684 H 0.71141 0.99622 0.07094 0.0
H685 H 0.70141 0.97617 0.04527 0.0
H686 H 0.80322 0.07544 0.03294 0.0
H687 H 0.81405 0.09535 0.05895 0.0
H688 H 0.69069 0.00659 0.0214 0.0
H689 H 0.8177 0.9958 0.01342 0.0
H690 H 0.80268 1.00193 0.03139 0.0
H691 H 0.82706 0.04116 0.0192 0.0
C692 C 0.73183 0.01391 0.06282 0.0
C693 C 0.76366 0.04741 0.06704 0.0
C694 C 0.72601 1.00233 0.04809 0.0
C695 C 0.75177 0.02389 0.03712 0.0
C696 C 0.78334 0.0578 0.04122 0.0
H697 H 0.70114 0.99664 0.9433 0.0
H698 H 0.71275 0.01638 0.96903 0.0
C699 C 0.78935 0.06936 0.05607 0.0
C700 C 0.74464 0.0108 0.02146 0.0
H701 H 0.78068 0.98704 0.99213 0.0
C702 C 0.71042 1.00232 0.01502 0.0
C703 C 0.76999 0.00451 0.01317 0.0
C704 C 0.80626 0.01095 0.01966 0.0
C705 C 0.701 0.98812 1.00059 0.0
C706 C 0.72686 0.98305 0.99211 0.0
C707 C 0.76092 0.99111 0.99857 0.0
C708 C 0.7194 0.97034 0.97642 0.0
C709 C 0.66303 0.97797 0.99468 0.0
C710 C 0.71999 0.93817 0.97183 0.0
C711 C 0.71356 0.92683 0.95697 0.0
C712 C 0.70664 0.9476 0.94643 0.0
C713 C 0.70602 0.97971 0.95111 0.0
C714 C 0.71252 0.99103 0.96588 0.0
H715 H 0.64288 0.97249 1.00376 0.0
H716 H 0.66529 1.00155 0.98804 0.0
H717 H 0.65169 0.95291 0.98749 0.0
H718 H 0.72543 0.92183 0.97974 0.0
H719 H 0.71456 0.90217 0.95371 0.0
H720 H 0.70922 0.72277 0.39849 0.0
H721 H 0.71784 0.71477 0.37246 0.0
H722 H 0.7136 0.81425 0.36202 0.0
H723 H 0.70572 0.82298 0.38846 0.0
H724 H 0.67655 0.70477 0.3483 0.0
H725 H 0.8122 0.83631 0.34335 0.0
H726 H 0.79017 0.81772 0.36094 0.0
H727 H 0.77407 0.84207 0.34938 0.0
C728 C 0.70978 0.74289 0.39068 0.0
C729 C 0.70703 0.77369 0.39556 0.0
C730 C 0.71474 0.73823 0.37576 0.0
C731 C 0.71719 0.76427 0.36526 0.0
C732 C 0.71266 0.79423 0.36996 0.0
H733 H 0.70575 0.72348 0.27113 0.0
H734 H 0.69563 0.73428 0.29665 0.0
C735 C 0.70763 0.79893 0.38502 0.0
C736 C 0.72489 0.7596 0.34955 0.0
H737 H 0.78839 0.80018 0.32162 0.0
C738 C 0.70095 0.72573 0.34246 0.0
C739 C 0.75721 0.78655 0.34203 0.0
C740 C 0.78515 0.82259 0.34932 0.0
C741 C 0.7082 0.71814 0.3281 0.0
C742 C 0.73987 0.74551 0.32039 0.0
C743 C 0.76406 0.77928 0.3275 0.0
C744 C 0.74729 0.73997 0.30476 0.0
C745 C 0.6822 0.68045 0.32143 0.0
C746 C 0.78039 0.74064 0.30064 0.0
C747 C 0.78652 0.73467 0.28585 0.0
C748 C 0.75968 0.72813 0.27498 0.0
C749 C 0.72693 0.72805 0.27919 0.0
C750 C 0.72094 0.73409 0.29385 0.0
H751 H 0.66655 0.65925 0.33008 0.0
H752 H 0.66159 0.68266 0.3143 0.0
H753 H 0.69764 0.67048 0.31454 0.0
H754 H 0.80125 0.74538 0.30888 0.0
H755 H 0.81211 0.73516 0.28295 0.0
H756 H 0.09725 0.81503 0.62216 0.0
H757 H 0.07835 0.80493 0.64827 0.0
H758 H 0.97869 0.70277 0.63668 0.0
H759 H 0.99759 0.71221 0.6108 0.0
H760 H 0.01552 0.79833 0.66184 0.0
H761 H 0.02075 0.66829 0.66953 0.0
H762 H 0.04106 0.69825 0.65369 0.0
H763 H 0.99178 0.66574 0.65433 0.0
C764 C 0.07148 0.79028 0.62521 0.0
C765 C 0.04911 0.76429 0.6144 0.0
C766 C 0.06064 0.78459 0.64013 0.0
C767 C 0.02735 0.75275 0.6445 0.0
C768 C 0.00488 0.72707 0.63367 0.0
H769 H 0.90932 0.72114 0.7287 0.0
H770 H 0.92787 0.7313 0.70257 0.0
C771 C 0.0157 0.73265 0.61883 0.0
C772 C 0.01561 0.74649 0.66031 0.0
H773 H 0.99078 0.68348 0.68849 0.0
C774 C 0.01028 0.7733 0.6677 0.0
C775 C 0.00909 0.714 0.66802 0.0
C776 C 0.01631 0.68509 0.66104 0.0
C777 C 0.99811 0.76827 0.68249 0.0
C778 C 0.99034 0.73516 0.69003 0.0
C779 C 0.99619 0.70862 0.68268 0.0
C780 C 0.97807 0.72824 0.70578 0.0
C781 C 0.99451 0.79887 0.68998 0.0
C782 C 0.99929 0.72187 0.71623 0.0
C783 C 0.98851 0.7156 0.73107 0.0
C784 C 0.95615 0.71548 0.73587 0.0
C785 C 0.93444 0.72118 0.72538 0.0
C786 C 0.94523 0.72734 0.71046 0.0
H787 H 0.01051 0.8259 0.68409 0.0
H788 H 0.96478 0.79131 0.69008 0.0
H789 H 0.00441 0.80264 0.7016 0.0
H790 H 0.02461 0.72223 0.71294 0.0
H791 H 0.00592 0.71129 0.73882 0.0
H792 H 0.27726 0.08873 0.95193 0.0
H793 H 0.26745 0.06675 0.97762 0.0
H794 H 0.26673 0.96675 0.96376 0.0
H795 H 0.27726 0.98877 0.93824 0.0
H796 H 0.2106 0.00386 0.99058 0.0
H797 H 0.3435 0.0035 0.99648 0.0
H798 H 0.33449 0.02586 0.98119 0.0
H799 H 0.316 0.97621 0.98113 0.0
C800 C 0.2752 0.06216 0.95438 0.0
C801 C 0.27837 0.04068 0.94304 0.0
C802 C 0.26949 0.04956 0.96907 0.0
C803 C 0.26696 0.01534 0.9727 0.0
C804 C 0.26947 0.99362 0.96133 0.0
H805 H 0.18189 0.89607 0.0571 0.0
H806 H 0.18927 0.91414 0.03091 0.0
C807 C 0.27531 0.00622 0.9467 0.0
C808 C 0.2614 1.0021 0.98833 0.0
H809 H 0.2991 0.97429 0.01567 0.0
C810 C 0.22999 0.99746 0.99608 0.0
C811 C 0.28689 0.9941 0.99559 0.0
C812 C 0.3223 1.0005 0.98824 0.0
C813 C 0.2232 0.98477 0.01082 0.0
C814 C 0.24813 0.97574 0.01793 0.0
C815 C 0.27968 0.98067 0.01019 0.0
C816 C 0.24345 0.96347 0.03368 0.0
C817 C 0.18994 0.98215 0.01874 0.0
C818 C 0.27188 0.98429 0.04388 0.0
C819 C 0.26792 0.97378 0.05873 0.0
C820 C 0.23542 0.94209 0.06381 0.0
C821 C 0.20721 0.92067 0.05356 0.0
C822 C 0.21127 0.93119 0.03861 0.0
H823 H 0.17917 0.9987 0.01311 0.0
H824 H 0.16725 0.95261 0.01898 0.0
H825 H 0.19704 0.99206 0.03033 0.0
H826 H 0.29703 0.00916 0.04038 0.0
H827 H 0.29027 0.99095 0.06629 0.0
H828 H 0.1013 0.16687 0.25027 0.0
H829 H 0.04445 0.10603 0.25187 0.0
H830 H 0.09867 0.05568 0.2284 0.0
H831 H 0.15524 0.11628 0.22645 0.0
H832 H 0.00429 0.05865 0.22694 0.0
H833 H 0.05489 0.99081 0.26636 0.0
H834 H 0.07719 0.04084 0.26427 0.0
H835 H 0.08483 0.01347 0.25082 0.0
C836 C 0.10111 0.14295 0.24536 0.0
C837 C 0.13294 0.14645 0.2383 0.0
C838 C 0.06872 0.10821 0.24639 0.0
C839 C 0.06779 0.07647 0.24048 0.0
C840 C 0.09926 0.07983 0.23332 0.0
H841 H 0.90376 0.84485 0.22809 0.0
H842 H 0.96107 0.90542 0.23034 0.0
C843 C 0.13156 0.11449 0.23224 0.0
C844 C 0.03334 0.03999 0.24115 0.0
H845 H 0.99678 0.95164 0.25467 0.0
C846 C 1.00242 0.03528 0.23309 0.0
C847 C 0.0314 0.00973 0.24912 0.0
C848 C 0.06371 0.01386 0.25824 0.0
C849 C 0.96965 1.00061 0.23248 0.0
C850 C 0.96765 0.97024 0.24044 0.0
C851 C 0.99851 0.97506 0.24861 0.0
C852 C 0.9338 0.93312 0.24022 0.0
C853 C 0.93793 0.99654 0.22294 0.0
C854 C 0.89995 0.92858 0.24545 0.0
C855 C 0.86736 0.89426 0.24409 0.0
C856 C 0.86821 0.86381 0.23766 0.0
C857 C 0.90246 0.8679 0.23311 0.0
C858 C 0.93507 0.9024 0.23436 0.0
H859 H 0.94741 0.01938 0.21469 0.0
H860 H 0.9245 0.96946 0.217 0.0
H861 H 0.91663 0.99754 0.23005 0.0
H862 H 0.89865 0.95176 0.25036 0.0
H863 H 0.84142 0.89155 0.24798 0.0
H864 H 0.03293 0.15588 0.58562 0.0
H865 H 0.04013 0.1009 0.58515 0.0
H866 H 0.93825 0.04131 0.5602 0.0
H867 H 0.93132 0.09689 0.56034 0.0
H868 H 0.9915 0.02768 0.59529 0.0
H869 H 0.01722 0.0334 0.53476 0.0
H870 H 0.01955 0.07209 0.54488 0.0
H871 H 0.97515 0.03276 0.54016 0.0
C872 C 0.01214 0.13115 0.57997 0.0
C873 C 0.98184 0.13079 0.57283 0.0
C874 C 0.01618 0.09972 0.5798 0.0
C875 C 0.99009 0.06739 0.57243 0.0
C876 C 0.95901 0.06633 0.56573 0.0
H877 H 0.97099 0.85388 0.55738 0.0
H878 H 0.96524 0.90967 0.55763 0.0
C879 C 0.95488 0.09786 0.56594 0.0
C880 C 0.99598 0.0351 0.57168 0.0
H881 H 0.01413 0.98242 0.54779 0.0
C882 C 0.9965 0.01774 0.58492 0.0
C883 C 1.00275 0.02256 0.55813 0.0
C884 C 0.00399 0.04128 0.54366 0.0
C885 C 1.00289 0.98754 0.58495 0.0
C886 C 0.00961 0.97495 0.57139 0.0
C887 C 0.00918 0.99238 0.55816 0.0
C888 C 0.01496 0.94231 0.57064 0.0
C889 C 1.00147 0.96875 0.59942 0.0
C890 C 0.04544 0.9426 0.57756 0.0
C891 C 0.04869 0.91055 0.57752 0.0
C892 C 0.02146 0.87787 0.57057 0.0
C893 C 0.99192 0.87836 0.56313 0.0
C894 C 0.98873 0.91027 0.56316 0.0
H895 H 0.9882 0.97664 0.60831 0.0
H896 H 0.98585 0.93794 0.59819 0.0
H897 H 0.03025 0.97721 0.60297 0.0
H898 H 0.06634 0.9674 0.58316 0.0
H899 H 0.07172 0.91095 0.58331 0.0
H900 H 0.16037 0.06684 0.91507 0.0
H901 H 0.09834 0.06046 0.91694 0.0
H902 H 0.05523 0.96873 0.88617 0.0
H903 H 0.11686 0.97519 0.88409 0.0
H904 H 0.04967 0.06063 0.89342 0.0
H905 H 0.98944 0.92634 0.92396 0.0
H906 H 0.03902 0.95785 0.92246 0.0
H907 H 0.01362 0.92828 0.9072 0.0
C908 C 0.13777 0.04569 0.90857 0.0
C909 C 0.14331 0.02113 0.89961 0.0
C910 C 0.10241 0.04195 0.9097 0.0
C911 C 0.07225 0.0136 0.90193 0.0
C912 C 0.07806 0.99018 0.89251 0.0
H913 H 0.83618 0.93549 0.89399 0.0
H914 H 0.89875 0.94297 0.89276 0.0
C915 C 0.11325 0.99389 0.89137 0.0
C916 C 0.03446 0.00804 0.90368 0.0
H917 H 0.94707 0.94523 0.91568 0.0
C918 C 0.02724 0.03558 0.89837 0.0
C919 C 0.00542 0.97516 0.91008 0.0
C920 C 0.01217 0.94528 0.91637 0.0
C921 C 0.99129 0.03073 0.89901 0.0
C922 C 0.9622 0.99781 0.9054 0.0
C923 C 0.96949 0.97034 0.91076 0.0
C924 C 0.92413 0.99177 0.90683 0.0
C925 C 0.98457 0.06047 0.89255 0.0
C926 C 0.9177 0.01595 0.91554 0.0
C927 C 0.88224 0.01172 0.91626 0.0
C928 C 0.8525 0.98304 0.90838 0.0
C929 C 0.8586 0.95773 0.9002 0.0
C930 C 0.89425 0.96209 0.89944 0.0
H931 H 0.00709 0.07892 0.88479 0.0
H932 H 0.95752 0.04785 0.88661 0.0
H933 H 0.98369 0.07806 0.90162 0.0
H934 H 0.94026 0.0384 0.92163 0.0
H935 H 0.87811 0.03108 0.92291 0.0
H936 H 0.86474 0.85931 0.4542 0.0
H937 H 0.92961 0.89917 0.46247 0.0
H938 H 0.93229 0.9937 0.44113 0.0
H939 H 0.8681 0.95417 0.43292 0.0
H940 H 0.98908 0.93853 0.44168 0.0
H941 H 0.98128 0.03528 0.48162 0.0
H942 H 0.94166 0.99022 0.47726 0.0
H943 H 0.95418 0.0296 0.46535 0.0
C944 C 0.87907 0.88881 0.45165 0.0
C945 C 0.86176 0.90382 0.44289 0.0
C946 C 0.91598 0.91143 0.45631 0.0
C947 C 0.9355 0.94941 0.45255 0.0
C948 C 0.91751 0.96461 0.44438 0.0
H949 H 0.1257 0.1398 0.43107 0.0
H950 H 0.06569 0.08535 0.43695 0.0
C951 C 0.88102 0.94202 0.43958 0.0
C952 C 0.97585 0.97279 0.45541 0.0
H953 H 0.03896 0.05978 0.46757 0.0
C954 C 1.00029 0.96452 0.44775 0.0
C955 C 0.99024 0.00651 0.4634 0.0
C956 C 0.96545 0.01577 0.4725 0.0
C957 C 0.03838 0.99088 0.44663 0.0
C958 C 0.05206 0.02601 0.45346 0.0
C959 C 0.02821 0.03288 0.46223 0.0
C960 C 0.08905 0.05784 0.44975 0.0
C961 C 0.06315 0.98234 0.43716 0.0
C962 C 0.12205 0.06004 0.45486 0.0
C963 C 0.15655 0.09132 0.4515 0.0
C964 C 0.15836 0.12078 0.44308 0.0
C965 C 0.12518 0.11787 0.43776 0.0
C966 C 0.09091 0.08677 0.44109 0.0
H967 H 0.04768 0.95429 0.432 0.0
H968 H 0.07612 0.00359 0.4283 0.0
H969 H 0.08596 0.98361 0.44402 0.0
H970 H 0.12107 0.03802 0.46165 0.0
H971 H 0.18162 0.09302 0.45591 0.0
H972 H 0.04437 0.88761 0.78846 0.0
H973 H 0.04846 0.94841 0.78907 0.0
H974 H 0.93851 0.90039 0.77014 0.0
H975 H 0.93459 0.83931 0.76912 0.0
H976 H 0.99289 0.96643 0.75608 0.0
H977 H 0.99418 0.98387 0.8169 0.0
H978 H 0.02802 0.97227 0.81032 0.0
H979 H 0.9792 0.93928 0.80825 0.0
C980 C 0.02107 0.88992 0.78438 0.0
C981 C 0.98922 0.85866 0.77866 0.0
C982 C 0.02329 0.92462 0.7849 0.0
C983 C 0.99364 0.92874 0.77981 0.0
C984 C 0.96161 0.89762 0.7742 0.0
H985 H 0.96866 0.12197 0.7914 0.0
H986 H 0.96247 0.06027 0.79165 0.0
C987 C 0.95931 0.86276 0.77371 0.0
C988 C 0.99693 0.96597 0.77979 0.0
H989 H 0.01082 0.03786 0.80232 0.0
C990 C 0.99659 0.98202 0.76618 0.0
C991 C 1.00153 0.98602 0.793 0.0
C992 C 1.00043 0.9694 0.80797 0.0
C993 C 1.00135 0.018 0.76541 0.0
C994 C 0.00717 0.03852 0.7786 0.0
C995 C 0.00686 0.02219 0.79222 0.0
C996 C 0.0119 0.07637 0.77856 0.0
C997 C 0.99953 0.03348 0.75053 0.0
C998 C 0.04218 0.10607 0.77134 0.0
C999 C 0.04566 0.14146 0.77107 0.0
C1000 C 0.01891 0.14765 0.77805 0.0
C1001 C 0.98927 0.11799 0.78563 0.0
C1002 C 0.98583 0.08275 0.78589 0.0
H1003 H 0.9863 0.0112 0.74206 0.0
H1004 H 0.98368 0.04854 0.75123 0.0
H1005 H 0.0282 0.05354 0.74677 0.0
H1006 H 0.063 0.10181 0.76585 0.0
H1007 H 0.06875 0.16367 0.76512 0.0
H1008 H 0.8472 0.96186 0.12263 0.0
H1009 H 0.90278 0.95579 0.12393 0.0
H1010 H 0.96605 0.06125 0.10148 0.0
H1011 H 0.91036 0.06754 0.10024 0.0
H1012 H 0.94027 0.95181 0.09971 0.0
H1013 H 0.03455 0.07065 0.13557 0.0
H1014 H 0.98514 0.05374 0.13439 0.0
H1015 H 0.01603 0.08368 0.12022 0.0
C1016 C 0.87301 0.98384 0.11805 0.0
C1017 C 0.87448 0.01502 0.11121 0.0
C1018 C 0.90473 0.98043 0.11887 0.0
C1019 C 0.93849 0.00817 0.1129 0.0
C1020 C 0.94038 0.03989 0.10642 0.0
H1021 H 0.14966 0.02952 0.09217 0.0
H1022 H 0.09413 0.0352 0.09485 0.0
C1023 C 0.90861 0.04343 0.10568 0.0
C1024 C 0.97078 1.00229 0.1124 0.0
H1025 H 0.06186 0.04021 0.12248 0.0
C1026 C 0.96677 0.97091 0.10481 0.0
C1027 C 0.0052 0.02733 0.11906 0.0
C1028 C 0.0105 0.06056 0.12789 0.0
C1029 C 0.99668 0.96439 0.10337 0.0
C1030 C 0.03124 0.98974 0.10982 0.0
C1031 C 0.03518 0.02088 0.11756 0.0
C1032 C 0.06419 0.98535 0.1081 0.0
C1033 C 0.99147 0.93112 0.09459 0.0
C1034 C 0.06547 0.95529 0.11464 0.0
C1035 C 0.09728 0.95202 0.11317 0.0
C1036 C 0.12825 0.97894 0.10522 0.0
C1037 C 0.1265 0.0087 0.09855 0.0
C1038 C 0.0948 0.01193 0.10003 0.0
H1039 H 0.9653 0.91835 0.08804 0.0
H1040 H 0.01531 0.93919 0.08697 0.0
H1041 H 0.9903 0.90966 0.10228 0.0
H1042 H 0.04214 0.93475 0.12106 0.0
H1043 H 0.09803 0.92908 0.11858 0.0
H1044 H 0.89634 0.13842 0.12264 0.0
H1045 H 0.95653 0.17143 0.13553 0.0
H1046 H 0.90116 0.17828 0.1747 0.0
H1047 H 0.84129 0.14554 0.16199 0.0
H1048 H 0.96634 0.24522 0.16848 0.0
H1049 H 0.99296 0.12638 0.16761 0.0
H1050 H 0.98433 0.1402 0.14989 0.0
H1051 H 0.94785 0.12085 0.16346 0.0
C1052 C 0.89695 0.14713 0.13396 0.0
C1053 C 0.86363 0.13897 0.14123 0.0
C1054 C 0.93147 0.16581 0.14138 0.0
C1055 C 0.93358 0.17695 0.15624 0.0
C1056 C 0.90051 0.1699 0.16331 0.0
H1057 H 0.11184 0.24005 0.22164 0.0
H1058 H 0.05292 0.21045 0.20785 0.0
C1059 C 0.86612 0.15107 0.15597 0.0
C1060 C 0.96987 0.19582 0.16454 0.0
H1061 H 0.04021 0.18301 0.17782 0.0
C1062 C 0.98251 0.23161 0.17046 0.0
C1063 C 0.99095 0.17806 0.16738 0.0
C1064 C 0.97833 0.13914 0.16188 0.0
C1065 C 0.01552 0.25011 0.1789 0.0
C1066 C 0.03688 0.23258 0.18156 0.0
C1067 C 0.02408 0.19664 0.17579 0.0
C1068 C 0.07262 0.25121 0.19022 0.0
C1069 C 0.02693 0.28808 0.18518 0.0
C1070 C 0.10359 0.28408 0.18501 0.0
C1071 C 0.13738 0.301 0.19286 0.0
C1072 C 0.14124 0.28568 0.20621 0.0
C1073 C 0.11001 0.25297 0.21152 0.0
C1074 C 0.07625 0.23583 0.20357 0.0
H1075 H 0.00349 0.29388 0.18516 0.0
H1076 H 0.03737 0.29063 0.19666 0.0
H1077 H 0.04977 0.30972 0.17836 0.0
H1078 H 0.10189 0.29636 0.17468 0.0
H1079 H 0.1607 0.32597 0.18832 0.0
H1080 H 0.86103 0.11148 0.55394 0.0
H1081 H 0.83197 0.05397 0.53913 0.0
H1082 H 0.81696 0.11331 0.50313 0.0
H1083 H 0.84596 0.17056 0.51769 0.0
H1084 H 0.76105 0.01275 0.525 0.0
H1085 H 0.87478 0.06841 0.48367 0.0
H1086 H 0.87933 0.09045 0.50135 0.0
H1087 H 0.85504 0.0979 0.48645 0.0
C1088 C 0.85126 0.11225 0.54292 0.0
C1089 C 0.85615 0.146 0.53706 0.0
C1090 C 0.83465 0.07926 0.53443 0.0
C1091 C 0.82278 0.07921 0.51984 0.0
C1092 C 0.82652 0.11255 0.5142 0.0
H1093 H 0.72898 0.93081 0.44497 0.0
H1094 H 0.75271 0.98101 0.46315 0.0
C1095 C 0.843 0.14539 0.52263 0.0
C1096 C 0.80705 0.04482 0.51034 0.0
H1097 H 0.81949 0.01243 0.47722 0.0
C1098 C 0.77401 0.01256 0.51462 0.0
C1099 C 0.82387 0.04423 0.49677 0.0
C1100 C 0.86041 0.07694 0.49182 0.0
C1101 C 0.75669 0.98056 0.50548 0.0
C1102 C 0.77307 0.98037 0.49173 0.0
C1103 C 0.80657 0.01237 0.48766 0.0
C1104 C 0.75562 0.94808 0.4811 0.0
C1105 C 0.72025 0.94774 0.51039 0.0
C1106 C 0.7487 0.9122 0.48501 0.0
C1107 C 0.7348 0.88306 0.47455 0.0
C1108 C 0.72768 0.8891 0.45987 0.0
C1109 C 0.73391 0.92483 0.45612 0.0
C1110 C 0.7477 0.95379 0.46655 0.0
H1111 H 0.70678 0.95557 0.51922 0.0
H1112 H 0.70061 0.93569 0.50097 0.0
H1113 H 0.72545 0.9258 0.51487 0.0
H1114 H 0.75518 0.90698 0.49603 0.0
H1115 H 0.73089 0.85617 0.47783 0.0
H1116 H 0.87419 0.70792 0.83279 0.0
H1117 H 0.84191 0.736 0.84523 0.0
H1118 H 0.824 0.77394 0.80335 0.0
H1119 H 0.85667 0.74598 0.79071 0.0
H1120 H 0.86093 0.81337 0.84482 0.0
H1121 H 0.71868 0.71997 0.8229 0.0
H1122 H 0.75479 0.70766 0.82242 0.0
H1123 H 0.75543 0.74073 0.80943 0.0
C1124 C 0.86318 0.72192 0.82611 0.0
C1125 C 0.86801 0.72429 0.81063 0.0
C1126 C 0.84475 0.73816 0.83332 0.0
C1127 C 0.83009 0.75695 0.8253 0.0
C1128 C 0.83453 0.75921 0.80983 0.0
H1129 H 0.70368 0.86607 0.8498 0.0
H1130 H 0.73449 0.83656 0.83741 0.0
C1131 C 0.85332 0.74319 0.80259 0.0
C1132 C 0.81104 0.77474 0.83326 0.0
H1133 H 0.72683 0.77033 0.83775 0.0
C1134 C 0.83158 0.80391 0.84329 0.0
C1135 C 0.77275 0.76264 0.8313 0.0
C1136 C 0.74888 0.73086 0.82103 0.0
C1137 C 0.81524 0.8217 0.85111 0.0
C1138 C 0.77672 0.80928 0.84932 0.0
C1139 C 0.75623 0.78001 0.83928 0.0
C1140 C 0.75737 0.82693 0.85731 0.0
C1141 C 0.83994 0.85451 0.86083 0.0
C1142 C 0.759 0.83112 0.87281 0.0
C1143 C 0.7415 0.84851 0.88001 0.0
C1144 C 0.72126 0.86162 0.87194 0.0
C1145 C 0.71883 0.8564 0.85649 0.0
C1146 C 0.73656 0.8394 0.84932 0.0
H1147 H 0.86968 0.86745 0.85754 0.0
H1148 H 0.83169 0.87621 0.86042 0.0
H1149 H 0.83761 0.84485 0.87243 0.0
H1150 H 0.77378 0.82089 0.87942 0.0
H1151 H 0.74399 0.85183 0.8919 0.0
H1152 H 0.10796 0.86143 0.12116 0.0
H1153 H 0.04874 0.83299 0.13473 0.0
H1154 H 0.10296 0.81884 0.17279 0.0
H1155 H 0.16213 0.84807 0.15952 0.0
H1156 H 0.00481 0.76563 0.1476 0.0
H1157 H 0.0562 0.87336 0.19142 0.0
H1158 H 0.08234 0.87868 0.17478 0.0
H1159 H 0.0834 0.8508 0.18984 0.0
C1160 C 0.1073 0.85215 0.13239 0.0
C1161 C 0.14019 0.85755 0.13922 0.0
C1162 C 0.0733 0.83585 0.14018 0.0
C1163 C 0.07123 0.82449 0.155 0.0
C1164 C 0.10371 0.82834 0.16158 0.0
H1165 H 0.88679 0.73149 0.22049 0.0
H1166 H 0.9454 0.74827 0.2074 0.0
C1167 C 0.13766 0.84485 0.15387 0.0
C1168 C 0.03537 0.80877 0.1636 0.0
H1169 H 0.99655 0.82035 0.19523 0.0
C1170 C 1.00311 0.77772 0.15799 0.0
C1171 C 0.03272 0.82424 0.17726 0.0
C1172 C 0.06539 0.85881 0.18362 0.0
C1173 C 0.96878 0.76175 0.16561 0.0
C1174 C 0.96615 0.77731 0.17921 0.0
C1175 C 0.99844 0.80804 0.18492 0.0
C1176 C 0.92966 0.76416 0.18702 0.0
C1177 C 0.93555 0.72805 0.15906 0.0
C1178 C 0.90111 0.76726 0.18002 0.0
C1179 C 0.86793 0.75789 0.18746 0.0
C1180 C 0.86201 0.74497 0.20218 0.0
C1181 C 0.89013 0.74084 0.20913 0.0
C1182 C 0.92377 0.7507 0.20167 0.0
H1183 H 0.94414 0.71306 0.15124 0.0
H1184 H 0.91788 0.70835 0.16783 0.0
H1185 H 0.9184 0.7372 0.15286 0.0
H1186 H 0.90494 0.77812 0.16887 0.0
H1187 H 0.84708 0.7616 0.18172 0.0
H1188 H 0.18107 0.84364 0.52794 0.0
H1189 H 0.21537 0.90228 0.51428 0.0
H1190 H 0.15433 0.94585 0.53747 0.0
H1191 H 0.1219 0.88817 0.55176 0.0
H1192 H 0.19755 0.93442 0.49533 0.0
H1193 H 0.25248 0.03434 0.54159 0.0
H1194 H 0.23001 0.98475 0.54454 0.0
H1195 H 0.20272 0.00743 0.54246 0.0
C1196 C 0.17552 0.86604 0.53034 0.0
C1197 C 0.14912 0.86128 0.54118 0.0
C1198 C 0.19506 0.89966 0.52243 0.0
C1199 C 0.18835 0.92943 0.52489 0.0
C1200 C 0.16151 0.92438 0.53562 0.0
H1201 H 0.24761 0.10494 0.45776 0.0
H1202 H 0.21779 0.04745 0.47214 0.0
C1203 C 0.14266 0.89109 0.5438 0.0
C1204 C 0.20814 0.96471 0.51578 0.0
H1205 H 0.25415 0.06015 0.5178 0.0
C1206 C 0.2102 0.96186 0.50033 0.0
C1207 C 0.22548 1.00099 0.52208 0.0
C1208 C 0.22794 0.00708 0.53858 0.0
C1209 C 0.22843 0.99362 0.49114 0.0
C1210 C 0.24384 0.02987 0.49736 0.0
C1211 C 0.24214 0.03272 0.51282 0.0
C1212 C 0.26229 0.06514 0.4882 0.0
C1213 C 0.23191 0.98761 0.4749 0.0
C1214 C 0.29689 0.09555 0.49247 0.0
C1215 C 0.31339 0.1292 0.48447 0.0
C1216 C 0.29618 0.13343 0.47178 0.0
C1217 C 0.26199 0.10282 0.46732 0.0
C1218 C 0.24499 0.0695 0.47554 0.0
H1219 H 0.23114 0.96074 0.47295 0.0
H1220 H 0.20804 0.98644 0.46888 0.0
H1221 H 0.2582 0.0104 0.47018 0.0
H1222 H 0.31118 0.09345 0.50212 0.0
H1223 H 0.33966 0.15207 0.48832 0.0
H1224 H 0.33756 0.18605 0.85878 0.0
H1225 H 0.31039 0.21811 0.84539 0.0
H1226 H 0.20876 0.15663 0.87035 0.0
H1227 H 0.23658 0.12611 0.88425 0.0
H1228 H 0.25677 0.19612 0.82724 0.0
H1229 H 0.21789 0.2553 0.87401 0.0
H1230 H 0.24631 0.23407 0.87647 0.0
H1231 H 0.19625 0.20567 0.87564 0.0
C1232 C 0.30966 0.17988 0.86163 0.0
C1233 C 0.28958 0.15378 0.87281 0.0
C1234 C 0.29397 0.19815 0.85387 0.0
C1235 C 0.25748 0.19061 0.85689 0.0
C1236 C 0.23732 0.16429 0.86802 0.0
H1237 H 0.12769 0.23964 0.79248 0.0
H1238 H 0.15822 0.21185 0.80643 0.0
C1239 C 0.25329 0.14656 0.87598 0.0
C1240 C 0.24022 0.20898 0.84798 0.0
H1241 H 0.19052 0.25458 0.85071 0.0
C1242 C 0.24256 0.20914 0.83244 0.0
C1243 C 0.22198 0.22671 0.85455 0.0
C1244 C 0.2208 0.23082 0.87108 0.0
C1245 C 0.2271 0.22585 0.82342 0.0
C1246 C 0.20717 0.24184 0.82997 0.0
C1247 C 0.20523 0.24208 0.84551 0.0
C1248 C 0.18874 0.25903 0.82105 0.0
C1249 C 0.23347 0.22708 0.80696 0.0
C1250 C 0.19429 0.29455 0.82469 0.0
C1251 C 0.17596 0.31012 0.81692 0.0
C1252 C 0.15178 0.29093 0.8051 0.0
C1253 C 0.14657 0.25564 0.8013 0.0
C1254 C 0.16434 0.23973 0.80928 0.0
H1255 H 0.25898 0.22576 0.80433 0.0
H1256 H 0.20956 0.20256 0.80174 0.0
H1257 H 0.23624 0.25283 0.80196 0.0
H1258 H 0.21276 0.3103 0.83367 0.0
H1259 H 0.18062 0.33726 0.82024 0.0
H1260 H 0.35387 0.28481 0.20591 0.0
H1261 H 0.37865 0.25381 0.19094 0.0
H1262 H 0.32491 0.26699 0.15239 0.0
H1263 H 0.29841 0.29683 0.16768 0.0
H1264 H 0.29911 0.19852 0.15752 0.0
H1265 H 0.45086 0.26034 0.16114 0.0
H1266 H 0.43343 0.25736 0.17947 0.0
H1267 H 0.42818 0.28651 0.16595 0.0
C1268 C 0.34866 0.28265 0.19412 0.0
C1269 C 0.32387 0.29277 0.18795 0.0
C1270 C 0.36325 0.26517 0.18549 0.0
C1271 C 0.35387 0.25811 0.17048 0.0
C1272 C 0.33253 0.27213 0.16396 0.0
H1273 H 0.35508 0.07416 0.12471 0.0
H1274 H 0.37884 0.13888 0.13189 0.0
C1275 C 0.31727 0.289 0.17268 0.0
C1276 C 0.35765 0.22832 0.16303 0.0
H1277 H 0.41464 0.19085 0.16067 0.0
C1278 C 0.32478 0.19754 0.15778 0.0
C1279 C 0.39099 0.22667 0.16335 0.0
C1280 C 0.42785 0.25978 0.16765 0.0
C1281 C 0.32362 0.16434 0.15396 0.0
C1282 C 0.35598 0.16155 0.15572 0.0
C1283 C 0.38965 0.19296 0.15982 0.0
C1284 C 0.35392 0.12536 0.15361 0.0
C1285 C 0.28722 0.13181 0.14873 0.0
C1286 C 0.33407 0.09673 0.16387 0.0
C1287 C 0.32026 0.05961 0.15981 0.0
C1288 C 0.32632 0.05086 0.14546 0.0
C1289 C 0.35011 0.07995 0.13589 0.0
C1290 C 0.36378 0.11704 0.13995 0.0
H1291 H 0.26721 0.14073 0.14516 0.0
H1292 H 0.29188 0.11726 0.13938 0.0
H1293 H 0.27428 0.11149 0.1579 0.0
H1294 H 0.32625 0.10289 0.17448 0.0
H1295 H 0.30239 0.03776 0.16744 0.0
H1296 H 0.07557 0.35171 0.54452 0.0
H1297 H 0.13466 0.3722 0.53222 0.0
H1298 H 0.07696 0.3241 0.49132 0.0
H1299 H 0.01722 0.30238 0.50382 0.0
H1300 H 0.11173 0.29035 0.50108 0.0
H1301 H 0.21126 0.4416 0.50342 0.0
H1302 H 0.19044 0.4245 0.52116 0.0
H1303 H 0.16171 0.42248 0.50583 0.0
C1304 C 0.07546 0.34708 0.53273 0.0
C1305 C 0.04186 0.325 0.52514 0.0
C1306 C 0.10944 0.35909 0.52567 0.0
C1307 C 0.1103 0.34967 0.51085 0.0
C1308 C 0.07687 0.33163 0.50278 0.0
H1309 H 0.28951 0.34525 0.46534 0.0
H1310 H 0.25045 0.36857 0.47508 0.0
C1311 C 0.04279 0.31912 0.50991 0.0
C1312 C 0.14371 0.34953 0.50524 0.0
H1313 H 0.23858 0.40124 0.50286 0.0
C1314 C 0.13933 0.31484 0.50119 0.0
C1315 C 0.17979 0.38134 0.50553 0.0
C1316 C 0.186 0.41961 0.50908 0.0
C1317 C 0.16997 0.31077 0.49788 0.0
C1318 C 0.20614 0.34206 0.49902 0.0
C1319 C 0.21074 0.37716 0.50246 0.0
C1320 C 0.23886 0.33833 0.49566 0.0
C1321 C 0.16333 0.27284 0.49326 0.0
C1322 C 0.24707 0.3155 0.50449 0.0
C1323 C 0.2695 0.30195 0.49897 0.0
C1324 C 0.28403 0.3113 0.48458 0.0
C1325 C 0.27909 0.33765 0.47652 0.0
C1326 C 0.25668 0.35108 0.48204 0.0
H1327 H 0.1339 0.25384 0.49 0.0
H1328 H 0.1816 0.27528 0.48384 0.0
H1329 H 0.16993 0.25985 0.50264 0.0
H1330 H 0.23358 0.30562 0.51511 0.0
H1331 H 0.2733 0.28219 0.50551 0.0
H1332 H 0.93581 0.28835 0.80443 0.0
H1333 H 0.87993 0.25766 0.81925 0.0
H1334 H 0.94625 0.27327 0.85824 0.0
H1335 H 1.00284 0.30297 0.84311 0.0
H1336 H 0.90477 0.20451 0.85342 0.0
H1337 H 0.81255 0.2634 0.84837 0.0
H1338 H 0.8278 0.26057 0.83017 0.0
H1339 H 0.86146 0.29032 0.84379 0.0
C1340 C 0.93875 0.28687 0.81627 0.0
C1341 C 0.97361 0.29758 0.82262 0.0
C1342 C 0.90657 0.26955 0.82482 0.0
C1343 C 0.9087 0.26317 0.83992 0.0
C1344 C 0.94393 0.27788 0.84659 0.0
H1345 H 0.72166 0.07742 0.8841 0.0
H1346 H 0.76262 0.1422 0.8771 0.0
C1347 C 0.9762 0.29464 0.83797 0.0
C1348 C 0.87523 0.2332 0.84732 0.0
H1349 H 0.7805 0.19377 0.84864 0.0
C1350 C 0.87786 0.20287 0.85281 0.0
C1351 C 0.83989 0.23069 0.84658 0.0
C1352 C 0.83547 0.26329 0.84204 0.0
C1353 C 0.84607 0.16924 0.85638 0.0
C1354 C 0.81069 0.16554 0.85411 0.0
C1355 C 0.80782 0.19654 0.84985 0.0
C1356 C 0.77698 0.12893 0.85591 0.0
C1357 C 0.85053 0.13722 0.86188 0.0
C1358 C 0.76993 0.10038 0.84583 0.0
C1359 C 0.74657 0.06319 0.84978 0.0
C1360 C 0.72999 0.05429 0.86383 0.0
C1361 C 0.73376 0.08327 0.87314 0.0
C1362 C 0.7572 0.12041 0.86919 0.0
H1363 H 0.87921 0.14686 0.86597 0.0
H1364 H 0.83051 0.122 0.87093 0.0
H1365 H 0.84478 0.1173 0.85269 0.0
H1366 H 0.78514 0.10672 0.83551 0.0
H1367 H 0.74378 0.04145 0.84234 0.0
H1368 H 0.71871 0.73433 0.17031 0.0
H1369 H 0.68993 0.76325 0.15637 0.0
H1370 H 0.58332 0.68741 0.1759 0.0
H1371 H 0.61287 0.65959 0.19063 0.0
H1372 H 0.63566 0.75503 0.13872 0.0
H1373 H 0.60489 0.78166 0.19607 0.0
H1374 H 0.63029 0.75765 0.19275 0.0
H1375 H 0.58082 0.73442 0.18957 0.0
C1376 C 0.68881 0.72258 0.17113 0.0
C1377 C 0.66816 0.69552 0.18181 0.0
C1378 C 0.67228 0.73925 0.16317 0.0
C1379 C 0.63478 0.72864 0.16563 0.0
C1380 C 0.61264 0.69704 0.17431 0.0
H1381 H 0.63642 0.92447 0.12915 0.0
H1382 H 0.60363 0.85856 0.13514 0.0
C1383 C 0.62941 0.68087 0.18258 0.0
C1384 C 0.62247 0.75553 0.16164 0.0
H1385 H 0.61001 0.82301 0.17785 0.0
C1386 C 0.62903 0.76942 0.14716 0.0
C1387 C 0.61366 0.77414 0.17274 0.0
C1388 C 0.60715 0.76147 0.18867 0.0
C1389 C 0.63195 0.80388 0.14384 0.0
C1390 C 0.62613 0.82393 0.15524 0.0
C1391 C 0.61477 0.80765 0.16923 0.0
C1392 C 0.63878 0.86419 0.15374 0.0
C1393 C 0.64509 0.82004 0.12859 0.0
C1394 C 0.667 0.88974 0.16315 0.0
C1395 C 0.68488 0.92788 0.16019 0.0
C1396 C 0.67548 0.94119 0.14757 0.0
C1397 C 0.64474 0.9157 0.139 0.0
C1398 C 0.62621 0.87764 0.14222 0.0
H1399 H 0.65422 0.80348 0.12195 0.0
H1400 H 0.62198 0.82043 0.12257 0.0
H1401 H 0.66873 0.84909 0.12932 0.0
H1402 H 0.67682 0.88006 0.17229 0.0
H1403 H 0.70746 0.94663 0.16735 0.0
H1404 H 0.7716 0.73077 0.49715 0.0
H1405 H 0.79021 0.68868 0.50815 0.0
H1406 H 0.7367 0.61042 0.4725 0.0
H1407 H 0.7194 0.65351 0.46116 0.0
H1408 H 0.76203 0.61469 0.51702 0.0
H1409 H 0.84525 0.64511 0.46504 0.0
H1410 H 0.81977 0.66889 0.46885 0.0
H1411 H 0.79527 0.62022 0.46408 0.0
C1412 C 0.76286 0.70407 0.49195 0.0
C1413 C 0.74488 0.69547 0.47825 0.0
C1414 C 0.7733 0.67993 0.49823 0.0
C1415 C 0.76559 0.64682 0.49092 0.0
C1416 C 0.74366 0.63619 0.47811 0.0
H1417 H 0.96239 0.64085 0.52142 0.0
H1418 H 0.89975 0.60468 0.51035 0.0
C1419 C 0.73376 0.66068 0.47169 0.0
C1420 C 0.78686 0.62848 0.49535 0.0
H1421 H 0.87095 0.63741 0.48661 0.0
C1422 C 0.78497 0.61788 0.5102 0.0
C1423 C 0.81641 0.63179 0.48635 0.0
C1424 C 0.81957 0.64212 0.4702 0.0
C1425 C 0.81498 0.61689 0.51683 0.0
C1426 C 0.84719 0.62675 0.50837 0.0
C1427 C 0.8462 0.63043 0.49304 0.0
C1428 C 0.88408 0.64605 0.51542 0.0
C1429 C 0.8142 0.61038 0.53324 0.0
C1430 C 0.896 0.68151 0.52135 0.0
C1431 C 0.93149 0.7023 0.52724 0.0
C1432 C 0.95585 0.688 0.52737 0.0
C1433 C 0.94409 0.65249 0.52132 0.0
C1434 C 0.90842 0.63176 0.51517 0.0
H1435 H 0.78531 0.59135 0.53712 0.0
H1436 H 0.8321 0.59844 0.53622 0.0
H1437 H 0.82482 0.63738 0.53909 0.0
H1438 H 0.87775 0.69325 0.52134 0.0
H1439 H 0.93944 0.72915 0.53213 0.0
H1440 H 0.2275 0.96395 0.84685 0.0
H1441 H 0.20495 0.90525 0.83424 0.0
H1442 H 0.31142 0.91194 0.83984 0.0
H1443 H 0.33547 0.97262 0.85207 0.0
H1444 H 0.23326 0.87876 0.80923 0.0
H1445 H 0.2306 0.81813 0.8645 0.0
H1446 H 0.23554 0.8639 0.86342 0.0
H1447 H 0.27266 0.85689 0.85716 0.0
C1448 C 0.24701 0.95425 0.84488 0.0
C1449 C 0.28336 0.97316 0.85065 0.0
C1450 C 0.23383 0.92029 0.83774 0.0
C1451 C 0.25642 0.90419 0.83631 0.0
C1452 C 0.29356 0.92393 0.841 0.0
H1453 H 0.07696 0.70348 0.80009 0.0
H1454 H 0.1425 0.73606 0.80643 0.0
C1455 C 0.30708 0.95845 0.84803 0.0
C1456 C 0.23833 0.86491 0.83162 0.0
H1457 H 0.18255 0.78066 0.84785 0.0
C1458 C 0.2232 0.8566 0.81738 0.0
C1459 C 0.22574 0.83636 0.84236 0.0
C1460 C 0.24191 0.84395 0.85774 0.0
C1461 C 0.19172 0.8221 0.81425 0.0
C1462 C 0.1759 0.79507 0.82566 0.0
C1463 C 0.19458 0.80155 0.83921 0.0
C1464 C 0.13636 0.76541 0.82496 0.0
C1465 C 0.17307 0.81695 0.7994 0.0
C1466 C 0.11068 0.76804 0.8343 0.0
C1467 C 0.0727 0.74835 0.83106 0.0
C1468 C 0.05988 0.72627 0.81826 0.0
C1469 C 0.08535 0.72021 0.81003 0.0
C1470 C 0.1232 0.73924 0.81351 0.0
H1471 H 0.18739 0.84229 0.79237 0.0
H1472 H 0.17318 0.79367 0.79339 0.0
H1473 H 0.14368 0.80997 0.80087 0.0
H1474 H 0.12024 0.78773 0.84338 0.0
H1475 H 0.05386 0.75263 0.83799 0.0
loop_
_geom_bond_atom_site_label_1
_geom_bond_atom_site_label_2
_geom_bond_distance
_geom_bond_site_symmetry_2
_ccdc_geom_bond_type
Co0 N4 2.148 . S
Co0 N10 2.128 . S
Co0 N20 2.194 . S
Co0 O25 2.351 . S
Co0 O26 2.155 . S
Co0 O27 2.096 . S
C1 N4 1.301 . S
C1 N5 1.328 . S
C1 H6 0.930 . S
C2 C3 1.333 . S
C2 N4 1.317 . S
C2 H7 0.930 . S
C3 C2 1.333 . S
C3 N5 1.350 . S
C3 H29 0.931 . S
N4 Co0 2.148 . S
N4 C1 1.301 . S
N4 C2 1.317 . S
N5 C1 1.328 . S
N5 C3 1.350 . S
H6 C1 0.930 . S
H7 C2 0.930 . S
C8 O9 1.224 . S
C8 O27 1.247 . S
O9 C8 1.224 . S
N10 Co0 2.128 . S
N10 C11 1.355 . S
N10 C13 1.311 . S
C11 N10 1.355 . S
C11 C12 1.363 . S
C11 H23 0.929 . S
C12 C11 1.363 . S
C12 N14 1.375 . S
C12 H30 0.931 . S
C13 N10 1.311 . S
C13 N14 1.347 . S
C13 H24 0.929 . S
N14 C12 1.375 . S
N14 C13 1.347 . S
C15 C18 1.365 . S
C15 N20 1.328 . S
C15 H21 0.929 . S
C16 C17 1.362 . S
C16 C19 1.378 . S
C16 H31 0.929 . S
C17 C16 1.362 . S
C17 C18 1.366 . S
C18 C15 1.365 . S
C18 C17 1.366 . S
C18 H32 0.930 . S
C19 C16 1.378 . S
C19 N20 1.315 . S
C19 H22 0.930 . S
N20 Co0 2.194 . S
N20 C15 1.328 . S
N20 C19 1.315 . S
H21 C15 0.929 . S
H22 C19 0.930 . S
H23 C11 0.929 . S
H24 C13 0.929 . S
O25 Co0 2.351 . S
O25 C28 1.244 . S
O26 Co0 2.155 . S
O26 C28 1.240 . S
O27 Co0 2.096 . S
O27 C8 1.247 . S
C28 O25 1.244 . S
C28 O26 1.240 . S
H29 C3 0.931 . S
H30 C12 0.931 . S
H31 C16 0.929 . S
H32 C18 0.930 . S
Co33 N37 2.148 . S
Co33 N43 2.128 . S
Co33 N53 2.194 . S
Co33 O58 2.351 . S
Co33 O59 2.155 . S
Co33 O60 2.096 . S
C34 N37 1.301 . S
C34 N38 1.328 . S
C34 H39 0.930 . S
C35 C36 1.333 . S
C35 N37 1.317 . S
C35 H40 0.930 . S
C36 C35 1.333 . S
C36 N38 1.350 . S
C36 H62 0.931 . S
N37 Co33 2.148 . S
N37 C34 1.301 . S
N37 C35 1.317 . S
N38 C34 1.328 . S
N38 C36 1.350 . S
H39 C34 0.930 . S
H40 C35 0.930 . S
C41 O42 1.224 . S
C41 O60 1.247 . S
O42 C41 1.224 . S
N43 Co33 2.128 . S
N43 C44 1.355 . S
N43 C46 1.311 . S
C44 N43 1.355 . S
C44 C45 1.363 . S
C44 H56 0.929 1_655 S
C45 C44 1.363 . S
C45 N47 1.375 . S
C45 H63 0.931 1_655 S
C46 N43 1.311 . S
C46 N47 1.347 . S
C46 H57 0.929 . S
N47 C45 1.375 . S
N47 C46 1.347 . S
C48 C51 1.365 . S
C48 N53 1.328 1_455 S
C48 H54 0.929 . S
C49 C50 1.362 . S
C49 C52 1.378 1_455 S
C49 H64 0.929 . S
C50 C49 1.362 . S
C50 C51 1.366 . S
C51 C48 1.365 . S
C51 C50 1.366 . S
C51 H65 0.930 . S
C52 C49 1.378 1_655 S
C52 N53 1.315 . S
C52 H55 0.930 . S
N53 Co33 2.194 . S
N53 C48 1.328 1_655 S
N53 C52 1.315 . S
H54 C48 0.929 . S
H55 C52 0.930 . S
H56 C44 0.929 1_455 S
H57 C46 0.929 . S
O58 Co33 2.351 . S
O58 C61 1.244 . S
O59 Co33 2.155 . S
O59 C61 1.240 . S
O60 Co33 2.096 . S
O60 C41 1.247 . S
C61 O58 1.244 . S
C61 O59 1.240 . S
H62 C36 0.931 . S
H63 C45 0.931 1_455 S
H64 C49 0.929 . S
H65 C51 0.930 . S
Co66 N70 2.148 . S
Co66 N76 2.128 . S
Co66 N86 2.194 . S
Co66 O91 2.351 . S
Co66 O92 2.155 . S
Co66 O93 2.096 . S
C67 N70 1.301 . S
C67 N71 1.328 . S
C67 H72 0.930 . S
C68 C69 1.333 . S
C68 N70 1.317 . S
C68 H73 0.930 . S
C69 C68 1.333 . S
C69 N71 1.350 . S
C69 H95 0.931 . S
N70 Co66 2.148 . S
N70 C67 1.301 . S
N70 C68 1.317 . S
N71 C67 1.328 . S
N71 C69 1.350 . S
H72 C67 0.930 . S
H73 C68 0.930 . S
C74 O75 1.224 . S
C74 O93 1.247 . S
O75 C74 1.224 . S
N76 Co66 2.128 . S
N76 C77 1.355 . S
N76 C79 1.311 . S
C77 N76 1.355 . S
C77 C78 1.363 . S
C77 H89 0.929 1_565 S
C78 C77 1.363 . S
C78 N80 1.375 . S
C78 H96 0.931 1_565 S
C79 N76 1.311 . S
C79 N80 1.347 . S
C79 H90 0.929 . S
N80 C78 1.375 . S
N80 C79 1.347 . S
C81 C84 1.365 . S
C81 N86 1.328 1_545 S
C81 H87 0.929 . S
C82 C83 1.362 . S
C82 C85 1.378 1_545 S
C82 H97 0.929 . S
C83 C82 1.362 . S
C83 C84 1.366 . S
C84 C81 1.365 . S
C84 C83 1.366 . S
C84 H98 0.930 . S
C85 C82 1.378 1_565 S
C85 N86 1.315 . S
C85 H88 0.930 . S
N86 Co66 2.194 . S
N86 C81 1.328 1_565 S
N86 C85 1.315 . S
H87 C81 0.929 . S
H88 C85 0.930 . S
H89 C77 0.929 1_545 S
H90 C79 0.929 . S
O91 Co66 2.351 . S
O91 C94 1.244 . S
O92 Co66 2.155 . S
O92 C94 1.240 . S
O93 Co66 2.096 . S
O93 C74 1.247 . S
C94 O91 1.244 . S
C94 O92 1.240 . S
H95 C69 0.931 . S
H96 C78 0.931 1_545 S
H97 C82 0.929 . S
H98 C84 0.930 . S
Co99 N103 2.148 . S
Co99 N109 2.128 . S
Co99 N119 2.194 . S
Co99 O124 2.351 . S
Co99 O125 2.155 . S
Co99 O126 2.096 . S
C100 N103 1.301 . S
C100 N104 1.328 . S
C100 H105 0.930 . S
C101 C102 1.333 . S
C101 N103 1.317 . S
C101 H106 0.930 . S
C102 C101 1.333 . S
C102 N104 1.350 . S
C102 H128 0.931 . S
N103 Co99 2.148 . S
N103 C100 1.301 . S
N103 C101 1.317 . S
N104 C100 1.328 . S
N104 C102 1.350 . S
H105 C100 0.930 . S
H106 C101 0.930 . S
C107 O108 1.224 . S
C107 O126 1.247 . S
O108 C107 1.224 . S
N109 Co99 2.128 . S
N109 C110 1.355 . S
N109 C112 1.311 . S
C110 N109 1.355 . S
C110 C111 1.363 . S
C110 H122 0.929 . S
C111 C110 1.363 . S
C111 N113 1.375 . S
C111 H129 0.931 . S
C112 N109 1.311 . S
C112 N113 1.347 . S
C112 H123 0.929 . S
N113 C111 1.375 . S
N113 C112 1.347 . S
C114 C117 1.365 . S
C114 N119 1.328 . S
C114 H120 0.929 . S
C115 C116 1.362 . S
C115 C118 1.378 . S
C115 H130 0.929 . S
C116 C115 1.362 . S
C116 C117 1.366 . S
C117 C114 1.365 . S
C117 C116 1.366 . S
C117 H131 0.930 . S
C118 C115 1.378 . S
C118 N119 1.315 . S
C118 H121 0.930 . S
N119 Co99 2.194 . S
N119 C114 1.328 . S
N119 C118 1.315 . S
H120 C114 0.929 . S
H121 C118 0.930 . S
H122 C110 0.929 . S
H123 C112 0.929 . S
O124 Co99 2.351 . S
O124 C127 1.244 . S
O125 Co99 2.155 . S
O125 C127 1.240 . S
O126 Co99 2.096 . S
O126 C107 1.247 . S
C127 O124 1.244 . S
C127 O125 1.240 . S
H128 C102 0.931 . S
H129 C111 0.931 . S
H130 C115 0.929 . S
H131 C117 0.930 . S
Co132 N136 2.148 . S
Co132 N142 2.128 . S
Co132 N152 2.194 . S
Co132 O157 2.351 . S
Co132 O158 2.155 . S
Co132 O159 2.096 . S
C133 N136 1.301 . S
C133 N137 1.328 . S
C133 H138 0.930 . S
C134 C135 1.333 . S
C134 N136 1.317 . S
C134 H139 0.930 . S
C135 C134 1.333 . S
C135 N137 1.350 . S
C135 H161 0.931 . S
N136 Co132 2.148 . S
N136 C133 1.301 . S
N136 C134 1.317 . S
N137 C133 1.328 . S
N137 C135 1.350 . S
H138 C133 0.930 . S
H139 C134 0.930 . S
C140 O141 1.224 . S
C140 O159 1.247 . S
O141 C140 1.224 . S
N142 Co132 2.128 . S
N142 C143 1.355 . S
N142 C145 1.311 . S
C143 N142 1.355 . S
C143 C144 1.363 . S
C143 H155 0.929 1_455 S
C144 C143 1.363 . S
C144 N146 1.375 . S
C144 H162 0.931 1_455 S
C145 N142 1.311 . S
C145 N146 1.347 . S
C145 H156 0.929 . S
N146 C144 1.375 . S
N146 C145 1.347 . S
C147 C150 1.365 . S
C147 N152 1.328 1_655 S
C147 H153 0.929 . S
C148 C149 1.362 . S
C148 C151 1.378 1_655 S
C148 H163 0.929 . S
C149 C148 1.362 . S
C149 C150 1.366 . S
C150 C147 1.365 . S
C150 C149 1.366 . S
C150 H164 0.930 . S
C151 C148 1.378 1_455 S
C151 N152 1.315 . S
C151 H154 0.930 . S
N152 Co132 2.194 . S
N152 C147 1.328 1_455 S
N152 C151 1.315 . S
H153 C147 0.929 . S
H154 C151 0.930 . S
H155 C143 0.929 1_655 S
H156 C145 0.929 . S
O157 Co132 2.351 . S
O157 C160 1.244 . S
O158 Co132 2.155 . S
O158 C160 1.240 . S
O159 Co132 2.096 . S
O159 C140 1.247 . S
C160 O157 1.244 . S
C160 O158 1.240 . S
H161 C135 0.931 . S
H162 C144 0.931 1_655 S
H163 C148 0.929 . S
H164 C150 0.930 . S
Co165 N169 2.148 . S
Co165 N175 2.128 . S
Co165 N185 2.194 . S
Co165 O190 2.351 . S
Co165 O191 2.155 . S
Co165 O192 2.096 . S
C166 N169 1.301 . S
C166 N170 1.328 . S
C166 H171 0.930 . S
C167 C168 1.333 . S
C167 N169 1.317 . S
C167 H172 0.930 . S
C168 C167 1.333 . S
C168 N170 1.350 . S
C168 H194 0.931 . S
N169 Co165 2.148 . S
N169 C166 1.301 . S
N169 C167 1.317 . S
N170 C166 1.328 . S
N170 C168 1.350 . S
H171 C166 0.930 . S
H172 C167 0.930 . S
C173 O174 1.224 . S
C173 O192 1.247 . S
O174 C173 1.224 . S
N175 Co165 2.128 . S
N175 C176 1.355 . S
N175 C178 1.311 . S
C176 N175 1.355 . S
C176 C177 1.363 . S
C176 H188 0.929 1_545 S
C177 C176 1.363 . S
C177 N179 1.375 . S
C177 H195 0.931 1_545 S
C178 N175 1.311 . S
C178 N179 1.347 . S
C178 H189 0.929 . S
N179 C177 1.375 . S
N179 C178 1.347 . S
C180 C183 1.365 . S
C180 N185 1.328 1_565 S
C180 H186 0.929 . S
C181 C182 1.362 . S
C181 C184 1.378 1_565 S
C181 H196 0.929 . S
C182 C181 1.362 . S
C182 C183 1.366 . S
C183 C180 1.365 . S
C183 C182 1.366 . S
C183 H197 0.930 . S
C184 C181 1.378 1_545 S
C184 N185 1.315 . S
C184 H187 0.930 . S
N185 Co165 2.194 . S
N185 C180 1.328 1_545 S
N185 C184 1.315 . S
H186 C180 0.929 . S
H187 C184 0.930 . S
H188 C176 0.929 1_565 S
H189 C178 0.929 . S
O190 Co165 2.351 . S
O190 C193 1.244 . S
O191 Co165 2.155 . S
O191 C193 1.240 . S
O192 Co165 2.096 . S
O192 C173 1.247 . S
C193 O190 1.244 . S
C193 O191 1.240 . S
H194 C168 0.931 . S
H195 C177 0.931 1_565 S
H196 C181 0.929 . S
H197 C183 0.930 . S
Co198 N202 2.148 . S
Co198 N208 2.128 . S
Co198 N218 2.194 . S
Co198 O223 2.351 . S
Co198 O224 2.155 . S
Co198 O225 2.096 . S
C199 N202 1.301 . S
C199 N203 1.328 . S
C199 H204 0.930 . S
C200 C201 1.333 . S
C200 N202 1.317 . S
C200 H205 0.930 . S
C201 C200 1.333 . S
C201 N203 1.350 . S
C201 H227 0.931 . S
N202 Co198 2.148 . S
N202 C199 1.301 . S
N202 C200 1.317 . S
N203 C199 1.328 . S
N203 C201 1.350 . S
H204 C199 0.930 . S
H205 C200 0.930 . S
C206 O207 1.224 . S
C206 O225 1.247 . S
O207 C206 1.224 . S
N208 Co198 2.128 . S
N208 C209 1.355 . S
N208 C211 1.311 . S
C209 N208 1.355 . S
C209 C210 1.363 . S
C209 H221 0.929 . S
C210 C209 1.363 . S
C210 N212 1.375 . S
C210 H228 0.931 . S
C211 N208 1.311 . S
C211 N212 1.347 . S
C211 H222 0.929 . S
N212 C210 1.375 . S
N212 C211 1.347 . S
C213 C216 1.365 . S
C213 N218 1.328 . S
C213 H219 0.929 . S
C214 C215 1.362 . S
C214 C217 1.378 . S
C214 H229 0.929 . S
C215 C214 1.362 . S
C215 C216 1.366 . S
C216 C213 1.365 . S
C216 C215 1.366 . S
C216 H230 0.930 . S
C217 C214 1.378 . S
C217 N218 1.315 . S
C217 H220 0.930 . S
N218 Co198 2.194 . S
N218 C213 1.328 . S
N218 C217 1.315 . S
H219 C213 0.929 . S
H220 C217 0.930 . S
H221 C209 0.929 . S
H222 C211 0.929 . S
O223 Co198 2.351 . S
O223 C226 1.244 . S
O224 Co198 2.155 . S
O224 C226 1.240 . S
O225 Co198 2.096 . S
O225 C206 1.247 . S
C226 O223 1.244 . S
C226 O224 1.240 . S
H227 C201 0.931 . S
H228 C210 0.931 . S
H229 C214 0.929 . S
H230 C216 0.930 . S
Co231 N235 2.148 . S
Co231 N241 2.128 . S
Co231 N251 2.194 . S
Co231 O256 2.351 . S
Co231 O257 2.155 . S
Co231 O258 2.096 . S
C232 N235 1.301 . S
C232 N236 1.328 . S
C232 H237 0.930 . S
C233 C234 1.333 . S
C233 N235 1.317 . S
C233 H238 0.930 . S
C234 C233 1.333 . S
C234 N236 1.350 . S
C234 H260 0.931 . S
N235 Co231 2.148 . S
N235 C232 1.301 . S
N235 C233 1.317 . S
N236 C232 1.328 . S
N236 C234 1.350 . S
H237 C232 0.930 . S
H238 C233 0.930 . S
C239 O240 1.224 . S
C239 O258 1.247 . S
O240 C239 1.224 . S
N241 Co231 2.128 . S
N241 C242 1.355 . S
N241 C244 1.311 . S
C242 N241 1.355 . S
C242 C243 1.363 . S
C242 H254 0.929 1_655 S
C243 C242 1.363 . S
C243 N245 1.375 . S
C243 H261 0.931 1_655 S
C244 N241 1.311 . S
C244 N245 1.347 . S
C244 H255 0.929 . S
N245 C243 1.375 . S
N245 C244 1.347 . S
C246 C249 1.365 . S
C246 N251 1.328 1_455 S
C246 H252 0.929 . S
C247 C248 1.362 . S
C247 C250 1.378 1_455 S
C247 H262 0.929 . S
C248 C247 1.362 . S
C248 C249 1.366 . S
C249 C246 1.365 . S
C249 C248 1.366 . S
C249 H263 0.930 . S
C250 C247 1.378 1_655 S
C250 N251 1.315 . S
C250 H253 0.930 . S
N251 Co231 2.194 . S
N251 C246 1.328 1_655 S
N251 C250 1.315 . S
H252 C246 0.929 . S
H253 C250 0.930 . S
H254 C242 0.929 1_455 S
H255 C244 0.929 . S
O256 Co231 2.351 . S
O256 C259 1.244 . S
O257 Co231 2.155 . S
O257 C259 1.240 . S
O258 Co231 2.096 . S
O258 C239 1.247 . S
C259 O256 1.244 . S
C259 O257 1.240 . S
H260 C234 0.931 . S
H261 C243 0.931 1_455 S
H262 C247 0.929 . S
H263 C249 0.930 . S
Co264 N268 2.148 . S
Co264 N274 2.128 . S
Co264 N284 2.194 . S
Co264 O289 2.351 . S
Co264 O290 2.155 . S
Co264 O291 2.096 . S
C265 N268 1.301 . S
C265 N269 1.328 . S
C265 H270 0.930 . S
C266 C267 1.333 . S
C266 N268 1.317 . S
C266 H271 0.930 . S
C267 C266 1.333 . S
C267 N269 1.350 . S
C267 H293 0.931 . S
N268 Co264 2.148 . S
N268 C265 1.301 . S
N268 C266 1.317 . S
N269 C265 1.328 . S
N269 C267 1.350 . S
H270 C265 0.930 . S
H271 C266 0.930 . S
C272 O273 1.224 . S
C272 O291 1.247 . S
O273 C272 1.224 . S
N274 Co264 2.128 . S
N274 C275 1.355 . S
N274 C277 1.311 . S
C275 N274 1.355 . S
C275 C276 1.363 . S
C275 H287 0.929 1_565 S
C276 C275 1.363 . S
C276 N278 1.375 . S
C276 H294 0.931 1_565 S
C277 N274 1.311 . S
C277 N278 1.347 . S
C277 H288 0.929 . S
N278 C276 1.375 . S
N278 C277 1.347 . S
C279 C282 1.365 . S
C279 N284 1.328 1_545 S
C279 H285 0.929 . S
C280 C281 1.362 . S
C280 C283 1.378 1_545 S
C280 H295 0.929 . S
C281 C280 1.362 . S
C281 C282 1.366 . S
C282 C279 1.365 . S
C282 C281 1.366 . S
C282 H296 0.930 . S
C283 C280 1.378 1_565 S
C283 N284 1.315 . S
C283 H286 0.930 . S
N284 Co264 2.194 . S
N284 C279 1.328 1_565 S
N284 C283 1.315 . S
H285 C279 0.929 . S
H286 C283 0.930 . S
H287 C275 0.929 1_545 S
H288 C277 0.929 . S
O289 Co264 2.351 . S
O289 C292 1.244 . S
O290 Co264 2.155 . S
O290 C292 1.240 . S
O291 Co264 2.096 . S
O291 C272 1.247 . S
C292 O289 1.244 . S
C292 O290 1.240 . S
H293 C267 0.931 . S
H294 C276 0.931 1_545 S
H295 C280 0.929 . S
H296 C282 0.930 . S
Co297 N301 2.148 . S
Co297 N307 2.128 . S
Co297 N317 2.194 . S
Co297 O322 2.351 . S
Co297 O323 2.155 . S
Co297 O324 2.096 . S
C298 N301 1.301 . S
C298 N302 1.328 . S
C298 H303 0.930 . S
C299 C300 1.333 . S
C299 N301 1.317 . S
C299 H304 0.930 . S
C300 C299 1.333 . S
C300 N302 1.350 . S
C300 H326 0.931 . S
N301 Co297 2.148 . S
N301 C298 1.301 . S
N301 C299 1.317 . S
N302 C298 1.328 . S
N302 C300 1.350 . S
H303 C298 0.930 . S
H304 C299 0.930 . S
C305 O306 1.224 . S
C305 O324 1.247 . S
O306 C305 1.224 . S
N307 Co297 2.128 . S
N307 C308 1.355 . S
N307 C310 1.311 . S
C308 N307 1.355 . S
C308 C309 1.363 . S
C308 H320 0.929 . S
C309 C308 1.363 . S
C309 N311 1.375 . S
C309 H327 0.931 . S
C310 N307 1.311 . S
C310 N311 1.347 . S
C310 H321 0.929 . S
N311 C309 1.375 . S
N311 C310 1.347 . S
C312 C315 1.365 . S
C312 N317 1.328 . S
C312 H318 0.929 . S
C313 C314 1.362 . S
C313 C316 1.378 . S
C313 H328 0.929 . S
C314 C313 1.362 . S
C314 C315 1.366 . S
C315 C312 1.365 . S
C315 C314 1.366 . S
C315 H329 0.930 . S
C316 C313 1.378 . S
C316 N317 1.315 . S
C316 H319 0.930 . S
N317 Co297 2.194 . S
N317 C312 1.328 . S
N317 C316 1.315 . S
H318 C312 0.929 . S
H319 C316 0.930 . S
H320 C308 0.929 . S
H321 C310 0.929 . S
O322 Co297 2.351 . S
O322 C325 1.244 . S
O323 Co297 2.155 . S
O323 C325 1.240 . S
O324 Co297 2.096 . S
O324 C305 1.247 . S
C325 O322 1.244 . S
C325 O323 1.240 . S
H326 C300 0.931 . S
H327 C309 0.931 . S
H328 C313 0.929 . S
H329 C315 0.930 . S
Co330 N334 2.148 . S
Co330 N340 2.128 . S
Co330 N350 2.194 . S
Co330 O355 2.351 . S
Co330 O356 2.155 . S
Co330 O357 2.096 . S
C331 N334 1.301 . S
C331 N335 1.328 . S
C331 H336 0.930 . S
C332 C333 1.333 . S
C332 N334 1.317 . S
C332 H337 0.930 . S
C333 C332 1.333 . S
C333 N335 1.350 . S
C333 H359 0.931 . S
N334 Co330 2.148 . S
N334 C331 1.301 . S
N334 C332 1.317 . S
N335 C331 1.328 . S
N335 C333 1.350 . S
H336 C331 0.930 . S
H337 C332 0.930 . S
C338 O339 1.224 . S
C338 O357 1.247 . S
O339 C338 1.224 . S
N340 Co330 2.128 . S
N340 C341 1.355 . S
N340 C343 1.311 . S
C341 N340 1.355 . S
C341 C342 1.363 . S
C341 H353 0.929 1_455 S
C342 C341 1.363 . S
C342 N344 1.375 . S
C342 H360 0.931 1_455 S
C343 N340 1.311 . S
C343 N344 1.347 . S
C343 H354 0.929 . S
N344 C342 1.375 . S
N344 C343 1.347 . S
C345 C348 1.365 . S
C345 N350 1.328 1_655 S
C345 H351 0.929 . S
C346 C347 1.362 . S
C346 C349 1.378 1_655 S
C346 H361 0.929 . S
C347 C346 1.362 . S
C347 C348 1.366 . S
C348 C345 1.365 . S
C348 C347 1.366 . S
C348 H362 0.930 . S
C349 C346 1.378 1_455 S
C349 N350 1.315 . S
C349 H352 0.930 . S
N350 Co330 2.194 . S
N350 C345 1.328 1_455 S
N350 C349 1.315 . S
H351 C345 0.929 . S
H352 C349 0.930 . S
H353 C341 0.929 1_655 S
H354 C343 0.929 . S
O355 Co330 2.351 . S
O355 C358 1.244 . S
O356 Co330 2.155 . S
O356 C358 1.240 . S
O357 Co330 2.096 . S
O357 C338 1.247 . S
C358 O355 1.244 . S
C358 O356 1.240 . S
H359 C333 0.931 . S
H360 C342 0.931 1_655 S
H361 C346 0.929 . S
H362 C348 0.930 . S
Co363 N367 2.148 . S
Co363 N373 2.128 . S
Co363 N383 2.194 . S
Co363 O388 2.351 . S
Co363 O389 2.155 . S
Co363 O390 2.096 . S
C364 N367 1.301 . S
C364 N368 1.328 . S
C364 H369 0.930 . S
C365 C366 1.333 . S
C365 N367 1.317 . S
C365 H370 0.930 . S
C366 C365 1.333 . S
C366 N368 1.350 . S
C366 H392 0.931 . S
N367 Co363 2.148 . S
N367 C364 1.301 . S
N367 C365 1.317 . S
N368 C364 1.328 . S
N368 C366 1.350 . S
H369 C364 0.930 . S
H370 C365 0.930 . S
C371 O372 1.224 . S
C371 O390 1.247 . S
O372 C371 1.224 . S
N373 Co363 2.128 . S
N373 C374 1.355 . S
N373 C376 1.311 . S
C374 N373 1.355 . S
C374 C375 1.363 . S
C374 H386 0.929 1_545 S
C375 C374 1.363 . S
C375 N377 1.375 . S
C375 H393 0.931 1_545 S
C376 N373 1.311 . S
C376 N377 1.347 . S
C376 H387 0.929 . S
N377 C375 1.375 . S
N377 C376 1.347 . S
C378 C381 1.365 . S
C378 N383 1.328 1_565 S
C378 H384 0.929 . S
C379 C380 1.362 . S
C379 C382 1.378 1_565 S
C379 H394 0.929 . S
C380 C379 1.362 . S
C380 C381 1.366 . S
C381 C378 1.365 . S
C381 C380 1.366 . S
C381 H395 0.930 . S
C382 C379 1.378 1_545 S
C382 N383 1.315 . S
C382 H385 0.930 . S
N383 Co363 2.194 . S
N383 C378 1.328 1_545 S
N383 C382 1.315 . S
H384 C378 0.929 . S
H385 C382 0.930 . S
H386 C374 0.929 1_565 S
H387 C376 0.929 . S
O388 Co363 2.351 . S
O388 C391 1.244 . S
O389 Co363 2.155 . S
O389 C391 1.240 . S
O390 Co363 2.096 . S
O390 C371 1.247 . S
C391 O388 1.244 . S
C391 O389 1.240 . S
H392 C366 0.931 . S
H393 C375 0.931 1_565 S
H394 C379 0.929 . S
H395 C381 0.930 . S
H396 C404 0.929 . S
H397 C406 0.930 . S
H398 C408 0.930 . S
H399 C411 0.929 . S
H400 C414 0.930 . S
H401 C416 0.960 . S
H402 C416 0.960 . S
H403 C416 0.960 . S
C404 H396 0.929 . S
C404 C405 1.377 . S
C404 C406 1.384 . S
C405 C404 1.377 . S
C405 C411 1.390 . S
C406 H397 0.930 . S
C406 C404 1.384 . S
C406 C407 1.372 . S
C407 C406 1.372 . S
C407 C408 1.400 . S
C407 C412 1.490 . S
C408 H398 0.930 . S
C408 C407 1.400 . S
C408 C411 1.386 . S
H409 C425 0.930 . S
H410 C426 0.931 . S
C411 H399 0.929 . S
C411 C405 1.390 . S
C411 C408 1.386 . S
C412 C407 1.490 . S
C412 C414 1.395 . S
C412 C415 1.403 . S
H413 C419 0.930 . S
C414 H400 0.930 . S
C414 C412 1.395 . S
C414 C417 1.403 . S
C415 C412 1.403 . S
C415 C416 1.524 . S
C415 C419 1.400 . S
C416 H401 0.960 . S
C416 H402 0.960 . S
C416 H403 0.960 . S
C416 C415 1.524 . S
C417 C414 1.403 . S
C417 C418 1.392 . S
C417 C421 1.495 . S
C418 C417 1.392 . S
C418 C419 1.385 . S
C418 C420 1.478 . S
C419 H413 0.930 . S
C419 C415 1.400 . S
C419 C418 1.385 . S
C420 C418 1.478 . S
C420 C422 1.381 . S
C420 C426 1.383 . S
C421 C417 1.495 . S
C421 H427 0.959 . S
C421 H428 0.961 . S
C421 H429 0.960 . S
C422 C420 1.381 . S
C422 C423 1.394 . S
C422 H430 0.930 . S
C423 C422 1.394 . S
C423 C424 1.383 . S
C423 H431 0.929 . S
C424 C423 1.383 . S
C424 C425 1.377 . S
C425 H409 0.930 . S
C425 C424 1.377 . S
C425 C426 1.379 . S
C426 H410 0.931 . S
C426 C420 1.383 . S
C426 C425 1.379 . S
H427 C421 0.959 . S
H428 C421 0.961 . S
H429 C421 0.960 . S
H430 C422 0.930 . S
H431 C423 0.929 . S
H432 C440 0.929 . S
H433 C442 0.930 . S
H434 C444 0.930 . S
H435 C447 0.929 . S
H436 C450 0.930 . S
H437 C452 0.960 . S
H438 C452 0.960 . S
H439 C452 0.960 . S
C440 H432 0.929 . S
C440 C441 1.377 . S
C440 C442 1.384 . S
C441 C440 1.377 . S
C441 C447 1.390 . S
C442 H433 0.930 . S
C442 C440 1.384 . S
C442 C443 1.372 . S
C443 C442 1.372 . S
C443 C444 1.400 . S
C443 C448 1.490 . S
C444 H434 0.930 . S
C444 C443 1.400 . S
C444 C447 1.386 . S
H445 C461 0.930 . S
H446 C462 0.931 . S
C447 H435 0.929 . S
C447 C441 1.390 . S
C447 C444 1.386 . S
C448 C443 1.490 . S
C448 C450 1.395 1_455 S
C448 C451 1.403 . S
H449 C455 0.930 . S
C450 H436 0.930 . S
C450 C448 1.395 1_655 S
C450 C453 1.403 . S
C451 C448 1.403 . S
C451 C452 1.524 . S
C451 C455 1.400 . S
C452 H437 0.960 . S
C452 H438 0.960 . S
C452 H439 0.960 . S
C452 C451 1.524 . S
C453 C450 1.403 . S
C453 C454 1.392 . S
C453 C457 1.495 . S
C454 C453 1.392 . S
C454 C455 1.385 1_655 S
C454 C456 1.478 . S
C455 H449 0.930 . S
C455 C451 1.400 . S
C455 C454 1.385 1_455 S
C456 C454 1.478 . S
C456 C458 1.381 . S
C456 C462 1.383 . S
C457 C453 1.495 . S
C457 H463 0.959 . S
C457 H464 0.961 . S
C457 H465 0.960 . S
C458 C456 1.381 . S
C458 C459 1.394 . S
C458 H466 0.930 . S
C459 C458 1.394 . S
C459 C460 1.383 . S
C459 H467 0.929 . S
C460 C459 1.383 . S
C460 C461 1.377 . S
C461 H445 0.930 . S
C461 C460 1.377 . S
C461 C462 1.379 . S
C462 H446 0.931 . S
C462 C456 1.383 . S
C462 C461 1.379 . S
H463 C457 0.959 . S
H464 C457 0.961 . S
H465 C457 0.960 . S
H466 C458 0.930 . S
H467 C459 0.929 . S
H468 C476 0.929 . S
H469 C478 0.930 . S
H470 C480 0.930 . S
H471 C483 0.929 . S
H472 C486 0.930 . S
H473 C488 0.960 . S
H474 C488 0.960 . S
H475 C488 0.960 . S
C476 H468 0.929 . S
C476 C477 1.377 . S
C476 C478 1.384 . S
C477 C476 1.377 . S
C477 C483 1.390 . S
C478 H469 0.930 . S
C478 C476 1.384 . S
C478 C479 1.372 . S
C479 C478 1.372 . S
C479 C480 1.400 . S
C479 C484 1.490 . S
C480 H470 0.930 . S
C480 C479 1.400 . S
C480 C483 1.386 . S
H481 C497 0.930 . S
H482 C498 0.931 . S
C483 H471 0.929 . S
C483 C477 1.390 . S
C483 C480 1.386 . S
C484 C479 1.490 . S
C484 C486 1.395 . S
C484 C487 1.403 1_545 S
H485 C491 0.930 . S
C486 H472 0.930 . S
C486 C484 1.395 . S
C486 C489 1.403 . S
C487 C484 1.403 1_565 S
C487 C488 1.524 . S
C487 C491 1.400 . S
C488 H473 0.960 . S
C488 H474 0.960 . S
C488 H475 0.960 . S
C488 C487 1.524 . S
C489 C486 1.403 . S
C489 C490 1.392 1_545 S
C489 C493 1.495 . S
C490 C489 1.392 1_565 S
C490 C491 1.385 . S
C490 C492 1.478 . S
C491 H485 0.930 . S
C491 C487 1.400 . S
C491 C490 1.385 . S
C492 C490 1.478 . S
C492 C494 1.381 . S
C492 C498 1.383 . S
C493 C489 1.495 . S
C493 H499 0.959 . S
C493 H500 0.961 . S
C493 H501 0.960 . S
C494 C492 1.381 . S
C494 C495 1.394 . S
C494 H502 0.930 . S
C495 C494 1.394 . S
C495 C496 1.383 . S
C495 H503 0.929 . S
C496 C495 1.383 . S
C496 C497 1.377 . S
C497 H481 0.930 . S
C497 C496 1.377 . S
C497 C498 1.379 . S
C498 H482 0.931 . S
C498 C492 1.383 . S
C498 C497 1.379 . S
H499 C493 0.959 . S
H500 C493 0.961 . S
H501 C493 0.960 . S
H502 C494 0.930 . S
H503 C495 0.929 . S
H504 C512 0.929 . S
H505 C514 0.930 . S
H506 C516 0.930 . S
H507 C519 0.929 . S
H508 C522 0.930 . S
H509 C524 0.960 . S
H510 C524 0.960 . S
H511 C524 0.960 . S
C512 H504 0.929 . S
C512 C513 1.377 . S
C512 C514 1.384 . S
C513 C512 1.377 . S
C513 C519 1.390 . S
C514 H505 0.930 . S
C514 C512 1.384 . S
C514 C515 1.372 . S
C515 C514 1.372 . S
C515 C516 1.400 . S
C515 C520 1.490 . S
C516 H506 0.930 . S
C516 C515 1.400 . S
C516 C519 1.386 . S
H517 C533 0.930 . S
H518 C534 0.931 . S
C519 H507 0.929 . S
C519 C513 1.390 . S
C519 C516 1.386 . S
C520 C515 1.490 . S
C520 C522 1.395 . S
C520 C523 1.403 . S
H521 C527 0.930 . S
C522 H508 0.930 . S
C522 C520 1.395 . S
C522 C525 1.403 . S
C523 C520 1.403 . S
C523 C524 1.524 . S
C523 C527 1.400 . S
C524 H509 0.960 . S
C524 H510 0.960 . S
C524 H511 0.960 . S
C524 C523 1.524 . S
C525 C522 1.403 . S
C525 C526 1.392 . S
C525 C529 1.495 . S
C526 C525 1.392 . S
C526 C527 1.385 . S
C526 C528 1.478 . S
C527 H521 0.930 . S
C527 C523 1.400 . S
C527 C526 1.385 . S
C528 C526 1.478 . S
C528 C530 1.381 . S
C528 C534 1.383 . S
C529 C525 1.495 . S
C529 H535 0.959 . S
C529 H536 0.961 . S
C529 H537 0.960 . S
C530 C528 1.381 . S
C530 C531 1.394 . S
C530 H538 0.930 . S
C531 C530 1.394 . S
C531 C532 1.383 . S
C531 H539 0.929 . S
C532 C531 1.383 . S
C532 C533 1.377 . S
C533 H517 0.930 . S
C533 C532 1.377 . S
C533 C534 1.379 . S
C534 H518 0.931 . S
C534 C528 1.383 . S
C534 C533 1.379 . S
H535 C529 0.959 . S
H536 C529 0.961 . S
H537 C529 0.960 . S
H538 C530 0.930 . S
H539 C531 0.929 . S
H540 C548 0.929 . S
H541 C550 0.947 . S
H542 C552 0.930 . S
H543 C555 0.929 . S
H544 C558 0.930 . S
H545 C560 0.960 . S
H546 C560 0.960 . S
H547 C560 0.960 . S
C548 H540 0.929 . S
C548 C549 1.377 . S
C548 C550 1.384 . S
C549 C548 1.377 . S
C549 C555 1.390 . S
C550 H541 0.947 . S
C550 C548 1.384 . S
C550 C551 1.372 . S
C551 C550 1.372 . S
C551 C552 1.400 . S
C551 C556 1.490 . S
C552 H542 0.930 . S
C552 C551 1.400 . S
C552 C555 1.386 . S
H553 C569 0.930 . S
H554 C570 0.931 . S
C555 H543 0.929 . S
C555 C549 1.390 . S
C555 C552 1.386 . S
C556 C551 1.490 . S
C556 C558 1.395 1_655 S
C556 C559 1.403 . S
H557 C563 0.930 . S
C558 H544 0.930 . S
C558 C556 1.395 1_455 S
C558 C561 1.403 . S
C559 C556 1.403 . S
C559 C560 1.524 . S
C559 C563 1.400 . S
C560 H545 0.960 . S
C560 H546 0.960 . S
C560 H547 0.960 . S
C560 C559 1.524 . S
C561 C558 1.403 . S
C561 C562 1.392 . S
C561 C565 1.495 . S
C562 C561 1.392 . S
C562 C563 1.385 1_455 S
C562 C564 1.478 . S
C563 H557 0.930 . S
C563 C559 1.400 . S
C563 C562 1.385 1_655 S
C564 C562 1.478 . S
C564 C566 1.381 . S
C564 C570 1.383 . S
C565 C561 1.495 . S
C565 H571 0.959 . S
C565 H572 0.961 . S
C565 H573 0.960 . S
C566 C564 1.381 . S
C566 C567 1.394 . S
C566 H574 0.930 . S
C567 C566 1.394 . S
C567 C568 1.383 . S
C567 H575 0.929 . S
C568 C567 1.383 . S
C568 C569 1.377 . S
C569 H553 0.930 . S
C569 C568 1.377 . S
C569 C570 1.379 . S
C570 H554 0.931 . S
C570 C564 1.383 . S
C570 C569 1.379 . S
H571 C565 0.959 . S
H572 C565 0.961 . S
H573 C565 0.960 . S
H574 C566 0.930 . S
H575 C567 0.929 . S
H576 C584 0.929 . S
H577 C586 0.930 . S
H578 C588 0.930 1_545 S
H579 C591 0.929 . S
H580 C594 0.930 . S
H581 C596 0.960 . S
H582 C596 0.960 1_565 S
H583 C596 0.960 . S
C584 H576 0.929 . S
C584 C585 1.377 . S
C584 C586 1.384 . S
C585 C584 1.377 . S
C585 C591 1.390 . S
C586 H577 0.930 . S
C586 C584 1.384 . S
C586 C587 1.372 . S
C587 C586 1.372 . S
C587 C588 1.400 . S
C587 C592 1.490 . S
C588 H578 0.930 1_565 S
C588 C587 1.400 . S
C588 C591 1.386 . S
H589 C605 0.930 . S
H590 C606 0.931 . S
C591 H579 0.929 . S
C591 C585 1.390 . S
C591 C588 1.386 . S
C592 C587 1.490 . S
C592 C594 1.395 . S
C592 C595 1.403 1_565 S
H593 C599 0.930 . S
C594 H580 0.930 . S
C594 C592 1.395 . S
C594 C597 1.403 . S
C595 C592 1.403 1_545 S
C595 C596 1.524 . S
C595 C599 1.400 . S
C596 H581 0.960 . S
C596 H582 0.960 1_545 S
C596 H583 0.960 . S
C596 C595 1.524 . S
C597 C594 1.403 . S
C597 C598 1.392 1_565 S
C597 C601 1.495 . S
C598 C597 1.392 1_545 S
C598 C599 1.385 . S
C598 C600 1.478 . S
C599 H593 0.930 . S
C599 C595 1.400 . S
C599 C598 1.385 . S
C600 C598 1.478 . S
C600 C602 1.381 . S
C600 C606 1.383 . S
C601 C597 1.495 . S
C601 H607 0.959 . S
C601 H608 0.961 1_565 S
C601 H609 0.960 . S
C602 C600 1.381 . S
C602 C603 1.394 . S
C602 H610 0.930 1_545 S
C603 C602 1.394 . S
C603 C604 1.383 . S
C603 H611 0.929 . S
C604 C603 1.383 . S
C604 C605 1.377 . S
C605 H589 0.930 . S
C605 C604 1.377 . S
C605 C606 1.379 . S
C606 H590 0.931 . S
C606 C600 1.383 . S
C606 C605 1.379 . S
H607 C601 0.959 . S
H608 C601 0.961 1_545 S
H609 C601 0.960 . S
H610 C602 0.930 1_565 S
H611 C603 0.929 . S
H612 C620 0.929 . S
H613 C622 0.930 . S
H614 C624 0.930 . S
H615 C627 0.929 . S
H616 C630 0.930 . S
H617 C632 0.960 . S
H618 C632 0.960 . S
H619 C632 0.960 . S
C620 H612 0.929 . S
C620 C621 1.377 . S
C620 C622 1.384 . S
C621 C620 1.377 . S
C621 C627 1.390 . S
C622 H613 0.930 . S
C622 C620 1.384 . S
C622 C623 1.372 . S
C623 C622 1.372 . S
C623 C624 1.400 . S
C623 C628 1.490 . S
C624 H614 0.930 . S
C624 C623 1.400 . S
C624 C627 1.386 . S
H625 C641 0.930 . S
H626 C642 0.931 . S
C627 H615 0.929 . S
C627 C621 1.390 . S
C627 C624 1.386 . S
C628 C623 1.490 . S
C628 C630 1.395 . S
C628 C631 1.403 . S
H629 C635 0.930 . S
C630 H616 0.930 . S
C630 C628 1.395 . S
C630 C633 1.403 . S
C631 C628 1.403 . S
C631 C632 1.524 . S
C631 C635 1.400 . S
C632 H617 0.960 . S
C632 H618 0.960 . S
C632 H619 0.960 . S
C632 C631 1.524 . S
C633 C630 1.403 . S
C633 C634 1.392 . S
C633 C637 1.495 . S
C634 C633 1.392 . S
C634 C635 1.385 . S
C634 C636 1.478 . S
C635 H629 0.930 . S
C635 C631 1.400 . S
C635 C634 1.385 . S
C636 C634 1.478 . S
C636 C638 1.381 . S
C636 C642 1.383 . S
C637 C633 1.495 . S
C637 H643 0.959 . S
C637 H644 0.961 . S
C637 H645 0.960 . S
C638 C636 1.381 . S
C638 C639 1.394 . S
C638 H646 0.930 . S
C639 C638 1.394 . S
C639 C640 1.383 . S
C639 H647 0.929 . S
C640 C639 1.383 . S
C640 C641 1.377 . S
C641 H625 0.930 . S
C641 C640 1.377 . S
C641 C642 1.379 . S
C642 H626 0.931 . S
C642 C636 1.383 . S
C642 C641 1.379 . S
H643 C637 0.959 . S
H644 C637 0.961 . S
H645 C637 0.960 . S
H646 C638 0.930 . S
H647 C639 0.929 . S
H648 C656 0.929 . S
H649 C658 0.930 . S
H650 C660 0.930 . S
H651 C663 0.929 . S
H652 C666 0.930 . S
H653 C668 0.960 . S
H654 C668 0.960 . S
H655 C668 0.960 . S
C656 H648 0.929 . S
C656 C657 1.377 . S
C656 C658 1.384 . S
C657 C656 1.377 . S
C657 C663 1.390 . S
C658 H649 0.930 . S
C658 C656 1.384 . S
C658 C659 1.372 . S
C659 C658 1.372 . S
C659 C660 1.400 . S
C659 C664 1.490 . S
C660 H650 0.930 . S
C660 C659 1.400 . S
C660 C663 1.386 . S
H661 C677 0.930 . S
H662 C678 0.931 . S
C663 H651 0.929 . S
C663 C657 1.390 . S
C663 C660 1.386 . S
C664 C659 1.490 . S
C664 C666 1.395 1_655 S
C664 C667 1.403 . S
H665 C671 0.930 . S
C666 H652 0.930 . S
C666 C664 1.395 1_455 S
C666 C669 1.403 . S
C667 C664 1.403 . S
C667 C668 1.524 . S
C667 C671 1.400 . S
C668 H653 0.960 . S
C668 H654 0.960 . S
C668 H655 0.960 . S
C668 C667 1.524 . S
C669 C666 1.403 . S
C669 C670 1.392 . S
C669 C673 1.495 . S
C670 C669 1.392 . S
C670 C671 1.385 1_455 S
C670 C672 1.478 . S
C671 H665 0.930 . S
C671 C667 1.400 . S
C671 C670 1.385 1_655 S
C672 C670 1.478 . S
C672 C674 1.381 . S
C672 C678 1.383 . S
C673 C669 1.495 . S
C673 H679 0.959 . S
C673 H680 0.961 . S
C673 H681 0.960 . S
C674 C672 1.381 . S
C674 C675 1.394 . S
C674 H682 0.930 . S
C675 C674 1.394 . S
C675 C676 1.383 . S
C675 H683 0.929 . S
C676 C675 1.383 . S
C676 C677 1.377 . S
C677 H661 0.930 . S
C677 C676 1.377 . S
C677 C678 1.379 . S
C678 H662 0.931 . S
C678 C672 1.383 . S
C678 C677 1.379 . S
H679 C673 0.959 . S
H680 C673 0.961 . S
H681 C673 0.960 . S
H682 C674 0.930 . S
H683 C675 0.929 . S
H684 C692 0.929 . S
H685 C694 0.930 1_565 S
H686 C696 0.930 . S
H687 C699 0.929 . S
H688 C702 0.930 . S
H689 C704 0.960 1_556 S
H690 C704 0.960 . S
H691 C704 0.960 . S
C692 H684 0.929 . S
C692 C693 1.377 . S
C692 C694 1.384 . S
C693 C692 1.377 . S
C693 C699 1.390 . S
C694 H685 0.930 1_545 S
C694 C692 1.384 . S
C694 C695 1.372 . S
C695 C694 1.372 . S
C695 C696 1.400 . S
C695 C700 1.490 . S
C696 H686 0.930 . S
C696 C695 1.400 . S
C696 C699 1.386 . S
H697 C713 0.930 . S
H698 C714 0.931 . S
C699 H687 0.929 . S
C699 C693 1.390 . S
C699 C696 1.386 . S
C700 C695 1.490 . S
C700 C702 1.395 1_545 S
C700 C703 1.403 . S
H701 C707 0.930 . S
C702 H688 0.930 . S
C702 C700 1.395 1_565 S
C702 C705 1.403 1_554 S
C703 C700 1.403 . S
C703 C704 1.524 . S
C703 C707 1.400 1_554 S
C704 H689 0.960 1_554 S
C704 H690 0.960 . S
C704 H691 0.960 . S
C704 C703 1.524 . S
C705 C702 1.403 1_556 S
C705 C706 1.392 . S
C705 C709 1.495 . S
C706 C705 1.392 . S
C706 C707 1.385 1_565 S
C706 C708 1.478 . S
C707 H701 0.930 . S
C707 C703 1.400 1_556 S
C707 C706 1.385 1_545 S
C708 C706 1.478 . S
C708 C710 1.381 . S
C708 C714 1.383 . S
C709 C705 1.495 . S
C709 H715 0.959 1_556 S
C709 H716 0.961 . S
C709 H717 0.960 . S
C710 C708 1.381 . S
C710 C711 1.394 . S
C710 H718 0.930 . S
C711 C710 1.394 . S
C711 C712 1.383 . S
C711 H719 0.929 . S
C712 C711 1.383 . S
C712 C713 1.377 . S
C713 H697 0.930 . S
C713 C712 1.377 . S
C713 C714 1.379 . S
C714 H698 0.931 . S
C714 C708 1.383 . S
C714 C713 1.379 . S
H715 C709 0.959 1_554 S
H716 C709 0.961 . S
H717 C709 0.960 . S
H718 C710 0.930 . S
H719 C711 0.929 . S
H720 C728 0.929 . S
H721 C730 0.930 . S
H722 C732 0.930 . S
H723 C735 0.929 . S
H724 C738 0.930 . S
H725 C740 0.960 . S
H726 C740 0.960 . S
H727 C740 0.960 . S
C728 H720 0.929 . S
C728 C729 1.377 . S
C728 C730 1.384 . S
C729 C728 1.377 . S
C729 C735 1.390 . S
C730 H721 0.930 . S
C730 C728 1.384 . S
C730 C731 1.372 . S
C731 C730 1.372 . S
C731 C732 1.400 . S
C731 C736 1.490 . S
C732 H722 0.930 . S
C732 C731 1.400 . S
C732 C735 1.386 . S
H733 C749 0.930 . S
H734 C750 0.931 . S
C735 H723 0.929 . S
C735 C729 1.390 . S
C735 C732 1.386 . S
C736 C731 1.490 . S
C736 C738 1.395 . S
C736 C739 1.403 . S
H737 C743 0.930 . S
C738 H724 0.930 . S
C738 C736 1.395 . S
C738 C741 1.403 . S
C739 C736 1.403 . S
C739 C740 1.524 . S
C739 C743 1.400 . S
C740 H725 0.960 . S
C740 H726 0.960 . S
C740 H727 0.960 . S
C740 C739 1.524 . S
C741 C738 1.403 . S
C741 C742 1.392 . S
C741 C745 1.495 . S
C742 C741 1.392 . S
C742 C743 1.385 . S
C742 C744 1.478 . S
C743 H737 0.930 . S
C743 C739 1.400 . S
C743 C742 1.385 . S
C744 C742 1.478 . S
C744 C746 1.381 . S
C744 C750 1.383 . S
C745 C741 1.495 . S
C745 H751 0.959 . S
C745 H752 0.961 . S
C745 H753 0.960 . S
C746 C744 1.381 . S
C746 C747 1.394 . S
C746 H754 0.930 . S
C747 C746 1.394 . S
C747 C748 1.383 . S
C747 H755 0.929 . S
C748 C747 1.383 . S
C748 C749 1.377 . S
C749 H733 0.930 . S
C749 C748 1.377 . S
C749 C750 1.379 . S
C750 H734 0.931 . S
C750 C744 1.383 . S
C750 C749 1.379 . S
H751 C745 0.959 . S
H752 C745 0.961 . S
H753 C745 0.960 . S
H754 C746 0.930 . S
H755 C747 0.929 . S
H756 C764 0.929 . S
H757 C766 0.930 . S
H758 C768 0.930 . S
H759 C771 0.929 1_655 S
H760 C774 0.930 . S
H761 C776 0.960 . S
H762 C776 0.960 1_455 S
H763 C776 0.960 . S
C764 H756 0.929 . S
C764 C765 1.377 . S
C764 C766 1.384 . S
C765 C764 1.377 . S
C765 C771 1.390 . S
C766 H757 0.930 . S
C766 C764 1.384 . S
C766 C767 1.372 . S
C767 C766 1.372 . S
C767 C768 1.400 1_455 S
C767 C772 1.490 . S
C768 H758 0.930 . S
C768 C767 1.400 1_655 S
C768 C771 1.386 1_655 S
H769 C785 0.930 . S
H770 C786 0.931 . S
C771 H759 0.929 1_455 S
C771 C765 1.390 . S
C771 C768 1.386 1_455 S
C772 C767 1.490 . S
C772 C774 1.395 . S
C772 C775 1.403 1_455 S
H773 C779 0.930 . S
C774 H760 0.930 . S
C774 C772 1.395 . S
C774 C777 1.403 . S
C775 C772 1.403 1_655 S
C775 C776 1.524 . S
C775 C779 1.400 . S
C776 H761 0.960 . S
C776 H762 0.960 1_655 S
C776 H763 0.960 . S
C776 C775 1.524 . S
C777 C774 1.403 . S
C777 C778 1.392 1_455 S
C777 C781 1.495 . S
C778 C777 1.392 1_655 S
C778 C779 1.385 . S
C778 C780 1.478 . S
C779 H773 0.930 . S
C779 C775 1.400 . S
C779 C778 1.385 . S
C780 C778 1.478 . S
C780 C782 1.381 1_655 S
C780 C786 1.383 . S
C781 C777 1.495 . S
C781 H787 0.959 . S
C781 H788 0.928 1_455 S
C781 H789 0.960 . S
C782 C780 1.381 1_455 S
C782 C783 1.394 1_455 S
C782 H790 0.930 . S
C783 C782 1.394 1_655 S
C783 C784 1.383 . S
C783 H791 0.929 1_655 S
C784 C783 1.383 . S
C784 C785 1.377 . S
C785 H769 0.930 . S
C785 C784 1.377 . S
C785 C786 1.379 . S
C786 H770 0.931 . S
C786 C780 1.383 . S
C786 C785 1.379 . S
H787 C781 0.959 . S
H788 C781 0.928 1_655 S
H789 C781 0.960 . S
H790 C782 0.930 . S
H791 C783 0.929 1_455 S
H792 C800 0.929 . S
H793 C802 0.930 . S
H794 C804 0.930 1_565 S
H795 C807 0.929 . S
H796 C810 0.930 . S
H797 C812 0.960 . S
H798 C812 0.960 . S
H799 C812 0.960 . S
C800 H792 0.929 . S
C800 C801 1.377 . S
C800 C802 1.384 . S
C801 C800 1.377 . S
C801 C807 1.390 . S
C802 H793 0.930 . S
C802 C800 1.384 . S
C802 C803 1.372 . S
C803 C802 1.372 . S
C803 C804 1.400 . S
C803 C808 1.490 . S
C804 H794 0.930 1_545 S
C804 C803 1.400 . S
C804 C807 1.386 . S
H805 C821 0.930 . S
H806 C822 0.931 . S
C807 H795 0.929 . S
C807 C801 1.390 . S
C807 C804 1.386 . S
C808 C803 1.490 . S
C808 C810 1.395 . S
C808 C811 1.403 1_545 S
H809 C815 0.930 . S
C810 H796 0.930 . S
C810 C808 1.395 . S
C810 C813 1.403 1_556 S
C811 C808 1.403 1_565 S
C811 C812 1.524 . S
C811 C815 1.400 1_556 S
C812 H797 0.960 . S
C812 H798 0.960 . S
C812 H799 0.960 . S
C812 C811 1.524 . S
C813 C810 1.403 1_554 S
C813 C814 1.392 1_545 S
C813 C817 1.495 . S
C814 C813 1.392 1_565 S
C814 C815 1.385 . S
C814 C816 1.478 . S
C815 H809 0.930 . S
C815 C811 1.400 1_554 S
C815 C814 1.385 . S
C816 C814 1.478 . S
C816 C818 1.381 . S
C816 C822 1.383 . S
C817 C813 1.495 . S
C817 H823 0.959 . S
C817 H824 0.961 . S
C817 H825 0.960 . S
C818 C816 1.381 . S
C818 C819 1.394 . S
C818 H826 0.930 1_565 S
C819 C818 1.394 . S
C819 C820 1.383 . S
C819 H827 0.929 . S
C820 C819 1.383 . S
C820 C821 1.377 . S
C821 H805 0.930 . S
C821 C820 1.377 . S
C821 C822 1.379 . S
C822 H806 0.931 . S
C822 C816 1.383 . S
C822 C821 1.379 . S
H823 C817 0.959 . S
H824 C817 0.961 . S
H825 C817 0.960 . S
H826 C818 0.930 1_545 S
H827 C819 0.929 . S
H828 C836 0.929 . S
H829 C838 0.930 . S
H830 C840 0.930 . S
H831 C843 0.929 . S
H832 C846 0.930 . S
H833 C848 0.960 . S
H834 C848 0.960 . S
H835 C848 0.960 . S
C836 H828 0.929 . S
C836 C837 1.377 . S
C836 C838 1.384 . S
C837 C836 1.377 . S
C837 C843 1.390 . S
C838 H829 0.930 . S
C838 C836 1.384 . S
C838 C839 1.372 . S
C839 C838 1.372 . S
C839 C840 1.400 . S
C839 C844 1.490 . S
C840 H830 0.930 . S
C840 C839 1.400 . S
C840 C843 1.386 . S
H841 C857 0.930 . S
H842 C858 0.931 . S
C843 H831 0.929 . S
C843 C837 1.390 . S
C843 C840 1.386 . S
C844 C839 1.490 . S
C844 C846 1.395 1_455 S
C844 C847 1.403 . S
H845 C851 0.930 . S
C846 H832 0.930 . S
C846 C844 1.395 1_655 S
C846 C849 1.403 1_545 S
C847 C844 1.403 . S
C847 C848 1.524 . S
C847 C851 1.400 1_545 S
C848 H833 0.960 . S
C848 H834 0.960 . S
C848 H835 0.960 . S
C848 C847 1.524 . S
C849 C846 1.403 1_565 S
C849 C850 1.392 . S
C849 C853 1.495 . S
C850 C849 1.392 . S
C850 C851 1.385 1_655 S
C850 C852 1.478 . S
C851 H845 0.930 . S
C851 C847 1.400 1_565 S
C851 C850 1.385 1_455 S
C852 C850 1.478 . S
C852 C854 1.381 . S
C852 C858 1.383 . S
C853 C849 1.495 . S
C853 H859 0.959 . S
C853 H860 0.961 . S
C853 H861 0.960 . S
C854 C852 1.381 . S
C854 C855 1.394 . S
C854 H862 0.930 . S
C855 C854 1.394 . S
C855 C856 1.383 . S
C855 H863 0.929 . S
C856 C855 1.383 . S
C856 C857 1.377 . S
C857 H841 0.930 . S
C857 C856 1.377 . S
C857 C858 1.379 . S
C858 H842 0.931 . S
C858 C852 1.383 . S
C858 C857 1.379 . S
H859 C853 0.959 . S
H860 C853 0.961 . S
H861 C853 0.960 . S
H862 C854 0.930 . S
H863 C855 0.929 . S
H864 C872 0.929 . S
H865 C874 0.930 . S
H866 C876 0.930 . S
H867 C879 0.929 . S
H868 C882 0.930 . S
H869 C884 0.960 . S
H870 C884 0.960 . S
H871 C884 0.960 . S
C872 H864 0.929 . S
C872 C873 1.377 . S
C872 C874 1.384 . S
C873 C872 1.377 . S
C873 C879 1.390 . S
C874 H865 0.930 . S
C874 C872 1.384 . S
C874 C875 1.372 . S
C875 C874 1.372 . S
C875 C876 1.400 . S
C875 C880 1.490 . S
C876 H866 0.930 . S
C876 C875 1.400 . S
C876 C879 1.386 . S
H877 C893 0.930 . S
H878 C894 0.931 . S
C879 H867 0.929 . S
C879 C873 1.390 . S
C879 C876 1.386 . S
C880 C875 1.490 . S
C880 C882 1.395 1_545 S
C880 C883 1.403 1_655 S
H881 C887 0.930 . S
C882 H868 0.930 . S
C882 C880 1.395 1_565 S
C882 C885 1.403 . S
C883 C880 1.403 1_455 S
C883 C884 1.524 . S
C883 C887 1.400 . S
C884 H869 0.960 . S
C884 H870 0.960 . S
C884 H871 0.960 . S
C884 C883 1.524 . S
C885 C882 1.403 . S
C885 C886 1.392 1_655 S
C885 C889 1.495 . S
C886 C885 1.392 1_455 S
C886 C887 1.385 1_565 S
C886 C888 1.478 . S
C887 H881 0.930 . S
C887 C883 1.400 . S
C887 C886 1.385 1_545 S
C888 C886 1.478 . S
C888 C890 1.381 . S
C888 C894 1.383 . S
C889 C885 1.495 . S
C889 H895 0.959 . S
C889 H896 0.961 . S
C889 H897 0.960 . S
C890 C888 1.381 . S
C890 C891 1.394 . S
C890 H898 0.930 . S
C891 C890 1.394 . S
C891 C892 1.383 . S
C891 H899 0.929 . S
C892 C891 1.383 . S
C892 C893 1.377 . S
C893 H877 0.930 . S
C893 C892 1.377 . S
C893 C894 1.379 . S
C894 H878 0.931 . S
C894 C888 1.383 . S
C894 C893 1.379 . S
H895 C889 0.959 . S
H896 C889 0.961 . S
H897 C889 0.960 . S
H898 C890 0.930 . S
H899 C891 0.929 . S
H900 C908 0.929 . S
H901 C910 0.930 . S
H902 C912 0.930 1_565 S
H903 C915 0.929 . S
H904 C918 0.930 . S
H905 C920 0.960 . S
H906 C920 0.960 . S
H907 C920 0.960 . S
C908 H900 0.929 . S
C908 C909 1.377 . S
C908 C910 1.384 . S
C909 C908 1.377 . S
C909 C915 1.390 . S
C910 H901 0.930 . S
C910 C908 1.384 . S
C910 C911 1.372 . S
C911 C910 1.372 . S
C911 C912 1.400 . S
C911 C916 1.490 . S
C912 H902 0.930 1_545 S
C912 C911 1.400 . S
C912 C915 1.386 . S
H913 C929 0.930 . S
H914 C930 0.931 . S
C915 H903 0.929 . S
C915 C909 1.390 . S
C915 C912 1.386 . S
C916 C911 1.490 . S
C916 C918 1.395 . S
C916 C919 1.403 1_545 S
H917 C923 0.930 . S
C918 H904 0.930 . S
C918 C916 1.395 . S
C918 C921 1.403 1_455 S
C919 C916 1.403 1_565 S
C919 C920 1.524 . S
C919 C923 1.400 1_455 S
C920 H905 0.960 . S
C920 H906 0.960 . S
C920 H907 0.960 . S
C920 C919 1.524 . S
C921 C918 1.403 1_655 S
C921 C922 1.392 1_545 S
C921 C925 1.495 . S
C922 C921 1.392 1_565 S
C922 C923 1.385 . S
C922 C924 1.478 . S
C923 H917 0.930 . S
C923 C919 1.400 1_655 S
C923 C922 1.385 . S
C924 C922 1.478 . S
C924 C926 1.381 . S
C924 C930 1.383 . S
C925 C921 1.495 . S
C925 H931 0.959 . S
C925 H932 0.961 . S
C925 H933 0.960 . S
C926 C924 1.381 . S
C926 C927 1.394 . S
C926 H934 0.930 1_565 S
C927 C926 1.394 . S
C927 C928 1.383 . S
C927 H935 0.929 . S
C928 C927 1.383 . S
C928 C929 1.377 . S
C929 H913 0.930 . S
C929 C928 1.377 . S
C929 C930 1.379 . S
C930 H914 0.931 . S
C930 C924 1.383 . S
C930 C929 1.379 . S
H931 C925 0.959 . S
H932 C925 0.961 . S
H933 C925 0.960 . S
H934 C926 0.930 1_545 S
H935 C927 0.929 . S
H936 C944 0.929 . S
H937 C946 0.930 . S
H938 C948 0.930 . S
H939 C951 0.929 . S
H940 C954 0.930 . S
H941 C956 0.960 . S
H942 C956 0.960 . S
H943 C956 0.960 . S
C944 H936 0.929 . S
C944 C945 1.377 . S
C944 C946 1.384 . S
C945 C944 1.377 . S
C945 C951 1.390 . S
C946 H937 0.930 . S
C946 C944 1.384 . S
C946 C947 1.372 . S
C947 C946 1.372 . S
C947 C948 1.400 . S
C947 C952 1.490 . S
C948 H938 0.930 . S
C948 C947 1.400 . S
C948 C951 1.386 . S
H949 C965 0.930 . S
H950 C966 0.931 . S
C951 H939 0.929 . S
C951 C945 1.390 . S
C951 C948 1.386 . S
C952 C947 1.490 . S
C952 C954 1.395 . S
C952 C955 1.403 1_565 S
H953 C959 0.930 . S
C954 H940 0.930 . S
C954 C952 1.395 . S
C954 C957 1.403 1_655 S
C955 C952 1.403 1_545 S
C955 C956 1.524 . S
C955 C959 1.400 1_655 S
C956 H941 0.960 . S
C956 H942 0.960 . S
C956 H943 0.960 . S
C956 C955 1.524 . S
C957 C954 1.403 1_455 S
C957 C958 1.392 1_565 S
C957 C961 1.495 . S
C958 C957 1.392 1_545 S
C958 C959 1.385 . S
C958 C960 1.478 . S
C959 H953 0.930 . S
C959 C955 1.400 1_455 S
C959 C958 1.385 . S
C960 C958 1.478 . S
C960 C962 1.381 . S
C960 C966 1.383 . S
C961 C957 1.495 . S
C961 H967 0.959 . S
C961 H968 0.961 . S
C961 H969 0.960 . S
C962 C960 1.381 . S
C962 C963 1.394 . S
C962 H970 0.930 . S
C963 C962 1.394 . S
C963 C964 1.383 . S
C963 H971 0.929 . S
C964 C963 1.383 . S
C964 C965 1.377 . S
C965 H949 0.930 . S
C965 C964 1.377 . S
C965 C966 1.379 . S
C966 H950 0.931 . S
C966 C960 1.383 . S
C966 C965 1.379 . S
H967 C961 0.959 . S
H968 C961 0.961 . S
H969 C961 0.960 . S
H970 C962 0.930 . S
H971 C963 0.929 . S
H972 C980 0.929 . S
H973 C982 0.930 1_455 S
H974 C984 0.930 . S
H975 C987 0.929 . S
H976 C990 0.930 . S
H977 C992 0.960 . S
H978 C992 0.960 . S
H979 C992 0.960 . S
C980 H972 0.929 . S
C980 C981 1.377 . S
C980 C982 1.384 . S
C981 C980 1.377 . S
C981 C987 1.390 . S
C982 H973 0.930 1_655 S
C982 C980 1.384 . S
C982 C983 1.372 . S
C983 C982 1.372 . S
C983 C984 1.400 . S
C983 C988 1.490 . S
C984 H974 0.930 . S
C984 C983 1.400 . S
C984 C987 1.386 . S
H985 C1001 0.930 . S
H986 C1002 0.931 1_655 S
C987 H975 0.929 . S
C987 C981 1.390 . S
C987 C984 1.386 . S
C988 C983 1.490 . S
C988 C990 1.395 1_655 S
C988 C991 1.403 . S
H989 C995 0.938 . S
C990 H976 0.930 . S
C990 C988 1.395 1_455 S
C990 C993 1.403 1_565 S
C991 C988 1.403 . S
C991 C992 1.524 . S
C991 C995 1.398 1_565 S
C992 H977 0.960 . S
C992 H978 0.960 . S
C992 H979 0.960 . S
C992 C991 1.524 . S
C993 C990 1.403 1_545 S
C993 C994 1.392 . S
C993 C997 1.495 . S
C994 C993 1.392 . S
C994 C995 1.379 1_455 S
C994 C996 1.478 . S
C995 H989 0.938 . S
C995 C991 1.398 1_545 S
C995 C994 1.379 1_655 S
C996 C994 1.478 . S
C996 C998 1.381 . S
C996 C1002 1.383 . S
C997 C993 1.495 . S
C997 H1003 0.959 . S
C997 H1004 0.961 . S
C997 H1005 0.960 . S
C998 C996 1.381 . S
C998 C999 1.394 . S
C998 H1006 0.930 . S
C999 C998 1.394 . S
C999 C1000 1.383 . S
C999 H1007 0.929 . S
C1000 C999 1.383 . S
C1000 C1001 1.377 . S
C1001 H985 0.930 . S
C1001 C1000 1.377 . S
C1001 C1002 1.379 . S
C1002 H986 0.931 1_455 S
C1002 C996 1.383 . S
C1002 C1001 1.379 . S
H1003 C997 0.959 . S
H1004 C997 0.961 . S
H1005 C997 0.960 . S
H1006 C998 0.930 . S
H1007 C999 0.929 . S
H1008 C1016 0.929 . S
H1009 C1018 0.930 . S
H1010 C1020 0.930 . S
H1011 C1023 0.929 . S
H1012 C1026 0.930 . S
H1013 C1028 0.960 . S
H1014 C1028 0.960 . S
H1015 C1028 0.960 . S
C1016 H1008 0.929 . S
C1016 C1017 1.377 . S
C1016 C1018 1.384 . S
C1017 C1016 1.377 . S
C1017 C1023 1.390 . S
C1018 H1009 0.930 . S
C1018 C1016 1.384 . S
C1018 C1019 1.372 . S
C1019 C1018 1.372 . S
C1019 C1020 1.400 . S
C1019 C1024 1.490 . S
C1020 H1010 0.930 . S
C1020 C1019 1.400 . S
C1020 C1023 1.386 . S
H1021 C1037 0.930 . S
H1022 C1038 0.931 . S
C1023 H1011 0.929 . S
C1023 C1017 1.390 . S
C1023 C1020 1.386 . S
C1024 C1019 1.490 . S
C1024 C1026 1.395 1_545 S
C1024 C1027 1.403 1_655 S
H1025 C1031 0.930 . S
C1026 H1012 0.930 . S
C1026 C1024 1.395 1_565 S
C1026 C1029 1.403 . S
C1027 C1024 1.403 1_455 S
C1027 C1028 1.524 . S
C1027 C1031 1.400 . S
C1028 H1013 0.960 . S
C1028 H1014 0.960 . S
C1028 H1015 0.960 . S
C1028 C1027 1.524 . S
C1029 C1026 1.403 . S
C1029 C1030 1.392 1_655 S
C1029 C1033 1.495 . S
C1030 C1029 1.392 1_455 S
C1030 C1031 1.385 1_565 S
C1030 C1032 1.478 . S
C1031 H1025 0.930 . S
C1031 C1027 1.400 . S
C1031 C1030 1.385 1_545 S
C1032 C1030 1.478 . S
C1032 C1034 1.381 . S
C1032 C1038 1.383 . S
C1033 C1029 1.495 . S
C1033 H1039 0.959 . S
C1033 H1040 0.961 . S
C1033 H1041 0.960 . S
C1034 C1032 1.381 . S
C1034 C1035 1.394 . S
C1034 H1042 0.930 . S
C1035 C1034 1.394 . S
C1035 C1036 1.383 . S
C1035 H1043 0.929 . S
C1036 C1035 1.383 . S
C1036 C1037 1.377 . S
C1037 H1021 0.930 . S
C1037 C1036 1.377 . S
C1037 C1038 1.379 . S
C1038 H1022 0.931 . S
C1038 C1032 1.383 . S
C1038 C1037 1.379 . S
H1039 C1033 0.959 . S
H1040 C1033 0.961 . S
H1041 C1033 0.960 . S
H1042 C1034 0.930 . S
H1043 C1035 0.929 . S
H1044 C1052 0.929 . S
H1045 C1054 0.930 . S
H1046 C1056 0.930 . S
H1047 C1059 0.929 . S
H1048 C1062 0.930 . S
H1049 C1064 0.993 . S
H1050 C1064 0.959 . S
H1051 C1064 0.948 1_655 S
C1052 H1044 0.929 . S
C1052 C1053 1.377 . S
C1052 C1054 1.384 . S
C1053 C1052 1.377 . S
C1053 C1059 1.390 . S
C1054 H1045 0.930 . S
C1054 C1052 1.384 . S
C1054 C1055 1.372 . S
C1055 C1054 1.372 . S
C1055 C1056 1.400 . S
C1055 C1060 1.490 . S
C1056 H1046 0.930 . S
C1056 C1055 1.400 . S
C1056 C1059 1.386 . S
H1057 C1073 0.930 . S
H1058 C1074 0.931 . S
C1059 H1047 0.929 . S
C1059 C1053 1.390 . S
C1059 C1056 1.386 . S
C1060 C1055 1.490 . S
C1060 C1062 1.395 . S
C1060 C1063 1.403 . S
H1061 C1067 0.930 . S
C1062 H1048 0.930 . S
C1062 C1060 1.395 . S
C1062 C1065 1.403 1_655 S
C1063 C1060 1.403 . S
C1063 C1064 1.511 1_655 S
C1063 C1067 1.400 1_655 S
C1064 H1049 0.993 . S
C1064 H1050 0.959 . S
C1064 H1051 0.948 1_455 S
C1064 C1063 1.511 1_455 S
C1065 C1062 1.403 1_455 S
C1065 C1066 1.393 . S
C1065 C1069 1.487 1_455 S
C1066 C1065 1.393 . S
C1066 C1067 1.385 . S
C1066 C1068 1.478 . S
C1067 H1061 0.930 . S
C1067 C1063 1.400 1_455 S
C1067 C1066 1.385 . S
C1068 C1066 1.478 . S
C1068 C1070 1.381 . S
C1068 C1074 1.383 . S
C1069 C1065 1.487 1_655 S
C1069 H1075 0.982 . S
C1069 H1076 0.956 . S
C1069 H1077 0.951 1_655 S
C1070 C1068 1.381 . S
C1070 C1071 1.394 . S
C1070 H1078 0.930 . S
C1071 C1070 1.394 . S
C1071 C1072 1.383 . S
C1071 H1079 0.929 . S
C1072 C1071 1.383 . S
C1072 C1073 1.377 . S
C1073 H1057 0.930 . S
C1073 C1072 1.377 . S
C1073 C1074 1.379 . S
C1074 H1058 0.931 . S
C1074 C1068 1.383 . S
C1074 C1073 1.379 . S
H1075 C1069 0.982 . S
H1076 C1069 0.956 . S
H1077 C1069 0.951 1_455 S
H1078 C1070 0.930 . S
H1079 C1071 0.929 . S
H1080 C1088 0.929 . S
H1081 C1090 0.930 . S
H1082 C1092 0.930 . S
H1083 C1095 0.929 . S
H1084 C1098 0.930 . S
H1085 C1100 0.960 . S
H1086 C1100 0.960 . S
H1087 C1100 0.960 . S
C1088 H1080 0.929 . S
C1088 C1089 1.377 . S
C1088 C1090 1.384 . S
C1089 C1088 1.377 . S
C1089 C1095 1.390 . S
C1090 H1081 0.930 . S
C1090 C1088 1.384 . S
C1090 C1091 1.372 . S
C1091 C1090 1.372 . S
C1091 C1092 1.400 . S
C1091 C1096 1.490 . S
C1092 H1082 0.930 . S
C1092 C1091 1.400 . S
C1092 C1095 1.386 . S
H1093 C1109 0.930 . S
H1094 C1110 0.931 . S
C1095 H1083 0.929 . S
C1095 C1089 1.390 . S
C1095 C1092 1.386 . S
C1096 C1091 1.490 . S
C1096 C1098 1.395 1_545 S
C1096 C1099 1.403 . S
H1097 C1103 0.930 . S
C1098 H1084 0.930 . S
C1098 C1096 1.395 1_565 S
C1098 C1101 1.403 . S
C1099 C1096 1.403 . S
C1099 C1100 1.524 . S
C1099 C1103 1.400 1_545 S
C1100 H1085 0.960 . S
C1100 H1086 0.960 . S
C1100 H1087 0.960 . S
C1100 C1099 1.524 . S
C1101 C1098 1.403 . S
C1101 C1102 1.392 . S
C1101 C1105 1.495 . S
C1102 C1101 1.392 . S
C1102 C1103 1.385 . S
C1102 C1104 1.478 . S
C1103 H1097 0.930 . S
C1103 C1099 1.400 1_565 S
C1103 C1102 1.385 . S
C1104 C1102 1.478 . S
C1104 C1106 1.381 . S
C1104 C1110 1.383 . S
C1105 C1101 1.495 . S
C1105 H1111 0.959 . S
C1105 H1112 0.961 . S
C1105 H1113 0.960 . S
C1106 C1104 1.381 . S
C1106 C1107 1.394 . S
C1106 H1114 0.930 . S
C1107 C1106 1.394 . S
C1107 C1108 1.383 . S
C1107 H1115 0.929 . S
C1108 C1107 1.383 . S
C1108 C1109 1.377 . S
C1109 H1093 0.930 . S
C1109 C1108 1.377 . S
C1109 C1110 1.379 . S
C1110 H1094 0.931 . S
C1110 C1104 1.383 . S
C1110 C1109 1.379 . S
H1111 C1105 0.959 . S
H1112 C1105 0.961 . S
H1113 C1105 0.960 . S
H1114 C1106 0.930 . S
H1115 C1107 0.929 . S
H1116 C1124 0.929 . S
H1117 C1126 0.930 . S
H1118 C1128 0.930 . S
H1119 C1131 0.929 . S
H1120 C1134 0.930 . S
H1121 C1136 0.960 . S
H1122 C1136 0.960 . S
H1123 C1136 0.960 . S
C1124 H1116 0.929 . S
C1124 C1125 1.377 . S
C1124 C1126 1.384 . S
C1125 C1124 1.377 . S
C1125 C1131 1.390 . S
C1126 H1117 0.930 . S
C1126 C1124 1.384 . S
C1126 C1127 1.372 . S
C1127 C1126 1.372 . S
C1127 C1128 1.400 . S
C1127 C1132 1.490 . S
C1128 H1118 0.930 . S
C1128 C1127 1.400 . S
C1128 C1131 1.386 . S
H1129 C1145 0.930 . S
H1130 C1146 0.931 . S
C1131 H1119 0.929 . S
C1131 C1125 1.390 . S
C1131 C1128 1.386 . S
C1132 C1127 1.490 . S
C1132 C1134 1.395 . S
C1132 C1135 1.403 . S
H1133 C1139 0.930 . S
C1134 H1120 0.930 . S
C1134 C1132 1.395 . S
C1134 C1137 1.403 . S
C1135 C1132 1.403 . S
C1135 C1136 1.524 . S
C1135 C1139 1.400 . S
C1136 H1121 0.960 . S
C1136 H1122 0.960 . S
C1136 H1123 0.960 . S
C1136 C1135 1.524 . S
C1137 C1134 1.403 . S
C1137 C1138 1.392 . S
C1137 C1141 1.495 . S
C1138 C1137 1.392 . S
C1138 C1139 1.385 . S
C1138 C1140 1.478 . S
C1139 H1133 0.930 . S
C1139 C1135 1.400 . S
C1139 C1138 1.385 . S
C1140 C1138 1.478 . S
C1140 C1142 1.381 . S
C1140 C1146 1.383 . S
C1141 C1137 1.495 . S
C1141 H1147 0.959 . S
C1141 H1148 0.961 . S
C1141 H1149 0.960 . S
C1142 C1140 1.381 . S
C1142 C1143 1.394 . S
C1142 H1150 0.930 . S
C1143 C1142 1.394 . S
C1143 C1144 1.383 . S
C1143 H1151 0.929 . S
C1144 C1143 1.383 . S
C1144 C1145 1.377 . S
C1145 H1129 0.930 . S
C1145 C1144 1.377 . S
C1145 C1146 1.379 . S
C1146 H1130 0.931 . S
C1146 C1140 1.383 . S
C1146 C1145 1.379 . S
H1147 C1141 0.959 . S
H1148 C1141 0.961 . S
H1149 C1141 0.960 . S
H1150 C1142 0.930 . S
H1151 C1143 0.929 . S
H1152 C1160 0.929 . S
H1153 C1162 0.930 . S
H1154 C1164 0.930 . S
H1155 C1167 0.929 . S
H1156 C1170 0.930 . S
H1157 C1172 0.960 . S
H1158 C1172 0.960 . S
H1159 C1172 0.960 . S
C1160 H1152 0.929 . S
C1160 C1161 1.377 . S
C1160 C1162 1.384 . S
C1161 C1160 1.377 . S
C1161 C1167 1.390 . S
C1162 H1153 0.930 . S
C1162 C1160 1.384 . S
C1162 C1163 1.372 . S
C1163 C1162 1.372 . S
C1163 C1164 1.400 . S
C1163 C1168 1.490 . S
C1164 H1154 0.930 . S
C1164 C1163 1.400 . S
C1164 C1167 1.386 . S
H1165 C1181 0.930 . S
H1166 C1182 0.931 . S
C1167 H1155 0.929 . S
C1167 C1161 1.390 . S
C1167 C1164 1.386 . S
C1168 C1163 1.490 . S
C1168 C1170 1.395 . S
C1168 C1171 1.403 . S
H1169 C1175 0.930 . S
C1170 H1156 0.930 . S
C1170 C1168 1.395 . S
C1170 C1173 1.403 1_455 S
C1171 C1168 1.403 . S
C1171 C1172 1.524 . S
C1171 C1175 1.400 1_455 S
C1172 H1157 0.960 . S
C1172 H1158 0.960 . S
C1172 H1159 0.960 . S
C1172 C1171 1.524 . S
C1173 C1170 1.403 1_655 S
C1173 C1174 1.392 . S
C1173 C1177 1.495 . S
C1174 C1173 1.392 . S
C1174 C1175 1.385 . S
C1174 C1176 1.478 . S
C1175 H1169 0.930 . S
C1175 C1171 1.400 1_655 S
C1175 C1174 1.385 . S
C1176 C1174 1.478 . S
C1176 C1178 1.381 . S
C1176 C1182 1.383 . S
C1177 C1173 1.495 . S
C1177 H1183 0.959 . S
C1177 H1184 0.961 . S
C1177 H1185 0.960 . S
C1178 C1176 1.381 . S
C1178 C1179 1.394 . S
C1178 H1186 0.930 . S
C1179 C1178 1.394 . S
C1179 C1180 1.383 . S
C1179 H1187 0.929 . S
C1180 C1179 1.383 . S
C1180 C1181 1.377 . S
C1181 H1165 0.930 . S
C1181 C1180 1.377 . S
C1181 C1182 1.379 . S
C1182 H1166 0.931 . S
C1182 C1176 1.383 . S
C1182 C1181 1.379 . S
H1183 C1177 0.959 . S
H1184 C1177 0.961 . S
H1185 C1177 0.960 . S
H1186 C1178 0.930 . S
H1187 C1179 0.929 . S
H1188 C1196 0.929 . S
H1189 C1198 0.930 . S
H1190 C1200 0.930 . S
H1191 C1203 0.929 . S
H1192 C1206 0.930 . S
H1193 C1208 0.960 . S
H1194 C1208 0.960 . S
H1195 C1208 0.960 1_565 S
C1196 H1188 0.929 . S
C1196 C1197 1.377 . S
C1196 C1198 1.384 . S
C1197 C1196 1.377 . S
C1197 C1203 1.390 . S
C1198 H1189 0.930 . S
C1198 C1196 1.384 . S
C1198 C1199 1.372 . S
C1199 C1198 1.372 . S
C1199 C1200 1.400 . S
C1199 C1204 1.490 . S
C1200 H1190 0.930 . S
C1200 C1199 1.400 . S
C1200 C1203 1.386 . S
H1201 C1217 0.930 . S
H1202 C1218 0.931 . S
C1203 H1191 0.929 . S
C1203 C1197 1.390 . S
C1203 C1200 1.386 . S
C1204 C1199 1.490 . S
C1204 C1206 1.395 . S
C1204 C1207 1.398 1_565 S
H1205 C1211 0.930 . S
C1206 H1192 0.930 . S
C1206 C1204 1.395 . S
C1206 C1209 1.403 . S
C1207 C1204 1.398 1_545 S
C1207 C1208 1.526 . S
C1207 C1211 1.403 . S
C1208 H1193 0.960 . S
C1208 H1194 0.960 . S
C1208 H1195 0.960 1_545 S
C1208 C1207 1.526 . S
C1209 C1206 1.403 . S
C1209 C1210 1.392 1_565 S
C1209 C1213 1.495 . S
C1210 C1209 1.392 1_545 S
C1210 C1211 1.385 . S
C1210 C1212 1.478 . S
C1211 H1205 0.930 . S
C1211 C1207 1.403 . S
C1211 C1210 1.385 . S
C1212 C1210 1.478 . S
C1212 C1214 1.381 . S
C1212 C1218 1.383 . S
C1213 C1209 1.495 . S
C1213 H1219 0.959 . S
C1213 H1220 0.961 . S
C1213 H1221 0.960 1_565 S
C1214 C1212 1.381 . S
C1214 C1215 1.394 . S
C1214 H1222 0.930 . S
C1215 C1214 1.394 . S
C1215 C1216 1.383 . S
C1215 H1223 0.929 . S
C1216 C1215 1.383 . S
C1216 C1217 1.377 . S
C1217 H1201 0.930 . S
C1217 C1216 1.377 . S
C1217 C1218 1.379 . S
C1218 H1202 0.931 . S
C1218 C1212 1.383 . S
C1218 C1217 1.379 . S
H1219 C1213 0.959 . S
H1220 C1213 0.961 . S
H1221 C1213 0.960 1_545 S
H1222 C1214 0.930 . S
H1223 C1215 0.929 . S
H1224 C1232 0.929 . S
H1225 C1234 0.930 . S
H1226 C1236 0.930 . S
H1227 C1239 0.929 . S
H1228 C1242 0.930 . S
H1229 C1244 0.960 . S
H1230 C1244 0.960 . S
H1231 C1244 0.960 . S
C1232 H1224 0.929 . S
C1232 C1233 1.377 . S
C1232 C1234 1.384 . S
C1233 C1232 1.377 . S
C1233 C1239 1.390 . S
C1234 H1225 0.930 . S
C1234 C1232 1.384 . S
C1234 C1235 1.372 . S
C1235 C1234 1.372 . S
C1235 C1236 1.400 . S
C1235 C1240 1.490 . S
C1236 H1226 0.930 . S
C1236 C1235 1.400 . S
C1236 C1239 1.386 . S
H1237 C1253 0.930 . S
H1238 C1254 0.931 . S
C1239 H1227 0.929 . S
C1239 C1233 1.390 . S
C1239 C1236 1.386 . S
C1240 C1235 1.490 . S
C1240 C1242 1.395 . S
C1240 C1243 1.403 . S
H1241 C1247 0.930 . S
C1242 H1228 0.930 . S
C1242 C1240 1.395 . S
C1242 C1245 1.403 . S
C1243 C1240 1.403 . S
C1243 C1244 1.524 . S
C1243 C1247 1.400 . S
C1244 H1229 0.960 . S
C1244 H1230 0.960 . S
C1244 H1231 0.960 . S
C1244 C1243 1.524 . S
C1245 C1242 1.403 . S
C1245 C1246 1.392 . S
C1245 C1249 1.495 . S
C1246 C1245 1.392 . S
C1246 C1247 1.385 . S
C1246 C1248 1.478 . S
C1247 H1241 0.930 . S
C1247 C1243 1.400 . S
C1247 C1246 1.385 . S
C1248 C1246 1.478 . S
C1248 C1250 1.381 . S
C1248 C1254 1.383 . S
C1249 C1245 1.495 . S
C1249 H1255 0.959 . S
C1249 H1256 0.961 . S
C1249 H1257 0.960 . S
C1250 C1248 1.381 . S
C1250 C1251 1.394 . S
C1250 H1258 0.930 . S
C1251 C1250 1.394 . S
C1251 C1252 1.383 . S
C1251 H1259 0.929 . S
C1252 C1251 1.383 . S
C1252 C1253 1.377 . S
C1253 H1237 0.930 . S
C1253 C1252 1.377 . S
C1253 C1254 1.379 . S
C1254 H1238 0.931 . S
C1254 C1248 1.383 . S
C1254 C1253 1.379 . S
H1255 C1249 0.959 . S
H1256 C1249 0.961 . S
H1257 C1249 0.960 . S
H1258 C1250 0.930 . S
H1259 C1251 0.929 . S
H1260 C1268 0.929 . S
H1261 C1270 0.930 . S
H1262 C1272 0.930 . S
H1263 C1275 0.929 . S
H1264 C1278 0.930 . S
H1265 C1280 0.960 . S
H1266 C1280 0.960 . S
H1267 C1280 0.960 . S
C1268 H1260 0.929 . S
C1268 C1269 1.377 . S
C1268 C1270 1.384 . S
C1269 C1268 1.377 . S
C1269 C1275 1.390 . S
C1270 H1261 0.930 . S
C1270 C1268 1.384 . S
C1270 C1271 1.372 . S
C1271 C1270 1.372 . S
C1271 C1272 1.400 . S
C1271 C1276 1.490 . S
C1272 H1262 0.930 . S
C1272 C1271 1.400 . S
C1272 C1275 1.386 . S
H1273 C1289 0.930 . S
H1274 C1290 0.931 . S
C1275 H1263 0.929 . S
C1275 C1269 1.390 . S
C1275 C1272 1.386 . S
C1276 C1271 1.490 . S
C1276 C1278 1.395 . S
C1276 C1279 1.403 . S
H1277 C1283 0.930 . S
C1278 H1264 0.930 . S
C1278 C1276 1.395 . S
C1278 C1281 1.403 . S
C1279 C1276 1.403 . S
C1279 C1280 1.524 . S
C1279 C1283 1.400 . S
C1280 H1265 0.960 . S
C1280 H1266 0.960 . S
C1280 H1267 0.960 . S
C1280 C1279 1.524 . S
C1281 C1278 1.403 . S
C1281 C1282 1.392 . S
C1281 C1285 1.495 . S
C1282 C1281 1.392 . S
C1282 C1283 1.385 . S
C1282 C1284 1.478 . S
C1283 H1277 0.930 . S
C1283 C1279 1.400 . S
C1283 C1282 1.385 . S
C1284 C1282 1.478 . S
C1284 C1286 1.381 . S
C1284 C1290 1.383 . S
C1285 C1281 1.495 . S
C1285 H1291 0.959 . S
C1285 H1292 0.961 . S
C1285 H1293 0.960 . S
C1286 C1284 1.381 . S
C1286 C1287 1.394 . S
C1286 H1294 0.930 . S
C1287 C1286 1.394 . S
C1287 C1288 1.383 . S
C1287 H1295 0.929 . S
C1288 C1287 1.383 . S
C1288 C1289 1.377 . S
C1289 H1273 0.930 . S
C1289 C1288 1.377 . S
C1289 C1290 1.379 . S
C1290 H1274 0.931 . S
C1290 C1284 1.383 . S
C1290 C1289 1.379 . S
H1291 C1285 0.959 . S
H1292 C1285 0.961 . S
H1293 C1285 0.960 . S
H1294 C1286 0.930 . S
H1295 C1287 0.929 . S
H1296 C1304 0.929 . S
H1297 C1306 0.930 . S
H1298 C1308 0.930 . S
H1299 C1311 0.929 . S
H1300 C1314 0.930 . S
H1301 C1316 0.960 . S
H1302 C1316 0.960 . S
H1303 C1316 0.960 . S
C1304 H1296 0.929 . S
C1304 C1305 1.377 . S
C1304 C1306 1.384 . S
C1305 C1304 1.377 . S
C1305 C1311 1.390 . S
C1306 H1297 0.930 . S
C1306 C1304 1.384 . S
C1306 C1307 1.372 . S
C1307 C1306 1.372 . S
C1307 C1308 1.400 . S
C1307 C1312 1.490 . S
C1308 H1298 0.930 . S
C1308 C1307 1.400 . S
C1308 C1311 1.386 . S
H1309 C1325 0.930 . S
H1310 C1326 0.931 . S
C1311 H1299 0.929 . S
C1311 C1305 1.390 . S
C1311 C1308 1.386 . S
C1312 C1307 1.490 . S
C1312 C1314 1.395 . S
C1312 C1315 1.403 . S
H1313 C1319 0.930 . S
C1314 H1300 0.930 . S
C1314 C1312 1.395 . S
C1314 C1317 1.403 . S
C1315 C1312 1.403 . S
C1315 C1316 1.524 . S
C1315 C1319 1.400 . S
C1316 H1301 0.960 . S
C1316 H1302 0.960 . S
C1316 H1303 0.960 . S
C1316 C1315 1.524 . S
C1317 C1314 1.403 . S
C1317 C1318 1.392 . S
C1317 C1321 1.495 . S
C1318 C1317 1.392 . S
C1318 C1319 1.385 . S
C1318 C1320 1.478 . S
C1319 H1313 0.930 . S
C1319 C1315 1.400 . S
C1319 C1318 1.385 . S
C1320 C1318 1.478 . S
C1320 C1322 1.381 . S
C1320 C1326 1.383 . S
C1321 C1317 1.495 . S
C1321 H1327 0.959 . S
C1321 H1328 0.961 . S
C1321 H1329 0.960 . S
C1322 C1320 1.381 . S
C1322 C1323 1.394 . S
C1322 H1330 0.930 . S
C1323 C1322 1.394 . S
C1323 C1324 1.383 . S
C1323 H1331 0.929 . S
C1324 C1323 1.383 . S
C1324 C1325 1.377 . S
C1325 H1309 0.930 . S
C1325 C1324 1.377 . S
C1325 C1326 1.379 . S
C1326 H1310 0.931 . S
C1326 C1320 1.383 . S
C1326 C1325 1.379 . S
H1327 C1321 0.959 . S
H1328 C1321 0.961 . S
H1329 C1321 0.960 . S
H1330 C1322 0.930 . S
H1331 C1323 0.929 . S
H1332 C1340 0.929 . S
H1333 C1342 0.930 . S
H1334 C1344 0.930 . S
H1335 C1347 0.929 1_455 S
H1336 C1350 0.930 . S
H1337 C1352 0.960 . S
H1338 C1352 0.960 . S
H1339 C1352 0.960 . S
C1340 H1332 0.929 . S
C1340 C1341 1.377 . S
C1340 C1342 1.384 . S
C1341 C1340 1.377 . S
C1341 C1347 1.390 . S
C1342 H1333 0.930 . S
C1342 C1340 1.384 . S
C1342 C1343 1.372 . S
C1343 C1342 1.372 . S
C1343 C1344 1.400 . S
C1343 C1348 1.490 . S
C1344 H1334 0.930 . S
C1344 C1343 1.400 . S
C1344 C1347 1.386 . S
H1345 C1361 0.930 . S
H1346 C1362 0.931 . S
C1347 H1335 0.929 1_655 S
C1347 C1341 1.390 . S
C1347 C1344 1.386 . S
C1348 C1343 1.490 . S
C1348 C1350 1.395 . S
C1348 C1351 1.403 . S
H1349 C1355 0.930 . S
C1350 H1336 0.930 . S
C1350 C1348 1.395 . S
C1350 C1353 1.403 . S
C1351 C1348 1.403 . S
C1351 C1352 1.524 . S
C1351 C1355 1.400 . S
C1352 H1337 0.960 . S
C1352 H1338 0.960 . S
C1352 H1339 0.960 . S
C1352 C1351 1.524 . S
C1353 C1350 1.403 . S
C1353 C1354 1.392 . S
C1353 C1357 1.495 . S
C1354 C1353 1.392 . S
C1354 C1355 1.385 . S
C1354 C1356 1.478 . S
C1355 H1349 0.930 . S
C1355 C1351 1.400 . S
C1355 C1354 1.385 . S
C1356 C1354 1.478 . S
C1356 C1358 1.381 . S
C1356 C1362 1.383 . S
C1357 C1353 1.495 . S
C1357 H1363 0.959 . S
C1357 H1364 0.961 . S
C1357 H1365 0.960 . S
C1358 C1356 1.381 . S
C1358 C1359 1.394 . S
C1358 H1366 0.930 . S
C1359 C1358 1.394 . S
C1359 C1360 1.383 . S
C1359 H1367 0.929 . S
C1360 C1359 1.383 . S
C1360 C1361 1.377 . S
C1361 H1345 0.930 . S
C1361 C1360 1.377 . S
C1361 C1362 1.379 . S
C1362 H1346 0.931 . S
C1362 C1356 1.383 . S
C1362 C1361 1.379 . S
H1363 C1357 0.959 . S
H1364 C1357 0.961 . S
H1365 C1357 0.960 . S
H1366 C1358 0.930 . S
H1367 C1359 0.929 . S
H1368 C1376 0.929 . S
H1369 C1378 0.930 . S
H1370 C1380 0.930 . S
H1371 C1383 0.929 . S
H1372 C1386 0.930 . S
H1373 C1388 0.960 . S
H1374 C1388 0.960 . S
H1375 C1388 0.960 . S
C1376 H1368 0.929 . S
C1376 C1377 1.377 . S
C1376 C1378 1.384 . S
C1377 C1376 1.377 . S
C1377 C1383 1.390 . S
C1378 H1369 0.930 . S
C1378 C1376 1.384 . S
C1378 C1379 1.372 . S
C1379 C1378 1.372 . S
C1379 C1380 1.400 . S
C1379 C1384 1.490 . S
C1380 H1370 0.930 . S
C1380 C1379 1.400 . S
C1380 C1383 1.386 . S
H1381 C1397 0.930 . S
H1382 C1398 0.931 . S
C1383 H1371 0.929 . S
C1383 C1377 1.390 . S
C1383 C1380 1.386 . S
C1384 C1379 1.490 . S
C1384 C1386 1.395 . S
C1384 C1387 1.403 . S
H1385 C1391 0.930 . S
C1386 H1372 0.930 . S
C1386 C1384 1.395 . S
C1386 C1389 1.403 . S
C1387 C1384 1.403 . S
C1387 C1388 1.524 . S
C1387 C1391 1.400 . S
C1388 H1373 0.960 . S
C1388 H1374 0.960 . S
C1388 H1375 0.960 . S
C1388 C1387 1.524 . S
C1389 C1386 1.403 . S
C1389 C1390 1.392 . S
C1389 C1393 1.495 . S
C1390 C1389 1.392 . S
C1390 C1391 1.385 . S
C1390 C1392 1.478 . S
C1391 H1385 0.930 . S
C1391 C1387 1.400 . S
C1391 C1390 1.385 . S
C1392 C1390 1.478 . S
C1392 C1394 1.381 . S
C1392 C1398 1.383 . S
C1393 C1389 1.495 . S
C1393 H1399 0.959 . S
C1393 H1400 0.961 . S
C1393 H1401 0.960 . S
C1394 C1392 1.381 . S
C1394 C1395 1.394 . S
C1394 H1402 0.930 . S
C1395 C1394 1.394 . S
C1395 C1396 1.383 . S
C1395 H1403 0.929 1_565 S
C1396 C1395 1.383 . S
C1396 C1397 1.377 . S
C1397 H1381 0.930 . S
C1397 C1396 1.377 . S
C1397 C1398 1.379 . S
C1398 H1382 0.931 . S
C1398 C1392 1.383 . S
C1398 C1397 1.379 . S
H1399 C1393 0.959 . S
H1400 C1393 0.961 . S
H1401 C1393 0.960 . S
H1402 C1394 0.930 . S
H1403 C1395 0.929 1_545 S
H1404 C1412 0.929 . S
H1405 C1414 0.930 . S
H1406 C1416 0.930 . S
H1407 C1419 0.929 . S
H1408 C1422 0.930 . S
H1409 C1424 0.960 . S
H1410 C1424 0.960 . S
H1411 C1424 0.960 . S
C1412 H1404 0.929 . S
C1412 C1413 1.377 . S
C1412 C1414 1.384 . S
C1413 C1412 1.377 . S
C1413 C1419 1.390 . S
C1414 H1405 0.930 . S
C1414 C1412 1.384 . S
C1414 C1415 1.372 . S
C1415 C1414 1.372 . S
C1415 C1416 1.400 . S
C1415 C1420 1.490 . S
C1416 H1406 0.930 . S
C1416 C1415 1.400 . S
C1416 C1419 1.386 . S
H1417 C1433 0.930 . S
H1418 C1434 0.931 . S
C1419 H1407 0.929 . S
C1419 C1413 1.390 . S
C1419 C1416 1.386 . S
C1420 C1415 1.490 . S
C1420 C1422 1.395 . S
C1420 C1423 1.403 . S
H1421 C1427 0.930 . S
C1422 H1408 0.930 . S
C1422 C1420 1.395 . S
C1422 C1425 1.403 . S
C1423 C1420 1.403 . S
C1423 C1424 1.524 . S
C1423 C1427 1.400 . S
C1424 H1409 0.960 . S
C1424 H1410 0.960 . S
C1424 H1411 0.960 . S
C1424 C1423 1.524 . S
C1425 C1422 1.403 . S
C1425 C1426 1.392 . S
C1425 C1429 1.495 . S
C1426 C1425 1.392 . S
C1426 C1427 1.385 . S
C1426 C1428 1.478 . S
C1427 H1421 0.930 . S
C1427 C1423 1.400 . S
C1427 C1426 1.385 . S
C1428 C1426 1.478 . S
C1428 C1430 1.381 . S
C1428 C1434 1.383 . S
C1429 C1425 1.495 . S
C1429 H1435 0.959 . S
C1429 H1436 0.961 . S
C1429 H1437 0.960 . S
C1430 C1428 1.381 . S
C1430 C1431 1.394 . S
C1430 H1438 0.930 . S
C1431 C1430 1.394 . S
C1431 C1432 1.383 . S
C1431 H1439 0.929 . S
C1432 C1431 1.383 . S
C1432 C1433 1.377 . S
C1433 H1417 0.930 . S
C1433 C1432 1.377 . S
C1433 C1434 1.379 . S
C1434 H1418 0.931 . S
C1434 C1428 1.383 . S
C1434 C1433 1.379 . S
H1435 C1429 0.959 . S
H1436 C1429 0.961 . S
H1437 C1429 0.960 . S
H1438 C1430 0.930 . S
H1439 C1431 0.929 . S
H1440 C1448 0.929 . S
H1441 C1450 0.930 . S
H1442 C1452 0.930 . S
H1443 C1455 0.929 . S
H1444 C1458 0.930 . S
H1445 C1460 0.960 . S
H1446 C1460 0.960 . S
H1447 C1460 0.960 . S
C1448 H1440 0.929 . S
C1448 C1449 1.377 . S
C1448 C1450 1.384 . S
C1449 C1448 1.377 . S
C1449 C1455 1.390 . S
C1450 H1441 0.930 . S
C1450 C1448 1.384 . S
C1450 C1451 1.372 . S
C1451 C1450 1.372 . S
C1451 C1452 1.400 . S
C1451 C1456 1.490 . S
C1452 H1442 0.930 . S
C1452 C1451 1.400 . S
C1452 C1455 1.386 . S
H1453 C1469 0.930 . S
H1454 C1470 0.931 . S
C1455 H1443 0.929 . S
C1455 C1449 1.390 . S
C1455 C1452 1.386 . S
C1456 C1451 1.490 . S
C1456 C1458 1.395 . S
C1456 C1459 1.403 . S
H1457 C1463 0.930 . S
C1458 H1444 0.930 . S
C1458 C1456 1.395 . S
C1458 C1461 1.403 . S
C1459 C1456 1.403 . S
C1459 C1460 1.524 . S
C1459 C1463 1.400 . S
C1460 H1445 0.960 . S
C1460 H1446 0.960 . S
C1460 H1447 0.960 . S
C1460 C1459 1.524 . S
C1461 C1458 1.403 . S
C1461 C1462 1.392 . S
C1461 C1465 1.495 . S
C1462 C1461 1.392 . S
C1462 C1463 1.385 . S
C1462 C1464 1.478 . S
C1463 H1457 0.930 . S
C1463 C1459 1.400 . S
C1463 C1462 1.385 . S
C1464 C1462 1.478 . S
C1464 C1466 1.381 . S
C1464 C1470 1.383 . S
C1465 C1461 1.495 . S
C1465 H1471 0.959 . S
C1465 H1472 0.961 . S
C1465 H1473 0.960 . S
C1466 C1464 1.381 . S
C1466 C1467 1.394 . S
C1466 H1474 0.930 . S
C1467 C1466 1.394 . S
C1467 C1468 1.383 . S
C1467 H1475 0.929 1_455 S
C1468 C1467 1.383 . S
C1468 C1469 1.377 . S
C1469 H1453 0.930 . S
C1469 C1468 1.377 . S
C1469 C1470 1.379 . S
C1470 H1454 0.931 . S
C1470 C1464 1.383 . S
C1470 C1469 1.379 . S
H1471 C1465 0.959 . S
H1472 C1465 0.961 . S
H1473 C1465 0.960 . S
H1474 C1466 0.930 . S
H1475 C1467 0.929 1_655 S
C405 N104 1.517 . S
C424 N5 1.522 . S
C441 N137 1.517 . S
C460 N38 1.521 . S
C477 N170 1.513 . S
C496 N71 1.504 . S
C513 N203 1.513 . S
C532 N302 1.503 . S
C549 N236 1.517 . S
C568 N335 1.517 . S
C585 N269 1.515 . S
C604 N368 1.514 . S
C621 C325 1.777 . S
C640 C28 1.782 . S
C657 C61 1.778 . S
C676 C358 1.777 . S
C693 C391 1.776 . S
C712 C94 1.785 . S
C729 C226 1.777 . S
C748 C127 1.784 . S
C765 C160 1.782 . S
C784 C259 1.760 . S
C801 C193 1.781 . S
C820 C292 1.763 . S
C837 N14 0.651 . S
C856 N113 0.583 . S
C873 N47 0.647 . S
C892 N146 0.588 . S
C909 N179 0.660 . S
C928 N80 0.603 . S
C945 N212 0.667 . S
C964 N311 0.732 . S
C981 N245 0.653 . S
C1000 N344 0.679 . S
C1017 N377 0.668 . S
C1036 N278 0.733 . S
C1053 C371 1.331 . S
C1072 C8 1.355 . S
C1089 C41 1.322 . S
C1108 C206 1.306 . S
C1125 C239 1.335 . S
C1144 C74 1.323 . S
C1161 C272 1.322 . S
C1180 C107 1.356 . S
C1197 C140 1.332 . S
C1216 C305 1.352 . S
C1233 C173 1.333 . S
C1252 C338 1.344 . S
C1269 C17 1.063 . S
C1288 C281 1.052 . S
C1305 C50 1.060 . S
C1324 C314 1.045 . S
C1341 C347 1.063 . S
C1360 C83 1.052 . S
C1377 C116 1.060 . S
C1396 C380 1.045 . S
C1413 C215 1.054 . S
C1432 C149 1.062 . S
C1449 C182 1.057 . S
C1468 C248 1.047 . S
