# Generated by pormake.
# Topology sms, (6)-cn, num edge types: 1
# Building blocks:
#     Node 0, Type 0, BuildingBlock: OJICUG_clean_sbu_0, # of connection points: 6
#     Node 1, Type 0, BuildingBlock: OJICUG_clean_sbu_0, # of connection points: 6
#     Node 2, Type 0, BuildingBlock: OJICUG_clean_sbu_0, # of connection points: 6
#     Node 3, Type 0, BuildingBlock: OJICUG_clean_sbu_0, # of connection points: 6
#     Node 4, Type 0, BuildingBlock: OJICUG_clean_sbu_0, # of connection points: 6
#     Node 5, Type 0, BuildingBlock: OJICUG_clean_sbu_0, # of connection points: 6
#     Node 6, Type 0, BuildingBlock: OJICUG_clean_sbu_0, # of connection points: 6
#     Node 7, Type 0, BuildingBlock: OJICUG_clean_sbu_0, # of connection points: 6
#     Node 8, Type 0, BuildingBlock: OJICUG_clean_sbu_0, # of connection points: 6
#     Node 9, Type 0, BuildingBlock: OJICUG_clean_sbu_0, # of connection points: 6
#     Node 10, Type 0, BuildingBlock: OJICUG_clean_sbu_0, # of connection points: 6
#     Node 11, Type 0, BuildingBlock: OJICUG_clean_sbu_0, # of connection points: 6
#     Node 12, Type 0, BuildingBlock: OJICUG_clean_sbu_0, # of connection points: 6
#     Node 13, Type 0, BuildingBlock: OJICUG_clean_sbu_0, # of connection points: 6
#     Node 14, Type 0, BuildingBlock: OJICUG_clean_sbu_0, # of connection points: 6
#     Node 15, Type 0, BuildingBlock: OJICUG_clean_sbu_0, # of connection points: 6
#     Node 16, Type 0, BuildingBlock: OJICUG_clean_sbu_0, # of connection points: 6
#     Node 17, Type 0, BuildingBlock: OJICUG_clean_sbu_0, # of connection points: 6
#     Edge 18, Type (0, 0), BuildingBlock: CIFDUS_clean_linker_0, # of connection points: 2
#     Edge 19, Type (0, 0), BuildingBlock: CIFDUS_clean_linker_0, # of connection points: 2
#     Edge 20, Type (0, 0), BuildingBlock: CIFDUS_clean_linker_0, # of connection points: 2
#     Edge 21, Type (0, 0), BuildingBlock: CIFDUS_clean_linker_0, # of connection points: 2
#     Edge 22, Type (0, 0), BuildingBlock: CIFDUS_clean_linker_0, # of connection points: 2
#     Edge 23, Type (0, 0), BuildingBlock: CIFDUS_clean_linker_0, # of connection points: 2
#     Edge 24, Type (0, 0), BuildingBlock: CIFDUS_clean_linker_0, # of connection points: 2
#     Edge 25, Type (0, 0), BuildingBlock: CIFDUS_clean_linker_0, # of connection points: 2
#     Edge 26, Type (0, 0), BuildingBlock: CIFDUS_clean_linker_0, # of connection points: 2
#     Edge 27, Type (0, 0), BuildingBlock: CIFDUS_clean_linker_0, # of connection points: 2
#     Edge 28, Type (0, 0), BuildingBlock: CIFDUS_clean_linker_0, # of connection points: 2
#     Edge 29, Type (0, 0), BuildingBlock: CIFDUS_clean_linker_0, # of connection points: 2
#     Edge 30, Type (0, 0), BuildingBlock: CIFDUS_clean_linker_0, # of connection points: 2
#     Edge 31, Type (0, 0), BuildingBlock: CIFDUS_clean_linker_0, # of connection points: 2
#     Edge 32, Type (0, 0), BuildingBlock: CIFDUS_clean_linker_0, # of connection points: 2
#     Edge 33, Type (0, 0), BuildingBlock: CIFDUS_clean_linker_0, # of connection points: 2
#     Edge 34, Type (0, 0), BuildingBlock: CIFDUS_clean_linker_0, # of connection points: 2
#     Edge 35, Type (0, 0), BuildingBlock: CIFDUS_clean_linker_0, # of connection points: 2
#     Edge 36, Type (0, 0), BuildingBlock: CIFDUS_clean_linker_0, # of connection points: 2
#     Edge 37, Type (0, 0), BuildingBlock: CIFDUS_clean_linker_0, # of connection points: 2
#     Edge 38, Type (0, 0), BuildingBlock: CIFDUS_clean_linker_0, # of connection points: 2
#     Edge 39, Type (0, 0), BuildingBlock: CIFDUS_clean_linker_0, # of connection points: 2
#     Edge 40, Type (0, 0), BuildingBlock: CIFDUS_clean_linker_0, # of connection points: 2
#     Edge 41, Type (0, 0), BuildingBlock: CIFDUS_clean_linker_0, # of connection points: 2
#     Edge 42, Type (0, 0), BuildingBlock: CIFDUS_clean_linker_0, # of connection points: 2
#     Edge 43, Type (0, 0), BuildingBlock: CIFDUS_clean_linker_0, # of connection points: 2
#     Edge 44, Type (0, 0), BuildingBlock: CIFDUS_clean_linker_0, # of connection points: 2
#     Edge 45, Type (0, 0), BuildingBlock: CIFDUS_clean_linker_0, # of connection points: 2
#     Edge 46, Type (0, 0), BuildingBlock: CIFDUS_clean_linker_0, # of connection points: 2
#     Edge 47, Type (0, 0), BuildingBlock: CIFDUS_clean_linker_0, # of connection points: 2
#     Edge 48, Type (0, 0), BuildingBlock: CIFDUS_clean_linker_0, # of connection points: 2
#     Edge 49, Type (0, 0), BuildingBlock: CIFDUS_clean_linker_0, # of connection points: 2
#     Edge 50, Type (0, 0), BuildingBlock: CIFDUS_clean_linker_0, # of connection points: 2
#     Edge 51, Type (0, 0), BuildingBlock: CIFDUS_clean_linker_0, # of connection points: 2
#     Edge 52, Type (0, 0), BuildingBlock: CIFDUS_clean_linker_0, # of connection points: 2
#     Edge 53, Type (0, 0), BuildingBlock: CIFDUS_clean_linker_0, # of connection points: 2
#     Edge 54, Type (0, 0), BuildingBlock: CIFDUS_clean_linker_0, # of connection points: 2
#     Edge 55, Type (0, 0), BuildingBlock: CIFDUS_clean_linker_0, # of connection points: 2
#     Edge 56, Type (0, 0), BuildingBlock: CIFDUS_clean_linker_0, # of connection points: 2
#     Edge 57, Type (0, 0), BuildingBlock: CIFDUS_clean_linker_0, # of connection points: 2
#     Edge 58, Type (0, 0), BuildingBlock: CIFDUS_clean_linker_0, # of connection points: 2
#     Edge 59, Type (0, 0), BuildingBlock: CIFDUS_clean_linker_0, # of connection points: 2
#     Edge 60, Type (0, 0), BuildingBlock: CIFDUS_clean_linker_0, # of connection points: 2
#     Edge 61, Type (0, 0), BuildingBlock: CIFDUS_clean_linker_0, # of connection points: 2
#     Edge 62, Type (0, 0), BuildingBlock: CIFDUS_clean_linker_0, # of connection points: 2
#     Edge 63, Type (0, 0), BuildingBlock: CIFDUS_clean_linker_0, # of connection points: 2
#     Edge 64, Type (0, 0), BuildingBlock: CIFDUS_clean_linker_0, # of connection points: 2
#     Edge 65, Type (0, 0), BuildingBlock: CIFDUS_clean_linker_0, # of connection points: 2
#     Edge 66, Type (0, 0), BuildingBlock: CIFDUS_clean_linker_0, # of connection points: 2
#     Edge 67, Type (0, 0), BuildingBlock: CIFDUS_clean_linker_0, # of connection points: 2
#     Edge 68, Type (0, 0), BuildingBlock: CIFDUS_clean_linker_0, # of connection points: 2
#     Edge 69, Type (0, 0), BuildingBlock: CIFDUS_clean_linker_0, # of connection points: 2
#     Edge 70, Type (0, 0), BuildingBlock: CIFDUS_clean_linker_0, # of connection points: 2
#     Edge 71, Type (0, 0), BuildingBlock: CIFDUS_clean_linker_0, # of connection points: 2
# Relax obj value: 0.417
# Max RMSD: 0.152
# Mean RMSD: 0.152
data_MOF--net-sms--node1-OJICUG_clean_sbu_0--edge1-CIFDUS_clean_linker_0
_symmetry_space_group_name_H-M    P1
_symmetry_Int_Tables_number       1
_symmetry_cell_setting            triclinic
loop_
_symmetry_equiv_pos_as_xyz
'x, y, z'
_cell_length_a     35.941007
_cell_length_b     35.980522
_cell_length_c     50.477271
_cell_angle_alpha  90.018045
_cell_angle_beta   90.160393
_cell_angle_gamma 120.08954
loop_
_atom_site_label
_atom_site_type_symbol
_atom_site_fract_x
_atom_site_fract_y
_atom_site_fract_z
_atom_type_partial_charge
Sc0 Sc 0.21136 0.4269 0.02934 0.0
Sc1 Sc 0.16809 0.33159 0.06724 0.0
Sc2 Sc 0.22274 0.43267 0.09842 0.0
O3 O 0.20071 0.39703 0.06499 0.0
C4 C 0.29951 0.49014 0.05932 0.0
C5 C 0.22868 0.35135 0.01679 0.0
C6 C 0.2442 0.35789 0.10829 0.0
C7 C 0.11626 0.34715 0.02232 0.0
C8 C 0.18489 0.48213 0.06544 0.0
C9 C 0.13197 0.35601 0.11726 0.0
O10 O 0.27607 0.47614 0.03875 0.0
O11 O 0.20232 0.32652 0.03409 0.0
O12 O 0.24889 0.39475 0.11261 0.0
O13 O 0.14834 0.38192 0.01439 0.0
O14 O 0.19833 0.47384 0.08673 0.0
O15 O 0.12885 0.32885 0.10015 0.0
O16 O 0.18621 0.46665 0.043 0.0
O17 O 0.11737 0.32643 0.04235 0.0
O18 O 0.16339 0.3941 0.11855 0.0
O19 O 0.2378 0.38998 0.01344 0.0
O20 O 0.28522 0.47626 0.08236 0.0
O21 O 0.21661 0.33067 0.09231 0.0
Sc22 Sc 0.57806 0.79114 0.03483 0.0
Sc23 Sc 0.6741 0.8464 0.07271 0.0
Sc24 Sc 0.57399 0.79603 0.10445 0.0
O25 O 0.60863 0.81113 0.07057 0.0
C26 C 0.51669 0.81712 0.06542 0.0
C27 C 0.6534 0.88635 0.02247 0.0
C28 C 0.64683 0.89306 0.11512 0.0
C29 C 0.65792 0.77628 0.02876 0.0
C30 C 0.5209 0.70926 0.07147 0.0
C31 C 0.6523 0.78289 0.12111 0.0
O32 O 0.53162 0.8108 0.0441 0.0
O33 O 0.67676 0.88805 0.04182 0.0
O34 O 0.61022 0.86029 0.11909 0.0
O35 O 0.62057 0.7685 0.02196 0.0
O36 O 0.53322 0.73008 0.09311 0.0
O37 O 0.67811 0.80729 0.10356 0.0
O38 O 0.53423 0.72688 0.04895 0.0
O39 O 0.68071 0.80384 0.04618 0.0
O40 O 0.61457 0.77677 0.12399 0.0
O41 O 0.61761 0.85331 0.01671 0.0
O42 O 0.52917 0.81303 0.08827 0.0
O43 O 0.67425 0.8935 0.0992 0.0
Sc44 Sc 0.20323 0.78124 0.01728 0.0
Sc45 Sc 0.163 0.83085 0.06022 0.0
Sc46 Sc 0.21429 0.77776 0.08625 0.0
O47 O 0.19352 0.79661 0.0545 0.0
C48 C 0.17823 0.69534 0.04923 0.0
C49 C 0.10863 0.76712 0.01322 0.0
C50 C 0.12288 0.76186 0.1056 0.0
C51 C 0.22315 0.87758 0.0112 0.0
C52 C 0.29147 0.80362 0.04538 0.0
C53 C 0.2388 0.87251 0.10262 0.0
O54 O 0.18377 0.71612 0.02785 0.0
O55 O 0.11435 0.79392 0.03138 0.0
O56 O 0.15583 0.75772 0.1076 0.0
O57 O 0.22434 0.84498 0.00262 0.0
O58 O 0.2751 0.79533 0.06841 0.0
O59 O 0.20915 0.87332 0.08936 0.0
O60 O 0.27001 0.80109 0.02468 0.0
O61 O 0.20285 0.87719 0.03179 0.0
O62 O 0.24471 0.84064 0.10299 0.0
O63 O 0.1374 0.75852 0.00618 0.0
O64 O 0.18658 0.71305 0.07194 0.0
O65 O 0.11943 0.7862 0.08887 0.0
Sc66 Sc 0.44067 0.2241 0.89012 0.0
Sc67 Sc 0.33308 0.16221 0.90863 0.0
Sc68 Sc 0.41413 0.2156 0.95716 0.0
O69 O 0.39596 0.20082 0.91872 0.0
C70 C 0.48653 0.1991 0.93556 0.0
C71 C 0.37993 0.1287 0.87069 0.0
C72 C 0.3416 0.11656 0.95919 0.0
C73 C 0.36409 0.23372 0.86517 0.0
C74 C 0.4781 0.30437 0.92815 0.0
C75 C 0.32957 0.22075 0.95467 0.0
O76 O 0.48385 0.21125 0.91235 0.0
O77 O 0.34541 0.1259 0.87916 0.0
O78 O 0.36929 0.15121 0.97044 0.0
O79 O 0.40192 0.23933 0.86494 0.0
O80 O 0.46206 0.28163 0.94881 0.0
O81 O 0.3118 0.19124 0.93742 0.0
O82 O 0.47007 0.28848 0.90496 0.0
O83 O 0.33486 0.20823 0.88079 0.0
O84 O 0.36815 0.23613 0.96251 0.0
O85 O 0.41658 0.16167 0.87389 0.0
O86 O 0.4621 0.19664 0.95446 0.0
O87 O 0.32739 0.11499 0.93597 0.0
Sc88 Sc 0.77955 0.21698 0.88477 0.0
Sc89 Sc 0.83103 0.16739 0.91529 0.0
Sc90 Sc 0.7858 0.21706 0.95439 0.0
O91 O 0.79893 0.20061 0.91825 0.0
C92 C 0.81092 0.30126 0.92023 0.0
C93 C 0.87265 0.23476 0.86864 0.0
C94 C 0.88033 0.23262 0.96267 0.0
C95 C 0.75922 0.12224 0.87093 0.0
C96 C 0.69927 0.19023 0.92256 0.0
C97 C 0.76757 0.12175 0.96374 0.0
O98 O 0.80253 0.28149 0.89821 0.0
O99 O 0.87482 0.20962 0.8854 0.0
O100 O 0.84961 0.23863 0.96911 0.0
O101 O 0.75402 0.15432 0.86798 0.0
O102 O 0.72016 0.19706 0.94408 0.0
O103 O 0.79113 0.12251 0.94482 0.0
O104 O 0.71656 0.19593 0.89992 0.0
O105 O 0.78614 0.12169 0.88699 0.0
O106 O 0.76311 0.1535 0.97009 0.0
O107 O 0.8404 0.23989 0.86623 0.0
O108 O 0.80655 0.28263 0.94242 0.0
O109 O 0.87826 0.20832 0.94378 0.0
Sc110 Sc 0.78529 0.56669 0.87986 0.0
Sc111 Sc 0.82642 0.67243 0.90278 0.0
Sc112 Sc 0.78039 0.58528 0.94766 0.0
O113 O 0.7974 0.60811 0.91013 0.0
C114 C 0.6987 0.51968 0.914 0.0
C115 C 0.7639 0.63407 0.85329 0.0
C116 C 0.75807 0.66102 0.94563 0.0
C117 C 0.87968 0.64327 0.86688 0.0
C118 C 0.80874 0.52003 0.92494 0.0
C119 C 0.87186 0.66752 0.95605 0.0
O120 O 0.72035 0.52542 0.89294 0.0
O121 O 0.78695 0.66498 0.86875 0.0
O122 O 0.75861 0.62989 0.95719 0.0
O123 O 0.84907 0.60475 0.86475 0.0
O124 O 0.79882 0.53675 0.94383 0.0
O125 O 0.86782 0.68786 0.93673 0.0
O126 O 0.80752 0.52955 0.90088 0.0
O127 O 0.87716 0.67211 0.87996 0.0
O128 O 0.84445 0.62886 0.9618 0.0
O129 O 0.76073 0.59748 0.85498 0.0
O130 O 0.71534 0.53949 0.93562 0.0
O131 O 0.7791 0.67847 0.92476 0.0
Sc132 Sc 0.8754 0.74364 0.35349 0.0
Sc133 Sc 0.8249 0.66172 0.40223 0.0
Sc134 Sc 0.86726 0.76932 0.41938 0.0
O135 O 0.85609 0.72488 0.39154 0.0
C136 C 0.95595 0.81173 0.388 0.0
C137 C 0.89261 0.66534 0.36019 0.0
C138 C 0.88516 0.70302 0.45128 0.0
C139 C 0.77995 0.66298 0.34801 0.0
C140 C 0.84754 0.81168 0.36963 0.0
C141 C 0.77351 0.69735 0.43428 0.0
O142 O 0.9395 0.79286 0.36604 0.0
O143 O 0.8659 0.64762 0.37882 0.0
O144 O 0.88407 0.73758 0.44907 0.0
O145 O 0.81253 0.6963 0.33859 0.0
O146 O 0.85163 0.80719 0.39415 0.0
O147 O 0.77914 0.66643 0.42782 0.0
O148 O 0.85448 0.79068 0.35201 0.0
O149 O 0.7797 0.647 0.37055 0.0
O150 O 0.80161 0.73647 0.43091 0.0
O151 O 0.89961 0.7 0.34919 0.0
O152 O 0.93394 0.80558 0.40894 0.0
O153 O 0.86836 0.67263 0.43455 0.0
Sc154 Sc 0.24354 0.11878 0.35337 0.0
Sc155 Sc 0.32551 0.16528 0.4026 0.0
Sc156 Sc 0.21702 0.10611 0.42074 0.0
O157 O 0.26207 0.12979 0.39215 0.0
C158 C 0.17146 0.13498 0.37725 0.0
C159 C 0.31936 0.21675 0.35343 0.0
C160 C 0.28189 0.20005 0.44208 0.0
C161 C 0.3263 0.10859 0.35437 0.0
C162 C 0.17771 0.02832 0.38012 0.0
C163 C 0.29128 0.09277 0.4461 0.0
O164 O 0.19496 0.13711 0.35784 0.0
O165 O 0.33524 0.21458 0.37542 0.0
O166 O 0.24448 0.16777 0.43934 0.0
O167 O 0.28942 0.0985 0.34521 0.0
O168 O 0.18456 0.04281 0.4037 0.0
O169 O 0.32179 0.11945 0.43159 0.0
O170 O 0.19569 0.05209 0.36008 0.0
O171 O 0.34381 0.13362 0.37393 0.0
O172 O 0.25324 0.08637 0.44483 0.0
O173 O 0.28825 0.18454 0.34206 0.0
O174 O 0.17537 0.12292 0.40021 0.0
O175 O 0.31525 0.20276 0.43179 0.0
Sc176 Sc 0.86887 0.11578 0.35582 0.0
Sc177 Sc 0.82139 0.1571 0.40025 0.0
Sc178 Sc 0.86532 0.09622 0.42427 0.0
O179 O 0.85186 0.12304 0.39335 0.0
C180 C 0.83738 0.02293 0.38032 0.0
C181 C 0.77486 0.10282 0.34855 0.0
C182 C 0.77309 0.08023 0.44054 0.0
C183 C 0.88916 0.21255 0.35569 0.0
C184 C 0.9506 0.13119 0.38947 0.0
C185 C 0.88742 0.18767 0.44769 0.0
O186 O 0.84566 0.0476 0.36044 0.0
O187 O 0.77537 0.12208 0.36978 0.0
O188 O 0.80212 0.07003 0.44032 0.0
O189 O 0.89481 0.18282 0.34662 0.0
O190 O 0.93012 0.11963 0.4112 0.0
O191 O 0.86525 0.19507 0.43121 0.0
O192 O 0.93296 0.13117 0.36757 0.0
O193 O 0.86306 0.20712 0.37409 0.0
O194 O 0.88937 0.1534 0.44787 0.0
O195 O 0.80651 0.09946 0.34039 0.0
O196 O 0.84277 0.03628 0.40408 0.0
O197 O 0.77595 0.11218 0.42819 0.0
Sc198 Sc 0.10169 0.54495 0.21417 0.0
Sc199 Sc 0.99364 0.49333 0.2335 0.0
Sc200 Sc 0.07684 0.53027 0.28202 0.0
O201 O 0.05742 0.52273 0.24333 0.0
C202 C 0.1442 0.50863 0.25455 0.0
C203 C 0.02902 0.45666 0.18947 0.0
C204 C -0.00326 0.43464 0.27949 0.0
C205 C 0.03432 0.57236 0.19454 0.0
C206 C 0.1459 0.61998 0.25711 0.0
C207 C -0.00088 0.54908 0.28392 0.0
O208 O 0.13825 0.51869 0.23143 0.0
O209 O -0.00201 0.45467 0.20245 0.0
O210 O 0.03074 0.46395 0.29058 0.0
O211 O 0.07088 0.57504 0.19454 0.0
O212 O 0.12536 0.59714 0.27696 0.0
O213 O 0.98138 0.52817 0.26299 0.0
O214 O 0.14054 0.60507 0.23373 0.0
O215 O 0.00227 0.54416 0.20732 0.0
O216 O 0.03308 0.55207 0.29381 0.0
O217 O 0.06759 0.48687 0.19189 0.0
O218 O 0.1244 0.51105 0.2748 0.0
O219 O 0.97964 0.44079 0.25918 0.0
Sc220 Sc 0.45304 0.55578 0.21013 0.0
Sc221 Sc 0.50359 0.5004 0.2336 0.0
Sc222 Sc 0.44803 0.53216 0.27808 0.0
O223 O 0.46802 0.52927 0.24068 0.0
C224 C 0.47151 0.62428 0.25617 0.0
C225 C 0.55151 0.58585 0.19977 0.0
C226 C 0.54306 0.54921 0.28816 0.0
C227 C 0.44473 0.47217 0.18245 0.0
C228 C 0.36542 0.5121 0.24269 0.0
C229 C 0.43325 0.43679 0.27435 0.0
O230 O 0.46691 0.61225 0.23216 0.0
O231 O 0.55158 0.55464 0.21145 0.0
O232 O 0.5108 0.55237 0.29528 0.0
O233 O 0.43722 0.50297 0.18394 0.0
O234 O 0.3832 0.51337 0.26486 0.0
O235 O 0.45972 0.44461 0.25564 0.0
O236 O 0.38638 0.52481 0.22113 0.0
O237 O 0.46758 0.46618 0.19909 0.0
O238 O 0.42677 0.46522 0.28487 0.0
O239 O 0.51846 0.58975 0.19749 0.0
O240 O 0.46658 0.59936 0.27538 0.0
O241 O 0.54369 0.5304 0.2671 0.0
Sc242 Sc 0.44513 0.89806 0.20986 0.0
Sc243 Sc 0.49107 -0.00241 0.24209 0.0
Sc244 Sc 0.44432 0.90142 0.2795 0.0
O245 O 0.46016 0.93228 0.24392 0.0
C246 C 0.36128 0.84172 0.2442 0.0
C247 C 0.42349 0.9717 0.19565 0.0
C248 C 0.4249 0.97695 0.28935 0.0
C249 C 0.5385 0.97523 0.19724 0.0
C250 C 0.47343 0.84443 0.24729 0.0
C251 C 0.53852 0.98136 0.28967 0.0
O252 O 0.37992 0.85599 0.2221 0.0
O253 O 0.44496 -0.00302 0.21439 0.0
O254 O 0.41666 0.93876 0.29348 0.0
O255 O 0.5089 0.93637 0.19504 0.0
O256 O 0.46906 0.85953 0.26911 0.0
O257 O 0.53812 0.00296 0.26993 0.0
O258 O 0.46501 0.85488 0.22497 0.0
O259 O 0.53584 0.00223 0.21208 0.0
O260 O 0.50646 0.94559 0.2966 0.0
O261 O 0.42316 0.93691 0.19084 0.0
O262 O 0.38078 0.85399 0.26633 0.0
O263 O 0.45225 0.00177 0.27255 0.0
Sc264 Sc 0.54184 0.08067 0.69226 0.0
Sc265 Sc 0.49991 0.991 0.73561 0.0
Sc266 Sc 0.55176 0.09581 0.76123 0.0
O267 O 0.53121 0.05581 0.7296 0.0
C268 C 0.62913 0.14852 0.72087 0.0
C269 C 0.55988 0.00343 0.68616 0.0
C270 C 0.57637 0.0256 0.77766 0.0
C271 C 0.44701 -0.00024 0.68775 0.0
C272 C 0.51458 0.14027 0.72347 0.0
C273 C 0.46096 0.02072 0.78147 0.0
O274 O 0.60792 0.12948 0.70013 0.0
O275 O 0.53761 0.98269 0.70605 0.0
O276 O 0.58162 0.06316 0.77846 0.0
O277 O 0.47737 0.03561 0.67962 0.0
O278 O 0.52395 0.13219 0.74625 0.0
O279 O 0.45745 0.99229 0.76522 0.0
O280 O 0.52003 0.12472 0.70218 0.0
O281 O 0.45029 0.9801 0.7077 0.0
O282 O 0.49353 0.05811 0.78263 0.0
O283 O 0.56444 0.03914 0.67863 0.0
O284 O 0.6127 0.13944 0.74384 0.0
O285 O 0.54741 0.9952 0.76391 0.0
Sc286 Sc 0.91132 0.45278 0.70258 0.0
Sc287 Sc 0.00255 0.49955 0.74454 0.0
Sc288 Sc 0.89933 0.45815 0.77108 0.0
O289 O 0.93764 0.47013 0.73934 0.0
C290 C 0.85192 0.48562 0.72891 0.0
C291 C 0.99439 0.54173 0.69081 0.0
C292 C 0.97774 0.55304 0.78239 0.0
C293 C 0.98511 0.42748 0.7031 0.0
C294 C 0.84544 0.37232 0.73655 0.0
C295 C 0.96885 0.4382 0.79472 0.0
O296 O 0.86509 0.47373 0.70902 0.0
O297 O 0.01612 0.53746 0.70919 0.0
O298 O 0.94102 0.52084 0.78744 0.0
O299 O 0.95405 0.42904 0.69197 0.0
O300 O 0.85372 0.39418 0.7578 0.0
O301 O -0.00069 0.46491 0.78024 0.0
O302 O 0.86476 0.38834 0.71482 0.0
O303 O 0.00458 0.44918 0.72353 0.0
O304 O 0.93051 0.43046 0.79264 0.0
O305 O 0.95459 0.51574 0.68711 0.0
O306 O 0.86351 0.48411 0.7525 0.0
O307 O 0.00384 0.55221 0.76581 0.0
Sc308 Sc 0.53811 0.44438 0.67658 0.0
Sc309 Sc 0.49339 0.48115 0.72411 0.0
Sc310 Sc 0.55189 0.43386 0.74352 0.0
O311 O 0.52778 0.45301 0.71449 0.0
C312 C 0.52215 0.35844 0.70111 0.0
C313 C 0.43951 0.42172 0.67811 0.0
C314 C 0.46048 0.40506 0.76443 0.0
C315 C 0.54503 0.53345 0.67346 0.0
C316 C 0.62902 0.47164 0.70448 0.0
C317 C 0.57025 0.52455 0.76294 0.0
O318 O 0.51458 0.37708 0.68226 0.0
O319 O 0.44043 0.43433 0.70175 0.0
O320 O 0.48904 0.39571 0.75867 0.0
O321 O 0.5623 0.5109 0.66861 0.0
O322 O 0.6155 0.47001 0.72795 0.0
O323 O 0.54819 0.52981 0.74526 0.0
O324 O 0.60405 0.45928 0.6843 0.0
O325 O 0.51545 0.52315 0.69041 0.0
O326 O 0.56513 0.48787 0.76863 0.0
O327 O 0.47306 0.42828 0.66547 0.0
O328 O 0.54067 0.37731 0.72253 0.0
O329 O 0.46393 0.44111 0.75884 0.0
Sc330 Sc 0.75557 0.88417 0.54546 0.0
Sc331 Sc 0.65321 0.82245 0.57141 0.0
Sc332 Sc 0.74402 0.86393 0.6131 0.0
O333 O 0.71766 0.85665 0.57674 0.0
C334 C 0.80844 0.85004 0.57608 0.0
C335 C 0.68198 0.79399 0.52181 0.0
C336 C 0.67018 0.76834 0.61471 0.0
C337 C 0.68066 0.90118 0.53262 0.0
C338 C 0.80447 0.95566 0.59037 0.0
C339 C 0.66252 0.87472 0.62293 0.0
O340 O 0.79346 0.8545 0.55416 0.0
O341 O 0.65796 0.78211 0.54205 0.0
O342 O 0.70899 0.79634 0.61932 0.0
O343 O 0.72068 0.91588 0.53572 0.0
O344 O 0.78272 0.93258 0.60976 0.0
O345 O 0.6457 0.86124 0.60026 0.0
O346 O 0.80009 0.94101 0.56695 0.0
O347 O 0.6522 0.8645 0.54095 0.0
O348 O 0.69476 0.87268 0.63157 0.0
O349 O 0.71531 0.83097 0.51961 0.0
O350 O 0.79598 0.8561 0.59844 0.0
O351 O 0.64514 0.77549 0.60057 0.0
Sc352 Sc 0.11237 0.89279 0.5616 0.0
Sc353 Sc 0.15761 0.83081 0.58097 0.0
Sc354 Sc 0.11265 0.8693 0.62877 0.0
O355 O 0.12763 0.86438 0.59058 0.0
C356 C 0.14116 0.96286 0.6079 0.0
C357 C 0.20283 0.91083 0.54184 0.0
C358 C 0.20767 0.88219 0.6322 0.0
C359 C 0.088 0.80184 0.53614 0.0
C360 C 0.02908 0.85542 0.59742 0.0
C361 C 0.09306 0.77322 0.6267 0.0
O362 O 0.1325 0.95042 0.58399 0.0
O363 O 0.19866 0.87596 0.55083 0.0
O364 O 0.17537 0.88236 0.64252 0.0
O365 O 0.08942 0.83784 0.53602 0.0
O366 O 0.04864 0.85675 0.6188 0.0
O367 O 0.12123 0.78047 0.6092 0.0
O368 O 0.04771 0.86598 0.57511 0.0
O369 O 0.10901 0.79231 0.55229 0.0
O370 O 0.08469 0.80159 0.6348 0.0
O371 O 0.17558 0.92269 0.54577 0.0
O372 O 0.13731 0.93782 0.6268 0.0
O373 O 0.20703 0.86685 0.60939 0.0
Sc374 Sc 0.11049 0.22483 0.54929 0.0
Sc375 Sc 0.15469 0.32838 0.57575 0.0
Sc376 Sc 0.1057 0.23694 0.61806 0.0
O377 O 0.12358 0.26341 0.58113 0.0
C378 C 0.02454 0.17332 0.58319 0.0
C379 C 0.09034 0.29556 0.52699 0.0
C380 C 0.08505 0.31342 0.61941 0.0
C381 C 0.20466 0.30125 0.53612 0.0
C382 C 0.13798 0.17736 0.59167 0.0
C383 C 0.19887 0.31709 0.62764 0.0
O384 O 0.04587 0.18232 0.56182 0.0
O385 O 0.11436 0.32518 0.54301 0.0
O386 O 0.08138 0.27889 0.62869 0.0
O387 O 0.17348 0.26322 0.53364 0.0
O388 O 0.12792 0.19152 0.6119 0.0
O389 O 0.19766 0.33808 0.60777 0.0
O390 O 0.13376 0.18721 0.56816 0.0
O391 O 0.20357 0.32955 0.55049 0.0
O392 O 0.16813 0.28041 0.63423 0.0
O393 O 0.08597 0.25837 0.52717 0.0
O394 O 0.04138 0.19031 0.60538 0.0
O395 O 0.10986 0.33426 0.60047 0.0
H396 H 0.16295 0.64019 0.08998 0.0
H397 H 0.16698 0.64765 0.0045 0.0
H398 H 0.16267 0.57797 0.00199 0.0
H399 H 0.16947 0.52112 0.02411 0.0
H400 H 0.16886 0.51567 0.10963 0.0
H401 H 0.15962 0.57817 0.11194 0.0
C402 C 0.16221 0.62636 0.07075 0.0
C403 C 0.16643 0.64969 0.04751 0.0
C404 C 0.16086 0.58684 0.06942 0.0
C405 C 0.16446 0.63076 0.02277 0.0
C406 C 0.16216 0.59094 0.02128 0.0
C407 C 0.16653 0.53306 0.04326 0.0
C408 C 0.17096 0.51438 0.06664 0.0
C409 C 0.16221 0.56963 0.0445 0.0
C410 C 0.16647 0.52997 0.09129 0.0
C411 C 0.16119 0.56575 0.09266 0.0
H412 H 0.47223 0.6582 0.03062 0.0
H413 H 0.49069 0.65766 0.11518 0.0
H414 H 0.42585 0.58745 0.11847 0.0
H415 H 0.35969 0.53025 0.09822 0.0
H416 H 0.34027 0.53188 0.01381 0.0
H417 H 0.40982 0.59725 0.00971 0.0
C418 C 0.46257 0.64247 0.04972 0.0
C419 C 0.48609 0.66364 0.07264 0.0
C420 C 0.4247 0.60239 0.05161 0.0
C421 C 0.473 0.64249 0.09721 0.0
C422 C 0.4358 0.6023 0.09915 0.0
C423 C 0.37079 0.54456 0.07885 0.0
C424 C 0.34425 0.52639 0.05646 0.0
C425 C 0.41066 0.5826 0.07662 0.0
C426 C 0.35964 0.54525 0.03149 0.0
C427 C 0.39948 0.58277 0.02909 0.0
H428 H 0.46641 0.8093 0.02251 0.0
H429 H 0.4853 0.84452 0.10535 0.0
H430 H 0.41932 0.84777 0.10553 0.0
H431 H 0.3525 0.83291 0.08377 0.0
H432 H 0.3319 0.79646 0.00125 0.0
H433 H 0.4026 0.80215 -0.00071 0.0
C434 C 0.45652 0.81842 0.04048 0.0
C435 C 0.48056 0.82592 0.06398 0.0
C436 C 0.41801 0.81968 0.0406 0.0
C437 C 0.46723 0.83791 0.08705 0.0
C438 C 0.42941 0.83977 0.08721 0.0
C439 C 0.3636 0.82661 0.06524 0.0
C440 C 0.33663 0.8136 0.04281 0.0
C441 C 0.40391 0.8294 0.06435 0.0
C442 C 0.35191 0.80638 0.01886 0.0
C443 C 0.39227 0.8094 0.01776 0.0
H444 H 0.51695 0.16478 0.90065 0.0
H445 H 0.53268 0.2106 0.98114 0.0
H446 H 0.59821 0.206 0.98559 0.0
H447 H 0.65598 0.19898 0.96417 0.0
H448 H 0.64007 0.1554 0.88295 0.0
H449 H 0.56927 0.14865 0.88133 0.0
C450 C 0.53448 0.17326 0.91928 0.0
C451 C 0.52079 0.18887 0.94035 0.0
C452 C 0.57219 0.17127 0.92147 0.0
C453 C 0.54294 0.19874 0.96461 0.0
C454 C 0.58047 0.19637 0.96708 0.0
C455 C 0.63666 0.18719 0.9463 0.0
C456 C 0.65366 0.17863 0.92354 0.0
C457 C 0.59621 0.18418 0.94529 0.0
C458 C 0.6281 0.16306 0.90059 0.0
C459 C 0.5876 0.15916 0.89961 0.0
H460 H 0.84033 0.48356 0.89129 0.0
H461 H 0.79607 0.47606 0.97159 0.0
H462 H 0.79798 0.40983 0.97843 0.0
H463 H 0.80323 0.3492 0.95969 0.0
H464 H 0.84547 0.3566 0.87888 0.0
H465 H 0.85363 0.42769 0.87435 0.0
C466 C 0.83163 0.46784 0.91044 0.0
C467 C 0.8174 0.48454 0.93072 0.0
C468 C 0.83204 0.42937 0.91411 0.0
C469 C 0.80693 0.46393 0.95552 0.0
C470 C 0.80779 0.42585 0.95943 0.0
C471 C 0.81505 0.36674 0.94128 0.0
C472 C 0.82302 0.34721 0.91954 0.0
C473 C 0.81895 0.40751 0.93859 0.0
C474 C 0.83838 0.37049 0.89582 0.0
C475 C 0.84308 0.41121 0.89317 0.0
H476 H 0.64672 0.4763 0.95568 0.0
H477 H 0.6471 0.48852 0.87056 0.0
H478 H 0.57494 0.42636 0.86804 0.0
H479 H 0.51647 0.3633 0.88912 0.0
H480 H 0.51702 0.348 0.97395 0.0
H481 H 0.5834 0.41717 0.97748 0.0
C482 C 0.63068 0.46583 0.93665 0.0
C483 C 0.6526 0.48652 0.91331 0.0
C484 C 0.5894 0.42934 0.93524 0.0
C485 C 0.63128 0.47267 0.88879 0.0
C486 C 0.58996 0.43715 0.88731 0.0
C487 C 0.53063 0.3753 0.90848 0.0
C488 C 0.51217 0.34996 0.93114 0.0
C489 C 0.56942 0.41435 0.91029 0.0
C490 C 0.53066 0.36655 0.95609 0.0
C491 C 0.56884 0.40603 0.95813 0.0
H492 H 0.8605 0.98692 0.34053 0.0
H493 H 0.78455 0.95638 0.41173 0.0
H494 H 0.77471 0.88431 0.41183 0.0
H495 H 0.79768 0.83488 0.39623 0.0
H496 H 0.8764 0.86507 0.32644 0.0
H497 H 0.87444 0.93181 0.32082 0.0
C498 C 0.84084 0.96403 0.3556 0.0
C499 C 0.82383 0.97714 0.37633 0.0
C500 C 0.83629 0.92277 0.35597 0.0
C501 C 0.7985 0.94723 0.3958 0.0
C502 C 0.79291 0.90603 0.3959 0.0
C503 C 0.81366 0.85565 0.37946 0.0
C504 C 0.83771 0.84553 0.36203 0.0
C505 C 0.81326 0.8942 0.37681 0.0
C506 C 0.85769 0.87225 0.34014 0.0
C507 C 0.8569 0.9106 0.33708 0.0
H508 H 0.0092 0.8588 0.34748 0.0
H509 H 0.00657 0.8388 0.43196 0.0
H510 H 0.07833 0.90106 0.43633 0.0
H511 H 0.13728 0.96626 0.41731 0.0
H512 H 0.1396 0.98881 0.33316 0.0
H513 H 0.07324 0.92012 0.32752 0.0
C514 C 0.02473 0.86756 0.36674 0.0
C515 C 0.0022 0.8446 0.3894 0.0
C516 C 0.06589 0.90412 0.36926 0.0
C517 C 0.02284 0.85635 0.41423 0.0
C518 C 0.06394 0.89197 0.41678 0.0
C519 C 0.12374 0.95595 0.39763 0.0
C520 C 0.14311 0.98316 0.3758 0.0
C521 C 0.08507 0.91696 0.39459 0.0
C522 C 0.12533 0.96877 0.35041 0.0
C523 C 0.08715 0.92953 0.34716 0.0
H524 H 0.13326 0.158 0.41453 0.0
H525 H 0.12921 0.13111 0.33094 0.0
H526 H 0.06197 0.13248 0.3266 0.0
H527 H -0.00013 0.13209 0.34795 0.0
H528 H 0.00423 0.15631 0.43206 0.0
H529 H 0.07588 0.1653 0.43473 0.0
C530 C 0.11797 0.1529 0.39526 0.0
C531 C 0.13578 0.14372 0.37318 0.0
C532 C 0.07909 0.15278 0.39307 0.0
C533 C 0.11606 0.13811 0.34827 0.0
C534 C 0.07746 0.13858 0.34583 0.0
C535 C 0.01682 0.14005 0.36676 0.0
C536 C -0.00364 0.14276 0.38985 0.0
C537 C 0.05795 0.14448 0.36829 0.0
C538 C 0.01885 0.15326 0.41406 0.0
C539 C 0.0599 0.15849 0.41563 0.0
H540 H 0.31376 0.5071 0.284 0.0
H541 H 0.31291 0.48878 0.19938 0.0
H542 H 0.24152 0.48047 0.19623 0.0
H543 H 0.18361 0.48747 0.21639 0.0
H544 H 0.18456 0.508 0.3007 0.0
H545 H 0.25099 0.50545 0.30507 0.0
C546 C 0.29762 0.50041 0.26495 0.0
C547 C 0.31914 0.49927 0.24192 0.0
C548 C 0.25663 0.49642 0.26314 0.0
C549 C 0.29754 0.49049 0.21741 0.0
C550 C 0.25663 0.48575 0.21555 0.0
C551 C 0.19793 0.49078 0.23582 0.0
C552 C 0.17934 0.49861 0.2581 0.0
C553 C 0.23655 0.49014 0.23812 0.0
C554 C 0.19812 0.50211 0.28316 0.0
C555 C 0.23635 0.50094 0.28566 0.0
H556 H 0.50379 0.69124 0.22212 0.0
H557 H 0.45717 0.65614 0.3021 0.0
H558 H 0.45893 0.72461 0.30772 0.0
H559 H 0.4648 0.79009 0.28773 0.0
H560 H 0.50881 0.82254 0.20702 0.0
H561 H 0.51724 0.75963 0.20399 0.0
C562 C 0.49444 0.69869 0.24092 0.0
C563 C 0.47965 0.66827 0.26149 0.0
C564 C 0.49472 0.73756 0.24381 0.0
C565 C 0.46851 0.67887 0.28589 0.0
C566 C 0.46927 0.71793 0.28905 0.0
C567 C 0.47707 0.78385 0.26969 0.0
C568 C 0.48554 0.81067 0.24751 0.0
C569 C 0.48101 0.74692 0.26785 0.0
C570 C 0.50142 0.8021 0.22426 0.0
C571 C 0.50624 0.7661 0.22248 0.0
H572 H 0.18012 0.68248 0.22011 0.0
H573 H 0.18902 0.65862 0.30304 0.0
H574 H 0.25458 0.72865 0.30713 0.0
H575 H 0.31415 0.79166 0.28562 0.0
H576 H 0.30587 0.81316 0.20211 0.0
H577 H 0.23508 0.74897 0.19988 0.0
C578 C 0.1961 0.69275 0.23919 0.0
C579 C 0.18024 0.66504 0.26112 0.0
C580 C 0.23413 0.73239 0.24122 0.0
C581 C 0.20072 0.67924 0.28581 0.0
C582 C 0.23836 0.71915 0.28811 0.0
C583 C 0.29663 0.78273 0.26701 0.0
C584 C 0.31578 0.8068 0.24396 0.0
C585 C 0.25615 0.74526 0.26571 0.0
C586 C 0.29232 0.7949 0.22008 0.0
C587 C 0.25178 0.75817 0.21876 0.0
H588 H 0.51359 0.18362 0.67954 0.0
H589 H 0.48606 0.17048 0.76341 0.0
H590 H 0.47962 0.23467 0.76262 0.0
H591 H 0.49332 0.30006 0.73989 0.0
H592 H 0.52365 0.31572 0.65662 0.0
H593 H 0.51672 0.24436 0.65523 0.0
C594 C 0.50525 0.19423 0.69753 0.0
C595 C 0.5014 0.17295 0.72163 0.0
C596 C 0.50262 0.23179 0.69709 0.0
C597 C 0.4901 0.18682 0.74471 0.0
C598 C 0.48645 0.22354 0.7443 0.0
C599 C 0.49783 0.28752 0.72136 0.0
C600 C 0.50996 0.31312 0.69854 0.0
C601 C 0.49459 0.24722 0.7209 0.0
C602 C 0.51462 0.29644 0.67446 0.0
C603 C 0.51091 0.25586 0.67372 0.0
H604 H 0.68584 0.19098 0.76061 0.0
H605 H 0.67232 0.19001 0.67555 0.0
H606 H 0.74069 0.25756 0.6726 0.0
H607 H 0.80033 0.3207 0.69472 0.0
H608 H 0.81111 0.32173 0.78001 0.0
H609 H 0.74785 0.25035 0.7822 0.0
C610 C 0.69792 0.20518 0.74133 0.0
C611 C 0.67352 0.18559 0.71838 0.0
C612 C 0.73667 0.24438 0.73983 0.0
C613 C 0.69021 0.20436 0.69359 0.0
C614 C 0.72926 0.24316 0.69189 0.0
C615 C 0.7892 0.30505 0.71375 0.0
C616 C 0.8102 0.3269 0.73718 0.0
C617 C 0.75217 0.26407 0.71496 0.0
C618 C 0.7953 0.30604 0.76167 0.0
C619 C 0.7591 0.26513 0.76297 0.0
H620 H 0.80098 0.47109 0.68541 0.0
H621 H 0.82649 0.52619 0.764 0.0
H622 H 0.76233 0.53275 0.76151 0.0
H623 H 0.69402 0.51326 0.7399 0.0
H624 H 0.66638 0.45538 0.66211 0.0
H625 H 0.73676 0.46047 0.66122 0.0
C626 C 0.79305 0.48538 0.70178 0.0
C627 C 0.81814 0.49733 0.72506 0.0
C628 C 0.75546 0.48822 0.70048 0.0
C629 C 0.80741 0.51601 0.74601 0.0
C630 C 0.77066 0.51976 0.74463 0.0
C631 C 0.70359 0.50234 0.72254 0.0
C632 C 0.67457 0.48317 0.70133 0.0
C633 C 0.74359 0.50439 0.72242 0.0
C634 C 0.68791 0.47002 0.6788 0.0
C635 C 0.72809 0.47265 0.67835 0.0
H636 H 0.9748 0.8388 0.55586 0.0
H637 H 0.98096 0.84787 0.64128 0.0
H638 H 0.91017 0.84174 0.64216 0.0
H639 H 0.85117 0.8427 0.61849 0.0
H640 H 0.84676 0.83702 0.53294 0.0
H641 H 0.91229 0.83257 0.53242 0.0
C642 C 0.96058 0.83907 0.57474 0.0
C643 C 0.9836 0.84468 0.59845 0.0
C644 C 0.92039 0.83651 0.57507 0.0
C645 C 0.96418 0.84397 0.62271 0.0
C646 C 0.92377 0.84067 0.62323 0.0
C647 C 0.86416 0.84001 0.59969 0.0
C648 C 0.84439 0.84102 0.57576 0.0
C649 C 0.90229 0.83834 0.59948 0.0
C650 C 0.86151 0.83688 0.55165 0.0
C651 C 0.89905 0.8344 0.55132 0.0
H652 H 0.12513 0.12405 0.63372 0.0
H653 H 0.18471 0.16038 0.55669 0.0
H654 H 0.19797 0.10044 0.55727 0.0
H655 H 0.18235 0.03177 0.57612 0.0
H656 H 0.12072 0.99272 0.65226 0.0
H657 H 0.11965 0.06008 0.65593 0.0
C658 C 0.14184 0.11935 0.61736 0.0
C659 C 0.15294 0.14604 0.59492 0.0
C660 C 0.14876 0.08414 0.61756 0.0
C661 C 0.1749 0.13973 0.57394 0.0
C662 C 0.1826 0.10548 0.57425 0.0
C663 C 0.16957 0.03846 0.5938 0.0
C664 C 0.15102 0.00715 0.61367 0.0
C665 C 0.16804 0.07652 0.59541 0.0
C666 C 0.13518 0.01638 0.63667 0.0
C667 C 0.13415 0.0547 0.63863 0.0
H668 H 0.97344 0.12365 0.62358 0.0
H669 H 0.97264 0.14769 0.5398 0.0
H670 H 0.90109 0.08512 0.53555 0.0
H671 H 0.84334 0.01891 0.55421 0.0
H672 H 0.8442 0.9923 0.6375 0.0
H673 H 0.91062 0.06105 0.64345 0.0
C674 C 0.95725 0.11562 0.60452 0.0
C675 C 0.97869 0.13976 0.58196 0.0
C676 C 0.91626 0.07899 0.60206 0.0
C677 C 0.95721 0.12912 0.55739 0.0
C678 C 0.91625 0.09337 0.55492 0.0
C679 C 0.85771 0.02835 0.57376 0.0
C680 C 0.83933 0.0002 0.59526 0.0
C681 C 0.89621 0.06727 0.5769 0.0
C682 C 0.85785 0.0133 0.62056 0.0
C683 C 0.89599 0.05248 0.62395 0.0
H684 H 0.06527 0.36323 0.10187 0.0
H685 H 0.11948 0.33326 0.16903 0.0
H686 H 0.07786 0.35154 0.19918 0.0
H687 H 0.04476 0.39591 0.20563 0.0
H688 H 0.00219 0.43814 0.13827 0.0
H689 H 0.01932 0.3947 0.10876 0.0
C690 C 0.06596 0.35857 0.12309 0.0
C691 C 0.09486 0.34686 0.13348 0.0
C692 C 0.04477 0.37253 0.14013 0.0
C693 C 0.09684 0.34177 0.16084 0.0
C694 C 0.07358 0.35285 0.178 0.0
C695 C 0.03743 0.39377 0.18461 0.0
C696 C 0.02239 0.41973 0.17386 0.0
C697 C 0.05011 0.37124 0.16784 0.0
C698 C 0.01346 0.41787 0.14673 0.0
C699 C 0.02373 0.39347 0.12993 0.0
H700 H 0.65855 0.77367 0.17368 0.0
H701 H 0.66162 0.72114 0.09767 0.0
H702 H 0.63874 0.65128 0.11774 0.0
H703 H 0.59705 0.60227 0.15424 0.0
H704 H 0.59421 0.65538 0.23014 0.0
H705 H 0.63901 0.72804 0.21325 0.0
C706 C 0.65664 0.74753 0.1619 0.0
C707 C 0.66111 0.75197 0.13437 0.0
C708 C 0.64258 0.7073 0.17353 0.0
C709 C 0.65848 0.71818 0.11902 0.0
C710 C 0.6447 0.67804 0.13043 0.0
C711 C 0.60842 0.62979 0.16734 0.0
C712 C 0.5923 0.62405 0.19315 0.0
C713 C 0.63353 0.67155 0.1573 0.0
C714 C 0.60656 0.65955 0.21013 0.0
C715 C 0.63173 0.70106 0.20041 0.0
H716 H 0.41974 0.9877 0.14384 0.0
H717 H 0.35149 0.96285 0.21756 0.0
H718 H 0.28359 0.93665 0.19368 0.0
H719 H 0.24339 0.90272 0.15246 0.0
H720 H 0.31219 0.92805 0.07888 0.0
H721 H 0.38022 0.97336 0.10176 0.0
C722 C 0.39028 0.97882 0.15452 0.0
C723 C 0.39017 0.9768 0.18222 0.0
C724 C 0.35138 0.9631 0.14064 0.0
C725 C 0.35205 0.96489 0.19612 0.0
C726 C 0.31316 0.9493 0.18248 0.0
C727 C 0.27309 0.92014 0.14139 0.0
C728 C 0.27327 0.91218 0.11423 0.0
C729 C 0.31219 0.94555 0.1548 0.0
C730 C 0.3117 0.93416 0.09988 0.0
C731 C 0.3506 0.95964 0.11298 0.0
H732 H 0.34641 0.08453 0.82457 0.0
H733 H 0.41522 0.08866 0.89557 0.0
H734 H 0.43762 0.0415 0.87546 0.0
H735 H 0.45342 0.01669 0.83425 0.0
H736 H 0.3881 0.01488 0.76232 0.0
H737 H 0.34726 0.04192 0.78614 0.0
C738 C 0.3647 0.07344 0.83585 0.0
C739 C 0.37983 0.09021 0.8612 0.0
C740 C 0.37847 0.04713 0.82384 0.0
C741 C 0.40369 0.07614 0.87585 0.0
C742 C 0.41664 0.04937 0.86435 0.0
C743 C 0.42841 0.01991 0.82423 0.0
C744 C 0.42371 0.01423 0.79678 0.0
C745 C 0.40652 0.03703 0.83784 0.0
C746 C 0.39177 0.01883 0.78363 0.0
C747 C 0.36903 0.03504 0.79716 0.0
H748 H 0.96297 0.36395 0.78128 0.0
H749 H 0.98619 0.44854 0.84738 0.0
H750 H 0.97024 0.39004 0.87833 0.0
H751 H 0.93093 0.3123 0.88542 0.0
H752 H 0.89571 0.22643 0.81879 0.0
H753 H 0.93643 0.28737 0.78908 0.0
C754 C 0.96648 0.36978 0.80249 0.0
C755 C 0.97591 0.41007 0.8123 0.0
C756 C 0.95452 0.33537 0.81995 0.0
C757 C 0.97946 0.41767 0.83965 0.0
C758 C 0.96989 0.38414 0.85725 0.0
C759 C 0.93431 0.30707 0.86459 0.0
C760 C 0.91096 0.26538 0.85412 0.0
C761 C 0.95475 0.34237 0.84755 0.0
C762 C 0.91416 0.25841 0.82713 0.0
C763 C 0.9368 0.2933 0.81016 0.0
H764 H 0.58477 0.57222 0.80765 0.0
H765 H 0.6457 0.55715 0.73839 0.0
H766 H 0.71637 0.5999 0.75887 0.0
H767 H 0.75769 0.62644 0.8002 0.0
H768 H 0.69786 0.64361 0.86924 0.0
H769 H 0.63009 0.61671 0.84503 0.0
C770 C 0.61376 0.58008 0.79675 0.0
C771 C 0.61055 0.56155 0.77184 0.0
C772 C 0.65434 0.60472 0.8087 0.0
C773 C 0.64791 0.57129 0.75771 0.0
C774 C 0.68822 0.59549 0.76944 0.0
C775 C 0.73036 0.62629 0.8094 0.0
C776 C 0.73228 0.63664 0.83628 0.0
C777 C 0.69154 0.6103 0.79546 0.0
C778 C 0.69688 0.63609 0.84836 0.0
C779 C 0.658 0.62011 0.83465 0.0
H780 H -0.00094 0.58144 0.83255 0.0
H781 H 0.96906 0.61321 0.75627 0.0
H782 H 0.94381 0.65766 0.77724 0.0
H783 H 0.91021 0.66711 0.81729 0.0
H784 H 0.93893 0.6338 0.8935 0.0
H785 H 0.98609 0.61163 0.87287 0.0
C786 C 0.98946 0.60029 0.82058 0.0
C787 C 0.98542 0.59406 0.7931 0.0
C788 C 0.97389 0.62474 0.83288 0.0
C789 C 0.97257 0.61798 0.77753 0.0
C790 C 0.9575 0.64283 0.78956 0.0
C791 C 0.9289 0.65743 0.82938 0.0
C792 C 0.92119 0.65165 0.85668 0.0
C793 C 0.95499 0.64364 0.81725 0.0
C794 C 0.94483 0.63859 0.87238 0.0
C795 C 0.9713 0.62537 0.86055 0.0
H796 H 0.34827 0.22925 0.81298 0.0
H797 H 0.36946 0.30688 0.88237 0.0
H798 H 0.39321 0.37074 0.85487 0.0
H799 H 0.42709 0.40582 0.81256 0.0
H800 H 0.40873 0.32739 0.74382 0.0
H801 H 0.36343 0.26248 0.76909 0.0
C802 C 0.3558 0.25976 0.82181 0.0
C803 C 0.35749 0.26388 0.84937 0.0
C804 C 0.37079 0.29637 0.80593 0.0
C805 C 0.36775 0.30334 0.861 0.0
C806 C 0.38192 0.33991 0.84531 0.0
C807 C 0.41132 0.3746 0.80297 0.0
C808 C 0.4215 0.37087 0.77671 0.0
C809 C 0.38649 0.33724 0.81792 0.0
C810 C 0.40136 0.33052 0.76423 0.0
C811 C 0.37576 0.29344 0.77869 0.0
H812 H 0.58041 0.0037 0.82836 0.0
H813 H 0.64968 0.04085 0.75471 0.0
H814 H 0.71771 0.067 0.77832 0.0
H815 H 0.75668 0.09742 0.82018 0.0
H816 H 0.68758 0.0607 0.89388 0.0
H817 H 0.62027 0.01509 0.87027 0.0
C818 C 0.61023 0.01523 0.81752 0.0
C819 C 0.61048 0.02065 0.79003 0.0
C820 C 0.64928 0.03109 0.83133 0.0
C821 C 0.64908 0.0362 0.77596 0.0
C822 C 0.68799 0.05169 0.78948 0.0
C823 C 0.72722 0.07745 0.83103 0.0
C824 C 0.72662 0.08227 0.85853 0.0
C825 C 0.68859 0.05201 0.81724 0.0
C826 C 0.68847 0.05698 0.87262 0.0
C827 C 0.64993 0.03138 0.8591 0.0
H828 H 0.66713 0.92388 0.16502 0.0
H829 H 0.63435 0.94957 0.08778 0.0
H830 H 0.60392 0.99031 0.10755 0.0
H831 H 0.5673 -0.00284 0.14699 0.0
H832 H 0.60096 0.97226 0.22423 0.0
H833 H 0.65162 0.95391 0.20454 0.0
C834 C 0.65579 0.94077 0.15257 0.0
C835 C 0.65228 0.93355 0.12519 0.0
C836 C 0.63759 0.96337 0.16416 0.0
C837 C 0.63734 0.95505 0.109 0.0
C838 C 0.6193 0.97774 0.12032 0.0
C839 C 0.58766 0.99016 0.15946 0.0
C840 C 0.58042 0.98544 0.1868 0.0
C841 C 0.61627 0.97909 0.14793 0.0
C842 C 0.60641 0.97607 0.20303 0.0
C843 C 0.63496 0.96507 0.19177 0.0
H844 H 0.10957 0.75727 0.15812 0.0
H845 H 0.05379 0.69388 0.0842 0.0
H846 H 0.01087 0.62561 0.10721 0.0
H847 H 0.00612 0.58227 0.14649 0.0
H848 H 0.06299 0.64648 0.22012 0.0
H849 H 0.0877 0.71627 0.1995 0.0
C850 C 0.08615 0.72894 0.14738 0.0
C851 C 0.08477 0.73003 0.11973 0.0
C852 C 0.06254 0.68979 0.16068 0.0
C853 C 0.05487 0.69342 0.10566 0.0
C854 C 0.03088 0.6543 0.11876 0.0
C855 C 0.02208 0.61156 0.15815 0.0
C856 C 0.03332 0.60986 0.1845 0.0
C857 C 0.03683 0.65164 0.146 0.0
C858 C 0.05425 0.6476 0.19968 0.0
C859 C 0.06864 0.68742 0.18788 0.0
H860 H 0.37723 0.39474 0.19212 0.0
H861 H 0.45555 0.47776 0.12928 0.0
H862 H 0.39958 0.43469 0.09685 0.0
H863 H 0.32264 0.38833 0.08943 0.0
H864 H 0.24028 0.31609 0.15403 0.0
H865 H 0.30308 0.33792 0.18262 0.0
C866 C 0.38256 0.40191 0.17112 0.0
C867 C 0.42004 0.43891 0.16281 0.0
C868 C 0.34897 0.37895 0.15305 0.0
C869 C 0.42683 0.44906 0.13583 0.0
C870 C 0.39471 0.42467 0.11741 0.0
C871 C 0.31887 0.37554 0.10935 0.0
C872 C 0.27741 0.35076 0.1198 0.0
C873 C 0.35468 0.39152 0.12612 0.0
C874 C 0.27216 0.33481 0.14566 0.0
C875 C 0.30803 0.34801 0.16208 0.0
H876 H 0.6782 0.7177 0.52663 0.0
H877 H 0.67139 0.8036 0.46995 0.0
H878 H 0.68654 0.76797 0.43391 0.0
H879 H 0.72264 0.72862 0.42159 0.0
H880 H 0.73991 0.65021 0.4791 0.0
H881 H 0.69846 0.66498 0.51161 0.0
C882 C 0.67806 0.72704 0.5062 0.0
C883 C 0.67429 0.76322 0.50067 0.0
C884 C 0.6895 0.70813 0.48587 0.0
C885 C 0.67452 0.77581 0.47438 0.0
C886 C 0.68347 0.75567 0.45387 0.0
C887 C 0.71545 0.71323 0.44088 0.0
C888 C 0.73465 0.68922 0.44837 0.0
C889 C 0.69418 0.72412 0.45973 0.0
C890 C 0.72532 0.66895 0.47313 0.0
C891 C 0.70221 0.67795 0.49179 0.0
H892 H 0.27868 0.01294 0.44079 0.0
H893 H 0.31778 0.11694 0.49632 0.0
H894 H 0.3035 0.06775 0.53331 0.0
H895 H 0.26218 0.99343 0.54903 0.0
H896 H 0.21881 0.88871 0.49364 0.0
H897 H 0.25368 0.93957 0.45732 0.0
C898 C 0.28602 0.02494 0.46097 0.0
C899 C 0.29925 0.06816 0.4661 0.0
C900 C 0.27632 0.99613 0.48208 0.0
C901 C 0.308 0.08372 0.49215 0.0
C902 C 0.29939 0.05553 0.51325 0.0
C903 C 0.26236 0.9819 0.52918 0.0
C904 C 0.238 0.93775 0.52377 0.0
C905 C 0.28101 0.01135 0.50843 0.0
C906 C 0.23781 0.92269 0.49812 0.0
C907 C 0.25717 0.9518 0.47734 0.0
H908 H 0.01151 0.27606 0.54049 0.0
H909 H 0.10107 0.32163 0.47571 0.0
H910 H 0.04183 0.30032 0.44413 0.0
H911 H 0.96493 0.25232 0.43503 0.0
H912 H 0.87638 0.19636 0.49986 0.0
H913 H 0.93417 0.23841 0.5316 0.0
C914 C 0.01793 0.28319 0.51954 0.0
C915 C 0.06012 0.30068 0.51021 0.0
C916 C 0.9836 0.26795 0.50161 0.0
C917 C 0.06866 0.30885 0.48313 0.0
C918 C 0.03476 0.29606 0.46514 0.0
C919 C 0.95824 0.25099 0.45608 0.0
C920 C 0.91692 0.22196 0.46538 0.0
C921 C 0.99208 0.27317 0.47408 0.0
C922 C 0.90812 0.21911 0.49254 0.0
C923 C 0.94118 0.2428 0.51059 0.0
H924 H 0.22287 0.32053 0.4851 0.0
H925 H 0.27125 0.29692 0.55733 0.0
H926 H 0.31051 0.26954 0.53219 0.0
H927 H 0.31158 0.23277 0.49102 0.0
H928 H 0.25689 0.25112 0.41963 0.0
H929 H 0.24014 0.30061 0.44261 0.0
C930 C 0.24422 0.31186 0.49509 0.0
C931 C 0.2442 0.31023 0.52276 0.0
C932 C 0.26431 0.29377 0.48057 0.0
C933 C 0.27128 0.29856 0.53588 0.0
C934 C 0.29296 0.28208 0.52152 0.0
C935 C 0.29763 0.24912 0.48044 0.0
C936 C 0.28476 0.23831 0.45402 0.0
C937 C 0.2868 0.2764 0.49405 0.0
C938 C 0.26655 0.2591 0.44017 0.0
C939 C 0.25691 0.28722 0.45328 0.0
H940 H 0.70769 0.00025 0.43234 0.0
H941 H 0.76029 0.10447 0.48849 0.0
H942 H 0.72206 0.05445 0.52453 0.0
H943 H 0.69372 0.98055 0.54027 0.0
H944 H 0.64451 0.87622 0.48425 0.0
H945 H 0.65963 0.92636 0.44774 0.0
C946 C 0.7087 0.01201 0.45228 0.0
C947 C 0.73675 0.05544 0.45811 0.0
C948 C 0.68779 0.98286 0.47289 0.0
C949 C 0.73855 0.07094 0.48382 0.0
C950 C 0.71714 0.0423 0.50441 0.0
C951 C 0.68411 0.96878 0.52018 0.0
C952 C 0.66875 0.9253 0.51464 0.0
C953 C 0.69447 -0.00201 0.49935 0.0
C954 C 0.65631 0.90978 0.48875 0.0
C955 C 0.66561 0.93853 0.46787 0.0
H956 H 0.00543 0.76274 0.54798 0.0
H957 H 0.09409 0.76784 0.48898 0.0
H958 H 0.03405 0.72599 0.45829 0.0
H959 H 0.95878 0.7018 0.44583 0.0
H960 H 0.87308 0.70593 0.50372 0.0
H961 H 0.92893 0.72924 0.53773 0.0
C962 C 0.01121 0.75325 0.52869 0.0
C963 C 0.05351 0.76781 0.5205 0.0
C964 C 0.97699 0.73112 0.51105 0.0
C965 C 0.06142 0.75634 0.49552 0.0
C966 C 0.02721 0.73282 0.47802 0.0
C967 C 0.95201 0.70599 0.46621 0.0
C968 C 0.91212 0.70185 0.4726 0.0
C969 C 0.98512 0.72183 0.48517 0.0
C970 C 0.90358 0.70848 0.49871 0.0
C971 C 0.93559 0.72221 0.51799 0.0
H972 H 0.19891 0.26948 0.00208 0.0
H973 H 0.31024 0.39651 -0.00243 0.0
H974 H 0.35193 0.36682 0.97788 0.0
H975 H 0.35752 0.30405 0.96468 0.0
H976 H 0.24518 0.17762 0.96759 0.0
H977 H 0.20281 0.20774 0.98558 0.0
C978 C 0.23221 0.29064 -0.00346 0.0
C979 C 0.25176 0.33487 0.00139 0.0
C980 C 0.25575 0.27344 0.98538 0.0
C981 C 0.29462 0.36227 -0.00615 0.0
C982 C 0.3185 0.34532 0.98285 0.0
C983 C 0.32379 0.28326 0.9694 0.0
C984 C 0.30438 0.23884 0.96538 0.0
C985 C 0.29958 0.30086 0.97907 0.0
C986 C 0.26055 0.21197 0.9708 0.0
C987 C 0.23643 0.22912 0.981 0.0
H988 H 0.72731 0.04179 0.94338 0.0
H989 H 0.75398 0.11186 0.01691 0.0
H990 H 0.71906 0.04419 0.04162 0.0
H991 H 0.68513 0.96564 0.0422 0.0
H992 H 0.65432 0.89506 0.96872 0.0
H993 H 0.68647 0.96267 0.94377 0.0
C994 C 0.72528 0.04207 0.96482 0.0
C995 C 0.74365 0.08141 0.97849 0.0
C996 C 0.70458 0.00322 0.97872 0.0
C997 C 0.74012 0.08176 0.00613 0.0
C998 C 0.72034 0.04321 0.02019 0.0
C999 C 0.6853 0.9652 0.02069 0.0
C1000 C 0.66819 0.92589 0.00715 0.0
C1001 C 0.70313 0.00387 0.00669 0.0
C1002 C 0.66756 0.92521 0.97939 0.0
C1003 C 0.68604 0.96373 0.96522 0.0
H1004 H 0.92898 0.64069 0.96093 0.0
H1005 H 0.90604 0.74352 0.98196 0.0
H1006 H 0.97787 0.7837 0.00189 0.0
H1007 H 0.0477 0.79035 0.0117 0.0
H1008 H 0.07281 0.68987 -0.01244 0.0
H1009 H -0.00022 0.64815 0.96994 0.0
C1010 C 0.93967 0.67157 0.97035 0.0
C1011 C 0.9125 0.68904 0.97065 0.0
C1012 C 0.98146 0.69508 0.98066 0.0
C1013 C 0.92662 0.72952 0.982 0.0
C1014 C 0.96761 0.75247 -0.00683 0.0
C1015 C 0.03722 0.75933 0.00257 0.0
C1016 C 0.06559 0.74323 0.00094 0.0
C1017 C -0.00455 0.73577 -0.00769 0.0
C1018 C 0.05168 0.70315 -0.01115 0.0
C1019 C 0.00985 0.67913 0.97896 0.0
H1020 H 0.65355 0.75169 0.97744 0.0
H1021 H 0.70164 0.74433 0.05446 0.0
H1022 H 0.73335 0.70396 0.03591 0.0
H1023 H 0.75094 0.67431 -0.00259 0.0
H1024 H 0.71004 0.68835 0.91956 0.0
H1025 H 0.67183 0.72234 0.93862 0.0
C1026 C 0.6707 0.74085 -0.00993 0.0
C1027 C 0.6753 0.75073 0.01718 0.0
C1028 C 0.69023 0.71904 0.97909 0.0
C1029 C 0.69795 0.73713 0.03346 0.0
C1030 C 0.71602 0.71404 0.0229 0.0
C1031 C 0.7332 0.6844 0.98474 0.0
C1032 C 0.73296 0.67883 0.95727 0.0
C1033 C 0.71285 0.70531 -0.00429 0.0
C1034 C 0.7106 0.69257 0.94084 0.0
C1035 C 0.68881 0.71194 0.9517 0.0
H1036 H 0.26057 0.95578 0.03354 0.0
H1037 H 0.2417 0.89106 0.95848 0.0
H1038 H 0.27924 0.9605 0.93584 0.0
H1039 H 0.31328 0.03877 0.93742 0.0
H1040 H 0.33325 0.10346 0.01261 0.0
H1041 H 0.29945 0.03421 0.03548 0.0
C1042 C 0.26463 0.95693 0.0122 0.0
C1043 C 0.24783 0.91869 -0.0025 0.0
C1044 C 0.28627 0.99662 -0.00049 0.0
C1045 C 0.25422 0.92031 0.97005 0.0
C1046 C 0.27552 0.95985 0.95716 0.0
C1047 C 0.31022 0.03767 0.95883 0.0
C1048 C 0.32488 0.07581 0.97339 0.0
C1049 C 0.29098 -0.00194 0.9717 0.0
C1050 C 0.3219 0.0743 0.0011 0.0
C1051 C 0.3025 0.03485 0.01411 0.0
H1052 H 0.96041 0.27142 0.94288 0.0
H1053 H 0.88977 0.24371 0.01602 0.0
H1054 H 0.95723 0.27686 0.04127 0.0
H1055 H 0.03617 0.31146 0.04231 0.0
H1056 H 0.10675 0.34428 0.96895 0.0
H1057 H 0.03933 0.31147 0.94378 0.0
C1058 C 0.95998 0.27281 0.96435 0.0
C1059 C 0.92061 0.25491 0.97774 0.0
C1060 C -0.00132 0.29267 0.97856 0.0
C1061 C 0.92 0.25741 0.00545 0.0
C1062 C 0.95842 0.27615 0.01983 0.0
C1063 C 0.03658 0.31138 0.02081 0.0
C1064 C 0.07593 0.3296 0.00736 0.0
C1065 C -0.00211 0.29348 0.00657 0.0
C1066 C 0.07656 0.33027 0.97957 0.0
C1067 C 0.03815 0.31147 0.96524 0.0
H1068 H 0.91762 0.66359 0.31009 0.0
H1069 H 0.91909 0.61889 0.3891 0.0
H1070 H 0.95522 0.58096 0.37298 0.0
H1071 H 0.98383 0.55805 0.33575 0.0
H1072 H 0.97593 0.59817 0.25645 0.0
H1073 H 0.94518 0.64047 0.27323 0.0
C1074 C 0.92623 0.64584 0.32377 0.0
C1075 C 0.91591 0.64402 0.35066 0.0
C1076 C 0.94568 0.62313 0.31426 0.0
C1077 C 0.92661 0.62047 0.36822 0.0
C1078 C 0.94728 0.59886 0.35904 0.0
C1079 C 0.97551 0.5763 0.32231 0.0
C1080 C 0.98183 0.57504 0.29501 0.0
C1081 C 0.95657 0.59956 0.33202 0.0
C1082 C 0.9708 0.59845 0.27758 0.0
C1083 C 0.95336 0.6227 0.28713 0.0
H1084 H 0.40366 0.41184 0.32406 0.0
H1085 H 0.40917 0.36267 0.24711 0.0
H1086 H 0.37103 0.28922 0.26422 0.0
H1087 H 0.33883 0.23918 0.30178 0.0
H1088 H 0.33907 0.28987 0.37925 0.0
H1089 H 0.37184 0.36245 0.36124 0.0
C1090 C 0.39619 0.38499 0.31101 0.0
C1091 C 0.40915 0.39251 0.28445 0.0
C1092 C 0.37534 0.34314 0.3211 0.0
C1093 C 0.39975 0.35756 0.26776 0.0
C1094 C 0.37786 0.31561 0.27748 0.0
C1095 C 0.34578 0.2662 0.31453 0.0
C1096 C 0.33676 0.25955 0.34168 0.0
C1097 C 0.36589 0.30804 0.3042 0.0
C1098 C 0.34617 0.29457 0.35825 0.0
C1099 C 0.36481 0.33597 0.34801 0.0
H1100 H 0.61831 0.02312 0.26971 0.0
H1101 H 0.54853 0.97832 0.34307 0.0
H1102 H 0.61638 0.01299 0.36796 0.0
H1103 H 0.69515 0.05808 0.36861 0.0
H1104 H 0.7649 0.09855 0.29501 0.0
H1105 H 0.69707 0.06347 0.27016 0.0
C1106 C 0.61807 0.02094 0.29116 0.0
C1107 C 0.57881 -0.00115 0.30471 0.0
C1108 C 0.65694 0.04027 0.30513 0.0
C1109 C 0.57859 0.9953 0.33237 0.0
C1110 C 0.61723 0.01523 0.34654 0.0
C1111 C 0.69533 0.05927 0.34712 0.0
C1112 C 0.73453 0.08126 0.33351 0.0
C1113 C 0.6565 0.0382 0.3331 0.0
C1114 C 0.73484 0.08188 0.30574 0.0
C1115 C 0.69622 0.06192 0.29161 0.0
H1116 H 0.29572 0.02568 0.34076 0.0
H1117 H 0.4104 0.15048 0.34149 0.0
H1118 H 0.45158 0.12009 0.32207 0.0
H1119 H 0.45455 0.05849 0.30453 0.0
H1120 H 0.34154 0.93245 0.30611 0.0
H1121 H 0.29996 0.96261 0.32559 0.0
C1122 C 0.32966 0.04604 0.33644 0.0
C1123 C 0.35015 0.09014 0.34205 0.0
C1124 C 0.35331 0.02811 0.32609 0.0
C1125 C 0.39422 0.11641 0.33709 0.0
C1126 C 0.41768 0.09909 0.32609 0.0
C1127 C 0.42085 0.03762 0.30929 0.0
C1128 C 0.4009 0.99353 0.30382 0.0
C1129 C 0.39752 0.05505 0.32053 0.0
C1130 C 0.35748 0.96656 0.31035 0.0
C1131 C 0.3337 0.9838 0.32125 0.0
H1132 H 0.99274 0.40979 0.33053 0.0
H1133 H 0.95726 0.36104 0.25084 0.0
H1134 H 0.9241 0.28738 0.26713 0.0
H1135 H 0.90242 0.23667 0.30434 0.0
H1136 H 0.93215 0.28545 0.38422 0.0
H1137 H 0.97075 0.35921 0.36769 0.0
C1138 C 0.97788 0.38296 0.31681 0.0
C1139 C 0.97714 0.39058 0.28965 0.0
C1140 C 0.95797 0.34076 0.32635 0.0
C1141 C 0.95763 0.35573 0.27195 0.0
C1142 C 0.93889 0.31368 0.28119 0.0
C1143 C 0.91786 0.26358 0.31797 0.0
C1144 C 0.91486 0.25614 0.34529 0.0
C1145 C 0.93851 0.30579 0.30838 0.0
C1146 C 0.93421 0.29088 0.36302 0.0
C1147 C 0.95616 0.33291 0.35362 0.0
H1148 H 0.69958 0.62688 0.36794 0.0
H1149 H 0.76959 0.65613 0.29439 0.0
H1150 H 0.70185 0.6234 0.26955 0.0
H1151 H 0.6233 0.58613 0.2689 0.0
H1152 H 0.55281 0.56052 0.34203 0.0
H1153 H 0.62057 0.59278 0.36712 0.0
C1154 C 0.69991 0.62577 0.34646 0.0
C1155 C 0.73934 0.64322 0.33292 0.0
C1156 C 0.661 0.60789 0.33239 0.0
C1157 C 0.73956 0.64267 0.30515 0.0
C1158 C 0.70092 0.62401 0.291 0.0
C1159 C 0.62274 0.58746 0.29037 0.0
C1160 C 0.58323 0.57047 0.30372 0.0
C1161 C 0.66156 0.60646 0.30444 0.0
C1162 C 0.58291 0.57333 0.33142 0.0
C1163 C 0.62155 0.59158 0.3457 0.0
H1164 H 0.63488 0.92655 0.60506 0.0
H1165 H 0.65365 0.87246 0.67664 0.0
H1166 H 0.62366 0.90856 0.7029 0.0
H1167 H 0.5906 0.95392 0.70492 0.0
H1168 H 0.57592 0.01098 0.63333 0.0
H1169 H 0.60641 0.97539 0.60738 0.0
C1170 C 0.63215 0.92255 0.62642 0.0
C1171 C 0.64554 0.89654 0.63903 0.0
C1172 C 0.61593 0.94395 0.64121 0.0
C1173 C 0.64313 0.89229 0.66668 0.0
C1174 C 0.62605 0.91281 0.6816 0.0
C1175 C 0.59415 0.95849 0.68364 0.0
C1176 C 0.58076 0.98447 0.67089 0.0
C1177 C 0.6121 0.93846 0.669 0.0
C1178 C 0.58614 0.99104 0.64345 0.0
C1179 C 0.60332 0.97061 0.62864 0.0
H1180 H 0.11841 0.71417 0.63224 0.0
H1181 H 0.01134 0.73443 0.64558 0.0
H1182 H 0.96938 0.6622 0.66389 0.0
H1183 H 0.96439 0.5946 0.67814 0.0
H1184 H 0.0737 0.57697 0.66883 0.0
H1185 H 0.11342 0.64653 0.64651 0.0
C1186 C 0.08582 0.70262 0.63904 0.0
C1187 C 0.06801 0.72952 0.63766 0.0
C1188 C 0.06226 0.66148 0.65012 0.0
C1189 C 0.02588 0.71439 0.64672 0.0
C1190 C 0.00179 0.67306 0.65706 0.0
C1191 C -0.00338 0.6058 0.67075 0.0
C1192 C 0.0161 0.58084 0.67471 0.0
C1193 C 0.01979 0.64648 0.65906 0.0
C1194 C 0.05819 0.59583 0.66576 0.0
C1195 C 0.08088 0.63555 0.65314 0.0
H1196 H 0.27676 0.35714 0.6054 0.0
H1197 H 0.21261 0.31283 0.68052 0.0
H1198 H 0.2823 0.34027 0.70282 0.0
H1199 H 0.36108 0.37801 0.70067 0.0
H1200 H 0.42455 0.41903 0.62499 0.0
H1201 H 0.35494 0.3908 0.60289 0.0
C1202 C 0.27815 0.35391 0.62671 0.0
C1203 C 0.24006 0.334 0.64153 0.0
C1204 C 0.31789 0.36863 0.6391 0.0
C1205 C 0.24182 0.32858 0.66892 0.0
C1206 C 0.28149 0.34411 0.68157 0.0
C1207 C 0.35963 0.38065 0.67932 0.0
C1208 C 0.39774 0.4009 0.66445 0.0
C1209 C 0.31967 0.36432 0.66682 0.0
C1210 C 0.39555 0.40348 0.6368 0.0
C1211 C 0.35587 0.38765 0.62421 0.0
H1212 H 0.98725 0.41009 0.65129 0.0
H1213 H 0.0168 0.38353 0.72944 0.0
H1214 H 0.04647 0.34147 0.71038 0.0
H1215 H 0.06876 0.3168 0.6713 0.0
H1216 H 0.04529 0.34939 0.59323 0.0
H1217 H 0.00808 0.38421 0.61232 0.0
C1218 C -0.00026 0.39462 0.66408 0.0
C1219 C 7e-05 0.39984 0.6916 0.0
C1220 C 0.01795 0.37177 0.65298 0.0
C1221 C 0.01668 0.38014 0.7081 0.0
C1222 C 0.03353 0.35608 0.69725 0.0
C1223 C 0.05492 0.33106 0.65857 0.0
C1224 C 0.05959 0.33076 0.63104 0.0
C1225 C 0.03504 0.35234 0.6697 0.0
C1226 C 0.04216 0.34967 0.61457 0.0
C1227 C 0.02094 0.36951 0.62543 0.0
H1228 H 0.62721 0.58911 0.66087 0.0
H1229 H 0.49873 0.56965 0.65693 0.0
H1230 H 0.52636 0.64099 0.63762 0.0
H1231 H 0.58715 0.70936 0.62356 0.0
H1232 H 0.71628 0.73075 0.63011 0.0
H1233 H 0.68829 0.65802 0.64707 0.0
C1234 C 0.60536 0.60043 0.65542 0.0
C1235 C 0.5612 0.57456 0.66 0.0
C1236 C 0.62156 0.64176 0.64519 0.0
C1237 C 0.53296 0.58943 0.65346 0.0
C1238 C 0.54869 0.63006 0.64252 0.0
C1239 C 0.60913 0.69804 0.62863 0.0
C1240 C 0.65357 0.72516 0.62565 0.0
C1241 C 0.59296 0.65662 0.63861 0.0
C1242 C 0.68185 0.7104 0.6325 0.0
C1243 C 0.66593 0.66883 0.64203 0.0
H1244 H 0.28702 0.92633 0.61145 0.0
H1245 H 0.21968 0.88308 0.68569 0.0
H1246 H 0.28841 0.91486 0.70955 0.0
H1247 H 0.36761 0.95453 0.70899 0.0
H1248 H 0.43426 0.00213 0.63486 0.0
H1249 H 0.36562 0.96895 0.61108 0.0
C1250 C 0.28746 0.92376 0.63286 0.0
C1251 C 0.2486 0.9021 0.64686 0.0
C1252 C 0.32682 0.94282 0.64635 0.0
C1253 C 0.24936 0.89966 0.67459 0.0
C1254 C 0.28855 0.91767 0.68817 0.0
C1255 C 0.36696 0.9574 0.68761 0.0
C1256 C 0.40568 0.98024 0.67357 0.0
C1257 C 0.32745 0.9392 0.67422 0.0
C1258 C 0.40469 0.98462 0.64599 0.0
C1259 C 0.36556 0.96563 0.63243 0.0
loop_
_geom_bond_atom_site_label_1
_geom_bond_atom_site_label_2
_geom_bond_distance
_geom_bond_site_symmetry_2
_ccdc_geom_bond_type
Sc0 O3 2.025 . S
Sc0 O10 2.105 . S
Sc0 O13 2.105 . S
Sc0 O16 2.105 . S
Sc0 O19 2.105 . S
Sc1 O3 2.025 . S
Sc1 O11 2.105 . S
Sc1 O15 2.105 . S
Sc1 O17 2.105 . S
Sc1 O21 2.105 . S
Sc2 O3 2.025 . S
Sc2 O12 2.105 . S
Sc2 O14 2.105 . S
Sc2 O18 2.105 . S
Sc2 O20 2.105 . S
O3 Sc0 2.025 . S
O3 Sc1 2.025 . S
O3 Sc2 2.025 . S
C4 O10 1.268 . S
C4 O20 1.268 . S
C5 O11 1.268 . S
C5 O19 1.268 . S
C6 O12 1.268 . S
C6 O21 1.268 . S
C7 O13 1.268 . S
C7 O17 1.268 . S
C8 O14 1.268 . S
C8 O16 1.268 . S
C9 O15 1.268 . S
C9 O18 1.268 . S
O10 Sc0 2.105 . S
O10 C4 1.268 . S
O11 Sc1 2.105 . S
O11 C5 1.268 . S
O12 Sc2 2.105 . S
O12 C6 1.268 . S
O13 Sc0 2.105 . S
O13 C7 1.268 . S
O14 Sc2 2.105 . S
O14 C8 1.268 . S
O15 Sc1 2.105 . S
O15 C9 1.268 . S
O16 Sc0 2.105 . S
O16 C8 1.268 . S
O17 Sc1 2.105 . S
O17 C7 1.268 . S
O18 Sc2 2.105 . S
O18 C9 1.268 . S
O19 Sc0 2.105 . S
O19 C5 1.268 . S
O20 Sc2 2.105 . S
O20 C4 1.268 . S
O21 Sc1 2.105 . S
O21 C6 1.268 . S
Sc22 O25 2.025 . S
Sc22 O32 2.105 . S
Sc22 O35 2.105 . S
Sc22 O38 2.105 . S
Sc22 O41 2.105 . S
Sc23 O25 2.025 . S
Sc23 O33 2.105 . S
Sc23 O37 2.105 . S
Sc23 O39 2.105 . S
Sc23 O43 2.105 . S
Sc24 O25 2.025 . S
Sc24 O34 2.105 . S
Sc24 O36 2.105 . S
Sc24 O40 2.105 . S
Sc24 O42 2.105 . S
O25 Sc22 2.025 . S
O25 Sc23 2.025 . S
O25 Sc24 2.025 . S
C26 O32 1.268 . S
C26 O42 1.268 . S
C27 O33 1.268 . S
C27 O41 1.268 . S
C28 O34 1.268 . S
C28 O43 1.268 . S
C29 O35 1.268 . S
C29 O39 1.268 . S
C30 O36 1.268 . S
C30 O38 1.268 . S
C31 O37 1.268 . S
C31 O40 1.268 . S
O32 Sc22 2.105 . S
O32 C26 1.268 . S
O33 Sc23 2.105 . S
O33 C27 1.268 . S
O34 Sc24 2.105 . S
O34 C28 1.268 . S
O35 Sc22 2.105 . S
O35 C29 1.268 . S
O36 Sc24 2.105 . S
O36 C30 1.268 . S
O37 Sc23 2.105 . S
O37 C31 1.268 . S
O38 Sc22 2.105 . S
O38 C30 1.268 . S
O39 Sc23 2.105 . S
O39 C29 1.268 . S
O40 Sc24 2.105 . S
O40 C31 1.268 . S
O41 Sc22 2.105 . S
O41 C27 1.268 . S
O42 Sc24 2.105 . S
O42 C26 1.268 . S
O43 Sc23 2.105 . S
O43 C28 1.268 . S
Sc44 O47 2.025 . S
Sc44 O54 2.105 . S
Sc44 O57 2.105 . S
Sc44 O60 2.105 . S
Sc44 O63 2.105 . S
Sc45 O47 2.025 . S
Sc45 O55 2.105 . S
Sc45 O59 2.105 . S
Sc45 O61 2.105 . S
Sc45 O65 2.105 . S
Sc46 O47 2.025 . S
Sc46 O56 2.105 . S
Sc46 O58 2.105 . S
Sc46 O62 2.105 . S
Sc46 O64 2.105 . S
O47 Sc44 2.025 . S
O47 Sc45 2.025 . S
O47 Sc46 2.025 . S
C48 O54 1.268 . S
C48 O64 1.268 . S
C49 O55 1.268 . S
C49 O63 1.268 . S
C50 O56 1.268 . S
C50 O65 1.268 . S
C51 O57 1.268 . S
C51 O61 1.268 . S
C52 O58 1.268 . S
C52 O60 1.268 . S
C53 O59 1.268 . S
C53 O62 1.268 . S
O54 Sc44 2.105 . S
O54 C48 1.268 . S
O55 Sc45 2.105 . S
O55 C49 1.268 . S
O56 Sc46 2.105 . S
O56 C50 1.268 . S
O57 Sc44 2.105 . S
O57 C51 1.268 . S
O58 Sc46 2.105 . S
O58 C52 1.268 . S
O59 Sc45 2.105 . S
O59 C53 1.268 . S
O60 Sc44 2.105 . S
O60 C52 1.268 . S
O61 Sc45 2.105 . S
O61 C51 1.268 . S
O62 Sc46 2.105 . S
O62 C53 1.268 . S
O63 Sc44 2.105 . S
O63 C49 1.268 . S
O64 Sc46 2.105 . S
O64 C48 1.268 . S
O65 Sc45 2.105 . S
O65 C50 1.268 . S
Sc66 O69 2.025 . S
Sc66 O76 2.105 . S
Sc66 O79 2.105 . S
Sc66 O82 2.105 . S
Sc66 O85 2.105 . S
Sc67 O69 2.025 . S
Sc67 O77 2.105 . S
Sc67 O81 2.105 . S
Sc67 O83 2.105 . S
Sc67 O87 2.105 . S
Sc68 O69 2.025 . S
Sc68 O78 2.105 . S
Sc68 O80 2.105 . S
Sc68 O84 2.105 . S
Sc68 O86 2.105 . S
O69 Sc66 2.025 . S
O69 Sc67 2.025 . S
O69 Sc68 2.025 . S
C70 O76 1.268 . S
C70 O86 1.268 . S
C71 O77 1.268 . S
C71 O85 1.268 . S
C72 O78 1.268 . S
C72 O87 1.268 . S
C73 O79 1.268 . S
C73 O83 1.268 . S
C74 O80 1.268 . S
C74 O82 1.268 . S
C75 O81 1.268 . S
C75 O84 1.268 . S
O76 Sc66 2.105 . S
O76 C70 1.268 . S
O77 Sc67 2.105 . S
O77 C71 1.268 . S
O78 Sc68 2.105 . S
O78 C72 1.268 . S
O79 Sc66 2.105 . S
O79 C73 1.268 . S
O80 Sc68 2.105 . S
O80 C74 1.268 . S
O81 Sc67 2.105 . S
O81 C75 1.268 . S
O82 Sc66 2.105 . S
O82 C74 1.268 . S
O83 Sc67 2.105 . S
O83 C73 1.268 . S
O84 Sc68 2.105 . S
O84 C75 1.268 . S
O85 Sc66 2.105 . S
O85 C71 1.268 . S
O86 Sc68 2.105 . S
O86 C70 1.268 . S
O87 Sc67 2.105 . S
O87 C72 1.268 . S
Sc88 O91 2.025 . S
Sc88 O98 2.105 . S
Sc88 O101 2.105 . S
Sc88 O104 2.105 . S
Sc88 O107 2.105 . S
Sc89 O91 2.025 . S
Sc89 O99 2.105 . S
Sc89 O103 2.105 . S
Sc89 O105 2.105 . S
Sc89 O109 2.105 . S
Sc90 O91 2.025 . S
Sc90 O100 2.105 . S
Sc90 O102 2.105 . S
Sc90 O106 2.105 . S
Sc90 O108 2.105 . S
O91 Sc88 2.025 . S
O91 Sc89 2.025 . S
O91 Sc90 2.025 . S
C92 O98 1.268 . S
C92 O108 1.268 . S
C93 O99 1.268 . S
C93 O107 1.268 . S
C94 O100 1.268 . S
C94 O109 1.268 . S
C95 O101 1.268 . S
C95 O105 1.268 . S
C96 O102 1.268 . S
C96 O104 1.268 . S
C97 O103 1.268 . S
C97 O106 1.268 . S
O98 Sc88 2.105 . S
O98 C92 1.268 . S
O99 Sc89 2.105 . S
O99 C93 1.268 . S
O100 Sc90 2.105 . S
O100 C94 1.268 . S
O101 Sc88 2.105 . S
O101 C95 1.268 . S
O102 Sc90 2.105 . S
O102 C96 1.268 . S
O103 Sc89 2.105 . S
O103 C97 1.268 . S
O104 Sc88 2.105 . S
O104 C96 1.268 . S
O105 Sc89 2.105 . S
O105 C95 1.268 . S
O106 Sc90 2.105 . S
O106 C97 1.268 . S
O107 Sc88 2.105 . S
O107 C93 1.268 . S
O108 Sc90 2.105 . S
O108 C92 1.268 . S
O109 Sc89 2.105 . S
O109 C94 1.268 . S
Sc110 O113 2.025 . S
Sc110 O120 2.105 . S
Sc110 O123 2.105 . S
Sc110 O126 2.105 . S
Sc110 O129 2.105 . S
Sc111 O113 2.025 . S
Sc111 O121 2.105 . S
Sc111 O125 2.105 . S
Sc111 O127 2.105 . S
Sc111 O131 2.105 . S
Sc112 O113 2.025 . S
Sc112 O122 2.105 . S
Sc112 O124 2.105 . S
Sc112 O128 2.105 . S
Sc112 O130 2.105 . S
O113 Sc110 2.025 . S
O113 Sc111 2.025 . S
O113 Sc112 2.025 . S
C114 O120 1.268 . S
C114 O130 1.268 . S
C115 O121 1.268 . S
C115 O129 1.268 . S
C116 O122 1.268 . S
C116 O131 1.268 . S
C117 O123 1.268 . S
C117 O127 1.268 . S
C118 O124 1.268 . S
C118 O126 1.268 . S
C119 O125 1.268 . S
C119 O128 1.268 . S
O120 Sc110 2.105 . S
O120 C114 1.268 . S
O121 Sc111 2.105 . S
O121 C115 1.268 . S
O122 Sc112 2.105 . S
O122 C116 1.268 . S
O123 Sc110 2.105 . S
O123 C117 1.268 . S
O124 Sc112 2.105 . S
O124 C118 1.268 . S
O125 Sc111 2.105 . S
O125 C119 1.268 . S
O126 Sc110 2.105 . S
O126 C118 1.268 . S
O127 Sc111 2.105 . S
O127 C117 1.268 . S
O128 Sc112 2.105 . S
O128 C119 1.268 . S
O129 Sc110 2.105 . S
O129 C115 1.268 . S
O130 Sc112 2.105 . S
O130 C114 1.268 . S
O131 Sc111 2.105 . S
O131 C116 1.268 . S
Sc132 O135 2.025 . S
Sc132 O142 2.105 . S
Sc132 O145 2.105 . S
Sc132 O148 2.105 . S
Sc132 O151 2.105 . S
Sc133 O135 2.025 . S
Sc133 O143 2.105 . S
Sc133 O147 2.105 . S
Sc133 O149 2.105 . S
Sc133 O153 2.105 . S
Sc134 O135 2.025 . S
Sc134 O144 2.105 . S
Sc134 O146 2.105 . S
Sc134 O150 2.105 . S
Sc134 O152 2.105 . S
O135 Sc132 2.025 . S
O135 Sc133 2.025 . S
O135 Sc134 2.025 . S
C136 O142 1.268 . S
C136 O152 1.268 . S
C137 O143 1.268 . S
C137 O151 1.268 . S
C138 O144 1.268 . S
C138 O153 1.268 . S
C139 O145 1.268 . S
C139 O149 1.268 . S
C140 O146 1.268 . S
C140 O148 1.268 . S
C141 O147 1.268 . S
C141 O150 1.268 . S
O142 Sc132 2.105 . S
O142 C136 1.268 . S
O143 Sc133 2.105 . S
O143 C137 1.268 . S
O144 Sc134 2.105 . S
O144 C138 1.268 . S
O145 Sc132 2.105 . S
O145 C139 1.268 . S
O146 Sc134 2.105 . S
O146 C140 1.268 . S
O147 Sc133 2.105 . S
O147 C141 1.268 . S
O148 Sc132 2.105 . S
O148 C140 1.268 . S
O149 Sc133 2.105 . S
O149 C139 1.268 . S
O150 Sc134 2.105 . S
O150 C141 1.268 . S
O151 Sc132 2.105 . S
O151 C137 1.268 . S
O152 Sc134 2.105 . S
O152 C136 1.268 . S
O153 Sc133 2.105 . S
O153 C138 1.268 . S
Sc154 O157 2.025 . S
Sc154 O164 2.105 . S
Sc154 O167 2.105 . S
Sc154 O170 2.105 . S
Sc154 O173 2.105 . S
Sc155 O157 2.025 . S
Sc155 O165 2.105 . S
Sc155 O169 2.105 . S
Sc155 O171 2.105 . S
Sc155 O175 2.105 . S
Sc156 O157 2.025 . S
Sc156 O166 2.105 . S
Sc156 O168 2.105 . S
Sc156 O172 2.105 . S
Sc156 O174 2.105 . S
O157 Sc154 2.025 . S
O157 Sc155 2.025 . S
O157 Sc156 2.025 . S
C158 O164 1.268 . S
C158 O174 1.268 . S
C159 O165 1.268 . S
C159 O173 1.268 . S
C160 O166 1.268 . S
C160 O175 1.268 . S
C161 O167 1.268 . S
C161 O171 1.268 . S
C162 O168 1.268 . S
C162 O170 1.268 . S
C163 O169 1.268 . S
C163 O172 1.268 . S
O164 Sc154 2.105 . S
O164 C158 1.268 . S
O165 Sc155 2.105 . S
O165 C159 1.268 . S
O166 Sc156 2.105 . S
O166 C160 1.268 . S
O167 Sc154 2.105 . S
O167 C161 1.268 . S
O168 Sc156 2.105 . S
O168 C162 1.268 . S
O169 Sc155 2.105 . S
O169 C163 1.268 . S
O170 Sc154 2.105 . S
O170 C162 1.268 . S
O171 Sc155 2.105 . S
O171 C161 1.268 . S
O172 Sc156 2.105 . S
O172 C163 1.268 . S
O173 Sc154 2.105 . S
O173 C159 1.268 . S
O174 Sc156 2.105 . S
O174 C158 1.268 . S
O175 Sc155 2.105 . S
O175 C160 1.268 . S
Sc176 O179 2.025 . S
Sc176 O186 2.105 . S
Sc176 O189 2.105 . S
Sc176 O192 2.105 . S
Sc176 O195 2.105 . S
Sc177 O179 2.025 . S
Sc177 O187 2.105 . S
Sc177 O191 2.105 . S
Sc177 O193 2.105 . S
Sc177 O197 2.105 . S
Sc178 O179 2.025 . S
Sc178 O188 2.105 . S
Sc178 O190 2.105 . S
Sc178 O194 2.105 . S
Sc178 O196 2.105 . S
O179 Sc176 2.025 . S
O179 Sc177 2.025 . S
O179 Sc178 2.025 . S
C180 O186 1.268 . S
C180 O196 1.268 . S
C181 O187 1.268 . S
C181 O195 1.268 . S
C182 O188 1.268 . S
C182 O197 1.268 . S
C183 O189 1.268 . S
C183 O193 1.268 . S
C184 O190 1.268 . S
C184 O192 1.268 . S
C185 O191 1.268 . S
C185 O194 1.268 . S
O186 Sc176 2.105 . S
O186 C180 1.268 . S
O187 Sc177 2.105 . S
O187 C181 1.268 . S
O188 Sc178 2.105 . S
O188 C182 1.268 . S
O189 Sc176 2.105 . S
O189 C183 1.268 . S
O190 Sc178 2.105 . S
O190 C184 1.268 . S
O191 Sc177 2.105 . S
O191 C185 1.268 . S
O192 Sc176 2.105 . S
O192 C184 1.268 . S
O193 Sc177 2.105 . S
O193 C183 1.268 . S
O194 Sc178 2.105 . S
O194 C185 1.268 . S
O195 Sc176 2.105 . S
O195 C181 1.268 . S
O196 Sc178 2.105 . S
O196 C180 1.268 . S
O197 Sc177 2.105 . S
O197 C182 1.268 . S
Sc198 O201 2.025 . S
Sc198 O208 2.105 . S
Sc198 O211 2.105 . S
Sc198 O214 2.105 . S
Sc198 O217 2.105 . S
Sc199 O201 2.025 . S
Sc199 O209 2.105 . S
Sc199 O213 2.105 1_455 S
Sc199 O215 2.105 . S
Sc199 O219 2.105 1_455 S
Sc200 O201 2.025 . S
Sc200 O210 2.105 . S
Sc200 O212 2.105 . S
Sc200 O216 2.105 . S
Sc200 O218 2.105 . S
O201 Sc198 2.025 . S
O201 Sc199 2.025 . S
O201 Sc200 2.025 . S
C202 O208 1.268 . S
C202 O218 1.268 . S
C203 O209 1.268 . S
C203 O217 1.268 . S
C204 O210 1.268 . S
C204 O219 1.268 1_455 S
C205 O211 1.268 . S
C205 O215 1.268 . S
C206 O212 1.268 . S
C206 O214 1.268 . S
C207 O213 1.268 1_455 S
C207 O216 1.268 . S
O208 Sc198 2.105 . S
O208 C202 1.268 . S
O209 Sc199 2.105 . S
O209 C203 1.268 . S
O210 Sc200 2.105 . S
O210 C204 1.268 . S
O211 Sc198 2.105 . S
O211 C205 1.268 . S
O212 Sc200 2.105 . S
O212 C206 1.268 . S
O213 Sc199 2.105 1_655 S
O213 C207 1.268 1_655 S
O214 Sc198 2.105 . S
O214 C206 1.268 . S
O215 Sc199 2.105 . S
O215 C205 1.268 . S
O216 Sc200 2.105 . S
O216 C207 1.268 . S
O217 Sc198 2.105 . S
O217 C203 1.268 . S
O218 Sc200 2.105 . S
O218 C202 1.268 . S
O219 Sc199 2.105 1_655 S
O219 C204 1.268 1_655 S
Sc220 O223 2.025 . S
Sc220 O230 2.105 . S
Sc220 O233 2.105 . S
Sc220 O236 2.105 . S
Sc220 O239 2.105 . S
Sc221 O223 2.025 . S
Sc221 O231 2.105 . S
Sc221 O235 2.105 . S
Sc221 O237 2.105 . S
Sc221 O241 2.105 . S
Sc222 O223 2.025 . S
Sc222 O232 2.105 . S
Sc222 O234 2.105 . S
Sc222 O238 2.105 . S
Sc222 O240 2.105 . S
O223 Sc220 2.025 . S
O223 Sc221 2.025 . S
O223 Sc222 2.025 . S
C224 O230 1.268 . S
C224 O240 1.268 . S
C225 O231 1.268 . S
C225 O239 1.268 . S
C226 O232 1.268 . S
C226 O241 1.268 . S
C227 O233 1.268 . S
C227 O237 1.268 . S
C228 O234 1.268 . S
C228 O236 1.268 . S
C229 O235 1.268 . S
C229 O238 1.268 . S
O230 Sc220 2.105 . S
O230 C224 1.268 . S
O231 Sc221 2.105 . S
O231 C225 1.268 . S
O232 Sc222 2.105 . S
O232 C226 1.268 . S
O233 Sc220 2.105 . S
O233 C227 1.268 . S
O234 Sc222 2.105 . S
O234 C228 1.268 . S
O235 Sc221 2.105 . S
O235 C229 1.268 . S
O236 Sc220 2.105 . S
O236 C228 1.268 . S
O237 Sc221 2.105 . S
O237 C227 1.268 . S
O238 Sc222 2.105 . S
O238 C229 1.268 . S
O239 Sc220 2.105 . S
O239 C225 1.268 . S
O240 Sc222 2.105 . S
O240 C224 1.268 . S
O241 Sc221 2.105 . S
O241 C226 1.268 . S
Sc242 O245 2.025 . S
Sc242 O252 2.105 . S
Sc242 O255 2.105 . S
Sc242 O258 2.105 . S
Sc242 O261 2.105 . S
Sc243 O245 2.025 . S
Sc243 O253 2.105 . S
Sc243 O257 2.105 1_565 S
Sc243 O259 2.105 . S
Sc243 O263 2.105 1_565 S
Sc244 O245 2.025 . S
Sc244 O254 2.105 . S
Sc244 O256 2.105 . S
Sc244 O260 2.105 . S
Sc244 O262 2.105 . S
O245 Sc242 2.025 . S
O245 Sc243 2.025 . S
O245 Sc244 2.025 . S
C246 O252 1.268 . S
C246 O262 1.268 . S
C247 O253 1.268 . S
C247 O261 1.268 . S
C248 O254 1.268 . S
C248 O263 1.268 1_565 S
C249 O255 1.268 . S
C249 O259 1.268 . S
C250 O256 1.268 . S
C250 O258 1.268 . S
C251 O257 1.268 1_565 S
C251 O260 1.268 . S
O252 Sc242 2.105 . S
O252 C246 1.268 . S
O253 Sc243 2.105 . S
O253 C247 1.268 . S
O254 Sc244 2.105 . S
O254 C248 1.268 . S
O255 Sc242 2.105 . S
O255 C249 1.268 . S
O256 Sc244 2.105 . S
O256 C250 1.268 . S
O257 Sc243 2.105 1_545 S
O257 C251 1.268 1_545 S
O258 Sc242 2.105 . S
O258 C250 1.268 . S
O259 Sc243 2.105 . S
O259 C249 1.268 . S
O260 Sc244 2.105 . S
O260 C251 1.268 . S
O261 Sc242 2.105 . S
O261 C247 1.268 . S
O262 Sc244 2.105 . S
O262 C246 1.268 . S
O263 Sc243 2.105 1_545 S
O263 C248 1.268 1_545 S
Sc264 O267 2.025 . S
Sc264 O274 2.105 . S
Sc264 O277 2.105 . S
Sc264 O280 2.105 . S
Sc264 O283 2.105 . S
Sc265 O267 2.025 . S
Sc265 O275 2.105 1_545 S
Sc265 O279 2.105 . S
Sc265 O281 2.105 1_545 S
Sc265 O285 2.105 . S
Sc266 O267 2.025 . S
Sc266 O276 2.105 . S
Sc266 O278 2.105 . S
Sc266 O282 2.105 . S
Sc266 O284 2.105 . S
O267 Sc264 2.025 . S
O267 Sc265 2.025 . S
O267 Sc266 2.025 . S
C268 O274 1.268 . S
C268 O284 1.268 . S
C269 O275 1.268 1_545 S
C269 O283 1.268 . S
C270 O276 1.268 . S
C270 O285 1.268 . S
C271 O277 1.268 . S
C271 O281 1.268 1_545 S
C272 O278 1.268 . S
C272 O280 1.268 . S
C273 O279 1.268 . S
C273 O282 1.268 . S
O274 Sc264 2.105 . S
O274 C268 1.268 . S
O275 Sc265 2.105 1_565 S
O275 C269 1.268 1_565 S
O276 Sc266 2.105 . S
O276 C270 1.268 . S
O277 Sc264 2.105 . S
O277 C271 1.268 . S
O278 Sc266 2.105 . S
O278 C272 1.268 . S
O279 Sc265 2.105 . S
O279 C273 1.268 . S
O280 Sc264 2.105 . S
O280 C272 1.268 . S
O281 Sc265 2.105 1_565 S
O281 C271 1.268 1_565 S
O282 Sc266 2.105 . S
O282 C273 1.268 . S
O283 Sc264 2.105 . S
O283 C269 1.268 . S
O284 Sc266 2.105 . S
O284 C268 1.268 . S
O285 Sc265 2.105 . S
O285 C270 1.268 . S
Sc286 O289 2.025 . S
Sc286 O296 2.105 . S
Sc286 O299 2.105 . S
Sc286 O302 2.105 . S
Sc286 O305 2.105 . S
Sc287 O289 2.025 . S
Sc287 O297 2.105 1_655 S
Sc287 O301 2.105 . S
Sc287 O303 2.105 1_655 S
Sc287 O307 2.105 . S
Sc288 O289 2.025 . S
Sc288 O298 2.105 . S
Sc288 O300 2.105 . S
Sc288 O304 2.105 . S
Sc288 O306 2.105 . S
O289 Sc286 2.025 . S
O289 Sc287 2.025 . S
O289 Sc288 2.025 . S
C290 O296 1.268 . S
C290 O306 1.268 . S
C291 O297 1.268 1_655 S
C291 O305 1.268 . S
C292 O298 1.268 . S
C292 O307 1.268 . S
C293 O299 1.268 . S
C293 O303 1.268 1_655 S
C294 O300 1.268 . S
C294 O302 1.268 . S
C295 O301 1.268 . S
C295 O304 1.268 . S
O296 Sc286 2.105 . S
O296 C290 1.268 . S
O297 Sc287 2.105 1_455 S
O297 C291 1.268 1_455 S
O298 Sc288 2.105 . S
O298 C292 1.268 . S
O299 Sc286 2.105 . S
O299 C293 1.268 . S
O300 Sc288 2.105 . S
O300 C294 1.268 . S
O301 Sc287 2.105 . S
O301 C295 1.268 . S
O302 Sc286 2.105 . S
O302 C294 1.268 . S
O303 Sc287 2.105 1_455 S
O303 C293 1.268 1_455 S
O304 Sc288 2.105 . S
O304 C295 1.268 . S
O305 Sc286 2.105 . S
O305 C291 1.268 . S
O306 Sc288 2.105 . S
O306 C290 1.268 . S
O307 Sc287 2.105 . S
O307 C292 1.268 . S
Sc308 O311 2.025 . S
Sc308 O318 2.105 . S
Sc308 O321 2.105 . S
Sc308 O324 2.105 . S
Sc308 O327 2.105 . S
Sc309 O311 2.025 . S
Sc309 O319 2.105 . S
Sc309 O323 2.105 . S
Sc309 O325 2.105 . S
Sc309 O329 2.105 . S
Sc310 O311 2.025 . S
Sc310 O320 2.105 . S
Sc310 O322 2.105 . S
Sc310 O326 2.105 . S
Sc310 O328 2.105 . S
O311 Sc308 2.025 . S
O311 Sc309 2.025 . S
O311 Sc310 2.025 . S
C312 O318 1.268 . S
C312 O328 1.268 . S
C313 O319 1.268 . S
C313 O327 1.268 . S
C314 O320 1.268 . S
C314 O329 1.268 . S
C315 O321 1.268 . S
C315 O325 1.268 . S
C316 O322 1.268 . S
C316 O324 1.268 . S
C317 O323 1.268 . S
C317 O326 1.268 . S
O318 Sc308 2.105 . S
O318 C312 1.268 . S
O319 Sc309 2.105 . S
O319 C313 1.268 . S
O320 Sc310 2.105 . S
O320 C314 1.268 . S
O321 Sc308 2.105 . S
O321 C315 1.268 . S
O322 Sc310 2.105 . S
O322 C316 1.268 . S
O323 Sc309 2.105 . S
O323 C317 1.268 . S
O324 Sc308 2.105 . S
O324 C316 1.268 . S
O325 Sc309 2.105 . S
O325 C315 1.268 . S
O326 Sc310 2.105 . S
O326 C317 1.268 . S
O327 Sc308 2.105 . S
O327 C313 1.268 . S
O328 Sc310 2.105 . S
O328 C312 1.268 . S
O329 Sc309 2.105 . S
O329 C314 1.268 . S
Sc330 O333 2.025 . S
Sc330 O340 2.105 . S
Sc330 O343 2.105 . S
Sc330 O346 2.105 . S
Sc330 O349 2.105 . S
Sc331 O333 2.025 . S
Sc331 O341 2.105 . S
Sc331 O345 2.105 . S
Sc331 O347 2.105 . S
Sc331 O351 2.105 . S
Sc332 O333 2.025 . S
Sc332 O342 2.105 . S
Sc332 O344 2.105 . S
Sc332 O348 2.105 . S
Sc332 O350 2.105 . S
O333 Sc330 2.025 . S
O333 Sc331 2.025 . S
O333 Sc332 2.025 . S
C334 O340 1.268 . S
C334 O350 1.268 . S
C335 O341 1.268 . S
C335 O349 1.268 . S
C336 O342 1.268 . S
C336 O351 1.268 . S
C337 O343 1.268 . S
C337 O347 1.268 . S
C338 O344 1.268 . S
C338 O346 1.268 . S
C339 O345 1.268 . S
C339 O348 1.268 . S
O340 Sc330 2.105 . S
O340 C334 1.268 . S
O341 Sc331 2.105 . S
O341 C335 1.268 . S
O342 Sc332 2.105 . S
O342 C336 1.268 . S
O343 Sc330 2.105 . S
O343 C337 1.268 . S
O344 Sc332 2.105 . S
O344 C338 1.268 . S
O345 Sc331 2.105 . S
O345 C339 1.268 . S
O346 Sc330 2.105 . S
O346 C338 1.268 . S
O347 Sc331 2.105 . S
O347 C337 1.268 . S
O348 Sc332 2.105 . S
O348 C339 1.268 . S
O349 Sc330 2.105 . S
O349 C335 1.268 . S
O350 Sc332 2.105 . S
O350 C334 1.268 . S
O351 Sc331 2.105 . S
O351 C336 1.268 . S
Sc352 O355 2.025 . S
Sc352 O362 2.105 . S
Sc352 O365 2.105 . S
Sc352 O368 2.105 . S
Sc352 O371 2.105 . S
Sc353 O355 2.025 . S
Sc353 O363 2.105 . S
Sc353 O367 2.105 . S
Sc353 O369 2.105 . S
Sc353 O373 2.105 . S
Sc354 O355 2.025 . S
Sc354 O364 2.105 . S
Sc354 O366 2.105 . S
Sc354 O370 2.105 . S
Sc354 O372 2.105 . S
O355 Sc352 2.025 . S
O355 Sc353 2.025 . S
O355 Sc354 2.025 . S
C356 O362 1.268 . S
C356 O372 1.268 . S
C357 O363 1.268 . S
C357 O371 1.268 . S
C358 O364 1.268 . S
C358 O373 1.268 . S
C359 O365 1.268 . S
C359 O369 1.268 . S
C360 O366 1.268 . S
C360 O368 1.268 . S
C361 O367 1.268 . S
C361 O370 1.268 . S
O362 Sc352 2.105 . S
O362 C356 1.268 . S
O363 Sc353 2.105 . S
O363 C357 1.268 . S
O364 Sc354 2.105 . S
O364 C358 1.268 . S
O365 Sc352 2.105 . S
O365 C359 1.268 . S
O366 Sc354 2.105 . S
O366 C360 1.268 . S
O367 Sc353 2.105 . S
O367 C361 1.268 . S
O368 Sc352 2.105 . S
O368 C360 1.268 . S
O369 Sc353 2.105 . S
O369 C359 1.268 . S
O370 Sc354 2.105 . S
O370 C361 1.268 . S
O371 Sc352 2.105 . S
O371 C357 1.268 . S
O372 Sc354 2.105 . S
O372 C356 1.268 . S
O373 Sc353 2.105 . S
O373 C358 1.268 . S
Sc374 O377 2.025 . S
Sc374 O384 2.105 . S
Sc374 O387 2.105 . S
Sc374 O390 2.105 . S
Sc374 O393 2.105 . S
Sc375 O377 2.025 . S
Sc375 O385 2.105 . S
Sc375 O389 2.105 . S
Sc375 O391 2.105 . S
Sc375 O395 2.105 . S
Sc376 O377 2.025 . S
Sc376 O386 2.105 . S
Sc376 O388 2.105 . S
Sc376 O392 2.105 . S
Sc376 O394 2.105 . S
O377 Sc374 2.025 . S
O377 Sc375 2.025 . S
O377 Sc376 2.025 . S
C378 O384 1.268 . S
C378 O394 1.268 . S
C379 O385 1.268 . S
C379 O393 1.268 . S
C380 O386 1.268 . S
C380 O395 1.268 . S
C381 O387 1.268 . S
C381 O391 1.268 . S
C382 O388 1.268 . S
C382 O390 1.268 . S
C383 O389 1.268 . S
C383 O392 1.268 . S
O384 Sc374 2.105 . S
O384 C378 1.268 . S
O385 Sc375 2.105 . S
O385 C379 1.268 . S
O386 Sc376 2.105 . S
O386 C380 1.268 . S
O387 Sc374 2.105 . S
O387 C381 1.268 . S
O388 Sc376 2.105 . S
O388 C382 1.268 . S
O389 Sc375 2.105 . S
O389 C383 1.268 . S
O390 Sc374 2.105 . S
O390 C382 1.268 . S
O391 Sc375 2.105 . S
O391 C381 1.268 . S
O392 Sc376 2.105 . S
O392 C383 1.268 . S
O393 Sc374 2.105 . S
O393 C379 1.268 . S
O394 Sc376 2.105 . S
O394 C378 1.268 . S
O395 Sc375 2.105 . S
O395 C380 1.268 . S
H396 C402 0.930 . S
H397 C405 0.930 1_556 S
H398 C406 0.930 1_556 S
H399 C407 0.930 . S
H400 C410 0.930 . S
H401 C411 0.930 . S
C402 H396 0.930 . S
C402 C403 1.355 . S
C402 C404 1.415 . S
C403 C402 1.355 . S
C403 C405 1.419 . S
C404 C402 1.415 . S
C404 C409 1.425 . S
C404 C411 1.409 . S
C405 H397 0.930 1_554 S
C405 C403 1.419 . S
C405 C406 1.362 . S
C406 H398 0.930 1_554 S
C406 C405 1.362 . S
C406 C409 1.409 . S
C407 H399 0.930 . S
C407 C408 1.355 . S
C407 C409 1.415 . S
C408 C407 1.355 . S
C408 C410 1.419 . S
C409 C404 1.425 . S
C409 C406 1.409 . S
C409 C407 1.415 . S
C410 H400 0.930 . S
C410 C408 1.419 . S
C410 C411 1.362 . S
C411 H401 0.930 . S
C411 C404 1.409 . S
C411 C410 1.362 . S
H412 C418 0.930 . S
H413 C421 0.930 . S
H414 C422 0.930 . S
H415 C423 0.930 . S
H416 C426 0.930 . S
H417 C427 0.930 1_556 S
C418 H412 0.930 . S
C418 C419 1.355 . S
C418 C420 1.415 . S
C419 C418 1.355 . S
C419 C421 1.419 . S
C420 C418 1.415 . S
C420 C425 1.425 . S
C420 C427 1.409 . S
C421 H413 0.930 . S
C421 C419 1.419 . S
C421 C422 1.362 . S
C422 H414 0.930 . S
C422 C421 1.362 . S
C422 C425 1.409 . S
C423 H415 0.930 . S
C423 C424 1.355 . S
C423 C425 1.415 . S
C424 C423 1.355 . S
C424 C426 1.419 . S
C425 C420 1.425 . S
C425 C422 1.409 . S
C425 C423 1.415 . S
C426 H416 0.930 . S
C426 C424 1.419 . S
C426 C427 1.362 . S
C427 H417 0.930 1_554 S
C427 C420 1.409 . S
C427 C426 1.362 . S
H428 C434 0.930 . S
H429 C437 0.930 . S
H430 C438 0.930 . S
H431 C439 0.930 . S
H432 C442 0.910 1_556 S
H433 C443 0.930 1_556 S
C434 H428 0.930 . S
C434 C435 1.355 . S
C434 C436 1.415 . S
C435 C434 1.355 . S
C435 C437 1.419 . S
C436 C434 1.415 . S
C436 C441 1.425 . S
C436 C443 1.409 . S
C437 H429 0.930 . S
C437 C435 1.419 . S
C437 C438 1.362 . S
C438 H430 0.930 . S
C438 C437 1.362 . S
C438 C441 1.409 . S
C439 H431 0.930 . S
C439 C440 1.355 . S
C439 C441 1.415 . S
C440 C439 1.355 . S
C440 C442 1.419 . S
C441 C436 1.425 . S
C441 C438 1.409 . S
C441 C439 1.415 . S
C442 H432 0.910 1_554 S
C442 C440 1.419 . S
C442 C443 1.362 . S
C443 H433 0.930 1_554 S
C443 C436 1.409 . S
C443 C442 1.362 . S
H444 C450 0.930 . S
H445 C453 0.930 . S
H446 C454 0.930 1_554 S
H447 C455 0.930 . S
H448 C458 0.930 . S
H449 C459 0.930 . S
C450 H444 0.930 . S
C450 C451 1.355 . S
C450 C452 1.415 . S
C451 C450 1.355 . S
C451 C453 1.419 . S
C452 C450 1.415 . S
C452 C457 1.425 . S
C452 C459 1.409 . S
C453 H445 0.930 . S
C453 C451 1.419 . S
C453 C454 1.362 . S
C454 H446 0.930 1_556 S
C454 C453 1.362 . S
C454 C457 1.409 . S
C455 H447 0.930 . S
C455 C456 1.355 . S
C455 C457 1.415 . S
C456 C455 1.355 . S
C456 C458 1.419 . S
C457 C452 1.425 . S
C457 C454 1.409 . S
C457 C455 1.415 . S
C458 H448 0.930 . S
C458 C456 1.419 . S
C458 C459 1.362 . S
C459 H449 0.930 . S
C459 C452 1.409 . S
C459 C458 1.362 . S
H460 C466 0.930 . S
H461 C469 0.930 . S
H462 C470 0.930 . S
H463 C471 0.930 . S
H464 C474 0.930 . S
H465 C475 0.930 . S
C466 H460 0.930 . S
C466 C467 1.355 . S
C466 C468 1.415 . S
C467 C466 1.355 . S
C467 C469 1.419 . S
C468 C466 1.415 . S
C468 C473 1.425 . S
C468 C475 1.409 . S
C469 H461 0.930 . S
C469 C467 1.419 . S
C469 C470 1.362 . S
C470 H462 0.930 . S
C470 C469 1.362 . S
C470 C473 1.409 . S
C471 H463 0.930 . S
C471 C472 1.355 . S
C471 C473 1.415 . S
C472 C471 1.355 . S
C472 C474 1.419 . S
C473 C468 1.425 . S
C473 C470 1.409 . S
C473 C471 1.415 . S
C474 H464 0.930 . S
C474 C472 1.419 . S
C474 C475 1.362 . S
C475 H465 0.930 . S
C475 C468 1.409 . S
C475 C474 1.362 . S
H476 C482 0.930 . S
H477 C485 0.930 . S
H478 C486 0.930 . S
H479 C487 0.930 . S
H480 C490 0.930 . S
H481 C491 0.930 . S
C482 H476 0.930 . S
C482 C483 1.355 . S
C482 C484 1.415 . S
C483 C482 1.355 . S
C483 C485 1.419 . S
C484 C482 1.415 . S
C484 C489 1.425 . S
C484 C491 1.409 . S
C485 H477 0.930 . S
C485 C483 1.419 . S
C485 C486 1.362 . S
C486 H478 0.930 . S
C486 C485 1.362 . S
C486 C489 1.409 . S
C487 H479 0.930 . S
C487 C488 1.355 . S
C487 C489 1.415 . S
C488 C487 1.355 . S
C488 C490 1.419 . S
C489 C484 1.425 . S
C489 C486 1.409 . S
C489 C487 1.415 . S
C490 H480 0.930 . S
C490 C488 1.419 . S
C490 C491 1.362 . S
C491 H481 0.930 . S
C491 C484 1.409 . S
C491 C490 1.362 . S
H492 C498 0.930 1_545 S
H493 C501 0.930 . S
H494 C502 0.930 . S
H495 C503 0.930 . S
H496 C506 0.930 . S
H497 C507 0.930 . S
C498 H492 0.930 1_565 S
C498 C499 1.355 . S
C498 C500 1.415 . S
C499 C498 1.355 . S
C499 C501 1.419 . S
C500 C498 1.415 . S
C500 C505 1.425 . S
C500 C507 1.409 . S
C501 H493 0.930 . S
C501 C499 1.419 . S
C501 C502 1.362 . S
C502 H494 0.930 . S
C502 C501 1.362 . S
C502 C505 1.409 . S
C503 H495 0.930 . S
C503 C504 1.355 . S
C503 C505 1.415 . S
C504 C503 1.355 . S
C504 C506 1.419 . S
C505 C500 1.425 . S
C505 C502 1.409 . S
C505 C503 1.415 . S
C506 H496 0.930 . S
C506 C504 1.419 . S
C506 C507 1.362 . S
C507 H497 0.930 . S
C507 C500 1.409 . S
C507 C506 1.362 . S
H508 C514 0.930 1_655 S
H509 C517 0.930 . S
H510 C518 0.930 . S
H511 C519 0.930 . S
H512 C522 0.930 . S
H513 C523 0.930 . S
C514 H508 0.930 1_455 S
C514 C515 1.355 . S
C514 C516 1.415 . S
C515 C514 1.355 . S
C515 C517 1.419 . S
C516 C514 1.415 . S
C516 C521 1.425 . S
C516 C523 1.409 . S
C517 H509 0.930 . S
C517 C515 1.419 . S
C517 C518 1.362 . S
C518 H510 0.930 . S
C518 C517 1.362 . S
C518 C521 1.409 . S
C519 H511 0.930 . S
C519 C520 1.355 . S
C519 C521 1.415 . S
C520 C519 1.355 . S
C520 C522 1.419 1_565 S
C521 C516 1.425 . S
C521 C518 1.409 . S
C521 C519 1.415 . S
C522 H512 0.930 . S
C522 C520 1.419 1_545 S
C522 C523 1.362 1_545 S
C523 H513 0.930 . S
C523 C516 1.409 . S
C523 C522 1.362 1_565 S
H524 C530 0.930 . S
H525 C533 0.930 . S
H526 C534 0.930 . S
H527 C535 0.929 . S
H528 C538 0.930 . S
H529 C539 0.930 . S
C530 H524 0.930 . S
C530 C531 1.355 . S
C530 C532 1.415 . S
C531 C530 1.355 . S
C531 C533 1.419 . S
C532 C530 1.415 . S
C532 C537 1.425 . S
C532 C539 1.409 . S
C533 H525 0.930 . S
C533 C531 1.419 . S
C533 C534 1.362 . S
C534 H526 0.930 . S
C534 C533 1.362 . S
C534 C537 1.409 . S
C535 H527 0.929 . S
C535 C536 1.355 . S
C535 C537 1.415 . S
C536 C535 1.355 . S
C536 C538 1.419 . S
C537 C532 1.425 . S
C537 C534 1.409 . S
C537 C535 1.415 . S
C538 H528 0.930 . S
C538 C536 1.419 . S
C538 C539 1.362 . S
C539 H529 0.930 . S
C539 C532 1.409 . S
C539 C538 1.362 . S
H540 C546 0.930 . S
H541 C549 0.930 . S
H542 C550 0.930 . S
H543 C551 0.930 . S
H544 C554 0.930 . S
H545 C555 0.930 . S
C546 H540 0.930 . S
C546 C547 1.355 . S
C546 C548 1.415 . S
C547 C546 1.355 . S
C547 C549 1.419 . S
C548 C546 1.415 . S
C548 C553 1.425 . S
C548 C555 1.409 . S
C549 H541 0.930 . S
C549 C547 1.419 . S
C549 C550 1.362 . S
C550 H542 0.930 . S
C550 C549 1.362 . S
C550 C553 1.409 . S
C551 H543 0.930 . S
C551 C552 1.355 . S
C551 C553 1.415 . S
C552 C551 1.355 . S
C552 C554 1.419 . S
C553 C548 1.425 . S
C553 C550 1.409 . S
C553 C551 1.415 . S
C554 H544 0.930 . S
C554 C552 1.419 . S
C554 C555 1.362 . S
C555 H545 0.930 . S
C555 C548 1.409 . S
C555 C554 1.362 . S
H556 C562 0.930 . S
H557 C565 0.930 . S
H558 C566 0.930 . S
H559 C567 0.930 . S
H560 C570 0.930 . S
H561 C571 0.930 . S
C562 H556 0.930 . S
C562 C563 1.355 . S
C562 C564 1.415 . S
C563 C562 1.355 . S
C563 C565 1.419 . S
C564 C562 1.415 . S
C564 C569 1.425 . S
C564 C571 1.409 . S
C565 H557 0.930 . S
C565 C563 1.419 . S
C565 C566 1.362 . S
C566 H558 0.930 . S
C566 C565 1.362 . S
C566 C569 1.409 . S
C567 H559 0.930 . S
C567 C568 1.355 . S
C567 C569 1.415 . S
C568 C567 1.355 . S
C568 C570 1.419 . S
C569 C564 1.425 . S
C569 C566 1.409 . S
C569 C567 1.415 . S
C570 H560 0.930 . S
C570 C568 1.419 . S
C570 C571 1.362 . S
C571 H561 0.930 . S
C571 C564 1.409 . S
C571 C570 1.362 . S
H572 C578 0.930 . S
H573 C581 0.930 . S
H574 C582 0.930 . S
H575 C583 0.930 . S
H576 C586 0.930 . S
H577 C587 0.930 . S
C578 H572 0.930 . S
C578 C579 1.355 . S
C578 C580 1.415 . S
C579 C578 1.355 . S
C579 C581 1.419 . S
C580 C578 1.415 . S
C580 C585 1.425 . S
C580 C587 1.409 . S
C581 H573 0.930 . S
C581 C579 1.419 . S
C581 C582 1.362 . S
C582 H574 0.930 . S
C582 C581 1.362 . S
C582 C585 1.409 . S
C583 H575 0.930 . S
C583 C584 1.355 . S
C583 C585 1.415 . S
C584 C583 1.355 . S
C584 C586 1.419 . S
C585 C580 1.425 . S
C585 C582 1.409 . S
C585 C583 1.415 . S
C586 H576 0.930 . S
C586 C584 1.419 . S
C586 C587 1.362 . S
C587 H577 0.930 . S
C587 C580 1.409 . S
C587 C586 1.362 . S
H588 C594 0.930 . S
H589 C597 0.930 . S
H590 C598 0.930 . S
H591 C599 0.930 . S
H592 C602 0.930 . S
H593 C603 0.930 . S
C594 H588 0.930 . S
C594 C595 1.355 . S
C594 C596 1.415 . S
C595 C594 1.355 . S
C595 C597 1.419 . S
C596 C594 1.415 . S
C596 C601 1.425 . S
C596 C603 1.409 . S
C597 H589 0.930 . S
C597 C595 1.419 . S
C597 C598 1.362 . S
C598 H590 0.930 . S
C598 C597 1.362 . S
C598 C601 1.409 . S
C599 H591 0.930 . S
C599 C600 1.355 . S
C599 C601 1.415 . S
C600 C599 1.355 . S
C600 C602 1.419 . S
C601 C596 1.425 . S
C601 C598 1.409 . S
C601 C599 1.415 . S
C602 H592 0.930 . S
C602 C600 1.419 . S
C602 C603 1.362 . S
C603 H593 0.930 . S
C603 C596 1.409 . S
C603 C602 1.362 . S
H604 C610 0.930 . S
H605 C613 0.930 . S
H606 C614 0.930 . S
H607 C615 0.930 . S
H608 C618 0.930 . S
H609 C619 0.930 . S
C610 H604 0.930 . S
C610 C611 1.355 . S
C610 C612 1.415 . S
C611 C610 1.355 . S
C611 C613 1.419 . S
C612 C610 1.415 . S
C612 C617 1.425 . S
C612 C619 1.409 . S
C613 H605 0.930 . S
C613 C611 1.419 . S
C613 C614 1.362 . S
C614 H606 0.930 . S
C614 C613 1.362 . S
C614 C617 1.409 . S
C615 H607 0.930 . S
C615 C616 1.355 . S
C615 C617 1.415 . S
C616 C615 1.355 . S
C616 C618 1.419 . S
C617 C612 1.425 . S
C617 C614 1.409 . S
C617 C615 1.415 . S
C618 H608 0.930 . S
C618 C616 1.419 . S
C618 C619 1.362 . S
C619 H609 0.930 . S
C619 C612 1.409 . S
C619 C618 1.362 . S
H620 C626 0.930 . S
H621 C629 0.930 . S
H622 C630 0.930 . S
H623 C631 0.930 . S
H624 C634 0.930 . S
H625 C635 0.930 . S
C626 H620 0.930 . S
C626 C627 1.355 . S
C626 C628 1.415 . S
C627 C626 1.355 . S
C627 C629 1.419 . S
C628 C626 1.415 . S
C628 C633 1.425 . S
C628 C635 1.409 . S
C629 H621 0.930 . S
C629 C627 1.419 . S
C629 C630 1.362 . S
C630 H622 0.930 . S
C630 C629 1.362 . S
C630 C633 1.409 . S
C631 H623 0.930 . S
C631 C632 1.355 . S
C631 C633 1.415 . S
C632 C631 1.355 . S
C632 C634 1.419 . S
C633 C628 1.425 . S
C633 C630 1.409 . S
C633 C631 1.415 . S
C634 H624 0.930 . S
C634 C632 1.419 . S
C634 C635 1.362 . S
C635 H625 0.930 . S
C635 C628 1.409 . S
C635 C634 1.362 . S
H636 C642 0.930 . S
H637 C645 0.930 1_455 S
H638 C646 0.930 . S
H639 C647 0.930 . S
H640 C650 0.930 . S
H641 C651 0.930 . S
C642 H636 0.930 . S
C642 C643 1.355 . S
C642 C644 1.415 . S
C643 C642 1.355 . S
C643 C645 1.419 . S
C644 C642 1.415 . S
C644 C649 1.425 . S
C644 C651 1.409 . S
C645 H637 0.930 1_655 S
C645 C643 1.419 . S
C645 C646 1.362 . S
C646 H638 0.930 . S
C646 C645 1.362 . S
C646 C649 1.409 . S
C647 H639 0.930 . S
C647 C648 1.355 . S
C647 C649 1.415 . S
C648 C647 1.355 . S
C648 C650 1.419 . S
C649 C644 1.425 . S
C649 C646 1.409 . S
C649 C647 1.415 . S
C650 H640 0.930 . S
C650 C648 1.419 . S
C650 C651 1.362 . S
C651 H641 0.930 . S
C651 C644 1.409 . S
C651 C650 1.362 . S
H652 C658 0.930 . S
H653 C661 0.930 . S
H654 C662 0.930 . S
H655 C663 0.930 . S
H656 C666 0.928 1_565 S
H657 C667 0.930 . S
C658 H652 0.930 . S
C658 C659 1.355 . S
C658 C660 1.415 . S
C659 C658 1.355 . S
C659 C661 1.419 . S
C660 C658 1.415 . S
C660 C665 1.425 . S
C660 C667 1.409 . S
C661 H653 0.930 . S
C661 C659 1.419 . S
C661 C662 1.362 . S
C662 H654 0.930 . S
C662 C661 1.362 . S
C662 C665 1.409 . S
C663 H655 0.930 . S
C663 C664 1.355 . S
C663 C665 1.415 . S
C664 C663 1.355 . S
C664 C666 1.419 . S
C665 C660 1.425 . S
C665 C662 1.409 . S
C665 C663 1.415 . S
C666 H656 0.928 1_545 S
C666 C664 1.419 . S
C666 C667 1.362 . S
C667 H657 0.930 . S
C667 C660 1.409 . S
C667 C666 1.362 . S
H668 C674 0.930 . S
H669 C677 0.930 1_455 S
H670 C678 0.930 . S
H671 C679 0.930 . S
H672 C682 0.930 . S
H673 C683 0.930 . S
C674 H668 0.930 . S
C674 C675 1.355 . S
C674 C676 1.415 . S
C675 C674 1.355 . S
C675 C677 1.419 . S
C676 C674 1.415 . S
C676 C681 1.425 . S
C676 C683 1.409 . S
C677 H669 0.930 1_655 S
C677 C675 1.419 . S
C677 C678 1.362 . S
C678 H670 0.930 . S
C678 C677 1.362 . S
C678 C681 1.409 . S
C679 H671 0.930 . S
C679 C680 1.355 . S
C679 C681 1.415 . S
C680 C679 1.355 . S
C680 C682 1.419 . S
C681 C676 1.425 . S
C681 C678 1.409 . S
C681 C679 1.415 . S
C682 H672 0.930 . S
C682 C680 1.419 . S
C682 C683 1.362 . S
C683 H673 0.930 . S
C683 C676 1.409 . S
C683 C682 1.362 . S
H684 C690 0.930 . S
H685 C693 0.930 . S
H686 C694 0.930 . S
H687 C695 0.930 . S
H688 C698 0.930 . S
H689 C699 0.930 . S
C690 H684 0.930 . S
C690 C691 1.355 . S
C690 C692 1.415 . S
C691 C690 1.355 . S
C691 C693 1.419 . S
C692 C690 1.415 . S
C692 C697 1.425 . S
C692 C699 1.409 . S
C693 H685 0.930 . S
C693 C691 1.419 . S
C693 C694 1.362 . S
C694 H686 0.930 . S
C694 C693 1.362 . S
C694 C697 1.409 . S
C695 H687 0.930 . S
C695 C696 1.355 . S
C695 C697 1.415 . S
C696 C695 1.355 . S
C696 C698 1.419 . S
C697 C692 1.425 . S
C697 C694 1.409 . S
C697 C695 1.415 . S
C698 H688 0.930 . S
C698 C696 1.419 . S
C698 C699 1.362 . S
C699 H689 0.930 . S
C699 C692 1.409 . S
C699 C698 1.362 . S
H700 C706 0.930 . S
H701 C709 0.930 . S
H702 C710 0.930 . S
H703 C711 0.930 . S
H704 C714 0.930 . S
H705 C715 0.930 . S
C706 H700 0.930 . S
C706 C707 1.355 . S
C706 C708 1.415 . S
C707 C706 1.355 . S
C707 C709 1.419 . S
C708 C706 1.415 . S
C708 C713 1.425 . S
C708 C715 1.409 . S
C709 H701 0.930 . S
C709 C707 1.419 . S
C709 C710 1.362 . S
C710 H702 0.930 . S
C710 C709 1.362 . S
C710 C713 1.409 . S
C711 H703 0.930 . S
C711 C712 1.355 . S
C711 C713 1.415 . S
C712 C711 1.355 . S
C712 C714 1.419 . S
C713 C708 1.425 . S
C713 C710 1.409 . S
C713 C711 1.415 . S
C714 H704 0.930 . S
C714 C712 1.419 . S
C714 C715 1.362 . S
C715 H705 0.930 . S
C715 C708 1.409 . S
C715 C714 1.362 . S
H716 C722 0.930 . S
H717 C725 0.930 . S
H718 C726 0.930 . S
H719 C727 0.930 . S
H720 C730 0.930 . S
H721 C731 0.930 . S
C722 H716 0.930 . S
C722 C723 1.355 . S
C722 C724 1.415 . S
C723 C722 1.355 . S
C723 C725 1.419 . S
C724 C722 1.415 . S
C724 C729 1.425 . S
C724 C731 1.409 . S
C725 H717 0.930 . S
C725 C723 1.419 . S
C725 C726 1.362 . S
C726 H718 0.930 . S
C726 C725 1.362 . S
C726 C729 1.409 . S
C727 H719 0.930 . S
C727 C728 1.355 . S
C727 C729 1.415 . S
C728 C727 1.355 . S
C728 C730 1.419 . S
C729 C724 1.425 . S
C729 C726 1.409 . S
C729 C727 1.415 . S
C730 H720 0.930 . S
C730 C728 1.419 . S
C730 C731 1.362 . S
C731 H721 0.930 . S
C731 C724 1.409 . S
C731 C730 1.362 . S
H732 C738 0.930 . S
H733 C741 0.930 . S
H734 C742 0.930 . S
H735 C743 0.930 . S
H736 C746 0.930 . S
H737 C747 0.930 . S
C738 H732 0.930 . S
C738 C739 1.355 . S
C738 C740 1.415 . S
C739 C738 1.355 . S
C739 C741 1.419 . S
C740 C738 1.415 . S
C740 C745 1.425 . S
C740 C747 1.409 . S
C741 H733 0.930 . S
C741 C739 1.419 . S
C741 C742 1.362 . S
C742 H734 0.930 . S
C742 C741 1.362 . S
C742 C745 1.409 . S
C743 H735 0.930 . S
C743 C744 1.355 . S
C743 C745 1.415 . S
C744 C743 1.355 . S
C744 C746 1.419 . S
C745 C740 1.425 . S
C745 C742 1.409 . S
C745 C743 1.415 . S
C746 H736 0.930 . S
C746 C744 1.419 . S
C746 C747 1.362 . S
C747 H737 0.930 . S
C747 C740 1.409 . S
C747 C746 1.362 . S
H748 C754 0.930 . S
H749 C757 0.930 . S
H750 C758 0.930 . S
H751 C759 0.930 . S
H752 C762 0.930 . S
H753 C763 0.930 . S
C754 H748 0.930 . S
C754 C755 1.355 . S
C754 C756 1.415 . S
C755 C754 1.355 . S
C755 C757 1.419 . S
C756 C754 1.415 . S
C756 C761 1.425 . S
C756 C763 1.409 . S
C757 H749 0.930 . S
C757 C755 1.419 . S
C757 C758 1.362 . S
C758 H750 0.930 . S
C758 C757 1.362 . S
C758 C761 1.409 . S
C759 H751 0.930 . S
C759 C760 1.355 . S
C759 C761 1.415 . S
C760 C759 1.355 . S
C760 C762 1.419 . S
C761 C756 1.425 . S
C761 C758 1.409 . S
C761 C759 1.415 . S
C762 H752 0.930 . S
C762 C760 1.419 . S
C762 C763 1.362 . S
C763 H753 0.930 . S
C763 C756 1.409 . S
C763 C762 1.362 . S
H764 C770 0.930 . S
H765 C773 0.930 . S
H766 C774 0.930 . S
H767 C775 0.930 . S
H768 C778 0.930 . S
H769 C779 0.930 . S
C770 H764 0.930 . S
C770 C771 1.355 . S
C770 C772 1.415 . S
C771 C770 1.355 . S
C771 C773 1.419 . S
C772 C770 1.415 . S
C772 C777 1.425 . S
C772 C779 1.409 . S
C773 H765 0.930 . S
C773 C771 1.419 . S
C773 C774 1.362 . S
C774 H766 0.930 . S
C774 C773 1.362 . S
C774 C777 1.409 . S
C775 H767 0.930 . S
C775 C776 1.355 . S
C775 C777 1.415 . S
C776 C775 1.355 . S
C776 C778 1.419 . S
C777 C772 1.425 . S
C777 C774 1.409 . S
C777 C775 1.415 . S
C778 H768 0.930 . S
C778 C776 1.419 . S
C778 C779 1.362 . S
C779 H769 0.930 . S
C779 C772 1.409 . S
C779 C778 1.362 . S
H780 C786 0.930 . S
H781 C789 0.930 . S
H782 C790 0.930 . S
H783 C791 0.930 . S
H784 C794 0.930 . S
H785 C795 0.930 . S
C786 H780 0.930 . S
C786 C787 1.355 . S
C786 C788 1.415 . S
C787 C786 1.355 . S
C787 C789 1.419 . S
C788 C786 1.415 . S
C788 C793 1.425 . S
C788 C795 1.409 . S
C789 H781 0.930 . S
C789 C787 1.419 . S
C789 C790 1.362 . S
C790 H782 0.930 . S
C790 C789 1.362 . S
C790 C793 1.409 . S
C791 H783 0.930 . S
C791 C792 1.355 . S
C791 C793 1.415 . S
C792 C791 1.355 . S
C792 C794 1.419 . S
C793 C788 1.425 . S
C793 C790 1.409 . S
C793 C791 1.415 . S
C794 H784 0.930 . S
C794 C792 1.419 . S
C794 C795 1.362 . S
C795 H785 0.930 . S
C795 C788 1.409 . S
C795 C794 1.362 . S
H796 C802 0.930 . S
H797 C805 0.930 . S
H798 C806 0.930 . S
H799 C807 0.930 . S
H800 C810 0.930 . S
H801 C811 0.930 . S
C802 H796 0.930 . S
C802 C803 1.355 . S
C802 C804 1.415 . S
C803 C802 1.355 . S
C803 C805 1.419 . S
C804 C802 1.415 . S
C804 C809 1.425 . S
C804 C811 1.409 . S
C805 H797 0.930 . S
C805 C803 1.419 . S
C805 C806 1.362 . S
C806 H798 0.930 . S
C806 C805 1.362 . S
C806 C809 1.409 . S
C807 H799 0.930 . S
C807 C808 1.355 . S
C807 C809 1.415 . S
C808 C807 1.355 . S
C808 C810 1.419 . S
C809 C804 1.425 . S
C809 C806 1.409 . S
C809 C807 1.415 . S
C810 H800 0.930 . S
C810 C808 1.419 . S
C810 C811 1.362 . S
C811 H801 0.930 . S
C811 C804 1.409 . S
C811 C810 1.362 . S
H812 C818 0.930 . S
H813 C821 0.930 . S
H814 C822 0.930 . S
H815 C823 0.930 . S
H816 C826 0.930 . S
H817 C827 0.930 . S
C818 H812 0.930 . S
C818 C819 1.355 . S
C818 C820 1.415 . S
C819 C818 1.355 . S
C819 C821 1.419 . S
C820 C818 1.415 . S
C820 C825 1.425 . S
C820 C827 1.409 . S
C821 H813 0.930 . S
C821 C819 1.419 . S
C821 C822 1.362 . S
C822 H814 0.930 . S
C822 C821 1.362 . S
C822 C825 1.409 . S
C823 H815 0.930 . S
C823 C824 1.355 . S
C823 C825 1.415 . S
C824 C823 1.355 . S
C824 C826 1.419 . S
C825 C820 1.425 . S
C825 C822 1.409 . S
C825 C823 1.415 . S
C826 H816 0.930 . S
C826 C824 1.419 . S
C826 C827 1.362 . S
C827 H817 0.930 . S
C827 C820 1.409 . S
C827 C826 1.362 . S
H828 C834 0.930 . S
H829 C837 0.930 . S
H830 C838 0.930 . S
H831 C839 0.930 . S
H832 C842 0.930 . S
H833 C843 0.930 . S
C834 H828 0.930 . S
C834 C835 1.355 . S
C834 C836 1.415 . S
C835 C834 1.355 . S
C835 C837 1.419 . S
C836 C834 1.415 . S
C836 C841 1.425 . S
C836 C843 1.409 . S
C837 H829 0.930 . S
C837 C835 1.419 . S
C837 C838 1.362 . S
C838 H830 0.930 . S
C838 C837 1.362 . S
C838 C841 1.409 . S
C839 H831 0.930 . S
C839 C840 1.355 . S
C839 C841 1.415 . S
C840 C839 1.355 . S
C840 C842 1.419 . S
C841 C836 1.425 . S
C841 C838 1.409 . S
C841 C839 1.415 . S
C842 H832 0.930 . S
C842 C840 1.419 . S
C842 C843 1.362 . S
C843 H833 0.930 . S
C843 C836 1.409 . S
C843 C842 1.362 . S
H844 C850 0.930 . S
H845 C853 0.930 . S
H846 C854 0.930 . S
H847 C855 0.930 . S
H848 C858 0.930 . S
H849 C859 0.930 . S
C850 H844 0.930 . S
C850 C851 1.355 . S
C850 C852 1.415 . S
C851 C850 1.355 . S
C851 C853 1.419 . S
C852 C850 1.415 . S
C852 C857 1.425 . S
C852 C859 1.409 . S
C853 H845 0.930 . S
C853 C851 1.419 . S
C853 C854 1.362 . S
C854 H846 0.930 . S
C854 C853 1.362 . S
C854 C857 1.409 . S
C855 H847 0.930 . S
C855 C856 1.355 . S
C855 C857 1.415 . S
C856 C855 1.355 . S
C856 C858 1.419 . S
C857 C852 1.425 . S
C857 C854 1.409 . S
C857 C855 1.415 . S
C858 H848 0.930 . S
C858 C856 1.419 . S
C858 C859 1.362 . S
C859 H849 0.930 . S
C859 C852 1.409 . S
C859 C858 1.362 . S
H860 C866 0.930 . S
H861 C869 0.930 . S
H862 C870 0.930 . S
H863 C871 0.930 . S
H864 C874 0.930 . S
H865 C875 0.930 . S
C866 H860 0.930 . S
C866 C867 1.355 . S
C866 C868 1.415 . S
C867 C866 1.355 . S
C867 C869 1.419 . S
C868 C866 1.415 . S
C868 C873 1.425 . S
C868 C875 1.409 . S
C869 H861 0.930 . S
C869 C867 1.419 . S
C869 C870 1.362 . S
C870 H862 0.930 . S
C870 C869 1.362 . S
C870 C873 1.409 . S
C871 H863 0.930 . S
C871 C872 1.355 . S
C871 C873 1.415 . S
C872 C871 1.355 . S
C872 C874 1.419 . S
C873 C868 1.425 . S
C873 C870 1.409 . S
C873 C871 1.415 . S
C874 H864 0.930 . S
C874 C872 1.419 . S
C874 C875 1.362 . S
C875 H865 0.930 . S
C875 C868 1.409 . S
C875 C874 1.362 . S
H876 C882 0.930 . S
H877 C885 0.930 . S
H878 C886 0.930 . S
H879 C887 0.930 . S
H880 C890 0.930 . S
H881 C891 0.930 . S
C882 H876 0.930 . S
C882 C883 1.355 . S
C882 C884 1.415 . S
C883 C882 1.355 . S
C883 C885 1.419 . S
C884 C882 1.415 . S
C884 C889 1.425 . S
C884 C891 1.409 . S
C885 H877 0.930 . S
C885 C883 1.419 . S
C885 C886 1.362 . S
C886 H878 0.930 . S
C886 C885 1.362 . S
C886 C889 1.409 . S
C887 H879 0.930 . S
C887 C888 1.355 . S
C887 C889 1.415 . S
C888 C887 1.355 . S
C888 C890 1.419 . S
C889 C884 1.425 . S
C889 C886 1.409 . S
C889 C887 1.415 . S
C890 H880 0.930 . S
C890 C888 1.419 . S
C890 C891 1.362 . S
C891 H881 0.930 . S
C891 C884 1.409 . S
C891 C890 1.362 . S
H892 C898 0.930 1_565 S
H893 C901 0.930 . S
H894 C902 0.930 . S
H895 C903 0.930 1_545 S
H896 C906 0.930 . S
H897 C907 0.930 . S
C898 H892 0.930 1_545 S
C898 C899 1.355 . S
C898 C900 1.415 1_545 S
C899 C898 1.355 . S
C899 C901 1.419 . S
C900 C898 1.415 1_565 S
C900 C905 1.425 1_565 S
C900 C907 1.409 . S
C901 H893 0.930 . S
C901 C899 1.419 . S
C901 C902 1.362 . S
C902 H894 0.930 . S
C902 C901 1.362 . S
C902 C905 1.409 . S
C903 H895 0.930 1_565 S
C903 C904 1.355 . S
C903 C905 1.415 1_565 S
C904 C903 1.355 . S
C904 C906 1.419 . S
C905 C900 1.425 1_545 S
C905 C902 1.409 . S
C905 C903 1.415 1_545 S
C906 H896 0.930 . S
C906 C904 1.419 . S
C906 C907 1.362 . S
C907 H897 0.930 . S
C907 C900 1.409 . S
C907 C906 1.362 . S
H908 C914 0.930 1_655 S
H909 C917 0.930 . S
H910 C918 0.930 . S
H911 C919 0.930 1_455 S
H912 C922 0.930 . S
H913 C923 0.930 . S
C914 H908 0.930 1_455 S
C914 C915 1.355 . S
C914 C916 1.415 1_455 S
C915 C914 1.355 . S
C915 C917 1.419 . S
C916 C914 1.415 1_655 S
C916 C921 1.425 1_655 S
C916 C923 1.409 . S
C917 H909 0.930 . S
C917 C915 1.419 . S
C917 C918 1.362 . S
C918 H910 0.930 . S
C918 C917 1.362 . S
C918 C921 1.409 . S
C919 H911 0.930 1_655 S
C919 C920 1.355 . S
C919 C921 1.415 1_655 S
C920 C919 1.355 . S
C920 C922 1.419 . S
C921 C916 1.425 1_455 S
C921 C918 1.409 . S
C921 C919 1.415 1_455 S
C922 H912 0.930 . S
C922 C920 1.419 . S
C922 C923 1.362 . S
C923 H913 0.930 . S
C923 C916 1.409 . S
C923 C922 1.362 . S
H924 C930 0.930 . S
H925 C933 0.930 . S
H926 C934 0.930 . S
H927 C935 0.930 . S
H928 C938 0.930 . S
H929 C939 0.930 . S
C930 H924 0.930 . S
C930 C931 1.355 . S
C930 C932 1.415 . S
C931 C930 1.355 . S
C931 C933 1.419 . S
C932 C930 1.415 . S
C932 C937 1.425 . S
C932 C939 1.409 . S
C933 H925 0.930 . S
C933 C931 1.419 . S
C933 C934 1.362 . S
C934 H926 0.930 . S
C934 C933 1.362 . S
C934 C937 1.409 . S
C935 H927 0.930 . S
C935 C936 1.355 . S
C935 C937 1.415 . S
C936 C935 1.355 . S
C936 C938 1.419 . S
C937 C932 1.425 . S
C937 C934 1.409 . S
C937 C935 1.415 . S
C938 H928 0.930 . S
C938 C936 1.419 . S
C938 C939 1.362 . S
C939 H929 0.930 . S
C939 C932 1.409 . S
C939 C938 1.362 . S
H940 C946 0.930 1_565 S
H941 C949 0.930 . S
H942 C950 0.930 . S
H943 C951 0.930 1_545 S
H944 C954 0.930 . S
H945 C955 0.930 . S
C946 H940 0.930 1_545 S
C946 C947 1.355 . S
C946 C948 1.415 1_545 S
C947 C946 1.355 . S
C947 C949 1.419 . S
C948 C946 1.415 1_565 S
C948 C953 1.425 1_565 S
C948 C955 1.409 . S
C949 H941 0.930 . S
C949 C947 1.419 . S
C949 C950 1.362 . S
C950 H942 0.930 . S
C950 C949 1.362 . S
C950 C953 1.409 . S
C951 H943 0.930 1_565 S
C951 C952 1.355 . S
C951 C953 1.415 1_565 S
C952 C951 1.355 . S
C952 C954 1.419 . S
C953 C948 1.425 1_545 S
C953 C950 1.409 . S
C953 C951 1.415 1_545 S
C954 H944 0.930 . S
C954 C952 1.419 . S
C954 C955 1.362 . S
C955 H945 0.930 . S
C955 C948 1.409 . S
C955 C954 1.362 . S
H956 C962 0.930 . S
H957 C965 0.930 . S
H958 C966 0.930 . S
H959 C967 0.930 . S
H960 C970 0.930 . S
H961 C971 0.930 . S
C962 H956 0.930 . S
C962 C963 1.355 . S
C962 C964 1.415 . S
C963 C962 1.355 . S
C963 C965 1.419 . S
C964 C962 1.415 . S
C964 C969 1.425 1_455 S
C964 C971 1.409 1_455 S
C965 H957 0.930 . S
C965 C963 1.419 . S
C965 C966 1.362 . S
C966 H958 0.930 . S
C966 C965 1.362 . S
C966 C969 1.409 1_455 S
C967 H959 0.930 . S
C967 C968 1.355 . S
C967 C969 1.415 . S
C968 C967 1.355 . S
C968 C970 1.419 . S
C969 C964 1.425 1_655 S
C969 C966 1.409 1_655 S
C969 C967 1.415 . S
C970 H960 0.930 . S
C970 C968 1.419 . S
C970 C971 1.362 . S
C971 H961 0.930 . S
C971 C964 1.409 1_655 S
C971 C970 1.362 . S
H972 C978 0.930 . S
H973 C981 0.930 . S
H974 C982 0.930 . S
H975 C983 0.930 . S
H976 C986 0.930 . S
H977 C987 0.930 . S
C978 H972 0.930 . S
C978 C979 1.355 . S
C978 C980 1.413 1_554 S
C979 C978 1.355 . S
C979 C981 1.419 . S
C980 C978 1.413 1_556 S
C980 C985 1.425 1_556 S
C980 C987 1.410 . S
C981 H973 0.930 . S
C981 C979 1.419 . S
C981 C982 1.362 . S
C982 H974 0.930 . S
C982 C981 1.362 . S
C982 C985 1.410 . S
C983 H975 0.930 . S
C983 C984 1.355 . S
C983 C985 1.413 1_556 S
C984 C983 1.355 . S
C984 C986 1.419 . S
C985 C980 1.425 1_554 S
C985 C982 1.410 . S
C985 C983 1.413 1_554 S
C986 H976 0.930 . S
C986 C984 1.419 . S
C986 C987 1.362 . S
C987 H977 0.930 . S
C987 C980 1.410 . S
C987 C986 1.362 . S
H988 C994 0.930 . S
H989 C997 0.930 . S
H990 C998 0.930 . S
H991 C999 0.930 . S
H992 C1002 0.930 . S
H993 C1003 0.930 . S
C994 H988 0.930 . S
C994 C995 1.355 . S
C994 C996 1.394 1_545 S
C995 C994 1.355 . S
C995 C997 1.419 1_556 S
C996 C994 1.394 1_565 S
C996 C1001 1.419 1_566 S
C996 C1003 1.433 . S
C997 H989 0.930 . S
C997 C995 1.419 1_554 S
C997 C998 1.362 . S
C998 H990 0.930 . S
C998 C997 1.362 . S
C998 C1001 1.433 . S
C999 H991 0.930 . S
C999 C1000 1.355 . S
C999 C1001 1.395 1_565 S
C1000 C999 1.355 . S
C1000 C1002 1.419 1_554 S
C1001 C996 1.419 1_544 S
C1001 C998 1.433 . S
C1001 C999 1.395 1_545 S
C1002 H992 0.930 . S
C1002 C1000 1.419 1_556 S
C1002 C1003 1.362 . S
C1003 H993 0.930 . S
C1003 C996 1.433 . S
C1003 C1002 1.362 . S
H1004 C1010 0.930 . S
H1005 C1013 0.930 . S
H1006 C1014 0.930 . S
H1007 C1015 0.930 . S
H1008 C1018 0.930 . S
H1009 C1019 0.930 . S
C1010 H1004 0.930 . S
C1010 C1011 1.355 . S
C1010 C1012 1.415 . S
C1011 C1010 1.355 . S
C1011 C1013 1.419 . S
C1012 C1010 1.415 . S
C1012 C1017 1.425 1_656 S
C1012 C1019 1.409 1_655 S
C1013 H1005 0.930 . S
C1013 C1011 1.419 . S
C1013 C1014 1.362 1_556 S
C1014 H1006 0.930 . S
C1014 C1013 1.362 1_554 S
C1014 C1017 1.409 1_655 S
C1015 H1007 0.930 . S
C1015 C1016 1.355 . S
C1015 C1017 1.415 . S
C1016 C1015 1.355 . S
C1016 C1018 1.419 . S
C1017 C1012 1.425 1_454 S
C1017 C1014 1.409 1_455 S
C1017 C1015 1.415 . S
C1018 H1008 0.930 . S
C1018 C1016 1.419 . S
C1018 C1019 1.362 1_554 S
C1019 H1009 0.930 . S
C1019 C1012 1.409 1_455 S
C1019 C1018 1.362 1_556 S
H1020 C1026 0.930 . S
H1021 C1029 0.930 . S
H1022 C1030 0.930 . S
H1023 C1031 0.930 . S
H1024 C1034 0.930 . S
H1025 C1035 0.930 . S
C1026 H1020 0.930 . S
C1026 C1027 1.355 1_556 S
C1026 C1028 1.415 . S
C1027 C1026 1.355 1_554 S
C1027 C1029 1.419 . S
C1028 C1026 1.415 . S
C1028 C1033 1.425 1_556 S
C1028 C1035 1.409 . S
C1029 H1021 0.930 . S
C1029 C1027 1.419 . S
C1029 C1030 1.362 . S
C1030 H1022 0.930 . S
C1030 C1029 1.362 . S
C1030 C1033 1.409 . S
C1031 H1023 0.930 . S
C1031 C1032 1.355 1_554 S
C1031 C1033 1.415 . S
C1032 C1031 1.355 1_556 S
C1032 C1034 1.419 . S
C1033 C1028 1.425 1_554 S
C1033 C1030 1.409 . S
C1033 C1031 1.415 . S
C1034 H1024 0.930 . S
C1034 C1032 1.419 . S
C1034 C1035 1.362 . S
C1035 H1025 0.930 . S
C1035 C1028 1.409 . S
C1035 C1034 1.362 . S
H1036 C1042 0.930 . S
H1037 C1045 0.930 . S
H1038 C1046 0.930 . S
H1039 C1047 0.930 . S
H1040 C1050 0.930 . S
H1041 C1051 0.930 . S
C1042 H1036 0.930 . S
C1042 C1043 1.355 . S
C1042 C1044 1.415 . S
C1043 C1042 1.355 . S
C1043 C1045 1.419 . S
C1044 C1042 1.415 . S
C1044 C1049 1.425 1_564 S
C1044 C1051 1.409 1_565 S
C1045 H1037 0.930 . S
C1045 C1043 1.419 . S
C1045 C1046 1.362 1_554 S
C1046 H1038 0.930 . S
C1046 C1045 1.362 1_556 S
C1046 C1049 1.409 1_565 S
C1047 H1039 0.930 . S
C1047 C1048 1.355 . S
C1047 C1049 1.415 . S
C1048 C1047 1.355 . S
C1048 C1050 1.419 . S
C1049 C1044 1.425 1_546 S
C1049 C1046 1.409 1_545 S
C1049 C1047 1.415 . S
C1050 H1040 0.930 . S
C1050 C1048 1.419 . S
C1050 C1051 1.362 1_556 S
C1051 H1041 0.930 . S
C1051 C1044 1.409 1_545 S
C1051 C1050 1.362 1_554 S
H1052 C1058 0.930 . S
H1053 C1061 0.930 . S
H1054 C1062 0.930 . S
H1055 C1063 0.930 . S
H1056 C1066 0.930 . S
H1057 C1067 0.930 . S
C1058 H1052 0.930 . S
C1058 C1059 1.355 . S
C1058 C1060 1.402 1_655 S
C1059 C1058 1.355 . S
C1059 C1061 1.419 1_556 S
C1060 C1058 1.402 1_455 S
C1060 C1065 1.430 1_456 S
C1060 C1067 1.419 . S
C1061 H1053 0.930 . S
C1061 C1059 1.419 1_554 S
C1061 C1062 1.362 . S
C1062 H1054 0.930 . S
C1062 C1061 1.362 . S
C1062 C1065 1.419 . S
C1063 H1055 0.930 . S
C1063 C1064 1.355 . S
C1063 C1065 1.403 1_455 S
C1064 C1063 1.355 . S
C1064 C1066 1.419 1_554 S
C1065 C1060 1.430 1_654 S
C1065 C1062 1.419 . S
C1065 C1063 1.403 1_655 S
C1066 H1056 0.930 . S
C1066 C1064 1.419 1_556 S
C1066 C1067 1.362 . S
C1067 H1057 0.930 . S
C1067 C1060 1.419 . S
C1067 C1066 1.362 . S
H1068 C1074 0.930 . S
H1069 C1077 0.930 . S
H1070 C1078 0.930 . S
H1071 C1079 0.930 1_455 S
H1072 C1082 0.930 . S
H1073 C1083 0.930 . S
C1074 H1068 0.930 . S
C1074 C1075 1.355 . S
C1074 C1076 1.415 . S
C1075 C1074 1.355 . S
C1075 C1077 1.419 . S
C1076 C1074 1.415 . S
C1076 C1081 1.425 . S
C1076 C1083 1.409 . S
C1077 H1069 0.930 . S
C1077 C1075 1.419 . S
C1077 C1078 1.362 . S
C1078 H1070 0.930 . S
C1078 C1077 1.362 . S
C1078 C1081 1.409 . S
C1079 H1071 0.930 1_655 S
C1079 C1080 1.355 . S
C1079 C1081 1.415 . S
C1080 C1079 1.355 . S
C1080 C1082 1.419 . S
C1081 C1076 1.425 . S
C1081 C1078 1.409 . S
C1081 C1079 1.415 . S
C1082 H1072 0.930 . S
C1082 C1080 1.419 . S
C1082 C1083 1.362 . S
C1083 H1073 0.930 . S
C1083 C1076 1.409 . S
C1083 C1082 1.362 . S
H1084 C1090 0.930 . S
H1085 C1093 0.930 . S
H1086 C1094 0.930 . S
H1087 C1095 0.930 . S
H1088 C1098 0.930 . S
H1089 C1099 0.930 . S
C1090 H1084 0.930 . S
C1090 C1091 1.355 . S
C1090 C1092 1.415 . S
C1091 C1090 1.355 . S
C1091 C1093 1.419 . S
C1092 C1090 1.415 . S
C1092 C1097 1.425 . S
C1092 C1099 1.409 . S
C1093 H1085 0.930 . S
C1093 C1091 1.419 . S
C1093 C1094 1.362 . S
C1094 H1086 0.930 . S
C1094 C1093 1.362 . S
C1094 C1097 1.409 . S
C1095 H1087 0.930 . S
C1095 C1096 1.355 . S
C1095 C1097 1.415 . S
C1096 C1095 1.355 . S
C1096 C1098 1.419 . S
C1097 C1092 1.425 . S
C1097 C1094 1.409 . S
C1097 C1095 1.415 . S
C1098 H1088 0.930 . S
C1098 C1096 1.419 . S
C1098 C1099 1.362 . S
C1099 H1089 0.930 . S
C1099 C1092 1.409 . S
C1099 C1098 1.362 . S
H1100 C1106 0.930 1_565 S
H1101 C1109 0.930 . S
H1102 C1110 0.930 . S
H1103 C1111 0.930 . S
H1104 C1114 0.930 . S
H1105 C1115 0.930 . S
C1106 H1100 0.930 1_545 S
C1106 C1107 1.355 . S
C1106 C1108 1.415 . S
C1107 C1106 1.355 . S
C1107 C1109 1.419 . S
C1108 C1106 1.415 . S
C1108 C1113 1.425 . S
C1108 C1115 1.409 . S
C1109 H1101 0.930 . S
C1109 C1107 1.419 . S
C1109 C1110 1.362 . S
C1110 H1102 0.930 . S
C1110 C1109 1.362 . S
C1110 C1113 1.409 . S
C1111 H1103 0.930 . S
C1111 C1112 1.355 . S
C1111 C1113 1.415 . S
C1112 C1111 1.355 . S
C1112 C1114 1.419 . S
C1113 C1108 1.425 . S
C1113 C1110 1.409 . S
C1113 C1111 1.415 . S
C1114 H1104 0.930 . S
C1114 C1112 1.419 . S
C1114 C1115 1.362 . S
C1115 H1105 0.930 . S
C1115 C1108 1.409 . S
C1115 C1114 1.362 . S
H1116 C1122 0.930 . S
H1117 C1125 0.930 . S
H1118 C1126 0.930 . S
H1119 C1127 0.930 . S
H1120 C1130 0.930 . S
H1121 C1131 0.930 1_565 S
C1122 H1116 0.930 . S
C1122 C1123 1.355 . S
C1122 C1124 1.415 . S
C1123 C1122 1.355 . S
C1123 C1125 1.419 . S
C1124 C1122 1.415 . S
C1124 C1129 1.425 . S
C1124 C1131 1.409 . S
C1125 H1117 0.930 . S
C1125 C1123 1.419 . S
C1125 C1126 1.362 . S
C1126 H1118 0.930 . S
C1126 C1125 1.362 . S
C1126 C1129 1.409 . S
C1127 H1119 0.930 . S
C1127 C1128 1.355 . S
C1127 C1129 1.415 . S
C1128 C1127 1.355 . S
C1128 C1130 1.419 1_545 S
C1129 C1124 1.425 . S
C1129 C1126 1.409 . S
C1129 C1127 1.415 . S
C1130 H1120 0.930 . S
C1130 C1128 1.419 1_565 S
C1130 C1131 1.362 1_565 S
C1131 H1121 0.930 1_545 S
C1131 C1124 1.409 . S
C1131 C1130 1.362 1_545 S
H1132 C1138 0.930 1_455 S
H1133 C1141 0.930 . S
H1134 C1142 0.930 . S
H1135 C1143 0.930 . S
H1136 C1146 0.930 . S
H1137 C1147 0.929 1_455 S
C1138 H1132 0.930 1_655 S
C1138 C1139 1.355 . S
C1138 C1140 1.415 . S
C1139 C1138 1.355 . S
C1139 C1141 1.419 . S
C1140 C1138 1.415 . S
C1140 C1145 1.425 . S
C1140 C1147 1.409 . S
C1141 H1133 0.930 . S
C1141 C1139 1.419 . S
C1141 C1142 1.362 . S
C1142 H1134 0.930 . S
C1142 C1141 1.362 . S
C1142 C1145 1.409 . S
C1143 H1135 0.930 . S
C1143 C1144 1.355 . S
C1143 C1145 1.415 . S
C1144 C1143 1.355 . S
C1144 C1146 1.419 . S
C1145 C1140 1.425 . S
C1145 C1142 1.409 . S
C1145 C1143 1.415 . S
C1146 H1136 0.930 . S
C1146 C1144 1.419 . S
C1146 C1147 1.362 . S
C1147 H1137 0.929 1_655 S
C1147 C1140 1.409 . S
C1147 C1146 1.362 . S
H1148 C1154 0.930 . S
H1149 C1157 0.930 . S
H1150 C1158 0.930 . S
H1151 C1159 0.930 . S
H1152 C1162 0.930 . S
H1153 C1163 0.930 . S
C1154 H1148 0.930 . S
C1154 C1155 1.355 . S
C1154 C1156 1.415 . S
C1155 C1154 1.355 . S
C1155 C1157 1.419 . S
C1156 C1154 1.415 . S
C1156 C1161 1.425 . S
C1156 C1163 1.409 . S
C1157 H1149 0.930 . S
C1157 C1155 1.419 . S
C1157 C1158 1.362 . S
C1158 H1150 0.930 . S
C1158 C1157 1.362 . S
C1158 C1161 1.409 . S
C1159 H1151 0.930 . S
C1159 C1160 1.355 . S
C1159 C1161 1.415 . S
C1160 C1159 1.355 . S
C1160 C1162 1.419 . S
C1161 C1156 1.425 . S
C1161 C1158 1.409 . S
C1161 C1159 1.415 . S
C1162 H1152 0.930 . S
C1162 C1160 1.419 . S
C1162 C1163 1.362 . S
C1163 H1153 0.930 . S
C1163 C1156 1.409 . S
C1163 C1162 1.362 . S
H1164 C1170 0.930 . S
H1165 C1173 0.930 . S
H1166 C1174 0.930 . S
H1167 C1175 0.930 . S
H1168 C1178 0.930 . S
H1169 C1179 0.930 . S
C1170 H1164 0.930 . S
C1170 C1171 1.355 . S
C1170 C1172 1.415 . S
C1171 C1170 1.355 . S
C1171 C1173 1.419 . S
C1172 C1170 1.415 . S
C1172 C1177 1.425 . S
C1172 C1179 1.409 1_565 S
C1173 H1165 0.930 . S
C1173 C1171 1.419 . S
C1173 C1174 1.362 . S
C1174 H1166 0.930 . S
C1174 C1173 1.362 . S
C1174 C1177 1.409 . S
C1175 H1167 0.930 . S
C1175 C1176 1.355 . S
C1175 C1177 1.415 . S
C1176 C1175 1.355 . S
C1176 C1178 1.419 1_565 S
C1177 C1172 1.425 . S
C1177 C1174 1.409 . S
C1177 C1175 1.415 . S
C1178 H1168 0.930 . S
C1178 C1176 1.419 1_545 S
C1178 C1179 1.362 . S
C1179 H1169 0.930 . S
C1179 C1172 1.409 1_545 S
C1179 C1178 1.362 . S
H1180 C1186 0.930 . S
H1181 C1189 0.930 . S
H1182 C1190 0.930 . S
H1183 C1191 0.930 . S
H1184 C1194 0.930 . S
H1185 C1195 0.930 . S
C1186 H1180 0.930 . S
C1186 C1187 1.355 . S
C1186 C1188 1.415 . S
C1187 C1186 1.355 . S
C1187 C1189 1.419 . S
C1188 C1186 1.415 . S
C1188 C1193 1.425 . S
C1188 C1195 1.409 . S
C1189 H1181 0.930 . S
C1189 C1187 1.419 . S
C1189 C1190 1.362 . S
C1190 H1182 0.930 . S
C1190 C1189 1.362 . S
C1190 C1193 1.409 . S
C1191 H1183 0.930 . S
C1191 C1192 1.355 . S
C1191 C1193 1.415 . S
C1192 C1191 1.355 . S
C1192 C1194 1.419 . S
C1193 C1188 1.425 . S
C1193 C1190 1.409 . S
C1193 C1191 1.415 . S
C1194 H1184 0.930 . S
C1194 C1192 1.419 . S
C1194 C1195 1.362 . S
C1195 H1185 0.930 . S
C1195 C1188 1.409 . S
C1195 C1194 1.362 . S
H1196 C1202 0.930 . S
H1197 C1205 0.930 . S
H1198 C1206 0.930 . S
H1199 C1207 0.930 . S
H1200 C1210 0.930 . S
H1201 C1211 0.930 . S
C1202 H1196 0.930 . S
C1202 C1203 1.355 . S
C1202 C1204 1.415 . S
C1203 C1202 1.355 . S
C1203 C1205 1.419 . S
C1204 C1202 1.415 . S
C1204 C1209 1.425 . S
C1204 C1211 1.409 . S
C1205 H1197 0.930 . S
C1205 C1203 1.419 . S
C1205 C1206 1.362 . S
C1206 H1198 0.930 . S
C1206 C1205 1.362 . S
C1206 C1209 1.409 . S
C1207 H1199 0.930 . S
C1207 C1208 1.355 . S
C1207 C1209 1.415 . S
C1208 C1207 1.355 . S
C1208 C1210 1.419 . S
C1209 C1204 1.425 . S
C1209 C1206 1.409 . S
C1209 C1207 1.415 . S
C1210 H1200 0.930 . S
C1210 C1208 1.419 . S
C1210 C1211 1.362 . S
C1211 H1201 0.930 . S
C1211 C1204 1.409 . S
C1211 C1210 1.362 . S
H1212 C1218 0.930 1_655 S
H1213 C1221 0.930 . S
H1214 C1222 0.930 . S
H1215 C1223 0.930 . S
H1216 C1226 0.930 . S
H1217 C1227 0.930 . S
C1218 H1212 0.930 1_455 S
C1218 C1219 1.355 . S
C1218 C1220 1.415 . S
C1219 C1218 1.355 . S
C1219 C1221 1.419 . S
C1220 C1218 1.415 . S
C1220 C1225 1.425 . S
C1220 C1227 1.409 . S
C1221 H1213 0.930 . S
C1221 C1219 1.419 . S
C1221 C1222 1.362 . S
C1222 H1214 0.930 . S
C1222 C1221 1.362 . S
C1222 C1225 1.409 . S
C1223 H1215 0.930 . S
C1223 C1224 1.355 . S
C1223 C1225 1.415 . S
C1224 C1223 1.355 . S
C1224 C1226 1.419 . S
C1225 C1220 1.425 . S
C1225 C1222 1.409 . S
C1225 C1223 1.415 . S
C1226 H1216 0.930 . S
C1226 C1224 1.419 . S
C1226 C1227 1.362 . S
C1227 H1217 0.930 . S
C1227 C1220 1.409 . S
C1227 C1226 1.362 . S
H1228 C1234 0.930 . S
H1229 C1237 0.930 . S
H1230 C1238 0.930 . S
H1231 C1239 0.930 . S
H1232 C1242 0.930 . S
H1233 C1243 0.930 . S
C1234 H1228 0.930 . S
C1234 C1235 1.355 . S
C1234 C1236 1.415 . S
C1235 C1234 1.355 . S
C1235 C1237 1.419 . S
C1236 C1234 1.415 . S
C1236 C1241 1.425 . S
C1236 C1243 1.409 . S
C1237 H1229 0.930 . S
C1237 C1235 1.419 . S
C1237 C1238 1.362 . S
C1238 H1230 0.930 . S
C1238 C1237 1.362 . S
C1238 C1241 1.409 . S
C1239 H1231 0.930 . S
C1239 C1240 1.355 . S
C1239 C1241 1.415 . S
C1240 C1239 1.355 . S
C1240 C1242 1.419 . S
C1241 C1236 1.425 . S
C1241 C1238 1.409 . S
C1241 C1239 1.415 . S
C1242 H1232 0.930 . S
C1242 C1240 1.419 . S
C1242 C1243 1.362 . S
C1243 H1233 0.930 . S
C1243 C1236 1.409 . S
C1243 C1242 1.362 . S
H1244 C1250 0.930 . S
H1245 C1253 0.930 . S
H1246 C1254 0.930 . S
H1247 C1255 0.930 . S
H1248 C1258 0.930 . S
H1249 C1259 0.930 . S
C1250 H1244 0.930 . S
C1250 C1251 1.355 . S
C1250 C1252 1.415 . S
C1251 C1250 1.355 . S
C1251 C1253 1.419 . S
C1252 C1250 1.415 . S
C1252 C1257 1.425 . S
C1252 C1259 1.409 1_565 S
C1253 H1245 0.930 . S
C1253 C1251 1.419 . S
C1253 C1254 1.362 . S
C1254 H1246 0.930 . S
C1254 C1253 1.362 . S
C1254 C1257 1.409 . S
C1255 H1247 0.930 . S
C1255 C1256 1.355 . S
C1255 C1257 1.415 . S
C1256 C1255 1.355 . S
C1256 C1258 1.419 1_565 S
C1257 C1252 1.425 . S
C1257 C1254 1.409 . S
C1257 C1255 1.415 . S
C1258 H1248 0.930 . S
C1258 C1256 1.419 1_545 S
C1258 C1259 1.362 . S
C1259 H1249 0.930 . S
C1259 C1252 1.409 1_545 S
C1259 C1258 1.362 . S
C403 C48 1.291 . S
C408 C8 1.253 . S
C419 C30 1.275 . S
C424 C4 1.270 . S
C435 C26 1.250 . S
C440 C52 1.294 . S
C451 C70 1.315 . S
C456 C96 1.229 . S
C467 C118 1.230 . S
C472 C92 1.313 . S
C483 C114 1.295 . S
C488 C74 1.250 . S
C499 C180 1.316 1_565 S
C504 C140 1.228 . S
C515 C136 1.316 1_455 S
C520 C162 1.228 1_565 S
C531 C158 1.234 . S
C536 C184 1.310 1_455 S
C547 C228 1.238 . S
C552 C202 1.306 . S
C563 C224 1.240 . S
C568 C250 1.304 . S
C579 C206 1.296 . S
C584 C246 1.249 . S
C595 C272 1.281 . S
C600 C312 1.263 . S
C611 C268 1.229 . S
C616 C294 1.315 . S
C627 C290 1.316 . S
C632 C316 1.227 . S
C643 C360 1.246 1_655 S
C648 C334 1.298 . S
C659 C382 1.277 . S
C664 C356 1.268 1_545 S
C675 C378 1.228 1_655 S
C680 C338 1.316 1_545 S
C691 C9 1.035 . S
C696 C203 1.079 . S
C707 C31 1.116 . S
C712 C225 1.078 . S
C723 C247 1.120 . S
C728 C53 1.072 . S
C739 C71 1.086 . S
C744 C273 1.110 . S
C755 C295 1.068 . S
C760 C93 1.043 . S
C771 C317 1.081 . S
C776 C115 1.114 . S
C787 C292 1.058 . S
C792 C117 1.125 . S
C803 C73 1.065 . S
C808 C314 1.123 . S
C819 C270 1.111 . S
C824 C95 1.086 . S
C835 C28 1.038 . S
C840 C249 1.127 . S
C851 C50 1.046 . S
C856 C205 1.127 . S
C867 C227 1.029 . S
C872 C6 1.091 . S
C883 C335 1.076 . S
C888 C141 1.037 . S
C899 C163 1.040 . S
C904 C357 1.072 . S
C915 C379 1.046 . S
C920 C185 1.065 . S
C931 C381 1.118 . S
C936 C160 1.074 . S
C947 C182 1.082 . S
C952 C337 1.033 . S
C963 C359 1.127 . S
C968 C138 1.041 . S
C979 C5 1.346 . S
C984 C75 1.333 . S
C995 C97 1.336 . S
C1000 C27 1.328 . S
C1011 C119 1.328 . S
C1016 C49 1.340 . S
C1027 C29 1.344 . S
C1032 C116 1.340 . S
C1043 C51 1.329 . S
C1048 C72 1.343 . S
C1059 C94 1.328 . S
C1064 C7 1.337 . S
C1075 C137 1.343 . S
C1080 C207 1.342 1_655 S
C1091 C229 1.335 . S
C1096 C159 1.346 . S
C1107 C251 1.328 1_545 S
C1112 C181 1.336 . S
C1123 C161 1.338 . S
C1128 C248 1.345 1_545 S
C1139 C204 1.341 1_655 S
C1144 C183 1.344 . S
C1155 C139 1.346 . S
C1160 C226 1.333 . S
C1171 C339 1.331 . S
C1176 C269 1.345 1_565 S
C1187 C361 1.338 . S
C1192 C291 1.345 1_455 S
C1203 C383 1.330 . S
C1208 C313 1.344 . S
C1219 C293 1.343 1_455 S
C1224 C380 1.341 . S
C1235 C315 1.331 . S
C1240 C336 1.345 . S
C1251 C358 1.335 . S
C1256 C271 1.346 1_565 S
