# Generated by pormake.
# Topology uos, (4)-cn, num edge types: 1
# Building blocks:
#     Node 0, Type 0, BuildingBlock: QUQFOY_clean_sbu_1, # of connection points: 4
#     Node 1, Type 0, BuildingBlock: QUQFOY_clean_sbu_1, # of connection points: 4
#     Node 2, Type 0, BuildingBlock: QUQFOY_clean_sbu_1, # of connection points: 4
#     Node 3, Type 0, BuildingBlock: QUQFOY_clean_sbu_1, # of connection points: 4
#     Node 4, Type 0, BuildingBlock: QUQFOY_clean_sbu_1, # of connection points: 4
#     Node 5, Type 0, BuildingBlock: QUQFOY_clean_sbu_1, # of connection points: 4
#     Node 6, Type 0, BuildingBlock: QUQFOY_clean_sbu_1, # of connection points: 4
#     Node 7, Type 0, BuildingBlock: QUQFOY_clean_sbu_1, # of connection points: 4
#     Node 8, Type 0, BuildingBlock: QUQFOY_clean_sbu_1, # of connection points: 4
#     Node 9, Type 0, BuildingBlock: QUQFOY_clean_sbu_1, # of connection points: 4
#     Node 10, Type 0, BuildingBlock: QUQFOY_clean_sbu_1, # of connection points: 4
#     Node 11, Type 0, BuildingBlock: QUQFOY_clean_sbu_1, # of connection points: 4
#     Node 12, Type 0, BuildingBlock: QUQFOY_clean_sbu_1, # of connection points: 4
#     Node 13, Type 0, BuildingBlock: QUQFOY_clean_sbu_1, # of connection points: 4
#     Node 14, Type 0, BuildingBlock: QUQFOY_clean_sbu_1, # of connection points: 4
#     Node 15, Type 0, BuildingBlock: QUQFOY_clean_sbu_1, # of connection points: 4
#     Node 16, Type 0, BuildingBlock: QUQFOY_clean_sbu_1, # of connection points: 4
#     Node 17, Type 0, BuildingBlock: QUQFOY_clean_sbu_1, # of connection points: 4
#     Node 18, Type 0, BuildingBlock: QUQFOY_clean_sbu_1, # of connection points: 4
#     Node 19, Type 0, BuildingBlock: QUQFOY_clean_sbu_1, # of connection points: 4
#     Node 20, Type 0, BuildingBlock: QUQFOY_clean_sbu_1, # of connection points: 4
#     Node 21, Type 0, BuildingBlock: QUQFOY_clean_sbu_1, # of connection points: 4
#     Node 22, Type 0, BuildingBlock: QUQFOY_clean_sbu_1, # of connection points: 4
#     Node 23, Type 0, BuildingBlock: QUQFOY_clean_sbu_1, # of connection points: 4
#     Node 24, Type 0, BuildingBlock: QUQFOY_clean_sbu_1, # of connection points: 4
#     Node 25, Type 0, BuildingBlock: QUQFOY_clean_sbu_1, # of connection points: 4
#     Node 26, Type 0, BuildingBlock: QUQFOY_clean_sbu_1, # of connection points: 4
#     Node 27, Type 0, BuildingBlock: QUQFOY_clean_sbu_1, # of connection points: 4
#     Node 28, Type 0, BuildingBlock: QUQFOY_clean_sbu_1, # of connection points: 4
#     Node 29, Type 0, BuildingBlock: QUQFOY_clean_sbu_1, # of connection points: 4
#     Node 30, Type 0, BuildingBlock: QUQFOY_clean_sbu_1, # of connection points: 4
#     Node 31, Type 0, BuildingBlock: QUQFOY_clean_sbu_1, # of connection points: 4
#     Edge 32, Type (0, 0), BuildingBlock: ZUJKAS_clean_linker_0, # of connection points: 2
#     Edge 33, Type (0, 0), BuildingBlock: ZUJKAS_clean_linker_0, # of connection points: 2
#     Edge 34, Type (0, 0), BuildingBlock: ZUJKAS_clean_linker_0, # of connection points: 2
#     Edge 35, Type (0, 0), BuildingBlock: ZUJKAS_clean_linker_0, # of connection points: 2
#     Edge 36, Type (0, 0), BuildingBlock: ZUJKAS_clean_linker_0, # of connection points: 2
#     Edge 37, Type (0, 0), BuildingBlock: ZUJKAS_clean_linker_0, # of connection points: 2
#     Edge 38, Type (0, 0), BuildingBlock: ZUJKAS_clean_linker_0, # of connection points: 2
#     Edge 39, Type (0, 0), BuildingBlock: ZUJKAS_clean_linker_0, # of connection points: 2
#     Edge 40, Type (0, 0), BuildingBlock: ZUJKAS_clean_linker_0, # of connection points: 2
#     Edge 41, Type (0, 0), BuildingBlock: ZUJKAS_clean_linker_0, # of connection points: 2
#     Edge 42, Type (0, 0), BuildingBlock: ZUJKAS_clean_linker_0, # of connection points: 2
#     Edge 43, Type (0, 0), BuildingBlock: ZUJKAS_clean_linker_0, # of connection points: 2
#     Edge 44, Type (0, 0), BuildingBlock: ZUJKAS_clean_linker_0, # of connection points: 2
#     Edge 45, Type (0, 0), BuildingBlock: ZUJKAS_clean_linker_0, # of connection points: 2
#     Edge 46, Type (0, 0), BuildingBlock: ZUJKAS_clean_linker_0, # of connection points: 2
#     Edge 47, Type (0, 0), BuildingBlock: ZUJKAS_clean_linker_0, # of connection points: 2
#     Edge 48, Type (0, 0), BuildingBlock: ZUJKAS_clean_linker_0, # of connection points: 2
#     Edge 49, Type (0, 0), BuildingBlock: ZUJKAS_clean_linker_0, # of connection points: 2
#     Edge 50, Type (0, 0), BuildingBlock: ZUJKAS_clean_linker_0, # of connection points: 2
#     Edge 51, Type (0, 0), BuildingBlock: ZUJKAS_clean_linker_0, # of connection points: 2
#     Edge 52, Type (0, 0), BuildingBlock: ZUJKAS_clean_linker_0, # of connection points: 2
#     Edge 53, Type (0, 0), BuildingBlock: ZUJKAS_clean_linker_0, # of connection points: 2
#     Edge 54, Type (0, 0), BuildingBlock: ZUJKAS_clean_linker_0, # of connection points: 2
#     Edge 55, Type (0, 0), BuildingBlock: ZUJKAS_clean_linker_0, # of connection points: 2
#     Edge 56, Type (0, 0), BuildingBlock: ZUJKAS_clean_linker_0, # of connection points: 2
#     Edge 57, Type (0, 0), BuildingBlock: ZUJKAS_clean_linker_0, # of connection points: 2
#     Edge 58, Type (0, 0), BuildingBlock: ZUJKAS_clean_linker_0, # of connection points: 2
#     Edge 59, Type (0, 0), BuildingBlock: ZUJKAS_clean_linker_0, # of connection points: 2
#     Edge 60, Type (0, 0), BuildingBlock: ZUJKAS_clean_linker_0, # of connection points: 2
#     Edge 61, Type (0, 0), BuildingBlock: ZUJKAS_clean_linker_0, # of connection points: 2
#     Edge 62, Type (0, 0), BuildingBlock: ZUJKAS_clean_linker_0, # of connection points: 2
#     Edge 63, Type (0, 0), BuildingBlock: ZUJKAS_clean_linker_0, # of connection points: 2
#     Edge 64, Type (0, 0), BuildingBlock: ZUJKAS_clean_linker_0, # of connection points: 2
#     Edge 65, Type (0, 0), BuildingBlock: ZUJKAS_clean_linker_0, # of connection points: 2
#     Edge 66, Type (0, 0), BuildingBlock: ZUJKAS_clean_linker_0, # of connection points: 2
#     Edge 67, Type (0, 0), BuildingBlock: ZUJKAS_clean_linker_0, # of connection points: 2
#     Edge 68, Type (0, 0), BuildingBlock: ZUJKAS_clean_linker_0, # of connection points: 2
#     Edge 69, Type (0, 0), BuildingBlock: ZUJKAS_clean_linker_0, # of connection points: 2
#     Edge 70, Type (0, 0), BuildingBlock: ZUJKAS_clean_linker_0, # of connection points: 2
#     Edge 71, Type (0, 0), BuildingBlock: ZUJKAS_clean_linker_0, # of connection points: 2
#     Edge 72, Type (0, 0), BuildingBlock: ZUJKAS_clean_linker_0, # of connection points: 2
#     Edge 73, Type (0, 0), BuildingBlock: ZUJKAS_clean_linker_0, # of connection points: 2
#     Edge 74, Type (0, 0), BuildingBlock: ZUJKAS_clean_linker_0, # of connection points: 2
#     Edge 75, Type (0, 0), BuildingBlock: ZUJKAS_clean_linker_0, # of connection points: 2
#     Edge 76, Type (0, 0), BuildingBlock: ZUJKAS_clean_linker_0, # of connection points: 2
#     Edge 77, Type (0, 0), BuildingBlock: ZUJKAS_clean_linker_0, # of connection points: 2
#     Edge 78, Type (0, 0), BuildingBlock: ZUJKAS_clean_linker_0, # of connection points: 2
#     Edge 79, Type (0, 0), BuildingBlock: ZUJKAS_clean_linker_0, # of connection points: 2
#     Edge 80, Type (0, 0), BuildingBlock: ZUJKAS_clean_linker_0, # of connection points: 2
#     Edge 81, Type (0, 0), BuildingBlock: ZUJKAS_clean_linker_0, # of connection points: 2
#     Edge 82, Type (0, 0), BuildingBlock: ZUJKAS_clean_linker_0, # of connection points: 2
#     Edge 83, Type (0, 0), BuildingBlock: ZUJKAS_clean_linker_0, # of connection points: 2
#     Edge 84, Type (0, 0), BuildingBlock: ZUJKAS_clean_linker_0, # of connection points: 2
#     Edge 85, Type (0, 0), BuildingBlock: ZUJKAS_clean_linker_0, # of connection points: 2
#     Edge 86, Type (0, 0), BuildingBlock: ZUJKAS_clean_linker_0, # of connection points: 2
#     Edge 87, Type (0, 0), BuildingBlock: ZUJKAS_clean_linker_0, # of connection points: 2
#     Edge 88, Type (0, 0), BuildingBlock: ZUJKAS_clean_linker_0, # of connection points: 2
#     Edge 89, Type (0, 0), BuildingBlock: ZUJKAS_clean_linker_0, # of connection points: 2
#     Edge 90, Type (0, 0), BuildingBlock: ZUJKAS_clean_linker_0, # of connection points: 2
#     Edge 91, Type (0, 0), BuildingBlock: ZUJKAS_clean_linker_0, # of connection points: 2
#     Edge 92, Type (0, 0), BuildingBlock: ZUJKAS_clean_linker_0, # of connection points: 2
#     Edge 93, Type (0, 0), BuildingBlock: ZUJKAS_clean_linker_0, # of connection points: 2
#     Edge 94, Type (0, 0), BuildingBlock: ZUJKAS_clean_linker_0, # of connection points: 2
#     Edge 95, Type (0, 0), BuildingBlock: ZUJKAS_clean_linker_0, # of connection points: 2
# Relax obj value: 0.056
# Max RMSD: 0.125
# Mean RMSD: 0.125
data_MOF--net-uos--node1-QUQFOY_clean_sbu_1--edge1-ZUJKAS_clean_linker_0
_symmetry_space_group_name_H-M    P1
_symmetry_Int_Tables_number       1
_symmetry_cell_setting            triclinic
loop_
_symmetry_equiv_pos_as_xyz
'x, y, z'
_cell_length_a     115.80499
_cell_length_b     115.80122
_cell_length_c     30.892841
_cell_angle_alpha  90.003901
_cell_angle_beta   89.998244
_cell_angle_gamma 89.997626
loop_
_atom_site_label
_atom_site_type_symbol
_atom_site_fract_x
_atom_site_fract_y
_atom_site_fract_z
_atom_type_partial_charge
O0 O 0.16154 0.14468 0.17147 0.0
Cd1 Cd 0.17247 0.14801 0.12053 0.0
Cd2 Cd 0.1716 0.17047 0.15684 0.0
O3 O 0.16027 0.16229 0.19835 0.0
O4 O 0.17079 0.13412 0.08289 0.0
O5 O 0.16538 0.15158 0.06235 0.0
C6 C 0.16601 0.14065 0.05424 0.0
C7 C 0.16725 0.18973 0.13955 0.0
C8 C 0.15751 0.15168 0.19928 0.0
C9 C 0.19474 0.15798 0.15376 0.0
O10 O 0.18893 0.16687 0.16422 0.0
O11 O 0.18991 0.14949 0.13486 0.0
O12 O 0.17066 0.18672 0.17754 0.0
O13 O 0.16622 0.18173 0.11069 0.0
O14 O 0.10659 0.91038 0.42276 0.0
Cd15 Cd 0.10215 0.92143 0.37303 0.0
Cd16 Cd 0.08047 0.91874 0.41147 0.0
O17 O 0.08912 0.90649 0.44713 0.0
O18 O 0.1158 0.92079 0.3338 0.0
O19 O 0.09856 0.91435 0.31485 0.0
C20 C 0.10937 0.91569 0.30564 0.0
C21 C 0.0613 0.91459 0.39246 0.0
C22 C 0.09996 0.90489 0.44825 0.0
C23 C 0.0917 0.94244 0.41349 0.0
O24 O 0.08376 0.93574 0.42674 0.0
O25 O 0.0996 0.9387 0.38852 0.0
O26 O 0.06429 0.91672 0.43176 0.0
O27 O 0.06929 0.91468 0.36329 0.0
O28 O 0.341 0.85567 0.67074 0.0
Cd29 Cd 0.3299 0.85276 0.61996 0.0
Cd30 Cd 0.33016 0.83022 0.65664 0.0
O31 O 0.34175 0.83807 0.69804 0.0
O32 O 0.33188 0.8668 0.58328 0.0
O33 O 0.33676 0.84931 0.56126 0.0
C34 C 0.33641 0.8603 0.55398 0.0
C35 C 0.33394 0.81084 0.6392 0.0
C36 C 0.34484 0.8486 0.69867 0.0
C37 C 0.3074 0.84342 0.65367 0.0
O38 O 0.31297 0.83437 0.66412 0.0
O39 O 0.31245 0.85175 0.63462 0.0
O40 O 0.33058 0.81392 0.67717 0.0
O41 O 0.33525 0.81883 0.61046 0.0
O42 O 0.39465 0.09152 0.92469 0.0
Cd43 Cd 0.39882 0.08031 0.8751 0.0
Cd44 Cd 0.42052 0.08251 0.91459 0.0
O45 O 0.41214 0.09503 0.94982 0.0
O46 O 0.38519 0.08134 0.83583 0.0
O47 O 0.4026 0.08732 0.81697 0.0
C48 C 0.39176 0.08629 0.80774 0.0
C49 C 0.43989 0.08582 0.89628 0.0
C50 C 0.40133 0.09689 0.95038 0.0
C51 C 0.40866 0.05906 0.91579 0.0
O52 O 0.41667 0.06561 0.92953 0.0
O53 O 0.40093 0.06297 0.89043 0.0
O54 O 0.43671 0.08382 0.93547 0.0
O55 O 0.43197 0.08619 0.86689 0.0
O56 O 0.16114 0.85646 0.82893 0.0
Cd57 Cd 0.17241 0.8535 0.87914 0.0
Cd58 Cd 0.17164 0.83094 0.84417 0.0
O59 O 0.15995 0.83874 0.80304 0.0
O60 O 0.17063 0.86747 0.91629 0.0
O61 O 0.16572 0.84995 0.93798 0.0
C62 C 0.16614 0.86092 0.94556 0.0
C63 C 0.16774 0.81167 0.86274 0.0
C64 C 0.15705 0.84931 0.80181 0.0
C65 C 0.1946 0.84381 0.84446 0.0
O66 O 0.18884 0.83481 0.83504 0.0
O67 O 0.18979 0.85229 0.86341 0.0
O68 O 0.17093 0.8146 0.82441 0.0
O69 O 0.16667 0.81976 0.89122 0.0
O70 O 0.39446 0.91083 0.07648 0.0
Cd71 Cd 0.39891 0.92196 0.12592 0.0
Cd72 Cd 0.4204 0.91936 0.08784 0.0
O73 O 0.41199 0.90673 0.05325 0.0
O74 O 0.3854 0.92116 0.16583 0.0
O75 O 0.40278 0.91491 0.18384 0.0
C76 C 0.39199 0.91609 0.19357 0.0
C77 C 0.43944 0.91562 0.10947 0.0
C78 C 0.40115 0.90517 0.05172 0.0
C79 C 0.40898 0.94291 0.08402 0.0
O80 O 0.41689 0.93619 0.07056 0.0
O81 O 0.40127 0.93923 0.10997 0.0
O82 O 0.43675 0.91722 0.0695 0.0
O83 O 0.43124 0.91602 0.13777 0.0
O84 O 0.34056 0.14609 0.33004 0.0
Cd85 Cd 0.32953 0.14919 0.38087 0.0
Cd86 Cd 0.33028 0.17175 0.34555 0.0
O87 O 0.34186 0.16382 0.30428 0.0
O88 O 0.33135 0.13524 0.41812 0.0
O89 O 0.33647 0.15274 0.43932 0.0
C90 C 0.33599 0.14178 0.44708 0.0
C91 C 0.3343 0.19105 0.36338 0.0
C92 C 0.34465 0.15321 0.30281 0.0
C93 C 0.30728 0.15894 0.34694 0.0
O94 O 0.31304 0.16791 0.33703 0.0
O95 O 0.31212 0.15048 0.36596 0.0
O96 O 0.33106 0.18804 0.32519 0.0
O97 O 0.33534 0.18303 0.39214 0.0
O98 O 0.10737 0.08995 0.57814 0.0
Cd99 Cd 0.10276 0.07896 0.62782 0.0
Cd100 Cd 0.08129 0.08191 0.59003 0.0
O101 O 0.0899 0.0943 0.55495 0.0
O102 O 0.11631 0.07961 0.66754 0.0
O103 O 0.09903 0.0861 0.68574 0.0
C104 C 0.10982 0.08478 0.69533 0.0
C105 C 0.06233 0.08603 0.6116 0.0
C106 C 0.10077 0.09567 0.55326 0.0
C107 C 0.09227 0.05815 0.5864 0.0
O108 O 0.08446 0.065 0.57305 0.0
O109 O 0.10009 0.06171 0.61209 0.0
O110 O 0.06499 0.08433 0.57166 0.0
O111 O 0.07052 0.08551 0.63991 0.0
O112 O 0.84037 0.85745 0.82939 0.0
Cd113 Cd 0.82922 0.85383 0.8795 0.0
Cd114 Cd 0.83054 0.83175 0.8419 0.0
O115 O 0.84271 0.83982 0.80374 0.0
O116 O 0.83071 0.86758 0.91785 0.0
O117 O 0.83611 0.85007 0.93781 0.0
C118 C 0.83542 0.86097 0.94639 0.0
C119 C 0.83394 0.81234 0.8597 0.0
C120 C 0.8451 0.85052 0.80287 0.0
C121 C 0.80737 0.84426 0.84217 0.0
O122 O 0.81346 0.83571 0.8302 0.0
O123 O 0.81184 0.85235 0.86445 0.0
O124 O 0.83137 0.81552 0.82099 0.0
O125 O 0.8348 0.82027 0.88891 0.0
O126 O 0.89635 0.09141 0.57688 0.0
Cd127 Cd 0.89913 0.08025 0.62761 0.0
Cd128 Cd 0.92174 0.08086 0.59233 0.0
O129 O 0.91411 0.09269 0.55128 0.0
O130 O 0.88507 0.08219 0.66412 0.0
O131 O 0.90254 0.08704 0.6864 0.0
C132 C 0.89155 0.08668 0.69356 0.0
C133 C 0.94111 0.08406 0.61126 0.0
C134 C 0.90352 0.09555 0.54989 0.0
C135 C 0.90859 0.05798 0.5934 0.0
O136 O 0.91756 0.06373 0.58339 0.0
O137 O 0.90019 0.06283 0.61272 0.0
O138 O 0.93813 0.08094 0.57289 0.0
O139 O 0.933 0.08563 0.63935 0.0
O140 O 0.66086 0.14577 0.32943 0.0
Cd141 Cd 0.67206 0.14957 0.3792 0.0
Cd142 Cd 0.67059 0.17158 0.34135 0.0
O143 O 0.65854 0.16333 0.30313 0.0
O144 O 0.67085 0.13578 0.41751 0.0
O145 O 0.66524 0.1532 0.43776 0.0
C146 C 0.66611 0.14231 0.44625 0.0
C147 C 0.66654 0.19079 0.36018 0.0
C148 C 0.65615 0.15263 0.30263 0.0
C149 C 0.69384 0.15934 0.34141 0.0
O150 O 0.68773 0.1679 0.32957 0.0
O151 O 0.68939 0.15122 0.36359 0.0
O152 O 0.66923 0.18786 0.3213 0.0
O153 O 0.66607 0.18274 0.38905 0.0
O154 O 0.6054 0.91095 0.07989 0.0
Cd155 Cd 0.60281 0.92222 0.13039 0.0
Cd156 Cd 0.58017 0.92205 0.09478 0.0
O157 O 0.58769 0.91016 0.05359 0.0
O158 O 0.61688 0.92014 0.16675 0.0
O159 O 0.59937 0.9156 0.18945 0.0
C160 C 0.61037 0.91584 0.19646 0.0
C161 C 0.56074 0.91901 0.11326 0.0
C162 C 0.5982 0.90702 0.05259 0.0
C163 C 0.59372 0.94469 0.0964 0.0
O164 O 0.58461 0.93916 0.08658 0.0
O165 O 0.60207 0.93963 0.11526 0.0
O166 O 0.5638 0.92225 0.07512 0.0
O167 O 0.5688 0.91725 0.1414 0.0
O168 O 0.84138 0.14459 0.17223 0.0
Cd169 Cd 0.82989 0.14833 0.12331 0.0
Cd170 Cd 0.83161 0.17033 0.161 0.0
O171 O 0.84403 0.16219 0.19778 0.0
O172 O 0.83112 0.1347 0.08418 0.0
O173 O 0.8365 0.15226 0.06472 0.0
C174 C 0.83574 0.14139 0.05568 0.0
C175 C 0.83498 0.18968 0.14236 0.0
C176 C 0.84637 0.15147 0.19825 0.0
C177 C 0.80836 0.15801 0.16277 0.0
O178 O 0.8146 0.16649 0.17441 0.0
O179 O 0.8126 0.14992 0.13989 0.0
O180 O 0.8327 0.18658 0.18143 0.0
O181 O 0.83557 0.18169 0.11327 0.0
O182 O 0.60678 0.09145 0.92386 0.0
Cd183 Cd 0.60377 0.08012 0.87391 0.0
Cd184 Cd 0.58132 0.08065 0.91096 0.0
O185 O 0.58919 0.09257 0.95103 0.0
O186 O 0.61768 0.08193 0.83656 0.0
O187 O 0.60013 0.08675 0.81504 0.0
C188 C 0.6111 0.08634 0.8073 0.0
C189 C 0.56185 0.084 0.89383 0.0
C190 C 0.59974 0.09557 0.95133 0.0
C191 C 0.59448 0.05782 0.90897 0.0
O192 O 0.58551 0.0635 0.91952 0.0
O193 O 0.60279 0.06273 0.88932 0.0
O194 O 0.56508 0.08095 0.932 0.0
O195 O 0.56976 0.08536 0.86482 0.0
O196 O 0.65931 0.85678 0.6753 0.0
Cd197 Cd 0.67091 0.85319 0.62659 0.0
Cd198 Cd 0.66954 0.83119 0.66529 0.0
O199 O 0.65708 0.83926 0.70212 0.0
O200 O 0.66971 0.86699 0.58825 0.0
O201 O 0.66451 0.84949 0.56742 0.0
C202 C 0.66526 0.8604 0.55907 0.0
C203 C 0.66633 0.8118 0.64681 0.0
C204 C 0.65451 0.84993 0.7019 0.0
C205 C 0.6926 0.84385 0.66639 0.0
O206 O 0.68652 0.83528 0.67822 0.0
O207 O 0.68819 0.85185 0.64348 0.0
O208 O 0.66866 0.81493 0.68581 0.0
O209 O 0.6656 0.81977 0.61772 0.0
O210 O 0.89531 0.91107 0.42356 0.0
Cd211 Cd 0.89878 0.92226 0.37356 0.0
Cd212 Cd 0.92094 0.92133 0.41105 0.0
O213 O 0.91283 0.9096 0.4511 0.0
O214 O 0.88493 0.92076 0.3357 0.0
O215 O 0.90241 0.91546 0.31496 0.0
C216 C 0.89149 0.91613 0.30679 0.0
C217 C 0.94012 0.91719 0.39214 0.0
C218 C 0.90221 0.90683 0.45125 0.0
C219 C 0.90839 0.9444 0.40916 0.0
O220 O 0.9172 0.93857 0.42029 0.0
O221 O 0.90011 0.93963 0.3888 0.0
O222 O 0.93727 0.92028 0.4307 0.0
O223 O 0.93199 0.91637 0.36367 0.0
O224 O 0.65969 0.64476 0.67295 0.0
Cd225 Cd 0.67106 0.64828 0.62341 0.0
Cd226 Cd 0.66981 0.67039 0.6617 0.0
O227 O 0.65753 0.66233 0.69942 0.0
O228 O 0.66964 0.63447 0.58524 0.0
O229 O 0.66439 0.65197 0.56464 0.0
C230 C 0.66506 0.64106 0.55632 0.0
C231 C 0.66663 0.68986 0.64432 0.0
C232 C 0.65501 0.65166 0.69968 0.0
C233 C 0.69287 0.65768 0.6618 0.0
O234 O 0.68682 0.66627 0.67364 0.0
O235 O 0.68841 0.64963 0.63931 0.0
O236 O 0.66913 0.68659 0.68299 0.0
O237 O 0.66569 0.68199 0.61493 0.0
O238 O 0.60747 0.41133 0.92498 0.0
Cd239 Cd 0.60369 0.4222 0.87421 0.0
Cd240 Cd 0.58144 0.4199 0.90863 0.0
O241 O 0.58963 0.40744 0.94524 0.0
O242 O 0.61734 0.42089 0.83523 0.0
O243 O 0.59986 0.41501 0.81655 0.0
C244 C 0.61071 0.41592 0.80731 0.0
C245 C 0.56207 0.41635 0.89041 0.0
C246 C 0.60044 0.40582 0.94882 0.0
C247 C 0.59326 0.44349 0.91143 0.0
O248 O 0.58496 0.43698 0.9228 0.0
O249 O 0.60153 0.4395 0.88885 0.0
O250 O 0.56523 0.41857 0.92943 0.0
O251 O 0.57 0.41591 0.86108 0.0
O252 O 0.8409 0.35672 0.17245 0.0
Cd253 Cd 0.82972 0.35321 0.12233 0.0
Cd254 Cd 0.83127 0.33096 0.15856 0.0
O255 O 0.84349 0.33898 0.19665 0.0
O256 O 0.83117 0.36698 0.08404 0.0
O257 O 0.8366 0.34948 0.06404 0.0
C258 C 0.83589 0.36038 0.05549 0.0
C259 C 0.83461 0.31154 0.14074 0.0
C260 C 0.84576 0.3497 0.19826 0.0
C261 C 0.80801 0.34336 0.15955 0.0
O262 O 0.8142 0.33482 0.17086 0.0
O263 O 0.81236 0.35158 0.13759 0.0
O264 O 0.83213 0.31474 0.1795 0.0
O265 O 0.83544 0.31946 0.11149 0.0
O266 O 0.89445 0.59111 0.42192 0.0
Cd267 Cd 0.89788 0.57982 0.37203 0.0
Cd268 Cd 0.91998 0.58089 0.40996 0.0
O269 O 0.91207 0.59319 0.44798 0.0
O270 O 0.88412 0.58146 0.33379 0.0
O271 O 0.90168 0.58662 0.31361 0.0
C272 C 0.89077 0.58608 0.30516 0.0
C273 C 0.93944 0.584 0.39219 0.0
C274 C 0.90141 0.59575 0.44853 0.0
C275 C 0.90714 0.5579 0.40984 0.0
O276 O 0.91576 0.5639 0.42179 0.0
O277 O 0.89912 0.56243 0.38736 0.0
O278 O 0.93622 0.58144 0.43087 0.0
O279 O 0.93152 0.58502 0.36301 0.0
O280 O 0.66142 0.35737 0.32646 0.0
Cd281 Cd 0.67222 0.35379 0.37765 0.0
Cd282 Cd 0.67042 0.33144 0.34334 0.0
O283 O 0.65817 0.33947 0.3053 0.0
O284 O 0.67067 0.36754 0.41604 0.0
O285 O 0.665 0.35005 0.43536 0.0
C286 C 0.66576 0.36094 0.44416 0.0
C287 C 0.66661 0.31216 0.36203 0.0
C288 C 0.65627 0.35024 0.30189 0.0
C289 C 0.69385 0.34355 0.34193 0.0
O290 O 0.68757 0.33506 0.3307 0.0
O291 O 0.68958 0.35186 0.36359 0.0
O292 O 0.66919 0.31517 0.32314 0.0
O293 O 0.66608 0.32018 0.391 0.0
O294 O 0.89547 0.4102 0.57742 0.0
Cd295 Cd 0.89864 0.42167 0.62693 0.0
Cd296 Cd 0.92086 0.42084 0.58948 0.0
O297 O 0.91311 0.40852 0.55107 0.0
O298 O 0.88475 0.42 0.66452 0.0
O299 O 0.90229 0.41513 0.68593 0.0
C300 C 0.89134 0.41559 0.69377 0.0
C301 C 0.94028 0.4178 0.60785 0.0
C302 C 0.9025 0.40573 0.55067 0.0
C303 C 0.90775 0.44367 0.58894 0.0
O304 O 0.91653 0.43781 0.5777 0.0
O305 O 0.89968 0.43902 0.61082 0.0
O306 O 0.93714 0.42038 0.56909 0.0
O307 O 0.93231 0.41675 0.63678 0.0
O308 O 0.84044 0.64546 0.82708 0.0
Cd309 Cd 0.82925 0.64887 0.87728 0.0
Cd310 Cd 0.83029 0.67101 0.84001 0.0
O311 O 0.8425 0.66313 0.80148 0.0
O312 O 0.83091 0.63506 0.91529 0.0
O313 O 0.83608 0.65261 0.93571 0.0
C314 C 0.83552 0.64168 0.94401 0.0
C315 C 0.83348 0.69044 0.85808 0.0
C316 C 0.84503 0.65246 0.80051 0.0
C317 C 0.80729 0.6582 0.84004 0.0
O318 O 0.81326 0.66686 0.82833 0.0
O319 O 0.81185 0.65012 0.86214 0.0
O320 O 0.83088 0.68727 0.81938 0.0
O321 O 0.83449 0.68248 0.88712 0.0
O322 O 0.60533 0.5905 0.07878 0.0
Cd323 Cd 0.60165 0.57954 0.12941 0.0
Cd324 Cd 0.57946 0.58108 0.09299 0.0
O325 O 0.58768 0.59281 0.05333 0.0
O326 O 0.61552 0.58087 0.16731 0.0
O327 O 0.59815 0.5866 0.18767 0.0
C328 C 0.60905 0.58573 0.19595 0.0
C329 C 0.56032 0.58537 0.11209 0.0
C330 C 0.5984 0.59511 0.05201 0.0
C331 C 0.59149 0.5577 0.09373 0.0
O332 O 0.58292 0.56385 0.08233 0.0
O333 O 0.59981 0.56216 0.11485 0.0
O334 O 0.56315 0.58244 0.07335 0.0
O335 O 0.56844 0.58597 0.14065 0.0
O336 O 0.34018 0.3578 0.32743 0.0
Cd337 Cd 0.32934 0.3547 0.37881 0.0
Cd338 Cd 0.33061 0.33197 0.34591 0.0
O339 O 0.3426 0.3398 0.30591 0.0
O340 O 0.33121 0.36852 0.41664 0.0
O341 O 0.33645 0.35096 0.43671 0.0
C342 C 0.33595 0.36189 0.44507 0.0
C343 C 0.33439 0.31262 0.364 0.0
C344 C 0.34487 0.35049 0.30234 0.0
C345 C 0.30737 0.34453 0.34537 0.0
O346 O 0.31338 0.33571 0.33567 0.0
O347 O 0.31196 0.3531 0.3646 0.0
O348 O 0.33144 0.31567 0.32554 0.0
O349 O 0.33531 0.32062 0.39288 0.0
O350 O 0.39378 0.58892 0.07771 0.0
Cd351 Cd 0.39907 0.57883 0.12906 0.0
Cd352 Cd 0.42023 0.58245 0.09165 0.0
O353 O 0.41109 0.59465 0.05728 0.0
O354 O 0.38604 0.5794 0.17117 0.0
O355 O 0.40319 0.58704 0.18447 0.0
C356 C 0.39265 0.58528 0.19655 0.0
C357 C 0.43925 0.58712 0.11111 0.0
C358 C 0.40018 0.59519 0.05395 0.0
C359 C 0.41022 0.55824 0.08991 0.0
O360 O 0.41759 0.56536 0.0752 0.0
O361 O 0.40244 0.56161 0.11612 0.0
O362 O 0.43633 0.58518 0.07159 0.0
O363 O 0.43126 0.58657 0.14023 0.0
O364 O 0.16076 0.6454 0.82835 0.0
Cd365 Cd 0.1719 0.64865 0.87867 0.0
Cd366 Cd 0.1708 0.67113 0.84368 0.0
O367 O 0.15912 0.66313 0.803 0.0
O368 O 0.17029 0.63476 0.91626 0.0
O369 O 0.16508 0.65225 0.93723 0.0
C370 C 0.16567 0.64131 0.94521 0.0
C371 C 0.16669 0.69036 0.86204 0.0
C372 C 0.15645 0.6525 0.80152 0.0
C373 C 0.19396 0.65861 0.84416 0.0
O374 O 0.18807 0.6675 0.83439 0.0
O375 O 0.18925 0.65009 0.86332 0.0
O376 O 0.1698 0.68743 0.82362 0.0
O377 O 0.16582 0.6823 0.89073 0.0
O378 O 0.1072 0.41071 0.57853 0.0
Cd379 Cd 0.10352 0.42213 0.62774 0.0
Cd380 Cd 0.08155 0.42068 0.58931 0.0
O381 O 0.08964 0.40828 0.55227 0.0
O382 O 0.11717 0.42074 0.66663 0.0
O383 O 0.0996 0.41545 0.68623 0.0
C384 C 0.11048 0.41613 0.69513 0.0
C385 C 0.06214 0.41749 0.6075 0.0
C386 C 0.10034 0.40585 0.5521 0.0
C387 C 0.09409 0.44383 0.58868 0.0
O388 O 0.08558 0.43769 0.57663 0.0
O389 O 0.1021 0.43946 0.61163 0.0
O390 O 0.06531 0.41984 0.56857 0.0
O391 O 0.07009 0.4167 0.63668 0.0
O392 O 0.33886 0.64368 0.67183 0.0
Cd393 Cd 0.32866 0.64766 0.61953 0.0
Cd394 Cd 0.33025 0.66989 0.65532 0.0
O395 O 0.34174 0.66141 0.69556 0.0
O396 O 0.33031 0.63419 0.57976 0.0
O397 O 0.33653 0.65171 0.56332 0.0
C398 C 0.3356 0.64092 0.55308 0.0
C399 C 0.33468 0.68918 0.63862 0.0
C400 C 0.34359 0.65062 0.69825 0.0
C401 C 0.30672 0.65805 0.65224 0.0
O402 O 0.31287 0.66659 0.66401 0.0
O403 O 0.31122 0.64963 0.6319 0.0
O404 O 0.33153 0.68605 0.67677 0.0
O405 O 0.33547 0.68127 0.6093 0.0
O406 O 0.10623 0.5918 0.42269 0.0
Cd407 Cd 0.10259 0.58035 0.37351 0.0
Cd408 Cd 0.08064 0.58163 0.41233 0.0
O409 O 0.08872 0.59397 0.44968 0.0
O410 O 0.11637 0.58164 0.33513 0.0
O411 O 0.09887 0.58695 0.31466 0.0
C412 C 0.10978 0.58621 0.30621 0.0
C413 C 0.06127 0.58493 0.39386 0.0
C414 C 0.09939 0.59651 0.44953 0.0
C415 C 0.09327 0.55856 0.41258 0.0
O416 O 0.0847 0.56461 0.4247 0.0
O417 O 0.10125 0.56303 0.38974 0.0
O418 O 0.06438 0.5825 0.4328 0.0
O419 O 0.06926 0.5857 0.36483 0.0
O420 O 0.16098 0.35607 0.17337 0.0
Cd421 Cd 0.17197 0.35291 0.12252 0.0
Cd422 Cd 0.1713 0.33045 0.1586 0.0
O423 O 0.15973 0.33841 0.1998 0.0
O424 O 0.17015 0.36684 0.08527 0.0
O425 O 0.16499 0.34935 0.06418 0.0
C426 C 0.16549 0.3603 0.05638 0.0
C427 C 0.1673 0.31116 0.14063 0.0
C428 C 0.1569 0.34901 0.20086 0.0
C429 C 0.1943 0.34323 0.156 0.0
O430 O 0.18857 0.3343 0.16651 0.0
O431 O 0.1894 0.35164 0.13689 0.0
O432 O 0.1706 0.31414 0.17879 0.0
O433 O 0.16616 0.31921 0.11203 0.0
O434 O 0.39477 0.41117 0.92585 0.0
Cd435 Cd 0.3991 0.422 0.87533 0.0
Cd436 Cd 0.42087 0.41885 0.91106 0.0
O437 O 0.4124 0.40605 0.94477 0.0
O438 O 0.3855 0.4212 0.83586 0.0
O439 O 0.40279 0.41469 0.81772 0.0
C440 C 0.392 0.41599 0.80816 0.0
C441 C 0.44019 0.41538 0.89204 0.0
C442 C 0.40153 0.40501 0.94859 0.0
C443 C 0.40975 0.44266 0.91579 0.0
O444 O 0.41749 0.4357 0.92886 0.0
O445 O 0.40188 0.43924 0.89012 0.0
O446 O 0.43705 0.41699 0.93153 0.0
O447 O 0.43225 0.4155 0.86269 0.0
H448 H 0.29319 0.17644 0.32041 0.0
H449 H 0.27407 0.17487 0.28781 0.0
H450 H 0.27491 0.13792 0.30517 0.0
H451 H 0.29396 0.13946 0.33901 0.0
H452 H 0.26891 0.1637 0.21397 0.0
H453 H 0.24291 0.14536 0.34846 0.0
H454 H 0.25711 0.15139 0.35675 0.0
H455 H 0.25551 0.13705 0.33514 0.0
C456 C 0.28923 0.16799 0.31804 0.0
C457 C 0.29511 0.15807 0.33241 0.0
C458 C 0.2783 0.1671 0.29924 0.0
C459 C 0.273 0.15629 0.29422 0.0
C460 C 0.2787 0.14638 0.30947 0.0
H461 H 0.20838 0.13868 0.16042 0.0
H462 H 0.22788 0.13748 0.19129 0.0
C463 C 0.28962 0.14727 0.32874 0.0
C464 C 0.26185 0.15542 0.27059 0.0
H465 H 0.23375 0.14673 0.28001 0.0
C466 C 0.26123 0.15998 0.22848 0.0
C467 C 0.25183 0.15051 0.28937 0.0
C468 C 0.2518 0.14589 0.33505 0.0
C469 C 0.25087 0.15988 0.2049 0.0
C470 C 0.24086 0.15513 0.22391 0.0
C471 C 0.2415 0.15031 0.26551 0.0
C472 C 0.22946 0.15585 0.20236 0.0
C473 C 0.25067 0.16492 0.15988 0.0
C474 C 0.22398 0.16658 0.19809 0.0
C475 C 0.21286 0.16729 0.18078 0.0
C476 C 0.20701 0.15728 0.16719 0.0
C477 C 0.21268 0.14656 0.17027 0.0
C478 C 0.22378 0.14584 0.18808 0.0
H479 H 0.2595 0.16592 0.14634 0.0
H480 H 0.24551 0.15939 0.13775 0.0
H481 H 0.24655 0.17357 0.16094 0.0
H482 H 0.22819 0.17438 0.20928 0.0
H483 H 0.20876 0.17568 0.17891 0.0
H484 H 0.08054 0.95114 0.48379 0.0
H485 H 0.08125 0.97072 0.5123 0.0
H486 H 0.10394 0.98082 0.40823 0.0
H487 H 0.10367 0.96097 0.38037 0.0
H488 H 0.11109 0.98983 0.48237 0.0
H489 H 0.06425 0.99811 0.46783 0.0
H490 H 0.06703 0.98563 0.5005 0.0
H491 H 0.07101 0.9856 0.44408 0.0
C492 C 0.08562 0.95753 0.46667 0.0
C493 C 0.09195 0.95452 0.42946 0.0
C494 C 0.08597 0.96876 0.48295 0.0
C495 C 0.0924 0.97735 0.46184 0.0
C496 C 0.09884 0.97436 0.4249 0.0
H497 H 0.08164 0.05002 0.51407 0.0
H498 H 0.08245 0.03064 0.48375 0.0
C499 C 0.09865 0.96303 0.40893 0.0
C500 C 0.09252 0.98936 0.47896 0.0
H501 H 0.07487 0.01125 0.51213 0.0
C502 C 0.10318 0.99457 0.48854 0.0
C503 C 0.08221 0.99562 0.48646 0.0
C504 C 0.0705 0.991 0.47373 0.0
C505 C 0.1038 0.00577 0.50602 0.0
C506 C 0.09345 0.01178 0.51557 0.0
C507 C 0.08282 0.00661 0.50543 0.0
C508 C 0.09336 0.02364 0.53425 0.0
C509 C 0.11554 0.0111 0.51298 0.0
C510 C 0.09916 0.02623 0.57307 0.0
C511 C 0.09888 0.03744 0.59022 0.0
C512 C 0.09253 0.04618 0.56943 0.0
C513 C 0.08655 0.04349 0.53112 0.0
C514 C 0.08702 0.03239 0.51365 0.0
H515 H 0.1222 0.00698 0.49221 0.0
H516 H 0.11543 0.02051 0.50599 0.0
H517 H 0.11816 0.00985 0.54719 0.0
H518 H 0.10383 0.01957 0.59036 0.0
H519 H 0.1035 0.03923 0.61994 0.0
H520 H 0.20806 0.86324 0.83688 0.0
H521 H 0.22704 0.86474 0.80207 0.0
H522 H 0.22754 0.82784 0.78343 0.0
H523 H 0.20856 0.82629 0.81714 0.0
H524 H 0.24838 0.85526 0.81891 0.0
H525 H 0.2321 0.83956 0.66104 0.0
H526 H 0.22258 0.84373 0.70456 0.0
H527 H 0.22915 0.82963 0.7042 0.0
C528 C 0.21227 0.85544 0.82579 0.0
C529 C 0.20673 0.84466 0.82934 0.0
C530 C 0.2231 0.85631 0.80576 0.0
C531 C 0.22855 0.84644 0.78903 0.0
C532 C 0.22333 0.83561 0.79485 0.0
H533 H 0.29303 0.82621 0.68089 0.0
H534 H 0.27364 0.82815 0.71118 0.0
C535 C 0.21251 0.83474 0.81447 0.0
C536 C 0.23962 0.84737 0.76503 0.0
H537 H 0.25266 0.8399 0.66976 0.0
C538 C 0.24929 0.85206 0.7861 0.0
C539 C 0.24077 0.84328 0.722 0.0
C540 C 0.23057 0.83888 0.69645 0.0
C541 C 0.26018 0.85226 0.76601 0.0
C542 C 0.26139 0.8477 0.7238 0.0
C543 C 0.25168 0.84334 0.70223 0.0
C544 C 0.27282 0.84666 0.70274 0.0
C545 C 0.27043 0.85693 0.7905 0.0
C546 C 0.27863 0.85642 0.68692 0.0
C547 C 0.28971 0.85534 0.66914 0.0
C548 C 0.29516 0.84449 0.66726 0.0
C549 C 0.28912 0.8347 0.68198 0.0
C550 C 0.27803 0.83578 0.69933 0.0
H551 H 0.26827 0.8591 0.82458 0.0
H552 H 0.27757 0.85052 0.79035 0.0
H553 H 0.27363 0.86485 0.77424 0.0
H554 H 0.27467 0.86488 0.68899 0.0
H555 H 0.29414 0.86305 0.65824 0.0
H556 H 0.41961 0.05005 0.98597 0.0
H557 H 0.41888 0.03034 0.01311 0.0
H558 H 0.3962 0.02077 0.90831 0.0
H559 H 0.39652 0.04075 0.88174 0.0
H560 H 0.38916 0.01126 0.98236 0.0
H561 H 0.436 0.00334 0.96534 0.0
H562 H 0.43324 0.01565 0.99892 0.0
H563 H 0.42909 0.01591 0.94269 0.0
C564 C 0.41451 0.04376 0.96843 0.0
C565 C 0.40823 0.04695 0.93133 0.0
C566 C 0.41415 0.03245 0.98393 0.0
C567 C 0.40774 0.02397 0.96216 0.0
C568 C 0.40129 0.02714 0.92546 0.0
H569 H 0.41923 0.95117 0.01113 0.0
H570 H 0.41809 0.97056 0.98096 0.0
C571 C 0.4015 0.03855 0.91024 0.0
C572 C 0.40772 0.01186 0.97826 0.0
H573 H 0.42559 0.98995 0.00938 0.0
C574 C 0.39712 0.00655 0.98791 0.0
C575 C 0.41808 0.00563 0.98489 0.0
C576 C 0.42973 0.01038 0.97196 0.0
C577 C 0.39662 0.99528 0.0048 0.0
C578 C 0.40703 0.98929 0.01363 0.0
C579 C 0.4176 0.99456 0.00326 0.0
C580 C 0.40726 0.97741 0.03202 0.0
C581 C 0.38493 0.98985 0.012 0.0
C582 C 0.40161 0.97473 0.07107 0.0
C583 C 0.40209 0.96352 0.08813 0.0
C584 C 0.40848 0.95487 0.06702 0.0
C585 C 0.41429 0.95764 0.02842 0.0
C586 C 0.41363 0.96874 0.01104 0.0
H587 H 0.3782 0.99397 0.99157 0.0
H588 H 0.38509 0.98046 0.00476 0.0
H589 H 0.38238 0.99102 0.04634 0.0
H590 H 0.39693 0.98132 0.08864 0.0
H591 H 0.39759 0.96167 0.11807 0.0
H592 H 0.7955 0.82861 0.79331 0.0
H593 H 0.77608 0.83043 0.76368 0.0
H594 H 0.77216 0.86343 0.82657 0.0
H595 H 0.79168 0.86169 0.85675 0.0
H596 H 0.75272 0.84833 0.83469 0.0
H597 H 0.76709 0.85257 0.66423 0.0
H598 H 0.77307 0.84027 0.69162 0.0
H599 H 0.77673 0.85458 0.70958 0.0
C600 C 0.79053 0.83626 0.80111 0.0
C601 C 0.79521 0.84505 0.82726 0.0
C602 C 0.77944 0.83731 0.78384 0.0
C603 C 0.77279 0.84717 0.79218 0.0
C604 C 0.77722 0.8558 0.81942 0.0
H605 H 0.70819 0.86141 0.65247 0.0
H606 H 0.72763 0.86328 0.68329 0.0
C607 C 0.78837 0.85478 0.8367 0.0
C608 C 0.76115 0.84831 0.7726 0.0
H609 H 0.74708 0.8485 0.67541 0.0
C610 C 0.75148 0.84849 0.7999 0.0
C611 C 0.75956 0.8487 0.7272 0.0
C612 C 0.76967 0.84913 0.69639 0.0
C613 C 0.74023 0.84853 0.78291 0.0
C614 C 0.73864 0.84824 0.73748 0.0
C615 C 0.74832 0.84859 0.71021 0.0
C616 C 0.72702 0.84704 0.71781 0.0
C617 C 0.73013 0.8488 0.81375 0.0
C618 C 0.7204 0.83715 0.72604 0.0
C619 C 0.70936 0.83602 0.70843 0.0
C620 C 0.70469 0.84476 0.68199 0.0
C621 C 0.71149 0.85453 0.67273 0.0
C622 C 0.72259 0.85563 0.69038 0.0
H623 H 0.73266 0.85224 0.84595 0.0
H624 H 0.72298 0.85415 0.80067 0.0
H625 H 0.72685 0.83988 0.81843 0.0
H626 H 0.72377 0.8303 0.7463 0.0
H627 H 0.70443 0.82835 0.71609 0.0
H628 H 0.92548 0.95798 0.44251 0.0
H629 H 0.9237 0.97748 0.47207 0.0
H630 H 0.88761 0.97801 0.43822 0.0
H631 H 0.88928 0.95846 0.40815 0.0
H632 H 0.91143 0.99917 0.42171 0.0
H633 H 0.89355 0.98419 0.57966 0.0
H634 H 0.90314 0.97513 0.54838 0.0
H635 H 0.88874 0.97772 0.52963 0.0
C636 C 0.91717 0.96226 0.44091 0.0
C637 C 0.90751 0.95663 0.42303 0.0
C638 C 0.91619 0.97339 0.45786 0.0
C639 C 0.90552 0.97909 0.45756 0.0
C640 C 0.8959 0.97369 0.43882 0.0
H641 H 0.88923 0.04431 0.58887 0.0
H642 H 0.88765 0.02515 0.55545 0.0
C643 C 0.89689 0.96255 0.42153 0.0
C644 C 0.90451 0.99061 0.47776 0.0
H645 H 0.8978 0.00399 0.573 0.0
C646 C 0.90836 1.00027 0.45463 0.0
C647 C 0.90042 0.99196 0.52053 0.0
C648 C 0.89621 0.98174 0.54634 0.0
C649 C 0.90843 0.01129 0.47354 0.0
C650 C 0.90483 0.01259 0.51713 0.0
C651 C 0.90062 0.00296 0.53975 0.0
C652 C 0.90583 0.02381 0.5401 0.0
C653 C 0.91231 0.02144 0.44656 0.0
C654 C 0.91663 0.02918 0.54407 0.0
C655 C 0.91756 0.04009 0.56294 0.0
C656 C 0.90771 0.04582 0.57879 0.0
C657 C 0.89698 0.04014 0.57696 0.0
C658 C 0.89605 0.02922 0.55774 0.0
H659 H 0.9113 0.01968 0.4114 0.0
H660 H 0.90737 0.02935 0.45477 0.0
H661 H 0.9216 0.02311 0.45283 0.0
H662 H 0.92434 0.02502 0.53187 0.0
H663 H 0.92598 0.04414 0.56427 0.0
H664 H 0.70577 0.17503 0.29282 0.0
H665 H 0.72512 0.17309 0.26259 0.0
H666 H 0.72885 0.13993 0.32442 0.0
H667 H 0.70942 0.14179 0.35522 0.0
H668 H 0.74845 0.1546 0.33228 0.0
H669 H 0.73363 0.1512 0.16208 0.0
H670 H 0.72798 0.16355 0.19016 0.0
H671 H 0.72404 0.14927 0.20762 0.0
C672 C 0.71069 0.16733 0.30028 0.0
C673 C 0.70598 0.15853 0.3263 0.0
C674 C 0.72173 0.16621 0.28265 0.0
C675 C 0.72831 0.15626 0.29049 0.0
C676 C 0.72385 0.14763 0.31764 0.0
H677 H 0.79236 0.14081 0.14893 0.0
H678 H 0.77291 0.13936 0.18006 0.0
C679 C 0.71276 0.14872 0.33529 0.0
C680 C 0.73988 0.15501 0.27046 0.0
H681 H 0.75375 0.15474 0.17284 0.0
C682 C 0.74961 0.15451 0.29745 0.0
C683 C 0.74137 0.15471 0.22499 0.0
C684 C 0.7312 0.1546 0.19447 0.0
C685 C 0.76082 0.15424 0.28012 0.0
C686 C 0.76232 0.15461 0.23466 0.0
C687 C 0.75258 0.15459 0.20767 0.0
C688 C 0.77393 0.15556 0.21471 0.0
C689 C 0.77098 0.15364 0.31062 0.0
C690 C 0.78078 0.16529 0.22293 0.0
C691 C 0.79182 0.16618 0.20514 0.0
C692 C 0.79626 0.15735 0.17855 0.0
C693 C 0.78923 0.14775 0.16931 0.0
C694 C 0.77813 0.14689 0.18712 0.0
H695 H 0.76842 0.15022 0.34283 0.0
H696 H 0.77794 0.1481 0.29719 0.0
H697 H 0.77452 0.16245 0.31538 0.0
H698 H 0.7776 0.1722 0.24334 0.0
H699 H 0.79694 0.17374 0.2128 0.0
H700 H 0.614 0.04444 0.91458 0.0
H701 H 0.61556 0.02486 0.94459 0.0
H702 H 0.57874 0.0241 0.96488 0.0
H703 H 0.57709 0.0436 0.93541 0.0
H704 H 0.6065 0.01839 0.0339 0.0
H705 H 0.58751 0.99328 0.8981 0.0
H706 H 0.59396 0.00736 0.89067 0.0
H707 H 0.57979 0.00611 0.9137 0.0
C708 C 0.60622 0.04004 0.92485 0.0
C709 C 0.59542 0.04558 0.92259 0.0
C710 C 0.60714 0.02889 0.94216 0.0
C711 C 0.59726 0.02306 0.95674 0.0
C712 C 0.58645 0.02844 0.95347 0.0
H713 H 0.57647 0.95913 0.07049 0.0
H714 H 0.57834 0.97834 0.03886 0.0
C715 C 0.58554 0.03959 0.93668 0.0
C716 C 0.59815 0.01154 0.97723 0.0
H717 H 0.58973 0.98352 0.96504 0.0
C718 C 0.60298 0.0107 0.01877 0.0
C719 C 0.59349 0.00161 0.95736 0.0
C720 C 0.58846 0.00204 0.91234 0.0
C721 C 0.60282 1.00023 0.04181 0.0
C722 C 0.59793 0.99031 0.02226 0.0
C723 C 0.59342 0.99113 0.98012 0.0
C724 C 0.59693 0.97909 0.04524 0.0
C725 C 0.60742 1.00001 0.0875 0.0
C726 C 0.60675 0.97317 0.06014 0.0
C727 C 0.6057 0.9622 0.07881 0.0
C728 C 0.59481 0.95687 0.08225 0.0
C729 C 0.58499 0.96296 0.06825 0.0
C730 C 0.58604 0.97393 0.05002 0.0
H731 H 0.6081 0.00884 0.10142 0.0
H732 H 0.60182 0.99471 0.10885 0.0
H733 H 0.61619 0.99615 0.08745 0.0
H734 H 0.61527 0.97687 0.05604 0.0
H735 H 0.61344 0.9577 0.08886 0.0
H736 H 0.70847 0.64011 0.64797 0.0
H737 H 0.72792 0.63827 0.67888 0.0
H738 H 0.72406 0.67135 0.74124 0.0
H739 H 0.70474 0.67328 0.71088 0.0
H740 H 0.74747 0.65331 0.67124 0.0
H741 H 0.73267 0.6492 0.84124 0.0
H742 H 0.72314 0.64719 0.79558 0.0
H743 H 0.72679 0.6615 0.81355 0.0
C744 C 0.71179 0.64702 0.66806 0.0
C745 C 0.70499 0.65681 0.67714 0.0
C746 C 0.72288 0.64594 0.68576 0.0
C747 C 0.72731 0.65456 0.71306 0.0
C748 C 0.7207 0.66447 0.72104 0.0
H749 H 0.79524 0.67375 0.79133 0.0
H750 H 0.77594 0.67165 0.76098 0.0
C751 C 0.70967 0.66559 0.70336 0.0
C752 C 0.73889 0.65337 0.73304 0.0
H753 H 0.75273 0.65329 0.83072 0.0
C754 C 0.74863 0.65317 0.70608 0.0
C755 C 0.74036 0.65302 0.77851 0.0
C756 C 0.73019 0.65263 0.80897 0.0
C757 C 0.75983 0.65317 0.72345 0.0
C758 C 0.76131 0.65351 0.76892 0.0
C759 C 0.75157 0.65316 0.79588 0.0
C760 C 0.77287 0.6548 0.78892 0.0
C761 C 0.77001 0.65292 0.69299 0.0
C762 C 0.77738 0.6462 0.8161 0.0
C763 C 0.78847 0.64738 0.83379 0.0
C764 C 0.79516 0.65725 0.82484 0.0
C765 C 0.79039 0.666 0.79877 0.0
C766 C 0.77937 0.66479 0.78109 0.0
H767 H 0.76757 0.6495 0.66066 0.0
H768 H 0.77331 0.66184 0.68854 0.0
H769 H 0.77712 0.64755 0.70631 0.0
H770 H 0.77243 0.63847 0.82288 0.0
H771 H 0.79186 0.64049 0.85376 0.0
H772 H 0.57715 0.45441 0.96134 0.0
H773 H 0.57807 0.4738 0.99187 0.0
H774 H 0.61086 0.47943 0.92926 0.0
H775 H 0.61002 0.45996 0.89817 0.0
H776 H 0.59572 0.48257 0.04723 0.0
H777 H 0.5912 0.50802 0.8954 0.0
H778 H 0.58741 0.49292 0.89861 0.0
H779 H 0.6023 0.49716 0.89567 0.0
C780 C 0.58453 0.45977 0.95362 0.0
C781 C 0.59351 0.4556 0.92717 0.0
C782 C 0.58505 0.47086 0.97128 0.0
C783 C 0.5945 0.47806 0.9627 0.0
C784 C 0.60342 0.47404 0.93587 0.0
H785 H 0.60916 0.54211 0.10513 0.0
H786 H 0.61057 0.52259 0.07487 0.0
C787 C 0.60293 0.46291 0.91818 0.0
C788 C 0.59503 0.48967 0.98288 0.0
H789 H 0.59393 0.51849 0.96008 0.0
C790 C 0.5954 0.49044 0.02823 0.0
C791 C 0.59452 0.49989 0.95794 0.0
C792 C 0.59375 0.49953 0.90921 0.0
C793 C 0.59517 0.50117 0.04938 0.0
C794 C 0.59465 0.51139 0.02444 0.0
C795 C 0.59439 0.51063 0.97908 0.0
C796 C 0.59371 0.52296 0.04471 0.0
C797 C 0.59511 0.5015 0.0982 0.0
C798 C 0.58378 0.52963 0.0378 0.0
C799 C 0.58293 0.54074 0.05498 0.0
C800 C 0.59206 0.54549 0.07927 0.0
C801 C 0.60194 0.53871 0.08682 0.0
C802 C 0.60277 0.52754 0.06959 0.0
H803 H 0.59327 0.49289 0.11246 0.0
H804 H 0.60369 0.50438 0.10992 0.0
H805 H 0.58856 0.50774 0.11017 0.0
H806 H 0.57669 0.52624 0.01874 0.0
H807 H 0.57519 0.54569 0.04844 0.0
H808 H 0.70544 0.32737 0.29451 0.0
H809 H 0.72485 0.3287 0.26437 0.0
H810 H 0.72924 0.36215 0.32338 0.0
H811 H 0.70976 0.3609 0.35407 0.0
H812 H 0.73298 0.34621 0.20716 0.0
H813 H 0.75853 0.34389 0.35946 0.0
H814 H 0.74358 0.33952 0.35669 0.0
H815 H 0.74726 0.35457 0.35787 0.0
C816 C 0.71054 0.33498 0.30156 0.0
C817 C 0.70601 0.34403 0.32683 0.0
C818 C 0.72163 0.33573 0.28412 0.0
C819 C 0.72849 0.34549 0.29176 0.0
C820 C 0.72413 0.35448 0.31752 0.0
H821 H 0.79219 0.36081 0.14734 0.0
H822 H 0.7727 0.36216 0.17806 0.0
C823 C 0.71299 0.35375 0.33499 0.0
C824 C 0.74008 0.3463 0.27156 0.0
H825 H 0.76892 0.34643 0.29447 0.0
C826 C 0.74085 0.34633 0.22619 0.0
C827 C 0.7503 0.34639 0.29655 0.0
C828 C 0.74996 0.34601 0.34535 0.0
C829 C 0.75159 0.34631 0.20508 0.0
C830 C 0.76182 0.34636 0.23007 0.0
C831 C 0.76105 0.34647 0.27544 0.0
C832 C 0.7734 0.34553 0.20991 0.0
C833 C 0.75195 0.34585 0.1563 0.0
C834 C 0.78023 0.33575 0.21765 0.0
C835 C 0.79131 0.33495 0.2002 0.0
C836 C 0.79587 0.34395 0.17479 0.0
C837 C 0.78894 0.35369 0.16655 0.0
C838 C 0.7778 0.35448 0.18403 0.0
H839 H 0.74337 0.34375 0.14219 0.0
H840 H 0.75469 0.35438 0.14358 0.0
H841 H 0.75831 0.33932 0.14516 0.0
H842 H 0.77699 0.32875 0.23749 0.0
H843 H 0.79638 0.32732 0.20732 0.0
H844 H 0.88956 0.4587 0.60005 0.0
H845 H 0.88739 0.47803 0.56857 0.0
H846 H 0.92123 0.47526 0.51136 0.0
H847 H 0.92348 0.45604 0.54226 0.0
H848 H 0.90148 0.49807 0.57814 0.0
H849 H 0.90009 0.48307 0.40781 0.0
H850 H 0.89795 0.47346 0.45318 0.0
H851 H 0.91229 0.47769 0.43751 0.0
C852 C 0.89657 0.46223 0.58099 0.0
C853 C 0.90667 0.45576 0.57348 0.0
C854 C 0.8953 0.47326 0.56294 0.0
C855 C 0.90405 0.47796 0.53686 0.0
C856 C 0.91426 0.47168 0.53053 0.0
H857 H 0.92234 0.54613 0.46092 0.0
H858 H 0.92024 0.52681 0.49105 0.0
C859 C 0.91556 0.46071 0.54854 0.0
C860 C 0.90268 0.48947 0.51653 0.0
H861 H 0.9034 0.50327 0.41879 0.0
C862 C 0.90175 0.49921 0.5433 0.0
C863 C 0.90287 0.49092 0.47103 0.0
C864 C 0.90324 0.48073 0.44064 0.0
C865 C 0.90159 0.5104 0.52581 0.0
C866 C 0.90249 0.51186 0.48046 0.0
C867 C 0.90283 0.50211 0.45357 0.0
C868 C 0.90376 0.52345 0.46068 0.0
C869 C 0.9006 0.52058 0.55604 0.0
C870 C 0.89535 0.52782 0.43232 0.0
C871 C 0.89652 0.53893 0.41481 0.0
C872 C 0.90619 0.54578 0.42509 0.0
C873 C 0.91475 0.54116 0.4524 0.0
C874 C 0.91354 0.53012 0.46995 0.0
H875 H 0.89688 0.51804 0.5878 0.0
H876 H 0.90932 0.52422 0.5619 0.0
H877 H 0.89513 0.52748 0.54169 0.0
H878 H 0.88779 0.52274 0.42446 0.0
H879 H 0.88978 0.54221 0.39385 0.0
H880 H 0.29349 0.36364 0.33818 0.0
H881 H 0.27431 0.36469 0.30503 0.0
H882 H 0.27458 0.32778 0.28606 0.0
H883 H 0.29382 0.32671 0.31795 0.0
H884 H 0.26871 0.33895 0.21313 0.0
H885 H 0.24279 0.35612 0.34992 0.0
H886 H 0.25504 0.36488 0.33621 0.0
H887 H 0.25721 0.35054 0.35707 0.0
C888 C 0.28937 0.35572 0.32764 0.0
C889 C 0.29519 0.34509 0.33071 0.0
C890 C 0.27839 0.35633 0.30879 0.0
C891 C 0.27294 0.3463 0.29338 0.0
C892 C 0.2786 0.33564 0.29765 0.0
H893 H 0.2085 0.32574 0.18185 0.0
H894 H 0.22798 0.32731 0.21167 0.0
C895 C 0.2896 0.33504 0.31603 0.0
C896 C 0.26167 0.34688 0.27047 0.0
H897 H 0.23339 0.35477 0.28188 0.0
C898 C 0.261 0.34241 0.22823 0.0
C899 C 0.2516 0.35145 0.29007 0.0
C900 C 0.25163 0.35593 0.33594 0.0
C901 C 0.25054 0.34228 0.20529 0.0
C902 C 0.24049 0.34673 0.22505 0.0
C903 C 0.24116 0.35144 0.26682 0.0
C904 C 0.22905 0.34584 0.204 0.0
C905 C 0.25026 0.33735 0.16011 0.0
C906 C 0.22325 0.35575 0.18948 0.0
C907 C 0.21213 0.35487 0.17196 0.0
C908 C 0.20656 0.34409 0.16943 0.0
C909 C 0.21252 0.33417 0.18333 0.0
C910 C 0.22366 0.33504 0.20033 0.0
H911 H 0.25906 0.3364 0.14626 0.0
H912 H 0.24615 0.3287 0.16097 0.0
H913 H 0.24504 0.34293 0.13836 0.0
H914 H 0.22728 0.36416 0.19222 0.0
H915 H 0.20775 0.36268 0.16185 0.0
H916 H 0.39926 0.53933 0.12451 0.0
H917 H 0.39932 0.51951 0.09649 0.0
H918 H 0.42089 0.53029 0.99005 0.0
H919 H 0.42127 0.54987 0.01869 0.0
H920 H 0.3916 0.51066 0.02324 0.0
H921 H 0.43867 0.50299 0.0307 0.0
H922 H 0.43199 0.51535 0.05582 0.0
H923 H 0.43536 0.51548 0.99885 0.0
C924 C 0.40412 0.53742 0.09542 0.0
C925 C 0.41038 0.54615 0.07417 0.0
C926 C 0.40412 0.52611 0.07936 0.0
C927 C 0.41031 0.52333 0.0416 0.0
C928 C 0.41637 0.53209 0.01997 0.0
H929 H 0.39828 0.46162 0.88372 0.0
H930 H 0.39821 0.48125 0.91346 0.0
C931 C 0.41652 0.54333 0.03633 0.0
C932 C 0.41019 0.51136 0.02403 0.0
H933 H 0.42775 0.48974 0.98789 0.0
C934 C 0.39951 0.50604 0.01585 0.0
C935 C 0.42049 0.50525 0.01488 0.0
C936 C 0.43226 0.51002 0.02597 0.0
C937 C 0.39885 0.49486 0.99823 0.0
C938 C 0.40916 0.48899 0.98709 0.0
C939 C 0.41983 0.49427 0.9958 0.0
C940 C 0.40918 0.47716 0.96817 0.0
C941 C 0.38711 0.48939 0.99283 0.0
C942 C 0.41572 0.46842 0.9879 0.0
C943 C 0.41601 0.45731 0.97036 0.0
C944 C 0.40968 0.45463 0.93283 0.0
C945 C 0.40317 0.46339 0.91285 0.0
C946 C 0.40304 0.47459 0.93008 0.0
H947 H 0.38061 0.49342 0.01453 0.0
H948 H 0.38414 0.49063 0.959 0.0
H949 H 0.3874 0.47998 0.99972 0.0
H950 H 0.42055 0.47015 0.01722 0.0
H951 H 0.42107 0.45077 0.98675 0.0
H952 H 0.29245 0.63916 0.65536 0.0
H953 H 0.27296 0.63817 0.68632 0.0
H954 H 0.27387 0.67476 0.71158 0.0
H955 H 0.29334 0.67585 0.6812 0.0
H956 H 0.26763 0.64712 0.77835 0.0
H957 H 0.24218 0.6673 0.64568 0.0
H958 H 0.25584 0.66017 0.63632 0.0
H959 H 0.25551 0.67426 0.66036 0.0
C960 C 0.28844 0.64703 0.66686 0.0
C961 C 0.29445 0.65759 0.66582 0.0
C962 C 0.27733 0.64643 0.68471 0.0
C963 C 0.27201 0.6564 0.70108 0.0
C964 C 0.27783 0.66699 0.69884 0.0
H965 H 0.20784 0.67634 0.81832 0.0
H966 H 0.22704 0.67508 0.78615 0.0
C967 C 0.28895 0.66759 0.6815 0.0
C968 C 0.26061 0.65573 0.72255 0.0
H969 H 0.23258 0.66432 0.71231 0.0
C970 C 0.25991 0.65077 0.76389 0.0
C971 C 0.25065 0.66058 0.70357 0.0
C972 C 0.25098 0.66583 0.6589 0.0
C973 C 0.24953 0.65087 0.78748 0.0
C974 C 0.23954 0.65582 0.76865 0.0
C975 C 0.24024 0.66056 0.72684 0.0
C976 C 0.22832 0.65649 0.79189 0.0
C977 C 0.2495 0.64609 0.83292 0.0
C978 C 0.2227 0.64648 0.80657 0.0
C979 C 0.21174 0.64719 0.82562 0.0
C980 C 0.20613 0.65792 0.82958 0.0
C981 C 0.2119 0.66794 0.81569 0.0
C982 C 0.22288 0.66723 0.79716 0.0
H983 H 0.25835 0.64564 0.84665 0.0
H984 H 0.24405 0.65143 0.8547 0.0
H985 H 0.24592 0.6372 0.83243 0.0
H986 H 0.2266 0.63807 0.80204 0.0
H987 H 0.20748 0.6393 0.83552 0.0
H988 H 0.07848 0.45556 0.53921 0.0
H989 H 0.08025 0.47494 0.50921 0.0
H990 H 0.1132 0.47905 0.57224 0.0
H991 H 0.11151 0.45957 0.60284 0.0
H992 H 0.09818 0.49839 0.58017 0.0
H993 H 0.10218 0.48403 0.40966 0.0
H994 H 0.08987 0.47807 0.43709 0.0
H995 H 0.10418 0.47437 0.45495 0.0
C996 C 0.08611 0.46056 0.54693 0.0
C997 C 0.09489 0.45595 0.57329 0.0
C998 C 0.08713 0.47162 0.52944 0.0
C999 C 0.09696 0.47832 0.53773 0.0
C1000 C 0.1056 0.47395 0.56511 0.0
H1001 H 0.11082 0.54301 0.39797 0.0
H1002 H 0.11278 0.52355 0.4285 0.0
C1003 C 0.1046 0.46283 0.58263 0.0
C1004 C 0.09805 0.48996 0.51809 0.0
H1005 H 0.09801 0.50404 0.42089 0.0
C1006 C 0.09827 0.49964 0.54537 0.0
C1007 C 0.09834 0.49155 0.47267 0.0
C1008 C 0.09875 0.48145 0.44183 0.0
C1009 C 0.09825 0.51089 0.52839 0.0
C1010 C 0.09785 0.51247 0.48298 0.0
C1011 C 0.09817 0.5028 0.45569 0.0
C1012 C 0.09659 0.52409 0.46336 0.0
C1013 C 0.09855 0.52099 0.55922 0.0
C1014 C 0.08669 0.53068 0.47185 0.0
C1015 C 0.08551 0.54173 0.4544 0.0
C1016 C 0.0942 0.54644 0.42787 0.0
C1017 C 0.10397 0.53967 0.41831 0.0
C1018 C 0.10512 0.52856 0.43579 0.0
H1019 H 0.10206 0.51846 0.59133 0.0
H1020 H 0.10387 0.52814 0.54599 0.0
H1021 H 0.08964 0.52425 0.56413 0.0
H1022 H 0.07988 0.52728 0.49223 0.0
H1023 H 0.07784 0.54664 0.46229 0.0
H1024 H 0.16662 0.11811 0.02879 0.0
H1025 H 0.15668 0.10923 0.96758 0.0
H1026 H 0.14321 0.14247 0.93004 0.0
H1027 H 0.15327 0.15149 0.99118 0.0
H1028 H 0.13288 0.10911 0.95239 0.0
H1029 H 0.15672 0.12974 0.81668 0.0
H1030 H 0.16204 0.12984 0.87162 0.0
H1031 H 0.1507 0.13954 0.85573 0.0
C1032 C 0.16166 0.12358 0.00727 0.0
C1033 C 0.16077 0.13553 0.01483 0.0
C1034 C 0.15594 0.11847 0.97236 0.0
C1035 C 0.14926 0.12518 0.94408 0.0
C1036 C 0.14847 0.13714 0.95107 0.0
H1037 H 0.09893 0.09734 0.75885 0.0
H1038 H 0.10793 0.10719 0.82053 0.0
C1039 C 0.15421 0.14228 0.98607 0.0
C1040 C 0.14284 0.11951 0.90827 0.0
H1041 H 0.14084 0.1179 0.79812 0.0
C1042 C 0.13459 0.11105 0.91864 0.0
C1043 C 0.14515 0.122 0.86429 0.0
C1044 C 0.15419 0.1307 0.85119 0.0
C1045 C 0.12861 0.10499 0.88622 0.0
C1046 C 0.13087 0.10753 0.84227 0.0
C1047 C 0.13908 0.11602 0.83188 0.0
C1048 C 0.1252 0.10113 0.80645 0.0
C1049 C 0.12017 0.09569 0.89916 0.0
C1050 C 0.13191 0.09445 0.77816 0.0
C1051 C 0.12681 0.08881 0.74305 0.0
C1052 C 0.11488 0.0898 0.73524 0.0
C1053 C 0.10812 0.09633 0.7641 0.0
C1054 C 0.11325 0.10196 0.79938 0.0
H1055 H 0.12115 0.09319 0.93369 0.0
H1056 H 0.11124 0.0989 0.89433 0.0
H1057 H 0.12132 0.08788 0.87873 0.0
H1058 H 0.14115 0.09369 0.78302 0.0
H1059 H 0.1323 0.08389 0.72146 0.0
H1060 H 0.1658 0.88364 0.96883 0.0
H1061 H 0.15588 0.89244 0.03026 0.0
H1062 H 0.14444 0.85884 0.07243 0.0
H1063 H 0.15446 0.84991 0.01102 0.0
H1064 H 0.13213 0.89133 0.0481 0.0
H1065 H 0.15828 0.87321 0.18285 0.0
H1066 H 0.16316 0.87307 0.12734 0.0
H1067 H 0.15259 0.86279 0.14539 0.0
C1068 C 0.1613 0.87808 0.9914 0.0
C1069 C 0.16096 0.86605 0.98505 0.0
C1070 C 0.15559 0.88314 0.02643 0.0
C1071 C 0.14948 0.8763 0.05606 0.0
C1072 C 0.14925 0.86427 0.0503 0.0
H1073 H 0.09883 0.90256 0.24298 0.0
H1074 H 0.10803 0.89297 0.18118 0.0
C1075 C 0.15497 0.85918 0.01515 0.0
C1076 C 0.14305 0.88189 0.09202 0.0
H1077 H 0.14183 0.88417 0.20214 0.0
C1078 C 0.13422 0.88975 0.08181 0.0
C1079 C 0.14587 0.87988 0.13592 0.0
C1080 C 0.15555 0.87186 0.14874 0.0
C1081 C 0.12815 0.89568 0.11432 0.0
C1082 C 0.13089 0.89359 0.15823 0.0
C1083 C 0.1397 0.88571 0.16844 0.0
C1084 C 0.12507 0.89982 0.19415 0.0
C1085 C 0.11906 0.90436 0.1014 0.0
C1086 C 0.13158 0.90684 0.22196 0.0
C1087 C 0.12637 0.9123 0.25723 0.0
C1088 C 0.11452 0.91082 0.26563 0.0
C1089 C 0.10795 0.90396 0.23724 0.0
C1090 C 0.11319 0.89848 0.20187 0.0
H1091 H 0.1198 0.90684 0.06677 0.0
H1092 H 0.11038 0.90055 0.10654 0.0
H1093 H 0.1197 0.91228 0.12154 0.0
H1094 H 0.14075 0.908 0.21661 0.0
H1095 H 0.1317 0.9175 0.27843 0.0
H1096 H 0.40294 0.90302 0.25539 0.0
H1097 H 0.39403 0.89291 0.3167 0.0
H1098 H 0.36096 0.90745 0.28312 0.0
H1099 H 0.36971 0.91747 0.22182 0.0
H1100 H 0.38135 0.90116 0.38843 0.0
H1101 H 0.35471 0.8725 0.28493 0.0
H1102 H 0.36664 0.88083 0.26398 0.0
H1103 H 0.35289 0.88758 0.27337 0.0
C1104 C 0.39379 0.90415 0.2613 0.0
C1105 C 0.38703 0.911 0.23351 0.0
C1106 C 0.38871 0.89834 0.29627 0.0
C1107 C 0.37679 0.89923 0.30387 0.0
C1108 C 0.37012 0.90643 0.27724 0.0
H1109 H 0.33684 0.88306 0.53119 0.0
H1110 H 0.34695 0.89193 0.47037 0.0
C1111 C 0.37517 0.91222 0.24238 0.0
C1112 C 0.37125 0.89263 0.33946 0.0
H1113 H 0.35022 0.87266 0.36024 0.0
C1114 C 0.3746 0.89487 0.38228 0.0
C1115 C 0.36257 0.88429 0.33134 0.0
C1116 C 0.35905 0.88105 0.28591 0.0
C1117 C 0.36922 0.88929 0.41729 0.0
C1118 C 0.36015 0.88137 0.40925 0.0
C1119 C 0.35708 0.87883 0.36637 0.0
C1120 C 0.3536 0.87584 0.445 0.0
C1121 C 0.37332 0.8919 0.46261 0.0
C1122 C 0.35359 0.86378 0.44998 0.0
C1123 C 0.34773 0.85864 0.48469 0.0
C1124 C 0.34172 0.86548 0.51483 0.0
C1125 C 0.34143 0.87752 0.50876 0.0
C1126 C 0.34728 0.88263 0.47417 0.0
H1127 H 0.38219 0.89556 0.46266 0.0
H1128 H 0.36747 0.89834 0.47758 0.0
H1129 H 0.37324 0.884 0.48301 0.0
H1130 H 0.35833 0.85837 0.42756 0.0
H1131 H 0.34812 0.84935 0.48841 0.0
H1132 H 0.40271 0.09905 0.74501 0.0
H1133 H 0.39377 0.10913 0.6837 0.0
H1134 H 0.36057 0.09525 0.71941 0.0
H1135 H 0.36936 0.08525 0.78068 0.0
H1136 H 0.38073 0.10083 0.61295 0.0
H1137 H 0.35487 0.13029 0.7161 0.0
H1138 H 0.36675 0.12185 0.73695 0.0
H1139 H 0.35286 0.11528 0.72854 0.0
C1140 C 0.39353 0.09807 0.73958 0.0
C1141 C 0.38675 0.09141 0.76793 0.0
C1142 C 0.38843 0.10386 0.70461 0.0
C1143 C 0.37647 0.10314 0.69758 0.0
C1144 C 0.36977 0.09614 0.72482 0.0
H1145 H 0.33611 0.1191 0.47104 0.0
H1146 H 0.34624 0.11029 0.53195 0.0
C1147 C 0.37484 0.09036 0.75968 0.0
C1148 C 0.37092 0.1097 0.66191 0.0
H1149 H 0.35014 0.12991 0.64101 0.0
C1150 C 0.3741 0.10724 0.61906 0.0
C1151 C 0.3624 0.1182 0.66997 0.0
C1152 C 0.35908 0.12167 0.71538 0.0
C1153 C 0.36869 0.11277 0.584 0.0
C1154 C 0.35977 0.12086 0.59203 0.0
C1155 C 0.35688 0.12361 0.6349 0.0
C1156 C 0.3532 0.12637 0.55628 0.0
C1157 C 0.37261 0.10994 0.53865 0.0
C1158 C 0.35335 0.1384 0.5507 0.0
C1159 C 0.34748 0.14351 0.51595 0.0
C1160 C 0.34129 0.13665 0.48635 0.0
C1161 C 0.34084 0.12464 0.49303 0.0
C1162 C 0.3467 0.11957 0.52768 0.0
H1163 H 0.38143 0.10615 0.5384 0.0
H1164 H 0.36661 0.10352 0.5243 0.0
H1165 H 0.37257 0.11775 0.51782 0.0
H1166 H 0.35823 0.14382 0.57267 0.0
H1167 H 0.348 0.15278 0.51174 0.0
H1168 H 0.84775 0.8499 0.01001 0.0
H1169 H 0.85773 0.85875 0.07169 0.0
H1170 H 0.84486 0.89219 0.03377 0.0
H1171 H 0.83499 0.88349 0.9721 0.0
H1172 H 0.86872 0.8918 0.04956 0.0
H1173 H 0.84401 0.87186 0.18453 0.0
H1174 H 0.84987 0.86192 0.14559 0.0
H1175 H 0.83882 0.87191 0.12942 0.0
C1176 C 0.84692 0.85911 0.01516 0.0
C1177 C 0.84055 0.86598 0.98616 0.0
C1178 C 0.85262 0.86415 0.05045 0.0
C1179 C 0.85198 0.87612 0.05744 0.0
C1180 C 0.84547 0.88294 0.02897 0.0
H1181 H 0.86897 0.91687 0.28124 0.0
H1182 H 0.86011 0.90715 0.21953 0.0
C1183 C 0.83979 0.87793 0.9938 0.0
C1184 C 0.8584 0.88169 0.09342 0.0
H1185 H 0.86006 0.88339 0.20358 0.0
C1186 C 0.86687 0.88995 0.08327 0.0
C1187 C 0.85589 0.87931 0.13731 0.0
C1188 C 0.84659 0.87084 0.15009 0.0
C1189 C 0.87285 0.89594 0.11584 0.0
C1190 C 0.8704 0.8935 0.15973 0.0
C1191 C 0.86197 0.8852 0.16988 0.0
C1192 C 0.87607 0.89982 0.19572 0.0
C1193 C 0.88151 0.90505 0.10303 0.0
C1194 C 0.88803 0.89902 0.20265 0.0
C1195 C 0.89316 0.90463 0.23794 0.0
C1196 C 0.8864 0.91108 0.26703 0.0
C1197 C 0.87445 0.912 0.25948 0.0
C1198 C 0.86935 0.90641 0.22429 0.0
H1199 H 0.88052 0.90767 0.06861 0.0
H1200 H 0.88062 0.91284 0.12374 0.0
H1201 H 0.89037 0.90159 0.1074 0.0
H1202 H 0.89336 0.89384 0.18137 0.0
H1203 H 0.90237 0.90368 0.24304 0.0
H1204 H 0.83488 0.11901 0.02823 0.0
H1205 H 0.84484 0.11042 0.9665 0.0
H1206 H 0.85825 0.14384 0.93096 0.0
H1207 H 0.84817 0.15258 0.99268 0.0
H1208 H 0.85014 0.13083 0.86023 0.0
H1209 H 0.87988 0.10511 0.96262 0.0
H1210 H 0.8649 0.10286 0.97504 0.0
H1211 H 0.87129 0.11682 0.98384 0.0
C1212 C 0.83987 0.12458 0.00716 0.0
C1213 C 0.84079 0.13649 0.01558 0.0
C1214 C 0.84563 0.11963 0.97204 0.0
C1215 C 0.8525 0.12644 0.94474 0.0
C1216 C 0.85307 0.1384 0.95192 0.0
H1217 H 0.90242 0.09857 0.75882 0.0
H1218 H 0.89334 0.10866 0.81982 0.0
C1219 C 0.84729 0.14339 0.98712 0.0
C1220 C 0.8591 0.12102 0.90891 0.0
H1221 H 0.87949 0.10046 0.88744 0.0
C1222 C 0.85661 0.12425 0.86616 0.0
C1223 C 0.86768 0.11256 0.91674 0.0
C1224 C 0.8712 0.1092 0.96205 0.0
C1225 C 0.86219 0.11897 0.83095 0.0
C1226 C 0.87035 0.1101 0.83873 0.0
C1227 C 0.87313 0.10715 0.88152 0.0
C1228 C 0.87592 0.10365 0.80283 0.0
C1229 C 0.85932 0.12297 0.78572 0.0
C1230 C 0.86918 0.09721 0.77384 0.0
C1231 C 0.87432 0.09144 0.73913 0.0
C1232 C 0.88635 0.09191 0.7328 0.0
C1233 C 0.89314 0.09804 0.76276 0.0
C1234 C 0.88797 0.10383 0.79755 0.0
H1235 H 0.85551 0.13177 0.78574 0.0
H1236 H 0.86713 0.12299 0.76484 0.0
H1237 H 0.85291 0.11699 0.77124 0.0
H1238 H 0.8599 0.09672 0.77789 0.0
H1239 H 0.86883 0.08675 0.71686 0.0
H1240 H 0.60006 0.0983 0.74263 0.0
H1241 H 0.60896 0.10821 0.6809 0.0
H1242 H 0.64247 0.09599 0.72099 0.0
H1243 H 0.63371 0.08621 0.78276 0.0
H1244 H 0.64191 0.11966 0.70387 0.0
H1245 H 0.62248 0.09441 0.56931 0.0
H1246 H 0.61235 0.10033 0.60739 0.0
H1247 H 0.62237 0.08942 0.62468 0.0
C1248 C 0.6093 0.0976 0.73796 0.0
C1249 C 0.61616 0.09144 0.76759 0.0
C1250 C 0.61437 0.10325 0.70263 0.0
C1251 C 0.62637 0.10278 0.69621 0.0
C1252 C 0.63319 0.09648 0.72534 0.0
H1253 H 0.66715 0.11983 0.47226 0.0
H1254 H 0.65753 0.11093 0.53412 0.0
C1255 C 0.62815 0.09085 0.76057 0.0
C1256 C 0.63196 0.10915 0.66013 0.0
H1257 H 0.63379 0.11061 0.54995 0.0
C1258 C 0.64012 0.11771 0.67018 0.0
C1259 C 0.62967 0.10652 0.61626 0.0
C1260 C 0.62132 0.09711 0.60355 0.0
C1261 C 0.64609 0.12369 0.63755 0.0
C1262 C 0.64373 0.12113 0.59368 0.0
C1263 C 0.63553 0.1126 0.58363 0.0
C1264 C 0.65001 0.12683 0.55764 0.0
C1265 C 0.65512 0.13245 0.65029 0.0
C1266 C 0.64906 0.13878 0.55049 0.0
C1267 C 0.65461 0.14393 0.51511 0.0
C1268 C 0.66114 0.13721 0.48615 0.0
C1269 C 0.66221 0.12528 0.49392 0.0
C1270 C 0.65668 0.12016 0.5292 0.0
H1271 H 0.65772 0.13153 0.68473 0.0
H1272 H 0.66292 0.13162 0.62964 0.0
H1273 H 0.65156 0.14127 0.64576 0.0
H1274 H 0.64381 0.14407 0.57167 0.0
H1275 H 0.65354 0.15312 0.50985 0.0
H1276 H 0.65295 0.8495 0.49498 0.0
H1277 H 0.64339 0.85847 0.43266 0.0
H1278 H 0.65695 0.89167 0.47031 0.0
H1279 H 0.66639 0.88284 0.53271 0.0
H1280 H 0.63339 0.89206 0.45384 0.0
H1281 H 0.6573 0.87083 0.31973 0.0
H1282 H 0.65103 0.86113 0.35854 0.0
H1283 H 0.66241 0.87071 0.37493 0.0
C1284 C 0.65403 0.85868 0.48962 0.0
C1285 C 0.66045 0.86545 0.5188 0.0
C1286 C 0.64858 0.86379 0.45394 0.0
C1287 C 0.64952 0.87573 0.44668 0.0
C1288 C 0.65611 0.88244 0.47529 0.0
H1289 H 0.63308 0.91575 0.21978 0.0
H1290 H 0.64195 0.90607 0.28156 0.0
C1291 C 0.66153 0.87736 0.51089 0.0
C1292 C 0.64329 0.8814 0.41043 0.0
H1293 H 0.64141 0.88259 0.3002 0.0
C1294 C 0.63512 0.88998 0.42022 0.0
C1295 C 0.64563 0.87873 0.36663 0.0
C1296 C 0.65464 0.86992 0.35412 0.0
C1297 C 0.62926 0.896 0.38742 0.0
C1298 C 0.63151 0.89324 0.34363 0.0
C1299 C 0.63965 0.88464 0.33382 0.0
C1300 C 0.62587 0.8995 0.30736 0.0
C1301 C 0.62096 0.90548 0.39989 0.0
C1302 C 0.61385 0.8991 0.30145 0.0
C1303 C 0.60872 0.9047 0.26613 0.0
C1304 C 0.61554 0.91073 0.23598 0.0
C1305 C 0.62755 0.91121 0.24239 0.0
C1306 C 0.63266 0.90564 0.27763 0.0
H1307 H 0.62223 0.90833 0.4339 0.0
H1308 H 0.62195 0.91308 0.37826 0.0
H1309 H 0.61198 0.90225 0.39667 0.0
H1310 H 0.60846 0.89426 0.32361 0.0
H1311 H 0.59945 0.90408 0.26193 0.0
H1312 H 0.6657 0.61854 0.53065 0.0
H1313 H 0.65596 0.60975 0.46882 0.0
H1314 H 0.64293 0.6431 0.43056 0.0
H1315 H 0.65278 0.65203 0.49236 0.0
H1316 H 0.63221 0.6099 0.45282 0.0
H1317 H 0.65664 0.63013 0.3178 0.0
H1318 H 0.66182 0.63018 0.37292 0.0
H1319 H 0.65067 0.64004 0.35657 0.0
C1320 C 0.66089 0.62406 0.50883 0.0
C1321 C 0.66005 0.63601 0.51641 0.0
C1322 C 0.65529 0.619 0.47356 0.0
C1323 C 0.64877 0.62577 0.44495 0.0
C1324 C 0.64806 0.63774 0.45188 0.0
H1325 H 0.5983 0.59819 0.25998 0.0
H1326 H 0.60741 0.608 0.32151 0.0
C1327 C 0.65368 0.64282 0.48725 0.0
C1328 C 0.6424 0.62015 0.40895 0.0
H1329 H 0.64059 0.61856 0.29878 0.0
C1330 C 0.63401 0.6118 0.41912 0.0
C1331 C 0.64483 0.62259 0.36505 0.0
C1332 C 0.65404 0.63115 0.35221 0.0
C1333 C 0.62803 0.60581 0.38655 0.0
C1334 C 0.63039 0.60833 0.34266 0.0
C1335 C 0.63875 0.6167 0.33249 0.0
C1336 C 0.62468 0.60204 0.30668 0.0
C1337 C 0.61946 0.5966 0.39936 0.0
C1338 C 0.63135 0.59547 0.27789 0.0
C1339 C 0.62619 0.58989 0.2428 0.0
C1340 C 0.61423 0.5908 0.23555 0.0
C1341 C 0.60751 0.59724 0.26482 0.0
C1342 C 0.6127 0.60284 0.30004 0.0
H1343 H 0.62051 0.59396 0.43371 0.0
H1344 H 0.61057 0.6 0.3952 0.0
H1345 H 0.62039 0.58885 0.37849 0.0
H1346 H 0.6406 0.59473 0.28242 0.0
H1347 H 0.63163 0.58502 0.22087 0.0
H1348 H 0.59961 0.40322 0.74481 0.0
H1349 H 0.6084 0.39313 0.68323 0.0
H1350 H 0.64175 0.40673 0.71854 0.0
H1351 H 0.63311 0.41673 0.7801 0.0
H1352 H 0.62135 0.40148 0.61247 0.0
H1353 H 0.64725 0.37167 0.714 0.0
H1354 H 0.63547 0.38014 0.73545 0.0
H1355 H 0.64938 0.38665 0.72683 0.0
C1356 C 0.6088 0.40413 0.73926 0.0
C1357 C 0.61567 0.41073 0.76755 0.0
C1358 C 0.61381 0.39834 0.70414 0.0
C1359 C 0.62576 0.39898 0.69689 0.0
C1360 C 0.63255 0.40589 0.72413 0.0
H1361 H 0.66586 0.3835 0.46957 0.0
H1362 H 0.65581 0.39213 0.53101 0.0
C1363 C 0.62757 0.41168 0.75915 0.0
C1364 C 0.6312 0.39246 0.66088 0.0
H1365 H 0.65187 0.37222 0.63878 0.0
C1366 C 0.62796 0.39503 0.6182 0.0
C1367 C 0.63971 0.3839 0.66845 0.0
C1368 C 0.6431 0.38032 0.71366 0.0
C1369 C 0.63329 0.38957 0.58283 0.0
C1370 C 0.64219 0.38143 0.59037 0.0
C1371 C 0.64514 0.37856 0.63307 0.0
C1372 C 0.64869 0.37602 0.55428 0.0
C1373 C 0.62932 0.39253 0.53766 0.0
C1374 C 0.64841 0.36401 0.54791 0.0
C1375 C 0.65422 0.35901 0.51282 0.0
C1376 C 0.66049 0.36593 0.48371 0.0
C1377 C 0.66108 0.37791 0.49118 0.0
C1378 C 0.65526 0.38288 0.52614 0.0
H1379 H 0.62054 0.3964 0.53772 0.0
H1380 H 0.63535 0.39892 0.52335 0.0
H1381 H 0.62925 0.38476 0.51662 0.0
H1382 H 0.64347 0.35855 0.56953 0.0
H1383 H 0.6536 0.34977 0.50801 0.0
H1384 H 0.9024 0.40373 0.75863 0.0
H1385 H 0.8935 0.39364 0.82 0.0
H1386 H 0.85996 0.40573 0.77974 0.0
H1387 H 0.86872 0.4157 0.71838 0.0
H1388 H 0.87971 0.40179 0.88849 0.0
H1389 H 0.85572 0.37057 0.7864 0.0
H1390 H 0.86732 0.37938 0.76558 0.0
H1391 H 0.8531 0.38538 0.77226 0.0
C1392 C 0.89315 0.40431 0.76305 0.0
C1393 C 0.88627 0.41046 0.73343 0.0
C1394 C 0.88807 0.39852 0.79805 0.0
C1395 C 0.87604 0.39873 0.80385 0.0
C1396 C 0.86923 0.40522 0.77529 0.0
H1397 H 0.83518 0.38285 0.02912 0.0
H1398 H 0.84521 0.3916 0.96784 0.0
C1399 C 0.87427 0.41099 0.74039 0.0
C1400 C 0.87055 0.39219 0.8397 0.0
H1401 H 0.85044 0.37135 0.86099 0.0
C1402 C 0.87337 0.39508 0.88251 0.0
C1403 C 0.86242 0.38331 0.83183 0.0
C1404 C 0.85952 0.37938 0.78654 0.0
C1405 C 0.86797 0.3896 0.91768 0.0
C1406 C 0.85942 0.38112 0.90977 0.0
C1407 C 0.8569 0.37795 0.86698 0.0
C1408 C 0.85285 0.37562 0.94553 0.0
C1409 C 0.87152 0.39291 0.96302 0.0
C1410 C 0.85341 0.36364 0.95227 0.0
C1411 C 0.84759 0.35857 0.9872 0.0
C1412 C 0.84106 0.3654 0.01582 0.0
C1413 C 0.84019 0.37734 0.0079 0.0
C1414 C 0.84599 0.38238 0.97306 0.0
H1415 H 0.8802 0.397 0.96357 0.0
H1416 H 0.86523 0.39922 0.97619 0.0
H1417 H 0.87163 0.38525 0.98467 0.0
H1418 H 0.85858 0.35826 0.93113 0.0
H1419 H 0.84844 0.34936 0.99238 0.0
H1420 H 0.90191 0.59849 0.24196 0.0
H1421 H 0.8931 0.60875 0.18082 0.0
H1422 H 0.85962 0.59582 0.21787 0.0
H1423 H 0.86827 0.58567 0.27901 0.0
H1424 H 0.87986 0.60077 0.11083 0.0
H1425 H 0.85465 0.63088 0.21353 0.0
H1426 H 0.86631 0.62217 0.23455 0.0
H1427 H 0.85226 0.61594 0.22632 0.0
C1428 C 0.89269 0.59776 0.23688 0.0
C1429 C 0.88579 0.59132 0.26555 0.0
C1430 C 0.88767 0.60365 0.20201 0.0
C1431 C 0.87567 0.60326 0.19541 0.0
C1432 C 0.86885 0.59648 0.22299 0.0
H1433 H 0.83532 0.61912 0.96935 0.0
H1434 H 0.8454 0.61043 0.03058 0.0
C1435 C 0.87384 0.5906 0.25776 0.0
C1436 C 0.87023 0.60988 0.15968 0.0
H1437 H 0.84972 0.63034 0.13854 0.0
C1438 C 0.87333 0.6073 0.11687 0.0
C1439 C 0.86185 0.61853 0.16765 0.0
C1440 C 0.85864 0.62215 0.213 0.0
C1441 C 0.86797 0.61283 0.08175 0.0
C1442 C 0.85916 0.62105 0.08969 0.0
C1443 C 0.85636 0.62394 0.13252 0.0
C1444 C 0.85259 0.62651 0.0539 0.0
C1445 C 0.8718 0.60986 0.03642 0.0
C1446 C 0.85288 0.63852 0.0477 0.0
C1447 C 0.84703 0.64356 0.01275 0.0
C1448 C 0.84074 0.63667 0.98361 0.0
C1449 C 0.84013 0.62469 0.99098 0.0
C1450 C 0.84596 0.61968 0.02581 0.0
H1451 H 0.88058 0.60598 0.03614 0.0
H1452 H 0.86572 0.60347 0.02238 0.0
H1453 H 0.87182 0.61763 0.01534 0.0
H1454 H 0.85785 0.64396 0.06929 0.0
H1455 H 0.84767 0.65281 0.00801 0.0
H1456 H 0.33636 0.38452 0.46966 0.0
H1457 H 0.34652 0.39306 0.53103 0.0
H1458 H 0.35803 0.3593 0.57093 0.0
H1459 H 0.34778 0.35061 0.50951 0.0
H1460 H 0.34987 0.37327 0.63955 0.0
H1461 H 0.38184 0.39661 0.53848 0.0
H1462 H 0.3671 0.39944 0.52386 0.0
H1463 H 0.37289 0.38514 0.51746 0.0
C1464 C 0.34099 0.37887 0.49156 0.0
C1465 C 0.3413 0.36687 0.48451 0.0
C1466 C 0.34687 0.3838 0.52647 0.0
C1467 C 0.35323 0.37685 0.555 0.0
C1468 C 0.35325 0.36482 0.54903 0.0
H1469 H 0.4028 0.40296 0.74583 0.0
H1470 H 0.39378 0.39309 0.68419 0.0
C1471 C 0.34737 0.35987 0.51398 0.0
C1472 C 0.35981 0.38219 0.59109 0.0
H1473 H 0.38109 0.40178 0.61313 0.0
C1474 C 0.35675 0.37944 0.63381 0.0
C1475 C 0.3689 0.39012 0.58353 0.0
C1476 C 0.37297 0.39294 0.53837 0.0
C1477 C 0.36227 0.38471 0.66917 0.0
C1478 C 0.37099 0.39304 0.66157 0.0
C1479 C 0.37432 0.39549 0.61889 0.0
C1480 C 0.37658 0.39945 0.69756 0.0
C1481 C 0.35876 0.38126 0.7144 0.0
C1482 C 0.36997 0.40657 0.72466 0.0
C1483 C 0.37508 0.41223 0.75971 0.0
C1484 C 0.38694 0.41094 0.7683 0.0
C1485 C 0.39364 0.40413 0.74015 0.0
C1486 C 0.3885 0.39847 0.70498 0.0
H1487 H 0.35437 0.37273 0.71482 0.0
H1488 H 0.36637 0.38088 0.73624 0.0
H1489 H 0.35265 0.38777 0.72745 0.0
H1490 H 0.3608 0.40766 0.71896 0.0
H1491 H 0.36966 0.41744 0.78056 0.0
H1492 H 0.35097 0.65152 0.49831 0.0
H1493 H 0.36125 0.64278 0.43691 0.0
H1494 H 0.34298 0.61084 0.45743 0.0
H1495 H 0.33275 0.6194 0.51884 0.0
H1496 H 0.37389 0.61689 0.44838 0.0
H1497 H 0.34079 0.62361 0.31993 0.0
H1498 H 0.3425 0.63361 0.36441 0.0
H1499 H 0.33617 0.61972 0.37377 0.0
C1500 C 0.34904 0.64268 0.48944 0.0
C1501 C 0.34104 0.63615 0.51347 0.0
C1502 C 0.35495 0.6377 0.45453 0.0
C1503 C 0.35286 0.62618 0.44287 0.0
C1504 C 0.34469 0.61975 0.46605 0.0
H1505 H 0.37218 0.58035 0.23604 0.0
H1506 H 0.36335 0.59029 0.29739 0.0
C1507 C 0.33885 0.62467 0.50107 0.0
C1508 C 0.35939 0.62067 0.40727 0.0
H1509 H 0.35712 0.61253 0.30153 0.0
C1510 C 0.37031 0.61599 0.4161 0.0
C1511 C 0.35459 0.61945 0.36556 0.0
C1512 C 0.34288 0.62437 0.35491 0.0
C1513 C 0.37649 0.60986 0.38434 0.0
C1514 C 0.37169 0.60862 0.34241 0.0
C1515 C 0.3608 0.61347 0.33361 0.0
C1516 C 0.3776 0.60208 0.30736 0.0
C1517 C 0.38787 0.60442 0.39651 0.0
C1518 C 0.38865 0.60527 0.29277 0.0
C1519 C 0.3938 0.59948 0.25794 0.0
C1520 C 0.38792 0.59051 0.2366 0.0
C1521 C 0.37695 0.58721 0.25175 0.0
C1522 C 0.37187 0.59292 0.28675 0.0
H1523 H 0.38873 0.6034 0.43213 0.0
H1524 H 0.3889 0.59582 0.38111 0.0
H1525 H 0.39502 0.61005 0.38526 0.0
H1526 H 0.39315 0.61247 0.30745 0.0
H1527 H 0.4022 0.60231 0.24674 0.0
H1528 H 0.15375 0.65231 0.01008 0.0
H1529 H 0.14381 0.64338 0.07168 0.0
H1530 H 0.15584 0.60986 0.03092 0.0
H1531 H 0.16568 0.61865 0.96931 0.0
H1532 H 0.13204 0.61067 0.04829 0.0
H1533 H 0.15779 0.62949 0.18277 0.0
H1534 H 0.15198 0.63973 0.14484 0.0
H1535 H 0.16272 0.62956 0.12734 0.0
C1536 C 0.1544 0.64306 0.01456 0.0
C1537 C 0.16054 0.63621 0.98482 0.0
C1538 C 0.14873 0.63797 0.04981 0.0
C1539 C 0.14915 0.62596 0.05601 0.0
C1540 C 0.15541 0.61914 0.02674 0.0
H1541 H 0.13217 0.58499 0.27944 0.0
H1542 H 0.14101 0.5946 0.21743 0.0
C1543 C 0.16107 0.6242 0.99161 0.0
C1544 C 0.14278 0.62037 0.09206 0.0
H1545 H 0.14155 0.61827 0.2022 0.0
C1546 C 0.13409 0.61234 0.08198 0.0
C1547 C 0.14554 0.62251 0.13591 0.0
C1548 C 0.15508 0.63072 0.14858 0.0
C1549 C 0.12811 0.60636 0.11459 0.0
C1550 C 0.1308 0.60857 0.15846 0.0
C1551 C 0.13946 0.61664 0.16853 0.0
C1552 C 0.12512 0.60226 0.19449 0.0
C1553 C 0.1192 0.59749 0.10179 0.0
C1554 C 0.1132 0.60328 0.20199 0.0
C1555 C 0.10807 0.59773 0.23743 0.0
C1556 C 0.11482 0.59113 0.26614 0.0
C1557 C 0.12671 0.58998 0.25799 0.0
C1558 C 0.1318 0.59551 0.22262 0.0
H1559 H 0.12003 0.59494 0.06726 0.0
H1560 H 0.11994 0.58963 0.1222 0.0
H1561 H 0.11044 0.60116 0.1066 0.0
H1562 H 0.1079 0.6086 0.18107 0.0
H1563 H 0.09891 0.59887 0.243 0.0
H1564 H 0.1329 0.41674 0.72208 0.0
H1565 H 0.14149 0.40666 0.78354 0.0
H1566 H 0.108 0.39356 0.8197 0.0
H1567 H 0.09926 0.40374 0.75822 0.0
H1568 H 0.1212 0.40161 0.89016 0.0
H1569 H 0.14647 0.37155 0.78745 0.0
H1570 H 0.14882 0.3865 0.77478 0.0
H1571 H 0.13479 0.38023 0.76645 0.0
C1572 C 0.12732 0.41179 0.74322 0.0
C1573 C 0.11539 0.41099 0.73505 0.0
C1574 C 0.13227 0.40596 0.77818 0.0
C1575 C 0.12543 0.39915 0.80559 0.0
C1576 C 0.11345 0.39868 0.79865 0.0
H1577 H 0.15332 0.34934 0.99208 0.0
H1578 H 0.14313 0.35832 0.93111 0.0
C1579 C 0.10847 0.40453 0.76359 0.0
C1580 C 0.13085 0.39252 0.84134 0.0
H1581 H 0.1513 0.372 0.8625 0.0
C1582 C 0.12772 0.39508 0.88414 0.0
C1583 C 0.13922 0.38386 0.83339 0.0
C1584 C 0.14246 0.38027 0.78803 0.0
C1585 C 0.13304 0.38951 0.91927 0.0
C1586 C 0.14183 0.38127 0.91135 0.0
C1587 C 0.14466 0.37841 0.86852 0.0
C1588 C 0.14836 0.37574 0.94714 0.0
C1589 C 0.12917 0.39246 0.96458 0.0
C1590 C 0.15495 0.38251 0.97554 0.0
C1591 C 0.16078 0.37742 0.01021 0.0
C1592 C 0.16021 0.36543 0.0171 0.0
C1593 C 0.15393 0.3586 0.9877 0.0
C1594 C 0.14808 0.36372 0.95293 0.0
H1595 H 0.1204 0.39634 0.9648 0.0
H1596 H 0.12914 0.38468 0.9856 0.0
H1597 H 0.13524 0.39884 0.97874 0.0
H1598 H 0.15551 0.39178 0.97108 0.0
H1599 H 0.16559 0.38294 0.03204 0.0
H1600 H 0.16718 0.2932 0.19719 0.0
H1601 H 0.16439 0.27278 0.18164 0.0
H1602 H 0.15964 0.28056 0.04633 0.0
H1603 H 0.1625 0.30122 0.06163 0.0
H1604 H 0.14471 0.26174 0.14044 0.0
H1605 H 0.18606 0.25578 0.05057 0.0
H1606 H 0.18366 0.26807 0.08541 0.0
H1607 H 0.1765 0.26723 0.03406 0.0
C1608 C 0.16552 0.29063 0.16406 0.0
C1609 C 0.16512 0.29885 0.13059 0.0
C1610 C 0.1639 0.27893 0.15527 0.0
C1611 C 0.1619 0.27516 0.11284 0.0
C1612 C 0.1613 0.28331 0.07925 0.0
H1613 H 0.16328 0.19995 0.06045 0.0
H1614 H 0.16019 0.22063 0.04602 0.0
C1615 C 0.16288 0.29509 0.08807 0.0
C1616 C 0.16065 0.26261 0.10468 0.0
H1617 H 0.17568 0.23909 0.06896 0.0
C1618 C 0.15136 0.25679 0.12403 0.0
C1619 C 0.16929 0.2562 0.08305 0.0
C1620 C 0.1795 0.26206 0.06214 0.0
C1621 C 0.1508 0.24469 0.12435 0.0
C1622 C 0.15987 0.23826 0.10544 0.0
C1623 C 0.16876 0.24407 0.0835 0.0
C1624 C 0.1611 0.22569 0.11334 0.0
C1625 C 0.14072 0.23889 0.14629 0.0
C1626 C 0.16274 0.22175 0.1558 0.0
C1627 C 0.16456 0.21006 0.16406 0.0
C1628 C 0.16481 0.20202 0.12999 0.0
C1629 C 0.16307 0.20594 0.08737 0.0
C1630 C 0.16132 0.21772 0.07908 0.0
H1631 H 0.13297 0.24455 0.1464 0.0
H1632 H 0.1385 0.23061 0.13017 0.0
H1633 H 0.14302 0.23703 0.18046 0.0
H1634 H 0.16283 0.22778 0.18263 0.0
H1635 H 0.16588 0.20736 0.19726 0.0
H1636 H 0.95809 0.91581 0.44837 0.0
H1637 H 0.97844 0.91276 0.43199 0.0
H1638 H 0.97047 0.91024 0.296 0.0
H1639 H 0.94989 0.91331 0.31216 0.0
H1640 H 0.98889 0.89319 0.38421 0.0
H1641 H 0.99591 0.93632 0.30821 0.0
H1642 H 0.98376 0.93361 0.34339 0.0
H1643 H 0.98403 0.92753 0.29004 0.0
C1644 C 0.96061 0.91458 0.41492 0.0
C1645 C 0.95237 0.91486 0.38152 0.0
C1646 C 0.97225 0.91281 0.40565 0.0
C1647 C 0.97595 0.91135 0.36282 0.0
C1648 C 0.96777 0.91145 0.32926 0.0
H1649 H 0.05113 0.9131 0.31209 0.0
H1650 H 0.03046 0.91059 0.29624 0.0
C1651 C 0.95604 0.91316 0.33856 0.0
C1652 C 0.98845 0.90997 0.35422 0.0
H1653 H 0.01235 0.92527 0.32422 0.0
C1654 C 0.99401 0.90009 0.37025 0.0
C1655 C 0.99509 0.91895 0.33574 0.0
C1656 C 0.98947 0.92975 0.31839 0.0
C1657 C 0.0061 0.89923 0.37042 0.0
C1658 C 0.01277 0.90859 0.35495 0.0
C1659 C 0.0072 0.91812 0.33617 0.0
C1660 C 0.02535 0.90934 0.36344 0.0
C1661 C 0.01162 0.88847 0.38855 0.0
C1662 C 0.02928 0.90956 0.40636 0.0
C1663 C 0.04097 0.91104 0.41546 0.0
C1664 C 0.04903 0.91238 0.38181 0.0
C1665 C 0.04513 0.91203 0.33869 0.0
C1666 C 0.03335 0.91061 0.32959 0.0
H1667 H 0.00582 0.88088 0.38511 0.0
H1668 H 0.01994 0.88656 0.37221 0.0
H1669 H 0.01331 0.88974 0.42359 0.0
H1670 H 0.02324 0.90886 0.43302 0.0
H1671 H 0.04366 0.91129 0.44903 0.0
H1672 H 0.33888 0.80072 0.56063 0.0
H1673 H 0.34171 0.78003 0.54597 0.0
H1674 H 0.33652 0.77251 0.68126 0.0
H1675 H 0.33373 0.79297 0.69616 0.0
H1676 H 0.35647 0.76148 0.64068 0.0
H1677 H 0.31527 0.75514 0.55029 0.0
H1678 H 0.32475 0.76667 0.53397 0.0
H1679 H 0.31751 0.76745 0.58519 0.0
C1680 C 0.33838 0.79465 0.5872 0.0
C1681 C 0.33604 0.79849 0.62953 0.0
C1682 C 0.33996 0.78284 0.57875 0.0
C1683 C 0.33924 0.77476 0.61252 0.0
C1684 C 0.3371 0.77861 0.65476 0.0
H1685 H 0.33616 0.70669 0.69682 0.0
H1686 H 0.33896 0.72717 0.68267 0.0
C1687 C 0.33548 0.79033 0.66317 0.0
C1688 C 0.34056 0.7622 0.60474 0.0
H1689 H 0.32577 0.73854 0.56897 0.0
C1690 C 0.34988 0.75647 0.62426 0.0
C1691 C 0.33199 0.7557 0.58308 0.0
C1692 C 0.32176 0.76148 0.56199 0.0
C1693 C 0.35055 0.74438 0.6246 0.0
C1694 C 0.34156 0.73785 0.60561 0.0
C1695 C 0.33263 0.74358 0.5836 0.0
C1696 C 0.34049 0.72525 0.61324 0.0
C1697 C 0.3607 0.73868 0.64654 0.0
C1698 C 0.34022 0.71735 0.57875 0.0
C1699 C 0.3386 0.70553 0.58677 0.0
C1700 C 0.33705 0.7015 0.62935 0.0
C1701 C 0.33736 0.70948 0.66364 0.0
C1702 C 0.33904 0.7212 0.65565 0.0
H1703 H 0.3684 0.74441 0.64648 0.0
H1704 H 0.35844 0.73685 0.68077 0.0
H1705 H 0.36299 0.73041 0.63054 0.0
H1706 H 0.34121 0.72033 0.54573 0.0
H1707 H 0.33835 0.6996 0.55967 0.0
H1708 H 0.45004 0.08919 0.81657 0.0
H1709 H 0.47085 0.08991 0.80048 0.0
H1710 H 0.47846 0.08601 0.93623 0.0
H1711 H 0.4579 0.08533 0.95265 0.0
H1712 H 0.49002 0.10585 0.84978 0.0
H1713 H 0.49423 0.05811 0.86044 0.0
H1714 H 0.48087 0.06516 0.84558 0.0
H1715 H 0.4854 0.06489 0.90113 0.0
C1716 C 0.45616 0.0886 0.84297 0.0
C1717 C 0.45231 0.08714 0.88586 0.0
C1718 C 0.46802 0.08903 0.83372 0.0
C1719 C 0.47613 0.08794 0.86721 0.0
C1720 C 0.4723 0.08681 0.90999 0.0
H1721 H 0.54388 0.08138 0.94948 0.0
H1722 H 0.52332 0.08284 0.93403 0.0
C1723 C 0.46053 0.08642 0.91926 0.0
C1724 C 0.48866 0.08747 0.85831 0.0
H1725 H 0.51155 0.06907 0.86629 0.0
C1726 C 0.49476 0.0978 0.8522 0.0
C1727 C 0.49475 0.07694 0.86164 0.0
C1728 C 0.48851 0.0656 0.86725 0.0
C1729 C 0.50691 0.09794 0.85215 0.0
C1730 C 0.51299 0.08747 0.85814 0.0
C1731 C 0.50685 0.07708 0.86171 0.0
C1732 C 0.52557 0.08723 0.86653 0.0
C1733 C 0.51319 0.1093 0.84856 0.0
C1734 C 0.53367 0.08928 0.8336 0.0
C1735 C 0.54554 0.08843 0.84232 0.0
C1736 C 0.54942 0.08551 0.8841 0.0
C1737 C 0.54123 0.08364 0.91695 0.0
C1738 C 0.52945 0.08446 0.9082 0.0
H1739 H 0.50717 0.11676 0.84691 0.0
H1740 H 0.51901 0.11047 0.87678 0.0
H1741 H 0.51863 0.1093 0.81897 0.0
H1742 H 0.53082 0.09134 0.80111 0.0
H1743 H 0.55164 0.0899 0.81633 0.0
H1744 H 0.16311 0.80183 0.94207 0.0
H1745 H 0.16018 0.78119 0.95773 0.0
H1746 H 0.16458 0.77327 0.82237 0.0
H1747 H 0.16746 0.79365 0.80648 0.0
H1748 H 0.14476 0.76252 0.86491 0.0
H1749 H 0.18644 0.7561 0.95219 0.0
H1750 H 0.17711 0.76773 0.96873 0.0
H1751 H 0.18411 0.76833 0.91703 0.0
C1752 C 0.16341 0.79567 0.91571 0.0
C1753 C 0.16556 0.79937 0.87307 0.0
C1754 C 0.16178 0.78391 0.92472 0.0
C1755 C 0.16225 0.77572 0.89121 0.0
C1756 C 0.16419 0.77945 0.84868 0.0
H1757 H 0.16515 0.70815 0.8051 0.0
H1758 H 0.16235 0.72855 0.82067 0.0
C1759 C 0.16586 0.79112 0.8397 0.0
C1760 C 0.16089 0.7632 0.8995 0.0
H1761 H 0.17589 0.73951 0.93374 0.0
C1762 C 0.15144 0.75749 0.88078 0.0
C1763 C 0.16958 0.75669 0.92044 0.0
C1764 C 0.17994 0.76245 0.94071 0.0
C1765 C 0.15078 0.7454 0.88032 0.0
C1766 C 0.15989 0.73886 0.8984 0.0
C1767 C 0.16894 0.74456 0.91982 0.0
C1768 C 0.16099 0.72631 0.89 0.0
C1769 C 0.14053 0.73971 0.85902 0.0
C1770 C 0.16134 0.71826 0.92397 0.0
C1771 C 0.16295 0.70648 0.91513 0.0
C1772 C 0.16441 0.70265 0.87224 0.0
C1773 C 0.16404 0.71078 0.83849 0.0
C1774 C 0.16236 0.72246 0.84729 0.0
H1775 H 0.13283 0.74543 0.85971 0.0
H1776 H 0.14262 0.73791 0.82461 0.0
H1777 H 0.13834 0.73142 0.87506 0.0
H1778 H 0.16042 0.72109 0.95721 0.0
H1779 H 0.16326 0.70042 0.94182 0.0
H1780 H 0.45708 0.90918 0.05684 0.0
H1781 H 0.47754 0.90775 0.07472 0.0
H1782 H 0.47009 0.91671 0.20727 0.0
H1783 H 0.44941 0.91806 0.18964 0.0
H1784 H 0.4877 0.93058 0.16303 0.0
H1785 H 0.49578 0.88356 0.14836 0.0
H1786 H 0.48747 0.8895 0.10458 0.0
H1787 H 0.48159 0.8895 0.15844 0.0
C1788 C 0.45974 0.91069 0.08998 0.0
C1789 C 0.45164 0.91375 0.12185 0.0
C1790 C 0.47144 0.90979 0.10019 0.0
C1791 C 0.4753 0.91198 0.1424 0.0
C1792 C 0.46724 0.91487 0.17459 0.0
H1793 H 0.55099 0.90955 0.18646 0.0
H1794 H 0.53026 0.90756 0.20264 0.0
C1795 C 0.45546 0.91562 0.16449 0.0
C1796 C 0.48787 0.91226 0.15118 0.0
H1797 H 0.51233 0.89601 0.14068 0.0
C1798 C 0.49308 0.92298 0.15925 0.0
C1799 C 0.49486 0.90232 0.14637 0.0
C1800 C 0.48965 0.89054 0.13935 0.0
C1801 C 0.50515 0.92415 0.15957 0.0
C1802 C 0.51212 0.91436 0.15164 0.0
C1803 C 0.50693 0.9035 0.14659 0.0
C1804 C 0.52463 0.91553 0.14297 0.0
C1805 C 0.51038 0.93594 0.16634 0.0
C1806 C 0.52823 0.92052 0.10395 0.0
C1807 C 0.53995 0.92155 0.09447 0.0
C1808 C 0.54835 0.91767 0.12396 0.0
C1809 C 0.54473 0.91264 0.16316 0.0
C1810 C 0.53292 0.9115 0.17245 0.0
H1811 H 0.50417 0.942 0.18165 0.0
H1812 H 0.51823 0.93536 0.18686 0.0
H1813 H 0.51297 0.93957 0.13452 0.0
H1814 H 0.52194 0.92357 0.08064 0.0
H1815 H 0.54242 0.92548 0.06402 0.0
H1816 H 0.33558 0.20877 0.30601 0.0
H1817 H 0.33846 0.2292 0.32102 0.0
H1818 H 0.34087 0.22193 0.4576 0.0
H1819 H 0.33797 0.20124 0.44278 0.0
H1820 H 0.32529 0.24045 0.43392 0.0
H1821 H 0.36832 0.24589 0.35887 0.0
H1822 H 0.35838 0.23834 0.32445 0.0
H1823 H 0.36275 0.23196 0.37499 0.0
C1824 C 0.33681 0.21145 0.33929 0.0
C1825 C 0.33657 0.20336 0.37322 0.0
C1826 C 0.33853 0.22315 0.34777 0.0
C1827 C 0.34006 0.22705 0.39033 0.0
C1828 C 0.33982 0.21905 0.42447 0.0
H1829 H 0.33859 0.30253 0.44324 0.0
H1830 H 0.34123 0.28183 0.45836 0.0
C1831 C 0.33817 0.20726 0.41595 0.0
C1832 C 0.34126 0.23961 0.39841 0.0
H1833 H 0.35664 0.26309 0.36474 0.0
C1834 C 0.33229 0.24542 0.41987 0.0
C1835 C 0.35042 0.24604 0.38015 0.0
C1836 C 0.36058 0.24023 0.35869 0.0
C1837 C 0.33178 0.25756 0.42048 0.0
C1838 C 0.34055 0.26397 0.39951 0.0
C1839 C 0.3499 0.25814 0.38064 0.0
C1840 C 0.33938 0.27654 0.39154 0.0
C1841 C 0.3215 0.26342 0.44082 0.0
C1842 C 0.33768 0.28039 0.34902 0.0
C1843 C 0.33619 0.29211 0.34034 0.0
C1844 C 0.33642 0.30027 0.37401 0.0
C1845 C 0.33834 0.29644 0.41664 0.0
C1846 C 0.3398 0.28464 0.42535 0.0
H1847 H 0.31484 0.25715 0.45167 0.0
H1848 H 0.32437 0.2685 0.46931 0.0
H1849 H 0.31749 0.26951 0.41746 0.0
H1850 H 0.33734 0.27428 0.32247 0.0
H1851 H 0.33477 0.29474 0.30712 0.0
H1852 H 0.95953 0.07847 0.56102 0.0
H1853 H 0.97998 0.08017 0.57852 0.0
H1854 H 0.97141 0.0944 0.70335 0.0
H1855 H 0.95071 0.09263 0.68626 0.0
H1856 H 0.98972 0.10668 0.64314 0.0
H1857 H 0.99715 0.06018 0.67784 0.0
H1858 H 0.98843 0.06328 0.63104 0.0
H1859 H 0.98318 0.06698 0.68394 0.0
C1860 C 0.96194 0.08198 0.59225 0.0
C1861 C 0.95348 0.08541 0.6223 0.0
C1862 C 0.97364 0.0829 0.60221 0.0
C1863 C 0.97716 0.08731 0.64229 0.0
C1864 C 0.96881 0.09092 0.67231 0.0
H1865 H 0.05221 0.08339 0.6914 0.0
H1866 H 0.03153 0.08499 0.70869 0.0
C1867 C 0.95702 0.0899 0.6625 0.0
C1868 C 0.98965 0.08823 0.65169 0.0
H1869 H 0.0138 0.07157 0.66187 0.0
C1870 C 0.99499 0.09906 0.64828 0.0
C1871 C 0.99646 0.07828 0.65857 0.0
C1872 C 0.99104 0.0665 0.66342 0.0
C1873 C 0.00708 0.10007 0.6487 0.0
C1874 C 0.01392 0.09 0.65248 0.0
C1875 C 0.00854 0.07928 0.65892 0.0
C1876 C 0.02651 0.09017 0.64409 0.0
C1877 C 0.01248 0.11183 0.64339 0.0
C1878 C 0.03047 0.09254 0.60217 0.0
C1879 C 0.04217 0.09149 0.59214 0.0
C1880 C 0.05017 0.08811 0.62392 0.0
C1881 C 0.04625 0.08608 0.66634 0.0
C1882 C 0.03446 0.08698 0.67624 0.0
H1883 H 0.00641 0.11882 0.65279 0.0
H1884 H 0.02046 0.11259 0.66313 0.0
H1885 H 0.01485 0.11311 0.60891 0.0
H1886 H 0.02445 0.09484 0.57674 0.0
H1887 H 0.04491 0.09314 0.55918 0.0
H1888 H 0.83844 0.70054 0.93673 0.0
H1889 H 0.83939 0.72135 0.95282 0.0
H1890 H 0.83241 0.72903 0.81884 0.0
H1891 H 0.83147 0.70849 0.80247 0.0
H1892 H 0.85403 0.74 0.90671 0.0
H1893 H 0.80656 0.74564 0.89429 0.0
H1894 H 0.81323 0.73184 0.90547 0.0
H1895 H 0.81287 0.73736 0.85112 0.0
C1896 C 0.83718 0.70668 0.91071 0.0
C1897 C 0.8348 0.70286 0.86838 0.0
C1898 C 0.83774 0.71854 0.91996 0.0
C1899 C 0.83584 0.72667 0.88706 0.0
C1900 C 0.83378 0.72287 0.84473 0.0
H1901 H 0.83277 0.79437 0.80336 0.0
H1902 H 0.83382 0.77381 0.81935 0.0
C1903 C 0.83326 0.7111 0.83546 0.0
C1904 C 0.83568 0.73922 0.89613 0.0
H1905 H 0.81808 0.7627 0.88659 0.0
C1906 C 0.84615 0.74499 0.90351 0.0
C1907 C 0.82537 0.74565 0.89198 0.0
C1908 C 0.81384 0.73982 0.88566 0.0
C1909 C 0.84666 0.75713 0.90373 0.0
C1910 C 0.83645 0.76353 0.89659 0.0
C1911 C 0.8259 0.75774 0.89196 0.0
C1912 C 0.83668 0.77609 0.88796 0.0
C1913 C 0.85817 0.76307 0.90871 0.0
C1914 C 0.83805 0.7842 0.92137 0.0
C1915 C 0.83742 0.79606 0.91235 0.0
C1916 C 0.83541 0.79993 0.86981 0.0
C1917 C 0.8343 0.79172 0.83649 0.0
C1918 C 0.8349 0.77995 0.84552 0.0
H1919 H 0.86537 0.75683 0.913 0.0
H1920 H 0.85995 0.76846 0.87974 0.0
H1921 H 0.85792 0.7689 0.9372 0.0
H1922 H 0.83935 0.78134 0.9544 0.0
H1923 H 0.83829 0.80216 0.93869 0.0
H1924 H 0.664 0.20085 0.4404 0.0
H1925 H 0.66114 0.22148 0.4562 0.0
H1926 H 0.66127 0.22892 0.31945 0.0
H1927 H 0.66409 0.20854 0.30347 0.0
H1928 H 0.67614 0.24002 0.42991 0.0
H1929 H 0.63212 0.24557 0.36376 0.0
H1930 H 0.63795 0.2316 0.37812 0.0
H1931 H 0.64153 0.23813 0.32698 0.0
C1932 C 0.66329 0.20689 0.41377 0.0
C1933 C 0.66425 0.20306 0.37069 0.0
C1934 C 0.66167 0.21865 0.42284 0.0
C1935 C 0.66081 0.22669 0.38896 0.0
C1936 C 0.66168 0.22284 0.34606 0.0
H1937 H 0.66529 0.29428 0.30532 0.0
H1938 H 0.66273 0.27386 0.32119 0.0
C1939 C 0.66337 0.21117 0.33701 0.0
C1940 C 0.65971 0.23923 0.39753 0.0
H1941 H 0.64393 0.26276 0.36716 0.0
C1942 C 0.66897 0.24501 0.41732 0.0
C1943 C 0.65031 0.24569 0.38118 0.0
C1944 C 0.63986 0.23992 0.36171 0.0
C1945 C 0.6695 0.25714 0.41796 0.0
C1946 C 0.66048 0.26359 0.39876 0.0
C1947 C 0.65086 0.25779 0.38169 0.0
C1948 C 0.66158 0.27614 0.39053 0.0
C1949 C 0.68006 0.26298 0.43635 0.0
C1950 C 0.66166 0.28425 0.42435 0.0
C1951 C 0.66311 0.29604 0.41535 0.0
C1952 C 0.66454 0.29984 0.37241 0.0
C1953 C 0.66426 0.29167 0.33877 0.0
C1954 C 0.66277 0.27997 0.34774 0.0
H1955 H 0.68683 0.25668 0.44599 0.0
H1956 H 0.68378 0.26904 0.41225 0.0
H1957 H 0.67759 0.26807 0.46531 0.0
H1958 H 0.66063 0.28146 0.45759 0.0
H1959 H 0.66327 0.30213 0.44194 0.0
H1960 H 0.83896 0.30132 0.0618 0.0
H1961 H 0.83983 0.28048 0.04611 0.0
H1962 H 0.83414 0.27303 0.18112 0.0
H1963 H 0.8333 0.29359 0.1971 0.0
H1964 H 0.8549 0.26186 0.09103 0.0
H1965 H 0.80754 0.25639 0.10919 0.0
H1966 H 0.81415 0.27014 0.09673 0.0
H1967 H 0.81424 0.26475 0.15128 0.0
C1968 C 0.83799 0.29522 0.08812 0.0
C1969 C 0.83598 0.29911 0.13064 0.0
C1970 C 0.83849 0.28335 0.0791 0.0
C1971 C 0.83691 0.27527 0.11243 0.0
C1972 C 0.83525 0.27915 0.15492 0.0
H1973 H 0.83433 0.20776 0.19831 0.0
H1974 H 0.83532 0.22829 0.18163 0.0
C1975 C 0.83479 0.29093 0.16396 0.0
C1976 C 0.83665 0.26272 0.10369 0.0
H1977 H 0.81906 0.23931 0.11591 0.0
C1978 C 0.84704 0.2569 0.09527 0.0
C1979 C 0.82635 0.25633 0.10921 0.0
C1980 C 0.8149 0.26221 0.11673 0.0
C1981 C 0.84751 0.24475 0.09532 0.0
C1982 C 0.83734 0.2384 0.10381 0.0
C1983 C 0.82685 0.24424 0.1095 0.0
C1984 C 0.83761 0.22586 0.11278 0.0
C1985 C 0.85895 0.23877 0.08917 0.0
C1986 C 0.83867 0.21768 0.07946 0.0
C1987 C 0.83808 0.20584 0.08889 0.0
C1988 C 0.83641 0.20207 0.13175 0.0
C1989 C 0.8356 0.21034 0.16495 0.0
C1990 C 0.83616 0.22209 0.15552 0.0
H1991 H 0.86613 0.24497 0.08387 0.0
H1992 H 0.86095 0.23342 0.11806 0.0
H1993 H 0.85845 0.23288 0.06089 0.0
H1994 H 0.83971 0.22046 0.04622 0.0
H1995 H 0.83872 0.19968 0.06263 0.0
H1996 H 0.66173 0.70017 0.566 0.0
H1997 H 0.66086 0.72102 0.5506 0.0
H1998 H 0.66785 0.72836 0.68484 0.0
H1999 H 0.6687 0.70778 0.70054 0.0
H2000 H 0.64626 0.73961 0.59778 0.0
H2001 H 0.69376 0.74506 0.60952 0.0
H2002 H 0.68704 0.73132 0.59772 0.0
H2003 H 0.68746 0.73664 0.65234 0.0
C2004 C 0.663 0.70624 0.59222 0.0
C2005 C 0.66535 0.70231 0.63444 0.0
C2006 C 0.6625 0.71812 0.58337 0.0
C2007 C 0.66443 0.72617 0.61654 0.0
C2008 C 0.66647 0.72226 0.65875 0.0
H2009 H 0.66765 0.7937 0.70252 0.0
H2010 H 0.66665 0.77317 0.68586 0.0
C2011 C 0.66692 0.71047 0.66763 0.0
C2012 C 0.66462 0.73874 0.60791 0.0
H2013 H 0.68232 0.76213 0.6179 0.0
C2014 C 0.65416 0.74457 0.60097 0.0
C2015 C 0.67496 0.74512 0.61207 0.0
C2016 C 0.68648 0.73923 0.61795 0.0
C2017 C 0.65369 0.75671 0.60119 0.0
C2018 C 0.66393 0.76306 0.60831 0.0
C2019 C 0.67447 0.75721 0.61253 0.0
C2020 C 0.66375 0.7756 0.61734 0.0
C2021 C 0.64219 0.7627 0.59668 0.0
C2022 C 0.66237 0.78378 0.5842 0.0
C2023 C 0.66297 0.79562 0.59361 0.0
C2024 C 0.66497 0.79939 0.63628 0.0
C2025 C 0.66612 0.79112 0.66931 0.0
C2026 C 0.66555 0.77937 0.65989 0.0
H2027 H 0.63497 0.7565 0.59232 0.0
H2028 H 0.64048 0.76803 0.62588 0.0
H2029 H 0.64242 0.76861 0.5684 0.0
H2030 H 0.66105 0.781 0.55109 0.0
H2031 H 0.66207 0.80178 0.56747 0.0
H2032 H 0.54413 0.41659 0.94702 0.0
H2033 H 0.52358 0.4154 0.93106 0.0
H2034 H 0.53109 0.41154 0.79517 0.0
H2035 H 0.5519 0.41274 0.81086 0.0
H2036 H 0.51204 0.4316 0.86836 0.0
H2037 H 0.50714 0.38475 0.83057 0.0
H2038 H 0.51883 0.38992 0.8641 0.0
H2039 H 0.51891 0.39283 0.80715 0.0
C2040 C 0.54148 0.4154 0.91369 0.0
C2041 C 0.54967 0.4148 0.88017 0.0
C2042 C 0.52971 0.41472 0.90468 0.0
C2043 C 0.52584 0.41336 0.86203 0.0
C2044 C 0.53394 0.41251 0.82836 0.0
H2045 H 0.45031 0.41316 0.81171 0.0
H2046 H 0.47112 0.41245 0.79554 0.0
C2047 C 0.5458 0.41321 0.83738 0.0
C2048 C 0.51327 0.41347 0.85355 0.0
H2049 H 0.49009 0.39565 0.83868 0.0
C2050 C 0.50725 0.4238 0.8609 0.0
C2051 C 0.50707 0.40328 0.84379 0.0
C2052 C 0.51324 0.39201 0.83596 0.0
C2053 C 0.49515 0.42408 0.86093 0.0
C2054 C 0.48894 0.41375 0.85389 0.0
C2055 C 0.49492 0.40355 0.84399 0.0
C2056 C 0.4764 0.4132 0.86262 0.0
C2057 C 0.48906 0.4353 0.87054 0.0
C2058 C 0.47256 0.41362 0.90558 0.0
C2059 C 0.4608 0.41401 0.91488 0.0
C2060 C 0.45258 0.41399 0.88135 0.0
C2061 C 0.45643 0.4132 0.83822 0.0
C2062 C 0.46828 0.41279 0.82892 0.0
H2063 H 0.49483 0.44286 0.86573 0.0
H2064 H 0.48132 0.43631 0.84963 0.0
H2065 H 0.48613 0.43528 0.90475 0.0
H2066 H 0.47872 0.41389 0.93199 0.0
H2067 H 0.45816 0.41456 0.94846 0.0
H2068 H 0.94961 0.58945 0.31414 0.0
H2069 H 0.97044 0.59049 0.29837 0.0
H2070 H 0.97801 0.58241 0.43157 0.0
H2071 H 0.95745 0.5814 0.44764 0.0
H2072 H 0.98895 0.60483 0.34676 0.0
H2073 H 0.99485 0.5573 0.35318 0.0
H2074 H 0.98104 0.56399 0.34242 0.0
H2075 H 0.98645 0.56318 0.39687 0.0
C2076 C 0.95573 0.58796 0.34005 0.0
C2077 C 0.95188 0.58528 0.38208 0.0
C2078 C 0.96759 0.58857 0.33099 0.0
C2079 C 0.9757 0.58639 0.36375 0.0
C2080 C 0.97186 0.58399 0.40578 0.0
H2081 H 0.04316 0.58378 0.44959 0.0
H2082 H 0.02263 0.58478 0.43283 0.0
C2083 C 0.96009 0.58344 0.41488 0.0
C2084 C 0.98826 0.58638 0.35488 0.0
H2085 H 0.01183 0.56885 0.36278 0.0
C2086 C 0.99398 0.59695 0.34903 0.0
C2087 C 0.99474 0.57607 0.35786 0.0
C2088 C 0.98897 0.56446 0.36255 0.0
C2089 C 0.00611 0.59754 0.34918 0.0
C2090 C 0.01256 0.5873 0.35516 0.0
C2091 C 0.00683 0.57668 0.35826 0.0
C2092 C 0.02509 0.58755 0.36426 0.0
C2093 C 0.012 0.60911 0.34585 0.0
C2094 C 0.03327 0.58888 0.33112 0.0
C2095 C 0.04511 0.58828 0.34058 0.0
C2096 C 0.04888 0.58634 0.3833 0.0
C2097 C 0.04059 0.58527 0.41634 0.0
C2098 C 0.02884 0.58583 0.40687 0.0
H2099 H 0.00574 0.61628 0.34132 0.0
H2100 H 0.01709 0.61076 0.37566 0.0
H2101 H 0.01811 0.60906 0.31816 0.0
H2102 H 0.0305 0.59014 0.29797 0.0
H2103 H 0.05128 0.58913 0.31443 0.0
H2104 H 0.95838 0.41985 0.55245 0.0
H2105 H 0.97891 0.41876 0.56892 0.0
H2106 H 0.97112 0.4118 0.70284 0.0
H2107 H 0.95033 0.41289 0.68663 0.0
H2108 H 0.99015 0.43361 0.63701 0.0
H2109 H 0.99539 0.38611 0.65987 0.0
H2110 H 0.9837 0.39192 0.6278 0.0
H2111 H 0.98352 0.39355 0.68546 0.0
C2112 C 0.96097 0.41801 0.58543 0.0
C2113 C 0.9527 0.41648 0.61827 0.0
C2114 C 0.97272 0.41739 0.59475 0.0
C2115 C 0.9765 0.41517 0.63699 0.0
C2116 C 0.96833 0.41344 0.66994 0.0
H2117 H 0.05204 0.41296 0.68651 0.0
H2118 H 0.03124 0.41217 0.70274 0.0
C2119 C 0.95649 0.41409 0.66064 0.0
C2120 C 0.98905 0.4152 0.64591 0.0
H2121 H 0.01235 0.39728 0.65525 0.0
C2122 C 0.995 0.4257 0.64199 0.0
C2123 C 0.99532 0.40488 0.6525 0.0
C2124 C 0.98924 0.39342 0.65663 0.0
C2125 C 0.00709 0.42607 0.64217 0.0
C2126 C 0.01338 0.41566 0.64582 0.0
C2127 C 0.00746 0.40523 0.65248 0.0
C2128 C 0.02591 0.41537 0.63673 0.0
C2129 C 0.01309 0.43753 0.63641 0.0
C2130 C 0.02971 0.41719 0.59424 0.0
C2131 C 0.04147 0.41761 0.58489 0.0
C2132 C 0.04972 0.41622 0.61789 0.0
C2133 C 0.0459 0.41408 0.66042 0.0
C2134 C 0.03405 0.41362 0.66975 0.0
H2135 H 0.00732 0.44488 0.64468 0.0
H2136 H 0.02097 0.43801 0.65685 0.0
H2137 H 0.01576 0.43848 0.60209 0.0
H2138 H 0.02354 0.41846 0.5683 0.0
H2139 H 0.04408 0.41922 0.55176 0.0
H2140 H 0.44936 0.58818 0.19166 0.0
H2141 H 0.46998 0.59092 0.20791 0.0
H2142 H 0.47719 0.59397 0.07144 0.0
H2143 H 0.45681 0.59134 0.05506 0.0
H2144 H 0.48818 0.57676 0.17871 0.0
H2145 H 0.49443 0.62159 0.12232 0.0
H2146 H 0.48033 0.61571 0.13424 0.0
H2147 H 0.48708 0.61298 0.08271 0.0
C2148 C 0.45534 0.58961 0.16524 0.0
C2149 C 0.45145 0.58956 0.12208 0.0
C2150 C 0.4671 0.59115 0.17456 0.0
C2151 C 0.47508 0.59285 0.14092 0.0
C2152 C 0.47116 0.59296 0.09798 0.0
H2153 H 0.54241 0.58733 0.05585 0.0
H2154 H 0.52206 0.59029 0.07237 0.0
C2155 C 0.45949 0.59136 0.08866 0.0
C2156 C 0.48765 0.59363 0.14955 0.0
H2157 H 0.51145 0.60938 0.12193 0.0
C2158 C 0.49328 0.58401 0.16747 0.0
C2159 C 0.49428 0.60313 0.13503 0.0
C2160 C 0.4887 0.61398 0.11792 0.0
C2161 C 0.5054 0.58326 0.16791 0.0
C2162 C 0.51198 0.59241 0.15033 0.0
C2163 C 0.50636 0.60235 0.1352 0.0
C2164 C 0.5245 0.59115 0.14169 0.0
C2165 C 0.51106 0.57237 0.18426 0.0
C2166 C 0.53266 0.59079 0.17529 0.0
C2167 C 0.54439 0.58912 0.16592 0.0
C2168 C 0.54809 0.58774 0.12283 0.0
C2169 C 0.53987 0.58831 0.0894 0.0
C2170 C 0.52822 0.59004 0.09874 0.0
H2171 H 0.50466 0.56568 0.1936 0.0
H2172 H 0.51685 0.56875 0.15902 0.0
H2173 H 0.51644 0.57443 0.21298 0.0
H2174 H 0.52994 0.59173 0.20865 0.0
H2175 H 0.55052 0.58873 0.19235 0.0
H2176 H 0.14602 0.13112 0.2019 0.0
H2177 H 0.13497 0.12312 0.26214 0.0
H2178 H 0.14158 0.15388 0.33698 0.0
H2179 H 0.15231 0.16212 0.27627 0.0
H2180 H 0.14303 0.11782 0.33944 0.0
H2181 H 0.10768 0.14964 0.35894 0.0
H2182 H 0.11692 0.14938 0.3119 0.0
H2183 H 0.12172 0.15616 0.36117 0.0
C2184 C 0.14498 0.13626 0.23095 0.0
C2185 C 0.15003 0.14726 0.23433 0.0
C2186 C 0.13866 0.13167 0.26535 0.0
C2187 C 0.13733 0.13794 0.30393 0.0
C2188 C 0.14223 0.149 0.30718 0.0
H2189 H 0.1229 0.10381 0.54895 0.0
H2190 H 0.13167 0.11493 0.49025 0.0
C2191 C 0.14843 0.15367 0.27252 0.0
C2192 C 0.13161 0.1325 0.3417 0.0
H2193 H 0.11017 0.13608 0.41643 0.0
C2194 C 0.1358 0.12179 0.35611 0.0
C2195 C 0.12211 0.13763 0.36321 0.0
C2196 C 0.11677 0.14878 0.34777 0.0
C2197 C 0.13082 0.1161 0.39149 0.0
C2198 C 0.12162 0.12143 0.41406 0.0
C2199 C 0.11734 0.13209 0.39947 0.0
C2200 C 0.11606 0.11584 0.45182 0.0
C2201 C 0.13528 0.10427 0.40353 0.0
C2202 C 0.10424 0.11323 0.45079 0.0
C2203 C 0.09915 0.10706 0.48465 0.0
C2204 C 0.10583 0.10334 0.52003 0.0
C2205 C 0.11756 0.10642 0.52187 0.0
C2206 C 0.1226 0.11271 0.48825 0.0
H2207 H 0.13994 0.10013 0.37617 0.0
H2208 H 0.14144 0.1051 0.43088 0.0
H2209 H 0.12814 0.09848 0.41371 0.0
H2210 H 0.09902 0.11562 0.4231 0.0
H2211 H 0.09008 0.10485 0.48228 0.0
H2212 H 0.08927 0.89585 0.51949 0.0
H2213 H 0.09817 0.88497 0.57851 0.0
H2214 H 0.13074 0.88531 0.51077 0.0
H2215 H 0.12201 0.8965 0.45219 0.0
H2216 H 0.1093 0.86432 0.58493 0.0
H2217 H 0.13908 0.9003 0.62475 0.0
H2218 H 0.12722 0.90194 0.58746 0.0
H2219 H 0.14049 0.89532 0.57002 0.0
C2220 C 0.09831 0.89353 0.51695 0.0
C2221 C 0.10498 0.89718 0.48145 0.0
C2222 C 0.10337 0.8873 0.55071 0.0
C2223 C 0.11517 0.88457 0.54946 0.0
C2224 C 0.12169 0.88761 0.51291 0.0
H2225 H 0.15174 0.83863 0.72538 0.0
H2226 H 0.14081 0.84666 0.66474 0.0
C2227 C 0.11667 0.89395 0.47937 0.0
C2228 C 0.12073 0.87898 0.58721 0.0
H2229 H 0.14212 0.88267 0.66181 0.0
C2230 C 0.11646 0.86832 0.60187 0.0
C2231 C 0.12992 0.88434 0.60972 0.0
C2232 C 0.13438 0.89616 0.59752 0.0
C2233 C 0.12125 0.86281 0.63817 0.0
C2234 C 0.13072 0.86798 0.65968 0.0
C2235 C 0.1349 0.87868 0.64516 0.0
C2236 C 0.13644 0.8626 0.69756 0.0
C2237 C 0.11594 0.85165 0.65366 0.0
C2238 C 0.13773 0.86892 0.73602 0.0
C2239 C 0.14415 0.86446 0.77037 0.0
C2240 C 0.14936 0.85353 0.76704 0.0
C2241 C 0.14775 0.84703 0.72906 0.0
C2242 C 0.14144 0.85158 0.69444 0.0
H2243 H 0.10688 0.85073 0.64237 0.0
H2244 H 0.12095 0.84429 0.64042 0.0
H2245 H 0.11607 0.85107 0.68953 0.0
H2246 H 0.13396 0.87744 0.73913 0.0
H2247 H 0.14519 0.86965 0.79927 0.0
H2248 H 0.41203 0.89572 0.9816 0.0
H2249 H 0.40326 0.88465 0.92281 0.0
H2250 H 0.37047 0.88549 0.98897 0.0
H2251 H 0.37908 0.89687 0.04731 0.0
H2252 H 0.39198 0.86405 0.91702 0.0
H2253 H 0.36264 0.90012 0.87378 0.0
H2254 H 0.37439 0.90181 0.9115 0.0
H2255 H 0.36102 0.89537 0.92871 0.0
C2256 C 0.40297 0.89347 0.98386 0.0
C2257 C 0.3962 0.89732 0.01882 0.0
C2258 C 0.39798 0.88714 0.95023 0.0
C2259 C 0.38616 0.88448 0.95108 0.0
C2260 C 0.37954 0.88772 0.98714 0.0
H2261 H 0.34973 0.83819 0.77604 0.0
H2262 H 0.36053 0.84635 0.83676 0.0
C2263 C 0.38449 0.89417 0.02054 0.0
C2264 C 0.38069 0.87879 0.91337 0.0
H2265 H 0.35958 0.88236 0.83755 0.0
C2266 C 0.38491 0.86804 0.89952 0.0
C2267 C 0.37162 0.88414 0.89012 0.0
C2268 C 0.36722 0.89604 0.90145 0.0
C2269 C 0.38019 0.86242 0.86331 0.0
C2270 C 0.37084 0.86758 0.84107 0.0
C2271 C 0.36671 0.87838 0.85477 0.0
C2272 C 0.3652 0.8621 0.80322 0.0
C2273 C 0.38545 0.85115 0.84872 0.0
C2274 C 0.36413 0.86826 0.76431 0.0
C2275 C 0.35779 0.86372 0.7299 0.0
C2276 C 0.35244 0.85287 0.7336 0.0
C2277 C 0.35384 0.84653 0.77206 0.0
C2278 C 0.36007 0.85115 0.80673 0.0
H2279 H 0.39445 0.85018 0.86056 0.0
H2280 H 0.38031 0.84389 0.86205 0.0
H2281 H 0.38545 0.85044 0.81288 0.0
H2282 H 0.36801 0.87673 0.7609 0.0
H2283 H 0.35692 0.8688 0.70063 0.0
H2284 H 0.37973 0.10634 0.95111 0.0
H2285 H 0.37102 0.11819 0.00784 0.0
H2286 H 0.40279 0.11682 0.08062 0.0
H2287 H 0.41168 0.10532 0.02337 0.0
H2288 H 0.36711 0.11166 0.08797 0.0
H2289 H 0.39503 0.15041 0.09218 0.0
H2290 H 0.3955 0.14013 0.04832 0.0
H2291 H 0.40318 0.13734 0.0979 0.0
C2292 C 0.38492 0.10872 0.97887 0.0
C2293 C 0.39639 0.10489 0.98277 0.0
C2294 C 0.37994 0.1155 0.01125 0.0
C2295 C 0.38629 0.11852 0.04827 0.0
C2296 C 0.39781 0.11487 0.05187 0.0
H2297 H 0.35548 0.13232 0.2975 0.0
H2298 H 0.36614 0.12447 0.23596 0.0
C2299 C 0.40285 0.10822 0.01922 0.0
C2300 C 0.38053 0.12453 0.08475 0.0
H2301 H 0.3828 0.14743 0.15392 0.0
C2302 C 0.3705 0.11954 0.10209 0.0
C2303 C 0.38486 0.13488 0.10291 0.0
C2304 C 0.39517 0.14107 0.08407 0.0
C2305 C 0.36481 0.12447 0.13757 0.0
C2306 C 0.36948 0.13447 0.15718 0.0
C2307 C 0.37935 0.13965 0.13926 0.0
C2308 C 0.36413 0.1397 0.19606 0.0
C2309 C 0.35374 0.11899 0.15327 0.0
C2310 C 0.36003 0.1511 0.1949 0.0
C2311 C 0.35408 0.15569 0.23033 0.0
C2312 C 0.35211 0.14892 0.26742 0.0
C2313 C 0.35671 0.1377 0.26918 0.0
C2314 C 0.36276 0.13317 0.23397 0.0
H2315 H 0.34963 0.11365 0.12763 0.0
H2316 H 0.35568 0.11323 0.18106 0.0
H2317 H 0.34745 0.12562 0.16409 0.0
H2318 H 0.36109 0.15631 0.16604 0.0
H2319 H 0.35067 0.16437 0.228 0.0
H2320 H 0.91261 0.90057 0.52727 0.0
H2321 H 0.90415 0.88943 0.58653 0.0
H2322 H 0.8732 0.88431 0.51122 0.0
H2323 H 0.88144 0.89573 0.45242 0.0
H2324 H 0.86832 0.89217 0.58975 0.0
H2325 H 0.89868 0.85541 0.60465 0.0
H2326 H 0.90574 0.86918 0.6078 0.0
H2327 H 0.89865 0.86495 0.55843 0.0
C2328 C 0.90407 0.89692 0.52307 0.0
C2329 C 0.89767 0.89907 0.48523 0.0
C2330 C 0.89928 0.89048 0.55689 0.0
C2331 C 0.8881 0.88591 0.55311 0.0
C2332 C 0.88185 0.88775 0.51479 0.0
H2333 H 0.85284 0.83953 0.73001 0.0
H2334 H 0.86384 0.84795 0.67022 0.0
C2335 C 0.88657 0.89428 0.48122 0.0
C2336 C 0.88248 0.88011 0.59032 0.0
H2337 H 0.88532 0.85803 0.66283 0.0
C2338 C 0.87201 0.88466 0.60554 0.0
C2339 C 0.88725 0.87025 0.61065 0.0
C2340 C 0.89814 0.86458 0.5943 0.0
C2341 C 0.86622 0.87971 0.64074 0.0
C2342 C 0.87121 0.87015 0.6622 0.0
C2343 C 0.8816 0.86547 0.64668 0.0
C2344 C 0.86558 0.86476 0.70017 0.0
C2345 C 0.85468 0.88465 0.65401 0.0
C2346 C 0.86326 0.8713 0.73738 0.0
C2347 C 0.85688 0.86657 0.77135 0.0
C2348 C 0.85287 0.85512 0.76902 0.0
C2349 C 0.85578 0.84838 0.73275 0.0
C2350 C 0.86206 0.85317 0.69857 0.0
H2351 H 0.85065 0.8897 0.62739 0.0
H2352 H 0.8486 0.87772 0.66389 0.0
H2353 H 0.85592 0.89056 0.68191 0.0
H2354 H 0.86616 0.88017 0.73971 0.0
H2355 H 0.85492 0.87194 0.79909 0.0
H2356 H 0.85432 0.16209 0.27153 0.0
H2357 H 0.86606 0.15357 0.32896 0.0
H2358 H 0.86866 0.12193 0.25586 0.0
H2359 H 0.85663 0.13025 0.19894 0.0
H2360 H 0.86191 0.11785 0.33598 0.0
H2361 H 0.89995 0.14677 0.34129 0.0
H2362 H 0.8866 0.1545 0.34645 0.0
H2363 H 0.88977 0.1469 0.29702 0.0
C2364 C 0.85755 0.15338 0.26736 0.0
C2365 C 0.8545 0.14683 0.23078 0.0
C2366 C 0.86433 0.14855 0.3001 0.0
C2367 C 0.86838 0.13717 0.29647 0.0
C2368 C 0.86566 0.13075 0.25929 0.0
H2369 H 0.91467 0.10178 0.47522 0.0
H2370 H 0.90655 0.11234 0.41367 0.0
C2371 C 0.85877 0.13551 0.22681 0.0
C2372 C 0.87447 0.13155 0.33306 0.0
H2373 H 0.8973 0.13424 0.40234 0.0
C2374 C 0.86971 0.12139 0.35021 0.0
C2375 C 0.8847 0.13611 0.35137 0.0
C2376 C 0.89062 0.1466 0.3328 0.0
C2377 C 0.87475 0.11577 0.3856 0.0
C2378 C 0.88465 0.12064 0.40527 0.0
C2379 C 0.8896 0.13064 0.38759 0.0
C2380 C 0.88998 0.11533 0.44404 0.0
C2381 C 0.86949 0.10459 0.40119 0.0
C2382 C 0.88349 0.11389 0.482 0.0
C2383 C 0.88805 0.10778 0.51697 0.0
C2384 C 0.89925 0.10315 0.51488 0.0
C2385 C 0.90599 0.10521 0.47779 0.0
C2386 C 0.90137 0.11124 0.4426 0.0
H2387 H 0.86418 0.10042 0.37563 0.0
H2388 H 0.87627 0.0984 0.41165 0.0
H2389 H 0.86378 0.10637 0.42923 0.0
H2390 H 0.87478 0.11725 0.48416 0.0
H2391 H 0.88269 0.10649 0.5453 0.0
H2392 H 0.64649 0.13113 0.29912 0.0
H2393 H 0.63527 0.12277 0.23994 0.0
H2394 H 0.63727 0.15497 0.17019 0.0
H2395 H 0.64826 0.16352 0.22975 0.0
H2396 H 0.61581 0.14463 0.16323 0.0
H2397 H 0.65088 0.11342 0.1274 0.0
H2398 H 0.64567 0.11254 0.182 0.0
H2399 H 0.65281 0.12546 0.16375 0.0
C2400 C 0.64446 0.13647 0.27137 0.0
C2401 C 0.64839 0.14794 0.26889 0.0
C2402 C 0.63809 0.13167 0.23752 0.0
C2403 C 0.63568 0.13817 0.20029 0.0
C2404 C 0.63911 0.14978 0.19855 0.0
H2405 H 0.62024 0.10716 0.95248 0.0
H2406 H 0.62825 0.1187 0.01135 0.0
C2407 C 0.6454 0.15464 0.23261 0.0
C2408 C 0.63009 0.13271 0.1624 0.0
H2409 H 0.63325 0.11076 0.08979 0.0
C2410 C 0.61962 0.13724 0.14701 0.0
C2411 C 0.6352 0.12322 0.14086 0.0
C2412 C 0.64681 0.11844 0.15402 0.0
C2413 C 0.61401 0.13239 0.11101 0.0
C2414 C 0.61892 0.12262 0.09055 0.0
C2415 C 0.62946 0.11821 0.10567 0.0
C2416 C 0.61339 0.11677 0.05326 0.0
C2417 C 0.60303 0.1379 0.0948 0.0
C2418 C 0.6023 0.11198 0.05699 0.0
C2419 C 0.59764 0.10546 0.02313 0.0
C2420 C 0.60408 0.10345 0.98529 0.0
C2421 C 0.61508 0.10849 0.98129 0.0
C2422 C 0.61966 0.1151 0.0149 0.0
H2423 H 0.60232 0.14704 0.10537 0.0
H2424 H 0.60252 0.13758 0.05893 0.0
H2425 H 0.59551 0.13314 0.10818 0.0
H2426 H 0.59741 0.11292 0.08666 0.0
H2427 H 0.58918 0.10162 0.02731 0.0
H2428 H 0.64682 0.83948 0.77595 0.0
H2429 H 0.63516 0.84811 0.83341 0.0
H2430 H 0.63205 0.87944 0.75873 0.0
H2431 H 0.64398 0.87101 0.70175 0.0
H2432 H 0.63921 0.8838 0.83853 0.0
H2433 H 0.60121 0.85485 0.84697 0.0
H2434 H 0.61463 0.8472 0.85163 0.0
H2435 H 0.6112 0.85464 0.80211 0.0
C2436 C 0.64349 0.84814 0.77144 0.0
C2437 C 0.64637 0.85458 0.73439 0.0
C2438 C 0.63675 0.85303 0.80421 0.0
C2439 C 0.63261 0.86437 0.80015 0.0
C2440 C 0.63514 0.87066 0.76249 0.0
H2441 H 0.58692 0.90076 0.97818 0.0
H2442 H 0.59485 0.8899 0.91698 0.0
C2443 C 0.64197 0.86583 0.72998 0.0
C2444 C 0.62663 0.8701 0.83676 0.0
H2445 H 0.60396 0.8677 0.90695 0.0
C2446 C 0.63145 0.88032 0.85322 0.0
C2447 C 0.61645 0.86561 0.85569 0.0
C2448 C 0.6105 0.85504 0.83792 0.0
C2449 C 0.6265 0.88607 0.8885 0.0
C2450 C 0.61663 0.8813 0.90871 0.0
C2451 C 0.61163 0.87123 0.89175 0.0
C2452 C 0.6114 0.88677 0.94731 0.0
C2453 C 0.63182 0.89729 0.90342 0.0
C2454 C 0.61794 0.88824 0.98512 0.0
C2455 C 0.61349 0.89451 0.0199 0.0
C2456 C 0.60234 0.89929 0.01775 0.0
C2457 C 0.59555 0.89722 0.98079 0.0
C2458 C 0.60006 0.89102 0.94581 0.0
H2459 H 0.63715 0.90132 0.87761 0.0
H2460 H 0.62508 0.90355 0.91356 0.0
H2461 H 0.63753 0.89559 0.93155 0.0
H2462 H 0.62661 0.88479 0.9873 0.0
H2463 H 0.61889 0.89581 0.04811 0.0
H2464 H 0.58736 0.60239 0.97859 0.0
H2465 H 0.59573 0.61306 0.91786 0.0
H2466 H 0.628 0.61579 0.98678 0.0
H2467 H 0.61984 0.60487 0.04709 0.0
H2468 H 0.60556 0.63444 0.90875 0.0
H2469 H 0.63766 0.60004 0.87542 0.0
H2470 H 0.62575 0.59802 0.91227 0.0
H2471 H 0.63854 0.60555 0.92959 0.0
C2472 C 0.59622 0.60534 0.98098 0.0
C2473 C 0.60299 0.60265 0.0174 0.0
C2474 C 0.60098 0.61144 0.94625 0.0
C2475 C 0.61256 0.61498 0.94745 0.0
C2476 C 0.61914 0.61286 0.98474 0.0
H2477 H 0.648 0.66209 0.77466 0.0
H2478 H 0.63668 0.65353 0.83318 0.0
C2479 C 0.61444 0.60667 0.01926 0.0
C2480 C 0.61788 0.62051 0.90911 0.0
H2481 H 0.64007 0.61768 0.83731 0.0
C2482 C 0.61308 0.63077 0.89294 0.0
C2483 C 0.62754 0.61556 0.88804 0.0
C2484 C 0.63261 0.60413 0.9019 0.0
C2485 C 0.61784 0.63636 0.85676 0.0
C2486 C 0.62782 0.63168 0.83694 0.0
C2487 C 0.63247 0.62131 0.8527 0.0
C2488 C 0.63369 0.63734 0.79996 0.0
C2489 C 0.61203 0.6471 0.83974 0.0
C2490 C 0.63589 0.63105 0.76198 0.0
C2491 C 0.64253 0.63584 0.72885 0.0
C2492 C 0.64707 0.64704 0.73294 0.0
C2493 C 0.64455 0.65348 0.77037 0.0
C2494 C 0.63801 0.64862 0.80377 0.0
H2495 H 0.60279 0.64745 0.8494 0.0
H2496 H 0.61637 0.65482 0.85346 0.0
H2497 H 0.61257 0.64758 0.8039 0.0
H2498 H 0.63266 0.62232 0.75839 0.0
H2499 H 0.64428 0.63068 0.70034 0.0
H2500 H 0.65165 0.3727 0.28113 0.0
H2501 H 0.63988 0.37986 0.22149 0.0
H2502 H 0.6313 0.34491 0.18553 0.0
H2503 H 0.64329 0.33761 0.24475 0.0
H2504 H 0.63834 0.35754 0.11675 0.0
H2505 H 0.60524 0.38194 0.20768 0.0
H2506 H 0.61958 0.38616 0.22286 0.0
H2507 H 0.61474 0.37165 0.23339 0.0
C2508 C 0.64716 0.36652 0.26092 0.0
C2509 C 0.64841 0.35458 0.26776 0.0
C2510 C 0.64036 0.37064 0.22698 0.0
C2511 C 0.63455 0.36293 0.19953 0.0
C2512 C 0.63565 0.35101 0.20656 0.0
H2513 H 0.58807 0.39197 0.00388 0.0
H2514 H 0.59556 0.37989 0.06248 0.0
C2515 C 0.6425 0.34686 0.24043 0.0
C2516 C 0.62804 0.36735 0.16174 0.0
H2517 H 0.60752 0.38699 0.13253 0.0
C2518 C 0.63148 0.36385 0.12019 0.0
C2519 C 0.61896 0.37542 0.16626 0.0
C2520 C 0.61432 0.37891 0.20999 0.0
C2521 C 0.62647 0.36866 0.08298 0.0
C2522 C 0.61799 0.37737 0.08753 0.0
C2523 C 0.61413 0.38042 0.12906 0.0
C2524 C 0.6135 0.3839 0.04992 0.0
C2525 C 0.63039 0.36441 0.03919 0.0
C2526 C 0.6211 0.39016 0.02345 0.0
C2527 C 0.61687 0.39701 0.98986 0.0
C2528 C 0.60492 0.39787 0.98241 0.0
C2529 C 0.59732 0.3915 0.0087 0.0
C2530 C 0.60158 0.38459 0.04221 0.0
H2531 H 0.63375 0.35544 0.04105 0.0
H2532 H 0.62324 0.36467 0.01523 0.0
H2533 H 0.63749 0.37002 0.02732 0.0
H2534 H 0.63031 0.38999 0.0295 0.0
H2535 H 0.62297 0.40186 0.97046 0.0
H2536 H 0.88194 0.39425 0.5502 0.0
H2537 H 0.8738 0.38266 0.49166 0.0
H2538 H 0.90464 0.38808 0.41597 0.0
H2539 H 0.913 0.39938 0.475 0.0
H2540 H 0.86872 0.39051 0.41374 0.0
H2541 H 0.89945 0.35414 0.39662 0.0
H2542 H 0.89946 0.3636 0.44307 0.0
H2543 H 0.9064 0.36796 0.39356 0.0
C2544 C 0.88708 0.39281 0.5214 0.0
C2545 C 0.8981 0.39775 0.51717 0.0
C2546 C 0.88242 0.38618 0.48798 0.0
C2547 C 0.88865 0.3844 0.44958 0.0
C2548 C 0.89978 0.38909 0.44568 0.0
H2549 H 0.8554 0.37119 0.2034 0.0
H2550 H 0.86662 0.37922 0.2632 0.0
C2551 C 0.90452 0.39561 0.47936 0.0
C2552 C 0.88303 0.37863 0.4123 0.0
H2553 H 0.88608 0.3569 0.33841 0.0
C2554 C 0.87249 0.38311 0.39749 0.0
C2555 C 0.8879 0.36891 0.39134 0.0
C2556 C 0.89887 0.36329 0.40721 0.0
C2557 C 0.86673 0.37825 0.36206 0.0
C2558 C 0.87183 0.36885 0.33992 0.0
C2559 C 0.88228 0.36422 0.35507 0.0
C2560 C 0.86625 0.36359 0.30159 0.0
C2561 C 0.85512 0.3831 0.34925 0.0
C2562 C 0.86286 0.35196 0.30238 0.0
C2563 C 0.85658 0.34729 0.26795 0.0
C2564 C 0.85355 0.35419 0.23225 0.0
C2565 C 0.85745 0.36568 0.23069 0.0
C2566 C 0.86382 0.3703 0.2649 0.0
H2567 H 0.85104 0.38796 0.37627 0.0
H2568 H 0.85627 0.38917 0.32179 0.0
H2569 H 0.84913 0.37615 0.3389 0.0
H2570 H 0.86472 0.34662 0.33031 0.0
H2571 H 0.85374 0.33839 0.27008 0.0
H2572 H 0.85226 0.66348 0.72698 0.0
H2573 H 0.86309 0.65514 0.6666 0.0
H2574 H 0.86635 0.6231 0.73676 0.0
H2575 H 0.85528 0.63125 0.79673 0.0
H2576 H 0.88466 0.64541 0.6575 0.0
H2577 H 0.85033 0.61308 0.62613 0.0
H2578 H 0.84831 0.6251 0.66247 0.0
H2579 H 0.85593 0.61242 0.68021 0.0
C2580 C 0.85538 0.6547 0.72974 0.0
C2581 C 0.85277 0.64797 0.76637 0.0
C2582 C 0.86157 0.64995 0.69522 0.0
C2583 C 0.86528 0.63843 0.69685 0.0
C2584 C 0.86329 0.63192 0.73441 0.0
H2585 H 0.91204 0.60277 0.5231 0.0
H2586 H 0.90364 0.61414 0.58182 0.0
C2587 C 0.85701 0.63661 0.76873 0.0
C2588 C 0.87077 0.63304 0.65856 0.0
H2589 H 0.86785 0.61073 0.58737 0.0
C2590 C 0.88098 0.63785 0.64198 0.0
C2591 C 0.86581 0.62333 0.63789 0.0
C2592 C 0.85443 0.61824 0.65227 0.0
C2593 C 0.88651 0.63304 0.60573 0.0
C2594 C 0.88181 0.62303 0.58627 0.0
C2595 C 0.87149 0.61836 0.60248 0.0
C2596 C 0.88737 0.61713 0.54915 0.0
C2597 C 0.8972 0.63885 0.58826 0.0
C2598 C 0.88099 0.61493 0.51142 0.0
C2599 C 0.88568 0.60825 0.47818 0.0
C2600 C 0.89688 0.6037 0.48192 0.0
C2601 C 0.90342 0.60623 0.5191 0.0
C2602 C 0.89865 0.6128 0.5526 0.0
H2603 H 0.89758 0.64809 0.59786 0.0
H2604 H 0.90495 0.6345 0.60168 0.0
H2605 H 0.89757 0.63829 0.55241 0.0
H2606 H 0.87225 0.61816 0.50811 0.0
H2607 H 0.88044 0.6065 0.44988 0.0
H2608 H 0.35669 0.33746 0.24286 0.0
H2609 H 0.36855 0.34441 0.18266 0.0
H2610 H 0.36211 0.37959 0.22172 0.0
H2611 H 0.35047 0.37277 0.28223 0.0
H2612 H 0.36168 0.35787 0.11532 0.0
H2613 H 0.39676 0.37976 0.20483 0.0
H2614 H 0.38689 0.36983 0.23059 0.0
H2615 H 0.38279 0.38465 0.22185 0.0
C2616 C 0.35792 0.34668 0.23898 0.0
C2617 C 0.35264 0.35456 0.26746 0.0
C2618 C 0.36469 0.35062 0.20454 0.0
C2619 C 0.36636 0.3625 0.19812 0.0
C2620 C 0.36118 0.37037 0.22668 0.0
H2621 H 0.37888 0.40219 0.9712 0.0
H2622 H 0.37112 0.39035 0.0296 0.0
C2623 C 0.35446 0.36645 0.26114 0.0
C2624 C 0.37285 0.36677 0.16003 0.0
H2625 H 0.39428 0.38536 0.13037 0.0
C2626 C 0.36892 0.36375 0.11856 0.0
C2627 C 0.38242 0.37427 0.16428 0.0
C2628 C 0.38754 0.37722 0.20781 0.0
C2629 C 0.37394 0.36849 0.08125 0.0
C2630 C 0.38296 0.37665 0.08566 0.0
C2631 C 0.38727 0.37921 0.12703 0.0
C2632 C 0.38763 0.38311 0.04815 0.0
C2633 C 0.36948 0.36477 0.03753 0.0
C2634 C 0.39952 0.38312 0.03954 0.0
C2635 C 0.40403 0.39 0.00642 0.0
C2636 C 0.39671 0.39703 0.9814 0.0
C2637 C 0.38476 0.39683 0.98962 0.0
C2638 C 0.38029 0.38999 0.02284 0.0
H2639 H 0.36557 0.35602 0.039 0.0
H2640 H 0.36268 0.37088 0.02681 0.0
H2641 H 0.37647 0.36472 0.01293 0.0
H2642 H 0.40535 0.37792 0.05888 0.0
H2643 H 0.41327 0.38995 0.00098 0.0
H2644 H 0.37744 0.59642 0.03043 0.0
H2645 H 0.36909 0.60746 0.9708 0.0
H2646 H 0.40249 0.62209 0.94248 0.0
H2647 H 0.41101 0.61088 0.0015 0.0
H2648 H 0.36806 0.63076 0.95355 0.0
H2649 H 0.39327 0.60769 0.82728 0.0
H2650 H 0.39253 0.60274 0.88258 0.0
H2651 H 0.40187 0.61454 0.86825 0.0
C2652 C 0.38302 0.60203 0.01172 0.0
C2653 C 0.39492 0.60267 0.02044 0.0
C2654 C 0.37822 0.60834 0.97766 0.0
C2655 C 0.38521 0.61541 0.95175 0.0
C2656 C 0.397 0.61646 0.96148 0.0
H2657 H 0.3556 0.66277 0.75977 0.0
H2658 H 0.36649 0.65497 0.82104 0.0
C2659 C 0.40183 0.6101 0.99538 0.0
C2660 C 0.38016 0.62142 0.91393 0.0
H2661 H 0.38127 0.62291 0.80364 0.0
C2662 C 0.37097 0.6291 0.92076 0.0
C2663 C 0.38391 0.61911 0.87119 0.0
C2664 C 0.39336 0.6105 0.86167 0.0
C2665 C 0.36533 0.63446 0.88594 0.0
C2666 C 0.36916 0.63225 0.84324 0.0
C2667 C 0.37843 0.62466 0.83646 0.0
C2668 C 0.36317 0.63709 0.80499 0.0
C2669 C 0.35505 0.64211 0.89508 0.0
C2670 C 0.35808 0.62961 0.77481 0.0
C2671 C 0.35196 0.63402 0.73958 0.0
C2672 C 0.35082 0.64601 0.73381 0.0
C2673 C 0.35624 0.65349 0.76343 0.0
C2674 C 0.3624 0.64906 0.79862 0.0
H2675 H 0.35162 0.64076 0.92828 0.0
H2676 H 0.35769 0.65128 0.89213 0.0
H2677 H 0.34801 0.64048 0.87148 0.0
H2678 H 0.35862 0.62034 0.77905 0.0
H2679 H 0.34794 0.628 0.71738 0.0
H2680 H 0.14611 0.63136 0.79608 0.0
H2681 H 0.13514 0.62352 0.73532 0.0
H2682 H 0.13884 0.65577 0.66687 0.0
H2683 H 0.14959 0.66381 0.72804 0.0
H2684 H 0.11711 0.64624 0.65721 0.0
H2685 H 0.15118 0.61378 0.62419 0.0
H2686 H 0.14562 0.61297 0.67831 0.0
H2687 H 0.1533 0.62567 0.66104 0.0
C2688 C 0.14452 0.63683 0.76827 0.0
C2689 C 0.14885 0.64817 0.76666 0.0
C2690 C 0.13829 0.63231 0.73351 0.0
C2691 C 0.13643 0.63897 0.69622 0.0
C2692 C 0.14026 0.65046 0.69526 0.0
H2693 H 0.1204 0.60719 0.44941 0.0
H2694 H 0.12887 0.61892 0.5069 0.0
C2695 C 0.14641 0.65504 0.73024 0.0
C2696 C 0.13091 0.63378 0.65764 0.0
H2697 H 0.13354 0.61155 0.58595 0.0
C2698 C 0.12071 0.63869 0.64141 0.0
C2699 C 0.13577 0.62408 0.63661 0.0
C2700 C 0.14713 0.61888 0.65061 0.0
C2701 C 0.11507 0.63397 0.60525 0.0
C2702 C 0.11965 0.62393 0.58552 0.0
C2703 C 0.12998 0.61919 0.60127 0.0
C2704 C 0.1139 0.61805 0.54876 0.0
C2705 C 0.10438 0.63986 0.58823 0.0
C2706 C 0.10261 0.61379 0.5529 0.0
C2707 C 0.09769 0.60718 0.51984 0.0
C2708 C 0.10407 0.60453 0.4824 0.0
C2709 C 0.11528 0.60903 0.47793 0.0
C2710 C 0.12013 0.61574 0.51074 0.0
H2711 H 0.10412 0.64911 0.59776 0.0
H2712 H 0.10388 0.63929 0.5524 0.0
H2713 H 0.09663 0.6356 0.60207 0.0
H2714 H 0.09774 0.61521 0.58235 0.0
H2715 H 0.08906 0.60377 0.5244 0.0
H2716 H 0.14621 0.36998 0.20549 0.0
H2717 H 0.13535 0.37793 0.26634 0.0
H2718 H 0.13988 0.34609 0.33672 0.0
H2719 H 0.15053 0.33793 0.27547 0.0
H2720 H 0.11799 0.35536 0.34692 0.0
H2721 H 0.15174 0.38842 0.3759 0.0
H2722 H 0.14598 0.38887 0.32202 0.0
H2723 H 0.15389 0.37636 0.3398 0.0
C2724 C 0.14482 0.36462 0.23375 0.0
C2725 C 0.14936 0.35337 0.23588 0.0
C2726 C 0.13866 0.3692 0.26856 0.0
C2727 C 0.13706 0.36269 0.30638 0.0
C2728 C 0.14109 0.35127 0.30789 0.0
H2729 H 0.12149 0.39545 0.55181 0.0
H2730 H 0.12991 0.38356 0.4947 0.0
C2731 C 0.14718 0.34664 0.27288 0.0
C2732 C 0.13162 0.36799 0.34492 0.0
H2733 H 0.13421 0.39061 0.41489 0.0
C2734 C 0.12155 0.36303 0.36201 0.0
C2735 C 0.13643 0.37786 0.36502 0.0
C2736 C 0.14767 0.38313 0.35006 0.0
C2737 C 0.11597 0.36787 0.3981 0.0
C2738 C 0.12049 0.37806 0.41688 0.0
C2739 C 0.1307 0.38285 0.40029 0.0
C2740 C 0.11479 0.38406 0.4535 0.0
C2741 C 0.10541 0.36194 0.41605 0.0
C2742 C 0.10343 0.38817 0.44961 0.0
C2743 C 0.09854 0.39488 0.48247 0.0
C2744 C 0.10502 0.39777 0.51943 0.0
C2745 C 0.11629 0.39343 0.52365 0.0
C2746 C 0.12112 0.38662 0.49106 0.0
H2747 H 0.10522 0.35264 0.40716 0.0
H2748 H 0.10503 0.36268 0.45186 0.0
H2749 H 0.09756 0.36604 0.40233 0.0
H2750 H 0.09849 0.38655 0.42049 0.0
H2751 H 0.08987 0.39816 0.47811 0.0
loop_
_geom_bond_atom_site_label_1
_geom_bond_atom_site_label_2
_geom_bond_distance
_geom_bond_site_symmetry_2
_ccdc_geom_bond_type
O0 Cd1 2.223 . S
O0 C8 1.315 . S
Cd1 O0 2.223 . S
Cd1 O4 2.297 . S
Cd1 O5 2.439 . S
Cd1 O11 2.240 . S
Cd2 O3 2.240 . S
Cd2 O10 2.223 . S
Cd2 O12 2.297 . S
Cd2 O13 2.439 . S
O3 Cd2 2.240 . S
O3 C8 1.279 . S
O4 Cd1 2.297 . S
O4 C6 1.247 . S
O5 Cd1 2.439 . S
O5 C6 1.208 . S
C6 O4 1.247 . S
C6 O5 1.208 . S
C7 O12 1.247 . S
C7 O13 1.208 . S
C8 O0 1.315 . S
C8 O3 1.279 . S
C9 O10 1.315 . S
C9 O11 1.279 . S
O10 Cd2 2.223 . S
O10 C9 1.315 . S
O11 Cd1 2.240 . S
O11 C9 1.279 . S
O12 Cd2 2.297 . S
O12 C7 1.247 . S
O13 Cd2 2.439 . S
O13 C7 1.208 . S
O14 Cd15 2.223 . S
O14 C22 1.315 . S
Cd15 O14 2.223 . S
Cd15 O18 2.297 . S
Cd15 O19 2.439 . S
Cd15 O25 2.240 . S
Cd16 O17 2.240 . S
Cd16 O24 2.223 . S
Cd16 O26 2.297 . S
Cd16 O27 2.439 . S
O17 Cd16 2.240 . S
O17 C22 1.279 . S
O18 Cd15 2.297 . S
O18 C20 1.247 . S
O19 Cd15 2.439 . S
O19 C20 1.208 . S
C20 O18 1.247 . S
C20 O19 1.208 . S
C21 O26 1.247 . S
C21 O27 1.208 . S
C22 O14 1.315 . S
C22 O17 1.279 . S
C23 O24 1.315 . S
C23 O25 1.279 . S
O24 Cd16 2.223 . S
O24 C23 1.315 . S
O25 Cd15 2.240 . S
O25 C23 1.279 . S
O26 Cd16 2.297 . S
O26 C21 1.247 . S
O27 Cd16 2.439 . S
O27 C21 1.208 . S
O28 Cd29 2.223 . S
O28 C36 1.315 . S
Cd29 O28 2.223 . S
Cd29 O32 2.297 . S
Cd29 O33 2.439 . S
Cd29 O39 2.240 . S
Cd30 O31 2.240 . S
Cd30 O38 2.223 . S
Cd30 O40 2.297 . S
Cd30 O41 2.439 . S
O31 Cd30 2.240 . S
O31 C36 1.279 . S
O32 Cd29 2.297 . S
O32 C34 1.247 . S
O33 Cd29 2.439 . S
O33 C34 1.208 . S
C34 O32 1.247 . S
C34 O33 1.208 . S
C35 O40 1.247 . S
C35 O41 1.208 . S
C36 O28 1.315 . S
C36 O31 1.279 . S
C37 O38 1.315 . S
C37 O39 1.279 . S
O38 Cd30 2.223 . S
O38 C37 1.315 . S
O39 Cd29 2.240 . S
O39 C37 1.279 . S
O40 Cd30 2.297 . S
O40 C35 1.247 . S
O41 Cd30 2.439 . S
O41 C35 1.208 . S
O42 Cd43 2.223 . S
O42 C50 1.315 . S
Cd43 O42 2.223 . S
Cd43 O46 2.297 . S
Cd43 O47 2.439 . S
Cd43 O53 2.240 . S
Cd44 O45 2.240 . S
Cd44 O52 2.223 . S
Cd44 O54 2.297 . S
Cd44 O55 2.439 . S
O45 Cd44 2.240 . S
O45 C50 1.279 . S
O46 Cd43 2.297 . S
O46 C48 1.247 . S
O47 Cd43 2.439 . S
O47 C48 1.208 . S
C48 O46 1.247 . S
C48 O47 1.208 . S
C49 O54 1.247 . S
C49 O55 1.208 . S
C50 O42 1.315 . S
C50 O45 1.279 . S
C51 O52 1.315 . S
C51 O53 1.279 . S
O52 Cd44 2.223 . S
O52 C51 1.315 . S
O53 Cd43 2.240 . S
O53 C51 1.279 . S
O54 Cd44 2.297 . S
O54 C49 1.247 . S
O55 Cd44 2.439 . S
O55 C49 1.208 . S
O56 Cd57 2.223 . S
O56 C64 1.315 . S
Cd57 O56 2.223 . S
Cd57 O60 2.297 . S
Cd57 O61 2.439 . S
Cd57 O67 2.240 . S
Cd58 O59 2.240 . S
Cd58 O66 2.223 . S
Cd58 O68 2.297 . S
Cd58 O69 2.439 . S
O59 Cd58 2.240 . S
O59 C64 1.279 . S
O60 Cd57 2.297 . S
O60 C62 1.247 . S
O61 Cd57 2.439 . S
O61 C62 1.208 . S
C62 O60 1.247 . S
C62 O61 1.208 . S
C63 O68 1.247 . S
C63 O69 1.208 . S
C64 O56 1.315 . S
C64 O59 1.279 . S
C65 O66 1.315 . S
C65 O67 1.279 . S
O66 Cd58 2.223 . S
O66 C65 1.315 . S
O67 Cd57 2.240 . S
O67 C65 1.279 . S
O68 Cd58 2.297 . S
O68 C63 1.247 . S
O69 Cd58 2.439 . S
O69 C63 1.208 . S
O70 Cd71 2.223 . S
O70 C78 1.315 . S
Cd71 O70 2.223 . S
Cd71 O74 2.297 . S
Cd71 O75 2.439 . S
Cd71 O81 2.240 . S
Cd72 O73 2.240 . S
Cd72 O80 2.223 . S
Cd72 O82 2.297 . S
Cd72 O83 2.439 . S
O73 Cd72 2.240 . S
O73 C78 1.279 . S
O74 Cd71 2.297 . S
O74 C76 1.247 . S
O75 Cd71 2.439 . S
O75 C76 1.208 . S
C76 O74 1.247 . S
C76 O75 1.208 . S
C77 O82 1.247 . S
C77 O83 1.208 . S
C78 O70 1.315 . S
C78 O73 1.279 . S
C79 O80 1.315 . S
C79 O81 1.279 . S
O80 Cd72 2.223 . S
O80 C79 1.315 . S
O81 Cd71 2.240 . S
O81 C79 1.279 . S
O82 Cd72 2.297 . S
O82 C77 1.247 . S
O83 Cd72 2.439 . S
O83 C77 1.208 . S
O84 Cd85 2.223 . S
O84 C92 1.315 . S
Cd85 O84 2.223 . S
Cd85 O88 2.297 . S
Cd85 O89 2.439 . S
Cd85 O95 2.240 . S
Cd86 O87 2.240 . S
Cd86 O94 2.223 . S
Cd86 O96 2.297 . S
Cd86 O97 2.439 . S
O87 Cd86 2.240 . S
O87 C92 1.279 . S
O88 Cd85 2.297 . S
O88 C90 1.247 . S
O89 Cd85 2.439 . S
O89 C90 1.208 . S
C90 O88 1.247 . S
C90 O89 1.208 . S
C91 O96 1.247 . S
C91 O97 1.208 . S
C92 O84 1.315 . S
C92 O87 1.279 . S
C93 O94 1.315 . S
C93 O95 1.279 . S
O94 Cd86 2.223 . S
O94 C93 1.315 . S
O95 Cd85 2.240 . S
O95 C93 1.279 . S
O96 Cd86 2.297 . S
O96 C91 1.247 . S
O97 Cd86 2.439 . S
O97 C91 1.208 . S
O98 Cd99 2.223 . S
O98 C106 1.315 . S
Cd99 O98 2.223 . S
Cd99 O102 2.297 . S
Cd99 O103 2.439 . S
Cd99 O109 2.240 . S
Cd100 O101 2.240 . S
Cd100 O108 2.223 . S
Cd100 O110 2.297 . S
Cd100 O111 2.439 . S
O101 Cd100 2.240 . S
O101 C106 1.279 . S
O102 Cd99 2.297 . S
O102 C104 1.247 . S
O103 Cd99 2.439 . S
O103 C104 1.208 . S
C104 O102 1.247 . S
C104 O103 1.208 . S
C105 O110 1.247 . S
C105 O111 1.208 . S
C106 O98 1.315 . S
C106 O101 1.279 . S
C107 O108 1.315 . S
C107 O109 1.279 . S
O108 Cd100 2.223 . S
O108 C107 1.315 . S
O109 Cd99 2.240 . S
O109 C107 1.279 . S
O110 Cd100 2.297 . S
O110 C105 1.247 . S
O111 Cd100 2.439 . S
O111 C105 1.208 . S
O112 Cd113 2.223 . S
O112 C120 1.315 . S
Cd113 O112 2.223 . S
Cd113 O116 2.297 . S
Cd113 O117 2.439 . S
Cd113 O123 2.240 . S
Cd114 O115 2.240 . S
Cd114 O122 2.223 . S
Cd114 O124 2.297 . S
Cd114 O125 2.439 . S
O115 Cd114 2.240 . S
O115 C120 1.279 . S
O116 Cd113 2.297 . S
O116 C118 1.247 . S
O117 Cd113 2.439 . S
O117 C118 1.208 . S
C118 O116 1.247 . S
C118 O117 1.208 . S
C119 O124 1.247 . S
C119 O125 1.208 . S
C120 O112 1.315 . S
C120 O115 1.279 . S
C121 O122 1.315 . S
C121 O123 1.279 . S
O122 Cd114 2.223 . S
O122 C121 1.315 . S
O123 Cd113 2.240 . S
O123 C121 1.279 . S
O124 Cd114 2.297 . S
O124 C119 1.247 . S
O125 Cd114 2.439 . S
O125 C119 1.208 . S
O126 Cd127 2.223 . S
O126 C134 1.315 . S
Cd127 O126 2.223 . S
Cd127 O130 2.297 . S
Cd127 O131 2.439 . S
Cd127 O137 2.240 . S
Cd128 O129 2.240 . S
Cd128 O136 2.223 . S
Cd128 O138 2.297 . S
Cd128 O139 2.439 . S
O129 Cd128 2.240 . S
O129 C134 1.279 . S
O130 Cd127 2.297 . S
O130 C132 1.247 . S
O131 Cd127 2.439 . S
O131 C132 1.208 . S
C132 O130 1.247 . S
C132 O131 1.208 . S
C133 O138 1.247 . S
C133 O139 1.208 . S
C134 O126 1.315 . S
C134 O129 1.279 . S
C135 O136 1.315 . S
C135 O137 1.279 . S
O136 Cd128 2.223 . S
O136 C135 1.315 . S
O137 Cd127 2.240 . S
O137 C135 1.279 . S
O138 Cd128 2.297 . S
O138 C133 1.247 . S
O139 Cd128 2.439 . S
O139 C133 1.208 . S
O140 Cd141 2.223 . S
O140 C148 1.315 . S
Cd141 O140 2.223 . S
Cd141 O144 2.297 . S
Cd141 O145 2.439 . S
Cd141 O151 2.240 . S
Cd142 O143 2.240 . S
Cd142 O150 2.223 . S
Cd142 O152 2.297 . S
Cd142 O153 2.439 . S
O143 Cd142 2.240 . S
O143 C148 1.279 . S
O144 Cd141 2.297 . S
O144 C146 1.247 . S
O145 Cd141 2.439 . S
O145 C146 1.208 . S
C146 O144 1.247 . S
C146 O145 1.208 . S
C147 O152 1.247 . S
C147 O153 1.208 . S
C148 O140 1.315 . S
C148 O143 1.279 . S
C149 O150 1.315 . S
C149 O151 1.279 . S
O150 Cd142 2.223 . S
O150 C149 1.315 . S
O151 Cd141 2.240 . S
O151 C149 1.279 . S
O152 Cd142 2.297 . S
O152 C147 1.247 . S
O153 Cd142 2.439 . S
O153 C147 1.208 . S
O154 Cd155 2.223 . S
O154 C162 1.315 . S
Cd155 O154 2.223 . S
Cd155 O158 2.297 . S
Cd155 O159 2.439 . S
Cd155 O165 2.240 . S
Cd156 O157 2.240 . S
Cd156 O164 2.223 . S
Cd156 O166 2.297 . S
Cd156 O167 2.439 . S
O157 Cd156 2.240 . S
O157 C162 1.279 . S
O158 Cd155 2.297 . S
O158 C160 1.247 . S
O159 Cd155 2.439 . S
O159 C160 1.208 . S
C160 O158 1.247 . S
C160 O159 1.208 . S
C161 O166 1.247 . S
C161 O167 1.208 . S
C162 O154 1.315 . S
C162 O157 1.279 . S
C163 O164 1.315 . S
C163 O165 1.279 . S
O164 Cd156 2.223 . S
O164 C163 1.315 . S
O165 Cd155 2.240 . S
O165 C163 1.279 . S
O166 Cd156 2.297 . S
O166 C161 1.247 . S
O167 Cd156 2.439 . S
O167 C161 1.208 . S
O168 Cd169 2.223 . S
O168 C176 1.315 . S
Cd169 O168 2.223 . S
Cd169 O172 2.297 . S
Cd169 O173 2.439 . S
Cd169 O179 2.240 . S
Cd170 O171 2.240 . S
Cd170 O178 2.223 . S
Cd170 O180 2.297 . S
Cd170 O181 2.439 . S
O171 Cd170 2.240 . S
O171 C176 1.279 . S
O172 Cd169 2.297 . S
O172 C174 1.247 . S
O173 Cd169 2.439 . S
O173 C174 1.208 . S
C174 O172 1.247 . S
C174 O173 1.208 . S
C175 O180 1.247 . S
C175 O181 1.208 . S
C176 O168 1.315 . S
C176 O171 1.279 . S
C177 O178 1.315 . S
C177 O179 1.279 . S
O178 Cd170 2.223 . S
O178 C177 1.315 . S
O179 Cd169 2.240 . S
O179 C177 1.279 . S
O180 Cd170 2.297 . S
O180 C175 1.247 . S
O181 Cd170 2.439 . S
O181 C175 1.208 . S
O182 Cd183 2.223 . S
O182 C190 1.315 . S
Cd183 O182 2.223 . S
Cd183 O186 2.297 . S
Cd183 O187 2.439 . S
Cd183 O193 2.240 . S
Cd184 O185 2.240 . S
Cd184 O192 2.223 . S
Cd184 O194 2.297 . S
Cd184 O195 2.439 . S
O185 Cd184 2.240 . S
O185 C190 1.279 . S
O186 Cd183 2.297 . S
O186 C188 1.247 . S
O187 Cd183 2.439 . S
O187 C188 1.208 . S
C188 O186 1.247 . S
C188 O187 1.208 . S
C189 O194 1.247 . S
C189 O195 1.208 . S
C190 O182 1.315 . S
C190 O185 1.279 . S
C191 O192 1.315 . S
C191 O193 1.279 . S
O192 Cd184 2.223 . S
O192 C191 1.315 . S
O193 Cd183 2.240 . S
O193 C191 1.279 . S
O194 Cd184 2.297 . S
O194 C189 1.247 . S
O195 Cd184 2.439 . S
O195 C189 1.208 . S
O196 Cd197 2.223 . S
O196 C204 1.315 . S
Cd197 O196 2.223 . S
Cd197 O200 2.297 . S
Cd197 O201 2.439 . S
Cd197 O207 2.240 . S
Cd198 O199 2.240 . S
Cd198 O206 2.223 . S
Cd198 O208 2.297 . S
Cd198 O209 2.439 . S
O199 Cd198 2.240 . S
O199 C204 1.279 . S
O200 Cd197 2.297 . S
O200 C202 1.247 . S
O201 Cd197 2.439 . S
O201 C202 1.208 . S
C202 O200 1.247 . S
C202 O201 1.208 . S
C203 O208 1.247 . S
C203 O209 1.208 . S
C204 O196 1.315 . S
C204 O199 1.279 . S
C205 O206 1.315 . S
C205 O207 1.279 . S
O206 Cd198 2.223 . S
O206 C205 1.315 . S
O207 Cd197 2.240 . S
O207 C205 1.279 . S
O208 Cd198 2.297 . S
O208 C203 1.247 . S
O209 Cd198 2.439 . S
O209 C203 1.208 . S
O210 Cd211 2.223 . S
O210 C218 1.315 . S
Cd211 O210 2.223 . S
Cd211 O214 2.297 . S
Cd211 O215 2.439 . S
Cd211 O221 2.240 . S
Cd212 O213 2.240 . S
Cd212 O220 2.223 . S
Cd212 O222 2.297 . S
Cd212 O223 2.439 . S
O213 Cd212 2.240 . S
O213 C218 1.279 . S
O214 Cd211 2.297 . S
O214 C216 1.247 . S
O215 Cd211 2.439 . S
O215 C216 1.208 . S
C216 O214 1.247 . S
C216 O215 1.208 . S
C217 O222 1.247 . S
C217 O223 1.208 . S
C218 O210 1.315 . S
C218 O213 1.279 . S
C219 O220 1.315 . S
C219 O221 1.279 . S
O220 Cd212 2.223 . S
O220 C219 1.315 . S
O221 Cd211 2.240 . S
O221 C219 1.279 . S
O222 Cd212 2.297 . S
O222 C217 1.247 . S
O223 Cd212 2.439 . S
O223 C217 1.208 . S
O224 Cd225 2.223 . S
O224 C232 1.315 . S
Cd225 O224 2.223 . S
Cd225 O228 2.297 . S
Cd225 O229 2.439 . S
Cd225 O235 2.240 . S
Cd226 O227 2.240 . S
Cd226 O234 2.223 . S
Cd226 O236 2.297 . S
Cd226 O237 2.439 . S
O227 Cd226 2.240 . S
O227 C232 1.279 . S
O228 Cd225 2.297 . S
O228 C230 1.247 . S
O229 Cd225 2.439 . S
O229 C230 1.208 . S
C230 O228 1.247 . S
C230 O229 1.208 . S
C231 O236 1.247 . S
C231 O237 1.208 . S
C232 O224 1.315 . S
C232 O227 1.279 . S
C233 O234 1.315 . S
C233 O235 1.279 . S
O234 Cd226 2.223 . S
O234 C233 1.315 . S
O235 Cd225 2.240 . S
O235 C233 1.279 . S
O236 Cd226 2.297 . S
O236 C231 1.247 . S
O237 Cd226 2.439 . S
O237 C231 1.208 . S
O238 Cd239 2.223 . S
O238 C246 1.315 . S
Cd239 O238 2.223 . S
Cd239 O242 2.297 . S
Cd239 O243 2.439 . S
Cd239 O249 2.240 . S
Cd240 O241 2.240 . S
Cd240 O248 2.223 . S
Cd240 O250 2.297 . S
Cd240 O251 2.439 . S
O241 Cd240 2.240 . S
O241 C246 1.279 . S
O242 Cd239 2.297 . S
O242 C244 1.247 . S
O243 Cd239 2.439 . S
O243 C244 1.208 . S
C244 O242 1.247 . S
C244 O243 1.208 . S
C245 O250 1.247 . S
C245 O251 1.208 . S
C246 O238 1.315 . S
C246 O241 1.279 . S
C247 O248 1.315 . S
C247 O249 1.279 . S
O248 Cd240 2.223 . S
O248 C247 1.315 . S
O249 Cd239 2.240 . S
O249 C247 1.279 . S
O250 Cd240 2.297 . S
O250 C245 1.247 . S
O251 Cd240 2.439 . S
O251 C245 1.208 . S
O252 Cd253 2.223 . S
O252 C260 1.315 . S
Cd253 O252 2.223 . S
Cd253 O256 2.297 . S
Cd253 O257 2.439 . S
Cd253 O263 2.240 . S
Cd254 O255 2.240 . S
Cd254 O262 2.223 . S
Cd254 O264 2.297 . S
Cd254 O265 2.439 . S
O255 Cd254 2.240 . S
O255 C260 1.279 . S
O256 Cd253 2.297 . S
O256 C258 1.247 . S
O257 Cd253 2.439 . S
O257 C258 1.208 . S
C258 O256 1.247 . S
C258 O257 1.208 . S
C259 O264 1.247 . S
C259 O265 1.208 . S
C260 O252 1.315 . S
C260 O255 1.279 . S
C261 O262 1.315 . S
C261 O263 1.279 . S
O262 Cd254 2.223 . S
O262 C261 1.315 . S
O263 Cd253 2.240 . S
O263 C261 1.279 . S
O264 Cd254 2.297 . S
O264 C259 1.247 . S
O265 Cd254 2.439 . S
O265 C259 1.208 . S
O266 Cd267 2.223 . S
O266 C274 1.315 . S
Cd267 O266 2.223 . S
Cd267 O270 2.297 . S
Cd267 O271 2.439 . S
Cd267 O277 2.240 . S
Cd268 O269 2.240 . S
Cd268 O276 2.223 . S
Cd268 O278 2.297 . S
Cd268 O279 2.439 . S
O269 Cd268 2.240 . S
O269 C274 1.279 . S
O270 Cd267 2.297 . S
O270 C272 1.247 . S
O271 Cd267 2.439 . S
O271 C272 1.208 . S
C272 O270 1.247 . S
C272 O271 1.208 . S
C273 O278 1.247 . S
C273 O279 1.208 . S
C274 O266 1.315 . S
C274 O269 1.279 . S
C275 O276 1.315 . S
C275 O277 1.279 . S
O276 Cd268 2.223 . S
O276 C275 1.315 . S
O277 Cd267 2.240 . S
O277 C275 1.279 . S
O278 Cd268 2.297 . S
O278 C273 1.247 . S
O279 Cd268 2.439 . S
O279 C273 1.208 . S
O280 Cd281 2.223 . S
O280 C288 1.315 . S
Cd281 O280 2.223 . S
Cd281 O284 2.297 . S
Cd281 O285 2.439 . S
Cd281 O291 2.240 . S
Cd282 O283 2.240 . S
Cd282 O290 2.223 . S
Cd282 O292 2.297 . S
Cd282 O293 2.439 . S
O283 Cd282 2.240 . S
O283 C288 1.279 . S
O284 Cd281 2.297 . S
O284 C286 1.247 . S
O285 Cd281 2.439 . S
O285 C286 1.208 . S
C286 O284 1.247 . S
C286 O285 1.208 . S
C287 O292 1.247 . S
C287 O293 1.208 . S
C288 O280 1.315 . S
C288 O283 1.279 . S
C289 O290 1.315 . S
C289 O291 1.279 . S
O290 Cd282 2.223 . S
O290 C289 1.315 . S
O291 Cd281 2.240 . S
O291 C289 1.279 . S
O292 Cd282 2.297 . S
O292 C287 1.247 . S
O293 Cd282 2.439 . S
O293 C287 1.208 . S
O294 Cd295 2.223 . S
O294 C302 1.315 . S
Cd295 O294 2.223 . S
Cd295 O298 2.297 . S
Cd295 O299 2.439 . S
Cd295 O305 2.240 . S
Cd296 O297 2.240 . S
Cd296 O304 2.223 . S
Cd296 O306 2.297 . S
Cd296 O307 2.439 . S
O297 Cd296 2.240 . S
O297 C302 1.279 . S
O298 Cd295 2.297 . S
O298 C300 1.247 . S
O299 Cd295 2.439 . S
O299 C300 1.208 . S
C300 O298 1.247 . S
C300 O299 1.208 . S
C301 O306 1.247 . S
C301 O307 1.208 . S
C302 O294 1.315 . S
C302 O297 1.279 . S
C303 O304 1.315 . S
C303 O305 1.279 . S
O304 Cd296 2.223 . S
O304 C303 1.315 . S
O305 Cd295 2.240 . S
O305 C303 1.279 . S
O306 Cd296 2.297 . S
O306 C301 1.247 . S
O307 Cd296 2.439 . S
O307 C301 1.208 . S
O308 Cd309 2.223 . S
O308 C316 1.315 . S
Cd309 O308 2.223 . S
Cd309 O312 2.297 . S
Cd309 O313 2.439 . S
Cd309 O319 2.240 . S
Cd310 O311 2.240 . S
Cd310 O318 2.223 . S
Cd310 O320 2.297 . S
Cd310 O321 2.439 . S
O311 Cd310 2.240 . S
O311 C316 1.279 . S
O312 Cd309 2.297 . S
O312 C314 1.247 . S
O313 Cd309 2.439 . S
O313 C314 1.208 . S
C314 O312 1.247 . S
C314 O313 1.208 . S
C315 O320 1.247 . S
C315 O321 1.208 . S
C316 O308 1.315 . S
C316 O311 1.279 . S
C317 O318 1.315 . S
C317 O319 1.279 . S
O318 Cd310 2.223 . S
O318 C317 1.315 . S
O319 Cd309 2.240 . S
O319 C317 1.279 . S
O320 Cd310 2.297 . S
O320 C315 1.247 . S
O321 Cd310 2.439 . S
O321 C315 1.208 . S
O322 Cd323 2.223 . S
O322 C330 1.315 . S
Cd323 O322 2.223 . S
Cd323 O326 2.297 . S
Cd323 O327 2.439 . S
Cd323 O333 2.240 . S
Cd324 O325 2.240 . S
Cd324 O332 2.223 . S
Cd324 O334 2.297 . S
Cd324 O335 2.439 . S
O325 Cd324 2.240 . S
O325 C330 1.279 . S
O326 Cd323 2.297 . S
O326 C328 1.247 . S
O327 Cd323 2.439 . S
O327 C328 1.208 . S
C328 O326 1.247 . S
C328 O327 1.208 . S
C329 O334 1.247 . S
C329 O335 1.208 . S
C330 O322 1.315 . S
C330 O325 1.279 . S
C331 O332 1.315 . S
C331 O333 1.279 . S
O332 Cd324 2.223 . S
O332 C331 1.315 . S
O333 Cd323 2.240 . S
O333 C331 1.279 . S
O334 Cd324 2.297 . S
O334 C329 1.247 . S
O335 Cd324 2.439 . S
O335 C329 1.208 . S
O336 Cd337 2.223 . S
O336 C344 1.315 . S
Cd337 O336 2.223 . S
Cd337 O340 2.297 . S
Cd337 O341 2.439 . S
Cd337 O347 2.240 . S
Cd338 O339 2.240 . S
Cd338 O346 2.223 . S
Cd338 O348 2.297 . S
Cd338 O349 2.439 . S
O339 Cd338 2.240 . S
O339 C344 1.279 . S
O340 Cd337 2.297 . S
O340 C342 1.247 . S
O341 Cd337 2.439 . S
O341 C342 1.208 . S
C342 O340 1.247 . S
C342 O341 1.208 . S
C343 O348 1.247 . S
C343 O349 1.208 . S
C344 O336 1.315 . S
C344 O339 1.279 . S
C345 O346 1.315 . S
C345 O347 1.279 . S
O346 Cd338 2.223 . S
O346 C345 1.315 . S
O347 Cd337 2.240 . S
O347 C345 1.279 . S
O348 Cd338 2.297 . S
O348 C343 1.247 . S
O349 Cd338 2.439 . S
O349 C343 1.208 . S
O350 Cd351 2.223 . S
O350 C358 1.315 . S
Cd351 O350 2.223 . S
Cd351 O354 2.297 . S
Cd351 O355 2.439 . S
Cd351 O361 2.240 . S
Cd352 O353 2.240 . S
Cd352 O360 2.223 . S
Cd352 O362 2.297 . S
Cd352 O363 2.439 . S
O353 Cd352 2.240 . S
O353 C358 1.279 . S
O354 Cd351 2.297 . S
O354 C356 1.247 . S
O355 Cd351 2.439 . S
O355 C356 1.208 . S
C356 O354 1.247 . S
C356 O355 1.208 . S
C357 O362 1.247 . S
C357 O363 1.208 . S
C358 O350 1.315 . S
C358 O353 1.279 . S
C359 O360 1.315 . S
C359 O361 1.279 . S
O360 Cd352 2.223 . S
O360 C359 1.315 . S
O361 Cd351 2.240 . S
O361 C359 1.279 . S
O362 Cd352 2.297 . S
O362 C357 1.247 . S
O363 Cd352 2.439 . S
O363 C357 1.208 . S
O364 Cd365 2.223 . S
O364 C372 1.315 . S
Cd365 O364 2.223 . S
Cd365 O368 2.297 . S
Cd365 O369 2.439 . S
Cd365 O375 2.240 . S
Cd366 O367 2.240 . S
Cd366 O374 2.223 . S
Cd366 O376 2.297 . S
Cd366 O377 2.439 . S
O367 Cd366 2.240 . S
O367 C372 1.279 . S
O368 Cd365 2.297 . S
O368 C370 1.247 . S
O369 Cd365 2.439 . S
O369 C370 1.208 . S
C370 O368 1.247 . S
C370 O369 1.208 . S
C371 O376 1.247 . S
C371 O377 1.208 . S
C372 O364 1.315 . S
C372 O367 1.279 . S
C373 O374 1.315 . S
C373 O375 1.279 . S
O374 Cd366 2.223 . S
O374 C373 1.315 . S
O375 Cd365 2.240 . S
O375 C373 1.279 . S
O376 Cd366 2.297 . S
O376 C371 1.247 . S
O377 Cd366 2.439 . S
O377 C371 1.208 . S
O378 Cd379 2.223 . S
O378 C386 1.315 . S
Cd379 O378 2.223 . S
Cd379 O382 2.297 . S
Cd379 O383 2.439 . S
Cd379 O389 2.240 . S
Cd380 O381 2.240 . S
Cd380 O388 2.223 . S
Cd380 O390 2.297 . S
Cd380 O391 2.439 . S
O381 Cd380 2.240 . S
O381 C386 1.279 . S
O382 Cd379 2.297 . S
O382 C384 1.247 . S
O383 Cd379 2.439 . S
O383 C384 1.208 . S
C384 O382 1.247 . S
C384 O383 1.208 . S
C385 O390 1.247 . S
C385 O391 1.208 . S
C386 O378 1.315 . S
C386 O381 1.279 . S
C387 O388 1.315 . S
C387 O389 1.279 . S
O388 Cd380 2.223 . S
O388 C387 1.315 . S
O389 Cd379 2.240 . S
O389 C387 1.279 . S
O390 Cd380 2.297 . S
O390 C385 1.247 . S
O391 Cd380 2.439 . S
O391 C385 1.208 . S
O392 Cd393 2.223 . S
O392 C400 1.315 . S
Cd393 O392 2.223 . S
Cd393 O396 2.297 . S
Cd393 O397 2.439 . S
Cd393 O403 2.240 . S
Cd394 O395 2.240 . S
Cd394 O402 2.223 . S
Cd394 O404 2.297 . S
Cd394 O405 2.439 . S
O395 Cd394 2.240 . S
O395 C400 1.279 . S
O396 Cd393 2.297 . S
O396 C398 1.247 . S
O397 Cd393 2.439 . S
O397 C398 1.208 . S
C398 O396 1.247 . S
C398 O397 1.208 . S
C399 O404 1.247 . S
C399 O405 1.208 . S
C400 O392 1.315 . S
C400 O395 1.279 . S
C401 O402 1.315 . S
C401 O403 1.279 . S
O402 Cd394 2.223 . S
O402 C401 1.315 . S
O403 Cd393 2.240 . S
O403 C401 1.279 . S
O404 Cd394 2.297 . S
O404 C399 1.247 . S
O405 Cd394 2.439 . S
O405 C399 1.208 . S
O406 Cd407 2.223 . S
O406 C414 1.315 . S
Cd407 O406 2.223 . S
Cd407 O410 2.297 . S
Cd407 O411 2.439 . S
Cd407 O417 2.240 . S
Cd408 O409 2.240 . S
Cd408 O416 2.223 . S
Cd408 O418 2.297 . S
Cd408 O419 2.439 . S
O409 Cd408 2.240 . S
O409 C414 1.279 . S
O410 Cd407 2.297 . S
O410 C412 1.247 . S
O411 Cd407 2.439 . S
O411 C412 1.208 . S
C412 O410 1.247 . S
C412 O411 1.208 . S
C413 O418 1.247 . S
C413 O419 1.208 . S
C414 O406 1.315 . S
C414 O409 1.279 . S
C415 O416 1.315 . S
C415 O417 1.279 . S
O416 Cd408 2.223 . S
O416 C415 1.315 . S
O417 Cd407 2.240 . S
O417 C415 1.279 . S
O418 Cd408 2.297 . S
O418 C413 1.247 . S
O419 Cd408 2.439 . S
O419 C413 1.208 . S
O420 Cd421 2.223 . S
O420 C428 1.315 . S
Cd421 O420 2.223 . S
Cd421 O424 2.297 . S
Cd421 O425 2.439 . S
Cd421 O431 2.240 . S
Cd422 O423 2.240 . S
Cd422 O430 2.223 . S
Cd422 O432 2.297 . S
Cd422 O433 2.439 . S
O423 Cd422 2.240 . S
O423 C428 1.279 . S
O424 Cd421 2.297 . S
O424 C426 1.247 . S
O425 Cd421 2.439 . S
O425 C426 1.208 . S
C426 O424 1.247 . S
C426 O425 1.208 . S
C427 O432 1.247 . S
C427 O433 1.208 . S
C428 O420 1.315 . S
C428 O423 1.279 . S
C429 O430 1.315 . S
C429 O431 1.279 . S
O430 Cd422 2.223 . S
O430 C429 1.315 . S
O431 Cd421 2.240 . S
O431 C429 1.279 . S
O432 Cd422 2.297 . S
O432 C427 1.247 . S
O433 Cd422 2.439 . S
O433 C427 1.208 . S
O434 Cd435 2.223 . S
O434 C442 1.315 . S
Cd435 O434 2.223 . S
Cd435 O438 2.297 . S
Cd435 O439 2.439 . S
Cd435 O445 2.240 . S
Cd436 O437 2.240 . S
Cd436 O444 2.223 . S
Cd436 O446 2.297 . S
Cd436 O447 2.439 . S
O437 Cd436 2.240 . S
O437 C442 1.279 . S
O438 Cd435 2.297 . S
O438 C440 1.247 . S
O439 Cd435 2.439 . S
O439 C440 1.208 . S
C440 O438 1.247 . S
C440 O439 1.208 . S
C441 O446 1.247 . S
C441 O447 1.208 . S
C442 O434 1.315 . S
C442 O437 1.279 . S
C443 O444 1.315 . S
C443 O445 1.279 . S
O444 Cd436 2.223 . S
O444 C443 1.315 . S
O445 Cd435 2.240 . S
O445 C443 1.279 . S
O446 Cd436 2.297 . S
O446 C441 1.247 . S
O447 Cd436 2.439 . S
O447 C441 1.208 . S
H448 C456 0.929 . S
H449 C458 0.930 . S
H450 C460 0.930 . S
H451 C463 0.929 . S
H452 C466 0.930 . S
H453 C468 0.960 . S
H454 C468 0.960 . S
H455 C468 0.960 . S
C456 H448 0.929 . S
C456 C457 1.377 . S
C456 C458 1.384 . S
C457 C456 1.377 . S
C457 C463 1.390 . S
C458 H449 0.930 . S
C458 C456 1.384 . S
C458 C459 1.372 . S
C459 C458 1.372 . S
C459 C460 1.400 . S
C459 C464 1.490 . S
C460 H450 0.930 . S
C460 C459 1.400 . S
C460 C463 1.386 . S
H461 C477 0.930 . S
H462 C478 0.931 . S
C463 H451 0.929 . S
C463 C457 1.390 . S
C463 C460 1.386 . S
C464 C459 1.490 . S
C464 C466 1.395 . S
C464 C467 1.403 . S
H465 C471 0.930 . S
C466 H452 0.930 . S
C466 C464 1.395 . S
C466 C469 1.403 . S
C467 C464 1.403 . S
C467 C468 1.524 . S
C467 C471 1.400 . S
C468 H453 0.960 . S
C468 H454 0.960 . S
C468 H455 0.960 . S
C468 C467 1.524 . S
C469 C466 1.403 . S
C469 C470 1.392 . S
C469 C473 1.495 . S
C470 C469 1.392 . S
C470 C471 1.385 . S
C470 C472 1.478 . S
C471 H465 0.930 . S
C471 C467 1.400 . S
C471 C470 1.385 . S
C472 C470 1.478 . S
C472 C474 1.381 . S
C472 C478 1.383 . S
C473 C469 1.495 . S
C473 H479 0.959 . S
C473 H480 0.961 . S
C473 H481 0.960 . S
C474 C472 1.381 . S
C474 C475 1.394 . S
C474 H482 0.930 . S
C475 C474 1.394 . S
C475 C476 1.383 . S
C475 H483 0.929 . S
C476 C475 1.383 . S
C476 C477 1.377 . S
C477 H461 0.930 . S
C477 C476 1.377 . S
C477 C478 1.379 . S
C478 H462 0.931 . S
C478 C472 1.383 . S
C478 C477 1.379 . S
H479 C473 0.959 . S
H480 C473 0.961 . S
H481 C473 0.960 . S
H482 C474 0.930 . S
H483 C475 0.929 . S
H484 C492 0.929 . S
H485 C494 0.930 . S
H486 C496 0.930 . S
H487 C499 0.929 . S
H488 C502 0.930 . S
H489 C504 0.960 . S
H490 C504 0.960 . S
H491 C504 0.960 . S
C492 H484 0.929 . S
C492 C493 1.377 . S
C492 C494 1.384 . S
C493 C492 1.377 . S
C493 C499 1.390 . S
C494 H485 0.930 . S
C494 C492 1.384 . S
C494 C495 1.372 . S
C495 C494 1.372 . S
C495 C496 1.400 . S
C495 C500 1.490 . S
C496 H486 0.930 . S
C496 C495 1.400 . S
C496 C499 1.386 . S
H497 C513 0.930 . S
H498 C514 0.931 . S
C499 H487 0.929 . S
C499 C493 1.390 . S
C499 C496 1.386 . S
C500 C495 1.490 . S
C500 C502 1.395 . S
C500 C503 1.403 . S
H501 C507 0.930 . S
C502 H488 0.930 . S
C502 C500 1.395 . S
C502 C505 1.403 1_565 S
C503 C500 1.403 . S
C503 C504 1.524 . S
C503 C507 1.400 1_565 S
C504 H489 0.960 . S
C504 H490 0.960 . S
C504 H491 0.960 . S
C504 C503 1.524 . S
C505 C502 1.403 1_545 S
C505 C506 1.392 . S
C505 C509 1.495 . S
C506 C505 1.392 . S
C506 C507 1.385 . S
C506 C508 1.478 . S
C507 H501 0.930 . S
C507 C503 1.400 1_545 S
C507 C506 1.385 . S
C508 C506 1.478 . S
C508 C510 1.381 . S
C508 C514 1.383 . S
C509 C505 1.495 . S
C509 H515 0.959 . S
C509 H516 0.961 . S
C509 H517 0.960 . S
C510 C508 1.381 . S
C510 C511 1.394 . S
C510 H518 0.930 . S
C511 C510 1.394 . S
C511 C512 1.383 . S
C511 H519 0.929 . S
C512 C511 1.383 . S
C512 C513 1.377 . S
C513 H497 0.930 . S
C513 C512 1.377 . S
C513 C514 1.379 . S
C514 H498 0.931 . S
C514 C508 1.383 . S
C514 C513 1.379 . S
H515 C509 0.959 . S
H516 C509 0.961 . S
H517 C509 0.960 . S
H518 C510 0.930 . S
H519 C511 0.929 . S
H520 C528 0.929 . S
H521 C530 0.930 . S
H522 C532 0.930 . S
H523 C535 0.929 . S
H524 C538 0.930 . S
H525 C540 0.960 . S
H526 C540 0.960 . S
H527 C540 0.960 . S
C528 H520 0.929 . S
C528 C529 1.377 . S
C528 C530 1.384 . S
C529 C528 1.377 . S
C529 C535 1.390 . S
C530 H521 0.930 . S
C530 C528 1.384 . S
C530 C531 1.372 . S
C531 C530 1.372 . S
C531 C532 1.400 . S
C531 C536 1.490 . S
C532 H522 0.930 . S
C532 C531 1.400 . S
C532 C535 1.386 . S
H533 C549 0.930 . S
H534 C550 0.931 . S
C535 H523 0.929 . S
C535 C529 1.390 . S
C535 C532 1.386 . S
C536 C531 1.490 . S
C536 C538 1.395 . S
C536 C539 1.403 . S
H537 C543 0.930 . S
C538 H524 0.930 . S
C538 C536 1.395 . S
C538 C541 1.403 . S
C539 C536 1.403 . S
C539 C540 1.524 . S
C539 C543 1.400 . S
C540 H525 0.960 . S
C540 H526 0.960 . S
C540 H527 0.960 . S
C540 C539 1.524 . S
C541 C538 1.403 . S
C541 C542 1.392 . S
C541 C545 1.495 . S
C542 C541 1.392 . S
C542 C543 1.385 . S
C542 C544 1.478 . S
C543 H537 0.930 . S
C543 C539 1.400 . S
C543 C542 1.385 . S
C544 C542 1.478 . S
C544 C546 1.381 . S
C544 C550 1.383 . S
C545 C541 1.495 . S
C545 H551 0.959 . S
C545 H552 0.961 . S
C545 H553 0.960 . S
C546 C544 1.381 . S
C546 C547 1.394 . S
C546 H554 0.930 . S
C547 C546 1.394 . S
C547 C548 1.383 . S
C547 H555 0.929 . S
C548 C547 1.383 . S
C548 C549 1.377 . S
C549 H533 0.930 . S
C549 C548 1.377 . S
C549 C550 1.379 . S
C550 H534 0.931 . S
C550 C544 1.383 . S
C550 C549 1.379 . S
H551 C545 0.959 . S
H552 C545 0.961 . S
H553 C545 0.960 . S
H554 C546 0.930 . S
H555 C547 0.929 . S
H556 C564 0.929 . S
H557 C566 0.930 1_554 S
H558 C568 0.930 . S
H559 C571 0.929 . S
H560 C574 0.930 . S
H561 C576 1.011 . S
H562 C576 0.960 . S
H563 C576 0.960 . S
C564 H556 0.929 . S
C564 C565 1.377 . S
C564 C566 1.384 . S
C565 C564 1.377 . S
C565 C571 1.390 . S
C566 H557 0.930 1_556 S
C566 C564 1.384 . S
C566 C567 1.372 . S
C567 C566 1.372 . S
C567 C568 1.400 . S
C567 C572 1.490 . S
C568 H558 0.930 . S
C568 C567 1.400 . S
C568 C571 1.386 . S
H569 C585 0.930 . S
H570 C586 0.931 1_556 S
C571 H559 0.929 . S
C571 C565 1.390 . S
C571 C568 1.386 . S
C572 C567 1.490 . S
C572 C574 1.395 1_556 S
C572 C575 1.403 . S
H573 C579 0.932 . S
C574 H560 0.930 . S
C574 C572 1.395 1_554 S
C574 C577 1.403 1_545 S
C575 C572 1.403 . S
C575 C576 1.524 . S
C575 C579 1.407 1_545 S
C576 H561 1.011 . S
C576 H562 0.960 . S
C576 H563 0.960 . S
C576 C575 1.524 . S
C577 C574 1.403 1_565 S
C577 C578 1.392 . S
C577 C581 1.495 . S
C578 C577 1.392 . S
C578 C579 1.376 1_554 S
C578 C580 1.478 . S
C579 H573 0.932 . S
C579 C575 1.407 1_565 S
C579 C578 1.376 1_556 S
C580 C578 1.478 . S
C580 C582 1.381 . S
C580 C586 1.383 . S
C581 C577 1.495 . S
C581 H587 0.970 . S
C581 H588 0.961 . S
C581 H589 0.960 . S
C582 C580 1.381 . S
C582 C583 1.394 . S
C582 H590 0.930 . S
C583 C582 1.394 . S
C583 C584 1.383 . S
C583 H591 0.929 . S
C584 C583 1.383 . S
C584 C585 1.377 . S
C585 H569 0.930 . S
C585 C584 1.377 . S
C585 C586 1.379 . S
C586 H570 0.931 1_554 S
C586 C580 1.383 . S
C586 C585 1.379 . S
H587 C581 0.970 . S
H588 C581 0.961 . S
H589 C581 0.960 . S
H590 C582 0.930 . S
H591 C583 0.929 . S
H592 C600 0.929 . S
H593 C602 0.930 . S
H594 C604 0.930 . S
H595 C607 0.929 . S
H596 C610 0.930 . S
H597 C612 0.960 . S
H598 C612 0.960 . S
H599 C612 0.960 . S
C600 H592 0.929 . S
C600 C601 1.377 . S
C600 C602 1.384 . S
C601 C600 1.377 . S
C601 C607 1.390 . S
C602 H593 0.930 . S
C602 C600 1.384 . S
C602 C603 1.372 . S
C603 C602 1.372 . S
C603 C604 1.400 . S
C603 C608 1.490 . S
C604 H594 0.930 . S
C604 C603 1.400 . S
C604 C607 1.386 . S
H605 C621 0.930 . S
H606 C622 0.931 . S
C607 H595 0.929 . S
C607 C601 1.390 . S
C607 C604 1.386 . S
C608 C603 1.490 . S
C608 C610 1.395 . S
C608 C611 1.403 . S
H609 C615 0.930 . S
C610 H596 0.930 . S
C610 C608 1.395 . S
C610 C613 1.403 . S
C611 C608 1.403 . S
C611 C612 1.524 . S
C611 C615 1.400 . S
C612 H597 0.960 . S
C612 H598 0.960 . S
C612 H599 0.960 . S
C612 C611 1.524 . S
C613 C610 1.403 . S
C613 C614 1.392 . S
C613 C617 1.495 . S
C614 C613 1.392 . S
C614 C615 1.385 . S
C614 C616 1.478 . S
C615 H609 0.930 . S
C615 C611 1.400 . S
C615 C614 1.385 . S
C616 C614 1.478 . S
C616 C618 1.381 . S
C616 C622 1.383 . S
C617 C613 1.495 . S
C617 H623 0.959 . S
C617 H624 0.961 . S
C617 H625 0.960 . S
C618 C616 1.381 . S
C618 C619 1.394 . S
C618 H626 0.930 . S
C619 C618 1.394 . S
C619 C620 1.383 . S
C619 H627 0.929 . S
C620 C619 1.383 . S
C620 C621 1.377 . S
C621 H605 0.930 . S
C621 C620 1.377 . S
C621 C622 1.379 . S
C622 H606 0.931 . S
C622 C616 1.383 . S
C622 C621 1.379 . S
H623 C617 0.959 . S
H624 C617 0.961 . S
H625 C617 0.960 . S
H626 C618 0.930 . S
H627 C619 0.929 . S
H628 C636 0.929 . S
H629 C638 0.930 . S
H630 C640 0.930 . S
H631 C643 0.929 . S
H632 C646 0.930 . S
H633 C648 0.960 . S
H634 C648 0.960 . S
H635 C648 0.960 . S
C636 H628 0.929 . S
C636 C637 1.377 . S
C636 C638 1.384 . S
C637 C636 1.377 . S
C637 C643 1.390 . S
C638 H629 0.930 . S
C638 C636 1.384 . S
C638 C639 1.372 . S
C639 C638 1.372 . S
C639 C640 1.400 . S
C639 C644 1.490 . S
C640 H630 0.930 . S
C640 C639 1.400 . S
C640 C643 1.386 . S
H641 C657 0.930 . S
H642 C658 0.931 . S
C643 H631 0.929 . S
C643 C637 1.390 . S
C643 C640 1.386 . S
C644 C639 1.490 . S
C644 C646 1.395 . S
C644 C647 1.403 . S
H645 C651 0.930 . S
C646 H632 0.930 . S
C646 C644 1.395 . S
C646 C649 1.403 1_565 S
C647 C644 1.403 . S
C647 C648 1.524 . S
C647 C651 1.400 1_565 S
C648 H633 0.960 . S
C648 H634 0.960 . S
C648 H635 0.960 . S
C648 C647 1.524 . S
C649 C646 1.403 1_545 S
C649 C650 1.392 . S
C649 C653 1.495 . S
C650 C649 1.392 . S
C650 C651 1.385 . S
C650 C652 1.478 . S
C651 H645 0.930 . S
C651 C647 1.400 1_545 S
C651 C650 1.385 . S
C652 C650 1.478 . S
C652 C654 1.381 . S
C652 C658 1.383 . S
C653 C649 1.495 . S
C653 H659 0.959 . S
C653 H660 0.961 . S
C653 H661 0.960 . S
C654 C652 1.381 . S
C654 C655 1.394 . S
C654 H662 0.930 . S
C655 C654 1.394 . S
C655 C656 1.383 . S
C655 H663 0.929 . S
C656 C655 1.383 . S
C656 C657 1.377 . S
C657 H641 0.930 . S
C657 C656 1.377 . S
C657 C658 1.379 . S
C658 H642 0.931 . S
C658 C652 1.383 . S
C658 C657 1.379 . S
H659 C653 0.959 . S
H660 C653 0.961 . S
H661 C653 0.960 . S
H662 C654 0.930 . S
H663 C655 0.929 . S
H664 C672 0.929 . S
H665 C674 0.930 . S
H666 C676 0.930 . S
H667 C679 0.929 . S
H668 C682 0.930 . S
H669 C684 0.960 . S
H670 C684 0.960 . S
H671 C684 0.960 . S
C672 H664 0.929 . S
C672 C673 1.377 . S
C672 C674 1.384 . S
C673 C672 1.377 . S
C673 C679 1.390 . S
C674 H665 0.930 . S
C674 C672 1.384 . S
C674 C675 1.372 . S
C675 C674 1.372 . S
C675 C676 1.400 . S
C675 C680 1.490 . S
C676 H666 0.930 . S
C676 C675 1.400 . S
C676 C679 1.386 . S
H677 C693 0.930 . S
H678 C694 0.931 . S
C679 H667 0.929 . S
C679 C673 1.390 . S
C679 C676 1.386 . S
C680 C675 1.490 . S
C680 C682 1.395 . S
C680 C683 1.403 . S
H681 C687 0.930 . S
C682 H668 0.930 . S
C682 C680 1.395 . S
C682 C685 1.403 . S
C683 C680 1.403 . S
C683 C684 1.524 . S
C683 C687 1.400 . S
C684 H669 0.960 . S
C684 H670 0.960 . S
C684 H671 0.960 . S
C684 C683 1.524 . S
C685 C682 1.403 . S
C685 C686 1.392 . S
C685 C689 1.495 . S
C686 C685 1.392 . S
C686 C687 1.385 . S
C686 C688 1.478 . S
C687 H681 0.930 . S
C687 C683 1.400 . S
C687 C686 1.385 . S
C688 C686 1.478 . S
C688 C690 1.381 . S
C688 C694 1.383 . S
C689 C685 1.495 . S
C689 H695 0.959 . S
C689 H696 0.961 . S
C689 H697 0.960 . S
C690 C688 1.381 . S
C690 C691 1.394 . S
C690 H698 0.930 . S
C691 C690 1.394 . S
C691 C692 1.383 . S
C691 H699 0.929 . S
C692 C691 1.383 . S
C692 C693 1.377 . S
C693 H677 0.930 . S
C693 C692 1.377 . S
C693 C694 1.379 . S
C694 H678 0.931 . S
C694 C688 1.383 . S
C694 C693 1.379 . S
H695 C689 0.959 . S
H696 C689 0.961 . S
H697 C689 0.960 . S
H698 C690 0.930 . S
H699 C691 0.929 . S
H700 C708 0.929 . S
H701 C710 0.930 . S
H702 C712 0.930 . S
H703 C715 0.929 . S
H704 C718 0.930 . S
H705 C720 0.960 1_565 S
H706 C720 0.960 . S
H707 C720 0.960 . S
C708 H700 0.929 . S
C708 C709 1.377 . S
C708 C710 1.384 . S
C709 C708 1.377 . S
C709 C715 1.390 . S
C710 H701 0.930 . S
C710 C708 1.384 . S
C710 C711 1.372 . S
C711 C710 1.372 . S
C711 C712 1.400 . S
C711 C716 1.490 . S
C712 H702 0.930 . S
C712 C711 1.400 . S
C712 C715 1.386 . S
H713 C729 0.930 . S
H714 C730 0.931 . S
C715 H703 0.929 . S
C715 C709 1.390 . S
C715 C712 1.386 . S
C716 C711 1.490 . S
C716 C718 1.395 1_556 S
C716 C719 1.403 . S
H717 C723 0.930 . S
C718 H704 0.930 . S
C718 C716 1.395 1_554 S
C718 C721 1.403 1_545 S
C719 C716 1.403 . S
C719 C720 1.524 . S
C719 C723 1.400 1_545 S
C720 H705 0.960 1_545 S
C720 H706 0.960 . S
C720 H707 0.960 . S
C720 C719 1.524 . S
C721 C718 1.403 1_565 S
C721 C722 1.392 . S
C721 C725 1.495 . S
C722 C721 1.392 . S
C722 C723 1.385 1_554 S
C722 C724 1.478 . S
C723 H717 0.930 . S
C723 C719 1.400 1_565 S
C723 C722 1.385 1_556 S
C724 C722 1.478 . S
C724 C726 1.381 . S
C724 C730 1.383 . S
C725 C721 1.495 . S
C725 H731 0.959 1_565 S
C725 H732 0.961 . S
C725 H733 0.960 . S
C726 C724 1.381 . S
C726 C727 1.394 . S
C726 H734 0.930 . S
C727 C726 1.394 . S
C727 C728 1.383 . S
C727 H735 0.929 . S
C728 C727 1.383 . S
C728 C729 1.377 . S
C729 H713 0.930 . S
C729 C728 1.377 . S
C729 C730 1.379 . S
C730 H714 0.931 . S
C730 C724 1.383 . S
C730 C729 1.379 . S
H731 C725 0.959 1_545 S
H732 C725 0.961 . S
H733 C725 0.960 . S
H734 C726 0.930 . S
H735 C727 0.929 . S
H736 C744 0.929 . S
H737 C746 0.930 . S
H738 C748 0.930 . S
H739 C751 0.929 . S
H740 C754 0.930 . S
H741 C756 0.960 . S
H742 C756 0.960 . S
H743 C756 0.960 . S
C744 H736 0.929 . S
C744 C745 1.377 . S
C744 C746 1.384 . S
C745 C744 1.377 . S
C745 C751 1.390 . S
C746 H737 0.930 . S
C746 C744 1.384 . S
C746 C747 1.372 . S
C747 C746 1.372 . S
C747 C748 1.400 . S
C747 C752 1.490 . S
C748 H738 0.930 . S
C748 C747 1.400 . S
C748 C751 1.386 . S
H749 C765 0.930 . S
H750 C766 0.931 . S
C751 H739 0.929 . S
C751 C745 1.390 . S
C751 C748 1.386 . S
C752 C747 1.490 . S
C752 C754 1.395 . S
C752 C755 1.403 . S
H753 C759 0.930 . S
C754 H740 0.930 . S
C754 C752 1.395 . S
C754 C757 1.403 . S
C755 C752 1.403 . S
C755 C756 1.524 . S
C755 C759 1.400 . S
C756 H741 0.960 . S
C756 H742 0.960 . S
C756 H743 0.960 . S
C756 C755 1.524 . S
C757 C754 1.403 . S
C757 C758 1.392 . S
C757 C761 1.495 . S
C758 C757 1.392 . S
C758 C759 1.385 . S
C758 C760 1.478 . S
C759 H753 0.930 . S
C759 C755 1.400 . S
C759 C758 1.385 . S
C760 C758 1.478 . S
C760 C762 1.381 . S
C760 C766 1.383 . S
C761 C757 1.495 . S
C761 H767 0.959 . S
C761 H768 0.961 . S
C761 H769 0.960 . S
C762 C760 1.381 . S
C762 C763 1.394 . S
C762 H770 0.930 . S
C763 C762 1.394 . S
C763 C764 1.383 . S
C763 H771 0.929 . S
C764 C763 1.383 . S
C764 C765 1.377 . S
C765 H749 0.930 . S
C765 C764 1.377 . S
C765 C766 1.379 . S
C766 H750 0.931 . S
C766 C760 1.383 . S
C766 C765 1.379 . S
H767 C761 0.959 . S
H768 C761 0.961 . S
H769 C761 0.960 . S
H770 C762 0.930 . S
H771 C763 0.929 . S
H772 C780 0.929 . S
H773 C782 0.930 . S
H774 C784 0.930 . S
H775 C787 0.929 . S
H776 C790 0.930 . S
H777 C792 0.960 . S
H778 C792 0.960 . S
H779 C792 0.960 . S
C780 H772 0.929 . S
C780 C781 1.377 . S
C780 C782 1.384 . S
C781 C780 1.377 . S
C781 C787 1.390 . S
C782 H773 0.930 . S
C782 C780 1.384 . S
C782 C783 1.372 . S
C783 C782 1.372 . S
C783 C784 1.400 . S
C783 C788 1.490 . S
C784 H774 0.930 . S
C784 C783 1.400 . S
C784 C787 1.386 . S
H785 C801 0.930 . S
H786 C802 0.931 . S
C787 H775 0.929 . S
C787 C781 1.390 . S
C787 C784 1.386 . S
C788 C783 1.490 . S
C788 C790 1.395 1_556 S
C788 C791 1.403 . S
H789 C795 0.930 . S
C790 H776 0.930 . S
C790 C788 1.395 1_554 S
C790 C793 1.403 . S
C791 C788 1.403 . S
C791 C792 1.524 . S
C791 C795 1.400 . S
C792 H777 0.960 . S
C792 H778 0.960 . S
C792 H779 0.960 . S
C792 C791 1.524 . S
C793 C790 1.403 . S
C793 C794 1.392 . S
C793 C797 1.495 . S
C794 C793 1.392 . S
C794 C795 1.385 1_554 S
C794 C796 1.478 . S
C795 H789 0.930 . S
C795 C791 1.400 . S
C795 C794 1.385 1_556 S
C796 C794 1.478 . S
C796 C798 1.381 . S
C796 C802 1.383 . S
C797 C793 1.495 . S
C797 H803 0.959 . S
C797 H804 0.961 . S
C797 H805 0.960 . S
C798 C796 1.381 . S
C798 C799 1.394 . S
C798 H806 0.930 . S
C799 C798 1.394 . S
C799 C800 1.383 . S
C799 H807 0.929 . S
C800 C799 1.383 . S
C800 C801 1.377 . S
C801 H785 0.930 . S
C801 C800 1.377 . S
C801 C802 1.379 . S
C802 H786 0.931 . S
C802 C796 1.383 . S
C802 C801 1.379 . S
H803 C797 0.959 . S
H804 C797 0.961 . S
H805 C797 0.960 . S
H806 C798 0.930 . S
H807 C799 0.929 . S
H808 C816 0.929 . S
H809 C818 0.930 . S
H810 C820 0.930 . S
H811 C823 0.929 . S
H812 C826 0.930 . S
H813 C828 0.960 . S
H814 C828 0.960 . S
H815 C828 0.960 . S
C816 H808 0.929 . S
C816 C817 1.377 . S
C816 C818 1.384 . S
C817 C816 1.377 . S
C817 C823 1.390 . S
C818 H809 0.930 . S
C818 C816 1.384 . S
C818 C819 1.372 . S
C819 C818 1.372 . S
C819 C820 1.400 . S
C819 C824 1.490 . S
C820 H810 0.930 . S
C820 C819 1.400 . S
C820 C823 1.386 . S
H821 C837 0.930 . S
H822 C838 0.931 . S
C823 H811 0.929 . S
C823 C817 1.390 . S
C823 C820 1.386 . S
C824 C819 1.490 . S
C824 C826 1.395 . S
C824 C827 1.403 . S
H825 C831 0.930 . S
C826 H812 0.930 . S
C826 C824 1.395 . S
C826 C829 1.403 . S
C827 C824 1.403 . S
C827 C828 1.524 . S
C827 C831 1.400 . S
C828 H813 0.960 . S
C828 H814 0.960 . S
C828 H815 0.960 . S
C828 C827 1.524 . S
C829 C826 1.403 . S
C829 C830 1.392 . S
C829 C833 1.495 . S
C830 C829 1.392 . S
C830 C831 1.385 . S
C830 C832 1.478 . S
C831 H825 0.930 . S
C831 C827 1.400 . S
C831 C830 1.385 . S
C832 C830 1.478 . S
C832 C834 1.381 . S
C832 C838 1.383 . S
C833 C829 1.495 . S
C833 H839 0.959 . S
C833 H840 0.961 . S
C833 H841 0.960 . S
C834 C832 1.381 . S
C834 C835 1.394 . S
C834 H842 0.930 . S
C835 C834 1.394 . S
C835 C836 1.383 . S
C835 H843 0.929 . S
C836 C835 1.383 . S
C836 C837 1.377 . S
C837 H821 0.930 . S
C837 C836 1.377 . S
C837 C838 1.379 . S
C838 H822 0.931 . S
C838 C832 1.383 . S
C838 C837 1.379 . S
H839 C833 0.959 . S
H840 C833 0.961 . S
H841 C833 0.960 . S
H842 C834 0.930 . S
H843 C835 0.929 . S
H844 C852 0.929 . S
H845 C854 0.930 . S
H846 C856 0.930 . S
H847 C859 0.929 . S
H848 C862 0.930 . S
H849 C864 0.960 . S
H850 C864 0.960 . S
H851 C864 0.960 . S
C852 H844 0.929 . S
C852 C853 1.377 . S
C852 C854 1.384 . S
C853 C852 1.377 . S
C853 C859 1.390 . S
C854 H845 0.930 . S
C854 C852 1.384 . S
C854 C855 1.372 . S
C855 C854 1.372 . S
C855 C856 1.400 . S
C855 C860 1.490 . S
C856 H846 0.930 . S
C856 C855 1.400 . S
C856 C859 1.386 . S
H857 C873 0.930 . S
H858 C874 0.931 . S
C859 H847 0.929 . S
C859 C853 1.390 . S
C859 C856 1.386 . S
C860 C855 1.490 . S
C860 C862 1.395 . S
C860 C863 1.403 . S
H861 C867 0.930 . S
C862 H848 0.930 . S
C862 C860 1.395 . S
C862 C865 1.403 . S
C863 C860 1.403 . S
C863 C864 1.524 . S
C863 C867 1.400 . S
C864 H849 0.960 . S
C864 H850 0.960 . S
C864 H851 0.960 . S
C864 C863 1.524 . S
C865 C862 1.403 . S
C865 C866 1.392 . S
C865 C869 1.495 . S
C866 C865 1.392 . S
C866 C867 1.385 . S
C866 C868 1.478 . S
C867 H861 0.930 . S
C867 C863 1.400 . S
C867 C866 1.385 . S
C868 C866 1.478 . S
C868 C870 1.381 . S
C868 C874 1.383 . S
C869 C865 1.495 . S
C869 H875 0.959 . S
C869 H876 0.961 . S
C869 H877 0.960 . S
C870 C868 1.381 . S
C870 C871 1.394 . S
C870 H878 0.930 . S
C871 C870 1.394 . S
C871 C872 1.383 . S
C871 H879 0.929 . S
C872 C871 1.383 . S
C872 C873 1.377 . S
C873 H857 0.930 . S
C873 C872 1.377 . S
C873 C874 1.379 . S
C874 H858 0.931 . S
C874 C868 1.383 . S
C874 C873 1.379 . S
H875 C869 0.959 . S
H876 C869 0.961 . S
H877 C869 0.960 . S
H878 C870 0.930 . S
H879 C871 0.929 . S
H880 C888 0.929 . S
H881 C890 0.930 . S
H882 C892 0.930 . S
H883 C895 0.929 . S
H884 C898 0.930 . S
H885 C900 0.960 . S
H886 C900 0.960 . S
H887 C900 0.960 . S
C888 H880 0.929 . S
C888 C889 1.377 . S
C888 C890 1.384 . S
C889 C888 1.377 . S
C889 C895 1.390 . S
C890 H881 0.930 . S
C890 C888 1.384 . S
C890 C891 1.372 . S
C891 C890 1.372 . S
C891 C892 1.400 . S
C891 C896 1.490 . S
C892 H882 0.930 . S
C892 C891 1.400 . S
C892 C895 1.386 . S
H893 C909 0.930 . S
H894 C910 0.931 . S
C895 H883 0.929 . S
C895 C889 1.390 . S
C895 C892 1.386 . S
C896 C891 1.490 . S
C896 C898 1.395 . S
C896 C899 1.403 . S
H897 C903 0.930 . S
C898 H884 0.930 . S
C898 C896 1.395 . S
C898 C901 1.403 . S
C899 C896 1.403 . S
C899 C900 1.524 . S
C899 C903 1.400 . S
C900 H885 0.960 . S
C900 H886 0.960 . S
C900 H887 0.960 . S
C900 C899 1.524 . S
C901 C898 1.403 . S
C901 C902 1.392 . S
C901 C905 1.495 . S
C902 C901 1.392 . S
C902 C903 1.385 . S
C902 C904 1.478 . S
C903 H897 0.930 . S
C903 C899 1.400 . S
C903 C902 1.385 . S
C904 C902 1.478 . S
C904 C906 1.381 . S
C904 C910 1.383 . S
C905 C901 1.495 . S
C905 H911 0.959 . S
C905 H912 0.961 . S
C905 H913 0.960 . S
C906 C904 1.381 . S
C906 C907 1.394 . S
C906 H914 0.930 . S
C907 C906 1.394 . S
C907 C908 1.383 . S
C907 H915 0.929 . S
C908 C907 1.383 . S
C908 C909 1.377 . S
C909 H893 0.930 . S
C909 C908 1.377 . S
C909 C910 1.379 . S
C910 H894 0.931 . S
C910 C904 1.383 . S
C910 C909 1.379 . S
H911 C905 0.959 . S
H912 C905 0.961 . S
H913 C905 0.960 . S
H914 C906 0.930 . S
H915 C907 0.929 . S
H916 C924 0.929 . S
H917 C926 0.930 . S
H918 C928 0.930 1_556 S
H919 C931 0.929 . S
H920 C934 0.930 . S
H921 C936 0.960 . S
H922 C936 0.960 . S
H923 C936 0.960 . S
C924 H916 0.929 . S
C924 C925 1.377 . S
C924 C926 1.384 . S
C925 C924 1.377 . S
C925 C931 1.390 . S
C926 H917 0.930 . S
C926 C924 1.384 . S
C926 C927 1.372 . S
C927 C926 1.372 . S
C927 C928 1.400 . S
C927 C932 1.490 . S
C928 H918 0.930 1_554 S
C928 C927 1.400 . S
C928 C931 1.386 . S
H929 C945 0.930 . S
H930 C946 0.931 . S
C931 H919 0.929 . S
C931 C925 1.390 . S
C931 C928 1.386 . S
C932 C927 1.490 . S
C932 C934 1.395 . S
C932 C935 1.403 1_554 S
H933 C939 0.930 . S
C934 H920 0.930 . S
C934 C932 1.395 . S
C934 C937 1.403 . S
C935 C932 1.403 1_556 S
C935 C936 1.524 . S
C935 C939 1.400 . S
C936 H921 0.960 . S
C936 H922 0.960 . S
C936 H923 0.960 . S
C936 C935 1.524 . S
C937 C934 1.403 . S
C937 C938 1.392 1_554 S
C937 C941 1.495 . S
C938 C937 1.392 1_556 S
C938 C939 1.385 . S
C938 C940 1.478 . S
C939 H933 0.930 . S
C939 C935 1.400 . S
C939 C938 1.385 . S
C940 C938 1.478 . S
C940 C942 1.381 . S
C940 C946 1.383 . S
C941 C937 1.495 . S
C941 H947 0.959 . S
C941 H948 0.961 . S
C941 H949 0.960 . S
C942 C940 1.381 . S
C942 C943 1.394 . S
C942 H950 0.930 1_556 S
C943 C942 1.394 . S
C943 C944 1.383 . S
C943 H951 0.929 . S
C944 C943 1.383 . S
C944 C945 1.377 . S
C945 H929 0.930 . S
C945 C944 1.377 . S
C945 C946 1.379 . S
C946 H930 0.931 . S
C946 C940 1.383 . S
C946 C945 1.379 . S
H947 C941 0.959 . S
H948 C941 0.961 . S
H949 C941 0.960 . S
H950 C942 0.930 1_554 S
H951 C943 0.929 . S
H952 C960 0.929 . S
H953 C962 0.930 . S
H954 C964 0.930 . S
H955 C967 0.929 . S
H956 C970 0.930 . S
H957 C972 0.960 . S
H958 C972 0.960 . S
H959 C972 0.960 . S
C960 H952 0.929 . S
C960 C961 1.377 . S
C960 C962 1.384 . S
C961 C960 1.377 . S
C961 C967 1.390 . S
C962 H953 0.930 . S
C962 C960 1.384 . S
C962 C963 1.372 . S
C963 C962 1.372 . S
C963 C964 1.400 . S
C963 C968 1.490 . S
C964 H954 0.930 . S
C964 C963 1.400 . S
C964 C967 1.386 . S
H965 C981 0.930 . S
H966 C982 0.931 . S
C967 H955 0.929 . S
C967 C961 1.390 . S
C967 C964 1.386 . S
C968 C963 1.490 . S
C968 C970 1.395 . S
C968 C971 1.403 . S
H969 C975 0.930 . S
C970 H956 0.930 . S
C970 C968 1.395 . S
C970 C973 1.403 . S
C971 C968 1.403 . S
C971 C972 1.524 . S
C971 C975 1.400 . S
C972 H957 0.960 . S
C972 H958 0.960 . S
C972 H959 0.960 . S
C972 C971 1.524 . S
C973 C970 1.403 . S
C973 C974 1.392 . S
C973 C977 1.495 . S
C974 C973 1.392 . S
C974 C975 1.385 . S
C974 C976 1.478 . S
C975 H969 0.930 . S
C975 C971 1.400 . S
C975 C974 1.385 . S
C976 C974 1.478 . S
C976 C978 1.381 . S
C976 C982 1.383 . S
C977 C973 1.495 . S
C977 H983 0.959 . S
C977 H984 0.961 . S
C977 H985 0.960 . S
C978 C976 1.381 . S
C978 C979 1.394 . S
C978 H986 0.930 . S
C979 C978 1.394 . S
C979 C980 1.383 . S
C979 H987 0.929 . S
C980 C979 1.383 . S
C980 C981 1.377 . S
C981 H965 0.930 . S
C981 C980 1.377 . S
C981 C982 1.379 . S
C982 H966 0.931 . S
C982 C976 1.383 . S
C982 C981 1.379 . S
H983 C977 0.959 . S
H984 C977 0.961 . S
H985 C977 0.960 . S
H986 C978 0.930 . S
H987 C979 0.929 . S
H988 C996 0.929 . S
H989 C998 0.930 . S
H990 C1000 0.930 . S
H991 C1003 0.929 . S
H992 C1006 0.930 . S
H993 C1008 0.960 . S
H994 C1008 0.960 . S
H995 C1008 0.960 . S
C996 H988 0.929 . S
C996 C997 1.377 . S
C996 C998 1.384 . S
C997 C996 1.377 . S
C997 C1003 1.390 . S
C998 H989 0.930 . S
C998 C996 1.384 . S
C998 C999 1.372 . S
C999 C998 1.372 . S
C999 C1000 1.400 . S
C999 C1004 1.490 . S
C1000 H990 0.930 . S
C1000 C999 1.400 . S
C1000 C1003 1.386 . S
H1001 C1017 0.930 . S
H1002 C1018 0.931 . S
C1003 H991 0.929 . S
C1003 C997 1.390 . S
C1003 C1000 1.386 . S
C1004 C999 1.490 . S
C1004 C1006 1.395 . S
C1004 C1007 1.403 . S
H1005 C1011 0.930 . S
C1006 H992 0.930 . S
C1006 C1004 1.395 . S
C1006 C1009 1.403 . S
C1007 C1004 1.403 . S
C1007 C1008 1.524 . S
C1007 C1011 1.400 . S
C1008 H993 0.960 . S
C1008 H994 0.960 . S
C1008 H995 0.960 . S
C1008 C1007 1.524 . S
C1009 C1006 1.403 . S
C1009 C1010 1.392 . S
C1009 C1013 1.495 . S
C1010 C1009 1.392 . S
C1010 C1011 1.385 . S
C1010 C1012 1.478 . S
C1011 H1005 0.930 . S
C1011 C1007 1.400 . S
C1011 C1010 1.385 . S
C1012 C1010 1.478 . S
C1012 C1014 1.381 . S
C1012 C1018 1.383 . S
C1013 C1009 1.495 . S
C1013 H1019 0.959 . S
C1013 H1020 0.961 . S
C1013 H1021 0.960 . S
C1014 C1012 1.381 . S
C1014 C1015 1.394 . S
C1014 H1022 0.930 . S
C1015 C1014 1.394 . S
C1015 C1016 1.383 . S
C1015 H1023 0.929 . S
C1016 C1015 1.383 . S
C1016 C1017 1.377 . S
C1017 H1001 0.930 . S
C1017 C1016 1.377 . S
C1017 C1018 1.379 . S
C1018 H1002 0.931 . S
C1018 C1012 1.383 . S
C1018 C1017 1.379 . S
H1019 C1013 0.959 . S
H1020 C1013 0.961 . S
H1021 C1013 0.960 . S
H1022 C1014 0.930 . S
H1023 C1015 0.929 . S
H1024 C1032 0.929 . S
H1025 C1034 0.930 . S
H1026 C1036 0.930 . S
H1027 C1039 0.929 . S
H1028 C1042 0.930 . S
H1029 C1044 0.960 . S
H1030 C1044 0.960 . S
H1031 C1044 0.960 . S
C1032 H1024 0.929 . S
C1032 C1033 1.377 1_556 S
C1032 C1034 1.384 . S
C1033 C1032 1.377 1_554 S
C1033 C1039 1.390 . S
C1034 H1025 0.930 . S
C1034 C1032 1.384 . S
C1034 C1035 1.372 . S
C1035 C1034 1.372 . S
C1035 C1036 1.400 . S
C1035 C1040 1.490 . S
C1036 H1026 0.930 . S
C1036 C1035 1.400 . S
C1036 C1039 1.386 1_556 S
H1037 C1053 0.930 . S
H1038 C1054 0.931 . S
C1039 H1027 0.929 . S
C1039 C1033 1.390 . S
C1039 C1036 1.386 1_554 S
C1040 C1035 1.490 . S
C1040 C1042 1.395 . S
C1040 C1043 1.403 . S
H1041 C1047 0.930 . S
C1042 H1028 0.930 . S
C1042 C1040 1.395 . S
C1042 C1045 1.403 . S
C1043 C1040 1.403 . S
C1043 C1044 1.524 . S
C1043 C1047 1.400 . S
C1044 H1029 0.960 . S
C1044 H1030 0.960 . S
C1044 H1031 0.960 . S
C1044 C1043 1.524 . S
C1045 C1042 1.403 . S
C1045 C1046 1.392 . S
C1045 C1049 1.495 . S
C1046 C1045 1.392 . S
C1046 C1047 1.385 . S
C1046 C1048 1.478 . S
C1047 H1041 0.930 . S
C1047 C1043 1.400 . S
C1047 C1046 1.385 . S
C1048 C1046 1.478 . S
C1048 C1050 1.381 . S
C1048 C1054 1.383 . S
C1049 C1045 1.495 . S
C1049 H1055 0.959 . S
C1049 H1056 0.961 . S
C1049 H1057 0.960 . S
C1050 C1048 1.381 . S
C1050 C1051 1.394 . S
C1050 H1058 0.930 . S
C1051 C1050 1.394 . S
C1051 C1052 1.383 . S
C1051 H1059 0.929 . S
C1052 C1051 1.383 . S
C1052 C1053 1.377 . S
C1053 H1037 0.930 . S
C1053 C1052 1.377 . S
C1053 C1054 1.379 . S
C1054 H1038 0.931 . S
C1054 C1048 1.383 . S
C1054 C1053 1.379 . S
H1055 C1049 0.959 . S
H1056 C1049 0.961 . S
H1057 C1049 0.960 . S
H1058 C1050 0.930 . S
H1059 C1051 0.929 . S
H1060 C1068 0.929 . S
H1061 C1070 0.930 . S
H1062 C1072 0.930 . S
H1063 C1075 0.929 . S
H1064 C1078 0.930 . S
H1065 C1080 0.960 . S
H1066 C1080 0.960 . S
H1067 C1080 0.960 . S
C1068 H1060 0.929 . S
C1068 C1069 1.377 . S
C1068 C1070 1.384 1_556 S
C1069 C1068 1.377 . S
C1069 C1075 1.390 1_556 S
C1070 H1061 0.930 . S
C1070 C1068 1.384 1_554 S
C1070 C1071 1.372 . S
C1071 C1070 1.372 . S
C1071 C1072 1.400 . S
C1071 C1076 1.490 . S
C1072 H1062 0.930 . S
C1072 C1071 1.400 . S
C1072 C1075 1.386 . S
H1073 C1089 0.930 . S
H1074 C1090 0.931 . S
C1075 H1063 0.929 . S
C1075 C1069 1.390 1_554 S
C1075 C1072 1.386 . S
C1076 C1071 1.490 . S
C1076 C1078 1.395 . S
C1076 C1079 1.403 . S
H1077 C1083 0.930 . S
C1078 H1064 0.930 . S
C1078 C1076 1.395 . S
C1078 C1081 1.403 . S
C1079 C1076 1.403 . S
C1079 C1080 1.524 . S
C1079 C1083 1.400 . S
C1080 H1065 0.960 . S
C1080 H1066 0.960 . S
C1080 H1067 0.960 . S
C1080 C1079 1.524 . S
C1081 C1078 1.403 . S
C1081 C1082 1.392 . S
C1081 C1085 1.495 . S
C1082 C1081 1.392 . S
C1082 C1083 1.385 . S
C1082 C1084 1.478 . S
C1083 H1077 0.930 . S
C1083 C1079 1.400 . S
C1083 C1082 1.385 . S
C1084 C1082 1.478 . S
C1084 C1086 1.381 . S
C1084 C1090 1.383 . S
C1085 C1081 1.495 . S
C1085 H1091 0.959 . S
C1085 H1092 0.961 . S
C1085 H1093 0.960 . S
C1086 C1084 1.381 . S
C1086 C1087 1.394 . S
C1086 H1094 0.930 . S
C1087 C1086 1.394 . S
C1087 C1088 1.383 . S
C1087 H1095 0.929 . S
C1088 C1087 1.383 . S
C1088 C1089 1.377 . S
C1089 H1073 0.930 . S
C1089 C1088 1.377 . S
C1089 C1090 1.379 . S
C1090 H1074 0.931 . S
C1090 C1084 1.383 . S
C1090 C1089 1.379 . S
H1091 C1085 0.959 . S
H1092 C1085 0.961 . S
H1093 C1085 0.960 . S
H1094 C1086 0.930 . S
H1095 C1087 0.929 . S
H1096 C1104 0.929 . S
H1097 C1106 0.930 . S
H1098 C1108 0.930 . S
H1099 C1111 0.929 . S
H1100 C1114 0.930 . S
H1101 C1116 0.960 . S
H1102 C1116 0.960 . S
H1103 C1116 0.960 . S
C1104 H1096 0.929 . S
C1104 C1105 1.377 . S
C1104 C1106 1.384 . S
C1105 C1104 1.377 . S
C1105 C1111 1.390 . S
C1106 H1097 0.930 . S
C1106 C1104 1.384 . S
C1106 C1107 1.372 . S
C1107 C1106 1.372 . S
C1107 C1108 1.400 . S
C1107 C1112 1.490 . S
C1108 H1098 0.930 . S
C1108 C1107 1.400 . S
C1108 C1111 1.386 . S
H1109 C1125 0.930 . S
H1110 C1126 0.931 . S
C1111 H1099 0.929 . S
C1111 C1105 1.390 . S
C1111 C1108 1.386 . S
C1112 C1107 1.490 . S
C1112 C1114 1.395 . S
C1112 C1115 1.403 . S
H1113 C1119 0.930 . S
C1114 H1100 0.930 . S
C1114 C1112 1.395 . S
C1114 C1117 1.403 . S
C1115 C1112 1.403 . S
C1115 C1116 1.524 . S
C1115 C1119 1.400 . S
C1116 H1101 0.960 . S
C1116 H1102 0.960 . S
C1116 H1103 0.960 . S
C1116 C1115 1.524 . S
C1117 C1114 1.403 . S
C1117 C1118 1.392 . S
C1117 C1121 1.495 . S
C1118 C1117 1.392 . S
C1118 C1119 1.385 . S
C1118 C1120 1.478 . S
C1119 H1113 0.930 . S
C1119 C1115 1.400 . S
C1119 C1118 1.385 . S
C1120 C1118 1.478 . S
C1120 C1122 1.381 . S
C1120 C1126 1.383 . S
C1121 C1117 1.495 . S
C1121 H1127 0.959 . S
C1121 H1128 0.961 . S
C1121 H1129 0.960 . S
C1122 C1120 1.381 . S
C1122 C1123 1.394 . S
C1122 H1130 0.930 . S
C1123 C1122 1.394 . S
C1123 C1124 1.383 . S
C1123 H1131 0.929 . S
C1124 C1123 1.383 . S
C1124 C1125 1.377 . S
C1125 H1109 0.930 . S
C1125 C1124 1.377 . S
C1125 C1126 1.379 . S
C1126 H1110 0.931 . S
C1126 C1120 1.383 . S
C1126 C1125 1.379 . S
H1127 C1121 0.959 . S
H1128 C1121 0.961 . S
H1129 C1121 0.960 . S
H1130 C1122 0.930 . S
H1131 C1123 0.929 . S
H1132 C1140 0.929 . S
H1133 C1142 0.930 . S
H1134 C1144 0.930 . S
H1135 C1147 0.929 . S
H1136 C1150 0.930 . S
H1137 C1152 0.960 . S
H1138 C1152 0.960 . S
H1139 C1152 0.960 . S
C1140 H1132 0.929 . S
C1140 C1141 1.377 . S
C1140 C1142 1.384 . S
C1141 C1140 1.377 . S
C1141 C1147 1.390 . S
C1142 H1133 0.930 . S
C1142 C1140 1.384 . S
C1142 C1143 1.372 . S
C1143 C1142 1.372 . S
C1143 C1144 1.400 . S
C1143 C1148 1.490 . S
C1144 H1134 0.930 . S
C1144 C1143 1.400 . S
C1144 C1147 1.386 . S
H1145 C1161 0.930 . S
H1146 C1162 0.931 . S
C1147 H1135 0.929 . S
C1147 C1141 1.390 . S
C1147 C1144 1.386 . S
C1148 C1143 1.490 . S
C1148 C1150 1.395 . S
C1148 C1151 1.403 . S
H1149 C1155 0.930 . S
C1150 H1136 0.930 . S
C1150 C1148 1.395 . S
C1150 C1153 1.403 . S
C1151 C1148 1.403 . S
C1151 C1152 1.524 . S
C1151 C1155 1.400 . S
C1152 H1137 0.960 . S
C1152 H1138 0.960 . S
C1152 H1139 0.960 . S
C1152 C1151 1.524 . S
C1153 C1150 1.403 . S
C1153 C1154 1.392 . S
C1153 C1157 1.495 . S
C1154 C1153 1.392 . S
C1154 C1155 1.385 . S
C1154 C1156 1.478 . S
C1155 H1149 0.930 . S
C1155 C1151 1.400 . S
C1155 C1154 1.385 . S
C1156 C1154 1.478 . S
C1156 C1158 1.381 . S
C1156 C1162 1.383 . S
C1157 C1153 1.495 . S
C1157 H1163 0.959 . S
C1157 H1164 0.961 . S
C1157 H1165 0.960 . S
C1158 C1156 1.381 . S
C1158 C1159 1.394 . S
C1158 H1166 0.930 . S
C1159 C1158 1.394 . S
C1159 C1160 1.383 . S
C1159 H1167 0.929 . S
C1160 C1159 1.383 . S
C1160 C1161 1.377 . S
C1161 H1145 0.930 . S
C1161 C1160 1.377 . S
C1161 C1162 1.379 . S
C1162 H1146 0.931 . S
C1162 C1156 1.383 . S
C1162 C1161 1.379 . S
H1163 C1157 0.959 . S
H1164 C1157 0.961 . S
H1165 C1157 0.960 . S
H1166 C1158 0.930 . S
H1167 C1159 0.929 . S
H1168 C1176 0.926 1_556 S
H1169 C1178 0.930 . S
H1170 C1180 0.930 . S
H1171 C1183 0.938 . S
H1172 C1186 0.930 . S
H1173 C1188 0.960 . S
H1174 C1188 0.960 . S
H1175 C1188 0.960 . S
C1176 H1168 0.926 1_554 S
C1176 C1177 1.377 1_554 S
C1176 C1178 1.384 . S
C1177 C1176 1.377 1_556 S
C1177 C1183 1.395 . S
C1178 H1169 0.930 . S
C1178 C1176 1.384 . S
C1178 C1179 1.372 . S
C1179 C1178 1.372 . S
C1179 C1180 1.400 . S
C1179 C1184 1.490 . S
C1180 H1170 0.930 . S
C1180 C1179 1.400 . S
C1180 C1183 1.372 1_554 S
H1181 C1197 0.930 . S
H1182 C1198 0.931 . S
C1183 H1171 0.938 . S
C1183 C1177 1.395 . S
C1183 C1180 1.372 1_556 S
C1184 C1179 1.490 . S
C1184 C1186 1.395 . S
C1184 C1187 1.403 . S
H1185 C1191 0.930 . S
C1186 H1172 0.930 . S
C1186 C1184 1.395 . S
C1186 C1189 1.403 . S
C1187 C1184 1.403 . S
C1187 C1188 1.524 . S
C1187 C1191 1.400 . S
C1188 H1173 0.960 . S
C1188 H1174 0.960 . S
C1188 H1175 0.960 . S
C1188 C1187 1.524 . S
C1189 C1186 1.403 . S
C1189 C1190 1.392 . S
C1189 C1193 1.495 . S
C1190 C1189 1.392 . S
C1190 C1191 1.385 . S
C1190 C1192 1.478 . S
C1191 H1185 0.930 . S
C1191 C1187 1.400 . S
C1191 C1190 1.385 . S
C1192 C1190 1.478 . S
C1192 C1194 1.381 . S
C1192 C1198 1.383 . S
C1193 C1189 1.495 . S
C1193 H1199 0.959 . S
C1193 H1200 0.961 . S
C1193 H1201 0.960 . S
C1194 C1192 1.381 . S
C1194 C1195 1.394 . S
C1194 H1202 0.930 . S
C1195 C1194 1.394 . S
C1195 C1196 1.383 . S
C1195 H1203 0.929 . S
C1196 C1195 1.383 . S
C1196 C1197 1.377 . S
C1197 H1181 0.930 . S
C1197 C1196 1.377 . S
C1197 C1198 1.379 . S
C1198 H1182 0.931 . S
C1198 C1192 1.383 . S
C1198 C1197 1.379 . S
H1199 C1193 0.959 . S
H1200 C1193 0.961 . S
H1201 C1193 0.960 . S
H1202 C1194 0.930 . S
H1203 C1195 0.929 . S
H1204 C1212 0.929 . S
H1205 C1214 0.930 . S
H1206 C1216 0.930 . S
H1207 C1219 0.929 . S
H1208 C1222 0.930 . S
H1209 C1224 0.960 . S
H1210 C1224 0.960 . S
H1211 C1224 0.960 . S
C1212 H1204 0.929 . S
C1212 C1213 1.377 1_556 S
C1212 C1214 1.384 . S
C1213 C1212 1.377 1_554 S
C1213 C1219 1.390 . S
C1214 H1205 0.930 . S
C1214 C1212 1.384 . S
C1214 C1215 1.372 . S
C1215 C1214 1.372 . S
C1215 C1216 1.400 . S
C1215 C1220 1.490 . S
C1216 H1206 0.930 . S
C1216 C1215 1.400 . S
C1216 C1219 1.386 1_556 S
H1217 C1233 0.930 . S
H1218 C1234 0.931 . S
C1219 H1207 0.929 . S
C1219 C1213 1.390 . S
C1219 C1216 1.386 1_554 S
C1220 C1215 1.490 . S
C1220 C1222 1.395 . S
C1220 C1223 1.403 . S
H1221 C1227 0.930 . S
C1222 H1208 0.930 . S
C1222 C1220 1.395 . S
C1222 C1225 1.403 . S
C1223 C1220 1.403 . S
C1223 C1224 1.524 . S
C1223 C1227 1.400 . S
C1224 H1209 0.960 . S
C1224 H1210 0.960 . S
C1224 H1211 0.960 . S
C1224 C1223 1.524 . S
C1225 C1222 1.403 . S
C1225 C1226 1.392 . S
C1225 C1229 1.495 . S
C1226 C1225 1.392 . S
C1226 C1227 1.385 . S
C1226 C1228 1.478 . S
C1227 H1221 0.930 . S
C1227 C1223 1.400 . S
C1227 C1226 1.385 . S
C1228 C1226 1.478 . S
C1228 C1230 1.381 . S
C1228 C1234 1.383 . S
C1229 C1225 1.495 . S
C1229 H1235 0.959 . S
C1229 H1236 0.961 . S
C1229 H1237 0.960 . S
C1230 C1228 1.381 . S
C1230 C1231 1.394 . S
C1230 H1238 0.930 . S
C1231 C1230 1.394 . S
C1231 C1232 1.383 . S
C1231 H1239 0.929 . S
C1232 C1231 1.383 . S
C1232 C1233 1.377 . S
C1233 H1217 0.930 . S
C1233 C1232 1.377 . S
C1233 C1234 1.379 . S
C1234 H1218 0.931 . S
C1234 C1228 1.383 . S
C1234 C1233 1.379 . S
H1235 C1229 0.959 . S
H1236 C1229 0.961 . S
H1237 C1229 0.960 . S
H1238 C1230 0.930 . S
H1239 C1231 0.929 . S
H1240 C1248 0.929 . S
H1241 C1250 0.930 . S
H1242 C1252 0.930 . S
H1243 C1255 0.929 . S
H1244 C1258 0.930 . S
H1245 C1260 0.960 . S
H1246 C1260 0.960 . S
H1247 C1260 0.960 . S
C1248 H1240 0.929 . S
C1248 C1249 1.377 . S
C1248 C1250 1.384 . S
C1249 C1248 1.377 . S
C1249 C1255 1.390 . S
C1250 H1241 0.930 . S
C1250 C1248 1.384 . S
C1250 C1251 1.372 . S
C1251 C1250 1.372 . S
C1251 C1252 1.400 . S
C1251 C1256 1.490 . S
C1252 H1242 0.930 . S
C1252 C1251 1.400 . S
C1252 C1255 1.386 . S
H1253 C1269 0.930 . S
H1254 C1270 0.931 . S
C1255 H1243 0.929 . S
C1255 C1249 1.390 . S
C1255 C1252 1.386 . S
C1256 C1251 1.490 . S
C1256 C1258 1.395 . S
C1256 C1259 1.403 . S
H1257 C1263 0.930 . S
C1258 H1244 0.930 . S
C1258 C1256 1.395 . S
C1258 C1261 1.403 . S
C1259 C1256 1.403 . S
C1259 C1260 1.524 . S
C1259 C1263 1.400 . S
C1260 H1245 0.960 . S
C1260 H1246 0.960 . S
C1260 H1247 0.960 . S
C1260 C1259 1.524 . S
C1261 C1258 1.403 . S
C1261 C1262 1.392 . S
C1261 C1265 1.495 . S
C1262 C1261 1.392 . S
C1262 C1263 1.385 . S
C1262 C1264 1.478 . S
C1263 H1257 0.930 . S
C1263 C1259 1.400 . S
C1263 C1262 1.385 . S
C1264 C1262 1.478 . S
C1264 C1266 1.381 . S
C1264 C1270 1.383 . S
C1265 C1261 1.495 . S
C1265 H1271 0.959 . S
C1265 H1272 0.961 . S
C1265 H1273 0.960 . S
C1266 C1264 1.381 . S
C1266 C1267 1.394 . S
C1266 H1274 0.930 . S
C1267 C1266 1.394 . S
C1267 C1268 1.383 . S
C1267 H1275 0.929 . S
C1268 C1267 1.383 . S
C1268 C1269 1.377 . S
C1269 H1253 0.930 . S
C1269 C1268 1.377 . S
C1269 C1270 1.379 . S
C1270 H1254 0.931 . S
C1270 C1264 1.383 . S
C1270 C1269 1.379 . S
H1271 C1265 0.959 . S
H1272 C1265 0.961 . S
H1273 C1265 0.960 . S
H1274 C1266 0.930 . S
H1275 C1267 0.929 . S
H1276 C1284 0.929 . S
H1277 C1286 0.930 . S
H1278 C1288 0.930 . S
H1279 C1291 0.929 . S
H1280 C1294 0.930 . S
H1281 C1296 0.960 . S
H1282 C1296 0.960 . S
H1283 C1296 0.960 . S
C1284 H1276 0.929 . S
C1284 C1285 1.377 . S
C1284 C1286 1.384 . S
C1285 C1284 1.377 . S
C1285 C1291 1.390 . S
C1286 H1277 0.930 . S
C1286 C1284 1.384 . S
C1286 C1287 1.372 . S
C1287 C1286 1.372 . S
C1287 C1288 1.400 . S
C1287 C1292 1.490 . S
C1288 H1278 0.930 . S
C1288 C1287 1.400 . S
C1288 C1291 1.386 . S
H1289 C1305 0.930 . S
H1290 C1306 0.931 . S
C1291 H1279 0.929 . S
C1291 C1285 1.390 . S
C1291 C1288 1.386 . S
C1292 C1287 1.490 . S
C1292 C1294 1.395 . S
C1292 C1295 1.403 . S
H1293 C1299 0.930 . S
C1294 H1280 0.930 . S
C1294 C1292 1.395 . S
C1294 C1297 1.403 . S
C1295 C1292 1.403 . S
C1295 C1296 1.524 . S
C1295 C1299 1.400 . S
C1296 H1281 0.960 . S
C1296 H1282 0.960 . S
C1296 H1283 0.960 . S
C1296 C1295 1.524 . S
C1297 C1294 1.403 . S
C1297 C1298 1.392 . S
C1297 C1301 1.495 . S
C1298 C1297 1.392 . S
C1298 C1299 1.385 . S
C1298 C1300 1.478 . S
C1299 H1293 0.930 . S
C1299 C1295 1.400 . S
C1299 C1298 1.385 . S
C1300 C1298 1.478 . S
C1300 C1302 1.381 . S
C1300 C1306 1.383 . S
C1301 C1297 1.495 . S
C1301 H1307 0.959 . S
C1301 H1308 0.961 . S
C1301 H1309 0.960 . S
C1302 C1300 1.381 . S
C1302 C1303 1.394 . S
C1302 H1310 0.930 . S
C1303 C1302 1.394 . S
C1303 C1304 1.383 . S
C1303 H1311 0.929 . S
C1304 C1303 1.383 . S
C1304 C1305 1.377 . S
C1305 H1289 0.930 . S
C1305 C1304 1.377 . S
C1305 C1306 1.379 . S
C1306 H1290 0.931 . S
C1306 C1300 1.383 . S
C1306 C1305 1.379 . S
H1307 C1301 0.959 . S
H1308 C1301 0.961 . S
H1309 C1301 0.960 . S
H1310 C1302 0.930 . S
H1311 C1303 0.929 . S
H1312 C1320 0.929 . S
H1313 C1322 0.930 . S
H1314 C1324 0.930 . S
H1315 C1327 0.929 . S
H1316 C1330 0.930 . S
H1317 C1332 0.960 . S
H1318 C1332 0.960 . S
H1319 C1332 0.960 . S
C1320 H1312 0.929 . S
C1320 C1321 1.377 . S
C1320 C1322 1.384 . S
C1321 C1320 1.377 . S
C1321 C1327 1.390 . S
C1322 H1313 0.930 . S
C1322 C1320 1.384 . S
C1322 C1323 1.372 . S
C1323 C1322 1.372 . S
C1323 C1324 1.400 . S
C1323 C1328 1.490 . S
C1324 H1314 0.930 . S
C1324 C1323 1.400 . S
C1324 C1327 1.386 . S
H1325 C1341 0.930 . S
H1326 C1342 0.931 . S
C1327 H1315 0.929 . S
C1327 C1321 1.390 . S
C1327 C1324 1.386 . S
C1328 C1323 1.490 . S
C1328 C1330 1.395 . S
C1328 C1331 1.403 . S
H1329 C1335 0.930 . S
C1330 H1316 0.930 . S
C1330 C1328 1.395 . S
C1330 C1333 1.403 . S
C1331 C1328 1.403 . S
C1331 C1332 1.524 . S
C1331 C1335 1.400 . S
C1332 H1317 0.960 . S
C1332 H1318 0.960 . S
C1332 H1319 0.960 . S
C1332 C1331 1.524 . S
C1333 C1330 1.403 . S
C1333 C1334 1.392 . S
C1333 C1337 1.495 . S
C1334 C1333 1.392 . S
C1334 C1335 1.385 . S
C1334 C1336 1.478 . S
C1335 H1329 0.930 . S
C1335 C1331 1.400 . S
C1335 C1334 1.385 . S
C1336 C1334 1.478 . S
C1336 C1338 1.381 . S
C1336 C1342 1.383 . S
C1337 C1333 1.495 . S
C1337 H1343 0.959 . S
C1337 H1344 0.961 . S
C1337 H1345 0.960 . S
C1338 C1336 1.381 . S
C1338 C1339 1.394 . S
C1338 H1346 0.930 . S
C1339 C1338 1.394 . S
C1339 C1340 1.383 . S
C1339 H1347 0.929 . S
C1340 C1339 1.383 . S
C1340 C1341 1.377 . S
C1341 H1325 0.930 . S
C1341 C1340 1.377 . S
C1341 C1342 1.379 . S
C1342 H1326 0.931 . S
C1342 C1336 1.383 . S
C1342 C1341 1.379 . S
H1343 C1337 0.959 . S
H1344 C1337 0.961 . S
H1345 C1337 0.960 . S
H1346 C1338 0.930 . S
H1347 C1339 0.929 . S
H1348 C1356 0.929 . S
H1349 C1358 0.930 . S
H1350 C1360 0.930 . S
H1351 C1363 0.929 . S
H1352 C1366 0.930 . S
H1353 C1368 0.960 . S
H1354 C1368 0.960 . S
H1355 C1368 0.960 . S
C1356 H1348 0.929 . S
C1356 C1357 1.377 . S
C1356 C1358 1.384 . S
C1357 C1356 1.377 . S
C1357 C1363 1.390 . S
C1358 H1349 0.930 . S
C1358 C1356 1.384 . S
C1358 C1359 1.372 . S
C1359 C1358 1.372 . S
C1359 C1360 1.400 . S
C1359 C1364 1.490 . S
C1360 H1350 0.930 . S
C1360 C1359 1.400 . S
C1360 C1363 1.386 . S
H1361 C1377 0.930 . S
H1362 C1378 0.931 . S
C1363 H1351 0.929 . S
C1363 C1357 1.390 . S
C1363 C1360 1.386 . S
C1364 C1359 1.490 . S
C1364 C1366 1.395 . S
C1364 C1367 1.403 . S
H1365 C1371 0.930 . S
C1366 H1352 0.930 . S
C1366 C1364 1.395 . S
C1366 C1369 1.403 . S
C1367 C1364 1.403 . S
C1367 C1368 1.524 . S
C1367 C1371 1.400 . S
C1368 H1353 0.960 . S
C1368 H1354 0.960 . S
C1368 H1355 0.960 . S
C1368 C1367 1.524 . S
C1369 C1366 1.403 . S
C1369 C1370 1.392 . S
C1369 C1373 1.495 . S
C1370 C1369 1.392 . S
C1370 C1371 1.385 . S
C1370 C1372 1.478 . S
C1371 H1365 0.930 . S
C1371 C1367 1.400 . S
C1371 C1370 1.385 . S
C1372 C1370 1.478 . S
C1372 C1374 1.381 . S
C1372 C1378 1.383 . S
C1373 C1369 1.495 . S
C1373 H1379 0.959 . S
C1373 H1380 0.961 . S
C1373 H1381 0.960 . S
C1374 C1372 1.381 . S
C1374 C1375 1.394 . S
C1374 H1382 0.930 . S
C1375 C1374 1.394 . S
C1375 C1376 1.383 . S
C1375 H1383 0.929 . S
C1376 C1375 1.383 . S
C1376 C1377 1.377 . S
C1377 H1361 0.930 . S
C1377 C1376 1.377 . S
C1377 C1378 1.379 . S
C1378 H1362 0.931 . S
C1378 C1372 1.383 . S
C1378 C1377 1.379 . S
H1379 C1373 0.959 . S
H1380 C1373 0.961 . S
H1381 C1373 0.960 . S
H1382 C1374 0.930 . S
H1383 C1375 0.929 . S
H1384 C1392 0.929 . S
H1385 C1394 0.930 . S
H1386 C1396 0.930 . S
H1387 C1399 0.929 . S
H1388 C1402 0.930 . S
H1389 C1404 0.960 . S
H1390 C1404 0.960 . S
H1391 C1404 0.960 . S
C1392 H1384 0.929 . S
C1392 C1393 1.377 . S
C1392 C1394 1.384 . S
C1393 C1392 1.377 . S
C1393 C1399 1.390 . S
C1394 H1385 0.930 . S
C1394 C1392 1.384 . S
C1394 C1395 1.372 . S
C1395 C1394 1.372 . S
C1395 C1396 1.400 . S
C1395 C1400 1.490 . S
C1396 H1386 0.930 . S
C1396 C1395 1.400 . S
C1396 C1399 1.386 . S
H1397 C1413 0.930 . S
H1398 C1414 0.931 . S
C1399 H1387 0.929 . S
C1399 C1393 1.390 . S
C1399 C1396 1.386 . S
C1400 C1395 1.490 . S
C1400 C1402 1.395 . S
C1400 C1403 1.403 . S
H1401 C1407 0.930 . S
C1402 H1388 0.930 . S
C1402 C1400 1.395 . S
C1402 C1405 1.403 . S
C1403 C1400 1.403 . S
C1403 C1404 1.524 . S
C1403 C1407 1.400 . S
C1404 H1389 0.960 . S
C1404 H1390 0.960 . S
C1404 H1391 0.960 . S
C1404 C1403 1.524 . S
C1405 C1402 1.403 . S
C1405 C1406 1.392 . S
C1405 C1409 1.495 . S
C1406 C1405 1.392 . S
C1406 C1407 1.385 . S
C1406 C1408 1.478 . S
C1407 H1401 0.930 . S
C1407 C1403 1.400 . S
C1407 C1406 1.385 . S
C1408 C1406 1.478 . S
C1408 C1410 1.381 . S
C1408 C1414 1.383 . S
C1409 C1405 1.495 . S
C1409 H1415 0.959 . S
C1409 H1416 0.961 . S
C1409 H1417 0.960 . S
C1410 C1408 1.381 . S
C1410 C1411 1.394 1_556 S
C1410 H1418 0.930 . S
C1411 C1410 1.394 1_554 S
C1411 C1412 1.383 . S
C1411 H1419 0.929 . S
C1412 C1411 1.383 . S
C1412 C1413 1.377 1_554 S
C1413 H1397 0.930 . S
C1413 C1412 1.377 1_556 S
C1413 C1414 1.379 . S
C1414 H1398 0.931 . S
C1414 C1408 1.383 . S
C1414 C1413 1.379 . S
H1415 C1409 0.959 . S
H1416 C1409 0.961 . S
H1417 C1409 0.960 . S
H1418 C1410 0.930 . S
H1419 C1411 0.929 . S
H1420 C1428 0.929 . S
H1421 C1430 0.930 . S
H1422 C1432 0.930 . S
H1423 C1435 0.929 . S
H1424 C1438 0.930 . S
H1425 C1440 0.960 . S
H1426 C1440 0.960 . S
H1427 C1440 0.960 . S
C1428 H1420 0.929 . S
C1428 C1429 1.377 . S
C1428 C1430 1.384 . S
C1429 C1428 1.377 . S
C1429 C1435 1.390 . S
C1430 H1421 0.930 . S
C1430 C1428 1.384 . S
C1430 C1431 1.372 . S
C1431 C1430 1.372 . S
C1431 C1432 1.400 . S
C1431 C1436 1.490 . S
C1432 H1422 0.930 . S
C1432 C1431 1.400 . S
C1432 C1435 1.386 . S
H1433 C1449 0.930 . S
H1434 C1450 0.931 . S
C1435 H1423 0.929 . S
C1435 C1429 1.390 . S
C1435 C1432 1.386 . S
C1436 C1431 1.490 . S
C1436 C1438 1.395 . S
C1436 C1439 1.403 . S
H1437 C1443 0.930 . S
C1438 H1424 0.930 . S
C1438 C1436 1.395 . S
C1438 C1441 1.403 . S
C1439 C1436 1.403 . S
C1439 C1440 1.524 . S
C1439 C1443 1.400 . S
C1440 H1425 0.960 . S
C1440 H1426 0.960 . S
C1440 H1427 0.960 . S
C1440 C1439 1.524 . S
C1441 C1438 1.403 . S
C1441 C1442 1.392 . S
C1441 C1445 1.495 . S
C1442 C1441 1.392 . S
C1442 C1443 1.385 . S
C1442 C1444 1.478 . S
C1443 H1437 0.930 . S
C1443 C1439 1.400 . S
C1443 C1442 1.385 . S
C1444 C1442 1.478 . S
C1444 C1446 1.381 . S
C1444 C1450 1.383 . S
C1445 C1441 1.495 . S
C1445 H1451 0.959 . S
C1445 H1452 0.961 . S
C1445 H1453 0.960 . S
C1446 C1444 1.381 . S
C1446 C1447 1.394 . S
C1446 H1454 0.930 . S
C1447 C1446 1.394 . S
C1447 C1448 1.383 1_554 S
C1447 H1455 0.929 . S
C1448 C1447 1.383 1_556 S
C1448 C1449 1.377 . S
C1449 H1433 0.930 . S
C1449 C1448 1.377 . S
C1449 C1450 1.379 1_556 S
C1450 H1434 0.931 . S
C1450 C1444 1.383 . S
C1450 C1449 1.379 1_554 S
H1451 C1445 0.959 . S
H1452 C1445 0.961 . S
H1453 C1445 0.960 . S
H1454 C1446 0.930 . S
H1455 C1447 0.929 . S
H1456 C1464 0.929 . S
H1457 C1466 0.930 . S
H1458 C1468 0.930 . S
H1459 C1471 0.929 . S
H1460 C1474 0.930 . S
H1461 C1476 0.960 . S
H1462 C1476 0.960 . S
H1463 C1476 0.960 . S
C1464 H1456 0.929 . S
C1464 C1465 1.377 . S
C1464 C1466 1.384 . S
C1465 C1464 1.377 . S
C1465 C1471 1.390 . S
C1466 H1457 0.930 . S
C1466 C1464 1.384 . S
C1466 C1467 1.372 . S
C1467 C1466 1.372 . S
C1467 C1468 1.400 . S
C1467 C1472 1.490 . S
C1468 H1458 0.930 . S
C1468 C1467 1.400 . S
C1468 C1471 1.386 . S
H1469 C1485 0.930 . S
H1470 C1486 0.931 . S
C1471 H1459 0.929 . S
C1471 C1465 1.390 . S
C1471 C1468 1.386 . S
C1472 C1467 1.490 . S
C1472 C1474 1.395 . S
C1472 C1475 1.403 . S
H1473 C1479 0.930 . S
C1474 H1460 0.930 . S
C1474 C1472 1.395 . S
C1474 C1477 1.403 . S
C1475 C1472 1.403 . S
C1475 C1476 1.524 . S
C1475 C1479 1.400 . S
C1476 H1461 0.960 . S
C1476 H1462 0.960 . S
C1476 H1463 0.960 . S
C1476 C1475 1.524 . S
C1477 C1474 1.403 . S
C1477 C1478 1.392 . S
C1477 C1481 1.495 . S
C1478 C1477 1.392 . S
C1478 C1479 1.385 . S
C1478 C1480 1.478 . S
C1479 H1473 0.930 . S
C1479 C1475 1.400 . S
C1479 C1478 1.385 . S
C1480 C1478 1.478 . S
C1480 C1482 1.381 . S
C1480 C1486 1.383 . S
C1481 C1477 1.495 . S
C1481 H1487 0.959 . S
C1481 H1488 0.961 . S
C1481 H1489 0.960 . S
C1482 C1480 1.381 . S
C1482 C1483 1.394 . S
C1482 H1490 0.930 . S
C1483 C1482 1.394 . S
C1483 C1484 1.383 . S
C1483 H1491 0.929 . S
C1484 C1483 1.383 . S
C1484 C1485 1.377 . S
C1485 H1469 0.930 . S
C1485 C1484 1.377 . S
C1485 C1486 1.379 . S
C1486 H1470 0.931 . S
C1486 C1480 1.383 . S
C1486 C1485 1.379 . S
H1487 C1481 0.959 . S
H1488 C1481 0.961 . S
H1489 C1481 0.960 . S
H1490 C1482 0.930 . S
H1491 C1483 0.929 . S
H1492 C1500 0.929 . S
H1493 C1502 0.930 . S
H1494 C1504 0.930 . S
H1495 C1507 0.929 . S
H1496 C1510 0.930 . S
H1497 C1512 0.960 . S
H1498 C1512 0.960 . S
H1499 C1512 0.960 . S
C1500 H1492 0.929 . S
C1500 C1501 1.377 . S
C1500 C1502 1.384 . S
C1501 C1500 1.377 . S
C1501 C1507 1.390 . S
C1502 H1493 0.930 . S
C1502 C1500 1.384 . S
C1502 C1503 1.372 . S
C1503 C1502 1.372 . S
C1503 C1504 1.400 . S
C1503 C1508 1.490 . S
C1504 H1494 0.930 . S
C1504 C1503 1.400 . S
C1504 C1507 1.386 . S
H1505 C1521 0.930 . S
H1506 C1522 0.931 . S
C1507 H1495 0.929 . S
C1507 C1501 1.390 . S
C1507 C1504 1.386 . S
C1508 C1503 1.490 . S
C1508 C1510 1.395 . S
C1508 C1511 1.403 . S
H1509 C1515 0.930 . S
C1510 H1496 0.930 . S
C1510 C1508 1.395 . S
C1510 C1513 1.403 . S
C1511 C1508 1.403 . S
C1511 C1512 1.524 . S
C1511 C1515 1.400 . S
C1512 H1497 0.960 . S
C1512 H1498 0.960 . S
C1512 H1499 0.960 . S
C1512 C1511 1.524 . S
C1513 C1510 1.403 . S
C1513 C1514 1.392 . S
C1513 C1517 1.495 . S
C1514 C1513 1.392 . S
C1514 C1515 1.385 . S
C1514 C1516 1.478 . S
C1515 H1509 0.930 . S
C1515 C1511 1.400 . S
C1515 C1514 1.385 . S
C1516 C1514 1.478 . S
C1516 C1518 1.381 . S
C1516 C1522 1.383 . S
C1517 C1513 1.495 . S
C1517 H1523 0.959 . S
C1517 H1524 0.961 . S
C1517 H1525 0.960 . S
C1518 C1516 1.381 . S
C1518 C1519 1.394 . S
C1518 H1526 0.930 . S
C1519 C1518 1.394 . S
C1519 C1520 1.383 . S
C1519 H1527 0.929 . S
C1520 C1519 1.383 . S
C1520 C1521 1.377 . S
C1521 H1505 0.930 . S
C1521 C1520 1.377 . S
C1521 C1522 1.379 . S
C1522 H1506 0.931 . S
C1522 C1516 1.383 . S
C1522 C1521 1.379 . S
H1523 C1517 0.959 . S
H1524 C1517 0.961 . S
H1525 C1517 0.960 . S
H1526 C1518 0.930 . S
H1527 C1519 0.929 . S
H1528 C1536 0.929 . S
H1529 C1538 0.930 . S
H1530 C1540 0.930 . S
H1531 C1543 0.929 . S
H1532 C1546 0.930 . S
H1533 C1548 0.960 . S
H1534 C1548 0.960 . S
H1535 C1548 0.960 . S
C1536 H1528 0.929 . S
C1536 C1537 1.377 1_554 S
C1536 C1538 1.384 . S
C1537 C1536 1.377 1_556 S
C1537 C1543 1.390 . S
C1538 H1529 0.930 . S
C1538 C1536 1.384 . S
C1538 C1539 1.372 . S
C1539 C1538 1.372 . S
C1539 C1540 1.400 . S
C1539 C1544 1.490 . S
C1540 H1530 0.930 . S
C1540 C1539 1.400 . S
C1540 C1543 1.386 1_554 S
H1541 C1557 0.930 . S
H1542 C1558 0.931 . S
C1543 H1531 0.929 . S
C1543 C1537 1.390 . S
C1543 C1540 1.386 1_556 S
C1544 C1539 1.490 . S
C1544 C1546 1.395 . S
C1544 C1547 1.403 . S
H1545 C1551 0.930 . S
C1546 H1532 0.930 . S
C1546 C1544 1.395 . S
C1546 C1549 1.403 . S
C1547 C1544 1.403 . S
C1547 C1548 1.524 . S
C1547 C1551 1.400 . S
C1548 H1533 0.960 . S
C1548 H1534 0.960 . S
C1548 H1535 0.960 . S
C1548 C1547 1.524 . S
C1549 C1546 1.403 . S
C1549 C1550 1.392 . S
C1549 C1553 1.495 . S
C1550 C1549 1.392 . S
C1550 C1551 1.385 . S
C1550 C1552 1.478 . S
C1551 H1545 0.930 . S
C1551 C1547 1.400 . S
C1551 C1550 1.385 . S
C1552 C1550 1.478 . S
C1552 C1554 1.381 . S
C1552 C1558 1.383 . S
C1553 C1549 1.495 . S
C1553 H1559 0.959 . S
C1553 H1560 0.961 . S
C1553 H1561 0.960 . S
C1554 C1552 1.381 . S
C1554 C1555 1.394 . S
C1554 H1562 0.930 . S
C1555 C1554 1.394 . S
C1555 C1556 1.383 . S
C1555 H1563 0.929 . S
C1556 C1555 1.383 . S
C1556 C1557 1.377 . S
C1557 H1541 0.930 . S
C1557 C1556 1.377 . S
C1557 C1558 1.379 . S
C1558 H1542 0.931 . S
C1558 C1552 1.383 . S
C1558 C1557 1.379 . S
H1559 C1553 0.959 . S
H1560 C1553 0.961 . S
H1561 C1553 0.960 . S
H1562 C1554 0.930 . S
H1563 C1555 0.929 . S
H1564 C1572 0.929 . S
H1565 C1574 0.930 . S
H1566 C1576 0.930 . S
H1567 C1579 0.929 . S
H1568 C1582 0.930 . S
H1569 C1584 0.960 . S
H1570 C1584 0.960 . S
H1571 C1584 0.960 . S
C1572 H1564 0.929 . S
C1572 C1573 1.377 . S
C1572 C1574 1.384 . S
C1573 C1572 1.377 . S
C1573 C1579 1.390 . S
C1574 H1565 0.930 . S
C1574 C1572 1.384 . S
C1574 C1575 1.372 . S
C1575 C1574 1.372 . S
C1575 C1576 1.400 . S
C1575 C1580 1.490 . S
C1576 H1566 0.930 . S
C1576 C1575 1.400 . S
C1576 C1579 1.386 . S
H1577 C1593 0.930 . S
H1578 C1594 0.931 . S
C1579 H1567 0.929 . S
C1579 C1573 1.390 . S
C1579 C1576 1.386 . S
C1580 C1575 1.490 . S
C1580 C1582 1.395 . S
C1580 C1583 1.403 . S
H1581 C1587 0.930 . S
C1582 H1568 0.930 . S
C1582 C1580 1.395 . S
C1582 C1585 1.403 . S
C1583 C1580 1.403 . S
C1583 C1584 1.524 . S
C1583 C1587 1.400 . S
C1584 H1569 0.960 . S
C1584 H1570 0.960 . S
C1584 H1571 0.960 . S
C1584 C1583 1.524 . S
C1585 C1582 1.403 . S
C1585 C1586 1.392 . S
C1585 C1589 1.495 . S
C1586 C1585 1.392 . S
C1586 C1587 1.385 . S
C1586 C1588 1.478 . S
C1587 H1581 0.930 . S
C1587 C1583 1.400 . S
C1587 C1586 1.385 . S
C1588 C1586 1.478 . S
C1588 C1590 1.381 . S
C1588 C1594 1.383 . S
C1589 C1585 1.495 . S
C1589 H1595 0.959 . S
C1589 H1596 0.961 . S
C1589 H1597 0.960 . S
C1590 C1588 1.381 . S
C1590 C1591 1.394 1_556 S
C1590 H1598 0.930 . S
C1591 C1590 1.394 1_554 S
C1591 C1592 1.383 . S
C1591 H1599 0.929 . S
C1592 C1591 1.383 . S
C1592 C1593 1.377 1_554 S
C1593 H1577 0.930 . S
C1593 C1592 1.377 1_556 S
C1593 C1594 1.379 . S
C1594 H1578 0.931 . S
C1594 C1588 1.383 . S
C1594 C1593 1.379 . S
H1595 C1589 0.959 . S
H1596 C1589 0.961 . S
H1597 C1589 0.960 . S
H1598 C1590 0.930 . S
H1599 C1591 0.929 . S
H1600 C1608 0.929 . S
H1601 C1610 0.930 . S
H1602 C1612 0.930 . S
H1603 C1615 0.929 . S
H1604 C1618 0.930 . S
H1605 C1620 0.960 . S
H1606 C1620 0.960 . S
H1607 C1620 0.960 . S
C1608 H1600 0.929 . S
C1608 C1609 1.377 . S
C1608 C1610 1.384 . S
C1609 C1608 1.377 . S
C1609 C1615 1.390 . S
C1610 H1601 0.930 . S
C1610 C1608 1.384 . S
C1610 C1611 1.372 . S
C1611 C1610 1.372 . S
C1611 C1612 1.400 . S
C1611 C1616 1.490 . S
C1612 H1602 0.930 . S
C1612 C1611 1.400 . S
C1612 C1615 1.386 . S
H1613 C1629 0.930 . S
H1614 C1630 0.931 . S
C1615 H1603 0.929 . S
C1615 C1609 1.390 . S
C1615 C1612 1.386 . S
C1616 C1611 1.490 . S
C1616 C1618 1.395 . S
C1616 C1619 1.403 . S
H1617 C1623 0.930 . S
C1618 H1604 0.930 . S
C1618 C1616 1.395 . S
C1618 C1621 1.403 . S
C1619 C1616 1.403 . S
C1619 C1620 1.524 . S
C1619 C1623 1.400 . S
C1620 H1605 0.960 . S
C1620 H1606 0.960 . S
C1620 H1607 0.960 . S
C1620 C1619 1.524 . S
C1621 C1618 1.403 . S
C1621 C1622 1.392 . S
C1621 C1625 1.495 . S
C1622 C1621 1.392 . S
C1622 C1623 1.385 . S
C1622 C1624 1.478 . S
C1623 H1617 0.930 . S
C1623 C1619 1.400 . S
C1623 C1622 1.385 . S
C1624 C1622 1.478 . S
C1624 C1626 1.381 . S
C1624 C1630 1.383 . S
C1625 C1621 1.495 . S
C1625 H1631 0.959 . S
C1625 H1632 0.961 . S
C1625 H1633 0.960 . S
C1626 C1624 1.381 . S
C1626 C1627 1.394 . S
C1626 H1634 0.930 . S
C1627 C1626 1.394 . S
C1627 C1628 1.383 . S
C1627 H1635 0.929 . S
C1628 C1627 1.383 . S
C1628 C1629 1.377 . S
C1629 H1613 0.930 . S
C1629 C1628 1.377 . S
C1629 C1630 1.379 . S
C1630 H1614 0.931 . S
C1630 C1624 1.383 . S
C1630 C1629 1.379 . S
H1631 C1625 0.959 . S
H1632 C1625 0.961 . S
H1633 C1625 0.960 . S
H1634 C1626 0.930 . S
H1635 C1627 0.929 . S
H1636 C1644 0.929 . S
H1637 C1646 0.930 . S
H1638 C1648 0.930 . S
H1639 C1651 0.929 . S
H1640 C1654 0.930 . S
H1641 C1656 0.960 . S
H1642 C1656 0.960 . S
H1643 C1656 0.960 . S
C1644 H1636 0.929 . S
C1644 C1645 1.377 . S
C1644 C1646 1.384 . S
C1645 C1644 1.377 . S
C1645 C1651 1.390 . S
C1646 H1637 0.930 . S
C1646 C1644 1.384 . S
C1646 C1647 1.372 . S
C1647 C1646 1.372 . S
C1647 C1648 1.400 . S
C1647 C1652 1.490 . S
C1648 H1638 0.930 . S
C1648 C1647 1.400 . S
C1648 C1651 1.386 . S
H1649 C1665 0.930 . S
H1650 C1666 0.931 . S
C1651 H1639 0.929 . S
C1651 C1645 1.390 . S
C1651 C1648 1.386 . S
C1652 C1647 1.490 . S
C1652 C1654 1.395 . S
C1652 C1655 1.403 . S
H1653 C1659 0.930 . S
C1654 H1640 0.930 . S
C1654 C1652 1.395 . S
C1654 C1657 1.403 1_655 S
C1655 C1652 1.403 . S
C1655 C1656 1.524 . S
C1655 C1659 1.400 1_655 S
C1656 H1641 0.960 . S
C1656 H1642 0.960 . S
C1656 H1643 0.960 . S
C1656 C1655 1.524 . S
C1657 C1654 1.403 1_455 S
C1657 C1658 1.392 . S
C1657 C1661 1.495 . S
C1658 C1657 1.392 . S
C1658 C1659 1.385 . S
C1658 C1660 1.478 . S
C1659 H1653 0.930 . S
C1659 C1655 1.400 1_455 S
C1659 C1658 1.385 . S
C1660 C1658 1.478 . S
C1660 C1662 1.381 . S
C1660 C1666 1.383 . S
C1661 C1657 1.495 . S
C1661 H1667 0.959 . S
C1661 H1668 0.961 . S
C1661 H1669 0.960 . S
C1662 C1660 1.381 . S
C1662 C1663 1.394 . S
C1662 H1670 0.930 . S
C1663 C1662 1.394 . S
C1663 C1664 1.383 . S
C1663 H1671 0.929 . S
C1664 C1663 1.383 . S
C1664 C1665 1.377 . S
C1665 H1649 0.930 . S
C1665 C1664 1.377 . S
C1665 C1666 1.379 . S
C1666 H1650 0.931 . S
C1666 C1660 1.383 . S
C1666 C1665 1.379 . S
H1667 C1661 0.959 . S
H1668 C1661 0.961 . S
H1669 C1661 0.960 . S
H1670 C1662 0.930 . S
H1671 C1663 0.929 . S
H1672 C1680 0.929 . S
H1673 C1682 0.930 . S
H1674 C1684 0.930 . S
H1675 C1687 0.929 . S
H1676 C1690 0.930 . S
H1677 C1692 0.960 . S
H1678 C1692 0.960 . S
H1679 C1692 0.960 . S
C1680 H1672 0.929 . S
C1680 C1681 1.377 . S
C1680 C1682 1.384 . S
C1681 C1680 1.377 . S
C1681 C1687 1.390 . S
C1682 H1673 0.930 . S
C1682 C1680 1.384 . S
C1682 C1683 1.372 . S
C1683 C1682 1.372 . S
C1683 C1684 1.400 . S
C1683 C1688 1.490 . S
C1684 H1674 0.930 . S
C1684 C1683 1.400 . S
C1684 C1687 1.386 . S
H1685 C1701 0.930 . S
H1686 C1702 0.931 . S
C1687 H1675 0.929 . S
C1687 C1681 1.390 . S
C1687 C1684 1.386 . S
C1688 C1683 1.490 . S
C1688 C1690 1.395 . S
C1688 C1691 1.403 . S
H1689 C1695 0.930 . S
C1690 H1676 0.930 . S
C1690 C1688 1.395 . S
C1690 C1693 1.403 . S
C1691 C1688 1.403 . S
C1691 C1692 1.524 . S
C1691 C1695 1.400 . S
C1692 H1677 0.960 . S
C1692 H1678 0.960 . S
C1692 H1679 0.960 . S
C1692 C1691 1.524 . S
C1693 C1690 1.403 . S
C1693 C1694 1.392 . S
C1693 C1697 1.495 . S
C1694 C1693 1.392 . S
C1694 C1695 1.385 . S
C1694 C1696 1.478 . S
C1695 H1689 0.930 . S
C1695 C1691 1.400 . S
C1695 C1694 1.385 . S
C1696 C1694 1.478 . S
C1696 C1698 1.381 . S
C1696 C1702 1.383 . S
C1697 C1693 1.495 . S
C1697 H1703 0.959 . S
C1697 H1704 0.961 . S
C1697 H1705 0.960 . S
C1698 C1696 1.381 . S
C1698 C1699 1.394 . S
C1698 H1706 0.930 . S
C1699 C1698 1.394 . S
C1699 C1700 1.383 . S
C1699 H1707 0.929 . S
C1700 C1699 1.383 . S
C1700 C1701 1.377 . S
C1701 H1685 0.930 . S
C1701 C1700 1.377 . S
C1701 C1702 1.379 . S
C1702 H1686 0.931 . S
C1702 C1696 1.383 . S
C1702 C1701 1.379 . S
H1703 C1697 0.959 . S
H1704 C1697 0.961 . S
H1705 C1697 0.960 . S
H1706 C1698 0.930 . S
H1707 C1699 0.929 . S
H1708 C1716 0.929 . S
H1709 C1718 0.930 . S
H1710 C1720 0.930 . S
H1711 C1723 0.929 . S
H1712 C1726 0.930 . S
H1713 C1728 0.960 . S
H1714 C1728 0.960 . S
H1715 C1728 0.960 . S
C1716 H1708 0.929 . S
C1716 C1717 1.377 . S
C1716 C1718 1.384 . S
C1717 C1716 1.377 . S
C1717 C1723 1.390 . S
C1718 H1709 0.930 . S
C1718 C1716 1.384 . S
C1718 C1719 1.372 . S
C1719 C1718 1.372 . S
C1719 C1720 1.400 . S
C1719 C1724 1.490 . S
C1720 H1710 0.930 . S
C1720 C1719 1.400 . S
C1720 C1723 1.386 . S
H1721 C1737 0.930 . S
H1722 C1738 0.931 . S
C1723 H1711 0.929 . S
C1723 C1717 1.390 . S
C1723 C1720 1.386 . S
C1724 C1719 1.490 . S
C1724 C1726 1.395 . S
C1724 C1727 1.403 . S
H1725 C1731 0.930 . S
C1726 H1712 0.930 . S
C1726 C1724 1.395 . S
C1726 C1729 1.403 . S
C1727 C1724 1.403 . S
C1727 C1728 1.524 . S
C1727 C1731 1.400 . S
C1728 H1713 0.960 . S
C1728 H1714 0.960 . S
C1728 H1715 0.960 . S
C1728 C1727 1.524 . S
C1729 C1726 1.403 . S
C1729 C1730 1.392 . S
C1729 C1733 1.495 . S
C1730 C1729 1.392 . S
C1730 C1731 1.385 . S
C1730 C1732 1.478 . S
C1731 H1725 0.930 . S
C1731 C1727 1.400 . S
C1731 C1730 1.385 . S
C1732 C1730 1.478 . S
C1732 C1734 1.381 . S
C1732 C1738 1.383 . S
C1733 C1729 1.495 . S
C1733 H1739 0.959 . S
C1733 H1740 0.961 . S
C1733 H1741 0.960 . S
C1734 C1732 1.381 . S
C1734 C1735 1.394 . S
C1734 H1742 0.930 . S
C1735 C1734 1.394 . S
C1735 C1736 1.383 . S
C1735 H1743 0.929 . S
C1736 C1735 1.383 . S
C1736 C1737 1.377 . S
C1737 H1721 0.930 . S
C1737 C1736 1.377 . S
C1737 C1738 1.379 . S
C1738 H1722 0.931 . S
C1738 C1732 1.383 . S
C1738 C1737 1.379 . S
H1739 C1733 0.959 . S
H1740 C1733 0.961 . S
H1741 C1733 0.960 . S
H1742 C1734 0.930 . S
H1743 C1735 0.929 . S
H1744 C1752 0.929 . S
H1745 C1754 0.930 . S
H1746 C1756 0.930 . S
H1747 C1759 0.929 . S
H1748 C1762 0.930 . S
H1749 C1764 0.960 . S
H1750 C1764 0.960 . S
H1751 C1764 0.960 . S
C1752 H1744 0.929 . S
C1752 C1753 1.377 . S
C1752 C1754 1.384 . S
C1753 C1752 1.377 . S
C1753 C1759 1.390 . S
C1754 H1745 0.930 . S
C1754 C1752 1.384 . S
C1754 C1755 1.372 . S
C1755 C1754 1.372 . S
C1755 C1756 1.400 . S
C1755 C1760 1.490 . S
C1756 H1746 0.930 . S
C1756 C1755 1.400 . S
C1756 C1759 1.386 . S
H1757 C1773 0.930 . S
H1758 C1774 0.931 . S
C1759 H1747 0.929 . S
C1759 C1753 1.390 . S
C1759 C1756 1.386 . S
C1760 C1755 1.490 . S
C1760 C1762 1.395 . S
C1760 C1763 1.403 . S
H1761 C1767 0.930 . S
C1762 H1748 0.930 . S
C1762 C1760 1.395 . S
C1762 C1765 1.403 . S
C1763 C1760 1.403 . S
C1763 C1764 1.524 . S
C1763 C1767 1.400 . S
C1764 H1749 0.960 . S
C1764 H1750 0.960 . S
C1764 H1751 0.960 . S
C1764 C1763 1.524 . S
C1765 C1762 1.403 . S
C1765 C1766 1.392 . S
C1765 C1769 1.495 . S
C1766 C1765 1.392 . S
C1766 C1767 1.385 . S
C1766 C1768 1.478 . S
C1767 H1761 0.930 . S
C1767 C1763 1.400 . S
C1767 C1766 1.385 . S
C1768 C1766 1.478 . S
C1768 C1770 1.381 . S
C1768 C1774 1.383 . S
C1769 C1765 1.495 . S
C1769 H1775 0.959 . S
C1769 H1776 0.961 . S
C1769 H1777 0.960 . S
C1770 C1768 1.381 . S
C1770 C1771 1.394 . S
C1770 H1778 0.930 . S
C1771 C1770 1.394 . S
C1771 C1772 1.383 . S
C1771 H1779 0.929 . S
C1772 C1771 1.383 . S
C1772 C1773 1.377 . S
C1773 H1757 0.930 . S
C1773 C1772 1.377 . S
C1773 C1774 1.379 . S
C1774 H1758 0.931 . S
C1774 C1768 1.383 . S
C1774 C1773 1.379 . S
H1775 C1769 0.959 . S
H1776 C1769 0.961 . S
H1777 C1769 0.960 . S
H1778 C1770 0.930 . S
H1779 C1771 0.929 . S
H1780 C1788 0.929 . S
H1781 C1790 0.930 . S
H1782 C1792 0.930 . S
H1783 C1795 0.929 . S
H1784 C1798 0.930 . S
H1785 C1800 0.960 . S
H1786 C1800 0.960 . S
H1787 C1800 0.960 . S
C1788 H1780 0.929 . S
C1788 C1789 1.377 . S
C1788 C1790 1.384 . S
C1789 C1788 1.377 . S
C1789 C1795 1.390 . S
C1790 H1781 0.930 . S
C1790 C1788 1.384 . S
C1790 C1791 1.372 . S
C1791 C1790 1.372 . S
C1791 C1792 1.400 . S
C1791 C1796 1.490 . S
C1792 H1782 0.930 . S
C1792 C1791 1.400 . S
C1792 C1795 1.386 . S
H1793 C1809 0.930 . S
H1794 C1810 0.931 . S
C1795 H1783 0.929 . S
C1795 C1789 1.390 . S
C1795 C1792 1.386 . S
C1796 C1791 1.490 . S
C1796 C1798 1.395 . S
C1796 C1799 1.403 . S
H1797 C1803 0.930 . S
C1798 H1784 0.930 . S
C1798 C1796 1.395 . S
C1798 C1801 1.403 . S
C1799 C1796 1.403 . S
C1799 C1800 1.524 . S
C1799 C1803 1.400 . S
C1800 H1785 0.960 . S
C1800 H1786 0.960 . S
C1800 H1787 0.960 . S
C1800 C1799 1.524 . S
C1801 C1798 1.403 . S
C1801 C1802 1.392 . S
C1801 C1805 1.495 . S
C1802 C1801 1.392 . S
C1802 C1803 1.385 . S
C1802 C1804 1.478 . S
C1803 H1797 0.930 . S
C1803 C1799 1.400 . S
C1803 C1802 1.385 . S
C1804 C1802 1.478 . S
C1804 C1806 1.381 . S
C1804 C1810 1.383 . S
C1805 C1801 1.495 . S
C1805 H1811 0.959 . S
C1805 H1812 0.961 . S
C1805 H1813 0.960 . S
C1806 C1804 1.381 . S
C1806 C1807 1.394 . S
C1806 H1814 0.930 . S
C1807 C1806 1.394 . S
C1807 C1808 1.383 . S
C1807 H1815 0.929 . S
C1808 C1807 1.383 . S
C1808 C1809 1.377 . S
C1809 H1793 0.930 . S
C1809 C1808 1.377 . S
C1809 C1810 1.379 . S
C1810 H1794 0.931 . S
C1810 C1804 1.383 . S
C1810 C1809 1.379 . S
H1811 C1805 0.959 . S
H1812 C1805 0.961 . S
H1813 C1805 0.960 . S
H1814 C1806 0.930 . S
H1815 C1807 0.929 . S
H1816 C1824 0.929 . S
H1817 C1826 0.930 . S
H1818 C1828 0.930 . S
H1819 C1831 0.929 . S
H1820 C1834 0.930 . S
H1821 C1836 0.960 . S
H1822 C1836 0.960 . S
H1823 C1836 0.960 . S
C1824 H1816 0.929 . S
C1824 C1825 1.377 . S
C1824 C1826 1.384 . S
C1825 C1824 1.377 . S
C1825 C1831 1.390 . S
C1826 H1817 0.930 . S
C1826 C1824 1.384 . S
C1826 C1827 1.372 . S
C1827 C1826 1.372 . S
C1827 C1828 1.400 . S
C1827 C1832 1.490 . S
C1828 H1818 0.930 . S
C1828 C1827 1.400 . S
C1828 C1831 1.386 . S
H1829 C1845 0.930 . S
H1830 C1846 0.931 . S
C1831 H1819 0.929 . S
C1831 C1825 1.390 . S
C1831 C1828 1.386 . S
C1832 C1827 1.490 . S
C1832 C1834 1.395 . S
C1832 C1835 1.403 . S
H1833 C1839 0.930 . S
C1834 H1820 0.930 . S
C1834 C1832 1.395 . S
C1834 C1837 1.403 . S
C1835 C1832 1.403 . S
C1835 C1836 1.524 . S
C1835 C1839 1.400 . S
C1836 H1821 0.960 . S
C1836 H1822 0.960 . S
C1836 H1823 0.960 . S
C1836 C1835 1.524 . S
C1837 C1834 1.403 . S
C1837 C1838 1.392 . S
C1837 C1841 1.495 . S
C1838 C1837 1.392 . S
C1838 C1839 1.385 . S
C1838 C1840 1.478 . S
C1839 H1833 0.930 . S
C1839 C1835 1.400 . S
C1839 C1838 1.385 . S
C1840 C1838 1.478 . S
C1840 C1842 1.381 . S
C1840 C1846 1.383 . S
C1841 C1837 1.495 . S
C1841 H1847 0.959 . S
C1841 H1848 0.961 . S
C1841 H1849 0.960 . S
C1842 C1840 1.381 . S
C1842 C1843 1.394 . S
C1842 H1850 0.930 . S
C1843 C1842 1.394 . S
C1843 C1844 1.383 . S
C1843 H1851 0.929 . S
C1844 C1843 1.383 . S
C1844 C1845 1.377 . S
C1845 H1829 0.930 . S
C1845 C1844 1.377 . S
C1845 C1846 1.379 . S
C1846 H1830 0.931 . S
C1846 C1840 1.383 . S
C1846 C1845 1.379 . S
H1847 C1841 0.959 . S
H1848 C1841 0.961 . S
H1849 C1841 0.960 . S
H1850 C1842 0.930 . S
H1851 C1843 0.929 . S
H1852 C1860 0.929 . S
H1853 C1862 0.930 . S
H1854 C1864 0.930 . S
H1855 C1867 0.929 . S
H1856 C1870 0.930 . S
H1857 C1872 0.960 . S
H1858 C1872 0.960 . S
H1859 C1872 0.960 . S
C1860 H1852 0.929 . S
C1860 C1861 1.377 . S
C1860 C1862 1.384 . S
C1861 C1860 1.377 . S
C1861 C1867 1.390 . S
C1862 H1853 0.930 . S
C1862 C1860 1.384 . S
C1862 C1863 1.372 . S
C1863 C1862 1.372 . S
C1863 C1864 1.400 . S
C1863 C1868 1.490 . S
C1864 H1854 0.930 . S
C1864 C1863 1.400 . S
C1864 C1867 1.386 . S
H1865 C1881 0.930 . S
H1866 C1882 0.931 . S
C1867 H1855 0.929 . S
C1867 C1861 1.390 . S
C1867 C1864 1.386 . S
C1868 C1863 1.490 . S
C1868 C1870 1.395 . S
C1868 C1871 1.403 . S
H1869 C1875 0.930 . S
C1870 H1856 0.930 . S
C1870 C1868 1.395 . S
C1870 C1873 1.403 1_655 S
C1871 C1868 1.403 . S
C1871 C1872 1.524 . S
C1871 C1875 1.400 1_655 S
C1872 H1857 0.960 . S
C1872 H1858 0.960 . S
C1872 H1859 0.960 . S
C1872 C1871 1.524 . S
C1873 C1870 1.403 1_455 S
C1873 C1874 1.392 . S
C1873 C1877 1.495 . S
C1874 C1873 1.392 . S
C1874 C1875 1.385 . S
C1874 C1876 1.478 . S
C1875 H1869 0.930 . S
C1875 C1871 1.400 1_455 S
C1875 C1874 1.385 . S
C1876 C1874 1.478 . S
C1876 C1878 1.381 . S
C1876 C1882 1.383 . S
C1877 C1873 1.495 . S
C1877 H1883 0.959 . S
C1877 H1884 0.961 . S
C1877 H1885 0.960 . S
C1878 C1876 1.381 . S
C1878 C1879 1.394 . S
C1878 H1886 0.930 . S
C1879 C1878 1.394 . S
C1879 C1880 1.383 . S
C1879 H1887 0.929 . S
C1880 C1879 1.383 . S
C1880 C1881 1.377 . S
C1881 H1865 0.930 . S
C1881 C1880 1.377 . S
C1881 C1882 1.379 . S
C1882 H1866 0.931 . S
C1882 C1876 1.383 . S
C1882 C1881 1.379 . S
H1883 C1877 0.959 . S
H1884 C1877 0.961 . S
H1885 C1877 0.960 . S
H1886 C1878 0.930 . S
H1887 C1879 0.929 . S
H1888 C1896 0.929 . S
H1889 C1898 0.930 . S
H1890 C1900 0.930 . S
H1891 C1903 0.929 . S
H1892 C1906 0.930 . S
H1893 C1908 0.960 . S
H1894 C1908 0.960 . S
H1895 C1908 0.960 . S
C1896 H1888 0.929 . S
C1896 C1897 1.377 . S
C1896 C1898 1.384 . S
C1897 C1896 1.377 . S
C1897 C1903 1.390 . S
C1898 H1889 0.930 . S
C1898 C1896 1.384 . S
C1898 C1899 1.372 . S
C1899 C1898 1.372 . S
C1899 C1900 1.400 . S
C1899 C1904 1.490 . S
C1900 H1890 0.930 . S
C1900 C1899 1.400 . S
C1900 C1903 1.386 . S
H1901 C1917 0.930 . S
H1902 C1918 0.931 . S
C1903 H1891 0.929 . S
C1903 C1897 1.390 . S
C1903 C1900 1.386 . S
C1904 C1899 1.490 . S
C1904 C1906 1.395 . S
C1904 C1907 1.403 . S
H1905 C1911 0.930 . S
C1906 H1892 0.930 . S
C1906 C1904 1.395 . S
C1906 C1909 1.403 . S
C1907 C1904 1.403 . S
C1907 C1908 1.524 . S
C1907 C1911 1.400 . S
C1908 H1893 0.960 . S
C1908 H1894 0.960 . S
C1908 H1895 0.960 . S
C1908 C1907 1.524 . S
C1909 C1906 1.403 . S
C1909 C1910 1.392 . S
C1909 C1913 1.495 . S
C1910 C1909 1.392 . S
C1910 C1911 1.385 . S
C1910 C1912 1.478 . S
C1911 H1905 0.930 . S
C1911 C1907 1.400 . S
C1911 C1910 1.385 . S
C1912 C1910 1.478 . S
C1912 C1914 1.381 . S
C1912 C1918 1.383 . S
C1913 C1909 1.495 . S
C1913 H1919 0.959 1_556 S
C1913 H1920 0.961 . S
C1913 H1921 0.960 . S
C1914 C1912 1.381 . S
C1914 C1915 1.394 . S
C1914 H1922 0.930 . S
C1915 C1914 1.394 . S
C1915 C1916 1.383 . S
C1915 H1923 0.929 . S
C1916 C1915 1.383 . S
C1916 C1917 1.377 . S
C1917 H1901 0.930 . S
C1917 C1916 1.377 . S
C1917 C1918 1.379 . S
C1918 H1902 0.931 . S
C1918 C1912 1.383 . S
C1918 C1917 1.379 . S
H1919 C1913 0.959 1_554 S
H1920 C1913 0.961 . S
H1921 C1913 0.960 . S
H1922 C1914 0.930 . S
H1923 C1915 0.929 . S
H1924 C1932 0.929 . S
H1925 C1934 0.930 . S
H1926 C1936 0.930 . S
H1927 C1939 0.929 . S
H1928 C1942 0.930 . S
H1929 C1944 0.960 . S
H1930 C1944 0.960 . S
H1931 C1944 0.960 . S
C1932 H1924 0.929 . S
C1932 C1933 1.377 . S
C1932 C1934 1.384 . S
C1933 C1932 1.377 . S
C1933 C1939 1.390 . S
C1934 H1925 0.930 . S
C1934 C1932 1.384 . S
C1934 C1935 1.372 . S
C1935 C1934 1.372 . S
C1935 C1936 1.400 . S
C1935 C1940 1.490 . S
C1936 H1926 0.930 . S
C1936 C1935 1.400 . S
C1936 C1939 1.386 . S
H1937 C1953 0.930 . S
H1938 C1954 0.931 . S
C1939 H1927 0.929 . S
C1939 C1933 1.390 . S
C1939 C1936 1.386 . S
C1940 C1935 1.490 . S
C1940 C1942 1.395 . S
C1940 C1943 1.403 . S
H1941 C1947 0.930 . S
C1942 H1928 0.930 . S
C1942 C1940 1.395 . S
C1942 C1945 1.403 . S
C1943 C1940 1.403 . S
C1943 C1944 1.524 . S
C1943 C1947 1.400 . S
C1944 H1929 0.960 . S
C1944 H1930 0.960 . S
C1944 H1931 0.960 . S
C1944 C1943 1.524 . S
C1945 C1942 1.403 . S
C1945 C1946 1.392 . S
C1945 C1949 1.495 . S
C1946 C1945 1.392 . S
C1946 C1947 1.385 . S
C1946 C1948 1.478 . S
C1947 H1941 0.930 . S
C1947 C1943 1.400 . S
C1947 C1946 1.385 . S
C1948 C1946 1.478 . S
C1948 C1950 1.381 . S
C1948 C1954 1.383 . S
C1949 C1945 1.495 . S
C1949 H1955 0.959 . S
C1949 H1956 0.961 . S
C1949 H1957 0.960 . S
C1950 C1948 1.381 . S
C1950 C1951 1.394 . S
C1950 H1958 0.930 . S
C1951 C1950 1.394 . S
C1951 C1952 1.383 . S
C1951 H1959 0.929 . S
C1952 C1951 1.383 . S
C1952 C1953 1.377 . S
C1953 H1937 0.930 . S
C1953 C1952 1.377 . S
C1953 C1954 1.379 . S
C1954 H1938 0.931 . S
C1954 C1948 1.383 . S
C1954 C1953 1.379 . S
H1955 C1949 0.959 . S
H1956 C1949 0.961 . S
H1957 C1949 0.960 . S
H1958 C1950 0.930 . S
H1959 C1951 0.929 . S
H1960 C1968 0.929 . S
H1961 C1970 0.930 . S
H1962 C1972 0.930 . S
H1963 C1975 0.929 . S
H1964 C1978 0.930 . S
H1965 C1980 0.960 . S
H1966 C1980 0.960 . S
H1967 C1980 0.960 . S
C1968 H1960 0.929 . S
C1968 C1969 1.377 . S
C1968 C1970 1.384 . S
C1969 C1968 1.377 . S
C1969 C1975 1.390 . S
C1970 H1961 0.930 . S
C1970 C1968 1.384 . S
C1970 C1971 1.372 . S
C1971 C1970 1.372 . S
C1971 C1972 1.400 . S
C1971 C1976 1.490 . S
C1972 H1962 0.930 . S
C1972 C1971 1.400 . S
C1972 C1975 1.386 . S
H1973 C1989 0.930 . S
H1974 C1990 0.931 . S
C1975 H1963 0.929 . S
C1975 C1969 1.390 . S
C1975 C1972 1.386 . S
C1976 C1971 1.490 . S
C1976 C1978 1.395 . S
C1976 C1979 1.403 . S
H1977 C1983 0.930 . S
C1978 H1964 0.930 . S
C1978 C1976 1.395 . S
C1978 C1981 1.403 . S
C1979 C1976 1.403 . S
C1979 C1980 1.524 . S
C1979 C1983 1.400 . S
C1980 H1965 0.960 . S
C1980 H1966 0.960 . S
C1980 H1967 0.960 . S
C1980 C1979 1.524 . S
C1981 C1978 1.403 . S
C1981 C1982 1.392 . S
C1981 C1985 1.495 . S
C1982 C1981 1.392 . S
C1982 C1983 1.385 . S
C1982 C1984 1.478 . S
C1983 H1977 0.930 . S
C1983 C1979 1.400 . S
C1983 C1982 1.385 . S
C1984 C1982 1.478 . S
C1984 C1986 1.381 . S
C1984 C1990 1.383 . S
C1985 C1981 1.495 . S
C1985 H1991 0.943 1_554 S
C1985 H1992 0.961 . S
C1985 H1993 0.960 . S
C1986 C1984 1.381 . S
C1986 C1987 1.394 . S
C1986 H1994 0.930 . S
C1987 C1986 1.394 . S
C1987 C1988 1.383 . S
C1987 H1995 0.929 . S
C1988 C1987 1.383 . S
C1988 C1989 1.377 . S
C1989 H1973 0.930 . S
C1989 C1988 1.377 . S
C1989 C1990 1.379 . S
C1990 H1974 0.931 . S
C1990 C1984 1.383 . S
C1990 C1989 1.379 . S
H1991 C1985 0.943 1_556 S
H1992 C1985 0.961 . S
H1993 C1985 0.960 . S
H1994 C1986 0.930 . S
H1995 C1987 0.929 . S
H1996 C2004 0.929 . S
H1997 C2006 0.930 . S
H1998 C2008 0.930 . S
H1999 C2011 0.929 . S
H2000 C2014 0.930 . S
H2001 C2016 0.960 . S
H2002 C2016 0.960 . S
H2003 C2016 0.960 . S
C2004 H1996 0.929 . S
C2004 C2005 1.377 . S
C2004 C2006 1.384 . S
C2005 C2004 1.377 . S
C2005 C2011 1.390 . S
C2006 H1997 0.930 . S
C2006 C2004 1.384 . S
C2006 C2007 1.372 . S
C2007 C2006 1.372 . S
C2007 C2008 1.400 . S
C2007 C2012 1.490 . S
C2008 H1998 0.930 . S
C2008 C2007 1.400 . S
C2008 C2011 1.386 . S
H2009 C2025 0.930 . S
H2010 C2026 0.931 . S
C2011 H1999 0.929 . S
C2011 C2005 1.390 . S
C2011 C2008 1.386 . S
C2012 C2007 1.490 . S
C2012 C2014 1.395 . S
C2012 C2015 1.403 . S
H2013 C2019 0.930 . S
C2014 H2000 0.930 . S
C2014 C2012 1.395 . S
C2014 C2017 1.403 . S
C2015 C2012 1.403 . S
C2015 C2016 1.524 . S
C2015 C2019 1.400 . S
C2016 H2001 0.960 . S
C2016 H2002 0.960 . S
C2016 H2003 0.960 . S
C2016 C2015 1.524 . S
C2017 C2014 1.403 . S
C2017 C2018 1.392 . S
C2017 C2021 1.495 . S
C2018 C2017 1.392 . S
C2018 C2019 1.385 . S
C2018 C2020 1.478 . S
C2019 H2013 0.930 . S
C2019 C2015 1.400 . S
C2019 C2018 1.385 . S
C2020 C2018 1.478 . S
C2020 C2022 1.381 . S
C2020 C2026 1.383 . S
C2021 C2017 1.495 . S
C2021 H2027 0.959 . S
C2021 H2028 0.961 . S
C2021 H2029 0.960 . S
C2022 C2020 1.381 . S
C2022 C2023 1.394 . S
C2022 H2030 0.930 . S
C2023 C2022 1.394 . S
C2023 C2024 1.383 . S
C2023 H2031 0.929 . S
C2024 C2023 1.383 . S
C2024 C2025 1.377 . S
C2025 H2009 0.930 . S
C2025 C2024 1.377 . S
C2025 C2026 1.379 . S
C2026 H2010 0.931 . S
C2026 C2020 1.383 . S
C2026 C2025 1.379 . S
H2027 C2021 0.959 . S
H2028 C2021 0.961 . S
H2029 C2021 0.960 . S
H2030 C2022 0.930 . S
H2031 C2023 0.929 . S
H2032 C2040 0.929 . S
H2033 C2042 0.930 . S
H2034 C2044 0.930 . S
H2035 C2047 0.929 . S
H2036 C2050 0.930 . S
H2037 C2052 0.960 . S
H2038 C2052 0.960 . S
H2039 C2052 0.960 . S
C2040 H2032 0.929 . S
C2040 C2041 1.377 . S
C2040 C2042 1.384 . S
C2041 C2040 1.377 . S
C2041 C2047 1.390 . S
C2042 H2033 0.930 . S
C2042 C2040 1.384 . S
C2042 C2043 1.372 . S
C2043 C2042 1.372 . S
C2043 C2044 1.400 . S
C2043 C2048 1.490 . S
C2044 H2034 0.930 . S
C2044 C2043 1.400 . S
C2044 C2047 1.386 . S
H2045 C2061 0.930 . S
H2046 C2062 0.931 . S
C2047 H2035 0.929 . S
C2047 C2041 1.390 . S
C2047 C2044 1.386 . S
C2048 C2043 1.490 . S
C2048 C2050 1.395 . S
C2048 C2051 1.403 . S
H2049 C2055 0.930 . S
C2050 H2036 0.930 . S
C2050 C2048 1.395 . S
C2050 C2053 1.403 . S
C2051 C2048 1.403 . S
C2051 C2052 1.524 . S
C2051 C2055 1.400 . S
C2052 H2037 0.960 . S
C2052 H2038 0.960 . S
C2052 H2039 0.960 . S
C2052 C2051 1.524 . S
C2053 C2050 1.403 . S
C2053 C2054 1.392 . S
C2053 C2057 1.495 . S
C2054 C2053 1.392 . S
C2054 C2055 1.385 . S
C2054 C2056 1.478 . S
C2055 H2049 0.930 . S
C2055 C2051 1.400 . S
C2055 C2054 1.385 . S
C2056 C2054 1.478 . S
C2056 C2058 1.381 . S
C2056 C2062 1.383 . S
C2057 C2053 1.495 . S
C2057 H2063 0.959 . S
C2057 H2064 0.961 . S
C2057 H2065 0.960 . S
C2058 C2056 1.381 . S
C2058 C2059 1.394 . S
C2058 H2066 0.930 . S
C2059 C2058 1.394 . S
C2059 C2060 1.383 . S
C2059 H2067 0.929 . S
C2060 C2059 1.383 . S
C2060 C2061 1.377 . S
C2061 H2045 0.930 . S
C2061 C2060 1.377 . S
C2061 C2062 1.379 . S
C2062 H2046 0.931 . S
C2062 C2056 1.383 . S
C2062 C2061 1.379 . S
H2063 C2057 0.959 . S
H2064 C2057 0.961 . S
H2065 C2057 0.960 . S
H2066 C2058 0.930 . S
H2067 C2059 0.929 . S
H2068 C2076 0.929 . S
H2069 C2078 0.930 . S
H2070 C2080 0.930 . S
H2071 C2083 0.929 . S
H2072 C2086 0.930 . S
H2073 C2088 0.960 . S
H2074 C2088 0.960 . S
H2075 C2088 0.960 . S
C2076 H2068 0.929 . S
C2076 C2077 1.377 . S
C2076 C2078 1.384 . S
C2077 C2076 1.377 . S
C2077 C2083 1.390 . S
C2078 H2069 0.930 . S
C2078 C2076 1.384 . S
C2078 C2079 1.372 . S
C2079 C2078 1.372 . S
C2079 C2080 1.400 . S
C2079 C2084 1.490 . S
C2080 H2070 0.930 . S
C2080 C2079 1.400 . S
C2080 C2083 1.386 . S
H2081 C2097 0.930 . S
H2082 C2098 0.931 . S
C2083 H2071 0.929 . S
C2083 C2077 1.390 . S
C2083 C2080 1.386 . S
C2084 C2079 1.490 . S
C2084 C2086 1.395 . S
C2084 C2087 1.403 . S
H2085 C2091 0.930 . S
C2086 H2072 0.930 . S
C2086 C2084 1.395 . S
C2086 C2089 1.403 1_655 S
C2087 C2084 1.403 . S
C2087 C2088 1.524 . S
C2087 C2091 1.400 1_655 S
C2088 H2073 0.960 . S
C2088 H2074 0.960 . S
C2088 H2075 0.960 . S
C2088 C2087 1.524 . S
C2089 C2086 1.403 1_455 S
C2089 C2090 1.392 . S
C2089 C2093 1.495 . S
C2090 C2089 1.392 . S
C2090 C2091 1.385 . S
C2090 C2092 1.478 . S
C2091 H2085 0.930 . S
C2091 C2087 1.400 1_455 S
C2091 C2090 1.385 . S
C2092 C2090 1.478 . S
C2092 C2094 1.381 . S
C2092 C2098 1.383 . S
C2093 C2089 1.495 . S
C2093 H2099 0.959 . S
C2093 H2100 0.961 . S
C2093 H2101 0.960 . S
C2094 C2092 1.381 . S
C2094 C2095 1.394 . S
C2094 H2102 0.930 . S
C2095 C2094 1.394 . S
C2095 C2096 1.383 . S
C2095 H2103 0.929 . S
C2096 C2095 1.383 . S
C2096 C2097 1.377 . S
C2097 H2081 0.930 . S
C2097 C2096 1.377 . S
C2097 C2098 1.379 . S
C2098 H2082 0.931 . S
C2098 C2092 1.383 . S
C2098 C2097 1.379 . S
H2099 C2093 0.959 . S
H2100 C2093 0.961 . S
H2101 C2093 0.960 . S
H2102 C2094 0.930 . S
H2103 C2095 0.929 . S
H2104 C2112 0.929 . S
H2105 C2114 0.930 . S
H2106 C2116 0.930 . S
H2107 C2119 0.929 . S
H2108 C2122 0.930 . S
H2109 C2124 0.960 . S
H2110 C2124 0.960 . S
H2111 C2124 0.960 . S
C2112 H2104 0.929 . S
C2112 C2113 1.377 . S
C2112 C2114 1.384 . S
C2113 C2112 1.377 . S
C2113 C2119 1.390 . S
C2114 H2105 0.930 . S
C2114 C2112 1.384 . S
C2114 C2115 1.372 . S
C2115 C2114 1.372 . S
C2115 C2116 1.400 . S
C2115 C2120 1.490 . S
C2116 H2106 0.930 . S
C2116 C2115 1.400 . S
C2116 C2119 1.386 . S
H2117 C2133 0.930 . S
H2118 C2134 0.931 . S
C2119 H2107 0.929 . S
C2119 C2113 1.390 . S
C2119 C2116 1.386 . S
C2120 C2115 1.490 . S
C2120 C2122 1.395 . S
C2120 C2123 1.403 . S
H2121 C2127 0.930 . S
C2122 H2108 0.930 . S
C2122 C2120 1.395 . S
C2122 C2125 1.403 1_655 S
C2123 C2120 1.403 . S
C2123 C2124 1.524 . S
C2123 C2127 1.400 1_655 S
C2124 H2109 0.960 . S
C2124 H2110 0.960 . S
C2124 H2111 0.960 . S
C2124 C2123 1.524 . S
C2125 C2122 1.403 1_455 S
C2125 C2126 1.392 . S
C2125 C2129 1.495 . S
C2126 C2125 1.392 . S
C2126 C2127 1.385 . S
C2126 C2128 1.478 . S
C2127 H2121 0.930 . S
C2127 C2123 1.400 1_455 S
C2127 C2126 1.385 . S
C2128 C2126 1.478 . S
C2128 C2130 1.381 . S
C2128 C2134 1.383 . S
C2129 C2125 1.495 . S
C2129 H2135 0.959 . S
C2129 H2136 0.961 . S
C2129 H2137 0.960 . S
C2130 C2128 1.381 . S
C2130 C2131 1.394 . S
C2130 H2138 0.930 . S
C2131 C2130 1.394 . S
C2131 C2132 1.383 . S
C2131 H2139 0.929 . S
C2132 C2131 1.383 . S
C2132 C2133 1.377 . S
C2133 H2117 0.930 . S
C2133 C2132 1.377 . S
C2133 C2134 1.379 . S
C2134 H2118 0.931 . S
C2134 C2128 1.383 . S
C2134 C2133 1.379 . S
H2135 C2129 0.959 . S
H2136 C2129 0.961 . S
H2137 C2129 0.960 . S
H2138 C2130 0.930 . S
H2139 C2131 0.929 . S
H2140 C2148 0.929 . S
H2141 C2150 0.930 . S
H2142 C2152 0.930 . S
H2143 C2155 0.929 . S
H2144 C2158 0.930 . S
H2145 C2160 0.960 . S
H2146 C2160 0.960 . S
H2147 C2160 0.960 . S
C2148 H2140 0.929 . S
C2148 C2149 1.377 . S
C2148 C2150 1.384 . S
C2149 C2148 1.377 . S
C2149 C2155 1.390 . S
C2150 H2141 0.930 . S
C2150 C2148 1.384 . S
C2150 C2151 1.372 . S
C2151 C2150 1.372 . S
C2151 C2152 1.400 . S
C2151 C2156 1.490 . S
C2152 H2142 0.930 . S
C2152 C2151 1.400 . S
C2152 C2155 1.386 . S
H2153 C2169 0.930 . S
H2154 C2170 0.931 . S
C2155 H2143 0.929 . S
C2155 C2149 1.390 . S
C2155 C2152 1.386 . S
C2156 C2151 1.490 . S
C2156 C2158 1.395 . S
C2156 C2159 1.403 . S
H2157 C2163 0.930 . S
C2158 H2144 0.930 . S
C2158 C2156 1.395 . S
C2158 C2161 1.403 . S
C2159 C2156 1.403 . S
C2159 C2160 1.524 . S
C2159 C2163 1.400 . S
C2160 H2145 0.960 . S
C2160 H2146 0.960 . S
C2160 H2147 0.960 . S
C2160 C2159 1.524 . S
C2161 C2158 1.403 . S
C2161 C2162 1.392 . S
C2161 C2165 1.495 . S
C2162 C2161 1.392 . S
C2162 C2163 1.385 . S
C2162 C2164 1.478 . S
C2163 H2157 0.930 . S
C2163 C2159 1.400 . S
C2163 C2162 1.385 . S
C2164 C2162 1.478 . S
C2164 C2166 1.381 . S
C2164 C2170 1.383 . S
C2165 C2161 1.495 . S
C2165 H2171 0.959 . S
C2165 H2172 0.961 . S
C2165 H2173 0.960 . S
C2166 C2164 1.381 . S
C2166 C2167 1.394 . S
C2166 H2174 0.930 . S
C2167 C2166 1.394 . S
C2167 C2168 1.383 . S
C2167 H2175 0.929 . S
C2168 C2167 1.383 . S
C2168 C2169 1.377 . S
C2169 H2153 0.930 . S
C2169 C2168 1.377 . S
C2169 C2170 1.379 . S
C2170 H2154 0.931 . S
C2170 C2164 1.383 . S
C2170 C2169 1.379 . S
H2171 C2165 0.959 . S
H2172 C2165 0.961 . S
H2173 C2165 0.960 . S
H2174 C2166 0.930 . S
H2175 C2167 0.929 . S
H2176 C2184 0.929 . S
H2177 C2186 0.930 . S
H2178 C2188 0.930 . S
H2179 C2191 0.929 . S
H2180 C2194 0.930 . S
H2181 C2196 0.960 . S
H2182 C2196 0.960 . S
H2183 C2196 0.960 . S
C2184 H2176 0.929 . S
C2184 C2185 1.377 . S
C2184 C2186 1.384 . S
C2185 C2184 1.377 . S
C2185 C2191 1.390 . S
C2186 H2177 0.930 . S
C2186 C2184 1.384 . S
C2186 C2187 1.372 . S
C2187 C2186 1.372 . S
C2187 C2188 1.400 . S
C2187 C2192 1.490 . S
C2188 H2178 0.930 . S
C2188 C2187 1.400 . S
C2188 C2191 1.386 . S
H2189 C2205 0.930 . S
H2190 C2206 0.931 . S
C2191 H2179 0.929 . S
C2191 C2185 1.390 . S
C2191 C2188 1.386 . S
C2192 C2187 1.490 . S
C2192 C2194 1.395 . S
C2192 C2195 1.403 . S
H2193 C2199 0.930 . S
C2194 H2180 0.930 . S
C2194 C2192 1.395 . S
C2194 C2197 1.403 . S
C2195 C2192 1.403 . S
C2195 C2196 1.524 . S
C2195 C2199 1.400 . S
C2196 H2181 0.960 . S
C2196 H2182 0.960 . S
C2196 H2183 0.960 . S
C2196 C2195 1.524 . S
C2197 C2194 1.403 . S
C2197 C2198 1.392 . S
C2197 C2201 1.495 . S
C2198 C2197 1.392 . S
C2198 C2199 1.385 . S
C2198 C2200 1.478 . S
C2199 H2193 0.930 . S
C2199 C2195 1.400 . S
C2199 C2198 1.385 . S
C2200 C2198 1.478 . S
C2200 C2202 1.381 . S
C2200 C2206 1.383 . S
C2201 C2197 1.495 . S
C2201 H2207 0.959 . S
C2201 H2208 0.961 . S
C2201 H2209 0.960 . S
C2202 C2200 1.381 . S
C2202 C2203 1.394 . S
C2202 H2210 0.930 . S
C2203 C2202 1.394 . S
C2203 C2204 1.383 . S
C2203 H2211 0.929 . S
C2204 C2203 1.383 . S
C2204 C2205 1.377 . S
C2205 H2189 0.930 . S
C2205 C2204 1.377 . S
C2205 C2206 1.379 . S
C2206 H2190 0.931 . S
C2206 C2200 1.383 . S
C2206 C2205 1.379 . S
H2207 C2201 0.959 . S
H2208 C2201 0.961 . S
H2209 C2201 0.960 . S
H2210 C2202 0.930 . S
H2211 C2203 0.929 . S
H2212 C2220 0.929 . S
H2213 C2222 0.930 . S
H2214 C2224 0.930 . S
H2215 C2227 0.929 . S
H2216 C2230 0.930 . S
H2217 C2232 0.960 . S
H2218 C2232 0.960 . S
H2219 C2232 0.960 . S
C2220 H2212 0.929 . S
C2220 C2221 1.377 . S
C2220 C2222 1.384 . S
C2221 C2220 1.377 . S
C2221 C2227 1.390 . S
C2222 H2213 0.930 . S
C2222 C2220 1.384 . S
C2222 C2223 1.372 . S
C2223 C2222 1.372 . S
C2223 C2224 1.400 . S
C2223 C2228 1.490 . S
C2224 H2214 0.930 . S
C2224 C2223 1.400 . S
C2224 C2227 1.386 . S
H2225 C2241 0.930 . S
H2226 C2242 0.931 . S
C2227 H2215 0.929 . S
C2227 C2221 1.390 . S
C2227 C2224 1.386 . S
C2228 C2223 1.490 . S
C2228 C2230 1.395 . S
C2228 C2231 1.403 . S
H2229 C2235 0.930 . S
C2230 H2216 0.930 . S
C2230 C2228 1.395 . S
C2230 C2233 1.403 . S
C2231 C2228 1.403 . S
C2231 C2232 1.524 . S
C2231 C2235 1.400 . S
C2232 H2217 0.960 . S
C2232 H2218 0.960 . S
C2232 H2219 0.960 . S
C2232 C2231 1.524 . S
C2233 C2230 1.403 . S
C2233 C2234 1.392 . S
C2233 C2237 1.495 . S
C2234 C2233 1.392 . S
C2234 C2235 1.385 . S
C2234 C2236 1.478 . S
C2235 H2229 0.930 . S
C2235 C2231 1.400 . S
C2235 C2234 1.385 . S
C2236 C2234 1.478 . S
C2236 C2238 1.381 . S
C2236 C2242 1.383 . S
C2237 C2233 1.495 . S
C2237 H2243 0.959 . S
C2237 H2244 0.961 . S
C2237 H2245 0.960 . S
C2238 C2236 1.381 . S
C2238 C2239 1.394 . S
C2238 H2246 0.930 . S
C2239 C2238 1.394 . S
C2239 C2240 1.383 . S
C2239 H2247 0.929 . S
C2240 C2239 1.383 . S
C2240 C2241 1.377 . S
C2241 H2225 0.930 . S
C2241 C2240 1.377 . S
C2241 C2242 1.379 . S
C2242 H2226 0.931 . S
C2242 C2236 1.383 . S
C2242 C2241 1.379 . S
H2243 C2237 0.959 . S
H2244 C2237 0.961 . S
H2245 C2237 0.960 . S
H2246 C2238 0.930 . S
H2247 C2239 0.929 . S
H2248 C2256 0.929 . S
H2249 C2258 0.930 . S
H2250 C2260 0.930 . S
H2251 C2263 0.929 . S
H2252 C2266 0.930 . S
H2253 C2268 0.960 . S
H2254 C2268 0.960 . S
H2255 C2268 0.960 . S
C2256 H2248 0.929 . S
C2256 C2257 1.377 1_556 S
C2256 C2258 1.384 . S
C2257 C2256 1.377 1_554 S
C2257 C2263 1.390 . S
C2258 H2249 0.930 . S
C2258 C2256 1.384 . S
C2258 C2259 1.372 . S
C2259 C2258 1.372 . S
C2259 C2260 1.400 . S
C2259 C2264 1.490 . S
C2260 H2250 0.930 . S
C2260 C2259 1.400 . S
C2260 C2263 1.386 1_556 S
H2261 C2277 0.930 . S
H2262 C2278 0.931 . S
C2263 H2251 0.929 . S
C2263 C2257 1.390 . S
C2263 C2260 1.386 1_554 S
C2264 C2259 1.490 . S
C2264 C2266 1.395 . S
C2264 C2267 1.403 . S
H2265 C2271 0.930 . S
C2266 H2252 0.930 . S
C2266 C2264 1.395 . S
C2266 C2269 1.403 . S
C2267 C2264 1.403 . S
C2267 C2268 1.524 . S
C2267 C2271 1.400 . S
C2268 H2253 0.960 . S
C2268 H2254 0.960 . S
C2268 H2255 0.960 . S
C2268 C2267 1.524 . S
C2269 C2266 1.403 . S
C2269 C2270 1.392 . S
C2269 C2273 1.495 . S
C2270 C2269 1.392 . S
C2270 C2271 1.385 . S
C2270 C2272 1.478 . S
C2271 H2265 0.930 . S
C2271 C2267 1.400 . S
C2271 C2270 1.385 . S
C2272 C2270 1.478 . S
C2272 C2274 1.381 . S
C2272 C2278 1.383 . S
C2273 C2269 1.495 . S
C2273 H2279 0.959 . S
C2273 H2280 0.961 . S
C2273 H2281 0.960 . S
C2274 C2272 1.381 . S
C2274 C2275 1.394 . S
C2274 H2282 0.930 . S
C2275 C2274 1.394 . S
C2275 C2276 1.383 . S
C2275 H2283 0.929 . S
C2276 C2275 1.383 . S
C2276 C2277 1.377 . S
C2277 H2261 0.930 . S
C2277 C2276 1.377 . S
C2277 C2278 1.379 . S
C2278 H2262 0.931 . S
C2278 C2272 1.383 . S
C2278 C2277 1.379 . S
H2279 C2273 0.959 . S
H2280 C2273 0.961 . S
H2281 C2273 0.960 . S
H2282 C2274 0.930 . S
H2283 C2275 0.929 . S
H2284 C2292 0.929 . S
H2285 C2294 0.930 . S
H2286 C2296 0.930 . S
H2287 C2299 0.929 . S
H2288 C2302 0.930 . S
H2289 C2304 0.960 . S
H2290 C2304 0.960 . S
H2291 C2304 0.960 . S
C2292 H2284 0.929 . S
C2292 C2293 1.377 . S
C2292 C2294 1.384 1_556 S
C2293 C2292 1.377 . S
C2293 C2299 1.390 1_556 S
C2294 H2285 0.930 . S
C2294 C2292 1.384 1_554 S
C2294 C2295 1.372 . S
C2295 C2294 1.372 . S
C2295 C2296 1.400 . S
C2295 C2300 1.490 . S
C2296 H2286 0.930 . S
C2296 C2295 1.400 . S
C2296 C2299 1.386 . S
H2297 C2313 0.930 . S
H2298 C2314 0.931 . S
C2299 H2287 0.929 . S
C2299 C2293 1.390 1_554 S
C2299 C2296 1.386 . S
C2300 C2295 1.490 . S
C2300 C2302 1.395 . S
C2300 C2303 1.403 . S
H2301 C2307 0.930 . S
C2302 H2288 0.930 . S
C2302 C2300 1.395 . S
C2302 C2305 1.403 . S
C2303 C2300 1.403 . S
C2303 C2304 1.524 . S
C2303 C2307 1.400 . S
C2304 H2289 0.960 . S
C2304 H2290 0.960 . S
C2304 H2291 0.960 . S
C2304 C2303 1.524 . S
C2305 C2302 1.403 . S
C2305 C2306 1.392 . S
C2305 C2309 1.495 . S
C2306 C2305 1.392 . S
C2306 C2307 1.385 . S
C2306 C2308 1.478 . S
C2307 H2301 0.930 . S
C2307 C2303 1.400 . S
C2307 C2306 1.385 . S
C2308 C2306 1.478 . S
C2308 C2310 1.381 . S
C2308 C2314 1.383 . S
C2309 C2305 1.495 . S
C2309 H2315 0.959 . S
C2309 H2316 0.961 . S
C2309 H2317 0.960 . S
C2310 C2308 1.381 . S
C2310 C2311 1.394 . S
C2310 H2318 0.930 . S
C2311 C2310 1.394 . S
C2311 C2312 1.383 . S
C2311 H2319 0.929 . S
C2312 C2311 1.383 . S
C2312 C2313 1.377 . S
C2313 H2297 0.930 . S
C2313 C2312 1.377 . S
C2313 C2314 1.379 . S
C2314 H2298 0.931 . S
C2314 C2308 1.383 . S
C2314 C2313 1.379 . S
H2315 C2309 0.959 . S
H2316 C2309 0.961 . S
H2317 C2309 0.960 . S
H2318 C2310 0.930 . S
H2319 C2311 0.929 . S
H2320 C2328 0.929 . S
H2321 C2330 0.930 . S
H2322 C2332 0.930 . S
H2323 C2335 0.929 . S
H2324 C2338 0.930 . S
H2325 C2340 0.960 . S
H2326 C2340 0.960 . S
H2327 C2340 0.960 . S
C2328 H2320 0.929 . S
C2328 C2329 1.377 . S
C2328 C2330 1.384 . S
C2329 C2328 1.377 . S
C2329 C2335 1.390 . S
C2330 H2321 0.930 . S
C2330 C2328 1.384 . S
C2330 C2331 1.372 . S
C2331 C2330 1.372 . S
C2331 C2332 1.400 . S
C2331 C2336 1.490 . S
C2332 H2322 0.930 . S
C2332 C2331 1.400 . S
C2332 C2335 1.386 . S
H2333 C2349 0.930 . S
H2334 C2350 0.931 . S
C2335 H2323 0.929 . S
C2335 C2329 1.390 . S
C2335 C2332 1.386 . S
C2336 C2331 1.490 . S
C2336 C2338 1.395 . S
C2336 C2339 1.403 . S
H2337 C2343 0.930 . S
C2338 H2324 0.930 . S
C2338 C2336 1.395 . S
C2338 C2341 1.403 . S
C2339 C2336 1.403 . S
C2339 C2340 1.524 . S
C2339 C2343 1.400 . S
C2340 H2325 0.960 . S
C2340 H2326 0.960 . S
C2340 H2327 0.960 . S
C2340 C2339 1.524 . S
C2341 C2338 1.403 . S
C2341 C2342 1.392 . S
C2341 C2345 1.495 . S
C2342 C2341 1.392 . S
C2342 C2343 1.385 . S
C2342 C2344 1.478 . S
C2343 H2337 0.930 . S
C2343 C2339 1.400 . S
C2343 C2342 1.385 . S
C2344 C2342 1.478 . S
C2344 C2346 1.381 . S
C2344 C2350 1.383 . S
C2345 C2341 1.495 . S
C2345 H2351 0.959 . S
C2345 H2352 0.961 . S
C2345 H2353 0.960 . S
C2346 C2344 1.381 . S
C2346 C2347 1.394 . S
C2346 H2354 0.930 . S
C2347 C2346 1.394 . S
C2347 C2348 1.383 . S
C2347 H2355 0.929 . S
C2348 C2347 1.383 . S
C2348 C2349 1.377 . S
C2349 H2333 0.930 . S
C2349 C2348 1.377 . S
C2349 C2350 1.379 . S
C2350 H2334 0.931 . S
C2350 C2344 1.383 . S
C2350 C2349 1.379 . S
H2351 C2345 0.959 . S
H2352 C2345 0.961 . S
H2353 C2345 0.960 . S
H2354 C2346 0.930 . S
H2355 C2347 0.929 . S
H2356 C2364 0.929 . S
H2357 C2366 0.930 . S
H2358 C2368 0.930 . S
H2359 C2371 0.929 . S
H2360 C2374 0.930 . S
H2361 C2376 0.960 . S
H2362 C2376 0.960 . S
H2363 C2376 0.960 . S
C2364 H2356 0.929 . S
C2364 C2365 1.377 . S
C2364 C2366 1.384 . S
C2365 C2364 1.377 . S
C2365 C2371 1.390 . S
C2366 H2357 0.930 . S
C2366 C2364 1.384 . S
C2366 C2367 1.372 . S
C2367 C2366 1.372 . S
C2367 C2368 1.400 . S
C2367 C2372 1.490 . S
C2368 H2358 0.930 . S
C2368 C2367 1.400 . S
C2368 C2371 1.386 . S
H2369 C2385 0.930 . S
H2370 C2386 0.931 . S
C2371 H2359 0.929 . S
C2371 C2365 1.390 . S
C2371 C2368 1.386 . S
C2372 C2367 1.490 . S
C2372 C2374 1.395 . S
C2372 C2375 1.403 . S
H2373 C2379 0.930 . S
C2374 H2360 0.930 . S
C2374 C2372 1.395 . S
C2374 C2377 1.403 . S
C2375 C2372 1.403 . S
C2375 C2376 1.524 . S
C2375 C2379 1.400 . S
C2376 H2361 0.960 . S
C2376 H2362 0.960 . S
C2376 H2363 0.960 . S
C2376 C2375 1.524 . S
C2377 C2374 1.403 . S
C2377 C2378 1.392 . S
C2377 C2381 1.495 . S
C2378 C2377 1.392 . S
C2378 C2379 1.385 . S
C2378 C2380 1.478 . S
C2379 H2373 0.930 . S
C2379 C2375 1.400 . S
C2379 C2378 1.385 . S
C2380 C2378 1.478 . S
C2380 C2382 1.381 . S
C2380 C2386 1.383 . S
C2381 C2377 1.495 . S
C2381 H2387 0.959 . S
C2381 H2388 0.961 . S
C2381 H2389 0.960 . S
C2382 C2380 1.381 . S
C2382 C2383 1.394 . S
C2382 H2390 0.930 . S
C2383 C2382 1.394 . S
C2383 C2384 1.383 . S
C2383 H2391 0.929 . S
C2384 C2383 1.383 . S
C2384 C2385 1.377 . S
C2385 H2369 0.930 . S
C2385 C2384 1.377 . S
C2385 C2386 1.379 . S
C2386 H2370 0.931 . S
C2386 C2380 1.383 . S
C2386 C2385 1.379 . S
H2387 C2381 0.959 . S
H2388 C2381 0.961 . S
H2389 C2381 0.960 . S
H2390 C2382 0.930 . S
H2391 C2383 0.929 . S
H2392 C2400 0.929 . S
H2393 C2402 0.930 . S
H2394 C2404 0.930 . S
H2395 C2407 0.929 . S
H2396 C2410 0.930 . S
H2397 C2412 0.960 . S
H2398 C2412 0.960 . S
H2399 C2412 0.960 . S
C2400 H2392 0.929 . S
C2400 C2401 1.377 . S
C2400 C2402 1.384 . S
C2401 C2400 1.377 . S
C2401 C2407 1.390 . S
C2402 H2393 0.930 . S
C2402 C2400 1.384 . S
C2402 C2403 1.372 . S
C2403 C2402 1.372 . S
C2403 C2404 1.400 . S
C2403 C2408 1.490 . S
C2404 H2394 0.930 . S
C2404 C2403 1.400 . S
C2404 C2407 1.386 . S
H2405 C2421 0.930 . S
H2406 C2422 0.931 . S
C2407 H2395 0.929 . S
C2407 C2401 1.390 . S
C2407 C2404 1.386 . S
C2408 C2403 1.490 . S
C2408 C2410 1.395 . S
C2408 C2411 1.403 . S
H2409 C2415 0.930 . S
C2410 H2396 0.930 . S
C2410 C2408 1.395 . S
C2410 C2413 1.403 . S
C2411 C2408 1.403 . S
C2411 C2412 1.524 . S
C2411 C2415 1.400 . S
C2412 H2397 0.960 . S
C2412 H2398 0.960 . S
C2412 H2399 0.960 . S
C2412 C2411 1.524 . S
C2413 C2410 1.403 . S
C2413 C2414 1.392 . S
C2413 C2417 1.495 . S
C2414 C2413 1.392 . S
C2414 C2415 1.385 . S
C2414 C2416 1.478 . S
C2415 H2409 0.930 . S
C2415 C2411 1.400 . S
C2415 C2414 1.385 . S
C2416 C2414 1.478 . S
C2416 C2418 1.381 . S
C2416 C2422 1.383 . S
C2417 C2413 1.495 . S
C2417 H2423 0.959 . S
C2417 H2424 0.961 . S
C2417 H2425 0.960 . S
C2418 C2416 1.381 . S
C2418 C2419 1.394 . S
C2418 H2426 0.930 . S
C2419 C2418 1.394 . S
C2419 C2420 1.383 1_554 S
C2419 H2427 0.929 . S
C2420 C2419 1.383 1_556 S
C2420 C2421 1.377 . S
C2421 H2405 0.930 . S
C2421 C2420 1.377 . S
C2421 C2422 1.379 1_556 S
C2422 H2406 0.931 . S
C2422 C2416 1.383 . S
C2422 C2421 1.379 1_554 S
H2423 C2417 0.959 . S
H2424 C2417 0.961 . S
H2425 C2417 0.960 . S
H2426 C2418 0.930 . S
H2427 C2419 0.929 . S
H2428 C2436 0.929 . S
H2429 C2438 0.930 . S
H2430 C2440 0.930 . S
H2431 C2443 0.929 . S
H2432 C2446 0.930 . S
H2433 C2448 0.960 . S
H2434 C2448 0.960 . S
H2435 C2448 0.960 . S
C2436 H2428 0.929 . S
C2436 C2437 1.377 . S
C2436 C2438 1.384 . S
C2437 C2436 1.377 . S
C2437 C2443 1.390 . S
C2438 H2429 0.930 . S
C2438 C2436 1.384 . S
C2438 C2439 1.372 . S
C2439 C2438 1.372 . S
C2439 C2440 1.400 . S
C2439 C2444 1.490 . S
C2440 H2430 0.930 . S
C2440 C2439 1.400 . S
C2440 C2443 1.386 . S
H2441 C2457 0.930 . S
H2442 C2458 0.931 . S
C2443 H2431 0.929 . S
C2443 C2437 1.390 . S
C2443 C2440 1.386 . S
C2444 C2439 1.490 . S
C2444 C2446 1.395 . S
C2444 C2447 1.403 . S
H2445 C2451 0.930 . S
C2446 H2432 0.930 . S
C2446 C2444 1.395 . S
C2446 C2449 1.403 . S
C2447 C2444 1.403 . S
C2447 C2448 1.524 . S
C2447 C2451 1.400 . S
C2448 H2433 0.960 . S
C2448 H2434 0.960 . S
C2448 H2435 0.960 . S
C2448 C2447 1.524 . S
C2449 C2446 1.403 . S
C2449 C2450 1.392 . S
C2449 C2453 1.495 . S
C2450 C2449 1.392 . S
C2450 C2451 1.385 . S
C2450 C2452 1.478 . S
C2451 H2445 0.930 . S
C2451 C2447 1.400 . S
C2451 C2450 1.385 . S
C2452 C2450 1.478 . S
C2452 C2454 1.381 . S
C2452 C2458 1.383 . S
C2453 C2449 1.495 . S
C2453 H2459 0.959 . S
C2453 H2460 0.961 . S
C2453 H2461 0.960 . S
C2454 C2452 1.381 . S
C2454 C2455 1.394 1_556 S
C2454 H2462 0.930 . S
C2455 C2454 1.394 1_554 S
C2455 C2456 1.383 . S
C2455 H2463 0.929 . S
C2456 C2455 1.383 . S
C2456 C2457 1.377 1_554 S
C2457 H2441 0.930 . S
C2457 C2456 1.377 1_556 S
C2457 C2458 1.379 . S
C2458 H2442 0.931 . S
C2458 C2452 1.383 . S
C2458 C2457 1.379 . S
H2459 C2453 0.959 . S
H2460 C2453 0.961 . S
H2461 C2453 0.960 . S
H2462 C2454 0.930 . S
H2463 C2455 0.929 . S
H2464 C2472 0.929 . S
H2465 C2474 0.930 . S
H2466 C2476 0.930 . S
H2467 C2479 0.929 . S
H2468 C2482 0.930 . S
H2469 C2484 0.960 . S
H2470 C2484 0.960 . S
H2471 C2484 0.960 . S
C2472 H2464 0.929 . S
C2472 C2473 1.377 1_556 S
C2472 C2474 1.384 . S
C2473 C2472 1.377 1_554 S
C2473 C2479 1.390 . S
C2474 H2465 0.930 . S
C2474 C2472 1.384 . S
C2474 C2475 1.372 . S
C2475 C2474 1.372 . S
C2475 C2476 1.400 . S
C2475 C2480 1.490 . S
C2476 H2466 0.930 . S
C2476 C2475 1.400 . S
C2476 C2479 1.386 1_556 S
H2477 C2493 0.930 . S
H2478 C2494 0.931 . S
C2479 H2467 0.929 . S
C2479 C2473 1.390 . S
C2479 C2476 1.386 1_554 S
C2480 C2475 1.490 . S
C2480 C2482 1.395 . S
C2480 C2483 1.403 . S
H2481 C2487 0.930 . S
C2482 H2468 0.930 . S
C2482 C2480 1.395 . S
C2482 C2485 1.403 . S
C2483 C2480 1.403 . S
C2483 C2484 1.524 . S
C2483 C2487 1.400 . S
C2484 H2469 0.960 . S
C2484 H2470 0.960 . S
C2484 H2471 0.960 . S
C2484 C2483 1.524 . S
C2485 C2482 1.403 . S
C2485 C2486 1.392 . S
C2485 C2489 1.495 . S
C2486 C2485 1.392 . S
C2486 C2487 1.385 . S
C2486 C2488 1.478 . S
C2487 H2481 0.930 . S
C2487 C2483 1.400 . S
C2487 C2486 1.385 . S
C2488 C2486 1.478 . S
C2488 C2490 1.381 . S
C2488 C2494 1.383 . S
C2489 C2485 1.495 . S
C2489 H2495 0.959 . S
C2489 H2496 0.961 . S
C2489 H2497 0.960 . S
C2490 C2488 1.381 . S
C2490 C2491 1.394 . S
C2490 H2498 0.930 . S
C2491 C2490 1.394 . S
C2491 C2492 1.383 . S
C2491 H2499 0.929 . S
C2492 C2491 1.383 . S
C2492 C2493 1.377 . S
C2493 H2477 0.930 . S
C2493 C2492 1.377 . S
C2493 C2494 1.379 . S
C2494 H2478 0.931 . S
C2494 C2488 1.383 . S
C2494 C2493 1.379 . S
H2495 C2489 0.959 . S
H2496 C2489 0.961 . S
H2497 C2489 0.960 . S
H2498 C2490 0.930 . S
H2499 C2491 0.929 . S
H2500 C2508 0.929 . S
H2501 C2510 0.930 . S
H2502 C2512 0.930 . S
H2503 C2515 0.929 . S
H2504 C2518 0.930 . S
H2505 C2520 0.960 . S
H2506 C2520 0.960 . S
H2507 C2520 0.960 . S
C2508 H2500 0.929 . S
C2508 C2509 1.377 . S
C2508 C2510 1.384 . S
C2509 C2508 1.377 . S
C2509 C2515 1.390 . S
C2510 H2501 0.930 . S
C2510 C2508 1.384 . S
C2510 C2511 1.372 . S
C2511 C2510 1.372 . S
C2511 C2512 1.400 . S
C2511 C2516 1.490 . S
C2512 H2502 0.930 . S
C2512 C2511 1.400 . S
C2512 C2515 1.386 . S
H2513 C2529 0.930 1_556 S
H2514 C2530 0.931 . S
C2515 H2503 0.929 . S
C2515 C2509 1.390 . S
C2515 C2512 1.386 . S
C2516 C2511 1.490 . S
C2516 C2518 1.395 . S
C2516 C2519 1.403 . S
H2517 C2523 0.930 . S
C2518 H2504 0.930 . S
C2518 C2516 1.395 . S
C2518 C2521 1.403 . S
C2519 C2516 1.403 . S
C2519 C2520 1.524 . S
C2519 C2523 1.400 . S
C2520 H2505 0.960 . S
C2520 H2506 0.960 . S
C2520 H2507 0.960 . S
C2520 C2519 1.524 . S
C2521 C2518 1.403 . S
C2521 C2522 1.392 . S
C2521 C2525 1.495 . S
C2522 C2521 1.392 . S
C2522 C2523 1.385 . S
C2522 C2524 1.478 . S
C2523 H2517 0.930 . S
C2523 C2519 1.400 . S
C2523 C2522 1.385 . S
C2524 C2522 1.478 . S
C2524 C2526 1.381 . S
C2524 C2530 1.383 . S
C2525 C2521 1.495 . S
C2525 H2531 0.959 . S
C2525 H2532 0.961 . S
C2525 H2533 0.960 . S
C2526 C2524 1.381 . S
C2526 C2527 1.394 1_554 S
C2526 H2534 0.930 . S
C2527 C2526 1.394 1_556 S
C2527 C2528 1.383 . S
C2527 H2535 0.929 . S
C2528 C2527 1.383 . S
C2528 C2529 1.377 1_556 S
C2529 H2513 0.930 1_554 S
C2529 C2528 1.377 1_554 S
C2529 C2530 1.379 . S
C2530 H2514 0.931 . S
C2530 C2524 1.383 . S
C2530 C2529 1.379 . S
H2531 C2525 0.959 . S
H2532 C2525 0.961 . S
H2533 C2525 0.960 . S
H2534 C2526 0.930 . S
H2535 C2527 0.929 . S
H2536 C2544 0.929 . S
H2537 C2546 0.930 . S
H2538 C2548 0.930 . S
H2539 C2551 0.929 . S
H2540 C2554 0.930 . S
H2541 C2556 0.960 . S
H2542 C2556 0.960 . S
H2543 C2556 0.960 . S
C2544 H2536 0.929 . S
C2544 C2545 1.377 . S
C2544 C2546 1.384 . S
C2545 C2544 1.377 . S
C2545 C2551 1.390 . S
C2546 H2537 0.930 . S
C2546 C2544 1.384 . S
C2546 C2547 1.372 . S
C2547 C2546 1.372 . S
C2547 C2548 1.400 . S
C2547 C2552 1.490 . S
C2548 H2538 0.930 . S
C2548 C2547 1.400 . S
C2548 C2551 1.386 . S
H2549 C2565 0.930 . S
H2550 C2566 0.931 . S
C2551 H2539 0.929 . S
C2551 C2545 1.390 . S
C2551 C2548 1.386 . S
C2552 C2547 1.490 . S
C2552 C2554 1.395 . S
C2552 C2555 1.403 . S
H2553 C2559 0.930 . S
C2554 H2540 0.930 . S
C2554 C2552 1.395 . S
C2554 C2557 1.403 . S
C2555 C2552 1.403 . S
C2555 C2556 1.524 . S
C2555 C2559 1.400 . S
C2556 H2541 0.960 . S
C2556 H2542 0.960 . S
C2556 H2543 0.960 . S
C2556 C2555 1.524 . S
C2557 C2554 1.403 . S
C2557 C2558 1.392 . S
C2557 C2561 1.495 . S
C2558 C2557 1.392 . S
C2558 C2559 1.385 . S
C2558 C2560 1.478 . S
C2559 H2553 0.930 . S
C2559 C2555 1.400 . S
C2559 C2558 1.385 . S
C2560 C2558 1.478 . S
C2560 C2562 1.381 . S
C2560 C2566 1.383 . S
C2561 C2557 1.495 . S
C2561 H2567 0.959 . S
C2561 H2568 0.961 . S
C2561 H2569 0.960 . S
C2562 C2560 1.381 . S
C2562 C2563 1.394 . S
C2562 H2570 0.930 . S
C2563 C2562 1.394 . S
C2563 C2564 1.383 . S
C2563 H2571 0.929 . S
C2564 C2563 1.383 . S
C2564 C2565 1.377 . S
C2565 H2549 0.930 . S
C2565 C2564 1.377 . S
C2565 C2566 1.379 . S
C2566 H2550 0.931 . S
C2566 C2560 1.383 . S
C2566 C2565 1.379 . S
H2567 C2561 0.959 . S
H2568 C2561 0.961 . S
H2569 C2561 0.960 . S
H2570 C2562 0.930 . S
H2571 C2563 0.929 . S
H2572 C2580 0.929 . S
H2573 C2582 0.930 . S
H2574 C2584 0.930 . S
H2575 C2587 0.929 . S
H2576 C2590 0.930 . S
H2577 C2592 0.960 . S
H2578 C2592 0.960 . S
H2579 C2592 0.960 . S
C2580 H2572 0.929 . S
C2580 C2581 1.377 . S
C2580 C2582 1.384 . S
C2581 C2580 1.377 . S
C2581 C2587 1.390 . S
C2582 H2573 0.930 . S
C2582 C2580 1.384 . S
C2582 C2583 1.372 . S
C2583 C2582 1.372 . S
C2583 C2584 1.400 . S
C2583 C2588 1.490 . S
C2584 H2574 0.930 . S
C2584 C2583 1.400 . S
C2584 C2587 1.386 . S
H2585 C2601 0.930 . S
H2586 C2602 0.931 . S
C2587 H2575 0.929 . S
C2587 C2581 1.390 . S
C2587 C2584 1.386 . S
C2588 C2583 1.490 . S
C2588 C2590 1.395 . S
C2588 C2591 1.403 . S
H2589 C2595 0.930 . S
C2590 H2576 0.930 . S
C2590 C2588 1.395 . S
C2590 C2593 1.403 . S
C2591 C2588 1.403 . S
C2591 C2592 1.524 . S
C2591 C2595 1.400 . S
C2592 H2577 0.960 . S
C2592 H2578 0.960 . S
C2592 H2579 0.960 . S
C2592 C2591 1.524 . S
C2593 C2590 1.403 . S
C2593 C2594 1.392 . S
C2593 C2597 1.495 . S
C2594 C2593 1.392 . S
C2594 C2595 1.385 . S
C2594 C2596 1.478 . S
C2595 H2589 0.930 . S
C2595 C2591 1.400 . S
C2595 C2594 1.385 . S
C2596 C2594 1.478 . S
C2596 C2598 1.381 . S
C2596 C2602 1.383 . S
C2597 C2593 1.495 . S
C2597 H2603 0.959 . S
C2597 H2604 0.961 . S
C2597 H2605 0.960 . S
C2598 C2596 1.381 . S
C2598 C2599 1.394 . S
C2598 H2606 0.930 . S
C2599 C2598 1.394 . S
C2599 C2600 1.383 . S
C2599 H2607 0.929 . S
C2600 C2599 1.383 . S
C2600 C2601 1.377 . S
C2601 H2585 0.930 . S
C2601 C2600 1.377 . S
C2601 C2602 1.379 . S
C2602 H2586 0.931 . S
C2602 C2596 1.383 . S
C2602 C2601 1.379 . S
H2603 C2597 0.959 . S
H2604 C2597 0.961 . S
H2605 C2597 0.960 . S
H2606 C2598 0.930 . S
H2607 C2599 0.929 . S
H2608 C2616 0.929 . S
H2609 C2618 0.930 . S
H2610 C2620 0.930 . S
H2611 C2623 0.929 . S
H2612 C2626 0.930 . S
H2613 C2628 0.960 . S
H2614 C2628 0.960 . S
H2615 C2628 0.960 . S
C2616 H2608 0.929 . S
C2616 C2617 1.377 . S
C2616 C2618 1.384 . S
C2617 C2616 1.377 . S
C2617 C2623 1.390 . S
C2618 H2609 0.930 . S
C2618 C2616 1.384 . S
C2618 C2619 1.372 . S
C2619 C2618 1.372 . S
C2619 C2620 1.400 . S
C2619 C2624 1.490 . S
C2620 H2610 0.930 . S
C2620 C2619 1.400 . S
C2620 C2623 1.386 . S
H2621 C2637 0.930 1_556 S
H2622 C2638 0.931 . S
C2623 H2611 0.929 . S
C2623 C2617 1.390 . S
C2623 C2620 1.386 . S
C2624 C2619 1.490 . S
C2624 C2626 1.395 . S
C2624 C2627 1.403 . S
H2625 C2631 0.930 . S
C2626 H2612 0.930 . S
C2626 C2624 1.395 . S
C2626 C2629 1.403 . S
C2627 C2624 1.403 . S
C2627 C2628 1.524 . S
C2627 C2631 1.400 . S
C2628 H2613 0.960 . S
C2628 H2614 0.960 . S
C2628 H2615 0.960 . S
C2628 C2627 1.524 . S
C2629 C2626 1.403 . S
C2629 C2630 1.392 . S
C2629 C2633 1.495 . S
C2630 C2629 1.392 . S
C2630 C2631 1.385 . S
C2630 C2632 1.478 . S
C2631 H2625 0.930 . S
C2631 C2627 1.400 . S
C2631 C2630 1.385 . S
C2632 C2630 1.478 . S
C2632 C2634 1.381 . S
C2632 C2638 1.383 . S
C2633 C2629 1.495 . S
C2633 H2639 0.959 . S
C2633 H2640 0.961 . S
C2633 H2641 0.960 . S
C2634 C2632 1.381 . S
C2634 C2635 1.394 1_554 S
C2634 H2642 0.930 . S
C2635 C2634 1.394 1_556 S
C2635 C2636 1.383 . S
C2635 H2643 0.929 . S
C2636 C2635 1.383 . S
C2636 C2637 1.377 1_556 S
C2637 H2621 0.930 1_554 S
C2637 C2636 1.377 1_554 S
C2637 C2638 1.379 . S
C2638 H2622 0.931 . S
C2638 C2632 1.383 . S
C2638 C2637 1.379 . S
H2639 C2633 0.959 . S
H2640 C2633 0.961 . S
H2641 C2633 0.960 . S
H2642 C2634 0.930 . S
H2643 C2635 0.929 . S
H2644 C2652 0.929 . S
H2645 C2654 0.930 . S
H2646 C2656 0.930 . S
H2647 C2659 0.929 . S
H2648 C2662 0.930 . S
H2649 C2664 0.960 . S
H2650 C2664 0.960 . S
H2651 C2664 0.960 . S
C2652 H2644 0.929 . S
C2652 C2653 1.377 1_556 S
C2652 C2654 1.384 . S
C2653 C2652 1.377 1_554 S
C2653 C2659 1.390 . S
C2654 H2645 0.930 . S
C2654 C2652 1.384 . S
C2654 C2655 1.372 . S
C2655 C2654 1.372 . S
C2655 C2656 1.400 . S
C2655 C2660 1.490 . S
C2656 H2646 0.930 . S
C2656 C2655 1.400 . S
C2656 C2659 1.386 1_556 S
H2657 C2673 0.930 . S
H2658 C2674 0.931 . S
C2659 H2647 0.929 . S
C2659 C2653 1.390 . S
C2659 C2656 1.386 1_554 S
C2660 C2655 1.490 . S
C2660 C2662 1.395 . S
C2660 C2663 1.403 . S
H2661 C2667 0.930 . S
C2662 H2648 0.930 . S
C2662 C2660 1.395 . S
C2662 C2665 1.403 . S
C2663 C2660 1.403 . S
C2663 C2664 1.524 . S
C2663 C2667 1.400 . S
C2664 H2649 0.960 . S
C2664 H2650 0.960 . S
C2664 H2651 0.960 . S
C2664 C2663 1.524 . S
C2665 C2662 1.403 . S
C2665 C2666 1.392 . S
C2665 C2669 1.495 . S
C2666 C2665 1.392 . S
C2666 C2667 1.385 . S
C2666 C2668 1.478 . S
C2667 H2661 0.930 . S
C2667 C2663 1.400 . S
C2667 C2666 1.385 . S
C2668 C2666 1.478 . S
C2668 C2670 1.381 . S
C2668 C2674 1.383 . S
C2669 C2665 1.495 . S
C2669 H2675 0.959 . S
C2669 H2676 0.961 . S
C2669 H2677 0.960 . S
C2670 C2668 1.381 . S
C2670 C2671 1.394 . S
C2670 H2678 0.930 . S
C2671 C2670 1.394 . S
C2671 C2672 1.383 . S
C2671 H2679 0.929 . S
C2672 C2671 1.383 . S
C2672 C2673 1.377 . S
C2673 H2657 0.930 . S
C2673 C2672 1.377 . S
C2673 C2674 1.379 . S
C2674 H2658 0.931 . S
C2674 C2668 1.383 . S
C2674 C2673 1.379 . S
H2675 C2669 0.959 . S
H2676 C2669 0.961 . S
H2677 C2669 0.960 . S
H2678 C2670 0.930 . S
H2679 C2671 0.929 . S
H2680 C2688 0.929 . S
H2681 C2690 0.930 . S
H2682 C2692 0.930 . S
H2683 C2695 0.929 . S
H2684 C2698 0.930 . S
H2685 C2700 0.960 . S
H2686 C2700 0.960 . S
H2687 C2700 0.960 . S
C2688 H2680 0.929 . S
C2688 C2689 1.377 . S
C2688 C2690 1.384 . S
C2689 C2688 1.377 . S
C2689 C2695 1.390 . S
C2690 H2681 0.930 . S
C2690 C2688 1.384 . S
C2690 C2691 1.372 . S
C2691 C2690 1.372 . S
C2691 C2692 1.400 . S
C2691 C2696 1.490 . S
C2692 H2682 0.930 . S
C2692 C2691 1.400 . S
C2692 C2695 1.386 . S
H2693 C2709 0.930 . S
H2694 C2710 0.931 . S
C2695 H2683 0.929 . S
C2695 C2689 1.390 . S
C2695 C2692 1.386 . S
C2696 C2691 1.490 . S
C2696 C2698 1.395 . S
C2696 C2699 1.403 . S
H2697 C2703 0.930 . S
C2698 H2684 0.930 . S
C2698 C2696 1.395 . S
C2698 C2701 1.403 . S
C2699 C2696 1.403 . S
C2699 C2700 1.524 . S
C2699 C2703 1.400 . S
C2700 H2685 0.960 . S
C2700 H2686 0.960 . S
C2700 H2687 0.960 . S
C2700 C2699 1.524 . S
C2701 C2698 1.403 . S
C2701 C2702 1.392 . S
C2701 C2705 1.495 . S
C2702 C2701 1.392 . S
C2702 C2703 1.385 . S
C2702 C2704 1.478 . S
C2703 H2697 0.930 . S
C2703 C2699 1.400 . S
C2703 C2702 1.385 . S
C2704 C2702 1.478 . S
C2704 C2706 1.381 . S
C2704 C2710 1.383 . S
C2705 C2701 1.495 . S
C2705 H2711 0.959 . S
C2705 H2712 0.961 . S
C2705 H2713 0.960 . S
C2706 C2704 1.381 . S
C2706 C2707 1.394 . S
C2706 H2714 0.930 . S
C2707 C2706 1.394 . S
C2707 C2708 1.383 . S
C2707 H2715 0.929 . S
C2708 C2707 1.383 . S
C2708 C2709 1.377 . S
C2709 H2693 0.930 . S
C2709 C2708 1.377 . S
C2709 C2710 1.379 . S
C2710 H2694 0.931 . S
C2710 C2704 1.383 . S
C2710 C2709 1.379 . S
H2711 C2705 0.959 . S
H2712 C2705 0.961 . S
H2713 C2705 0.960 . S
H2714 C2706 0.930 . S
H2715 C2707 0.929 . S
H2716 C2724 0.929 . S
H2717 C2726 0.930 . S
H2718 C2728 0.930 . S
H2719 C2731 0.929 . S
H2720 C2734 0.930 . S
H2721 C2736 0.960 . S
H2722 C2736 0.960 . S
H2723 C2736 0.960 . S
C2724 H2716 0.929 . S
C2724 C2725 1.377 . S
C2724 C2726 1.384 . S
C2725 C2724 1.377 . S
C2725 C2731 1.390 . S
C2726 H2717 0.930 . S
C2726 C2724 1.384 . S
C2726 C2727 1.372 . S
C2727 C2726 1.372 . S
C2727 C2728 1.400 . S
C2727 C2732 1.490 . S
C2728 H2718 0.930 . S
C2728 C2727 1.400 . S
C2728 C2731 1.386 . S
H2729 C2745 0.930 . S
H2730 C2746 0.931 . S
C2731 H2719 0.929 . S
C2731 C2725 1.390 . S
C2731 C2728 1.386 . S
C2732 C2727 1.490 . S
C2732 C2734 1.395 . S
C2732 C2735 1.403 . S
H2733 C2739 0.930 . S
C2734 H2720 0.930 . S
C2734 C2732 1.395 . S
C2734 C2737 1.403 . S
C2735 C2732 1.403 . S
C2735 C2736 1.524 . S
C2735 C2739 1.400 . S
C2736 H2721 0.960 . S
C2736 H2722 0.960 . S
C2736 H2723 0.960 . S
C2736 C2735 1.524 . S
C2737 C2734 1.403 . S
C2737 C2738 1.392 . S
C2737 C2741 1.495 . S
C2738 C2737 1.392 . S
C2738 C2739 1.385 . S
C2738 C2740 1.478 . S
C2739 H2733 0.930 . S
C2739 C2735 1.400 . S
C2739 C2738 1.385 . S
C2740 C2738 1.478 . S
C2740 C2742 1.381 . S
C2740 C2746 1.383 . S
C2741 C2737 1.495 . S
C2741 H2747 0.959 . S
C2741 H2748 0.961 . S
C2741 H2749 0.960 . S
C2742 C2740 1.381 . S
C2742 C2743 1.394 . S
C2742 H2750 0.930 . S
C2743 C2742 1.394 . S
C2743 C2744 1.383 . S
C2743 H2751 0.929 . S
C2744 C2743 1.383 . S
C2744 C2745 1.377 . S
C2745 H2729 0.930 . S
C2745 C2744 1.377 . S
C2745 C2746 1.379 . S
C2746 H2730 0.931 . S
C2746 C2740 1.383 . S
C2746 C2745 1.379 . S
H2747 C2741 0.959 . S
H2748 C2741 0.961 . S
H2749 C2741 0.960 . S
H2750 C2742 0.930 . S
H2751 C2743 0.929 . S
C457 C93 1.276 . S
C476 C9 1.274 . S
C493 C23 1.275 . S
C512 C107 1.294 . S
C529 C65 1.277 . S
C548 C37 1.287 . S
C565 C51 1.274 . S
C584 C79 1.297 . S
C601 C121 1.274 . S
C620 C205 1.259 . S
C637 C219 1.274 . S
C656 C135 1.259 . S
C673 C149 1.273 . S
C692 C177 1.272 . S
C709 C191 1.282 . S
C728 C163 1.288 . S
C745 C233 1.280 . S
C764 C317 1.272 . S
C781 C247 1.274 . S
C800 C331 1.288 . S
C817 C289 1.275 . S
C836 C261 1.280 . S
C853 C303 1.280 . S
C872 C275 1.277 . S
C889 C345 1.282 . S
C908 C429 1.271 . S
C925 C359 1.274 . S
C944 C443 1.281 . S
C961 C401 1.280 . S
C980 C373 1.297 . S
C997 C387 1.274 . S
C1016 C415 1.271 . S
C1033 C6 1.242 . S
C1052 C104 1.217 . S
C1069 C62 1.236 . S
C1088 C20 1.257 . S
C1105 C76 1.242 . S
C1124 C34 1.255 . S
C1141 C48 1.245 . S
C1160 C90 1.236 . S
C1177 C118 1.244 . S
C1196 C216 1.253 . S
C1213 C174 1.236 . S
C1232 C132 1.245 . S
C1249 C188 1.246 . S
C1268 C146 1.226 . S
C1285 C202 1.246 . S
C1304 C160 1.235 . S
C1321 C230 1.239 . S
C1340 C328 1.229 . S
C1357 C244 1.241 . S
C1376 C286 1.257 . S
C1393 C300 1.246 . S
C1412 C258 1.220 . S
C1429 C272 1.240 . S
C1448 C314 1.260 . S
C1465 C342 1.239 . S
C1484 C440 1.220 . S
C1501 C398 1.240 . S
C1520 C356 1.262 . S
C1537 C370 1.239 . S
C1556 C412 1.262 . S
C1573 C384 1.236 . S
C1592 C426 1.245 . S
C1609 C427 1.636 . S
C1628 C7 1.614 . S
C1645 C217 1.633 . S
C1664 C21 1.625 . S
C1681 C35 1.640 . S
C1700 C399 1.611 . S
C1717 C49 1.642 . S
C1736 C189 1.620 . S
C1753 C63 1.640 . S
C1772 C371 1.610 . S
C1789 C77 1.632 . S
C1808 C161 1.645 . S
C1825 C91 1.634 . S
C1844 C343 1.656 . S
C1861 C133 1.632 . S
C1880 C105 1.642 . S
C1897 C315 1.636 . S
C1916 C119 1.656 . S
C1933 C147 1.635 . S
C1952 C287 1.656 . S
C1969 C259 1.637 . S
C1988 C175 1.654 . S
C2005 C231 1.642 . S
C2024 C203 1.626 . S
C2041 C245 1.633 . S
C2060 C441 1.633 . S
C2077 C273 1.642 . S
C2096 C413 1.625 . S
C2113 C301 1.633 . S
C2132 C385 1.628 . S
C2149 C357 1.637 . S
C2168 C329 1.654 . S
C2185 C8 2.143 . S
C2204 C106 2.141 . S
C2221 C22 2.145 . S
C2240 C64 2.144 . S
C2257 C78 2.144 . S
C2276 C36 2.141 . S
C2293 C50 2.143 . S
C2312 C92 2.141 . S
C2329 C218 2.145 . S
C2348 C120 2.134 . S
C2365 C176 2.144 . S
C2384 C134 2.133 . S
C2401 C148 2.142 . S
C2420 C190 2.142 . S
C2437 C204 2.145 . S
C2456 C162 2.134 . S
C2473 C330 2.144 . S
C2492 C232 2.141 . S
C2509 C288 2.142 . S
C2528 C246 2.132 . S
C2545 C302 2.143 . S
C2564 C260 2.142 . S
C2581 C316 2.144 . S
C2600 C274 2.138 . S
C2617 C344 2.143 . S
C2636 C442 2.133 . S
C2653 C358 2.145 . S
C2672 C400 2.141 . S
C2689 C372 2.142 . S
C2708 C414 2.146 . S
C2725 C428 2.142 . S
C2744 C386 2.140 . S
