# Generated by pormake.
# Topology wfa, (4)-cn, num edge types: 1
# Building blocks:
#     Node 0, Type 0, BuildingBlock: ICAMEG_clean_sbu_1, # of connection points: 4
#     Node 1, Type 0, BuildingBlock: ICAMEG_clean_sbu_1, # of connection points: 4
#     Node 2, Type 0, BuildingBlock: ICAMEG_clean_sbu_1, # of connection points: 4
#     Node 3, Type 0, BuildingBlock: ICAMEG_clean_sbu_1, # of connection points: 4
#     Node 4, Type 0, BuildingBlock: ICAMEG_clean_sbu_1, # of connection points: 4
#     Node 5, Type 0, BuildingBlock: ICAMEG_clean_sbu_1, # of connection points: 4
#     Node 6, Type 0, BuildingBlock: ICAMEG_clean_sbu_1, # of connection points: 4
#     Node 7, Type 0, BuildingBlock: ICAMEG_clean_sbu_1, # of connection points: 4
#     Node 8, Type 0, BuildingBlock: ICAMEG_clean_sbu_1, # of connection points: 4
#     Node 9, Type 0, BuildingBlock: ICAMEG_clean_sbu_1, # of connection points: 4
#     Node 10, Type 0, BuildingBlock: ICAMEG_clean_sbu_1, # of connection points: 4
#     Node 11, Type 0, BuildingBlock: ICAMEG_clean_sbu_1, # of connection points: 4
#     Node 12, Type 0, BuildingBlock: ICAMEG_clean_sbu_1, # of connection points: 4
#     Node 13, Type 0, BuildingBlock: ICAMEG_clean_sbu_1, # of connection points: 4
#     Node 14, Type 0, BuildingBlock: ICAMEG_clean_sbu_1, # of connection points: 4
#     Node 15, Type 0, BuildingBlock: ICAMEG_clean_sbu_1, # of connection points: 4
#     Edge 16, Type (0, 0), BuildingBlock: KIFKEQ_clean_linker_1, # of connection points: 2
#     Edge 17, Type (0, 0), BuildingBlock: KIFKEQ_clean_linker_1, # of connection points: 2
#     Edge 18, Type (0, 0), BuildingBlock: KIFKEQ_clean_linker_1, # of connection points: 2
#     Edge 19, Type (0, 0), BuildingBlock: KIFKEQ_clean_linker_1, # of connection points: 2
#     Edge 20, Type (0, 0), BuildingBlock: KIFKEQ_clean_linker_1, # of connection points: 2
#     Edge 21, Type (0, 0), BuildingBlock: KIFKEQ_clean_linker_1, # of connection points: 2
#     Edge 22, Type (0, 0), BuildingBlock: KIFKEQ_clean_linker_1, # of connection points: 2
#     Edge 23, Type (0, 0), BuildingBlock: KIFKEQ_clean_linker_1, # of connection points: 2
#     Edge 24, Type (0, 0), BuildingBlock: KIFKEQ_clean_linker_1, # of connection points: 2
#     Edge 25, Type (0, 0), BuildingBlock: KIFKEQ_clean_linker_1, # of connection points: 2
#     Edge 26, Type (0, 0), BuildingBlock: KIFKEQ_clean_linker_1, # of connection points: 2
#     Edge 27, Type (0, 0), BuildingBlock: KIFKEQ_clean_linker_1, # of connection points: 2
#     Edge 28, Type (0, 0), BuildingBlock: KIFKEQ_clean_linker_1, # of connection points: 2
#     Edge 29, Type (0, 0), BuildingBlock: KIFKEQ_clean_linker_1, # of connection points: 2
#     Edge 30, Type (0, 0), BuildingBlock: KIFKEQ_clean_linker_1, # of connection points: 2
#     Edge 31, Type (0, 0), BuildingBlock: KIFKEQ_clean_linker_1, # of connection points: 2
#     Edge 32, Type (0, 0), BuildingBlock: KIFKEQ_clean_linker_1, # of connection points: 2
#     Edge 33, Type (0, 0), BuildingBlock: KIFKEQ_clean_linker_1, # of connection points: 2
#     Edge 34, Type (0, 0), BuildingBlock: KIFKEQ_clean_linker_1, # of connection points: 2
#     Edge 35, Type (0, 0), BuildingBlock: KIFKEQ_clean_linker_1, # of connection points: 2
#     Edge 36, Type (0, 0), BuildingBlock: KIFKEQ_clean_linker_1, # of connection points: 2
#     Edge 37, Type (0, 0), BuildingBlock: KIFKEQ_clean_linker_1, # of connection points: 2
#     Edge 38, Type (0, 0), BuildingBlock: KIFKEQ_clean_linker_1, # of connection points: 2
#     Edge 39, Type (0, 0), BuildingBlock: KIFKEQ_clean_linker_1, # of connection points: 2
#     Edge 40, Type (0, 0), BuildingBlock: KIFKEQ_clean_linker_1, # of connection points: 2
#     Edge 41, Type (0, 0), BuildingBlock: KIFKEQ_clean_linker_1, # of connection points: 2
#     Edge 42, Type (0, 0), BuildingBlock: KIFKEQ_clean_linker_1, # of connection points: 2
#     Edge 43, Type (0, 0), BuildingBlock: KIFKEQ_clean_linker_1, # of connection points: 2
#     Edge 44, Type (0, 0), BuildingBlock: KIFKEQ_clean_linker_1, # of connection points: 2
#     Edge 45, Type (0, 0), BuildingBlock: KIFKEQ_clean_linker_1, # of connection points: 2
#     Edge 46, Type (0, 0), BuildingBlock: KIFKEQ_clean_linker_1, # of connection points: 2
#     Edge 47, Type (0, 0), BuildingBlock: KIFKEQ_clean_linker_1, # of connection points: 2
# Relax obj value: 0.084
# Max RMSD: 0.212
# Mean RMSD: 0.186
data_MOF--net-wfa--node1-ICAMEG_clean_sbu_1--edge1-KIFKEQ_clean_linker_1
_symmetry_space_group_name_H-M    P1
_symmetry_Int_Tables_number       1
_symmetry_cell_setting            triclinic
loop_
_symmetry_equiv_pos_as_xyz
'x, y, z'
_cell_length_a     48.608315
_cell_length_b     48.602585
_cell_length_c     27.043048
_cell_angle_alpha  89.118986
_cell_angle_beta   89.127865
_cell_angle_gamma 89.013245
loop_
_atom_site_label
_atom_site_type_symbol
_atom_site_fract_x
_atom_site_fract_y
_atom_site_fract_z
_atom_type_partial_charge
Co0 Co 0.65699 0.99327 0.0803 0.0
Co1 Co 0.65582 0.05054 0.00279 0.0
O2 O 0.67368 0.01774 0.03094 0.0
C3 C 0.70606 0.01339 0.12914 0.0
O4 O 0.69826 0.03755 0.11156 0.0
C5 C 0.67232 0.01722 0.9161 0.0
O6 O 0.66138 0.99587 0.93875 0.0
O7 O 0.6218 0.02998 0.9894 0.0
O8 O 0.62084 0.99497 0.04485 0.0
H9 H 0.57844 0.11902 0.97768 0.0
H10 H 0.7099 0.97682 0.03274 0.0
O11 O 0.69259 0.99204 0.11813 0.0
H12 H 0.64449 0.90491 0.98934 0.0
H13 H 0.65653 0.91163 0.19701 0.0
H14 H 0.60301 0.99122 0.1329 0.0
H15 H 0.62971 0.94363 0.04197 0.0
H16 H 0.67664 0.94291 0.134 0.0
O17 O 0.67129 0.04076 0.93619 0.0
H18 H 0.60108 0.07789 0.01423 0.0
H19 H 0.67328 0.09283 0.92827 0.0
H20 H 0.58201 0.96035 0.19556 0.0
H21 H 0.72563 0.93836 0.98025 0.0
H22 H 0.60884 0.92022 0.22803 0.0
H23 H 0.69278 0.90211 0.95814 0.0
O24 O 0.64455 0.02476 0.12113 0.0
H25 H 0.75787 0.0655 0.00362 0.0
H26 H 0.66685 0.10396 0.05087 0.0
H27 H 0.70866 0.12936 0.0707 0.0
H28 H 0.75458 0.11015 0.04697 0.0
H29 H 0.71555 0.04064 0.98496 0.0
H30 H 0.65135 0.13401 0.89047 0.0
H31 H 0.60363 0.14741 0.9153 0.0
O32 O 0.64005 0.06095 0.06868 0.0
C33 C 0.60972 0.00989 0.01095 0.0
C34 C 0.59928 0.11346 0.96668 0.0
C35 C 0.64019 0.12185 0.91768 0.0
N36 N 0.63854 0.08309 0.9737 0.0
C37 C 0.61224 0.09024 0.98738 0.0
C38 C 0.65248 0.09847 0.93913 0.0
C39 C 0.61341 0.12935 0.93164 0.0
C40 C 0.69558 0.96097 0.02361 0.0
N41 N 0.66898 0.96236 0.04055 0.0
C42 C 0.70456 0.93931 0.99374 0.0
C43 C 0.68611 0.919 0.98128 0.0
C44 C 0.659 0.92057 0.99875 0.0
C45 C 0.65074 0.94256 0.02845 0.0
C46 C 0.64461 0.92901 0.18306 0.0
C47 C 0.61474 0.97369 0.14661 0.0
C48 C 0.65591 0.94681 0.14746 0.0
N49 N 0.64091 0.9687 0.1295 0.0
C50 C 0.60277 0.95634 0.1822 0.0
C51 C 0.61785 0.93384 0.20044 0.0
C52 C 0.63773 0.04965 0.11136 0.0
C53 C 0.73798 0.07413 0.01401 0.0
C54 C 0.68676 0.09544 0.0405 0.0
C55 C 0.71036 0.10994 0.05175 0.0
C56 C 0.73612 0.09916 0.0384 0.0
N57 N 0.68875 0.07091 0.01653 0.0
C58 C 0.71393 0.06021 0.00332 0.0
Co59 Co 0.51771 0.65137 0.07798 0.0
Co60 Co 0.46174 0.65649 1.00096 0.0
O61 O 0.49563 0.67059 0.0281 0.0
C62 C 0.5035 0.7046 0.12178 0.0
O63 O 0.47882 0.70041 0.10478 0.0
C64 C 0.49636 0.67051 0.91283 0.0
O65 O 0.51714 0.65779 0.93429 0.0
O66 O 0.47996 0.62057 0.9863 0.0
O67 O 0.51222 0.61517 0.04472 0.0
H68 H 0.38793 0.5869 0.97746 0.0
H69 H 0.54039 0.7005 0.02685 0.0
O70 O 0.52279 0.68706 0.11347 0.0
H71 H 0.60468 0.62424 0.98642 0.0
H72 H 0.59774 0.64098 0.19308 0.0
H73 H 0.51322 0.5985 0.13365 0.0
H74 H 0.56415 0.61627 0.04044 0.0
H75 H 0.56953 0.66438 0.12948 0.0
O76 O 0.47278 0.67129 0.93408 0.0
H77 H 0.43035 0.60489 0.01283 0.0
H78 H 0.42123 0.67875 0.92828 0.0
H79 H 0.54093 0.57428 0.19695 0.0
H80 H 0.58078 0.70945 0.97295 0.0
H81 H 0.58353 0.59554 0.22708 0.0
H82 H 0.61321 0.67113 0.95233 0.0
O83 O 0.48476 0.64448 0.12024 0.0
H84 H 0.45389 0.75973 0.00332 0.0
H85 H 0.40919 0.67286 0.05173 0.0
H86 H 0.38679 0.71709 0.07319 0.0
H87 H 0.40916 0.76093 0.04892 0.0
H88 H 0.47574 0.71506 0.98311 0.0
H89 H 0.37881 0.66149 0.89169 0.0
H90 H 0.36184 0.61528 0.91639 0.0
O91 O 0.44985 0.64137 0.06704 0.0
C92 C 0.49769 0.60594 0.00975 0.0
C93 C 0.39506 0.6071 0.9665 0.0
C94 C 0.38998 0.64894 0.9183 0.0
N95 N 0.42819 0.64289 0.97285 0.0
C96 C 0.41904 0.61743 0.98651 0.0
C97 C 0.41405 0.65858 0.93905 0.0
C98 C 0.38046 0.62302 0.93219 0.0
C99 C 0.55457 0.6838 0.01839 0.0
N100 N 0.55002 0.65794 0.03691 0.0
C101 C 0.57733 0.68895 0.9877 0.0
C102 C 0.5955 0.66743 0.97608 0.0
C103 C 0.59071 0.64111 0.99517 0.0
C104 C 0.5677 0.63671 0.02564 0.0
C105 C 0.57926 0.63148 0.18017 0.0
C106 C 0.53183 0.6078 0.14633 0.0
C107 C 0.56318 0.64465 0.14424 0.0
N108 N 0.5399 0.6327 0.12759 0.0
C109 C 0.54739 0.59403 0.18229 0.0
C110 C 0.57128 0.60598 0.19922 0.0
C111 C 0.45993 0.63915 0.11022 0.0
C112 C 0.4439 0.74077 0.01395 0.0
C113 C 0.41909 0.69185 0.04114 0.0
C114 C 0.40627 0.71683 0.05329 0.0
C115 C 0.41882 0.74143 0.03962 0.0
N116 N 0.4437 0.69137 0.01599 0.0
C117 C 0.4561 0.7154 0.00236 0.0
Co118 Co 0.84733 0.52055 0.08121 0.0
Co119 Co 0.84975 0.46566 0.00163 0.0
O120 O 0.83189 0.49871 0.0285 0.0
C121 C 0.79307 0.50522 0.12098 0.0
O122 O 0.7986 0.4809 0.10256 0.0
C123 C 0.83614 0.50007 0.9128 0.0
O124 O 0.84572 0.52163 0.93509 0.0
O125 O 0.88492 0.48548 0.99044 0.0
O126 O 0.88544 0.51587 0.05229 0.0
H127 H 0.92625 0.39561 0.98226 0.0
H128 H 0.79975 0.54324 0.02609 0.0
O129 O 0.80983 0.52482 0.11336 0.0
H130 H 0.8747 0.6087 0.99518 0.0
H131 H 0.8481 0.59982 0.19878 0.0
H132 H 0.89654 0.51532 0.1445 0.0
H133 H 0.882 0.56769 0.04862 0.0
H134 H 0.82962 0.57216 0.13152 0.0
O135 O 0.83711 0.47647 0.93388 0.0
H136 H 0.9033 0.43683 0.01686 0.0
H137 H 0.83387 0.42458 0.92676 0.0
H138 H 0.91588 0.54246 0.21158 0.0
H139 H 0.79145 0.58411 0.97269 0.0
H140 H 0.8916 0.58507 0.23913 0.0
H141 H 0.82914 0.61712 0.95687 0.0
O142 O 0.85366 0.48729 0.12279 0.0
H143 H 0.74737 0.45372 0.99468 0.0
H144 H 0.83518 0.41189 0.04912 0.0
H145 H 0.79188 0.38751 0.06577 0.0
H146 H 0.74756 0.40841 0.03842 0.0
H147 H 0.7911 0.47758 0.97933 0.0
H148 H 0.85616 0.38334 0.89093 0.0
H149 H 0.90264 0.36855 0.91882 0.0
O150 O 0.86248 0.45364 0.06861 0.0
C151 C 0.89733 0.50259 0.01728 0.0
C152 C 0.90596 0.4018 0.96991 0.0
C153 C 0.86664 0.39494 0.9186 0.0
N154 N 0.8672 0.43301 0.97408 0.0
C155 C 0.89283 0.42509 0.98944 0.0
C156 C 0.85415 0.41835 0.93894 0.0
C157 C 0.89272 0.38664 0.93428 0.0
C158 C 0.81613 0.55768 0.0197 0.0
N159 N 0.84126 0.5532 0.04056 0.0
C160 C 0.81137 0.5807 0.98929 0.0
C161 C 0.83254 0.5992 0.98037 0.0
C162 C 0.85812 0.59447 0.00182 0.0
C163 C 0.86215 0.57119 0.03193 0.0
C164 C 0.85894 0.58137 0.18694 0.0
C165 C 0.88602 0.53399 0.15592 0.0
C166 C 0.84858 0.56563 0.14889 0.0
N167 N 0.86224 0.5424 0.13358 0.0
C168 C 0.897 0.5492 0.19409 0.0
C169 C 0.88335 0.57308 0.20957 0.0
C170 C 0.86136 0.46286 0.11249 0.0
C171 C 0.76655 0.44436 0.00665 0.0
C172 C 0.81598 0.42119 0.03725 0.0
C173 C 0.79153 0.40724 0.04667 0.0
C174 C 0.76667 0.41896 0.03127 0.0
N175 N 0.8157 0.44611 0.01309 0.0
C176 C 0.79141 0.45771 0.99782 0.0
Co177 Co 0.9911 0.84867 0.08282 0.0
Co178 Co 0.04832 0.84901 0.00504 0.0
O179 O 0.01548 0.8318 0.03337 0.0
C180 C 0.01003 0.79754 0.13124 0.0
O181 O 0.03449 0.80428 0.11436 0.0
C182 C 0.01514 0.83261 0.91907 0.0
O183 O 0.99311 0.8414 0.94308 0.0
O184 O 0.02769 0.88392 0.9912 0.0
O185 O 0.9934 0.8854 0.04803 0.0
H186 H 0.1169 0.9244 0.98049 0.0
H187 H 0.97368 0.79747 0.0352 0.0
O188 O 0.98912 0.81248 0.12005 0.0
H189 H 0.9031 0.86743 0.9916 0.0
H190 H 0.90921 0.85084 0.19894 0.0
H191 H 0.98984 0.90159 0.13621 0.0
H192 H 0.94209 0.87928 0.04413 0.0
H193 H 0.94027 0.83048 0.13586 0.0
O194 O 0.03886 0.83483 0.93797 0.0
H195 H 0.07573 0.90254 0.01683 0.0
H196 H 0.0907 0.83137 0.93065 0.0
H197 H 0.95921 0.92281 0.19896 0.0
H198 H 0.93489 0.78465 0.98291 0.0
H199 H 0.91856 0.89738 0.23074 0.0
H200 H 0.89932 0.8198 0.96067 0.0
O201 O 0.02271 0.85866 0.12404 0.0
H202 H 0.06341 0.74643 0.00697 0.0
H203 H 0.10171 0.83555 0.05341 0.0
H204 H 0.12716 0.79261 0.07368 0.0
H205 H 0.10803 0.74764 0.05036 0.0
H206 H 0.0385 0.78983 0.98786 0.0
H207 H 0.13192 0.85254 0.89305 0.0
H208 H 0.14532 0.89935 0.91808 0.0
O209 O 0.0586 0.86346 0.07119 0.0
C210 C 0.00803 0.8965 0.01371 0.0
C211 C 0.11133 0.90396 0.96938 0.0
C212 C 0.11973 0.86365 0.92025 0.0
N213 N 0.08091 0.86565 0.97612 0.0
C214 C 0.08809 0.89144 0.98995 0.0
C215 C 0.09633 0.85179 0.94158 0.0
C216 C 0.12724 0.88991 0.93433 0.0
C217 C 0.95811 0.81278 0.02607 0.0
N218 N 0.96006 0.83905 0.0428 0.0
C219 C 0.93627 0.80544 0.99629 0.0
C220 C 0.91634 0.82519 0.98375 0.0
C221 C 0.91847 0.85193 1.00105 0.0
C222 C 0.94063 0.85854 0.03066 0.0
C223 C 0.92682 0.86215 0.18529 0.0
C224 C 0.97208 0.89047 0.14961 0.0
C225 C 0.9445 0.85071 0.14965 0.0
N226 N 0.96668 0.86494 0.13207 0.0
C227 C 0.95486 0.90256 0.18526 0.0
C228 C 0.93207 0.88827 0.20311 0.0
C229 C 0.04751 0.86508 0.11417 0.0
C230 C 0.072 0.7659 0.01717 0.0
C231 C 0.09322 0.81606 0.04321 0.0
C232 C 0.10776 0.79182 0.05471 0.0
C233 C 0.09702 0.7666 0.04158 0.0
N234 N 0.06872 0.81521 0.01918 0.0
C235 C 0.05805 0.79056 0.00622 0.0
Co236 Co 0.15739 0.0173 0.411 0.0
Co237 Co 0.15595 0.96569 0.49931 0.0
O238 O 0.1736 0.99664 0.46572 0.0
C239 C 0.21043 0.99849 0.37016 0.0
O240 O 0.204 0.97444 0.38934 0.0
C241 C 0.16077 0.98242 0.6046 0.0
O242 O 0.13442 0.9776 0.6109 0.0
O243 O 0.12187 0.98825 0.51094 0.0
O244 O 0.11986 0.01499 0.44247 0.0
H245 H 0.07835 0.90199 0.54106 0.0
H246 H 0.20565 0.03984 0.46108 0.0
O247 O 0.1945 0.01922 0.37726 0.0
H248 H 0.13153 0.10945 0.48212 0.0
H249 H 0.15506 0.09241 0.2808 0.0
H250 H 0.10695 0.01212 0.35166 0.0
H251 H 0.12336 0.06681 0.4366 0.0
H252 H 0.1746 0.06625 0.35128 0.0
O253 O 0.17222 0.97901 0.56235 0.0
H254 H 0.10086 0.94055 0.49715 0.0
H255 H 0.17435 0.92514 0.57666 0.0
H256 H 0.08655 0.03781 0.2815 0.0
H257 H 0.21482 0.08229 0.50656 0.0
H258 H 0.11065 0.07829 0.24562 0.0
H259 H 0.17757 0.11743 0.51732 0.0
O260 O 0.15031 0.98289 0.37546 0.0
H261 H 0.25809 0.94725 0.49547 0.0
H262 H 0.16715 0.90985 0.45839 0.0
H263 H 0.209 0.88225 0.44015 0.0
H264 H 0.25488 0.9009 0.45883 0.0
H265 H 0.21577 0.97435 0.51247 0.0
H266 H 0.15264 0.8864 0.62146 0.0
H267 H 0.10429 0.87461 0.60373 0.0
O268 O 0.1399 0.95234 0.43602 0.0
C269 C 0.10882 0.00428 0.48125 0.0
C270 C 0.09944 0.9069 0.54908 0.0
C271 C 0.14113 0.89816 0.59421 0.0
N272 N 0.1389 0.93505 0.53425 0.0
C273 C 0.1123 0.92871 0.52431 0.0
C274 C 0.15332 0.9201 0.56872 0.0
C275 C 0.114 0.89156 0.58424 0.0
C276 C 0.18942 0.05514 0.4654 0.0
N277 N 0.16407 0.05097 0.44602 0.0
C278 C 0.19469 0.07908 0.49128 0.0
C279 C 0.17378 0.09878 0.49735 0.0
C280 C 0.14793 0.0943 0.47763 0.0
C281 C 0.1434 0.0701 0.45202 0.0
C282 C 0.14431 0.07488 0.29625 0.0
C283 C 0.11743 0.02986 0.33654 0.0
C284 C 0.15528 0.05998 0.33612 0.0
N285 N 0.14172 0.03793 0.35599 0.0
C286 C 0.10583 0.04426 0.29668 0.0
C287 C 0.11939 0.06694 0.27652 0.0
C288 C 0.14126 0.95976 0.39052 0.0
C289 C 0.2382 0.93886 0.48735 0.0
C290 C 0.18703 0.91818 0.46645 0.0
C291 C 0.21066 0.90241 0.45617 0.0
C292 C 0.23639 0.91287 0.4667 0.0
N293 N 0.18896 0.94365 0.48678 0.0
C294 C 0.21414 0.95405 0.49717 0.0
Co295 Co 0.47973 0.15561 0.41929 0.0
Co296 Co 0.53231 0.15119 0.50275 0.0
O297 O 0.50058 0.17035 0.47377 0.0
C298 C 0.49536 0.21049 0.38255 0.0
O299 O 0.51972 0.2046 0.40055 0.0
C300 C 0.49689 0.16641 0.58889 0.0
O301 O 0.47575 0.1566 0.56566 0.0
O302 O 0.51058 0.1173 0.51379 0.0
O303 O 0.48401 0.11699 0.44658 0.0
H304 H 0.59811 0.07158 0.52875 0.0
H305 H 0.4558 0.20217 0.47564 0.0
O306 O 0.47578 0.1936 0.38908 0.0
H307 H 0.39018 0.12658 0.4983 0.0
H308 H 0.4028 0.15638 0.29672 0.0
H309 H 0.48626 0.10727 0.35421 0.0
H310 H 0.43218 0.1203 0.44703 0.0
H311 H 0.42912 0.17398 0.36649 0.0
O312 O 0.52087 0.16504 0.56938 0.0
H313 H 0.55873 0.09614 0.49093 0.0
H314 H 0.57275 0.16579 0.57951 0.0
H315 H 0.46045 0.0888 0.28463 0.0
H316 H 0.41394 0.20944 0.52693 0.0
H317 H 0.41838 0.11342 0.25545 0.0
H318 H 0.38083 0.17143 0.5386 0.0
O319 O 0.51385 0.15018 0.37966 0.0
H320 H 0.54934 0.25283 0.50758 0.0
H321 H 0.58743 0.16259 0.4576 0.0
H322 H 0.61426 0.20442 0.44107 0.0
H323 H 0.59524 0.24995 0.46619 0.0
H324 H 0.52304 0.21053 0.52283 0.0
H325 H 0.61219 0.14191 0.61853 0.0
H326 H 0.62516 0.09448 0.59305 0.0
O327 O 0.54475 0.13705 0.43673 0.0
C328 C 0.49515 0.10494 0.48381 0.0
C329 C 0.59273 0.09227 0.54005 0.0
C330 C 0.6006 0.13173 0.59049 0.0
N331 N 0.56358 0.13245 0.53271 0.0
C332 C 0.57049 0.10632 0.51866 0.0
C333 C 0.57822 0.14513 0.56833 0.0
C334 C 0.60787 0.10512 0.57616 0.0
C335 C 0.44133 0.18564 0.4802 0.0
N336 N 0.44632 0.1609 0.45825 0.0
C337 C 0.41774 0.18983 0.50943 0.0
C338 C 0.3992 0.16848 0.51604 0.0
C339 C 0.40444 0.1433 0.49347 0.0
C340 C 0.42828 0.13984 0.4646 0.0
C341 C 0.42103 0.14541 0.30922 0.0
C342 C 0.46783 0.11795 0.34203 0.0
C343 C 0.43602 0.15528 0.34868 0.0
N344 N 0.45897 0.14144 0.36484 0.0
C345 C 0.45337 0.10746 0.30247 0.0
C346 C 0.42979 0.1213 0.28608 0.0
C347 C 0.53716 0.1402 0.39203 0.0
C348 C 0.55788 0.2331 0.49659 0.0
C349 C 0.57895 0.18233 0.46847 0.0
C350 C 0.59428 0.20594 0.45914 0.0
C351 C 0.58361 0.23148 0.47329 0.0
N352 N 0.55372 0.18409 0.49133 0.0
C353 C 0.54314 0.20905 0.50537 0.0
Co354 Co 0.35207 0.48236 0.42221 0.0
Co355 Co 0.34818 0.53794 0.50035 0.0
O356 O 0.33334 0.50451 0.47257 0.0
C357 C 0.29907 0.49775 0.37828 0.0
O358 O 0.30356 0.52228 0.39574 0.0
C359 C 0.33337 0.50312 0.58799 0.0
O360 O 0.34562 0.48215 0.5663 0.0
O361 O 0.38383 0.51893 0.51449 0.0
O362 O 0.3884 0.4869 0.45551 0.0
H363 H 0.41919 0.6103 0.52457 0.0
H364 H 0.30255 0.46038 0.47305 0.0
O365 O 0.31627 0.47815 0.38663 0.0
H366 H 0.37756 0.39433 0.51204 0.0
H367 H 0.36086 0.40287 0.30559 0.0
H368 H 0.40495 0.4862 0.36649 0.0
H369 H 0.38628 0.43499 0.45873 0.0
H370 H 0.33804 0.43112 0.36976 0.0
O371 O 0.33324 0.52681 0.5671 0.0
H372 H 0.40031 0.56846 0.48854 0.0
H373 H 0.32689 0.57837 0.57402 0.0
H374 H 0.42862 0.45843 0.30263 0.0
H375 H 0.29285 0.41987 0.52625 0.0
H376 H 0.40654 0.41642 0.27176 0.0
H377 H 0.33055 0.38656 0.54614 0.0
O378 O 0.3595 0.51544 0.38055 0.0
H379 H 0.24509 0.54779 0.49845 0.0
H380 H 0.33276 0.59113 0.4508 0.0
H381 H 0.28894 0.61454 0.42999 0.0
H382 H 0.24469 0.59286 0.45389 0.0
H383 H 0.28936 0.52494 0.51803 0.0
H384 H 0.34506 0.62022 0.61128 0.0
H385 H 0.3915 0.63649 0.58645 0.0
O386 O 0.36336 0.54994 0.4344 0.0
C387 C 0.39801 0.50099 0.49069 0.0
C388 C 0.39891 0.60345 0.53562 0.0
C389 C 0.35732 0.60899 0.58434 0.0
N390 N 0.3625 0.57103 0.52901 0.0
C391 C 0.38808 0.57981 0.51524 0.0
C392 C 0.34718 0.58524 0.56322 0.0
C393 C 0.38337 0.61812 0.57037 0.0
C394 C 0.31898 0.44582 0.48121 0.0
N395 N 0.3449 0.44995 0.46268 0.0
C396 C 0.3134 0.42299 0.51149 0.0
C397 C 0.33457 0.40433 0.5227 0.0
C398 C 0.36096 0.40869 0.50361 0.0
C399 C 0.36579 0.43178 0.47355 0.0
C400 C 0.37072 0.42109 0.31883 0.0
C401 C 0.39531 0.46785 0.35348 0.0
C402 C 0.35787 0.43719 0.35508 0.0
N403 N 0.37027 0.46014 0.37213 0.0
C404 C 0.40876 0.45225 0.31721 0.0
C405 C 0.39635 0.4287 0.29987 0.0
C406 C 0.36524 0.54012 0.391 0.0
C407 C 0.26423 0.55749 0.48798 0.0
C408 C 0.3136 0.58153 0.46123 0.0
C409 C 0.28885 0.59491 0.44944 0.0
C410 C 0.26403 0.58275 0.4629 0.0
N411 N 0.31364 0.55674 0.48581 0.0
C412 C 0.28938 0.54472 0.49922 0.0
Co413 Co 0.0102 0.34792 0.42645 0.0
Co414 Co 0.95155 0.34623 0.50078 0.0
O415 O 0.98619 0.3304 0.47582 0.0
C416 C 0.99424 0.29607 0.38091 0.0
O417 O 0.96969 0.3015 0.39943 0.0
C418 C 0.98448 0.33476 0.59062 0.0
O419 O 0.00562 0.34601 0.56784 0.0
O420 O 0.96884 0.38251 0.51138 0.0
O421 O 0.00593 0.38424 0.46056 0.0
H422 H 0.87632 0.4181 0.51387 0.0
H423 H 0.02907 0.29657 0.47661 0.0
O424 O 0.01408 0.31211 0.38968 0.0
H425 H 0.09644 0.36664 0.51999 0.0
H426 H 0.0929 0.35204 0.31249 0.0
H427 H 0.00959 0.40139 0.37196 0.0
H428 H 0.05763 0.37854 0.46545 0.0
H429 H 0.06228 0.33078 0.37531 0.0
O430 O 0.96131 0.33388 0.56936 0.0
H431 H 0.91982 0.39793 0.48186 0.0
H432 H 0.90967 0.32765 0.57522 0.0
H433 H 0.03974 0.4235 0.30943 0.0
H434 H 0.06767 0.28371 0.53105 0.0
H435 H 0.08174 0.39878 0.27928 0.0
H436 H 0.10164 0.31892 0.55314 0.0
O437 O 0.97866 0.35802 0.38392 0.0
H438 H 0.94557 0.24313 0.51034 0.0
H439 H 0.90018 0.32888 0.45189 0.0
H440 H 0.87894 0.28428 0.43554 0.0
H441 H 0.90166 0.24099 0.46487 0.0
H442 H 0.96625 0.28815 0.52547 0.0
H443 H 0.86615 0.34716 0.60853 0.0
H444 H 0.84916 0.39266 0.57769 0.0
O445 O 0.94097 0.35871 0.433 0.0
C446 C 0.98909 0.39524 0.49159 0.0
C447 C 0.88346 0.39823 0.52752 0.0
C448 C 0.87778 0.35843 0.5807 0.0
N449 N 0.91719 0.36157 0.52644 0.0
C450 C 0.90805 0.38667 0.50944 0.0
C451 C 0.90247 0.34752 0.56179 0.0
C452 C 0.86825 0.38396 0.56336 0.0
C453 C 0.04393 0.31191 0.48575 0.0
N454 N 0.04122 0.33821 0.46773 0.0
C455 C 0.06567 0.30455 0.51672 0.0
C456 C 0.0847 0.32433 0.52916 0.0
C457 C 0.08178 0.35112 0.51059 0.0
C458 C 0.05975 0.35774 0.47981 0.0
C459 C 0.0747 0.36305 0.32543 0.0
C460 C 0.02794 0.39058 0.35928 0.0
C461 C 0.05727 0.3511 0.36092 0.0
N462 N 0.03433 0.36494 0.37758 0.0
C463 C 0.04488 0.40317 0.32376 0.0
C464 C 0.06842 0.38927 0.30682 0.0
C465 C 0.95298 0.36213 0.39119 0.0
C466 C 0.93543 0.26186 0.49751 0.0
C467 C 0.91022 0.31014 0.46473 0.0
C468 C 0.89806 0.28494 0.45543 0.0
C469 C 0.91081 0.26067 0.47193 0.0
N470 N 0.93436 0.31114 0.48986 0.0
C471 C 0.94697 0.28742 0.5062 0.0
Co472 Co 0.35266 0.01095 0.91066 0.0
Co473 Co 0.35706 0.95919 0.99903 0.0
O474 O 0.33777 0.99038 0.96743 0.0
C475 C 0.29858 0.99337 0.87607 0.0
O476 O 0.3046 0.96939 0.89648 0.0
C477 C 0.34106 0.99625 0.08111 0.0
O478 O 0.34809 0.01725 0.05288 0.0
O479 O 0.39086 0.98107 0.0059 0.0
O480 O 0.39098 0.00834 0.93806 0.0
H481 H 0.43672 0.89385 0.02729 0.0
H482 H 0.30444 0.03442 0.96435 0.0
O483 O 0.31504 0.01335 0.8804 0.0
H484 H 0.37769 0.10255 0.98012 0.0
H485 H 0.35142 0.08599 0.78026 0.0
H486 H 0.40221 0.00506 0.84608 0.0
H487 H 0.38614 0.05989 0.93357 0.0
H488 H 0.33355 0.06017 0.85281 0.0
O489 O 0.34365 0.97176 0.06545 0.0
H490 H 0.41208 0.93259 0.98672 0.0
H491 H 0.34265 0.92015 0.08119 0.0
H492 H 0.42096 0.03041 0.77375 0.0
H493 H 0.29499 0.07694 0.01084 0.0
H494 H 0.3955 0.0712 0.74038 0.0
H495 H 0.33182 0.11131 0.01905 0.0
O496 O 0.35961 0.97651 0.87432 0.0
H497 H 0.25542 0.94253 0.01156 0.0
H498 H 0.34556 0.90331 0.96087 0.0
H499 H 0.30366 0.87632 0.94976 0.0
H500 H 0.25818 0.89592 0.97525 0.0
H501 H 0.29781 0.96894 0.02151 0.0
H502 H 0.36662 0.88139 0.12301 0.0
H503 H 0.41396 0.86795 0.09596 0.0
O504 O 0.37107 0.94561 0.93358 0.0
C505 C 0.40291 0.99734 0.97551 0.0
C506 C 0.41606 0.89944 0.03928 0.0
C507 C 0.37672 0.89247 0.09305 0.0
N508 N 0.37586 0.92845 0.03124 0.0
C509 C 0.40196 0.9213 0.01635 0.0
C510 C 0.36327 0.91446 0.06928 0.0
C511 C 0.40329 0.88493 0.07785 0.0
C512 C 0.32045 0.04943 0.96738 0.0
N513 N 0.34576 0.04475 0.9462 0.0
C514 C 0.31503 0.0734 0.99391 0.0
C515 C 0.33573 0.09265 0.99859 0.0
C516 C 0.36148 0.08773 0.9768 0.0
C517 C 0.36617 0.0635 0.95064 0.0
C518 C 0.36276 0.06831 0.79458 0.0
C519 C 0.39115 0.02294 0.83204 0.0
C520 C 0.35273 0.05361 0.83561 0.0
N521 N 0.36702 0.03136 0.85403 0.0
C522 C 0.4018 0.03714 0.79095 0.0
C523 C 0.38749 0.06001 0.77221 0.0
C524 C 0.36884 0.95308 0.88839 0.0
C525 C 0.27513 0.93374 1.00045 0.0
C526 C 0.32585 0.91202 0.97192 0.0
C527 C 0.30219 0.89661 0.96564 0.0
C528 C 0.27669 0.9076 0.98 0.0
N529 N 0.32415 0.93764 0.99202 0.0
C530 C 0.29922 0.94854 0.00622 0.0
Co531 Co 0.47452 0.35224 0.90783 0.0
Co532 Co 0.52531 0.34733 0.99527 0.0
O533 O 0.4927 0.33366 0.96305 0.0
C534 C 0.48829 0.29733 0.87046 0.0
O535 O 0.51222 0.3007 0.89109 0.0
C536 C 0.50697 0.34553 0.10093 0.0
O537 O 0.51457 0.37122 0.10458 0.0
O538 O 0.50709 0.38401 0.00484 0.0
O539 O 0.47991 0.38898 0.93858 0.0
H540 H 0.59805 0.41621 0.03089 0.0
H541 H 0.44667 0.30592 0.95903 0.0
O542 O 0.46957 0.3159 0.87469 0.0
H543 H 0.38402 0.38603 0.97892 0.0
H544 H 0.40186 0.36299 0.77793 0.0
H545 H 0.48548 0.4024 0.84728 0.0
H546 H 0.42802 0.39053 0.93302 0.0
H547 H 0.42492 0.34044 0.8488 0.0
O548 O 0.50935 0.33331 0.05965 0.0
H549 H 0.55732 0.39865 0.9891 0.0
H550 H 0.56239 0.32432 0.07339 0.0
H551 H 0.46297 0.42575 0.77669 0.0
H552 H 0.40276 0.30041 0.0049 0.0
H553 H 0.42083 0.40604 0.74155 0.0
H554 H 0.37112 0.34067 0.01508 0.0
O555 O 0.50996 0.35638 0.87174 0.0
H556 H 0.53064 0.24388 0.99882 0.0
H557 H 0.57984 0.32884 0.95437 0.0
H558 H 0.60212 0.28379 0.93885 0.0
H559 H 0.5775 0.24089 0.96121 0.0
H560 H 0.50894 0.28933 0.01306 0.0
H561 H 0.60318 0.34109 0.11614 0.0
H562 H 0.62127 0.38735 0.09493 0.0
O563 O 0.54142 0.36112 0.93088 0.0
C564 C 0.49196 0.39863 0.9761 0.0
C565 C 0.59038 0.39601 0.04042 0.0
C566 C 0.59326 0.35385 0.08827 0.0
N567 N 0.55753 0.36047 0.02869 0.0
C568 C 0.56734 0.38595 0.01686 0.0
C569 C 0.57017 0.34446 0.06393 0.0
C570 C 0.6034 0.37981 0.07636 0.0
C571 C 0.4329 0.32347 0.96309 0.0
N572 N 0.43978 0.34846 0.94318 0.0
C573 C 0.40812 0.32026 0.9892 0.0
C574 C 0.39039 0.34287 0.99494 0.0
C575 C 0.39762 0.36832 0.97469 0.0
C576 C 0.42259 0.37077 0.94886 0.0
C577 C 0.42014 0.37184 0.79305 0.0
C578 C 0.467 0.39385 0.8325 0.0
C579 C 0.43329 0.35916 0.83314 0.0
N580 N 0.45628 0.37033 0.8526 0.0
C581 C 0.45441 0.40709 0.79239 0.0
C582 C 0.43079 0.396 0.77265 0.0
C583 C 0.53412 0.36196 0.88568 0.0
C584 C 0.54162 0.26242 0.9891 0.0
C585 C 0.56893 0.31029 0.96404 0.0
C586 C 0.58169 0.28482 0.95529 0.0
C587 C 0.56789 0.26076 0.9679 0.0
N588 N 0.54315 0.31177 0.98488 0.0
C589 C 0.5295 0.28824 0.99737 0.0
Co590 Co 0.15392 0.47763 0.92953 0.0
Co591 Co 0.15481 0.53488 0.00388 0.0
O592 O 0.17107 0.50076 0.97845 0.0
C593 C 0.20672 0.49283 0.88391 0.0
O594 O 0.2011 0.51738 0.90125 0.0
C595 C 0.16925 0.50175 0.09363 0.0
O596 O 0.15843 0.4802 0.07321 0.0
O597 O 0.11929 0.51649 0.01865 0.0
O598 O 0.1169 0.48272 0.96284 0.0
H599 H 0.08138 0.60823 0.02258 0.0
H600 H 0.20366 0.45671 0.98063 0.0
O601 O 0.19038 0.47309 0.89347 0.0
H602 H 0.13059 0.39126 0.02507 0.0
H603 H 0.14989 0.39598 0.81782 0.0
H604 H 0.10166 0.48019 0.87418 0.0
H605 H 0.121 0.43092 0.96953 0.0
H606 H 0.17069 0.42552 0.88003 0.0
O607 O 0.16859 0.52504 0.0714 0.0
H608 H 0.10209 0.56549 0.98967 0.0
H609 H 0.17357 0.57674 0.07492 0.0
H610 H 0.08 0.45113 0.81226 0.0
H611 H 0.21424 0.41722 0.03604 0.0
H612 H 0.10417 0.40868 0.78368 0.0
H613 H 0.17751 0.38422 0.05867 0.0
O614 O 0.14579 0.5098 0.88606 0.0
H615 H 0.25771 0.54379 0.00292 0.0
H616 H 0.16999 0.58698 0.95127 0.0
H617 H 0.21368 0.60959 0.92968 0.0
H618 H 0.25795 0.58798 0.9556 0.0
H619 H 0.21359 0.5217 0.02322 0.0
H620 H 0.15354 0.6195 0.10909 0.0
H621 H 0.10716 0.63556 0.08279 0.0
O622 O 0.14085 0.5457 0.93711 0.0
C623 C 0.1061 0.49796 0.99638 0.0
C624 C 0.10163 0.60149 0.03424 0.0
C625 C 0.14212 0.60778 0.08285 0.0
N626 N 0.13905 0.56868 0.03015 0.0
C627 C 0.1135 0.57734 0.01562 0.0
C628 C 0.15331 0.58351 0.06348 0.0
C629 C 0.1161 0.61679 0.06806 0.0
C630 C 0.18767 0.44227 0.98999 0.0
N631 N 0.1618 0.446 0.97176 0.0
C632 C 0.19374 0.42003 0.02151 0.0
C633 C 0.17311 0.40154 0.03426 0.0
C634 C 0.14677 0.40549 0.01545 0.0
C635 C 0.14144 0.42801 0.98412 0.0
C636 C 0.13913 0.41439 0.83007 0.0
C637 C 0.11221 0.46165 0.86218 0.0
C638 C 0.15082 0.43121 0.86521 0.0
N639 N 0.13728 0.4544 0.88102 0.0
C640 C 0.09989 0.44532 0.827 0.0
C641 C 0.11347 0.42152 0.81094 0.0
C642 C 0.13965 0.53485 0.89461 0.0
C643 C 0.23855 0.55345 0.99157 0.0
C644 C 0.18917 0.5774 0.96258 0.0
C645 C 0.21384 0.59034 0.95035 0.0
C646 C 0.23867 0.57822 0.96494 0.0
N647 N 0.18921 0.55309 0.9887 0.0
C648 C 0.21348 0.54112 0.00321 0.0
Co649 Co 0.01173 0.15532 0.92402 0.0
Co650 Co 0.95762 0.15057 0.00687 0.0
O651 O 0.98903 0.17002 0.97797 0.0
C652 C 0.99432 0.20982 0.88695 0.0
O653 O 0.97001 0.20378 0.90546 0.0
C654 C 0.99056 0.16712 0.0932 0.0
O655 O 0.01256 0.15706 0.07071 0.0
O656 O 0.98078 0.11701 0.01878 0.0
O657 O 0.00874 0.11687 0.9519 0.0
H658 H 0.89504 0.07026 0.03329 0.0
H659 H 0.03221 0.20242 0.97999 0.0
O660 O 0.01454 0.19312 0.89325 0.0
H661 H 0.10098 0.12787 0.00455 0.0
H662 H 0.09117 0.15647 0.80243 0.0
H663 H 0.00882 0.10662 0.85962 0.0
H664 H 0.06039 0.12079 0.95286 0.0
H665 H 0.0626 0.17405 0.87161 0.0
O666 O 0.96702 0.16515 0.0735 0.0
H667 H 0.93404 0.09516 0.99555 0.0
H668 H 0.91499 0.16497 0.08306 0.0
H669 H 0.03693 0.08816 0.79063 0.0
H670 H 0.07262 0.2105 0.0317 0.0
H671 H 0.07845 0.11315 0.76161 0.0
H672 H 0.1073 0.17302 0.04432 0.0
O673 O 0.9787 0.14927 0.88402 0.0
H674 H 0.93538 0.25194 0.00984 0.0
H675 H 0.90293 0.16088 0.96079 0.0
H676 H 0.87436 0.20219 0.94325 0.0
H677 H 0.89053 0.24813 0.96791 0.0
H678 H 0.96349 0.21016 0.02606 0.0
H679 H 0.87587 0.14076 0.12199 0.0
H680 H 0.86563 0.09309 0.097 0.0
O681 O 0.94718 0.13584 0.94069 0.0
C682 C 0.99748 0.10481 0.98918 0.0
C683 C 0.89924 0.09106 0.04437 0.0
C684 C 0.8885 0.13061 0.0942 0.0
N685 N 0.92665 0.13156 0.0368 0.0
C686 C 0.92125 0.10529 0.02303 0.0
C687 C 0.91071 0.1442 0.0721 0.0
C688 C 0.88276 0.10387 0.08015 0.0
C689 C 0.04737 0.18613 0.98498 0.0
N690 N 0.04405 0.16123 0.96332 0.0
C691 C 0.07014 0.19077 0.01444 0.0
C692 C 0.08957 0.16972 0.02157 0.0
C693 C 0.08602 0.14437 0.99931 0.0
C694 C 0.06297 0.14045 0.97019 0.0
C695 C 0.0732 0.14533 0.81488 0.0
C696 C 0.02701 0.11746 0.84751 0.0
C697 C 0.05694 0.15519 0.854 0.0
N698 N 0.0343 0.14115 0.87008 0.0
C699 C 0.04278 0.10698 0.80829 0.0
C700 C 0.06605 0.12103 0.79199 0.0
C701 C 0.9556 0.139 0.89601 0.0
C702 C 0.92807 0.23203 0.99905 0.0
C703 C 0.91019 0.1808 0.97144 0.0
C704 C 0.89387 0.20412 0.96154 0.0
C705 C 0.90293 0.22988 0.97544 0.0
N706 N 0.93483 0.18308 0.99458 0.0
C707 C 0.94383 0.20827 0.00839 0.0
Co708 Co 0.85278 0.99162 0.5782 0.0
Co709 Co 0.85177 0.04878 0.50015 0.0
O710 O 0.83564 0.01517 0.52773 0.0
C711 C 0.79968 0.00833 0.62198 0.0
O712 O 0.80501 0.03275 0.60324 0.0
C713 C 0.83744 0.01489 0.41374 0.0
O714 O 0.84633 0.99306 0.4382 0.0
O715 O 0.88758 0.02956 0.48784 0.0
O716 O 0.88978 0.99538 0.54486 0.0
H717 H 0.92445 0.12049 0.47879 0.0
H718 H 0.8031 0.97186 0.52865 0.0
O719 O 0.81635 0.98826 0.61407 0.0
H720 H 0.87647 0.90409 0.48879 0.0
H721 H 0.85687 0.91024 0.69538 0.0
H722 H 0.90489 0.99281 0.63381 0.0
H723 H 0.88594 0.9438 0.5413 0.0
H724 H 0.8361 0.94017 0.63103 0.0
O725 O 0.83895 0.03871 0.43253 0.0
H726 H 0.90388 0.07841 0.51421 0.0
H727 H 0.83343 0.0904 0.42492 0.0
H728 H 0.92652 0.96333 0.69785 0.0
H729 H 0.79264 0.93232 0.47635 0.0
H730 H 0.90246 0.92171 0.72907 0.0
H731 H 0.82952 0.89815 0.45601 0.0
O732 O 0.86068 0.02373 0.61961 0.0
H733 H 0.74879 0.05977 0.49715 0.0
H734 H 0.83543 0.10157 0.54808 0.0
H735 H 0.79125 0.12525 0.56645 0.0
H736 H 0.74752 0.10434 0.5409 0.0
H737 H 0.79338 0.03664 0.48 0.0
H738 H 0.85333 0.1325 0.38822 0.0
H739 H 0.89912 0.14786 0.41529 0.0
O740 O 0.8649 0.05974 0.56691 0.0
C741 C 0.90065 0.0104 0.51083 0.0
C742 C 0.90444 0.11407 0.46679 0.0
C743 C 0.86455 0.12078 0.41591 0.0
N744 N 0.86742 0.08205 0.47189 0.0
C745 C 0.89266 0.0903 0.48683 0.0
C746 C 0.85341 0.09688 0.43674 0.0
C747 C 0.89024 0.12939 0.43113 0.0
C748 C 0.81915 0.95691 0.52034 0.0
N749 N 0.84505 0.96005 0.5381 0.0
C750 C 0.81315 0.93464 0.49055 0.0
C751 C 0.83387 0.9155 0.47907 0.0
C752 C 0.86023 0.91884 0.49741 0.0
C753 C 0.86549 0.9414 0.527 0.0
C754 C 0.86759 0.92828 0.68199 0.0
C755 C 0.89439 0.97462 0.64695 0.0
C756 C 0.85591 0.94532 0.64562 0.0
N757 N 0.8694 0.96806 0.62838 0.0
C758 C 0.9067 0.95806 0.68333 0.0
C759 C 0.89317 0.93472 0.70087 0.0
C760 C 0.86624 0.04876 0.61001 0.0
C761 C 0.76771 0.06913 0.50832 0.0
C762 C 0.81649 0.09231 0.5369 0.0
C763 C 0.79154 0.10585 0.54733 0.0
C764 C 0.76701 0.09411 0.53294 0.0
N765 N 0.81701 0.06781 0.51273 0.0
C766 C 0.79304 0.0562 0.49845 0.0
Co767 Co 0.52159 0.84847 0.57034 0.0
Co768 Co 0.46465 0.84706 0.49524 0.0
O769 O 0.49897 0.83123 0.52074 0.0
C770 C 0.50709 0.79517 0.61472 0.0
O771 O 0.4826 0.80037 0.59681 0.0
C772 C 0.49853 0.83398 0.40579 0.0
O773 O 0.51981 0.84479 0.4271 0.0
O774 O 0.48238 0.88304 0.4817 0.0
O775 O 0.51607 0.88558 0.5376 0.0
H776 H 0.39016 0.91937 0.47727 0.0
H777 H 0.54356 0.79936 0.51864 0.0
O778 O 0.52658 0.81191 0.60581 0.0
H779 H 0.60799 0.87373 0.47658 0.0
H780 H 0.60261 0.85322 0.68339 0.0
H781 H 0.51789 0.90036 0.62665 0.0
H782 H 0.56793 0.88238 0.53166 0.0
H783 H 0.57373 0.83229 0.62032 0.0
O784 O 0.47509 0.83413 0.42749 0.0
H785 H 0.4331 0.89914 0.51032 0.0
H786 H 0.42348 0.82812 0.42311 0.0
H787 H 0.54627 0.92215 0.68944 0.0
H788 H 0.58347 0.78973 0.46367 0.0
H789 H 0.58897 0.89853 0.71822 0.0
H790 H 0.61596 0.82711 0.44224 0.0
O791 O 0.48911 0.85577 0.61349 0.0
H792 H 0.45786 0.74399 0.49306 0.0
H793 H 0.41265 0.83037 0.54656 0.0
H794 H 0.39086 0.78604 0.56652 0.0
H795 H 0.41349 0.74244 0.53968 0.0
H796 H 0.47912 0.78873 0.47439 0.0
H797 H 0.38055 0.84767 0.38879 0.0
H798 H 0.36357 0.89358 0.41601 0.0
O799 O 0.45323 0.86017 0.56227 0.0
C800 C 0.50073 0.89634 0.50419 0.0
C801 C 0.3973 0.89931 0.46522 0.0
C802 C 0.39193 0.85909 0.4155 0.0
N803 N 0.43071 0.86241 0.4689 0.0
C804 C 0.42156 0.88772 0.48392 0.0
C805 C 0.41629 0.84816 0.43497 0.0
C806 C 0.38241 0.88485 0.43081 0.0
C807 C 0.55777 0.81564 0.5098 0.0
N808 N 0.55353 0.84135 0.52844 0.0
C809 C 0.58026 0.8101 0.47852 0.0
C810 C 0.59846 0.8311 0.46645 0.0
C811 C 0.59398 0.85727 0.48568 0.0
C812 C 0.57124 0.86207 0.51674 0.0
C813 C 0.58409 0.86374 0.67106 0.0
C814 C 0.53655 0.89005 0.63873 0.0
C815 C 0.56764 0.85197 0.63543 0.0
N816 N 0.5443 0.86522 0.61952 0.0
C817 C 0.55249 0.90245 0.67441 0.0
C818 C 0.57642 0.88917 0.69058 0.0
C819 C 0.46394 0.86128 0.6049 0.0
C820 C 0.44776 0.76285 0.50481 0.0
C821 C 0.42267 0.81149 0.53484 0.0
C822 C 0.41019 0.78645 0.54616 0.0
C823 C 0.42288 0.76199 0.53105 0.0
N824 N 0.44708 0.81216 0.50911 0.0
C825 C 0.45962 0.78827 0.4941 0.0
Co826 Co 0.65348 0.51737 0.58784 0.0
Co827 Co 0.65512 0.46216 0.50904 0.0
O828 O 0.67094 0.49545 0.53566 0.0
C829 C 0.70799 0.5031 0.62691 0.0
O830 O 0.70373 0.47845 0.60976 0.0
C831 C 0.66845 0.49648 0.41985 0.0
O832 O 0.65687 0.51771 0.44187 0.0
O833 O 0.61935 0.48164 0.49712 0.0
O834 O 0.61623 0.51222 0.55865 0.0
H835 H 0.58221 0.39122 0.48982 0.0
H836 H 0.70103 0.54018 0.53219 0.0
O837 O 0.69019 0.52227 0.61976 0.0
H838 H 0.62379 0.60483 0.50035 0.0
H839 H 0.64695 0.5972 0.70409 0.0
H840 H 0.60323 0.51204 0.65068 0.0
H841 H 0.61738 0.56406 0.55453 0.0
H842 H 0.66798 0.56936 0.6375 0.0
O843 O 0.66875 0.47293 0.44122 0.0
H844 H 0.60259 0.43282 0.52411 0.0
H845 H 0.67432 0.42107 0.43472 0.0
H846 H 0.58138 0.53935 0.7171 0.0
H847 H 0.70843 0.58081 0.47804 0.0
H848 H 0.60327 0.58229 0.74421 0.0
H849 H 0.6696 0.61342 0.46175 0.0
O850 O 0.64775 0.4842 0.63006 0.0
H851 H 0.75813 0.45112 0.50348 0.0
H852 H 0.67103 0.40874 0.55746 0.0
H853 H 0.71504 0.38482 0.57501 0.0
H854 H 0.759 0.40601 0.5479 0.0
H855 H 0.71369 0.4745 0.48723 0.0
H856 H 0.65463 0.37945 0.39919 0.0
H857 H 0.60829 0.36422 0.42689 0.0
O858 O 0.64143 0.4503 0.57617 0.0
C859 C 0.6057 0.49885 0.52345 0.0
C860 C 0.60245 0.3976 0.47756 0.0
C861 C 0.64308 0.39102 0.42664 0.0
N862 N 0.63969 0.42926 0.48168 0.0
C863 C 0.61413 0.4211 0.49692 0.0
C864 C 0.6541 0.41464 0.44681 0.0
C865 C 0.61709 0.38248 0.44221 0.0
C866 C 0.68413 0.55444 0.52561 0.0
N867 N 0.65886 0.54986 0.54664 0.0
C868 C 0.6884 0.57733 0.49477 0.0
C869 C 0.66659 0.5956 0.48558 0.0
C870 C 0.64087 0.59078 0.5072 0.0
C871 C 0.63735 0.56763 0.53774 0.0
C872 C 0.63715 0.5786 0.69245 0.0
C873 C 0.61272 0.53084 0.66193 0.0
C874 C 0.64896 0.56276 0.65479 0.0
N875 N 0.63661 0.53933 0.63972 0.0
C876 C 0.60032 0.54616 0.69971 0.0
C877 C 0.61264 0.57022 0.71495 0.0
C878 C 0.64111 0.4597 0.61999 0.0
C879 C 0.73911 0.44164 0.51535 0.0
C880 C 0.69007 0.41815 0.5457 0.0
C881 C 0.71492 0.40447 0.55562 0.0
C882 C 0.73958 0.41636 0.54035 0.0
N883 N 0.68977 0.44296 0.52118 0.0
C884 C 0.71386 0.45471 0.50601 0.0
Co885 Co 0.98839 0.65222 0.59042 0.0
Co886 Co 0.04106 0.6459 0.504 0.0
O887 O 0.01095 0.66664 0.53578 0.0
C888 C 0.01083 0.7025 0.63207 0.0
O889 O 0.03448 0.694 0.61327 0.0
C890 C 0.00608 0.66616 0.42146 0.0
O891 O 0.98429 0.66008 0.44843 0.0
O892 O 0.01706 0.61381 0.49441 0.0
O893 O 0.98809 0.61462 0.55998 0.0
H894 H 0.10124 0.56263 0.47315 0.0
H895 H 0.97003 0.70367 0.54005 0.0
O896 O 0.98905 0.68911 0.62374 0.0
H897 H 0.89596 0.63751 0.51459 0.0
H898 H 0.91179 0.65709 0.71751 0.0
H899 H 0.9888 0.60082 0.65107 0.0
H900 H 0.93703 0.62404 0.56234 0.0
H901 H 0.94028 0.6743 0.64774 0.0
O902 O 0.03014 0.66142 0.4379 0.0
H903 H 0.06383 0.5891 0.51397 0.0
H904 H 0.08185 0.65907 0.42394 0.0
H905 H 0.96071 0.5827 0.72057 0.0
H906 H 0.92919 0.71813 0.49245 0.0
H907 H 0.92187 0.61092 0.75423 0.0
H908 H 0.89184 0.68488 0.47935 0.0
O909 O 0.02154 0.64105 0.62762 0.0
H910 H 0.06455 0.7462 0.49885 0.0
H911 H 0.09729 0.65274 0.54439 0.0
H912 H 0.12693 0.69238 0.55903 0.0
H913 H 0.11062 0.73952 0.53611 0.0
H914 H 0.03544 0.70602 0.48535 0.0
H915 H 0.11935 0.6333 0.38192 0.0
H916 H 0.12931 0.58474 0.40661 0.0
O917 O 0.05299 0.62986 0.56905 0.0
C918 C 0.99923 0.60251 0.52284 0.0
C919 C 0.09717 0.5838 0.46219 0.0
C920 C 0.10731 0.62345 0.41094 0.0
N921 N 0.07082 0.62567 0.47166 0.0
C922 C 0.07607 0.59892 0.48527 0.0
C923 C 0.08602 0.63793 0.43481 0.0
C924 C 0.11289 0.59621 0.42482 0.0
C925 C 0.95371 0.68921 0.5349 0.0
N926 N 0.95583 0.6631 0.55403 0.0
C927 C 0.93071 0.69746 0.50774 0.0
C928 C 0.90978 0.67877 0.50033 0.0
C929 C 0.91209 0.65218 0.52005 0.0
C930 C 0.93543 0.64464 0.54691 0.0
C931 C 0.92858 0.64456 0.70303 0.0
C932 C 0.97178 0.61311 0.66522 0.0
C933 C 0.94479 0.6542 0.66357 0.0
N934 N 0.96593 0.63841 0.64493 0.0
C935 C 0.95602 0.60279 0.70471 0.0
C936 C 0.93425 0.61865 0.72362 0.0
C937 C 0.04473 0.63103 0.61397 0.0
C938 C 0.07192 0.72576 0.50885 0.0
C939 C 0.09 0.67319 0.53444 0.0
C940 C 0.10691 0.69555 0.54272 0.0
C941 C 0.09775 0.72199 0.52982 0.0
N942 N 0.06471 0.67705 0.51378 0.0
C943 C 0.05558 0.70291 0.50107 0.0
H944 H 0.54523 0.1629 0.30062 0.0
H945 H 0.57007 0.09467 0.39463 0.0
H946 H 0.57337 0.14442 0.23317 0.0
H947 H 0.59647 0.07489 0.32665 0.0
H948 H 0.65456 0.04991 0.20649 0.0
H949 H 0.6341 0.07546 0.27495 0.0
H950 H 0.57314 0.11029 0.17578 0.0
H951 H 0.59515 0.08635 0.10716 0.0
C952 C 0.55673 0.14387 0.30662 0.0
C953 C 0.55557 0.13014 0.35255 0.0
C954 C 0.57267 0.1331 0.26793 0.0
C955 C 0.58709 0.10792 0.27396 0.0
C956 C 0.58621 0.09456 0.32056 0.0
C957 C 0.57091 0.10576 0.35959 0.0
C958 C 0.63697 0.06334 0.19957 0.0
C959 C 0.62628 0.06618 0.15189 0.0
C960 C 0.62506 0.07784 0.23877 0.0
C961 C 0.60166 0.09481 0.23135 0.0
C962 C 0.59139 0.09793 0.18309 0.0
C963 C 0.60383 0.08404 0.14367 0.0
H964 H 0.34626 0.54518 0.29723 0.0
H965 H 0.40821 0.57472 0.39471 0.0
H966 H 0.36532 0.57291 0.22962 0.0
H967 H 0.42898 0.60056 0.32674 0.0
H968 H 0.45586 0.65692 0.20494 0.0
H969 H 0.42923 0.63664 0.27286 0.0
H970 H 0.40044 0.57442 0.17388 0.0
H971 H 0.42515 0.59638 0.10582 0.0
C972 C 0.3641 0.55758 0.30391 0.0
C973 C 0.37581 0.55794 0.35092 0.0
C974 C 0.37527 0.57331 0.2651 0.0
C975 C 0.39903 0.58897 0.27205 0.0
C976 C 0.4104 0.58942 0.31968 0.0
C977 C 0.39866 0.57441 0.35879 0.0
C978 C 0.44339 0.63917 0.19792 0.0
C979 C 0.4424 0.6282 0.15038 0.0
C980 C 0.42833 0.62728 0.2369 0.0
C981 C 0.41274 0.60352 0.22952 0.0
C982 C 0.41157 0.59295 0.18134 0.0
C983 C 0.42591 0.60541 0.14214 0.0
H984 H 0.88431 0.41116 0.10617 0.0
H985 H 0.85943 0.47328 0.21154 0.0
H986 H 0.90326 0.38299 0.17321 0.0
H987 H 0.8786 0.44515 0.27814 0.0
H988 H 0.89915 0.37977 0.39251 0.0
H989 H 0.87351 0.40069 0.32442 0.0
H990 H 0.94382 0.38888 0.227 0.0
H991 H 0.96945 0.36779 0.29457 0.0
C992 C 0.88262 0.41871 0.14358 0.0
C993 C 0.87058 0.44462 0.15341 0.0
C994 C 0.89355 0.40259 0.18189 0.0
C995 C 0.89248 0.41196 0.23075 0.0
C996 C 0.87946 0.4373 0.24087 0.0
C997 C 0.86866 0.4535 0.2026 0.0
C998 C 0.90906 0.38132 0.35645 0.0
C999 C 0.93646 0.37235 0.34913 0.0
C1000 C 0.89438 0.39338 0.31756 0.0
C1001 C 0.90673 0.39649 0.27058 0.0
C1002 C 0.93369 0.38649 0.26273 0.0
C1003 C 0.94843 0.3746 0.3016 0.0
H1004 H 0.04597 0.8488 0.21087 0.0
H1005 H 0.08612 0.90486 0.10902 0.0
H1006 H 0.07168 0.86745 0.27894 0.0
H1007 H 0.1103 0.92509 0.17701 0.0
H1008 H 0.16358 0.94912 0.3002 0.0
H1009 H 0.14393 0.92229 0.23463 0.0
H1010 H 0.07375 0.90448 0.3297 0.0
H1011 H 0.0948 0.92952 0.39617 0.0
C1012 C 0.06025 0.86527 0.20323 0.0
C1013 C 0.06409 0.87545 0.15483 0.0
C1014 C 0.07486 0.87616 0.24228 0.0
C1015 C 0.09308 0.89805 0.23402 0.0
C1016 C 0.09704 0.90791 0.18514 0.0
C1017 C 0.08299 0.89647 0.14597 0.0
C1018 C 0.14417 0.939 0.30706 0.0
C1019 C 0.13062 0.94132 0.35298 0.0
C1020 C 0.13268 0.92385 0.26934 0.0
C1021 C 0.10689 0.91144 0.27614 0.0
C1022 C 0.09379 0.91325 0.32291 0.0
C1023 C 0.10573 0.92774 0.36111 0.0
H1024 H 0.34543 0.94297 0.80027 0.0
H1025 H 0.41539 0.92164 0.89019 0.0
H1026 H 0.36474 0.91571 0.73293 0.0
H1027 H 0.43602 0.89625 0.82198 0.0
H1028 H 0.46514 0.84244 0.69998 0.0
H1029 H 0.43821 0.85951 0.77014 0.0
H1030 H 0.39831 0.91926 0.67338 0.0
H1031 H 0.4237 0.90057 0.60331 0.0
C1032 C 0.36499 0.93234 0.80542 0.0
C1033 C 0.37905 0.93435 0.85003 0.0
C1034 C 0.37624 0.91694 0.76676 0.0
C1035 C 0.40227 0.90403 0.77136 0.0
C1036 C 0.41579 0.90541 0.81697 0.0
C1037 C 0.4041 0.92012 0.85612 0.0
C1038 C 0.45026 0.85897 0.69396 0.0
C1039 C 0.44646 0.87031 0.64652 0.0
C1040 C 0.43496 0.86894 0.73414 0.0
C1041 C 0.41615 0.89105 0.7279 0.0
C1042 C 0.41207 0.90188 0.67988 0.0
C1043 C 0.42679 0.89136 0.63957 0.0
H1044 H 0.62389 0.40643 0.61484 0.0
H1045 H 0.63488 0.47241 0.71791 0.0
H1046 H 0.6023 0.37897 0.68027 0.0
H1047 H 0.61288 0.44507 0.78286 0.0
H1048 H 0.58539 0.38331 0.89897 0.0
H1049 H 0.61569 0.4035 0.83584 0.0
H1050 H 0.55785 0.3829 0.72307 0.0
H1051 H 0.52787 0.36247 0.7855 0.0
C1052 C 0.62199 0.41501 0.65149 0.0
C1053 C 0.63089 0.44179 0.66089 0.0
C1054 C 0.60951 0.39928 0.68894 0.0
C1055 C 0.60568 0.40993 0.73662 0.0
C1056 C 0.61576 0.43616 0.74664 0.0
C1057 C 0.62822 0.45191 0.70922 0.0
C1058 C 0.57934 0.38272 0.86062 0.0
C1059 C 0.55407 0.37145 0.84742 0.0
C1060 C 0.59664 0.39442 0.82452 0.0
C1061 C 0.58912 0.39489 0.77451 0.0
C1062 C 0.56443 0.38259 0.76117 0.0
C1063 C 0.54712 0.37103 0.79714 0.0
H1064 H 0.05491 0.65315 0.70297 0.0
H1065 H 0.07469 0.58347 0.61139 0.0
H1066 H 0.08223 0.63306 0.76947 0.0
H1067 H 0.1002 0.56203 0.67889 0.0
H1068 H 0.15658 0.53337 0.79835 0.0
H1069 H 0.13781 0.55979 0.72897 0.0
H1070 H 0.07941 0.59928 0.82877 0.0
H1071 H 0.09972 0.57441 0.89791 0.0
C1072 C 0.0651 0.63341 0.69738 0.0
C1073 C 0.06272 0.6197 0.65249 0.0
C1074 C 0.08056 0.62172 0.73555 0.0
C1075 C 0.0932 0.59562 0.73017 0.0
C1076 C 0.09125 0.58231 0.68444 0.0
C1077 C 0.07646 0.59444 0.64575 0.0
C1078 C 0.13997 0.54803 0.80519 0.0
C1079 C 0.12953 0.55192 0.85325 0.0
C1080 C 0.12902 0.56304 0.76546 0.0
C1081 C 0.10685 0.58164 0.77285 0.0
C1082 C 0.09682 0.5857 0.82139 0.0
C1083 C 0.1083 0.57128 0.86119 0.0
H1084 H 0.9246 0.093 0.89687 0.0
H1085 H 0.94855 0.16203 0.80479 0.0
H1086 H 0.90091 0.07327 0.82768 0.0
H1087 H 0.92306 0.14365 0.73625 0.0
H1088 H 0.84735 0.04786 0.70504 0.0
H1089 H 0.86494 0.07297 0.7747 0.0
H1090 H 0.92561 0.11061 0.67744 0.0
H1091 H 0.90635 0.08707 0.60764 0.0
C1092 C 0.92413 0.10427 0.862 0.0
C1093 C 0.93849 0.12888 0.85593 0.0
C1094 C 0.91037 0.09309 0.82222 0.0
C1095 C 0.91003 0.10668 0.77575 0.0
C1096 C 0.92341 0.13208 0.77074 0.0
C1097 C 0.93782 0.14282 0.81015 0.0
C1098 C 0.86419 0.06187 0.69873 0.0
C1099 C 0.87556 0.06556 0.65116 0.0
C1100 C 0.87452 0.0761 0.73871 0.0
C1101 C 0.89706 0.09372 0.73231 0.0
C1102 C 0.90796 0.09774 0.68415 0.0
C1103 C 0.89707 0.0841 0.64396 0.0
H1104 H 0.69623 0.05746 0.86 0.0
H1105 H 0.68313 0.96972 0.86478 0.0
H1106 H 0.72363 0.05253 0.78502 0.0
H1107 H 0.71025 0.96484 0.78829 0.0
H1108 H 0.79187 0.9679 0.6924 0.0
H1109 H 0.75796 0.96818 0.76003 0.0
H1110 H 0.72099 0.04249 0.69904 0.0
H1111 H 0.7553 0.04265 0.63258 0.0
C1112 C 0.69889 0.03711 0.8447 0.0
C1113 C 0.68745 0.01399 0.86849 0.0
C1114 C 0.71447 0.0343 0.80131 0.0
C1115 C 0.71902 0.0083 0.78028 0.0
C1116 C 0.70729 0.98514 0.80366 0.0
C1117 C 0.69162 0.98796 0.84731 0.0
C1118 C 0.77617 0.98399 0.69301 0.0
C1119 C 0.77648 0.00547 0.65761 0.0
C1120 C 0.75668 0.98412 0.73171 0.0
C1121 C 0.73703 0.00564 0.7355 0.0
C1122 C 0.73627 0.02601 0.69801 0.0
C1123 C 0.75584 0.02601 0.65971 0.0
H1124 H 0.47434 0.75078 0.62676 0.0
H1125 H 0.54684 0.78796 0.68516 0.0
H1126 H 0.47435 0.71736 0.69462 0.0
H1127 H 0.54646 0.75476 0.75415 0.0
H1128 H 0.45684 0.6953 0.85655 0.0
H1129 H 0.46266 0.72204 0.78089 0.0
H1130 H 0.55041 0.70661 0.78406 0.0
H1131 H 0.54462 0.67997 0.86111 0.0
C1132 C 0.49051 0.75161 0.65383 0.0
C1133 C 0.5104 0.77222 0.65092 0.0
C1134 C 0.49041 0.73253 0.69294 0.0
C1135 C 0.51005 0.73371 0.73046 0.0
C1136 C 0.53106 0.75322 0.72585 0.0
C1137 C 0.53127 0.77227 0.68635 0.0
C1138 C 0.47741 0.69737 0.84113 0.0
C1139 C 0.50025 0.68541 0.86499 0.0
C1140 C 0.48073 0.71258 0.79736 0.0
C1141 C 0.50699 0.71632 0.77603 0.0
C1142 C 0.52991 0.70422 0.79961 0.0
C1143 C 0.52657 0.68882 0.84357 0.0
H1144 H 0.8166 0.45899 0.85664 0.0
H1145 H 0.82274 0.54752 0.86076 0.0
H1146 H 0.78929 0.46288 0.78286 0.0
H1147 H 0.79573 0.55143 0.78512 0.0
H1148 H 0.71408 0.54356 0.69521 0.0
H1149 H 0.74872 0.54517 0.75951 0.0
H1150 H 0.78981 0.47385 0.69722 0.0
H1151 H 0.75467 0.47168 0.6343 0.0
C1152 C 0.81249 0.47935 0.84135 0.0
C1153 C 0.82184 0.50296 0.86486 0.0
C1154 C 0.79695 0.48157 0.79855 0.0
C1155 C 0.79035 0.50747 0.77766 0.0
C1156 C 0.80025 0.53116 0.8004 0.0
C1157 C 0.81588 0.52892 0.84355 0.0
C1158 C 0.73081 0.52854 0.69479 0.0
C1159 C 0.73142 0.50723 0.66017 0.0
C1160 C 0.75075 0.52951 0.73157 0.0
C1161 C 0.77184 0.50934 0.73418 0.0
C1162 C 0.77347 0.48927 0.69721 0.0
C1163 C 0.75341 0.48811 0.66091 0.0
H1164 H 0.9717 0.80249 0.8887 0.0
H1165 H 0.05284 0.82856 0.84393 0.0
H1166 H 0.96978 0.77332 0.81639 0.0
H1167 H 0.05038 0.80106 0.76983 0.0
H1168 H 0.05447 0.72338 0.67976 0.0
H1169 H 0.05417 0.75647 0.74556 0.0
H1170 H 0.96599 0.76689 0.73223 0.0
H1171 H 0.96627 0.73211 0.66794 0.0
C1172 C 0.98887 0.80247 0.86267 0.0
C1173 C 0.01251 0.81762 0.87215 0.0
C1174 C 0.98775 0.78581 0.82089 0.0
C1175 C 0.01006 0.78435 0.78699 0.0
C1176 C 0.0331 0.80078 0.79552 0.0
C1177 C 0.03446 0.81685 0.83786 0.0
C1178 C 0.035 0.7329 0.69045 0.0
C1179 C 0.01039 0.72506 0.66849 0.0
C1180 C 0.03482 0.75218 0.72823 0.0
C1181 C 0.01006 0.76474 0.74466 0.0
C1182 C 0.98545 0.75745 0.72151 0.0
C1183 C 0.9856 0.73766 0.68421 0.0
H1184 H 0.14801 0.97723 0.70351 0.0
H1185 H 0.21324 0.00155 0.6026 0.0
H1186 H 0.17867 0.98335 0.77332 0.0
H1187 H 0.24373 0.00758 0.67211 0.0
H1188 H 0.28706 0.03481 0.80921 0.0
H1189 H 0.25128 0.03577 0.74667 0.0
H1190 H 0.22076 0.95846 0.80369 0.0
H1191 H 0.2564 0.95748 0.86627 0.0
C1192 C 0.16873 0.98423 0.69624 0.0
C1193 C 0.17819 0.98877 0.64744 0.0
C1194 C 0.18634 0.98758 0.73621 0.0
C1195 C 0.21366 0.9959 0.72829 0.0
C1196 C 0.22274 0.00143 0.6796 0.0
C1197 C 0.20528 0.9978 0.63969 0.0
C1198 C 0.27244 0.01824 0.80897 0.0
C1199 C 0.27472 0.99597 0.84257 0.0
C1200 C 0.25205 0.01871 0.77291 0.0
C1201 C 0.23329 0.9971 0.76997 0.0
C1202 C 0.23474 0.97553 0.80514 0.0
C1203 C 0.25528 0.97491 0.84087 0.0
H1204 H 0.44843 0.1811 0.63633 0.0
H1205 H 0.5368 0.18605 0.64759 0.0
H1206 H 0.44297 0.20907 0.71056 0.0
H1207 H 0.53139 0.21424 0.72016 0.0
H1208 H 0.51868 0.24985 0.86749 0.0
H1209 H 0.51773 0.21429 0.80518 0.0
H1210 H 0.44967 0.25661 0.73439 0.0
H1211 H 0.45007 0.29179 0.79789 0.0
C1212 C 0.46666 0.1879 0.65484 0.0
C1213 C 0.49305 0.18134 0.63597 0.0
C1214 C 0.46353 0.20407 0.69716 0.0
C1215 C 0.48673 0.21387 0.7215 0.0
C1216 C 0.51304 0.20668 0.70309 0.0
C1217 C 0.51615 0.19063 0.66104 0.0
C1218 C 0.50321 0.25133 0.83909 0.0
C1219 C 0.48469 0.27381 0.83721 0.0
C1220 C 0.50275 0.23102 0.80319 0.0
C1221 C 0.48398 0.23284 0.76414 0.0
C1222 C 0.46432 0.25445 0.76401 0.0
C1223 C 0.46461 0.2747 0.80032 0.0
H1224 H 0.32333 0.45497 0.63976 0.0
H1225 H 0.30833 0.54282 0.64356 0.0
H1226 H 0.29611 0.44939 0.71619 0.0
H1227 H 0.28097 0.53722 0.71851 0.0
H1228 H 0.21453 0.45291 0.81392 0.0
H1229 H 0.24807 0.45327 0.74546 0.0
H1230 H 0.28461 0.52592 0.80471 0.0
H1231 H 0.2508 0.52598 0.87193 0.0
C1232 C 0.31441 0.47308 0.65699 0.0
C1233 C 0.31812 0.49935 0.63555 0.0
C1234 C 0.29868 0.46986 0.7006 0.0
C1235 C 0.28647 0.49287 0.72378 0.0
C1236 C 0.29048 0.51908 0.7024 0.0
C1237 C 0.30607 0.52227 0.65902 0.0
C1238 C 0.23009 0.46861 0.81276 0.0
C1239 C 0.22979 0.48964 0.84792 0.0
C1240 C 0.24935 0.46881 0.77356 0.0
C1241 C 0.26873 0.48994 0.76901 0.0
C1242 C 0.26953 0.50976 0.80627 0.0
C1243 C 0.25024 0.5097 0.84504 0.0
H1244 H 0.0317 0.32661 0.64416 0.0
H1245 H 0.94436 0.31131 0.64764 0.0
H1246 H 0.03664 0.30087 0.72213 0.0
H1247 H 0.94937 0.28524 0.72405 0.0
H1248 H 0.03522 0.21943 0.81832 0.0
H1249 H 0.03456 0.25349 0.75114 0.0
H1250 H 0.95859 0.28799 0.81008 0.0
H1251 H 0.95881 0.2534 0.87617 0.0
C1252 C 0.01355 0.31799 0.6617 0.0
C1253 C 0.98764 0.32102 0.63958 0.0
C1254 C 0.0164 0.3031 0.70622 0.0
C1255 C 0.9934 0.29101 0.72956 0.0
C1256 C 0.96748 0.29466 0.70781 0.0
C1257 C 0.96463 0.30947 0.66357 0.0
C1258 C 0.01867 0.23463 0.81746 0.0
C1259 C 0.99685 0.23347 0.85214 0.0
C1260 C 0.01832 0.25424 0.77898 0.0
C1261 C 0.99626 0.27322 0.77463 0.0
C1262 C 0.97553 0.27324 0.81153 0.0
C1263 C 0.97574 0.25352 0.84964 0.0
H1264 H 0.23401 0.04497 0.33031 0.0
H1265 H 0.23956 0.95619 0.32924 0.0
H1266 H 0.27002 0.04727 0.26641 0.0
H1267 H 0.27398 0.95828 0.26406 0.0
H1268 H 0.34517 0.96399 0.16336 0.0
H1269 H 0.31826 0.96736 0.23964 0.0
H1270 H 0.27713 0.04046 0.18196 0.0
H1271 H 0.30571 0.03797 0.10714 0.0
C1272 C 0.24301 0.02597 0.31659 0.0
C1273 C 0.23393 1.00041 0.33487 0.0
C1274 C 0.2635 0.02725 0.27963 0.0
C1275 C 0.27506 0.00298 0.25962 0.0
C1276 C 0.26624 0.9775 0.27898 0.0
C1277 C 0.2462 0.97625 0.31634 0.0
C1278 C 0.33073 0.98107 0.16758 0.0
C1279 C 0.32735 1.00063 0.12941 0.0
C1280 C 0.31505 0.98289 0.2111 0.0
C1281 C 0.2949 0.00382 0.21687 0.0
C1282 C 0.29251 0.02416 0.17936 0.0
C1283 C 0.3088 0.02272 0.13627 0.0
H1284 H 0.53074 0.25294 0.36775 0.0
H1285 H 0.45282 0.2222 0.3197 0.0
H1286 H 0.52906 0.28846 0.30327 0.0
H1287 H 0.45108 0.25799 0.25529 0.0
H1288 H 0.4849 0.29426 0.10525 0.0
H1289 H 0.47798 0.26495 0.17799 0.0
H1290 H 0.50507 0.33022 0.27126 0.0
H1291 H 0.51224 0.35963 0.19817 0.0
C1292 C 0.51299 0.25406 0.344 0.0
C1293 C 0.49204 0.23456 0.34863 0.0
C1294 C 0.51196 0.27456 0.30717 0.0
C1295 C 0.49003 0.27595 0.27386 0.0
C1296 C 0.46841 0.25726 0.28 0.0
C1297 C 0.46933 0.23687 0.31713 0.0
C1298 C 0.48904 0.30255 0.14129 0.0
C1299 C 0.49935 0.32925 0.1458 0.0
C1300 C 0.48488 0.28577 0.18309 0.0
C1301 C 0.49108 0.29518 0.23047 0.0
C1302 C 0.50035 0.32227 0.23521 0.0
C1303 C 0.50431 0.33917 0.19335 0.0
H1304 H 0.25352 0.53055 0.36901 0.0
H1305 H 0.29226 0.45711 0.31038 0.0
H1306 H 0.21859 0.52898 0.3057 0.0
H1307 H 0.2577 0.45601 0.24571 0.0
H1308 H 0.18197 0.4546 0.14701 0.0
H1309 H 0.20993 0.45078 0.22153 0.0
H1310 H 0.21961 0.53901 0.21926 0.0
H1311 H 0.19143 0.54287 0.14643 0.0
C1312 C 0.25445 0.51392 0.34277 0.0
C1313 C 0.27585 0.49415 0.34431 0.0
C1314 C 0.23449 0.5131 0.30626 0.0
C1315 C 0.2356 0.49269 0.26992 0.0
C1316 C 0.25611 0.47196 0.27318 0.0
C1317 C 0.276 0.47263 0.31016 0.0
C1318 C 0.18978 0.47318 0.16295 0.0
C1319 C 0.1844 0.49904 0.14073 0.0
C1320 C 0.20596 0.47097 0.20543 0.0
C1321 C 0.21697 0.49459 0.22663 0.0
C1322 C 0.21109 0.5204 0.20472 0.0
C1323 C 0.19503 0.5226 0.16252 0.0
H1324 H 0.94909 0.19127 0.14695 0.0
H1325 H 0.03738 0.17921 0.14416 0.0
H1326 H 0.95254 0.21969 0.21932 0.0
H1327 H 0.04079 0.20732 0.21811 0.0
H1328 H 0.03501 0.2883 0.31067 0.0
H1329 H 0.03581 0.2547 0.2442 0.0
H1330 H 0.96188 0.21849 0.30515 0.0
H1331 H 0.96065 0.25247 0.37024 0.0
C1332 C 0.96927 0.19435 0.16218 0.0
C1333 C 0.99295 0.18284 0.13964 0.0
C1334 C 0.97124 0.21058 0.2041 0.0
C1335 C 0.99694 0.21574 0.22501 0.0
C1336 C 0.02067 0.20398 0.20284 0.0
C1337 C 0.0187 0.18769 0.16064 0.0
C1338 C 0.0192 0.27286 0.31023 0.0
C1339 C 0.99758 0.27327 0.34536 0.0
C1340 C 0.01967 0.25354 0.27216 0.0
C1341 C 0.99864 0.2341 0.26868 0.0
C1342 C 0.97801 0.23357 0.30575 0.0
C1343 C 0.9774 0.25297 0.34336 0.0
H1344 H 0.7279 0.05594 0.17811 0.0
H1345 H 0.73429 0.96765 0.16451 0.0
H1346 H 0.76146 0.05445 0.24293 0.0
H1347 H 0.76958 0.96616 0.22814 0.0
H1348 H 0.8067 0.97162 0.38457 0.0
H1349 H 0.77707 0.96987 0.31269 0.0
H1350 H 0.80662 0.04938 0.26371 0.0
H1351 H 0.83454 0.05173 0.33729 0.0
C1352 C 0.73695 0.03617 0.18828 0.0
C1353 C 0.72839 0.01191 0.16597 0.0
C1354 C 0.75653 0.03531 0.22546 0.0
C1355 C 0.7687 0.0102 0.24097 0.0
C1356 C 0.76052 0.98588 0.21787 0.0
C1357 C 0.74042 0.98671 0.18105 0.0
C1358 C 0.807 0.98854 0.35803 0.0
C1359 C 0.8227 0.01193 0.3667 0.0
C1360 C 0.79008 0.98753 0.31657 0.0
C1361 C 0.78891 0.00968 0.28233 0.0
C1362 C 0.80608 0.03229 0.28982 0.0
C1363 C 0.82239 0.03358 0.3318 0.0
H1364 H 0.5463 0.82072 0.35474 0.0
H1365 H 0.4579 0.81336 0.34993 0.0
H1366 H 0.55083 0.79305 0.27992 0.0
H1367 H 0.46242 0.78549 0.27684 0.0
H1368 H 0.47237 0.75136 0.12816 0.0
H1369 H 0.47412 0.78655 0.19098 0.0
H1370 H 0.54475 0.74532 0.2554 0.0
H1371 H 0.54352 0.71048 0.19117 0.0
C1372 C 0.52786 0.81347 0.33751 0.0
C1373 C 0.50174 0.81928 0.35835 0.0
C1374 C 0.53046 0.79746 0.29488 0.0
C1375 C 0.50699 0.7871 0.27216 0.0
C1376 C 0.48094 0.7935 0.2926 0.0
C1377 C 0.47835 0.80937 0.33496 0.0
C1378 C 0.48856 0.75004 0.15525 0.0
C1379 C 0.50757 0.72797 0.15516 0.0
C1380 C 0.48949 0.77015 0.19145 0.0
C1381 C 0.50922 0.76848 0.22894 0.0
C1382 C 0.52934 0.74732 0.22702 0.0
C1383 C 0.52859 0.72729 0.19031 0.0
H1384 H 0.69258 0.45625 0.36421 0.0
H1385 H 0.67765 0.54414 0.36606 0.0
H1386 H 0.71911 0.46119 0.28817 0.0
H1387 H 0.70394 0.54904 0.28851 0.0
H1388 H 0.78466 0.54556 0.18984 0.0
H1389 H 0.75137 0.54535 0.25844 0.0
H1390 H 0.7158 0.47152 0.2019 0.0
H1391 H 0.74948 0.4713 0.13439 0.0
C1392 C 0.69464 0.47666 0.34806 0.0
C1393 C 0.68293 0.4998 0.37141 0.0
C1394 C 0.70974 0.47947 0.30403 0.0
C1395 C 0.71358 0.50551 0.28181 0.0
C1396 C 0.70156 0.5287 0.30473 0.0
C1397 C 0.68634 0.52587 0.34901 0.0
C1398 C 0.76938 0.52959 0.19156 0.0
C1399 C 0.76995 0.50824 0.15701 0.0
C1400 C 0.75023 0.5295 0.23089 0.0
C1401 C 0.73117 0.50814 0.23629 0.0
C1402 C 0.73062 0.48789 0.19968 0.0
C1403 C 0.74983 0.48787 0.16072 0.0
H1404 H 0.96298 0.77375 0.16864 0.0
H1405 H 0.05161 0.77008 0.17778 0.0
H1406 H 0.95966 0.73837 0.23362 0.0
H1407 H 0.04841 0.73623 0.24384 0.0
H1408 H 0.04085 0.66368 0.34214 0.0
H1409 H 0.03942 0.69149 0.2667 0.0
H1410 H 0.96452 0.73147 0.31909 0.0
H1411 H 0.9652 0.70215 0.39321 0.0
C1412 C 0.98174 0.76534 0.18439 0.0
C1413 C 0.00755 0.77471 0.16792 0.0
C1414 C 0.97986 0.7452 0.22197 0.0
C1415 C 0.00375 0.73425 0.24432 0.0
C1416 C 0.02951 0.74349 0.22705 0.0
C1417 C 0.03137 0.7632 0.18918 0.0
C1418 C 0.02385 0.67813 0.33706 0.0
C1419 C 0.00323 0.6809 0.37359 0.0
C1420 C 0.02313 0.69431 0.29398 0.0
C1421 C 0.00217 0.7143 0.28691 0.0
C1422 C 0.98088 0.71622 0.32275 0.0
C1423 C 0.98129 0.6995 0.36544 0.0
H1424 H 0.43486 0.98392 0.05541 0.0
H1425 H 0.43945 0.01878 0.90765 0.0
H1426 H 0.48467 0.98612 0.06136 0.0
H1427 H 0.48925 0.01969 0.91252 0.0
H1428 H 0.57577 0.96849 0.04395 0.0
H1429 H 0.52613 0.96567 0.03426 0.0
H1430 H 0.52665 0.04088 0.94679 0.0
H1431 H 0.57612 0.04285 0.95425 0.0
C1432 C 0.44647 0.99214 0.02418 0.0
C1433 C 0.43299 0.00129 0.98112 0.0
C1434 C 0.47517 0.99305 0.02732 0.0
C1435 C 0.4913 0.00281 0.98726 0.0
C1436 C 0.47771 0.01237 0.9445 0.0
C1437 C 0.44899 0.01181 0.94162 0.0
C1438 C 0.56535 0.98415 0.02192 0.0
C1439 C 0.58013 0.00589 0.99997 0.0
C1440 C 0.53673 0.98276 0.01687 0.0
C1441 C 0.52205 0.00324 0.99022 0.0
C1442 C 0.53703 0.02449 0.96709 0.0
C1443 C 0.5656 0.02568 0.97158 0.0
H1444 H 0.50912 0.42831 0.05558 0.0
H1445 H 0.47306 0.4379 0.91115 0.0
H1446 H 0.51106 0.47821 0.06229 0.0
H1447 H 0.47667 0.48725 0.91623 0.0
H1448 H 0.46211 0.57608 0.95558 0.0
H1449 H 0.45938 0.52665 0.95041 0.0
H1450 H 0.53384 0.51758 0.03515 0.0
H1451 H 0.53545 0.5674 0.04319 0.0
C1452 C 0.50154 0.44102 0.0253 0.0
C1453 C 0.49078 0.42894 0.98296 0.0
C1454 C 0.50301 0.46972 0.0288 0.0
C1455 C 0.49421 0.48709 0.98968 0.0
C1456 C 0.4832 0.47487 0.94765 0.0
C1457 C 0.48124 0.44632 0.94459 0.0
C1458 C 0.47808 0.56366 0.97289 0.0
C1459 C 0.49895 0.5759 1.0 0.0
C1460 C 0.47659 0.53507 0.96968 0.0
C1461 C 0.49631 0.51774 0.9925 0.0
C1462 C 0.51786 0.53005 0.01802 0.0
C1463 C 0.51904 0.55874 0.02205 0.0
H1464 H 0.93322 0.52501 0.08169 0.0
H1465 H 0.93081 0.48348 0.94181 0.0
H1466 H 0.98289 0.52183 0.08032 0.0
H1467 H 0.98092 0.48195 0.93854 0.0
H1468 H 0.0701 0.45902 0.96476 0.0
H1469 H 0.02003 0.46064 0.96984 0.0
H1470 H 0.02337 0.53734 0.0484 0.0
H1471 H 0.07303 0.5346 0.04639 0.0
C1472 C 0.94328 0.51574 0.04994 0.0
C1473 C 0.9278 0.50448 0.0119 0.0
C1474 C 0.97203 0.514 0.049 0.0
C1475 C 0.98637 0.50149 0.00941 0.0
C1476 C 0.97085 0.49113 0.97037 0.0
C1477 C 0.942 0.49239 0.97182 0.0
C1478 C 0.06012 0.47594 0.98399 0.0
C1479 C 0.0758 0.49666 0.00515 0.0
C1480 C 0.03127 0.47713 0.98626 0.0
C1481 C 0.01723 0.49933 0.00899 0.0
C1482 C 0.03306 0.51964 0.03117 0.0
C1483 C 0.06182 0.51815 0.0298 0.0
H1484 H 0.98166 0.07099 0.06668 0.0
H1485 H 0.02109 0.06952 0.92246 0.0
H1486 H 0.98363 0.02087 0.07045 0.0
H1487 H 0.02153 0.01976 0.92475 0.0
H1488 H 0.04218 0.93058 0.96083 0.0
H1489 H 0.04104 0.98033 0.95726 0.0
H1490 H 0.96424 0.98105 0.04016 0.0
H1491 H 0.96637 0.93101 0.04638 0.0
C1492 C 0.99085 0.06002 0.03584 0.0
C1493 C 0.00132 0.07446 0.99439 0.0
C1494 C 0.99162 0.03117 0.03764 0.0
C1495 C 0.00251 0.01593 0.99771 0.0
C1496 C 0.01337 0.0305 0.95667 0.0
C1497 C 0.01302 0.05926 0.95526 0.0
C1498 C 0.02486 0.94123 0.97797 0.0
C1499 C 0.00444 0.92659 0.00414 0.0
C1500 C 0.02414 0.96999 0.97574 0.0
C1501 C 0.00265 0.98508 0.99875 0.0
C1502 C 0.98153 0.97036 0.02303 0.0
C1503 C 0.98252 0.94153 0.026 0.0
H1504 H 0.07637 0.98779 0.56034 0.0
H1505 H 0.0723 0.02786 0.41681 0.0
H1506 H 0.02626 0.98895 0.56627 0.0
H1507 H 0.02267 0.02741 0.42118 0.0
H1508 H 0.93377 0.04591 0.45919 0.0
H1509 H 0.98345 0.04611 0.45539 0.0
H1510 H 0.98638 0.96893 0.53709 0.0
H1511 H 0.93631 0.96973 0.54366 0.0
C1512 C 0.06485 0.99697 0.53015 0.0
C1513 C 0.07854 0.00781 0.48819 0.0
C1514 C 0.03601 0.99727 0.53319 0.0
C1515 C 0.0201 0.00805 0.49403 0.0
C1516 C 0.03393 0.01933 0.45257 0.0
C1517 C 0.06264 0.01947 0.44993 0.0
C1518 C 0.94489 0.0288 0.47607 0.0
C1519 C 0.93085 0.00783 0.50186 0.0
C1520 C 0.97361 0.02885 0.4737 0.0
C1521 C 0.98929 0.00759 0.4961 0.0
C1522 C 0.9752 0.98603 0.52034 0.0
C1523 C 0.94638 0.98625 0.5235 0.0
H1524 H 0.46458 0.92903 0.45216 0.0
H1525 H 0.53864 0.93273 0.53803 0.0
H1526 H 0.4616 0.97878 0.44948 0.0
H1527 H 0.53658 0.9828 0.53286 0.0
H1528 H 0.5113 0.07134 0.56117 0.0
H1529 H 0.51306 0.02124 0.56403 0.0
H1530 H 0.47856 0.01942 0.41769 0.0
H1531 H 0.47538 0.0692 0.41617 0.0
C1532 C 0.48064 0.94042 0.46961 0.0
C1533 C 0.5018 0.92666 0.49554 0.0
C1534 C 0.47897 0.96918 0.4679 0.0
C1535 C 0.4987 0.98516 0.4913 0.0
C1536 C 0.52056 0.97137 0.51544 0.0
C1537 C 0.52199 0.94254 0.51781 0.0
C1538 C 0.50364 0.06022 0.52996 0.0
C1539 C 0.4931 0.07447 0.48852 0.0
C1540 C 0.50502 0.03139 0.53126 0.0
C1541 C 0.49628 0.01596 0.49085 0.0
C1542 C 0.48518 0.0303 0.44991 0.0
C1543 C 0.48341 0.05907 0.44895 0.0
H1544 H 0.56742 0.52082 0.58714 0.0
H1545 H 0.57512 0.48133 0.4455 0.0
H1546 H 0.51788 0.51927 0.58247 0.0
H1547 H 0.52516 0.48146 0.43898 0.0
H1548 H 0.43507 0.46142 0.45892 0.0
H1549 H 0.48492 0.46115 0.46694 0.0
H1550 H 0.47889 0.53709 0.54808 0.0
H1551 H 0.42933 0.53619 0.54307 0.0
C1552 C 0.55856 0.51233 0.55435 0.0
C1553 C 0.57543 0.5012 0.5167 0.0
C1554 C 0.5299 0.51155 0.55151 0.0
C1555 C 0.5171 0.50018 0.51035 0.0
C1556 C 0.53404 0.48981 0.47188 0.0
C1557 C 0.56279 0.49008 0.47523 0.0
C1558 C 0.4444 0.47778 0.47926 0.0
C1559 C 0.42803 0.4988 0.50039 0.0
C1560 C 0.47312 0.47787 0.48327 0.0
C1561 C 0.48633 0.49927 0.50774 0.0
C1562 C 0.46978 0.51996 0.52963 0.0
C1563 C 0.44112 0.51953 0.52652 0.0
H1564 H 0.97269 0.56686 0.5864 0.0
H1565 H 0.01486 0.57014 0.44468 0.0
H1566 H 0.97118 0.51703 0.58182 0.0
H1567 H 0.01222 0.52038 0.43899 0.0
H1568 H 0.03096 0.42989 0.46416 0.0
H1569 H 0.03198 0.47972 0.4717 0.0
H1570 H 0.9523 0.47873 0.54483 0.0
H1571 H 0.95188 0.42897 0.53935 0.0
C1572 C 0.98112 0.55706 0.5537 0.0
C1573 C 0.99401 0.57269 0.51603 0.0
C1574 C 0.98022 0.52832 0.55101 0.0
C1575 C 0.99189 0.51437 0.51029 0.0
C1576 C 0.00367 0.53016 0.4716 0.0
C1577 C 0.00484 0.55886 0.47454 0.0
C1578 C 0.01383 0.44025 0.48252 0.0
C1579 C 0.99137 0.42523 0.50117 0.0
C1580 C 0.01423 0.46897 0.4863 0.0
C1581 C 0.99205 0.48356 0.50832 0.0
C1582 C 0.96993 0.46841 0.52809 0.0
C1583 C 0.96967 0.43969 0.52482 0.0
loop_
_geom_bond_atom_site_label_1
_geom_bond_atom_site_label_2
_geom_bond_distance
_geom_bond_site_symmetry_2
_ccdc_geom_bond_type
Co0 O2 2.143 . S
Co0 O8 2.074 . S
Co0 O11 2.093 . S
Co0 O24 2.097 1_565 S
Co0 N41 2.151 . S
Co0 N49 2.214 . S
Co1 O2 2.160 1_545 S
Co1 O7 2.058 1_545 S
Co1 O17 2.057 . S
Co1 O32 2.037 . S
Co1 N36 2.145 . S
Co1 N57 2.257 . S
O2 Co0 2.143 . S
O2 Co1 2.160 1_565 S
C3 O4 1.278 1_565 S
C3 O11 1.224 . S
O4 C3 1.278 1_545 S
C5 O6 1.238 1_545 S
C5 O17 1.238 . S
O6 C5 1.238 1_565 S
O7 Co1 2.058 1_565 S
O7 C33 1.269 . S
O8 Co0 2.074 . S
O8 C33 1.257 . S
H9 C34 0.932 . S
H10 C40 0.930 . S
O11 Co0 2.093 . S
O11 C3 1.224 . S
H12 C44 0.929 . S
H13 C46 0.930 . S
H14 C47 0.930 . S
H15 C45 0.929 . S
H16 C48 0.928 . S
O17 Co1 2.057 . S
O17 C5 1.238 . S
H18 C37 0.929 . S
H19 C38 0.929 . S
H20 C50 0.931 . S
H21 C42 0.929 . S
H22 C51 0.930 . S
H23 C43 0.931 . S
O24 Co0 2.097 1_545 S
O24 C52 1.214 . S
H25 C53 0.929 . S
H26 C54 0.929 . S
H27 C55 0.930 . S
H28 C56 0.929 . S
H29 C58 0.930 . S
H30 C35 0.930 . S
H31 C39 0.930 . S
O32 Co1 2.037 . S
O32 C52 1.234 . S
C33 O7 1.269 . S
C33 O8 1.257 . S
C34 H9 0.932 . S
C34 C37 1.388 1_556 S
C34 C39 1.418 . S
C35 H30 0.930 . S
C35 C38 1.404 . S
C35 C39 1.353 . S
N36 Co1 2.145 . S
N36 C37 1.397 . S
N36 C38 1.334 1_554 S
C37 H18 0.929 . S
C37 C34 1.388 1_554 S
C37 N36 1.397 . S
C38 H19 0.929 . S
C38 C35 1.404 . S
C38 N36 1.334 1_556 S
C39 H31 0.930 . S
C39 C34 1.418 . S
C39 C35 1.353 . S
C40 H10 0.930 . S
C40 N41 1.330 . S
C40 C42 1.446 . S
N41 Co0 2.151 . S
N41 C40 1.330 . S
N41 C45 1.418 . S
C42 H21 0.929 . S
C42 C40 1.446 . S
C42 C43 1.332 . S
C43 H23 0.931 . S
C43 C42 1.332 . S
C43 C44 1.267 . S
C44 H12 0.929 . S
C44 C43 1.267 . S
C44 C45 1.251 . S
C45 H15 0.929 . S
C45 N41 1.418 . S
C45 C44 1.251 . S
C46 H13 0.930 . S
C46 C48 1.406 . S
C46 C51 1.261 . S
C47 H14 0.930 . S
C47 N49 1.325 . S
C47 C50 1.357 . S
C48 H16 0.928 . S
C48 C46 1.406 . S
C48 N49 1.261 . S
N49 Co0 2.214 . S
N49 C47 1.325 . S
N49 C48 1.261 . S
C50 H20 0.931 . S
C50 C47 1.357 . S
C50 C51 1.312 . S
C51 H22 0.930 . S
C51 C46 1.261 . S
C51 C50 1.312 . S
C52 O24 1.214 . S
C52 O32 1.234 . S
C53 H25 0.929 . S
C53 C56 1.391 . S
C53 C58 1.391 . S
C54 H26 0.929 . S
C54 C55 1.390 . S
C54 N57 1.391 . S
C55 H27 0.930 . S
C55 C54 1.390 . S
C55 C56 1.392 . S
C56 H28 0.929 . S
C56 C53 1.391 . S
C56 C55 1.392 . S
N57 Co1 2.257 . S
N57 C54 1.391 . S
N57 C58 1.388 . S
C58 H29 0.930 . S
C58 C53 1.391 . S
C58 N57 1.388 . S
Co59 O61 2.143 . S
Co59 O67 2.074 . S
Co59 O70 2.093 . S
Co59 O83 2.097 . S
Co59 N100 2.151 . S
Co59 N108 2.214 . S
Co60 O61 2.160 . S
Co60 O66 2.058 . S
Co60 O76 2.057 . S
Co60 O91 2.037 . S
Co60 N95 2.145 . S
Co60 N116 2.257 . S
O61 Co59 2.143 . S
O61 Co60 2.160 . S
C62 O63 1.278 . S
C62 O70 1.224 . S
O63 C62 1.278 . S
C64 O65 1.245 . S
C64 O76 1.232 . S
O65 C64 1.245 . S
O66 Co60 2.058 . S
O66 C92 1.269 . S
O67 Co59 2.074 . S
O67 C92 1.257 . S
H68 C93 0.930 . S
H69 C99 0.930 . S
O70 Co59 2.093 . S
O70 C62 1.224 . S
H71 C103 0.929 . S
H72 C105 0.930 . S
H73 C106 0.930 . S
H74 C104 0.929 . S
H75 C107 0.928 . S
O76 Co60 2.057 . S
O76 C64 1.232 . S
H77 C96 0.929 . S
H78 C97 0.929 . S
H79 C109 0.931 . S
H80 C101 0.929 . S
H81 C110 0.930 . S
H82 C102 0.931 . S
O83 Co59 2.097 . S
O83 C111 1.214 . S
H84 C112 0.929 . S
H85 C113 0.929 . S
H86 C114 0.930 . S
H87 C115 0.929 . S
H88 C117 0.930 . S
H89 C94 0.930 . S
H90 C98 0.930 . S
O91 Co60 2.037 . S
O91 C111 1.234 . S
C92 O66 1.269 . S
C92 O67 1.257 . S
C93 H68 0.930 . S
C93 C96 1.388 . S
C93 C98 1.418 1_554 S
C94 H89 0.930 . S
C94 C97 1.404 . S
C94 C98 1.353 . S
N95 Co60 2.145 . S
N95 C96 1.397 . S
N95 C97 1.334 1_554 S
C96 H77 0.929 . S
C96 C93 1.388 . S
C96 N95 1.397 . S
C97 H78 0.929 . S
C97 C94 1.404 . S
C97 N95 1.334 1_556 S
C98 H90 0.930 . S
C98 C93 1.418 1_556 S
C98 C94 1.353 . S
C99 H69 0.930 . S
C99 N100 1.330 . S
C99 C101 1.446 . S
N100 Co59 2.151 . S
N100 C99 1.330 . S
N100 C104 1.418 . S
C101 H80 0.929 . S
C101 C99 1.446 . S
C101 C102 1.332 . S
C102 H82 0.931 . S
C102 C101 1.332 . S
C102 C103 1.267 . S
C103 H71 0.929 . S
C103 C102 1.267 . S
C103 C104 1.251 . S
C104 H74 0.929 . S
C104 N100 1.418 . S
C104 C103 1.251 . S
C105 H72 0.930 . S
C105 C107 1.406 . S
C105 C110 1.261 . S
C106 H73 0.930 . S
C106 N108 1.325 . S
C106 C109 1.357 . S
C107 H75 0.928 . S
C107 C105 1.406 . S
C107 N108 1.261 . S
N108 Co59 2.214 . S
N108 C106 1.325 . S
N108 C107 1.261 . S
C109 H79 0.931 . S
C109 C106 1.357 . S
C109 C110 1.312 . S
C110 H81 0.930 . S
C110 C105 1.261 . S
C110 C109 1.312 . S
C111 O83 1.214 . S
C111 O91 1.234 . S
C112 H84 0.929 . S
C112 C115 1.391 . S
C112 C117 1.391 . S
C113 H85 0.929 . S
C113 C114 1.390 . S
C113 N116 1.391 . S
C114 H86 0.930 . S
C114 C113 1.390 . S
C114 C115 1.392 . S
C115 H87 0.929 . S
C115 C112 1.391 . S
C115 C114 1.392 . S
N116 Co60 2.257 . S
N116 C113 1.391 . S
N116 C117 1.388 . S
C117 H88 0.930 . S
C117 C112 1.391 . S
C117 N116 1.388 . S
Co118 O120 2.143 . S
Co118 O126 2.074 . S
Co118 O129 2.093 . S
Co118 O142 2.097 . S
Co118 N159 2.151 . S
Co118 N167 2.214 . S
Co119 O120 2.160 . S
Co119 O125 2.058 . S
Co119 O135 2.057 . S
Co119 O150 2.037 . S
Co119 N154 2.145 . S
Co119 N175 2.257 . S
O120 Co118 2.143 . S
O120 Co119 2.160 . S
C121 O122 1.278 . S
C121 O129 1.224 . S
O122 C121 1.278 . S
C123 O124 1.245 . S
C123 O135 1.232 . S
O124 C123 1.245 . S
O125 Co119 2.058 . S
O125 C151 1.269 . S
O126 Co118 2.074 . S
O126 C151 1.257 . S
H127 C152 0.930 . S
H128 C158 0.930 . S
O129 Co118 2.093 . S
O129 C121 1.224 . S
H130 C162 0.929 . S
H131 C164 0.930 . S
H132 C165 0.930 . S
H133 C163 0.929 . S
H134 C166 0.928 . S
O135 Co119 2.057 . S
O135 C123 1.232 . S
H136 C155 0.929 . S
H137 C156 0.929 . S
H138 C168 0.931 . S
H139 C160 0.929 . S
H140 C169 0.930 . S
H141 C161 0.931 . S
O142 Co118 2.097 . S
O142 C170 1.214 . S
H143 C171 0.929 . S
H144 C172 0.929 . S
H145 C173 0.930 . S
H146 C174 0.929 . S
H147 C176 0.930 . S
H148 C153 0.930 . S
H149 C157 0.930 . S
O150 Co119 2.037 . S
O150 C170 1.234 . S
C151 O125 1.269 . S
C151 O126 1.257 . S
C152 H127 0.930 . S
C152 C155 1.388 . S
C152 C157 1.418 1_554 S
C153 H148 0.930 . S
C153 C156 1.404 . S
C153 C157 1.353 . S
N154 Co119 2.145 . S
N154 C155 1.397 . S
N154 C156 1.334 1_554 S
C155 H136 0.929 . S
C155 C152 1.388 . S
C155 N154 1.397 . S
C156 H137 0.929 . S
C156 C153 1.404 . S
C156 N154 1.334 1_556 S
C157 H149 0.930 . S
C157 C152 1.418 1_556 S
C157 C153 1.353 . S
C158 H128 0.930 . S
C158 N159 1.330 . S
C158 C160 1.446 . S
N159 Co118 2.151 . S
N159 C158 1.330 . S
N159 C163 1.418 . S
C160 H139 0.929 . S
C160 C158 1.446 . S
C160 C161 1.332 . S
C161 H141 0.931 . S
C161 C160 1.332 . S
C161 C162 1.267 . S
C162 H130 0.929 . S
C162 C161 1.267 . S
C162 C163 1.251 . S
C163 H133 0.929 . S
C163 N159 1.418 . S
C163 C162 1.251 . S
C164 H131 0.930 . S
C164 C166 1.406 . S
C164 C169 1.261 . S
C165 H132 0.930 . S
C165 N167 1.325 . S
C165 C168 1.357 . S
C166 H134 0.928 . S
C166 C164 1.406 . S
C166 N167 1.261 . S
N167 Co118 2.214 . S
N167 C165 1.325 . S
N167 C166 1.261 . S
C168 H138 0.931 . S
C168 C165 1.357 . S
C168 C169 1.312 . S
C169 H140 0.930 . S
C169 C164 1.261 . S
C169 C168 1.312 . S
C170 O142 1.214 . S
C170 O150 1.234 . S
C171 H143 0.929 . S
C171 C174 1.391 . S
C171 C176 1.391 . S
C172 H144 0.929 . S
C172 C173 1.390 . S
C172 N175 1.391 . S
C173 H145 0.930 . S
C173 C172 1.390 . S
C173 C174 1.392 . S
C174 H146 0.929 . S
C174 C171 1.391 . S
C174 C173 1.392 . S
N175 Co119 2.257 . S
N175 C172 1.391 . S
N175 C176 1.388 . S
C176 H147 0.930 . S
C176 C171 1.391 . S
C176 N175 1.388 . S
Co177 O179 2.143 . S
Co177 O185 2.074 . S
Co177 O188 2.093 . S
Co177 O201 2.097 1_655 S
Co177 N218 2.151 . S
Co177 N226 2.214 . S
Co178 O179 2.160 1_455 S
Co178 O184 2.051 1_455 S
Co178 O194 2.057 . S
Co178 O209 2.037 . S
Co178 N213 2.145 . S
Co178 N234 2.257 . S
O179 Co177 2.143 . S
O179 Co178 2.160 1_655 S
C180 O181 1.256 1_655 S
C180 O188 1.224 . S
O181 C180 1.256 1_455 S
C182 O183 1.245 1_556 S
C182 O194 1.232 1_656 S
O183 C182 1.245 1_554 S
O184 Co178 2.051 1_655 S
O184 C210 1.276 . S
O185 Co177 2.074 . S
O185 C210 1.257 . S
H186 C211 0.930 . S
H187 C217 0.930 . S
O188 Co177 2.093 . S
O188 C180 1.224 . S
H189 C221 0.929 . S
H190 C223 0.930 . S
H191 C224 0.930 . S
H192 C222 0.929 . S
H193 C225 0.928 . S
O194 Co178 2.057 . S
O194 C182 1.232 1_454 S
H195 C214 0.929 . S
H196 C215 0.929 . S
H197 C227 0.931 . S
H198 C219 0.929 . S
H199 C228 0.930 . S
H200 C220 0.931 . S
O201 Co177 2.097 1_455 S
O201 C229 1.214 . S
H202 C230 0.929 . S
H203 C231 0.929 . S
H204 C232 0.930 . S
H205 C233 0.929 . S
H206 C235 0.930 . S
H207 C212 0.930 . S
H208 C216 0.930 . S
O209 Co178 2.037 . S
O209 C229 1.234 . S
C210 O184 1.276 . S
C210 O185 1.257 . S
C211 H186 0.930 . S
C211 C214 1.388 1_556 S
C211 C216 1.418 . S
C212 H207 0.930 . S
C212 C215 1.404 . S
C212 C216 1.353 . S
N213 Co178 2.145 . S
N213 C214 1.397 . S
N213 C215 1.334 1_554 S
C214 H195 0.929 . S
C214 C211 1.388 1_554 S
C214 N213 1.397 . S
C215 H196 0.929 . S
C215 C212 1.404 . S
C215 N213 1.334 1_556 S
C216 H208 0.930 . S
C216 C211 1.418 . S
C216 C212 1.353 . S
C217 H187 0.930 . S
C217 N218 1.330 . S
C217 C219 1.446 . S
N218 Co177 2.151 . S
N218 C217 1.330 . S
N218 C222 1.418 . S
C219 H198 0.929 . S
C219 C217 1.446 . S
C219 C220 1.332 . S
C220 H200 0.931 . S
C220 C219 1.332 . S
C220 C221 1.267 . S
C221 H189 0.929 . S
C221 C220 1.267 . S
C221 C222 1.251 . S
C222 H192 0.929 . S
C222 N218 1.418 . S
C222 C221 1.251 . S
C223 H190 0.930 . S
C223 C225 1.406 . S
C223 C228 1.261 . S
C224 H191 0.930 . S
C224 N226 1.325 . S
C224 C227 1.357 . S
C225 H193 0.928 . S
C225 C223 1.406 . S
C225 N226 1.261 . S
N226 Co177 2.214 . S
N226 C224 1.325 . S
N226 C225 1.261 . S
C227 H197 0.931 . S
C227 C224 1.357 . S
C227 C228 1.312 . S
C228 H199 0.930 . S
C228 C223 1.261 . S
C228 C227 1.312 . S
C229 O201 1.214 . S
C229 O209 1.234 . S
C230 H202 0.929 . S
C230 C233 1.391 . S
C230 C235 1.391 . S
C231 H203 0.929 . S
C231 C232 1.390 . S
C231 N234 1.391 . S
C232 H204 0.930 . S
C232 C231 1.390 . S
C232 C233 1.392 . S
C233 H205 0.929 . S
C233 C230 1.391 . S
C233 C232 1.392 . S
N234 Co178 2.257 . S
N234 C231 1.391 . S
N234 C235 1.388 . S
C235 H206 0.930 . S
C235 C230 1.391 . S
C235 N234 1.388 . S
Co236 O238 2.143 . S
Co236 O244 2.074 . S
Co236 O247 2.093 . S
Co236 O260 2.097 1_545 S
Co236 N277 2.151 . S
Co236 N285 2.214 . S
Co237 O238 2.160 1_565 S
Co237 O243 2.051 1_565 S
Co237 O253 2.057 . S
Co237 O268 2.037 . S
Co237 N272 2.145 . S
Co237 N293 2.257 . S
O238 Co236 2.143 . S
O238 Co237 2.160 1_545 S
C239 O240 1.256 1_545 S
C239 O247 1.224 . S
O240 C239 1.256 1_565 S
C241 O242 1.245 . S
C241 O253 1.232 1_545 S
O242 C241 1.245 . S
O243 Co237 2.051 1_545 S
O243 C269 1.276 . S
O244 Co236 2.074 . S
O244 C269 1.257 . S
H245 C270 0.930 . S
H246 C276 0.930 . S
O247 Co236 2.093 . S
O247 C239 1.224 . S
H248 C280 0.929 . S
H249 C282 0.930 . S
H250 C283 0.930 . S
H251 C281 0.929 . S
H252 C284 0.928 . S
O253 Co237 2.057 . S
O253 C241 1.232 1_565 S
H254 C273 0.929 . S
H255 C274 0.929 . S
H256 C286 0.931 . S
H257 C278 0.929 . S
H258 C287 0.930 . S
H259 C279 0.931 . S
O260 Co236 2.097 1_565 S
O260 C288 1.214 . S
H261 C289 0.929 . S
H262 C290 0.929 . S
H263 C291 0.930 . S
H264 C292 0.929 . S
H265 C294 0.930 . S
H266 C271 0.930 . S
H267 C275 0.930 . S
O268 Co237 2.037 . S
O268 C288 1.234 . S
C269 O243 1.276 . S
C269 O244 1.257 . S
C270 H245 0.930 . S
C270 C273 1.388 . S
C270 C275 1.418 . S
C271 H266 0.930 . S
C271 C274 1.404 . S
C271 C275 1.353 . S
N272 Co237 2.145 . S
N272 C273 1.397 . S
N272 C274 1.334 . S
C273 H254 0.929 . S
C273 C270 1.388 . S
C273 N272 1.397 . S
C274 H255 0.929 . S
C274 C271 1.404 . S
C274 N272 1.334 . S
C275 H267 0.930 . S
C275 C270 1.418 . S
C275 C271 1.353 . S
C276 H246 0.930 . S
C276 N277 1.330 . S
C276 C278 1.446 . S
N277 Co236 2.151 . S
N277 C276 1.330 . S
N277 C281 1.418 . S
C278 H257 0.929 . S
C278 C276 1.446 . S
C278 C279 1.332 . S
C279 H259 0.931 . S
C279 C278 1.332 . S
C279 C280 1.267 . S
C280 H248 0.929 . S
C280 C279 1.267 . S
C280 C281 1.251 . S
C281 H251 0.929 . S
C281 N277 1.418 . S
C281 C280 1.251 . S
C282 H249 0.930 . S
C282 C284 1.406 . S
C282 C287 1.261 . S
C283 H250 0.930 . S
C283 N285 1.325 . S
C283 C286 1.357 . S
C284 H252 0.928 . S
C284 C282 1.406 . S
C284 N285 1.261 . S
N285 Co236 2.214 . S
N285 C283 1.325 . S
N285 C284 1.261 . S
C286 H256 0.931 . S
C286 C283 1.357 . S
C286 C287 1.312 . S
C287 H258 0.930 . S
C287 C282 1.261 . S
C287 C286 1.312 . S
C288 O260 1.214 . S
C288 O268 1.234 . S
C289 H261 0.929 . S
C289 C292 1.391 . S
C289 C294 1.391 . S
C290 H262 0.929 . S
C290 C291 1.390 . S
C290 N293 1.391 . S
C291 H263 0.930 . S
C291 C290 1.390 . S
C291 C292 1.392 . S
C292 H264 0.929 . S
C292 C289 1.391 . S
C292 C291 1.392 . S
N293 Co237 2.257 . S
N293 C290 1.391 . S
N293 C294 1.388 . S
C294 H265 0.930 . S
C294 C289 1.391 . S
C294 N293 1.388 . S
Co295 O297 2.143 . S
Co295 O303 2.074 . S
Co295 O306 2.093 . S
Co295 O319 2.097 . S
Co295 N336 2.151 . S
Co295 N344 2.214 . S
Co296 O297 2.160 . S
Co296 O302 2.058 . S
Co296 O312 2.057 . S
Co296 O327 2.037 . S
Co296 N331 2.145 . S
Co296 N352 2.257 . S
O297 Co295 2.143 . S
O297 Co296 2.160 . S
C298 O299 1.278 . S
C298 O306 1.224 . S
O299 C298 1.278 . S
C300 O301 1.245 . S
C300 O312 1.232 . S
O301 C300 1.245 . S
O302 Co296 2.058 . S
O302 C328 1.269 . S
O303 Co295 2.074 . S
O303 C328 1.257 . S
H304 C329 0.930 . S
H305 C335 0.930 . S
O306 Co295 2.093 . S
O306 C298 1.224 . S
H307 C339 0.929 . S
H308 C341 0.930 . S
H309 C342 0.930 . S
H310 C340 0.929 . S
H311 C343 0.928 . S
O312 Co296 2.057 . S
O312 C300 1.232 . S
H313 C332 0.929 . S
H314 C333 0.929 . S
H315 C345 0.931 . S
H316 C337 0.929 . S
H317 C346 0.930 . S
H318 C338 0.931 . S
O319 Co295 2.097 . S
O319 C347 1.214 . S
H320 C348 0.929 . S
H321 C349 0.929 . S
H322 C350 0.930 . S
H323 C351 0.929 . S
H324 C353 0.930 . S
H325 C330 0.930 . S
H326 C334 0.930 . S
O327 Co296 2.037 . S
O327 C347 1.234 . S
C328 O302 1.269 . S
C328 O303 1.257 . S
C329 H304 0.930 . S
C329 C332 1.388 . S
C329 C334 1.418 . S
C330 H325 0.930 . S
C330 C333 1.404 . S
C330 C334 1.353 . S
N331 Co296 2.145 . S
N331 C332 1.397 . S
N331 C333 1.334 . S
C332 H313 0.929 . S
C332 C329 1.388 . S
C332 N331 1.397 . S
C333 H314 0.929 . S
C333 C330 1.404 . S
C333 N331 1.334 . S
C334 H326 0.930 . S
C334 C329 1.418 . S
C334 C330 1.353 . S
C335 H305 0.930 . S
C335 N336 1.330 . S
C335 C337 1.446 . S
N336 Co295 2.151 . S
N336 C335 1.330 . S
N336 C340 1.418 . S
C337 H316 0.929 . S
C337 C335 1.446 . S
C337 C338 1.332 . S
C338 H318 0.931 . S
C338 C337 1.332 . S
C338 C339 1.267 . S
C339 H307 0.929 . S
C339 C338 1.267 . S
C339 C340 1.251 . S
C340 H310 0.929 . S
C340 N336 1.418 . S
C340 C339 1.251 . S
C341 H308 0.930 . S
C341 C343 1.406 . S
C341 C346 1.261 . S
C342 H309 0.930 . S
C342 N344 1.325 . S
C342 C345 1.357 . S
C343 H311 0.928 . S
C343 C341 1.406 . S
C343 N344 1.261 . S
N344 Co295 2.214 . S
N344 C342 1.325 . S
N344 C343 1.261 . S
C345 H315 0.931 . S
C345 C342 1.357 . S
C345 C346 1.312 . S
C346 H317 0.930 . S
C346 C341 1.261 . S
C346 C345 1.312 . S
C347 O319 1.214 . S
C347 O327 1.234 . S
C348 H320 0.929 . S
C348 C351 1.391 . S
C348 C353 1.391 . S
C349 H321 0.929 . S
C349 C350 1.390 . S
C349 N352 1.391 . S
C350 H322 0.930 . S
C350 C349 1.390 . S
C350 C351 1.392 . S
C351 H323 0.929 . S
C351 C348 1.391 . S
C351 C350 1.392 . S
N352 Co296 2.257 . S
N352 C349 1.391 . S
N352 C353 1.388 . S
C353 H324 0.930 . S
C353 C348 1.391 . S
C353 N352 1.388 . S
Co354 O356 2.143 . S
Co354 O362 2.074 . S
Co354 O365 2.093 . S
Co354 O378 2.097 . S
Co354 N395 2.151 . S
Co354 N403 2.214 . S
Co355 O356 2.160 . S
Co355 O361 2.058 . S
Co355 O371 2.057 . S
Co355 O386 2.037 . S
Co355 N390 2.145 . S
Co355 N411 2.257 . S
O356 Co354 2.143 . S
O356 Co355 2.160 . S
C357 O358 1.278 . S
C357 O365 1.224 . S
O358 C357 1.278 . S
C359 O360 1.245 . S
C359 O371 1.232 . S
O360 C359 1.245 . S
O361 Co355 2.058 . S
O361 C387 1.269 . S
O362 Co354 2.074 . S
O362 C387 1.257 . S
H363 C388 0.930 . S
H364 C394 0.930 . S
O365 Co354 2.093 . S
O365 C357 1.224 . S
H366 C398 0.929 . S
H367 C400 0.930 . S
H368 C401 0.930 . S
H369 C399 0.929 . S
H370 C402 0.928 . S
O371 Co355 2.057 . S
O371 C359 1.232 . S
H372 C391 0.929 . S
H373 C392 0.929 . S
H374 C404 0.931 . S
H375 C396 0.929 . S
H376 C405 0.930 . S
H377 C397 0.931 . S
O378 Co354 2.097 . S
O378 C406 1.214 . S
H379 C407 0.929 . S
H380 C408 0.929 . S
H381 C409 0.930 . S
H382 C410 0.929 . S
H383 C412 0.930 . S
H384 C389 0.930 . S
H385 C393 0.930 . S
O386 Co355 2.037 . S
O386 C406 1.234 . S
C387 O361 1.269 . S
C387 O362 1.257 . S
C388 H363 0.930 . S
C388 C391 1.388 . S
C388 C393 1.418 . S
C389 H384 0.930 . S
C389 C392 1.404 . S
C389 C393 1.353 . S
N390 Co355 2.145 . S
N390 C391 1.397 . S
N390 C392 1.334 . S
C391 H372 0.929 . S
C391 C388 1.388 . S
C391 N390 1.397 . S
C392 H373 0.929 . S
C392 C389 1.404 . S
C392 N390 1.334 . S
C393 H385 0.930 . S
C393 C388 1.418 . S
C393 C389 1.353 . S
C394 H364 0.930 . S
C394 N395 1.330 . S
C394 C396 1.446 . S
N395 Co354 2.151 . S
N395 C394 1.330 . S
N395 C399 1.418 . S
C396 H375 0.929 . S
C396 C394 1.446 . S
C396 C397 1.332 . S
C397 H377 0.931 . S
C397 C396 1.332 . S
C397 C398 1.267 . S
C398 H366 0.929 . S
C398 C397 1.267 . S
C398 C399 1.251 . S
C399 H369 0.929 . S
C399 N395 1.418 . S
C399 C398 1.251 . S
C400 H367 0.930 . S
C400 C402 1.406 . S
C400 C405 1.261 . S
C401 H368 0.930 . S
C401 N403 1.325 . S
C401 C404 1.357 . S
C402 H370 0.928 . S
C402 C400 1.406 . S
C402 N403 1.261 . S
N403 Co354 2.214 . S
N403 C401 1.325 . S
N403 C402 1.261 . S
C404 H374 0.931 . S
C404 C401 1.357 . S
C404 C405 1.312 . S
C405 H376 0.930 . S
C405 C400 1.261 . S
C405 C404 1.312 . S
C406 O378 1.214 . S
C406 O386 1.234 . S
C407 H379 0.929 . S
C407 C410 1.391 . S
C407 C412 1.391 . S
C408 H380 0.929 . S
C408 C409 1.390 . S
C408 N411 1.391 . S
C409 H381 0.930 . S
C409 C408 1.390 . S
C409 C410 1.392 . S
C410 H382 0.929 . S
C410 C407 1.391 . S
C410 C409 1.392 . S
N411 Co355 2.257 . S
N411 C408 1.391 . S
N411 C412 1.388 . S
C412 H383 0.930 . S
C412 C407 1.391 . S
C412 N411 1.388 . S
Co413 O415 2.143 . S
Co413 O421 2.074 . S
Co413 O424 2.093 . S
Co413 O437 2.097 1_455 S
Co413 N454 2.151 . S
Co413 N462 2.214 . S
Co414 O415 2.160 1_655 S
Co414 O420 2.058 1_655 S
Co414 O430 2.057 . S
Co414 O445 2.037 . S
Co414 N449 2.145 . S
Co414 N470 2.257 . S
O415 Co413 2.143 . S
O415 Co414 2.160 1_455 S
C416 O417 1.278 1_455 S
C416 O424 1.224 . S
O417 C416 1.278 1_655 S
C418 O419 1.238 1_655 S
C418 O430 1.238 . S
O419 C418 1.238 1_455 S
O420 Co414 2.058 1_455 S
O420 C446 1.269 . S
O421 Co413 2.074 . S
O421 C446 1.257 . S
H422 C447 0.930 . S
H423 C453 0.930 . S
O424 Co413 2.093 . S
O424 C416 1.224 . S
H425 C457 0.929 . S
H426 C459 0.930 . S
H427 C460 0.930 . S
H428 C458 0.929 . S
H429 C461 0.928 . S
O430 Co414 2.057 . S
O430 C418 1.238 . S
H431 C450 0.929 . S
H432 C451 0.929 . S
H433 C463 0.931 . S
H434 C455 0.929 . S
H435 C464 0.930 . S
H436 C456 0.931 . S
O437 Co413 2.097 1_655 S
O437 C465 1.214 . S
H438 C466 0.929 . S
H439 C467 0.929 . S
H440 C468 0.930 . S
H441 C469 0.929 . S
H442 C471 0.930 . S
H443 C448 0.930 . S
H444 C452 0.930 . S
O445 Co414 2.037 . S
O445 C465 1.234 . S
C446 O420 1.269 . S
C446 O421 1.257 . S
C447 H422 0.930 . S
C447 C450 1.388 . S
C447 C452 1.418 . S
C448 H443 0.930 . S
C448 C451 1.404 . S
C448 C452 1.353 . S
N449 Co414 2.145 . S
N449 C450 1.397 . S
N449 C451 1.334 . S
C450 H431 0.929 . S
C450 C447 1.388 . S
C450 N449 1.397 . S
C451 H432 0.929 . S
C451 C448 1.404 . S
C451 N449 1.334 . S
C452 H444 0.930 . S
C452 C447 1.418 . S
C452 C448 1.353 . S
C453 H423 0.930 . S
C453 N454 1.330 . S
C453 C455 1.446 . S
N454 Co413 2.151 . S
N454 C453 1.330 . S
N454 C458 1.418 . S
C455 H434 0.929 . S
C455 C453 1.446 . S
C455 C456 1.332 . S
C456 H436 0.931 . S
C456 C455 1.332 . S
C456 C457 1.267 . S
C457 H425 0.929 . S
C457 C456 1.267 . S
C457 C458 1.251 . S
C458 H428 0.929 . S
C458 N454 1.418 . S
C458 C457 1.251 . S
C459 H426 0.930 . S
C459 C461 1.406 . S
C459 C464 1.261 . S
C460 H427 0.930 . S
C460 N462 1.325 . S
C460 C463 1.357 . S
C461 H429 0.928 . S
C461 C459 1.406 . S
C461 N462 1.261 . S
N462 Co413 2.214 . S
N462 C460 1.325 . S
N462 C461 1.261 . S
C463 H433 0.931 . S
C463 C460 1.357 . S
C463 C464 1.312 . S
C464 H435 0.930 . S
C464 C459 1.261 . S
C464 C463 1.312 . S
C465 O437 1.214 . S
C465 O445 1.234 . S
C466 H438 0.929 . S
C466 C469 1.391 . S
C466 C471 1.391 . S
C467 H439 0.929 . S
C467 C468 1.390 . S
C467 N470 1.391 . S
C468 H440 0.930 . S
C468 C467 1.390 . S
C468 C469 1.392 . S
C469 H441 0.929 . S
C469 C466 1.391 . S
C469 C468 1.392 . S
N470 Co414 2.257 . S
N470 C467 1.391 . S
N470 C471 1.388 . S
C471 H442 0.930 . S
C471 C466 1.391 . S
C471 N470 1.388 . S
Co472 O474 2.143 . S
Co472 O480 2.074 . S
Co472 O483 2.093 . S
Co472 O496 2.097 1_545 S
Co472 N513 2.151 . S
Co472 N521 2.214 . S
Co473 O474 2.160 1_565 S
Co473 O479 2.058 1_565 S
Co473 O489 2.057 . S
Co473 O504 2.037 . S
Co473 N508 2.145 . S
Co473 N529 2.257 . S
O474 Co472 2.143 . S
O474 Co473 2.160 1_545 S
C475 O476 1.278 1_545 S
C475 O483 1.224 . S
O476 C475 1.278 1_565 S
C477 O478 1.238 1_565 S
C477 O489 1.238 . S
O478 C477 1.238 1_545 S
O479 Co473 2.058 1_545 S
O479 C505 1.269 . S
O480 Co472 2.074 . S
O480 C505 1.257 . S
H481 C506 0.932 . S
H482 C512 0.930 . S
O483 Co472 2.093 . S
O483 C475 1.224 . S
H484 C516 0.929 . S
H485 C518 0.930 . S
H486 C519 0.930 . S
H487 C517 0.929 . S
H488 C520 0.928 . S
O489 Co473 2.057 . S
O489 C477 1.238 . S
H490 C509 0.929 . S
H491 C510 0.929 . S
H492 C522 0.931 . S
H493 C514 0.929 . S
H494 C523 0.930 . S
H495 C515 0.931 . S
O496 Co472 2.097 1_565 S
O496 C524 1.214 . S
H497 C525 0.929 . S
H498 C526 0.929 . S
H499 C527 0.930 . S
H500 C528 0.929 . S
H501 C530 0.930 . S
H502 C507 0.930 . S
H503 C511 0.930 . S
O504 Co473 2.037 . S
O504 C524 1.234 . S
C505 O479 1.269 . S
C505 O480 1.257 . S
C506 H481 0.932 . S
C506 C509 1.388 1_554 S
C506 C511 1.418 . S
C507 H502 0.930 . S
C507 C510 1.404 . S
C507 C511 1.353 . S
N508 Co473 2.145 . S
N508 C509 1.397 . S
N508 C510 1.334 1_556 S
C509 H490 0.929 . S
C509 C506 1.388 1_556 S
C509 N508 1.397 . S
C510 H491 0.929 . S
C510 C507 1.404 . S
C510 N508 1.334 1_554 S
C511 H503 0.930 . S
C511 C506 1.418 . S
C511 C507 1.353 . S
C512 H482 0.930 . S
C512 N513 1.330 . S
C512 C514 1.446 . S
N513 Co472 2.151 . S
N513 C512 1.330 . S
N513 C517 1.418 . S
C514 H493 0.929 . S
C514 C512 1.446 . S
C514 C515 1.332 . S
C515 H495 0.931 . S
C515 C514 1.332 . S
C515 C516 1.267 . S
C516 H484 0.929 . S
C516 C515 1.267 . S
C516 C517 1.251 . S
C517 H487 0.929 . S
C517 N513 1.418 . S
C517 C516 1.251 . S
C518 H485 0.930 . S
C518 C520 1.406 . S
C518 C523 1.261 . S
C519 H486 0.930 . S
C519 N521 1.325 . S
C519 C522 1.357 . S
C520 H488 0.928 . S
C520 C518 1.406 . S
C520 N521 1.261 . S
N521 Co472 2.214 . S
N521 C519 1.325 . S
N521 C520 1.261 . S
C522 H492 0.931 . S
C522 C519 1.357 . S
C522 C523 1.312 . S
C523 H494 0.930 . S
C523 C518 1.261 . S
C523 C522 1.312 . S
C524 O496 1.214 . S
C524 O504 1.234 . S
C525 H497 0.929 . S
C525 C528 1.391 . S
C525 C530 1.391 . S
C526 H498 0.929 . S
C526 C527 1.390 . S
C526 N529 1.391 . S
C527 H499 0.930 . S
C527 C526 1.390 . S
C527 C528 1.392 . S
C528 H500 0.929 . S
C528 C525 1.391 . S
C528 C527 1.392 . S
N529 Co473 2.257 . S
N529 C526 1.391 . S
N529 C530 1.388 . S
C530 H501 0.930 . S
C530 C525 1.391 . S
C530 N529 1.388 . S
Co531 O533 2.143 . S
Co531 O539 2.074 . S
Co531 O542 2.093 . S
Co531 O555 2.097 . S
Co531 N572 2.151 . S
Co531 N580 2.214 . S
Co532 O533 2.160 . S
Co532 O538 2.058 . S
Co532 O548 2.057 . S
Co532 O563 2.037 . S
Co532 N567 2.145 . S
Co532 N588 2.257 . S
O533 Co531 2.143 . S
O533 Co532 2.160 . S
C534 O535 1.278 . S
C534 O542 1.224 . S
O535 C534 1.278 . S
C536 O537 1.245 . S
C536 O548 1.232 . S
O537 C536 1.245 . S
O538 Co532 2.058 . S
O538 C564 1.269 . S
O539 Co531 2.074 . S
O539 C564 1.257 . S
H540 C565 0.930 . S
H541 C571 0.930 . S
O542 Co531 2.093 . S
O542 C534 1.224 . S
H543 C575 0.929 . S
H544 C577 0.930 . S
H545 C578 0.930 . S
H546 C576 0.929 . S
H547 C579 0.928 . S
O548 Co532 2.057 . S
O548 C536 1.232 . S
H549 C568 0.929 . S
H550 C569 0.929 . S
H551 C581 0.931 . S
H552 C573 0.929 . S
H553 C582 0.930 . S
H554 C574 0.931 . S
O555 Co531 2.097 . S
O555 C583 1.214 . S
H556 C584 0.929 . S
H557 C585 0.929 . S
H558 C586 0.930 . S
H559 C587 0.929 . S
H560 C589 0.930 . S
H561 C566 0.930 . S
H562 C570 0.930 . S
O563 Co532 2.037 . S
O563 C583 1.234 . S
C564 O538 1.269 . S
C564 O539 1.257 . S
C565 H540 0.930 . S
C565 C568 1.388 . S
C565 C570 1.418 1_556 S
C566 H561 0.930 . S
C566 C569 1.404 . S
C566 C570 1.353 . S
N567 Co532 2.145 . S
N567 C568 1.397 . S
N567 C569 1.334 1_556 S
C568 H549 0.929 . S
C568 C565 1.388 . S
C568 N567 1.397 . S
C569 H550 0.929 . S
C569 C566 1.404 . S
C569 N567 1.334 1_554 S
C570 H562 0.930 . S
C570 C565 1.418 1_554 S
C570 C566 1.353 . S
C571 H541 0.930 . S
C571 N572 1.330 . S
C571 C573 1.446 . S
N572 Co531 2.151 . S
N572 C571 1.330 . S
N572 C576 1.418 . S
C573 H552 0.929 . S
C573 C571 1.446 . S
C573 C574 1.332 . S
C574 H554 0.931 . S
C574 C573 1.332 . S
C574 C575 1.267 . S
C575 H543 0.929 . S
C575 C574 1.267 . S
C575 C576 1.251 . S
C576 H546 0.929 . S
C576 N572 1.418 . S
C576 C575 1.251 . S
C577 H544 0.930 . S
C577 C579 1.406 . S
C577 C582 1.261 . S
C578 H545 0.930 . S
C578 N580 1.325 . S
C578 C581 1.357 . S
C579 H547 0.928 . S
C579 C577 1.406 . S
C579 N580 1.261 . S
N580 Co531 2.214 . S
N580 C578 1.325 . S
N580 C579 1.261 . S
C581 H551 0.931 . S
C581 C578 1.357 . S
C581 C582 1.312 . S
C582 H553 0.930 . S
C582 C577 1.261 . S
C582 C581 1.312 . S
C583 O555 1.214 . S
C583 O563 1.234 . S
C584 H556 0.929 . S
C584 C587 1.391 . S
C584 C589 1.391 . S
C585 H557 0.929 . S
C585 C586 1.390 . S
C585 N588 1.391 . S
C586 H558 0.930 . S
C586 C585 1.390 . S
C586 C587 1.392 . S
C587 H559 0.929 . S
C587 C584 1.391 . S
C587 C586 1.392 . S
N588 Co532 2.257 . S
N588 C585 1.391 . S
N588 C589 1.388 . S
C589 H560 0.930 . S
C589 C584 1.391 . S
C589 N588 1.388 . S
Co590 O592 2.143 . S
Co590 O598 2.074 . S
Co590 O601 2.093 . S
Co590 O614 2.097 . S
Co590 N631 2.151 . S
Co590 N639 2.214 . S
Co591 O592 2.160 . S
Co591 O597 2.058 . S
Co591 O607 2.057 . S
Co591 O622 2.037 . S
Co591 N626 2.145 . S
Co591 N647 2.257 . S
O592 Co590 2.143 . S
O592 Co591 2.160 . S
C593 O594 1.278 . S
C593 O601 1.224 . S
O594 C593 1.278 . S
C595 O596 1.245 . S
C595 O607 1.232 . S
O596 C595 1.245 . S
O597 Co591 2.058 . S
O597 C623 1.269 . S
O598 Co590 2.074 . S
O598 C623 1.257 . S
H599 C624 0.930 . S
H600 C630 0.930 . S
O601 Co590 2.093 . S
O601 C593 1.224 . S
H602 C634 0.929 . S
H603 C636 0.930 . S
H604 C637 0.930 . S
H605 C635 0.929 . S
H606 C638 0.928 . S
O607 Co591 2.057 . S
O607 C595 1.232 . S
H608 C627 0.929 . S
H609 C628 0.929 . S
H610 C640 0.931 . S
H611 C632 0.929 . S
H612 C641 0.930 . S
H613 C633 0.931 . S
O614 Co590 2.097 . S
O614 C642 1.214 . S
H615 C643 0.929 . S
H616 C644 0.929 . S
H617 C645 0.930 . S
H618 C646 0.929 . S
H619 C648 0.930 . S
H620 C625 0.930 . S
H621 C629 0.930 . S
O622 Co591 2.037 . S
O622 C642 1.234 . S
C623 O597 1.269 . S
C623 O598 1.257 . S
C624 H599 0.930 . S
C624 C627 1.388 . S
C624 C629 1.418 1_556 S
C625 H620 0.930 . S
C625 C628 1.404 . S
C625 C629 1.353 . S
N626 Co591 2.145 . S
N626 C627 1.397 . S
N626 C628 1.334 1_556 S
C627 H608 0.929 . S
C627 C624 1.388 . S
C627 N626 1.397 . S
C628 H609 0.929 . S
C628 C625 1.404 . S
C628 N626 1.334 1_554 S
C629 H621 0.930 . S
C629 C624 1.418 1_554 S
C629 C625 1.353 . S
C630 H600 0.930 . S
C630 N631 1.330 . S
C630 C632 1.446 . S
N631 Co590 2.151 . S
N631 C630 1.330 . S
N631 C635 1.418 . S
C632 H611 0.929 . S
C632 C630 1.446 . S
C632 C633 1.332 . S
C633 H613 0.931 . S
C633 C632 1.332 . S
C633 C634 1.267 . S
C634 H602 0.929 . S
C634 C633 1.267 . S
C634 C635 1.251 . S
C635 H605 0.929 . S
C635 N631 1.418 . S
C635 C634 1.251 . S
C636 H603 0.930 . S
C636 C638 1.406 . S
C636 C641 1.261 . S
C637 H604 0.930 . S
C637 N639 1.325 . S
C637 C640 1.357 . S
C638 H606 0.928 . S
C638 C636 1.406 . S
C638 N639 1.261 . S
N639 Co590 2.214 . S
N639 C637 1.325 . S
N639 C638 1.261 . S
C640 H610 0.931 . S
C640 C637 1.357 . S
C640 C641 1.312 . S
C641 H612 0.930 . S
C641 C636 1.261 . S
C641 C640 1.312 . S
C642 O614 1.214 . S
C642 O622 1.234 . S
C643 H615 0.929 . S
C643 C646 1.391 . S
C643 C648 1.391 . S
C644 H616 0.929 . S
C644 C645 1.390 . S
C644 N647 1.391 . S
C645 H617 0.930 . S
C645 C644 1.390 . S
C645 C646 1.392 . S
C646 H618 0.929 . S
C646 C643 1.391 . S
C646 C645 1.392 . S
N647 Co591 2.257 . S
N647 C644 1.391 . S
N647 C648 1.388 . S
C648 H619 0.930 . S
C648 C643 1.391 . S
C648 N647 1.388 . S
Co649 O651 2.143 . S
Co649 O657 2.074 . S
Co649 O660 2.093 . S
Co649 O673 2.097 1_455 S
Co649 N690 2.151 . S
Co649 N698 2.214 . S
Co650 O651 2.160 1_655 S
Co650 O656 2.051 1_655 S
Co650 O666 2.057 . S
Co650 O681 2.037 . S
Co650 N685 2.145 . S
Co650 N706 2.257 . S
O651 Co649 2.143 . S
O651 Co650 2.160 1_455 S
C652 O653 1.256 1_455 S
C652 O660 1.224 . S
O653 C652 1.256 1_655 S
C654 O655 1.245 1_554 S
C654 O666 1.232 1_454 S
O655 C654 1.245 1_556 S
O656 Co650 2.051 1_455 S
O656 C682 1.276 . S
O657 Co649 2.074 . S
O657 C682 1.257 . S
H658 C683 0.930 . S
H659 C689 0.930 . S
O660 Co649 2.093 . S
O660 C652 1.224 . S
H661 C693 0.929 . S
H662 C695 0.930 . S
H663 C696 0.930 . S
H664 C694 0.929 . S
H665 C697 0.928 . S
O666 Co650 2.057 . S
O666 C654 1.232 1_656 S
H667 C686 0.929 . S
H668 C687 0.929 . S
H669 C699 0.931 . S
H670 C691 0.929 . S
H671 C700 0.930 . S
H672 C692 0.931 . S
O673 Co649 2.097 1_655 S
O673 C701 1.214 . S
H674 C702 0.929 . S
H675 C703 0.929 . S
H676 C704 0.930 . S
H677 C705 0.929 . S
H678 C707 0.930 . S
H679 C684 0.930 . S
H680 C688 0.930 . S
O681 Co650 2.037 . S
O681 C701 1.234 . S
C682 O656 1.276 . S
C682 O657 1.257 . S
C683 H658 0.930 . S
C683 C686 1.388 1_554 S
C683 C688 1.418 . S
C684 H679 0.930 . S
C684 C687 1.404 . S
C684 C688 1.353 . S
N685 Co650 2.145 . S
N685 C686 1.397 . S
N685 C687 1.334 1_556 S
C686 H667 0.929 . S
C686 C683 1.388 1_556 S
C686 N685 1.397 . S
C687 H668 0.929 . S
C687 C684 1.404 . S
C687 N685 1.334 1_554 S
C688 H680 0.930 . S
C688 C683 1.418 . S
C688 C684 1.353 . S
C689 H659 0.930 . S
C689 N690 1.330 . S
C689 C691 1.446 . S
N690 Co649 2.151 . S
N690 C689 1.330 . S
N690 C694 1.418 . S
C691 H670 0.929 . S
C691 C689 1.446 . S
C691 C692 1.332 . S
C692 H672 0.931 . S
C692 C691 1.332 . S
C692 C693 1.267 . S
C693 H661 0.929 . S
C693 C692 1.267 . S
C693 C694 1.251 . S
C694 H664 0.929 . S
C694 N690 1.418 . S
C694 C693 1.251 . S
C695 H662 0.930 . S
C695 C697 1.406 . S
C695 C700 1.261 . S
C696 H663 0.930 . S
C696 N698 1.325 . S
C696 C699 1.357 . S
C697 H665 0.928 . S
C697 C695 1.406 . S
C697 N698 1.261 . S
N698 Co649 2.214 . S
N698 C696 1.325 . S
N698 C697 1.261 . S
C699 H669 0.931 . S
C699 C696 1.357 . S
C699 C700 1.312 . S
C700 H671 0.930 . S
C700 C695 1.261 . S
C700 C699 1.312 . S
C701 O673 1.214 . S
C701 O681 1.234 . S
C702 H674 0.929 . S
C702 C705 1.391 . S
C702 C707 1.391 . S
C703 H675 0.929 . S
C703 C704 1.390 . S
C703 N706 1.391 . S
C704 H676 0.930 . S
C704 C703 1.390 . S
C704 C705 1.392 . S
C705 H677 0.929 . S
C705 C702 1.391 . S
C705 C704 1.392 . S
N706 Co650 2.257 . S
N706 C703 1.391 . S
N706 C707 1.388 . S
C707 H678 0.930 . S
C707 C702 1.391 . S
C707 N706 1.388 . S
Co708 O710 2.143 . S
Co708 O716 2.074 . S
Co708 O719 2.093 . S
Co708 O732 2.097 1_565 S
Co708 N749 2.151 . S
Co708 N757 2.214 . S
Co709 O710 2.160 1_545 S
Co709 O715 2.051 1_545 S
Co709 O725 2.057 . S
Co709 O740 2.037 . S
Co709 N744 2.145 . S
Co709 N765 2.257 . S
O710 Co708 2.143 . S
O710 Co709 2.160 1_565 S
C711 O712 1.256 1_565 S
C711 O719 1.224 . S
O712 C711 1.256 1_545 S
C713 O714 1.245 . S
C713 O725 1.232 1_565 S
O714 C713 1.245 . S
O715 Co709 2.051 1_565 S
O715 C741 1.276 . S
O716 Co708 2.074 . S
O716 C741 1.257 . S
H717 C742 0.930 . S
H718 C748 0.930 . S
O719 Co708 2.093 . S
O719 C711 1.224 . S
H720 C752 0.929 . S
H721 C754 0.930 . S
H722 C755 0.930 . S
H723 C753 0.929 . S
H724 C756 0.928 . S
O725 Co709 2.057 . S
O725 C713 1.232 1_545 S
H726 C745 0.929 . S
H727 C746 0.929 . S
H728 C758 0.931 . S
H729 C750 0.929 . S
H730 C759 0.930 . S
H731 C751 0.931 . S
O732 Co708 2.097 1_545 S
O732 C760 1.214 . S
H733 C761 0.929 . S
H734 C762 0.929 . S
H735 C763 0.930 . S
H736 C764 0.929 . S
H737 C766 0.930 . S
H738 C743 0.930 . S
H739 C747 0.930 . S
O740 Co709 2.037 . S
O740 C760 1.234 . S
C741 O715 1.276 . S
C741 O716 1.257 . S
C742 H717 0.930 . S
C742 C745 1.388 . S
C742 C747 1.418 . S
C743 H738 0.930 . S
C743 C746 1.404 . S
C743 C747 1.353 . S
N744 Co709 2.145 . S
N744 C745 1.397 . S
N744 C746 1.334 . S
C745 H726 0.929 . S
C745 C742 1.388 . S
C745 N744 1.397 . S
C746 H727 0.929 . S
C746 C743 1.404 . S
C746 N744 1.334 . S
C747 H739 0.930 . S
C747 C742 1.418 . S
C747 C743 1.353 . S
C748 H718 0.930 . S
C748 N749 1.330 . S
C748 C750 1.446 . S
N749 Co708 2.151 . S
N749 C748 1.330 . S
N749 C753 1.418 . S
C750 H729 0.929 . S
C750 C748 1.446 . S
C750 C751 1.332 . S
C751 H731 0.931 . S
C751 C750 1.332 . S
C751 C752 1.267 . S
C752 H720 0.929 . S
C752 C751 1.267 . S
C752 C753 1.251 . S
C753 H723 0.929 . S
C753 N749 1.418 . S
C753 C752 1.251 . S
C754 H721 0.930 . S
C754 C756 1.406 . S
C754 C759 1.261 . S
C755 H722 0.930 . S
C755 N757 1.325 . S
C755 C758 1.357 . S
C756 H724 0.928 . S
C756 C754 1.406 . S
C756 N757 1.261 . S
N757 Co708 2.214 . S
N757 C755 1.325 . S
N757 C756 1.261 . S
C758 H728 0.931 . S
C758 C755 1.357 . S
C758 C759 1.312 . S
C759 H730 0.930 . S
C759 C754 1.261 . S
C759 C758 1.312 . S
C760 O732 1.214 . S
C760 O740 1.234 . S
C761 H733 0.929 . S
C761 C764 1.391 . S
C761 C766 1.391 . S
C762 H734 0.929 . S
C762 C763 1.390 . S
C762 N765 1.391 . S
C763 H735 0.930 . S
C763 C762 1.390 . S
C763 C764 1.392 . S
C764 H736 0.929 . S
C764 C761 1.391 . S
C764 C763 1.392 . S
N765 Co709 2.257 . S
N765 C762 1.391 . S
N765 C766 1.388 . S
C766 H737 0.930 . S
C766 C761 1.391 . S
C766 N765 1.388 . S
Co767 O769 2.143 . S
Co767 O775 2.074 . S
Co767 O778 2.093 . S
Co767 O791 2.097 . S
Co767 N808 2.151 . S
Co767 N816 2.214 . S
Co768 O769 2.160 . S
Co768 O774 2.058 . S
Co768 O784 2.057 . S
Co768 O799 2.037 . S
Co768 N803 2.145 . S
Co768 N824 2.257 . S
O769 Co767 2.143 . S
O769 Co768 2.160 . S
C770 O771 1.278 . S
C770 O778 1.224 . S
O771 C770 1.278 . S
C772 O773 1.245 . S
C772 O784 1.232 . S
O773 C772 1.245 . S
O774 Co768 2.058 . S
O774 C800 1.269 . S
O775 Co767 2.074 . S
O775 C800 1.257 . S
H776 C801 0.930 . S
H777 C807 0.930 . S
O778 Co767 2.093 . S
O778 C770 1.224 . S
H779 C811 0.929 . S
H780 C813 0.930 . S
H781 C814 0.930 . S
H782 C812 0.929 . S
H783 C815 0.928 . S
O784 Co768 2.057 . S
O784 C772 1.232 . S
H785 C804 0.929 . S
H786 C805 0.929 . S
H787 C817 0.931 . S
H788 C809 0.929 . S
H789 C818 0.930 . S
H790 C810 0.931 . S
O791 Co767 2.097 . S
O791 C819 1.214 . S
H792 C820 0.929 . S
H793 C821 0.929 . S
H794 C822 0.930 . S
H795 C823 0.929 . S
H796 C825 0.930 . S
H797 C802 0.930 . S
H798 C806 0.930 . S
O799 Co768 2.037 . S
O799 C819 1.234 . S
C800 O774 1.269 . S
C800 O775 1.257 . S
C801 H776 0.930 . S
C801 C804 1.388 . S
C801 C806 1.418 . S
C802 H797 0.930 . S
C802 C805 1.404 . S
C802 C806 1.353 . S
N803 Co768 2.145 . S
N803 C804 1.397 . S
N803 C805 1.334 . S
C804 H785 0.929 . S
C804 C801 1.388 . S
C804 N803 1.397 . S
C805 H786 0.929 . S
C805 C802 1.404 . S
C805 N803 1.334 . S
C806 H798 0.930 . S
C806 C801 1.418 . S
C806 C802 1.353 . S
C807 H777 0.930 . S
C807 N808 1.330 . S
C807 C809 1.446 . S
N808 Co767 2.151 . S
N808 C807 1.330 . S
N808 C812 1.418 . S
C809 H788 0.929 . S
C809 C807 1.446 . S
C809 C810 1.332 . S
C810 H790 0.931 . S
C810 C809 1.332 . S
C810 C811 1.267 . S
C811 H779 0.929 . S
C811 C810 1.267 . S
C811 C812 1.251 . S
C812 H782 0.929 . S
C812 N808 1.418 . S
C812 C811 1.251 . S
C813 H780 0.930 . S
C813 C815 1.406 . S
C813 C818 1.261 . S
C814 H781 0.930 . S
C814 N816 1.325 . S
C814 C817 1.357 . S
C815 H783 0.928 . S
C815 C813 1.406 . S
C815 N816 1.261 . S
N816 Co767 2.214 . S
N816 C814 1.325 . S
N816 C815 1.261 . S
C817 H787 0.931 . S
C817 C814 1.357 . S
C817 C818 1.312 . S
C818 H789 0.930 . S
C818 C813 1.261 . S
C818 C817 1.312 . S
C819 O791 1.214 . S
C819 O799 1.234 . S
C820 H792 0.929 . S
C820 C823 1.391 . S
C820 C825 1.391 . S
C821 H793 0.929 . S
C821 C822 1.390 . S
C821 N824 1.391 . S
C822 H794 0.930 . S
C822 C821 1.390 . S
C822 C823 1.392 . S
C823 H795 0.929 . S
C823 C820 1.391 . S
C823 C822 1.392 . S
N824 Co768 2.257 . S
N824 C821 1.391 . S
N824 C825 1.388 . S
C825 H796 0.930 . S
C825 C820 1.391 . S
C825 N824 1.388 . S
Co826 O828 2.143 . S
Co826 O834 2.074 . S
Co826 O837 2.093 . S
Co826 O850 2.097 . S
Co826 N867 2.151 . S
Co826 N875 2.214 . S
Co827 O828 2.160 . S
Co827 O833 2.058 . S
Co827 O843 2.057 . S
Co827 O858 2.037 . S
Co827 N862 2.145 . S
Co827 N883 2.257 . S
O828 Co826 2.143 . S
O828 Co827 2.160 . S
C829 O830 1.278 . S
C829 O837 1.224 . S
O830 C829 1.278 . S
C831 O832 1.245 . S
C831 O843 1.232 . S
O832 C831 1.245 . S
O833 Co827 2.058 . S
O833 C859 1.269 . S
O834 Co826 2.074 . S
O834 C859 1.257 . S
H835 C860 0.930 . S
H836 C866 0.930 . S
O837 Co826 2.093 . S
O837 C829 1.224 . S
H838 C870 0.929 . S
H839 C872 0.930 . S
H840 C873 0.930 . S
H841 C871 0.929 . S
H842 C874 0.928 . S
O843 Co827 2.057 . S
O843 C831 1.232 . S
H844 C863 0.929 . S
H845 C864 0.929 . S
H846 C876 0.931 . S
H847 C868 0.929 . S
H848 C877 0.930 . S
H849 C869 0.931 . S
O850 Co826 2.097 . S
O850 C878 1.214 . S
H851 C879 0.929 . S
H852 C880 0.929 . S
H853 C881 0.930 . S
H854 C882 0.929 . S
H855 C884 0.930 . S
H856 C861 0.930 . S
H857 C865 0.930 . S
O858 Co827 2.037 . S
O858 C878 1.234 . S
C859 O833 1.269 . S
C859 O834 1.257 . S
C860 H835 0.930 . S
C860 C863 1.388 . S
C860 C865 1.418 . S
C861 H856 0.930 . S
C861 C864 1.404 . S
C861 C865 1.353 . S
N862 Co827 2.145 . S
N862 C863 1.397 . S
N862 C864 1.334 . S
C863 H844 0.929 . S
C863 C860 1.388 . S
C863 N862 1.397 . S
C864 H845 0.929 . S
C864 C861 1.404 . S
C864 N862 1.334 . S
C865 H857 0.930 . S
C865 C860 1.418 . S
C865 C861 1.353 . S
C866 H836 0.930 . S
C866 N867 1.330 . S
C866 C868 1.446 . S
N867 Co826 2.151 . S
N867 C866 1.330 . S
N867 C871 1.418 . S
C868 H847 0.929 . S
C868 C866 1.446 . S
C868 C869 1.332 . S
C869 H849 0.931 . S
C869 C868 1.332 . S
C869 C870 1.267 . S
C870 H838 0.929 . S
C870 C869 1.267 . S
C870 C871 1.251 . S
C871 H841 0.929 . S
C871 N867 1.418 . S
C871 C870 1.251 . S
C872 H839 0.930 . S
C872 C874 1.406 . S
C872 C877 1.261 . S
C873 H840 0.930 . S
C873 N875 1.325 . S
C873 C876 1.357 . S
C874 H842 0.928 . S
C874 C872 1.406 . S
C874 N875 1.261 . S
N875 Co826 2.214 . S
N875 C873 1.325 . S
N875 C874 1.261 . S
C876 H846 0.931 . S
C876 C873 1.357 . S
C876 C877 1.312 . S
C877 H848 0.930 . S
C877 C872 1.261 . S
C877 C876 1.312 . S
C878 O850 1.214 . S
C878 O858 1.234 . S
C879 H851 0.929 . S
C879 C882 1.391 . S
C879 C884 1.391 . S
C880 H852 0.929 . S
C880 C881 1.390 . S
C880 N883 1.391 . S
C881 H853 0.930 . S
C881 C880 1.390 . S
C881 C882 1.392 . S
C882 H854 0.929 . S
C882 C879 1.391 . S
C882 C881 1.392 . S
N883 Co827 2.257 . S
N883 C880 1.391 . S
N883 C884 1.388 . S
C884 H855 0.930 . S
C884 C879 1.391 . S
C884 N883 1.388 . S
Co885 O887 2.143 . S
Co885 O893 2.074 . S
Co885 O896 2.093 . S
Co885 O909 2.097 1_655 S
Co885 N926 2.151 . S
Co885 N934 2.214 . S
Co886 O887 2.160 1_455 S
Co886 O892 2.058 1_455 S
Co886 O902 2.057 . S
Co886 O917 2.037 . S
Co886 N921 2.145 . S
Co886 N942 2.257 . S
O887 Co885 2.143 . S
O887 Co886 2.160 1_655 S
C888 O889 1.278 1_655 S
C888 O896 1.224 . S
O889 C888 1.278 1_455 S
C890 O891 1.238 1_455 S
C890 O902 1.238 . S
O891 C890 1.238 1_655 S
O892 Co886 2.058 1_655 S
O892 C918 1.269 . S
O893 Co885 2.074 . S
O893 C918 1.257 . S
H894 C919 0.930 . S
H895 C925 0.930 . S
O896 Co885 2.093 . S
O896 C888 1.224 . S
H897 C929 0.929 . S
H898 C931 0.930 . S
H899 C932 0.930 . S
H900 C930 0.929 . S
H901 C933 0.928 . S
O902 Co886 2.057 . S
O902 C890 1.238 . S
H903 C922 0.929 . S
H904 C923 0.929 . S
H905 C935 0.931 . S
H906 C927 0.929 . S
H907 C936 0.930 . S
H908 C928 0.931 . S
O909 Co885 2.097 1_455 S
O909 C937 1.214 . S
H910 C938 0.929 . S
H911 C939 0.929 . S
H912 C940 0.930 . S
H913 C941 0.929 . S
H914 C943 0.930 . S
H915 C920 0.930 . S
H916 C924 0.930 . S
O917 Co886 2.037 . S
O917 C937 1.234 . S
C918 O892 1.269 . S
C918 O893 1.257 . S
C919 H894 0.930 . S
C919 C922 1.388 . S
C919 C924 1.418 . S
C920 H915 0.930 . S
C920 C923 1.404 . S
C920 C924 1.353 . S
N921 Co886 2.145 . S
N921 C922 1.397 . S
N921 C923 1.334 . S
C922 H903 0.929 . S
C922 C919 1.388 . S
C922 N921 1.397 . S
C923 H904 0.929 . S
C923 C920 1.404 . S
C923 N921 1.334 . S
C924 H916 0.930 . S
C924 C919 1.418 . S
C924 C920 1.353 . S
C925 H895 0.930 . S
C925 N926 1.330 . S
C925 C927 1.446 . S
N926 Co885 2.151 . S
N926 C925 1.330 . S
N926 C930 1.418 . S
C927 H906 0.929 . S
C927 C925 1.446 . S
C927 C928 1.332 . S
C928 H908 0.931 . S
C928 C927 1.332 . S
C928 C929 1.267 . S
C929 H897 0.929 . S
C929 C928 1.267 . S
C929 C930 1.251 . S
C930 H900 0.929 . S
C930 N926 1.418 . S
C930 C929 1.251 . S
C931 H898 0.930 . S
C931 C933 1.406 . S
C931 C936 1.261 . S
C932 H899 0.930 . S
C932 N934 1.325 . S
C932 C935 1.357 . S
C933 H901 0.928 . S
C933 C931 1.406 . S
C933 N934 1.261 . S
N934 Co885 2.214 . S
N934 C932 1.325 . S
N934 C933 1.261 . S
C935 H905 0.931 . S
C935 C932 1.357 . S
C935 C936 1.312 . S
C936 H907 0.930 . S
C936 C931 1.261 . S
C936 C935 1.312 . S
C937 O909 1.214 . S
C937 O917 1.234 . S
C938 H910 0.929 . S
C938 C941 1.391 . S
C938 C943 1.391 . S
C939 H911 0.929 . S
C939 C940 1.390 . S
C939 N942 1.391 . S
C940 H912 0.930 . S
C940 C939 1.390 . S
C940 C941 1.392 . S
C941 H913 0.929 . S
C941 C938 1.391 . S
C941 C940 1.392 . S
N942 Co886 2.257 . S
N942 C939 1.391 . S
N942 C943 1.388 . S
C943 H914 0.930 . S
C943 C938 1.391 . S
C943 N942 1.388 . S
H944 C952 0.950 . S
H945 C957 0.950 . S
H946 C954 0.950 . S
H947 C956 0.950 . S
H948 C958 0.950 . S
H949 C960 0.950 . S
H950 C962 0.950 . S
H951 C963 0.950 . S
C952 H944 0.950 . S
C952 C953 1.386 . S
C952 C954 1.391 . S
C953 C952 1.386 . S
C953 C957 1.393 . S
C954 H946 0.950 . S
C954 C952 1.391 . S
C954 C955 1.400 . S
C955 C954 1.400 . S
C955 C956 1.398 . S
C955 C961 1.491 . S
C956 H947 0.950 . S
C956 C955 1.398 . S
C956 C957 1.391 . S
C957 H945 0.950 . S
C957 C953 1.393 . S
C957 C956 1.391 . S
C958 H948 0.950 . S
C958 C959 1.386 . S
C958 C960 1.391 . S
C959 C958 1.386 . S
C959 C963 1.393 . S
C960 H949 0.950 . S
C960 C958 1.391 . S
C960 C961 1.400 . S
C961 C955 1.491 . S
C961 C960 1.400 . S
C961 C962 1.398 . S
C962 H950 0.950 . S
C962 C961 1.398 . S
C962 C963 1.391 . S
C963 H951 0.950 . S
C963 C959 1.393 . S
C963 C962 1.391 . S
H964 C972 0.950 . S
H965 C977 0.950 . S
H966 C974 0.950 . S
H967 C976 0.950 . S
H968 C978 0.950 . S
H969 C980 0.950 . S
H970 C982 0.950 . S
H971 C983 0.950 . S
C972 H964 0.950 . S
C972 C973 1.386 . S
C972 C974 1.391 . S
C973 C972 1.386 . S
C973 C977 1.393 . S
C974 H966 0.950 . S
C974 C972 1.391 . S
C974 C975 1.400 . S
C975 C974 1.400 . S
C975 C976 1.398 . S
C975 C981 1.491 . S
C976 H967 0.950 . S
C976 C975 1.398 . S
C976 C977 1.391 . S
C977 H965 0.950 . S
C977 C973 1.393 . S
C977 C976 1.391 . S
C978 H968 0.950 . S
C978 C979 1.386 . S
C978 C980 1.391 . S
C979 C978 1.386 . S
C979 C983 1.393 . S
C980 H969 0.950 . S
C980 C978 1.391 . S
C980 C981 1.400 . S
C981 C975 1.491 . S
C981 C980 1.400 . S
C981 C982 1.398 . S
C982 H970 0.950 . S
C982 C981 1.398 . S
C982 C983 1.391 . S
C983 H971 0.950 . S
C983 C979 1.393 . S
C983 C982 1.391 . S
H984 C992 0.950 . S
H985 C997 0.950 . S
H986 C994 0.950 . S
H987 C996 0.950 . S
H988 C998 0.950 . S
H989 C1000 0.950 . S
H990 C1002 0.950 . S
H991 C1003 0.950 . S
C992 H984 0.950 . S
C992 C993 1.386 . S
C992 C994 1.391 . S
C993 C992 1.386 . S
C993 C997 1.393 . S
C994 H986 0.950 . S
C994 C992 1.391 . S
C994 C995 1.400 . S
C995 C994 1.400 . S
C995 C996 1.398 . S
C995 C1001 1.491 . S
C996 H987 0.950 . S
C996 C995 1.398 . S
C996 C997 1.391 . S
C997 H985 0.950 . S
C997 C993 1.393 . S
C997 C996 1.391 . S
C998 H988 0.950 . S
C998 C999 1.386 . S
C998 C1000 1.391 . S
C999 C998 1.386 . S
C999 C1003 1.393 . S
C1000 H989 0.950 . S
C1000 C998 1.391 . S
C1000 C1001 1.400 . S
C1001 C995 1.491 . S
C1001 C1000 1.400 . S
C1001 C1002 1.398 . S
C1002 H990 0.950 . S
C1002 C1001 1.398 . S
C1002 C1003 1.391 . S
C1003 H991 0.950 . S
C1003 C999 1.393 . S
C1003 C1002 1.391 . S
H1004 C1012 0.950 . S
H1005 C1017 0.950 . S
H1006 C1014 0.950 . S
H1007 C1016 0.950 . S
H1008 C1018 0.950 . S
H1009 C1020 0.950 . S
H1010 C1022 0.950 . S
H1011 C1023 0.950 . S
C1012 H1004 0.950 . S
C1012 C1013 1.386 . S
C1012 C1014 1.391 . S
C1013 C1012 1.386 . S
C1013 C1017 1.393 . S
C1014 H1006 0.950 . S
C1014 C1012 1.391 . S
C1014 C1015 1.400 . S
C1015 C1014 1.400 . S
C1015 C1016 1.398 . S
C1015 C1021 1.491 . S
C1016 H1007 0.950 . S
C1016 C1015 1.398 . S
C1016 C1017 1.391 . S
C1017 H1005 0.950 . S
C1017 C1013 1.393 . S
C1017 C1016 1.391 . S
C1018 H1008 0.950 . S
C1018 C1019 1.386 . S
C1018 C1020 1.391 . S
C1019 C1018 1.386 . S
C1019 C1023 1.393 . S
C1020 H1009 0.950 . S
C1020 C1018 1.391 . S
C1020 C1021 1.400 . S
C1021 C1015 1.491 . S
C1021 C1020 1.400 . S
C1021 C1022 1.398 . S
C1022 H1010 0.950 . S
C1022 C1021 1.398 . S
C1022 C1023 1.391 . S
C1023 H1011 0.950 . S
C1023 C1019 1.393 . S
C1023 C1022 1.391 . S
H1024 C1032 0.950 . S
H1025 C1037 0.950 . S
H1026 C1034 0.950 . S
H1027 C1036 0.950 . S
H1028 C1038 0.950 . S
H1029 C1040 0.950 . S
H1030 C1042 0.950 . S
H1031 C1043 0.950 . S
C1032 H1024 0.950 . S
C1032 C1033 1.386 . S
C1032 C1034 1.391 . S
C1033 C1032 1.386 . S
C1033 C1037 1.393 . S
C1034 H1026 0.950 . S
C1034 C1032 1.391 . S
C1034 C1035 1.400 . S
C1035 C1034 1.400 . S
C1035 C1036 1.398 . S
C1035 C1041 1.491 . S
C1036 H1027 0.950 . S
C1036 C1035 1.398 . S
C1036 C1037 1.391 . S
C1037 H1025 0.950 . S
C1037 C1033 1.393 . S
C1037 C1036 1.391 . S
C1038 H1028 0.950 . S
C1038 C1039 1.386 . S
C1038 C1040 1.391 . S
C1039 C1038 1.386 . S
C1039 C1043 1.393 . S
C1040 H1029 0.950 . S
C1040 C1038 1.391 . S
C1040 C1041 1.400 . S
C1041 C1035 1.491 . S
C1041 C1040 1.400 . S
C1041 C1042 1.398 . S
C1042 H1030 0.950 . S
C1042 C1041 1.398 . S
C1042 C1043 1.391 . S
C1043 H1031 0.950 . S
C1043 C1039 1.393 . S
C1043 C1042 1.391 . S
H1044 C1052 0.950 . S
H1045 C1057 0.950 . S
H1046 C1054 0.950 . S
H1047 C1056 0.950 . S
H1048 C1058 0.950 . S
H1049 C1060 0.950 . S
H1050 C1062 0.950 . S
H1051 C1063 0.950 . S
C1052 H1044 0.950 . S
C1052 C1053 1.386 . S
C1052 C1054 1.391 . S
C1053 C1052 1.386 . S
C1053 C1057 1.393 . S
C1054 H1046 0.950 . S
C1054 C1052 1.391 . S
C1054 C1055 1.400 . S
C1055 C1054 1.400 . S
C1055 C1056 1.398 . S
C1055 C1061 1.491 . S
C1056 H1047 0.950 . S
C1056 C1055 1.398 . S
C1056 C1057 1.391 . S
C1057 H1045 0.950 . S
C1057 C1053 1.393 . S
C1057 C1056 1.391 . S
C1058 H1048 0.950 . S
C1058 C1059 1.386 . S
C1058 C1060 1.391 . S
C1059 C1058 1.386 . S
C1059 C1063 1.393 . S
C1060 H1049 0.950 . S
C1060 C1058 1.391 . S
C1060 C1061 1.400 . S
C1061 C1055 1.491 . S
C1061 C1060 1.400 . S
C1061 C1062 1.398 . S
C1062 H1050 0.950 . S
C1062 C1061 1.398 . S
C1062 C1063 1.391 . S
C1063 H1051 0.950 . S
C1063 C1059 1.393 . S
C1063 C1062 1.391 . S
H1064 C1072 0.950 . S
H1065 C1077 0.950 . S
H1066 C1074 0.950 . S
H1067 C1076 0.950 . S
H1068 C1078 0.950 . S
H1069 C1080 0.950 . S
H1070 C1082 0.950 . S
H1071 C1083 0.950 . S
C1072 H1064 0.950 . S
C1072 C1073 1.386 . S
C1072 C1074 1.391 . S
C1073 C1072 1.386 . S
C1073 C1077 1.393 . S
C1074 H1066 0.950 . S
C1074 C1072 1.391 . S
C1074 C1075 1.400 . S
C1075 C1074 1.400 . S
C1075 C1076 1.398 . S
C1075 C1081 1.491 . S
C1076 H1067 0.950 . S
C1076 C1075 1.398 . S
C1076 C1077 1.391 . S
C1077 H1065 0.950 . S
C1077 C1073 1.393 . S
C1077 C1076 1.391 . S
C1078 H1068 0.950 . S
C1078 C1079 1.386 . S
C1078 C1080 1.391 . S
C1079 C1078 1.386 . S
C1079 C1083 1.393 . S
C1080 H1069 0.950 . S
C1080 C1078 1.391 . S
C1080 C1081 1.400 . S
C1081 C1075 1.491 . S
C1081 C1080 1.400 . S
C1081 C1082 1.398 . S
C1082 H1070 0.950 . S
C1082 C1081 1.398 . S
C1082 C1083 1.391 . S
C1083 H1071 0.950 . S
C1083 C1079 1.393 . S
C1083 C1082 1.391 . S
H1084 C1092 0.950 . S
H1085 C1097 0.950 . S
H1086 C1094 0.950 . S
H1087 C1096 0.950 . S
H1088 C1098 0.950 . S
H1089 C1100 0.950 . S
H1090 C1102 0.950 . S
H1091 C1103 0.950 . S
C1092 H1084 0.950 . S
C1092 C1093 1.386 . S
C1092 C1094 1.391 . S
C1093 C1092 1.386 . S
C1093 C1097 1.393 . S
C1094 H1086 0.950 . S
C1094 C1092 1.391 . S
C1094 C1095 1.400 . S
C1095 C1094 1.400 . S
C1095 C1096 1.398 . S
C1095 C1101 1.491 . S
C1096 H1087 0.950 . S
C1096 C1095 1.398 . S
C1096 C1097 1.391 . S
C1097 H1085 0.950 . S
C1097 C1093 1.393 . S
C1097 C1096 1.391 . S
C1098 H1088 0.950 . S
C1098 C1099 1.386 . S
C1098 C1100 1.391 . S
C1099 C1098 1.386 . S
C1099 C1103 1.393 . S
C1100 H1089 0.950 . S
C1100 C1098 1.391 . S
C1100 C1101 1.400 . S
C1101 C1095 1.491 . S
C1101 C1100 1.400 . S
C1101 C1102 1.398 . S
C1102 H1090 0.950 . S
C1102 C1101 1.398 . S
C1102 C1103 1.391 . S
C1103 H1091 0.950 . S
C1103 C1099 1.393 . S
C1103 C1102 1.391 . S
H1104 C1112 0.950 . S
H1105 C1117 0.950 . S
H1106 C1114 0.950 . S
H1107 C1116 0.950 . S
H1108 C1118 0.950 . S
H1109 C1120 0.950 . S
H1110 C1122 0.950 . S
H1111 C1123 0.950 . S
C1112 H1104 0.950 . S
C1112 C1113 1.386 1_545 S
C1112 C1114 1.391 . S
C1113 C1112 1.386 1_565 S
C1113 C1117 1.393 . S
C1114 H1106 0.950 . S
C1114 C1112 1.391 . S
C1114 C1115 1.400 1_545 S
C1115 C1114 1.400 1_565 S
C1115 C1116 1.398 . S
C1115 C1121 1.491 . S
C1116 H1107 0.950 . S
C1116 C1115 1.398 . S
C1116 C1117 1.391 . S
C1117 H1105 0.950 . S
C1117 C1113 1.393 . S
C1117 C1116 1.391 . S
C1118 H1108 0.950 . S
C1118 C1119 1.386 . S
C1118 C1120 1.391 . S
C1119 C1118 1.386 . S
C1119 C1123 1.393 1_565 S
C1120 H1109 0.950 . S
C1120 C1118 1.391 . S
C1120 C1121 1.400 . S
C1121 C1115 1.491 . S
C1121 C1120 1.400 . S
C1121 C1122 1.398 1_565 S
C1122 H1110 0.950 . S
C1122 C1121 1.398 1_545 S
C1122 C1123 1.391 . S
C1123 H1111 0.950 . S
C1123 C1119 1.393 1_545 S
C1123 C1122 1.391 . S
H1124 C1132 0.950 . S
H1125 C1137 0.950 . S
H1126 C1134 0.950 . S
H1127 C1136 0.950 . S
H1128 C1138 0.950 . S
H1129 C1140 0.950 . S
H1130 C1142 0.950 . S
H1131 C1143 0.950 . S
C1132 H1124 0.950 . S
C1132 C1133 1.386 . S
C1132 C1134 1.391 . S
C1133 C1132 1.386 . S
C1133 C1137 1.393 . S
C1134 H1126 0.950 . S
C1134 C1132 1.391 . S
C1134 C1135 1.400 . S
C1135 C1134 1.400 . S
C1135 C1136 1.398 . S
C1135 C1141 1.491 . S
C1136 H1127 0.950 . S
C1136 C1135 1.398 . S
C1136 C1137 1.391 . S
C1137 H1125 0.950 . S
C1137 C1133 1.393 . S
C1137 C1136 1.391 . S
C1138 H1128 0.950 . S
C1138 C1139 1.386 . S
C1138 C1140 1.391 . S
C1139 C1138 1.386 . S
C1139 C1143 1.393 . S
C1140 H1129 0.950 . S
C1140 C1138 1.391 . S
C1140 C1141 1.400 . S
C1141 C1135 1.491 . S
C1141 C1140 1.400 . S
C1141 C1142 1.398 . S
C1142 H1130 0.950 . S
C1142 C1141 1.398 . S
C1142 C1143 1.391 . S
C1143 H1131 0.950 . S
C1143 C1139 1.393 . S
C1143 C1142 1.391 . S
H1144 C1152 0.950 . S
H1145 C1157 0.950 . S
H1146 C1154 0.950 . S
H1147 C1156 0.950 . S
H1148 C1158 0.950 . S
H1149 C1160 0.950 . S
H1150 C1162 0.950 . S
H1151 C1163 0.950 . S
C1152 H1144 0.950 . S
C1152 C1153 1.386 . S
C1152 C1154 1.391 . S
C1153 C1152 1.386 . S
C1153 C1157 1.393 . S
C1154 H1146 0.950 . S
C1154 C1152 1.391 . S
C1154 C1155 1.400 . S
C1155 C1154 1.400 . S
C1155 C1156 1.398 . S
C1155 C1161 1.491 . S
C1156 H1147 0.950 . S
C1156 C1155 1.398 . S
C1156 C1157 1.391 . S
C1157 H1145 0.950 . S
C1157 C1153 1.393 . S
C1157 C1156 1.391 . S
C1158 H1148 0.950 . S
C1158 C1159 1.386 . S
C1158 C1160 1.391 . S
C1159 C1158 1.386 . S
C1159 C1163 1.393 . S
C1160 H1149 0.950 . S
C1160 C1158 1.391 . S
C1160 C1161 1.400 . S
C1161 C1155 1.491 . S
C1161 C1160 1.400 . S
C1161 C1162 1.398 . S
C1162 H1150 0.950 . S
C1162 C1161 1.398 . S
C1162 C1163 1.391 . S
C1163 H1151 0.950 . S
C1163 C1159 1.393 . S
C1163 C1162 1.391 . S
H1164 C1172 0.950 . S
H1165 C1177 0.950 . S
H1166 C1174 0.950 . S
H1167 C1176 0.950 . S
H1168 C1178 0.950 . S
H1169 C1180 0.950 . S
H1170 C1182 0.950 . S
H1171 C1183 0.950 . S
C1172 H1164 0.950 . S
C1172 C1173 1.386 . S
C1172 C1174 1.391 . S
C1173 C1172 1.386 . S
C1173 C1177 1.393 1_655 S
C1174 H1166 0.950 . S
C1174 C1172 1.391 . S
C1174 C1175 1.400 . S
C1175 C1174 1.400 . S
C1175 C1176 1.398 1_655 S
C1175 C1181 1.491 . S
C1176 H1167 0.950 . S
C1176 C1175 1.398 1_455 S
C1176 C1177 1.391 . S
C1177 H1165 0.950 . S
C1177 C1173 1.393 1_455 S
C1177 C1176 1.391 . S
C1178 H1168 0.950 . S
C1178 C1179 1.386 1_455 S
C1178 C1180 1.391 . S
C1179 C1178 1.386 1_655 S
C1179 C1183 1.393 . S
C1180 H1169 0.950 . S
C1180 C1178 1.391 . S
C1180 C1181 1.400 1_455 S
C1181 C1175 1.491 . S
C1181 C1180 1.400 1_655 S
C1181 C1182 1.398 . S
C1182 H1170 0.950 . S
C1182 C1181 1.398 . S
C1182 C1183 1.391 . S
C1183 H1171 0.950 . S
C1183 C1179 1.393 . S
C1183 C1182 1.391 . S
H1184 C1192 0.950 . S
H1185 C1197 0.950 . S
H1186 C1194 0.950 . S
H1187 C1196 0.950 . S
H1188 C1198 0.950 . S
H1189 C1200 0.959 . S
H1190 C1202 0.950 . S
H1191 C1203 0.950 . S
C1192 H1184 0.950 . S
C1192 C1193 1.386 . S
C1192 C1194 1.391 . S
C1193 C1192 1.386 . S
C1193 C1197 1.393 1_545 S
C1194 H1186 0.950 . S
C1194 C1192 1.391 . S
C1194 C1195 1.400 . S
C1195 C1194 1.400 . S
C1195 C1196 1.398 1_545 S
C1195 C1201 1.491 . S
C1196 H1187 0.950 . S
C1196 C1195 1.398 1_565 S
C1196 C1197 1.391 . S
C1197 H1185 0.950 . S
C1197 C1193 1.393 1_565 S
C1197 C1196 1.391 . S
C1198 H1188 0.950 . S
C1198 C1199 1.386 . S
C1198 C1200 1.391 . S
C1199 C1198 1.386 . S
C1199 C1203 1.393 . S
C1200 H1189 0.959 . S
C1200 C1198 1.391 . S
C1200 C1201 1.400 . S
C1201 C1195 1.491 . S
C1201 C1200 1.400 . S
C1201 C1202 1.398 . S
C1202 H1190 0.950 . S
C1202 C1201 1.398 . S
C1202 C1203 1.391 . S
C1203 H1191 0.950 . S
C1203 C1199 1.393 . S
C1203 C1202 1.391 . S
H1204 C1212 0.950 . S
H1205 C1217 0.950 . S
H1206 C1214 0.950 . S
H1207 C1216 0.950 . S
H1208 C1218 0.950 . S
H1209 C1220 0.950 . S
H1210 C1222 0.950 . S
H1211 C1223 0.950 . S
C1212 H1204 0.950 . S
C1212 C1213 1.386 . S
C1212 C1214 1.391 . S
C1213 C1212 1.386 . S
C1213 C1217 1.393 . S
C1214 H1206 0.950 . S
C1214 C1212 1.391 . S
C1214 C1215 1.400 . S
C1215 C1214 1.400 . S
C1215 C1216 1.398 . S
C1215 C1221 1.491 . S
C1216 H1207 0.950 . S
C1216 C1215 1.398 . S
C1216 C1217 1.391 . S
C1217 H1205 0.950 . S
C1217 C1213 1.393 . S
C1217 C1216 1.391 . S
C1218 H1208 0.950 . S
C1218 C1219 1.386 . S
C1218 C1220 1.391 . S
C1219 C1218 1.386 . S
C1219 C1223 1.393 . S
C1220 H1209 0.950 . S
C1220 C1218 1.391 . S
C1220 C1221 1.400 . S
C1221 C1215 1.491 . S
C1221 C1220 1.400 . S
C1221 C1222 1.398 . S
C1222 H1210 0.950 . S
C1222 C1221 1.398 . S
C1222 C1223 1.391 . S
C1223 H1211 0.950 . S
C1223 C1219 1.393 . S
C1223 C1222 1.391 . S
H1224 C1232 0.950 . S
H1225 C1237 0.950 . S
H1226 C1234 0.950 . S
H1227 C1236 0.950 . S
H1228 C1238 0.950 . S
H1229 C1240 0.950 . S
H1230 C1242 0.950 . S
H1231 C1243 0.950 . S
C1232 H1224 0.950 . S
C1232 C1233 1.386 . S
C1232 C1234 1.391 . S
C1233 C1232 1.386 . S
C1233 C1237 1.393 . S
C1234 H1226 0.950 . S
C1234 C1232 1.391 . S
C1234 C1235 1.400 . S
C1235 C1234 1.400 . S
C1235 C1236 1.398 . S
C1235 C1241 1.491 . S
C1236 H1227 0.950 . S
C1236 C1235 1.398 . S
C1236 C1237 1.391 . S
C1237 H1225 0.950 . S
C1237 C1233 1.393 . S
C1237 C1236 1.391 . S
C1238 H1228 0.950 . S
C1238 C1239 1.386 . S
C1238 C1240 1.391 . S
C1239 C1238 1.386 . S
C1239 C1243 1.393 . S
C1240 H1229 0.950 . S
C1240 C1238 1.391 . S
C1240 C1241 1.400 . S
C1241 C1235 1.491 . S
C1241 C1240 1.400 . S
C1241 C1242 1.398 . S
C1242 H1230 0.950 . S
C1242 C1241 1.398 . S
C1242 C1243 1.391 . S
C1243 H1231 0.950 . S
C1243 C1239 1.393 . S
C1243 C1242 1.391 . S
H1244 C1252 0.950 . S
H1245 C1257 0.950 . S
H1246 C1254 0.950 . S
H1247 C1256 0.950 . S
H1248 C1258 0.950 1_655 S
H1249 C1260 0.949 . S
H1250 C1262 0.950 . S
H1251 C1263 0.950 . S
C1252 H1244 0.950 . S
C1252 C1253 1.392 . S
C1252 C1254 1.391 . S
C1253 C1252 1.392 . S
C1253 C1257 1.388 1_455 S
C1254 H1246 0.950 . S
C1254 C1252 1.391 . S
C1254 C1255 1.400 . S
C1255 C1254 1.400 . S
C1255 C1256 1.398 1_455 S
C1255 C1261 1.491 . S
C1256 H1247 0.950 . S
C1256 C1255 1.398 1_655 S
C1256 C1257 1.391 . S
C1257 H1245 0.950 . S
C1257 C1253 1.388 1_655 S
C1257 C1256 1.391 . S
C1258 H1248 0.950 1_455 S
C1258 C1259 1.386 . S
C1258 C1260 1.391 1_455 S
C1259 C1258 1.386 . S
C1259 C1263 1.393 . S
C1260 H1249 0.949 . S
C1260 C1258 1.391 1_655 S
C1260 C1261 1.401 1_655 S
C1261 C1255 1.491 . S
C1261 C1260 1.401 1_455 S
C1261 C1262 1.398 . S
C1262 H1250 0.950 . S
C1262 C1261 1.398 . S
C1262 C1263 1.391 . S
C1263 H1251 0.950 . S
C1263 C1259 1.393 . S
C1263 C1262 1.391 . S
H1264 C1272 0.950 . S
H1265 C1277 0.950 . S
H1266 C1274 0.950 . S
H1267 C1276 0.950 . S
H1268 C1278 0.950 . S
H1269 C1280 0.950 . S
H1270 C1282 0.950 . S
H1271 C1283 0.959 . S
C1272 H1264 0.950 . S
C1272 C1273 1.386 . S
C1272 C1274 1.391 . S
C1273 C1272 1.386 . S
C1273 C1277 1.393 . S
C1274 H1266 0.950 . S
C1274 C1272 1.391 . S
C1274 C1275 1.400 . S
C1275 C1274 1.400 . S
C1275 C1276 1.398 . S
C1275 C1281 1.491 . S
C1276 H1267 0.950 . S
C1276 C1275 1.398 . S
C1276 C1277 1.391 . S
C1277 H1265 0.950 . S
C1277 C1273 1.393 . S
C1277 C1276 1.391 . S
C1278 H1268 0.950 . S
C1278 C1279 1.386 . S
C1278 C1280 1.391 . S
C1279 C1278 1.386 . S
C1279 C1283 1.391 1_545 S
C1280 H1269 0.950 . S
C1280 C1278 1.391 . S
C1280 C1281 1.400 . S
C1281 C1275 1.491 . S
C1281 C1280 1.400 . S
C1281 C1282 1.398 . S
C1282 H1270 0.950 . S
C1282 C1281 1.398 . S
C1282 C1283 1.386 1_545 S
C1283 H1271 0.959 . S
C1283 C1279 1.391 1_565 S
C1283 C1282 1.386 1_565 S
H1284 C1292 0.950 . S
H1285 C1297 0.950 . S
H1286 C1294 0.950 . S
H1287 C1296 0.950 . S
H1288 C1298 0.950 . S
H1289 C1300 0.950 . S
H1290 C1302 0.950 . S
H1291 C1303 0.950 . S
C1292 H1284 0.950 . S
C1292 C1293 1.386 . S
C1292 C1294 1.391 . S
C1293 C1292 1.386 . S
C1293 C1297 1.393 . S
C1294 H1286 0.950 . S
C1294 C1292 1.391 . S
C1294 C1295 1.400 . S
C1295 C1294 1.400 . S
C1295 C1296 1.398 . S
C1295 C1301 1.491 . S
C1296 H1287 0.950 . S
C1296 C1295 1.398 . S
C1296 C1297 1.391 . S
C1297 H1285 0.950 . S
C1297 C1293 1.393 . S
C1297 C1296 1.391 . S
C1298 H1288 0.950 . S
C1298 C1299 1.386 . S
C1298 C1300 1.391 . S
C1299 C1298 1.386 . S
C1299 C1303 1.393 . S
C1300 H1289 0.950 . S
C1300 C1298 1.391 . S
C1300 C1301 1.400 . S
C1301 C1295 1.491 . S
C1301 C1300 1.400 . S
C1301 C1302 1.398 . S
C1302 H1290 0.950 . S
C1302 C1301 1.398 . S
C1302 C1303 1.391 . S
C1303 H1291 0.950 . S
C1303 C1299 1.393 . S
C1303 C1302 1.391 . S
H1304 C1312 0.950 . S
H1305 C1317 0.950 . S
H1306 C1314 0.950 . S
H1307 C1316 0.950 . S
H1308 C1318 0.950 . S
H1309 C1320 0.950 . S
H1310 C1322 0.950 . S
H1311 C1323 0.950 . S
C1312 H1304 0.950 . S
C1312 C1313 1.386 . S
C1312 C1314 1.391 . S
C1313 C1312 1.386 . S
C1313 C1317 1.393 . S
C1314 H1306 0.950 . S
C1314 C1312 1.391 . S
C1314 C1315 1.400 . S
C1315 C1314 1.400 . S
C1315 C1316 1.398 . S
C1315 C1321 1.491 . S
C1316 H1307 0.950 . S
C1316 C1315 1.398 . S
C1316 C1317 1.391 . S
C1317 H1305 0.950 . S
C1317 C1313 1.393 . S
C1317 C1316 1.391 . S
C1318 H1308 0.950 . S
C1318 C1319 1.386 . S
C1318 C1320 1.391 . S
C1319 C1318 1.386 . S
C1319 C1323 1.393 . S
C1320 H1309 0.950 . S
C1320 C1318 1.391 . S
C1320 C1321 1.400 . S
C1321 C1315 1.491 . S
C1321 C1320 1.400 . S
C1321 C1322 1.398 . S
C1322 H1310 0.950 . S
C1322 C1321 1.398 . S
C1322 C1323 1.391 . S
C1323 H1311 0.950 . S
C1323 C1319 1.393 . S
C1323 C1322 1.391 . S
H1324 C1332 0.950 . S
H1325 C1337 0.950 . S
H1326 C1334 0.950 . S
H1327 C1336 0.950 . S
H1328 C1338 0.950 . S
H1329 C1340 0.950 . S
H1330 C1342 0.950 . S
H1331 C1343 0.950 . S
C1332 H1324 0.950 . S
C1332 C1333 1.386 1_655 S
C1332 C1334 1.391 . S
C1333 C1332 1.386 1_455 S
C1333 C1337 1.393 . S
C1334 H1326 0.950 . S
C1334 C1332 1.391 . S
C1334 C1335 1.400 1_655 S
C1335 C1334 1.400 1_455 S
C1335 C1336 1.398 . S
C1335 C1341 1.491 . S
C1336 H1327 0.950 . S
C1336 C1335 1.398 . S
C1336 C1337 1.391 . S
C1337 H1325 0.950 . S
C1337 C1333 1.393 . S
C1337 C1336 1.391 . S
C1338 H1328 0.950 . S
C1338 C1339 1.386 . S
C1338 C1340 1.391 . S
C1339 C1338 1.386 . S
C1339 C1343 1.393 1_455 S
C1340 H1329 0.950 . S
C1340 C1338 1.391 . S
C1340 C1341 1.400 . S
C1341 C1335 1.491 . S
C1341 C1340 1.400 . S
C1341 C1342 1.398 1_455 S
C1342 H1330 0.950 . S
C1342 C1341 1.398 1_655 S
C1342 C1343 1.391 . S
C1343 H1331 0.950 . S
C1343 C1339 1.393 1_655 S
C1343 C1342 1.391 . S
H1344 C1352 0.950 . S
H1345 C1357 0.950 . S
H1346 C1354 0.950 . S
H1347 C1356 0.950 . S
H1348 C1358 0.950 . S
H1349 C1360 0.950 . S
H1350 C1362 0.950 . S
H1351 C1363 0.949 1_545 S
C1352 H1344 0.950 . S
C1352 C1353 1.386 . S
C1352 C1354 1.391 . S
C1353 C1352 1.386 . S
C1353 C1357 1.393 . S
C1354 H1346 0.950 . S
C1354 C1352 1.391 . S
C1354 C1355 1.400 . S
C1355 C1354 1.400 . S
C1355 C1356 1.398 . S
C1355 C1361 1.491 . S
C1356 H1347 0.950 . S
C1356 C1355 1.398 . S
C1356 C1357 1.391 . S
C1357 H1345 0.950 . S
C1357 C1353 1.393 . S
C1357 C1356 1.391 . S
C1358 H1348 0.950 . S
C1358 C1359 1.386 . S
C1358 C1360 1.391 . S
C1359 C1358 1.386 . S
C1359 C1363 1.393 . S
C1360 H1349 0.950 . S
C1360 C1358 1.391 . S
C1360 C1361 1.400 . S
C1361 C1355 1.491 . S
C1361 C1360 1.400 . S
C1361 C1362 1.398 . S
C1362 H1350 0.950 . S
C1362 C1361 1.398 . S
C1362 C1363 1.391 . S
C1363 H1351 0.949 1_565 S
C1363 C1359 1.393 . S
C1363 C1362 1.391 . S
H1364 C1372 0.950 . S
H1365 C1377 0.950 . S
H1366 C1374 0.950 . S
H1367 C1376 0.950 . S
H1368 C1378 0.950 . S
H1369 C1380 0.950 . S
H1370 C1382 0.950 . S
H1371 C1383 0.950 . S
C1372 H1364 0.950 . S
C1372 C1373 1.386 . S
C1372 C1374 1.391 . S
C1373 C1372 1.386 . S
C1373 C1377 1.393 . S
C1374 H1366 0.950 . S
C1374 C1372 1.391 . S
C1374 C1375 1.400 . S
C1375 C1374 1.400 . S
C1375 C1376 1.398 . S
C1375 C1381 1.491 . S
C1376 H1367 0.950 . S
C1376 C1375 1.398 . S
C1376 C1377 1.391 . S
C1377 H1365 0.950 . S
C1377 C1373 1.393 . S
C1377 C1376 1.391 . S
C1378 H1368 0.950 . S
C1378 C1379 1.386 . S
C1378 C1380 1.391 . S
C1379 C1378 1.386 . S
C1379 C1383 1.393 . S
C1380 H1369 0.950 . S
C1380 C1378 1.391 . S
C1380 C1381 1.400 . S
C1381 C1375 1.491 . S
C1381 C1380 1.400 . S
C1381 C1382 1.398 . S
C1382 H1370 0.950 . S
C1382 C1381 1.398 . S
C1382 C1383 1.391 . S
C1383 H1371 0.950 . S
C1383 C1379 1.393 . S
C1383 C1382 1.391 . S
H1384 C1392 0.950 . S
H1385 C1397 0.950 . S
H1386 C1394 0.950 . S
H1387 C1396 0.950 . S
H1388 C1398 0.950 . S
H1389 C1400 0.950 . S
H1390 C1402 0.950 . S
H1391 C1403 0.950 . S
C1392 H1384 0.950 . S
C1392 C1393 1.386 . S
C1392 C1394 1.391 . S
C1393 C1392 1.386 . S
C1393 C1397 1.393 . S
C1394 H1386 0.950 . S
C1394 C1392 1.391 . S
C1394 C1395 1.400 . S
C1395 C1394 1.400 . S
C1395 C1396 1.398 . S
C1395 C1401 1.491 . S
C1396 H1387 0.950 . S
C1396 C1395 1.398 . S
C1396 C1397 1.391 . S
C1397 H1385 0.950 . S
C1397 C1393 1.393 . S
C1397 C1396 1.391 . S
C1398 H1388 0.950 . S
C1398 C1399 1.386 . S
C1398 C1400 1.391 . S
C1399 C1398 1.386 . S
C1399 C1403 1.393 . S
C1400 H1389 0.950 . S
C1400 C1398 1.391 . S
C1400 C1401 1.400 . S
C1401 C1395 1.491 . S
C1401 C1400 1.400 . S
C1401 C1402 1.398 . S
C1402 H1390 0.950 . S
C1402 C1401 1.398 . S
C1402 C1403 1.391 . S
C1403 H1391 0.950 . S
C1403 C1399 1.393 . S
C1403 C1402 1.391 . S
H1404 C1412 0.950 . S
H1405 C1417 0.950 . S
H1406 C1414 0.950 . S
H1407 C1416 0.950 . S
H1408 C1418 0.950 1_455 S
H1409 C1420 0.950 . S
H1410 C1422 0.950 . S
H1411 C1423 0.950 . S
C1412 H1404 0.950 . S
C1412 C1413 1.386 . S
C1412 C1414 1.391 . S
C1413 C1412 1.386 . S
C1413 C1417 1.393 . S
C1414 H1406 0.950 . S
C1414 C1412 1.391 . S
C1414 C1415 1.400 . S
C1415 C1414 1.400 . S
C1415 C1416 1.398 . S
C1415 C1421 1.491 . S
C1416 H1407 0.950 . S
C1416 C1415 1.398 . S
C1416 C1417 1.391 . S
C1417 H1405 0.950 . S
C1417 C1413 1.393 . S
C1417 C1416 1.391 . S
C1418 H1408 0.950 1_655 S
C1418 C1419 1.386 . S
C1418 C1420 1.391 . S
C1419 C1418 1.386 . S
C1419 C1423 1.393 . S
C1420 H1409 0.950 . S
C1420 C1418 1.391 . S
C1420 C1421 1.400 . S
C1421 C1415 1.491 . S
C1421 C1420 1.400 . S
C1421 C1422 1.398 . S
C1422 H1410 0.950 . S
C1422 C1421 1.398 . S
C1422 C1423 1.391 . S
C1423 H1411 0.950 . S
C1423 C1419 1.393 . S
C1423 C1422 1.391 . S
H1424 C1432 0.950 . S
H1425 C1437 0.950 . S
H1426 C1434 0.945 1_554 S
H1427 C1436 0.950 . S
H1428 C1438 0.950 . S
H1429 C1440 0.945 1_556 S
H1430 C1442 0.950 . S
H1431 C1443 0.950 . S
C1432 H1424 0.950 . S
C1432 C1433 1.386 . S
C1432 C1434 1.395 . S
C1433 C1432 1.386 . S
C1433 C1437 1.393 1_545 S
C1434 H1426 0.945 1_556 S
C1434 C1432 1.395 . S
C1434 C1435 1.402 . S
C1435 C1434 1.402 . S
C1435 C1436 1.398 1_545 S
C1435 C1441 1.491 1_546 S
C1436 H1427 0.950 . S
C1436 C1435 1.398 1_565 S
C1436 C1437 1.391 . S
C1437 H1425 0.950 . S
C1437 C1433 1.393 1_565 S
C1437 C1436 1.391 . S
C1438 H1428 0.950 . S
C1438 C1439 1.386 . S
C1438 C1440 1.395 . S
C1439 C1438 1.386 . S
C1439 C1443 1.393 1_565 S
C1440 H1429 0.945 1_554 S
C1440 C1438 1.395 . S
C1440 C1441 1.402 . S
C1441 C1435 1.491 1_564 S
C1441 C1440 1.402 . S
C1441 C1442 1.398 1_565 S
C1442 H1430 0.950 . S
C1442 C1441 1.398 1_545 S
C1442 C1443 1.391 . S
C1443 H1431 0.950 . S
C1443 C1439 1.393 1_545 S
C1443 C1442 1.391 . S
H1444 C1452 0.950 . S
H1445 C1457 0.950 . S
H1446 C1454 0.950 . S
H1447 C1456 0.950 . S
H1448 C1458 0.950 . S
H1449 C1460 0.950 . S
H1450 C1462 0.950 . S
H1451 C1463 0.950 . S
C1452 H1444 0.950 . S
C1452 C1453 1.386 1_554 S
C1452 C1454 1.391 . S
C1453 C1452 1.386 1_556 S
C1453 C1457 1.393 . S
C1454 H1446 0.950 . S
C1454 C1452 1.391 . S
C1454 C1455 1.400 1_554 S
C1455 C1454 1.400 1_556 S
C1455 C1456 1.398 . S
C1455 C1461 1.491 1_556 S
C1456 H1447 0.950 . S
C1456 C1455 1.398 . S
C1456 C1457 1.391 . S
C1457 H1445 0.950 . S
C1457 C1453 1.393 . S
C1457 C1456 1.391 . S
C1458 H1448 0.950 . S
C1458 C1459 1.386 1_556 S
C1458 C1460 1.391 . S
C1459 C1458 1.386 1_554 S
C1459 C1463 1.393 . S
C1460 H1449 0.950 . S
C1460 C1458 1.391 . S
C1460 C1461 1.400 1_556 S
C1461 C1455 1.491 1_554 S
C1461 C1460 1.400 1_554 S
C1461 C1462 1.398 . S
C1462 H1450 0.950 . S
C1462 C1461 1.398 . S
C1462 C1463 1.391 . S
C1463 H1451 0.950 . S
C1463 C1459 1.393 . S
C1463 C1462 1.391 . S
H1464 C1472 0.950 . S
H1465 C1477 0.950 . S
H1466 C1474 0.927 1_455 S
H1467 C1476 0.950 . S
H1468 C1478 0.950 . S
H1469 C1480 0.927 1_655 S
H1470 C1482 0.950 . S
H1471 C1483 0.950 . S
C1472 H1464 0.950 . S
C1472 C1473 1.386 . S
C1472 C1474 1.391 . S
C1473 C1472 1.386 . S
C1473 C1477 1.393 1_554 S
C1474 H1466 0.927 1_655 S
C1474 C1472 1.391 . S
C1474 C1475 1.400 . S
C1475 C1474 1.400 . S
C1475 C1476 1.398 1_554 S
C1475 C1481 1.491 1_654 S
C1476 H1467 0.950 . S
C1476 C1475 1.398 1_556 S
C1476 C1477 1.391 . S
C1477 H1465 0.950 . S
C1477 C1473 1.393 1_556 S
C1477 C1476 1.391 . S
C1478 H1468 0.950 . S
C1478 C1479 1.386 . S
C1478 C1480 1.391 . S
C1479 C1478 1.386 . S
C1479 C1483 1.393 1_556 S
C1480 H1469 0.927 1_455 S
C1480 C1478 1.391 . S
C1480 C1481 1.400 . S
C1481 C1475 1.491 1_456 S
C1481 C1480 1.400 . S
C1481 C1482 1.398 1_556 S
C1482 H1470 0.950 . S
C1482 C1481 1.398 1_554 S
C1482 C1483 1.391 . S
C1483 H1471 0.950 . S
C1483 C1479 1.393 1_554 S
C1483 C1482 1.391 . S
H1484 C1492 0.950 1_554 S
H1485 C1497 0.950 . S
H1486 C1494 0.950 . S
H1487 C1496 0.950 . S
H1488 C1498 0.950 1_556 S
H1489 C1500 0.950 . S
H1490 C1502 0.950 . S
H1491 C1503 0.950 . S
C1492 H1484 0.950 1_556 S
C1492 C1493 1.386 . S
C1492 C1494 1.391 1_556 S
C1493 C1492 1.386 . S
C1493 C1497 1.393 1_455 S
C1494 H1486 0.950 . S
C1494 C1492 1.391 1_554 S
C1494 C1495 1.400 1_554 S
C1495 C1494 1.400 1_556 S
C1495 C1496 1.398 1_455 S
C1495 C1501 1.491 1_446 S
C1496 H1487 0.950 . S
C1496 C1495 1.398 1_655 S
C1496 C1497 1.391 . S
C1497 H1485 0.950 . S
C1497 C1493 1.393 1_655 S
C1497 C1496 1.391 . S
C1498 H1488 0.950 1_554 S
C1498 C1499 1.386 . S
C1498 C1500 1.391 1_554 S
C1499 C1498 1.386 . S
C1499 C1503 1.393 1_655 S
C1500 H1489 0.950 . S
C1500 C1498 1.391 1_556 S
C1500 C1501 1.400 1_556 S
C1501 C1495 1.491 1_664 S
C1501 C1500 1.400 1_554 S
C1501 C1502 1.398 1_655 S
C1502 H1490 0.950 . S
C1502 C1501 1.398 1_455 S
C1502 C1503 1.391 . S
C1503 H1491 0.950 . S
C1503 C1499 1.393 1_455 S
C1503 C1502 1.391 . S
H1504 C1512 0.950 . S
H1505 C1517 0.950 . S
H1506 C1514 0.950 . S
H1507 C1516 0.950 . S
H1508 C1518 0.950 . S
H1509 C1520 0.950 . S
H1510 C1522 0.950 . S
H1511 C1523 0.950 . S
C1512 H1504 0.950 . S
C1512 C1513 1.386 1_565 S
C1512 C1514 1.391 . S
C1513 C1512 1.386 1_545 S
C1513 C1517 1.393 . S
C1514 H1506 0.950 . S
C1514 C1512 1.391 . S
C1514 C1515 1.400 1_565 S
C1515 C1514 1.400 1_545 S
C1515 C1516 1.398 . S
C1515 C1521 1.491 1_445 S
C1516 H1507 0.950 . S
C1516 C1515 1.398 . S
C1516 C1517 1.391 . S
C1517 H1505 0.950 . S
C1517 C1513 1.393 . S
C1517 C1516 1.391 . S
C1518 H1508 0.950 . S
C1518 C1519 1.386 1_545 S
C1518 C1520 1.391 . S
C1519 C1518 1.386 1_565 S
C1519 C1523 1.393 . S
C1520 H1509 0.950 . S
C1520 C1518 1.391 . S
C1520 C1521 1.400 1_545 S
C1521 C1515 1.491 1_665 S
C1521 C1520 1.400 1_565 S
C1521 C1522 1.398 . S
C1522 H1510 0.950 . S
C1522 C1521 1.398 . S
C1522 C1523 1.391 . S
C1523 H1511 0.950 . S
C1523 C1519 1.393 . S
C1523 C1522 1.391 . S
H1524 C1532 0.950 . S
H1525 C1537 0.950 . S
H1526 C1534 0.950 . S
H1527 C1536 0.950 . S
H1528 C1538 0.950 . S
H1529 C1540 0.950 . S
H1530 C1542 0.950 . S
H1531 C1543 0.950 . S
C1532 H1524 0.950 . S
C1532 C1533 1.386 . S
C1532 C1534 1.391 . S
C1533 C1532 1.386 . S
C1533 C1537 1.393 . S
C1534 H1526 0.950 . S
C1534 C1532 1.391 . S
C1534 C1535 1.400 . S
C1535 C1534 1.400 . S
C1535 C1536 1.398 . S
C1535 C1541 1.491 1_565 S
C1536 H1527 0.950 . S
C1536 C1535 1.398 . S
C1536 C1537 1.391 . S
C1537 H1525 0.950 . S
C1537 C1533 1.393 . S
C1537 C1536 1.391 . S
C1538 H1528 0.950 . S
C1538 C1539 1.386 . S
C1538 C1540 1.391 . S
C1539 C1538 1.386 . S
C1539 C1543 1.393 . S
C1540 H1529 0.950 . S
C1540 C1538 1.391 . S
C1540 C1541 1.400 . S
C1541 C1535 1.491 1_545 S
C1541 C1540 1.400 . S
C1541 C1542 1.398 . S
C1542 H1530 0.950 . S
C1542 C1541 1.398 . S
C1542 C1543 1.391 . S
C1543 H1531 0.950 . S
C1543 C1539 1.393 . S
C1543 C1542 1.391 . S
H1544 C1552 0.950 . S
H1545 C1557 0.950 . S
H1546 C1554 0.950 . S
H1547 C1556 0.950 . S
H1548 C1558 0.950 . S
H1549 C1560 0.950 . S
H1550 C1562 0.950 . S
H1551 C1563 0.950 . S
C1552 H1544 0.950 . S
C1552 C1553 1.386 . S
C1552 C1554 1.391 . S
C1553 C1552 1.386 . S
C1553 C1557 1.393 . S
C1554 H1546 0.950 . S
C1554 C1552 1.391 . S
C1554 C1555 1.400 . S
C1555 C1554 1.400 . S
C1555 C1556 1.398 . S
C1555 C1561 1.491 . S
C1556 H1547 0.950 . S
C1556 C1555 1.398 . S
C1556 C1557 1.391 . S
C1557 H1545 0.950 . S
C1557 C1553 1.393 . S
C1557 C1556 1.391 . S
C1558 H1548 0.950 . S
C1558 C1559 1.386 . S
C1558 C1560 1.391 . S
C1559 C1558 1.386 . S
C1559 C1563 1.393 . S
C1560 H1549 0.950 . S
C1560 C1558 1.391 . S
C1560 C1561 1.400 . S
C1561 C1555 1.491 . S
C1561 C1560 1.400 . S
C1561 C1562 1.398 . S
C1562 H1550 0.950 . S
C1562 C1561 1.398 . S
C1562 C1563 1.391 . S
C1563 H1551 0.950 . S
C1563 C1559 1.393 . S
C1563 C1562 1.391 . S
H1564 C1572 0.950 . S
H1565 C1577 0.950 . S
H1566 C1574 0.950 . S
H1567 C1576 0.950 . S
H1568 C1578 0.950 . S
H1569 C1580 0.950 . S
H1570 C1582 0.950 . S
H1571 C1583 0.950 . S
C1572 H1564 0.950 . S
C1572 C1573 1.386 . S
C1572 C1574 1.391 . S
C1573 C1572 1.386 . S
C1573 C1577 1.393 1_655 S
C1574 H1566 0.950 . S
C1574 C1572 1.391 . S
C1574 C1575 1.400 . S
C1575 C1574 1.400 . S
C1575 C1576 1.398 1_655 S
C1575 C1581 1.491 1_655 S
C1576 H1567 0.950 . S
C1576 C1575 1.398 1_455 S
C1576 C1577 1.391 . S
C1577 H1565 0.950 . S
C1577 C1573 1.393 1_455 S
C1577 C1576 1.391 . S
C1578 H1568 0.950 . S
C1578 C1579 1.386 . S
C1578 C1580 1.391 . S
C1579 C1578 1.386 . S
C1579 C1583 1.393 1_455 S
C1580 H1569 0.950 . S
C1580 C1578 1.391 . S
C1580 C1581 1.400 . S
C1581 C1575 1.491 1_455 S
C1581 C1580 1.400 . S
C1581 C1582 1.398 1_455 S
C1582 H1570 0.950 . S
C1582 C1581 1.398 1_655 S
C1582 C1583 1.391 . S
C1583 H1571 0.950 . S
C1583 C1579 1.393 1_655 S
C1583 C1582 1.391 . S
C953 C347 0.552 . S
C959 C52 0.547 . S
C973 C406 0.758 . S
C979 C111 0.754 . S
C993 C170 0.552 . S
C999 C465 0.550 . S
C1013 C229 0.357 . S
C1019 C288 0.345 . S
C1033 C524 0.564 . S
C1039 C819 0.559 . S
C1053 C878 0.759 . S
C1059 C583 0.753 . S
C1073 C937 0.564 . S
C1079 C642 0.559 . S
C1093 C701 0.386 . S
C1099 C760 0.376 . S
C1113 C5 1.543 1_566 S
C1119 C711 1.482 . S
C1133 C770 1.675 . S
C1139 C64 1.770 1_556 S
C1153 C123 1.822 1_556 S
C1159 C829 1.750 . S
C1173 C182 1.603 . S
C1179 C888 1.545 . S
C1193 C241 1.604 . S
C1199 C475 1.553 . S
C1213 C300 1.820 . S
C1219 C534 1.734 . S
C1233 C359 1.771 . S
C1239 C593 1.677 . S
C1253 C418 1.544 1_455 S
C1259 C652 1.483 . S
C1273 C239 1.489 . S
C1279 C477 1.547 1_544 S
C1293 C298 1.660 . S
C1299 C536 1.766 1_554 S
C1313 C357 1.739 . S
C1319 C595 1.821 1_554 S
C1333 C654 1.599 . S
C1339 C416 1.533 . S
C1353 C3 1.531 . S
C1359 C713 1.598 . S
C1373 C772 1.823 . S
C1379 C62 1.752 . S
C1393 C831 1.768 . S
C1399 C121 1.665 . S
C1413 C180 1.490 . S
C1419 C890 1.547 1_655 S
C1433 C505 1.479 . S
C1439 C33 1.480 . S
C1453 C564 1.700 . S
C1459 C92 1.700 . S
C1473 C151 1.963 . S
C1479 C623 1.963 . S
C1493 C682 1.674 . S
C1499 C210 1.674 . S
C1513 C269 1.691 . S
C1519 C741 1.692 . S
C1533 C800 1.966 . S
C1539 C328 1.966 . S
C1553 C859 1.726 . S
C1559 C387 1.726 . S
C1573 C918 1.494 . S
C1579 C446 1.495 . S
