# Generated by pormake.
# Topology umj, (4)-cn, num edge types: 1
# Building blocks:
#     Node 0, Type 0, BuildingBlock: MUDLON_clean_sbu_0, # of connection points: 4
#     Node 1, Type 0, BuildingBlock: MUDLON_clean_sbu_0, # of connection points: 4
#     Node 2, Type 0, BuildingBlock: MUDLON_clean_sbu_0, # of connection points: 4
#     Node 3, Type 0, BuildingBlock: MUDLON_clean_sbu_0, # of connection points: 4
#     Node 4, Type 0, BuildingBlock: MUDLON_clean_sbu_0, # of connection points: 4
#     Node 5, Type 0, BuildingBlock: MUDLON_clean_sbu_0, # of connection points: 4
#     Node 6, Type 0, BuildingBlock: MUDLON_clean_sbu_0, # of connection points: 4
#     Node 7, Type 0, BuildingBlock: MUDLON_clean_sbu_0, # of connection points: 4
#     Node 8, Type 0, BuildingBlock: MUDLON_clean_sbu_0, # of connection points: 4
#     Node 9, Type 0, BuildingBlock: MUDLON_clean_sbu_0, # of connection points: 4
#     Node 10, Type 0, BuildingBlock: MUDLON_clean_sbu_0, # of connection points: 4
#     Node 11, Type 0, BuildingBlock: MUDLON_clean_sbu_0, # of connection points: 4
#     Edge 12, Type (0, 0), BuildingBlock: EZIPEK_clean_linker_0, # of connection points: 2
#     Edge 13, Type (0, 0), BuildingBlock: EZIPEK_clean_linker_0, # of connection points: 2
#     Edge 14, Type (0, 0), BuildingBlock: EZIPEK_clean_linker_0, # of connection points: 2
#     Edge 15, Type (0, 0), BuildingBlock: EZIPEK_clean_linker_0, # of connection points: 2
#     Edge 16, Type (0, 0), BuildingBlock: EZIPEK_clean_linker_0, # of connection points: 2
#     Edge 17, Type (0, 0), BuildingBlock: EZIPEK_clean_linker_0, # of connection points: 2
#     Edge 18, Type (0, 0), BuildingBlock: EZIPEK_clean_linker_0, # of connection points: 2
#     Edge 19, Type (0, 0), BuildingBlock: EZIPEK_clean_linker_0, # of connection points: 2
#     Edge 20, Type (0, 0), BuildingBlock: EZIPEK_clean_linker_0, # of connection points: 2
#     Edge 21, Type (0, 0), BuildingBlock: EZIPEK_clean_linker_0, # of connection points: 2
#     Edge 22, Type (0, 0), BuildingBlock: EZIPEK_clean_linker_0, # of connection points: 2
#     Edge 23, Type (0, 0), BuildingBlock: EZIPEK_clean_linker_0, # of connection points: 2
#     Edge 24, Type (0, 0), BuildingBlock: EZIPEK_clean_linker_0, # of connection points: 2
#     Edge 25, Type (0, 0), BuildingBlock: EZIPEK_clean_linker_0, # of connection points: 2
#     Edge 26, Type (0, 0), BuildingBlock: EZIPEK_clean_linker_0, # of connection points: 2
#     Edge 27, Type (0, 0), BuildingBlock: EZIPEK_clean_linker_0, # of connection points: 2
#     Edge 28, Type (0, 0), BuildingBlock: EZIPEK_clean_linker_0, # of connection points: 2
#     Edge 29, Type (0, 0), BuildingBlock: EZIPEK_clean_linker_0, # of connection points: 2
#     Edge 30, Type (0, 0), BuildingBlock: EZIPEK_clean_linker_0, # of connection points: 2
#     Edge 31, Type (0, 0), BuildingBlock: EZIPEK_clean_linker_0, # of connection points: 2
#     Edge 32, Type (0, 0), BuildingBlock: EZIPEK_clean_linker_0, # of connection points: 2
#     Edge 33, Type (0, 0), BuildingBlock: EZIPEK_clean_linker_0, # of connection points: 2
#     Edge 34, Type (0, 0), BuildingBlock: EZIPEK_clean_linker_0, # of connection points: 2
#     Edge 35, Type (0, 0), BuildingBlock: EZIPEK_clean_linker_0, # of connection points: 2
# Relax obj value: 0.016
# Max RMSD: 0.120
# Mean RMSD: 0.120
data_MOF--net-umj--node1-MUDLON_clean_sbu_0--edge1-EZIPEK_clean_linker_0
_symmetry_space_group_name_H-M    P1
_symmetry_Int_Tables_number       1
_symmetry_cell_setting            triclinic
loop_
_symmetry_equiv_pos_as_xyz
'x, y, z'
_cell_length_a     22.644597
_cell_length_b     22.648519
_cell_length_c     64.665912
_cell_angle_alpha  89.667983
_cell_angle_beta   89.794118
_cell_angle_gamma 120.17131
loop_
_atom_site_label
_atom_site_type_symbol
_atom_site_fract_x
_atom_site_fract_y
_atom_site_fract_z
_atom_type_partial_charge
Mg0 Mg 0.04682 0.28155 0.10091 0.0
C1 C 0.01271 0.27073 0.14361 0.0
O2 O 0.95671 0.25228 0.13305 0.0
C3 C 0.09217 0.31186 0.05859 0.0
O4 O 0.02962 0.30138 0.05899 0.0
C5 C 0.05326 0.41104 0.09686 0.0
O6 O 0.1167 0.424 0.0971 0.0
O7 O 1.00491 0.34901 0.09743 0.0
O8 O 0.06872 0.2905 0.13381 0.0
O9 O 0.99036 0.17047 0.09857 0.0
C10 C 0.03014 0.14691 0.09506 0.0
O11 O 0.09462 0.18981 0.09068 0.0
O12 O 0.12048 0.31223 0.07562 0.0
Mg13 Mg 0.79982 0.05268 0.43658 0.0
C14 C 0.77707 0.01854 0.47982 0.0
O15 O 0.7498 0.96043 0.46984 0.0
C16 C 0.86407 0.14574 0.39939 0.0
O17 O 0.91744 0.14147 0.40494 0.0
C18 C 0.66269 0.02256 0.43625 0.0
O19 O 0.70143 0.08734 0.44084 0.0
O20 O 0.69043 0.98637 0.43312 0.0
O21 O 0.8059 0.07436 0.46949 0.0
O22 O 0.87099 0.01484 0.4321 0.0
C23 C 0.93157 0.05625 0.43814 0.0
O24 O 0.94476 0.11511 0.44592 0.0
O25 O 0.81437 0.12548 0.41197 0.0
Mg26 Mg 0.71771 0.77101 0.77207 0.0
C27 C 0.74572 0.742 0.81358 0.0
O28 O 0.7649 0.70861 0.80129 0.0
C29 C 0.69286 0.8145 0.73373 0.0
O30 O 0.71187 0.76944 0.73014 0.0
C31 C 0.58375 0.65339 0.76421 0.0
O32 O 0.57213 0.70393 0.76731 0.0
O33 O 0.64503 0.6651 0.76463 0.0
O34 O 0.71955 0.77533 0.80569 0.0
O35 O 0.82583 0.82345 0.76397 0.0
C36 C 0.85149 0.88629 0.76862 0.0
O37 O 0.81213 0.90629 0.77738 0.0
O38 O 0.68597 0.8279 0.7524 0.0
Mg39 Mg 0.96519 0.73651 0.10384 0.0
C40 C 1.00145 0.7561 0.14662 0.0
O41 O 0.05816 0.79226 0.13596 0.0
C42 C 0.85018 0.69255 0.07191 0.0
O43 O 0.82737 0.72477 0.08328 0.0
C44 C 0.99727 0.63153 0.10291 0.0
O45 O 0.93446 0.60608 0.10988 0.0
O46 O 0.03215 0.69524 0.09879 0.0
O47 O 0.94537 0.72159 0.13697 0.0
O48 O 0.99821 0.84377 0.09799 0.0
C49 C 0.95964 0.86424 0.10564 0.0
O50 O 0.90633 0.82164 0.1168 0.0
O51 O 0.89493 0.68052 0.07919 0.0
Mg52 Mg 0.25881 0.96667 0.43473 0.0
C53 C 0.2677 0.99838 0.4775 0.0
O54 O 0.29981 0.05644 0.46721 0.0
C55 C 0.21603 0.84957 0.40174 0.0
O56 O 0.25603 0.83067 0.41061 0.0
C57 C 0.38281 0.95979 0.43736 0.0
O58 O 0.33425 0.90132 0.4449 0.0
O59 O 0.3674 1.00375 0.43102 0.0
O60 O 0.24073 0.94252 0.4675 0.0
O61 O 0.21201 0.02975 0.43128 0.0
C62 C 0.14798 0.99157 0.43447 0.0
O63 O 0.12345 0.92649 0.43861 0.0
O64 O 0.20719 0.89554 0.40984 0.0
Mg65 Mg 0.25535 0.23982 0.76056 0.0
C66 C 0.23716 0.24285 0.80466 0.0
O67 O 0.18372 0.24076 0.79602 0.0
C68 C 0.34997 0.20456 0.73221 0.0
O69 O 0.39586 0.22063 0.74672 0.0
C70 C 0.36434 0.37683 0.75661 0.0
O71 O 0.39117 0.33814 0.76003 0.0
O72 O 0.29962 0.34896 0.75535 0.0
O73 O 0.28071 0.23935 0.79295 0.0
O74 O 0.14562 0.16794 0.75873 0.0
C75 C 0.13021 0.10568 0.75715 0.0
O76 O 0.17933 0.09102 0.75598 0.0
O77 O 0.29656 0.20818 0.73544 0.0
Mg78 Mg 0.73855 0.97939 0.61264 0.0
C79 C 0.75366 1.00297 0.56907 0.0
O80 O 0.77676 0.06259 0.57792 0.0
C81 C 0.70584 0.93965 0.6552 0.0
O82 O 0.71944 1.00316 0.65382 0.0
C83 C 0.60998 0.97635 0.61417 0.0
O84 O 0.59482 0.91222 0.61406 0.0
O85 O 0.67261 0.02326 0.61422 0.0
O86 O 0.72996 0.94951 0.58043 0.0
O87 O 0.8486 0.03785 0.61681 0.0
C88 C 0.87239 0.99737 0.61696 0.0
O89 O 0.82992 0.93141 0.61545 0.0
O90 O 0.7058 0.90891 0.63875 0.0
Mg91 Mg 0.7848 0.72535 0.9456 0.0
C92 C 0.77817 0.7424 0.90226 0.0
O93 O 0.76176 0.78371 0.91152 0.0
C94 C 0.85229 0.7014 0.98253 0.0
O95 O 0.90693 0.75448 0.97477 0.0
C96 C 0.65027 0.61324 0.945 0.0
O97 O 0.69262 0.5896 0.94398 0.0
O98 O 0.67466 0.6775 0.94649 0.0
O99 O 0.79577 0.70697 0.91328 0.0
O100 O 0.84985 0.83591 0.94956 0.0
C101 C 0.90987 0.86048 0.94203 0.0
O102 O 0.92658 0.81943 0.93277 0.0
O103 O 0.79874 0.67245 0.97169 0.0
Mg104 Mg 0.0548 0.77128 0.27821 0.0
C105 C 0.0317 0.76373 0.23519 0.0
O106 O 0.97219 0.73348 0.24471 0.0
C107 C 0.09482 0.77237 0.32057 0.0
O108 O 0.03116 0.72243 0.31943 0.0
C109 C 0.05093 0.64319 0.27916 0.0
O110 O 0.11552 0.6906 0.27739 0.0
O111 O 1.00571 0.66083 0.28021 0.0
O112 O 0.08602 0.78986 0.24595 0.0
O113 O 0.99997 0.82697 0.28049 0.0
C114 C 0.04074 0.89053 0.28327 0.0
O115 O 0.10542 0.91171 0.28685 0.0
O116 O 0.12475 0.80571 0.30417 0.0
Mg117 Mg 0.27888 0.05801 0.60898 0.0
C118 C 0.25812 0.02397 0.56614 0.0
O119 O 0.21903 0.96718 0.57647 0.0
C120 C 0.30978 0.10626 0.65011 0.0
O121 O 0.26215 0.04145 0.65088 0.0
C122 C 0.39208 0.03807 0.60922 0.0
O123 O 0.41307 0.10052 0.6026 0.0
O124 O 0.32908 0.99923 0.61369 0.0
O125 O 0.29328 0.07923 0.57607 0.0
O126 O 0.17001 0.01675 0.61417 0.0
C127 C 0.15432 0.06312 0.61629 0.0
O128 O 0.2032 0.1274 0.61645 0.0
O129 O 0.33044 0.13476 0.63246 0.0
Mg130 Mg 0.23751 0.2809 0.93857 0.0
C131 C 0.23592 0.2514 0.89437 0.0
O132 O 0.23424 0.19897 0.90374 0.0
C133 C 0.20811 0.30442 0.97962 0.0
O134 O 0.24733 0.27728 0.98118 0.0
C135 C 0.36586 0.40466 0.94016 0.0
O136 O 0.3216 0.42102 0.93308 0.0
O137 O 0.3457 0.3424 0.94456 0.0
O138 O 0.23383 0.29674 0.90543 0.0
O139 O 0.17915 0.17065 0.94341 0.0
C140 C 0.11667 0.14696 0.93866 0.0
O141 O 0.09711 0.18913 0.93181 0.0
O142 O 0.19314 0.31644 0.96168 0.0
Mg143 Mg 0.96569 0.2297 0.27617 0.0
C144 C 0.98637 0.24461 0.23244 0.0
O145 O 0.04683 0.27307 0.24109 0.0
C146 C 0.85599 0.15755 0.31045 0.0
O147 O 0.82887 0.10379 0.29844 0.0
C148 C 0.99143 0.36498 0.27507 0.0
O149 O 0.92703 0.32384 0.27043 0.0
O150 O 0.02977 0.33972 0.27833 0.0
O151 O 0.93333 0.21717 0.24402 0.0
O152 O 1.00514 0.16017 0.28051 0.0
C153 C 0.96923 0.10147 0.2724 0.0
O154 O 0.91606 0.08939 0.26122 0.0
O155 O 0.90336 0.21405 0.30344 0.0
C156 C 0.96408 0.28534 0.19881 0.0
C157 C 0.98284 0.24259 0.20953 0.0
C158 C 0.01744 0.21433 0.17668 0.0
C159 C 1.00747 0.26425 0.16647 0.0
N160 N 0.97942 0.35369 0.16809 0.0
N161 N 0.02873 0.16688 0.20914 0.0
C162 C 0.98265 0.3013 0.17761 0.0
C163 C 0.01008 0.20733 0.19857 0.0
N164 N 0.92787 0.31008 0.2088 0.0
N165 N 0.03019 0.17108 0.16536 0.0
H166 H 0.0177 0.15504 0.2248 0.0
H167 H 0.05726 0.14718 0.20261 0.0
H168 H 0.03446 0.17377 0.1493 0.0
H169 H 0.03078 0.12893 0.17162 0.0
H170 H 0.90708 0.33624 0.20133 0.0
H171 H 0.91306 0.29899 0.22427 0.0
H172 H 0.96877 0.38737 0.17591 0.0
H173 H 0.99368 0.3676 0.15268 0.0
C174 C 0.80546 0.98693 0.51412 0.0
C175 C 0.77325 0.01685 0.50276 0.0
C176 C 0.71861 0.02511 0.53461 0.0
C177 C 0.75509 1.0004 0.54616 0.0
N178 N 0.83861 0.96429 0.54758 0.0
N179 N 0.7032 0.06929 0.50204 0.0
C180 C 0.79954 0.98247 0.53609 0.0
C181 C 0.73121 0.03764 0.51299 0.0
N182 N 0.84154 0.96239 0.50388 0.0
N183 N 0.66975 0.03391 0.54429 0.0
H184 H 0.70794 0.07605 0.48604 0.0
H185 H 0.6787 0.09278 0.50885 0.0
H186 H 0.65879 0.02461 0.56005 0.0
H187 H 0.63594 0.04464 0.53657 0.0
H188 H 0.85867 0.93222 0.51083 0.0
H189 H 0.8516 0.96911 0.48804 0.0
H190 H 0.87864 0.95955 0.54151 0.0
H191 H 0.83396 0.95786 0.56359 0.0
C192 C 0.69513 0.70821 0.84927 0.0
C193 C 0.75381 0.73895 0.83629 0.0
C194 C 0.8273 0.75777 0.86643 0.0
C195 C 0.76933 0.73405 0.87955 0.0
N196 N 0.64807 0.68877 0.88399 0.0
N197 N 0.87636 0.79602 0.83215 0.0
C198 C 0.70323 0.7098 0.8711 0.0
C199 C 0.82006 0.76384 0.84474 0.0
N200 N 0.63156 0.67436 0.84067 0.0
N201 N 0.88933 0.77485 0.87471 0.0
H202 H 0.87342 0.7998 0.81617 0.0
H203 H 0.92628 0.82297 0.8375 0.0
H204 H 0.89722 0.77413 0.89055 0.0
H205 H 0.93217 0.78532 0.86594 0.0
H206 H 0.58686 0.64425 0.84907 0.0
H207 H 0.62373 0.67126 0.82475 0.0
H208 H 0.60046 0.67949 0.87907 0.0
H209 H 0.65042 0.68344 0.89995 0.0
C210 C 0.03735 0.72073 0.17874 0.0
C211 C 1.00555 0.75463 0.16948 0.0
C212 C 1.00442 0.80508 0.20284 0.0
C213 C 0.03265 0.76822 0.21232 0.0
N214 N 0.07526 0.69016 0.21008 0.0
N215 N 0.95305 0.82399 0.17245 0.0
C216 C 0.04968 0.72636 0.20043 0.0
C217 C 0.98733 0.79532 0.18148 0.0
N218 N 0.05548 0.68297 0.16665 0.0
N219 N 0.99633 0.8513 0.21424 0.0
H220 H 0.94136 0.81926 0.15675 0.0
H221 H 0.93195 0.84851 0.18058 0.0
H222 H 0.00956 0.86037 0.22982 0.0
H223 H 0.98204 0.88477 0.20809 0.0
H224 H 0.08597 0.66336 0.17152 0.0
H225 H 0.04066 0.67209 0.15125 0.0
H226 H 0.08155 0.65251 0.20304 0.0
H227 H 0.08876 0.6964 0.22564 0.0
C228 C 0.32355 0.03303 0.53371 0.0
C229 C 0.26209 0.0211 0.54334 0.0
C230 C 0.20175 0.98296 0.51029 0.0
C231 C 0.26448 1.00034 0.50035 0.0
N232 N 0.3871 0.05074 0.50187 0.0
N233 N 0.1455 0.99551 0.54059 0.0
C234 C 0.32601 0.02816 0.51185 0.0
C235 C 0.20182 0.99875 0.53157 0.0
N236 N 0.37866 0.04575 0.54552 0.0
N237 N 0.14217 0.95167 0.4994 0.0
H238 H 0.14424 0.00798 0.55604 0.0
H239 H 0.10227 0.98664 0.53245 0.0
H240 H 0.14024 0.94172 0.48363 0.0
H241 H 0.09403 0.93111 0.50622 0.0
H242 H 0.42184 0.04632 0.53966 0.0
H243 H 0.37933 0.05036 0.56155 0.0
H244 H 0.43424 0.07915 0.50903 0.0
H245 H 0.39114 0.045 0.48604 0.0
C246 C 0.27323 0.2193 0.8396 0.0
C247 C 0.24606 0.25242 0.82749 0.0
C248 C 0.21029 0.28468 0.85929 0.0
C249 C 0.24341 0.2575 0.87137 0.0
N250 N 0.32948 0.22382 0.87164 0.0
N251 N 0.21403 0.33967 0.82689 0.0
C252 C 0.28216 0.23253 0.86113 0.0
C253 C 0.22254 0.29245 0.83765 0.0
N254 N 0.2873 0.1726 0.83113 0.0
N255 N 0.16433 0.29969 0.86793 0.0
H256 H 0.22818 0.35148 0.81138 0.0
H257 H 0.2017 0.37319 0.8341 0.0
H258 H 0.14898 0.28988 0.88336 0.0
H259 H 0.13534 0.3143 0.85906 0.0
H260 H 0.30167 0.14349 0.84007 0.0
H261 H 0.2772 0.15705 0.8158 0.0
H262 H 0.36204 0.21033 0.86431 0.0
H263 H 0.34251 0.23905 0.88693 0.0
C264 C 0.18915 0.36566 0.03269 0.0
C265 C 0.12328 0.3118 0.03837 0.0
C266 C 0.10831 0.26364 1.00361 0.0
C267 C 0.1769 0.31278 0.99872 0.0
N268 N 0.28667 0.40411 1.00974 0.0
N269 N 0.02768 0.19994 0.03092 0.0
C270 C 0.21859 0.36196 1.01361 0.0
C271 C 0.08464 0.25827 0.02425 0.0
N272 N 0.22261 0.42137 0.04513 0.0
N273 N 0.06587 0.22121 0.98868 0.0
H274 H 0.011 0.19166 0.04627 0.0
H275 H 1.00161 0.15654 1.02185 0.0
H276 H 0.08155 0.22213 0.97346 0.0
H277 H 0.01354 0.18923 0.99098 0.0
H278 H 0.26761 0.46532 0.04073 0.0
H279 H 0.20236 0.42619 0.0591 0.0
H280 H 0.32104 0.43564 1.02087 0.0
H281 H 0.30974 0.40376 0.99581 0.0
C282 C 0.84406 0.19724 0.36712 0.0
C283 C 0.85012 0.14451 0.37697 0.0
C284 C 0.85842 0.10021 0.34353 0.0
C285 C 0.84773 0.14966 0.3333 0.0
N286 N 0.81787 0.23778 0.33547 0.0
N287 N 0.83577 0.0318 0.37438 0.0
C288 C 0.83649 0.19594 0.34516 0.0
C289 C 0.84805 0.09127 0.3651 0.0
N290 N 0.84761 0.2493 0.37861 0.0
N291 N 0.88495 0.06627 0.33321 0.0
H292 H 0.82463 0.02219 0.39014 0.0
H293 H 0.82884 0.98958 0.36601 0.0
H294 H 0.90283 0.07808 0.31805 0.0
H295 H 0.89839 0.03371 0.34061 0.0
H296 H 0.85087 0.29307 0.37215 0.0
H297 H 0.85135 0.25029 0.3947 0.0
H298 H 0.80338 0.2685 0.34336 0.0
H299 H 0.81111 0.23719 0.31951 0.0
C300 C 0.63536 0.81526 0.70089 0.0
C301 C 0.68644 0.85187 0.71586 0.0
C302 C 0.75074 0.9438 0.69082 0.0
C303 C 0.69861 0.90853 0.67596 0.0
N304 N 0.58471 0.81806 0.66814 0.0
N305 N 0.78302 0.95785 0.72686 0.0
C306 C 0.63888 0.84625 0.68135 0.0
C307 C 0.74067 0.91861 0.71143 0.0
N308 N 0.58404 0.7504 0.70533 0.0
N309 N 0.81188 0.99896 0.68498 0.0
H310 H 0.77727 0.94101 0.74213 0.0
H311 H 0.81942 0.00931 0.72496 0.0
H312 H 0.82285 0.01823 0.66991 0.0
H313 H 0.85445 0.02143 0.69453 0.0
H314 H 0.55029 0.71746 0.69433 0.0
H315 H 0.57701 0.72858 0.72005 0.0
H316 H 0.53726 0.77641 0.67202 0.0
H317 H 0.58525 0.83977 0.65383 0.0
C318 C 0.8604 0.7524 0.03818 0.0
C319 C 0.84322 0.69111 0.04904 0.0
C320 C 0.83291 0.63432 1.01581 0.0
C321 C 0.84427 0.69434 1.00532 0.0
N322 N 0.84324 0.80032 1.00702 0.0
N323 N 0.803 0.57028 0.0482 0.0
C324 C 0.84971 0.75006 1.01667 0.0
C325 C 0.82629 0.63079 0.03783 0.0
N326 N 0.89254 0.81409 0.04787 0.0
N327 N 0.83032 0.58178 1.00481 0.0
H328 H 0.79707 0.56614 0.06425 0.0
H329 H 0.78428 0.52349 0.04086 0.0
H330 H 0.83365 0.58267 0.9887 0.0
H331 H 0.82935 0.53958 1.01166 0.0
H332 H 0.91073 0.86038 0.03998 0.0
H333 H 0.90967 0.81989 0.06304 0.0
H334 H 0.8415 0.83914 1.0151 0.0
H335 H 0.83152 0.79854 0.99137 0.0
C336 C 0.09145 0.80066 0.35773 0.0
C337 C 0.12759 0.79209 0.34114 0.0
C338 C 0.2242 0.82227 0.36418 0.0
C339 C 0.18446 0.82252 0.38128 0.0
N340 N 0.07349 0.79405 0.39471 0.0
N341 N 0.22249 0.77979 0.32977 0.0
C342 C 0.1159 0.80603 0.37816 0.0
C343 C 0.19226 0.79838 0.34469 0.0
N344 N 0.03567 0.80727 0.35397 0.0
N345 N 0.29303 0.84857 0.36599 0.0
H346 H 0.20027 0.7609 0.31543 0.0
H347 H 0.26631 0.77684 0.33242 0.0
H348 H 0.3198 0.86958 0.37956 0.0
H349 H 0.3248 0.85594 0.35336 0.0
H350 H 0.01169 0.82015 0.36542 0.0
H351 H 0.01832 0.808 0.3391 0.0
H352 H 0.0214 0.77616 0.39317 0.0
H353 H 0.08865 0.79445 0.40995 0.0
C354 C 0.35631 0.10821 0.68525 0.0
C355 C 0.33933 0.14222 0.66982 0.0
C356 C 0.36136 0.23187 0.69467 0.0
C357 C 0.36208 0.18979 0.71084 0.0
N358 N 0.36023 0.08714 0.72187 0.0
N359 N 0.32196 0.23598 0.66033 0.0
C360 C 0.361 0.12832 0.70623 0.0
C361 C 0.34228 0.20484 0.67447 0.0
N362 N 0.36833 0.05696 0.67978 0.0
N363 N 0.37871 0.29769 0.69878 0.0
H364 H 0.3061 0.21774 0.64546 0.0
H365 H 0.31557 0.27721 0.66392 0.0
H366 H 0.3944 0.31868 0.71345 0.0
H367 H 0.38484 0.33298 0.68735 0.0
H368 H 0.38707 0.03469 0.69 0.0
H369 H 0.36617 0.04147 0.66451 0.0
H370 H 0.35075 0.03765 0.71955 0.0
H371 H 0.3651 0.101 0.73739 0.0
C372 C 0.06938 0.58053 0.11183 0.0
C373 C 0.02196 0.58358 0.09838 0.0
C374 C 1.00077 0.47713 0.08195 0.0
C375 C 0.04019 0.46899 0.09752 0.0
N376 N 0.10212 0.50733 0.12962 0.0
N377 N 0.94057 0.53492 0.07072 0.0
C378 C 0.07231 0.51946 0.11302 0.0
C379 C 0.98715 0.53188 0.08341 0.0
N380 N 0.1116 0.63592 0.12346 0.0
N381 N 0.97874 0.43442 0.06534 0.0
H382 H 0.9336 0.57708 0.07015 0.0
H383 H 0.90695 0.49468 0.06142 0.0
H384 H 0.98824 0.39422 0.06362 0.0
H385 H 0.95604 0.44211 0.05242 0.0
H386 H 0.15139 0.63874 0.13225 0.0
H387 H 0.11149 0.68184 0.12255 0.0
H388 H 0.12001 0.53925 0.1424 0.0
H389 H 0.10238 0.46178 0.13173 0.0
C390 C 0.54899 0.96926 0.45355 0.0
C391 C 0.58815 0.99441 0.43517 0.0
C392 C 0.49013 0.98929 0.41741 0.0
C393 C 0.45397 0.97284 0.43653 0.0
N394 N 0.45228 0.95552 0.47352 0.0
N395 N 0.59954 0.03375 0.39992 0.0
C396 C 0.48402 0.96441 0.45479 0.0
C397 C 0.55962 1.0057 0.41715 0.0
N398 N 0.57414 0.95008 0.46983 0.0
N399 N 0.45738 0.9864 0.39939 0.0
H400 H 0.64946 0.04286 0.39882 0.0
H401 H 0.58458 0.05132 0.38719 0.0
H402 H 0.40632 0.97365 0.39886 0.0
H403 H 0.47888 0.99067 0.38481 0.0
H404 H 0.54558 0.92512 0.48298 0.0
H405 H 0.62175 0.95338 0.46934 0.0
H406 H 0.47519 0.95703 0.48759 0.0
H407 H 0.40521 0.95273 0.47529 0.0
C408 C 0.42608 0.48265 0.77751 0.0
C409 C 0.40978 0.45158 0.75781 0.0
C410 C 0.50893 0.55158 0.74238 0.0
C411 C 0.52481 0.58331 0.76203 0.0
N412 N 0.49263 0.58501 0.7976 0.0
N413 N 0.42441 0.46061 0.72095 0.0
C414 C 0.48127 0.55078 0.77937 0.0
C415 C 0.44785 0.48752 0.74004 0.0
N416 N 0.39048 0.44579 0.79459 0.0
N417 N 0.55265 0.58224 0.72606 0.0
H418 H 0.37835 0.41504 0.71902 0.0
H419 H 0.4464 0.48608 0.70712 0.0
H420 H 0.59696 0.62983 0.7271 0.0
H421 H 0.5477 0.55881 0.71187 0.0
H422 H 0.40513 0.46175 0.80971 0.0
H423 H 0.34756 0.3971 0.79365 0.0
H424 H 0.45842 0.56738 0.81 0.0
H425 H 0.53453 0.63346 0.80001 0.0
C426 C 0.44668 0.97161 0.59746 0.0
C427 C 0.44316 0.01636 0.61197 0.0
C428 C 0.54626 0.03094 0.62903 0.0
C429 C 0.55396 0.99217 0.6132 0.0
N430 N 0.5181 0.93514 0.58033 0.0
N431 N 0.49376 0.09604 0.64003 0.0
C432 C 0.50568 0.96464 0.59692 0.0
C433 C 0.49424 0.04825 0.6273 0.0
N434 N 0.394 0.93625 0.58407 0.0
N435 N 0.58654 0.0486 0.64619 0.0
H436 H 0.45496 0.10808 0.63996 0.0
H437 H 0.53407 0.12702 0.64973 0.0
H438 H 0.62471 0.03628 0.64816 0.0
H439 H 0.57818 0.07002 0.65928 0.0
H440 H 0.39024 0.89744 0.57463 0.0
H441 H 0.35097 0.94172 0.58356 0.0
H442 H 0.48891 0.92107 0.56693 0.0
H443 H 0.56152 0.93057 0.579 0.0
C444 C 0.48579 0.46104 0.92664 0.0
C445 C 0.43851 0.45837 0.94156 0.0
C446 C 0.52971 0.55938 0.95868 0.0
C447 C 0.57614 0.56451 0.94304 0.0
N448 N 0.59495 0.53037 0.90949 0.0
N449 N 0.41156 0.51332 0.96893 0.0
C450 C 0.55321 0.51809 0.92626 0.0
C451 C 0.45922 0.51029 0.95666 0.0
N452 N 0.46631 0.40931 0.91273 0.0
N453 N 0.55316 0.59865 0.97601 0.0
H454 H 0.35953 0.47791 0.96812 0.0
H455 H 0.42288 0.55415 0.97864 0.0
H456 H 0.60445 0.63469 0.97826 0.0
H457 H 0.52268 0.59138 0.98896 0.0
H458 H 0.50061 0.40441 0.90313 0.0
H459 H 0.41642 0.36846 0.91169 0.0
H460 H 0.57879 0.50261 0.89585 0.0
H461 H 0.64396 0.57281 0.90831 0.0
C462 C 0.01266 0.53501 0.25989 0.0
C463 C 0.03286 0.5708 0.27881 0.0
C464 C 0.03172 0.47256 0.29549 0.0
C465 C 0.01642 0.43906 0.27614 0.0
N466 N 0.00969 0.44484 0.23916 0.0
N467 N 0.07186 0.57893 0.31391 0.0
C468 C 0.01198 0.4723 0.2581 0.0
C469 C 0.04579 0.54125 0.2964 0.0
N470 N 0.99332 0.56046 0.24373 0.0
N471 N 0.02973 0.43789 0.31309 0.0
H472 H 0.0795 0.62809 0.31551 0.0
H473 H 0.08973 0.56312 0.32636 0.0
H474 H 0.02096 0.38807 0.31298 0.0
H475 H 0.03236 0.4568 0.32791 0.0
H476 H 0.97215 0.53349 0.23018 0.0
H477 H 0.9924 0.60594 0.2446 0.0
H478 H 0.01218 0.46933 0.22523 0.0
H479 H 0.01328 0.40097 0.23747 0.0
C480 C 0.04754 0.05711 0.11213 0.0
C481 C 0.00834 0.07385 0.09869 0.0
C482 C 0.93148 0.95204 0.0922 0.0
C483 C 0.97619 0.93629 0.10325 0.0
N484 N 0.07944 0.97436 0.12288 0.0
N485 N 0.91897 0.03798 0.07341 0.0
C486 C 0.03527 0.98909 0.11284 0.0
C487 C 0.95162 0.02151 0.08812 0.0
N488 N 0.09412 0.10544 0.12512 0.0
N489 N 0.86928 0.90092 0.08581 0.0
H490 H 0.9324 0.08815 0.06983 0.0
H491 H 0.88261 1.00229 0.06347 0.0
H492 H 0.8525 0.8494 0.08818 0.0
H493 H 0.83182 0.90973 0.07973 0.0
H494 H 0.11853 0.09451 0.13688 0.0
H495 H 0.10348 0.15538 0.12567 0.0
H496 H 0.12773 0.01166 0.12773 0.0
H497 H 0.06979 0.92476 0.12535 0.0
C498 C 1.0036 0.02025 0.41758 0.0
C499 C 0.98766 0.04003 0.43669 0.0
C500 C 0.08904 0.0452 0.45228 0.0
C501 C 0.09984 0.0177 0.43401 0.0
N502 N 0.06331 0.97101 0.39998 0.0
N503 N 1.00824 0.05863 0.47339 0.0
C504 C 0.05586 1.00286 0.41686 0.0
C505 C 0.02878 0.04949 0.45435 0.0
N506 N 0.97134 0.0212 0.39988 0.0
N507 N 0.13633 0.067 0.4677 0.0
H508 H 0.96309 0.05934 0.47583 0.0
H509 H 0.0321 0.05839 0.4871 0.0
H510 H 0.18077 0.06413 0.46668 0.0
H511 H 0.13476 0.09362 0.48057 0.0
H512 H 0.98597 0.01448 0.3852 0.0
H513 H 0.93398 0.035 0.3996 0.0
H514 H 0.02759 0.9509 0.38815 0.0
H515 H 0.10333 0.961 0.39839 0.0
C516 C 0.03076 0.03032 0.78007 0.0
C517 C 0.05883 0.04904 0.75983 0.0
C518 C 0.95228 0.95717 0.74514 0.0
C519 C 0.92487 0.93729 0.76544 0.0
N520 N 0.94006 0.9477 0.80239 0.0
N521 N 0.052 0.02512 0.72338 0.0
C522 C 0.96473 0.97205 0.78295 0.0
C523 C 0.02129 0.01073 0.74244 0.0
N524 N 0.06734 0.06855 0.79658 0.0
N525 N 0.91132 0.92731 0.72843 0.0
H526 H 0.10134 0.06576 0.72069 0.0
H527 H 0.03053 0.99447 0.71048 0.0
H528 H 0.86111 0.88712 0.72974 0.0
H529 H 0.92523 0.9451 0.71331 0.0
H530 H 0.04705 0.06382 0.81136 0.0
H531 H 0.11794 0.10781 0.79536 0.0
H532 H 0.96885 0.96528 0.81579 0.0
H533 H 0.89157 0.9059 0.80514 0.0
C534 C 0.97261 1.00286 0.63494 0.0
C535 C 0.94668 0.02212 0.61781 0.0
C536 C 0.05744 0.06959 0.59996 0.0
C537 C 0.08207 0.04665 0.61658 0.0
N538 N 0.06374 0.98854 0.64935 0.0
N539 N 0.96095 0.0687 0.58335 0.0
C540 C 0.03975 0.01237 0.63393 0.0
C541 C 0.98846 0.05495 0.60024 0.0
N542 N 0.93328 0.97717 0.65241 0.0
N543 N 0.10007 0.10503 0.58379 0.0
H544 H 0.91174 0.06146 0.58324 0.0
H545 H 0.98511 0.08401 0.56901 0.0
H546 H 0.14841 0.11074 0.58183 0.0
H547 H 0.08901 0.13119 0.57261 0.0
H548 H 0.95057 0.9682 0.6663 0.0
H549 H 0.88383 0.96912 0.65354 0.0
H550 H 0.0337 0.95675 0.66136 0.0
H551 H 0.11367 0.99766 0.64966 0.0
C552 C 0.97646 0.97059 0.92263 0.0
C553 C 0.95951 0.93498 0.94182 0.0
C554 C 0.04531 0.0391 0.95926 0.0
C555 C 0.06595 0.07289 0.93979 0.0
N556 N 0.05849 0.06868 0.90256 0.0
N557 N 0.98254 0.93191 0.97804 0.0
C558 C 0.03339 0.03805 0.92136 0.0
C559 C 0.99505 0.96838 0.96007 0.0
N560 N 0.93673 0.94046 0.9057 0.0
N561 N 0.07189 0.07515 0.97702 0.0
H562 H 0.94496 0.88075 0.97932 0.0
H563 H 0.01214 0.95083 0.99127 0.0
H564 H 0.11022 0.12636 0.97707 0.0
H565 H 0.05286 0.05584 0.99172 0.0
H566 H 0.9416 0.96609 0.89182 0.0
H567 H 0.89456 0.89115 0.90605 0.0
H568 H 0.04223 0.04339 0.88853 0.0
H569 H 0.09994 0.11806 0.90095 0.0
C570 C 0.9622 0.93713 0.29044 0.0
C571 C 0.01921 0.94189 0.27977 0.0
C572 C 0.04681 0.05407 0.26577 0.0
C573 C 0.98674 0.04685 0.27511 0.0
N574 N 0.87827 0.97303 0.29209 0.0
N575 N 0.10364 0.99566 0.25258 0.0
C576 C 0.94149 0.98566 0.28607 0.0
C577 C 0.0583 0.99789 0.26613 0.0
N578 N 0.9297 0.88844 0.30546 0.0
N579 N 0.09268 0.11414 0.25632 0.0
H580 H 0.11062 0.95366 0.2514 0.0
H581 H 0.12837 0.03177 0.24087 0.0
H582 H 0.0849 0.15555 0.25477 0.0
H583 H 0.14085 0.12462 0.25136 0.0
H584 H 0.89275 0.88758 0.31531 0.0
H585 H 0.94407 0.85277 0.30945 0.0
H586 H 0.84091 0.92617 0.29814 0.0
H587 H 0.86075 0.00695 0.28943 0.0
loop_
_geom_bond_atom_site_label_1
_geom_bond_atom_site_label_2
_geom_bond_distance
_geom_bond_site_symmetry_2
_ccdc_geom_bond_type
Mg0 O7 2.141 . S
Mg0 O8 2.048 . S
Mg0 O9 2.048 . S
Mg0 O12 2.141 . S
C1 O2 1.313 . S
C1 O8 1.195 . S
O2 C1 1.313 . S
C3 O4 1.245 . S
C3 O12 1.289 . S
O4 C3 1.245 . S
C5 O6 1.245 . S
C5 O7 1.289 . S
O6 C5 1.245 . S
O7 Mg0 2.141 . S
O7 C5 1.289 . S
O8 Mg0 2.048 . S
O8 C1 1.195 . S
O9 Mg0 2.048 . S
O9 C10 1.195 . S
C10 O9 1.195 . S
C10 O11 1.313 . S
O11 C10 1.313 . S
O12 Mg0 2.141 . S
O12 C3 1.289 . S
Mg13 O20 2.141 . S
Mg13 O21 2.048 . S
Mg13 O22 2.048 . S
Mg13 O25 2.141 . S
C14 O15 1.313 . S
C14 O21 1.195 . S
O15 C14 1.313 . S
C16 O17 1.245 . S
C16 O25 1.289 . S
O17 C16 1.245 . S
C18 O19 1.245 . S
C18 O20 1.289 . S
O19 C18 1.245 . S
O20 Mg13 2.141 . S
O20 C18 1.289 . S
O21 Mg13 2.048 . S
O21 C14 1.195 . S
O22 Mg13 2.048 . S
O22 C23 1.195 . S
C23 O22 1.195 . S
C23 O24 1.313 . S
O24 C23 1.313 . S
O25 Mg13 2.141 . S
O25 C16 1.289 . S
Mg26 O33 2.141 . S
Mg26 O34 2.048 . S
Mg26 O35 2.048 . S
Mg26 O38 2.141 . S
C27 O28 1.313 . S
C27 O34 1.195 . S
O28 C27 1.313 . S
C29 O30 1.245 . S
C29 O38 1.289 . S
O30 C29 1.245 . S
C31 O32 1.245 . S
C31 O33 1.289 . S
O32 C31 1.245 . S
O33 Mg26 2.141 . S
O33 C31 1.289 . S
O34 Mg26 2.048 . S
O34 C27 1.195 . S
O35 Mg26 2.048 . S
O35 C36 1.195 . S
C36 O35 1.195 . S
C36 O37 1.313 . S
O37 C36 1.313 . S
O38 Mg26 2.141 . S
O38 C29 1.289 . S
Mg39 O46 2.141 . S
Mg39 O47 2.048 . S
Mg39 O48 2.048 . S
Mg39 O51 2.141 . S
C40 O41 1.313 . S
C40 O47 1.195 . S
O41 C40 1.313 . S
C42 O43 1.245 . S
C42 O51 1.289 . S
O43 C42 1.245 . S
C44 O45 1.245 . S
C44 O46 1.289 . S
O45 C44 1.245 . S
O46 Mg39 2.141 . S
O46 C44 1.289 . S
O47 Mg39 2.048 . S
O47 C40 1.195 . S
O48 Mg39 2.048 . S
O48 C49 1.195 . S
C49 O48 1.195 . S
C49 O50 1.313 . S
O50 C49 1.313 . S
O51 Mg39 2.141 . S
O51 C42 1.289 . S
Mg52 O59 2.141 . S
Mg52 O60 2.048 . S
Mg52 O61 2.048 . S
Mg52 O64 2.141 . S
C53 O54 1.313 . S
C53 O60 1.195 . S
O54 C53 1.313 . S
C55 O56 1.245 . S
C55 O64 1.289 . S
O56 C55 1.245 . S
C57 O58 1.245 . S
C57 O59 1.289 . S
O58 C57 1.245 . S
O59 Mg52 2.141 . S
O59 C57 1.289 . S
O60 Mg52 2.048 . S
O60 C53 1.195 . S
O61 Mg52 2.048 . S
O61 C62 1.195 . S
C62 O61 1.195 . S
C62 O63 1.313 . S
O63 C62 1.313 . S
O64 Mg52 2.141 . S
O64 C55 1.289 . S
Mg65 O72 2.141 . S
Mg65 O73 2.048 . S
Mg65 O74 2.048 . S
Mg65 O77 2.141 . S
C66 O67 1.313 . S
C66 O73 1.195 . S
O67 C66 1.313 . S
C68 O69 1.245 . S
C68 O77 1.289 . S
O69 C68 1.245 . S
C70 O71 1.245 . S
C70 O72 1.289 . S
O71 C70 1.245 . S
O72 Mg65 2.141 . S
O72 C70 1.289 . S
O73 Mg65 2.048 . S
O73 C66 1.195 . S
O74 Mg65 2.048 . S
O74 C75 1.195 . S
C75 O74 1.195 . S
C75 O76 1.313 . S
O76 C75 1.313 . S
O77 Mg65 2.141 . S
O77 C68 1.289 . S
Mg78 O85 2.141 . S
Mg78 O86 2.048 . S
Mg78 O87 2.048 . S
Mg78 O90 2.141 . S
C79 O80 1.313 . S
C79 O86 1.195 . S
O80 C79 1.313 . S
C81 O82 1.245 . S
C81 O90 1.289 . S
O82 C81 1.245 . S
C83 O84 1.245 . S
C83 O85 1.289 . S
O84 C83 1.245 . S
O85 Mg78 2.141 . S
O85 C83 1.289 . S
O86 Mg78 2.048 . S
O86 C79 1.195 . S
O87 Mg78 2.048 . S
O87 C88 1.195 . S
C88 O87 1.195 . S
C88 O89 1.313 . S
O89 C88 1.313 . S
O90 Mg78 2.141 . S
O90 C81 1.289 . S
Mg91 O98 2.141 . S
Mg91 O99 2.048 . S
Mg91 O100 2.048 . S
Mg91 O103 2.141 . S
C92 O93 1.313 . S
C92 O99 1.195 . S
O93 C92 1.313 . S
C94 O95 1.245 . S
C94 O103 1.289 . S
O95 C94 1.245 . S
C96 O97 1.245 . S
C96 O98 1.289 . S
O97 C96 1.245 . S
O98 Mg91 2.141 . S
O98 C96 1.289 . S
O99 Mg91 2.048 . S
O99 C92 1.195 . S
O100 Mg91 2.048 . S
O100 C101 1.195 . S
C101 O100 1.195 . S
C101 O102 1.313 . S
O102 C101 1.313 . S
O103 Mg91 2.141 . S
O103 C94 1.289 . S
Mg104 O111 2.141 . S
Mg104 O112 2.048 . S
Mg104 O113 2.048 . S
Mg104 O116 2.141 . S
C105 O106 1.313 . S
C105 O112 1.195 . S
O106 C105 1.313 . S
C107 O108 1.245 . S
C107 O116 1.289 . S
O108 C107 1.245 . S
C109 O110 1.245 . S
C109 O111 1.289 . S
O110 C109 1.245 . S
O111 Mg104 2.141 . S
O111 C109 1.289 . S
O112 Mg104 2.048 . S
O112 C105 1.195 . S
O113 Mg104 2.048 . S
O113 C114 1.195 . S
C114 O113 1.195 . S
C114 O115 1.313 . S
O115 C114 1.313 . S
O116 Mg104 2.141 . S
O116 C107 1.289 . S
Mg117 O124 2.141 . S
Mg117 O125 2.048 . S
Mg117 O126 2.048 . S
Mg117 O129 2.141 . S
C118 O119 1.313 . S
C118 O125 1.195 . S
O119 C118 1.313 . S
C120 O121 1.245 . S
C120 O129 1.289 . S
O121 C120 1.245 . S
C122 O123 1.245 . S
C122 O124 1.289 . S
O123 C122 1.245 . S
O124 Mg117 2.141 . S
O124 C122 1.289 . S
O125 Mg117 2.048 . S
O125 C118 1.195 . S
O126 Mg117 2.048 . S
O126 C127 1.195 . S
C127 O126 1.195 . S
C127 O128 1.313 . S
O128 C127 1.313 . S
O129 Mg117 2.141 . S
O129 C120 1.289 . S
Mg130 O137 2.141 . S
Mg130 O138 2.048 . S
Mg130 O139 2.048 . S
Mg130 O142 2.141 . S
C131 O132 1.313 . S
C131 O138 1.195 . S
O132 C131 1.313 . S
C133 O134 1.245 . S
C133 O142 1.289 . S
O134 C133 1.245 . S
C135 O136 1.245 . S
C135 O137 1.289 . S
O136 C135 1.245 . S
O137 Mg130 2.141 . S
O137 C135 1.289 . S
O138 Mg130 2.048 . S
O138 C131 1.195 . S
O139 Mg130 2.048 . S
O139 C140 1.195 . S
C140 O139 1.195 . S
C140 O141 1.313 . S
O141 C140 1.313 . S
O142 Mg130 2.141 . S
O142 C133 1.289 . S
Mg143 O150 2.141 . S
Mg143 O151 2.048 . S
Mg143 O152 2.048 . S
Mg143 O155 2.141 . S
C144 O145 1.313 . S
C144 O151 1.195 . S
O145 C144 1.313 . S
C146 O147 1.245 . S
C146 O155 1.289 . S
O147 C146 1.245 . S
C148 O149 1.245 . S
C148 O150 1.289 . S
O149 C148 1.245 . S
O150 Mg143 2.141 . S
O150 C148 1.289 . S
O151 Mg143 2.048 . S
O151 C144 1.195 . S
O152 Mg143 2.048 . S
O152 C153 1.195 . S
C153 O152 1.195 . S
C153 O154 1.313 . S
O154 C153 1.313 . S
O155 Mg143 2.141 . S
O155 C146 1.289 . S
C156 C157 1.363 . S
C156 C162 1.379 1_655 S
C156 N164 1.356 . S
C157 C156 1.363 . S
C157 C163 1.363 . S
C158 C159 1.362 . S
C158 C163 1.379 1_455 S
C158 N165 1.357 . S
C159 C158 1.362 . S
C159 C162 1.363 . S
N160 C162 1.356 . S
N160 H172 0.984 . S
N160 H173 0.985 . S
N161 C163 1.356 . S
N161 H166 0.984 . S
N161 H167 0.985 . S
C162 C156 1.379 1_455 S
C162 C159 1.363 . S
C162 N160 1.356 . S
C163 C157 1.363 . S
C163 C158 1.379 1_655 S
C163 N161 1.356 . S
N164 C156 1.356 . S
N164 H170 0.984 1_655 S
N164 H171 0.984 . S
N165 C158 1.357 . S
N165 H168 0.984 . S
N165 H169 0.985 1_455 S
H166 N161 0.984 . S
H167 N161 0.985 . S
H168 N165 0.984 . S
H169 N165 0.985 1_655 S
H170 N164 0.984 1_455 S
H171 N164 0.984 . S
H172 N160 0.984 . S
H173 N160 0.985 . S
C174 C175 1.363 1_565 S
C174 C180 1.379 . S
C174 N182 1.356 . S
C175 C174 1.363 1_545 S
C175 C181 1.363 . S
C176 C177 1.363 1_545 S
C176 C181 1.379 . S
C176 N183 1.356 . S
C177 C176 1.363 1_565 S
C177 C180 1.363 . S
N178 C180 1.356 . S
N178 H190 0.984 . S
N178 H191 0.985 . S
N179 C181 1.356 . S
N179 H184 0.984 . S
N179 H185 0.985 . S
C180 C174 1.379 . S
C180 C177 1.363 . S
C180 N178 1.356 . S
C181 C175 1.363 . S
C181 C176 1.379 . S
C181 N179 1.356 . S
N182 C174 1.356 . S
N182 H188 0.984 . S
N182 H189 0.984 . S
N183 C176 1.356 . S
N183 H186 0.984 . S
N183 H187 0.985 . S
H184 N179 0.984 . S
H185 N179 0.985 . S
H186 N183 0.984 . S
H187 N183 0.985 . S
H188 N182 0.984 . S
H189 N182 0.984 . S
H190 N178 0.984 . S
H191 N178 0.985 . S
C192 C193 1.363 . S
C192 C198 1.379 . S
C192 N200 1.356 . S
C193 C192 1.363 . S
C193 C199 1.363 . S
C194 C195 1.363 . S
C194 C199 1.379 . S
C194 N201 1.356 . S
C195 C194 1.363 . S
C195 C198 1.363 . S
N196 C198 1.356 . S
N196 H208 0.984 . S
N196 H209 0.985 . S
N197 C199 1.356 . S
N197 H202 0.984 . S
N197 H203 0.985 . S
C198 C192 1.379 . S
C198 C195 1.363 . S
C198 N196 1.356 . S
C199 C193 1.363 . S
C199 C194 1.379 . S
C199 N197 1.356 . S
N200 C192 1.356 . S
N200 H206 0.984 . S
N200 H207 0.984 . S
N201 C194 1.356 . S
N201 H204 0.984 . S
N201 H205 0.985 . S
H202 N197 0.984 . S
H203 N197 0.985 . S
H204 N201 0.984 . S
H205 N201 0.985 . S
H206 N200 0.984 . S
H207 N200 0.984 . S
H208 N196 0.984 . S
H209 N196 0.985 . S
C210 C211 1.363 1_455 S
C210 C216 1.379 . S
C210 N218 1.356 . S
C211 C210 1.363 1_655 S
C211 C217 1.363 . S
C212 C213 1.363 1_655 S
C212 C217 1.379 . S
C212 N219 1.356 . S
C213 C212 1.363 1_455 S
C213 C216 1.363 . S
N214 C216 1.356 . S
N214 H226 0.984 . S
N214 H227 0.985 . S
N215 C217 1.356 . S
N215 H220 0.984 . S
N215 H221 0.985 . S
C216 C210 1.379 . S
C216 C213 1.363 . S
C216 N214 1.356 . S
C217 C211 1.363 . S
C217 C212 1.379 . S
C217 N215 1.356 . S
N218 C210 1.356 . S
N218 H224 0.984 . S
N218 H225 0.984 . S
N219 C212 1.356 . S
N219 H222 0.984 . S
N219 H223 0.985 . S
H220 N215 0.984 . S
H221 N215 0.985 . S
H222 N219 0.984 . S
H223 N219 0.985 . S
H224 N218 0.984 . S
H225 N218 0.984 . S
H226 N214 0.984 . S
H227 N214 0.985 . S
C228 C229 1.363 . S
C228 C234 1.379 . S
C228 N236 1.356 . S
C229 C228 1.363 . S
C229 C235 1.363 1_545 S
C230 C231 1.363 . S
C230 C235 1.379 . S
C230 N237 1.356 . S
C231 C230 1.363 . S
C231 C234 1.363 1_565 S
N232 C234 1.356 . S
N232 H244 0.984 . S
N232 H245 0.985 . S
N233 C235 1.356 . S
N233 H238 0.984 . S
N233 H239 0.985 . S
C234 C228 1.379 . S
C234 C231 1.363 1_545 S
C234 N232 1.356 . S
C235 C229 1.363 1_565 S
C235 C230 1.379 . S
C235 N233 1.356 . S
N236 C228 1.356 . S
N236 H242 0.984 . S
N236 H243 0.984 . S
N237 C230 1.356 . S
N237 H240 0.984 . S
N237 H241 0.985 . S
H238 N233 0.984 . S
H239 N233 0.985 . S
H240 N237 0.984 . S
H241 N237 0.985 . S
H242 N236 0.984 . S
H243 N236 0.984 . S
H244 N232 0.984 . S
H245 N232 0.985 . S
C246 C247 1.363 . S
C246 C252 1.379 . S
C246 N254 1.356 . S
C247 C246 1.363 . S
C247 C253 1.363 . S
C248 C249 1.363 . S
C248 C253 1.379 . S
C248 N255 1.356 . S
C249 C248 1.363 . S
C249 C252 1.363 . S
N250 C252 1.356 . S
N250 H262 0.984 . S
N250 H263 0.985 . S
N251 C253 1.356 . S
N251 H256 0.984 . S
N251 H257 0.985 . S
C252 C246 1.379 . S
C252 C249 1.363 . S
C252 N250 1.356 . S
C253 C247 1.363 . S
C253 C248 1.379 . S
C253 N251 1.356 . S
N254 C246 1.356 . S
N254 H260 0.984 . S
N254 H261 0.984 . S
N255 C248 1.356 . S
N255 H258 0.984 . S
N255 H259 0.985 . S
H256 N251 0.984 . S
H257 N251 0.985 . S
H258 N255 0.984 . S
H259 N255 0.985 . S
H260 N254 0.984 . S
H261 N254 0.984 . S
H262 N250 0.984 . S
H263 N250 0.985 . S
C264 C265 1.363 . S
C264 C270 1.379 1_554 S
C264 N272 1.356 . S
C265 C264 1.363 . S
C265 C271 1.363 . S
C266 C267 1.363 . S
C266 C271 1.379 1_556 S
C266 N273 1.356 . S
C267 C266 1.363 . S
C267 C270 1.363 . S
N268 C270 1.356 . S
N268 H280 0.984 . S
N268 H281 0.985 . S
N269 C271 1.356 . S
N269 H274 0.984 . S
N269 H275 0.985 . S
C270 C264 1.379 1_556 S
C270 C267 1.363 . S
C270 N268 1.356 . S
C271 C265 1.363 . S
C271 C266 1.379 1_554 S
C271 N269 1.356 . S
N272 C264 1.356 . S
N272 H278 0.984 . S
N272 H279 0.984 . S
N273 C266 1.356 . S
N273 H276 0.984 . S
N273 H277 0.985 . S
H274 N269 0.984 . S
H275 N269 0.985 . S
H276 N273 0.984 . S
H277 N273 0.985 . S
H278 N272 0.984 . S
H279 N272 0.984 . S
H280 N268 0.984 . S
H281 N268 0.985 . S
C282 C283 1.363 . S
C282 C288 1.379 . S
C282 N290 1.356 . S
C283 C282 1.363 . S
C283 C289 1.363 . S
C284 C285 1.363 . S
C284 C289 1.379 . S
C284 N291 1.356 . S
C285 C284 1.363 . S
C285 C288 1.363 . S
N286 C288 1.356 . S
N286 H298 0.984 . S
N286 H299 0.985 . S
N287 C289 1.356 . S
N287 H292 0.984 . S
N287 H293 0.985 1_545 S
C288 C282 1.379 . S
C288 C285 1.363 . S
C288 N286 1.356 . S
C289 C283 1.363 . S
C289 C284 1.379 . S
C289 N287 1.356 . S
N290 C282 1.356 . S
N290 H296 0.984 . S
N290 H297 0.984 . S
N291 C284 1.356 . S
N291 H294 0.984 . S
N291 H295 0.985 . S
H292 N287 0.984 . S
H293 N287 0.985 1_565 S
H294 N291 0.984 . S
H295 N291 0.985 . S
H296 N290 0.984 . S
H297 N290 0.984 . S
H298 N286 0.984 . S
H299 N286 0.985 . S
C300 C301 1.363 . S
C300 C306 1.379 . S
C300 N308 1.356 . S
C301 C300 1.363 . S
C301 C307 1.363 . S
C302 C303 1.363 . S
C302 C307 1.379 . S
C302 N309 1.356 . S
C303 C302 1.363 . S
C303 C306 1.363 . S
N304 C306 1.356 . S
N304 H316 0.984 . S
N304 H317 0.985 . S
N305 C307 1.356 . S
N305 H310 0.984 . S
N305 H311 0.985 . S
C306 C300 1.379 . S
C306 C303 1.363 . S
C306 N304 1.356 . S
C307 C301 1.363 . S
C307 C302 1.379 . S
C307 N305 1.356 . S
N308 C300 1.356 . S
N308 H314 0.984 . S
N308 H315 0.984 . S
N309 C302 1.356 . S
N309 H312 0.984 . S
N309 H313 0.985 . S
H310 N305 0.984 . S
H311 N305 0.985 . S
H312 N309 0.984 . S
H313 N309 0.985 . S
H314 N308 0.984 . S
H315 N308 0.984 . S
H316 N304 0.984 . S
H317 N304 0.985 . S
C318 C319 1.363 . S
C318 C324 1.379 1_554 S
C318 N326 1.356 . S
C319 C318 1.363 . S
C319 C325 1.363 . S
C320 C321 1.363 . S
C320 C325 1.379 1_556 S
C320 N327 1.356 . S
C321 C320 1.363 . S
C321 C324 1.363 . S
N322 C324 1.356 . S
N322 H334 0.984 . S
N322 H335 0.985 . S
N323 C325 1.356 . S
N323 H328 0.984 . S
N323 H329 0.985 . S
C324 C318 1.379 1_556 S
C324 C321 1.363 . S
C324 N322 1.356 . S
C325 C319 1.363 . S
C325 C320 1.379 1_554 S
C325 N323 1.356 . S
N326 C318 1.356 . S
N326 H332 0.984 . S
N326 H333 0.984 . S
N327 C320 1.356 . S
N327 H330 0.984 . S
N327 H331 0.985 . S
H328 N323 0.984 . S
H329 N323 0.985 . S
H330 N327 0.984 . S
H331 N327 0.985 . S
H332 N326 0.984 . S
H333 N326 0.984 . S
H334 N322 0.984 . S
H335 N322 0.985 . S
C336 C337 1.363 . S
C336 C342 1.379 . S
C336 N344 1.356 . S
C337 C336 1.363 . S
C337 C343 1.363 . S
C338 C339 1.363 . S
C338 C343 1.379 . S
C338 N345 1.356 . S
C339 C338 1.363 . S
C339 C342 1.363 . S
N340 C342 1.356 . S
N340 H352 0.984 . S
N340 H353 0.985 . S
N341 C343 1.356 . S
N341 H346 0.984 . S
N341 H347 0.985 . S
C342 C336 1.379 . S
C342 C339 1.363 . S
C342 N340 1.356 . S
C343 C337 1.363 . S
C343 C338 1.379 . S
C343 N341 1.356 . S
N344 C336 1.356 . S
N344 H350 0.984 1_455 S
N344 H351 0.984 . S
N345 C338 1.356 . S
N345 H348 0.984 . S
N345 H349 0.985 . S
H346 N341 0.984 . S
H347 N341 0.985 . S
H348 N345 0.984 . S
H349 N345 0.985 . S
H350 N344 0.984 1_655 S
H351 N344 0.984 . S
H352 N340 0.984 . S
H353 N340 0.985 . S
C354 C355 1.363 . S
C354 C360 1.379 . S
C354 N362 1.356 . S
C355 C354 1.363 . S
C355 C361 1.363 . S
C356 C357 1.363 . S
C356 C361 1.379 . S
C356 N363 1.356 . S
C357 C356 1.363 . S
C357 C360 1.363 . S
N358 C360 1.356 . S
N358 H370 0.984 . S
N358 H371 0.985 . S
N359 C361 1.356 . S
N359 H364 0.984 . S
N359 H365 0.985 . S
C360 C354 1.379 . S
C360 C357 1.363 . S
C360 N358 1.356 . S
C361 C355 1.363 . S
C361 C356 1.379 . S
C361 N359 1.356 . S
N362 C354 1.356 . S
N362 H368 0.984 . S
N362 H369 0.984 . S
N363 C356 1.356 . S
N363 H366 0.984 . S
N363 H367 0.985 . S
H364 N359 0.984 . S
H365 N359 0.985 . S
H366 N363 0.984 . S
H367 N363 0.985 . S
H368 N362 0.984 . S
H369 N362 0.984 . S
H370 N358 0.984 . S
H371 N358 0.985 . S
C372 C373 1.363 1_455 S
C372 C378 1.379 . S
C372 N380 1.356 . S
C373 C372 1.363 1_655 S
C373 C379 1.363 . S
C374 C375 1.363 1_655 S
C374 C379 1.379 . S
C374 N381 1.356 . S
C375 C374 1.363 1_455 S
C375 C378 1.363 . S
N376 C378 1.356 . S
N376 H388 0.984 . S
N376 H389 0.985 . S
N377 C379 1.356 . S
N377 H382 0.984 . S
N377 H383 0.985 . S
C378 C372 1.379 . S
C378 C375 1.363 . S
C378 N376 1.356 . S
C379 C373 1.363 . S
C379 C374 1.379 . S
C379 N377 1.356 . S
N380 C372 1.356 . S
N380 H386 0.984 . S
N380 H387 0.984 1_455 S
N381 C374 1.356 . S
N381 H384 0.984 1_655 S
N381 H385 0.985 . S
H382 N377 0.984 . S
H383 N377 0.985 . S
H384 N381 0.984 1_455 S
H385 N381 0.985 . S
H386 N380 0.984 . S
H387 N380 0.984 1_655 S
H388 N376 0.984 . S
H389 N376 0.985 . S
C390 C391 1.363 1_565 S
C390 C396 1.379 . S
C390 N398 1.356 . S
C391 C390 1.363 1_545 S
C391 C397 1.363 . S
C392 C393 1.363 1_545 S
C392 C397 1.379 . S
C392 N399 1.356 . S
C393 C392 1.363 1_565 S
C393 C396 1.363 . S
N394 C396 1.356 . S
N394 H406 0.984 . S
N394 H407 0.985 . S
N395 C397 1.356 . S
N395 H400 0.984 . S
N395 H401 0.985 . S
C396 C390 1.379 . S
C396 C393 1.363 . S
C396 N394 1.356 . S
C397 C391 1.363 . S
C397 C392 1.379 . S
C397 N395 1.356 . S
N398 C390 1.356 . S
N398 H404 0.984 . S
N398 H405 0.984 1_565 S
N399 C392 1.356 . S
N399 H402 0.984 1_545 S
N399 H403 0.985 . S
H400 N395 0.984 . S
H401 N395 0.985 . S
H402 N399 0.984 1_565 S
H403 N399 0.985 . S
H404 N398 0.984 . S
H405 N398 0.984 1_545 S
H406 N394 0.984 . S
H407 N394 0.985 . S
C408 C409 1.363 . S
C408 C414 1.379 . S
C408 N416 1.356 . S
C409 C408 1.363 . S
C409 C415 1.363 . S
C410 C411 1.363 . S
C410 C415 1.379 . S
C410 N417 1.356 . S
C411 C410 1.363 . S
C411 C414 1.363 . S
N412 C414 1.356 . S
N412 H424 0.984 . S
N412 H425 0.985 . S
N413 C415 1.356 . S
N413 H418 0.984 . S
N413 H419 0.985 . S
C414 C408 1.379 . S
C414 C411 1.363 . S
C414 N412 1.356 . S
C415 C409 1.363 . S
C415 C410 1.379 . S
C415 N413 1.356 . S
N416 C408 1.356 . S
N416 H422 0.984 . S
N416 H423 0.984 . S
N417 C410 1.356 . S
N417 H420 0.984 . S
N417 H421 0.985 . S
H418 N413 0.984 . S
H419 N413 0.985 . S
H420 N417 0.984 . S
H421 N417 0.985 . S
H422 N416 0.984 . S
H423 N416 0.984 . S
H424 N412 0.984 . S
H425 N412 0.985 . S
C426 C427 1.363 1_565 S
C426 C432 1.379 . S
C426 N434 1.356 . S
C427 C426 1.363 1_545 S
C427 C433 1.363 . S
C428 C429 1.363 1_545 S
C428 C433 1.379 . S
C428 N435 1.356 . S
C429 C428 1.363 1_565 S
C429 C432 1.363 . S
N430 C432 1.356 . S
N430 H442 0.984 . S
N430 H443 0.985 . S
N431 C433 1.356 . S
N431 H436 0.984 . S
N431 H437 0.985 . S
C432 C426 1.379 . S
C432 C429 1.363 . S
C432 N430 1.356 . S
C433 C427 1.363 . S
C433 C428 1.379 . S
C433 N431 1.356 . S
N434 C426 1.356 . S
N434 H440 0.984 . S
N434 H441 0.984 1_565 S
N435 C428 1.356 . S
N435 H438 0.984 1_545 S
N435 H439 0.985 . S
H436 N431 0.984 . S
H437 N431 0.985 . S
H438 N435 0.984 1_565 S
H439 N435 0.985 . S
H440 N434 0.984 . S
H441 N434 0.984 1_545 S
H442 N430 0.984 . S
H443 N430 0.985 . S
C444 C445 1.363 . S
C444 C450 1.379 . S
C444 N452 1.356 . S
C445 C444 1.363 . S
C445 C451 1.363 . S
C446 C447 1.363 . S
C446 C451 1.379 . S
C446 N453 1.356 . S
C447 C446 1.363 . S
C447 C450 1.363 . S
N448 C450 1.356 . S
N448 H460 0.984 . S
N448 H461 0.985 . S
N449 C451 1.356 . S
N449 H454 0.984 . S
N449 H455 0.985 . S
C450 C444 1.379 . S
C450 C447 1.363 . S
C450 N448 1.356 . S
C451 C445 1.363 . S
C451 C446 1.379 . S
C451 N449 1.356 . S
N452 C444 1.356 . S
N452 H458 0.984 . S
N452 H459 0.984 . S
N453 C446 1.356 . S
N453 H456 0.984 . S
N453 H457 0.985 . S
H454 N449 0.984 . S
H455 N449 0.985 . S
H456 N453 0.984 . S
H457 N453 0.985 . S
H458 N452 0.984 . S
H459 N452 0.984 . S
H460 N448 0.984 . S
H461 N448 0.985 . S
C462 C463 1.363 1_655 S
C462 C468 1.379 . S
C462 N470 1.356 . S
C463 C462 1.363 1_455 S
C463 C469 1.363 . S
C464 C465 1.363 1_455 S
C464 C469 1.379 . S
C464 N471 1.356 . S
C465 C464 1.363 1_655 S
C465 C468 1.363 . S
N466 C468 1.356 . S
N466 H478 0.984 . S
N466 H479 0.985 . S
N467 C469 1.356 . S
N467 H472 0.984 . S
N467 H473 0.985 . S
C468 C462 1.379 . S
C468 C465 1.363 . S
C468 N466 1.356 . S
C469 C463 1.363 . S
C469 C464 1.379 . S
C469 N467 1.356 . S
N470 C462 1.356 . S
N470 H476 0.984 . S
N470 H477 0.984 1_655 S
N471 C464 1.356 . S
N471 H474 0.984 1_455 S
N471 H475 0.985 . S
H472 N467 0.984 . S
H473 N467 0.985 . S
H474 N471 0.984 1_655 S
H475 N471 0.985 . S
H476 N470 0.984 . S
H477 N470 0.984 1_455 S
H478 N466 0.984 . S
H479 N466 0.985 . S
C480 C481 1.363 . S
C480 C486 1.379 1_545 S
C480 N488 1.356 . S
C481 C480 1.363 . S
C481 C487 1.363 1_455 S
C482 C483 1.363 . S
C482 C487 1.379 1_565 S
C482 N489 1.356 . S
C483 C482 1.363 . S
C483 C486 1.363 1_655 S
N484 C486 1.356 . S
N484 H496 0.984 . S
N484 H497 0.985 1_455 S
N485 C487 1.356 . S
N485 H490 0.984 1_655 S
N485 H491 0.985 . S
C486 C480 1.379 1_565 S
C486 C483 1.363 1_455 S
C486 N484 1.356 . S
C487 C481 1.363 1_655 S
C487 C482 1.379 1_545 S
C487 N485 1.356 . S
N488 C480 1.356 . S
N488 H494 0.984 . S
N488 H495 0.984 . S
N489 C482 1.356 . S
N489 H492 0.984 . S
N489 H493 0.985 . S
H490 N485 0.984 1_455 S
H491 N485 0.985 . S
H492 N489 0.984 . S
H493 N489 0.985 . S
H494 N488 0.984 . S
H495 N488 0.984 . S
H496 N484 0.984 . S
H497 N484 0.985 1_655 S
C498 C499 1.363 1_565 S
C498 C504 1.379 . S
C498 N506 1.356 . S
C499 C498 1.363 1_545 S
C499 C505 1.363 1_655 S
C500 C501 1.363 1_545 S
C500 C505 1.379 . S
C500 N507 1.356 . S
C501 C500 1.363 1_565 S
C501 C504 1.363 1_455 S
N502 C504 1.356 . S
N502 H514 0.984 . S
N502 H515 0.985 1_655 S
N503 C505 1.356 . S
N503 H508 0.984 1_455 S
N503 H509 0.985 . S
C504 C498 1.379 . S
C504 C501 1.363 1_655 S
C504 N502 1.356 . S
C505 C499 1.363 1_455 S
C505 C500 1.379 . S
C505 N503 1.356 . S
N506 C498 1.356 . S
N506 H512 0.984 . S
N506 H513 0.984 1_565 S
N507 C500 1.356 . S
N507 H510 0.984 1_545 S
N507 H511 0.985 . S
H508 N503 0.984 1_655 S
H509 N503 0.985 . S
H510 N507 0.984 1_565 S
H511 N507 0.985 . S
H512 N506 0.984 . S
H513 N506 0.984 1_545 S
H514 N502 0.984 . S
H515 N502 0.985 1_455 S
C516 C517 1.363 1_565 S
C516 C522 1.379 1_455 S
C516 N524 1.356 . S
C517 C516 1.363 1_545 S
C517 C523 1.363 . S
C518 C519 1.363 1_545 S
C518 C523 1.379 1_655 S
C518 N525 1.356 . S
C519 C518 1.363 1_565 S
C519 C522 1.363 . S
N520 C522 1.356 . S
N520 H532 0.984 . S
N520 H533 0.985 . S
N521 C523 1.356 . S
N521 H526 0.984 . S
N521 H527 0.985 . S
C522 C516 1.379 1_655 S
C522 C519 1.363 . S
C522 N520 1.356 . S
C523 C517 1.363 . S
C523 C518 1.379 1_455 S
C523 N521 1.356 . S
N524 C516 1.356 . S
N524 H530 0.984 . S
N524 H531 0.984 1_565 S
N525 C518 1.356 . S
N525 H528 0.984 1_545 S
N525 H529 0.985 . S
H526 N521 0.984 . S
H527 N521 0.985 . S
H528 N525 0.984 1_565 S
H529 N525 0.985 . S
H530 N524 0.984 . S
H531 N524 0.984 1_545 S
H532 N520 0.984 . S
H533 N520 0.985 . S
C534 C535 1.363 1_545 S
C534 C540 1.379 1_655 S
C534 N542 1.356 . S
C535 C534 1.363 1_565 S
C535 C541 1.363 . S
C536 C537 1.363 1_565 S
C536 C541 1.379 1_455 S
C536 N543 1.356 . S
C537 C536 1.363 1_545 S
C537 C540 1.363 . S
N538 C540 1.356 . S
N538 H550 0.984 . S
N538 H551 0.985 . S
N539 C541 1.356 . S
N539 H544 0.984 . S
N539 H545 0.985 . S
C540 C534 1.379 1_455 S
C540 C537 1.363 . S
C540 N538 1.356 . S
C541 C535 1.363 . S
C541 C536 1.379 1_655 S
C541 N539 1.356 . S
N542 C534 1.356 . S
N542 H548 0.984 . S
N542 H549 0.984 1_545 S
N543 C536 1.356 . S
N543 H546 0.984 1_565 S
N543 H547 0.985 . S
H544 N539 0.984 . S
H545 N539 0.985 . S
H546 N543 0.984 1_545 S
H547 N543 0.985 . S
H548 N542 0.984 . S
H549 N542 0.984 1_565 S
H550 N538 0.984 . S
H551 N538 0.985 . S
C552 C553 1.363 1_455 S
C552 C558 1.379 1_565 S
C552 N560 1.356 . S
C553 C552 1.363 1_655 S
C553 C559 1.363 . S
C554 C555 1.363 1_655 S
C554 C559 1.379 1_545 S
C554 N561 1.356 . S
C555 C554 1.363 1_455 S
C555 C558 1.363 . S
N556 C558 1.356 . S
N556 H568 0.984 . S
N556 H569 0.985 . S
N557 C559 1.356 . S
N557 H562 0.984 . S
N557 H563 0.985 . S
C558 C552 1.379 1_545 S
C558 C555 1.363 . S
C558 N556 1.356 . S
C559 C553 1.363 . S
C559 C554 1.379 1_565 S
C559 N557 1.356 . S
N560 C552 1.356 . S
N560 H566 0.984 . S
N560 H567 0.984 1_455 S
N561 C554 1.356 . S
N561 H564 0.984 1_655 S
N561 H565 0.985 . S
H562 N557 0.984 . S
H563 N557 0.985 . S
H564 N561 0.984 1_455 S
H565 N561 0.985 . S
H566 N560 0.984 . S
H567 N560 0.984 1_655 S
H568 N556 0.984 . S
H569 N556 0.985 . S
C570 C571 1.363 1_655 S
C570 C576 1.379 . S
C570 N578 1.356 . S
C571 C570 1.363 1_455 S
C571 C577 1.363 1_565 S
C572 C573 1.363 1_455 S
C572 C577 1.379 . S
C572 N579 1.356 . S
C573 C572 1.363 1_655 S
C573 C576 1.363 1_545 S
N574 C576 1.356 . S
N574 H586 0.984 . S
N574 H587 0.985 1_565 S
N575 C577 1.356 . S
N575 H580 0.984 1_545 S
N575 H581 0.985 . S
C576 C570 1.379 . S
C576 C573 1.363 1_565 S
C576 N574 1.356 . S
C577 C571 1.363 1_545 S
C577 C572 1.379 . S
C577 N575 1.356 . S
N578 C570 1.356 . S
N578 H584 0.984 . S
N578 H585 0.984 1_655 S
N579 C572 1.356 . S
N579 H582 0.984 1_455 S
N579 H583 0.985 . S
H580 N575 0.984 1_565 S
H581 N575 0.985 . S
H582 N579 0.984 1_655 S
H583 N579 0.985 . S
H584 N578 0.984 . S
H585 N578 0.984 1_455 S
H586 N574 0.984 . S
H587 N574 0.985 1_545 S
C157 C144 1.501 . S
C159 C1 1.501 . S
C175 C14 1.501 . S
C177 C79 1.501 . S
C193 C27 1.502 . S
C195 C92 1.502 . S
C211 C40 1.502 . S
C213 C105 1.502 . S
C229 C118 1.502 . S
C231 C53 1.502 . S
C247 C66 1.502 . S
C249 C131 1.502 . S
C265 C3 1.507 . S
C267 C133 1.507 . S
C283 C16 1.507 . S
C285 C146 1.507 . S
C301 C29 1.508 . S
C303 C81 1.507 . S
C319 C42 1.508 . S
C321 C94 1.508 . S
C337 C107 1.508 . S
C339 C55 1.508 . S
C355 C120 1.508 . S
C357 C68 1.508 . S
C373 C44 1.798 . S
C375 C5 1.798 . S
C391 C18 1.799 . S
C393 C57 1.799 . S
C409 C70 1.798 . S
C411 C31 1.798 . S
C427 C122 1.798 . S
C429 C83 1.798 . S
C445 C135 1.798 . S
C447 C96 1.798 . S
C463 C109 1.799 . S
C465 C148 1.799 . S
C481 C10 1.699 . S
C483 C49 1.699 . S
C499 C23 1.700 . S
C501 C62 1.700 . S
C517 C75 1.699 . S
C519 C36 1.699 . S
C535 C88 1.699 . S
C537 C127 1.699 . S
C553 C101 1.699 . S
C555 C140 1.699 . S
C571 C114 1.700 . S
C573 C153 1.700 . S
