# Generated by pormake.
# Topology uob, (4)-cn, num edge types: 1
# Building blocks:
#     Node 0, Type 0, BuildingBlock: CEKHIL_clean_sbu_0, # of connection points: 4
#     Node 1, Type 0, BuildingBlock: CEKHIL_clean_sbu_0, # of connection points: 4
#     Node 2, Type 0, BuildingBlock: CEKHIL_clean_sbu_0, # of connection points: 4
#     Node 3, Type 0, BuildingBlock: CEKHIL_clean_sbu_0, # of connection points: 4
#     Node 4, Type 0, BuildingBlock: CEKHIL_clean_sbu_0, # of connection points: 4
#     Node 5, Type 0, BuildingBlock: CEKHIL_clean_sbu_0, # of connection points: 4
#     Node 6, Type 0, BuildingBlock: CEKHIL_clean_sbu_0, # of connection points: 4
#     Node 7, Type 0, BuildingBlock: CEKHIL_clean_sbu_0, # of connection points: 4
#     Node 8, Type 0, BuildingBlock: CEKHIL_clean_sbu_0, # of connection points: 4
#     Node 9, Type 0, BuildingBlock: CEKHIL_clean_sbu_0, # of connection points: 4
#     Node 10, Type 0, BuildingBlock: CEKHIL_clean_sbu_0, # of connection points: 4
#     Node 11, Type 0, BuildingBlock: CEKHIL_clean_sbu_0, # of connection points: 4
#     Node 12, Type 0, BuildingBlock: CEKHIL_clean_sbu_0, # of connection points: 4
#     Node 13, Type 0, BuildingBlock: CEKHIL_clean_sbu_0, # of connection points: 4
#     Node 14, Type 0, BuildingBlock: CEKHIL_clean_sbu_0, # of connection points: 4
#     Node 15, Type 0, BuildingBlock: CEKHIL_clean_sbu_0, # of connection points: 4
#     Edge 16, Type (0, 0), BuildingBlock: OJICUG_clean_linker_0, # of connection points: 2
#     Edge 17, Type (0, 0), BuildingBlock: OJICUG_clean_linker_0, # of connection points: 2
#     Edge 18, Type (0, 0), BuildingBlock: OJICUG_clean_linker_0, # of connection points: 2
#     Edge 19, Type (0, 0), BuildingBlock: OJICUG_clean_linker_0, # of connection points: 2
#     Edge 20, Type (0, 0), BuildingBlock: OJICUG_clean_linker_0, # of connection points: 2
#     Edge 21, Type (0, 0), BuildingBlock: OJICUG_clean_linker_0, # of connection points: 2
#     Edge 22, Type (0, 0), BuildingBlock: OJICUG_clean_linker_0, # of connection points: 2
#     Edge 23, Type (0, 0), BuildingBlock: OJICUG_clean_linker_0, # of connection points: 2
#     Edge 24, Type (0, 0), BuildingBlock: OJICUG_clean_linker_0, # of connection points: 2
#     Edge 25, Type (0, 0), BuildingBlock: OJICUG_clean_linker_0, # of connection points: 2
#     Edge 26, Type (0, 0), BuildingBlock: OJICUG_clean_linker_0, # of connection points: 2
#     Edge 27, Type (0, 0), BuildingBlock: OJICUG_clean_linker_0, # of connection points: 2
#     Edge 28, Type (0, 0), BuildingBlock: OJICUG_clean_linker_0, # of connection points: 2
#     Edge 29, Type (0, 0), BuildingBlock: OJICUG_clean_linker_0, # of connection points: 2
#     Edge 30, Type (0, 0), BuildingBlock: OJICUG_clean_linker_0, # of connection points: 2
#     Edge 31, Type (0, 0), BuildingBlock: OJICUG_clean_linker_0, # of connection points: 2
#     Edge 32, Type (0, 0), BuildingBlock: OJICUG_clean_linker_0, # of connection points: 2
#     Edge 33, Type (0, 0), BuildingBlock: OJICUG_clean_linker_0, # of connection points: 2
#     Edge 34, Type (0, 0), BuildingBlock: OJICUG_clean_linker_0, # of connection points: 2
#     Edge 35, Type (0, 0), BuildingBlock: OJICUG_clean_linker_0, # of connection points: 2
#     Edge 36, Type (0, 0), BuildingBlock: OJICUG_clean_linker_0, # of connection points: 2
#     Edge 37, Type (0, 0), BuildingBlock: OJICUG_clean_linker_0, # of connection points: 2
#     Edge 38, Type (0, 0), BuildingBlock: OJICUG_clean_linker_0, # of connection points: 2
#     Edge 39, Type (0, 0), BuildingBlock: OJICUG_clean_linker_0, # of connection points: 2
#     Edge 40, Type (0, 0), BuildingBlock: OJICUG_clean_linker_0, # of connection points: 2
#     Edge 41, Type (0, 0), BuildingBlock: OJICUG_clean_linker_0, # of connection points: 2
#     Edge 42, Type (0, 0), BuildingBlock: OJICUG_clean_linker_0, # of connection points: 2
#     Edge 43, Type (0, 0), BuildingBlock: OJICUG_clean_linker_0, # of connection points: 2
#     Edge 44, Type (0, 0), BuildingBlock: OJICUG_clean_linker_0, # of connection points: 2
#     Edge 45, Type (0, 0), BuildingBlock: OJICUG_clean_linker_0, # of connection points: 2
#     Edge 46, Type (0, 0), BuildingBlock: OJICUG_clean_linker_0, # of connection points: 2
#     Edge 47, Type (0, 0), BuildingBlock: OJICUG_clean_linker_0, # of connection points: 2
# Relax obj value: 0.167
# Max RMSD: 0.198
# Mean RMSD: 0.198
data_MOF--net-uob--node1-CEKHIL_clean_sbu_0--edge1-OJICUG_clean_linker_0
_symmetry_space_group_name_H-M    P1
_symmetry_Int_Tables_number       1
_symmetry_cell_setting            triclinic
loop_
_symmetry_equiv_pos_as_xyz
'x, y, z'
_cell_length_a     38.685793
_cell_length_b     38.776701
_cell_length_c     19.341227
_cell_angle_alpha  90.015006
_cell_angle_beta   89.995076
_cell_angle_gamma 89.972696
loop_
_atom_site_label
_atom_site_type_symbol
_atom_site_fract_x
_atom_site_fract_y
_atom_site_fract_z
_atom_type_partial_charge
Co0 Co 0.15017 0.07341 0.26625 0.0
O1 O 0.19772 0.08755 0.27268 0.0
O2 O 0.17798 0.03795 0.31227 0.0
C3 C 0.1396 0.0901 0.15683 0.0
O4 O 0.1019 0.05107 0.26801 0.0
Co5 Co 0.09509 0.13181 0.24815 0.0
O6 O 0.06248 0.09233 0.24373 0.0
C7 C 0.13234 0.1248 0.3781 0.0
C8 C 0.20362 0.05967 0.30784 0.0
C9 C 0.07039 0.06105 0.25689 0.0
O10 O 0.14207 0.09481 0.35837 0.0
O11 O 0.11574 0.1457 0.33918 0.0
O12 O 0.15505 0.06076 0.16829 0.0
O13 O 0.13564 0.10947 0.21025 0.0
Co14 Co 0.95121 0.64732 0.52149 0.0
O15 O 0.93663 0.69462 0.52876 0.0
O16 O 0.98676 0.67529 0.56701 0.0
C17 C 0.93394 0.63692 0.41238 0.0
O18 O 0.97394 0.59926 0.52206 0.0
Co19 Co 0.89273 0.59224 0.50441 0.0
O20 O 0.93241 0.55982 0.49969 0.0
C21 C 0.90015 0.62975 0.63381 0.0
C22 C 0.96471 0.70069 0.56332 0.0
C23 C 0.96387 0.5678 0.51152 0.0
O24 O 0.93036 0.63888 0.61399 0.0
O25 O 0.87895 0.61345 0.59501 0.0
O26 O 0.96328 0.65254 0.42333 0.0
O27 O 0.91486 0.63272 0.46618 0.0
Co28 Co 0.37648 0.45035 0.76882 0.0
O29 O 0.3291 0.43573 0.77558 0.0
O30 O 0.3483 0.48568 0.81449 0.0
C31 C 0.38708 0.43336 0.6596 0.0
O32 O 0.42456 0.47313 0.76998 0.0
Co33 Co 0.4319 0.3922 0.7515 0.0
O34 O 0.46428 0.43188 0.74731 0.0
C35 C 0.39415 0.39922 0.88082 0.0
C36 C 0.32291 0.46365 0.8104 0.0
C37 C 0.45614 0.46321 0.75949 0.0
O38 O 0.38484 0.42934 0.86118 0.0
O39 O 0.41068 0.37822 0.84195 0.0
O40 O 0.37137 0.46261 0.67073 0.0
O41 O 0.39128 0.41423 0.71326 0.0
Co42 Co 0.57327 0.87558 0.02087 0.0
O43 O 0.5881 0.82835 0.02821 0.0
O44 O 0.53782 0.8474 0.06627 0.0
C45 C 0.59065 0.88596 0.91179 0.0
O46 O 0.55027 0.92353 0.02133 0.0
Co47 Co 0.6315 0.93096 0.00373 0.0
O48 O 0.59166 0.96318 -0.00072 0.0
C49 C 0.62422 0.89346 0.13314 0.0
C50 C 0.56001 0.82212 0.06261 0.0
C51 C 0.56022 0.95505 0.01099 0.0
O52 O 0.59403 0.88419 0.11343 0.0
O53 O 0.64535 0.90979 0.09424 0.0
O54 O 0.56136 0.87023 0.92261 0.0
O55 O 0.60959 0.89033 0.9657 0.0
Co56 Co 0.14917 0.44944 0.03358 0.0
O57 O 0.19658 0.43493 0.02625 0.0
O58 O 0.17716 0.48499 -0.01171 0.0
C59 C 0.13875 0.43211 0.1426 0.0
O60 O 0.10104 0.47217 0.03318 0.0
Co61 Co 0.09387 0.3912 0.05043 0.0
O62 O 0.06137 0.43079 0.05502 0.0
C63 C 0.13149 0.3986 0.92108 0.0
C64 C 0.20264 0.46302 -0.0081 0.0
C65 C 0.06948 0.46218 0.0435 0.0
O66 O 0.14069 0.42872 0.94096 0.0
O67 O 0.11513 0.37746 0.95986 0.0
O68 O 0.15441 0.46139 0.13176 0.0
O69 O 0.13453 0.41312 0.08873 0.0
Co70 Co 0.57412 0.6482 0.28432 0.0
O71 O 0.58844 0.6956 0.27774 0.0
O72 O 0.53855 0.67613 0.23864 0.0
C73 C 0.59116 0.6377 0.3936 0.0
O74 O 0.55164 0.60004 0.28293 0.0
Co75 Co 0.63272 0.59323 0.30186 0.0
O76 O 0.59312 0.56076 0.30683 0.0
C77 C 0.62552 0.63072 0.17233 0.0
C78 C 0.56042 0.70163 0.24293 0.0
C79 C 0.56171 0.56862 0.29408 0.0
O80 O 0.59533 0.64005 0.192 0.0
O81 O 0.64659 0.61428 0.21121 0.0
O82 O 0.56174 0.65316 0.38243 0.0
O83 O 0.61038 0.63364 0.33996 0.0
Co84 Co 0.3765 0.07293 0.53347 0.0
O85 O 0.3291 0.08741 0.52579 0.0
O86 O 0.34863 0.03739 0.4878 0.0
C87 C 0.38666 0.09026 0.64261 0.0
O88 O 0.42466 0.05029 0.53331 0.0
Co89 Co 0.43163 0.13129 0.55071 0.0
O90 O 0.46416 0.09173 0.55586 0.0
C91 C 0.39397 0.12393 0.42141 0.0
C92 C 0.32316 0.05938 0.49117 0.0
C93 C 0.45617 0.06033 0.54409 0.0
O94 O 0.38511 0.09368 0.441 0.0
O95 O 0.4102 0.14512 0.46032 0.0
O96 O 0.37107 0.06095 0.63161 0.0
O97 O 0.39098 0.10925 0.58878 0.0
Co98 Co 0.95078 0.87415 0.78624 0.0
O99 O 0.93656 0.82671 0.77997 0.0
O100 O 0.98627 0.8463 0.74017 0.0
C101 C 0.93413 0.88478 0.89571 0.0
O102 O 0.97319 0.92232 0.78432 0.0
Co103 Co 0.89222 0.9291 0.80442 0.0
O104 O 0.93179 0.96164 0.80849 0.0
C105 C 0.89922 0.89189 0.67449 0.0
C106 C 0.96448 0.82074 0.74478 0.0
C107 C 0.96315 0.95376 0.79532 0.0
O108 O 0.92928 0.88218 0.69417 0.0
O109 O 0.87828 0.90847 0.71343 0.0
O110 O 0.96352 0.86933 0.88418 0.0
O111 O 0.91469 0.88871 0.84235 0.0
Co112 Co 0.6496 0.57403 0.76927 0.0
O113 O 0.69713 0.5882 0.77615 0.0
O114 O 0.67739 0.53847 0.81506 0.0
C115 C 0.63915 0.59102 0.65998 0.0
O116 O 0.60133 0.55166 0.77041 0.0
Co117 Co 0.59455 0.63249 0.75159 0.0
O118 O 0.56198 0.593 0.74617 0.0
C119 C 0.63186 0.62521 0.8814 0.0
C120 C 0.70301 0.56022 0.81103 0.0
C121 C 0.56987 0.56167 0.75898 0.0
O122 O 0.64136 0.59517 0.86159 0.0
O123 O 0.61537 0.64624 0.84255 0.0
O124 O 0.65462 0.56166 0.67121 0.0
O125 O 0.63512 0.61025 0.71359 0.0
Co126 Co 0.44976 0.14856 0.01867 0.0
O127 O 0.4357 0.19604 0.02542 0.0
O128 O 0.48542 0.17617 0.06471 0.0
C129 C 0.43292 0.13822 0.90926 0.0
O130 O 0.47199 0.10028 0.02002 0.0
Co131 Co 0.39101 0.09389 0.00047 0.0
O132 O 0.43048 0.06123 -0.00483 0.0
C133 C 0.39829 0.13092 0.13056 0.0
C134 C 0.4637 0.20182 0.06047 0.0
C135 C 0.46187 0.06893 0.00839 0.0
O136 O 0.42838 0.14045 0.1108 0.0
O137 O 0.37724 0.11448 0.09165 0.0
O138 O 0.46238 0.15351 0.92073 0.0
O139 O 0.41352 0.13427 0.9627 0.0
Co140 Co 0.87697 0.9499 0.27132 0.0
O141 O 0.82959 0.93532 0.27834 0.0
O142 O 0.84882 0.98534 0.3168 0.0
C143 C 0.88749 0.93267 0.16221 0.0
O144 O 0.92507 0.97265 0.27203 0.0
Co145 Co 0.93231 0.89165 0.25441 0.0
O146 O 0.96468 0.9313 0.24925 0.0
C147 C 0.8945 0.89893 0.3836 0.0
C148 C 0.82341 0.96331 0.31294 0.0
C149 C 0.95661 0.96267 0.26119 0.0
O150 O 0.88538 0.92909 0.36386 0.0
O151 O 0.91092 0.87782 0.34481 0.0
O152 O 0.8718 0.96194 0.17314 0.0
O153 O 0.89171 0.91365 0.21604 0.0
Co154 Co 0.07461 0.37431 0.51827 0.0
O155 O 0.08888 0.32689 0.52473 0.0
O156 O 0.03907 0.34646 0.56415 0.0
C157 C 0.09146 0.38477 0.4089 0.0
O158 O 0.05216 0.4225 0.51984 0.0
Co159 Co 0.13318 0.42922 0.5002 0.0
O160 O 0.09357 0.46172 0.49538 0.0
C161 C 0.12606 0.39205 0.63012 0.0
C162 C 0.06091 0.32092 0.55969 0.0
C163 C 0.0622 0.4539 0.50851 0.0
O164 O 0.09597 0.38244 0.61044 0.0
O165 O 0.14704 0.40854 0.59117 0.0
O166 O 0.06204 0.36937 0.42026 0.0
O167 O 0.11078 0.38879 0.4624 0.0
Co168 Co 0.6498 0.94942 0.53654 0.0
O169 O 0.6973 0.93511 0.52948 0.0
O170 O 0.67765 0.98496 0.49085 0.0
C171 C 0.63939 0.93235 0.6458 0.0
O172 O 0.60156 0.97192 0.53556 0.0
Co173 Co 0.59464 0.89108 0.5544 0.0
O174 O 0.56217 0.93067 0.55992 0.0
C175 C 0.6316 0.89848 0.42418 0.0
C176 C 0.70322 0.96311 0.49475 0.0
C177 C 0.57008 0.96197 0.54702 0.0
O178 O 0.64144 0.92838 0.44418 0.0
O179 O 0.61508 0.87749 0.46302 0.0
O180 O 0.65489 0.96168 0.63465 0.0
O181 O 0.63531 0.91319 0.59212 0.0
Co182 Co 0.07421 0.147 0.78133 0.0
O183 O 0.08878 0.19429 0.7744 0.0
O184 O 0.03865 0.17508 0.73597 0.0
C185 C 0.09147 0.13651 0.89042 0.0
O186 O 0.05147 0.09896 0.78052 0.0
Co187 Co 0.13268 0.09186 0.79818 0.0
O188 O 0.09298 0.05951 0.80315 0.0
C189 C 0.12534 0.12957 0.66901 0.0
C190 C 0.0607 0.20045 0.73989 0.0
C191 C 0.06153 0.0675 0.79123 0.0
O192 O 0.09509 0.13866 0.68878 0.0
O193 O 0.14651 0.11321 0.70779 0.0
O194 O 0.06212 0.15213 0.87951 0.0
O195 O 0.11055 0.13232 0.83659 0.0
Co196 Co 0.87595 0.57313 0.03655 0.0
O197 O 0.82848 0.58748 0.02945 0.0
O198 O 0.84812 0.5377 -0.00955 0.0
C199 C 0.88624 0.59006 0.14594 0.0
O200 O 0.92419 0.55064 0.03552 0.0
Co201 Co 0.93106 0.63146 0.0548 0.0
O202 O 0.96349 0.59185 0.06065 0.0
C203 C 0.89394 0.62432 0.92473 0.0
C204 C 0.82257 0.55958 -0.00563 0.0
C205 C 0.95564 0.56057 0.04741 0.0
O206 O 0.88436 0.5943 0.9444 0.0
O207 O 0.91042 0.64529 0.96371 0.0
O208 O 0.87076 0.56073 0.13458 0.0
O209 O 0.8904 0.60926 0.09239 0.0
Co210 Co 0.4508 0.37522 0.28373 0.0
O211 O 0.43629 0.3279 0.27707 0.0
O212 O 0.48624 0.34719 0.23791 0.0
C213 C 0.43391 0.38582 0.39303 0.0
O214 O 0.47346 0.4233 0.28245 0.0
Co215 Co 0.39233 0.43031 0.30126 0.0
O216 O 0.43199 0.46275 0.30542 0.0
C217 C 0.39948 0.39289 0.17169 0.0
C218 C 0.46425 0.32179 0.24214 0.0
C219 C 0.46341 0.45477 0.29306 0.0
O220 O 0.42962 0.38348 0.19144 0.0
O221 O 0.37841 0.40936 0.21056 0.0
O222 O 0.46324 0.37021 0.38175 0.0
O223 O 0.41463 0.3899 0.33947 0.0
C224 C 0.27823 0.08838 0.42018 0.0
C225 C 0.29211 0.05738 0.44555 0.0
H226 H 0.24084 0.11308 0.35625 0.0
C227 C 0.27725 0.02609 0.42331 0.0
H228 H 0.28926 0.11298 0.43501 0.0
C229 C 0.24842 0.02616 0.37824 0.0
C230 C 0.23503 0.05747 0.3525 0.0
H231 H 0.28755 1.00175 0.44144 0.0
H232 H 0.23683 1.00188 0.36317 0.0
C233 C 0.25059 0.08841 0.37393 0.0
C234 C 0.93563 0.77389 0.67871 0.0
C235 C 0.96666 0.78929 0.70039 0.0
H236 H 0.91098 0.7352 0.61796 0.0
C237 C 0.99805 0.77562 0.67532 0.0
H238 H 0.9109 0.78387 0.69585 0.0
C239 C 0.9981 0.74665 0.63076 0.0
C240 C 0.96673 0.7319 0.60836 0.0
H241 H 0.0224 0.78708 0.69059 0.0
H242 H 0.02251 0.73613 0.6132 0.0
C243 C 0.93565 0.74609 0.63296 0.0
C244 C 0.27725 0.49682 0.87929 0.0
C245 C 0.29149 0.46558 0.8551 0.0
H246 H 0.23721 0.52093 0.94068 0.0
C247 C 0.27669 0.4345 0.87781 0.0
H248 H 0.28824 0.52121 0.86322 0.0
C249 C 0.24885 0.43434 0.92358 0.0
C250 C 0.23402 0.46526 0.94719 0.0
H251 H 0.28716 0.4099 0.86139 0.0
H252 H 0.23841 0.40963 0.93931 0.0
C253 C 0.24823 0.49666 0.92389 0.0
C254 C 0.58912 0.77644 0.13141 0.0
C255 C 0.55801 0.79077 0.10729 0.0
H256 H 0.61394 0.73844 0.19361 0.0
C257 C 0.52666 0.77602 0.12983 0.0
H258 H 0.61378 0.78731 0.11628 0.0
C259 C 0.52677 0.74692 0.17408 0.0
C260 C 0.55818 0.73313 0.19869 0.0
H261 H 0.50224 0.78663 0.11263 0.0
H262 H 0.50242 0.7355 0.18949 0.0
C263 C 0.58919 0.74852 0.17682 0.0
C264 C 0.74973 0.58885 0.87803 0.0
C265 C 0.73437 0.55795 0.85584 0.0
H266 H 0.78826 0.6133 0.93966 0.0
C267 C 0.74793 0.52657 0.88089 0.0
H268 H 0.73983 0.61356 0.86091 0.0
C269 C 0.77677 0.52641 0.92594 0.0
C270 C 0.79147 0.55766 0.94887 0.0
H271 H 0.7365 0.50232 0.86523 0.0
H272 H 0.78723 0.50203 0.94348 0.0
C273 C 0.77738 0.58872 0.92427 0.0
C274 C 0.49754 0.27622 0.17329 0.0
C275 C 0.46622 0.29043 0.19745 0.0
H276 H 0.52174 0.23628 0.11191 0.0
C277 C 0.43508 0.27563 0.17474 0.0
H278 H 0.52198 0.28721 0.18938 0.0
C279 C 0.43494 0.24785 0.12895 0.0
C280 C 0.46594 0.23308 0.10534 0.0
H281 H 0.41042 0.28605 0.19116 0.0
H282 H 0.41019 0.23741 0.1132 0.0
C283 C 0.49741 0.24726 0.12869 0.0
C284 C 0.77653 0.93439 0.37898 0.0
C285 C 0.79192 0.9654 0.35746 0.0
H286 H 0.73781 0.90966 0.43965 0.0
C287 C 0.77822 0.99666 0.3828 0.0
H288 H 0.78652 0.90976 0.36163 0.0
C289 C 0.74921 0.99661 0.42746 0.0
C290 C 0.73448 0.96525 0.44968 0.0
H291 H 0.78966 0.02099 0.36769 0.0
H292 H 0.73866 0.02091 0.44526 0.0
C293 C 0.7487 0.9343 0.42481 0.0
C294 C 0.08976 0.27424 0.62619 0.0
C295 C 0.05872 0.28945 0.60398 0.0
H296 H 0.11442 0.23557 0.68697 0.0
C297 C 0.02731 0.27551 0.62823 0.0
H298 H 0.11449 0.28444 0.60969 0.0
C299 C 0.02726 0.24641 0.67245 0.0
C300 C 0.05864 0.23181 0.69531 0.0
H301 H 1.00295 0.28681 0.61252 0.0
H302 H 1.00286 0.23565 0.68935 0.0
C303 C 0.08973 0.24632 0.67158 0.0
C304 C 0.04768 1.00014 0.26422 0.0
C305 C 0.04141 0.03572 0.25993 0.0
H306 H 0.02612 0.94944 0.26802 0.0
C307 C 1.00674 0.04718 0.25814 0.0
H308 H 0.07388 0.99032 0.26602 0.0
C309 C 0.97919 0.02374 0.25972 0.0
C310 C 0.98549 0.98813 0.2625 0.0
H311 H 1.00074 0.07443 0.25538 0.0
H312 H 0.95298 0.03352 0.25767 0.0
C313 C 0.02014 0.97669 0.2652 0.0
C314 C 0.97776 0.50439 0.51683 0.0
C315 C 0.98931 0.53889 0.51313 0.0
H316 H 0.99129 0.45072 0.51878 0.0
C317 C 0.025 0.54503 0.50968 0.0
H318 H 0.95044 0.49854 0.52022 0.0
C319 C 0.04842 0.51745 0.50842 0.0
C320 C 0.03686 0.48291 0.51122 0.0
H321 H 0.03487 0.57113 0.50683 0.0
H322 H 0.07573 0.52334 0.50509 0.0
C323 C 1.00119 0.47681 0.51617 0.0
C324 C 0.51962 0.47726 0.76531 0.0
C325 C 0.48499 0.48868 0.76168 0.0
H326 H 0.57334 0.49092 0.76781 0.0
C327 C 0.47868 0.52428 0.75897 0.0
H328 H 0.5256 0.45 0.76815 0.0
C329 C 0.50622 0.54775 0.75835 0.0
C330 C 0.54088 0.53631 0.76108 0.0
H331 H 0.45248 0.53405 0.75621 0.0
H332 H 0.50021 0.57499 0.75558 0.0
C333 C 0.54715 0.50073 0.7653 0.0
C334 C 0.54619 0.01834 0.01825 0.0
C335 C 0.5347 0.98388 0.01276 0.0
H336 H 0.53263 0.07196 0.02169 0.0
C337 C 0.49907 0.97775 0.00753 0.0
H338 H 0.57346 0.02415 0.02309 0.0
C339 C 0.47564 1.00535 0.00628 0.0
C340 C 0.48716 0.03986 0.01088 0.0
H341 H 0.48926 0.95168 0.00321 0.0
H342 H 0.44838 0.9995 0.00149 0.0
C343 C 0.52276 0.04591 0.0176 0.0
C344 C 1.00612 0.47636 0.03512 0.0
C345 C 0.04064 0.48766 0.04213 0.0
H346 H 0.95244 0.49011 0.03075 0.0
C347 C 0.04683 0.52311 0.04947 0.0
H348 H 1.00029 0.44924 0.02867 0.0
C349 C 0.01925 0.54653 0.05118 0.0
C350 C 0.98467 0.53522 0.04491 0.0
H351 H 0.07296 0.53274 0.05513 0.0
H352 H 0.02517 0.57363 0.05761 0.0
C353 C 0.97854 0.49981 0.0362 0.0
C354 C 0.52453 0.47751 0.29334 0.0
C355 C 0.48882 0.48367 0.29088 0.0
H356 H 0.57528 0.49917 0.29665 0.0
C357 C 0.47724 0.51819 0.28761 0.0
H358 H 0.53443 0.45141 0.29581 0.0
C359 C 0.50066 0.54575 0.28774 0.0
C360 C 0.53636 0.53963 0.29173 0.0
H361 H 0.44989 0.52405 0.28499 0.0
H362 H 0.49073 0.57185 0.28553 0.0
C363 C 0.54795 0.50508 0.29407 0.0
C364 C 0.51974 0.04637 0.53984 0.0
C365 C 0.48511 0.03491 0.54274 0.0
H366 H 0.5735 0.03274 0.53842 0.0
C367 C 0.47886 0.99931 0.54548 0.0
H368 H 0.52567 0.07363 0.53706 0.0
C369 C 0.50644 0.97587 0.5467 0.0
C370 C 0.54108 0.98733 0.54458 0.0
H371 H 0.45267 0.98951 0.5477 0.0
H372 H 0.50046 0.94862 0.54938 0.0
C373 C 0.54731 0.02292 0.54045 0.0
C374 C 1.00036 0.04483 0.79216 0.0
C375 C 0.03607 0.03862 0.78979 0.0
H376 H 0.94959 0.02322 0.79612 0.0
C377 C 0.04762 1.00408 0.78736 0.0
H378 H 0.99048 0.07096 0.79397 0.0
C379 C 0.02418 0.97654 0.78826 0.0
C380 C 0.98849 0.98273 0.79219 0.0
H381 H 0.07496 0.99816 0.78484 0.0
H382 H 0.03409 0.95043 0.78671 0.0
C383 C 0.97692 0.01729 0.79366 0.0
C384 C 0.1587 0.11443 0.56321 0.0
C385 C 0.13377 0.13498 0.59584 0.0
H386 H 0.17817 0.09559 0.46717 0.0
C387 C 0.11356 0.15772 0.55606 0.0
H388 H 0.17506 0.09716 0.59267 0.0
C389 C 0.11525 0.15681 0.48423 0.0
C390 C 0.1371 0.13306 0.4515 0.0
H391 H 0.09477 0.17461 0.58021 0.0
H392 H 0.09752 0.17265 0.45472 0.0
C393 C 0.16033 0.11345 0.49137 0.0
C394 C 0.86721 0.61414 0.73977 0.0
C395 C 0.89185 0.63497 0.70708 0.0
H396 H 0.84822 0.59489 0.83581 0.0
C397 C 0.91201 0.65775 0.74686 0.0
H398 H 0.85091 0.59682 0.71031 0.0
C399 C 0.91056 0.65663 0.8187 0.0
C400 C 0.88901 0.63264 0.85141 0.0
H401 H 0.93058 0.67483 0.72266 0.0
H402 H 0.92824 0.67254 0.84818 0.0
C403 C 0.86583 0.61295 0.8116 0.0
C404 C 0.41111 0.36492 0.05853 0.0
C405 C 0.39118 0.3879 0.09836 0.0
H406 H 0.42747 0.35021 0.95724 0.0
C407 C 0.36697 0.40923 0.06563 0.0
H408 H 0.42933 0.34745 0.08275 0.0
C409 C 0.36587 0.4107 -0.00621 0.0
C410 C 0.3889 0.39079 0.95402 0.0
H411 H 0.35086 0.42673 0.09512 0.0
H412 H 0.34861 0.42912 0.96961 0.0
C413 C 0.40994 0.36632 0.98669 0.0
C414 C 0.61445 0.86646 0.31811 0.0
C415 C 0.63616 0.89038 0.35065 0.0
H416 H 0.59403 0.84839 0.2223 0.0
C417 C 0.65912 0.91018 0.31059 0.0
H418 H 0.59693 0.85047 0.34777 0.0
C419 C 0.65742 0.90911 0.23878 0.0
C420 C 0.63267 0.88829 0.20635 0.0
H421 H 0.67684 0.9282 0.33462 0.0
H422 H 0.67359 0.92648 0.20917 0.0
C423 C 0.61268 0.86546 0.2463 0.0
C424 C 0.15835 0.40888 0.73611 0.0
C425 C 0.1344 0.38724 0.70347 0.0
H426 H 0.17652 0.42906 0.83204 0.0
C427 C 0.11475 0.3641 0.74338 0.0
H428 H 0.17424 0.42654 0.70655 0.0
C429 C 0.11592 0.36558 0.81521 0.0
C430 C 0.1367 0.3903 0.8478 0.0
H431 H 0.09673 0.34642 0.71923 0.0
H432 H 0.09862 0.34929 0.84473 0.0
C433 C 0.15946 0.41044 0.80794 0.0
C434 C 0.65842 0.6148 0.06645 0.0
C435 C 0.63395 0.63588 0.09911 0.0
H436 H 0.67729 0.59535 0.97044 0.0
C437 C 0.61402 0.65886 0.0593 0.0
H438 H 0.67454 0.59732 0.09594 0.0
C439 C 0.61548 0.6577 -0.01254 0.0
C440 C 0.63682 0.63348 0.95476 0.0
H441 H 0.5956 0.67614 0.08347 0.0
H442 H 0.59797 0.67378 0.95795 0.0
C443 C 0.65982 0.61358 -0.00539 0.0
C444 C 0.36557 0.11222 0.30866 0.0
C445 C 0.38843 0.13238 0.3483 0.0
H446 H 0.35043 0.09623 0.20741 0.0
C447 C 0.40895 0.15725 0.31558 0.0
H448 H 0.34871 0.09348 0.3329 0.0
C449 C 0.4098 0.15887 0.24374 0.0
C450 C 0.39009 0.1357 0.20398 0.0
H451 H 0.4263 0.17355 0.34496 0.0
H452 H 0.42767 0.17665 0.21943 0.0
C453 C 0.36635 0.11392 0.23683 0.0
C454 C 0.86717 0.909 0.56839 0.0
C455 C 0.89092 0.88715 0.60109 0.0
H456 H 0.84938 0.92948 0.47244 0.0
C457 C 0.91055 0.86395 0.5612 0.0
H458 H 0.85131 0.92671 0.59793 0.0
C459 C 0.9096 0.86559 0.48936 0.0
C460 C 0.88906 0.89051 0.45676 0.0
H461 H 0.92842 0.84612 0.58539 0.0
H462 H 0.92689 0.84925 0.45989 0.0
C463 C 0.86628 0.9107 0.49656 0.0
C464 C 0.08816 0.13701 0.01946 0.0
C465 C 0.10212 0.12319 0.95863 0.0
H466 H 0.08953 0.13769 0.1299 0.0
C467 C 0.1274 0.09718 0.96336 0.0
H468 H 0.06865 0.15703 0.01729 0.0
C469 C 0.13889 0.08555 0.02781 0.0
C470 C 0.1259 0.10033 0.08863 0.0
H471 H 0.13847 0.08584 0.91726 0.0
H472 H 0.15861 0.06573 0.02999 0.0
C473 C 0.10024 0.12597 0.08387 0.0
C474 C 0.93733 0.63731 0.28334 0.0
C475 C 0.92336 0.62353 0.34417 0.0
H476 H 0.93608 0.63785 0.17291 0.0
C477 C 0.89818 0.59745 0.33945 0.0
H478 H 0.95676 0.65738 0.28551 0.0
C479 C 0.8868 0.5857 0.27499 0.0
C480 C 0.8998 0.60043 0.21418 0.0
H481 H 0.88711 0.58614 0.38554 0.0
H482 H 0.86716 0.56582 0.27282 0.0
C483 C 0.92536 0.62615 0.21894 0.0
C484 C 0.3869 0.43709 0.53054 0.0
C485 C 0.4005 0.42288 0.59133 0.0
H486 H 0.3865 0.43606 0.42005 0.0
C487 C 0.42643 0.39751 0.58651 0.0
H488 H 0.36696 0.45669 0.53279 0.0
C489 C 0.43815 0.38616 0.52203 0.0
C490 C 0.42358 0.39939 0.46125 0.0
H491 H 0.4376 0.38625 0.63255 0.0
H492 H 0.45788 0.36636 0.51979 0.0
C493 C 0.39805 0.42516 0.46608 0.0
C494 C 0.60043 0.89585 0.7184 0.0
C495 C 0.62557 0.92201 0.71385 0.0
H496 H 0.56909 0.86442 0.78471 0.0
C497 C 0.63782 0.9373 0.77474 0.0
H498 H 0.59031 0.88369 0.67232 0.0
C499 C 0.62613 0.92573 0.83907 0.0
C500 C 0.60139 0.89923 0.84361 0.0
H501 H 0.65709 0.95754 0.77275 0.0
H502 H 0.63662 0.93751 0.88524 0.0
C503 C 0.58815 0.88485 0.78268 0.0
C504 C 0.12718 0.4242 0.33598 0.0
C505 C 0.10186 0.39825 0.34067 0.0
H506 H 0.15823 0.45581 0.26949 0.0
C507 C 0.08766 0.38471 0.27982 0.0
H508 H 0.13845 0.43533 0.38206 0.0
C509 C 0.09955 0.39598 0.2154 0.0
C510 C 0.12525 0.42156 0.21074 0.0
H511 H 0.06812 0.36474 0.28197 0.0
H512 H 0.08867 0.38449 0.1693 0.0
C513 C 0.13848 0.43604 0.27159 0.0
C514 C 0.6384 0.58657 0.53097 0.0
C515 C 0.62548 0.60137 0.59181 0.0
H516 H 0.63795 0.58688 0.42045 0.0
C517 C 0.59989 0.6271 0.58711 0.0
H518 H 0.65804 0.56668 0.5331 0.0
C519 C 0.58782 0.63818 0.5227 0.0
C520 C 0.60172 0.62433 0.46184 0.0
H521 H 0.58925 0.63885 0.63317 0.0
H522 H 0.56839 0.65828 0.52055 0.0
C523 C 0.62692 0.59824 0.46655 0.0
C524 C 0.42593 0.12612 0.71577 0.0
C525 C 0.39986 0.10092 0.7109 0.0
H526 H 0.45738 0.15721 0.78255 0.0
C527 C 0.38593 0.08702 0.77167 0.0
H528 H 0.43734 0.13714 0.66974 0.0
C529 C 0.39693 0.09907 0.83614 0.0
C530 C 0.42264 0.12462 0.84101 0.0
H531 H 0.36587 0.06758 0.76939 0.0
H532 H 0.38513 0.0884 0.88212 0.0
C533 C 0.43751 0.13757 0.78028 0.0
C534 C 0.92655 0.8964 0.08923 0.0
C535 C 0.90089 0.92205 0.094 0.0
H536 H 0.95776 0.86496 0.02255 0.0
C537 C 0.88755 0.93646 0.03317 0.0
H538 H 0.93752 0.88497 0.1353 0.0
C539 C 0.89866 0.92447 0.96874 0.0
C540 C 0.92391 0.89843 0.96395 0.0
H541 H 0.86783 0.95628 0.03535 0.0
H542 H 0.8873 0.93554 0.92269 0.0
C543 C 0.93825 0.88499 0.02476 0.0
loop_
_geom_bond_atom_site_label_1
_geom_bond_atom_site_label_2
_geom_bond_distance
_geom_bond_site_symmetry_2
_ccdc_geom_bond_type
Co0 O1 2.216 . S
Co0 O2 2.091 . S
Co0 O4 2.004 . S
Co0 O10 2.021 . S
Co0 O12 2.137 . S
Co0 O13 2.244 . S
O1 Co0 2.216 . S
O1 C8 1.247 . S
O2 Co0 2.091 . S
O2 C8 1.261 . S
C3 O12 1.247 . S
C3 O13 1.272 . S
O4 Co0 2.004 . S
O4 C9 1.259 . S
Co5 O6 2.061 . S
Co5 O11 2.052 . S
Co5 O13 2.135 . S
O6 Co5 2.061 . S
O6 C9 1.235 . S
C7 O10 1.238 . S
C7 O11 1.241 . S
C8 O1 1.247 . S
C8 O2 1.261 . S
C9 O4 1.259 . S
C9 O6 1.235 . S
O10 Co0 2.021 . S
O10 C7 1.238 . S
O11 Co5 2.052 . S
O11 C7 1.241 . S
O12 Co0 2.137 . S
O12 C3 1.247 . S
O13 Co0 2.244 . S
O13 C3 1.272 . S
O13 Co5 2.135 . S
Co14 O15 2.216 . S
Co14 O16 2.091 . S
Co14 O18 2.004 . S
Co14 O24 2.021 . S
Co14 O26 2.137 . S
Co14 O27 2.244 . S
O15 Co14 2.216 . S
O15 C22 1.247 . S
O16 Co14 2.091 . S
O16 C22 1.261 . S
C17 O26 1.247 . S
C17 O27 1.272 . S
O18 Co14 2.004 . S
O18 C23 1.259 . S
Co19 O20 2.061 . S
Co19 O25 2.052 . S
Co19 O27 2.135 . S
O20 Co19 2.061 . S
O20 C23 1.235 . S
C21 O24 1.238 . S
C21 O25 1.241 . S
C22 O15 1.247 . S
C22 O16 1.261 . S
C23 O18 1.259 . S
C23 O20 1.235 . S
O24 Co14 2.021 . S
O24 C21 1.238 . S
O25 Co19 2.052 . S
O25 C21 1.241 . S
O26 Co14 2.137 . S
O26 C17 1.247 . S
O27 Co14 2.244 . S
O27 C17 1.272 . S
O27 Co19 2.135 . S
Co28 O29 2.216 . S
Co28 O30 2.091 . S
Co28 O32 2.004 . S
Co28 O38 2.021 . S
Co28 O40 2.137 . S
Co28 O41 2.244 . S
O29 Co28 2.216 . S
O29 C36 1.247 . S
O30 Co28 2.091 . S
O30 C36 1.261 . S
C31 O40 1.247 . S
C31 O41 1.272 . S
O32 Co28 2.004 . S
O32 C37 1.259 . S
Co33 O34 2.061 . S
Co33 O39 2.052 . S
Co33 O41 2.135 . S
O34 Co33 2.061 . S
O34 C37 1.235 . S
C35 O38 1.238 . S
C35 O39 1.241 . S
C36 O29 1.247 . S
C36 O30 1.261 . S
C37 O32 1.259 . S
C37 O34 1.235 . S
O38 Co28 2.021 . S
O38 C35 1.238 . S
O39 Co33 2.052 . S
O39 C35 1.241 . S
O40 Co28 2.137 . S
O40 C31 1.247 . S
O41 Co28 2.244 . S
O41 C31 1.272 . S
O41 Co33 2.135 . S
Co42 O43 2.216 . S
Co42 O44 2.091 . S
Co42 O46 2.004 . S
Co42 O52 2.021 . S
Co42 O54 2.137 1_554 S
Co42 O55 2.244 1_554 S
O43 Co42 2.216 . S
O43 C50 1.247 . S
O44 Co42 2.091 . S
O44 C50 1.261 . S
C45 O54 1.247 . S
C45 O55 1.272 . S
O46 Co42 2.004 . S
O46 C51 1.259 . S
Co47 O48 2.061 . S
Co47 O53 2.052 . S
Co47 O55 2.135 1_554 S
O48 Co47 2.061 . S
O48 C51 1.235 . S
C49 O52 1.238 . S
C49 O53 1.241 . S
C50 O43 1.247 . S
C50 O44 1.261 . S
C51 O46 1.259 . S
C51 O48 1.235 . S
O52 Co42 2.021 . S
O52 C49 1.238 . S
O53 Co47 2.052 . S
O53 C49 1.241 . S
O54 Co42 2.137 1_556 S
O54 C45 1.247 . S
O55 Co42 2.244 1_556 S
O55 C45 1.272 . S
O55 Co47 2.135 1_556 S
Co56 O57 2.216 . S
Co56 O58 2.091 1_554 S
Co56 O60 2.004 . S
Co56 O66 2.021 1_554 S
Co56 O68 2.137 . S
Co56 O69 2.244 . S
O57 Co56 2.216 . S
O57 C64 1.247 1_554 S
O58 Co56 2.091 1_556 S
O58 C64 1.261 . S
C59 O68 1.247 . S
C59 O69 1.272 . S
O60 Co56 2.004 . S
O60 C65 1.259 . S
Co61 O62 2.061 . S
Co61 O67 2.052 1_554 S
Co61 O69 2.135 . S
O62 Co61 2.061 . S
O62 C65 1.235 . S
C63 O66 1.238 . S
C63 O67 1.241 . S
C64 O57 1.247 1_556 S
C64 O58 1.261 . S
C65 O60 1.259 . S
C65 O62 1.235 . S
O66 Co56 2.021 1_556 S
O66 C63 1.238 . S
O67 Co61 2.052 1_556 S
O67 C63 1.241 . S
O68 Co56 2.137 . S
O68 C59 1.247 . S
O69 Co56 2.244 . S
O69 C59 1.272 . S
O69 Co61 2.135 . S
Co70 O71 2.216 . S
Co70 O72 2.091 . S
Co70 O74 2.004 . S
Co70 O80 2.021 . S
Co70 O82 2.137 . S
Co70 O83 2.244 . S
O71 Co70 2.216 . S
O71 C78 1.247 . S
O72 Co70 2.091 . S
O72 C78 1.261 . S
C73 O82 1.247 . S
C73 O83 1.272 . S
O74 Co70 2.004 . S
O74 C79 1.259 . S
Co75 O76 2.061 . S
Co75 O81 2.052 . S
Co75 O83 2.135 . S
O76 Co75 2.061 . S
O76 C79 1.235 . S
C77 O80 1.238 . S
C77 O81 1.241 . S
C78 O71 1.247 . S
C78 O72 1.261 . S
C79 O74 1.259 . S
C79 O76 1.235 . S
O80 Co70 2.021 . S
O80 C77 1.238 . S
O81 Co75 2.052 . S
O81 C77 1.241 . S
O82 Co70 2.137 . S
O82 C73 1.247 . S
O83 Co70 2.244 . S
O83 C73 1.272 . S
O83 Co75 2.135 . S
Co84 O85 2.216 . S
Co84 O86 2.091 . S
Co84 O88 2.004 . S
Co84 O94 2.021 . S
Co84 O96 2.137 . S
Co84 O97 2.244 . S
O85 Co84 2.216 . S
O85 C92 1.247 . S
O86 Co84 2.091 . S
O86 C92 1.261 . S
C87 O96 1.247 . S
C87 O97 1.272 . S
O88 Co84 2.004 . S
O88 C93 1.259 . S
Co89 O90 2.061 . S
Co89 O95 2.052 . S
Co89 O97 2.135 . S
O90 Co89 2.061 . S
O90 C93 1.235 . S
C91 O94 1.238 . S
C91 O95 1.241 . S
C92 O85 1.247 . S
C92 O86 1.261 . S
C93 O88 1.259 . S
C93 O90 1.235 . S
O94 Co84 2.021 . S
O94 C91 1.238 . S
O95 Co89 2.052 . S
O95 C91 1.241 . S
O96 Co84 2.137 . S
O96 C87 1.247 . S
O97 Co84 2.244 . S
O97 C87 1.272 . S
O97 Co89 2.135 . S
Co98 O99 2.216 . S
Co98 O100 2.091 . S
Co98 O102 2.004 . S
Co98 O108 2.021 . S
Co98 O110 2.137 . S
Co98 O111 2.244 . S
O99 Co98 2.216 . S
O99 C106 1.247 . S
O100 Co98 2.091 . S
O100 C106 1.261 . S
C101 O110 1.247 . S
C101 O111 1.272 . S
O102 Co98 2.004 . S
O102 C107 1.259 . S
Co103 O104 2.061 . S
Co103 O109 2.052 . S
Co103 O111 2.135 . S
O104 Co103 2.061 . S
O104 C107 1.235 . S
C105 O108 1.238 . S
C105 O109 1.241 . S
C106 O99 1.247 . S
C106 O100 1.261 . S
C107 O102 1.259 . S
C107 O104 1.235 . S
O108 Co98 2.021 . S
O108 C105 1.238 . S
O109 Co103 2.052 . S
O109 C105 1.241 . S
O110 Co98 2.137 . S
O110 C101 1.247 . S
O111 Co98 2.244 . S
O111 C101 1.272 . S
O111 Co103 2.135 . S
Co112 O113 2.216 . S
Co112 O114 2.091 . S
Co112 O116 2.004 . S
Co112 O122 2.021 . S
Co112 O124 2.137 . S
Co112 O125 2.244 . S
O113 Co112 2.216 . S
O113 C120 1.247 . S
O114 Co112 2.091 . S
O114 C120 1.261 . S
C115 O124 1.247 . S
C115 O125 1.272 . S
O116 Co112 2.004 . S
O116 C121 1.259 . S
Co117 O118 2.061 . S
Co117 O123 2.052 . S
Co117 O125 2.135 . S
O118 Co117 2.061 . S
O118 C121 1.235 . S
C119 O122 1.238 . S
C119 O123 1.241 . S
C120 O113 1.247 . S
C120 O114 1.261 . S
C121 O116 1.259 . S
C121 O118 1.235 . S
O122 Co112 2.021 . S
O122 C119 1.238 . S
O123 Co117 2.052 . S
O123 C119 1.241 . S
O124 Co112 2.137 . S
O124 C115 1.247 . S
O125 Co112 2.244 . S
O125 C115 1.272 . S
O125 Co117 2.135 . S
Co126 O127 2.216 . S
Co126 O128 2.091 . S
Co126 O130 2.004 . S
Co126 O136 2.021 . S
Co126 O138 2.137 1_554 S
Co126 O139 2.244 1_554 S
O127 Co126 2.216 . S
O127 C134 1.247 . S
O128 Co126 2.091 . S
O128 C134 1.261 . S
C129 O138 1.247 . S
C129 O139 1.272 . S
O130 Co126 2.004 . S
O130 C135 1.259 . S
Co131 O132 2.061 . S
Co131 O137 2.052 . S
Co131 O139 2.135 1_554 S
O132 Co131 2.061 . S
O132 C135 1.235 . S
C133 O136 1.238 . S
C133 O137 1.241 . S
C134 O127 1.247 . S
C134 O128 1.261 . S
C135 O130 1.259 . S
C135 O132 1.235 . S
O136 Co126 2.021 . S
O136 C133 1.238 . S
O137 Co131 2.052 . S
O137 C133 1.241 . S
O138 Co126 2.137 1_556 S
O138 C129 1.247 . S
O139 Co126 2.244 1_556 S
O139 C129 1.272 . S
O139 Co131 2.135 1_556 S
Co140 O141 2.216 . S
Co140 O142 2.091 . S
Co140 O144 2.004 . S
Co140 O150 2.021 . S
Co140 O152 2.137 . S
Co140 O153 2.244 . S
O141 Co140 2.216 . S
O141 C148 1.247 . S
O142 Co140 2.091 . S
O142 C148 1.261 . S
C143 O152 1.247 . S
C143 O153 1.272 . S
O144 Co140 2.004 . S
O144 C149 1.259 . S
Co145 O146 2.061 . S
Co145 O151 2.052 . S
Co145 O153 2.135 . S
O146 Co145 2.061 . S
O146 C149 1.235 . S
C147 O150 1.238 . S
C147 O151 1.241 . S
C148 O141 1.247 . S
C148 O142 1.261 . S
C149 O144 1.259 . S
C149 O146 1.235 . S
O150 Co140 2.021 . S
O150 C147 1.238 . S
O151 Co145 2.052 . S
O151 C147 1.241 . S
O152 Co140 2.137 . S
O152 C143 1.247 . S
O153 Co140 2.244 . S
O153 C143 1.272 . S
O153 Co145 2.135 . S
Co154 O155 2.216 . S
Co154 O156 2.091 . S
Co154 O158 2.004 . S
Co154 O164 2.021 . S
Co154 O166 2.137 . S
Co154 O167 2.244 . S
O155 Co154 2.216 . S
O155 C162 1.247 . S
O156 Co154 2.091 . S
O156 C162 1.261 . S
C157 O166 1.247 . S
C157 O167 1.272 . S
O158 Co154 2.004 . S
O158 C163 1.259 . S
Co159 O160 2.061 . S
Co159 O165 2.052 . S
Co159 O167 2.135 . S
O160 Co159 2.061 . S
O160 C163 1.235 . S
C161 O164 1.238 . S
C161 O165 1.241 . S
C162 O155 1.247 . S
C162 O156 1.261 . S
C163 O158 1.259 . S
C163 O160 1.235 . S
O164 Co154 2.021 . S
O164 C161 1.238 . S
O165 Co159 2.052 . S
O165 C161 1.241 . S
O166 Co154 2.137 . S
O166 C157 1.247 . S
O167 Co154 2.244 . S
O167 C157 1.272 . S
O167 Co159 2.135 . S
Co168 O169 2.216 . S
Co168 O170 2.091 . S
Co168 O172 2.004 . S
Co168 O178 2.021 . S
Co168 O180 2.137 . S
Co168 O181 2.244 . S
O169 Co168 2.216 . S
O169 C176 1.247 . S
O170 Co168 2.091 . S
O170 C176 1.261 . S
C171 O180 1.247 . S
C171 O181 1.272 . S
O172 Co168 2.004 . S
O172 C177 1.259 . S
Co173 O174 2.061 . S
Co173 O179 2.052 . S
Co173 O181 2.135 . S
O174 Co173 2.061 . S
O174 C177 1.235 . S
C175 O178 1.238 . S
C175 O179 1.241 . S
C176 O169 1.247 . S
C176 O170 1.261 . S
C177 O172 1.259 . S
C177 O174 1.235 . S
O178 Co168 2.021 . S
O178 C175 1.238 . S
O179 Co173 2.052 . S
O179 C175 1.241 . S
O180 Co168 2.137 . S
O180 C171 1.247 . S
O181 Co168 2.244 . S
O181 C171 1.272 . S
O181 Co173 2.135 . S
Co182 O183 2.216 . S
Co182 O184 2.091 . S
Co182 O186 2.004 . S
Co182 O192 2.021 . S
Co182 O194 2.137 . S
Co182 O195 2.244 . S
O183 Co182 2.216 . S
O183 C190 1.247 . S
O184 Co182 2.091 . S
O184 C190 1.261 . S
C185 O194 1.247 . S
C185 O195 1.272 . S
O186 Co182 2.004 . S
O186 C191 1.259 . S
Co187 O188 2.061 . S
Co187 O193 2.052 . S
Co187 O195 2.135 . S
O188 Co187 2.061 . S
O188 C191 1.235 . S
C189 O192 1.238 . S
C189 O193 1.241 . S
C190 O183 1.247 . S
C190 O184 1.261 . S
C191 O186 1.259 . S
C191 O188 1.235 . S
O192 Co182 2.021 . S
O192 C189 1.238 . S
O193 Co187 2.052 . S
O193 C189 1.241 . S
O194 Co182 2.137 . S
O194 C185 1.247 . S
O195 Co182 2.244 . S
O195 C185 1.272 . S
O195 Co187 2.135 . S
Co196 O197 2.216 . S
Co196 O198 2.091 1_554 S
Co196 O200 2.004 . S
Co196 O206 2.021 1_554 S
Co196 O208 2.137 . S
Co196 O209 2.244 . S
O197 Co196 2.216 . S
O197 C204 1.247 1_554 S
O198 Co196 2.091 1_556 S
O198 C204 1.261 . S
C199 O208 1.247 . S
C199 O209 1.272 . S
O200 Co196 2.004 . S
O200 C205 1.259 . S
Co201 O202 2.061 . S
Co201 O207 2.052 1_554 S
Co201 O209 2.135 . S
O202 Co201 2.061 . S
O202 C205 1.235 . S
C203 O206 1.238 . S
C203 O207 1.241 . S
C204 O197 1.247 1_556 S
C204 O198 1.261 . S
C205 O200 1.259 . S
C205 O202 1.235 . S
O206 Co196 2.021 1_556 S
O206 C203 1.238 . S
O207 Co201 2.052 1_556 S
O207 C203 1.241 . S
O208 Co196 2.137 . S
O208 C199 1.247 . S
O209 Co196 2.244 . S
O209 C199 1.272 . S
O209 Co201 2.135 . S
Co210 O211 2.216 . S
Co210 O212 2.091 . S
Co210 O214 2.004 . S
Co210 O220 2.021 . S
Co210 O222 2.137 . S
Co210 O223 2.244 . S
O211 Co210 2.216 . S
O211 C218 1.247 . S
O212 Co210 2.091 . S
O212 C218 1.261 . S
C213 O222 1.247 . S
C213 O223 1.272 . S
O214 Co210 2.004 . S
O214 C219 1.259 . S
Co215 O216 2.061 . S
Co215 O221 2.052 . S
Co215 O223 2.135 . S
O216 Co215 2.061 . S
O216 C219 1.235 . S
C217 O220 1.238 . S
C217 O221 1.241 . S
C218 O211 1.247 . S
C218 O212 1.261 . S
C219 O214 1.259 . S
C219 O216 1.235 . S
O220 Co210 2.021 . S
O220 C217 1.238 . S
O221 Co215 2.052 . S
O221 C217 1.241 . S
O222 Co210 2.137 . S
O222 C213 1.247 . S
O223 Co210 2.244 . S
O223 C213 1.272 . S
O223 Co215 2.135 . S
C224 C225 1.387 . S
C224 H228 0.950 . S
C224 C233 1.390 . S
C225 C224 1.387 . S
C225 C227 1.387 . S
H226 C233 0.950 . S
C227 C225 1.387 . S
C227 C229 1.390 . S
C227 H231 0.950 . S
H228 C224 0.950 . S
C229 C227 1.390 . S
C229 C230 1.387 . S
C229 H232 0.950 . S
C230 C229 1.387 . S
C230 C233 1.387 . S
H231 C227 0.950 . S
H232 C229 0.950 . S
C233 C224 1.390 . S
C233 H226 0.950 . S
C233 C230 1.387 . S
C234 C235 1.387 . S
C234 H238 0.950 . S
C234 C243 1.390 . S
C235 C234 1.387 . S
C235 C237 1.387 . S
H236 C243 0.950 . S
C237 C235 1.387 . S
C237 C239 1.390 . S
C237 H241 0.950 . S
H238 C234 0.950 . S
C239 C237 1.390 . S
C239 C240 1.387 . S
C239 H242 0.950 . S
C240 C239 1.387 . S
C240 C243 1.387 . S
H241 C237 0.950 . S
H242 C239 0.950 . S
C243 C234 1.390 . S
C243 H236 0.950 . S
C243 C240 1.387 . S
C244 C245 1.387 . S
C244 H248 0.950 . S
C244 C253 1.390 . S
C245 C244 1.387 . S
C245 C247 1.387 . S
H246 C253 0.950 . S
C247 C245 1.387 . S
C247 C249 1.390 . S
C247 H251 0.950 . S
H248 C244 0.950 . S
C249 C247 1.390 . S
C249 C250 1.387 . S
C249 H252 0.950 . S
C250 C249 1.387 . S
C250 C253 1.387 . S
H251 C247 0.950 . S
H252 C249 0.950 . S
C253 C244 1.390 . S
C253 H246 0.950 . S
C253 C250 1.387 . S
C254 C255 1.387 . S
C254 H258 0.950 . S
C254 C263 1.390 . S
C255 C254 1.387 . S
C255 C257 1.387 . S
H256 C263 0.950 . S
C257 C255 1.387 . S
C257 C259 1.390 . S
C257 H261 0.950 . S
H258 C254 0.950 . S
C259 C257 1.390 . S
C259 C260 1.387 . S
C259 H262 0.950 . S
C260 C259 1.387 . S
C260 C263 1.387 . S
H261 C257 0.950 . S
H262 C259 0.950 . S
C263 C254 1.390 . S
C263 H256 0.950 . S
C263 C260 1.387 . S
C264 C265 1.387 . S
C264 H268 0.950 . S
C264 C273 1.390 . S
C265 C264 1.387 . S
C265 C267 1.387 . S
H266 C273 0.950 . S
C267 C265 1.387 . S
C267 C269 1.390 . S
C267 H271 0.950 . S
H268 C264 0.950 . S
C269 C267 1.390 . S
C269 C270 1.387 . S
C269 H272 0.950 . S
C270 C269 1.387 . S
C270 C273 1.387 . S
H271 C267 0.950 . S
H272 C269 0.950 . S
C273 C264 1.390 . S
C273 H266 0.950 . S
C273 C270 1.387 . S
C274 C275 1.387 . S
C274 H278 0.950 . S
C274 C283 1.390 . S
C275 C274 1.387 . S
C275 C277 1.387 . S
H276 C283 0.950 . S
C277 C275 1.387 . S
C277 C279 1.390 . S
C277 H281 0.950 . S
H278 C274 0.950 . S
C279 C277 1.390 . S
C279 C280 1.387 . S
C279 H282 0.950 . S
C280 C279 1.387 . S
C280 C283 1.387 . S
H281 C277 0.950 . S
H282 C279 0.950 . S
C283 C274 1.390 . S
C283 H276 0.950 . S
C283 C280 1.387 . S
C284 C285 1.387 . S
C284 H288 0.950 . S
C284 C293 1.390 . S
C285 C284 1.387 . S
C285 C287 1.387 . S
H286 C293 0.950 . S
C287 C285 1.387 . S
C287 C289 1.390 . S
C287 H291 0.950 . S
H288 C284 0.950 . S
C289 C287 1.390 . S
C289 C290 1.387 . S
C289 H292 0.950 . S
C290 C289 1.387 . S
C290 C293 1.387 . S
H291 C287 0.950 . S
H292 C289 0.950 . S
C293 C284 1.390 . S
C293 H286 0.950 . S
C293 C290 1.387 . S
C294 C295 1.387 . S
C294 H298 0.950 . S
C294 C303 1.390 . S
C295 C294 1.387 . S
C295 C297 1.387 . S
H296 C303 0.950 . S
C297 C295 1.387 . S
C297 C299 1.390 . S
C297 H301 0.950 . S
H298 C294 0.950 . S
C299 C297 1.390 . S
C299 C300 1.387 . S
C299 H302 0.950 . S
C300 C299 1.387 . S
C300 C303 1.387 . S
H301 C297 0.950 . S
H302 C299 0.950 . S
C303 C294 1.390 . S
C303 H296 0.950 . S
C303 C300 1.387 . S
C304 C305 1.387 . S
C304 H308 0.950 . S
C304 C313 1.390 1_445 S
C305 C304 1.387 . S
C305 C307 1.387 . S
H306 C313 0.950 . S
C307 C305 1.387 . S
C307 C309 1.390 1_445 S
C307 H311 0.950 . S
H308 C304 0.950 . S
C309 C307 1.390 1_665 S
C309 C310 1.387 . S
C309 H312 0.950 . S
C310 C309 1.387 . S
C310 C313 1.387 . S
H311 C307 0.950 . S
H312 C309 0.950 . S
C313 C304 1.390 1_665 S
C313 H306 0.950 . S
C313 C310 1.387 . S
C314 C315 1.387 . S
C314 H318 0.950 . S
C314 C323 1.390 1_655 S
C315 C314 1.387 . S
C315 C317 1.387 . S
H316 C323 0.950 . S
C317 C315 1.387 . S
C317 C319 1.390 1_655 S
C317 H321 0.950 . S
H318 C314 0.950 . S
C319 C317 1.390 1_455 S
C319 C320 1.387 . S
C319 H322 0.950 . S
C320 C319 1.387 . S
C320 C323 1.387 . S
H321 C317 0.950 . S
H322 C319 0.950 . S
C323 C314 1.390 1_455 S
C323 H316 0.950 . S
C323 C320 1.387 . S
C324 C325 1.387 . S
C324 H328 0.950 . S
C324 C333 1.390 . S
C325 C324 1.387 . S
C325 C327 1.387 . S
H326 C333 0.950 . S
C327 C325 1.387 . S
C327 C329 1.390 . S
C327 H331 0.950 . S
H328 C324 0.950 . S
C329 C327 1.390 . S
C329 C330 1.387 . S
C329 H332 0.950 . S
C330 C329 1.387 . S
C330 C333 1.387 . S
H331 C327 0.950 . S
H332 C329 0.950 . S
C333 C324 1.390 . S
C333 H326 0.950 . S
C333 C330 1.387 . S
C334 C335 1.387 . S
C334 H338 0.950 . S
C334 C343 1.390 1_565 S
C335 C334 1.387 . S
C335 C337 1.387 1_554 S
H336 C343 0.950 . S
C337 C335 1.387 1_556 S
C337 C339 1.390 1_565 S
C337 H341 0.950 . S
H338 C334 0.950 . S
C339 C337 1.390 1_545 S
C339 C340 1.387 1_556 S
C339 H342 0.950 . S
C340 C339 1.387 1_554 S
C340 C343 1.387 . S
H341 C337 0.950 . S
H342 C339 0.950 . S
C343 C334 1.390 1_545 S
C343 H336 0.950 . S
C343 C340 1.387 . S
C344 C345 1.387 1_556 S
C344 H348 0.950 . S
C344 C353 1.390 1_455 S
C345 C344 1.387 1_554 S
C345 C347 1.387 . S
H346 C353 0.950 . S
C347 C345 1.387 . S
C347 C349 1.390 1_455 S
C347 H351 0.950 . S
H348 C344 0.950 . S
C349 C347 1.390 1_655 S
C349 C350 1.387 . S
C349 H352 0.950 . S
C350 C349 1.387 . S
C350 C353 1.387 1_554 S
H351 C347 0.950 . S
H352 C349 0.950 . S
C353 C344 1.390 1_655 S
C353 H346 0.950 . S
C353 C350 1.387 1_556 S
C354 C355 1.387 . S
C354 H358 0.950 . S
C354 C363 1.390 . S
C355 C354 1.387 . S
C355 C357 1.387 . S
H356 C363 0.950 . S
C357 C355 1.387 . S
C357 C359 1.390 . S
C357 H361 0.950 . S
H358 C354 0.950 . S
C359 C357 1.390 . S
C359 C360 1.387 . S
C359 H362 0.950 . S
C360 C359 1.387 . S
C360 C363 1.387 . S
H361 C357 0.950 . S
H362 C359 0.950 . S
C363 C354 1.390 . S
C363 H356 0.950 . S
C363 C360 1.387 . S
C364 C365 1.387 . S
C364 H368 0.950 . S
C364 C373 1.390 1_545 S
C365 C364 1.387 . S
C365 C367 1.387 . S
H366 C373 0.950 . S
C367 C365 1.387 . S
C367 C369 1.390 1_545 S
C367 H371 0.950 . S
H368 C364 0.950 . S
C369 C367 1.390 1_565 S
C369 C370 1.387 . S
C369 H372 0.950 . S
C370 C369 1.387 . S
C370 C373 1.387 . S
H371 C367 0.950 . S
H372 C369 0.950 . S
C373 C364 1.390 1_565 S
C373 H366 0.950 . S
C373 C370 1.387 . S
C374 C375 1.387 . S
C374 H378 0.950 . S
C374 C383 1.390 1_445 S
C375 C374 1.387 . S
C375 C377 1.387 . S
H376 C383 0.950 . S
C377 C375 1.387 . S
C377 C379 1.390 1_445 S
C377 H381 0.950 . S
H378 C374 0.950 . S
C379 C377 1.390 1_665 S
C379 C380 1.387 . S
C379 H382 0.950 . S
C380 C379 1.387 . S
C380 C383 1.387 . S
H381 C377 0.950 . S
H382 C379 0.950 . S
C383 C374 1.390 1_665 S
C383 H376 0.950 . S
C383 C380 1.387 . S
C384 C385 1.387 . S
C384 H388 0.950 . S
C384 C393 1.390 . S
C385 C384 1.387 . S
C385 C387 1.387 . S
H386 C393 0.950 . S
C387 C385 1.387 . S
C387 C389 1.390 . S
C387 H391 0.950 . S
H388 C384 0.950 . S
C389 C387 1.390 . S
C389 C390 1.387 . S
C389 H392 0.950 . S
C390 C389 1.387 . S
C390 C393 1.387 . S
H391 C387 0.950 . S
H392 C389 0.950 . S
C393 C384 1.390 . S
C393 H386 0.950 . S
C393 C390 1.387 . S
C394 C395 1.387 . S
C394 H398 0.950 . S
C394 C403 1.390 . S
C395 C394 1.387 . S
C395 C397 1.387 . S
H396 C403 0.950 . S
C397 C395 1.387 . S
C397 C399 1.390 . S
C397 H401 0.950 . S
H398 C394 0.950 . S
C399 C397 1.390 . S
C399 C400 1.387 . S
C399 H402 0.950 . S
C400 C399 1.387 . S
C400 C403 1.387 . S
H401 C397 0.950 . S
H402 C399 0.950 . S
C403 C394 1.390 . S
C403 H396 0.950 . S
C403 C400 1.387 . S
C404 C405 1.387 . S
C404 H408 0.950 . S
C404 C413 1.390 . S
C405 C404 1.387 . S
C405 C407 1.387 . S
H406 C413 0.950 . S
C407 C405 1.387 . S
C407 C409 1.390 1_554 S
C407 H411 0.950 . S
H408 C404 0.950 . S
C409 C407 1.390 1_556 S
C409 C410 1.387 . S
C409 H412 0.950 . S
C410 C409 1.387 . S
C410 C413 1.387 1_556 S
H411 C407 0.950 . S
H412 C409 0.950 . S
C413 C404 1.390 . S
C413 H406 0.950 . S
C413 C410 1.387 1_554 S
C414 C415 1.387 . S
C414 H418 0.950 . S
C414 C423 1.390 . S
C415 C414 1.387 . S
C415 C417 1.387 . S
H416 C423 0.950 . S
C417 C415 1.387 . S
C417 C419 1.390 . S
C417 H421 0.950 . S
H418 C414 0.950 . S
C419 C417 1.390 . S
C419 C420 1.387 . S
C419 H422 0.950 . S
C420 C419 1.387 . S
C420 C423 1.387 . S
H421 C417 0.950 . S
H422 C419 0.950 . S
C423 C414 1.390 . S
C423 H416 0.950 . S
C423 C420 1.387 . S
C424 C425 1.387 . S
C424 H428 0.950 . S
C424 C433 1.390 . S
C425 C424 1.387 . S
C425 C427 1.387 . S
H426 C433 0.950 . S
C427 C425 1.387 . S
C427 C429 1.390 . S
C427 H431 0.950 . S
H428 C424 0.950 . S
C429 C427 1.390 . S
C429 C430 1.387 . S
C429 H432 0.950 . S
C430 C429 1.387 . S
C430 C433 1.387 . S
H431 C427 0.950 . S
H432 C429 0.950 . S
C433 C424 1.390 . S
C433 H426 0.950 . S
C433 C430 1.387 . S
C434 C435 1.387 . S
C434 H438 0.950 . S
C434 C443 1.390 1_554 S
C435 C434 1.387 . S
C435 C437 1.387 . S
H436 C443 0.950 . S
C437 C435 1.387 . S
C437 C439 1.390 . S
C437 H441 0.950 . S
H438 C434 0.950 . S
C439 C437 1.390 . S
C439 C440 1.387 1_554 S
C439 H442 0.950 . S
C440 C439 1.387 1_556 S
C440 C443 1.387 . S
H441 C437 0.950 . S
H442 C439 0.950 . S
C443 C434 1.390 1_556 S
C443 H436 0.950 . S
C443 C440 1.387 . S
C444 C445 1.387 . S
C444 H448 0.950 . S
C444 C453 1.390 . S
C445 C444 1.387 . S
C445 C447 1.387 . S
H446 C453 0.950 . S
C447 C445 1.387 . S
C447 C449 1.390 . S
C447 H451 0.950 . S
H448 C444 0.950 . S
C449 C447 1.390 . S
C449 C450 1.387 . S
C449 H452 0.950 . S
C450 C449 1.387 . S
C450 C453 1.387 . S
H451 C447 0.950 . S
H452 C449 0.950 . S
C453 C444 1.390 . S
C453 H446 0.950 . S
C453 C450 1.387 . S
C454 C455 1.387 . S
C454 H458 0.950 . S
C454 C463 1.390 . S
C455 C454 1.387 . S
C455 C457 1.387 . S
H456 C463 0.950 . S
C457 C455 1.387 . S
C457 C459 1.390 . S
C457 H461 0.950 . S
H458 C454 0.950 . S
C459 C457 1.390 . S
C459 C460 1.387 . S
C459 H462 0.950 . S
C460 C459 1.387 . S
C460 C463 1.387 . S
H461 C457 0.950 . S
H462 C459 0.950 . S
C463 C454 1.390 . S
C463 H456 0.950 . S
C463 C460 1.387 . S
C464 C465 1.387 1_554 S
C464 H468 0.950 1_554 S
C464 C473 1.390 . S
C465 C464 1.387 1_556 S
C465 C467 1.390 . S
H466 C473 0.950 . S
C467 C465 1.390 . S
C467 C469 1.385 1_556 S
C467 H471 0.952 . S
H468 C464 0.950 1_556 S
C469 C467 1.385 1_554 S
C469 C470 1.387 . S
C469 H472 0.950 . S
C470 C469 1.387 . S
C470 C473 1.387 . S
H471 C467 0.952 . S
H472 C469 0.950 . S
C473 C464 1.390 . S
C473 H466 0.950 . S
C473 C470 1.387 . S
C474 C475 1.387 . S
C474 H478 0.950 . S
C474 C483 1.390 . S
C475 C474 1.387 . S
C475 C477 1.387 . S
H476 C483 0.950 . S
C477 C475 1.387 . S
C477 C479 1.390 . S
C477 H481 0.950 . S
H478 C474 0.950 . S
C479 C477 1.390 . S
C479 C480 1.387 . S
C479 H482 0.950 . S
C480 C479 1.387 . S
C480 C483 1.387 . S
H481 C477 0.950 . S
H482 C479 0.950 . S
C483 C474 1.390 . S
C483 H476 0.950 . S
C483 C480 1.387 . S
C484 C485 1.387 . S
C484 H488 0.950 . S
C484 C493 1.390 . S
C485 C484 1.387 . S
C485 C487 1.387 . S
H486 C493 0.950 . S
C487 C485 1.387 . S
C487 C489 1.390 . S
C487 H491 0.950 . S
H488 C484 0.950 . S
C489 C487 1.390 . S
C489 C490 1.387 . S
C489 H492 0.950 . S
C490 C489 1.387 . S
C490 C493 1.387 . S
H491 C487 0.950 . S
H492 C489 0.950 . S
C493 C484 1.390 . S
C493 H486 0.950 . S
C493 C490 1.387 . S
C494 C495 1.387 . S
C494 H498 0.950 . S
C494 C503 1.390 . S
C495 C494 1.387 . S
C495 C497 1.387 . S
H496 C503 0.950 . S
C497 C495 1.387 . S
C497 C499 1.390 . S
C497 H501 0.950 . S
H498 C494 0.950 . S
C499 C497 1.390 . S
C499 C500 1.387 . S
C499 H502 0.950 . S
C500 C499 1.387 . S
C500 C503 1.387 . S
H501 C497 0.950 . S
H502 C499 0.950 . S
C503 C494 1.390 . S
C503 H496 0.950 . S
C503 C500 1.387 . S
C504 C505 1.387 . S
C504 H508 0.950 . S
C504 C513 1.390 . S
C505 C504 1.387 . S
C505 C507 1.387 . S
H506 C513 0.950 . S
C507 C505 1.387 . S
C507 C509 1.390 . S
C507 H511 0.950 . S
H508 C504 0.950 . S
C509 C507 1.390 . S
C509 C510 1.387 . S
C509 H512 0.950 . S
C510 C509 1.387 . S
C510 C513 1.387 . S
H511 C507 0.950 . S
H512 C509 0.950 . S
C513 C504 1.390 . S
C513 H506 0.950 . S
C513 C510 1.387 . S
C514 C515 1.387 . S
C514 H518 0.950 . S
C514 C523 1.390 . S
C515 C514 1.387 . S
C515 C517 1.387 . S
H516 C523 0.950 . S
C517 C515 1.387 . S
C517 C519 1.390 . S
C517 H521 0.950 . S
H518 C514 0.950 . S
C519 C517 1.390 . S
C519 C520 1.387 . S
C519 H522 0.950 . S
C520 C519 1.387 . S
C520 C523 1.387 . S
H521 C517 0.950 . S
H522 C519 0.950 . S
C523 C514 1.390 . S
C523 H516 0.950 . S
C523 C520 1.387 . S
C524 C525 1.387 . S
C524 H528 0.950 . S
C524 C533 1.390 . S
C525 C524 1.387 . S
C525 C527 1.387 . S
H526 C533 0.950 . S
C527 C525 1.387 . S
C527 C529 1.390 . S
C527 H531 0.950 . S
H528 C524 0.950 . S
C529 C527 1.390 . S
C529 C530 1.387 . S
C529 H532 0.950 . S
C530 C529 1.387 . S
C530 C533 1.387 . S
H531 C527 0.950 . S
H532 C529 0.950 . S
C533 C524 1.390 . S
C533 H526 0.950 . S
C533 C530 1.387 . S
C534 C535 1.387 . S
C534 H538 0.950 . S
C534 C543 1.390 . S
C535 C534 1.387 . S
C535 C537 1.387 . S
H536 C543 0.950 1_556 S
C537 C535 1.387 . S
C537 C539 1.390 . S
C537 H541 0.950 . S
H538 C534 0.950 . S
C539 C537 1.390 . S
C539 C540 1.387 1_554 S
C539 H542 0.950 1_554 S
C540 C539 1.387 1_556 S
C540 C543 1.387 1_556 S
H541 C537 0.950 . S
H542 C539 0.950 1_556 S
C543 C534 1.390 . S
C543 H536 0.950 1_554 S
C543 C540 1.387 1_554 S
C225 C92 1.583 . S
C230 C8 1.583 . S
C235 C106 1.583 . S
C240 C22 1.583 . S
C245 C36 1.580 . S
C250 C64 1.580 . S
C255 C50 1.583 . S
C260 C78 1.583 . S
C265 C120 1.583 . S
C270 C204 1.583 . S
C275 C218 1.580 . S
C280 C134 1.580 . S
C285 C148 1.583 . S
C290 C176 1.583 . S
C295 C162 1.583 . S
C300 C190 1.583 . S
C305 C9 1.440 . S
C310 C149 1.440 . S
C315 C23 1.440 . S
C320 C163 1.440 . S
C325 C37 1.440 . S
C330 C121 1.440 . S
C335 C51 1.440 . S
C340 C135 1.440 . S
C345 C65 1.440 . S
C350 C205 1.440 . S
C355 C219 1.437 . S
C360 C79 1.437 . S
C365 C93 1.440 . S
C370 C177 1.440 . S
C375 C191 1.437 . S
C380 C107 1.437 . S
C385 C189 0.852 . S
C390 C7 0.849 . S
C395 C21 0.855 . S
C400 C203 0.853 . S
C405 C217 0.850 . S
C410 C35 0.853 . S
C415 C175 0.850 . S
C420 C49 0.850 . S
C425 C161 0.855 . S
C430 C63 0.852 . S
C435 C77 0.855 . S
C440 C119 0.852 . S
C445 C91 0.852 . S
C450 C133 0.855 . S
C455 C105 0.854 . S
C460 C147 0.852 . S
C465 C185 1.515 . S
C470 C3 1.514 . S
C475 C17 1.515 . S
C480 C199 1.515 . S
C485 C31 1.514 . S
C490 C213 1.513 . S
C495 C171 1.514 . S
C500 C45 1.515 . S
C505 C157 1.513 . S
C510 C59 1.514 . S
C515 C115 1.514 . S
C520 C73 1.513 . S
C525 C87 1.514 . S
C530 C129 1.515 . S
C535 C143 1.515 . S
C540 C101 1.516 . S
