# Generated by pormake.
# Topology ull, (4)-cn, num edge types: 1
# Building blocks:
#     Node 0, Type 0, BuildingBlock: GALJAG_clean_sbu_0, # of connection points: 4
#     Node 1, Type 0, BuildingBlock: GALJAG_clean_sbu_0, # of connection points: 4
#     Node 2, Type 0, BuildingBlock: GALJAG_clean_sbu_0, # of connection points: 4
#     Node 3, Type 0, BuildingBlock: GALJAG_clean_sbu_0, # of connection points: 4
#     Node 4, Type 0, BuildingBlock: GALJAG_clean_sbu_0, # of connection points: 4
#     Node 5, Type 0, BuildingBlock: GALJAG_clean_sbu_0, # of connection points: 4
#     Node 6, Type 0, BuildingBlock: GALJAG_clean_sbu_0, # of connection points: 4
#     Node 7, Type 0, BuildingBlock: GALJAG_clean_sbu_0, # of connection points: 4
#     Node 8, Type 0, BuildingBlock: GALJAG_clean_sbu_0, # of connection points: 4
#     Node 9, Type 0, BuildingBlock: GALJAG_clean_sbu_0, # of connection points: 4
#     Node 10, Type 0, BuildingBlock: GALJAG_clean_sbu_0, # of connection points: 4
#     Node 11, Type 0, BuildingBlock: GALJAG_clean_sbu_0, # of connection points: 4
#     Node 12, Type 0, BuildingBlock: GALJAG_clean_sbu_0, # of connection points: 4
#     Node 13, Type 0, BuildingBlock: GALJAG_clean_sbu_0, # of connection points: 4
#     Node 14, Type 0, BuildingBlock: GALJAG_clean_sbu_0, # of connection points: 4
#     Node 15, Type 0, BuildingBlock: GALJAG_clean_sbu_0, # of connection points: 4
#     Node 16, Type 0, BuildingBlock: GALJAG_clean_sbu_0, # of connection points: 4
#     Node 17, Type 0, BuildingBlock: GALJAG_clean_sbu_0, # of connection points: 4
#     Node 18, Type 0, BuildingBlock: GALJAG_clean_sbu_0, # of connection points: 4
#     Node 19, Type 0, BuildingBlock: GALJAG_clean_sbu_0, # of connection points: 4
#     Node 20, Type 0, BuildingBlock: GALJAG_clean_sbu_0, # of connection points: 4
#     Node 21, Type 0, BuildingBlock: GALJAG_clean_sbu_0, # of connection points: 4
#     Node 22, Type 0, BuildingBlock: GALJAG_clean_sbu_0, # of connection points: 4
#     Node 23, Type 0, BuildingBlock: GALJAG_clean_sbu_0, # of connection points: 4
#     Node 24, Type 0, BuildingBlock: GALJAG_clean_sbu_0, # of connection points: 4
#     Node 25, Type 0, BuildingBlock: GALJAG_clean_sbu_0, # of connection points: 4
#     Node 26, Type 0, BuildingBlock: GALJAG_clean_sbu_0, # of connection points: 4
#     Node 27, Type 0, BuildingBlock: GALJAG_clean_sbu_0, # of connection points: 4
#     Node 28, Type 0, BuildingBlock: GALJAG_clean_sbu_0, # of connection points: 4
#     Node 29, Type 0, BuildingBlock: GALJAG_clean_sbu_0, # of connection points: 4
#     Node 30, Type 0, BuildingBlock: GALJAG_clean_sbu_0, # of connection points: 4
#     Node 31, Type 0, BuildingBlock: GALJAG_clean_sbu_0, # of connection points: 4
#     Node 32, Type 0, BuildingBlock: GALJAG_clean_sbu_0, # of connection points: 4
#     Node 33, Type 0, BuildingBlock: GALJAG_clean_sbu_0, # of connection points: 4
#     Node 34, Type 0, BuildingBlock: GALJAG_clean_sbu_0, # of connection points: 4
#     Node 35, Type 0, BuildingBlock: GALJAG_clean_sbu_0, # of connection points: 4
#     Node 36, Type 0, BuildingBlock: GALJAG_clean_sbu_0, # of connection points: 4
#     Node 37, Type 0, BuildingBlock: GALJAG_clean_sbu_0, # of connection points: 4
#     Node 38, Type 0, BuildingBlock: GALJAG_clean_sbu_0, # of connection points: 4
#     Node 39, Type 0, BuildingBlock: GALJAG_clean_sbu_0, # of connection points: 4
#     Node 40, Type 0, BuildingBlock: GALJAG_clean_sbu_0, # of connection points: 4
#     Node 41, Type 0, BuildingBlock: GALJAG_clean_sbu_0, # of connection points: 4
#     Node 42, Type 0, BuildingBlock: GALJAG_clean_sbu_0, # of connection points: 4
#     Node 43, Type 0, BuildingBlock: GALJAG_clean_sbu_0, # of connection points: 4
#     Node 44, Type 0, BuildingBlock: GALJAG_clean_sbu_0, # of connection points: 4
#     Node 45, Type 0, BuildingBlock: GALJAG_clean_sbu_0, # of connection points: 4
#     Node 46, Type 0, BuildingBlock: GALJAG_clean_sbu_0, # of connection points: 4
#     Node 47, Type 0, BuildingBlock: GALJAG_clean_sbu_0, # of connection points: 4
#     Edge 48, Type (0, 0), BuildingBlock: CIFDUS_clean_linker_0, # of connection points: 2
#     Edge 49, Type (0, 0), BuildingBlock: CIFDUS_clean_linker_0, # of connection points: 2
#     Edge 50, Type (0, 0), BuildingBlock: CIFDUS_clean_linker_0, # of connection points: 2
#     Edge 51, Type (0, 0), BuildingBlock: CIFDUS_clean_linker_0, # of connection points: 2
#     Edge 52, Type (0, 0), BuildingBlock: CIFDUS_clean_linker_0, # of connection points: 2
#     Edge 53, Type (0, 0), BuildingBlock: CIFDUS_clean_linker_0, # of connection points: 2
#     Edge 54, Type (0, 0), BuildingBlock: CIFDUS_clean_linker_0, # of connection points: 2
#     Edge 55, Type (0, 0), BuildingBlock: CIFDUS_clean_linker_0, # of connection points: 2
#     Edge 56, Type (0, 0), BuildingBlock: CIFDUS_clean_linker_0, # of connection points: 2
#     Edge 57, Type (0, 0), BuildingBlock: CIFDUS_clean_linker_0, # of connection points: 2
#     Edge 58, Type (0, 0), BuildingBlock: CIFDUS_clean_linker_0, # of connection points: 2
#     Edge 59, Type (0, 0), BuildingBlock: CIFDUS_clean_linker_0, # of connection points: 2
#     Edge 60, Type (0, 0), BuildingBlock: CIFDUS_clean_linker_0, # of connection points: 2
#     Edge 61, Type (0, 0), BuildingBlock: CIFDUS_clean_linker_0, # of connection points: 2
#     Edge 62, Type (0, 0), BuildingBlock: CIFDUS_clean_linker_0, # of connection points: 2
#     Edge 63, Type (0, 0), BuildingBlock: CIFDUS_clean_linker_0, # of connection points: 2
#     Edge 64, Type (0, 0), BuildingBlock: CIFDUS_clean_linker_0, # of connection points: 2
#     Edge 65, Type (0, 0), BuildingBlock: CIFDUS_clean_linker_0, # of connection points: 2
#     Edge 66, Type (0, 0), BuildingBlock: CIFDUS_clean_linker_0, # of connection points: 2
#     Edge 67, Type (0, 0), BuildingBlock: CIFDUS_clean_linker_0, # of connection points: 2
#     Edge 68, Type (0, 0), BuildingBlock: CIFDUS_clean_linker_0, # of connection points: 2
#     Edge 69, Type (0, 0), BuildingBlock: CIFDUS_clean_linker_0, # of connection points: 2
#     Edge 70, Type (0, 0), BuildingBlock: CIFDUS_clean_linker_0, # of connection points: 2
#     Edge 71, Type (0, 0), BuildingBlock: CIFDUS_clean_linker_0, # of connection points: 2
#     Edge 72, Type (0, 0), BuildingBlock: CIFDUS_clean_linker_0, # of connection points: 2
#     Edge 73, Type (0, 0), BuildingBlock: CIFDUS_clean_linker_0, # of connection points: 2
#     Edge 74, Type (0, 0), BuildingBlock: CIFDUS_clean_linker_0, # of connection points: 2
#     Edge 75, Type (0, 0), BuildingBlock: CIFDUS_clean_linker_0, # of connection points: 2
#     Edge 76, Type (0, 0), BuildingBlock: CIFDUS_clean_linker_0, # of connection points: 2
#     Edge 77, Type (0, 0), BuildingBlock: CIFDUS_clean_linker_0, # of connection points: 2
#     Edge 78, Type (0, 0), BuildingBlock: CIFDUS_clean_linker_0, # of connection points: 2
#     Edge 79, Type (0, 0), BuildingBlock: CIFDUS_clean_linker_0, # of connection points: 2
#     Edge 80, Type (0, 0), BuildingBlock: CIFDUS_clean_linker_0, # of connection points: 2
#     Edge 81, Type (0, 0), BuildingBlock: CIFDUS_clean_linker_0, # of connection points: 2
#     Edge 82, Type (0, 0), BuildingBlock: CIFDUS_clean_linker_0, # of connection points: 2
#     Edge 83, Type (0, 0), BuildingBlock: CIFDUS_clean_linker_0, # of connection points: 2
#     Edge 84, Type (0, 0), BuildingBlock: CIFDUS_clean_linker_0, # of connection points: 2
#     Edge 85, Type (0, 0), BuildingBlock: CIFDUS_clean_linker_0, # of connection points: 2
#     Edge 86, Type (0, 0), BuildingBlock: CIFDUS_clean_linker_0, # of connection points: 2
#     Edge 87, Type (0, 0), BuildingBlock: CIFDUS_clean_linker_0, # of connection points: 2
#     Edge 88, Type (0, 0), BuildingBlock: CIFDUS_clean_linker_0, # of connection points: 2
#     Edge 89, Type (0, 0), BuildingBlock: CIFDUS_clean_linker_0, # of connection points: 2
#     Edge 90, Type (0, 0), BuildingBlock: CIFDUS_clean_linker_0, # of connection points: 2
#     Edge 91, Type (0, 0), BuildingBlock: CIFDUS_clean_linker_0, # of connection points: 2
#     Edge 92, Type (0, 0), BuildingBlock: CIFDUS_clean_linker_0, # of connection points: 2
#     Edge 93, Type (0, 0), BuildingBlock: CIFDUS_clean_linker_0, # of connection points: 2
#     Edge 94, Type (0, 0), BuildingBlock: CIFDUS_clean_linker_0, # of connection points: 2
#     Edge 95, Type (0, 0), BuildingBlock: CIFDUS_clean_linker_0, # of connection points: 2
#     Edge 96, Type (0, 0), BuildingBlock: CIFDUS_clean_linker_0, # of connection points: 2
#     Edge 97, Type (0, 0), BuildingBlock: CIFDUS_clean_linker_0, # of connection points: 2
#     Edge 98, Type (0, 0), BuildingBlock: CIFDUS_clean_linker_0, # of connection points: 2
#     Edge 99, Type (0, 0), BuildingBlock: CIFDUS_clean_linker_0, # of connection points: 2
#     Edge 100, Type (0, 0), BuildingBlock: CIFDUS_clean_linker_0, # of connection points: 2
#     Edge 101, Type (0, 0), BuildingBlock: CIFDUS_clean_linker_0, # of connection points: 2
#     Edge 102, Type (0, 0), BuildingBlock: CIFDUS_clean_linker_0, # of connection points: 2
#     Edge 103, Type (0, 0), BuildingBlock: CIFDUS_clean_linker_0, # of connection points: 2
#     Edge 104, Type (0, 0), BuildingBlock: CIFDUS_clean_linker_0, # of connection points: 2
#     Edge 105, Type (0, 0), BuildingBlock: CIFDUS_clean_linker_0, # of connection points: 2
#     Edge 106, Type (0, 0), BuildingBlock: CIFDUS_clean_linker_0, # of connection points: 2
#     Edge 107, Type (0, 0), BuildingBlock: CIFDUS_clean_linker_0, # of connection points: 2
#     Edge 108, Type (0, 0), BuildingBlock: CIFDUS_clean_linker_0, # of connection points: 2
#     Edge 109, Type (0, 0), BuildingBlock: CIFDUS_clean_linker_0, # of connection points: 2
#     Edge 110, Type (0, 0), BuildingBlock: CIFDUS_clean_linker_0, # of connection points: 2
#     Edge 111, Type (0, 0), BuildingBlock: CIFDUS_clean_linker_0, # of connection points: 2
#     Edge 112, Type (0, 0), BuildingBlock: CIFDUS_clean_linker_0, # of connection points: 2
#     Edge 113, Type (0, 0), BuildingBlock: CIFDUS_clean_linker_0, # of connection points: 2
#     Edge 114, Type (0, 0), BuildingBlock: CIFDUS_clean_linker_0, # of connection points: 2
#     Edge 115, Type (0, 0), BuildingBlock: CIFDUS_clean_linker_0, # of connection points: 2
#     Edge 116, Type (0, 0), BuildingBlock: CIFDUS_clean_linker_0, # of connection points: 2
#     Edge 117, Type (0, 0), BuildingBlock: CIFDUS_clean_linker_0, # of connection points: 2
#     Edge 118, Type (0, 0), BuildingBlock: CIFDUS_clean_linker_0, # of connection points: 2
#     Edge 119, Type (0, 0), BuildingBlock: CIFDUS_clean_linker_0, # of connection points: 2
#     Edge 120, Type (0, 0), BuildingBlock: CIFDUS_clean_linker_0, # of connection points: 2
#     Edge 121, Type (0, 0), BuildingBlock: CIFDUS_clean_linker_0, # of connection points: 2
#     Edge 122, Type (0, 0), BuildingBlock: CIFDUS_clean_linker_0, # of connection points: 2
#     Edge 123, Type (0, 0), BuildingBlock: CIFDUS_clean_linker_0, # of connection points: 2
#     Edge 124, Type (0, 0), BuildingBlock: CIFDUS_clean_linker_0, # of connection points: 2
#     Edge 125, Type (0, 0), BuildingBlock: CIFDUS_clean_linker_0, # of connection points: 2
#     Edge 126, Type (0, 0), BuildingBlock: CIFDUS_clean_linker_0, # of connection points: 2
#     Edge 127, Type (0, 0), BuildingBlock: CIFDUS_clean_linker_0, # of connection points: 2
#     Edge 128, Type (0, 0), BuildingBlock: CIFDUS_clean_linker_0, # of connection points: 2
#     Edge 129, Type (0, 0), BuildingBlock: CIFDUS_clean_linker_0, # of connection points: 2
#     Edge 130, Type (0, 0), BuildingBlock: CIFDUS_clean_linker_0, # of connection points: 2
#     Edge 131, Type (0, 0), BuildingBlock: CIFDUS_clean_linker_0, # of connection points: 2
#     Edge 132, Type (0, 0), BuildingBlock: CIFDUS_clean_linker_0, # of connection points: 2
#     Edge 133, Type (0, 0), BuildingBlock: CIFDUS_clean_linker_0, # of connection points: 2
#     Edge 134, Type (0, 0), BuildingBlock: CIFDUS_clean_linker_0, # of connection points: 2
#     Edge 135, Type (0, 0), BuildingBlock: CIFDUS_clean_linker_0, # of connection points: 2
#     Edge 136, Type (0, 0), BuildingBlock: CIFDUS_clean_linker_0, # of connection points: 2
#     Edge 137, Type (0, 0), BuildingBlock: CIFDUS_clean_linker_0, # of connection points: 2
#     Edge 138, Type (0, 0), BuildingBlock: CIFDUS_clean_linker_0, # of connection points: 2
#     Edge 139, Type (0, 0), BuildingBlock: CIFDUS_clean_linker_0, # of connection points: 2
#     Edge 140, Type (0, 0), BuildingBlock: CIFDUS_clean_linker_0, # of connection points: 2
#     Edge 141, Type (0, 0), BuildingBlock: CIFDUS_clean_linker_0, # of connection points: 2
#     Edge 142, Type (0, 0), BuildingBlock: CIFDUS_clean_linker_0, # of connection points: 2
#     Edge 143, Type (0, 0), BuildingBlock: CIFDUS_clean_linker_0, # of connection points: 2
# Relax obj value: 0.015
# Max RMSD: 0.045
# Mean RMSD: 0.045
data_MOF--net-ull--node1-GALJAG_clean_sbu_0--edge1-CIFDUS_clean_linker_0
_symmetry_space_group_name_H-M    P1
_symmetry_Int_Tables_number       1
_symmetry_cell_setting            triclinic
loop_
_symmetry_equiv_pos_as_xyz
'x, y, z'
_cell_length_a     54.114194
_cell_length_b     54.10233
_cell_length_c     54.106903
_cell_angle_alpha  90.008383
_cell_angle_beta   89.9965
_cell_angle_gamma 90.011324
loop_
_atom_site_label
_atom_site_type_symbol
_atom_site_fract_x
_atom_site_fract_y
_atom_site_fract_z
_atom_type_partial_charge
In0 In 0.02223 0.35328 0.17957 0.0
O1 O 0.02001 0.31372 0.19397 0.0
O2 O 0.00413 0.34227 0.21597 0.0
C3 C 0.05586 0.34767 0.14311 0.0
C4 C 0.04684 0.38423 0.20993 0.0
C5 C 0.98003 0.35807 0.15317 0.0
O6 O 0.04999 0.33032 0.15757 0.0
O7 O 0.04478 0.3678 0.14703 0.0
O8 O 0.99151 0.37671 0.16137 0.0
O9 O 0.98961 0.33763 0.15869 0.0
C10 C 0.00858 0.31949 0.2135 0.0
O11 O 0.0257 0.38966 0.20144 0.0
O12 O 0.05517 0.3636 0.20293 0.0
In13 In 0.66346 0.02597 0.16695 0.0
O14 O 0.6287 0.02851 0.19175 0.0
O15 O 0.65728 0.05519 0.19579 0.0
C16 C 0.65896 0.98337 0.14145 0.0
C17 C 0.70324 0.01621 0.19515 0.0
C18 C 0.65749 0.05908 0.13013 0.0
O19 O 0.64241 0.99076 0.15626 0.0
O20 O 0.67753 0.99738 0.13972 0.0
O21 O 0.6785 0.05379 0.13886 0.0
O22 O 0.63974 0.04744 0.13973 0.0
C23 C 0.63642 0.04765 0.2028 0.0
O24 O 0.70221 0.03474 0.18096 0.0
O25 O 0.68446 0.00234 0.1947 0.0
In26 In 0.97991 0.64941 0.1752 0.0
O27 O 0.97959 0.68883 0.19061 0.0
O28 O 0.99415 0.66021 0.21328 0.0
C29 C 0.94564 0.65444 0.13922 0.0
C30 C 0.95808 0.61468 0.20353 0.0
C31 C 0.02263 0.64683 0.14914 0.0
O32 O 0.95072 0.67163 0.15419 0.0
O33 O 0.95797 0.63489 0.14228 0.0
O34 O 0.01157 0.62772 0.15675 0.0
O35 O 0.01237 0.66684 0.15502 0.0
C36 C 0.98923 0.68287 0.211 0.0
O37 O 0.98076 0.6134 0.1979 0.0
O38 O 0.94684 0.63314 0.19475 0.0
In39 In 0.34367 0.96986 0.16891 0.0
O40 O 0.37912 0.96304 0.1913 0.0
O41 O 0.35138 0.93502 0.19027 0.0
C42 C 0.34996 0.01328 0.14518 0.0
C43 C 0.31049 0.983 0.20361 0.0
C44 C 0.34 0.9389 0.13003 0.0
O45 O 0.36793 0.00203 0.15507 0.0
O46 O 0.32937 0.00272 0.14759 0.0
O47 O 0.32163 0.94441 0.14339 0.0
O48 O 0.36005 0.94906 0.13626 0.0
C49 C 0.37224 0.94175 0.19828 0.0
O50 O 0.30417 0.97206 0.18394 0.0
O51 O 0.33334 0.98724 0.20563 0.0
In52 In 0.02827 0.66289 0.83263 0.0
O53 O 0.03523 0.62525 0.81306 0.0
O54 O 0.05121 0.65773 0.79823 0.0
C55 C 0.98674 0.64898 0.85652 0.0
C56 C 0.01379 0.70486 0.80956 0.0
C57 C 0.06237 0.66802 0.86879 0.0
O58 O 0.98868 0.64766 0.83327 0.0
O59 O 0.00598 0.65616 0.86754 0.0
O60 O 0.05 0.68599 0.86048 0.0
O61 O 0.05769 0.64751 0.85871 0.0
C62 C 0.04875 0.6347 0.79653 0.0
O63 O 0.03623 0.69967 0.81314 0.0
O64 O 0.99875 0.6894 0.81828 0.0
In65 In 0.3335 0.02988 0.82268 0.0
O66 O 0.29311 0.03213 0.81145 0.0
O67 O 0.31844 0.01568 0.78606 0.0
C68 C 0.3312 0.05786 0.8639 0.0
C69 C 0.36211 0.05792 0.7929 0.0
C70 C 0.33799 0.98407 0.84227 0.0
O71 O 0.31266 0.05391 0.85032 0.0
O72 O 0.35088 0.04762 0.85675 0.0
O73 O 0.31768 0.99428 0.83752 0.0
O74 O 0.35681 0.9968 0.83674 0.0
C75 C 0.29636 0.0217 0.79079 0.0
O76 O 0.36826 0.03605 0.7986 0.0
O77 O 0.34204 0.06513 0.80227 0.0
In78 In 0.98163 0.35449 0.83129 0.0
O79 O 0.9749 0.3174 0.81224 0.0
O80 O 0.00959 0.3352 0.80652 0.0
C81 C 0.94594 0.35593 0.86621 0.0
C82 C 0.96393 0.38436 0.79554 0.0
C83 C 0.02153 0.35805 0.86073 0.0
O84 O 0.95328 0.33594 0.85662 0.0
O85 O 0.95635 0.37506 0.85796 0.0
O86 O 0.01542 0.3753 0.84613 0.0
O87 O 0.00752 0.33941 0.86034 0.0
C88 C 0.99585 0.31692 0.80189 0.0
O89 O 0.98107 0.39136 0.80983 0.0
O90 O 0.95614 0.36277 0.79948 0.0
In91 In 0.66069 0.97431 0.82766 0.0
O92 O 0.69622 0.9607 0.80936 0.0
O93 O 0.68964 0.99938 0.80974 0.0
C94 C 0.66436 0.93949 0.86341 0.0
C95 C 0.62926 0.95816 0.79191 0.0
C96 C 0.65265 0.01761 0.85151 0.0
O97 O 0.68277 0.95086 0.85469 0.0
O98 O 0.64388 0.94554 0.85398 0.0
O99 O 0.65065 0.0156 0.82834 0.0
O100 O 0.65772 0.99773 0.86253 0.0
C101 C 0.70346 0.98191 0.80289 0.0
O102 O 0.6522 0.95473 0.79187 0.0
O103 O 0.62141 0.97007 0.8104 0.0
In104 In 0.16825 0.02788 0.33127 0.0
O105 O 0.19245 0.03058 0.36613 0.0
O106 O 0.18922 0.06188 0.34235 0.0
C107 C 0.14692 0.983 0.3314 0.0
C108 C 0.20058 0.0205 0.29429 0.0
C109 C 0.12808 0.05695 0.33563 0.0
O110 O 0.15626 0.99209 0.35084 0.0
O111 O 0.14859 0.99641 0.31245 0.0
O112 O 0.14112 0.05662 0.31622 0.0
O113 O 0.13517 0.04244 0.35244 0.0
C114 C 0.19843 0.05282 0.36177 0.0
O115 O 0.18029 0.03165 0.29094 0.0
O116 O 0.20452 0.01345 0.3162 0.0
In117 In 0.96614 0.1686 0.33186 0.0
O118 O 0.9605 0.18442 0.29309 0.0
O119 O 0.97915 0.20669 0.31965 0.0
C120 C 0.9347 0.12988 0.32926 0.0
C121 C 0.94604 0.19585 0.36838 0.0
C122 C 0.01054 0.14567 0.32994 0.0
O123 O 0.93758 0.14487 0.3116 0.0
O124 O 0.94765 0.1344 0.3481 0.0
O125 O 1.00007 0.15056 0.35023 0.0
O126 O 0.99881 0.15256 0.31111 0.0
C127 C 0.97137 0.20457 0.29776 0.0
O128 O 0.96881 0.19053 0.36812 0.0
O129 O 0.93379 0.18741 0.3504 0.0
In130 In 0.82607 0.96652 0.33965 0.0
O131 O 0.80011 0.96704 0.37363 0.0
O132 O 0.79702 0.93783 0.34754 0.0
C133 C 0.85063 0.00968 0.34375 0.0
C134 C 0.79862 0.97422 0.29883 0.0
C135 C 0.86399 0.93437 0.34522 0.0
O136 O 0.83773 0.00111 0.36128 0.0
O137 O 0.85098 0.99655 0.32449 0.0
O138 O 0.85552 0.94037 0.32434 0.0
O139 O 0.85335 0.94456 0.36326 0.0
C140 C 0.78917 0.94737 0.36726 0.0
O141 O 0.81132 0.95486 0.3019 0.0
O142 O 0.80001 0.9898 0.31616 0.0
In143 In 0.02847 0.8266 0.33914 0.0
O144 O 0.03265 0.81379 0.29921 0.0
O145 O 0.01271 0.7907 0.32423 0.0
C146 C 0.05882 0.86579 0.34293 0.0
C147 C 0.05378 0.7965 0.36947 0.0
C148 C 0.98435 0.84961 0.33779 0.0
O149 O 0.05744 0.85285 0.3235 0.0
O150 O 0.04463 0.85913 0.36021 0.0
O151 O 0.99178 0.83884 0.35723 0.0
O152 O 0.99906 0.84854 0.31978 0.0
C153 C 0.02057 0.79403 0.30248 0.0
O154 O 0.03196 0.80331 0.37471 0.0
O155 O 0.06209 0.80477 0.34931 0.0
In156 In 0.16343 0.97588 0.65326 0.0
O157 O 0.18071 0.97708 0.69174 0.0
O158 O 0.20194 0.99052 0.66141 0.0
C159 C 0.1237 0.94672 0.66038 0.0
C160 C 0.18893 0.94642 0.62247 0.0
C161 C 0.14181 0.02053 0.64813 0.0
O162 O 0.13877 0.95173 0.67751 0.0
O163 O 0.12854 0.95665 0.63984 0.0
O164 O 0.14902 0.00821 0.6296 0.0
O165 O 0.14576 0.01039 0.66868 0.0
C166 C 0.20077 0.98652 0.68436 0.0
O167 O 0.18353 0.96845 0.61659 0.0
O168 O 0.18138 0.9397 0.64349 0.0
In169 In 0.02904 0.18034 0.66424 0.0
O170 O 0.03078 0.20008 0.62633 0.0
O171 O 0.05908 0.20649 0.6529 0.0
C172 C 0.988 0.15245 0.66588 0.0
C173 C 0.01604 0.21383 0.69864 0.0
C174 C 0.06198 0.14303 0.66503 0.0
O175 O 0.9941 0.16401 0.64641 0.0
O176 O 0.00258 0.15505 0.68387 0.0
O177 O 0.05756 0.15621 0.68382 0.0
O178 O 0.04988 0.14879 0.64595 0.0
C179 C 0.05083 0.211 0.63159 0.0
O180 O 0.03548 0.20098 0.70051 0.0
O181 O 0.00344 0.20996 0.67938 0.0
In182 In 0.82972 0.03525 0.66285 0.0
O183 O 0.80423 0.03786 0.62874 0.0
O184 O 0.80415 0.06711 0.65501 0.0
C185 C 0.8524 0.99123 0.65802 0.0
C186 C 0.80153 0.02658 0.703 0.0
C187 C 0.8692 0.06535 0.65794 0.0
O188 O 0.83876 0.99995 0.64113 0.0
O189 O 0.85454 0.00476 0.67689 0.0
O190 O 0.85986 0.06018 0.6787 0.0
O191 O 0.85874 0.0552 0.63975 0.0
C192 C 0.79569 0.05873 0.635 0.0
O193 O 0.81605 0.04483 0.70167 0.0
O194 O 0.80122 0.01285 0.68413 0.0
In195 In 0.96536 0.83084 0.66706 0.0
O196 O 0.96407 0.81409 0.7058 0.0
O197 O 0.99291 0.80267 0.68157 0.0
C198 C 0.93303 0.86865 0.67065 0.0
C199 C 0.94028 0.79696 0.64032 0.0
C200 C 0.00603 0.85799 0.65794 0.0
O201 O 0.94132 0.8574 0.68936 0.0
O202 O 0.94076 0.86056 0.6502 0.0
O203 O 0.9958 0.84524 0.64118 0.0
O204 O 0.99575 0.85683 0.67881 0.0
C205 C 0.9831 0.8009 0.70267 0.0
O206 O 0.95941 0.80744 0.63189 0.0
O207 O 0.93421 0.80364 0.66181 0.0
In208 In 0.34157 0.16915 0.02539 0.0
O209 O 0.3065 0.19112 0.0343 0.0
O210 O 0.32292 0.19611 0.99895 0.0
C211 C 0.33834 0.13175 0.05831 0.0
C212 C 0.37465 0.20082 0.04507 0.0
C213 C 0.346 0.14144 0.98437 0.0
O214 O 0.31966 0.14361 0.0509 0.0
O215 O 0.35858 0.13879 0.04916 0.0
O216 O 0.36421 0.15289 0.99355 0.0
O217 O 0.3259 0.14407 0.99589 0.0
C218 C 0.30573 0.20185 0.0136 0.0
O219 O 0.37767 0.19173 0.02376 0.0
O220 O 0.35527 0.19388 0.05595 0.0
In221 In 0.34753 0.83155 0.96586 0.0
O222 O 0.30607 0.82295 0.9658 0.0
O223 O 0.33046 0.79745 0.98332 0.0
C224 C 0.35174 0.86946 0.93357 0.0
C225 C 0.37418 0.79712 0.94166 0.0
C226 C 0.3526 0.85472 0.00971 0.0
O227 O 0.33218 0.85685 0.93567 0.0
O228 O 0.36901 0.86301 0.94784 0.0
O229 O 0.37002 0.8422 1.00036 0.0
O230 O 0.3331 0.85533 0.997 0.0
C231 C 0.3085 0.80289 0.97755 0.0
O232 O 0.38167 0.80631 0.96186 0.0
O233 O 0.35383 0.80554 0.93403 0.0
In234 In 0.17287 0.34417 0.98564 0.0
O235 O 0.19119 0.30661 0.97963 0.0
O236 O 0.20257 0.32791 0.01069 0.0
C237 C 0.13381 0.34154 0.9548 0.0
C238 C 0.20376 0.37328 0.95951 0.0
C239 C 0.1472 0.35203 0.02755 0.0
O240 O 0.14461 0.32246 0.96288 0.0
O241 O 0.14261 0.36173 0.96243 0.0
O242 O 0.15914 0.36919 0.01703 0.0
O243 O 0.14853 0.33127 0.01703 0.0
C244 C 0.20497 0.30823 0.9984 0.0
O245 O 0.19678 0.37929 0.98102 0.0
O246 O 0.1955 0.35286 0.95194 0.0
In247 In 0.65639 0.17371 0.97201 0.0
O248 O 0.61957 0.19492 0.97415 0.0
O249 O 0.63824 0.19225 0.93957 0.0
C250 C 0.66074 0.15313 0.01701 0.0
C251 C 0.69087 0.20936 0.97636 0.0
C252 C 0.65467 0.13234 0.94413 0.0
O253 O 0.64004 0.16023 0.00869 0.0
O254 O 0.6789 0.15711 0.00294 0.0
O255 O 0.66879 0.15018 0.93873 0.0
O256 O 0.64173 0.13551 0.96323 0.0
C257 C 0.62008 0.20076 0.95147 0.0
O258 O 0.69603 0.18831 0.96753 0.0
O259 O 0.66863 0.21224 0.98269 0.0
In260 In 0.83312 0.65119 0.97959 0.0
O261 O 0.80804 0.61674 0.97912 0.0
O262 O 0.81324 0.63689 0.94579 0.0
C263 C 0.85332 0.64626 0.02487 0.0
C264 C 0.80355 0.69096 0.98623 0.0
C265 C 0.87419 0.64829 0.95119 0.0
O266 O 0.84357 0.62825 0.01358 0.0
O267 O 0.85204 0.66668 0.01367 0.0
O268 O 0.85679 0.66304 0.94623 0.0
O269 O 0.87088 0.63538 0.97025 0.0
C270 C 0.80293 0.61889 0.9564 0.0
O271 O 0.82535 0.69291 0.97807 0.0
O272 O 0.79684 0.66913 0.99095 0.0
In273 In 0.66422 0.82566 0.02345 0.0
O274 O 0.70332 0.80914 0.02266 0.0
O275 O 0.67403 0.78864 0.00625 0.0
C276 C 0.66916 0.86519 0.05357 0.0
C277 C 0.63528 0.79756 0.05268 0.0
C278 C 0.65694 0.84913 0.97987 0.0
O279 O 0.68742 0.85221 0.04689 0.0
O280 O 0.64861 0.85827 0.04498 0.0
O281 O 0.63931 0.83917 0.99156 0.0
O282 O 0.67777 0.84677 0.98997 0.0
C283 C 0.69671 0.78966 0.01155 0.0
O284 O 0.62851 0.80373 0.03112 0.0
O285 O 0.65618 0.80571 0.05909 0.0
In286 In 0.17689 0.66505 0.02827 0.0
O287 O 0.19842 0.62914 0.03553 0.0
O288 O 0.19954 0.658 0.06239 0.0
C289 C 0.1525 0.65925 0.98518 0.0
C290 C 0.21202 0.69763 0.01468 0.0
C291 C 0.13855 0.66693 0.06006 0.0
O292 O 0.16419 0.64161 0.99516 0.0
O293 O 0.15344 0.6794 0.99685 0.0
O294 O 0.15148 0.68579 0.05506 0.0
O295 O 0.14487 0.64747 0.04886 0.0
C296 C 0.20659 0.63664 0.05618 0.0
O297 O 0.19273 0.70441 0.02605 0.0
O298 O 0.21321 0.67481 0.01003 0.0
In299 In 0.83137 0.33801 0.02553 0.0
O300 O 0.81827 0.29791 0.02774 0.0
O301 O 0.7968 0.32316 0.00658 0.0
C302 C 0.8672 0.33847 0.06034 0.0
C303 C 0.79984 0.37071 0.04611 0.0
C304 C 0.85801 0.33876 0.9833 0.0
O305 O 0.85318 0.32013 0.05689 0.0
O306 O 0.86327 0.35652 0.04612 0.0
O307 O 0.84679 0.35775 0.99105 0.0
O308 O 0.85576 0.31997 0.99683 0.0
C309 C 0.79962 0.30125 0.0141 0.0
O310 O 0.80961 0.3746 0.02521 0.0
O311 O 0.8059 0.35053 0.05611 0.0
In312 In 0.51202 0.85604 0.67465 0.0
O313 O 0.51026 0.89104 0.69912 0.0
O314 O 0.54493 0.8733 0.69305 0.0
C315 C 0.46858 0.85145 0.65051 0.0
C316 C 0.50721 0.82092 0.7095 0.0
C317 C 0.54348 0.85926 0.63622 0.0
O318 O 0.47579 0.87211 0.65886 0.0
O319 O 0.48299 0.83368 0.65475 0.0
O320 O 0.54381 0.84125 0.65116 0.0
O321 O 0.527 0.87523 0.64047 0.0
C322 C 0.53332 0.89069 0.70335 0.0
O323 O 0.51798 0.81674 0.68917 0.0
O324 O 0.49905 0.84261 0.71212 0.0
In325 In 0.16093 0.52355 0.68034 0.0
O326 O 0.12548 0.52171 0.70406 0.0
O327 O 0.14542 0.55552 0.70217 0.0
C328 C 0.15838 0.48272 0.65202 0.0
C329 C 0.19649 0.51184 0.71336 0.0
C330 C 0.16366 0.55599 0.64259 0.0
O331 O 0.1396 0.49116 0.66313 0.0
O332 O 0.178 0.49483 0.65535 0.0
O333 O 0.18238 0.54982 0.65515 0.0
O334 O 0.1437 0.54589 0.64917 0.0
C335 C 0.12698 0.54409 0.71064 0.0
O336 O 0.1967 0.53193 0.70146 0.0
O337 O 0.1783 0.498 0.70885 0.0
In338 In 0.47381 0.16516 0.67129 0.0
O339 O 0.4697 0.20567 0.6821 0.0
O340 O 0.4871 0.18135 0.70777 0.0
C341 C 0.44267 0.16548 0.63222 0.0
C342 C 0.45182 0.13296 0.70247 0.0
C343 C 0.51868 0.16313 0.64904 0.0
O344 O 0.4468 0.18445 0.64512 0.0
O345 O 0.45418 0.14642 0.63901 0.0
O346 O 0.50808 0.1829 0.65502 0.0
O347 O 0.50692 0.14378 0.65472 0.0
C348 C 0.48016 0.2031 0.70282 0.0
O349 O 0.47381 0.12987 0.69509 0.0
O350 O 0.44136 0.15209 0.69416 0.0
In351 In 0.8463 0.4714 0.66487 0.0
O352 O 0.88079 0.47002 0.68999 0.0
O353 O 0.86268 0.43647 0.68047 0.0
C354 C 0.85128 0.51715 0.64593 0.0
C355 C 0.80757 0.47783 0.69572 0.0
C356 C 0.84542 0.44397 0.62322 0.0
O357 O 0.86981 0.50464 0.65287 0.0
O358 O 0.83067 0.5068 0.64928 0.0
O359 O 0.83323 0.43799 0.6422 0.0
O360 O 0.8576 0.4637 0.62515 0.0
C361 C 0.88001 0.44674 0.69215 0.0
O362 O 0.80485 0.47066 0.67367 0.0
O363 O 0.82969 0.48125 0.70221 0.0
In364 In 0.5226 0.15453 0.32158 0.0
O365 O 0.52192 0.12006 0.29647 0.0
O366 O 0.55575 0.13949 0.30129 0.0
C367 C 0.47728 0.14393 0.34029 0.0
C368 C 0.51837 0.19599 0.29408 0.0
C369 C 0.55336 0.15969 0.36063 0.0
O370 O 0.48038 0.1576 0.32174 0.0
O371 O 0.49684 0.13441 0.34848 0.0
O372 O 0.54423 0.17805 0.34949 0.0
O373 O 0.54705 0.13902 0.35202 0.0
C374 C 0.5447 0.12151 0.2914 0.0
O375 O 0.52305 0.17506 0.28492 0.0
O376 O 0.51627 0.19622 0.31733 0.0
In377 In 0.84058 0.52507 0.333 0.0
O378 O 0.87645 0.5265 0.30962 0.0
O379 O 0.84712 0.55169 0.30208 0.0
C380 C 0.83906 0.48443 0.36149 0.0
C381 C 0.80285 0.5115 0.30386 0.0
C382 C 0.84592 0.55953 0.36862 0.0
O383 O 0.85705 0.48841 0.34694 0.0
O384 O 0.82279 0.50114 0.36184 0.0
O385 O 0.82548 0.55552 0.35799 0.0
O386 O 0.86361 0.54626 0.36114 0.0
C387 C 0.86841 0.54414 0.29642 0.0
O388 O 0.80282 0.53191 0.31534 0.0
O389 O 0.82169 0.49815 0.30719 0.0
In390 In 0.47765 0.84164 0.3304 0.0
O391 O 0.47221 0.80556 0.30919 0.0
O392 O 0.50619 0.82482 0.30443 0.0
C393 C 0.44334 0.83716 0.36641 0.0
C394 C 0.45746 0.87241 0.29673 0.0
C395 C 0.51717 0.84885 0.35975 0.0
O396 O 0.45324 0.81866 0.35619 0.0
O397 O 0.45054 0.85777 0.35828 0.0
O398 O 0.50731 0.86638 0.34781 0.0
O399 O 0.50717 0.82802 0.35666 0.0
C400 C 0.4931 0.80636 0.29881 0.0
O401 O 0.4771 0.87796 0.30813 0.0
O402 O 0.44839 0.85173 0.30246 0.0
In403 In 0.16894 0.47298 0.3373 0.0
O404 O 0.20933 0.47089 0.32506 0.0
O405 O 0.18394 0.49097 0.30254 0.0
C406 C 0.16552 0.44075 0.37517 0.0
C407 C 0.13987 0.449 0.30476 0.0
C408 C 0.16771 0.51628 0.362 0.0
O409 O 0.18513 0.44338 0.36272 0.0
O410 O 0.14785 0.45448 0.36859 0.0
O411 O 0.14885 0.50815 0.35074 0.0
O412 O 0.18654 0.50268 0.36058 0.0
C413 C 0.2059 0.48376 0.30583 0.0
O414 O 0.13388 0.47004 0.31321 0.0
O415 O 0.16007 0.44059 0.31284 0.0
In416 In 0.67795 0.52501 0.83617 0.0
O417 O 0.70049 0.52947 0.872 0.0
O418 O 0.70298 0.55704 0.84378 0.0
C419 C 0.65118 0.48313 0.83543 0.0
C420 C 0.71241 0.51154 0.8032 0.0
C421 C 0.64113 0.55819 0.83977 0.0
O422 O 0.6621 0.49027 0.85492 0.0
O423 O 0.65398 0.49701 0.81691 0.0
O424 O 0.65317 0.55526 0.81987 0.0
O425 O 0.64753 0.54419 0.8573 0.0
C426 C 0.70994 0.54975 0.86485 0.0
O427 O 0.69443 0.52534 0.79719 0.0
O428 O 0.71264 0.50458 0.8255 0.0
In429 In 0.48296 0.67296 0.83631 0.0
O430 O 0.47743 0.68486 0.79606 0.0
O431 O 0.49431 0.71023 0.82105 0.0
C432 C 0.45475 0.63202 0.83919 0.0
C433 C 0.46154 0.70122 0.87138 0.0
C434 C 0.52813 0.65237 0.83331 0.0
O435 O 0.44893 0.65005 0.82554 0.0
O436 O 0.47468 0.63452 0.85094 0.0
O437 O 0.51934 0.65986 0.8537 0.0
O438 O 0.51441 0.65588 0.81479 0.0
C439 C 0.48702 0.70594 0.79931 0.0
O440 O 0.48434 0.69596 0.87232 0.0
O441 O 0.45013 0.69182 0.85338 0.0
In442 In 0.32844 0.48335 0.85595 0.0
O443 O 0.31066 0.47476 0.81838 0.0
O444 O 0.30413 0.51002 0.83448 0.0
C445 C 0.36385 0.44843 0.85886 0.0
C446 C 0.29492 0.4643 0.88758 0.0
C447 C 0.35683 0.52409 0.85851 0.0
O448 O 0.35399 0.45463 0.83856 0.0
O449 O 0.35576 0.4598 0.87757 0.0
O450 O 0.33688 0.52226 0.87061 0.0
O451 O 0.36246 0.50535 0.84585 0.0
C452 C 0.30018 0.49557 0.81665 0.0
O453 O 0.30881 0.48203 0.89388 0.0
O454 O 0.29776 0.45706 0.86564 0.0
In455 In 0.52301 0.33374 0.8435 0.0
O456 O 0.52293 0.31794 0.80426 0.0
O457 O 0.5031 0.29881 0.83264 0.0
C458 C 0.55591 0.37095 0.84641 0.0
C459 C 0.54869 0.30067 0.8699 0.0
C460 C 0.48042 0.3593 0.84431 0.0
O461 O 0.55184 0.35948 0.82639 0.0
O462 O 0.54317 0.36379 0.86462 0.0
O463 O 0.48835 0.34834 0.86347 0.0
O464 O 0.49396 0.35723 0.82545 0.0
C465 C 0.50979 0.29946 0.81027 0.0
O466 O 0.52873 0.30982 0.87826 0.0
O467 O 0.5554 0.30884 0.84909 0.0
In468 In 0.67523 0.4738 0.15966 0.0
O469 O 0.69905 0.46711 0.12475 0.0
O470 O 0.70026 0.44111 0.1542 0.0
C471 C 0.64992 0.51599 0.15226 0.0
C472 C 0.7059 0.48886 0.19579 0.0
C473 C 0.63633 0.44278 0.16244 0.0
O474 O 0.66178 0.5057 0.13487 0.0
O475 O 0.65094 0.50493 0.17273 0.0
O476 O 0.64773 0.45038 0.18134 0.0
O477 O 0.64454 0.45084 0.14216 0.0
C478 C 0.70785 0.44704 0.13301 0.0
O479 O 0.69202 0.47022 0.19813 0.0
O480 O 0.7045 0.49972 0.17518 0.0
In481 In 0.52975 0.6715 0.16035 0.0
O482 O 0.5302 0.69092 0.12229 0.0
O483 O 0.55857 0.69897 0.14829 0.0
C484 C 0.48853 0.64362 0.16214 0.0
C485 C 0.51631 0.70518 0.19434 0.0
C486 C 0.56362 0.63495 0.16288 0.0
O487 O 0.49556 0.65376 0.14221 0.0
O488 O 0.5024 0.64737 0.18048 0.0
O489 O 0.55802 0.64826 0.18124 0.0
O490 O 0.55225 0.64019 0.14321 0.0
C491 C 0.54966 0.70301 0.12716 0.0
O492 O 0.53623 0.69307 0.19606 0.0
O493 O 0.50349 0.70051 0.17541 0.0
In494 In 0.33083 0.52545 0.15976 0.0
O495 O 0.31583 0.52965 0.19918 0.0
O496 O 0.29428 0.50987 0.17267 0.0
C497 C 0.36955 0.55652 0.15542 0.0
C498 C 0.30037 0.54776 0.12755 0.0
C499 C 0.35457 0.48174 0.16219 0.0
O500 O 0.35701 0.55503 0.17512 0.0
O501 O 0.36257 0.54236 0.13827 0.0
O502 O 0.34452 0.48914 0.14239 0.0
O503 O 0.35234 0.4962 0.1803 0.0
C504 C 0.29622 0.51774 0.19455 0.0
O505 O 0.30866 0.52618 0.12358 0.0
O506 O 0.30771 0.55767 0.14738 0.0
In507 In 0.47731 0.32822 0.15462 0.0
O508 O 0.47838 0.31269 0.19404 0.0
O509 O 0.50013 0.29534 0.16604 0.0
C510 C 0.4446 0.36552 0.1522 0.0
C511 C 0.45033 0.29542 0.12914 0.0
C512 C 0.51908 0.35444 0.14931 0.0
O513 O 0.44978 0.35496 0.17247 0.0
O514 O 0.45611 0.35737 0.13361 0.0
O515 O 0.51053 0.34138 0.13182 0.0
O516 O 0.50654 0.35406 0.16897 0.0
C517 C 0.49332 0.29554 0.18838 0.0
O518 O 0.47004 0.30446 0.12017 0.0
O519 O 0.44473 0.30307 0.15047 0.0
In520 In 0.83554 0.67395 0.52846 0.0
O521 O 0.79551 0.68636 0.53222 0.0
O522 O 0.82069 0.71065 0.51413 0.0
C523 C 0.83475 0.63599 0.56085 0.0
C524 C 0.86831 0.70431 0.5506 0.0
C525 C 0.8358 0.65048 0.48423 0.0
O526 O 0.81661 0.65032 0.55775 0.0
O527 O 0.85324 0.64063 0.54741 0.0
O528 O 0.8556 0.65773 0.49431 0.0
O529 O 0.81653 0.65526 0.4963 0.0
C530 C 0.79881 0.70671 0.52127 0.0
O531 O 0.8711 0.69746 0.52839 0.0
O532 O 0.84934 0.69578 0.56113 0.0
In533 In 0.83616 0.32153 0.47119 0.0
O534 O 0.79665 0.30785 0.46405 0.0
O535 O 0.81256 0.30124 0.49939 0.0
C536 C 0.84091 0.35776 0.43729 0.0
C537 C 0.86087 0.28381 0.44989 0.0
C538 C 0.84631 0.34756 0.5123 0.0
O539 O 0.82018 0.3515 0.44614 0.0
O540 O 0.85905 0.34537 0.44514 0.0
O541 O 0.85473 0.32594 0.50915 0.0
O542 O 0.83348 0.35583 0.49471 0.0
C543 C 0.79423 0.29846 0.48531 0.0
O544 O 0.87113 0.29759 0.46579 0.0
O545 O 0.83866 0.28905 0.44537 0.0
In546 In 0.66844 0.84941 0.48546 0.0
O547 O 0.69022 0.88598 0.48353 0.0
O548 O 0.68709 0.86374 0.45119 0.0
C549 C 0.64467 0.85134 0.52941 0.0
C550 C 0.70522 0.81699 0.49357 0.0
C551 C 0.6304 0.84303 0.45389 0.0
O552 O 0.64854 0.87054 0.51669 0.0
O553 O 0.65333 0.83179 0.52029 0.0
O554 O 0.64548 0.82592 0.45888 0.0
O555 O 0.63439 0.86313 0.465 0.0
C556 C 0.69562 0.88313 0.46092 0.0
O557 O 0.68498 0.81067 0.48374 0.0
O558 O 0.70684 0.83956 0.49931 0.0
In559 In 0.15236 0.67068 0.48341 0.0
O560 O 0.18999 0.68857 0.476 0.0
O561 O 0.17076 0.69876 0.50878 0.0
C562 C 0.15079 0.63325 0.45031 0.0
C563 C 0.12204 0.70409 0.46214 0.0
C564 C 0.1485 0.64396 0.52524 0.0
O565 O 0.17075 0.64378 0.45637 0.0
O566 O 0.13182 0.64156 0.46098 0.0
O567 O 0.13084 0.65709 0.5173 0.0
O568 O 0.16775 0.6444 0.51208 0.0
C569 C 0.18975 0.70144 0.49549 0.0
O570 O 0.1163 0.69348 0.48218 0.0
O571 O 0.14276 0.69793 0.45348 0.0
In572 In 0.33166 0.14528 0.47166 0.0
O573 O 0.30691 0.11035 0.47194 0.0
O574 O 0.30405 0.1358 0.4422 0.0
C575 C 0.3571 0.14402 0.51426 0.0
C576 C 0.30382 0.18548 0.48064 0.0
C577 C 0.36931 0.13897 0.4396 0.0
O578 O 0.34351 0.12621 0.50747 0.0
O579 O 0.35771 0.16218 0.49961 0.0
O580 O 0.3567 0.15859 0.44033 0.0
O581 O 0.3631 0.12276 0.45513 0.0
C582 C 0.29661 0.11593 0.45171 0.0
O583 O 0.31798 0.18398 0.46212 0.0
O584 O 0.30385 0.16684 0.49469 0.0
In585 In 0.17824 0.32636 0.53438 0.0
O586 O 0.21418 0.30664 0.54409 0.0
O587 O 0.1942 0.29432 0.51238 0.0
C588 C 0.17931 0.36658 0.56367 0.0
C589 C 0.14655 0.29751 0.55976 0.0
C590 C 0.17798 0.35016 0.49074 0.0
O591 O 0.19852 0.35421 0.55875 0.0
O592 O 0.15978 0.35878 0.55361 0.0
O593 O 0.15844 0.34073 0.4996 0.0
O594 O 0.19709 0.34733 0.50378 0.0
C595 C 0.21288 0.29173 0.52614 0.0
O596 O 0.14162 0.30432 0.53788 0.0
O597 O 0.16697 0.30511 0.56796 0.0
In598 In 0.66725 0.15336 0.52049 0.0
O599 O 0.68254 0.19254 0.52567 0.0
O600 O 0.69459 0.17175 0.4945 0.0
C601 C 0.63025 0.15006 0.55379 0.0
C602 C 0.70147 0.12439 0.54233 0.0
C603 C 0.64035 0.14847 0.47903 0.0
O604 O 0.64164 0.17007 0.54971 0.0
O605 O 0.63742 0.13197 0.54096 0.0
O606 O 0.65485 0.13165 0.48641 0.0
O607 O 0.6394 0.16738 0.49267 0.0
C608 C 0.69566 0.19181 0.50635 0.0
O609 O 0.69139 0.11826 0.52215 0.0
O610 O 0.69454 0.14494 0.55082 0.0
In611 In 0.32103 0.84524 0.52003 0.0
O612 O 0.3042 0.80741 0.52908 0.0
O613 O 0.29645 0.8233 0.49392 0.0
C614 C 0.35608 0.85179 0.55513 0.0
C615 C 0.28453 0.87472 0.53678 0.0
C616 C 0.34931 0.84902 0.47931 0.0
O617 O 0.34772 0.83065 0.54968 0.0
O618 O 0.34683 0.86929 0.54288 0.0
O619 O 0.33391 0.86556 0.48532 0.0
O620 O 0.35038 0.83081 0.49385 0.0
C621 C 0.29319 0.80545 0.50856 0.0
O622 O 0.29713 0.88039 0.51792 0.0
O623 O 0.29027 0.8544 0.5466 0.0
H624 H 0.09474 0.46102 0.2846 0.0
H625 H 0.1516 0.40499 0.28429 0.0
H626 H 0.12804 0.38061 0.2549 0.0
H627 H 0.0915 0.37464 0.22959 0.0
H628 H 0.03375 0.42954 0.2291 0.0
H629 H 0.05741 0.45489 0.25838 0.0
C630 C 0.10191 0.44349 0.27804 0.0
C631 C 0.12491 0.43487 0.2867 0.0
C632 C 0.08814 0.42934 0.26099 0.0
C633 C 0.13397 0.4121 0.27803 0.0
C634 C 0.12051 0.39809 0.26117 0.0
C635 C 0.08403 0.39218 0.23581 0.0
C636 C 0.0609 0.40018 0.22718 0.0
C637 C 0.09761 0.40647 0.25259 0.0
C638 C 0.05154 0.42296 0.23547 0.0
C639 C 0.06506 0.43744 0.25222 0.0
H640 H 0.5872 0.0436 0.21482 0.0
H641 H 0.65435 0.08241 0.23365 0.0
H642 H 0.63196 0.10786 0.26305 0.0
H643 H 0.59347 0.12057 0.28211 0.0
H644 H 0.52547 0.08319 0.26394 0.0
H645 H 0.54797 0.05569 0.23568 0.0
C646 C 0.59688 0.05746 0.22558 0.0
C647 C 0.62238 0.06117 0.22195 0.0
C648 C 0.58375 0.07241 0.24244 0.0
C649 C 0.63471 0.07926 0.23594 0.0
C650 C 0.62194 0.09387 0.25279 0.0
C651 C 0.5835 0.10637 0.27204 0.0
C652 C 0.55783 0.10402 0.27498 0.0
C653 C 0.59646 0.09085 0.25592 0.0
C654 C 0.54526 0.08541 0.26192 0.0
C655 C 0.55812 0.06971 0.24577 0.0
H656 H 0.90913 0.61002 0.21015 0.0
H657 H 0.97875 0.57962 0.23405 0.0
H658 H 0.95716 0.55343 0.2642 0.0
H659 H 0.91818 0.54146 0.28575 0.0
H660 H 0.84933 0.57329 0.26093 0.0
H661 H 0.8709 0.59641 0.22915 0.0
C662 C 0.91963 0.59755 0.22183 0.0
C663 C 0.94548 0.59691 0.22005 0.0
C664 C 0.90718 0.58283 0.23908 0.0
C665 C 0.95879 0.58045 0.23511 0.0
C666 C 0.94645 0.56555 0.25241 0.0
C667 C 0.90797 0.55325 0.27318 0.0
C668 C 0.88221 0.55584 0.27592 0.0
C669 C 0.92061 0.56689 0.25486 0.0
C670 C 0.86919 0.57117 0.25947 0.0
C671 C 0.88148 0.58443 0.24122 0.0
H672 H 0.41708 0.86184 0.26969 0.0
H673 H 0.47101 0.9192 0.28217 0.0
H674 H 0.4499 0.94578 0.25208 0.0
H675 H 0.41518 0.95288 0.22287 0.0
H676 H 0.36167 0.89473 0.21153 0.0
H677 H 0.38364 0.86831 0.24046 0.0
C678 C 0.4243 0.88015 0.26584 0.0
C679 C 0.44551 0.88858 0.2782 0.0
C680 C 0.41211 0.8952 0.24869 0.0
C681 C 0.45466 0.91231 0.2729 0.0
C682 C 0.44259 0.92749 0.25571 0.0
C683 C 0.40847 0.93438 0.22667 0.0
C684 C 0.38678 0.92583 0.21509 0.0
C685 C 0.42118 0.91917 0.24357 0.0
C686 C 0.37826 0.90183 0.22022 0.0
C687 C 0.3908 0.88667 0.23678 0.0
H688 H 0.12008 0.59296 0.71506 0.0
H689 H 0.09309 0.52313 0.74228 0.0
H690 H 0.06527 0.54487 0.77089 0.0
H691 H 0.05036 0.58426 0.78961 0.0
H692 H 0.07776 0.65341 0.76055 0.0
H693 H 0.1035 0.63139 0.73118 0.0
C694 C 0.10806 0.58245 0.72721 0.0
C695 C 0.10881 0.55653 0.72681 0.0
C696 C 0.09218 0.59499 0.74332 0.0
C697 C 0.09286 0.54315 0.74234 0.0
C698 C 0.07703 0.55558 0.75872 0.0
C699 C 0.0618 0.59443 0.77667 0.0
C700 C 0.06226 0.62046 0.77746 0.0
C701 C 0.07675 0.58156 0.75959 0.0
C702 C 0.07711 0.63339 0.76051 0.0
C703 C 0.09192 0.62083 0.74367 0.0
H704 H 0.40817 0.04987 0.77285 0.0
H705 H 0.34834 0.10264 0.77547 0.0
H706 H 0.37079 0.13012 0.748 0.0
H707 H 0.40698 0.13946 0.72309 0.0
H708 H 0.46777 0.08804 0.72014 0.0
H709 H 0.44548 0.05985 0.74785 0.0
C710 C 0.40011 0.06738 0.76736 0.0
C711 C 0.37657 0.07412 0.77621 0.0
C712 C 0.41328 0.08339 0.75152 0.0
C713 C 0.36641 0.09694 0.76901 0.0
C714 C 0.37923 0.11273 0.75325 0.0
C715 C 0.41542 0.12208 0.72848 0.0
C716 C 0.43896 0.11582 0.71951 0.0
C717 C 0.40261 0.10616 0.74439 0.0
C718 C 0.44964 0.09329 0.7268 0.0
C719 C 0.43689 0.07717 0.74262 0.0
H720 H 0.915 0.46366 0.72485 0.0
H721 H 0.88267 0.39699 0.69511 0.0
H722 H 0.90692 0.37207 0.72348 0.0
H723 H 0.93502 0.36901 0.7583 0.0
H724 H 0.968 0.43467 0.78912 0.0
H725 H 0.94601 0.46018 0.75865 0.0
C726 C 0.91352 0.44368 0.72446 0.0
C727 C 0.89688 0.43224 0.70802 0.0
C728 C 0.92751 0.42928 0.74107 0.0
C729 C 0.89517 0.40631 0.70767 0.0
C730 C 0.90903 0.39199 0.72391 0.0
C731 C 0.93755 0.3889 0.7583 0.0
C732 C 0.95288 0.39999 0.77605 0.0
C733 C 0.92486 0.40328 0.74095 0.0
C734 C 0.95622 0.42574 0.77562 0.0
C735 C 0.94359 0.4403 0.75827 0.0
H736 H 0.57833 0.9563 0.78913 0.0
H737 H 0.64502 0.93699 0.7497 0.0
H738 H 0.62092 0.9164 0.71804 0.0
H739 H 0.58166 0.90103 0.70295 0.0
H740 H 0.51412 0.91918 0.741 0.0
H741 H 0.53764 0.94333 0.77152 0.0
C742 C 0.58747 0.94779 0.77346 0.0
C743 C 0.61349 0.94795 0.77199 0.0
C744 C 0.57339 0.9357 0.75509 0.0
C745 C 0.62508 0.93695 0.7515 0.0
C746 C 0.61132 0.92514 0.7333 0.0
C747 C 0.57201 0.91046 0.71779 0.0
C748 C 0.54627 0.90816 0.7199 0.0
C749 C 0.58558 0.92397 0.73517 0.0
C750 C 0.53397 0.92073 0.73901 0.0
C751 C 0.54745 0.93439 0.75652 0.0
H752 H 0.22266 0.03853 0.40411 0.0
H753 H 0.21192 0.10031 0.35467 0.0
H754 H 0.24048 0.12511 0.37874 0.0
H755 H 0.26932 0.12922 0.41262 0.0
H756 H 0.28132 0.06859 0.46291 0.0
H757 H 0.2513 0.04342 0.43986 0.0
C758 C 0.22655 0.05744 0.39874 0.0
C759 C 0.21525 0.06749 0.37753 0.0
C760 C 0.24319 0.0718 0.41275 0.0
C761 C 0.2204 0.09205 0.37081 0.0
C762 C 0.23675 0.10631 0.38457 0.0
C763 C 0.26538 0.11051 0.41866 0.0
C764 C 0.27761 0.10071 0.43932 0.0
C765 C 0.24837 0.09633 0.40538 0.0
C766 C 0.27211 0.07652 0.44701 0.0
C767 C 0.25503 0.06214 0.43379 0.0
H768 H 0.91052 0.27339 0.44843 0.0
H769 H 0.83973 0.2497 0.42022 0.0
H770 H 0.85987 0.21962 0.39365 0.0
H771 H 0.89732 0.20192 0.37624 0.0
H772 H 0.96863 0.22478 0.40345 0.0
H773 H 0.94863 0.25313 0.43266 0.0
C774 C 0.89957 0.26141 0.43668 0.0
C775 C 0.87368 0.26395 0.43616 0.0
C776 C 0.91134 0.24413 0.42113 0.0
C777 C 0.85969 0.2483 0.42085 0.0
C778 C 0.87117 0.23107 0.40559 0.0
C779 C 0.90852 0.213 0.38865 0.0
C780 C 0.93439 0.21146 0.38754 0.0
C781 C 0.89695 0.22917 0.40522 0.0
C782 C 0.94865 0.2257 0.40394 0.0
C783 C 0.93721 0.24194 0.42058 0.0
H784 H 0.70562 0.88084 0.41236 0.0
H785 H 0.72218 0.92317 0.47783 0.0
H786 H 0.75178 0.94826 0.45427 0.0
H787 H 0.77489 0.9562 0.41523 0.0
H788 H 0.75807 0.91208 0.35086 0.0
H789 H 0.72661 0.88976 0.37382 0.0
C790 C 0.71556 0.89566 0.42152 0.0
C791 C 0.71184 0.90004 0.44683 0.0
C792 C 0.73263 0.90963 0.40803 0.0
C793 C 0.72475 0.91942 0.45834 0.0
C794 C 0.74173 0.9337 0.44488 0.0
C795 C 0.76414 0.94186 0.40626 0.0
C796 C 0.76895 0.93569 0.38143 0.0
C797 C 0.74612 0.92871 0.41975 0.0
C798 C 0.75491 0.91705 0.37001 0.0
C799 C 0.73688 0.90426 0.3831 0.0
H800 H 0.0415 0.77417 0.41358 0.0
H801 H 0.10066 0.7821 0.36052 0.0
H802 H 0.12674 0.75501 0.38486 0.0
H803 H 0.13293 0.72857 0.42038 0.0
H804 H 0.07489 0.71922 0.47417 0.0
H805 H 0.04829 0.74742 0.45051 0.0
C806 C 0.06011 0.76995 0.40745 0.0
C807 C 0.06904 0.78012 0.38519 0.0
C808 C 0.07524 0.75413 0.42163 0.0
C809 C 0.09321 0.77452 0.37749 0.0
C810 C 0.10823 0.75901 0.39141 0.0
C811 C 0.11448 0.7327 0.42705 0.0
C812 C 0.10588 0.72179 0.44896 0.0
C813 C 0.09943 0.74866 0.41339 0.0
C814 C 0.08194 0.72742 0.45733 0.0
C815 C 0.06673 0.74349 0.44377 0.0
H816 H 0.21415 0.95746 0.57994 0.0
H817 H 0.1971 0.89773 0.63006 0.0
H818 H 0.22391 0.8701 0.60691 0.0
H819 H 0.25393 0.86333 0.57424 0.0
H820 H 0.27244 0.92239 0.52402 0.0
H821 H 0.24316 0.94979 0.54522 0.0
C822 C 0.21616 0.93834 0.58559 0.0
C823 C 0.20378 0.92972 0.60678 0.0
C824 C 0.23192 0.92246 0.57226 0.0
C825 C 0.20654 0.9049 0.61393 0.0
C826 C 0.22188 0.88905 0.60071 0.0
C827 C 0.25148 0.88216 0.56778 0.0
C828 C 0.26543 0.89089 0.54772 0.0
C829 C 0.23493 0.89772 0.58013 0.0
C830 C 0.2619 0.91526 0.53947 0.0
C831 C 0.24523 0.93093 0.55163 0.0
H832 H 0.09305 0.23488 0.64137 0.0
H833 H 0.03959 0.22369 0.58336 0.0
H834 H 0.06424 0.24991 0.55553 0.0
H835 H 0.10193 0.27559 0.54784 0.0
H836 H 0.15452 0.28498 0.60723 0.0
H837 H 0.12924 0.25986 0.63424 0.0
C838 C 0.08664 0.23815 0.62265 0.0
C839 C 0.06454 0.22734 0.61444 0.0
C840 C 0.10086 0.25292 0.60694 0.0
C841 C 0.05657 0.23185 0.59013 0.0
C842 C 0.07068 0.24679 0.57423 0.0
C843 C 0.10775 0.27211 0.56669 0.0
C844 C 0.13016 0.28216 0.57541 0.0
C845 C 0.093 0.25736 0.58242 0.0
C846 C 0.13745 0.27749 0.59991 0.0
C847 C 0.12299 0.26311 0.61548 0.0
H848 H 0.77587 0.04721 0.58967 0.0
H849 H 0.77514 0.10255 0.64722 0.0
H850 H 0.74644 0.12751 0.62344 0.0
H851 H 0.72174 0.13406 0.58664 0.0
H852 H 0.72115 0.07954 0.52849 0.0
H853 H 0.75022 0.05389 0.55208 0.0
C854 C 0.76933 0.06469 0.59696 0.0
C855 C 0.77767 0.07297 0.6202 0.0
C856 C 0.75269 0.07916 0.58308 0.0
C857 C 0.76907 0.0957 0.62941 0.0
C858 C 0.75265 0.11005 0.61582 0.0
C859 C 0.72797 0.11659 0.57902 0.0
C860 C 0.71937 0.10874 0.55583 0.0
C861 C 0.74441 0.10202 0.59267 0.0
C862 C 0.72757 0.08601 0.54632 0.0
C863 C 0.74415 0.07134 0.55981 0.0
H864 H 0.86501 0.7192 0.59793 0.0
H865 H 0.90965 0.72784 0.53247 0.0
H866 H 0.9365 0.75707 0.5545 0.0
H867 H 0.94657 0.7809 0.59253 0.0
H868 H 0.90076 0.7715 0.65723 0.0
H869 H 0.87515 0.74185 0.6353 0.0
C870 C 0.88064 0.7274 0.58841 0.0
C871 C 0.88529 0.7214 0.56359 0.0
C872 C 0.89579 0.74413 0.60109 0.0
C873 C 0.90567 0.73217 0.5516 0.0
C874 C 0.92099 0.7489 0.56419 0.0
C875 C 0.93103 0.77227 0.60178 0.0
C876 C 0.92558 0.77849 0.62648 0.0
C877 C 0.91614 0.75513 0.58895 0.0
C878 C 0.90537 0.76715 0.63824 0.0
C879 C 0.89067 0.75015 0.62572 0.0
H880 H 0.45618 0.27613 0.08254 0.0
H881 H 0.40887 0.27401 0.14683 0.0
H882 H 0.3818 0.2446 0.12648 0.0
H883 H 0.37106 0.21985 0.09076 0.0
H884 H 0.41725 0.2209 0.02581 0.0
H885 H 0.44526 0.25033 0.04607 0.0
C886 C 0.43996 0.26916 0.09202 0.0
C887 C 0.43456 0.27731 0.11615 0.0
C888 C 0.42425 0.25211 0.08014 0.0
C889 C 0.41348 0.26813 0.12825 0.0
C890 C 0.39793 0.25128 0.11665 0.0
C891 C 0.38726 0.22647 0.08096 0.0
C892 C 0.39206 0.21827 0.05683 0.0
C893 C 0.40309 0.24322 0.09264 0.0
C894 C 0.41316 0.22698 0.04444 0.0
C895 C 0.42915 0.2438 0.05601 0.0
H896 H 0.42177 0.78041 0.94822 0.0
H897 H 0.35626 0.77009 0.9038 0.0
H898 H 0.3772 0.7388 0.87939 0.0
H899 H 0.41402 0.71539 0.8695 0.0
H900 H 0.48073 0.72559 0.91187 0.0
H901 H 0.45941 0.75573 0.93835 0.0
C902 C 0.41213 0.77119 0.93326 0.0
C903 C 0.38751 0.77767 0.92779 0.0
C904 C 0.42446 0.75322 0.91892 0.0
C905 C 0.37524 0.76562 0.90832 0.0
C906 C 0.38718 0.74765 0.89434 0.0
C907 C 0.42396 0.72405 0.88461 0.0
C908 C 0.44893 0.71826 0.8887 0.0
C909 C 0.41178 0.74148 0.89933 0.0
C910 C 0.46147 0.72972 0.90836 0.0
C911 C 0.4493 0.74699 0.92343 0.0
H912 H 0.26753 0.42431 0.87709 0.0
H913 H 0.28382 0.47533 0.93612 0.0
H914 H 0.25649 0.45201 0.96393 0.0
H915 H 0.22862 0.41606 0.97144 0.0
H916 H 0.21451 0.36518 0.91152 0.0
H917 H 0.24039 0.3895 0.88418 0.0
C918 C 0.26507 0.43049 0.89601 0.0
C919 C 0.27765 0.45154 0.90452 0.0
C920 C 0.24978 0.41689 0.9118 0.0
C921 C 0.27428 0.45919 0.92912 0.0
C922 C 0.25871 0.44582 0.94501 0.0
C923 C 0.23125 0.4104 0.95239 0.0
C924 C 0.21968 0.38878 0.94359 0.0
C925 C 0.24648 0.42448 0.93658 0.0
C926 C 0.22325 0.38164 0.91887 0.0
C927 C 0.23803 0.39556 0.90313 0.0
H928 H 0.62138 0.21724 0.90471 0.0
H929 H 0.57949 0.22354 0.9722 0.0
H930 H 0.55287 0.25485 0.95289 0.0
H931 H 0.54275 0.28171 0.91681 0.0
H932 H 0.58687 0.2752 0.85056 0.0
H933 H 0.61136 0.24284 0.86948 0.0
C934 C 0.60632 0.22527 0.91523 0.0
C935 C 0.6024 0.21807 0.93983 0.0
C936 C 0.59159 0.24344 0.90424 0.0
C937 C 0.58283 0.22875 0.95317 0.0
C938 C 0.5677 0.24671 0.94216 0.0
C939 C 0.55771 0.27314 0.9066 0.0
C940 C 0.56302 0.28101 0.88235 0.0
C941 C 0.57209 0.25445 0.91774 0.0
C942 C 0.58245 0.26971 0.86931 0.0
C943 C 0.59648 0.25109 0.88006 0.0
H944 H 0.72591 0.54207 0.91255 0.0
H945 H 0.73488 0.59011 0.84941 0.0
H946 H 0.76459 0.61499 0.87197 0.0
H947 H 0.78769 0.62374 0.90936 0.0
H948 H 0.77914 0.57729 0.97354 0.0
H949 H 0.74973 0.55116 0.95088 0.0
C950 C 0.73444 0.55796 0.9038 0.0
C951 C 0.72812 0.5642 0.87932 0.0
C952 C 0.75159 0.57249 0.91702 0.0
C953 C 0.73929 0.58488 0.86822 0.0
C954 C 0.75635 0.59916 0.8811 0.0
C955 C 0.77949 0.60786 0.91844 0.0
C956 C 0.78561 0.60244 0.94306 0.0
C957 C 0.76257 0.5932 0.90546 0.0
C958 C 0.77472 0.58183 0.95455 0.0
C959 C 0.7579 0.56692 0.94161 0.0
H960 H 0.58964 0.73107 0.13632 0.0
H961 H 0.53665 0.71431 0.0792 0.0
H962 H 0.55793 0.74282 0.05098 0.0
H963 H 0.59259 0.77191 0.04247 0.0
H964 H 0.64511 0.78736 0.10056 0.0
H965 H 0.62293 0.76004 0.12844 0.0
C966 C 0.58264 0.73363 0.11771 0.0
C967 C 0.56164 0.72052 0.10984 0.0
C968 C 0.59493 0.74986 0.10173 0.0
C969 C 0.55282 0.72417 0.08569 0.0
C970 C 0.56499 0.74046 0.06957 0.0
C971 C 0.59904 0.76936 0.06127 0.0
C972 C 0.62054 0.78164 0.06937 0.0
C973 C 0.5862 0.75333 0.07736 0.0
C974 C 0.62871 0.7781 0.09377 0.0
C975 C 0.61604 0.76246 0.10978 0.0
H976 H 0.22678 0.59094 0.04724 0.0
H977 H 0.22466 0.65014 0.10077 0.0
H978 H 0.25337 0.62788 0.12714 0.0
H979 H 0.27929 0.59215 0.13513 0.0
H980 H 0.28218 0.53221 0.08267 0.0
H981 H 0.25302 0.55419 0.05575 0.0
C982 C 0.23259 0.59887 0.06471 0.0
C983 C 0.22358 0.62219 0.07199 0.0
C984 C 0.24928 0.58591 0.07994 0.0
C985 C 0.23128 0.63226 0.09467 0.0
C986 C 0.24774 0.61956 0.1098 0.0
C987 C 0.27361 0.58384 0.11779 0.0
C988 C 0.28293 0.56062 0.11087 0.0
C989 C 0.2569 0.59647 0.1026 0.0
C990 C 0.27527 0.55011 0.08839 0.0
C991 C 0.2586 0.56266 0.07302 0.0
H992 H 0.72769 0.45389 0.08661 0.0
H993 H 0.72732 0.40393 0.14889 0.0
H994 H 0.75541 0.37632 0.12748 0.0
H995 H 0.77991 0.36587 0.09141 0.0
H996 H 0.78155 0.41485 0.02857 0.0
H997 H 0.75321 0.44325 0.0498 0.0
C998 C 0.73383 0.43698 0.09544 0.0
C999 C 0.72535 0.43103 0.11933 0.0
C1000 C 0.75019 0.42095 0.08294 0.0
C1001 C 0.73349 0.40903 0.13054 0.0
C1002 C 0.74958 0.39315 0.11831 0.0
C1003 C 0.77409 0.38275 0.08228 0.0
C1004 C 0.78277 0.38821 0.05844 0.0
C1005 C 0.75799 0.39887 0.09455 0.0
C1006 C 0.77509 0.41021 0.04694 0.0
C1007 C 0.7589 0.42644 0.05908 0.0
H1008 H 0.98059 0.2532 0.30518 0.0
H1009 H 0.97301 0.19833 0.24786 0.0
H1010 H 0.98436 0.229 0.2166 0.0
H1011 H 0.9977 0.27122 0.20578 0.0
H1012 H 0.00225 0.32674 0.26277 0.0
H1013 H 0.99086 0.29607 0.294 0.0
C1014 C 0.9813 0.24804 0.28581 0.0
C1015 C 0.97615 0.22357 0.27879 0.0
C1016 C 0.98742 0.26584 0.26795 0.0
C1017 C 0.97685 0.21711 0.25366 0.0
C1018 C 0.98344 0.23459 0.23582 0.0
C1019 C 0.99619 0.27652 0.22506 0.0
C1020 C 0.00104 0.30105 0.23209 0.0
C1021 C 0.98901 0.25895 0.24278 0.0
C1022 C 0.99862 0.30791 0.257 0.0
C1023 C 0.99215 0.2904 0.27483 0.0
H1024 H 0.78581 0.01751 0.27722 0.0
H1025 H 0.77468 0.93875 0.27259 0.0
H1026 H 0.74438 0.94464 0.23952 0.0
H1027 H 0.7194 0.97249 0.21349 0.0
H1028 H 0.73297 0.05098 0.21582 0.0
H1029 H 0.76412 0.04498 0.24804 0.0
C1030 C 0.77684 0.00168 0.26879 0.0
C1031 C 0.78219 0.97777 0.27739 0.0
C1032 C 0.7599 0.00518 0.24944 0.0
C1033 C 0.7708 0.95733 0.26619 0.0
C1034 C 0.75343 0.96069 0.24737 0.0
C1035 C 0.72938 0.98821 0.22094 0.0
C1036 C 0.72384 0.01214 0.21253 0.0
C1037 C 0.74759 0.98455 0.23908 0.0
C1038 C 0.73702 0.03237 0.22202 0.0
C1039 C 0.75473 0.02897 0.24051 0.0
H1040 H 0.99912 0.73181 0.20605 0.0
H1041 H 0.9911 0.67394 0.26026 0.0
H1042 H 0.99955 0.7034 0.29348 0.0
H1043 H 0.00936 0.74556 0.30709 0.0
H1044 H 0.0207 0.80287 0.25289 0.0
H1045 H 0.01097 0.77373 0.21964 0.0
C1046 C 0.99916 0.72575 0.22517 0.0
C1047 C 0.99434 0.70087 0.23081 0.0
C1048 C 0.00473 0.74265 0.2441 0.0
C1049 C 0.99479 0.69305 0.25555 0.0
C1050 C 0.99959 0.70987 0.27452 0.0
C1051 C 0.00969 0.75164 0.28798 0.0
C1052 C 0.01558 0.77629 0.28239 0.0
C1053 C 0.00462 0.73469 0.26901 0.0
C1054 C 0.01626 0.78392 0.25759 0.0
C1055 C 0.01063 0.76731 0.2386 0.0
H1056 H 0.24929 0.0107 0.29868 0.0
H1057 H 0.19112 0.01824 0.24476 0.0
H1058 H 0.21985 0.00656 0.21175 0.0
H1059 H 0.26155 0.99335 0.19844 0.0
H1060 H 0.32005 0.98879 0.25238 0.0
H1061 H 0.29119 1.00007 0.2852 0.0
C1062 C 0.24294 0.00986 0.27968 0.0
C1063 C 0.21815 0.01515 0.27412 0.0
C1064 C 0.25961 0.00355 0.26085 0.0
C1065 C 0.21018 0.01429 0.24943 0.0
C1066 C 0.22656 0.00751 0.2306 0.0
C1067 C 0.26788 0.9948 0.2174 0.0
C1068 C 0.29278 0.99006 0.22308 0.0
C1069 C 0.25129 0.00193 0.23611 0.0
C1070 C 0.30093 0.99236 0.24761 0.0
C1071 C 0.28446 0.99878 0.26638 0.0
H1072 H 0.03958 0.72709 0.77298 0.0
H1073 H 0.9694 0.72842 0.81066 0.0
H1074 H 0.95412 0.7597 0.78176 0.0
H1075 H 0.95988 0.78462 0.74411 0.0
H1076 H 0.02895 0.78046 0.70452 0.0
H1077 H 0.04551 0.75234 0.73571 0.0
C1078 C 0.0211 0.73456 0.77507 0.0
C1079 C 0.00567 0.72568 0.79396 0.0
C1080 C 0.01216 0.7518 0.75785 0.0
C1081 C 0.9816 0.7351 0.79624 0.0
C1082 C 0.97284 0.75289 0.77969 0.0
C1083 C 0.9786 0.77767 0.74245 0.0
C1084 C 0.99316 0.78455 0.72206 0.0
C1085 C 0.98781 0.76104 0.76015 0.0
C1086 C 0.01734 0.7753 0.72 0.0
C1087 C 0.02684 0.75927 0.73785 0.0
H1088 H 0.19812 0.99583 0.73353 0.0
H1089 H 0.24933 0.9913 0.67263 0.0
H1090 H 0.28361 0.0015 0.70025 0.0
H1091 H 0.29902 0.01166 0.74178 0.0
H1092 H 0.24746 0.01899 0.80213 0.0
H1093 H 0.21329 0.00789 0.7747 0.0
C1094 C 0.21682 0.99701 0.72638 0.0
C1095 C 0.22129 0.99265 0.70119 0.0
C1096 C 0.23632 0.00348 0.74224 0.0
C1097 C 0.24549 0.99458 0.692 0.0
C1098 C 0.26508 1.00039 0.70777 0.0
C1099 C 0.28028 0.01084 0.74888 0.0
C1100 C 0.27572 0.01601 0.7739 0.0
C1101 C 0.26071 0.00488 0.73292 0.0
C1102 C 0.25138 0.01515 0.78287 0.0
C1103 C 0.23186 0.00872 0.76724 0.0
H1104 H 0.04529 0.23851 0.73108 0.0
H1105 H 0.96943 0.22955 0.70842 0.0
H1106 H 0.95621 0.25946 0.73962 0.0
H1107 H 0.96635 0.289 0.77268 0.0
H1108 H 0.04253 0.3009 0.79267 0.0
H1109 H 0.05556 0.269 0.76334 0.0
C1110 C 0.02588 0.24307 0.7331 0.0
C1111 C 0.00833 0.23183 0.71761 0.0
C1112 C 0.0185 0.26081 0.7506 0.0
C1113 C 0.98326 0.23807 0.72013 0.0
C1114 C 0.97569 0.25511 0.73798 0.0
C1115 C 0.98577 0.28441 0.77071 0.0
C1116 C 0.00347 0.29704 0.78488 0.0
C1117 C 0.99315 0.26668 0.75324 0.0
C1118 C 0.02861 0.29134 0.78192 0.0
C1119 C 0.03605 0.27313 0.76517 0.0
H1120 H 0.78245 0.98275 0.71758 0.0
H1121 H 0.78492 0.06006 0.73676 0.0
H1122 H 0.75565 0.0529 0.77053 0.0
H1123 H 0.72732 0.02498 0.79283 0.0
H1124 H 0.72659 0.94731 0.77475 0.0
H1125 H 0.75746 0.95419 0.74255 0.0
C1126 C 0.77666 0.99798 0.72927 0.0
C1127 C 0.78551 0.02193 0.72457 0.0
C1128 C 0.76019 0.99364 0.74884 0.0
C1129 C 0.77825 0.04146 0.74004 0.0
C1130 C 0.76149 0.03739 0.75929 0.0
C1131 C 0.73418 0.00954 0.78203 0.0
C1132 C 0.72457 0.98572 0.78601 0.0
C1133 C 0.75206 0.01361 0.76363 0.0
C1134 C 0.73373 0.96582 0.77205 0.0
C1135 C 0.75128 0.96976 0.75354 0.0
H1136 H 0.22758 0.27543 0.96807 0.0
H1137 H 0.22233 0.29779 0.04436 0.0
H1138 H 0.25206 0.26579 0.05613 0.0
H1139 H 0.28026 0.23195 0.04451 0.0
H1140 H 0.28841 0.21237 0.96771 0.0
H1141 H 0.25686 0.24267 0.95627 0.0
C1142 C 0.23289 0.27317 0.98726 0.0
C1143 C 0.22273 0.28876 0.00537 0.0
C1144 C 0.25054 0.25526 0.99376 0.0
C1145 C 0.22998 0.28596 0.03013 0.0
C1146 C 0.24693 0.26767 0.03686 0.0
C1147 C 0.27497 0.23428 0.02531 0.0
C1148 C 0.28643 0.21991 0.00698 0.0
C1149 C 0.25741 0.25228 0.01881 0.0
C1150 C 0.27979 0.22329 0.98212 0.0
C1151 C 0.26176 0.24057 0.97558 0.0
H1152 H 0.20954 0.74734 0.0061 0.0
H1153 H 0.26005 0.6857 0.00819 0.0
H1154 H 0.29435 0.71291 0.99746 0.0
H1155 H 0.31011 0.75407 0.98741 0.0
H1156 H 0.25977 0.81556 0.98204 0.0
H1157 H 0.22528 0.78868 0.99398 0.0
C1158 C 0.22809 0.73998 0.00424 0.0
C1159 C 0.23233 0.71461 0.00804 0.0
C1160 C 0.24771 0.75568 0.99742 0.0
C1161 C 0.25635 0.70516 0.00529 0.0
C1162 C 0.27598 0.7207 0.99919 0.0
C1163 C 0.29158 0.76158 0.98889 0.0
C1164 C 0.28746 0.78674 0.98405 0.0
C1165 C 0.27188 0.74596 0.9952 0.0
C1166 C 0.26334 0.7962 0.98567 0.0
C1167 C 0.24366 0.78086 0.99256 0.0
H1168 H 0.75311 0.30565 0.99622 0.0
H1169 H 0.80805 0.25158 0.01639 0.0
H1170 H 0.77999 0.21816 0.00441 0.0
H1171 H 0.73915 0.20429 0.98926 0.0
H1172 H 0.68329 0.25859 0.97266 0.0
H1173 H 0.71237 0.29193 0.98186 0.0
C1174 C 0.75895 0.28655 0.99792 0.0
C1175 C 0.78259 0.28106 0.00713 0.0
C1176 C 0.74255 0.26748 0.99151 0.0
C1177 C 0.78986 0.25624 0.00945 0.0
C1178 C 0.77387 0.23713 0.00252 0.0
C1179 C 0.73355 0.22345 0.98739 0.0
C1180 C 0.70928 0.22908 0.98009 0.0
C1181 C 0.75011 0.24252 0.99361 0.0
C1182 C 0.70196 0.2539 0.97819 0.0
C1183 C 0.71853 0.27294 0.9835 0.0
H1184 H 0.75375 0.69043 0.98964 0.0
H1185 H 0.81648 0.73951 0.99178 0.0
H1186 H 0.78907 0.77458 1.00026 0.0
H1187 H 0.74703 0.79111 0.00773 0.0
H1188 H 0.68447 0.74191 0.00281 0.0
H1189 H 0.71199 0.70711 0.99476 0.0
C1190 C 0.76142 0.70882 0.99194 0.0
C1191 C 0.78708 0.71239 0.99028 0.0
C1192 C 0.74555 0.72887 0.99634 0.0
C1193 C 0.79675 0.73634 0.99298 0.0
C1194 C 0.7811 0.75636 0.99789 0.0
C1195 C 0.73949 0.77276 0.00487 0.0
C1196 C 0.71378 0.76905 0.00599 0.0
C1197 C 0.75544 0.75283 0.99973 0.0
C1198 C 0.7042 0.74524 0.00199 0.0
C1199 C 0.71992 0.72531 0.99743 0.0
H1200 H 0.49287 0.75516 0.80437 0.0
H1201 H 0.48801 0.69759 0.7495 0.0
H1202 H 0.49507 0.72798 0.71663 0.0
H1203 H 0.50279 0.77118 0.70366 0.0
H1204 H 0.50434 0.82875 0.75877 0.0
H1205 H 0.49857 0.79815 0.79145 0.0
C1206 C 0.49335 0.74929 0.7852 0.0
C1207 C 0.49008 0.72422 0.77931 0.0
C1208 C 0.49693 0.76687 0.76651 0.0
C1209 C 0.49043 0.71684 0.75442 0.0
C1210 C 0.49455 0.73418 0.73567 0.0
C1211 C 0.50199 0.7769 0.72286 0.0
C1212 C 0.50418 0.80207 0.72891 0.0
C1213 C 0.49792 0.75925 0.74151 0.0
C1214 C 0.5027 0.80943 0.75374 0.0
C1215 C 0.4994 0.79197 0.77241 0.0
H1216 H 0.27235 0.4648 0.78851 0.0
H1217 H 0.29038 0.54164 0.79943 0.0
H1218 H 0.26087 0.55352 0.76732 0.0
H1219 H 0.22856 0.54215 0.73735 0.0
H1220 H 0.20799 0.46558 0.7291 0.0
H1221 H 0.23973 0.45347 0.75886 0.0
C1222 C 0.26997 0.48409 0.78361 0.0
C1223 C 0.28357 0.50232 0.79612 0.0
C1224 C 0.25235 0.49083 0.76574 0.0
C1225 C 0.28007 0.5273 0.78998 0.0
C1226 C 0.26319 0.5341 0.77166 0.0
C1227 C 0.23116 0.52282 0.74201 0.0
C1228 C 0.21603 0.50478 0.73106 0.0
C1229 C 0.24902 0.51605 0.75962 0.0
C1230 C 0.21937 0.47981 0.7374 0.0
C1231 C 0.23754 0.47286 0.75436 0.0
H1232 H 0.50445 0.30187 0.76024 0.0
H1233 H 0.50137 0.25169 0.82208 0.0
H1234 H 0.49221 0.21733 0.79431 0.0
H1235 H 0.48553 0.20137 0.75241 0.0
H1236 H 0.48515 0.2517 0.69068 0.0
H1237 H 0.49505 0.28619 0.7183 0.0
C1238 C 0.50176 0.28339 0.76753 0.0
C1239 C 0.50372 0.27922 0.79307 0.0
C1240 C 0.49583 0.26379 0.75149 0.0
C1241 C 0.49989 0.25531 0.80244 0.0
C1242 C 0.4947 0.23565 0.78659 0.0
C1243 C 0.48758 0.21992 0.74507 0.0
C1244 C 0.4848 0.22405 0.71962 0.0
C1245 C 0.49269 0.23966 0.7611 0.0
C1246 C 0.48716 0.24816 0.71028 0.0
C1247 C 0.4929 0.26784 0.72604 0.0
H1248 H 0.8088 0.48104 0.74551 0.0
H1249 H 0.75944 0.48664 0.68323 0.0
H1250 H 0.7255 0.4983 0.71085 0.0
H1251 H 0.71013 0.50777 0.75294 0.0
H1252 H 0.75938 0.49939 0.81507 0.0
H1253 H 0.79308 0.48807 0.78734 0.0
C1254 C 0.79058 0.48472 0.73801 0.0
C1255 C 0.78662 0.48311 0.71241 0.0
C1256 C 0.77117 0.49105 0.75399 0.0
C1257 C 0.76289 0.48769 0.70292 0.0
C1258 C 0.74352 0.49446 0.71869 0.0
C1259 C 0.72827 0.50349 0.76031 0.0
C1260 C 0.73236 0.50456 0.78595 0.0
C1261 C 0.74749 0.49638 0.74426 0.0
C1262 C 0.75581 0.49866 0.79537 0.0
C1263 C 0.7751 0.49221 0.77955 0.0
H1264 H 0.53038 0.20148 0.24597 0.0
H1265 H 0.49665 0.23974 0.30719 0.0
H1266 H 0.48631 0.27451 0.28009 0.0
H1267 H 0.4851 0.29306 0.23825 0.0
H1268 H 0.51994 0.25449 0.17769 0.0
H1269 H 0.53164 0.22094 0.20526 0.0
C1270 C 0.52091 0.2175 0.25342 0.0
C1271 C 0.51414 0.21799 0.27846 0.0
C1272 C 0.51512 0.23735 0.2378 0.0
C1273 C 0.50208 0.23896 0.28794 0.0
C1274 C 0.49608 0.25879 0.27243 0.0
C1275 C 0.49537 0.27736 0.23117 0.0
C1276 C 0.50146 0.27621 0.20591 0.0
C1277 C 0.50222 0.25805 0.24722 0.0
C1278 C 0.51493 0.25584 0.19703 0.0
C1279 C 0.52163 0.23659 0.21277 0.0
H1280 H 0.77781 0.54054 0.27176 0.0
H1281 H 0.78439 0.46546 0.29749 0.0
H1282 H 0.75355 0.45196 0.26727 0.0
H1283 H 0.72618 0.46125 0.23221 0.0
H1284 H 0.72301 0.53549 0.20346 0.0
H1285 H 0.75104 0.54967 0.23601 0.0
C1286 C 0.77218 0.52131 0.27087 0.0
C1287 C 0.78301 0.504 0.28687 0.0
C1288 C 0.75525 0.51355 0.25277 0.0
C1289 C 0.77612 0.47904 0.28532 0.0
C1290 C 0.75857 0.47134 0.26805 0.0
C1291 C 0.73155 0.48054 0.23322 0.0
C1292 C 0.72255 0.49734 0.21561 0.0
C1293 C 0.74824 0.48837 0.25148 0.0
C1294 C 0.72983 0.52223 0.21682 0.0
C1295 C 0.74578 0.53035 0.23544 0.0
H1296 H 0.54503 0.7314 0.22605 0.0
H1297 H 0.46926 0.71895 0.20473 0.0
H1298 H 0.45522 0.74821 0.23616 0.0
H1299 H 0.46453 0.77782 0.26934 0.0
H1300 H 0.5404 0.79313 0.28822 0.0
H1301 H 0.55443 0.76229 0.25823 0.0
C1302 C 0.52546 0.73509 0.2284 0.0
C1303 C 0.50817 0.72303 0.21326 0.0
C1304 C 0.51758 0.75244 0.24605 0.0
C1305 C 0.48289 0.72812 0.21617 0.0
C1306 C 0.47486 0.74479 0.23416 0.0
C1307 C 0.48412 0.77425 0.26694 0.0
C1308 C 0.50143 0.78749 0.28102 0.0
C1309 C 0.49203 0.75709 0.24916 0.0
C1310 C 0.52676 0.78309 0.27753 0.0
C1311 C 0.53478 0.76548 0.26042 0.0
H1312 H 0.30174 0.50898 0.24377 0.0
H1313 H 0.24708 0.51584 0.18622 0.0
H1314 H 0.21418 0.50683 0.21582 0.0
H1315 H 0.20101 0.49606 0.25776 0.0
H1316 H 0.25555 0.48531 0.31482 0.0
H1317 H 0.28849 0.49659 0.28582 0.0
C1318 C 0.28259 0.50867 0.23787 0.0
C1319 C 0.27671 0.51325 0.213 0.0
C1320 C 0.26383 0.5026 0.25485 0.0
C1321 C 0.25194 0.51237 0.20534 0.0
C1322 C 0.23316 0.50722 0.22222 0.0
C1323 C 0.22012 0.49625 0.26384 0.0
C1324 C 0.2259 0.49001 0.28836 0.0
C1325 C 0.2389 0.50214 0.24696 0.0
C1326 C 0.25072 0.49 0.29597 0.0
C1327 C 0.26951 0.49652 0.27943 0.0
H1328 H 0.80258 0.75589 0.51272 0.0
H1329 H 0.74958 0.69673 0.51946 0.0
H1330 H 0.71587 0.72549 0.51049 0.0
H1331 H 0.70149 0.76755 0.50069 0.0
H1332 H 0.75421 0.82722 0.49719 0.0
H1333 H 0.78803 0.79824 0.50487 0.0
C1334 C 0.78363 0.74934 0.5122 0.0
C1335 C 0.77851 0.72428 0.51659 0.0
C1336 C 0.76434 0.76607 0.50758 0.0
C1337 C 0.75391 0.71601 0.51618 0.0
C1338 C 0.73466 0.73241 0.51099 0.0
C1339 C 0.72042 0.77412 0.50153 0.0
C1340 C 0.72546 0.79937 0.49821 0.0
C1341 C 0.73966 0.75747 0.50662 0.0
C1342 C 0.74995 0.80782 0.49971 0.0
C1343 C 0.76927 0.79127 0.50407 0.0
H1344 H 0.71557 0.22825 0.53462 0.0
H1345 H 0.71117 0.20152 0.45967 0.0
H1346 H 0.73901 0.23434 0.44593 0.0
H1347 H 0.76697 0.26882 0.4557 0.0
H1348 H 0.77489 0.29272 0.53126 0.0
H1349 H 0.74317 0.26318 0.54431 0.0
C1350 C 0.72054 0.22983 0.51526 0.0
C1351 C 0.71138 0.21256 0.49816 0.0
C1352 C 0.73721 0.24826 0.50763 0.0
C1353 C 0.71814 0.21456 0.47317 0.0
C1354 C 0.73401 0.23334 0.4653 0.0
C1355 C 0.76136 0.26783 0.47493 0.0
C1356 C 0.77298 0.28299 0.49249 0.0
C1357 C 0.74396 0.25006 0.48242 0.0
C1358 C 0.76605 0.28123 0.51744 0.0
C1359 C 0.74801 0.2643 0.5249 0.0
H1360 H 0.26625 0.7774 0.54021 0.0
H1361 H 0.28279 0.78735 0.46292 0.0
H1362 H 0.25353 0.75461 0.45207 0.0
H1363 H 0.22167 0.72455 0.46445 0.0
H1364 H 0.20222 0.71754 0.5414 0.0
H1365 H 0.23411 0.74759 0.55257 0.0
C1366 C 0.26361 0.77215 0.52105 0.0
C1367 C 0.27672 0.78458 0.50239 0.0
C1368 C 0.24611 0.75394 0.5149 0.0
C1369 C 0.27287 0.77798 0.47758 0.0
C1370 C 0.25615 0.7593 0.47137 0.0
C1371 C 0.22461 0.72948 0.48367 0.0
C1372 C 0.20974 0.71882 0.5021 0.0
C1373 C 0.24243 0.74735 0.48985 0.0
C1374 C 0.21344 0.72558 0.5269 0.0
C1375 C 0.23167 0.74273 0.53329 0.0
H1376 H 0.22858 0.27437 0.48204 0.0
H1377 H 0.23879 0.26601 0.56059 0.0
H1378 H 0.26787 0.23204 0.55351 0.0
H1379 H 0.28941 0.20391 0.52483 0.0
H1380 H 0.28224 0.21495 0.44626 0.0
H1381 H 0.25305 0.2488 0.45336 0.0
C1382 C 0.23728 0.2651 0.49754 0.0
C1383 C 0.23147 0.27236 0.52177 0.0
C1384 C 0.25447 0.24613 0.49329 0.0
C1385 C 0.24306 0.26062 0.54178 0.0
C1386 C 0.2596 0.2412 0.53774 0.0
C1387 C 0.28149 0.21385 0.50932 0.0
C1388 C 0.28767 0.20692 0.48508 0.0
C1389 C 0.26529 0.23367 0.51358 0.0
C1390 C 0.27769 0.22007 0.46508 0.0
C1391 C 0.26096 0.23932 0.46913 0.0
H1392 H 0.0777 0.38374 0.11577 0.0
H1393 H 0.07465 0.3046 0.1252 0.0
H1394 H 0.10322 0.29911 0.09068 0.0
H1395 H 0.12792 0.31666 0.05704 0.0
H1396 H 0.13221 0.39576 0.04806 0.0
H1397 H 0.10442 0.40146 0.08336 0.0
C1398 C 0.08335 0.36531 0.11028 0.0
C1399 C 0.07394 0.34458 0.12288 0.0
C1400 C 0.09998 0.3623 0.09055 0.0
C1401 C 0.0816 0.32083 0.11576 0.0
C1402 C 0.09791 0.31767 0.09601 0.0
C1403 C 0.12287 0.33516 0.06288 0.0
C1404 C 0.13195 0.35577 0.0499 0.0
C1405 C 0.10704 0.33826 0.08317 0.0
C1406 C 0.12545 0.37962 0.05779 0.0
C1407 C 0.10951 0.38287 0.07789 0.0
H1408 H 0.69252 0.08656 0.10693 0.0
H1409 H 0.61399 0.07287 0.10886 0.0
H1410 H 0.60769 0.10242 0.07533 0.0
H1411 H 0.62475 0.1307 0.04403 0.0
H1412 H 0.70342 0.14338 0.04149 0.0
H1413 H 0.70935 0.11601 0.07683 0.0
C1414 C 0.67403 0.09011 0.10006 0.0
C1415 C 0.6538 0.07744 0.11024 0.0
C1416 C 0.67054 0.10704 0.0807 0.0
C1417 C 0.62992 0.0823 0.10123 0.0
C1418 C 0.62627 0.09923 0.08208 0.0
C1419 C 0.64312 0.12774 0.05147 0.0
C1420 C 0.6636 0.13902 0.04018 0.0
C1421 C 0.64647 0.11155 0.07151 0.0
C1422 C 0.68735 0.13485 0.04985 0.0
C1423 C 0.69078 0.11914 0.07001 0.0
H1424 H 0.92383 0.61765 0.11304 0.0
H1425 H 0.92509 0.69691 0.12163 0.0
H1426 H 0.89537 0.7013 0.08786 0.0
H1427 H 0.87069 0.6827 0.05457 0.0
H1428 H 0.86851 0.60338 0.04665 0.0
H1429 H 0.89666 0.59887 0.08173 0.0
C1430 C 0.91753 0.63587 0.10754 0.0
C1431 C 0.92683 0.65695 0.11959 0.0
C1432 C 0.90023 0.63822 0.08832 0.0
C1433 C 0.91827 0.68042 0.11255 0.0
C1434 C 0.90129 0.68293 0.09325 0.0
C1435 C 0.87617 0.66441 0.0607 0.0
C1436 C 0.86765 0.6434 0.04797 0.0
C1437 C 0.89237 0.66198 0.08083 0.0
C1438 C 0.87477 0.61983 0.05619 0.0
C1439 C 0.89098 0.61725 0.07615 0.0
H1440 H 0.3152 0.87369 0.03675 0.0
H1441 H 0.39456 0.86639 0.03546 0.0
H1442 H 0.39766 0.89166 0.07293 0.0
H1443 H 0.37774 0.91713 0.10508 0.0
H1444 H 0.29824 0.92309 0.10682 0.0
H1445 H 0.29523 0.89697 0.07009 0.0
C1446 C 0.33318 0.87755 0.04473 0.0
C1447 C 0.35465 0.86837 0.03328 0.0
C1448 C 0.33477 0.8919 0.06626 0.0
C1449 C 0.37779 0.87327 0.04395 0.0
C1450 C 0.37956 0.88777 0.0653 0.0
C1451 C 0.35977 0.91265 0.09742 0.0
C1452 C 0.33824 0.92218 0.1085 0.0
C1453 C 0.35818 0.89741 0.07645 0.0
C1454 C 0.31507 0.91601 0.09859 0.0
C1455 C 0.31334 0.90111 0.07758 0.0
H1456 H 0.08985 0.63183 0.89045 0.0
H1457 H 0.07419 0.70999 0.89389 0.0
H1458 H 0.10137 0.71415 0.92964 0.0
H1459 H 0.1283 0.69547 0.96075 0.0
H1460 H 0.14407 0.61736 0.95795 0.0
H1461 H 0.11819 0.61329 0.92101 0.0
C1462 C 0.09252 0.64979 0.89895 0.0
C1463 C 0.07996 0.67056 0.88957 0.0
C1464 C 0.10811 0.65203 0.91962 0.0
C1465 C 0.08361 0.69371 0.90076 0.0
C1466 C 0.09912 0.6961 0.92123 0.0
C1467 C 0.12619 0.67755 0.95202 0.0
C1468 C 0.13801 0.65672 0.96213 0.0
C1469 C 0.11127 0.67537 0.93094 0.0
C1470 C 0.13515 0.63366 0.95053 0.0
C1471 C 0.12033 0.63134 0.92945 0.0
H1472 H 0.36963 0.07625 0.89047 0.0
H1473 H 0.28996 0.0743 0.88743 0.0
H1474 H 0.28764 0.09983 0.92458 0.0
H1475 H 0.30814 0.12262 0.95785 0.0
H1476 H 0.38775 0.1261 0.96035 0.0
H1477 H 0.39024 0.10008 0.92339 0.0
C1478 C 0.35178 0.0814 0.89799 0.0
C1479 C 0.32999 0.07335 0.88631 0.0
C1480 C 0.35058 0.09635 0.91918 0.0
C1481 C 0.30698 0.0803 0.8961 0.0
C1482 C 0.30564 0.09487 0.91734 0.0
C1483 C 0.32605 0.11767 0.95032 0.0
C1484 C 0.34774 0.12615 0.96183 0.0
C1485 C 0.3273 0.10298 0.92901 0.0
C1486 C 0.3708 0.11978 0.95178 0.0
C1487 C 0.37222 0.10489 0.93069 0.0
H1488 H 0.87304 0.37769 0.95487 0.0
H1489 H 0.87673 0.29821 0.9606 0.0
H1490 H 0.90308 0.29638 0.92414 0.0
H1491 H 0.92655 0.31731 0.89159 0.0
H1492 H 0.92441 0.39683 0.88638 0.0
H1493 H 0.89598 0.39868 0.92145 0.0
C1494 C 0.87951 0.36 0.948 0.0
C1495 C 0.873 0.33815 0.96046 0.0
C1496 C 0.895 0.35906 0.92713 0.0
C1497 C 0.88157 0.31534 0.95142 0.0
C1498 C 0.89664 0.31424 0.93055 0.0
C1499 C 0.9197 0.33503 0.89801 0.0
C1500 C 0.92758 0.35687 0.88643 0.0
C1501 C 0.90369 0.33598 0.9184 0.0
C1502 C 0.91865 0.37972 0.89503 0.0
C1503 C 0.90241 0.3808 0.9151 0.0
H1504 H 0.69293 0.86996 0.95229 0.0
H1505 H 0.61381 0.86105 0.95592 0.0
H1506 H 0.60902 0.88754 0.91946 0.0
H1507 H 0.62747 0.91479 0.88762 0.0
H1508 H 0.70672 0.92357 0.88504 0.0
H1509 H 0.71128 0.89553 0.91998 0.0
C1510 C 0.67461 0.87367 0.94505 0.0
C1511 C 0.65375 0.86362 0.95686 0.0
C1512 C 0.67203 0.88899 0.9243 0.0
C1513 C 0.63017 0.86856 0.94717 0.0
C1514 C 0.62743 0.88376 0.92636 0.0
C1515 C 0.64572 0.91042 0.89463 0.0
C1516 C 0.66672 0.92135 0.88378 0.0
C1517 C 0.64823 0.89432 0.91494 0.0
C1518 C 0.69025 0.9155 0.89307 0.0
C1519 C 0.69289 0.89946 0.91308 0.0
H1520 H 0.1071 0.08711 0.30138 0.0
H1521 H 0.10036 0.06321 0.37716 0.0
H1522 H 0.06424 0.08967 0.38267 0.0
H1523 H 0.0337 0.11877 0.36558 0.0
H1524 H 0.03973 0.14144 0.28938 0.0
H1525 H 0.07699 0.11654 0.2845 0.0
C1526 C 0.09775 0.08775 0.3191 0.0
C1527 C 0.10635 0.07318 0.33878 0.0
C1528 C 0.07685 0.10285 0.3221 0.0
C1529 C 0.09404 0.07418 0.36165 0.0
C1530 C 0.07339 0.08934 0.36485 0.0
C1531 C 0.04334 0.11841 0.34801 0.0
C1532 C 0.03401 0.13191 0.3279 0.0
C1533 C 0.06454 0.10367 0.34517 0.0
C1534 C 0.04653 0.13114 0.30515 0.0
C1535 C 0.06783 0.11688 0.30231 0.0
H1536 H 0.91558 0.10368 0.36754 0.0
H1537 H 0.91595 0.10818 0.28794 0.0
H1538 H 0.88964 0.07151 0.28547 0.0
H1539 H 0.86764 0.03747 0.30589 0.0
H1540 H 0.86528 0.03403 0.38549 0.0
H1541 H 0.89115 0.07112 0.38807 0.0
C1542 C 0.90983 0.09663 0.34967 0.0
C1543 C 0.91784 0.10844 0.32793 0.0
C1544 C 0.89438 0.07578 0.34842 0.0
C1545 C 0.91003 0.09937 0.30491 0.0
C1546 C 0.89504 0.07839 0.30349 0.0
C1547 C 0.87274 0.0449 0.32381 0.0
C1548 C 0.86478 0.03296 0.34548 0.0
C1549 C 0.88728 0.06634 0.32511 0.0
C1550 C 0.87121 0.04293 0.36856 0.0
C1551 C 0.88605 0.06407 0.37003 0.0
H1552 H 0.8911 0.91286 0.3091 0.0
H1553 H 0.88412 0.91744 0.38837 0.0
H1554 H 0.9199 0.89023 0.39338 0.0
H1555 H 0.95443 0.86642 0.37502 0.0
H1556 H 0.96149 0.86345 0.29562 0.0
H1557 H 0.92444 0.88849 0.29092 0.0
C1558 C 0.89732 0.90782 0.32748 0.0
C1559 C 0.88504 0.9172 0.3483 0.0
C1560 C 0.91799 0.89241 0.33021 0.0
C1561 C 0.89333 0.9105 0.372 0.0
C1562 C 0.91379 0.89493 0.37489 0.0
C1563 C 0.94765 0.87107 0.35674 0.0
C1564 C 0.96071 0.86314 0.33573 0.0
C1565 C 0.92643 0.88593 0.35411 0.0
C1566 C 0.95185 0.86943 0.31212 0.0
C1567 C 0.93065 0.88378 0.30938 0.0
H1568 H 0.1242 0.95892 0.36929 0.0
H1569 H 0.13984 0.95406 0.29128 0.0
H1570 H 0.11482 0.91669 0.28813 0.0
H1571 H 0.08669 0.88668 0.30697 0.0
H1572 H 0.06897 0.89249 0.38448 0.0
H1573 H 0.09646 0.92814 0.38843 0.0
C1574 C 0.12236 0.94942 0.35173 0.0
C1575 C 0.13383 0.95913 0.33057 0.0
C1576 C 0.10735 0.92828 0.3499 0.0
C1577 C 0.1311 0.94692 0.30782 0.0
C1578 C 0.11676 0.92559 0.30598 0.0
C1579 C 0.08893 0.89569 0.32474 0.0
C1580 C 0.07578 0.88704 0.34536 0.0
C1581 C 0.10448 0.91634 0.3268 0.0
C1582 C 0.07882 0.89891 0.36828 0.0
C1583 C 0.09457 0.91926 0.37057 0.0
H1584 H 0.03481 0.87892 0.69288 0.0
H1585 H 0.02686 0.87166 0.61388 0.0
H1586 H 0.06255 0.89886 0.60764 0.0
H1587 H 0.09556 0.9252 0.62482 0.0
H1588 H 0.10406 0.93096 0.70392 0.0
H1589 H 0.06847 0.90383 0.70997 0.0
C1590 C 0.04089 0.88326 0.67428 0.0
C1591 C 0.02817 0.87343 0.65385 0.0
C1592 C 0.06144 0.89868 0.67089 0.0
C1593 C 0.03639 0.87901 0.62988 0.0
C1594 C 0.05673 0.89459 0.62632 0.0
C1595 C 0.08957 0.92053 0.64337 0.0
C1596 C 0.10228 0.93018 0.66391 0.0
C1597 C 0.0693 0.90464 0.6467 0.0
C1598 C 0.09454 0.92378 0.68783 0.0
C1599 C 0.0742 0.90829 0.6913 0.0
H1600 H 0.13087 0.05156 0.68562 0.0
H1601 H 0.12314 0.04292 0.60673 0.0
H1602 H 0.09834 0.08077 0.60487 0.0
H1603 H 0.07716 0.11506 0.62615 0.0
H1604 H 0.0854 0.12347 0.70505 0.0
H1605 H 0.11182 0.0869 0.70642 0.0
C1606 C 0.12389 0.05803 0.66797 0.0
C1607 C 0.12866 0.0444 0.64635 0.0
C1608 C 0.10967 0.07966 0.66709 0.0
C1609 C 0.11968 0.0531 0.62362 0.0
C1610 C 0.10545 0.07467 0.62258 0.0
C1611 C 0.08485 0.10895 0.64362 0.0
C1612 C 0.0792 0.12184 0.6655 0.0
C1613 C 0.10005 0.08791 0.64426 0.0
C1614 C 0.08943 0.11383 0.68797 0.0
C1615 C 0.1045 0.09291 0.68877 0.0
H1616 H 0.95843 0.13504 0.62879 0.0
H1617 H 0.96748 0.13504 0.70805 0.0
H1618 H 0.93137 0.10858 0.71261 0.0
H1619 H 0.89759 0.0848 0.69427 0.0
H1620 H 0.88887 0.08326 0.61505 0.0
H1621 H 0.92438 0.11083 0.6103 0.0
C1622 C 0.95238 0.12931 0.64702 0.0
C1623 C 0.9656 0.137 0.66802 0.0
C1624 C 0.9317 0.11373 0.64955 0.0
C1625 C 0.95768 0.12932 0.69155 0.0
C1626 C 0.93701 0.11418 0.69422 0.0
C1627 C 0.90344 0.09054 0.67597 0.0
C1628 C 0.89064 0.08203 0.65508 0.0
C1629 C 0.92396 0.10617 0.67337 0.0
C1630 C 0.89848 0.08953 0.63146 0.0
C1631 C 0.91876 0.10532 0.62872 0.0
H1632 H 0.90893 0.89218 0.63336 0.0
H1633 H 0.92066 0.89411 0.71224 0.0
H1634 H 0.89625 0.93194 0.71522 0.0
H1635 H 0.87311 0.96533 0.69528 0.0
H1636 H 0.86023 0.96322 0.61664 0.0
H1637 H 0.88351 0.92449 0.61367 0.0
C1638 C 0.90601 0.90082 0.65121 0.0
C1639 C 0.91671 0.89046 0.67253 0.0
C1640 C 0.89186 0.92254 0.6528 0.0
C1641 C 0.91263 0.90173 0.69556 0.0
C1642 C 0.89874 0.9234 0.69727 0.0
C1643 C 0.87534 0.95636 0.67748 0.0
C1644 C 0.86519 0.96719 0.65616 0.0
C1645 C 0.88853 0.9341 0.67599 0.0
C1646 C 0.86794 0.95523 0.63329 0.0
C1647 C 0.88127 0.93314 0.6316 0.0
H1648 H 0.31298 0.04169 0.12754 0.0
H1649 H 0.39249 0.0367 0.13061 0.0
H1650 H 0.39595 0.07347 0.10437 0.0
H1651 H 0.37616 0.10598 0.0792 0.0
H1652 H 0.29657 0.11062 0.07669 0.0
H1653 H 0.29336 0.07497 0.10415 0.0
C1654 C 0.3311 0.0487 0.12258 0.0
C1655 C 0.35246 0.03643 0.13088 0.0
C1656 C 0.3329 0.0697 0.10752 0.0
C1657 C 0.37578 0.04583 0.12445 0.0
C1658 C 0.37775 0.06679 0.10939 0.0
C1659 C 0.35813 0.09923 0.08475 0.0
C1660 C 0.33662 0.11084 0.07581 0.0
C1661 C 0.35642 0.07871 0.1006 0.0
C1662 C 0.31339 0.10199 0.08327 0.0
C1663 C 0.31154 0.08159 0.09895 0.0
H1664 H 0.37561 0.96452 0.86977 0.0
H1665 H 0.30173 0.94976 0.84371 0.0
H1666 H 0.29984 0.9124 0.86878 0.0
H1667 H 0.31787 0.88545 0.90029 0.0
H1668 H 0.39125 0.90033 0.92762 0.0
H1669 H 0.39464 0.93598 0.90003 0.0
C1670 C 0.35931 0.95286 0.86931 0.0
C1671 C 0.33884 0.9599 0.85497 0.0
C1672 C 0.35811 0.93157 0.88426 0.0
C1673 C 0.3177 0.94478 0.8547 0.0
C1674 C 0.31656 0.92343 0.86909 0.0
C1675 C 0.33465 0.89642 0.90012 0.0
C1676 C 0.35418 0.89036 0.91609 0.0
C1677 C 0.33642 0.91693 0.88433 0.0
C1678 C 0.37587 0.90468 0.91556 0.0
C1679 C 0.37784 0.92507 0.89977 0.0
H1680 H 0.04187 0.32036 0.88645 0.0
H1681 H 0.05014 0.39828 0.87162 0.0
H1682 H 0.0856 0.40005 0.89968 0.0
H1683 H 0.1139 0.37944 0.92873 0.0
H1684 H 0.10632 0.30121 0.9423 0.0
H1685 H 0.07085 0.29955 0.91436 0.0
C1686 C 0.05143 0.33775 0.88936 0.0
C1687 C 0.04334 0.3592 0.8771 0.0
C1688 C 0.07187 0.33855 0.90528 0.0
C1689 C 0.05603 0.38153 0.88086 0.0
C1690 C 0.07626 0.38255 0.89692 0.0
C1691 C 0.10446 0.36203 0.92558 0.0
C1692 C 0.11261 0.34049 0.93765 0.0
C1693 C 0.08427 0.36118 0.90928 0.0
C1694 C 0.10037 0.31803 0.93323 0.0
C1695 C 0.08009 0.31708 0.91729 0.0
H1696 H 0.66115 0.12599 0.8945 0.0
H1697 H 0.64477 0.0868 0.96193 0.0
H1698 H 0.64207 0.04792 0.93918 0.0
H1699 H 0.64499 0.02489 0.90032 0.0
H1700 H 0.6585 0.06389 0.83217 0.0
H1701 H 0.66131 0.10303 0.85482 0.0
C1702 C 0.65709 0.10888 0.90412 0.0
C1703 C 0.65343 0.10913 0.92984 0.0
C1704 C 0.65483 0.08663 0.89077 0.0
C1705 C 0.64772 0.08699 0.94212 0.0
C1706 C 0.64615 0.06477 0.92914 0.0
C1707 C 0.64835 0.042 0.89041 0.0
C1708 C 0.65161 0.04153 0.86466 0.0
C1709 C 0.64969 0.06436 0.90349 0.0
C1710 C 0.65578 0.06383 0.85201 0.0
C1711 C 0.65757 0.08617 0.86496 0.0
H1712 H 0.98043 0.63805 0.9048 0.0
H1713 H 0.94013 0.65402 0.83797 0.0
H1714 H 0.90143 0.6558 0.86141 0.0
H1715 H 0.87944 0.65514 0.90158 0.0
H1716 H 0.91979 0.63641 0.9677 0.0
H1717 H 0.95809 0.63353 0.94398 0.0
C1718 C 0.9631 0.64157 0.89535 0.0
C1719 C 0.96308 0.64598 0.86977 0.0
C1720 C 0.94101 0.64241 0.90889 0.0
C1721 C 0.94054 0.65039 0.85766 0.0
C1722 C 0.91846 0.65163 0.87108 0.0
C1723 C 0.89667 0.65046 0.9107 0.0
C1724 C 0.89696 0.64635 0.93634 0.0
C1725 C 0.91854 0.64813 0.8968 0.0
C1726 C 0.91921 0.63978 0.94796 0.0
C1727 C 0.94109 0.63811 0.93443 0.0
H1728 H 0.69564 0.9592 0.11744 0.0
H1729 H 0.61746 0.95598 0.13265 0.0
H1730 H 0.61371 0.9191 0.10669 0.0
H1731 H 0.63257 0.88834 0.07891 0.0
H1732 H 0.71108 0.89057 0.06527 0.0
H1733 H 0.71483 0.92728 0.09142 0.0
C1734 C 0.67779 0.95038 0.11511 0.0
C1735 C 0.65682 0.96037 0.1268 0.0
C1736 C 0.67585 0.92906 0.10041 0.0
C1737 C 0.63386 0.94863 0.12384 0.0
C1738 C 0.63171 0.92759 0.10895 0.0
C1739 C 0.65049 0.89687 0.08169 0.0
C1740 C 0.6715 0.88689 0.07004 0.0
C1741 C 0.65255 0.91775 0.09702 0.0
C1742 C 0.69465 0.89793 0.07402 0.0
C1743 C 0.69679 0.91893 0.08894 0.0
H1744 H 0.05001 0.68582 0.13365 0.0
H1745 H 0.0455 0.6063 0.12946 0.0
H1746 H 0.08115 0.60556 0.10163 0.0
H1747 H 0.1128 0.62765 0.07762 0.0
H1748 H 0.11757 0.70713 0.08226 0.0
H1749 H 0.08254 0.70776 0.11082 0.0
C1750 C 0.05689 0.6683 0.12674 0.0
C1751 C 0.04508 0.64613 0.13354 0.0
C1752 C 0.07734 0.66804 0.11076 0.0
C1753 C 0.05428 0.6236 0.12452 0.0
C1754 C 0.07461 0.62319 0.10856 0.0
C1755 C 0.10618 0.64511 0.08489 0.0
C1756 C 0.11767 0.66734 0.07771 0.0
C1757 C 0.08614 0.64531 0.10139 0.0
C1758 C 0.10902 0.68979 0.08745 0.0
C1759 C 0.08899 0.69016 0.10377 0.0
H1760 H 0.94992 0.32048 0.14025 0.0
H1761 H 0.96079 0.39878 0.12987 0.0
H1762 H 0.92645 0.39975 0.10029 0.0
H1763 H 0.89454 0.37776 0.07607 0.0
H1764 H 0.88373 0.29954 0.08746 0.0
H1765 H 0.91694 0.29912 0.11796 0.0
C1766 C 0.9447 0.33782 0.13164 0.0
C1767 C 0.95795 0.35951 0.13711 0.0
C1768 C 0.92507 0.33819 0.11473 0.0
C1769 C 0.95084 0.38185 0.12597 0.0
C1770 C 0.9313 0.38237 0.10899 0.0
C1771 C 0.89945 0.36065 0.08528 0.0
C1772 C 0.88682 0.33866 0.07937 0.0
C1773 C 0.91849 0.36058 0.10299 0.0
C1774 C 0.8932 0.31668 0.09162 0.0
C1775 C 0.91219 0.31642 0.10906 0.0
H1776 H 0.61144 0.88578 0.54496 0.0
H1777 H 0.64336 0.81532 0.56423 0.0
H1778 H 0.61524 0.81172 0.5993 0.0
H1779 H 0.58024 0.82757 0.62337 0.0
H1780 H 0.54719 0.89733 0.60342 0.0
H1781 H 0.57689 0.90215 0.56976 0.0
C1782 C 0.61243 0.86984 0.55707 0.0
C1783 C 0.62946 0.85089 0.55207 0.0
C1784 C 0.59578 0.86759 0.57691 0.0
C1785 C 0.63038 0.83017 0.56771 0.0
C1786 C 0.61425 0.82804 0.58772 0.0
C1787 C 0.57956 0.84383 0.61167 0.0
C1788 C 0.56147 0.86198 0.61581 0.0
C1789 C 0.59662 0.84644 0.59228 0.0
C1790 C 0.56086 0.88299 0.60054 0.0
C1791 C 0.57789 0.88582 0.58131 0.0
H1792 H 0.12545 0.57838 0.619 0.0
H1793 H 0.20494 0.57215 0.61872 0.0
H1794 H 0.20718 0.59904 0.58248 0.0
H1795 H 0.18651 0.62338 0.5503 0.0
H1796 H 0.10717 0.631 0.55125 0.0
H1797 H 0.10487 0.60454 0.58791 0.0
C1798 C 0.14325 0.58297 0.61102 0.0
C1799 C 0.165 0.57318 0.62141 0.0
C1800 C 0.14441 0.59863 0.59034 0.0
C1801 C 0.18795 0.57946 0.61105 0.0
C1802 C 0.18924 0.59478 0.59031 0.0
C1803 C 0.16871 0.61928 0.55856 0.0
C1804 C 0.14702 0.62896 0.54801 0.0
C1805 C 0.16758 0.60431 0.57971 0.0
C1806 C 0.12412 0.62374 0.55905 0.0
C1807 C 0.1228 0.60858 0.57996 0.0
H1808 H 0.37693 0.18336 0.53779 0.0
H1809 H 0.36972 0.1041 0.54247 0.0
H1810 H 0.39569 0.10371 0.57954 0.0
H1811 H 0.42134 0.12594 0.60994 0.0
H1812 H 0.42668 0.20542 0.60623 0.0
H1813 H 0.40049 0.20573 0.56942 0.0
C1814 C 0.38101 0.16601 0.54697 0.0
C1815 C 0.37162 0.14376 0.53736 0.0
C1816 C 0.39563 0.16599 0.56837 0.0
C1817 C 0.37677 0.12145 0.54956 0.0
C1818 C 0.39166 0.12122 0.57068 0.0
C1819 C 0.41671 0.14331 0.60105 0.0
C1820 C 0.42604 0.16562 0.61062 0.0
C1821 C 0.40134 0.14337 0.58014 0.0
C1822 C 0.4197 0.18802 0.59917 0.0
C1823 C 0.40478 0.18821 0.57812 0.0
H1824 H 0.84663 0.39703 0.51689 0.0
H1825 H 0.85204 0.32978 0.55922 0.0
H1826 H 0.8512 0.35371 0.59776 0.0
H1827 H 0.84719 0.39398 0.61928 0.0
H1828 H 0.84532 0.46107 0.57636 0.0
H1829 H 0.84626 0.43705 0.53807 0.0
C1830 C 0.84788 0.38766 0.53458 0.0
C1831 C 0.84928 0.36176 0.53535 0.0
C1832 C 0.84768 0.40151 0.55646 0.0
C1833 C 0.85112 0.34976 0.55827 0.0
C1834 C 0.85042 0.36341 0.58025 0.0
C1835 C 0.84688 0.4032 0.60148 0.0
C1836 C 0.84576 0.42913 0.60045 0.0
C1837 C 0.84834 0.38929 0.57957 0.0
C1838 C 0.84599 0.44108 0.57744 0.0
C1839 C 0.84658 0.42739 0.55561 0.0
H1840 H 0.57982 0.12332 0.3826 0.0
H1841 H 0.56339 0.20121 0.38745 0.0
H1842 H 0.58897 0.20453 0.42457 0.0
H1843 H 0.61524 0.18511 0.45604 0.0
H1844 H 0.63265 0.10747 0.4506 0.0
H1845 H 0.60742 0.10422 0.4132 0.0
C1846 C 0.58189 0.14103 0.39176 0.0
C1847 C 0.56965 0.16198 0.3824 0.0
C1848 C 0.59672 0.14282 0.41297 0.0
C1849 C 0.57264 0.18484 0.39432 0.0
C1850 C 0.5872 0.18673 0.41556 0.0
C1851 C 0.6135 0.16747 0.44667 0.0
C1852 C 0.62563 0.14651 0.45613 0.0
C1853 C 0.59919 0.16581 0.42512 0.0
C1854 C 0.62345 0.12384 0.44368 0.0
C1855 C 0.60902 0.12198 0.42233 0.0
H1856 H 0.81012 0.58753 0.38974 0.0
H1857 H 0.88822 0.57201 0.39323 0.0
H1858 H 0.89255 0.60013 0.42835 0.0
H1859 H 0.87359 0.62761 0.4596 0.0
H1860 H 0.79517 0.64172 0.45638 0.0
H1861 H 0.7916 0.61593 0.41966 0.0
C1862 C 0.82812 0.59042 0.39808 0.0
C1863 C 0.84877 0.57763 0.38895 0.0
C1864 C 0.83043 0.60639 0.41841 0.0
C1865 C 0.87198 0.58159 0.39996 0.0
C1866 C 0.87448 0.59767 0.42007 0.0
C1867 C 0.85581 0.62523 0.45066 0.0
C1868 C 0.83469 0.6365 0.46075 0.0
C1869 C 0.85377 0.60996 0.42966 0.0
C1870 C 0.81172 0.63315 0.44906 0.0
C1871 C 0.80962 0.61837 0.42805 0.0
H1872 H 0.37584 0.81227 0.4581 0.0
H1873 H 0.35793 0.8896 0.45059 0.0
H1874 H 0.3852 0.89266 0.41464 0.0
H1875 H 0.41495 0.87354 0.38605 0.0
H1876 H 0.43176 0.79588 0.39286 0.0
H1877 H 0.40397 0.79271 0.42834 0.0
C1878 C 0.37789 0.82979 0.44857 0.0
C1879 C 0.36505 0.85073 0.45707 0.0
C1880 C 0.39337 0.83133 0.42781 0.0
C1881 C 0.36765 0.87323 0.4444 0.0
C1882 C 0.38326 0.875 0.42388 0.0
C1883 C 0.41245 0.85591 0.39526 0.0
C1884 C 0.42548 0.835 0.38695 0.0
C1885 C 0.39633 0.8542 0.41553 0.0
C1886 C 0.42193 0.81224 0.39891 0.0
C1887 C 0.4061 0.81043 0.41923 0.0
H1888 H 0.20211 0.41372 0.39625 0.0
H1889 H 0.12389 0.42836 0.40077 0.0
H1890 H 0.1203 0.40016 0.43588 0.0
H1891 H 0.13982 0.37255 0.46655 0.0
H1892 H 0.21841 0.35975 0.46288 0.0
H1893 H 0.22138 0.38573 0.42618 0.0
C1894 C 0.18427 0.41064 0.40485 0.0
C1895 C 0.16334 0.42315 0.39597 0.0
C1896 C 0.18239 0.39467 0.42523 0.0
C1897 C 0.14033 0.41902 0.40734 0.0
C1898 C 0.13825 0.40287 0.42741 0.0
C1899 C 0.1575 0.37526 0.45751 0.0
C1900 C 0.17884 0.36427 0.46738 0.0
C1901 C 0.15919 0.39074 0.43666 0.0
C1902 C 0.20171 0.36811 0.45567 0.0
C1903 C 0.20345 0.38298 0.43469 0.0
H1904 H 0.62023 0.58721 0.80427 0.0
H1905 H 0.61719 0.57049 0.88219 0.0
H1906 H 0.58343 0.59984 0.88758 0.0
H1907 H 0.55323 0.62878 0.86985 0.0
H1908 H 0.55491 0.64408 0.79165 0.0
H1909 H 0.59079 0.61714 0.78675 0.0
C1910 C 0.61224 0.5901 0.82243 0.0
C1911 C 0.62113 0.5766 0.84274 0.0
C1912 C 0.59258 0.60684 0.82538 0.0
C1913 C 0.61059 0.58053 0.86618 0.0
C1914 C 0.59129 0.59737 0.86932 0.0
C1915 C 0.56171 0.62649 0.85183 0.0
C1916 C 0.5515 0.63842 0.83118 0.0
C1917 C 0.58196 0.61045 0.84902 0.0
C1918 C 0.56245 0.63506 0.80785 0.0
C1919 C 0.58292 0.6196 0.80501 0.0
H1920 H 0.40546 0.62963 0.84762 0.0
H1921 H 0.47041 0.58473 0.83737 0.0
H1922 H 0.44578 0.54715 0.84274 0.0
H1923 H 0.40577 0.52717 0.8501 0.0
H1924 H 0.34133 0.57174 0.8644 0.0
H1925 H 0.36571 0.60945 0.85816 0.0
C1926 C 0.41405 0.61155 0.84642 0.0
C1927 C 0.4395 0.60971 0.84169 0.0
C1928 C 0.39994 0.59011 0.85055 0.0
C1929 C 0.45075 0.58638 0.84078 0.0
C1930 C 0.43672 0.56497 0.84392 0.0
C1931 C 0.39714 0.54517 0.85202 0.0
C1932 C 0.37185 0.54679 0.85759 0.0
C1933 C 0.41133 0.56662 0.84883 0.0
C1934 C 0.36085 0.57013 0.86028 0.0
C1935 C 0.37473 0.59165 0.85653 0.0
H1936 H 0.38826 0.4265 0.821 0.0
H1937 H 0.38504 0.42955 0.90059 0.0
H1938 H 0.41999 0.40102 0.9034 0.0
H1939 H 0.45282 0.37654 0.88306 0.0
H1940 H 0.45645 0.37517 0.80339 0.0
H1941 H 0.42006 0.40149 0.80084 0.0
C1942 C 0.3951 0.42079 0.83896 0.0
C1943 C 0.38412 0.43016 0.86052 0.0
C1944 C 0.41538 0.40468 0.84044 0.0
C1945 C 0.39323 0.42264 0.88368 0.0
C1946 C 0.41323 0.40633 0.88531 0.0
C1947 C 0.44547 0.38186 0.86519 0.0
C1948 C 0.45736 0.37396 0.84348 0.0
C1949 C 0.42465 0.39742 0.8638 0.0
C1950 C 0.44773 0.3811 0.82042 0.0
C1951 C 0.42689 0.39616 0.8189 0.0
H1952 H 0.58141 0.39346 0.80943 0.0
H1953 H 0.57159 0.39368 0.88855 0.0
H1954 H 0.60143 0.42734 0.89252 0.0
H1955 H 0.62945 0.45782 0.87331 0.0
H1956 H 0.63759 0.45855 0.794 0.0
H1957 H 0.60958 0.42344 0.79035 0.0
C1958 C 0.58587 0.40083 0.82754 0.0
C1959 C 0.57426 0.39112 0.84863 0.0
C1960 C 0.60283 0.42039 0.82968 0.0
C1961 C 0.58019 0.4009 0.87198 0.0
C1962 C 0.59729 0.42014 0.87429 0.0
C1963 C 0.62525 0.45009 0.85529 0.0
C1964 C 0.63558 0.46074 0.83398 0.0
C1965 C 0.60863 0.43016 0.85325 0.0
C1966 C 0.6298 0.45072 0.8107 0.0
C1967 C 0.61376 0.43065 0.80857 0.0
H1968 H 0.54351 0.37686 0.18652 0.0
H1969 H 0.54563 0.36556 0.10762 0.0
H1970 H 0.58234 0.39196 0.10468 0.0
H1971 H 0.61324 0.41896 0.12464 0.0
H1972 H 0.61121 0.42907 0.20375 0.0
H1973 H 0.57497 0.40236 0.20651 0.0
C1974 C 0.55201 0.38012 0.16866 0.0
C1975 C 0.54182 0.36941 0.14729 0.0
C1976 C 0.57307 0.39513 0.16717 0.0
C1977 C 0.55316 0.37363 0.12433 0.0
C1978 C 0.57409 0.38874 0.12265 0.0
C1979 C 0.60486 0.41527 0.14247 0.0
C1980 C 0.6148 0.42606 0.16396 0.0
C1981 C 0.58411 0.39971 0.14395 0.0
C1982 C 0.6039 0.421 0.18696 0.0
C1983 C 0.58316 0.40575 0.18855 0.0
H1984 H 0.63336 0.54551 0.18875 0.0
H1985 H 0.63423 0.5381 0.10939 0.0
H1986 H 0.60788 0.5748 0.10555 0.0
H1987 H 0.58321 0.60796 0.12512 0.0
H1988 H 0.58369 0.61539 0.20455 0.0
H1989 H 0.611 0.57968 0.208 0.0
C1990 C 0.62786 0.55196 0.17058 0.0
C1991 C 0.63552 0.53903 0.14938 0.0
C1992 C 0.61291 0.57302 0.16856 0.0
C1993 C 0.62853 0.54776 0.12597 0.0
C1994 C 0.61341 0.56868 0.12379 0.0
C1995 C 0.5894 0.6018 0.14316 0.0
C1996 C 0.5813 0.6142 0.16457 0.0
C1997 C 0.60527 0.58129 0.145 0.0
C1998 C 0.58962 0.60616 0.1878 0.0
C1999 C 0.6052 0.58571 0.1898 0.0
H2000 H 0.4612 0.62251 0.12532 0.0
H2001 H 0.46477 0.6314 0.20448 0.0
H2002 H 0.42775 0.60622 0.20942 0.0
H2003 H 0.39483 0.58069 0.19146 0.0
H2004 H 0.39228 0.56979 0.11255 0.0
H2005 H 0.42821 0.59664 0.1073 0.0
C2006 C 0.45376 0.619 0.1436 0.0
C2007 C 0.4657 0.62879 0.16447 0.0
C2008 C 0.43264 0.60406 0.14638 0.0
C2009 C 0.45599 0.62397 0.18809 0.0
C2010 C 0.43478 0.60959 0.19097 0.0
C2011 C 0.40208 0.58431 0.17313 0.0
C2012 C 0.39091 0.57331 0.15245 0.0
C2013 C 0.42303 0.5994 0.17028 0.0
C2014 C 0.40061 0.578 0.1288 0.0
C2015 C 0.42115 0.59337 0.12576 0.0
H2016 H 0.42163 0.39042 0.1894 0.0
H2017 H 0.42715 0.38641 0.10995 0.0
H2018 H 0.39841 0.42091 0.10583 0.0
H2019 H 0.37299 0.45351 0.12481 0.0
H2020 H 0.36887 0.45852 0.20427 0.0
H2021 H 0.39549 0.42236 0.20835 0.0
C2022 C 0.41643 0.39704 0.1712 0.0
C2023 C 0.42657 0.38594 0.15005 0.0
C2024 C 0.4001 0.41711 0.16894 0.0
C2025 C 0.4197 0.39473 0.12657 0.0
C2026 C 0.40323 0.41445 0.12417 0.0
C2027 C 0.37772 0.44649 0.14298 0.0
C2028 C 0.369 0.45865 0.16418 0.0
C2029 C 0.39348 0.42594 0.14522 0.0
C2030 C 0.37543 0.44951 0.18764 0.0
C2031 C 0.39068 0.42885 0.19001 0.0
H2032 H 0.81405 0.54832 0.63448 0.0
H2033 H 0.89282 0.5388 0.6268 0.0
H2034 H 0.8948 0.57524 0.59999 0.0
H2035 H 0.87357 0.60828 0.57678 0.0
H2036 H 0.79481 0.61766 0.58518 0.0
H2037 H 0.79338 0.58268 0.61363 0.0
C2038 C 0.83171 0.55435 0.62715 0.0
C2039 C 0.85325 0.54083 0.63248 0.0
C2040 C 0.83265 0.57512 0.61169 0.0
C2041 C 0.876 0.54895 0.62299 0.0
C2042 C 0.8771 0.56968 0.60755 0.0
C2043 C 0.85612 0.60267 0.5849 0.0
C2044 C 0.83428 0.61536 0.57871 0.0
C2045 C 0.85546 0.58263 0.60142 0.0
C2046 C 0.81185 0.60812 0.58958 0.0
C2047 C 0.81102 0.58813 0.60585 0.0
H2048 H 0.87219 0.44664 0.36799 0.0
H2049 H 0.79885 0.47086 0.38798 0.0
H2050 H 0.79247 0.43333 0.41187 0.0
H2051 H 0.8077 0.39392 0.42785 0.0
H2052 H 0.88151 0.3699 0.40985 0.0
H2053 H 0.88763 0.40679 0.38436 0.0
C2054 C 0.85486 0.44366 0.3776 0.0
C2055 C 0.83608 0.46157 0.37622 0.0
C2056 C 0.85131 0.42199 0.39161 0.0
C2057 C 0.8137 0.45746 0.3888 0.0
C2058 C 0.80996 0.43594 0.40244 0.0
C2059 C 0.82504 0.39665 0.41816 0.0
C2060 C 0.84405 0.37918 0.42061 0.0
C2061 C 0.82862 0.4181 0.40402 0.0
C2062 C 0.86655 0.3831 0.4082 0.0
C2063 C 0.87009 0.40421 0.39368 0.0
H2064 H 0.54535 0.81299 0.38015 0.0
H2065 H 0.53668 0.89219 0.37687 0.0
H2066 H 0.57089 0.89736 0.40604 0.0
H2067 H 0.6028 0.87922 0.43292 0.0
H2068 H 0.61228 0.80006 0.43489 0.0
H2069 H 0.57811 0.79498 0.40576 0.0
C2070 C 0.55097 0.8314 0.38579 0.0
C2071 C 0.53846 0.85219 0.37649 0.0
C2072 C 0.57071 0.83419 0.40236 0.0
C2073 C 0.54606 0.87591 0.38378 0.0
C2074 C 0.56556 0.87886 0.40049 0.0
C2075 C 0.59734 0.86086 0.42699 0.0
C2076 C 0.6099 0.84002 0.43614 0.0
C2077 C 0.57792 0.85812 0.40999 0.0
C2078 C 0.60285 0.81636 0.42811 0.0
C2079 C 0.58333 0.81346 0.41148 0.0
H2080 H 0.18923 0.60918 0.4289 0.0
H2081 H 0.10959 0.61078 0.43183 0.0
H2082 H 0.10751 0.57564 0.40349 0.0
H2083 H 0.12849 0.54324 0.37903 0.0
H2084 H 0.20819 0.54113 0.37769 0.0
H2085 H 0.21004 0.57765 0.40398 0.0
C2086 C 0.17142 0.60192 0.42323 0.0
C2087 C 0.14963 0.61253 0.4325 0.0
C2088 C 0.17036 0.58155 0.40717 0.0
C2089 C 0.12668 0.60287 0.42502 0.0
C2090 C 0.12546 0.58278 0.4088 0.0
C2091 C 0.14621 0.55096 0.38433 0.0
C2092 C 0.16814 0.53948 0.37646 0.0
C2093 C 0.14719 0.5718 0.3999 0.0
C2094 C 0.19101 0.54956 0.3836 0.0
C2095 C 0.19212 0.57045 0.39865 0.0
H2096 H 0.46621 0.11498 0.37972 0.0
H2097 H 0.43537 0.17032 0.3313 0.0
H2098 H 0.39884 0.17341 0.35762 0.0
H2099 H 0.37716 0.16274 0.39618 0.0
H2100 H 0.40742 0.10655 0.44393 0.0
H2101 H 0.44271 0.10151 0.41618 0.0
C2102 C 0.45131 0.12742 0.37473 0.0
C2103 C 0.45356 0.14251 0.35371 0.0
C2104 C 0.43042 0.12922 0.39003 0.0
C2105 C 0.43407 0.15848 0.34739 0.0
C2106 C 0.41325 0.1604 0.36253 0.0
C2107 C 0.39148 0.14936 0.40042 0.0
C2108 C 0.38993 0.13527 0.42217 0.0
C2109 C 0.41151 0.1463 0.3842 0.0
C2110 C 0.40832 0.11769 0.42731 0.0
C2111 C 0.42848 0.11479 0.41147 0.0
H2112 H 0.19758 0.45864 0.63264 0.0
H2113 H 0.11792 0.4571 0.63572 0.0
H2114 H 0.11739 0.42107 0.6083 0.0
H2115 H 0.13968 0.39032 0.5832 0.0
H2116 H 0.2194 0.39139 0.58132 0.0
H2117 H 0.2198 0.42743 0.60856 0.0
C2118 C 0.18008 0.45042 0.62733 0.0
C2119 C 0.1578 0.46055 0.6361 0.0
C2120 C 0.17995 0.4297 0.61176 0.0
C2121 C 0.1353 0.44961 0.62921 0.0
C2122 C 0.135 0.42906 0.61351 0.0
C2123 C 0.15713 0.39848 0.58873 0.0
C2124 C 0.17949 0.38831 0.58019 0.0
C2125 C 0.15722 0.41902 0.60461 0.0
C2126 C 0.20197 0.39891 0.58766 0.0
C2127 C 0.2022 0.41951 0.60321 0.0
H2128 H 0.61316 0.1855 0.58494 0.0
H2129 H 0.60187 0.10954 0.56346 0.0
H2130 H 0.56745 0.10609 0.59248 0.0
H2131 H 0.53915 0.12536 0.62263 0.0
H2132 H 0.5502 0.20162 0.6432 0.0
H2133 H 0.5862 0.20412 0.61623 0.0
C2134 C 0.60321 0.16817 0.58668 0.0
C2135 C 0.60995 0.14788 0.57196 0.0
C2136 C 0.5834 0.16633 0.60334 0.0
C2137 C 0.59698 0.1255 0.57452 0.0
C2138 C 0.5773 0.12349 0.59113 0.0
C2139 C 0.54967 0.14239 0.62143 0.0
C2140 C 0.54199 0.16327 0.63483 0.0
C2141 C 0.57017 0.14386 0.60549 0.0
C2142 C 0.55568 0.18529 0.63298 0.0
C2143 C 0.57624 0.18678 0.61752 0.0
H2144 H 0.44023 0.88683 0.62829 0.0
H2145 H 0.44645 0.80803 0.63884 0.0
H2146 H 0.41162 0.80113 0.61112 0.0
H2147 H 0.3807 0.81721 0.58209 0.0
H2148 H 0.37503 0.89588 0.57043 0.0
H2149 H 0.40815 0.90305 0.60024 0.0
C2150 C 0.43374 0.8682 0.62473 0.0
C2151 C 0.44594 0.848 0.63557 0.0
C2152 C 0.41388 0.86429 0.60836 0.0
C2153 C 0.43743 0.82393 0.63065 0.0
C2154 C 0.41753 0.81993 0.61475 0.0
C2155 C 0.38663 0.83592 0.58617 0.0
C2156 C 0.37549 0.85593 0.57397 0.0
C2157 C 0.40584 0.83993 0.6032 0.0
C2158 C 0.38338 0.8801 0.57949 0.0
C2159 C 0.40232 0.88424 0.59656 0.0
loop_
_geom_bond_atom_site_label_1
_geom_bond_atom_site_label_2
_geom_bond_distance
_geom_bond_site_symmetry_2
_ccdc_geom_bond_type
In0 O1 2.294 . S
In0 O2 2.326 . S
In0 O6 2.266 . S
In0 O7 2.326 . S
In0 O8 2.266 1_455 S
In0 O9 2.302 1_455 S
In0 O11 2.294 . S
In0 O12 2.326 . S
O1 In0 2.294 . S
O1 C10 1.240 . S
O2 In0 2.326 . S
O2 C10 1.252 . S
C3 O6 1.252 . S
C3 O7 1.260 . S
C4 O11 1.240 . S
C4 O12 1.252 . S
C5 O8 1.252 . S
C5 O9 1.279 . S
O6 In0 2.266 . S
O6 C3 1.252 . S
O7 In0 2.326 . S
O7 C3 1.260 . S
O8 In0 2.266 1_655 S
O8 C5 1.252 . S
O9 In0 2.302 1_655 S
O9 C5 1.279 . S
C10 O1 1.240 . S
C10 O2 1.252 . S
O11 In0 2.294 . S
O11 C4 1.240 . S
O12 In0 2.326 . S
O12 C4 1.252 . S
In13 O14 2.294 . S
In13 O15 2.326 . S
In13 O19 2.266 1_545 S
In13 O20 2.302 1_545 S
In13 O21 2.266 . S
In13 O22 2.326 . S
In13 O24 2.294 . S
In13 O25 2.326 . S
O14 In13 2.294 . S
O14 C23 1.240 . S
O15 In13 2.326 . S
O15 C23 1.252 . S
C16 O19 1.252 . S
C16 O20 1.279 . S
C17 O24 1.240 . S
C17 O25 1.252 . S
C18 O21 1.252 . S
C18 O22 1.260 . S
O19 In13 2.266 1_565 S
O19 C16 1.252 . S
O20 In13 2.302 1_565 S
O20 C16 1.279 . S
O21 In13 2.266 . S
O21 C18 1.252 . S
O22 In13 2.326 . S
O22 C18 1.260 . S
C23 O14 1.240 . S
C23 O15 1.252 . S
O24 In13 2.294 . S
O24 C17 1.240 . S
O25 In13 2.326 . S
O25 C17 1.252 . S
In26 O27 2.294 . S
In26 O28 2.326 . S
In26 O32 2.266 . S
In26 O33 2.326 . S
In26 O34 2.266 1_655 S
In26 O35 2.302 1_655 S
In26 O37 2.294 . S
In26 O38 2.326 . S
O27 In26 2.294 . S
O27 C36 1.240 . S
O28 In26 2.326 . S
O28 C36 1.252 . S
C29 O32 1.252 . S
C29 O33 1.260 . S
C30 O37 1.240 . S
C30 O38 1.252 . S
C31 O34 1.252 . S
C31 O35 1.279 . S
O32 In26 2.266 . S
O32 C29 1.252 . S
O33 In26 2.326 . S
O33 C29 1.260 . S
O34 In26 2.266 1_455 S
O34 C31 1.252 . S
O35 In26 2.302 1_455 S
O35 C31 1.279 . S
C36 O27 1.240 . S
C36 O28 1.252 . S
O37 In26 2.294 . S
O37 C30 1.240 . S
O38 In26 2.326 . S
O38 C30 1.252 . S
In39 O40 2.294 . S
In39 O41 2.326 . S
In39 O45 2.266 1_565 S
In39 O46 2.302 1_565 S
In39 O47 2.266 . S
In39 O48 2.326 . S
In39 O50 2.294 . S
In39 O51 2.326 . S
O40 In39 2.294 . S
O40 C49 1.240 . S
O41 In39 2.326 . S
O41 C49 1.252 . S
C42 O45 1.252 . S
C42 O46 1.279 . S
C43 O50 1.240 . S
C43 O51 1.252 . S
C44 O47 1.252 . S
C44 O48 1.260 . S
O45 In39 2.266 1_545 S
O45 C42 1.252 . S
O46 In39 2.302 1_545 S
O46 C42 1.279 . S
O47 In39 2.266 . S
O47 C44 1.252 . S
O48 In39 2.326 . S
O48 C44 1.260 . S
C49 O40 1.240 . S
C49 O41 1.252 . S
O50 In39 2.294 . S
O50 C43 1.240 . S
O51 In39 2.326 . S
O51 C43 1.252 . S
In52 O53 2.294 . S
In52 O54 2.326 . S
In52 O58 2.266 1_455 S
In52 O59 2.302 1_455 S
In52 O60 2.266 . S
In52 O61 2.326 . S
In52 O63 2.294 . S
In52 O64 2.326 . S
O53 In52 2.294 . S
O53 C62 1.240 . S
O54 In52 2.326 . S
O54 C62 1.252 . S
C55 O58 1.252 . S
C55 O59 1.279 . S
C56 O63 1.240 . S
C56 O64 1.252 . S
C57 O60 1.252 . S
C57 O61 1.260 . S
O58 In52 2.266 1_655 S
O58 C55 1.252 . S
O59 In52 2.302 1_655 S
O59 C55 1.279 . S
O60 In52 2.266 . S
O60 C57 1.252 . S
O61 In52 2.326 . S
O61 C57 1.260 . S
C62 O53 1.240 . S
C62 O54 1.252 . S
O63 In52 2.294 . S
O63 C56 1.240 . S
O64 In52 2.326 . S
O64 C56 1.252 . S
In65 O66 2.294 . S
In65 O67 2.326 . S
In65 O71 2.266 . S
In65 O72 2.326 . S
In65 O73 2.266 1_545 S
In65 O74 2.302 1_545 S
In65 O76 2.294 . S
In65 O77 2.326 . S
O66 In65 2.294 . S
O66 C75 1.240 . S
O67 In65 2.326 . S
O67 C75 1.252 . S
C68 O71 1.252 . S
C68 O72 1.260 . S
C69 O76 1.240 . S
C69 O77 1.252 . S
C70 O73 1.252 . S
C70 O74 1.279 . S
O71 In65 2.266 . S
O71 C68 1.252 . S
O72 In65 2.326 . S
O72 C68 1.260 . S
O73 In65 2.266 1_565 S
O73 C70 1.252 . S
O74 In65 2.302 1_565 S
O74 C70 1.279 . S
C75 O66 1.240 . S
C75 O67 1.252 . S
O76 In65 2.294 . S
O76 C69 1.240 . S
O77 In65 2.326 . S
O77 C69 1.252 . S
In78 O79 2.294 . S
In78 O80 2.326 . S
In78 O84 2.266 . S
In78 O85 2.326 . S
In78 O86 2.266 1_655 S
In78 O87 2.302 1_655 S
In78 O89 2.294 . S
In78 O90 2.326 . S
O79 In78 2.294 . S
O79 C88 1.240 . S
O80 In78 2.326 . S
O80 C88 1.252 . S
C81 O84 1.252 . S
C81 O85 1.260 . S
C82 O89 1.240 . S
C82 O90 1.252 . S
C83 O86 1.252 . S
C83 O87 1.279 . S
O84 In78 2.266 . S
O84 C81 1.252 . S
O85 In78 2.326 . S
O85 C81 1.260 . S
O86 In78 2.266 1_455 S
O86 C83 1.252 . S
O87 In78 2.302 1_455 S
O87 C83 1.279 . S
C88 O79 1.240 . S
C88 O80 1.252 . S
O89 In78 2.294 . S
O89 C82 1.240 . S
O90 In78 2.326 . S
O90 C82 1.252 . S
In91 O92 2.294 . S
In91 O93 2.326 . S
In91 O97 2.266 . S
In91 O98 2.326 . S
In91 O99 2.266 1_565 S
In91 O100 2.302 1_565 S
In91 O102 2.294 . S
In91 O103 2.326 . S
O92 In91 2.294 . S
O92 C101 1.240 . S
O93 In91 2.326 . S
O93 C101 1.252 . S
C94 O97 1.252 . S
C94 O98 1.260 . S
C95 O102 1.240 . S
C95 O103 1.252 . S
C96 O99 1.252 . S
C96 O100 1.279 . S
O97 In91 2.266 . S
O97 C94 1.252 . S
O98 In91 2.326 . S
O98 C94 1.260 . S
O99 In91 2.266 1_545 S
O99 C96 1.252 . S
O100 In91 2.302 1_545 S
O100 C96 1.279 . S
C101 O92 1.240 . S
C101 O93 1.252 . S
O102 In91 2.294 . S
O102 C95 1.240 . S
O103 In91 2.326 . S
O103 C95 1.252 . S
In104 O105 2.294 . S
In104 O106 2.326 . S
In104 O110 2.266 1_545 S
In104 O111 2.302 1_545 S
In104 O112 2.266 . S
In104 O113 2.326 . S
In104 O115 2.294 . S
In104 O116 2.326 . S
O105 In104 2.294 . S
O105 C114 1.240 . S
O106 In104 2.326 . S
O106 C114 1.252 . S
C107 O110 1.252 . S
C107 O111 1.279 . S
C108 O115 1.240 . S
C108 O116 1.252 . S
C109 O112 1.252 . S
C109 O113 1.260 . S
O110 In104 2.266 1_565 S
O110 C107 1.252 . S
O111 In104 2.302 1_565 S
O111 C107 1.279 . S
O112 In104 2.266 . S
O112 C109 1.252 . S
O113 In104 2.326 . S
O113 C109 1.260 . S
C114 O105 1.240 . S
C114 O106 1.252 . S
O115 In104 2.294 . S
O115 C108 1.240 . S
O116 In104 2.326 . S
O116 C108 1.252 . S
In117 O118 2.294 . S
In117 O119 2.326 . S
In117 O123 2.266 . S
In117 O124 2.326 . S
In117 O125 2.266 1_655 S
In117 O126 2.302 1_655 S
In117 O128 2.294 . S
In117 O129 2.326 . S
O118 In117 2.294 . S
O118 C127 1.240 . S
O119 In117 2.326 . S
O119 C127 1.252 . S
C120 O123 1.252 . S
C120 O124 1.260 . S
C121 O128 1.240 . S
C121 O129 1.252 . S
C122 O125 1.252 . S
C122 O126 1.279 . S
O123 In117 2.266 . S
O123 C120 1.252 . S
O124 In117 2.326 . S
O124 C120 1.260 . S
O125 In117 2.266 1_455 S
O125 C122 1.252 . S
O126 In117 2.302 1_455 S
O126 C122 1.279 . S
C127 O118 1.240 . S
C127 O119 1.252 . S
O128 In117 2.294 . S
O128 C121 1.240 . S
O129 In117 2.326 . S
O129 C121 1.252 . S
In130 O131 2.294 . S
In130 O132 2.326 . S
In130 O136 2.266 1_565 S
In130 O137 2.302 1_565 S
In130 O138 2.266 . S
In130 O139 2.326 . S
In130 O141 2.294 . S
In130 O142 2.326 . S
O131 In130 2.294 . S
O131 C140 1.240 . S
O132 In130 2.326 . S
O132 C140 1.252 . S
C133 O136 1.252 . S
C133 O137 1.279 . S
C134 O141 1.240 . S
C134 O142 1.252 . S
C135 O138 1.252 . S
C135 O139 1.260 . S
O136 In130 2.266 1_545 S
O136 C133 1.252 . S
O137 In130 2.302 1_545 S
O137 C133 1.279 . S
O138 In130 2.266 . S
O138 C135 1.252 . S
O139 In130 2.326 . S
O139 C135 1.260 . S
C140 O131 1.240 . S
C140 O132 1.252 . S
O141 In130 2.294 . S
O141 C134 1.240 . S
O142 In130 2.326 . S
O142 C134 1.252 . S
In143 O144 2.294 . S
In143 O145 2.326 . S
In143 O149 2.266 . S
In143 O150 2.326 . S
In143 O151 2.266 1_455 S
In143 O152 2.302 1_455 S
In143 O154 2.294 . S
In143 O155 2.326 . S
O144 In143 2.294 . S
O144 C153 1.240 . S
O145 In143 2.326 . S
O145 C153 1.252 . S
C146 O149 1.252 . S
C146 O150 1.260 . S
C147 O154 1.240 . S
C147 O155 1.252 . S
C148 O151 1.252 . S
C148 O152 1.279 . S
O149 In143 2.266 . S
O149 C146 1.252 . S
O150 In143 2.326 . S
O150 C146 1.260 . S
O151 In143 2.266 1_655 S
O151 C148 1.252 . S
O152 In143 2.302 1_655 S
O152 C148 1.279 . S
C153 O144 1.240 . S
C153 O145 1.252 . S
O154 In143 2.294 . S
O154 C147 1.240 . S
O155 In143 2.326 . S
O155 C147 1.252 . S
In156 O157 2.294 . S
In156 O158 2.326 . S
In156 O162 2.266 . S
In156 O163 2.326 . S
In156 O164 2.266 1_565 S
In156 O165 2.302 1_565 S
In156 O167 2.294 . S
In156 O168 2.326 . S
O157 In156 2.294 . S
O157 C166 1.240 . S
O158 In156 2.326 . S
O158 C166 1.252 . S
C159 O162 1.252 . S
C159 O163 1.260 . S
C160 O167 1.240 . S
C160 O168 1.252 . S
C161 O164 1.252 . S
C161 O165 1.279 . S
O162 In156 2.266 . S
O162 C159 1.252 . S
O163 In156 2.326 . S
O163 C159 1.260 . S
O164 In156 2.266 1_545 S
O164 C161 1.252 . S
O165 In156 2.302 1_545 S
O165 C161 1.279 . S
C166 O157 1.240 . S
C166 O158 1.252 . S
O167 In156 2.294 . S
O167 C160 1.240 . S
O168 In156 2.326 . S
O168 C160 1.252 . S
In169 O170 2.294 . S
In169 O171 2.326 . S
In169 O175 2.266 1_455 S
In169 O176 2.302 1_455 S
In169 O177 2.266 . S
In169 O178 2.326 . S
In169 O180 2.294 . S
In169 O181 2.326 . S
O170 In169 2.294 . S
O170 C179 1.240 . S
O171 In169 2.326 . S
O171 C179 1.252 . S
C172 O175 1.252 . S
C172 O176 1.279 . S
C173 O180 1.240 . S
C173 O181 1.252 . S
C174 O177 1.252 . S
C174 O178 1.260 . S
O175 In169 2.266 1_655 S
O175 C172 1.252 . S
O176 In169 2.302 1_655 S
O176 C172 1.279 . S
O177 In169 2.266 . S
O177 C174 1.252 . S
O178 In169 2.326 . S
O178 C174 1.260 . S
C179 O170 1.240 . S
C179 O171 1.252 . S
O180 In169 2.294 . S
O180 C173 1.240 . S
O181 In169 2.326 . S
O181 C173 1.252 . S
In182 O183 2.294 . S
In182 O184 2.326 . S
In182 O188 2.266 1_545 S
In182 O189 2.302 1_545 S
In182 O190 2.266 . S
In182 O191 2.326 . S
In182 O193 2.294 . S
In182 O194 2.326 . S
O183 In182 2.294 . S
O183 C192 1.240 . S
O184 In182 2.326 . S
O184 C192 1.252 . S
C185 O188 1.252 . S
C185 O189 1.279 . S
C186 O193 1.240 . S
C186 O194 1.252 . S
C187 O190 1.252 . S
C187 O191 1.260 . S
O188 In182 2.266 1_565 S
O188 C185 1.252 . S
O189 In182 2.302 1_565 S
O189 C185 1.279 . S
O190 In182 2.266 . S
O190 C187 1.252 . S
O191 In182 2.326 . S
O191 C187 1.260 . S
C192 O183 1.240 . S
C192 O184 1.252 . S
O193 In182 2.294 . S
O193 C186 1.240 . S
O194 In182 2.326 . S
O194 C186 1.252 . S
In195 O196 2.294 . S
In195 O197 2.326 . S
In195 O201 2.266 . S
In195 O202 2.326 . S
In195 O203 2.266 1_655 S
In195 O204 2.302 1_655 S
In195 O206 2.294 . S
In195 O207 2.326 . S
O196 In195 2.294 . S
O196 C205 1.240 . S
O197 In195 2.326 . S
O197 C205 1.252 . S
C198 O201 1.252 . S
C198 O202 1.260 . S
C199 O206 1.240 . S
C199 O207 1.252 . S
C200 O203 1.252 . S
C200 O204 1.279 . S
O201 In195 2.266 . S
O201 C198 1.252 . S
O202 In195 2.326 . S
O202 C198 1.260 . S
O203 In195 2.266 1_455 S
O203 C200 1.252 . S
O204 In195 2.302 1_455 S
O204 C200 1.279 . S
C205 O196 1.240 . S
C205 O197 1.252 . S
O206 In195 2.294 . S
O206 C199 1.240 . S
O207 In195 2.326 . S
O207 C199 1.252 . S
In208 O209 2.294 . S
In208 O210 2.326 . S
In208 O214 2.266 . S
In208 O215 2.326 . S
In208 O216 2.266 1_554 S
In208 O217 2.302 1_554 S
In208 O219 2.294 . S
In208 O220 2.326 . S
O209 In208 2.294 . S
O209 C218 1.240 . S
O210 In208 2.326 . S
O210 C218 1.252 . S
C211 O214 1.252 . S
C211 O215 1.260 . S
C212 O219 1.240 . S
C212 O220 1.252 . S
C213 O216 1.252 . S
C213 O217 1.279 . S
O214 In208 2.266 . S
O214 C211 1.252 . S
O215 In208 2.326 . S
O215 C211 1.260 . S
O216 In208 2.266 1_556 S
O216 C213 1.252 . S
O217 In208 2.302 1_556 S
O217 C213 1.279 . S
C218 O209 1.240 . S
C218 O210 1.252 . S
O219 In208 2.294 . S
O219 C212 1.240 . S
O220 In208 2.326 . S
O220 C212 1.252 . S
In221 O222 2.294 . S
In221 O223 2.326 . S
In221 O227 2.266 . S
In221 O228 2.326 . S
In221 O229 2.266 1_556 S
In221 O230 2.302 1_556 S
In221 O232 2.294 . S
In221 O233 2.326 . S
O222 In221 2.294 . S
O222 C231 1.240 . S
O223 In221 2.326 . S
O223 C231 1.252 . S
C224 O227 1.252 . S
C224 O228 1.260 . S
C225 O232 1.240 . S
C225 O233 1.252 . S
C226 O229 1.252 . S
C226 O230 1.279 . S
O227 In221 2.266 . S
O227 C224 1.252 . S
O228 In221 2.326 . S
O228 C224 1.260 . S
O229 In221 2.266 1_554 S
O229 C226 1.252 . S
O230 In221 2.302 1_554 S
O230 C226 1.279 . S
C231 O222 1.240 . S
C231 O223 1.252 . S
O232 In221 2.294 . S
O232 C225 1.240 . S
O233 In221 2.326 . S
O233 C225 1.252 . S
In234 O235 2.294 . S
In234 O236 2.326 . S
In234 O240 2.266 . S
In234 O241 2.326 . S
In234 O242 2.266 1_556 S
In234 O243 2.302 1_556 S
In234 O245 2.294 . S
In234 O246 2.326 . S
O235 In234 2.294 . S
O235 C244 1.240 . S
O236 In234 2.326 . S
O236 C244 1.252 . S
C237 O240 1.252 . S
C237 O241 1.260 . S
C238 O245 1.240 . S
C238 O246 1.252 . S
C239 O242 1.252 . S
C239 O243 1.279 . S
O240 In234 2.266 . S
O240 C237 1.252 . S
O241 In234 2.326 . S
O241 C237 1.260 . S
O242 In234 2.266 1_554 S
O242 C239 1.252 . S
O243 In234 2.302 1_554 S
O243 C239 1.279 . S
C244 O235 1.240 . S
C244 O236 1.252 . S
O245 In234 2.294 . S
O245 C238 1.240 . S
O246 In234 2.326 . S
O246 C238 1.252 . S
In247 O248 2.294 . S
In247 O249 2.326 . S
In247 O253 2.266 1_556 S
In247 O254 2.302 1_556 S
In247 O255 2.266 . S
In247 O256 2.326 . S
In247 O258 2.294 . S
In247 O259 2.326 . S
O248 In247 2.294 . S
O248 C257 1.240 . S
O249 In247 2.326 . S
O249 C257 1.252 . S
C250 O253 1.252 . S
C250 O254 1.279 . S
C251 O258 1.240 . S
C251 O259 1.252 . S
C252 O255 1.252 . S
C252 O256 1.260 . S
O253 In247 2.266 1_554 S
O253 C250 1.252 . S
O254 In247 2.302 1_554 S
O254 C250 1.279 . S
O255 In247 2.266 . S
O255 C252 1.252 . S
O256 In247 2.326 . S
O256 C252 1.260 . S
C257 O248 1.240 . S
C257 O249 1.252 . S
O258 In247 2.294 . S
O258 C251 1.240 . S
O259 In247 2.326 . S
O259 C251 1.252 . S
In260 O261 2.294 . S
In260 O262 2.326 . S
In260 O266 2.266 1_556 S
In260 O267 2.302 1_556 S
In260 O268 2.266 . S
In260 O269 2.326 . S
In260 O271 2.294 . S
In260 O272 2.326 . S
O261 In260 2.294 . S
O261 C270 1.240 . S
O262 In260 2.326 . S
O262 C270 1.252 . S
C263 O266 1.252 . S
C263 O267 1.279 . S
C264 O271 1.240 . S
C264 O272 1.252 . S
C265 O268 1.252 . S
C265 O269 1.260 . S
O266 In260 2.266 1_554 S
O266 C263 1.252 . S
O267 In260 2.302 1_554 S
O267 C263 1.279 . S
O268 In260 2.266 . S
O268 C265 1.252 . S
O269 In260 2.326 . S
O269 C265 1.260 . S
C270 O261 1.240 . S
C270 O262 1.252 . S
O271 In260 2.294 . S
O271 C264 1.240 . S
O272 In260 2.326 . S
O272 C264 1.252 . S
In273 O274 2.294 . S
In273 O275 2.326 . S
In273 O279 2.266 . S
In273 O280 2.326 . S
In273 O281 2.266 1_554 S
In273 O282 2.302 1_554 S
In273 O284 2.294 . S
In273 O285 2.326 . S
O274 In273 2.294 . S
O274 C283 1.240 . S
O275 In273 2.326 . S
O275 C283 1.252 . S
C276 O279 1.252 . S
C276 O280 1.260 . S
C277 O284 1.240 . S
C277 O285 1.252 . S
C278 O281 1.252 . S
C278 O282 1.279 . S
O279 In273 2.266 . S
O279 C276 1.252 . S
O280 In273 2.326 . S
O280 C276 1.260 . S
O281 In273 2.266 1_556 S
O281 C278 1.252 . S
O282 In273 2.302 1_556 S
O282 C278 1.279 . S
C283 O274 1.240 . S
C283 O275 1.252 . S
O284 In273 2.294 . S
O284 C277 1.240 . S
O285 In273 2.326 . S
O285 C277 1.252 . S
In286 O287 2.294 . S
In286 O288 2.326 . S
In286 O292 2.266 1_554 S
In286 O293 2.302 1_554 S
In286 O294 2.266 . S
In286 O295 2.326 . S
In286 O297 2.294 . S
In286 O298 2.326 . S
O287 In286 2.294 . S
O287 C296 1.240 . S
O288 In286 2.326 . S
O288 C296 1.252 . S
C289 O292 1.252 . S
C289 O293 1.279 . S
C290 O297 1.240 . S
C290 O298 1.252 . S
C291 O294 1.252 . S
C291 O295 1.260 . S
O292 In286 2.266 1_556 S
O292 C289 1.252 . S
O293 In286 2.302 1_556 S
O293 C289 1.279 . S
O294 In286 2.266 . S
O294 C291 1.252 . S
O295 In286 2.326 . S
O295 C291 1.260 . S
C296 O287 1.240 . S
C296 O288 1.252 . S
O297 In286 2.294 . S
O297 C290 1.240 . S
O298 In286 2.326 . S
O298 C290 1.252 . S
In299 O300 2.294 . S
In299 O301 2.326 . S
In299 O305 2.266 . S
In299 O306 2.326 . S
In299 O307 2.266 1_554 S
In299 O308 2.302 1_554 S
In299 O310 2.294 . S
In299 O311 2.326 . S
O300 In299 2.294 . S
O300 C309 1.240 . S
O301 In299 2.326 . S
O301 C309 1.252 . S
C302 O305 1.252 . S
C302 O306 1.260 . S
C303 O310 1.240 . S
C303 O311 1.252 . S
C304 O307 1.252 . S
C304 O308 1.279 . S
O305 In299 2.266 . S
O305 C302 1.252 . S
O306 In299 2.326 . S
O306 C302 1.260 . S
O307 In299 2.266 1_556 S
O307 C304 1.252 . S
O308 In299 2.302 1_556 S
O308 C304 1.279 . S
C309 O300 1.240 . S
C309 O301 1.252 . S
O310 In299 2.294 . S
O310 C303 1.240 . S
O311 In299 2.326 . S
O311 C303 1.252 . S
In312 O313 2.294 . S
In312 O314 2.326 . S
In312 O318 2.266 . S
In312 O319 2.326 . S
In312 O320 2.266 . S
In312 O321 2.326 . S
In312 O323 2.294 . S
In312 O324 2.326 . S
O313 In312 2.294 . S
O313 C322 1.240 . S
O314 In312 2.326 . S
O314 C322 1.252 . S
C315 O318 1.252 . S
C315 O319 1.260 . S
C316 O323 1.240 . S
C316 O324 1.252 . S
C317 O320 1.252 . S
C317 O321 1.260 . S
O318 In312 2.266 . S
O318 C315 1.252 . S
O319 In312 2.326 . S
O319 C315 1.260 . S
O320 In312 2.266 . S
O320 C317 1.252 . S
O321 In312 2.326 . S
O321 C317 1.260 . S
C322 O313 1.240 . S
C322 O314 1.252 . S
O323 In312 2.294 . S
O323 C316 1.240 . S
O324 In312 2.326 . S
O324 C316 1.252 . S
In325 O326 2.294 . S
In325 O327 2.326 . S
In325 O331 2.266 . S
In325 O332 2.326 . S
In325 O333 2.266 . S
In325 O334 2.326 . S
In325 O336 2.294 . S
In325 O337 2.326 . S
O326 In325 2.294 . S
O326 C335 1.240 . S
O327 In325 2.326 . S
O327 C335 1.252 . S
C328 O331 1.252 . S
C328 O332 1.260 . S
C329 O336 1.240 . S
C329 O337 1.252 . S
C330 O333 1.252 . S
C330 O334 1.260 . S
O331 In325 2.266 . S
O331 C328 1.252 . S
O332 In325 2.326 . S
O332 C328 1.260 . S
O333 In325 2.266 . S
O333 C330 1.252 . S
O334 In325 2.326 . S
O334 C330 1.260 . S
C335 O326 1.240 . S
C335 O327 1.252 . S
O336 In325 2.294 . S
O336 C329 1.240 . S
O337 In325 2.326 . S
O337 C329 1.252 . S
In338 O339 2.294 . S
In338 O340 2.326 . S
In338 O344 2.266 . S
In338 O345 2.326 . S
In338 O346 2.266 . S
In338 O347 2.326 . S
In338 O349 2.294 . S
In338 O350 2.326 . S
O339 In338 2.294 . S
O339 C348 1.240 . S
O340 In338 2.326 . S
O340 C348 1.252 . S
C341 O344 1.252 . S
C341 O345 1.260 . S
C342 O349 1.240 . S
C342 O350 1.252 . S
C343 O346 1.252 . S
C343 O347 1.260 . S
O344 In338 2.266 . S
O344 C341 1.252 . S
O345 In338 2.326 . S
O345 C341 1.260 . S
O346 In338 2.266 . S
O346 C343 1.252 . S
O347 In338 2.326 . S
O347 C343 1.260 . S
C348 O339 1.240 . S
C348 O340 1.252 . S
O349 In338 2.294 . S
O349 C342 1.240 . S
O350 In338 2.326 . S
O350 C342 1.252 . S
In351 O352 2.294 . S
In351 O353 2.326 . S
In351 O357 2.266 . S
In351 O358 2.326 . S
In351 O359 2.266 . S
In351 O360 2.326 . S
In351 O362 2.294 . S
In351 O363 2.326 . S
O352 In351 2.294 . S
O352 C361 1.240 . S
O353 In351 2.326 . S
O353 C361 1.252 . S
C354 O357 1.252 . S
C354 O358 1.260 . S
C355 O362 1.240 . S
C355 O363 1.252 . S
C356 O359 1.252 . S
C356 O360 1.260 . S
O357 In351 2.266 . S
O357 C354 1.252 . S
O358 In351 2.326 . S
O358 C354 1.260 . S
O359 In351 2.266 . S
O359 C356 1.252 . S
O360 In351 2.326 . S
O360 C356 1.260 . S
C361 O352 1.240 . S
C361 O353 1.252 . S
O362 In351 2.294 . S
O362 C355 1.240 . S
O363 In351 2.326 . S
O363 C355 1.252 . S
In364 O365 2.294 . S
In364 O366 2.326 . S
In364 O370 2.266 . S
In364 O371 2.326 . S
In364 O372 2.266 . S
In364 O373 2.326 . S
In364 O375 2.294 . S
In364 O376 2.326 . S
O365 In364 2.294 . S
O365 C374 1.240 . S
O366 In364 2.326 . S
O366 C374 1.252 . S
C367 O370 1.252 . S
C367 O371 1.260 . S
C368 O375 1.240 . S
C368 O376 1.252 . S
C369 O372 1.252 . S
C369 O373 1.260 . S
O370 In364 2.266 . S
O370 C367 1.252 . S
O371 In364 2.326 . S
O371 C367 1.260 . S
O372 In364 2.266 . S
O372 C369 1.252 . S
O373 In364 2.326 . S
O373 C369 1.260 . S
C374 O365 1.240 . S
C374 O366 1.252 . S
O375 In364 2.294 . S
O375 C368 1.240 . S
O376 In364 2.326 . S
O376 C368 1.252 . S
In377 O378 2.294 . S
In377 O379 2.326 . S
In377 O383 2.266 . S
In377 O384 2.326 . S
In377 O385 2.266 . S
In377 O386 2.326 . S
In377 O388 2.294 . S
In377 O389 2.326 . S
O378 In377 2.294 . S
O378 C387 1.240 . S
O379 In377 2.326 . S
O379 C387 1.252 . S
C380 O383 1.252 . S
C380 O384 1.260 . S
C381 O388 1.240 . S
C381 O389 1.252 . S
C382 O385 1.252 . S
C382 O386 1.260 . S
O383 In377 2.266 . S
O383 C380 1.252 . S
O384 In377 2.326 . S
O384 C380 1.260 . S
O385 In377 2.266 . S
O385 C382 1.252 . S
O386 In377 2.326 . S
O386 C382 1.260 . S
C387 O378 1.240 . S
C387 O379 1.252 . S
O388 In377 2.294 . S
O388 C381 1.240 . S
O389 In377 2.326 . S
O389 C381 1.252 . S
In390 O391 2.294 . S
In390 O392 2.326 . S
In390 O396 2.266 . S
In390 O397 2.326 . S
In390 O398 2.266 . S
In390 O399 2.326 . S
In390 O401 2.294 . S
In390 O402 2.326 . S
O391 In390 2.294 . S
O391 C400 1.240 . S
O392 In390 2.326 . S
O392 C400 1.252 . S
C393 O396 1.252 . S
C393 O397 1.260 . S
C394 O401 1.240 . S
C394 O402 1.252 . S
C395 O398 1.252 . S
C395 O399 1.260 . S
O396 In390 2.266 . S
O396 C393 1.252 . S
O397 In390 2.326 . S
O397 C393 1.260 . S
O398 In390 2.266 . S
O398 C395 1.252 . S
O399 In390 2.326 . S
O399 C395 1.260 . S
C400 O391 1.240 . S
C400 O392 1.252 . S
O401 In390 2.294 . S
O401 C394 1.240 . S
O402 In390 2.326 . S
O402 C394 1.252 . S
In403 O404 2.294 . S
In403 O405 2.326 . S
In403 O409 2.266 . S
In403 O410 2.326 . S
In403 O411 2.266 . S
In403 O412 2.326 . S
In403 O414 2.294 . S
In403 O415 2.326 . S
O404 In403 2.294 . S
O404 C413 1.240 . S
O405 In403 2.326 . S
O405 C413 1.252 . S
C406 O409 1.252 . S
C406 O410 1.260 . S
C407 O414 1.240 . S
C407 O415 1.252 . S
C408 O411 1.252 . S
C408 O412 1.260 . S
O409 In403 2.266 . S
O409 C406 1.252 . S
O410 In403 2.326 . S
O410 C406 1.260 . S
O411 In403 2.266 . S
O411 C408 1.252 . S
O412 In403 2.326 . S
O412 C408 1.260 . S
C413 O404 1.240 . S
C413 O405 1.252 . S
O414 In403 2.294 . S
O414 C407 1.240 . S
O415 In403 2.326 . S
O415 C407 1.252 . S
In416 O417 2.294 . S
In416 O418 2.326 . S
In416 O422 2.266 . S
In416 O423 2.326 . S
In416 O424 2.266 . S
In416 O425 2.326 . S
In416 O427 2.294 . S
In416 O428 2.326 . S
O417 In416 2.294 . S
O417 C426 1.240 . S
O418 In416 2.326 . S
O418 C426 1.252 . S
C419 O422 1.252 . S
C419 O423 1.260 . S
C420 O427 1.240 . S
C420 O428 1.252 . S
C421 O424 1.252 . S
C421 O425 1.260 . S
O422 In416 2.266 . S
O422 C419 1.252 . S
O423 In416 2.326 . S
O423 C419 1.260 . S
O424 In416 2.266 . S
O424 C421 1.252 . S
O425 In416 2.326 . S
O425 C421 1.260 . S
C426 O417 1.240 . S
C426 O418 1.252 . S
O427 In416 2.294 . S
O427 C420 1.240 . S
O428 In416 2.326 . S
O428 C420 1.252 . S
In429 O430 2.294 . S
In429 O431 2.326 . S
In429 O435 2.266 . S
In429 O436 2.326 . S
In429 O437 2.266 . S
In429 O438 2.326 . S
In429 O440 2.294 . S
In429 O441 2.326 . S
O430 In429 2.294 . S
O430 C439 1.240 . S
O431 In429 2.326 . S
O431 C439 1.252 . S
C432 O435 1.252 . S
C432 O436 1.260 . S
C433 O440 1.240 . S
C433 O441 1.252 . S
C434 O437 1.252 . S
C434 O438 1.260 . S
O435 In429 2.266 . S
O435 C432 1.252 . S
O436 In429 2.326 . S
O436 C432 1.260 . S
O437 In429 2.266 . S
O437 C434 1.252 . S
O438 In429 2.326 . S
O438 C434 1.260 . S
C439 O430 1.240 . S
C439 O431 1.252 . S
O440 In429 2.294 . S
O440 C433 1.240 . S
O441 In429 2.326 . S
O441 C433 1.252 . S
In442 O443 2.294 . S
In442 O444 2.326 . S
In442 O448 2.266 . S
In442 O449 2.326 . S
In442 O450 2.266 . S
In442 O451 2.326 . S
In442 O453 2.294 . S
In442 O454 2.326 . S
O443 In442 2.294 . S
O443 C452 1.240 . S
O444 In442 2.326 . S
O444 C452 1.252 . S
C445 O448 1.252 . S
C445 O449 1.260 . S
C446 O453 1.240 . S
C446 O454 1.252 . S
C447 O450 1.252 . S
C447 O451 1.260 . S
O448 In442 2.266 . S
O448 C445 1.252 . S
O449 In442 2.326 . S
O449 C445 1.260 . S
O450 In442 2.266 . S
O450 C447 1.252 . S
O451 In442 2.326 . S
O451 C447 1.260 . S
C452 O443 1.240 . S
C452 O444 1.252 . S
O453 In442 2.294 . S
O453 C446 1.240 . S
O454 In442 2.326 . S
O454 C446 1.252 . S
In455 O456 2.294 . S
In455 O457 2.326 . S
In455 O461 2.266 . S
In455 O462 2.326 . S
In455 O463 2.266 . S
In455 O464 2.326 . S
In455 O466 2.294 . S
In455 O467 2.326 . S
O456 In455 2.294 . S
O456 C465 1.240 . S
O457 In455 2.326 . S
O457 C465 1.252 . S
C458 O461 1.252 . S
C458 O462 1.260 . S
C459 O466 1.240 . S
C459 O467 1.252 . S
C460 O463 1.252 . S
C460 O464 1.260 . S
O461 In455 2.266 . S
O461 C458 1.252 . S
O462 In455 2.326 . S
O462 C458 1.260 . S
O463 In455 2.266 . S
O463 C460 1.252 . S
O464 In455 2.326 . S
O464 C460 1.260 . S
C465 O456 1.240 . S
C465 O457 1.252 . S
O466 In455 2.294 . S
O466 C459 1.240 . S
O467 In455 2.326 . S
O467 C459 1.252 . S
In468 O469 2.294 . S
In468 O470 2.326 . S
In468 O474 2.266 . S
In468 O475 2.326 . S
In468 O476 2.266 . S
In468 O477 2.326 . S
In468 O479 2.294 . S
In468 O480 2.326 . S
O469 In468 2.294 . S
O469 C478 1.240 . S
O470 In468 2.326 . S
O470 C478 1.252 . S
C471 O474 1.252 . S
C471 O475 1.260 . S
C472 O479 1.240 . S
C472 O480 1.252 . S
C473 O476 1.252 . S
C473 O477 1.260 . S
O474 In468 2.266 . S
O474 C471 1.252 . S
O475 In468 2.326 . S
O475 C471 1.260 . S
O476 In468 2.266 . S
O476 C473 1.252 . S
O477 In468 2.326 . S
O477 C473 1.260 . S
C478 O469 1.240 . S
C478 O470 1.252 . S
O479 In468 2.294 . S
O479 C472 1.240 . S
O480 In468 2.326 . S
O480 C472 1.252 . S
In481 O482 2.294 . S
In481 O483 2.326 . S
In481 O487 2.266 . S
In481 O488 2.326 . S
In481 O489 2.266 . S
In481 O490 2.326 . S
In481 O492 2.294 . S
In481 O493 2.326 . S
O482 In481 2.294 . S
O482 C491 1.240 . S
O483 In481 2.326 . S
O483 C491 1.252 . S
C484 O487 1.252 . S
C484 O488 1.260 . S
C485 O492 1.240 . S
C485 O493 1.252 . S
C486 O489 1.252 . S
C486 O490 1.260 . S
O487 In481 2.266 . S
O487 C484 1.252 . S
O488 In481 2.326 . S
O488 C484 1.260 . S
O489 In481 2.266 . S
O489 C486 1.252 . S
O490 In481 2.326 . S
O490 C486 1.260 . S
C491 O482 1.240 . S
C491 O483 1.252 . S
O492 In481 2.294 . S
O492 C485 1.240 . S
O493 In481 2.326 . S
O493 C485 1.252 . S
In494 O495 2.294 . S
In494 O496 2.326 . S
In494 O500 2.266 . S
In494 O501 2.326 . S
In494 O502 2.266 . S
In494 O503 2.326 . S
In494 O505 2.294 . S
In494 O506 2.326 . S
O495 In494 2.294 . S
O495 C504 1.240 . S
O496 In494 2.326 . S
O496 C504 1.252 . S
C497 O500 1.252 . S
C497 O501 1.260 . S
C498 O505 1.240 . S
C498 O506 1.252 . S
C499 O502 1.252 . S
C499 O503 1.260 . S
O500 In494 2.266 . S
O500 C497 1.252 . S
O501 In494 2.326 . S
O501 C497 1.260 . S
O502 In494 2.266 . S
O502 C499 1.252 . S
O503 In494 2.326 . S
O503 C499 1.260 . S
C504 O495 1.240 . S
C504 O496 1.252 . S
O505 In494 2.294 . S
O505 C498 1.240 . S
O506 In494 2.326 . S
O506 C498 1.252 . S
In507 O508 2.294 . S
In507 O509 2.326 . S
In507 O513 2.266 . S
In507 O514 2.326 . S
In507 O515 2.266 . S
In507 O516 2.326 . S
In507 O518 2.294 . S
In507 O519 2.326 . S
O508 In507 2.294 . S
O508 C517 1.240 . S
O509 In507 2.326 . S
O509 C517 1.252 . S
C510 O513 1.252 . S
C510 O514 1.260 . S
C511 O518 1.240 . S
C511 O519 1.252 . S
C512 O515 1.252 . S
C512 O516 1.260 . S
O513 In507 2.266 . S
O513 C510 1.252 . S
O514 In507 2.326 . S
O514 C510 1.260 . S
O515 In507 2.266 . S
O515 C512 1.252 . S
O516 In507 2.326 . S
O516 C512 1.260 . S
C517 O508 1.240 . S
C517 O509 1.252 . S
O518 In507 2.294 . S
O518 C511 1.240 . S
O519 In507 2.326 . S
O519 C511 1.252 . S
In520 O521 2.294 . S
In520 O522 2.326 . S
In520 O526 2.266 . S
In520 O527 2.326 . S
In520 O528 2.266 . S
In520 O529 2.326 . S
In520 O531 2.294 . S
In520 O532 2.326 . S
O521 In520 2.294 . S
O521 C530 1.240 . S
O522 In520 2.326 . S
O522 C530 1.252 . S
C523 O526 1.252 . S
C523 O527 1.260 . S
C524 O531 1.240 . S
C524 O532 1.252 . S
C525 O528 1.252 . S
C525 O529 1.260 . S
O526 In520 2.266 . S
O526 C523 1.252 . S
O527 In520 2.326 . S
O527 C523 1.260 . S
O528 In520 2.266 . S
O528 C525 1.252 . S
O529 In520 2.326 . S
O529 C525 1.260 . S
C530 O521 1.240 . S
C530 O522 1.252 . S
O531 In520 2.294 . S
O531 C524 1.240 . S
O532 In520 2.326 . S
O532 C524 1.252 . S
In533 O534 2.294 . S
In533 O535 2.326 . S
In533 O539 2.266 . S
In533 O540 2.326 . S
In533 O541 2.266 . S
In533 O542 2.326 . S
In533 O544 2.294 . S
In533 O545 2.326 . S
O534 In533 2.294 . S
O534 C543 1.240 . S
O535 In533 2.326 . S
O535 C543 1.252 . S
C536 O539 1.252 . S
C536 O540 1.260 . S
C537 O544 1.240 . S
C537 O545 1.252 . S
C538 O541 1.252 . S
C538 O542 1.260 . S
O539 In533 2.266 . S
O539 C536 1.252 . S
O540 In533 2.326 . S
O540 C536 1.260 . S
O541 In533 2.266 . S
O541 C538 1.252 . S
O542 In533 2.326 . S
O542 C538 1.260 . S
C543 O534 1.240 . S
C543 O535 1.252 . S
O544 In533 2.294 . S
O544 C537 1.240 . S
O545 In533 2.326 . S
O545 C537 1.252 . S
In546 O547 2.294 . S
In546 O548 2.326 . S
In546 O552 2.266 . S
In546 O553 2.326 . S
In546 O554 2.266 . S
In546 O555 2.326 . S
In546 O557 2.294 . S
In546 O558 2.326 . S
O547 In546 2.294 . S
O547 C556 1.240 . S
O548 In546 2.326 . S
O548 C556 1.252 . S
C549 O552 1.252 . S
C549 O553 1.260 . S
C550 O557 1.240 . S
C550 O558 1.252 . S
C551 O554 1.252 . S
C551 O555 1.260 . S
O552 In546 2.266 . S
O552 C549 1.252 . S
O553 In546 2.326 . S
O553 C549 1.260 . S
O554 In546 2.266 . S
O554 C551 1.252 . S
O555 In546 2.326 . S
O555 C551 1.260 . S
C556 O547 1.240 . S
C556 O548 1.252 . S
O557 In546 2.294 . S
O557 C550 1.240 . S
O558 In546 2.326 . S
O558 C550 1.252 . S
In559 O560 2.294 . S
In559 O561 2.326 . S
In559 O565 2.266 . S
In559 O566 2.326 . S
In559 O567 2.266 . S
In559 O568 2.326 . S
In559 O570 2.294 . S
In559 O571 2.326 . S
O560 In559 2.294 . S
O560 C569 1.240 . S
O561 In559 2.326 . S
O561 C569 1.252 . S
C562 O565 1.252 . S
C562 O566 1.260 . S
C563 O570 1.240 . S
C563 O571 1.252 . S
C564 O567 1.252 . S
C564 O568 1.260 . S
O565 In559 2.266 . S
O565 C562 1.252 . S
O566 In559 2.326 . S
O566 C562 1.260 . S
O567 In559 2.266 . S
O567 C564 1.252 . S
O568 In559 2.326 . S
O568 C564 1.260 . S
C569 O560 1.240 . S
C569 O561 1.252 . S
O570 In559 2.294 . S
O570 C563 1.240 . S
O571 In559 2.326 . S
O571 C563 1.252 . S
In572 O573 2.294 . S
In572 O574 2.326 . S
In572 O578 2.266 . S
In572 O579 2.326 . S
In572 O580 2.266 . S
In572 O581 2.326 . S
In572 O583 2.294 . S
In572 O584 2.326 . S
O573 In572 2.294 . S
O573 C582 1.240 . S
O574 In572 2.326 . S
O574 C582 1.252 . S
C575 O578 1.252 . S
C575 O579 1.260 . S
C576 O583 1.240 . S
C576 O584 1.252 . S
C577 O580 1.252 . S
C577 O581 1.260 . S
O578 In572 2.266 . S
O578 C575 1.252 . S
O579 In572 2.326 . S
O579 C575 1.260 . S
O580 In572 2.266 . S
O580 C577 1.252 . S
O581 In572 2.326 . S
O581 C577 1.260 . S
C582 O573 1.240 . S
C582 O574 1.252 . S
O583 In572 2.294 . S
O583 C576 1.240 . S
O584 In572 2.326 . S
O584 C576 1.252 . S
In585 O586 2.294 . S
In585 O587 2.326 . S
In585 O591 2.266 . S
In585 O592 2.326 . S
In585 O593 2.266 . S
In585 O594 2.326 . S
In585 O596 2.294 . S
In585 O597 2.326 . S
O586 In585 2.294 . S
O586 C595 1.240 . S
O587 In585 2.326 . S
O587 C595 1.252 . S
C588 O591 1.252 . S
C588 O592 1.260 . S
C589 O596 1.240 . S
C589 O597 1.252 . S
C590 O593 1.252 . S
C590 O594 1.260 . S
O591 In585 2.266 . S
O591 C588 1.252 . S
O592 In585 2.326 . S
O592 C588 1.260 . S
O593 In585 2.266 . S
O593 C590 1.252 . S
O594 In585 2.326 . S
O594 C590 1.260 . S
C595 O586 1.240 . S
C595 O587 1.252 . S
O596 In585 2.294 . S
O596 C589 1.240 . S
O597 In585 2.326 . S
O597 C589 1.252 . S
In598 O599 2.294 . S
In598 O600 2.326 . S
In598 O604 2.266 . S
In598 O605 2.326 . S
In598 O606 2.266 . S
In598 O607 2.326 . S
In598 O609 2.294 . S
In598 O610 2.326 . S
O599 In598 2.294 . S
O599 C608 1.240 . S
O600 In598 2.326 . S
O600 C608 1.252 . S
C601 O604 1.252 . S
C601 O605 1.260 . S
C602 O609 1.240 . S
C602 O610 1.252 . S
C603 O606 1.252 . S
C603 O607 1.260 . S
O604 In598 2.266 . S
O604 C601 1.252 . S
O605 In598 2.326 . S
O605 C601 1.260 . S
O606 In598 2.266 . S
O606 C603 1.252 . S
O607 In598 2.326 . S
O607 C603 1.260 . S
C608 O599 1.240 . S
C608 O600 1.252 . S
O609 In598 2.294 . S
O609 C602 1.240 . S
O610 In598 2.326 . S
O610 C602 1.252 . S
In611 O612 2.294 . S
In611 O613 2.326 . S
In611 O617 2.266 . S
In611 O618 2.326 . S
In611 O619 2.266 . S
In611 O620 2.326 . S
In611 O622 2.294 . S
In611 O623 2.326 . S
O612 In611 2.294 . S
O612 C621 1.240 . S
O613 In611 2.326 . S
O613 C621 1.252 . S
C614 O617 1.252 . S
C614 O618 1.260 . S
C615 O622 1.240 . S
C615 O623 1.252 . S
C616 O619 1.252 . S
C616 O620 1.260 . S
O617 In611 2.266 . S
O617 C614 1.252 . S
O618 In611 2.326 . S
O618 C614 1.260 . S
O619 In611 2.266 . S
O619 C616 1.252 . S
O620 In611 2.326 . S
O620 C616 1.260 . S
C621 O612 1.240 . S
C621 O613 1.252 . S
O622 In611 2.294 . S
O622 C615 1.240 . S
O623 In611 2.326 . S
O623 C615 1.252 . S
H624 C630 0.930 . S
H625 C633 0.930 . S
H626 C634 0.930 . S
H627 C635 0.930 . S
H628 C638 0.930 . S
H629 C639 0.930 . S
C630 H624 0.930 . S
C630 C631 1.355 . S
C630 C632 1.415 . S
C631 C630 1.355 . S
C631 C633 1.419 . S
C632 C630 1.415 . S
C632 C637 1.425 . S
C632 C639 1.409 . S
C633 H625 0.930 . S
C633 C631 1.419 . S
C633 C634 1.362 . S
C634 H626 0.930 . S
C634 C633 1.362 . S
C634 C637 1.409 . S
C635 H627 0.930 . S
C635 C636 1.355 . S
C635 C637 1.415 . S
C636 C635 1.355 . S
C636 C638 1.419 . S
C637 C632 1.425 . S
C637 C634 1.409 . S
C637 C635 1.415 . S
C638 H628 0.930 . S
C638 C636 1.419 . S
C638 C639 1.362 . S
C639 H629 0.930 . S
C639 C632 1.409 . S
C639 C638 1.362 . S
H640 C646 0.930 . S
H641 C649 0.930 . S
H642 C650 0.930 . S
H643 C651 0.930 . S
H644 C654 0.930 . S
H645 C655 0.930 . S
C646 H640 0.930 . S
C646 C647 1.355 . S
C646 C648 1.415 . S
C647 C646 1.355 . S
C647 C649 1.419 . S
C648 C646 1.415 . S
C648 C653 1.425 . S
C648 C655 1.409 . S
C649 H641 0.930 . S
C649 C647 1.419 . S
C649 C650 1.362 . S
C650 H642 0.930 . S
C650 C649 1.362 . S
C650 C653 1.409 . S
C651 H643 0.930 . S
C651 C652 1.355 . S
C651 C653 1.415 . S
C652 C651 1.355 . S
C652 C654 1.419 . S
C653 C648 1.425 . S
C653 C650 1.409 . S
C653 C651 1.415 . S
C654 H644 0.930 . S
C654 C652 1.419 . S
C654 C655 1.362 . S
C655 H645 0.930 . S
C655 C648 1.409 . S
C655 C654 1.362 . S
H656 C662 0.930 . S
H657 C665 0.930 . S
H658 C666 0.930 . S
H659 C667 0.930 . S
H660 C670 0.930 . S
H661 C671 0.930 . S
C662 H656 0.930 . S
C662 C663 1.355 . S
C662 C664 1.415 . S
C663 C662 1.355 . S
C663 C665 1.419 . S
C664 C662 1.415 . S
C664 C669 1.425 . S
C664 C671 1.409 . S
C665 H657 0.930 . S
C665 C663 1.419 . S
C665 C666 1.362 . S
C666 H658 0.930 . S
C666 C665 1.362 . S
C666 C669 1.409 . S
C667 H659 0.930 . S
C667 C668 1.355 . S
C667 C669 1.415 . S
C668 C667 1.355 . S
C668 C670 1.419 . S
C669 C664 1.425 . S
C669 C666 1.409 . S
C669 C667 1.415 . S
C670 H660 0.930 . S
C670 C668 1.419 . S
C670 C671 1.362 . S
C671 H661 0.930 . S
C671 C664 1.409 . S
C671 C670 1.362 . S
H672 C678 0.930 . S
H673 C681 0.930 . S
H674 C682 0.930 . S
H675 C683 0.930 . S
H676 C686 0.930 . S
H677 C687 0.930 . S
C678 H672 0.930 . S
C678 C679 1.355 . S
C678 C680 1.415 . S
C679 C678 1.355 . S
C679 C681 1.419 . S
C680 C678 1.415 . S
C680 C685 1.425 . S
C680 C687 1.409 . S
C681 H673 0.930 . S
C681 C679 1.419 . S
C681 C682 1.362 . S
C682 H674 0.930 . S
C682 C681 1.362 . S
C682 C685 1.409 . S
C683 H675 0.930 . S
C683 C684 1.355 . S
C683 C685 1.415 . S
C684 C683 1.355 . S
C684 C686 1.419 . S
C685 C680 1.425 . S
C685 C682 1.409 . S
C685 C683 1.415 . S
C686 H676 0.930 . S
C686 C684 1.419 . S
C686 C687 1.362 . S
C687 H677 0.930 . S
C687 C680 1.409 . S
C687 C686 1.362 . S
H688 C694 0.930 . S
H689 C697 0.930 . S
H690 C698 0.930 . S
H691 C699 0.930 . S
H692 C702 0.930 . S
H693 C703 0.930 . S
C694 H688 0.930 . S
C694 C695 1.355 . S
C694 C696 1.415 . S
C695 C694 1.355 . S
C695 C697 1.419 . S
C696 C694 1.415 . S
C696 C701 1.425 . S
C696 C703 1.409 . S
C697 H689 0.930 . S
C697 C695 1.419 . S
C697 C698 1.362 . S
C698 H690 0.930 . S
C698 C697 1.362 . S
C698 C701 1.409 . S
C699 H691 0.930 . S
C699 C700 1.355 . S
C699 C701 1.415 . S
C700 C699 1.355 . S
C700 C702 1.419 . S
C701 C696 1.425 . S
C701 C698 1.409 . S
C701 C699 1.415 . S
C702 H692 0.930 . S
C702 C700 1.419 . S
C702 C703 1.362 . S
C703 H693 0.930 . S
C703 C696 1.409 . S
C703 C702 1.362 . S
H704 C710 0.930 . S
H705 C713 0.930 . S
H706 C714 0.930 . S
H707 C715 0.930 . S
H708 C718 0.930 . S
H709 C719 0.930 . S
C710 H704 0.930 . S
C710 C711 1.355 . S
C710 C712 1.415 . S
C711 C710 1.355 . S
C711 C713 1.419 . S
C712 C710 1.415 . S
C712 C717 1.425 . S
C712 C719 1.409 . S
C713 H705 0.930 . S
C713 C711 1.419 . S
C713 C714 1.362 . S
C714 H706 0.930 . S
C714 C713 1.362 . S
C714 C717 1.409 . S
C715 H707 0.930 . S
C715 C716 1.355 . S
C715 C717 1.415 . S
C716 C715 1.355 . S
C716 C718 1.419 . S
C717 C712 1.425 . S
C717 C714 1.409 . S
C717 C715 1.415 . S
C718 H708 0.930 . S
C718 C716 1.419 . S
C718 C719 1.362 . S
C719 H709 0.930 . S
C719 C712 1.409 . S
C719 C718 1.362 . S
H720 C726 0.930 . S
H721 C729 0.930 . S
H722 C730 0.930 . S
H723 C731 0.930 . S
H724 C734 0.930 . S
H725 C735 0.930 . S
C726 H720 0.930 . S
C726 C727 1.355 . S
C726 C728 1.415 . S
C727 C726 1.355 . S
C727 C729 1.419 . S
C728 C726 1.415 . S
C728 C733 1.425 . S
C728 C735 1.409 . S
C729 H721 0.930 . S
C729 C727 1.419 . S
C729 C730 1.362 . S
C730 H722 0.930 . S
C730 C729 1.362 . S
C730 C733 1.409 . S
C731 H723 0.930 . S
C731 C732 1.355 . S
C731 C733 1.415 . S
C732 C731 1.355 . S
C732 C734 1.419 . S
C733 C728 1.425 . S
C733 C730 1.409 . S
C733 C731 1.415 . S
C734 H724 0.930 . S
C734 C732 1.419 . S
C734 C735 1.362 . S
C735 H725 0.930 . S
C735 C728 1.409 . S
C735 C734 1.362 . S
H736 C742 0.930 . S
H737 C745 0.930 . S
H738 C746 0.930 . S
H739 C747 0.930 . S
H740 C750 0.930 . S
H741 C751 0.930 . S
C742 H736 0.930 . S
C742 C743 1.355 . S
C742 C744 1.415 . S
C743 C742 1.355 . S
C743 C745 1.419 . S
C744 C742 1.415 . S
C744 C749 1.425 . S
C744 C751 1.409 . S
C745 H737 0.930 . S
C745 C743 1.419 . S
C745 C746 1.362 . S
C746 H738 0.930 . S
C746 C745 1.362 . S
C746 C749 1.409 . S
C747 H739 0.930 . S
C747 C748 1.355 . S
C747 C749 1.415 . S
C748 C747 1.355 . S
C748 C750 1.419 . S
C749 C744 1.425 . S
C749 C746 1.409 . S
C749 C747 1.415 . S
C750 H740 0.930 . S
C750 C748 1.419 . S
C750 C751 1.362 . S
C751 H741 0.930 . S
C751 C744 1.409 . S
C751 C750 1.362 . S
H752 C758 0.930 . S
H753 C761 0.930 . S
H754 C762 0.930 . S
H755 C763 0.930 . S
H756 C766 0.930 . S
H757 C767 0.930 . S
C758 H752 0.930 . S
C758 C759 1.355 . S
C758 C760 1.415 . S
C759 C758 1.355 . S
C759 C761 1.419 . S
C760 C758 1.415 . S
C760 C765 1.425 . S
C760 C767 1.409 . S
C761 H753 0.930 . S
C761 C759 1.419 . S
C761 C762 1.362 . S
C762 H754 0.930 . S
C762 C761 1.362 . S
C762 C765 1.409 . S
C763 H755 0.930 . S
C763 C764 1.355 . S
C763 C765 1.415 . S
C764 C763 1.355 . S
C764 C766 1.419 . S
C765 C760 1.425 . S
C765 C762 1.409 . S
C765 C763 1.415 . S
C766 H756 0.930 . S
C766 C764 1.419 . S
C766 C767 1.362 . S
C767 H757 0.930 . S
C767 C760 1.409 . S
C767 C766 1.362 . S
H768 C774 0.930 . S
H769 C777 0.930 . S
H770 C778 0.930 . S
H771 C779 0.930 . S
H772 C782 0.930 . S
H773 C783 0.930 . S
C774 H768 0.930 . S
C774 C775 1.355 . S
C774 C776 1.415 . S
C775 C774 1.355 . S
C775 C777 1.419 . S
C776 C774 1.415 . S
C776 C781 1.425 . S
C776 C783 1.409 . S
C777 H769 0.930 . S
C777 C775 1.419 . S
C777 C778 1.362 . S
C778 H770 0.930 . S
C778 C777 1.362 . S
C778 C781 1.409 . S
C779 H771 0.930 . S
C779 C780 1.355 . S
C779 C781 1.415 . S
C780 C779 1.355 . S
C780 C782 1.419 . S
C781 C776 1.425 . S
C781 C778 1.409 . S
C781 C779 1.415 . S
C782 H772 0.930 . S
C782 C780 1.419 . S
C782 C783 1.362 . S
C783 H773 0.930 . S
C783 C776 1.409 . S
C783 C782 1.362 . S
H784 C790 0.930 . S
H785 C793 0.930 . S
H786 C794 0.930 . S
H787 C795 0.930 . S
H788 C798 0.930 . S
H789 C799 0.930 . S
C790 H784 0.930 . S
C790 C791 1.355 . S
C790 C792 1.415 . S
C791 C790 1.355 . S
C791 C793 1.419 . S
C792 C790 1.415 . S
C792 C797 1.425 . S
C792 C799 1.409 . S
C793 H785 0.930 . S
C793 C791 1.419 . S
C793 C794 1.362 . S
C794 H786 0.930 . S
C794 C793 1.362 . S
C794 C797 1.409 . S
C795 H787 0.930 . S
C795 C796 1.355 . S
C795 C797 1.415 . S
C796 C795 1.355 . S
C796 C798 1.419 . S
C797 C792 1.425 . S
C797 C794 1.409 . S
C797 C795 1.415 . S
C798 H788 0.930 . S
C798 C796 1.419 . S
C798 C799 1.362 . S
C799 H789 0.930 . S
C799 C792 1.409 . S
C799 C798 1.362 . S
H800 C806 0.930 . S
H801 C809 0.930 . S
H802 C810 0.930 . S
H803 C811 0.930 . S
H804 C814 0.930 . S
H805 C815 0.930 . S
C806 H800 0.930 . S
C806 C807 1.355 . S
C806 C808 1.415 . S
C807 C806 1.355 . S
C807 C809 1.419 . S
C808 C806 1.415 . S
C808 C813 1.425 . S
C808 C815 1.409 . S
C809 H801 0.930 . S
C809 C807 1.419 . S
C809 C810 1.362 . S
C810 H802 0.930 . S
C810 C809 1.362 . S
C810 C813 1.409 . S
C811 H803 0.930 . S
C811 C812 1.355 . S
C811 C813 1.415 . S
C812 C811 1.355 . S
C812 C814 1.419 . S
C813 C808 1.425 . S
C813 C810 1.409 . S
C813 C811 1.415 . S
C814 H804 0.930 . S
C814 C812 1.419 . S
C814 C815 1.362 . S
C815 H805 0.930 . S
C815 C808 1.409 . S
C815 C814 1.362 . S
H816 C822 0.930 . S
H817 C825 0.930 . S
H818 C826 0.930 . S
H819 C827 0.930 . S
H820 C830 0.930 . S
H821 C831 0.930 . S
C822 H816 0.930 . S
C822 C823 1.355 . S
C822 C824 1.415 . S
C823 C822 1.355 . S
C823 C825 1.419 . S
C824 C822 1.415 . S
C824 C829 1.425 . S
C824 C831 1.409 . S
C825 H817 0.930 . S
C825 C823 1.419 . S
C825 C826 1.362 . S
C826 H818 0.930 . S
C826 C825 1.362 . S
C826 C829 1.409 . S
C827 H819 0.930 . S
C827 C828 1.355 . S
C827 C829 1.415 . S
C828 C827 1.355 . S
C828 C830 1.419 . S
C829 C824 1.425 . S
C829 C826 1.409 . S
C829 C827 1.415 . S
C830 H820 0.930 . S
C830 C828 1.419 . S
C830 C831 1.362 . S
C831 H821 0.930 . S
C831 C824 1.409 . S
C831 C830 1.362 . S
H832 C838 0.930 . S
H833 C841 0.930 . S
H834 C842 0.930 . S
H835 C843 0.930 . S
H836 C846 0.930 . S
H837 C847 0.930 . S
C838 H832 0.930 . S
C838 C839 1.355 . S
C838 C840 1.415 . S
C839 C838 1.355 . S
C839 C841 1.419 . S
C840 C838 1.415 . S
C840 C845 1.425 . S
C840 C847 1.409 . S
C841 H833 0.930 . S
C841 C839 1.419 . S
C841 C842 1.362 . S
C842 H834 0.930 . S
C842 C841 1.362 . S
C842 C845 1.409 . S
C843 H835 0.930 . S
C843 C844 1.355 . S
C843 C845 1.415 . S
C844 C843 1.355 . S
C844 C846 1.419 . S
C845 C840 1.425 . S
C845 C842 1.409 . S
C845 C843 1.415 . S
C846 H836 0.930 . S
C846 C844 1.419 . S
C846 C847 1.362 . S
C847 H837 0.930 . S
C847 C840 1.409 . S
C847 C846 1.362 . S
H848 C854 0.930 . S
H849 C857 0.930 . S
H850 C858 0.930 . S
H851 C859 0.930 . S
H852 C862 0.930 . S
H853 C863 0.930 . S
C854 H848 0.930 . S
C854 C855 1.355 . S
C854 C856 1.415 . S
C855 C854 1.355 . S
C855 C857 1.419 . S
C856 C854 1.415 . S
C856 C861 1.425 . S
C856 C863 1.409 . S
C857 H849 0.930 . S
C857 C855 1.419 . S
C857 C858 1.362 . S
C858 H850 0.930 . S
C858 C857 1.362 . S
C858 C861 1.409 . S
C859 H851 0.930 . S
C859 C860 1.355 . S
C859 C861 1.415 . S
C860 C859 1.355 . S
C860 C862 1.419 . S
C861 C856 1.425 . S
C861 C858 1.409 . S
C861 C859 1.415 . S
C862 H852 0.930 . S
C862 C860 1.419 . S
C862 C863 1.362 . S
C863 H853 0.930 . S
C863 C856 1.409 . S
C863 C862 1.362 . S
H864 C870 0.930 . S
H865 C873 0.930 . S
H866 C874 0.930 . S
H867 C875 0.930 . S
H868 C878 0.930 . S
H869 C879 0.930 . S
C870 H864 0.930 . S
C870 C871 1.355 . S
C870 C872 1.415 . S
C871 C870 1.355 . S
C871 C873 1.419 . S
C872 C870 1.415 . S
C872 C877 1.425 . S
C872 C879 1.409 . S
C873 H865 0.930 . S
C873 C871 1.419 . S
C873 C874 1.362 . S
C874 H866 0.930 . S
C874 C873 1.362 . S
C874 C877 1.409 . S
C875 H867 0.930 . S
C875 C876 1.355 . S
C875 C877 1.415 . S
C876 C875 1.355 . S
C876 C878 1.419 . S
C877 C872 1.425 . S
C877 C874 1.409 . S
C877 C875 1.415 . S
C878 H868 0.930 . S
C878 C876 1.419 . S
C878 C879 1.362 . S
C879 H869 0.930 . S
C879 C872 1.409 . S
C879 C878 1.362 . S
H880 C886 0.930 . S
H881 C889 0.930 . S
H882 C890 0.930 . S
H883 C891 0.930 . S
H884 C894 0.930 . S
H885 C895 0.930 . S
C886 H880 0.930 . S
C886 C887 1.355 . S
C886 C888 1.415 . S
C887 C886 1.355 . S
C887 C889 1.419 . S
C888 C886 1.415 . S
C888 C893 1.425 . S
C888 C895 1.409 . S
C889 H881 0.930 . S
C889 C887 1.419 . S
C889 C890 1.362 . S
C890 H882 0.930 . S
C890 C889 1.362 . S
C890 C893 1.409 . S
C891 H883 0.930 . S
C891 C892 1.355 . S
C891 C893 1.415 . S
C892 C891 1.355 . S
C892 C894 1.419 . S
C893 C888 1.425 . S
C893 C890 1.409 . S
C893 C891 1.415 . S
C894 H884 0.930 . S
C894 C892 1.419 . S
C894 C895 1.362 . S
C895 H885 0.930 . S
C895 C888 1.409 . S
C895 C894 1.362 . S
H896 C902 0.930 . S
H897 C905 0.930 . S
H898 C906 0.930 . S
H899 C907 0.930 . S
H900 C910 0.930 . S
H901 C911 0.930 . S
C902 H896 0.930 . S
C902 C903 1.355 . S
C902 C904 1.415 . S
C903 C902 1.355 . S
C903 C905 1.419 . S
C904 C902 1.415 . S
C904 C909 1.425 . S
C904 C911 1.409 . S
C905 H897 0.930 . S
C905 C903 1.419 . S
C905 C906 1.362 . S
C906 H898 0.930 . S
C906 C905 1.362 . S
C906 C909 1.409 . S
C907 H899 0.930 . S
C907 C908 1.355 . S
C907 C909 1.415 . S
C908 C907 1.355 . S
C908 C910 1.419 . S
C909 C904 1.425 . S
C909 C906 1.409 . S
C909 C907 1.415 . S
C910 H900 0.930 . S
C910 C908 1.419 . S
C910 C911 1.362 . S
C911 H901 0.930 . S
C911 C904 1.409 . S
C911 C910 1.362 . S
H912 C918 0.930 . S
H913 C921 0.930 . S
H914 C922 0.930 . S
H915 C923 0.930 . S
H916 C926 0.930 . S
H917 C927 0.930 . S
C918 H912 0.930 . S
C918 C919 1.355 . S
C918 C920 1.415 . S
C919 C918 1.355 . S
C919 C921 1.419 . S
C920 C918 1.415 . S
C920 C925 1.425 . S
C920 C927 1.409 . S
C921 H913 0.930 . S
C921 C919 1.419 . S
C921 C922 1.362 . S
C922 H914 0.930 . S
C922 C921 1.362 . S
C922 C925 1.409 . S
C923 H915 0.930 . S
C923 C924 1.355 . S
C923 C925 1.415 . S
C924 C923 1.355 . S
C924 C926 1.419 . S
C925 C920 1.425 . S
C925 C922 1.409 . S
C925 C923 1.415 . S
C926 H916 0.930 . S
C926 C924 1.419 . S
C926 C927 1.362 . S
C927 H917 0.930 . S
C927 C920 1.409 . S
C927 C926 1.362 . S
H928 C934 0.930 . S
H929 C937 0.930 . S
H930 C938 0.930 . S
H931 C939 0.930 . S
H932 C942 0.930 . S
H933 C943 0.930 . S
C934 H928 0.930 . S
C934 C935 1.355 . S
C934 C936 1.415 . S
C935 C934 1.355 . S
C935 C937 1.419 . S
C936 C934 1.415 . S
C936 C941 1.425 . S
C936 C943 1.409 . S
C937 H929 0.930 . S
C937 C935 1.419 . S
C937 C938 1.362 . S
C938 H930 0.930 . S
C938 C937 1.362 . S
C938 C941 1.409 . S
C939 H931 0.930 . S
C939 C940 1.355 . S
C939 C941 1.415 . S
C940 C939 1.355 . S
C940 C942 1.419 . S
C941 C936 1.425 . S
C941 C938 1.409 . S
C941 C939 1.415 . S
C942 H932 0.930 . S
C942 C940 1.419 . S
C942 C943 1.362 . S
C943 H933 0.930 . S
C943 C936 1.409 . S
C943 C942 1.362 . S
H944 C950 0.930 . S
H945 C953 0.930 . S
H946 C954 0.930 . S
H947 C955 0.930 . S
H948 C958 0.930 . S
H949 C959 0.930 . S
C950 H944 0.930 . S
C950 C951 1.355 . S
C950 C952 1.415 . S
C951 C950 1.355 . S
C951 C953 1.419 . S
C952 C950 1.415 . S
C952 C957 1.425 . S
C952 C959 1.409 . S
C953 H945 0.930 . S
C953 C951 1.419 . S
C953 C954 1.362 . S
C954 H946 0.930 . S
C954 C953 1.362 . S
C954 C957 1.409 . S
C955 H947 0.930 . S
C955 C956 1.355 . S
C955 C957 1.415 . S
C956 C955 1.355 . S
C956 C958 1.419 . S
C957 C952 1.425 . S
C957 C954 1.409 . S
C957 C955 1.415 . S
C958 H948 0.930 . S
C958 C956 1.419 . S
C958 C959 1.362 . S
C959 H949 0.930 . S
C959 C952 1.409 . S
C959 C958 1.362 . S
H960 C966 0.930 . S
H961 C969 0.930 . S
H962 C970 0.930 . S
H963 C971 0.930 . S
H964 C974 0.930 . S
H965 C975 0.930 . S
C966 H960 0.930 . S
C966 C967 1.355 . S
C966 C968 1.415 . S
C967 C966 1.355 . S
C967 C969 1.419 . S
C968 C966 1.415 . S
C968 C973 1.425 . S
C968 C975 1.409 . S
C969 H961 0.930 . S
C969 C967 1.419 . S
C969 C970 1.362 . S
C970 H962 0.930 . S
C970 C969 1.362 . S
C970 C973 1.409 . S
C971 H963 0.930 . S
C971 C972 1.355 . S
C971 C973 1.415 . S
C972 C971 1.355 . S
C972 C974 1.419 . S
C973 C968 1.425 . S
C973 C970 1.409 . S
C973 C971 1.415 . S
C974 H964 0.930 . S
C974 C972 1.419 . S
C974 C975 1.362 . S
C975 H965 0.930 . S
C975 C968 1.409 . S
C975 C974 1.362 . S
H976 C982 0.930 . S
H977 C985 0.930 . S
H978 C986 0.930 . S
H979 C987 0.930 . S
H980 C990 0.930 . S
H981 C991 0.930 . S
C982 H976 0.930 . S
C982 C983 1.355 . S
C982 C984 1.415 . S
C983 C982 1.355 . S
C983 C985 1.419 . S
C984 C982 1.415 . S
C984 C989 1.425 . S
C984 C991 1.409 . S
C985 H977 0.930 . S
C985 C983 1.419 . S
C985 C986 1.362 . S
C986 H978 0.930 . S
C986 C985 1.362 . S
C986 C989 1.409 . S
C987 H979 0.930 . S
C987 C988 1.355 . S
C987 C989 1.415 . S
C988 C987 1.355 . S
C988 C990 1.419 . S
C989 C984 1.425 . S
C989 C986 1.409 . S
C989 C987 1.415 . S
C990 H980 0.930 . S
C990 C988 1.419 . S
C990 C991 1.362 . S
C991 H981 0.930 . S
C991 C984 1.409 . S
C991 C990 1.362 . S
H992 C998 0.930 . S
H993 C1001 0.930 . S
H994 C1002 0.930 . S
H995 C1003 0.930 . S
H996 C1006 0.930 . S
H997 C1007 0.930 . S
C998 H992 0.930 . S
C998 C999 1.355 . S
C998 C1000 1.415 . S
C999 C998 1.355 . S
C999 C1001 1.419 . S
C1000 C998 1.415 . S
C1000 C1005 1.425 . S
C1000 C1007 1.409 . S
C1001 H993 0.930 . S
C1001 C999 1.419 . S
C1001 C1002 1.362 . S
C1002 H994 0.930 . S
C1002 C1001 1.362 . S
C1002 C1005 1.409 . S
C1003 H995 0.930 . S
C1003 C1004 1.355 . S
C1003 C1005 1.415 . S
C1004 C1003 1.355 . S
C1004 C1006 1.419 . S
C1005 C1000 1.425 . S
C1005 C1002 1.409 . S
C1005 C1003 1.415 . S
C1006 H996 0.930 . S
C1006 C1004 1.419 . S
C1006 C1007 1.362 . S
C1007 H997 0.930 . S
C1007 C1000 1.409 . S
C1007 C1006 1.362 . S
H1008 C1014 0.930 1_455 S
H1009 C1017 0.930 . S
H1010 C1018 0.930 . S
H1011 C1019 0.930 1_655 S
H1012 C1022 0.930 . S
H1013 C1023 0.930 . S
C1014 H1008 0.930 1_655 S
C1014 C1015 1.355 . S
C1014 C1016 1.415 1_655 S
C1015 C1014 1.355 . S
C1015 C1017 1.419 . S
C1016 C1014 1.415 1_455 S
C1016 C1021 1.425 1_455 S
C1016 C1023 1.409 . S
C1017 H1009 0.930 . S
C1017 C1015 1.419 . S
C1017 C1018 1.362 . S
C1018 H1010 0.930 . S
C1018 C1017 1.362 . S
C1018 C1021 1.409 . S
C1019 H1011 0.930 1_455 S
C1019 C1020 1.355 . S
C1019 C1021 1.415 1_455 S
C1020 C1019 1.355 . S
C1020 C1022 1.419 . S
C1021 C1016 1.425 1_655 S
C1021 C1018 1.409 . S
C1021 C1019 1.415 1_655 S
C1022 H1012 0.930 . S
C1022 C1020 1.419 . S
C1022 C1023 1.362 . S
C1023 H1013 0.930 . S
C1023 C1016 1.409 . S
C1023 C1022 1.362 . S
H1024 C1030 0.930 . S
H1025 C1033 0.930 . S
H1026 C1034 0.930 . S
H1027 C1035 0.930 . S
H1028 C1038 0.930 . S
H1029 C1039 0.930 . S
C1030 H1024 0.930 . S
C1030 C1031 1.355 1_545 S
C1030 C1032 1.415 . S
C1031 C1030 1.355 1_565 S
C1031 C1033 1.419 . S
C1032 C1030 1.415 . S
C1032 C1037 1.425 1_545 S
C1032 C1039 1.409 . S
C1033 H1025 0.930 . S
C1033 C1031 1.419 . S
C1033 C1034 1.362 . S
C1034 H1026 0.930 . S
C1034 C1033 1.362 . S
C1034 C1037 1.409 . S
C1035 H1027 0.930 . S
C1035 C1036 1.355 1_565 S
C1035 C1037 1.415 . S
C1036 C1035 1.355 1_545 S
C1036 C1038 1.419 . S
C1037 C1032 1.425 1_565 S
C1037 C1034 1.409 . S
C1037 C1035 1.415 . S
C1038 H1028 0.930 . S
C1038 C1036 1.419 . S
C1038 C1039 1.362 . S
C1039 H1029 0.930 . S
C1039 C1032 1.409 . S
C1039 C1038 1.362 . S
H1040 C1046 0.930 . S
H1041 C1049 0.930 . S
H1042 C1050 0.930 . S
H1043 C1051 0.930 . S
H1044 C1054 0.930 . S
H1045 C1055 0.930 . S
C1046 H1040 0.930 . S
C1046 C1047 1.355 . S
C1046 C1048 1.415 . S
C1047 C1046 1.355 . S
C1047 C1049 1.419 . S
C1048 C1046 1.415 . S
C1048 C1053 1.425 1_655 S
C1048 C1055 1.409 . S
C1049 H1041 0.930 . S
C1049 C1047 1.419 . S
C1049 C1050 1.362 1_655 S
C1050 H1042 0.930 . S
C1050 C1049 1.362 1_455 S
C1050 C1053 1.409 . S
C1051 H1043 0.930 . S
C1051 C1052 1.355 . S
C1051 C1053 1.415 . S
C1052 C1051 1.355 . S
C1052 C1054 1.419 . S
C1053 C1048 1.425 1_455 S
C1053 C1050 1.409 . S
C1053 C1051 1.415 . S
C1054 H1044 0.930 . S
C1054 C1052 1.419 . S
C1054 C1055 1.362 1_455 S
C1055 H1045 0.930 . S
C1055 C1048 1.409 . S
C1055 C1054 1.362 1_655 S
H1056 C1062 0.930 . S
H1057 C1065 0.930 . S
H1058 C1066 0.930 1_565 S
H1059 C1067 0.930 . S
H1060 C1070 0.930 . S
H1061 C1071 0.930 1_545 S
C1062 H1056 0.930 . S
C1062 C1063 1.355 . S
C1062 C1064 1.415 . S
C1063 C1062 1.355 . S
C1063 C1065 1.419 . S
C1064 C1062 1.415 . S
C1064 C1069 1.425 1_545 S
C1064 C1071 1.409 1_545 S
C1065 H1057 0.930 . S
C1065 C1063 1.419 . S
C1065 C1066 1.363 . S
C1066 H1058 0.930 1_545 S
C1066 C1065 1.363 . S
C1066 C1069 1.409 1_545 S
C1067 H1059 0.930 . S
C1067 C1068 1.355 . S
C1067 C1069 1.415 . S
C1068 C1067 1.355 . S
C1068 C1070 1.419 . S
C1069 C1064 1.425 1_565 S
C1069 C1066 1.409 1_565 S
C1069 C1067 1.415 . S
C1070 H1060 0.930 . S
C1070 C1068 1.419 . S
C1070 C1071 1.363 . S
C1071 H1061 0.930 1_565 S
C1071 C1064 1.409 1_565 S
C1071 C1070 1.363 . S
H1072 C1078 0.930 . S
H1073 C1081 0.930 . S
H1074 C1082 0.930 . S
H1075 C1083 0.930 . S
H1076 C1086 0.930 . S
H1077 C1087 0.930 . S
C1078 H1072 0.930 . S
C1078 C1079 1.355 . S
C1078 C1080 1.415 . S
C1079 C1078 1.355 . S
C1079 C1081 1.419 1_455 S
C1080 C1078 1.415 . S
C1080 C1085 1.425 1_455 S
C1080 C1087 1.409 . S
C1081 H1073 0.930 . S
C1081 C1079 1.419 1_655 S
C1081 C1082 1.362 . S
C1082 H1074 0.930 . S
C1082 C1081 1.362 . S
C1082 C1085 1.409 . S
C1083 H1075 0.930 . S
C1083 C1084 1.355 . S
C1083 C1085 1.415 . S
C1084 C1083 1.355 . S
C1084 C1086 1.419 1_655 S
C1085 C1080 1.425 1_655 S
C1085 C1082 1.409 . S
C1085 C1083 1.415 . S
C1086 H1076 0.930 . S
C1086 C1084 1.419 1_455 S
C1086 C1087 1.362 . S
C1087 H1077 0.930 . S
C1087 C1080 1.409 . S
C1087 C1086 1.362 . S
H1088 C1094 0.930 . S
H1089 C1097 0.930 . S
H1090 C1098 0.930 . S
H1091 C1099 0.930 . S
H1092 C1102 0.930 . S
H1093 C1103 0.930 . S
C1094 H1088 0.930 . S
C1094 C1095 1.355 1_545 S
C1094 C1096 1.415 . S
C1095 C1094 1.355 1_565 S
C1095 C1097 1.419 . S
C1096 C1094 1.415 . S
C1096 C1101 1.425 1_545 S
C1096 C1103 1.409 . S
C1097 H1089 0.930 . S
C1097 C1095 1.419 . S
C1097 C1098 1.362 . S
C1098 H1090 0.930 . S
C1098 C1097 1.362 . S
C1098 C1101 1.409 . S
C1099 H1091 0.930 . S
C1099 C1100 1.355 1_565 S
C1099 C1101 1.415 . S
C1100 C1099 1.355 1_545 S
C1100 C1102 1.419 . S
C1101 C1096 1.425 1_565 S
C1101 C1098 1.409 . S
C1101 C1099 1.415 . S
C1102 H1092 0.930 . S
C1102 C1100 1.419 . S
C1102 C1103 1.362 . S
C1103 H1093 0.930 . S
C1103 C1096 1.409 . S
C1103 C1102 1.362 . S
H1104 C1110 0.930 . S
H1105 C1113 0.930 . S
H1106 C1114 0.930 . S
H1107 C1115 0.930 . S
H1108 C1118 0.930 . S
H1109 C1119 0.930 . S
C1110 H1104 0.930 . S
C1110 C1111 1.355 . S
C1110 C1112 1.415 . S
C1111 C1110 1.355 . S
C1111 C1113 1.419 1_455 S
C1112 C1110 1.415 . S
C1112 C1117 1.425 1_455 S
C1112 C1119 1.409 . S
C1113 H1105 0.930 . S
C1113 C1111 1.419 1_655 S
C1113 C1114 1.362 . S
C1114 H1106 0.930 . S
C1114 C1113 1.362 . S
C1114 C1117 1.409 . S
C1115 H1107 0.930 . S
C1115 C1116 1.355 . S
C1115 C1117 1.415 . S
C1116 C1115 1.355 . S
C1116 C1118 1.419 1_655 S
C1117 C1112 1.425 1_655 S
C1117 C1114 1.409 . S
C1117 C1115 1.415 . S
C1118 H1108 0.930 . S
C1118 C1116 1.419 1_455 S
C1118 C1119 1.362 . S
C1119 H1109 0.930 . S
C1119 C1112 1.409 . S
C1119 C1118 1.362 . S
H1120 C1126 0.930 . S
H1121 C1129 0.930 . S
H1122 C1130 0.930 . S
H1123 C1131 0.930 . S
H1124 C1134 0.930 . S
H1125 C1135 0.930 . S
C1126 H1120 0.930 . S
C1126 C1127 1.355 1_565 S
C1126 C1128 1.415 . S
C1127 C1126 1.355 1_545 S
C1127 C1129 1.419 . S
C1128 C1126 1.415 . S
C1128 C1133 1.425 1_565 S
C1128 C1135 1.409 . S
C1129 H1121 0.930 . S
C1129 C1127 1.419 . S
C1129 C1130 1.362 . S
C1130 H1122 0.930 . S
C1130 C1129 1.362 . S
C1130 C1133 1.409 . S
C1131 H1123 0.930 . S
C1131 C1132 1.355 1_545 S
C1131 C1133 1.415 . S
C1132 C1131 1.355 1_565 S
C1132 C1134 1.419 . S
C1133 C1128 1.425 1_545 S
C1133 C1130 1.409 . S
C1133 C1131 1.415 . S
C1134 H1124 0.930 . S
C1134 C1132 1.419 . S
C1134 C1135 1.362 . S
C1135 H1125 0.930 . S
C1135 C1128 1.409 . S
C1135 C1134 1.362 . S
H1136 C1142 0.930 . S
H1137 C1145 0.930 . S
H1138 C1146 0.930 . S
H1139 C1147 0.930 . S
H1140 C1150 0.930 . S
H1141 C1151 0.930 . S
C1142 H1136 0.930 . S
C1142 C1143 1.355 . S
C1142 C1144 1.415 . S
C1143 C1142 1.355 . S
C1143 C1145 1.419 1_556 S
C1144 C1142 1.415 . S
C1144 C1149 1.425 1_556 S
C1144 C1151 1.409 . S
C1145 H1137 0.930 . S
C1145 C1143 1.419 1_554 S
C1145 C1146 1.362 . S
C1146 H1138 0.930 . S
C1146 C1145 1.362 . S
C1146 C1149 1.409 . S
C1147 H1139 0.930 . S
C1147 C1148 1.355 . S
C1147 C1149 1.415 . S
C1148 C1147 1.355 . S
C1148 C1150 1.419 1_554 S
C1149 C1144 1.425 1_554 S
C1149 C1146 1.409 . S
C1149 C1147 1.415 . S
C1150 H1140 0.930 . S
C1150 C1148 1.419 1_556 S
C1150 C1151 1.362 . S
C1151 H1141 0.930 . S
C1151 C1144 1.409 . S
C1151 C1150 1.362 . S
H1152 C1158 0.930 . S
H1153 C1161 0.929 1_556 S
H1154 C1162 0.930 . S
H1155 C1163 0.930 . S
H1156 C1166 0.929 1_554 S
H1157 C1167 0.930 . S
C1158 H1152 0.930 . S
C1158 C1159 1.355 . S
C1158 C1160 1.415 . S
C1159 C1158 1.355 . S
C1159 C1161 1.429 . S
C1160 C1158 1.415 . S
C1160 C1165 1.425 1_554 S
C1160 C1167 1.409 . S
C1161 H1153 0.929 1_554 S
C1161 C1159 1.429 . S
C1161 C1162 1.354 1_554 S
C1162 H1154 0.930 . S
C1162 C1161 1.354 1_556 S
C1162 C1165 1.409 . S
C1163 H1155 0.930 . S
C1163 C1164 1.355 . S
C1163 C1165 1.415 . S
C1164 C1163 1.355 . S
C1164 C1166 1.429 . S
C1165 C1160 1.425 1_556 S
C1165 C1162 1.409 . S
C1165 C1163 1.415 . S
C1166 H1156 0.929 1_556 S
C1166 C1164 1.429 . S
C1166 C1167 1.354 1_556 S
C1167 H1157 0.930 . S
C1167 C1160 1.409 . S
C1167 C1166 1.354 1_554 S
H1168 C1174 0.930 . S
H1169 C1177 0.930 . S
H1170 C1178 0.930 . S
H1171 C1179 0.930 . S
H1172 C1182 0.930 . S
H1173 C1183 0.930 . S
C1174 H1168 0.930 . S
C1174 C1175 1.355 . S
C1174 C1176 1.415 1_554 S
C1175 C1174 1.355 . S
C1175 C1177 1.419 . S
C1176 C1174 1.415 1_556 S
C1176 C1181 1.425 1_556 S
C1176 C1183 1.409 . S
C1177 H1169 0.930 . S
C1177 C1175 1.419 . S
C1177 C1178 1.362 . S
C1178 H1170 0.930 . S
C1178 C1177 1.362 . S
C1178 C1181 1.409 . S
C1179 H1171 0.930 . S
C1179 C1180 1.355 . S
C1179 C1181 1.415 1_556 S
C1180 C1179 1.355 . S
C1180 C1182 1.419 . S
C1181 C1176 1.425 1_554 S
C1181 C1178 1.409 . S
C1181 C1179 1.415 1_554 S
C1182 H1172 0.930 . S
C1182 C1180 1.419 . S
C1182 C1183 1.362 . S
C1183 H1173 0.930 . S
C1183 C1176 1.409 . S
C1183 C1182 1.362 . S
H1184 C1190 0.930 . S
H1185 C1193 0.930 . S
H1186 C1194 0.930 . S
H1187 C1195 0.930 . S
H1188 C1198 0.930 . S
H1189 C1199 0.930 . S
C1190 H1184 0.930 . S
C1190 C1191 1.355 . S
C1190 C1192 1.415 . S
C1191 C1190 1.355 . S
C1191 C1193 1.419 . S
C1192 C1190 1.415 . S
C1192 C1197 1.425 1_556 S
C1192 C1199 1.409 . S
C1193 H1185 0.930 . S
C1193 C1191 1.419 . S
C1193 C1194 1.362 1_556 S
C1194 H1186 0.930 . S
C1194 C1193 1.362 1_554 S
C1194 C1197 1.409 . S
C1195 H1187 0.930 . S
C1195 C1196 1.355 . S
C1195 C1197 1.415 . S
C1196 C1195 1.355 . S
C1196 C1198 1.419 . S
C1197 C1192 1.425 1_554 S
C1197 C1194 1.409 . S
C1197 C1195 1.415 . S
C1198 H1188 0.930 . S
C1198 C1196 1.419 . S
C1198 C1199 1.362 1_554 S
C1199 H1189 0.930 . S
C1199 C1192 1.409 . S
C1199 C1198 1.362 1_556 S
H1200 C1206 0.930 . S
H1201 C1209 0.930 . S
H1202 C1210 0.930 . S
H1203 C1211 0.930 . S
H1204 C1214 0.930 . S
H1205 C1215 0.930 . S
C1206 H1200 0.930 . S
C1206 C1207 1.355 . S
C1206 C1208 1.415 . S
C1207 C1206 1.355 . S
C1207 C1209 1.419 . S
C1208 C1206 1.415 . S
C1208 C1213 1.425 . S
C1208 C1215 1.409 . S
C1209 H1201 0.930 . S
C1209 C1207 1.419 . S
C1209 C1210 1.362 . S
C1210 H1202 0.930 . S
C1210 C1209 1.362 . S
C1210 C1213 1.409 . S
C1211 H1203 0.930 . S
C1211 C1212 1.355 . S
C1211 C1213 1.415 . S
C1212 C1211 1.355 . S
C1212 C1214 1.419 . S
C1213 C1208 1.425 . S
C1213 C1210 1.409 . S
C1213 C1211 1.415 . S
C1214 H1204 0.930 . S
C1214 C1212 1.419 . S
C1214 C1215 1.362 . S
C1215 H1205 0.930 . S
C1215 C1208 1.409 . S
C1215 C1214 1.362 . S
H1216 C1222 0.930 . S
H1217 C1225 0.930 . S
H1218 C1226 0.930 . S
H1219 C1227 0.930 . S
H1220 C1230 0.930 . S
H1221 C1231 0.930 . S
C1222 H1216 0.930 . S
C1222 C1223 1.355 . S
C1222 C1224 1.415 . S
C1223 C1222 1.355 . S
C1223 C1225 1.419 . S
C1224 C1222 1.415 . S
C1224 C1229 1.425 . S
C1224 C1231 1.409 . S
C1225 H1217 0.930 . S
C1225 C1223 1.419 . S
C1225 C1226 1.362 . S
C1226 H1218 0.930 . S
C1226 C1225 1.362 . S
C1226 C1229 1.409 . S
C1227 H1219 0.930 . S
C1227 C1228 1.355 . S
C1227 C1229 1.415 . S
C1228 C1227 1.355 . S
C1228 C1230 1.419 . S
C1229 C1224 1.425 . S
C1229 C1226 1.409 . S
C1229 C1227 1.415 . S
C1230 H1220 0.930 . S
C1230 C1228 1.419 . S
C1230 C1231 1.362 . S
C1231 H1221 0.930 . S
C1231 C1224 1.409 . S
C1231 C1230 1.362 . S
H1232 C1238 0.930 . S
H1233 C1241 0.930 . S
H1234 C1242 0.930 . S
H1235 C1243 0.930 . S
H1236 C1246 0.930 . S
H1237 C1247 0.930 . S
C1238 H1232 0.930 . S
C1238 C1239 1.355 . S
C1238 C1240 1.415 . S
C1239 C1238 1.355 . S
C1239 C1241 1.419 . S
C1240 C1238 1.415 . S
C1240 C1245 1.425 . S
C1240 C1247 1.409 . S
C1241 H1233 0.930 . S
C1241 C1239 1.419 . S
C1241 C1242 1.362 . S
C1242 H1234 0.930 . S
C1242 C1241 1.362 . S
C1242 C1245 1.409 . S
C1243 H1235 0.930 . S
C1243 C1244 1.355 . S
C1243 C1245 1.415 . S
C1244 C1243 1.355 . S
C1244 C1246 1.419 . S
C1245 C1240 1.425 . S
C1245 C1242 1.409 . S
C1245 C1243 1.415 . S
C1246 H1236 0.930 . S
C1246 C1244 1.419 . S
C1246 C1247 1.362 . S
C1247 H1237 0.930 . S
C1247 C1240 1.409 . S
C1247 C1246 1.362 . S
H1248 C1254 0.930 . S
H1249 C1257 0.930 . S
H1250 C1258 0.930 . S
H1251 C1259 0.930 . S
H1252 C1262 0.930 . S
H1253 C1263 0.930 . S
C1254 H1248 0.930 . S
C1254 C1255 1.355 . S
C1254 C1256 1.415 . S
C1255 C1254 1.355 . S
C1255 C1257 1.419 . S
C1256 C1254 1.415 . S
C1256 C1261 1.425 . S
C1256 C1263 1.409 . S
C1257 H1249 0.930 . S
C1257 C1255 1.419 . S
C1257 C1258 1.362 . S
C1258 H1250 0.930 . S
C1258 C1257 1.362 . S
C1258 C1261 1.409 . S
C1259 H1251 0.930 . S
C1259 C1260 1.355 . S
C1259 C1261 1.415 . S
C1260 C1259 1.355 . S
C1260 C1262 1.419 . S
C1261 C1256 1.425 . S
C1261 C1258 1.409 . S
C1261 C1259 1.415 . S
C1262 H1252 0.930 . S
C1262 C1260 1.419 . S
C1262 C1263 1.362 . S
C1263 H1253 0.930 . S
C1263 C1256 1.409 . S
C1263 C1262 1.362 . S
H1264 C1270 0.930 . S
H1265 C1273 0.930 . S
H1266 C1274 0.930 . S
H1267 C1275 0.930 . S
H1268 C1278 0.930 . S
H1269 C1279 0.930 . S
C1270 H1264 0.930 . S
C1270 C1271 1.355 . S
C1270 C1272 1.415 . S
C1271 C1270 1.355 . S
C1271 C1273 1.419 . S
C1272 C1270 1.415 . S
C1272 C1277 1.425 . S
C1272 C1279 1.409 . S
C1273 H1265 0.930 . S
C1273 C1271 1.419 . S
C1273 C1274 1.362 . S
C1274 H1266 0.930 . S
C1274 C1273 1.362 . S
C1274 C1277 1.409 . S
C1275 H1267 0.930 . S
C1275 C1276 1.355 . S
C1275 C1277 1.415 . S
C1276 C1275 1.355 . S
C1276 C1278 1.419 . S
C1277 C1272 1.425 . S
C1277 C1274 1.409 . S
C1277 C1275 1.415 . S
C1278 H1268 0.930 . S
C1278 C1276 1.419 . S
C1278 C1279 1.362 . S
C1279 H1269 0.930 . S
C1279 C1272 1.409 . S
C1279 C1278 1.362 . S
H1280 C1286 0.930 . S
H1281 C1289 0.930 . S
H1282 C1290 0.930 . S
H1283 C1291 0.930 . S
H1284 C1294 0.930 . S
H1285 C1295 0.930 . S
C1286 H1280 0.930 . S
C1286 C1287 1.355 . S
C1286 C1288 1.415 . S
C1287 C1286 1.355 . S
C1287 C1289 1.419 . S
C1288 C1286 1.415 . S
C1288 C1293 1.425 . S
C1288 C1295 1.409 . S
C1289 H1281 0.930 . S
C1289 C1287 1.419 . S
C1289 C1290 1.362 . S
C1290 H1282 0.930 . S
C1290 C1289 1.362 . S
C1290 C1293 1.409 . S
C1291 H1283 0.930 . S
C1291 C1292 1.355 . S
C1291 C1293 1.415 . S
C1292 C1291 1.355 . S
C1292 C1294 1.419 . S
C1293 C1288 1.425 . S
C1293 C1290 1.409 . S
C1293 C1291 1.415 . S
C1294 H1284 0.930 . S
C1294 C1292 1.419 . S
C1294 C1295 1.362 . S
C1295 H1285 0.930 . S
C1295 C1288 1.409 . S
C1295 C1294 1.362 . S
H1296 C1302 0.930 . S
H1297 C1305 0.930 . S
H1298 C1306 0.930 . S
H1299 C1307 0.930 . S
H1300 C1310 0.930 . S
H1301 C1311 0.930 . S
C1302 H1296 0.930 . S
C1302 C1303 1.355 . S
C1302 C1304 1.415 . S
C1303 C1302 1.355 . S
C1303 C1305 1.419 . S
C1304 C1302 1.415 . S
C1304 C1309 1.425 . S
C1304 C1311 1.409 . S
C1305 H1297 0.930 . S
C1305 C1303 1.419 . S
C1305 C1306 1.362 . S
C1306 H1298 0.930 . S
C1306 C1305 1.362 . S
C1306 C1309 1.409 . S
C1307 H1299 0.930 . S
C1307 C1308 1.355 . S
C1307 C1309 1.415 . S
C1308 C1307 1.355 . S
C1308 C1310 1.419 . S
C1309 C1304 1.425 . S
C1309 C1306 1.409 . S
C1309 C1307 1.415 . S
C1310 H1300 0.930 . S
C1310 C1308 1.419 . S
C1310 C1311 1.362 . S
C1311 H1301 0.930 . S
C1311 C1304 1.409 . S
C1311 C1310 1.362 . S
H1312 C1318 0.930 . S
H1313 C1321 0.930 . S
H1314 C1322 0.930 . S
H1315 C1323 0.930 . S
H1316 C1326 0.930 . S
H1317 C1327 0.930 . S
C1318 H1312 0.930 . S
C1318 C1319 1.355 . S
C1318 C1320 1.415 . S
C1319 C1318 1.355 . S
C1319 C1321 1.419 . S
C1320 C1318 1.415 . S
C1320 C1325 1.425 . S
C1320 C1327 1.409 . S
C1321 H1313 0.930 . S
C1321 C1319 1.419 . S
C1321 C1322 1.362 . S
C1322 H1314 0.930 . S
C1322 C1321 1.362 . S
C1322 C1325 1.409 . S
C1323 H1315 0.930 . S
C1323 C1324 1.355 . S
C1323 C1325 1.415 . S
C1324 C1323 1.355 . S
C1324 C1326 1.419 . S
C1325 C1320 1.425 . S
C1325 C1322 1.409 . S
C1325 C1323 1.415 . S
C1326 H1316 0.930 . S
C1326 C1324 1.419 . S
C1326 C1327 1.362 . S
C1327 H1317 0.930 . S
C1327 C1320 1.409 . S
C1327 C1326 1.362 . S
H1328 C1334 0.930 . S
H1329 C1337 0.930 . S
H1330 C1338 0.930 . S
H1331 C1339 0.930 . S
H1332 C1342 0.930 . S
H1333 C1343 0.930 . S
C1334 H1328 0.930 . S
C1334 C1335 1.355 . S
C1334 C1336 1.415 . S
C1335 C1334 1.355 . S
C1335 C1337 1.419 . S
C1336 C1334 1.415 . S
C1336 C1341 1.425 . S
C1336 C1343 1.409 . S
C1337 H1329 0.930 . S
C1337 C1335 1.419 . S
C1337 C1338 1.362 . S
C1338 H1330 0.930 . S
C1338 C1337 1.362 . S
C1338 C1341 1.409 . S
C1339 H1331 0.930 . S
C1339 C1340 1.355 . S
C1339 C1341 1.415 . S
C1340 C1339 1.355 . S
C1340 C1342 1.419 . S
C1341 C1336 1.425 . S
C1341 C1338 1.409 . S
C1341 C1339 1.415 . S
C1342 H1332 0.930 . S
C1342 C1340 1.419 . S
C1342 C1343 1.362 . S
C1343 H1333 0.930 . S
C1343 C1336 1.409 . S
C1343 C1342 1.362 . S
H1344 C1350 0.930 . S
H1345 C1353 0.930 . S
H1346 C1354 0.930 . S
H1347 C1355 0.930 . S
H1348 C1358 0.930 . S
H1349 C1359 0.930 . S
C1350 H1344 0.930 . S
C1350 C1351 1.355 . S
C1350 C1352 1.415 . S
C1351 C1350 1.355 . S
C1351 C1353 1.419 . S
C1352 C1350 1.415 . S
C1352 C1357 1.425 . S
C1352 C1359 1.409 . S
C1353 H1345 0.930 . S
C1353 C1351 1.419 . S
C1353 C1354 1.362 . S
C1354 H1346 0.930 . S
C1354 C1353 1.362 . S
C1354 C1357 1.409 . S
C1355 H1347 0.930 . S
C1355 C1356 1.355 . S
C1355 C1357 1.415 . S
C1356 C1355 1.355 . S
C1356 C1358 1.419 . S
C1357 C1352 1.425 . S
C1357 C1354 1.409 . S
C1357 C1355 1.415 . S
C1358 H1348 0.930 . S
C1358 C1356 1.419 . S
C1358 C1359 1.362 . S
C1359 H1349 0.930 . S
C1359 C1352 1.409 . S
C1359 C1358 1.362 . S
H1360 C1366 0.930 . S
H1361 C1369 0.930 . S
H1362 C1370 0.930 . S
H1363 C1371 0.930 . S
H1364 C1374 0.930 . S
H1365 C1375 0.930 . S
C1366 H1360 0.930 . S
C1366 C1367 1.355 . S
C1366 C1368 1.415 . S
C1367 C1366 1.355 . S
C1367 C1369 1.419 . S
C1368 C1366 1.415 . S
C1368 C1373 1.425 . S
C1368 C1375 1.409 . S
C1369 H1361 0.930 . S
C1369 C1367 1.419 . S
C1369 C1370 1.362 . S
C1370 H1362 0.930 . S
C1370 C1369 1.362 . S
C1370 C1373 1.409 . S
C1371 H1363 0.930 . S
C1371 C1372 1.355 . S
C1371 C1373 1.415 . S
C1372 C1371 1.355 . S
C1372 C1374 1.419 . S
C1373 C1368 1.425 . S
C1373 C1370 1.409 . S
C1373 C1371 1.415 . S
C1374 H1364 0.930 . S
C1374 C1372 1.419 . S
C1374 C1375 1.362 . S
C1375 H1365 0.930 . S
C1375 C1368 1.409 . S
C1375 C1374 1.362 . S
H1376 C1382 0.930 . S
H1377 C1385 0.930 . S
H1378 C1386 0.930 . S
H1379 C1387 0.930 . S
H1380 C1390 0.930 . S
H1381 C1391 0.930 . S
C1382 H1376 0.930 . S
C1382 C1383 1.355 . S
C1382 C1384 1.415 . S
C1383 C1382 1.355 . S
C1383 C1385 1.419 . S
C1384 C1382 1.415 . S
C1384 C1389 1.425 . S
C1384 C1391 1.409 . S
C1385 H1377 0.930 . S
C1385 C1383 1.419 . S
C1385 C1386 1.362 . S
C1386 H1378 0.930 . S
C1386 C1385 1.362 . S
C1386 C1389 1.409 . S
C1387 H1379 0.930 . S
C1387 C1388 1.355 . S
C1387 C1389 1.415 . S
C1388 C1387 1.355 . S
C1388 C1390 1.419 . S
C1389 C1384 1.425 . S
C1389 C1386 1.409 . S
C1389 C1387 1.415 . S
C1390 H1380 0.930 . S
C1390 C1388 1.419 . S
C1390 C1391 1.362 . S
C1391 H1381 0.930 . S
C1391 C1384 1.409 . S
C1391 C1390 1.362 . S
H1392 C1398 0.930 . S
H1393 C1401 0.930 . S
H1394 C1402 0.930 . S
H1395 C1403 0.930 . S
H1396 C1406 0.930 . S
H1397 C1407 0.930 . S
C1398 H1392 0.930 . S
C1398 C1399 1.355 . S
C1398 C1400 1.415 . S
C1399 C1398 1.355 . S
C1399 C1401 1.419 . S
C1400 C1398 1.415 . S
C1400 C1405 1.425 . S
C1400 C1407 1.409 . S
C1401 H1393 0.930 . S
C1401 C1399 1.419 . S
C1401 C1402 1.362 . S
C1402 H1394 0.930 . S
C1402 C1401 1.362 . S
C1402 C1405 1.409 . S
C1403 H1395 0.930 . S
C1403 C1404 1.355 . S
C1403 C1405 1.415 . S
C1404 C1403 1.355 . S
C1404 C1406 1.419 . S
C1405 C1400 1.425 . S
C1405 C1402 1.409 . S
C1405 C1403 1.415 . S
C1406 H1396 0.930 . S
C1406 C1404 1.419 . S
C1406 C1407 1.362 . S
C1407 H1397 0.930 . S
C1407 C1400 1.409 . S
C1407 C1406 1.362 . S
H1408 C1414 0.930 . S
H1409 C1417 0.930 . S
H1410 C1418 0.930 . S
H1411 C1419 0.930 . S
H1412 C1422 0.930 . S
H1413 C1423 0.930 . S
C1414 H1408 0.930 . S
C1414 C1415 1.355 . S
C1414 C1416 1.415 . S
C1415 C1414 1.355 . S
C1415 C1417 1.419 . S
C1416 C1414 1.415 . S
C1416 C1421 1.425 . S
C1416 C1423 1.409 . S
C1417 H1409 0.930 . S
C1417 C1415 1.419 . S
C1417 C1418 1.362 . S
C1418 H1410 0.930 . S
C1418 C1417 1.362 . S
C1418 C1421 1.409 . S
C1419 H1411 0.930 . S
C1419 C1420 1.355 . S
C1419 C1421 1.415 . S
C1420 C1419 1.355 . S
C1420 C1422 1.419 . S
C1421 C1416 1.425 . S
C1421 C1418 1.409 . S
C1421 C1419 1.415 . S
C1422 H1412 0.930 . S
C1422 C1420 1.419 . S
C1422 C1423 1.362 . S
C1423 H1413 0.930 . S
C1423 C1416 1.409 . S
C1423 C1422 1.362 . S
H1424 C1430 0.930 . S
H1425 C1433 0.930 . S
H1426 C1434 0.930 . S
H1427 C1435 0.930 . S
H1428 C1438 0.930 . S
H1429 C1439 0.930 . S
C1430 H1424 0.930 . S
C1430 C1431 1.355 . S
C1430 C1432 1.415 . S
C1431 C1430 1.355 . S
C1431 C1433 1.419 . S
C1432 C1430 1.415 . S
C1432 C1437 1.425 . S
C1432 C1439 1.409 . S
C1433 H1425 0.930 . S
C1433 C1431 1.419 . S
C1433 C1434 1.362 . S
C1434 H1426 0.930 . S
C1434 C1433 1.362 . S
C1434 C1437 1.409 . S
C1435 H1427 0.930 . S
C1435 C1436 1.355 . S
C1435 C1437 1.415 . S
C1436 C1435 1.355 . S
C1436 C1438 1.419 . S
C1437 C1432 1.425 . S
C1437 C1434 1.409 . S
C1437 C1435 1.415 . S
C1438 H1428 0.930 . S
C1438 C1436 1.419 . S
C1438 C1439 1.362 . S
C1439 H1429 0.930 . S
C1439 C1432 1.409 . S
C1439 C1438 1.362 . S
H1440 C1446 0.930 . S
H1441 C1449 0.930 . S
H1442 C1450 0.930 . S
H1443 C1451 0.930 . S
H1444 C1454 0.930 . S
H1445 C1455 0.930 . S
C1446 H1440 0.930 . S
C1446 C1447 1.355 . S
C1446 C1448 1.415 . S
C1447 C1446 1.355 . S
C1447 C1449 1.419 . S
C1448 C1446 1.415 . S
C1448 C1453 1.425 . S
C1448 C1455 1.409 . S
C1449 H1441 0.930 . S
C1449 C1447 1.419 . S
C1449 C1450 1.362 . S
C1450 H1442 0.930 . S
C1450 C1449 1.362 . S
C1450 C1453 1.409 . S
C1451 H1443 0.930 . S
C1451 C1452 1.355 . S
C1451 C1453 1.415 . S
C1452 C1451 1.355 . S
C1452 C1454 1.419 . S
C1453 C1448 1.425 . S
C1453 C1450 1.409 . S
C1453 C1451 1.415 . S
C1454 H1444 0.930 . S
C1454 C1452 1.419 . S
C1454 C1455 1.362 . S
C1455 H1445 0.930 . S
C1455 C1448 1.409 . S
C1455 C1454 1.362 . S
H1456 C1462 0.930 . S
H1457 C1465 0.930 . S
H1458 C1466 0.930 . S
H1459 C1467 0.930 . S
H1460 C1470 0.930 . S
H1461 C1471 0.930 . S
C1462 H1456 0.930 . S
C1462 C1463 1.355 . S
C1462 C1464 1.415 . S
C1463 C1462 1.355 . S
C1463 C1465 1.419 . S
C1464 C1462 1.415 . S
C1464 C1469 1.425 . S
C1464 C1471 1.409 . S
C1465 H1457 0.930 . S
C1465 C1463 1.419 . S
C1465 C1466 1.362 . S
C1466 H1458 0.930 . S
C1466 C1465 1.362 . S
C1466 C1469 1.409 . S
C1467 H1459 0.930 . S
C1467 C1468 1.355 . S
C1467 C1469 1.415 . S
C1468 C1467 1.355 . S
C1468 C1470 1.419 . S
C1469 C1464 1.425 . S
C1469 C1466 1.409 . S
C1469 C1467 1.415 . S
C1470 H1460 0.930 . S
C1470 C1468 1.419 . S
C1470 C1471 1.362 . S
C1471 H1461 0.930 . S
C1471 C1464 1.409 . S
C1471 C1470 1.362 . S
H1472 C1478 0.930 . S
H1473 C1481 0.930 . S
H1474 C1482 0.930 . S
H1475 C1483 0.930 . S
H1476 C1486 0.930 . S
H1477 C1487 0.930 . S
C1478 H1472 0.930 . S
C1478 C1479 1.355 . S
C1478 C1480 1.415 . S
C1479 C1478 1.355 . S
C1479 C1481 1.419 . S
C1480 C1478 1.415 . S
C1480 C1485 1.425 . S
C1480 C1487 1.409 . S
C1481 H1473 0.930 . S
C1481 C1479 1.419 . S
C1481 C1482 1.362 . S
C1482 H1474 0.930 . S
C1482 C1481 1.362 . S
C1482 C1485 1.409 . S
C1483 H1475 0.930 . S
C1483 C1484 1.355 . S
C1483 C1485 1.415 . S
C1484 C1483 1.355 . S
C1484 C1486 1.419 . S
C1485 C1480 1.425 . S
C1485 C1482 1.409 . S
C1485 C1483 1.415 . S
C1486 H1476 0.930 . S
C1486 C1484 1.419 . S
C1486 C1487 1.362 . S
C1487 H1477 0.930 . S
C1487 C1480 1.409 . S
C1487 C1486 1.362 . S
H1488 C1494 0.930 . S
H1489 C1497 0.930 . S
H1490 C1498 0.930 . S
H1491 C1499 0.930 . S
H1492 C1502 0.930 . S
H1493 C1503 0.930 . S
C1494 H1488 0.930 . S
C1494 C1495 1.355 . S
C1494 C1496 1.415 . S
C1495 C1494 1.355 . S
C1495 C1497 1.419 . S
C1496 C1494 1.415 . S
C1496 C1501 1.425 . S
C1496 C1503 1.409 . S
C1497 H1489 0.930 . S
C1497 C1495 1.419 . S
C1497 C1498 1.362 . S
C1498 H1490 0.930 . S
C1498 C1497 1.362 . S
C1498 C1501 1.409 . S
C1499 H1491 0.930 . S
C1499 C1500 1.355 . S
C1499 C1501 1.415 . S
C1500 C1499 1.355 . S
C1500 C1502 1.419 . S
C1501 C1496 1.425 . S
C1501 C1498 1.409 . S
C1501 C1499 1.415 . S
C1502 H1492 0.930 . S
C1502 C1500 1.419 . S
C1502 C1503 1.362 . S
C1503 H1493 0.930 . S
C1503 C1496 1.409 . S
C1503 C1502 1.362 . S
H1504 C1510 0.930 . S
H1505 C1513 0.930 . S
H1506 C1514 0.930 . S
H1507 C1515 0.930 . S
H1508 C1518 0.930 . S
H1509 C1519 0.930 . S
C1510 H1504 0.930 . S
C1510 C1511 1.355 . S
C1510 C1512 1.415 . S
C1511 C1510 1.355 . S
C1511 C1513 1.419 . S
C1512 C1510 1.415 . S
C1512 C1517 1.425 . S
C1512 C1519 1.409 . S
C1513 H1505 0.930 . S
C1513 C1511 1.419 . S
C1513 C1514 1.362 . S
C1514 H1506 0.930 . S
C1514 C1513 1.362 . S
C1514 C1517 1.409 . S
C1515 H1507 0.930 . S
C1515 C1516 1.355 . S
C1515 C1517 1.415 . S
C1516 C1515 1.355 . S
C1516 C1518 1.419 . S
C1517 C1512 1.425 . S
C1517 C1514 1.409 . S
C1517 C1515 1.415 . S
C1518 H1508 0.930 . S
C1518 C1516 1.419 . S
C1518 C1519 1.362 . S
C1519 H1509 0.930 . S
C1519 C1512 1.409 . S
C1519 C1518 1.362 . S
H1520 C1526 0.930 . S
H1521 C1529 0.930 . S
H1522 C1530 0.930 . S
H1523 C1531 0.930 . S
H1524 C1534 0.930 . S
H1525 C1535 0.930 . S
C1526 H1520 0.930 . S
C1526 C1527 1.355 . S
C1526 C1528 1.415 . S
C1527 C1526 1.355 . S
C1527 C1529 1.419 . S
C1528 C1526 1.415 . S
C1528 C1533 1.425 . S
C1528 C1535 1.409 . S
C1529 H1521 0.930 . S
C1529 C1527 1.419 . S
C1529 C1530 1.362 . S
C1530 H1522 0.930 . S
C1530 C1529 1.362 . S
C1530 C1533 1.409 . S
C1531 H1523 0.930 . S
C1531 C1532 1.355 . S
C1531 C1533 1.415 . S
C1532 C1531 1.355 . S
C1532 C1534 1.419 . S
C1533 C1528 1.425 . S
C1533 C1530 1.409 . S
C1533 C1531 1.415 . S
C1534 H1524 0.930 . S
C1534 C1532 1.419 . S
C1534 C1535 1.362 . S
C1535 H1525 0.930 . S
C1535 C1528 1.409 . S
C1535 C1534 1.362 . S
H1536 C1542 0.930 . S
H1537 C1545 0.930 . S
H1538 C1546 0.930 . S
H1539 C1547 0.930 . S
H1540 C1550 0.930 . S
H1541 C1551 0.930 . S
C1542 H1536 0.930 . S
C1542 C1543 1.355 . S
C1542 C1544 1.415 . S
C1543 C1542 1.355 . S
C1543 C1545 1.419 . S
C1544 C1542 1.415 . S
C1544 C1549 1.425 . S
C1544 C1551 1.409 . S
C1545 H1537 0.930 . S
C1545 C1543 1.419 . S
C1545 C1546 1.362 . S
C1546 H1538 0.930 . S
C1546 C1545 1.362 . S
C1546 C1549 1.409 . S
C1547 H1539 0.930 . S
C1547 C1548 1.355 . S
C1547 C1549 1.415 . S
C1548 C1547 1.355 . S
C1548 C1550 1.419 . S
C1549 C1544 1.425 . S
C1549 C1546 1.409 . S
C1549 C1547 1.415 . S
C1550 H1540 0.930 . S
C1550 C1548 1.419 . S
C1550 C1551 1.362 . S
C1551 H1541 0.930 . S
C1551 C1544 1.409 . S
C1551 C1550 1.362 . S
H1552 C1558 0.930 . S
H1553 C1561 0.930 . S
H1554 C1562 0.930 . S
H1555 C1563 0.930 . S
H1556 C1566 0.930 . S
H1557 C1567 0.930 . S
C1558 H1552 0.930 . S
C1558 C1559 1.355 . S
C1558 C1560 1.415 . S
C1559 C1558 1.355 . S
C1559 C1561 1.419 . S
C1560 C1558 1.415 . S
C1560 C1565 1.425 . S
C1560 C1567 1.409 . S
C1561 H1553 0.930 . S
C1561 C1559 1.419 . S
C1561 C1562 1.362 . S
C1562 H1554 0.930 . S
C1562 C1561 1.362 . S
C1562 C1565 1.409 . S
C1563 H1555 0.930 . S
C1563 C1564 1.355 . S
C1563 C1565 1.415 . S
C1564 C1563 1.355 . S
C1564 C1566 1.419 . S
C1565 C1560 1.425 . S
C1565 C1562 1.409 . S
C1565 C1563 1.415 . S
C1566 H1556 0.930 . S
C1566 C1564 1.419 . S
C1566 C1567 1.362 . S
C1567 H1557 0.930 . S
C1567 C1560 1.409 . S
C1567 C1566 1.362 . S
H1568 C1574 0.930 . S
H1569 C1577 0.930 . S
H1570 C1578 0.930 . S
H1571 C1579 0.930 . S
H1572 C1582 0.930 . S
H1573 C1583 0.930 . S
C1574 H1568 0.930 . S
C1574 C1575 1.355 . S
C1574 C1576 1.415 . S
C1575 C1574 1.355 . S
C1575 C1577 1.419 . S
C1576 C1574 1.415 . S
C1576 C1581 1.425 . S
C1576 C1583 1.409 . S
C1577 H1569 0.930 . S
C1577 C1575 1.419 . S
C1577 C1578 1.362 . S
C1578 H1570 0.930 . S
C1578 C1577 1.362 . S
C1578 C1581 1.409 . S
C1579 H1571 0.930 . S
C1579 C1580 1.355 . S
C1579 C1581 1.415 . S
C1580 C1579 1.355 . S
C1580 C1582 1.419 . S
C1581 C1576 1.425 . S
C1581 C1578 1.409 . S
C1581 C1579 1.415 . S
C1582 H1572 0.930 . S
C1582 C1580 1.419 . S
C1582 C1583 1.362 . S
C1583 H1573 0.930 . S
C1583 C1576 1.409 . S
C1583 C1582 1.362 . S
H1584 C1590 0.930 . S
H1585 C1593 0.930 . S
H1586 C1594 0.930 . S
H1587 C1595 0.930 . S
H1588 C1598 0.930 . S
H1589 C1599 0.930 . S
C1590 H1584 0.930 . S
C1590 C1591 1.355 . S
C1590 C1592 1.415 . S
C1591 C1590 1.355 . S
C1591 C1593 1.419 . S
C1592 C1590 1.415 . S
C1592 C1597 1.425 . S
C1592 C1599 1.409 . S
C1593 H1585 0.930 . S
C1593 C1591 1.419 . S
C1593 C1594 1.362 . S
C1594 H1586 0.930 . S
C1594 C1593 1.362 . S
C1594 C1597 1.409 . S
C1595 H1587 0.930 . S
C1595 C1596 1.355 . S
C1595 C1597 1.415 . S
C1596 C1595 1.355 . S
C1596 C1598 1.419 . S
C1597 C1592 1.425 . S
C1597 C1594 1.409 . S
C1597 C1595 1.415 . S
C1598 H1588 0.930 . S
C1598 C1596 1.419 . S
C1598 C1599 1.362 . S
C1599 H1589 0.930 . S
C1599 C1592 1.409 . S
C1599 C1598 1.362 . S
H1600 C1606 0.930 . S
H1601 C1609 0.930 . S
H1602 C1610 0.930 . S
H1603 C1611 0.930 . S
H1604 C1614 0.930 . S
H1605 C1615 0.930 . S
C1606 H1600 0.930 . S
C1606 C1607 1.355 . S
C1606 C1608 1.415 . S
C1607 C1606 1.355 . S
C1607 C1609 1.419 . S
C1608 C1606 1.415 . S
C1608 C1613 1.425 . S
C1608 C1615 1.409 . S
C1609 H1601 0.930 . S
C1609 C1607 1.419 . S
C1609 C1610 1.362 . S
C1610 H1602 0.930 . S
C1610 C1609 1.362 . S
C1610 C1613 1.409 . S
C1611 H1603 0.930 . S
C1611 C1612 1.355 . S
C1611 C1613 1.415 . S
C1612 C1611 1.355 . S
C1612 C1614 1.419 . S
C1613 C1608 1.425 . S
C1613 C1610 1.409 . S
C1613 C1611 1.415 . S
C1614 H1604 0.930 . S
C1614 C1612 1.419 . S
C1614 C1615 1.362 . S
C1615 H1605 0.930 . S
C1615 C1608 1.409 . S
C1615 C1614 1.362 . S
H1616 C1622 0.930 . S
H1617 C1625 0.930 . S
H1618 C1626 0.930 . S
H1619 C1627 0.930 . S
H1620 C1630 0.930 . S
H1621 C1631 0.930 . S
C1622 H1616 0.930 . S
C1622 C1623 1.355 . S
C1622 C1624 1.415 . S
C1623 C1622 1.355 . S
C1623 C1625 1.419 . S
C1624 C1622 1.415 . S
C1624 C1629 1.425 . S
C1624 C1631 1.409 . S
C1625 H1617 0.930 . S
C1625 C1623 1.419 . S
C1625 C1626 1.362 . S
C1626 H1618 0.930 . S
C1626 C1625 1.362 . S
C1626 C1629 1.409 . S
C1627 H1619 0.930 . S
C1627 C1628 1.355 . S
C1627 C1629 1.415 . S
C1628 C1627 1.355 . S
C1628 C1630 1.419 . S
C1629 C1624 1.425 . S
C1629 C1626 1.409 . S
C1629 C1627 1.415 . S
C1630 H1620 0.930 . S
C1630 C1628 1.419 . S
C1630 C1631 1.362 . S
C1631 H1621 0.930 . S
C1631 C1624 1.409 . S
C1631 C1630 1.362 . S
H1632 C1638 0.930 . S
H1633 C1641 0.930 . S
H1634 C1642 0.930 . S
H1635 C1643 0.930 . S
H1636 C1646 0.930 . S
H1637 C1647 0.930 . S
C1638 H1632 0.930 . S
C1638 C1639 1.355 . S
C1638 C1640 1.415 . S
C1639 C1638 1.355 . S
C1639 C1641 1.419 . S
C1640 C1638 1.415 . S
C1640 C1645 1.425 . S
C1640 C1647 1.409 . S
C1641 H1633 0.930 . S
C1641 C1639 1.419 . S
C1641 C1642 1.362 . S
C1642 H1634 0.930 . S
C1642 C1641 1.362 . S
C1642 C1645 1.409 . S
C1643 H1635 0.930 . S
C1643 C1644 1.355 . S
C1643 C1645 1.415 . S
C1644 C1643 1.355 . S
C1644 C1646 1.419 . S
C1645 C1640 1.425 . S
C1645 C1642 1.409 . S
C1645 C1643 1.415 . S
C1646 H1636 0.930 . S
C1646 C1644 1.419 . S
C1646 C1647 1.362 . S
C1647 H1637 0.930 . S
C1647 C1640 1.409 . S
C1647 C1646 1.362 . S
H1648 C1654 0.930 . S
H1649 C1657 0.930 . S
H1650 C1658 0.930 . S
H1651 C1659 0.930 . S
H1652 C1662 0.930 . S
H1653 C1663 0.930 . S
C1654 H1648 0.930 . S
C1654 C1655 1.355 . S
C1654 C1656 1.415 . S
C1655 C1654 1.355 . S
C1655 C1657 1.419 . S
C1656 C1654 1.415 . S
C1656 C1661 1.425 . S
C1656 C1663 1.409 . S
C1657 H1649 0.930 . S
C1657 C1655 1.419 . S
C1657 C1658 1.362 . S
C1658 H1650 0.930 . S
C1658 C1657 1.362 . S
C1658 C1661 1.409 . S
C1659 H1651 0.930 . S
C1659 C1660 1.355 . S
C1659 C1661 1.415 . S
C1660 C1659 1.355 . S
C1660 C1662 1.419 . S
C1661 C1656 1.425 . S
C1661 C1658 1.409 . S
C1661 C1659 1.415 . S
C1662 H1652 0.930 . S
C1662 C1660 1.419 . S
C1662 C1663 1.362 . S
C1663 H1653 0.930 . S
C1663 C1656 1.409 . S
C1663 C1662 1.362 . S
H1664 C1670 0.930 . S
H1665 C1673 0.930 . S
H1666 C1674 0.930 . S
H1667 C1675 0.930 . S
H1668 C1678 0.930 . S
H1669 C1679 0.930 . S
C1670 H1664 0.930 . S
C1670 C1671 1.355 . S
C1670 C1672 1.415 . S
C1671 C1670 1.355 . S
C1671 C1673 1.419 . S
C1672 C1670 1.415 . S
C1672 C1677 1.425 . S
C1672 C1679 1.409 . S
C1673 H1665 0.930 . S
C1673 C1671 1.419 . S
C1673 C1674 1.362 . S
C1674 H1666 0.930 . S
C1674 C1673 1.362 . S
C1674 C1677 1.409 . S
C1675 H1667 0.930 . S
C1675 C1676 1.355 . S
C1675 C1677 1.415 . S
C1676 C1675 1.355 . S
C1676 C1678 1.419 . S
C1677 C1672 1.425 . S
C1677 C1674 1.409 . S
C1677 C1675 1.415 . S
C1678 H1668 0.930 . S
C1678 C1676 1.419 . S
C1678 C1679 1.362 . S
C1679 H1669 0.930 . S
C1679 C1672 1.409 . S
C1679 C1678 1.362 . S
H1680 C1686 0.930 . S
H1681 C1689 0.930 . S
H1682 C1690 0.930 . S
H1683 C1691 0.930 . S
H1684 C1694 0.930 . S
H1685 C1695 0.930 . S
C1686 H1680 0.930 . S
C1686 C1687 1.355 . S
C1686 C1688 1.415 . S
C1687 C1686 1.355 . S
C1687 C1689 1.419 . S
C1688 C1686 1.415 . S
C1688 C1693 1.425 . S
C1688 C1695 1.409 . S
C1689 H1681 0.930 . S
C1689 C1687 1.419 . S
C1689 C1690 1.362 . S
C1690 H1682 0.930 . S
C1690 C1689 1.362 . S
C1690 C1693 1.409 . S
C1691 H1683 0.930 . S
C1691 C1692 1.355 . S
C1691 C1693 1.415 . S
C1692 C1691 1.355 . S
C1692 C1694 1.419 . S
C1693 C1688 1.425 . S
C1693 C1690 1.409 . S
C1693 C1691 1.415 . S
C1694 H1684 0.930 . S
C1694 C1692 1.419 . S
C1694 C1695 1.362 . S
C1695 H1685 0.930 . S
C1695 C1688 1.409 . S
C1695 C1694 1.362 . S
H1696 C1702 0.930 . S
H1697 C1705 0.930 . S
H1698 C1706 0.930 . S
H1699 C1707 0.930 . S
H1700 C1710 0.930 . S
H1701 C1711 0.930 . S
C1702 H1696 0.930 . S
C1702 C1703 1.355 . S
C1702 C1704 1.415 . S
C1703 C1702 1.355 . S
C1703 C1705 1.419 . S
C1704 C1702 1.415 . S
C1704 C1709 1.425 . S
C1704 C1711 1.409 . S
C1705 H1697 0.930 . S
C1705 C1703 1.419 . S
C1705 C1706 1.362 . S
C1706 H1698 0.930 . S
C1706 C1705 1.362 . S
C1706 C1709 1.409 . S
C1707 H1699 0.930 . S
C1707 C1708 1.355 . S
C1707 C1709 1.415 . S
C1708 C1707 1.355 . S
C1708 C1710 1.419 . S
C1709 C1704 1.425 . S
C1709 C1706 1.409 . S
C1709 C1707 1.415 . S
C1710 H1700 0.930 . S
C1710 C1708 1.419 . S
C1710 C1711 1.362 . S
C1711 H1701 0.930 . S
C1711 C1704 1.409 . S
C1711 C1710 1.362 . S
H1712 C1718 0.930 . S
H1713 C1721 0.930 . S
H1714 C1722 0.930 . S
H1715 C1723 0.930 . S
H1716 C1726 0.930 . S
H1717 C1727 0.930 . S
C1718 H1712 0.930 . S
C1718 C1719 1.355 . S
C1718 C1720 1.415 . S
C1719 C1718 1.355 . S
C1719 C1721 1.419 . S
C1720 C1718 1.415 . S
C1720 C1725 1.425 . S
C1720 C1727 1.409 . S
C1721 H1713 0.930 . S
C1721 C1719 1.419 . S
C1721 C1722 1.362 . S
C1722 H1714 0.930 . S
C1722 C1721 1.362 . S
C1722 C1725 1.409 . S
C1723 H1715 0.930 . S
C1723 C1724 1.355 . S
C1723 C1725 1.415 . S
C1724 C1723 1.355 . S
C1724 C1726 1.419 . S
C1725 C1720 1.425 . S
C1725 C1722 1.409 . S
C1725 C1723 1.415 . S
C1726 H1716 0.930 . S
C1726 C1724 1.419 . S
C1726 C1727 1.362 . S
C1727 H1717 0.930 . S
C1727 C1720 1.409 . S
C1727 C1726 1.362 . S
H1728 C1734 0.930 . S
H1729 C1737 0.930 . S
H1730 C1738 0.930 . S
H1731 C1739 0.930 . S
H1732 C1742 0.930 . S
H1733 C1743 0.930 . S
C1734 H1728 0.930 . S
C1734 C1735 1.355 . S
C1734 C1736 1.415 . S
C1735 C1734 1.355 . S
C1735 C1737 1.419 . S
C1736 C1734 1.415 . S
C1736 C1741 1.425 . S
C1736 C1743 1.409 . S
C1737 H1729 0.930 . S
C1737 C1735 1.419 . S
C1737 C1738 1.362 . S
C1738 H1730 0.930 . S
C1738 C1737 1.362 . S
C1738 C1741 1.409 . S
C1739 H1731 0.930 . S
C1739 C1740 1.355 . S
C1739 C1741 1.415 . S
C1740 C1739 1.355 . S
C1740 C1742 1.419 . S
C1741 C1736 1.425 . S
C1741 C1738 1.409 . S
C1741 C1739 1.415 . S
C1742 H1732 0.930 . S
C1742 C1740 1.419 . S
C1742 C1743 1.362 . S
C1743 H1733 0.930 . S
C1743 C1736 1.409 . S
C1743 C1742 1.362 . S
H1744 C1750 0.930 . S
H1745 C1753 0.930 . S
H1746 C1754 0.930 . S
H1747 C1755 0.930 . S
H1748 C1758 0.930 . S
H1749 C1759 0.930 . S
C1750 H1744 0.930 . S
C1750 C1751 1.355 . S
C1750 C1752 1.415 . S
C1751 C1750 1.355 . S
C1751 C1753 1.419 . S
C1752 C1750 1.415 . S
C1752 C1757 1.425 . S
C1752 C1759 1.409 . S
C1753 H1745 0.930 . S
C1753 C1751 1.419 . S
C1753 C1754 1.362 . S
C1754 H1746 0.930 . S
C1754 C1753 1.362 . S
C1754 C1757 1.409 . S
C1755 H1747 0.930 . S
C1755 C1756 1.355 . S
C1755 C1757 1.415 . S
C1756 C1755 1.355 . S
C1756 C1758 1.419 . S
C1757 C1752 1.425 . S
C1757 C1754 1.409 . S
C1757 C1755 1.415 . S
C1758 H1748 0.930 . S
C1758 C1756 1.419 . S
C1758 C1759 1.362 . S
C1759 H1749 0.930 . S
C1759 C1752 1.409 . S
C1759 C1758 1.362 . S
H1760 C1766 0.930 . S
H1761 C1769 0.930 . S
H1762 C1770 0.930 . S
H1763 C1771 0.930 . S
H1764 C1774 0.930 . S
H1765 C1775 0.930 . S
C1766 H1760 0.930 . S
C1766 C1767 1.355 . S
C1766 C1768 1.415 . S
C1767 C1766 1.355 . S
C1767 C1769 1.419 . S
C1768 C1766 1.415 . S
C1768 C1773 1.425 . S
C1768 C1775 1.409 . S
C1769 H1761 0.930 . S
C1769 C1767 1.419 . S
C1769 C1770 1.362 . S
C1770 H1762 0.930 . S
C1770 C1769 1.362 . S
C1770 C1773 1.409 . S
C1771 H1763 0.930 . S
C1771 C1772 1.355 . S
C1771 C1773 1.415 . S
C1772 C1771 1.355 . S
C1772 C1774 1.419 . S
C1773 C1768 1.425 . S
C1773 C1770 1.409 . S
C1773 C1771 1.415 . S
C1774 H1764 0.930 . S
C1774 C1772 1.419 . S
C1774 C1775 1.362 . S
C1775 H1765 0.930 . S
C1775 C1768 1.409 . S
C1775 C1774 1.362 . S
H1776 C1782 0.930 . S
H1777 C1785 0.930 . S
H1778 C1786 0.930 . S
H1779 C1787 0.930 . S
H1780 C1790 0.930 . S
H1781 C1791 0.930 . S
C1782 H1776 0.930 . S
C1782 C1783 1.355 . S
C1782 C1784 1.415 . S
C1783 C1782 1.355 . S
C1783 C1785 1.419 . S
C1784 C1782 1.415 . S
C1784 C1789 1.425 . S
C1784 C1791 1.409 . S
C1785 H1777 0.930 . S
C1785 C1783 1.419 . S
C1785 C1786 1.362 . S
C1786 H1778 0.930 . S
C1786 C1785 1.362 . S
C1786 C1789 1.409 . S
C1787 H1779 0.930 . S
C1787 C1788 1.355 . S
C1787 C1789 1.415 . S
C1788 C1787 1.355 . S
C1788 C1790 1.419 . S
C1789 C1784 1.425 . S
C1789 C1786 1.409 . S
C1789 C1787 1.415 . S
C1790 H1780 0.930 . S
C1790 C1788 1.419 . S
C1790 C1791 1.362 . S
C1791 H1781 0.930 . S
C1791 C1784 1.409 . S
C1791 C1790 1.362 . S
H1792 C1798 0.930 . S
H1793 C1801 0.930 . S
H1794 C1802 0.930 . S
H1795 C1803 0.930 . S
H1796 C1806 0.930 . S
H1797 C1807 0.930 . S
C1798 H1792 0.930 . S
C1798 C1799 1.355 . S
C1798 C1800 1.415 . S
C1799 C1798 1.355 . S
C1799 C1801 1.419 . S
C1800 C1798 1.415 . S
C1800 C1805 1.425 . S
C1800 C1807 1.409 . S
C1801 H1793 0.930 . S
C1801 C1799 1.419 . S
C1801 C1802 1.362 . S
C1802 H1794 0.930 . S
C1802 C1801 1.362 . S
C1802 C1805 1.409 . S
C1803 H1795 0.930 . S
C1803 C1804 1.355 . S
C1803 C1805 1.415 . S
C1804 C1803 1.355 . S
C1804 C1806 1.419 . S
C1805 C1800 1.425 . S
C1805 C1802 1.409 . S
C1805 C1803 1.415 . S
C1806 H1796 0.930 . S
C1806 C1804 1.419 . S
C1806 C1807 1.362 . S
C1807 H1797 0.930 . S
C1807 C1800 1.409 . S
C1807 C1806 1.362 . S
H1808 C1814 0.930 . S
H1809 C1817 0.930 . S
H1810 C1818 0.930 . S
H1811 C1819 0.930 . S
H1812 C1822 0.930 . S
H1813 C1823 0.930 . S
C1814 H1808 0.930 . S
C1814 C1815 1.355 . S
C1814 C1816 1.415 . S
C1815 C1814 1.355 . S
C1815 C1817 1.419 . S
C1816 C1814 1.415 . S
C1816 C1821 1.425 . S
C1816 C1823 1.409 . S
C1817 H1809 0.930 . S
C1817 C1815 1.419 . S
C1817 C1818 1.362 . S
C1818 H1810 0.930 . S
C1818 C1817 1.362 . S
C1818 C1821 1.409 . S
C1819 H1811 0.930 . S
C1819 C1820 1.355 . S
C1819 C1821 1.415 . S
C1820 C1819 1.355 . S
C1820 C1822 1.419 . S
C1821 C1816 1.425 . S
C1821 C1818 1.409 . S
C1821 C1819 1.415 . S
C1822 H1812 0.930 . S
C1822 C1820 1.419 . S
C1822 C1823 1.362 . S
C1823 H1813 0.930 . S
C1823 C1816 1.409 . S
C1823 C1822 1.362 . S
H1824 C1830 0.930 . S
H1825 C1833 0.930 . S
H1826 C1834 0.930 . S
H1827 C1835 0.930 . S
H1828 C1838 0.930 . S
H1829 C1839 0.930 . S
C1830 H1824 0.930 . S
C1830 C1831 1.355 . S
C1830 C1832 1.415 . S
C1831 C1830 1.355 . S
C1831 C1833 1.419 . S
C1832 C1830 1.415 . S
C1832 C1837 1.425 . S
C1832 C1839 1.409 . S
C1833 H1825 0.930 . S
C1833 C1831 1.419 . S
C1833 C1834 1.362 . S
C1834 H1826 0.930 . S
C1834 C1833 1.362 . S
C1834 C1837 1.409 . S
C1835 H1827 0.930 . S
C1835 C1836 1.355 . S
C1835 C1837 1.415 . S
C1836 C1835 1.355 . S
C1836 C1838 1.419 . S
C1837 C1832 1.425 . S
C1837 C1834 1.409 . S
C1837 C1835 1.415 . S
C1838 H1828 0.930 . S
C1838 C1836 1.419 . S
C1838 C1839 1.362 . S
C1839 H1829 0.930 . S
C1839 C1832 1.409 . S
C1839 C1838 1.362 . S
H1840 C1846 0.930 . S
H1841 C1849 0.930 . S
H1842 C1850 0.930 . S
H1843 C1851 0.930 . S
H1844 C1854 0.930 . S
H1845 C1855 0.930 . S
C1846 H1840 0.930 . S
C1846 C1847 1.355 . S
C1846 C1848 1.415 . S
C1847 C1846 1.355 . S
C1847 C1849 1.419 . S
C1848 C1846 1.415 . S
C1848 C1853 1.425 . S
C1848 C1855 1.409 . S
C1849 H1841 0.930 . S
C1849 C1847 1.419 . S
C1849 C1850 1.362 . S
C1850 H1842 0.930 . S
C1850 C1849 1.362 . S
C1850 C1853 1.409 . S
C1851 H1843 0.930 . S
C1851 C1852 1.355 . S
C1851 C1853 1.415 . S
C1852 C1851 1.355 . S
C1852 C1854 1.419 . S
C1853 C1848 1.425 . S
C1853 C1850 1.409 . S
C1853 C1851 1.415 . S
C1854 H1844 0.930 . S
C1854 C1852 1.419 . S
C1854 C1855 1.362 . S
C1855 H1845 0.930 . S
C1855 C1848 1.409 . S
C1855 C1854 1.362 . S
H1856 C1862 0.930 . S
H1857 C1865 0.930 . S
H1858 C1866 0.930 . S
H1859 C1867 0.930 . S
H1860 C1870 0.930 . S
H1861 C1871 0.930 . S
C1862 H1856 0.930 . S
C1862 C1863 1.355 . S
C1862 C1864 1.415 . S
C1863 C1862 1.355 . S
C1863 C1865 1.419 . S
C1864 C1862 1.415 . S
C1864 C1869 1.425 . S
C1864 C1871 1.409 . S
C1865 H1857 0.930 . S
C1865 C1863 1.419 . S
C1865 C1866 1.362 . S
C1866 H1858 0.930 . S
C1866 C1865 1.362 . S
C1866 C1869 1.409 . S
C1867 H1859 0.930 . S
C1867 C1868 1.355 . S
C1867 C1869 1.415 . S
C1868 C1867 1.355 . S
C1868 C1870 1.419 . S
C1869 C1864 1.425 . S
C1869 C1866 1.409 . S
C1869 C1867 1.415 . S
C1870 H1860 0.930 . S
C1870 C1868 1.419 . S
C1870 C1871 1.362 . S
C1871 H1861 0.930 . S
C1871 C1864 1.409 . S
C1871 C1870 1.362 . S
H1872 C1878 0.930 . S
H1873 C1881 0.930 . S
H1874 C1882 0.930 . S
H1875 C1883 0.930 . S
H1876 C1886 0.930 . S
H1877 C1887 0.930 . S
C1878 H1872 0.930 . S
C1878 C1879 1.355 . S
C1878 C1880 1.415 . S
C1879 C1878 1.355 . S
C1879 C1881 1.419 . S
C1880 C1878 1.415 . S
C1880 C1885 1.425 . S
C1880 C1887 1.409 . S
C1881 H1873 0.930 . S
C1881 C1879 1.419 . S
C1881 C1882 1.362 . S
C1882 H1874 0.930 . S
C1882 C1881 1.362 . S
C1882 C1885 1.409 . S
C1883 H1875 0.930 . S
C1883 C1884 1.355 . S
C1883 C1885 1.415 . S
C1884 C1883 1.355 . S
C1884 C1886 1.419 . S
C1885 C1880 1.425 . S
C1885 C1882 1.409 . S
C1885 C1883 1.415 . S
C1886 H1876 0.930 . S
C1886 C1884 1.419 . S
C1886 C1887 1.362 . S
C1887 H1877 0.930 . S
C1887 C1880 1.409 . S
C1887 C1886 1.362 . S
H1888 C1894 0.930 . S
H1889 C1897 0.930 . S
H1890 C1898 0.930 . S
H1891 C1899 0.930 . S
H1892 C1902 0.930 . S
H1893 C1903 0.930 . S
C1894 H1888 0.930 . S
C1894 C1895 1.355 . S
C1894 C1896 1.415 . S
C1895 C1894 1.355 . S
C1895 C1897 1.419 . S
C1896 C1894 1.415 . S
C1896 C1901 1.425 . S
C1896 C1903 1.409 . S
C1897 H1889 0.930 . S
C1897 C1895 1.419 . S
C1897 C1898 1.362 . S
C1898 H1890 0.930 . S
C1898 C1897 1.362 . S
C1898 C1901 1.409 . S
C1899 H1891 0.930 . S
C1899 C1900 1.355 . S
C1899 C1901 1.415 . S
C1900 C1899 1.355 . S
C1900 C1902 1.419 . S
C1901 C1896 1.425 . S
C1901 C1898 1.409 . S
C1901 C1899 1.415 . S
C1902 H1892 0.930 . S
C1902 C1900 1.419 . S
C1902 C1903 1.362 . S
C1903 H1893 0.930 . S
C1903 C1896 1.409 . S
C1903 C1902 1.362 . S
H1904 C1910 0.930 . S
H1905 C1913 0.930 . S
H1906 C1914 0.930 . S
H1907 C1915 0.930 . S
H1908 C1918 0.930 . S
H1909 C1919 0.930 . S
C1910 H1904 0.930 . S
C1910 C1911 1.355 . S
C1910 C1912 1.415 . S
C1911 C1910 1.355 . S
C1911 C1913 1.419 . S
C1912 C1910 1.415 . S
C1912 C1917 1.425 . S
C1912 C1919 1.409 . S
C1913 H1905 0.930 . S
C1913 C1911 1.419 . S
C1913 C1914 1.362 . S
C1914 H1906 0.930 . S
C1914 C1913 1.362 . S
C1914 C1917 1.409 . S
C1915 H1907 0.930 . S
C1915 C1916 1.355 . S
C1915 C1917 1.415 . S
C1916 C1915 1.355 . S
C1916 C1918 1.419 . S
C1917 C1912 1.425 . S
C1917 C1914 1.409 . S
C1917 C1915 1.415 . S
C1918 H1908 0.930 . S
C1918 C1916 1.419 . S
C1918 C1919 1.362 . S
C1919 H1909 0.930 . S
C1919 C1912 1.409 . S
C1919 C1918 1.362 . S
H1920 C1926 0.930 . S
H1921 C1929 0.930 . S
H1922 C1930 0.930 . S
H1923 C1931 0.930 . S
H1924 C1934 0.930 . S
H1925 C1935 0.930 . S
C1926 H1920 0.930 . S
C1926 C1927 1.355 . S
C1926 C1928 1.415 . S
C1927 C1926 1.355 . S
C1927 C1929 1.419 . S
C1928 C1926 1.415 . S
C1928 C1933 1.425 . S
C1928 C1935 1.409 . S
C1929 H1921 0.930 . S
C1929 C1927 1.419 . S
C1929 C1930 1.362 . S
C1930 H1922 0.930 . S
C1930 C1929 1.362 . S
C1930 C1933 1.409 . S
C1931 H1923 0.930 . S
C1931 C1932 1.355 . S
C1931 C1933 1.415 . S
C1932 C1931 1.355 . S
C1932 C1934 1.419 . S
C1933 C1928 1.425 . S
C1933 C1930 1.409 . S
C1933 C1931 1.415 . S
C1934 H1924 0.930 . S
C1934 C1932 1.419 . S
C1934 C1935 1.362 . S
C1935 H1925 0.930 . S
C1935 C1928 1.409 . S
C1935 C1934 1.362 . S
H1936 C1942 0.930 . S
H1937 C1945 0.930 . S
H1938 C1946 0.930 . S
H1939 C1947 0.930 . S
H1940 C1950 0.930 . S
H1941 C1951 0.930 . S
C1942 H1936 0.930 . S
C1942 C1943 1.355 . S
C1942 C1944 1.415 . S
C1943 C1942 1.355 . S
C1943 C1945 1.419 . S
C1944 C1942 1.415 . S
C1944 C1949 1.425 . S
C1944 C1951 1.409 . S
C1945 H1937 0.930 . S
C1945 C1943 1.419 . S
C1945 C1946 1.362 . S
C1946 H1938 0.930 . S
C1946 C1945 1.362 . S
C1946 C1949 1.409 . S
C1947 H1939 0.930 . S
C1947 C1948 1.355 . S
C1947 C1949 1.415 . S
C1948 C1947 1.355 . S
C1948 C1950 1.419 . S
C1949 C1944 1.425 . S
C1949 C1946 1.409 . S
C1949 C1947 1.415 . S
C1950 H1940 0.930 . S
C1950 C1948 1.419 . S
C1950 C1951 1.362 . S
C1951 H1941 0.930 . S
C1951 C1944 1.409 . S
C1951 C1950 1.362 . S
H1952 C1958 0.930 . S
H1953 C1961 0.930 . S
H1954 C1962 0.930 . S
H1955 C1963 0.930 . S
H1956 C1966 0.930 . S
H1957 C1967 0.930 . S
C1958 H1952 0.930 . S
C1958 C1959 1.355 . S
C1958 C1960 1.415 . S
C1959 C1958 1.355 . S
C1959 C1961 1.419 . S
C1960 C1958 1.415 . S
C1960 C1965 1.425 . S
C1960 C1967 1.409 . S
C1961 H1953 0.930 . S
C1961 C1959 1.419 . S
C1961 C1962 1.362 . S
C1962 H1954 0.930 . S
C1962 C1961 1.362 . S
C1962 C1965 1.409 . S
C1963 H1955 0.930 . S
C1963 C1964 1.355 . S
C1963 C1965 1.415 . S
C1964 C1963 1.355 . S
C1964 C1966 1.419 . S
C1965 C1960 1.425 . S
C1965 C1962 1.409 . S
C1965 C1963 1.415 . S
C1966 H1956 0.930 . S
C1966 C1964 1.419 . S
C1966 C1967 1.362 . S
C1967 H1957 0.930 . S
C1967 C1960 1.409 . S
C1967 C1966 1.362 . S
H1968 C1974 0.930 . S
H1969 C1977 0.930 . S
H1970 C1978 0.930 . S
H1971 C1979 0.930 . S
H1972 C1982 0.930 . S
H1973 C1983 0.930 . S
C1974 H1968 0.930 . S
C1974 C1975 1.355 . S
C1974 C1976 1.415 . S
C1975 C1974 1.355 . S
C1975 C1977 1.419 . S
C1976 C1974 1.415 . S
C1976 C1981 1.425 . S
C1976 C1983 1.409 . S
C1977 H1969 0.930 . S
C1977 C1975 1.419 . S
C1977 C1978 1.362 . S
C1978 H1970 0.930 . S
C1978 C1977 1.362 . S
C1978 C1981 1.409 . S
C1979 H1971 0.930 . S
C1979 C1980 1.355 . S
C1979 C1981 1.415 . S
C1980 C1979 1.355 . S
C1980 C1982 1.419 . S
C1981 C1976 1.425 . S
C1981 C1978 1.409 . S
C1981 C1979 1.415 . S
C1982 H1972 0.930 . S
C1982 C1980 1.419 . S
C1982 C1983 1.362 . S
C1983 H1973 0.930 . S
C1983 C1976 1.409 . S
C1983 C1982 1.362 . S
H1984 C1990 0.930 . S
H1985 C1993 0.930 . S
H1986 C1994 0.930 . S
H1987 C1995 0.930 . S
H1988 C1998 0.930 . S
H1989 C1999 0.930 . S
C1990 H1984 0.930 . S
C1990 C1991 1.355 . S
C1990 C1992 1.415 . S
C1991 C1990 1.355 . S
C1991 C1993 1.419 . S
C1992 C1990 1.415 . S
C1992 C1997 1.425 . S
C1992 C1999 1.409 . S
C1993 H1985 0.930 . S
C1993 C1991 1.419 . S
C1993 C1994 1.362 . S
C1994 H1986 0.930 . S
C1994 C1993 1.362 . S
C1994 C1997 1.409 . S
C1995 H1987 0.930 . S
C1995 C1996 1.355 . S
C1995 C1997 1.415 . S
C1996 C1995 1.355 . S
C1996 C1998 1.419 . S
C1997 C1992 1.425 . S
C1997 C1994 1.409 . S
C1997 C1995 1.415 . S
C1998 H1988 0.930 . S
C1998 C1996 1.419 . S
C1998 C1999 1.362 . S
C1999 H1989 0.930 . S
C1999 C1992 1.409 . S
C1999 C1998 1.362 . S
H2000 C2006 0.930 . S
H2001 C2009 0.930 . S
H2002 C2010 0.930 . S
H2003 C2011 0.930 . S
H2004 C2014 0.930 . S
H2005 C2015 0.930 . S
C2006 H2000 0.930 . S
C2006 C2007 1.355 . S
C2006 C2008 1.415 . S
C2007 C2006 1.355 . S
C2007 C2009 1.419 . S
C2008 C2006 1.415 . S
C2008 C2013 1.425 . S
C2008 C2015 1.409 . S
C2009 H2001 0.930 . S
C2009 C2007 1.419 . S
C2009 C2010 1.362 . S
C2010 H2002 0.930 . S
C2010 C2009 1.362 . S
C2010 C2013 1.409 . S
C2011 H2003 0.930 . S
C2011 C2012 1.355 . S
C2011 C2013 1.415 . S
C2012 C2011 1.355 . S
C2012 C2014 1.419 . S
C2013 C2008 1.425 . S
C2013 C2010 1.409 . S
C2013 C2011 1.415 . S
C2014 H2004 0.930 . S
C2014 C2012 1.419 . S
C2014 C2015 1.362 . S
C2015 H2005 0.930 . S
C2015 C2008 1.409 . S
C2015 C2014 1.362 . S
H2016 C2022 0.930 . S
H2017 C2025 0.930 . S
H2018 C2026 0.930 . S
H2019 C2027 0.930 . S
H2020 C2030 0.930 . S
H2021 C2031 0.930 . S
C2022 H2016 0.930 . S
C2022 C2023 1.355 . S
C2022 C2024 1.415 . S
C2023 C2022 1.355 . S
C2023 C2025 1.419 . S
C2024 C2022 1.415 . S
C2024 C2029 1.425 . S
C2024 C2031 1.409 . S
C2025 H2017 0.930 . S
C2025 C2023 1.419 . S
C2025 C2026 1.362 . S
C2026 H2018 0.930 . S
C2026 C2025 1.362 . S
C2026 C2029 1.409 . S
C2027 H2019 0.930 . S
C2027 C2028 1.355 . S
C2027 C2029 1.415 . S
C2028 C2027 1.355 . S
C2028 C2030 1.419 . S
C2029 C2024 1.425 . S
C2029 C2026 1.409 . S
C2029 C2027 1.415 . S
C2030 H2020 0.930 . S
C2030 C2028 1.419 . S
C2030 C2031 1.362 . S
C2031 H2021 0.930 . S
C2031 C2024 1.409 . S
C2031 C2030 1.362 . S
H2032 C2038 0.930 . S
H2033 C2041 0.930 . S
H2034 C2042 0.930 . S
H2035 C2043 0.930 . S
H2036 C2046 0.930 . S
H2037 C2047 0.930 . S
C2038 H2032 0.930 . S
C2038 C2039 1.355 . S
C2038 C2040 1.415 . S
C2039 C2038 1.355 . S
C2039 C2041 1.419 . S
C2040 C2038 1.415 . S
C2040 C2045 1.425 . S
C2040 C2047 1.409 . S
C2041 H2033 0.930 . S
C2041 C2039 1.419 . S
C2041 C2042 1.362 . S
C2042 H2034 0.930 . S
C2042 C2041 1.362 . S
C2042 C2045 1.409 . S
C2043 H2035 0.930 . S
C2043 C2044 1.355 . S
C2043 C2045 1.415 . S
C2044 C2043 1.355 . S
C2044 C2046 1.419 . S
C2045 C2040 1.425 . S
C2045 C2042 1.409 . S
C2045 C2043 1.415 . S
C2046 H2036 0.930 . S
C2046 C2044 1.419 . S
C2046 C2047 1.362 . S
C2047 H2037 0.930 . S
C2047 C2040 1.409 . S
C2047 C2046 1.362 . S
H2048 C2054 0.930 . S
H2049 C2057 0.930 . S
H2050 C2058 0.930 . S
H2051 C2059 0.930 . S
H2052 C2062 0.930 . S
H2053 C2063 0.930 . S
C2054 H2048 0.930 . S
C2054 C2055 1.355 . S
C2054 C2056 1.415 . S
C2055 C2054 1.355 . S
C2055 C2057 1.419 . S
C2056 C2054 1.415 . S
C2056 C2061 1.425 . S
C2056 C2063 1.409 . S
C2057 H2049 0.930 . S
C2057 C2055 1.419 . S
C2057 C2058 1.362 . S
C2058 H2050 0.930 . S
C2058 C2057 1.362 . S
C2058 C2061 1.409 . S
C2059 H2051 0.930 . S
C2059 C2060 1.355 . S
C2059 C2061 1.415 . S
C2060 C2059 1.355 . S
C2060 C2062 1.419 . S
C2061 C2056 1.425 . S
C2061 C2058 1.409 . S
C2061 C2059 1.415 . S
C2062 H2052 0.930 . S
C2062 C2060 1.419 . S
C2062 C2063 1.362 . S
C2063 H2053 0.930 . S
C2063 C2056 1.409 . S
C2063 C2062 1.362 . S
H2064 C2070 0.930 . S
H2065 C2073 0.930 . S
H2066 C2074 0.930 . S
H2067 C2075 0.930 . S
H2068 C2078 0.930 . S
H2069 C2079 0.930 . S
C2070 H2064 0.930 . S
C2070 C2071 1.355 . S
C2070 C2072 1.415 . S
C2071 C2070 1.355 . S
C2071 C2073 1.419 . S
C2072 C2070 1.415 . S
C2072 C2077 1.425 . S
C2072 C2079 1.409 . S
C2073 H2065 0.930 . S
C2073 C2071 1.419 . S
C2073 C2074 1.362 . S
C2074 H2066 0.930 . S
C2074 C2073 1.362 . S
C2074 C2077 1.409 . S
C2075 H2067 0.930 . S
C2075 C2076 1.355 . S
C2075 C2077 1.415 . S
C2076 C2075 1.355 . S
C2076 C2078 1.419 . S
C2077 C2072 1.425 . S
C2077 C2074 1.409 . S
C2077 C2075 1.415 . S
C2078 H2068 0.930 . S
C2078 C2076 1.419 . S
C2078 C2079 1.362 . S
C2079 H2069 0.930 . S
C2079 C2072 1.409 . S
C2079 C2078 1.362 . S
H2080 C2086 0.930 . S
H2081 C2089 0.930 . S
H2082 C2090 0.930 . S
H2083 C2091 0.930 . S
H2084 C2094 0.930 . S
H2085 C2095 0.930 . S
C2086 H2080 0.930 . S
C2086 C2087 1.355 . S
C2086 C2088 1.415 . S
C2087 C2086 1.355 . S
C2087 C2089 1.419 . S
C2088 C2086 1.415 . S
C2088 C2093 1.425 . S
C2088 C2095 1.409 . S
C2089 H2081 0.930 . S
C2089 C2087 1.419 . S
C2089 C2090 1.362 . S
C2090 H2082 0.930 . S
C2090 C2089 1.362 . S
C2090 C2093 1.409 . S
C2091 H2083 0.930 . S
C2091 C2092 1.355 . S
C2091 C2093 1.415 . S
C2092 C2091 1.355 . S
C2092 C2094 1.419 . S
C2093 C2088 1.425 . S
C2093 C2090 1.409 . S
C2093 C2091 1.415 . S
C2094 H2084 0.930 . S
C2094 C2092 1.419 . S
C2094 C2095 1.362 . S
C2095 H2085 0.930 . S
C2095 C2088 1.409 . S
C2095 C2094 1.362 . S
H2096 C2102 0.930 . S
H2097 C2105 0.930 . S
H2098 C2106 0.930 . S
H2099 C2107 0.930 . S
H2100 C2110 0.930 . S
H2101 C2111 0.930 . S
C2102 H2096 0.930 . S
C2102 C2103 1.355 . S
C2102 C2104 1.415 . S
C2103 C2102 1.355 . S
C2103 C2105 1.419 . S
C2104 C2102 1.415 . S
C2104 C2109 1.425 . S
C2104 C2111 1.409 . S
C2105 H2097 0.930 . S
C2105 C2103 1.419 . S
C2105 C2106 1.362 . S
C2106 H2098 0.930 . S
C2106 C2105 1.362 . S
C2106 C2109 1.409 . S
C2107 H2099 0.930 . S
C2107 C2108 1.355 . S
C2107 C2109 1.415 . S
C2108 C2107 1.355 . S
C2108 C2110 1.419 . S
C2109 C2104 1.425 . S
C2109 C2106 1.409 . S
C2109 C2107 1.415 . S
C2110 H2100 0.930 . S
C2110 C2108 1.419 . S
C2110 C2111 1.362 . S
C2111 H2101 0.930 . S
C2111 C2104 1.409 . S
C2111 C2110 1.362 . S
H2112 C2118 0.930 . S
H2113 C2121 0.930 . S
H2114 C2122 0.930 . S
H2115 C2123 0.930 . S
H2116 C2126 0.930 . S
H2117 C2127 0.930 . S
C2118 H2112 0.930 . S
C2118 C2119 1.355 . S
C2118 C2120 1.415 . S
C2119 C2118 1.355 . S
C2119 C2121 1.419 . S
C2120 C2118 1.415 . S
C2120 C2125 1.425 . S
C2120 C2127 1.409 . S
C2121 H2113 0.930 . S
C2121 C2119 1.419 . S
C2121 C2122 1.362 . S
C2122 H2114 0.930 . S
C2122 C2121 1.362 . S
C2122 C2125 1.409 . S
C2123 H2115 0.930 . S
C2123 C2124 1.355 . S
C2123 C2125 1.415 . S
C2124 C2123 1.355 . S
C2124 C2126 1.419 . S
C2125 C2120 1.425 . S
C2125 C2122 1.409 . S
C2125 C2123 1.415 . S
C2126 H2116 0.930 . S
C2126 C2124 1.419 . S
C2126 C2127 1.362 . S
C2127 H2117 0.930 . S
C2127 C2120 1.409 . S
C2127 C2126 1.362 . S
H2128 C2134 0.930 . S
H2129 C2137 0.930 . S
H2130 C2138 0.930 . S
H2131 C2139 0.930 . S
H2132 C2142 0.930 . S
H2133 C2143 0.930 . S
C2134 H2128 0.930 . S
C2134 C2135 1.355 . S
C2134 C2136 1.415 . S
C2135 C2134 1.355 . S
C2135 C2137 1.419 . S
C2136 C2134 1.415 . S
C2136 C2141 1.425 . S
C2136 C2143 1.409 . S
C2137 H2129 0.930 . S
C2137 C2135 1.419 . S
C2137 C2138 1.362 . S
C2138 H2130 0.930 . S
C2138 C2137 1.362 . S
C2138 C2141 1.409 . S
C2139 H2131 0.930 . S
C2139 C2140 1.355 . S
C2139 C2141 1.415 . S
C2140 C2139 1.355 . S
C2140 C2142 1.419 . S
C2141 C2136 1.425 . S
C2141 C2138 1.409 . S
C2141 C2139 1.415 . S
C2142 H2132 0.930 . S
C2142 C2140 1.419 . S
C2142 C2143 1.362 . S
C2143 H2133 0.930 . S
C2143 C2136 1.409 . S
C2143 C2142 1.362 . S
H2144 C2150 0.930 . S
H2145 C2153 0.930 . S
H2146 C2154 0.930 . S
H2147 C2155 0.930 . S
H2148 C2158 0.930 . S
H2149 C2159 0.930 . S
C2150 H2144 0.930 . S
C2150 C2151 1.355 . S
C2150 C2152 1.415 . S
C2151 C2150 1.355 . S
C2151 C2153 1.419 . S
C2152 C2150 1.415 . S
C2152 C2157 1.425 . S
C2152 C2159 1.409 . S
C2153 H2145 0.930 . S
C2153 C2151 1.419 . S
C2153 C2154 1.362 . S
C2154 H2146 0.930 . S
C2154 C2153 1.362 . S
C2154 C2157 1.409 . S
C2155 H2147 0.930 . S
C2155 C2156 1.355 . S
C2155 C2157 1.415 . S
C2156 C2155 1.355 . S
C2156 C2158 1.419 . S
C2157 C2152 1.425 . S
C2157 C2154 1.409 . S
C2157 C2155 1.415 . S
C2158 H2148 0.930 . S
C2158 C2156 1.419 . S
C2158 C2159 1.362 . S
C2159 H2149 0.930 . S
C2159 C2152 1.409 . S
C2159 C2158 1.362 . S
C631 C407 1.407 . S
C636 C4 1.421 . S
C647 C23 1.412 . S
C652 C374 1.413 . S
C663 C30 1.413 . S
C668 C387 1.417 . S
C679 C394 1.417 . S
C684 C49 1.412 . S
C695 C335 1.413 . S
C700 C62 1.416 . S
C711 C69 1.407 . S
C716 C342 1.420 . S
C727 C361 1.407 . S
C732 C82 1.419 . S
C743 C95 1.412 . S
C748 C322 1.418 . S
C759 C114 1.409 . S
C764 C582 1.416 . S
C775 C537 1.411 . S
C780 C121 1.418 . S
C791 C556 1.415 . S
C796 C140 1.415 . S
C807 C147 1.412 . S
C812 C563 1.413 . S
C823 C160 1.407 . S
C828 C615 1.419 . S
C839 C179 1.417 . S
C844 C589 1.412 . S
C855 C192 1.414 . S
C860 C602 1.411 . S
C871 C524 1.420 . S
C876 C199 1.407 . S
C887 C511 1.407 . S
C892 C212 1.420 . S
C903 C225 1.408 . S
C908 C433 1.418 . S
C919 C446 1.421 . S
C924 C238 1.407 . S
C935 C257 1.420 . S
C940 C459 1.407 . S
C951 C426 1.411 . S
C956 C270 1.414 . S
C967 C491 1.414 . S
C972 C277 1.416 . S
C983 C296 1.409 . S
C988 C498 1.416 . S
C999 C478 1.407 . S
C1004 C303 1.420 . S
C1015 C127 1.697 . S
C1020 C10 1.697 . S
C1031 C134 1.697 . S
C1036 C17 1.697 . S
C1047 C36 1.697 . S
C1052 C153 1.698 . S
C1063 C108 1.698 . S
C1068 C43 1.697 . S
C1079 C56 1.698 . S
C1084 C205 1.698 . S
C1095 C166 1.697 . S
C1100 C75 1.697 . S
C1111 C173 1.698 . S
C1116 C88 1.698 . S
C1127 C186 1.697 . S
C1132 C101 1.697 . S
C1143 C244 1.698 . S
C1148 C218 1.698 . S
C1159 C290 1.697 . S
C1164 C231 1.698 . S
C1175 C309 1.697 . S
C1180 C251 1.697 . S
C1191 C264 1.698 . S
C1196 C283 1.697 . S
C1207 C439 1.697 . S
C1212 C316 1.697 . S
C1223 C452 1.698 . S
C1228 C329 1.697 . S
C1239 C465 1.697 . S
C1244 C348 1.698 . S
C1255 C355 1.698 . S
C1260 C420 1.697 . S
C1271 C368 1.698 . S
C1276 C517 1.698 . S
C1287 C381 1.698 . S
C1292 C472 1.698 . S
C1303 C485 1.698 . S
C1308 C400 1.698 . S
C1319 C504 1.697 . S
C1324 C413 1.698 . S
C1335 C530 1.698 . S
C1340 C550 1.697 . S
C1351 C608 1.698 . S
C1356 C543 1.698 . S
C1367 C621 1.698 . S
C1372 C569 1.698 . S
C1383 C595 1.697 . S
C1388 C576 1.697 . S
C1399 C3 1.429 . S
C1404 C239 1.427 . S
C1415 C18 1.427 . S
C1420 C250 1.417 . S
C1431 C29 1.428 . S
C1436 C263 1.424 . S
C1447 C226 1.437 . S
C1452 C44 1.435 . S
C1463 C57 1.435 . S
C1468 C289 1.437 . S
C1479 C68 1.434 . S
C1484 C213 1.437 . S
C1495 C304 1.429 . S
C1500 C81 1.432 . S
C1511 C278 1.426 . S
C1516 C94 1.429 . S
C1527 C109 1.425 . S
C1532 C122 1.415 . S
C1543 C120 1.430 . S
C1548 C133 1.430 . S
C1559 C135 1.427 . S
C1564 C148 1.421 . S
C1575 C107 1.424 . S
C1580 C146 1.430 . S
C1591 C200 1.434 . S
C1596 C159 1.432 . S
C1607 C161 1.433 . S
C1612 C174 1.434 . S
C1623 C172 1.424 . S
C1628 C187 1.430 . S
C1639 C198 1.434 . S
C1644 C185 1.433 . S
C1655 C42 1.433 . S
C1660 C211 1.432 . S
C1671 C70 1.433 . S
C1676 C224 1.434 . S
C1687 C83 1.426 . S
C1692 C237 1.429 . S
C1703 C252 1.432 . S
C1708 C96 1.428 . S
C1719 C55 1.430 . S
C1724 C265 1.433 . S
C1735 C16 1.437 . S
C1740 C276 1.434 . S
C1751 C31 1.437 . S
C1756 C291 1.435 . S
C1767 C5 1.425 . S
C1772 C302 1.428 . S
C1783 C549 1.415 . S
C1788 C317 1.425 . S
C1799 C330 1.434 . S
C1804 C564 1.435 . S
C1815 C575 1.420 . S
C1820 C341 1.426 . S
C1831 C538 1.430 . S
C1836 C356 1.433 . S
C1847 C369 1.432 . S
C1852 C603 1.429 . S
C1863 C382 1.425 . S
C1868 C525 1.417 . S
C1879 C616 1.433 . S
C1884 C393 1.432 . S
C1895 C406 1.425 . S
C1900 C590 1.415 . S
C1911 C421 1.425 . S
C1916 C434 1.416 . S
C1927 C432 1.430 . S
C1932 C447 1.423 . S
C1943 C445 1.427 . S
C1948 C460 1.421 . S
C1959 C458 1.425 . S
C1964 C419 1.415 . S
C1975 C512 1.438 . S
C1980 C473 1.435 . S
C1991 C471 1.420 . S
C1996 C486 1.426 . S
C2007 C484 1.425 . S
C2012 C497 1.430 . S
C2023 C510 1.425 . S
C2028 C499 1.415 . S
C2039 C354 1.437 . S
C2044 C523 1.434 . S
C2055 C380 1.416 . S
C2060 C536 1.426 . S
C2071 C395 1.437 . S
C2076 C551 1.435 . S
C2087 C562 1.425 . S
C2092 C408 1.415 . S
C2103 C367 1.430 . S
C2108 C577 1.433 . S
C2119 C328 1.437 . S
C2124 C588 1.434 . S
C2135 C601 1.430 . S
C2140 C343 1.423 . S
C2151 C315 1.431 . S
C2156 C614 1.433 . S
