# Generated by pormake.
# Topology yfg, (5)-cn, num edge types: 1
# Building blocks:
#     Node 0, Type 0, BuildingBlock: XOMCOT_clean_sbu_1, # of connection points: 5
#     Node 1, Type 0, BuildingBlock: XOMCOT_clean_sbu_1, # of connection points: 5
#     Node 2, Type 0, BuildingBlock: XOMCOT_clean_sbu_1, # of connection points: 5
#     Node 3, Type 0, BuildingBlock: XOMCOT_clean_sbu_1, # of connection points: 5
#     Node 4, Type 0, BuildingBlock: XOMCOT_clean_sbu_1, # of connection points: 5
#     Node 5, Type 0, BuildingBlock: XOMCOT_clean_sbu_1, # of connection points: 5
#     Node 6, Type 0, BuildingBlock: XOMCOT_clean_sbu_1, # of connection points: 5
#     Node 7, Type 0, BuildingBlock: XOMCOT_clean_sbu_1, # of connection points: 5
#     Edge 8, Type (0, 0), BuildingBlock: EZIPEK_clean_linker_0, # of connection points: 2
#     Edge 9, Type (0, 0), BuildingBlock: EZIPEK_clean_linker_0, # of connection points: 2
#     Edge 10, Type (0, 0), BuildingBlock: EZIPEK_clean_linker_0, # of connection points: 2
#     Edge 11, Type (0, 0), BuildingBlock: EZIPEK_clean_linker_0, # of connection points: 2
#     Edge 12, Type (0, 0), BuildingBlock: EZIPEK_clean_linker_0, # of connection points: 2
#     Edge 13, Type (0, 0), BuildingBlock: EZIPEK_clean_linker_0, # of connection points: 2
#     Edge 14, Type (0, 0), BuildingBlock: EZIPEK_clean_linker_0, # of connection points: 2
#     Edge 15, Type (0, 0), BuildingBlock: EZIPEK_clean_linker_0, # of connection points: 2
#     Edge 16, Type (0, 0), BuildingBlock: EZIPEK_clean_linker_0, # of connection points: 2
#     Edge 17, Type (0, 0), BuildingBlock: EZIPEK_clean_linker_0, # of connection points: 2
#     Edge 18, Type (0, 0), BuildingBlock: EZIPEK_clean_linker_0, # of connection points: 2
#     Edge 19, Type (0, 0), BuildingBlock: EZIPEK_clean_linker_0, # of connection points: 2
#     Edge 20, Type (0, 0), BuildingBlock: EZIPEK_clean_linker_0, # of connection points: 2
#     Edge 21, Type (0, 0), BuildingBlock: EZIPEK_clean_linker_0, # of connection points: 2
#     Edge 22, Type (0, 0), BuildingBlock: EZIPEK_clean_linker_0, # of connection points: 2
#     Edge 23, Type (0, 0), BuildingBlock: EZIPEK_clean_linker_0, # of connection points: 2
#     Edge 24, Type (0, 0), BuildingBlock: EZIPEK_clean_linker_0, # of connection points: 2
#     Edge 25, Type (0, 0), BuildingBlock: EZIPEK_clean_linker_0, # of connection points: 2
#     Edge 26, Type (0, 0), BuildingBlock: EZIPEK_clean_linker_0, # of connection points: 2
#     Edge 27, Type (0, 0), BuildingBlock: EZIPEK_clean_linker_0, # of connection points: 2
# Relax obj value: 0.433
# Max RMSD: 0.206
# Mean RMSD: 0.206
data_MOF--net-yfg--node1-XOMCOT_clean_sbu_1--edge1-EZIPEK_clean_linker_0
_symmetry_space_group_name_H-M    P1
_symmetry_Int_Tables_number       1
_symmetry_cell_setting            triclinic
loop_
_symmetry_equiv_pos_as_xyz
'x, y, z'
_cell_length_a     26.989364
_cell_length_b     26.553809
_cell_length_c     30.705365
_cell_angle_alpha  89.462888
_cell_angle_beta   90.593126
_cell_angle_gamma 90.320268
loop_
_atom_site_label
_atom_site_type_symbol
_atom_site_fract_x
_atom_site_fract_y
_atom_site_fract_z
_atom_type_partial_charge
C0 C 0.18454 0.57198 0.10628 0.0
C1 C 0.16367 0.5638 0.14633 0.0
N2 N 0.1804 0.5196 0.16302 0.0
N3 N 0.21628 0.5346 0.09804 0.0
C4 C 0.21374 0.50413 0.1333 0.0
H5 H 0.17756 0.60364 0.08475 0.0
Co6 Co 0.252 0.52957 0.04669 0.0
C7 C 0.29922 0.42575 0.07775 0.0
O8 O 0.26757 0.39162 0.06383 0.0
N9 N 0.28748 0.52791 0.99486 0.0
C10 C 0.33522 0.50937 0.93867 0.0
C11 C 0.30889 0.48977 0.9734 0.0
C12 C 0.3005 0.56988 0.97238 0.0
N13 N 0.32972 0.55977 0.93836 0.0
O14 O 0.30254 0.56938 0.07122 0.0
H15 H 0.30684 0.45057 0.98306 0.0
H16 H 0.29 0.60753 0.98143 0.0
O17 O 0.29074 0.47227 0.06985 0.0
C18 C 0.30252 0.61702 0.07182 0.0
O19 O 0.26303 0.6407 0.05714 0.0
N20 N 0.19934 0.49151 0.02214 0.0
C21 C 0.09867 0.47553 0.00499 0.0
C22 C 0.12324 0.44739 0.03735 0.0
C23 C 0.17393 0.4554 0.045 0.0
C24 C 0.17699 0.51529 0.98763 0.0
C25 C 0.12686 0.50716 0.978 0.0
H26 H 0.19045 0.43735 0.07304 0.0
H27 H 0.19619 0.54516 0.9705 0.0
H28 H 0.23659 0.47147 0.1368 0.0
H29 H 0.13984 0.59025 0.16233 0.0
H30 H 0.35795 0.48857 0.91632 0.0
H31 H 0.10264 0.42269 0.05893 0.0
H32 H 0.1091 0.52954 0.95269 0.0
C33 C 0.49006 0.18494 0.34916 0.0
C34 C 0.50096 0.17117 0.39136 0.0
N35 N 0.53887 0.20001 0.40587 0.0
N36 N 0.51979 0.22349 0.33738 0.0
C37 C 0.55098 0.22992 0.37171 0.0
H38 H 0.46055 0.16962 0.3292 0.0
Co39 Co 0.51004 0.2623 0.28712 0.0
C40 C 0.55478 0.35865 0.31156 0.0
O41 O 0.51513 0.37986 0.29451 0.0
N42 N 0.49903 0.30048 0.23575 0.0
C43 C 0.50938 0.34507 0.17459 0.0
C44 C 0.53313 0.31975 0.20825 0.0
C45 C 0.45489 0.31417 0.21792 0.0
N46 N 0.46023 0.34143 0.18088 0.0
O47 O 0.46101 0.29988 0.31707 0.0
H48 H 0.57277 0.31597 0.2126 0.0
H49 H 0.41941 0.30459 0.23174 0.0
O50 O 0.56095 0.31099 0.30779 0.0
C51 C 0.41741 0.28213 0.3215 0.0
O52 O 0.40498 0.24011 0.30187 0.0
N53 N 0.55465 0.22105 0.25884 0.0
C54 C 0.59143 0.12433 0.24816 0.0
C55 C 0.62095 0.16182 0.26783 0.0
C56 C 0.60144 0.21033 0.2734 0.0
C57 C 0.52855 0.18714 0.23468 0.0
C58 C 0.54614 0.13843 0.22914 0.0
H59 H 0.62126 0.23685 0.29373 0.0
H60 H 0.49092 0.19569 0.22476 0.0
H61 H 0.58041 0.25772 0.37261 0.0
H62 H 0.48114 0.14343 0.41063 0.0
H63 H 0.52674 0.36503 0.14785 0.0
H64 H 0.65636 0.15229 0.28253 0.0
H65 H 0.52249 0.11075 0.21347 0.0
C66 C 0.81053 0.5741 0.59405 0.0
C67 C 0.81529 0.57885 0.63828 0.0
N68 N 0.76979 0.58168 0.6548 0.0
N69 N 0.76184 0.57395 0.58203 0.0
C70 C 0.73817 0.57913 0.62063 0.0
H71 H 0.8415 0.56631 0.5735 0.0
Co72 Co 0.73154 0.55791 0.5264 0.0
C73 C 0.65164 0.62157 0.54392 0.0
O74 O 0.67177 0.65179 0.51489 0.0
N75 N 0.70169 0.5411 0.47276 0.0
C76 C 0.67894 0.54443 0.40282 0.0
C77 C 0.70159 0.57021 0.43652 0.0
C78 C 0.67889 0.49777 0.46031 0.0
N79 N 0.66488 0.49888 0.41793 0.0
O80 O 0.71882 0.49 0.54793 0.0
H81 H 0.7176 0.60759 0.43464 0.0
H82 H 0.67267 0.46569 0.48156 0.0
O83 O 0.66864 0.57724 0.54903 0.0
C84 C 0.74056 0.46038 0.57476 0.0
O85 O 0.78631 0.46943 0.58738 0.0
N86 N 0.79343 0.54404 0.5028 0.0
C87 C 0.89452 0.54287 0.48502 0.0
C88 C 0.86911 0.5885 0.48949 0.0
C89 C 0.81813 0.58819 0.49585 0.0
C90 C 0.81538 0.49926 0.49384 0.0
C91 C 0.86608 0.49804 0.48371 0.0
H92 H 0.79927 0.62343 0.50116 0.0
H93 H 0.79452 0.46449 0.49609 0.0
H94 H 0.6985 0.5785 0.62446 0.0
H95 H 0.84935 0.5775 0.65718 0.0
H96 H 0.67326 0.55796 0.36979 0.0
H97 H 0.88868 0.62418 0.49047 0.0
H98 H 0.88359 0.46212 0.47808 0.0
C99 C 0.57111 0.83497 0.85632 0.0
C100 C 0.57634 0.84862 0.89926 0.0
N101 N 0.54047 0.82538 0.92221 0.0
N102 N 0.53282 0.80251 0.85244 0.0
C103 C 0.5142 0.79824 0.89298 0.0
H104 H 0.596 0.84479 0.83018 0.0
Co105 Co 0.52463 0.76057 0.80498 0.0
C106 C 0.43222 0.69913 0.82443 0.0
O107 O 0.41758 0.69864 0.78348 0.0
N108 N 0.51959 0.71678 0.75653 0.0
C109 C 0.52734 0.64407 0.72131 0.0
C110 C 0.51564 0.66607 0.76006 0.0
C111 C 0.53443 0.72439 0.71484 0.0
N112 N 0.53971 0.68064 0.69295 0.0
O113 O 0.56951 0.71609 0.83242 0.0
H114 H 0.5093 0.64563 0.79 0.0
H115 H 0.54675 0.76034 0.70214 0.0
O116 O 0.47076 0.72444 0.83523 0.0
C117 C 0.61573 0.7199 0.82562 0.0
O118 O 0.63123 0.74614 0.79193 0.0
N119 N 0.48323 0.80904 0.77918 0.0
C120 C 0.45251 0.90843 0.76707 0.0
C121 C 0.42294 0.87394 0.79016 0.0
C122 C 0.43916 0.82419 0.79616 0.0
C123 C 0.51037 0.84135 0.75403 0.0
C124 C 0.49551 0.89114 0.7473 0.0
H125 H 0.41906 0.80025 0.81844 0.0
H126 H 0.54702 0.83063 0.74391 0.0
H127 H 0.48472 0.77254 0.90196 0.0
H128 H 0.60565 0.87171 0.91299 0.0
H129 H 0.5311 0.6041 0.71561 0.0
H130 H 0.38991 0.88648 0.80651 0.0
H131 H 0.51968 0.91706 0.7301 0.0
C132 C 0.18079 0.44932 0.40922 0.0
C133 C 0.16173 0.44957 0.3676 0.0
N134 N 0.19201 0.47759 0.34265 0.0
N135 N 0.223 0.47678 0.41027 0.0
C136 C 0.22879 0.49385 0.36904 0.0
H137 H 0.16511 0.43018 0.43715 0.0
Co138 Co 0.25974 0.4831 0.46156 0.0
C139 C 0.31401 0.58048 0.43177 0.0
O140 O 0.28323 0.61247 0.44922 0.0
N141 N 0.29648 0.48515 0.51374 0.0
C142 C 0.3461 0.50439 0.56961 0.0
C143 C 0.31809 0.52359 0.53537 0.0
C144 C 0.31091 0.44338 0.53593 0.0
N145 N 0.3418 0.45379 0.56947 0.0
O146 O 0.30297 0.43416 0.44008 0.0
H147 H 0.31491 0.5628 0.52622 0.0
H148 H 0.30021 0.40558 0.52695 0.0
O149 O 0.3055 0.53328 0.43573 0.0
C150 C 0.2902 0.38818 0.43771 0.0
O151 O 0.24948 0.37229 0.4566 0.0
N152 N 0.21299 0.53081 0.48185 0.0
C153 C 0.11198 0.55076 0.49084 0.0
C154 C 0.13804 0.56797 0.45427 0.0
C155 C 0.18902 0.56044 0.45172 0.0
C156 C 0.18989 0.51902 0.52001 0.0
C157 C 0.13982 0.53085 0.52593 0.0
H158 H 0.20671 0.57063 0.42153 0.0
H159 H 0.20804 0.49522 0.54397 0.0
H160 H 0.25852 0.51816 0.35846 0.0
H161 H 0.12848 0.43054 0.35634 0.0
H162 H 0.36934 0.52569 0.5918 0.0
H163 H 0.11884 0.58383 0.42625 0.0
H164 H 0.12171 0.51867 0.55556 0.0
C165 C 0.59487 0.18668 0.65724 0.0
C166 C 0.60297 0.17133 0.61524 0.0
N167 N 0.57195 0.19699 0.58869 0.0
N168 N 0.55957 0.22238 0.65692 0.0
C169 C 0.54596 0.22757 0.61474 0.0
H170 H 0.61597 0.17544 0.68581 0.0
Co171 Co 0.54902 0.26404 0.70375 0.0
C172 C 0.45108 0.31404 0.67995 0.0
O173 O 0.43202 0.30466 0.71843 0.0
N174 N 0.54323 0.30721 0.7524 0.0
C175 C 0.54186 0.37874 0.79012 0.0
C176 C 0.52329 0.35382 0.7545 0.0
C177 C 0.57469 0.30553 0.78724 0.0
N178 N 0.57468 0.34867 0.81044 0.0
O179 O 0.59215 0.31154 0.67807 0.0
H180 H 0.50139 0.37191 0.72954 0.0
H181 H 0.6011 0.2756 0.79279 0.0
O182 O 0.49462 0.29828 0.67166 0.0
C183 C 0.63913 0.3093 0.67794 0.0
O184 O 0.66208 0.27378 0.70017 0.0
N185 N 0.50666 0.21438 0.72817 0.0
C186 C 0.46102 0.12253 0.75478 0.0
C187 C 0.44591 0.14887 0.71666 0.0
C188 C 0.46839 0.19446 0.70448 0.0
C189 C 0.52378 0.1891 0.76394 0.0
C190 C 0.50209 0.14358 0.77742 0.0
H191 H 0.45773 0.21121 0.67362 0.0
H192 H 0.55706 0.20188 0.78026 0.0
H193 H 0.52044 0.25587 0.60269 0.0
H194 H 0.63102 0.14527 0.60469 0.0
H195 H 0.53502 0.41763 0.79837 0.0
H196 H 0.41959 0.13376 0.69368 0.0
H197 H 0.52051 0.1238 0.80378 0.0
C198 C 0.79248 0.593 0.90374 0.0
C199 C 0.79987 0.59925 0.85993 0.0
N200 N 0.76 0.58082 0.83876 0.0
N201 N 0.74836 0.56989 0.91037 0.0
C202 C 0.7291 0.56343 0.86993 0.0
H203 H 0.81809 0.60403 0.9293 0.0
Co204 Co 0.72253 0.55233 0.96522 0.0
C205 C 0.69883 0.44231 0.94017 0.0
O206 O 0.73124 0.41968 0.96572 0.0
N207 N 0.69573 0.53693 0.02168 0.0
C208 C 0.66555 0.50299 0.08314 0.0
C209 C 0.68382 0.49314 0.04209 0.0
C210 C 0.6847 0.5724 0.05168 0.0
N211 N 0.66593 0.55314 0.0886 0.0
O212 O 0.74578 0.61556 0.9874 0.0
H213 H 0.68792 0.45617 0.02861 0.0
H214 H 0.68986 0.61244 0.04712 0.0
O215 O 0.69478 0.49026 0.94011 0.0
C216 C 0.73459 0.66047 0.9758 0.0
O217 O 0.75097 0.69769 1.00001 0.0
N218 N 0.78435 0.5208 0.9806 0.0
C219 C 0.88356 0.49407 0.99502 0.0
C220 C 0.85895 0.48051 0.95653 0.0
C221 C 0.80927 0.49348 0.95026 0.0
C222 C 0.80702 0.53153 0.01949 0.0
C223 C 0.85634 0.51781 0.0276 0.0
H224 H 0.79201 0.4849 0.91932 0.0
H225 H 0.78812 0.55337 0.04365 0.0
H226 H 0.69348 0.54601 0.86339 0.0
H227 H 0.83192 0.61621 0.84462 0.0
H228 H 0.65264 0.47565 0.10686 0.0
H229 H 0.87864 0.46211 0.9306 0.0
H230 H 0.87411 0.52869 0.0579 0.0
C231 C 0.47757 0.83766 0.16969 0.0
C232 C 0.47921 0.85163 0.12656 0.0
N233 N 0.51144 0.82142 0.10638 0.0
N234 N 0.50784 0.79819 0.17659 0.0
C235 C 0.52874 0.78958 0.13756 0.0
H236 H 0.45375 0.85342 0.19412 0.0
Co237 Co 0.50754 0.76211 0.22853 0.0
C238 C 0.59628 0.69095 0.21794 0.0
O239 O 0.61485 0.69371 0.25747 0.0
N240 N 0.50412 0.72622 0.28225 0.0
C241 C 0.5169 0.69559 0.34947 0.0
C242 C 0.53699 0.72351 0.31575 0.0
C243 C 0.46378 0.70109 0.29731 0.0
N244 N 0.47073 0.68175 0.33764 0.0
O245 O 0.46227 0.71707 0.20245 0.0
H246 H 0.57272 0.74209 0.31648 0.0
H247 H 0.42899 0.69814 0.27997 0.0
O248 O 0.5586 0.71711 0.2068 0.0
C249 C 0.41655 0.72645 0.1971 0.0
O250 O 0.3963 0.76372 0.21826 0.0
N251 N 0.55128 0.80971 0.25185 0.0
C252 C 0.5882 0.90757 0.25866 0.0
C253 C 0.61607 0.87014 0.23828 0.0
C254 C 0.59642 0.82128 0.2345 0.0
C255 C 0.52657 0.84411 0.27589 0.0
C256 C 0.54428 0.89338 0.27955 0.0
H257 H 0.61486 0.79485 0.21375 0.0
H258 H 0.49007 0.83492 0.28795 0.0
H259 H 0.55411 0.7591 0.13141 0.0
H260 H 0.45735 0.88078 0.11083 0.0
H261 H 0.53419 0.68733 0.38067 0.0
H262 H 0.65028 0.87977 0.22199 0.0
H263 H 0.52189 0.92113 0.29575 0.0
C264 C 0.21353 0.45668 0.26741 0.0
C265 C 0.1863 0.48614 0.2967 0.0
C266 C 0.13871 0.52164 0.23559 0.0
C267 C 0.17189 0.49858 0.20645 0.0
N268 N 0.20998 0.41779 0.19709 0.0
N269 N 0.12299 0.54728 0.30982 0.0
C270 C 0.20109 0.45835 0.22266 0.0
C271 C 0.14841 0.51849 0.28112 0.0
N272 N 0.25148 0.42726 0.28211 0.0
N273 N 0.09499 0.5404 0.22007 0.0
H274 H 0.12984 0.54578 0.34332 0.0
H275 H 0.09824 0.57527 0.30012 0.0
H276 H 0.08381 0.53492 0.1878 0.0
H277 H 0.06732 0.55439 0.23993 0.0
H278 H 0.27561 0.40943 0.26097 0.0
H279 H 0.26141 0.42472 0.31492 0.0
H280 H 0.22821 0.38564 0.20843 0.0
H281 H 0.19193 0.41346 0.16709 0.0
C282 C 0.56303 0.24626 0.47424 0.0
C283 C 0.55747 0.20063 0.45034 0.0
C284 C 0.56393 0.15225 0.51842 0.0
C285 C 0.5715 0.19736 0.54175 0.0
N286 N 0.59686 0.28436 0.53949 0.0
N287 N 0.57203 0.11134 0.44894 0.0
C288 C 0.57718 0.24346 0.51883 0.0
C289 C 0.5644 0.15395 0.47232 0.0
N290 N 0.55188 0.29201 0.45616 0.0
N291 N 0.55349 0.10833 0.53994 0.0
H292 H 0.57539 0.11239 0.41515 0.0
H293 H 0.58083 0.07679 0.46336 0.0
H294 H 0.55004 0.10611 0.57367 0.0
H295 H 0.54329 0.07539 0.52388 0.0
H296 H 0.55054 0.32494 0.47433 0.0
H297 H 0.53894 0.2972 0.42459 0.0
H298 H 0.60591 0.31776 0.52324 0.0
H299 H 0.60955 0.2827 0.57167 0.0
C300 C 0.76002 0.62747 0.72323 0.0
C301 C 0.75844 0.58161 0.70043 0.0
C302 C 0.75324 0.53441 0.76931 0.0
C303 C 0.75341 0.58058 0.79211 0.0
N304 N 0.74729 0.67076 0.79114 0.0
N305 N 0.74673 0.49196 0.6998 0.0
C306 C 0.75356 0.62705 0.76899 0.0
C307 C 0.75223 0.53523 0.72296 0.0
N308 N 0.77031 0.67109 0.70115 0.0
N309 N 0.75798 0.49008 0.79187 0.0
H310 H 0.74882 0.49156 0.66599 0.0
H311 H 0.7369 0.45742 0.71362 0.0
H312 H 0.76044 0.48825 0.82572 0.0
H313 H 0.76339 0.45542 0.77718 0.0
H314 H 0.77772 0.70525 0.71634 0.0
H315 H 0.77393 0.67243 0.66736 0.0
H316 H 0.74189 0.70565 0.77612 0.0
H317 H 0.7435 0.67109 0.82479 0.0
C318 C 0.5335 0.86956 0.99268 0.0
C319 C 0.53558 0.82409 0.96901 0.0
C320 C 0.51755 0.77668 0.03575 0.0
C321 C 0.52175 0.82155 0.06029 0.0
N322 N 0.54734 0.90862 0.06257 0.0
N323 N 0.54525 0.73368 0.97152 0.0
C324 C 0.5339 0.86746 0.03886 0.0
C325 C 0.53234 0.77729 0.99157 0.0
N326 N 0.52885 0.91457 0.97125 0.0
N327 N 0.49691 0.7343 0.05353 0.0
H328 H 0.56024 0.73314 0.94037 0.0
H329 H 0.54684 0.69914 0.98791 0.0
H330 H 0.48152 0.73346 0.08451 0.0
H331 H 0.48967 0.70199 0.03543 0.0
H332 H 0.52297 0.94838 0.98733 0.0
H333 H 0.52532 0.91731 0.93747 0.0
H334 H 0.5603 0.9419 0.04834 0.0
H335 H 0.55098 0.90735 0.09639 0.0
C336 C 0.02042 0.52547 0.01291 0.0
C337 C 0.04331 0.47868 1.00404 0.0
C338 C 0.96077 0.43981 0.99675 0.0
C339 C 0.93857 0.48816 0.99914 0.0
N340 N 0.94985 0.57864 0.99848 0.0
N341 N 0.03507 0.39231 0.98137 0.0
C342 C 0.9691 0.53149 1.00416 0.0
C343 C 0.01341 0.43598 0.99431 0.0
N344 N 0.04718 0.56383 0.03121 0.0
N345 N 0.93177 0.39751 0.99817 0.0
H346 H 0.07335 0.38838 0.97876 0.0
H347 H 0.01497 0.36163 0.96961 0.0
H348 H 0.89333 0.39886 1.00106 0.0
H349 H 0.94616 0.36127 1.00075 0.0
H350 H 0.03093 0.59693 0.04197 0.0
H351 H 0.08438 0.5604 0.04024 0.0
H352 H 0.97183 0.61104 0.99771 0.0
H353 H 0.91303 0.58513 0.98963 0.0
C354 C 0.60332 0.04376 0.29223 0.0
C355 C 0.60359 0.06938 0.25127 0.0
C356 C 0.5992 0.98795 0.21413 0.0
C357 C 0.60126 0.96238 0.25508 0.0
N358 N 0.62023 0.96613 0.33173 0.0
N359 N 0.6163 0.06512 0.17395 0.0
C360 C 0.60862 0.99048 0.29363 0.0
C361 C 0.60673 0.04106 0.21248 0.0
N362 N 0.59397 0.0693 0.32965 0.0
N363 N 0.58632 0.96258 0.17715 0.0
H364 H 0.62231 0.10395 0.17198 0.0
H365 H 0.62329 0.04604 0.14517 0.0
H366 H 0.5783 0.92419 0.17668 0.0
H367 H 0.57899 0.98063 0.14752 0.0
H368 H 0.5876 0.05111 0.35929 0.0
H369 H 0.58775 0.10792 0.33062 0.0
H370 H 0.6304 0.98502 0.36008 0.0
H371 H 0.62471 0.92714 0.33358 0.0
C372 C 0.03009 0.505 0.50472 0.0
C373 C 0.05611 0.54871 0.49007 0.0
C374 C 0.97708 0.58074 0.46169 0.0
C375 C 0.9504 0.54277 0.48475 0.0
N376 N 0.95604 0.47827 0.54132 0.0
N377 N 0.04844 0.6355 0.46591 0.0
C378 C 0.97806 0.50751 0.5102 0.0
C379 C 0.02789 0.58893 0.47189 0.0
N380 N 0.05373 0.46022 0.51117 0.0
N381 N 0.95495 0.60782 0.42899 0.0
H382 H 0.08414 0.64447 0.47674 0.0
H383 H 0.02769 0.66633 0.45516 0.0
H384 H 0.91917 0.59986 0.41776 0.0
H385 H 0.9745 0.63365 0.40986 0.0
H386 H 0.0346 0.42729 0.51947 0.0
H387 H 0.09044 0.45439 0.5024 0.0
H388 H 0.97644 0.45447 0.56186 0.0
H389 H 0.91932 0.48276 0.55058 0.0
C390 C 0.4097 0.04192 0.73852 0.0
C391 C 0.44087 0.07013 0.7669 0.0
C392 C 0.46269 0.99163 0.80511 0.0
C393 C 0.44332 0.96369 0.76942 0.0
N394 N 0.39482 0.96216 0.70301 0.0
N395 N 0.46056 0.07095 0.84334 0.0
C396 C 0.41542 0.98875 0.73648 0.0
C397 C 0.45689 0.04486 0.80539 0.0
N398 N 0.36927 0.06417 0.71989 0.0
N399 N 0.4882 0.96783 0.83791 0.0
H400 H 0.45019 0.10873 0.84493 0.0
H401 H 0.46761 0.05392 0.87347 0.0
H402 H 0.49241 0.92883 0.83958 0.0
H403 H 0.50775 0.98726 0.86198 0.0
H404 H 0.34287 0.04444 0.70171 0.0
H405 H 0.35847 0.10034 0.72876 0.0
H406 H 0.37839 0.97962 0.67598 0.0
H407 H 0.39682 0.923 0.70124 0.0
C408 C 0.36625 0.7257 0.12746 0.0
C409 C 0.38907 0.69893 0.16281 0.0
C410 C 0.37414 0.61958 0.12516 0.0
C411 C 0.34244 0.64498 0.09539 0.0
N412 N 0.32999 0.72142 0.05474 0.0
N413 N 0.40966 0.61928 0.19735 0.0
C414 C 0.34445 0.69812 0.09264 0.0
C415 C 0.39197 0.64557 0.16207 0.0
N416 N 0.36517 0.77717 0.12705 0.0
N417 N 0.39096 0.57239 0.11633 0.0
H418 H 0.42165 0.63648 0.22594 0.0
H419 H 0.40761 0.58013 0.19979 0.0
H420 H 0.38517 0.55536 0.08624 0.0
H421 H 0.41724 0.55391 0.13569 0.0
H422 H 0.34348 0.79836 0.10559 0.0
H423 H 0.38428 0.79943 0.14927 0.0
H424 H 0.33374 0.7598 0.04851 0.0
H425 H 0.31992 0.70106 0.02707 0.0
C426 C 0.39864 0.31462 0.39585 0.0
C427 C 0.38278 0.3054 0.35244 0.0
C428 C 0.3004 0.3367 0.37054 0.0
C429 C 0.31978 0.35432 0.41088 0.0
N430 N 0.38903 0.3636 0.46073 0.0
N431 N 0.31896 0.3111 0.29694 0.0
C432 C 0.36941 0.34448 0.4231 0.0
C433 C 0.33349 0.31681 0.33941 0.0
N434 N 0.4399 0.29184 0.41232 0.0
N435 N 0.25076 0.33945 0.3617 0.0
H436 H 0.34258 0.29861 0.27275 0.0
H437 H 0.28467 0.32246 0.28471 0.0
H438 H 0.22547 0.35559 0.38268 0.0
H439 H 0.23394 0.32228 0.33498 0.0
H440 H 0.44925 0.29193 0.44534 0.0
H441 H 0.46124 0.26795 0.39395 0.0
H442 H 0.42684 0.36289 0.46803 0.0
H443 H 0.36811 0.38266 0.48351 0.0
C444 C 0.70152 0.33193 0.6201 0.0
C445 C 0.66696 0.34701 0.65203 0.0
C446 C 0.67207 0.43365 0.62521 0.0
C447 C 0.71181 0.4203 0.5975 0.0
N448 N 0.76721 0.35684 0.57092 0.0
N449 N 0.62845 0.41433 0.69143 0.0
C450 C 0.72764 0.36945 0.59591 0.0
C451 C 0.65483 0.39844 0.65637 0.0
N452 N 0.70732 0.28204 0.61095 0.0
N453 N 0.65004 0.47967 0.62201 0.0
H454 H 0.61582 0.39005 0.71574 0.0
H455 H 0.62383 0.4522 0.69892 0.0
H456 H 0.66045 0.50706 0.59981 0.0
H457 H 0.61758 0.48863 0.63825 0.0
H458 H 0.72789 0.26924 0.5848 0.0
H459 H 0.68774 0.2534 0.6267 0.0
H460 H 0.7842 0.32174 0.57262 0.0
H461 H 0.78473 0.38238 0.55005 0.0
C462 C 0.66216 0.64615 0.92278 0.0
C463 C 0.70611 0.6725 0.93493 0.0
C464 C 0.6905 0.73232 0.87533 0.0
C465 C 0.65063 0.70173 0.85991 0.0
N466 N 0.60973 0.62069 0.86265 0.0
N467 N 0.77002 0.73089 0.9118 0.0
C468 C 0.64028 0.6556 0.88146 0.0
C469 C 0.7228 0.71261 0.90785 0.0
N470 N 0.63888 0.61502 0.95142 0.0
N471 N 0.69691 0.78074 0.861 0.0
H472 H 0.79624 0.71519 0.93302 0.0
H473 H 0.78469 0.7573 0.89006 0.0
H474 H 0.67319 0.79877 0.83914 0.0
H475 H 0.7231 0.80494 0.87487 0.0
H476 H 0.6049 0.5977 0.94475 0.0
H477 H 0.64963 0.61338 0.98373 0.0
H478 H 0.60403 0.58496 0.87614 0.0
H479 H 0.59493 0.62535 0.83135 0.0
C480 C 0.37066 0.3654 0.08768 0.0
C481 C 0.34539 0.40907 0.10217 0.0
C482 C 0.40207 0.41145 0.16612 0.0
C483 C 0.42156 0.36423 0.15445 0.0
N484 N 0.42216 0.2935 0.10665 0.0
N485 N 0.33872 0.47446 0.15677 0.0
C486 C 0.40518 0.34049 0.11588 0.0
C487 C 0.36187 0.43268 0.14161 0.0
N488 N 0.36388 0.34939 0.04585 0.0
N489 N 0.42339 0.43685 0.20006 0.0
H490 H 0.31525 0.49671 0.13806 0.0
H491 H 0.34276 0.48728 0.18856 0.0
H492 H 0.45203 0.42168 0.21902 0.0
H493 H 0.41558 0.47417 0.20736 0.0
H494 H 0.3844 0.32061 0.03211 0.0
H495 H 0.342 0.3688 0.02316 0.0
H496 H 0.40776 0.2715 0.08157 0.0
H497 H 0.44804 0.27494 0.12643 0.0
C498 C 0.6368 0.39876 0.33399 0.0
C499 C 0.58592 0.38914 0.34226 0.0
C500 C 0.58788 0.45146 0.40122 0.0
C501 C 0.63887 0.46008 0.39383 0.0
N502 N 0.71441 0.43615 0.35936 0.0
N503 N 0.51656 0.397 0.39072 0.0
C504 C 0.66411 0.43182 0.36203 0.0
C505 C 0.56256 0.41272 0.37804 0.0
N506 N 0.65841 0.37813 0.29834 0.0
N507 N 0.56313 0.48193 0.42913 0.0
H508 H 0.49736 0.36798 0.37525 0.0
H509 H 0.49964 0.40893 0.41911 0.0
H510 H 0.58065 0.5107 0.44644 0.0
H511 H 0.52477 0.48151 0.43244 0.0
H512 H 0.69371 0.38783 0.28768 0.0
H513 H 0.63974 0.35334 0.27766 0.0
H514 H 0.7361 0.41344 0.33986 0.0
H515 H 0.73489 0.46003 0.37958 0.0
C516 C 0.61709 0.68384 0.6501 0.0
C517 C 0.56595 0.67204 0.65287 0.0
C518 C 0.57001 0.62809 0.58279 0.0
C519 C 0.62044 0.64273 0.57891 0.0
N520 N 0.68964 0.6928 0.60513 0.0
N521 N 0.49151 0.64042 0.6194 0.0
C522 C 0.64294 0.67389 0.61106 0.0
C523 C 0.54175 0.64643 0.61829 0.0
N524 N 0.6421 0.70045 0.68614 0.0
N525 N 0.54947 0.596 0.55302 0.0
H526 H 0.47031 0.65405 0.64494 0.0
H527 H 0.47055 0.62594 0.59373 0.0
H528 H 0.56853 0.58371 0.52573 0.0
H529 H 0.51468 0.5794 0.55654 0.0
H530 H 0.6802 0.70623 0.68734 0.0
H531 H 0.62575 0.70345 0.7165 0.0
H532 H 0.70498 0.72088 0.62461 0.0
H533 H 0.71206 0.68334 0.57909 0.0
C534 C 0.32855 0.62502 0.8802 0.0
C535 C 0.3552 0.5963 0.91145 0.0
C536 C 0.43289 0.63529 0.88738 0.0
C537 C 0.406 0.66654 0.85727 0.0
N538 N 0.32661 0.7001 0.83481 0.0
N539 N 0.42988 0.58406 0.95316 0.0
C540 C 0.35326 0.66395 0.85649 0.0
C541 C 0.40651 0.60461 0.91761 0.0
N542 N 0.27974 0.61423 0.87255 0.0
N543 N 0.48336 0.63209 0.88587 0.0
H544 H 0.41139 0.56175 0.97601 0.0
H545 H 0.46608 0.5933 0.96228 0.0
H546 H 0.50516 0.6521 0.86411 0.0
H547 H 0.50361 0.6056 0.90374 0.0
H548 H 0.25935 0.63022 0.84702 0.0
H549 H 0.26086 0.58603 0.88962 0.0
H550 H 0.28817 0.70264 0.83629 0.0
H551 H 0.34315 0.73097 0.81941 0.0
C552 C 0.38069 0.57932 0.37168 0.0
C553 C 0.36064 0.6004 0.41049 0.0
C554 C 0.41518 0.67441 0.4012 0.0
C555 C 0.43504 0.65354 0.36305 0.0
N556 N 0.44598 0.58178 0.31749 0.0
N557 N 0.37559 0.65768 0.47001 0.0
C558 C 0.42038 0.6047 0.3499 0.0
C559 C 0.38291 0.64494 0.42756 0.0
N560 N 0.36185 0.53583 0.3547 0.0
N561 N 0.42567 0.72323 0.41152 0.0
H562 H 0.35612 0.63467 0.49164 0.0
H563 H 0.39427 0.6873 0.48512 0.0
H564 H 0.44833 0.74621 0.3924 0.0
H565 H 0.40813 0.74214 0.43659 0.0
H566 H 0.36854 0.5243 0.32298 0.0
H567 H 0.33943 0.51091 0.3717 0.0
H568 H 0.44126 0.54413 0.30914 0.0
H569 H 0.47537 0.59933 0.30145 0.0
C570 C 0.42175 0.41669 0.59385 0.0
C571 C 0.36938 0.41764 0.59562 0.0
C572 C 0.37145 0.34331 0.64378 0.0
C573 C 0.42388 0.3479 0.64831 0.0
N574 N 0.49772 0.39769 0.6323 0.0
N575 N 0.29422 0.38606 0.62732 0.0
C576 C 0.4489 0.38677 0.62444 0.0
C577 C 0.34416 0.38203 0.622 0.0
N578 N 0.44566 0.44312 0.56194 0.0
N579 N 0.34778 0.30091 0.65844 0.0
H580 H 0.27346 0.41466 0.61258 0.0
H581 H 0.27446 0.36413 0.64955 0.0
H582 H 0.36662 0.27014 0.67176 0.0
H583 H 0.31029 0.29384 0.6526 0.0
H584 H 0.48353 0.43982 0.55637 0.0
H585 H 0.42678 0.46376 0.53801 0.0
H586 H 0.51549 0.42896 0.61873 0.0
H587 H 0.5194 0.37955 0.65567 0.0
C588 C 0.61628 0.40681 0.91595 0.0
C589 C 0.66802 0.41231 0.90917 0.0
C590 C 0.65909 0.37178 0.83778 0.0
C591 C 0.60768 0.36451 0.84529 0.0
N592 N 0.53939 0.3653 0.89455 0.0
N593 N 0.74039 0.39092 0.8678 0.0
C594 C 0.58702 0.37909 0.88546 0.0
C595 C 0.68998 0.39157 0.87153 0.0
N596 N 0.59494 0.42877 0.95115 0.0
N597 N 0.67797 0.36288 0.79751 0.0
H598 H 0.76433 0.4064 0.89093 0.0
H599 H 0.75869 0.37144 0.84354 0.0
H600 H 0.65695 0.34839 0.77196 0.0
H601 H 0.71358 0.37342 0.78826 0.0
H602 H 0.5568 0.43125 0.95528 0.0
H603 H 0.61539 0.44725 0.97522 0.0
H604 H 0.52294 0.37052 0.92468 0.0
H605 H 0.51774 0.34424 0.87294 0.0
C606 C 0.66598 0.65214 0.1754 0.0
C607 C 0.61525 0.65246 0.18725 0.0
C608 C 0.59807 0.58489 0.13485 0.0
C609 C 0.64918 0.58245 0.12506 0.0
N610 N 0.73305 0.60586 0.14235 0.0
N611 N 0.53593 0.60972 0.18664 0.0
C612 C 0.68351 0.61367 0.14749 0.0
C613 C 0.5821 0.61601 0.16945 0.0
N614 N 0.69691 0.68992 0.18895 0.0
N615 N 0.56443 0.55949 0.10971 0.0
H616 H 0.52353 0.63013 0.21322 0.0
H617 H 0.51204 0.58057 0.17767 0.0
H618 H 0.57469 0.53705 0.08368 0.0
H619 H 0.52627 0.56425 0.11226 0.0
H620 H 0.73288 0.69462 0.17758 0.0
H621 H 0.68532 0.71928 0.20865 0.0
H622 H 0.7603 0.62416 0.16063 0.0
H623 H 0.74661 0.5773 0.12269 0.0
loop_
_geom_bond_atom_site_label_1
_geom_bond_atom_site_label_2
_geom_bond_distance
_geom_bond_site_symmetry_2
_ccdc_geom_bond_type
C0 C1 1.351 . S
C0 N3 1.368 . S
C0 H5 0.931 . S
C1 C0 1.351 . S
C1 N2 1.373 . S
C1 H29 0.930 . S
N2 C1 1.373 . S
N2 C4 1.340 . S
N3 C0 1.368 . S
N3 C4 1.321 . S
N3 Co6 2.135 . S
C4 N2 1.340 . S
C4 N3 1.321 . S
C4 H28 0.930 . S
H5 C0 0.931 . S
Co6 N3 2.135 . S
Co6 N9 2.121 . S
Co6 O14 2.055 . S
Co6 O17 2.039 . S
Co6 N20 2.140 . S
C7 O8 1.227 . S
C7 O17 1.265 . S
O8 C7 1.227 . S
N9 Co6 2.121 . S
N9 C11 1.375 1_554 S
N9 C12 1.313 1_554 S
C10 C11 1.338 . S
C10 N13 1.377 . S
C10 H30 0.930 . S
C11 N9 1.375 1_556 S
C11 C10 1.338 . S
C11 H15 0.931 . S
C12 N9 1.313 1_556 S
C12 N13 1.344 . S
C12 H16 0.930 . S
N13 C10 1.377 . S
N13 C12 1.344 . S
O14 Co6 2.055 . S
O14 C18 1.253 . S
H15 C11 0.931 . S
H16 C12 0.930 . S
O17 Co6 2.039 . S
O17 C7 1.265 . S
C18 O14 1.253 . S
C18 O19 1.227 . S
O19 C18 1.227 . S
N20 Co6 2.140 . S
N20 C23 1.346 . S
N20 C24 1.345 . S
C21 C22 1.387 . S
C21 C25 1.391 1_554 S
C22 C21 1.387 . S
C22 C23 1.369 . S
C22 H31 0.929 . S
C23 N20 1.346 . S
C23 C22 1.369 . S
C23 H26 0.928 . S
C24 N20 1.345 . S
C24 C25 1.371 1_554 S
C24 H27 0.931 1_554 S
C25 C21 1.391 1_556 S
C25 C24 1.371 1_556 S
C25 H32 0.930 . S
H26 C23 0.928 . S
H27 C24 0.931 1_556 S
H28 C4 0.930 . S
H29 C1 0.930 . S
H30 C10 0.930 . S
H31 C22 0.929 . S
H32 C25 0.930 . S
C33 C34 1.351 . S
C33 N36 1.368 . S
C33 H38 0.931 . S
C34 C33 1.351 . S
C34 N35 1.373 . S
C34 H62 0.930 . S
N35 C34 1.373 . S
N35 C37 1.340 . S
N36 C33 1.368 . S
N36 C37 1.321 . S
N36 Co39 2.135 . S
C37 N35 1.340 . S
C37 N36 1.321 . S
C37 H61 0.930 . S
H38 C33 0.931 . S
Co39 N36 2.135 . S
Co39 N42 2.121 . S
Co39 O47 2.055 . S
Co39 O50 2.039 . S
Co39 N53 2.140 . S
C40 O41 1.227 . S
C40 O50 1.265 . S
O41 C40 1.227 . S
N42 Co39 2.121 . S
N42 C44 1.375 . S
N42 C45 1.313 . S
C43 C44 1.338 . S
C43 N46 1.377 . S
C43 H63 0.930 . S
C44 N42 1.375 . S
C44 C43 1.338 . S
C44 H48 0.931 . S
C45 N42 1.313 . S
C45 N46 1.344 . S
C45 H49 0.930 . S
N46 C43 1.377 . S
N46 C45 1.344 . S
O47 Co39 2.055 . S
O47 C51 1.253 . S
H48 C44 0.931 . S
H49 C45 0.930 . S
O50 Co39 2.039 . S
O50 C40 1.265 . S
C51 O47 1.253 . S
C51 O52 1.227 . S
O52 C51 1.227 . S
N53 Co39 2.140 . S
N53 C56 1.346 . S
N53 C57 1.345 . S
C54 C55 1.387 . S
C54 C58 1.391 . S
C55 C54 1.387 . S
C55 C56 1.369 . S
C55 H64 0.929 . S
C56 N53 1.346 . S
C56 C55 1.369 . S
C56 H59 0.928 . S
C57 N53 1.345 . S
C57 C58 1.371 . S
C57 H60 0.931 . S
C58 C54 1.391 . S
C58 C57 1.371 . S
C58 H65 0.930 . S
H59 C56 0.928 . S
H60 C57 0.931 . S
H61 C37 0.930 . S
H62 C34 0.930 . S
H63 C43 0.930 . S
H64 C55 0.929 . S
H65 C58 0.930 . S
C66 C67 1.351 . S
C66 N69 1.368 . S
C66 H71 0.931 . S
C67 C66 1.351 . S
C67 N68 1.373 . S
C67 H95 0.930 . S
N68 C67 1.373 . S
N68 C70 1.340 . S
N69 C66 1.368 . S
N69 C70 1.321 . S
N69 Co72 2.135 . S
C70 N68 1.340 . S
C70 N69 1.321 . S
C70 H94 0.930 . S
H71 C66 0.931 . S
Co72 N69 2.135 . S
Co72 N75 2.121 . S
Co72 O80 2.055 . S
Co72 O83 2.039 . S
Co72 N86 2.140 . S
C73 O74 1.227 . S
C73 O83 1.265 . S
O74 C73 1.227 . S
N75 Co72 2.121 . S
N75 C77 1.375 . S
N75 C78 1.313 . S
C76 C77 1.338 . S
C76 N79 1.377 . S
C76 H96 0.930 . S
C77 N75 1.375 . S
C77 C76 1.338 . S
C77 H81 0.931 . S
C78 N75 1.313 . S
C78 N79 1.344 . S
C78 H82 0.930 . S
N79 C76 1.377 . S
N79 C78 1.344 . S
O80 Co72 2.055 . S
O80 C84 1.253 . S
H81 C77 0.931 . S
H82 C78 0.930 . S
O83 Co72 2.039 . S
O83 C73 1.265 . S
C84 O80 1.253 . S
C84 O85 1.227 . S
O85 C84 1.227 . S
N86 Co72 2.140 . S
N86 C89 1.346 . S
N86 C90 1.345 . S
C87 C88 1.387 . S
C87 C91 1.391 . S
C88 C87 1.387 . S
C88 C89 1.369 . S
C88 H97 0.929 . S
C89 N86 1.346 . S
C89 C88 1.369 . S
C89 H92 0.928 . S
C90 N86 1.345 . S
C90 C91 1.371 . S
C90 H93 0.931 . S
C91 C87 1.391 . S
C91 C90 1.371 . S
C91 H98 0.930 . S
H92 C89 0.928 . S
H93 C90 0.931 . S
H94 C70 0.930 . S
H95 C67 0.930 . S
H96 C76 0.930 . S
H97 C88 0.929 . S
H98 C91 0.930 . S
C99 C100 1.351 . S
C99 N102 1.368 . S
C99 H104 0.931 . S
C100 C99 1.351 . S
C100 N101 1.373 . S
C100 H128 0.930 . S
N101 C100 1.373 . S
N101 C103 1.340 . S
N102 C99 1.368 . S
N102 C103 1.321 . S
N102 Co105 2.135 . S
C103 N101 1.340 . S
C103 N102 1.321 . S
C103 H127 0.930 . S
H104 C99 0.931 . S
Co105 N102 2.135 . S
Co105 N108 2.121 . S
Co105 O113 2.055 . S
Co105 O116 2.039 . S
Co105 N119 2.140 . S
C106 O107 1.227 . S
C106 O116 1.265 . S
O107 C106 1.227 . S
N108 Co105 2.121 . S
N108 C110 1.375 . S
N108 C111 1.313 . S
C109 C110 1.338 . S
C109 N112 1.377 . S
C109 H129 0.930 . S
C110 N108 1.375 . S
C110 C109 1.338 . S
C110 H114 0.931 . S
C111 N108 1.313 . S
C111 N112 1.344 . S
C111 H115 0.930 . S
N112 C109 1.377 . S
N112 C111 1.344 . S
O113 Co105 2.055 . S
O113 C117 1.253 . S
H114 C110 0.931 . S
H115 C111 0.930 . S
O116 Co105 2.039 . S
O116 C106 1.265 . S
C117 O113 1.253 . S
C117 O118 1.227 . S
O118 C117 1.227 . S
N119 Co105 2.140 . S
N119 C122 1.346 . S
N119 C123 1.345 . S
C120 C121 1.387 . S
C120 C124 1.391 . S
C121 C120 1.387 . S
C121 C122 1.369 . S
C121 H130 0.929 . S
C122 N119 1.346 . S
C122 C121 1.369 . S
C122 H125 0.928 . S
C123 N119 1.345 . S
C123 C124 1.371 . S
C123 H126 0.931 . S
C124 C120 1.391 . S
C124 C123 1.371 . S
C124 H131 0.930 . S
H125 C122 0.928 . S
H126 C123 0.931 . S
H127 C103 0.930 . S
H128 C100 0.930 . S
H129 C109 0.930 . S
H130 C121 0.929 . S
H131 C124 0.930 . S
C132 C133 1.351 . S
C132 N135 1.368 . S
C132 H137 0.931 . S
C133 C132 1.351 . S
C133 N134 1.373 . S
C133 H161 0.930 . S
N134 C133 1.373 . S
N134 C136 1.340 . S
N135 C132 1.368 . S
N135 C136 1.321 . S
N135 Co138 2.135 . S
C136 N134 1.340 . S
C136 N135 1.321 . S
C136 H160 0.930 . S
H137 C132 0.931 . S
Co138 N135 2.135 . S
Co138 N141 2.121 . S
Co138 O146 2.055 . S
Co138 O149 2.039 . S
Co138 N152 2.140 . S
C139 O140 1.227 . S
C139 O149 1.265 . S
O140 C139 1.227 . S
N141 Co138 2.121 . S
N141 C143 1.375 . S
N141 C144 1.313 . S
C142 C143 1.338 . S
C142 N145 1.377 . S
C142 H162 0.930 . S
C143 N141 1.375 . S
C143 C142 1.338 . S
C143 H147 0.931 . S
C144 N141 1.313 . S
C144 N145 1.344 . S
C144 H148 0.930 . S
N145 C142 1.377 . S
N145 C144 1.344 . S
O146 Co138 2.055 . S
O146 C150 1.253 . S
H147 C143 0.931 . S
H148 C144 0.930 . S
O149 Co138 2.039 . S
O149 C139 1.265 . S
C150 O146 1.253 . S
C150 O151 1.227 . S
O151 C150 1.227 . S
N152 Co138 2.140 . S
N152 C155 1.346 . S
N152 C156 1.345 . S
C153 C154 1.387 . S
C153 C157 1.391 . S
C154 C153 1.387 . S
C154 C155 1.369 . S
C154 H163 0.929 . S
C155 N152 1.346 . S
C155 C154 1.369 . S
C155 H158 0.928 . S
C156 N152 1.345 . S
C156 C157 1.371 . S
C156 H159 0.931 . S
C157 C153 1.391 . S
C157 C156 1.371 . S
C157 H164 0.930 . S
H158 C155 0.928 . S
H159 C156 0.931 . S
H160 C136 0.930 . S
H161 C133 0.930 . S
H162 C142 0.930 . S
H163 C154 0.929 . S
H164 C157 0.930 . S
C165 C166 1.351 . S
C165 N168 1.368 . S
C165 H170 0.931 . S
C166 C165 1.351 . S
C166 N167 1.373 . S
C166 H194 0.930 . S
N167 C166 1.373 . S
N167 C169 1.340 . S
N168 C165 1.368 . S
N168 C169 1.321 . S
N168 Co171 2.135 . S
C169 N167 1.340 . S
C169 N168 1.321 . S
C169 H193 0.930 . S
H170 C165 0.931 . S
Co171 N168 2.135 . S
Co171 N174 2.121 . S
Co171 O179 2.055 . S
Co171 O182 2.039 . S
Co171 N185 2.140 . S
C172 O173 1.227 . S
C172 O182 1.265 . S
O173 C172 1.227 . S
N174 Co171 2.121 . S
N174 C176 1.375 . S
N174 C177 1.313 . S
C175 C176 1.338 . S
C175 N178 1.377 . S
C175 H195 0.930 . S
C176 N174 1.375 . S
C176 C175 1.338 . S
C176 H180 0.931 . S
C177 N174 1.313 . S
C177 N178 1.344 . S
C177 H181 0.930 . S
N178 C175 1.377 . S
N178 C177 1.344 . S
O179 Co171 2.055 . S
O179 C183 1.253 . S
H180 C176 0.931 . S
H181 C177 0.930 . S
O182 Co171 2.039 . S
O182 C172 1.265 . S
C183 O179 1.253 . S
C183 O184 1.227 . S
O184 C183 1.227 . S
N185 Co171 2.140 . S
N185 C188 1.346 . S
N185 C189 1.345 . S
C186 C187 1.387 . S
C186 C190 1.391 . S
C187 C186 1.387 . S
C187 C188 1.369 . S
C187 H196 0.929 . S
C188 N185 1.346 . S
C188 C187 1.369 . S
C188 H191 0.928 . S
C189 N185 1.345 . S
C189 C190 1.371 . S
C189 H192 0.931 . S
C190 C186 1.391 . S
C190 C189 1.371 . S
C190 H197 0.930 . S
H191 C188 0.928 . S
H192 C189 0.931 . S
H193 C169 0.930 . S
H194 C166 0.930 . S
H195 C175 0.930 . S
H196 C187 0.929 . S
H197 C190 0.930 . S
C198 C199 1.351 . S
C198 N201 1.368 . S
C198 H203 0.931 . S
C199 C198 1.351 . S
C199 N200 1.373 . S
C199 H227 0.930 . S
N200 C199 1.373 . S
N200 C202 1.340 . S
N201 C198 1.368 . S
N201 C202 1.321 . S
N201 Co204 2.135 . S
C202 N200 1.340 . S
C202 N201 1.321 . S
C202 H226 0.930 . S
H203 C198 0.931 . S
Co204 N201 2.135 . S
Co204 N207 2.121 . S
Co204 O212 2.055 . S
Co204 O215 2.039 . S
Co204 N218 2.140 . S
C205 O206 1.227 . S
C205 O215 1.265 . S
O206 C205 1.227 . S
N207 Co204 2.121 . S
N207 C209 1.375 1_556 S
N207 C210 1.313 1_556 S
C208 C209 1.338 . S
C208 N211 1.377 . S
C208 H228 0.930 . S
C209 N207 1.375 1_554 S
C209 C208 1.338 . S
C209 H213 0.931 . S
C210 N207 1.313 1_554 S
C210 N211 1.344 . S
C210 H214 0.930 . S
N211 C208 1.377 . S
N211 C210 1.344 . S
O212 Co204 2.055 . S
O212 C216 1.253 . S
H213 C209 0.931 . S
H214 C210 0.930 . S
O215 Co204 2.039 . S
O215 C205 1.265 . S
C216 O212 1.253 . S
C216 O217 1.227 . S
O217 C216 1.227 . S
N218 Co204 2.140 . S
N218 C221 1.346 . S
N218 C222 1.345 . S
C219 C220 1.387 . S
C219 C223 1.391 1_556 S
C220 C219 1.387 . S
C220 C221 1.369 . S
C220 H229 0.929 . S
C221 N218 1.346 . S
C221 C220 1.369 . S
C221 H224 0.928 . S
C222 N218 1.345 . S
C222 C223 1.371 1_556 S
C222 H225 0.931 1_556 S
C223 C219 1.391 1_554 S
C223 C222 1.371 1_554 S
C223 H230 0.930 . S
H224 C221 0.928 . S
H225 C222 0.931 1_554 S
H226 C202 0.930 . S
H227 C199 0.930 . S
H228 C208 0.930 . S
H229 C220 0.929 . S
H230 C223 0.930 . S
C231 C232 1.351 . S
C231 N234 1.368 . S
C231 H236 0.931 . S
C232 C231 1.351 . S
C232 N233 1.373 . S
C232 H260 0.930 . S
N233 C232 1.373 . S
N233 C235 1.340 . S
N234 C231 1.368 . S
N234 C235 1.321 . S
N234 Co237 2.135 . S
C235 N233 1.340 . S
C235 N234 1.321 . S
C235 H259 0.930 . S
H236 C231 0.931 . S
Co237 N234 2.135 . S
Co237 N240 2.121 . S
Co237 O245 2.055 . S
Co237 O248 2.039 . S
Co237 N251 2.140 . S
C238 O239 1.227 . S
C238 O248 1.265 . S
O239 C238 1.227 . S
N240 Co237 2.121 . S
N240 C242 1.375 . S
N240 C243 1.313 . S
C241 C242 1.338 . S
C241 N244 1.377 . S
C241 H261 0.930 . S
C242 N240 1.375 . S
C242 C241 1.338 . S
C242 H246 0.931 . S
C243 N240 1.313 . S
C243 N244 1.344 . S
C243 H247 0.930 . S
N244 C241 1.377 . S
N244 C243 1.344 . S
O245 Co237 2.055 . S
O245 C249 1.253 . S
H246 C242 0.931 . S
H247 C243 0.930 . S
O248 Co237 2.039 . S
O248 C238 1.265 . S
C249 O245 1.253 . S
C249 O250 1.227 . S
O250 C249 1.227 . S
N251 Co237 2.140 . S
N251 C254 1.346 . S
N251 C255 1.345 . S
C252 C253 1.387 . S
C252 C256 1.391 . S
C253 C252 1.387 . S
C253 C254 1.369 . S
C253 H262 0.929 . S
C254 N251 1.346 . S
C254 C253 1.369 . S
C254 H257 0.928 . S
C255 N251 1.345 . S
C255 C256 1.371 . S
C255 H258 0.931 . S
C256 C252 1.391 . S
C256 C255 1.371 . S
C256 H263 0.930 . S
H257 C254 0.928 . S
H258 C255 0.931 . S
H259 C235 0.930 . S
H260 C232 0.930 . S
H261 C241 0.930 . S
H262 C253 0.929 . S
H263 C256 0.930 . S
C264 C265 1.363 . S
C264 C270 1.379 . S
C264 N272 1.356 . S
C265 C264 1.363 . S
C265 C271 1.363 . S
C266 C267 1.363 . S
C266 C271 1.379 . S
C266 N273 1.356 . S
C267 C266 1.363 . S
C267 C270 1.363 . S
N268 C270 1.356 . S
N268 H280 0.984 . S
N268 H281 0.985 . S
N269 C271 1.356 . S
N269 H274 0.984 . S
N269 H275 0.985 . S
C270 C264 1.379 . S
C270 C267 1.363 . S
C270 N268 1.356 . S
C271 C265 1.363 . S
C271 C266 1.379 . S
C271 N269 1.356 . S
N272 C264 1.356 . S
N272 H278 0.984 . S
N272 H279 0.984 . S
N273 C266 1.356 . S
N273 H276 0.984 . S
N273 H277 0.985 . S
H274 N269 0.984 . S
H275 N269 0.985 . S
H276 N273 0.984 . S
H277 N273 0.985 . S
H278 N272 0.984 . S
H279 N272 0.984 . S
H280 N268 0.984 . S
H281 N268 0.985 . S
C282 C283 1.363 . S
C282 C288 1.379 . S
C282 N290 1.356 . S
C283 C282 1.363 . S
C283 C289 1.363 . S
C284 C285 1.363 . S
C284 C289 1.379 . S
C284 N291 1.356 . S
C285 C284 1.363 . S
C285 C288 1.363 . S
N286 C288 1.356 . S
N286 H298 0.984 . S
N286 H299 0.985 . S
N287 C289 1.356 . S
N287 H292 0.984 . S
N287 H293 0.985 . S
C288 C282 1.379 . S
C288 C285 1.363 . S
C288 N286 1.356 . S
C289 C283 1.363 . S
C289 C284 1.379 . S
C289 N287 1.356 . S
N290 C282 1.356 . S
N290 H296 0.984 . S
N290 H297 0.984 . S
N291 C284 1.356 . S
N291 H294 0.984 . S
N291 H295 0.985 . S
H292 N287 0.984 . S
H293 N287 0.985 . S
H294 N291 0.984 . S
H295 N291 0.985 . S
H296 N290 0.984 . S
H297 N290 0.984 . S
H298 N286 0.984 . S
H299 N286 0.985 . S
C300 C301 1.363 . S
C300 C306 1.379 . S
C300 N308 1.356 . S
C301 C300 1.363 . S
C301 C307 1.363 . S
C302 C303 1.363 . S
C302 C307 1.379 . S
C302 N309 1.356 . S
C303 C302 1.363 . S
C303 C306 1.363 . S
N304 C306 1.356 . S
N304 H316 0.984 . S
N304 H317 0.985 . S
N305 C307 1.356 . S
N305 H310 0.984 . S
N305 H311 0.985 . S
C306 C300 1.379 . S
C306 C303 1.363 . S
C306 N304 1.356 . S
C307 C301 1.363 . S
C307 C302 1.379 . S
C307 N305 1.356 . S
N308 C300 1.356 . S
N308 H314 0.984 . S
N308 H315 0.984 . S
N309 C302 1.356 . S
N309 H312 0.984 . S
N309 H313 0.985 . S
H310 N305 0.984 . S
H311 N305 0.985 . S
H312 N309 0.984 . S
H313 N309 0.985 . S
H314 N308 0.984 . S
H315 N308 0.984 . S
H316 N304 0.984 . S
H317 N304 0.985 . S
C318 C319 1.363 . S
C318 C324 1.379 1_556 S
C318 N326 1.356 . S
C319 C318 1.363 . S
C319 C325 1.363 . S
C320 C321 1.363 . S
C320 C325 1.379 1_554 S
C320 N327 1.356 . S
C321 C320 1.363 . S
C321 C324 1.363 . S
N322 C324 1.356 . S
N322 H334 0.984 . S
N322 H335 0.985 . S
N323 C325 1.356 . S
N323 H328 0.984 . S
N323 H329 0.985 . S
C324 C318 1.379 1_554 S
C324 C321 1.363 . S
C324 N322 1.356 . S
C325 C319 1.363 . S
C325 C320 1.379 1_556 S
C325 N323 1.356 . S
N326 C318 1.356 . S
N326 H332 0.984 . S
N326 H333 0.984 . S
N327 C320 1.356 . S
N327 H330 0.984 . S
N327 H331 0.985 . S
H328 N323 0.984 . S
H329 N323 0.985 . S
H330 N327 0.984 . S
H331 N327 0.985 . S
H332 N326 0.984 . S
H333 N326 0.984 . S
H334 N322 0.984 . S
H335 N322 0.985 . S
C336 C337 1.363 1_554 S
C336 C342 1.379 1_455 S
C336 N344 1.356 . S
C337 C336 1.363 1_556 S
C337 C343 1.363 . S
C338 C339 1.363 1_556 S
C338 C343 1.379 1_655 S
C338 N345 1.356 . S
C339 C338 1.363 1_554 S
C339 C342 1.363 . S
N340 C342 1.356 . S
N340 H352 0.984 . S
N340 H353 0.985 . S
N341 C343 1.356 . S
N341 H346 0.984 . S
N341 H347 0.985 . S
C342 C336 1.379 1_655 S
C342 C339 1.363 . S
C342 N340 1.356 . S
C343 C337 1.363 . S
C343 C338 1.379 1_455 S
C343 N341 1.356 . S
N344 C336 1.356 . S
N344 H350 0.984 . S
N344 H351 0.984 . S
N345 C338 1.356 . S
N345 H348 0.984 . S
N345 H349 0.985 . S
H346 N341 0.984 . S
H347 N341 0.985 . S
H348 N345 0.984 . S
H349 N345 0.985 . S
H350 N344 0.984 . S
H351 N344 0.984 . S
H352 N340 0.984 . S
H353 N340 0.985 . S
C354 C355 1.363 . S
C354 C360 1.379 1_545 S
C354 N362 1.356 . S
C355 C354 1.363 . S
C355 C361 1.363 . S
C356 C357 1.363 . S
C356 C361 1.379 1_565 S
C356 N363 1.356 . S
C357 C356 1.363 . S
C357 C360 1.363 . S
N358 C360 1.356 . S
N358 H370 0.984 . S
N358 H371 0.985 . S
N359 C361 1.356 . S
N359 H364 0.984 . S
N359 H365 0.985 . S
C360 C354 1.379 1_565 S
C360 C357 1.363 . S
C360 N358 1.356 . S
C361 C355 1.363 . S
C361 C356 1.379 1_545 S
C361 N359 1.356 . S
N362 C354 1.356 . S
N362 H368 0.984 . S
N362 H369 0.984 . S
N363 C356 1.356 . S
N363 H366 0.984 . S
N363 H367 0.985 . S
H364 N359 0.984 . S
H365 N359 0.985 . S
H366 N363 0.984 . S
H367 N363 0.985 . S
H368 N362 0.984 . S
H369 N362 0.984 . S
H370 N358 0.984 . S
H371 N358 0.985 . S
C372 C373 1.363 . S
C372 C378 1.379 1_455 S
C372 N380 1.356 . S
C373 C372 1.363 . S
C373 C379 1.363 . S
C374 C375 1.363 . S
C374 C379 1.379 1_655 S
C374 N381 1.356 . S
C375 C374 1.363 . S
C375 C378 1.363 . S
N376 C378 1.356 . S
N376 H388 0.984 . S
N376 H389 0.985 . S
N377 C379 1.356 . S
N377 H382 0.984 . S
N377 H383 0.985 . S
C378 C372 1.379 1_655 S
C378 C375 1.363 . S
C378 N376 1.356 . S
C379 C373 1.363 . S
C379 C374 1.379 1_455 S
C379 N377 1.356 . S
N380 C372 1.356 . S
N380 H386 0.984 . S
N380 H387 0.984 . S
N381 C374 1.356 . S
N381 H384 0.984 . S
N381 H385 0.985 . S
H382 N377 0.984 . S
H383 N377 0.985 . S
H384 N381 0.984 . S
H385 N381 0.985 . S
H386 N380 0.984 . S
H387 N380 0.984 . S
H388 N376 0.984 . S
H389 N376 0.985 . S
C390 C391 1.363 . S
C390 C396 1.379 1_545 S
C390 N398 1.356 . S
C391 C390 1.363 . S
C391 C397 1.363 . S
C392 C393 1.363 . S
C392 C397 1.379 1_565 S
C392 N399 1.356 . S
C393 C392 1.363 . S
C393 C396 1.363 . S
N394 C396 1.356 . S
N394 H406 0.984 . S
N394 H407 0.985 . S
N395 C397 1.356 . S
N395 H400 0.984 . S
N395 H401 0.985 . S
C396 C390 1.379 1_565 S
C396 C393 1.363 . S
C396 N394 1.356 . S
C397 C391 1.363 . S
C397 C392 1.379 1_545 S
C397 N395 1.356 . S
N398 C390 1.356 . S
N398 H404 0.984 . S
N398 H405 0.984 . S
N399 C392 1.356 . S
N399 H402 0.984 . S
N399 H403 0.985 . S
H400 N395 0.984 . S
H401 N395 0.985 . S
H402 N399 0.984 . S
H403 N399 0.985 . S
H404 N398 0.984 . S
H405 N398 0.984 . S
H406 N394 0.984 . S
H407 N394 0.985 . S
C408 C409 1.363 . S
C408 C414 1.379 . S
C408 N416 1.356 . S
C409 C408 1.363 . S
C409 C415 1.363 . S
C410 C411 1.363 . S
C410 C415 1.379 . S
C410 N417 1.356 . S
C411 C410 1.363 . S
C411 C414 1.363 . S
N412 C414 1.356 . S
N412 H424 0.984 . S
N412 H425 0.985 . S
N413 C415 1.356 . S
N413 H418 0.984 . S
N413 H419 0.985 . S
C414 C408 1.379 . S
C414 C411 1.363 . S
C414 N412 1.356 . S
C415 C409 1.363 . S
C415 C410 1.379 . S
C415 N413 1.356 . S
N416 C408 1.356 . S
N416 H422 0.984 . S
N416 H423 0.984 . S
N417 C410 1.356 . S
N417 H420 0.984 . S
N417 H421 0.985 . S
H418 N413 0.984 . S
H419 N413 0.985 . S
H420 N417 0.984 . S
H421 N417 0.985 . S
H422 N416 0.984 . S
H423 N416 0.984 . S
H424 N412 0.984 . S
H425 N412 0.985 . S
C426 C427 1.363 . S
C426 C432 1.379 . S
C426 N434 1.356 . S
C427 C426 1.363 . S
C427 C433 1.363 . S
C428 C429 1.363 . S
C428 C433 1.379 . S
C428 N435 1.356 . S
C429 C428 1.363 . S
C429 C432 1.363 . S
N430 C432 1.356 . S
N430 H442 0.984 . S
N430 H443 0.985 . S
N431 C433 1.356 . S
N431 H436 0.984 . S
N431 H437 0.985 . S
C432 C426 1.379 . S
C432 C429 1.363 . S
C432 N430 1.356 . S
C433 C427 1.363 . S
C433 C428 1.379 . S
C433 N431 1.356 . S
N434 C426 1.356 . S
N434 H440 0.984 . S
N434 H441 0.984 . S
N435 C428 1.356 . S
N435 H438 0.984 . S
N435 H439 0.985 . S
H436 N431 0.984 . S
H437 N431 0.985 . S
H438 N435 0.984 . S
H439 N435 0.985 . S
H440 N434 0.984 . S
H441 N434 0.984 . S
H442 N430 0.984 . S
H443 N430 0.985 . S
C444 C445 1.363 . S
C444 C450 1.379 . S
C444 N452 1.356 . S
C445 C444 1.363 . S
C445 C451 1.363 . S
C446 C447 1.363 . S
C446 C451 1.379 . S
C446 N453 1.356 . S
C447 C446 1.363 . S
C447 C450 1.363 . S
N448 C450 1.356 . S
N448 H460 0.984 . S
N448 H461 0.985 . S
N449 C451 1.356 . S
N449 H454 0.984 . S
N449 H455 0.985 . S
C450 C444 1.379 . S
C450 C447 1.363 . S
C450 N448 1.356 . S
C451 C445 1.363 . S
C451 C446 1.379 . S
C451 N449 1.356 . S
N452 C444 1.356 . S
N452 H458 0.984 . S
N452 H459 0.984 . S
N453 C446 1.356 . S
N453 H456 0.984 . S
N453 H457 0.985 . S
H454 N449 0.984 . S
H455 N449 0.985 . S
H456 N453 0.984 . S
H457 N453 0.985 . S
H458 N452 0.984 . S
H459 N452 0.984 . S
H460 N448 0.984 . S
H461 N448 0.985 . S
C462 C463 1.363 . S
C462 C468 1.379 . S
C462 N470 1.356 . S
C463 C462 1.363 . S
C463 C469 1.363 . S
C464 C465 1.363 . S
C464 C469 1.379 . S
C464 N471 1.356 . S
C465 C464 1.363 . S
C465 C468 1.363 . S
N466 C468 1.356 . S
N466 H478 0.984 . S
N466 H479 0.985 . S
N467 C469 1.356 . S
N467 H472 0.984 . S
N467 H473 0.985 . S
C468 C462 1.379 . S
C468 C465 1.363 . S
C468 N466 1.356 . S
C469 C463 1.363 . S
C469 C464 1.379 . S
C469 N467 1.356 . S
N470 C462 1.356 . S
N470 H476 0.984 . S
N470 H477 0.984 . S
N471 C464 1.356 . S
N471 H474 0.984 . S
N471 H475 0.985 . S
H472 N467 0.984 . S
H473 N467 0.985 . S
H474 N471 0.984 . S
H475 N471 0.985 . S
H476 N470 0.984 . S
H477 N470 0.984 . S
H478 N466 0.984 . S
H479 N466 0.985 . S
C480 C481 1.363 . S
C480 C486 1.379 . S
C480 N488 1.356 . S
C481 C480 1.363 . S
C481 C487 1.363 . S
C482 C483 1.363 . S
C482 C487 1.379 . S
C482 N489 1.356 . S
C483 C482 1.363 . S
C483 C486 1.363 . S
N484 C486 1.356 . S
N484 H496 0.984 . S
N484 H497 0.985 . S
N485 C487 1.356 . S
N485 H490 0.984 . S
N485 H491 0.985 . S
C486 C480 1.379 . S
C486 C483 1.363 . S
C486 N484 1.356 . S
C487 C481 1.363 . S
C487 C482 1.379 . S
C487 N485 1.356 . S
N488 C480 1.356 . S
N488 H494 0.984 . S
N488 H495 0.984 . S
N489 C482 1.356 . S
N489 H492 0.984 . S
N489 H493 0.985 . S
H490 N485 0.984 . S
H491 N485 0.985 . S
H492 N489 0.984 . S
H493 N489 0.985 . S
H494 N488 0.984 . S
H495 N488 0.984 . S
H496 N484 0.984 . S
H497 N484 0.985 . S
C498 C499 1.363 . S
C498 C504 1.379 . S
C498 N506 1.356 . S
C499 C498 1.363 . S
C499 C505 1.363 . S
C500 C501 1.363 . S
C500 C505 1.379 . S
C500 N507 1.356 . S
C501 C500 1.363 . S
C501 C504 1.363 . S
N502 C504 1.356 . S
N502 H514 0.984 . S
N502 H515 0.985 . S
N503 C505 1.356 . S
N503 H508 0.984 . S
N503 H509 0.985 . S
C504 C498 1.379 . S
C504 C501 1.363 . S
C504 N502 1.356 . S
C505 C499 1.363 . S
C505 C500 1.379 . S
C505 N503 1.356 . S
N506 C498 1.356 . S
N506 H512 0.984 . S
N506 H513 0.984 . S
N507 C500 1.356 . S
N507 H510 0.984 . S
N507 H511 0.985 . S
H508 N503 0.984 . S
H509 N503 0.985 . S
H510 N507 0.984 . S
H511 N507 0.985 . S
H512 N506 0.984 . S
H513 N506 0.984 . S
H514 N502 0.984 . S
H515 N502 0.985 . S
C516 C517 1.363 . S
C516 C522 1.379 . S
C516 N524 1.356 . S
C517 C516 1.363 . S
C517 C523 1.363 . S
C518 C519 1.363 . S
C518 C523 1.379 . S
C518 N525 1.356 . S
C519 C518 1.363 . S
C519 C522 1.363 . S
N520 C522 1.356 . S
N520 H532 0.984 . S
N520 H533 0.985 . S
N521 C523 1.356 . S
N521 H526 0.984 . S
N521 H527 0.985 . S
C522 C516 1.379 . S
C522 C519 1.363 . S
C522 N520 1.356 . S
C523 C517 1.363 . S
C523 C518 1.379 . S
C523 N521 1.356 . S
N524 C516 1.356 . S
N524 H530 0.984 . S
N524 H531 0.984 . S
N525 C518 1.356 . S
N525 H528 0.984 . S
N525 H529 0.985 . S
H526 N521 0.984 . S
H527 N521 0.985 . S
H528 N525 0.984 . S
H529 N525 0.985 . S
H530 N524 0.984 . S
H531 N524 0.984 . S
H532 N520 0.984 . S
H533 N520 0.985 . S
C534 C535 1.363 . S
C534 C540 1.379 . S
C534 N542 1.356 . S
C535 C534 1.363 . S
C535 C541 1.363 . S
C536 C537 1.363 . S
C536 C541 1.379 . S
C536 N543 1.356 . S
C537 C536 1.363 . S
C537 C540 1.363 . S
N538 C540 1.356 . S
N538 H550 0.984 . S
N538 H551 0.985 . S
N539 C541 1.356 . S
N539 H544 0.984 . S
N539 H545 0.985 . S
C540 C534 1.379 . S
C540 C537 1.363 . S
C540 N538 1.356 . S
C541 C535 1.363 . S
C541 C536 1.379 . S
C541 N539 1.356 . S
N542 C534 1.356 . S
N542 H548 0.984 . S
N542 H549 0.984 . S
N543 C536 1.356 . S
N543 H546 0.984 . S
N543 H547 0.985 . S
H544 N539 0.984 . S
H545 N539 0.985 . S
H546 N543 0.984 . S
H547 N543 0.985 . S
H548 N542 0.984 . S
H549 N542 0.984 . S
H550 N538 0.984 . S
H551 N538 0.985 . S
C552 C553 1.363 . S
C552 C558 1.379 . S
C552 N560 1.356 . S
C553 C552 1.363 . S
C553 C559 1.363 . S
C554 C555 1.363 . S
C554 C559 1.379 . S
C554 N561 1.356 . S
C555 C554 1.363 . S
C555 C558 1.363 . S
N556 C558 1.356 . S
N556 H568 0.984 . S
N556 H569 0.985 . S
N557 C559 1.356 . S
N557 H562 0.984 . S
N557 H563 0.985 . S
C558 C552 1.379 . S
C558 C555 1.363 . S
C558 N556 1.356 . S
C559 C553 1.363 . S
C559 C554 1.379 . S
C559 N557 1.356 . S
N560 C552 1.356 . S
N560 H566 0.984 . S
N560 H567 0.984 . S
N561 C554 1.356 . S
N561 H564 0.984 . S
N561 H565 0.985 . S
H562 N557 0.984 . S
H563 N557 0.985 . S
H564 N561 0.984 . S
H565 N561 0.985 . S
H566 N560 0.984 . S
H567 N560 0.984 . S
H568 N556 0.984 . S
H569 N556 0.985 . S
C570 C571 1.363 . S
C570 C576 1.379 . S
C570 N578 1.356 . S
C571 C570 1.363 . S
C571 C577 1.363 . S
C572 C573 1.363 . S
C572 C577 1.379 . S
C572 N579 1.356 . S
C573 C572 1.363 . S
C573 C576 1.363 . S
N574 C576 1.356 . S
N574 H586 0.984 . S
N574 H587 0.985 . S
N575 C577 1.356 . S
N575 H580 0.984 . S
N575 H581 0.985 . S
C576 C570 1.379 . S
C576 C573 1.363 . S
C576 N574 1.356 . S
C577 C571 1.363 . S
C577 C572 1.379 . S
C577 N575 1.356 . S
N578 C570 1.356 . S
N578 H584 0.984 . S
N578 H585 0.984 . S
N579 C572 1.356 . S
N579 H582 0.984 . S
N579 H583 0.985 . S
H580 N575 0.984 . S
H581 N575 0.985 . S
H582 N579 0.984 . S
H583 N579 0.985 . S
H584 N578 0.984 . S
H585 N578 0.984 . S
H586 N574 0.984 . S
H587 N574 0.985 . S
C588 C589 1.363 . S
C588 C594 1.379 . S
C588 N596 1.356 . S
C589 C588 1.363 . S
C589 C595 1.363 . S
C590 C591 1.363 . S
C590 C595 1.379 . S
C590 N597 1.356 . S
C591 C590 1.363 . S
C591 C594 1.363 . S
N592 C594 1.356 . S
N592 H604 0.984 . S
N592 H605 0.985 . S
N593 C595 1.356 . S
N593 H598 0.984 . S
N593 H599 0.985 . S
C594 C588 1.379 . S
C594 C591 1.363 . S
C594 N592 1.356 . S
C595 C589 1.363 . S
C595 C590 1.379 . S
C595 N593 1.356 . S
N596 C588 1.356 . S
N596 H602 0.984 . S
N596 H603 0.984 . S
N597 C590 1.356 . S
N597 H600 0.984 . S
N597 H601 0.985 . S
H598 N593 0.984 . S
H599 N593 0.985 . S
H600 N597 0.984 . S
H601 N597 0.985 . S
H602 N596 0.984 . S
H603 N596 0.984 . S
H604 N592 0.984 . S
H605 N592 0.985 . S
C606 C607 1.363 . S
C606 C612 1.379 . S
C606 N614 1.356 . S
C607 C606 1.363 . S
C607 C613 1.363 . S
C608 C609 1.363 . S
C608 C613 1.379 . S
C608 N615 1.356 . S
C609 C608 1.363 . S
C609 C612 1.363 . S
N610 C612 1.356 . S
N610 H622 0.984 . S
N610 H623 0.985 . S
N611 C613 1.356 . S
N611 H616 0.984 . S
N611 H617 0.985 . S
C612 C606 1.379 . S
C612 C609 1.363 . S
C612 N610 1.356 . S
C613 C607 1.363 . S
C613 C608 1.379 . S
C613 N611 1.356 . S
N614 C606 1.356 . S
N614 H620 0.984 . S
N614 H621 0.984 . S
N615 C608 1.356 . S
N615 H618 0.984 . S
N615 H619 0.985 . S
H616 N611 0.984 . S
H617 N611 0.985 . S
H618 N615 0.984 . S
H619 N615 0.985 . S
H620 N614 0.984 . S
H621 N614 0.984 . S
H622 N610 0.984 . S
H623 N610 0.985 . S
C265 N134 0.697 . S
C267 N2 0.697 . S
C283 N35 0.697 . S
C285 N167 0.697 . S
C301 N68 0.697 . S
C303 N200 0.697 . S
C319 N101 0.697 . S
C321 N233 0.697 . S
C337 C21 1.200 1_556 S
C339 C219 1.200 1_554 S
C355 C54 1.200 . S
C357 C252 1.200 . S
C373 C153 1.200 . S
C375 C87 1.200 . S
C391 C186 1.200 . S
C393 C120 1.200 . S
C409 C249 0.840 . S
C411 C18 0.840 . S
C427 C51 0.840 . S
C429 C150 0.840 . S
C445 C183 0.840 . S
C447 C84 0.840 . S
C463 C216 0.840 . S
C465 C117 0.840 . S
C481 C7 1.880 . S
C483 N46 1.972 . S
C499 C40 1.880 . S
C501 N79 1.972 . S
C517 N112 1.972 . S
C519 C73 1.881 . S
C535 N13 1.972 . S
C537 C106 1.880 . S
C553 C139 1.880 . S
C555 N244 1.972 . S
C571 N145 1.972 . S
C573 C172 1.880 . S
C589 C205 1.880 . S
C591 N178 1.972 . S
C607 C238 1.880 . S
C609 N211 1.972 . S
