# Generated by pormake.
# Topology wga, (5)-cn, num edge types: 1
# Building blocks:
#     Node 0, Type 0, BuildingBlock: BEQFEK_clean_sbu_0, # of connection points: 5
#     Node 1, Type 0, BuildingBlock: BEQFEK_clean_sbu_0, # of connection points: 5
#     Node 2, Type 0, BuildingBlock: BEQFEK_clean_sbu_0, # of connection points: 5
#     Node 3, Type 0, BuildingBlock: BEQFEK_clean_sbu_0, # of connection points: 5
#     Node 4, Type 0, BuildingBlock: BEQFEK_clean_sbu_0, # of connection points: 5
#     Node 5, Type 0, BuildingBlock: BEQFEK_clean_sbu_0, # of connection points: 5
#     Node 6, Type 0, BuildingBlock: BEQFEK_clean_sbu_0, # of connection points: 5
#     Node 7, Type 0, BuildingBlock: BEQFEK_clean_sbu_0, # of connection points: 5
#     Node 8, Type 0, BuildingBlock: BEQFEK_clean_sbu_0, # of connection points: 5
#     Node 9, Type 0, BuildingBlock: BEQFEK_clean_sbu_0, # of connection points: 5
#     Node 10, Type 0, BuildingBlock: BEQFEK_clean_sbu_0, # of connection points: 5
#     Node 11, Type 0, BuildingBlock: BEQFEK_clean_sbu_0, # of connection points: 5
#     Node 12, Type 0, BuildingBlock: BEQFEK_clean_sbu_0, # of connection points: 5
#     Node 13, Type 0, BuildingBlock: BEQFEK_clean_sbu_0, # of connection points: 5
#     Node 14, Type 0, BuildingBlock: BEQFEK_clean_sbu_0, # of connection points: 5
#     Node 15, Type 0, BuildingBlock: BEQFEK_clean_sbu_0, # of connection points: 5
#     Node 16, Type 0, BuildingBlock: BEQFEK_clean_sbu_0, # of connection points: 5
#     Node 17, Type 0, BuildingBlock: BEQFEK_clean_sbu_0, # of connection points: 5
#     Node 18, Type 0, BuildingBlock: BEQFEK_clean_sbu_0, # of connection points: 5
#     Node 19, Type 0, BuildingBlock: BEQFEK_clean_sbu_0, # of connection points: 5
#     Node 20, Type 0, BuildingBlock: BEQFEK_clean_sbu_0, # of connection points: 5
#     Node 21, Type 0, BuildingBlock: BEQFEK_clean_sbu_0, # of connection points: 5
#     Node 22, Type 0, BuildingBlock: BEQFEK_clean_sbu_0, # of connection points: 5
#     Node 23, Type 0, BuildingBlock: BEQFEK_clean_sbu_0, # of connection points: 5
#     Node 24, Type 0, BuildingBlock: BEQFEK_clean_sbu_0, # of connection points: 5
#     Node 25, Type 0, BuildingBlock: BEQFEK_clean_sbu_0, # of connection points: 5
#     Node 26, Type 0, BuildingBlock: BEQFEK_clean_sbu_0, # of connection points: 5
#     Node 27, Type 0, BuildingBlock: BEQFEK_clean_sbu_0, # of connection points: 5
#     Node 28, Type 0, BuildingBlock: BEQFEK_clean_sbu_0, # of connection points: 5
#     Node 29, Type 0, BuildingBlock: BEQFEK_clean_sbu_0, # of connection points: 5
#     Node 30, Type 0, BuildingBlock: BEQFEK_clean_sbu_0, # of connection points: 5
#     Node 31, Type 0, BuildingBlock: BEQFEK_clean_sbu_0, # of connection points: 5
#     Edge 32, Type (0, 0), BuildingBlock: ZUJKAS_clean_linker_0, # of connection points: 2
#     Edge 33, Type (0, 0), BuildingBlock: ZUJKAS_clean_linker_0, # of connection points: 2
#     Edge 34, Type (0, 0), BuildingBlock: ZUJKAS_clean_linker_0, # of connection points: 2
#     Edge 35, Type (0, 0), BuildingBlock: ZUJKAS_clean_linker_0, # of connection points: 2
#     Edge 36, Type (0, 0), BuildingBlock: ZUJKAS_clean_linker_0, # of connection points: 2
#     Edge 37, Type (0, 0), BuildingBlock: ZUJKAS_clean_linker_0, # of connection points: 2
#     Edge 38, Type (0, 0), BuildingBlock: ZUJKAS_clean_linker_0, # of connection points: 2
#     Edge 39, Type (0, 0), BuildingBlock: ZUJKAS_clean_linker_0, # of connection points: 2
#     Edge 40, Type (0, 0), BuildingBlock: ZUJKAS_clean_linker_0, # of connection points: 2
#     Edge 41, Type (0, 0), BuildingBlock: ZUJKAS_clean_linker_0, # of connection points: 2
#     Edge 42, Type (0, 0), BuildingBlock: ZUJKAS_clean_linker_0, # of connection points: 2
#     Edge 43, Type (0, 0), BuildingBlock: ZUJKAS_clean_linker_0, # of connection points: 2
#     Edge 44, Type (0, 0), BuildingBlock: ZUJKAS_clean_linker_0, # of connection points: 2
#     Edge 45, Type (0, 0), BuildingBlock: ZUJKAS_clean_linker_0, # of connection points: 2
#     Edge 46, Type (0, 0), BuildingBlock: ZUJKAS_clean_linker_0, # of connection points: 2
#     Edge 47, Type (0, 0), BuildingBlock: ZUJKAS_clean_linker_0, # of connection points: 2
#     Edge 48, Type (0, 0), BuildingBlock: ZUJKAS_clean_linker_0, # of connection points: 2
#     Edge 49, Type (0, 0), BuildingBlock: ZUJKAS_clean_linker_0, # of connection points: 2
#     Edge 50, Type (0, 0), BuildingBlock: ZUJKAS_clean_linker_0, # of connection points: 2
#     Edge 51, Type (0, 0), BuildingBlock: ZUJKAS_clean_linker_0, # of connection points: 2
#     Edge 52, Type (0, 0), BuildingBlock: ZUJKAS_clean_linker_0, # of connection points: 2
#     Edge 53, Type (0, 0), BuildingBlock: ZUJKAS_clean_linker_0, # of connection points: 2
#     Edge 54, Type (0, 0), BuildingBlock: ZUJKAS_clean_linker_0, # of connection points: 2
#     Edge 55, Type (0, 0), BuildingBlock: ZUJKAS_clean_linker_0, # of connection points: 2
#     Edge 56, Type (0, 0), BuildingBlock: ZUJKAS_clean_linker_0, # of connection points: 2
#     Edge 57, Type (0, 0), BuildingBlock: ZUJKAS_clean_linker_0, # of connection points: 2
#     Edge 58, Type (0, 0), BuildingBlock: ZUJKAS_clean_linker_0, # of connection points: 2
#     Edge 59, Type (0, 0), BuildingBlock: ZUJKAS_clean_linker_0, # of connection points: 2
#     Edge 60, Type (0, 0), BuildingBlock: ZUJKAS_clean_linker_0, # of connection points: 2
#     Edge 61, Type (0, 0), BuildingBlock: ZUJKAS_clean_linker_0, # of connection points: 2
#     Edge 62, Type (0, 0), BuildingBlock: ZUJKAS_clean_linker_0, # of connection points: 2
#     Edge 63, Type (0, 0), BuildingBlock: ZUJKAS_clean_linker_0, # of connection points: 2
#     Edge 64, Type (0, 0), BuildingBlock: ZUJKAS_clean_linker_0, # of connection points: 2
#     Edge 65, Type (0, 0), BuildingBlock: ZUJKAS_clean_linker_0, # of connection points: 2
#     Edge 66, Type (0, 0), BuildingBlock: ZUJKAS_clean_linker_0, # of connection points: 2
#     Edge 67, Type (0, 0), BuildingBlock: ZUJKAS_clean_linker_0, # of connection points: 2
#     Edge 68, Type (0, 0), BuildingBlock: ZUJKAS_clean_linker_0, # of connection points: 2
#     Edge 69, Type (0, 0), BuildingBlock: ZUJKAS_clean_linker_0, # of connection points: 2
#     Edge 70, Type (0, 0), BuildingBlock: ZUJKAS_clean_linker_0, # of connection points: 2
#     Edge 71, Type (0, 0), BuildingBlock: ZUJKAS_clean_linker_0, # of connection points: 2
#     Edge 72, Type (0, 0), BuildingBlock: ZUJKAS_clean_linker_0, # of connection points: 2
#     Edge 73, Type (0, 0), BuildingBlock: ZUJKAS_clean_linker_0, # of connection points: 2
#     Edge 74, Type (0, 0), BuildingBlock: ZUJKAS_clean_linker_0, # of connection points: 2
#     Edge 75, Type (0, 0), BuildingBlock: ZUJKAS_clean_linker_0, # of connection points: 2
#     Edge 76, Type (0, 0), BuildingBlock: ZUJKAS_clean_linker_0, # of connection points: 2
#     Edge 77, Type (0, 0), BuildingBlock: ZUJKAS_clean_linker_0, # of connection points: 2
#     Edge 78, Type (0, 0), BuildingBlock: ZUJKAS_clean_linker_0, # of connection points: 2
#     Edge 79, Type (0, 0), BuildingBlock: ZUJKAS_clean_linker_0, # of connection points: 2
#     Edge 80, Type (0, 0), BuildingBlock: ZUJKAS_clean_linker_0, # of connection points: 2
#     Edge 81, Type (0, 0), BuildingBlock: ZUJKAS_clean_linker_0, # of connection points: 2
#     Edge 82, Type (0, 0), BuildingBlock: ZUJKAS_clean_linker_0, # of connection points: 2
#     Edge 83, Type (0, 0), BuildingBlock: ZUJKAS_clean_linker_0, # of connection points: 2
#     Edge 84, Type (0, 0), BuildingBlock: ZUJKAS_clean_linker_0, # of connection points: 2
#     Edge 85, Type (0, 0), BuildingBlock: ZUJKAS_clean_linker_0, # of connection points: 2
#     Edge 86, Type (0, 0), BuildingBlock: ZUJKAS_clean_linker_0, # of connection points: 2
#     Edge 87, Type (0, 0), BuildingBlock: ZUJKAS_clean_linker_0, # of connection points: 2
#     Edge 88, Type (0, 0), BuildingBlock: ZUJKAS_clean_linker_0, # of connection points: 2
#     Edge 89, Type (0, 0), BuildingBlock: ZUJKAS_clean_linker_0, # of connection points: 2
#     Edge 90, Type (0, 0), BuildingBlock: ZUJKAS_clean_linker_0, # of connection points: 2
#     Edge 91, Type (0, 0), BuildingBlock: ZUJKAS_clean_linker_0, # of connection points: 2
#     Edge 92, Type (0, 0), BuildingBlock: ZUJKAS_clean_linker_0, # of connection points: 2
#     Edge 93, Type (0, 0), BuildingBlock: ZUJKAS_clean_linker_0, # of connection points: 2
#     Edge 94, Type (0, 0), BuildingBlock: ZUJKAS_clean_linker_0, # of connection points: 2
#     Edge 95, Type (0, 0), BuildingBlock: ZUJKAS_clean_linker_0, # of connection points: 2
#     Edge 96, Type (0, 0), BuildingBlock: ZUJKAS_clean_linker_0, # of connection points: 2
#     Edge 97, Type (0, 0), BuildingBlock: ZUJKAS_clean_linker_0, # of connection points: 2
#     Edge 98, Type (0, 0), BuildingBlock: ZUJKAS_clean_linker_0, # of connection points: 2
#     Edge 99, Type (0, 0), BuildingBlock: ZUJKAS_clean_linker_0, # of connection points: 2
#     Edge 100, Type (0, 0), BuildingBlock: ZUJKAS_clean_linker_0, # of connection points: 2
#     Edge 101, Type (0, 0), BuildingBlock: ZUJKAS_clean_linker_0, # of connection points: 2
#     Edge 102, Type (0, 0), BuildingBlock: ZUJKAS_clean_linker_0, # of connection points: 2
#     Edge 103, Type (0, 0), BuildingBlock: ZUJKAS_clean_linker_0, # of connection points: 2
#     Edge 104, Type (0, 0), BuildingBlock: ZUJKAS_clean_linker_0, # of connection points: 2
#     Edge 105, Type (0, 0), BuildingBlock: ZUJKAS_clean_linker_0, # of connection points: 2
#     Edge 106, Type (0, 0), BuildingBlock: ZUJKAS_clean_linker_0, # of connection points: 2
#     Edge 107, Type (0, 0), BuildingBlock: ZUJKAS_clean_linker_0, # of connection points: 2
#     Edge 108, Type (0, 0), BuildingBlock: ZUJKAS_clean_linker_0, # of connection points: 2
#     Edge 109, Type (0, 0), BuildingBlock: ZUJKAS_clean_linker_0, # of connection points: 2
#     Edge 110, Type (0, 0), BuildingBlock: ZUJKAS_clean_linker_0, # of connection points: 2
#     Edge 111, Type (0, 0), BuildingBlock: ZUJKAS_clean_linker_0, # of connection points: 2
# Relax obj value: 0.051
# Max RMSD: 0.131
# Mean RMSD: 0.131
data_MOF--net-wga--node1-BEQFEK_clean_sbu_0--edge1-ZUJKAS_clean_linker_0
_symmetry_space_group_name_H-M    P1
_symmetry_Int_Tables_number       1
_symmetry_cell_setting            triclinic
loop_
_symmetry_equiv_pos_as_xyz
'x, y, z'
_cell_length_a     137.83731
_cell_length_b     137.83494
_cell_length_c     23.836959
_cell_angle_alpha  90.011115
_cell_angle_beta   90.003284
_cell_angle_gamma 89.989144
loop_
_atom_site_label
_atom_site_type_symbol
_atom_site_fract_x
_atom_site_fract_y
_atom_site_fract_z
_atom_type_partial_charge
Co0 Co 0.06712 0.56852 0.02693 0.0
Co1 Co 0.06873 0.56452 0.15671 0.0
C2 C 0.04987 0.57021 0.10208 0.0
O3 O 0.05373 0.57085 0.05368 0.0
O4 O 0.05483 0.56777 0.14492 0.0
C5 C 0.06183 0.57675 0.91904 0.0
O6 O 0.05423 0.58022 0.94557 0.0
C7 C 0.06803 0.56869 0.27878 0.0
C8 C 0.07657 0.5564 0.31204 0.0
C9 C 0.07136 0.56453 0.32836 0.0
N10 N 0.07117 0.56327 0.23541 0.0
N11 N 0.0763 0.55597 0.25571 0.0
C12 C 0.0615 0.57732 0.27277 0.0
H13 H 0.05823 0.57761 0.23043 0.0
H14 H 0.06579 0.58404 0.27885 0.0
H15 H 0.05571 0.57713 0.30511 0.0
C16 C 0.08235 0.58281 0.05505 0.0
N17 N 0.07608 0.57578 0.06983 0.0
N18 N 0.07689 0.57408 0.12399 0.0
C19 C 0.08381 0.57993 0.14529 0.0
C20 C 0.08745 0.58567 0.10238 0.0
C21 C 0.08304 0.58696 0.99718 0.0
H22 H 0.07567 0.58891 0.98219 0.0
H23 H 0.08771 0.59351 0.99587 0.0
H24 H 0.086 0.58138 0.96836 0.0
O25 O 0.07011 0.5545 0.03167 0.0
O26 O 0.07138 0.55167 0.12295 0.0
H27 H 0.08805 0.57198 0.21859 0.0
H28 H 0.09435 0.58334 0.20972 0.0
C29 C 0.08727 0.57961 0.20477 0.0
H30 H 0.08186 0.58322 0.23206 0.0
H31 H 0.07952 0.55061 0.23108 0.0
O32 O 0.06811 0.57189 0.94614 0.0
C33 C 0.07166 0.54873 0.07236 0.0
Co34 Co 0.67585 0.816 0.26259 0.0
Co35 Co 0.68151 0.81857 0.38908 0.0
C36 C 0.67481 0.79941 0.34274 0.0
O37 O 0.67367 0.8029 0.29372 0.0
O38 O 0.67781 0.80466 0.3832 0.0
C39 C 0.6751 0.80958 0.15185 0.0
O40 O 0.6807 0.80291 0.1743 0.0
C41 C 0.67862 0.81831 0.51086 0.0
C42 C 0.69041 0.82791 0.54024 0.0
C43 C 0.68275 0.82224 0.55899 0.0
N44 N 0.68363 0.8215 0.46616 0.0
N45 N 0.69068 0.82721 0.48398 0.0
C46 C 0.66972 0.81215 0.50635 0.0
H47 H 0.66625 0.81316 0.46471 0.0
H48 H 0.66447 0.81398 0.54003 0.0
H49 H 0.67179 0.80441 0.51049 0.0
C50 C 0.66179 0.83136 0.29297 0.0
N51 N 0.66915 0.82535 0.3057 0.0
N52 N 0.67167 0.82664 0.35844 0.0
C53 C 0.6661 0.83369 0.3807 0.0
C54 C 0.65959 0.83687 0.3401 0.0
C55 C 0.65662 0.83133 0.23774 0.0
H56 H 0.65569 0.82376 0.2229 0.0
H57 H 0.6494 0.83485 0.24075 0.0
H58 H 0.66109 0.83526 0.2064 0.0
O59 O 0.68994 0.81883 0.26061 0.0
O60 O 0.69396 0.8207 0.34999 0.0
H61 H 0.66386 0.84489 0.44321 0.0
H62 H 0.66411 0.8326 0.46939 0.0
C63 C 0.66736 0.83769 0.43866 0.0
H64 H 0.67519 0.83845 0.44827 0.0
H65 H 0.69565 0.83066 0.45768 0.0
O66 O 0.67163 0.81618 0.18325 0.0
C67 C 0.69625 0.82055 0.29831 0.0
Co68 Co 0.42937 0.42894 0.53409 0.0
Co69 Co 0.4278 0.43311 0.66377 0.0
C70 C 0.4466 0.42719 0.60913 0.0
O71 O 0.44274 0.42651 0.56074 0.0
O72 O 0.44166 0.42973 0.65184 0.0
C73 C 0.43452 0.42062 0.42613 0.0
O74 O 0.44208 0.41705 0.45256 0.0
C75 C 0.42852 0.42895 0.78583 0.0
C76 C 0.42018 0.44136 0.81929 0.0
C77 C 0.42527 0.43316 0.83548 0.0
N78 N 0.42543 0.43442 0.74253 0.0
N79 N 0.42042 0.44179 0.76295 0.0
C80 C 0.43492 0.42024 0.77969 0.0
H81 H 0.43815 0.41989 0.73725 0.0
H82 H 0.43056 0.41357 0.78597 0.0
H83 H 0.44074 0.42036 0.81186 0.0
C84 C 0.41408 0.41475 0.56288 0.0
N85 N 0.42036 0.4218 0.57731 0.0
N86 N 0.41955 0.42358 0.63139 0.0
C87 C 0.41263 0.41778 0.65297 0.0
C88 C 0.40898 0.41197 0.61035 0.0
C89 C 0.41342 0.41049 0.50526 0.0
H90 H 0.41044 0.41601 0.47608 0.0
H91 H 0.4208 0.40854 0.49044 0.0
H92 H 0.40877 0.40392 0.50433 0.0
O93 O 0.42652 0.44299 0.53856 0.0
O94 O 0.42526 0.44596 0.62971 0.0
H95 H 0.40851 0.4258 0.72627 0.0
H96 H 0.40206 0.41452 0.71744 0.0
C97 C 0.40918 0.41815 0.71247 0.0
H98 H 0.41455 0.41447 0.73974 0.0
H99 H 0.41726 0.4472 0.73839 0.0
O100 O 0.4283 0.42555 0.45332 0.0
C101 C 0.42503 0.44884 0.579 0.0
Co102 Co 0.81959 0.18021 0.77243 0.0
Co103 Co 0.81462 0.17836 0.90095 0.0
C104 C 0.82085 0.1973 0.848 0.0
O105 O 0.82187 0.19355 0.79952 0.0
O106 O 0.81805 0.19225 0.88976 0.0
C107 C 0.82795 0.18532 0.66405 0.0
O108 O 0.8314 0.19302 0.68962 0.0
C109 C 0.81863 0.17887 0.023 0.0
C110 C 0.8059 0.171 0.05607 0.0
C111 C 0.81429 0.17576 0.07255 0.0
N112 N 0.81306 0.17603 0.97957 0.0
N113 N 0.80549 0.17131 0.99974 0.0
C114 C 0.8276 0.1849 0.01687 0.0
H115 H 0.82799 0.18825 0.97474 0.0
H116 H 0.83408 0.18022 0.02207 0.0
H117 H 0.82781 0.19063 0.04962 0.0
C118 C 0.83371 0.16496 0.80337 0.0
N119 N 0.82655 0.17119 0.81662 0.0
N120 N 0.82426 0.17012 0.86988 0.0
C121 C 0.82974 0.16297 0.8919 0.0
C122 C 0.83596 0.15951 0.85061 0.0
C123 C 0.83857 0.16466 0.74726 0.0
H124 H 0.83374 0.16095 0.71683 0.0
H125 H 0.83981 0.17216 0.73208 0.0
H126 H 0.84563 0.16081 0.74909 0.0
O127 O 0.80552 0.17735 0.77477 0.0
O128 O 0.80195 0.17581 0.86503 0.0
H129 H 0.82072 0.15885 0.96128 0.0
H130 H 0.8315 0.15156 0.95349 0.0
C131 C 0.82851 0.15902 0.94997 0.0
H132 H 0.83237 0.16377 0.9801 0.0
H133 H 0.79997 0.16838 0.97502 0.0
O134 O 0.82316 0.17909 0.69199 0.0
C135 C 0.79941 0.17573 0.8137 0.0
Co136 Co 0.06797 0.42736 0.98089 0.0
Co137 Co 0.06971 0.43239 0.85245 0.0
C138 C 0.05084 0.42612 0.90426 0.0
O139 O 0.05465 0.42522 0.95267 0.0
O140 O 0.05583 0.42885 0.8621 0.0
C141 C 0.0617 0.4208 0.09042 0.0
O142 O 0.05314 0.42004 0.06656 0.0
C143 C 0.06877 0.42881 0.73115 0.0
C144 C 0.07838 0.44029 0.69799 0.0
C145 C 0.07258 0.43257 0.68165 0.0
N146 N 0.07217 0.43409 0.77433 0.0
N147 N 0.07787 0.44096 0.75422 0.0
C148 C 0.06259 0.41998 0.73835 0.0
H149 H 0.06366 0.41683 0.78078 0.0
H150 H 0.06434 0.41447 0.70594 0.0
H151 H 0.05485 0.42205 0.73411 0.0
C152 C 0.08306 0.41314 0.94935 0.0
N153 N 0.07695 0.42042 0.93651 0.0
N154 N 0.07789 0.42263 0.88306 0.0
C155 C 0.08478 0.41691 0.86035 0.0
C156 C 0.08825 0.41067 0.90152 0.0
C157 C 0.08345 0.40834 0.00563 0.0
H158 H 0.07597 0.40714 0.02136 0.0
H159 H 0.08731 0.40128 0.00386 0.0
H160 H 0.08722 0.41321 0.03564 0.0
O161 O 0.07098 0.4414 0.97953 0.0
O162 O 0.0722 0.44503 0.88918 0.0
H163 H 0.09548 0.41412 0.79571 0.0
H164 H 0.08303 0.41443 0.77245 0.0
C165 C 0.08838 0.41778 0.8013 0.0
H166 H 0.08919 0.42553 0.79003 0.0
H167 H 0.08148 0.44606 0.77895 0.0
O168 O 0.06893 0.42347 0.06112 0.0
C169 C 0.07247 0.44753 0.94056 0.0
Co170 Co 0.81731 0.81815 0.22516 0.0
Co171 Co 0.81461 0.81839 0.09427 0.0
C172 C 0.82056 0.80035 0.15371 0.0
O173 O 0.82043 0.80474 0.20082 0.0
O174 O 0.81844 0.80474 0.10823 0.0
C175 C 0.82691 0.81495 0.33183 0.0
O176 O 0.8328 0.80927 0.30358 0.0
C177 C 0.81731 0.81657 0.97081 0.0
C178 C 0.8097 0.8298 0.94225 0.0
C179 C 0.815 0.82193 0.92317 0.0
N180 N 0.81368 0.82121 0.0159 0.0
N181 N 0.80909 0.82906 0.99837 0.0
C182 C 0.8224 0.807 0.97367 0.0
H183 H 0.8185 0.80215 0.00302 0.0
H184 H 0.82986 0.8081 0.99001 0.0
H185 H 0.82273 0.80342 0.93207 0.0
C186 C 0.83077 0.83418 0.1979 0.0
N187 N 0.82438 0.82727 0.18287 0.0
N188 N 0.82376 0.82696 0.12786 0.0
C189 C 0.83007 0.83339 0.10592 0.0
C190 C 0.83467 0.83828 0.14958 0.0
C191 C 0.83264 0.8371 0.25744 0.0
H192 H 0.82584 0.83658 0.28215 0.0
H193 H 0.83805 0.83208 0.2761 0.0
H194 H 0.83543 0.84463 0.26009 0.0
O195 O 0.80335 0.82048 0.21702 0.0
O196 O 0.80131 0.82056 0.1248 0.0
H197 H 0.82679 0.8387 0.02383 0.0
H198 H 0.83961 0.8373 0.03732 0.0
C199 C 0.83234 0.83411 0.04462 0.0
H200 H 0.83217 0.82679 0.02539 0.0
H201 H 0.80564 0.83399 0.02493 0.0
O202 O 0.82015 0.81937 0.30613 0.0
C203 C 0.79789 0.82124 0.17429 0.0
Co204 Co 0.43038 0.56995 0.47683 0.0
Co205 Co 0.42813 0.56465 0.34951 0.0
C206 C 0.44724 0.57087 0.39807 0.0
O207 O 0.44361 0.57197 0.44681 0.0
O208 O 0.44208 0.56805 0.35681 0.0
C209 C 0.4371 0.57308 0.58838 0.0
O210 O 0.44522 0.56962 0.56764 0.0
C211 C 0.42875 0.56754 0.22765 0.0
C212 C 0.41799 0.5568 0.19814 0.0
C213 C 0.42432 0.56393 0.17967 0.0
N214 N 0.4252 0.56275 0.27224 0.0
N215 N 0.41882 0.5563 0.25431 0.0
C216 C 0.43566 0.57588 0.23197 0.0
H217 H 0.43497 0.57944 0.27355 0.0
H218 H 0.43429 0.58125 0.19821 0.0
H219 H 0.44319 0.57313 0.22764 0.0
C220 C 0.41516 0.58411 0.44671 0.0
N221 N 0.42124 0.57683 0.43343 0.0
N222 N 0.42021 0.57464 0.38002 0.0
C223 C 0.41338 0.58046 0.35759 0.0
C224 C 0.40999 0.58667 0.39908 0.0
C225 C 0.41474 0.58879 0.50333 0.0
H226 H 0.4222 0.59049 0.51774 0.0
H227 H 0.41037 0.59555 0.50276 0.0
H228 H 0.41152 0.58361 0.53371 0.0
O229 O 0.42728 0.55595 0.47764 0.0
O230 O 0.42563 0.55214 0.38779 0.0
H231 H 0.40828 0.57213 0.28779 0.0
H232 H 0.40315 0.58413 0.29174 0.0
C233 C 0.40984 0.5798 0.29835 0.0
H234 H 0.41557 0.58247 0.26964 0.0
H235 H 0.41493 0.55165 0.28054 0.0
O236 O 0.42983 0.57416 0.55616 0.0
C237 C 0.42556 0.54975 0.43937 0.0
Co238 Co 0.67865 0.17842 0.71682 0.0
Co239 Co 0.68282 0.17813 0.58687 0.0
C240 C 0.67689 0.19635 0.64448 0.0
O241 O 0.67635 0.19197 0.69147 0.0
O242 O 0.67932 0.19189 0.59981 0.0
C243 C 0.67023 0.1836 0.82423 0.0
O244 O 0.66704 0.19133 0.79791 0.0
C245 C 0.68076 0.18025 0.46377 0.0
C246 C 0.68946 0.16781 0.43386 0.0
C247 C 0.68374 0.17543 0.41553 0.0
N248 N 0.68444 0.17557 0.50851 0.0
N249 N 0.68967 0.16818 0.49025 0.0
C250 C 0.67505 0.18945 0.46784 0.0
H251 H 0.6794 0.1949 0.49088 0.0
H252 H 0.66833 0.18813 0.49233 0.0
H253 H 0.67321 0.19247 0.42611 0.0
C254 C 0.66508 0.16279 0.68397 0.0
N255 N 0.67176 0.16957 0.67149 0.0
N256 N 0.67307 0.16982 0.61685 0.0
C257 C 0.66694 0.16347 0.59249 0.0
C258 C 0.66173 0.1587 0.63422 0.0
C259 C 0.66246 0.15996 0.74269 0.0
H260 H 0.669 0.16023 0.76977 0.0
H261 H 0.65708 0.1652 0.75945 0.0
H262 H 0.65936 0.15254 0.74434 0.0
O263 O 0.69258 0.17558 0.71345 0.0
O264 O 0.69568 0.17545 0.62218 0.0
H265 H 0.67152 0.15832 0.51211 0.0
H266 H 0.6585 0.15922 0.51972 0.0
C267 C 0.66553 0.16266 0.53038 0.0
H268 H 0.66566 0.16998 0.51133 0.0
H269 H 0.69333 0.16333 0.51641 0.0
O270 O 0.67496 0.17722 0.79708 0.0
C271 C 0.69849 0.17462 0.67288 0.0
Co272 Co 0.93014 0.42792 0.98033 0.0
Co273 Co 0.92861 0.43203 0.8505 0.0
C274 C 0.94742 0.42626 0.90552 0.0
O275 O 0.94356 0.42554 0.95389 0.0
O276 O 0.94247 0.42876 0.8628 0.0
C277 C 0.93488 0.41913 0.088 0.0
O278 O 0.94209 0.41493 0.06135 0.0
C279 C 0.9296 0.42812 0.72788 0.0
C280 C 0.92039 0.43997 0.69529 0.0
C281 C 0.926 0.43214 0.67863 0.0
N282 N 0.9262 0.4333 0.77161 0.0
N283 N 0.92068 0.44035 0.75166 0.0
C284 C 0.93657 0.41983 0.73298 0.0
H285 H 0.93983 0.41953 0.77531 0.0
H286 H 0.93268 0.4129 0.72576 0.0
H287 H 0.94236 0.42046 0.70079 0.0
C288 C 0.91467 0.41391 0.9518 0.0
N289 N 0.92111 0.4208 0.93721 0.0
N290 N 0.92038 0.42251 0.88302 0.0
C291 C 0.9134 0.41677 0.86141 0.0
C292 C 0.90957 0.41112 0.90427 0.0
C293 C 0.91316 0.41047 0.01071 0.0
H294 H 0.9122 0.41681 0.03879 0.0
H295 H 0.91971 0.40647 0.02479 0.0
H296 H 0.90671 0.40569 0.0144 0.0
O297 O 0.92727 0.44192 0.97573 0.0
O298 O 0.92599 0.4449 0.88458 0.0
H299 H 0.90859 0.42374 0.78619 0.0
H300 H 0.90495 0.41116 0.79148 0.0
C301 C 0.91082 0.41641 0.80044 0.0
H302 H 0.9173 0.41423 0.77613 0.0
H303 H 0.91719 0.4455 0.77658 0.0
O304 O 0.92909 0.42458 0.06104 0.0
C305 C 0.92575 0.44777 0.93536 0.0
Co306 Co 0.31883 0.18008 0.72858 0.0
Co307 Co 0.31487 0.17784 0.5998 0.0
C308 C 0.32043 0.19696 0.64947 0.0
O309 O 0.32107 0.19327 0.6983 0.0
O310 O 0.31803 0.19183 0.60724 0.0
C311 C 0.32205 0.1875 0.83867 0.0
O312 O 0.31939 0.19572 0.81539 0.0
C313 C 0.31778 0.17895 0.47807 0.0
C314 C 0.30869 0.1668 0.44798 0.0
C315 C 0.3148 0.17415 0.42988 0.0
N316 N 0.31358 0.17466 0.52248 0.0
N317 N 0.30814 0.16743 0.50423 0.0
C318 C 0.32511 0.18692 0.48267 0.0
H319 H 0.32904 0.1864 0.52319 0.0
H320 H 0.3304 0.18658 0.44761 0.0
H321 H 0.32132 0.19401 0.48114 0.0
C322 C 0.33299 0.16455 0.70386 0.0
N323 N 0.32607 0.17086 0.68787 0.0
N324 N 0.3246 0.17002 0.63356 0.0
C325 C 0.33063 0.16318 0.61303 0.0
C326 C 0.33612 0.15947 0.65694 0.0
C327 C 0.33612 0.16314 0.76344 0.0
H328 H 0.32962 0.16254 0.79072 0.0
H329 H 0.3403 0.16959 0.77726 0.0
H330 H 0.34063 0.15654 0.76859 0.0
O331 O 0.30487 0.17694 0.7257 0.0
O332 O 0.30205 0.17531 0.63459 0.0
H333 H 0.3248 0.15684 0.53846 0.0
H334 H 0.33787 0.15605 0.54345 0.0
C335 C 0.33147 0.16068 0.55212 0.0
H336 H 0.33215 0.16742 0.5272 0.0
H337 H 0.3041 0.16288 0.53027 0.0
O338 O 0.32254 0.17989 0.80869 0.0
C339 C 0.29911 0.1752 0.68521 0.0
Co340 Co 0.56755 0.56839 0.46924 0.0
Co341 Co 0.56926 0.5637 0.34037 0.0
C342 C 0.55048 0.57024 0.39368 0.0
O343 O 0.55427 0.57104 0.4422 0.0
O344 O 0.55545 0.56744 0.35161 0.0
C345 C 0.56266 0.57691 0.57749 0.0
O346 O 0.55519 0.58075 0.55154 0.0
C347 C 0.56887 0.56784 0.21843 0.0
C348 C 0.57658 0.55501 0.18519 0.0
C349 C 0.57194 0.56347 0.16884 0.0
N350 N 0.57162 0.5622 0.26177 0.0
N351 N 0.57625 0.55458 0.24151 0.0
C352 C 0.56296 0.57689 0.22461 0.0
H353 H 0.55963 0.57732 0.26677 0.0
H354 H 0.56772 0.5833 0.21934 0.0
H355 H 0.55723 0.57717 0.1919 0.0
C356 C 0.58314 0.58218 0.4397 0.0
N357 N 0.57674 0.57522 0.42572 0.0
N358 N 0.57774 0.57308 0.37221 0.0
C359 C 0.585 0.57848 0.3507 0.0
C360 C 0.58862 0.58447 0.39267 0.0
C361 C 0.58354 0.58686 0.49632 0.0
H362 H 0.57607 0.58841 0.51109 0.0
H363 H 0.58772 0.59374 0.49554 0.0
H364 H 0.58695 0.58177 0.52652 0.0
O365 O 0.57011 0.55428 0.46595 0.0
O366 O 0.57145 0.55086 0.37537 0.0
H367 H 0.5963 0.5804 0.28862 0.0
H368 H 0.58404 0.58141 0.2629 0.0
C369 C 0.58884 0.57744 0.29227 0.0
H370 H 0.58894 0.56968 0.28004 0.0
H371 H 0.5791 0.549 0.26615 0.0
O372 O 0.56869 0.57181 0.54987 0.0
C373 C 0.57153 0.54822 0.4265 0.0
Co374 Co 0.17815 0.81798 0.23391 0.0
Co375 Co 0.18197 0.81898 0.10392 0.0
C376 C 0.17626 0.80041 0.1601 0.0
O377 O 0.17577 0.80454 0.20784 0.0
O378 O 0.17858 0.80513 0.11611 0.0
C379 C 0.16943 0.81304 0.34108 0.0
O380 O 0.16544 0.80575 0.31413 0.0
C381 C 0.17904 0.81731 0.98125 0.0
C382 C 0.18866 0.82899 0.95046 0.0
C383 C 0.18225 0.82189 0.93272 0.0
N384 N 0.18328 0.82163 0.02557 0.0
N385 N 0.18904 0.82857 0.00679 0.0
C386 C 0.17259 0.80862 0.98593 0.0
H387 H 0.17646 0.80284 0.00917 0.0
H388 H 0.16602 0.81054 0.01044 0.0
H389 H 0.17047 0.8057 0.9444 0.0
C390 C 0.1643 0.83357 0.20508 0.0
N391 N 0.17101 0.82694 0.19063 0.0
N392 N 0.17241 0.82725 0.13604 0.0
C393 C 0.16651 0.83404 0.11384 0.0
C394 C 0.16121 0.8383 0.15688 0.0
C395 C 0.16139 0.83565 0.26438 0.0
H396 H 0.16796 0.83611 0.29113 0.0
H397 H 0.15685 0.82959 0.28019 0.0
H398 H 0.15728 0.84254 0.26791 0.0
O399 O 0.19213 0.82084 0.22919 0.0
O400 O 0.19489 0.82159 0.13766 0.0
H401 H 0.17232 0.83966 0.03731 0.0
H402 H 0.15927 0.84066 0.04259 0.0
C403 C 0.16562 0.83603 0.05231 0.0
H404 H 0.16482 0.82908 0.02942 0.0
H405 H 0.19323 0.83304 0.03254 0.0
O406 O 0.17475 0.819 0.31444 0.0
C407 C 0.19788 0.8221 0.18812 0.0
Co408 Co 0.9299 0.56883 0.0161 0.0
Co409 Co 0.92744 0.56541 0.14573 0.0
C410 C 0.94657 0.5711 0.09601 0.0
O411 O 0.94299 0.5715 0.04674 0.0
O412 O 0.94138 0.56878 0.13817 0.0
C413 C 0.93279 0.57885 0.90799 0.0
O414 O 0.93588 0.58646 0.93594 0.0
C415 C 0.92813 0.56881 0.26814 0.0
C416 C 0.91511 0.56081 0.29616 0.0
C417 C 0.92264 0.56659 0.31516 0.0
N418 N 0.92401 0.56456 0.22326 0.0
N419 N 0.91629 0.55971 0.24047 0.0
C420 C 0.93661 0.57556 0.26492 0.0
H421 H 0.93651 0.57956 0.22455 0.0
H422 H 0.93654 0.58081 0.30027 0.0
H423 H 0.9434 0.57126 0.26704 0.0
C424 C 0.91363 0.58255 0.03743 0.0
N425 N 0.92031 0.57606 0.05461 0.0
N426 N 0.9195 0.57484 0.10924 0.0
C427 C 0.91243 0.5807 0.12864 0.0
C428 C 0.90843 0.58571 0.08378 0.0
C429 C 0.91181 0.58518 0.97745 0.0
H430 H 0.9128 0.57873 0.95029 0.0
H431 H 0.91708 0.59083 0.96448 0.0
H432 H 0.90437 0.58808 0.97158 0.0
O433 O 0.92705 0.55491 0.0224 0.0
O434 O 0.92518 0.55228 0.11347 0.0
H435 H 0.9058 0.57545 0.20376 0.0
H436 H 0.90546 0.58848 0.19669 0.0
C437 C 0.90991 0.5819 0.18933 0.0
H438 H 0.91664 0.58251 0.21443 0.0
H439 H 0.91169 0.55583 0.2139 0.0
O440 O 0.92998 0.57134 0.93433 0.0
C441 C 0.92529 0.54922 0.06308 0.0
Co442 Co 0.17777 0.17936 0.77607 0.0
Co443 Co 0.18275 0.17759 0.90458 0.0
C444 C 0.17663 0.19653 0.8513 0.0
O445 O 0.17561 0.19273 0.80293 0.0
O446 O 0.17938 0.1915 0.89328 0.0
C447 C 0.16951 0.18455 0.66769 0.0
O448 O 0.16622 0.19234 0.69315 0.0
C449 C 0.1788 0.17812 0.02668 0.0
C450 C 0.19147 0.1701 0.05945 0.0
C451 C 0.18313 0.17493 0.07612 0.0
N452 N 0.18433 0.17525 0.98314 0.0
N453 N 0.19186 0.17043 0.00312 0.0
C454 C 0.16989 0.18424 0.02074 0.0
H455 H 0.16954 0.18764 0.97874 0.0
H456 H 0.16337 0.17961 0.02568 0.0
H457 H 0.16972 0.18993 0.0537 0.0
C458 C 0.16359 0.16421 0.80723 0.0
N459 N 0.17077 0.17042 0.82042 0.0
N460 N 0.17305 0.16936 0.87369 0.0
C461 C 0.16755 0.16224 0.89578 0.0
C462 C 0.16132 0.15878 0.85451 0.0
C463 C 0.15873 0.16391 0.7511 0.0
H464 H 0.16354 0.16013 0.72079 0.0
H465 H 0.15755 0.17141 0.73571 0.0
H466 H 0.15165 0.16011 0.753 0.0
O467 O 0.19181 0.17636 0.77834 0.0
O468 O 0.19542 0.17501 0.86865 0.0
H469 H 0.17657 0.15808 0.96513 0.0
H470 H 0.16574 0.15087 0.95756 0.0
C471 C 0.16877 0.1583 0.95389 0.0
H472 H 0.16496 0.1631 0.98399 0.0
H473 H 0.19734 0.16745 0.97828 0.0
O474 O 0.17417 0.17824 0.69569 0.0
C475 C 0.19793 0.1748 0.81728 0.0
Co476 Co 0.56688 0.427 0.52723 0.0
Co477 Co 0.56899 0.43206 0.65499 0.0
C478 C 0.54994 0.42591 0.60567 0.0
O479 O 0.55363 0.42493 0.55698 0.0
O480 O 0.55506 0.42864 0.64733 0.0
C481 C 0.56009 0.42287 0.41612 0.0
O482 O 0.55162 0.4252 0.43741 0.0
C483 C 0.56831 0.42927 0.77704 0.0
C484 C 0.57924 0.43987 0.80604 0.0
C485 C 0.57281 0.43286 0.82482 0.0
N486 N 0.57192 0.43395 0.73223 0.0
N487 N 0.5784 0.44032 0.74987 0.0
C488 C 0.56125 0.42105 0.77313 0.0
H489 H 0.5619 0.4174 0.7318 0.0
H490 H 0.5625 0.41572 0.80727 0.0
H491 H 0.55377 0.42395 0.77713 0.0
C492 C 0.58207 0.41276 0.55736 0.0
N493 N 0.576 0.42006 0.57064 0.0
N494 N 0.57694 0.42215 0.62423 0.0
C495 C 0.5837 0.41626 0.64678 0.0
C496 C 0.58714 0.4101 0.60521 0.0
C497 C 0.58256 0.40815 0.50059 0.0
H498 H 0.57511 0.40644 0.48595 0.0
H499 H 0.58695 0.40141 0.50101 0.0
H500 H 0.58577 0.41338 0.47047 0.0
O501 O 0.56991 0.44103 0.52705 0.0
O502 O 0.57142 0.44461 0.61727 0.0
H503 H 0.58877 0.42443 0.71724 0.0
H504 H 0.59371 0.41236 0.71334 0.0
C505 C 0.58711 0.4168 0.70633 0.0
H506 H 0.58126 0.4142 0.7345 0.0
H507 H 0.58236 0.44488 0.72344 0.0
O508 O 0.56752 0.42287 0.44771 0.0
C509 C 0.57154 0.44714 0.56593 0.0
Co510 Co 0.3191 0.81778 0.27407 0.0
Co511 Co 0.31456 0.81884 0.40345 0.0
C512 C 0.3202 0.80016 0.34659 0.0
O513 O 0.32113 0.80425 0.29897 0.0
O514 O 0.31765 0.80496 0.38984 0.0
C515 C 0.32794 0.81301 0.16686 0.0
O516 O 0.3318 0.80559 0.1933 0.0
C517 C 0.31796 0.81744 0.52653 0.0
C518 C 0.30656 0.82732 0.55798 0.0
C519 C 0.31405 0.82133 0.57539 0.0
N520 N 0.31306 0.82108 0.48234 0.0
N521 N 0.30626 0.82696 0.50162 0.0
C522 C 0.32594 0.8101 0.52214 0.0
H523 H 0.32568 0.80626 0.48151 0.0
H524 H 0.33305 0.81381 0.52516 0.0
H525 H 0.32543 0.80478 0.55696 0.0
C526 C 0.33325 0.83291 0.30601 0.0
N527 N 0.32624 0.8265 0.31905 0.0
N528 N 0.32434 0.82705 0.3731 0.0
C529 C 0.33009 0.83389 0.39618 0.0
C530 C 0.33593 0.8378 0.35444 0.0
C531 C 0.33686 0.83461 0.24762 0.0
H532 H 0.3306 0.83575 0.21913 0.0
H533 H 0.34082 0.82807 0.23302 0.0
H534 H 0.34172 0.84101 0.24519 0.0
O535 O 0.30516 0.82092 0.27743 0.0
O536 O 0.30182 0.82178 0.36831 0.0
H537 H 0.3229 0.83875 0.4706 0.0
H538 H 0.33561 0.842 0.46763 0.0
C539 C 0.33022 0.83632 0.45739 0.0
H540 H 0.33208 0.82972 0.48154 0.0
H541 H 0.30138 0.83073 0.47621 0.0
O542 O 0.3227 0.81899 0.1939 0.0
C543 C 0.29917 0.82233 0.31723 0.0
Co544 Co 0.56648 0.06783 0.52628 0.0
Co545 Co 0.56907 0.06559 0.65618 0.0
C546 C 0.5499 0.07073 0.60708 0.0
O547 O 0.55345 0.07075 0.55769 0.0
O548 O 0.55512 0.06874 0.64966 0.0
C549 C 0.56352 0.07773 0.41893 0.0
O550 O 0.56118 0.08552 0.44769 0.0
C551 C 0.56853 0.06907 0.77846 0.0
C552 C 0.58236 0.06235 0.80489 0.0
C553 C 0.57435 0.06734 0.82487 0.0
N554 N 0.57291 0.06527 0.73307 0.0
N555 N 0.58113 0.06122 0.74928 0.0
C556 C 0.55941 0.07495 0.77625 0.0
H557 H 0.55918 0.07925 0.73694 0.0
H558 H 0.55887 0.07992 0.81274 0.0
H559 H 0.55309 0.06997 0.7766 0.0
C560 C 0.58293 0.08151 0.54253 0.0
N561 N 0.57618 0.0753 0.56192 0.0
N562 N 0.57671 0.07493 0.61698 0.0
C563 C 0.58346 0.0813 0.63463 0.0
C564 C 0.58776 0.0856 0.58802 0.0
C565 C 0.58529 0.08279 0.48168 0.0
H566 H 0.58369 0.07604 0.45821 0.0
H567 H 0.5808 0.08875 0.46423 0.0
H568 H 0.59305 0.08468 0.47588 0.0
O569 O 0.56939 0.05403 0.53505 0.0
O570 O 0.5714 0.05221 0.62668 0.0
H571 H 0.59014 0.07842 0.71388 0.0
H572 H 0.58834 0.09115 0.69951 0.0
C573 C 0.58514 0.08381 0.69498 0.0
H574 H 0.57818 0.08365 0.71814 0.0
H575 H 0.586 0.05781 0.72211 0.0
O576 O 0.566 0.07003 0.4445 0.0
C577 C 0.57126 0.04871 0.57721 0.0
Co578 Co 0.1778 0.31657 0.76697 0.0
Co579 Co 0.1826 0.31888 0.89525 0.0
C580 C 0.17634 0.29981 0.84638 0.0
O581 O 0.17544 0.30342 0.79745 0.0
O582 O 0.17911 0.30497 0.88775 0.0
C583 C 0.17259 0.30956 0.65698 0.0
O584 O 0.17328 0.30096 0.68032 0.0
C585 C 0.17956 0.31788 0.01703 0.0
C586 C 0.18968 0.3291 0.04798 0.0
C587 C 0.1829 0.32232 0.06566 0.0
N588 N 0.18417 0.32184 0.97291 0.0
N589 N 0.19024 0.3285 0.99171 0.0
C590 C 0.17155 0.31061 0.01164 0.0
H591 H 0.16793 0.31134 0.97028 0.0
H592 H 0.16612 0.31156 0.04558 0.0
H593 H 0.17465 0.3032 0.01462 0.0
C594 C 0.16397 0.33223 0.79433 0.0
N595 N 0.17095 0.32591 0.80909 0.0
N596 N 0.17289 0.32692 0.86284 0.0
C597 C 0.16717 0.33395 0.88409 0.0
C598 C 0.16133 0.33754 0.84135 0.0
C599 C 0.16027 0.33338 0.73566 0.0
H600 H 0.16649 0.33437 0.70671 0.0
H601 H 0.15641 0.32666 0.72299 0.0
H602 H 0.15532 0.33968 0.73159 0.0
O603 O 0.19182 0.31943 0.76829 0.0
O604 O 0.19533 0.32116 0.85856 0.0
H605 H 0.17413 0.3398 0.95675 0.0
H606 H 0.16124 0.34223 0.95373 0.0
C607 C 0.16696 0.3368 0.94468 0.0
H608 H 0.16557 0.33029 0.97066 0.0
H609 H 0.1947 0.33271 0.96604 0.0
O610 O 0.17393 0.31709 0.68681 0.0
C611 C 0.1979 0.32113 0.80725 0.0
Co612 Co 0.9292 0.9284 0.01891 0.0
Co613 Co 0.92861 0.93133 0.14952 0.0
C614 C 0.94688 0.92553 0.09175 0.0
O615 O 0.94262 0.92549 0.04425 0.0
O616 O 0.94234 0.92768 0.13666 0.0
C617 C 0.93242 0.91868 0.91217 0.0
O618 O 0.93786 0.91256 0.9404 0.0
C619 C 0.93024 0.92882 0.27312 0.0
C620 C 0.91682 0.9362 0.30071 0.0
C621 C 0.92475 0.93105 0.32038 0.0
N622 N 0.92562 0.93234 0.22768 0.0
N623 N 0.91766 0.9368 0.24464 0.0
C624 C 0.93992 0.92394 0.27092 0.0
H625 H 0.94476 0.928 0.24228 0.0
H626 H 0.93903 0.91649 0.25398 0.0
H627 H 0.9434 0.92361 0.3128 0.0
C628 C 0.91318 0.91483 0.04588 0.0
N629 N 0.92006 0.92126 0.0609 0.0
N630 N 0.92025 0.922 0.11589 0.0
C631 C 0.91379 0.91573 0.13784 0.0
C632 C 0.90897 0.91106 0.09423 0.0
C633 C 0.91036 0.91285 0.98633 0.0
H634 H 0.91097 0.91958 0.9611 0.0
H635 H 0.91537 0.90736 0.96842 0.0
H636 H 0.90281 0.9101 0.98346 0.0
O637 O 0.92668 0.94234 0.02612 0.0
O638 O 0.92622 0.94453 0.11815 0.0
H639 H 0.90828 0.91917 0.21931 0.0
H640 H 0.90976 0.90633 0.20683 0.0
C641 C 0.91294 0.9136 0.19925 0.0
H642 H 0.92021 0.91383 0.219 0.0
H643 H 0.91272 0.94015 0.2177 0.0
O644 O 0.92817 0.92553 0.93795 0.0
C645 C 0.92565 0.94785 0.06841 0.0
Co646 Co 0.31842 0.67914 0.26754 0.0
Co647 Co 0.31487 0.67763 0.39771 0.0
C648 C 0.32018 0.69648 0.34312 0.0
O649 O 0.32063 0.69255 0.29477 0.0
O650 O 0.31802 0.69155 0.38661 0.0
C651 C 0.32684 0.68443 0.15992 0.0
O652 O 0.33071 0.69178 0.18698 0.0
C653 C 0.31828 0.67919 0.51963 0.0
C654 C 0.30843 0.66786 0.55227 0.0
C655 C 0.31505 0.67486 0.56884 0.0
N656 N 0.31382 0.67488 0.47607 0.0
N657 N 0.30795 0.66811 0.4959 0.0
C658 C 0.32481 0.6878 0.51353 0.0
H659 H 0.32033 0.69418 0.50195 0.0
H660 H 0.33005 0.68653 0.47895 0.0
H661 H 0.32873 0.68954 0.55278 0.0
C662 C 0.33277 0.66386 0.29422 0.0
N663 N 0.32584 0.67021 0.30959 0.0
N664 N 0.32451 0.66965 0.36417 0.0
C665 C 0.33064 0.66299 0.38545 0.0
C666 C 0.33606 0.65907 0.3418 0.0
C667 C 0.33575 0.66213 0.23468 0.0
H668 H 0.3292 0.66144 0.20793 0.0
H669 H 0.33998 0.66846 0.21953 0.0
H670 H 0.34019 0.65546 0.23032 0.0
O671 O 0.30451 0.67596 0.27306 0.0
O672 O 0.30193 0.67487 0.36466 0.0
H673 H 0.32498 0.65731 0.46219 0.0
H674 H 0.33801 0.65617 0.45574 0.0
C675 C 0.33168 0.66088 0.44677 0.0
H676 H 0.33261 0.66778 0.46995 0.0
H677 H 0.30357 0.6637 0.4709 0.0
O678 O 0.32168 0.67834 0.18659 0.0
C679 C 0.29886 0.67446 0.31433 0.0
Co680 Co 0.56668 0.92722 0.48586 0.0
Co681 Co 0.56905 0.93234 0.35821 0.0
C682 C 0.54988 0.9263 0.40635 0.0
O683 O 0.55352 0.92517 0.45503 0.0
O684 O 0.55505 0.9291 0.36513 0.0
C685 C 0.55954 0.92447 0.59627 0.0
O686 O 0.55165 0.92815 0.57382 0.0
C687 C 0.56795 0.92996 0.23598 0.0
C688 C 0.57969 0.93964 0.20683 0.0
C689 C 0.57258 0.93332 0.18802 0.0
N690 N 0.57211 0.93414 0.28089 0.0
N691 N 0.5791 0.93994 0.26317 0.0
C692 C 0.56027 0.92232 0.23985 0.0
H693 H 0.56092 0.91832 0.28006 0.0
H694 H 0.56083 0.91714 0.20434 0.0
H695 H 0.55303 0.92583 0.23851 0.0
C696 C 0.58211 0.91319 0.45715 0.0
N697 N 0.57591 0.92033 0.44319 0.0
N698 N 0.57692 0.92239 0.38959 0.0
C699 C 0.58382 0.91659 0.36766 0.0
C700 C 0.58733 0.91058 0.40977 0.0
C701 C 0.5832 0.90927 0.51537 0.0
H702 H 0.58421 0.91538 0.54513 0.0
H703 H 0.57644 0.90542 0.52741 0.0
H704 H 0.58945 0.90424 0.51888 0.0
O705 O 0.56971 0.94121 0.48632 0.0
O706 O 0.57153 0.94489 0.39637 0.0
H707 H 0.58996 0.92354 0.29581 0.0
H708 H 0.59178 0.91055 0.29717 0.0
C709 C 0.58662 0.91648 0.30699 0.0
H710 H 0.58004 0.91551 0.28096 0.0
H711 H 0.58352 0.94405 0.28962 0.0
O712 O 0.56693 0.92307 0.5654 0.0
C713 C 0.57149 0.94736 0.44786 0.0
Co714 Co 0.31883 0.31754 0.72349 0.0
Co715 Co 0.31528 0.31937 0.59364 0.0
C716 C 0.32085 0.30043 0.64649 0.0
O717 O 0.32126 0.30423 0.69519 0.0
O718 O 0.31861 0.30545 0.60347 0.0
C719 C 0.32719 0.31218 0.83137 0.0
O720 O 0.33115 0.30485 0.80467 0.0
C721 C 0.3185 0.31814 0.47141 0.0
C722 C 0.30902 0.32994 0.44072 0.0
C723 C 0.3154 0.32281 0.42296 0.0
N724 N 0.31421 0.3224 0.5157 0.0
N725 N 0.30856 0.32944 0.49703 0.0
C726 C 0.32476 0.3093 0.4761 0.0
H727 H 0.32027 0.30323 0.4919 0.0
H728 H 0.3306 0.31062 0.50722 0.0
H729 H 0.32792 0.30709 0.43538 0.0
C730 C 0.33291 0.33313 0.69865 0.0
N731 N 0.32611 0.3267 0.68252 0.0
N732 N 0.32481 0.32738 0.62797 0.0
C733 C 0.33086 0.33419 0.60745 0.0
C734 C 0.33617 0.33809 0.6516 0.0
C735 C 0.33578 0.33478 0.75846 0.0
H736 H 0.32919 0.33529 0.78495 0.0
H737 H 0.34011 0.3285 0.77334 0.0
H738 H 0.34009 0.34152 0.76355 0.0
O739 O 0.30488 0.32051 0.71819 0.0
O740 O 0.30228 0.32184 0.62672 0.0
H741 H 0.32529 0.34024 0.53143 0.0
H742 H 0.33833 0.34111 0.53796 0.0
C743 C 0.33192 0.33648 0.54637 0.0
H744 H 0.33272 0.32965 0.52237 0.0
H745 H 0.30435 0.33389 0.5228 0.0
O746 O 0.32202 0.31823 0.80439 0.0
C747 C 0.2992 0.32205 0.67706 0.0
Co748 Co 0.9293 0.06937 0.9827 0.0
Co749 Co 0.92736 0.06452 0.85381 0.0
C750 C 0.94632 0.07075 0.90638 0.0
O751 O 0.94261 0.07175 0.955 0.0
O752 O 0.94124 0.06794 0.86479 0.0
C753 C 0.9346 0.07759 0.09119 0.0
O754 O 0.94244 0.08079 0.06582 0.0
C755 C 0.92809 0.06828 0.73113 0.0
C756 C 0.9192 0.05615 0.69913 0.0
C757 C 0.92457 0.06411 0.68201 0.0
N758 N 0.92487 0.06304 0.77509 0.0
N759 N 0.91954 0.05582 0.75551 0.0
C760 C 0.9348 0.07678 0.73604 0.0
H761 H 0.9382 0.0771 0.77799 0.0
H762 H 0.93065 0.08359 0.72995 0.0
H763 H 0.9405 0.07641 0.70319 0.0
C764 C 0.91381 0.08326 0.95324 0.0
N765 N 0.92016 0.07625 0.93919 0.0
N766 N 0.91913 0.07413 0.88564 0.0
C767 C 0.91197 0.07966 0.86408 0.0
C768 C 0.90841 0.08564 0.90616 0.0
C769 C 0.91271 0.08722 0.01135 0.0
H770 H 0.91126 0.08117 0.04083 0.0
H771 H 0.91962 0.0907 0.02435 0.0
H772 H 0.90672 0.09256 0.01422 0.0
O773 O 0.92649 0.05534 0.98006 0.0
O774 O 0.92489 0.05177 0.88977 0.0
H775 H 0.90714 0.07185 0.79164 0.0
H776 H 0.90248 0.0841 0.79601 0.0
C777 C 0.90886 0.07942 0.80394 0.0
H778 H 0.91491 0.08199 0.77731 0.0
H779 H 0.91622 0.0506 0.78068 0.0
O780 O 0.92827 0.07296 0.06316 0.0
C781 C 0.92485 0.04923 0.94114 0.0
Co782 Co 0.17751 0.67892 0.23471 0.0
Co783 Co 0.18192 0.678 0.10499 0.0
C784 C 0.17625 0.69659 0.16223 0.0
O785 O 0.1754 0.69244 0.2097 0.0
O786 O 0.17878 0.69187 0.11868 0.0
C787 C 0.16893 0.68393 0.34204 0.0
O788 O 0.16544 0.69154 0.31569 0.0
C789 C 0.1786 0.67944 0.98173 0.0
C790 C 0.18984 0.66936 0.95055 0.0
C791 C 0.18247 0.67548 0.93297 0.0
N792 N 0.1834 0.67572 0.02606 0.0
N793 N 0.19011 0.66971 0.00693 0.0
C794 C 0.17076 0.68693 0.98587 0.0
H795 H 0.17114 0.69088 0.02611 0.0
H796 H 0.16358 0.68332 0.98353 0.0
H797 H 0.17129 0.69216 0.95058 0.0
C798 C 0.16348 0.66371 0.20309 0.0
N799 N 0.1704 0.67019 0.18979 0.0
N800 N 0.17217 0.66974 0.13558 0.0
C801 C 0.1664 0.66292 0.11258 0.0
C802 C 0.16069 0.65889 0.15461 0.0
C803 C 0.16008 0.66185 0.26175 0.0
H804 H 0.16644 0.66087 0.28964 0.0
H805 H 0.15597 0.66827 0.27693 0.0
H806 H 0.15541 0.65532 0.26444 0.0
O807 O 0.19145 0.67584 0.23105 0.0
O808 O 0.1947 0.67511 0.14 0.0
H809 H 0.1733 0.65796 0.03751 0.0
H810 H 0.16048 0.65516 0.04088 0.0
C811 C 0.16609 0.66063 0.05122 0.0
H812 H 0.16445 0.66734 0.02759 0.0
H813 H 0.1949 0.66586 0.03245 0.0
O814 O 0.1739 0.67773 0.31496 0.0
C815 C 0.1974 0.67452 0.19097 0.0
Co816 Co 0.42929 0.92932 0.47158 0.0
Co817 Co 0.42726 0.93222 0.34148 0.0
C818 C 0.44627 0.92699 0.39383 0.0
O819 O 0.44248 0.92676 0.44256 0.0
O820 O 0.44125 0.92907 0.35053 0.0
C821 C 0.4329 0.9198 0.57949 0.0
O822 O 0.43715 0.9128 0.55132 0.0
C823 C 0.42819 0.92834 0.21981 0.0
C824 C 0.41532 0.93638 0.18971 0.0
C825 C 0.42282 0.93044 0.17215 0.0
N826 N 0.424 0.9328 0.26376 0.0
N827 N 0.41639 0.93769 0.24532 0.0
C828 C 0.43668 0.92163 0.22443 0.0
H829 H 0.43633 0.91755 0.2645 0.0
H830 H 0.43691 0.91648 0.18866 0.0
H831 H 0.44345 0.92598 0.22443 0.0
C832 C 0.41366 0.91499 0.45014 0.0
N833 N 0.42003 0.92177 0.4329 0.0
N834 N 0.41938 0.92274 0.37804 0.0
C835 C 0.41271 0.91643 0.35856 0.0
C836 C 0.40887 0.91135 0.40356 0.0
C837 C 0.41247 0.91182 0.50977 0.0
H838 H 0.41213 0.91826 0.53757 0.0
H839 H 0.41885 0.90741 0.52208 0.0
H840 H 0.40586 0.90735 0.51567 0.0
O841 O 0.42623 0.94317 0.46364 0.0
O842 O 0.42475 0.94543 0.37201 0.0
H843 H 0.40661 0.92241 0.28392 0.0
H844 H 0.40445 0.90963 0.29167 0.0
C845 C 0.40984 0.91549 0.29825 0.0
H846 H 0.41636 0.91398 0.27249 0.0
H847 H 0.41178 0.94173 0.27101 0.0
O848 O 0.42914 0.92691 0.55337 0.0
C849 C 0.42459 0.94869 0.42197 0.0
Co850 Co 0.81922 0.67905 0.23352 0.0
Co851 Co 0.8149 0.67857 0.10374 0.0
C852 C 0.82124 0.6968 0.16214 0.0
O853 O 0.82184 0.69253 0.2094 0.0
O854 O 0.81862 0.69226 0.11811 0.0
C855 C 0.82831 0.68335 0.34049 0.0
O856 O 0.8325 0.69055 0.3138 0.0
C857 C 0.81795 0.6802 0.9804 0.0
C858 C 0.80704 0.66971 0.94975 0.0
C859 C 0.81421 0.67603 0.9319 0.0
N860 N 0.81329 0.67637 0.0249 0.0
N861 N 0.80676 0.67015 0.0061 0.0
C862 C 0.82553 0.68795 0.9843 0.0
H863 H 0.83269 0.68456 0.99259 0.0
H864 H 0.82597 0.69219 0.9448 0.0
H865 H 0.8239 0.69295 0.01926 0.0
C866 C 0.83279 0.66343 0.20084 0.0
N867 N 0.82606 0.67015 0.18812 0.0
N868 N 0.8243 0.6699 0.13385 0.0
C869 C 0.82987 0.66297 0.11027 0.0
C870 C 0.83542 0.65865 0.15194 0.0
C871 C 0.83621 0.66136 0.25922 0.0
H872 H 0.82986 0.6605 0.28732 0.0
H873 H 0.8405 0.66763 0.27463 0.0
H874 H 0.84071 0.6547 0.2612 0.0
O875 O 0.80516 0.67647 0.22964 0.0
O876 O 0.80204 0.6761 0.1384 0.0
H877 H 0.82295 0.65815 0.03495 0.0
H878 H 0.83578 0.65543 0.03787 0.0
C879 C 0.83015 0.66085 0.0487 0.0
H880 H 0.83174 0.66763 0.02555 0.0
H881 H 0.80213 0.66615 0.03186 0.0
O882 O 0.82276 0.67762 0.31368 0.0
C883 C 0.79923 0.67547 0.18914 0.0
Co884 Co 0.06623 0.07024 0.97855 0.0
Co885 Co 0.06836 0.0653 0.85064 0.0
C886 C 0.04946 0.07204 0.89933 0.0
O887 O 0.05314 0.07284 0.94815 0.0
O888 O 0.05452 0.06916 0.85776 0.0
C889 C 0.05939 0.07458 0.08948 0.0
O890 O 0.05085 0.07258 0.06796 0.0
C891 C 0.06765 0.06788 0.72831 0.0
C892 C 0.07902 0.05766 0.70019 0.0
C893 C 0.07231 0.06436 0.68081 0.0
N894 N 0.07144 0.06344 0.7735 0.0
N895 N 0.07818 0.0573 0.75638 0.0
C896 C 0.06034 0.07588 0.73161 0.0
H897 H 0.06097 0.07974 0.77231 0.0
H898 H 0.06134 0.08112 0.6967 0.0
H899 H 0.05295 0.07274 0.72869 0.0
C900 C 0.08212 0.08376 0.95059 0.0
N901 N 0.07568 0.07686 0.93618 0.0
N902 N 0.07665 0.07483 0.88253 0.0
C903 C 0.0838 0.08038 0.86105 0.0
C904 C 0.08749 0.08621 0.90349 0.0
C905 C 0.08329 0.0876 0.00894 0.0
H906 H 0.08441 0.08145 0.03827 0.0
H907 H 0.07654 0.09138 0.02164 0.0
H908 H 0.08953 0.09265 0.01237 0.0
O909 O 0.06879 0.05614 0.9782 0.0
O910 O 0.07032 0.0526 0.88789 0.0
H911 H 0.08961 0.07318 0.78907 0.0
H912 H 0.09226 0.08602 0.79147 0.0
C913 C 0.08671 0.08042 0.80056 0.0
H914 H 0.08025 0.08187 0.77424 0.0
H915 H 0.0823 0.05296 0.78318 0.0
O916 O 0.06684 0.0743 0.05812 0.0
C917 C 0.07028 0.05002 0.93917 0.0
Co918 Co 0.67885 0.31719 0.73502 0.0
Co919 Co 0.68152 0.31895 0.60472 0.0
C920 C 0.6763 0.30008 0.65792 0.0
O921 O 0.67619 0.30397 0.70643 0.0
O922 O 0.67832 0.30501 0.61419 0.0
C923 C 0.66902 0.31419 0.84242 0.0
O924 O 0.66166 0.31072 0.81375 0.0
C925 C 0.67808 0.31787 0.48241 0.0
C926 C 0.68504 0.33147 0.45422 0.0
C927 C 0.67981 0.32354 0.43542 0.0
N928 N 0.68208 0.32229 0.52711 0.0
N929 N 0.68633 0.33035 0.50978 0.0
C930 C 0.67198 0.30891 0.48591 0.0
H931 H 0.66763 0.309 0.52507 0.0
H932 H 0.66707 0.30828 0.44921 0.0
H933 H 0.67681 0.30247 0.48713 0.0
C934 C 0.66471 0.33305 0.71356 0.0
N935 N 0.67131 0.32648 0.69638 0.0
N936 N 0.67211 0.32691 0.64139 0.0
C937 C 0.66581 0.33357 0.62172 0.0
C938 C 0.66099 0.33775 0.66679 0.0
C939 C 0.66245 0.33519 0.7737 0.0
H940 H 0.66907 0.33439 0.79967 0.0
H941 H 0.65692 0.32996 0.78884 0.0
H942 H 0.65954 0.34264 0.77875 0.0
O943 O 0.69269 0.32015 0.72666 0.0
O944 O 0.69478 0.3214 0.63479 0.0
H945 H 0.66978 0.33997 0.54336 0.0
H946 H 0.65686 0.33909 0.55413 0.0
C947 C 0.6639 0.33538 0.56078 0.0
H948 H 0.66377 0.3284 0.5378 0.0
H949 H 0.68987 0.33522 0.53626 0.0
O950 O 0.67646 0.31731 0.81673 0.0
C951 C 0.69814 0.32165 0.68452 0.0
Co952 Co 0.43019 0.0701 0.52086 0.0
Co953 Co 0.42761 0.06462 0.64748 0.0
C954 C 0.44681 0.07103 0.60106 0.0
O955 O 0.44331 0.07214 0.55203 0.0
O956 O 0.44155 0.06814 0.64172 0.0
C957 C 0.43647 0.0707 0.40983 0.0
O958 O 0.44302 0.0649 0.43174 0.0
C959 C 0.42783 0.06745 0.7693 0.0
C960 C 0.41777 0.05601 0.79801 0.0
C961 C 0.42365 0.06347 0.81711 0.0
N962 N 0.42457 0.06255 0.72439 0.0
N963 N 0.41859 0.05569 0.74181 0.0
C964 C 0.43427 0.07617 0.76528 0.0
H965 H 0.43349 0.07964 0.72351 0.0
H966 H 0.43249 0.08149 0.7987 0.0
H967 H 0.44193 0.07386 0.77029 0.0
C968 C 0.41485 0.08421 0.55037 0.0
N969 N 0.42089 0.07689 0.56366 0.0
N970 N 0.41968 0.07456 0.61675 0.0
C971 C 0.41274 0.08029 0.63888 0.0
C972 C 0.40949 0.08662 0.59764 0.0
C973 C 0.41466 0.08907 0.49425 0.0
H974 H 0.42219 0.09055 0.48025 0.0
H975 H 0.41053 0.09598 0.49541 0.0
H976 H 0.41128 0.08411 0.46323 0.0
O977 O 0.4272 0.05607 0.51893 0.0
O978 O 0.42531 0.05216 0.60844 0.0
H979 H 0.402 0.08335 0.7029 0.0
H980 H 0.41437 0.08244 0.72715 0.0
C981 C 0.40896 0.07941 0.69753 0.0
H982 H 0.4078 0.07167 0.70796 0.0
H983 H 0.41502 0.05085 0.71527 0.0
O984 O 0.43004 0.07434 0.44168 0.0
C985 C 0.42541 0.04982 0.5568 0.0
Co986 Co 0.67784 0.67907 0.27703 0.0
Co987 Co 0.68231 0.67741 0.40642 0.0
C988 C 0.67621 0.69624 0.35252 0.0
O989 O 0.67539 0.69241 0.30413 0.0
O990 O 0.67888 0.69127 0.39486 0.0
C991 C 0.66951 0.68429 0.16901 0.0
O992 O 0.6661 0.69197 0.19498 0.0
C993 C 0.67856 0.67826 0.52919 0.0
C994 C 0.69047 0.66904 0.56096 0.0
C995 C 0.68264 0.6746 0.5782 0.0
N996 N 0.68371 0.67492 0.48515 0.0
N997 N 0.69079 0.6694 0.5046 0.0
C998 C 0.67021 0.68517 0.52451 0.0
H999 H 0.67005 0.6887 0.48295 0.0
H1000 H 0.66331 0.68114 0.52978 0.0
H1001 H 0.67064 0.69076 0.55796 0.0
C1002 C 0.66402 0.66349 0.30584 0.0
N1003 N 0.6709 0.66995 0.32029 0.0
N1004 N 0.67279 0.6691 0.37421 0.0
C1005 C 0.66722 0.66198 0.39572 0.0
C1006 C 0.66146 0.65822 0.35313 0.0
C1007 C 0.6604 0.66213 0.24718 0.0
H1008 H 0.66665 0.66095 0.21868 0.0
H1009 H 0.65662 0.66883 0.23338 0.0
H1010 H 0.65538 0.65586 0.24373 0.0
O1011 O 0.69187 0.67631 0.28065 0.0
O1012 O 0.69516 0.675 0.37144 0.0
H1013 H 0.67463 0.65707 0.4693 0.0
H1014 H 0.66217 0.653 0.46473 0.0
C1015 C 0.66718 0.65911 0.45627 0.0
H1016 H 0.66486 0.66539 0.48191 0.0
H1017 H 0.69592 0.66595 0.47934 0.0
O1018 O 0.67434 0.67804 0.19651 0.0
C1019 C 0.69786 0.67483 0.32037 0.0
Co1020 Co 0.0683 0.92848 0.02118 0.0
Co1021 Co 0.06867 0.93267 0.15096 0.0
C1022 C 0.0505 0.92632 0.09179 0.0
O1023 O 0.05483 0.9258 0.04469 0.0
O1024 O 0.05497 0.92891 0.13611 0.0
C1025 C 0.06414 0.91938 0.91439 0.0
O1026 O 0.05707 0.91505 0.94153 0.0
C1027 C 0.06752 0.92871 0.27322 0.0
C1028 C 0.07566 0.94125 0.30667 0.0
C1029 C 0.07068 0.93298 0.32286 0.0
N1030 N 0.07058 0.93419 0.22992 0.0
N1031 N 0.07545 0.94166 0.25035 0.0
C1032 C 0.06127 0.91989 0.26702 0.0
H1033 H 0.05778 0.9197 0.22526 0.0
H1034 H 0.06581 0.91329 0.27121 0.0
H1035 H 0.05565 0.91972 0.30037 0.0
C1036 C 0.08381 0.9148 0.05384 0.0
N1037 N 0.07716 0.92159 0.06662 0.0
N1038 N 0.07747 0.92338 0.12086 0.0
C1039 C 0.08445 0.91785 0.14422 0.0
C1040 C 0.08865 0.91219 0.10261 0.0
C1041 C 0.08511 0.9106 0.99641 0.0
H1042 H 0.08791 0.91631 0.96786 0.0
H1043 H 0.07797 0.90821 0.98007 0.0
H1044 H 0.09016 0.90434 0.99642 0.0
O1045 O 0.0708 0.94259 0.02571 0.0
O1046 O 0.07106 0.94557 0.11711 0.0
H1047 H 0.08784 0.92606 0.21802 0.0
H1048 H 0.09465 0.91496 0.21125 0.0
C1049 C 0.08747 0.91839 0.20445 0.0
H1050 H 0.08202 0.91459 0.23065 0.0
H1051 H 0.07859 0.94708 0.22578 0.0
O1052 O 0.06982 0.92503 0.94088 0.0
C1053 C 0.07171 0.94847 0.06657 0.0
Co1054 Co 0.81993 0.31731 0.76746 0.0
Co1055 Co 0.81493 0.31953 0.89548 0.0
C1056 C 0.82132 0.3005 0.84639 0.0
O1057 O 0.82226 0.30413 0.79755 0.0
O1058 O 0.81849 0.30564 0.88775 0.0
C1059 C 0.82462 0.31038 0.65711 0.0
O1060 O 0.82331 0.30182 0.68006 0.0
C1061 C 0.81824 0.31873 0.01687 0.0
C1062 C 0.80733 0.32911 0.04872 0.0
C1063 C 0.81465 0.32287 0.06578 0.0
N1064 N 0.81325 0.32234 0.97316 0.0
N1065 N 0.80671 0.3285 0.99247 0.0
C1066 C 0.8267 0.31201 0.01085 0.0
H1067 H 0.83017 0.31299 0.9692 0.0
H1068 H 0.83212 0.31331 0.0445 0.0
H1069 H 0.82411 0.30441 0.01395 0.0
C1070 C 0.83399 0.33269 0.7966 0.0
N1071 N 0.82678 0.32655 0.81037 0.0
N1072 N 0.82469 0.32758 0.86391 0.0
C1073 C 0.83047 0.3345 0.88588 0.0
C1074 C 0.83657 0.33792 0.84402 0.0
C1075 C 0.83861 0.33307 0.73983 0.0
H1076 H 0.83345 0.33641 0.70973 0.0
H1077 H 0.84017 0.32559 0.72514 0.0
H1078 H 0.84544 0.33732 0.74027 0.0
O1079 O 0.80587 0.32016 0.76823 0.0
O1080 O 0.8023 0.32186 0.85841 0.0
H1081 H 0.82214 0.33939 0.95621 0.0
H1082 H 0.83395 0.3449 0.95111 0.0
C1083 C 0.82983 0.33807 0.94507 0.0
H1084 H 0.83276 0.33245 0.97374 0.0
H1085 H 0.80188 0.33236 0.96718 0.0
O1086 O 0.82383 0.31793 0.68737 0.0
C1087 C 0.79976 0.32184 0.80707 0.0
H1088 H 0.07655 0.5703 0.85202 0.0
H1089 H 0.07744 0.57084 0.74989 0.0
H1090 H 0.0502 0.5862 0.74407 0.0
H1091 H 0.04916 0.58556 0.84656 0.0
H1092 H 0.05054 0.57063 0.67362 0.0
H1093 H 0.08357 0.59273 0.64183 0.0
H1094 H 0.08564 0.58278 0.68879 0.0
H1095 H 0.07728 0.59223 0.7082 0.0
C1096 C 0.0708 0.5739 0.82917 0.0
C1097 C 0.06277 0.57786 0.85749 0.0
C1098 C 0.07136 0.57427 0.77073 0.0
C1099 C 0.06396 0.57869 0.73938 0.0
C1100 C 0.05602 0.58282 0.76751 0.0
H1101 H 0.07016 0.58294 0.37333 0.0
H1102 H 0.06725 0.5873 0.47142 0.0
C1103 C 0.05544 0.58245 0.82607 0.0
C1104 C 0.06417 0.57826 0.67724 0.0
H1105 H 0.07856 0.58284 0.56372 0.0
C1106 C 0.0566 0.57343 0.64948 0.0
C1107 C 0.072 0.58203 0.64565 0.0
C1108 C 0.08003 0.58782 0.6726 0.0
C1109 C 0.05688 0.57184 0.59137 0.0
C1110 C 0.06504 0.57502 0.56042 0.0
C1111 C 0.07237 0.58029 0.58765 0.0
C1112 C 0.06636 0.57246 0.50053 0.0
C1113 C 0.04849 0.56669 0.56376 0.0
C1114 C 0.06694 0.56268 0.48449 0.0
C1115 C 0.06848 0.56018 0.42847 0.0
C1116 C 0.06947 0.5674 0.38725 0.0
C1117 C 0.06904 0.5772 0.4035 0.0
C1118 C 0.0675 0.57971 0.45971 0.0
H1119 H 0.04172 0.56746 0.5887 0.0
H1120 H 0.04716 0.56952 0.52083 0.0
H1121 H 0.05017 0.55884 0.56058 0.0
H1122 H 0.06633 0.55697 0.5155 0.0
H1123 H 0.06888 0.55257 0.4174 0.0
H1124 H 0.68428 0.83539 0.64324 0.0
H1125 H 0.68131 0.83285 0.74338 0.0
H1126 H 0.67253 0.8034 0.71018 0.0
H1127 H 0.67566 0.80579 0.61019 0.0
H1128 H 0.6603 0.81469 0.79077 0.0
H1129 H 0.69984 0.81487 0.8372 0.0
H1130 H 0.69543 0.82501 0.79719 0.0
H1131 H 0.69511 0.81305 0.76734 0.0
C1132 C 0.68163 0.82839 0.65718 0.0
C1133 C 0.68007 0.82084 0.61859 0.0
C1134 C 0.67994 0.82697 0.71432 0.0
C1135 C 0.67673 0.81794 0.73398 0.0
C1136 C 0.67492 0.81044 0.69559 0.0
H1137 H 0.6821 0.79689 0.07398 0.0
H1138 H 0.68147 0.7984 0.97201 0.0
C1139 C 0.67664 0.81186 0.63834 0.0
C1140 C 0.67583 0.81617 0.79491 0.0
H1141 H 0.6892 0.81443 0.91485 0.0
C1142 C 0.66659 0.81461 0.81804 0.0
C1143 C 0.68409 0.81596 0.82999 0.0
C1144 C 0.6942 0.81723 0.80683 0.0
C1145 C 0.6654 0.81301 0.87588 0.0
C1146 C 0.67366 0.81304 0.91111 0.0
C1147 C 0.68289 0.81445 0.88769 0.0
C1148 C 0.67298 0.81161 0.97252 0.0
C1149 C 0.65537 0.8112 0.89878 0.0
C1150 C 0.6683 0.81847 0.00656 0.0
C1151 C 0.66866 0.81764 0.06502 0.0
C1152 C 0.67375 0.80995 0.0903 0.0
C1153 C 0.67814 0.80291 0.05592 0.0
C1154 C 0.67779 0.80376 0.99761 0.0
H1155 H 0.65017 0.80919 0.86511 0.0
H1156 H 0.65549 0.80533 0.93069 0.0
H1157 H 0.65268 0.8179 0.91937 0.0
H1158 H 0.66469 0.82467 0.988 0.0
H1159 H 0.66522 0.82319 0.09034 0.0
H1160 H 0.42805 0.44504 0.9246 0.0
H1161 H 0.4305 0.44057 0.02267 0.0
H1162 H 0.42892 0.41028 0.97831 0.0
H1163 H 0.42611 0.41471 0.88024 0.0
H1164 H 0.41767 0.41501 0.07061 0.0
H1165 H 0.45487 0.42947 0.09595 0.0
H1166 H 0.44663 0.43829 0.06771 0.0
H1167 H 0.4494 0.42753 0.02802 0.0
C1168 C 0.42829 0.43742 0.9356 0.0
C1169 C 0.42713 0.43023 0.89432 0.0
C1170 C 0.42977 0.43488 0.99161 0.0
C1171 C 0.43013 0.42509 0.00756 0.0
C1172 C 0.42883 0.41788 0.96667 0.0
H1173 H 0.44698 0.41153 0.35357 0.0
H1174 H 0.44593 0.41093 0.25108 0.0
C1175 C 0.42735 0.42042 0.91047 0.0
C1176 C 0.43138 0.42248 0.06745 0.0
H1177 H 0.44597 0.42649 0.18076 0.0
C1178 C 0.42391 0.41739 0.0946 0.0
C1179 C 0.43961 0.42545 0.09847 0.0
C1180 C 0.44813 0.4304 0.07094 0.0
C1181 C 0.42423 0.41563 0.1526 0.0
C1182 C 0.43215 0.41921 0.18427 0.0
C1183 C 0.43985 0.42385 0.15658 0.0
C1184 C 0.43234 0.41875 0.24642 0.0
C1185 C 0.41605 0.41004 0.17943 0.0
C1186 C 0.42504 0.42332 0.2778 0.0
C1187 C 0.42561 0.42367 0.33626 0.0
C1188 C 0.43355 0.41952 0.36456 0.0
C1189 C 0.44077 0.41479 0.33311 0.0
C1190 C 0.44019 0.41444 0.27454 0.0
H1191 H 0.4124 0.40522 0.14861 0.0
H1192 H 0.41869 0.40557 0.21505 0.0
H1193 H 0.41056 0.41522 0.19558 0.0
H1194 H 0.41904 0.4269 0.25699 0.0
H1195 H 0.41993 0.4274 0.35912 0.0
H1196 H 0.83279 0.17641 0.1173 0.0
H1197 H 0.83727 0.17891 0.21545 0.0
H1198 H 0.807 0.18045 0.26043 0.0
H1199 H 0.80248 0.17838 0.16215 0.0
H1200 H 0.81802 0.19481 0.31065 0.0
H1201 H 0.83485 0.15846 0.33874 0.0
H1202 H 0.8398 0.16567 0.28284 0.0
H1203 H 0.82749 0.16146 0.27861 0.0
C1204 C 0.82709 0.17752 0.14769 0.0
C1205 C 0.81727 0.17739 0.13159 0.0
C1206 C 0.82966 0.17878 0.20405 0.0
C1207 C 0.82247 0.17978 0.24531 0.0
C1208 C 0.81268 0.17969 0.22928 0.0
H1209 H 0.82051 0.1709 0.59831 0.0
H1210 H 0.82047 0.16999 0.49613 0.0
C1211 C 0.8101 0.17846 0.1731 0.0
C1212 C 0.82501 0.18088 0.30542 0.0
H1213 H 0.835 0.16894 0.41691 0.0
C1214 C 0.82181 0.1892 0.33387 0.0
C1215 C 0.82988 0.17349 0.33558 0.0
C1216 C 0.83315 0.16422 0.30767 0.0
C1217 C 0.82313 0.19025 0.39194 0.0
C1218 C 0.82797 0.18285 0.42217 0.0
C1219 C 0.83137 0.17463 0.39351 0.0
C1220 C 0.8288 0.18313 0.48419 0.0
C1221 C 0.81893 0.19906 0.42073 0.0
C1222 C 0.83372 0.19069 0.51153 0.0
C1223 C 0.8337 0.19128 0.57016 0.0
C1224 C 0.82882 0.18426 0.6024 0.0
C1225 C 0.82429 0.17646 0.57483 0.0
C1226 C 0.82428 0.17591 0.51636 0.0
H1227 H 0.81364 0.20294 0.39364 0.0
H1228 H 0.81525 0.19699 0.46039 0.0
H1229 H 0.82488 0.20417 0.43114 0.0
H1230 H 0.83744 0.19623 0.48752 0.0
H1231 H 0.83733 0.19734 0.5901 0.0
H1232 H 0.08571 0.43307 0.59691 0.0
H1233 H 0.08317 0.42896 0.49816 0.0
H1234 H 0.05363 0.42082 0.53453 0.0
H1235 H 0.05601 0.42522 0.63297 0.0
H1236 H 0.07715 0.41128 0.4465 0.0
H1237 H 0.05108 0.44146 0.41048 0.0
H1238 H 0.0587 0.44084 0.47194 0.0
H1239 H 0.04808 0.43334 0.46686 0.0
C1240 C 0.07868 0.43036 0.58393 0.0
C1241 C 0.0711 0.42935 0.62296 0.0
C1242 C 0.07726 0.42798 0.52758 0.0
C1243 C 0.0682 0.42465 0.50902 0.0
C1244 C 0.06066 0.42345 0.54798 0.0
H1245 H 0.04754 0.41617 0.1663 0.0
H1246 H 0.04894 0.4157 0.26855 0.0
C1247 C 0.06208 0.42583 0.60446 0.0
C1248 C 0.06661 0.4228 0.4485 0.0
H1249 H 0.05434 0.43118 0.33395 0.0
C1250 C 0.07213 0.41559 0.42186 0.0
C1251 C 0.06005 0.42843 0.41657 0.0
C1252 C 0.05418 0.43651 0.44262 0.0
C1253 C 0.0713 0.41388 0.36395 0.0
C1254 C 0.0649 0.41967 0.33182 0.0
C1255 C 0.05923 0.42674 0.35872 0.0
C1256 C 0.0643 0.41891 0.26986 0.0
C1257 C 0.07724 0.40588 0.33778 0.0
C1258 C 0.07249 0.4208 0.23663 0.0
C1259 C 0.07173 0.42106 0.17818 0.0
C1260 C 0.06272 0.41953 0.15184 0.0
C1261 C 0.05458 0.41739 0.18519 0.0
C1262 C 0.05536 0.41712 0.24366 0.0
H1263 H 0.0794 0.40036 0.36934 0.0
H1264 H 0.07319 0.40223 0.30351 0.0
H1265 H 0.08397 0.40903 0.3198 0.0
H1266 H 0.07942 0.42241 0.25595 0.0
H1267 H 0.07814 0.42275 0.15379 0.0
H1268 H 0.804 0.82564 0.83151 0.0
H1269 H 0.80857 0.82397 0.73277 0.0
H1270 H 0.83665 0.8131 0.78172 0.0
H1271 H 0.83224 0.81504 0.88083 0.0
H1272 H 0.82772 0.83313 0.68447 0.0
H1273 H 0.82322 0.7931 0.66192 0.0
H1274 H 0.81635 0.79988 0.71323 0.0
H1275 H 0.82909 0.79803 0.72329 0.0
C1276 C 0.81112 0.82283 0.82127 0.0
C1277 C 0.81767 0.82022 0.86389 0.0
C1278 C 0.81371 0.82187 0.76497 0.0
C1279 C 0.82289 0.81832 0.75027 0.0
C1280 C 0.82947 0.81572 0.7925 0.0
H1281 H 0.84002 0.80614 0.40202 0.0
H1282 H 0.84071 0.80724 0.50466 0.0
C1283 C 0.8269 0.81672 0.849 0.0
C1284 C 0.8256 0.8177 0.6905 0.0
H1285 H 0.82658 0.80201 0.58003 0.0
C1286 C 0.8276 0.82632 0.66161 0.0
C1287 C 0.82553 0.80879 0.66131 0.0
C1288 C 0.82343 0.79938 0.69114 0.0
C1289 C 0.82923 0.82631 0.60355 0.0
C1290 C 0.82858 0.81747 0.5736 0.0
C1291 C 0.82703 0.80878 0.60304 0.0
C1292 C 0.82863 0.8172 0.51146 0.0
C1293 C 0.83153 0.83579 0.57482 0.0
C1294 C 0.82158 0.82238 0.48142 0.0
C1295 C 0.82118 0.8218 0.42307 0.0
C1296 C 0.82776 0.81592 0.39347 0.0
C1297 C 0.83486 0.81075 0.42358 0.0
C1298 C 0.83527 0.81137 0.48217 0.0
H1299 H 0.835 0.84099 0.60426 0.0
H1300 H 0.83642 0.83469 0.53835 0.0
H1301 H 0.8247 0.83913 0.55963 0.0
H1302 H 0.81623 0.82673 0.50321 0.0
H1303 H 0.81559 0.82583 0.40131 0.0
H1304 H 0.45114 0.57153 0.66894 0.0
H1305 H 0.44893 0.57204 0.77083 0.0
H1306 H 0.41856 0.57836 0.74825 0.0
H1307 H 0.42067 0.57792 0.64634 0.0
H1308 H 0.4389 0.58789 0.84577 0.0
H1309 H 0.42173 0.55131 0.83804 0.0
H1310 H 0.42967 0.55565 0.78326 0.0
H1311 H 0.41756 0.5603 0.78876 0.0
C1312 C 0.44402 0.57317 0.68558 0.0
C1313 C 0.43606 0.57459 0.64954 0.0
C1314 C 0.44278 0.57348 0.74375 0.0
C1315 C 0.43358 0.57517 0.76671 0.0
C1316 C 0.42571 0.57702 0.73105 0.0
H1317 H 0.41044 0.5655 0.0996 0.0
H1318 H 0.41262 0.5693 1.00015 0.0
C1319 C 0.42694 0.57676 0.67289 0.0
C1320 C 0.43204 0.57422 0.82775 0.0
H1321 H 0.42276 0.55887 0.92613 0.0
C1322 C 0.43536 0.58157 0.86358 0.0
C1323 C 0.42742 0.56596 0.85041 0.0
C1324 C 0.42392 0.5578 0.81341 0.0
C1325 C 0.43405 0.58093 0.92194 0.0
C1326 C 0.42952 0.57259 0.94476 0.0
C1327 C 0.4262 0.56526 0.90861 0.0
C1328 C 0.42818 0.5712 0.00595 0.0
C1329 C 0.43734 0.58925 0.95838 0.0
C1330 C 0.4362 0.57101 0.0423 0.0
C1331 C 0.43495 0.56891 0.09924 0.0
C1332 C 0.42567 0.56688 0.12061 0.0
C1333 C 0.41767 0.56708 0.08422 0.0
C1334 C 0.4189 0.56926 0.02749 0.0
H1335 H 0.43794 0.59609 0.93403 0.0
H1336 H 0.43228 0.59043 0.99395 0.0
H1337 H 0.44462 0.58756 0.97575 0.0
H1338 H 0.44346 0.57216 0.02633 0.0
H1339 H 0.44129 0.56851 0.12593 0.0
H1340 H 0.67551 0.16834 0.89078 0.0
H1341 H 0.67564 0.16772 0.99315 0.0
H1342 H 0.66314 0.19637 1.00011 0.0
H1343 H 0.66305 0.19711 0.8975 0.0
H1344 H 0.6798 0.1943 0.06518 0.0
H1345 H 0.65378 0.16458 0.10826 0.0
H1346 H 0.6629 0.16138 0.05776 0.0
H1347 H 0.6543 0.17078 0.04158 0.0
C1348 C 0.67266 0.17446 0.91399 0.0
C1349 C 0.6693 0.18279 0.88594 0.0
C1350 C 0.67268 0.17407 0.97255 0.0
C1351 C 0.66931 0.18196 0.00419 0.0
C1352 C 0.66572 0.19018 0.97639 0.0
H1353 H 0.66592 0.17972 0.37127 0.0
H1354 H 0.66188 0.18229 0.27214 0.0
C1355 C 0.66567 0.19058 0.91776 0.0
C1356 C 0.67028 0.1819 0.06609 0.0
H1357 H 0.66442 0.169 0.18353 0.0
C1358 C 0.67635 0.18884 0.09118 0.0
C1359 C 0.66569 0.17484 0.09996 0.0
C1360 C 0.65872 0.16753 0.07566 0.0
C1361 C 0.67825 0.18866 0.14899 0.0
C1362 C 0.67408 0.18128 0.18235 0.0
C1363 C 0.66769 0.17459 0.1577 0.0
C1364 C 0.67656 0.18015 0.24244 0.0
C1365 C 0.68477 0.19634 0.17381 0.0
C1366 C 0.68612 0.17801 0.2584 0.0
C1367 C 0.68845 0.17663 0.31485 0.0
C1368 C 0.68127 0.17742 0.35635 0.0
C1369 C 0.67166 0.17944 0.3403 0.0
C1370 C 0.66933 0.1808 0.28374 0.0
H1371 H 0.68517 0.20287 0.14658 0.0
H1372 H 0.6822 0.19856 0.21607 0.0
H1373 H 0.69222 0.19337 0.17814 0.0
H1374 H 0.69176 0.17726 0.22705 0.0
H1375 H 0.69587 0.17491 0.3261 0.0
H1376 H 0.94674 0.40929 0.16084 0.0
H1377 H 0.94564 0.40886 0.26341 0.0
H1378 H 0.91986 0.42655 0.25691 0.0
H1379 H 0.9208 0.42691 0.15481 0.0
H1380 H 0.94656 0.42465 0.3335 0.0
H1381 H 0.91185 0.40524 0.36526 0.0
H1382 H 0.91824 0.40513 0.29912 0.0
H1383 H 0.91067 0.41527 0.31778 0.0
C1384 C 0.94075 0.41297 0.18121 0.0
C1385 C 0.93386 0.41815 0.1496 0.0
C1386 C 0.94014 0.41272 0.2398 0.0
C1387 C 0.9326 0.41756 0.26775 0.0
C1388 C 0.92562 0.42258 0.23622 0.0
H1389 H 0.92874 0.44405 0.58958 0.0
H1390 H 0.9311 0.43954 0.49126 0.0
C1391 C 0.92621 0.42283 0.17778 0.0
C1392 C 0.9324 0.41806 0.32988 0.0
H1393 H 0.91766 0.41466 0.44335 0.0
C1394 C 0.9403 0.42234 0.35763 0.0
C1395 C 0.92428 0.41493 0.36142 0.0
C1396 C 0.91582 0.4098 0.33443 0.0
C1397 C 0.9401 0.424 0.4157 0.0
C1398 C 0.93173 0.42144 0.4466 0.0
C1399 C 0.92403 0.41672 0.4194 0.0
C1400 C 0.93062 0.42407 0.5065 0.0
C1401 C 0.9488 0.42859 0.44341 0.0
C1402 C 0.92937 0.41687 0.54746 0.0
C1403 C 0.928 0.41943 0.60372 0.0
C1404 C 0.92782 0.42925 0.61978 0.0
C1405 C 0.92894 0.43643 0.57849 0.0
C1406 C 0.93036 0.43386 0.52241 0.0
H1407 H 0.95548 0.4276 0.41793 0.0
H1408 H 0.94751 0.4365 0.44807 0.0
H1409 H 0.95005 0.42549 0.4858 0.0
H1410 H 0.92939 0.40927 0.53582 0.0
H1411 H 0.9268 0.41374 0.63412 0.0
H1412 H 0.32513 0.17123 0.90177 0.0
H1413 H 0.32564 0.17008 0.00403 0.0
H1414 H 0.32292 0.20118 0.01664 0.0
H1415 H 0.32218 0.20239 0.91438 0.0
H1416 H 0.33766 0.17812 0.08567 0.0
H1417 H 0.29973 0.19138 0.10656 0.0
H1418 H 0.30487 0.18783 0.04005 0.0
H1419 H 0.30772 0.19947 0.06983 0.0
C1420 C 0.32471 0.17784 0.92623 0.0
C1421 C 0.32347 0.18689 0.90001 0.0
C1422 C 0.32502 0.17717 0.98465 0.0
C1423 C 0.32412 0.18552 0.0178 0.0
C1424 C 0.3234 0.19462 0.99175 0.0
H1425 H 0.31681 0.19185 0.37905 0.0
H1426 H 0.32025 0.19503 0.28003 0.0
C1427 C 0.32303 0.1953 0.93332 0.0
C1428 C 0.32349 0.18464 0.07954 0.0
H1429 H 0.30827 0.18833 0.19045 0.0
C1430 C 0.33125 0.18038 0.10867 0.0
C1431 C 0.3151 0.18756 0.10929 0.0
C1432 C 0.30634 0.19174 0.07991 0.0
C1433 C 0.33084 0.17897 0.16693 0.0
C1434 C 0.32241 0.18181 0.19644 0.0
C1435 C 0.31473 0.18621 0.16752 0.0
C1436 C 0.32119 0.17988 0.25698 0.0
C1437 C 0.33941 0.17448 0.19652 0.0
C1438 C 0.32053 0.17031 0.27653 0.0
C1439 C 0.31859 0.16847 0.33302 0.0
C1440 C 0.31736 0.17618 0.3709 0.0
C1441 C 0.31804 0.18576 0.35123 0.0
C1442 C 0.31993 0.1876 0.29464 0.0
H1443 H 0.34612 0.17493 0.17083 0.0
H1444 H 0.34072 0.17808 0.2375 0.0
H1445 H 0.33787 0.1667 0.20464 0.0
H1446 H 0.32127 0.16426 0.2478 0.0
H1447 H 0.31801 0.16102 0.34705 0.0
H1448 H 0.5767 0.56892 0.64379 0.0
H1449 H 0.57759 0.56901 0.74597 0.0
H1450 H 0.55208 0.58709 0.75345 0.0
H1451 H 0.551 0.58687 0.65086 0.0
H1452 H 0.5792 0.58373 0.82427 0.0
H1453 H 0.54443 0.56369 0.84864 0.0
H1454 H 0.55046 0.56491 0.78187 0.0
H1455 H 0.54366 0.57488 0.81032 0.0
C1456 C 0.57129 0.57297 0.66701 0.0
C1457 C 0.5637 0.57779 0.63913 0.0
C1458 C 0.57183 0.57303 0.72548 0.0
C1459 C 0.56481 0.57792 0.75733 0.0
C1460 C 0.55746 0.5831 0.72968 0.0
H1461 H 0.57167 0.58198 0.12422 0.0
H1462 H 0.56923 0.58651 0.02607 0.0
C1463 C 0.55688 0.58301 0.67105 0.0
C1464 C 0.56505 0.57719 0.81937 0.0
H1465 H 0.55278 0.56779 0.93133 0.0
C1466 C 0.57339 0.58033 0.84785 0.0
C1467 C 0.55749 0.57266 0.84983 0.0
C1468 C 0.54853 0.56876 0.82124 0.0
C1469 C 0.57448 0.57888 0.90582 0.0
C1470 C 0.56695 0.5743 0.93618 0.0
C1471 C 0.55851 0.57136 0.90793 0.0
C1472 C 0.56799 0.57173 0.99626 0.0
C1473 C 0.58386 0.58186 0.9336 0.0
C1474 C 0.56786 0.56195 0.01227 0.0
C1475 C 0.56907 0.55935 0.0684 0.0
C1476 C 0.57033 0.56649 0.10988 0.0
C1477 C 0.57041 0.57631 0.09382 0.0
C1478 C 0.56919 0.57891 0.03748 0.0
H1479 H 0.58965 0.58342 0.90246 0.0
H1480 H 0.58262 0.58852 0.95867 0.0
H1481 H 0.58647 0.57609 0.96245 0.0
H1482 H 0.56696 0.55629 0.98112 0.0
H1483 H 0.56899 0.55172 0.07936 0.0
H1484 H 0.19436 0.82139 0.84339 0.0
H1485 H 0.19012 0.81916 0.74449 0.0
H1486 H 0.15996 0.81617 0.78968 0.0
H1487 H 0.16415 0.81868 0.88866 0.0
H1488 H 0.18063 0.80334 0.69226 0.0
H1489 H 0.16003 0.83785 0.67032 0.0
H1490 H 0.16796 0.83548 0.729 0.0
H1491 H 0.15619 0.82992 0.72594 0.0
C1492 C 0.18684 0.82022 0.83218 0.0
C1493 C 0.17961 0.82 0.87366 0.0
C1494 C 0.18442 0.81893 0.77581 0.0
C1495 C 0.17473 0.81754 0.75982 0.0
C1496 C 0.16748 0.81729 0.80116 0.0
H1497 H 0.16058 0.80042 0.41379 0.0
H1498 H 0.16054 0.80117 0.51651 0.0
C1499 C 0.1699 0.81857 0.85769 0.0
C1500 C 0.1723 0.81648 0.69964 0.0
H1501 H 0.1611 0.82789 0.5902 0.0
C1502 C 0.17629 0.80865 0.66995 0.0
C1503 C 0.16669 0.82348 0.67077 0.0
C1504 C 0.16251 0.83221 0.70034 0.0
C1505 C 0.17498 0.80772 0.61181 0.0
C1506 C 0.16943 0.81474 0.58286 0.0
C1507 C 0.16528 0.82248 0.61272 0.0
C1508 C 0.16857 0.81464 0.52095 0.0
C1509 C 0.17991 0.79946 0.58149 0.0
C1510 C 0.17277 0.82214 0.48957 0.0
C1511 C 0.17278 0.82176 0.43107 0.0
C1512 C 0.16854 0.81388 0.40277 0.0
C1513 C 0.16396 0.80657 0.4343 0.0
C1514 C 0.16397 0.80696 0.49297 0.0
H1515 H 0.1854 0.79578 0.60819 0.0
H1516 H 0.17439 0.794 0.56912 0.0
H1517 H 0.18352 0.80209 0.54275 0.0
H1518 H 0.17633 0.82816 0.51043 0.0
H1519 H 0.17631 0.82755 0.4081 0.0
H1520 H 0.93195 0.59456 0.83741 0.0
H1521 H 0.93001 0.59432 0.73494 0.0
H1522 H 0.93111 0.56304 0.73692 0.0
H1523 H 0.93263 0.56323 0.83872 0.0
H1524 H 0.94077 0.58763 0.64972 0.0
H1525 H 0.90623 0.56737 0.65455 0.0
H1526 H 0.91162 0.5724 0.71702 0.0
H1527 H 0.91558 0.56081 0.6904 0.0
C1528 C 0.93177 0.58765 0.81582 0.0
C1529 C 0.9323 0.57891 0.84607 0.0
C1530 C 0.93067 0.58752 0.75737 0.0
C1531 C 0.93015 0.57865 0.7284 0.0
C1532 C 0.93114 0.56995 0.75847 0.0
H1533 H 0.93929 0.56634 0.37708 0.0
H1534 H 0.94107 0.57044 0.47651 0.0
C1535 C 0.93208 0.57008 0.81669 0.0
C1536 C 0.92854 0.57837 0.66684 0.0
H1537 H 0.91463 0.56753 0.5665 0.0
C1538 C 0.93498 0.58334 0.63142 0.0
C1539 C 0.92085 0.57296 0.64292 0.0
C1540 C 0.91312 0.56818 0.67828 0.0
C1541 C 0.93418 0.58272 0.57272 0.0
C1542 C 0.92693 0.5767 0.54891 0.0
C1543 C 0.92028 0.57204 0.58447 0.0
C1544 C 0.92612 0.57495 0.4875 0.0
C1545 C 0.94105 0.58861 0.53709 0.0
C1546 C 0.91709 0.57586 0.46066 0.0
C1547 C 0.91602 0.57325 0.40439 0.0
C1548 C 0.924 0.56986 0.37355 0.0
C1549 C 0.93308 0.56914 0.39979 0.0
C1550 C 0.93411 0.57154 0.4565 0.0
H1551 H 0.94359 0.59517 0.55982 0.0
H1552 H 0.94752 0.58415 0.52704 0.0
H1553 H 0.93759 0.59092 0.49723 0.0
H1554 H 0.9108 0.57842 0.48357 0.0
H1555 H 0.90894 0.57385 0.38497 0.0
H1556 H 0.17657 0.16991 0.60218 0.0
H1557 H 0.17664 0.16899 0.5 0.0
H1558 H 0.16041 0.19569 0.49096 0.0
H1559 H 0.16048 0.1968 0.59353 0.0
H1560 H 0.16216 0.16836 0.4203 0.0
H1561 H 0.18449 0.20173 0.39796 0.0
H1562 H 0.18266 0.19582 0.4646 0.0
H1563 H 0.17327 0.20329 0.43515 0.0
C1564 C 0.17295 0.17557 0.5786 0.0
C1565 C 0.16862 0.1835 0.60605 0.0
C1566 C 0.17298 0.17501 0.52013 0.0
C1567 C 0.16869 0.18236 0.48786 0.0
C1568 C 0.16395 0.19006 0.51507 0.0
H1569 H 0.16465 0.17586 0.12101 0.0
H1570 H 0.16023 0.17838 0.2192 0.0
C1571 C 0.16395 0.19065 0.57369 0.0
C1572 C 0.16956 0.18207 0.42588 0.0
H1573 H 0.1799 0.19378 0.31473 0.0
C1574 C 0.16596 0.17395 0.39705 0.0
C1575 C 0.17464 0.18933 0.39586 0.0
C1576 C 0.17907 0.198 0.42486 0.0
C1577 C 0.16745 0.1728 0.33914 0.0
C1578 C 0.17253 0.18006 0.30917 0.0
C1579 C 0.17595 0.18827 0.3378 0.0
C1580 C 0.17505 0.17894 0.24904 0.0
C1581 C 0.16395 0.16363 0.31107 0.0
C1582 C 0.18483 0.17867 0.23297 0.0
C1583 C 0.18738 0.17745 0.17675 0.0
C1584 C 0.18019 0.17655 0.13524 0.0
C1585 C 0.17038 0.17684 0.15139 0.0
C1586 C 0.16783 0.1781 0.20778 0.0
H1587 H 0.16213 0.15789 0.34205 0.0
H1588 H 0.15731 0.16525 0.28647 0.0
H1589 H 0.16952 0.16075 0.28181 0.0
H1590 H 0.19053 0.17929 0.26412 0.0
H1591 H 0.195 0.17723 0.16578 0.0
H1592 H 0.55577 0.42868 0.87899 0.0
H1593 H 0.55358 0.42529 0.97906 0.0
H1594 H 0.58449 0.42745 0.00425 0.0
H1595 H 0.5867 0.43098 0.9045 0.0
H1596 H 0.56064 0.41105 0.05019 0.0
H1597 H 0.57404 0.44738 0.11358 0.0
H1598 H 0.57118 0.4444 0.04178 0.0
H1599 H 0.58259 0.44074 0.07175 0.0
C1600 C 0.56211 0.42826 0.90568 0.0
C1601 C 0.57142 0.43004 0.88403 0.0
C1602 C 0.56084 0.42637 0.96287 0.0
C1603 C 0.56886 0.42628 0.9992 0.0
C1604 C 0.57819 0.42771 0.97718 0.0
H1605 H 0.5769 0.42023 0.35716 0.0
H1606 H 0.57885 0.4199 0.25523 0.0
C1607 C 0.57944 0.42968 0.92023 0.0
C1608 C 0.56745 0.425 0.06037 0.0
H1609 H 0.57157 0.43595 0.18661 0.0
C1610 C 0.56299 0.4165 0.08006 0.0
C1611 C 0.57047 0.43217 0.09918 0.0
C1612 C 0.57474 0.44173 0.08057 0.0
C1613 C 0.56166 0.41489 0.13776 0.0
C1614 C 0.56483 0.42198 0.17638 0.0
C1615 C 0.56924 0.43049 0.15671 0.0
C1616 C 0.56349 0.4209 0.23756 0.0
C1617 C 0.557 0.40558 0.1572 0.0
C1618 C 0.55419 0.42145 0.26118 0.0
C1619 C 0.55305 0.4217 0.31943 0.0
C1620 C 0.56119 0.42142 0.35495 0.0
C1621 C 0.57047 0.42047 0.33103 0.0
C1622 C 0.57161 0.42028 0.27283 0.0
H1623 H 0.55664 0.40008 0.12316 0.0
H1624 H 0.56106 0.40248 0.19323 0.0
H1625 H 0.54949 0.40712 0.1715 0.0
H1626 H 0.54786 0.42207 0.23455 0.0
H1627 H 0.5458 0.42243 0.3365 0.0
H1628 H 0.32066 0.82739 0.10033 0.0
H1629 H 0.32048 0.82802 0.99806 0.0
H1630 H 0.33702 0.80149 0.99094 0.0
H1631 H 0.33711 0.80069 0.09363 0.0
H1632 H 0.33528 0.82834 0.91748 0.0
H1633 H 0.31243 0.79519 0.90037 0.0
H1634 H 0.31426 0.80146 0.96596 0.0
H1635 H 0.32362 0.79379 0.93813 0.0
C1636 C 0.32432 0.82171 0.07715 0.0
C1637 C 0.3288 0.81392 0.10517 0.0
C1638 C 0.32423 0.8221 0.01866 0.0
C1639 C 0.32859 0.81472 0.98698 0.0
C1640 C 0.33345 0.80716 0.01468 0.0
H1641 H 0.33238 0.8191 0.61959 0.0
H1642 H 0.33673 0.81677 0.71815 0.0
C1643 C 0.33354 0.80675 0.07335 0.0
C1644 C 0.32761 0.8148 0.92509 0.0
H1645 H 0.3168 0.80291 0.81606 0.0
C1646 C 0.33133 0.82274 0.89512 0.0
C1647 C 0.32234 0.80753 0.8963 0.0
C1648 C 0.31785 0.79904 0.92669 0.0
C1649 C 0.32977 0.82369 0.83716 0.0
C1650 C 0.32447 0.81644 0.80846 0.0
C1651 C 0.32091 0.80842 0.83824 0.0
C1652 C 0.32194 0.81738 0.74834 0.0
C1653 C 0.33347 0.83263 0.80755 0.0
C1654 C 0.31218 0.81827 0.73257 0.0
C1655 C 0.30966 0.81945 0.67625 0.0
C1656 C 0.31686 0.81964 0.63452 0.0
C1657 C 0.32664 0.81868 0.65037 0.0
C1658 C 0.32915 0.8175 0.70683 0.0
H1659 H 0.33568 0.83839 0.83755 0.0
H1660 H 0.33988 0.83068 0.78179 0.0
H1661 H 0.32784 0.83562 0.77905 0.0
H1662 H 0.3065 0.8182 0.76401 0.0
H1663 H 0.30207 0.82021 0.66533 0.0
H1664 H 0.58748 0.0749 0.89733 0.0
H1665 H 0.58521 0.07845 0.99712 0.0
H1666 H 0.55542 0.06902 0.98571 0.0
H1667 H 0.55761 0.06575 0.88545 0.0
H1668 H 0.55714 0.08492 0.05186 0.0
H1669 H 0.58445 0.05733 0.11313 0.0
H1670 H 0.58931 0.06658 0.06828 0.0
H1671 H 0.58009 0.0585 0.04219 0.0
C1672 C 0.58044 0.07367 0.91616 0.0
C1673 C 0.57271 0.07009 0.88389 0.0
C1674 C 0.57916 0.07566 0.97311 0.0
C1675 C 0.5702 0.07382 0.9991 0.0
C1676 C 0.56239 0.07049 0.96651 0.0
H1677 H 0.56235 0.06217 0.34958 0.0
H1678 H 0.56333 0.06196 0.24756 0.0
C1679 C 0.56363 0.06865 0.90928 0.0
C1680 C 0.56909 0.07496 0.0606 0.0
H1681 H 0.57821 0.0672 0.18579 0.0
C1682 C 0.56173 0.08104 0.08126 0.0
C1683 C 0.575 0.06978 0.09882 0.0
C1684 C 0.58259 0.06261 0.07957 0.0
C1685 C 0.56012 0.08208 0.13917 0.0
C1686 C 0.5662 0.07709 0.17731 0.0
C1687 C 0.57359 0.07107 0.15653 0.0
C1688 C 0.56481 0.07753 0.23897 0.0
C1689 C 0.55174 0.08826 0.15878 0.0
C1690 C 0.56519 0.08638 0.26824 0.0
C1691 C 0.56448 0.08653 0.32686 0.0
C1692 C 0.56358 0.07782 0.35701 0.0
C1693 C 0.56311 0.069 0.32752 0.0
C1694 C 0.56366 0.06887 0.26918 0.0
H1695 H 0.5463 0.08937 0.12498 0.0
H1696 H 0.54806 0.08493 0.19546 0.0
H1697 H 0.55451 0.09549 0.17151 0.0
H1698 H 0.5663 0.09313 0.24597 0.0
H1699 H 0.56495 0.09341 0.3486 0.0
H1700 H 0.17853 0.30496 0.1162 0.0
H1701 H 0.17447 0.3022 0.2148 0.0
H1702 H 0.17758 0.3328 0.24799 0.0
H1703 H 0.18138 0.33565 0.14909 0.0
H1704 H 0.18653 0.30651 0.30541 0.0
H1705 H 0.15161 0.32627 0.32338 0.0
H1706 H 0.15673 0.32273 0.25666 0.0
H1707 H 0.1612 0.33329 0.29258 0.0
C1708 C 0.17806 0.31114 0.14405 0.0
C1709 C 0.18004 0.32056 0.12461 0.0
C1710 C 0.17583 0.30954 0.20051 0.0
C1711 C 0.17553 0.31732 0.23843 0.0
C1712 C 0.17754 0.32672 0.21915 0.0
H1713 H 0.17281 0.32616 0.59409 0.0
H1714 H 0.17269 0.32745 0.49184 0.0
C1715 C 0.17979 0.32833 0.16278 0.0
C1716 C 0.17384 0.31554 0.29891 0.0
H1717 H 0.15935 0.32184 0.40927 0.0
C1718 C 0.18052 0.30976 0.32807 0.0
C1719 C 0.16602 0.31983 0.32825 0.0
C1720 C 0.15842 0.32581 0.29859 0.0
C1721 C 0.1798 0.30841 0.38625 0.0
C1722 C 0.17206 0.31282 0.4158 0.0
C1723 C 0.16527 0.31846 0.38647 0.0
C1724 C 0.17119 0.31202 0.47757 0.0
C1725 C 0.18756 0.30261 0.41585 0.0
C1726 C 0.17008 0.30294 0.50342 0.0
C1727 C 0.1702 0.30216 0.56189 0.0
C1728 C 0.17136 0.31047 0.59551 0.0
C1729 C 0.17197 0.31961 0.56945 0.0
C1730 C 0.17188 0.32036 0.511 0.0
H1731 H 0.19413 0.30168 0.3894 0.0
H1732 H 0.18972 0.30616 0.45577 0.0
H1733 H 0.18469 0.2953 0.42587 0.0
H1734 H 0.16932 0.29643 0.47834 0.0
H1735 H 0.16962 0.29503 0.58063 0.0
H1736 H 0.93193 0.91395 0.36318 0.0
H1737 H 0.93379 0.9096 0.46236 0.0
H1738 H 0.92221 0.93743 0.51064 0.0
H1739 H 0.92062 0.94196 0.41182 0.0
H1740 H 0.94434 0.92167 0.55379 0.0
H1741 H 0.90497 0.91522 0.58746 0.0
H1742 H 0.91057 0.91458 0.519 0.0
H1743 H 0.90808 0.92615 0.55037 0.0
C1744 C 0.93006 0.91925 0.39488 0.0
C1745 C 0.92637 0.92841 0.37978 0.0
C1746 C 0.93101 0.9167 0.45144 0.0
C1747 C 0.92811 0.92319 0.4935 0.0
C1748 C 0.92444 0.93232 0.47858 0.0
H1749 H 0.92249 0.93082 0.84266 0.0
H1750 H 0.92178 0.93043 0.74066 0.0
C1751 C 0.92355 0.93489 0.42222 0.0
C1752 C 0.92879 0.9205 0.5533 0.0
H1753 H 0.91481 0.91644 0.66894 0.0
C1754 C 0.93793 0.92037 0.57906 0.0
C1755 C 0.92038 0.9188 0.58567 0.0
C1756 C 0.91043 0.91861 0.55934 0.0
C1757 C 0.93884 0.91912 0.63731 0.0
C1758 C 0.93038 0.91777 0.67011 0.0
C1759 C 0.92128 0.91748 0.64373 0.0
C1760 C 0.93069 0.91759 0.73222 0.0
C1761 C 0.94878 0.91979 0.66357 0.0
C1762 C 0.93583 0.91039 0.7615 0.0
C1763 C 0.93631 0.91062 0.82018 0.0
C1764 C 0.93159 0.91801 0.85039 0.0
C1765 C 0.92624 0.92504 0.82081 0.0
C1766 C 0.9258 0.92482 0.76241 0.0
H1767 H 0.95425 0.92278 0.634 0.0
H1768 H 0.9486 0.92443 0.70164 0.0
H1769 H 0.95119 0.91244 0.67633 0.0
H1770 H 0.93949 0.90463 0.73901 0.0
H1771 H 0.94043 0.90507 0.84175 0.0
H1772 H 0.30278 0.67715 0.65651 0.0
H1773 H 0.30694 0.67987 0.75513 0.0
H1774 H 0.33736 0.67977 0.71263 0.0
H1775 H 0.33321 0.6768 0.61394 0.0
H1776 H 0.3328 0.66805 0.80418 0.0
H1777 H 0.31696 0.70471 0.83001 0.0
H1778 H 0.3086 0.69614 0.80039 0.0
H1779 H 0.31934 0.69943 0.76203 0.0
C1780 C 0.31035 0.67782 0.6682 0.0
C1781 C 0.31767 0.67705 0.62753 0.0
C1782 C 0.31272 0.67943 0.72439 0.0
C1783 C 0.32245 0.68025 0.74097 0.0
C1784 C 0.3298 0.67933 0.70052 0.0
H1785 H 0.33572 0.69709 0.08759 0.0
H1786 H 0.33622 0.69617 0.98498 0.0
C1787 C 0.32742 0.67774 0.64417 0.0
C1788 C 0.3249 0.68152 0.80105 0.0
H1789 H 0.32036 0.69592 0.91453 0.0
C1790 C 0.3302 0.6742 0.82822 0.0
C1791 C 0.32163 0.68963 0.83213 0.0
C1792 C 0.3164 0.69798 0.80457 0.0
C1793 C 0.3319 0.67454 0.88626 0.0
C1794 C 0.32807 0.68234 0.91793 0.0
C1795 C 0.3232 0.6899 0.89028 0.0
C1796 C 0.32851 0.68252 0.98007 0.0
C1797 C 0.33769 0.66651 0.9132 0.0
C1798 C 0.32403 0.67515 0.01127 0.0
C1799 C 0.32373 0.67565 0.06974 0.0
C1800 C 0.32785 0.68358 0.09825 0.0
C1801 C 0.3325 0.69088 0.06696 0.0
C1802 C 0.33278 0.69037 0.00834 0.0
H1803 H 0.34256 0.66292 0.88238 0.0
H1804 H 0.34214 0.66929 0.94856 0.0
H1805 H 0.33264 0.66094 0.9298 0.0
H1806 H 0.3205 0.66914 0.99031 0.0
H1807 H 0.32007 0.66991 0.09249 0.0
H1808 H 0.58581 0.93094 0.10475 0.0
H1809 H 0.58271 0.92774 0.00518 0.0
H1810 H 0.55194 0.92725 0.03753 0.0
H1811 H 0.55497 0.9306 0.13687 0.0
H1812 H 0.57118 0.91146 0.95387 0.0
H1813 H 0.55672 0.94854 0.91334 0.0
H1814 H 0.56415 0.94576 0.97367 0.0
H1815 H 0.55168 0.94204 0.97195 0.0
C1816 C 0.57839 0.9301 0.09064 0.0
C1817 C 0.57064 0.93088 0.12867 0.0
C1818 C 0.57664 0.92823 0.03393 0.0
C1819 C 0.5671 0.92727 0.01423 0.0
C1820 C 0.55935 0.92797 0.0521 0.0
H1821 H 0.5449 0.92587 0.67304 0.0
H1822 H 0.54626 0.92526 0.7752 0.0
C1823 C 0.5611 0.92978 0.1089 0.0
C1824 C 0.56528 0.92592 0.95365 0.0
H1825 H 0.55681 0.93762 0.83756 0.0
C1826 C 0.56801 0.91715 0.9283 0.0
C1827 C 0.56112 0.93336 0.92077 0.0
C1828 C 0.55829 0.943 0.94596 0.0
C1829 C 0.56664 0.9156 0.87059 0.0
C1830 C 0.56267 0.92313 0.83739 0.0
C1831 C 0.55983 0.93185 0.86308 0.0
C1832 C 0.56168 0.92233 0.77561 0.0
C1833 C 0.56936 0.90589 0.84595 0.0
C1834 C 0.56988 0.92076 0.74186 0.0
C1835 C 0.56912 0.92104 0.68342 0.0
C1836 C 0.56016 0.92303 0.65767 0.0
C1837 C 0.55191 0.92434 0.69154 0.0
C1838 C 0.55267 0.924 0.74995 0.0
H1839 H 0.56933 0.9001 0.87837 0.0
H1840 H 0.56433 0.90378 0.81169 0.0
H1841 H 0.5768 0.90633 0.8284 0.0
H1842 H 0.57695 0.91969 0.76068 0.0
H1843 H 0.57562 0.92005 0.65854 0.0
H1844 H 0.33345 0.3199 0.37782 0.0
H1845 H 0.33745 0.31704 0.27887 0.0
H1846 H 0.30713 0.31922 0.23582 0.0
H1847 H 0.30308 0.32176 0.33476 0.0
H1848 H 0.31673 0.3034 0.18505 0.0
H1849 H 0.33675 0.3381 0.15641 0.0
H1850 H 0.3409 0.33047 0.21265 0.0
H1851 H 0.32905 0.33584 0.21625 0.0
C1852 C 0.32763 0.31954 0.34733 0.0
C1853 C 0.31793 0.32081 0.36391 0.0
C1854 C 0.32994 0.31806 0.29081 0.0
C1855 C 0.32259 0.31797 0.25006 0.0
C1856 C 0.3129 0.31923 0.26667 0.0
H1857 H 0.32028 0.32677 0.89765 0.0
H1858 H 0.3204 0.32762 0.99985 0.0
C1859 C 0.3106 0.32071 0.32305 0.0
C1860 C 0.32489 0.31668 0.18986 0.0
H1861 H 0.33568 0.32775 0.07795 0.0
C1862 C 0.32094 0.30867 0.16163 0.0
C1863 C 0.33034 0.32362 0.15955 0.0
C1864 C 0.33446 0.33254 0.18746 0.0
C1865 C 0.32212 0.3075 0.10354 0.0
C1866 C 0.32751 0.31447 0.07313 0.0
C1867 C 0.33163 0.32238 0.10156 0.0
C1868 C 0.3282 0.31415 0.01117 0.0
C1869 C 0.31722 0.29906 0.07483 0.0
C1870 C 0.33275 0.30638 0.9836 0.0
C1871 C 0.33268 0.30585 0.92496 0.0
C1872 C 0.32806 0.31308 0.89305 0.0
C1873 C 0.32384 0.32103 0.9209 0.0
C1874 C 0.32392 0.32155 0.97935 0.0
H1875 H 0.31183 0.29545 0.10245 0.0
H1876 H 0.3135 0.30147 0.03594 0.0
H1877 H 0.32278 0.2936 0.06294 0.0
H1878 H 0.33624 0.30068 0.00745 0.0
H1879 H 0.33605 0.29967 0.90478 0.0
H1880 H 0.92674 0.05209 0.59278 0.0
H1881 H 0.92919 0.05646 0.49445 0.0
H1882 H 0.92862 0.08679 0.53856 0.0
H1883 H 0.9258 0.08248 0.63671 0.0
H1884 H 0.91725 0.08253 0.44651 0.0
H1885 H 0.9539 0.06667 0.42095 0.0
H1886 H 0.94529 0.05817 0.44869 0.0
H1887 H 0.94849 0.06875 0.48889 0.0
C1888 C 0.92719 0.0597 0.58162 0.0
C1889 C 0.92634 0.06693 0.62288 0.0
C1890 C 0.92868 0.06218 0.52548 0.0
C1891 C 0.92933 0.07195 0.50939 0.0
C1892 C 0.9283 0.0792 0.55026 0.0
H1893 H 0.94725 0.0859 0.16587 0.0
H1894 H 0.94599 0.08612 0.26835 0.0
C1895 C 0.92682 0.07672 0.60654 0.0
C1896 C 0.93067 0.07453 0.44949 0.0
H1897 H 0.94525 0.07032 0.33635 0.0
C1898 C 0.92343 0.07996 0.42252 0.0
C1899 C 0.93881 0.07133 0.41847 0.0
C1900 C 0.94712 0.06599 0.44583 0.0
C1901 C 0.9239 0.0819 0.36473 0.0
C1902 C 0.93173 0.07815 0.33303 0.0
C1903 C 0.93919 0.07311 0.36054 0.0
C1904 C 0.93208 0.07887 0.27095 0.0
C1905 C 0.91598 0.0879 0.33819 0.0
C1906 C 0.92466 0.07476 0.23839 0.0
C1907 C 0.92534 0.07465 0.17995 0.0
C1908 C 0.93351 0.07855 0.15279 0.0
C1909 C 0.94085 0.08284 0.18542 0.0
C1910 C 0.94015 0.08297 0.24399 0.0
H1911 H 0.91246 0.09274 0.36943 0.0
H1912 H 0.91884 0.0924 0.30329 0.0
H1913 H 0.91032 0.08299 0.32111 0.0
H1914 H 0.91846 0.07136 0.25824 0.0
H1915 H 0.91956 0.07126 0.15617 0.0
H1916 H 0.17499 0.66895 0.4084 0.0
H1917 H 0.17492 0.66819 0.51065 0.0
H1918 H 0.16064 0.69601 0.5179 0.0
H1919 H 0.16079 0.6969 0.41531 0.0
H1920 H 0.17694 0.69501 0.58472 0.0
H1921 H 0.15325 0.66328 0.6235 0.0
H1922 H 0.16275 0.66075 0.57419 0.0
H1923 H 0.15357 0.66953 0.55693 0.0
C1924 C 0.17171 0.67486 0.43161 0.0
C1925 C 0.16792 0.68301 0.40366 0.0
C1926 C 0.17161 0.67437 0.49012 0.0
C1927 C 0.16767 0.68198 0.52186 0.0
C1928 C 0.16367 0.69003 0.49413 0.0
H1929 H 0.16421 0.67791 0.88844 0.0
H1930 H 0.15996 0.68051 0.78991 0.0
C1931 C 0.16375 0.69052 0.43551 0.0
C1932 C 0.16848 0.68187 0.58385 0.0
H1933 H 0.16359 0.66814 0.69961 0.0
C1934 C 0.17391 0.68921 0.60996 0.0
C1935 C 0.16443 0.67436 0.61679 0.0
C1936 C 0.15809 0.66659 0.59152 0.0
C1937 C 0.17576 0.689 0.66783 0.0
C1938 C 0.1722 0.68117 0.70019 0.0
C1939 C 0.1664 0.67407 0.67456 0.0
C1940 C 0.17478 0.68001 0.76015 0.0
C1941 C 0.18157 0.69713 0.69373 0.0
C1942 C 0.1845 0.67876 0.77595 0.0
C1943 C 0.18696 0.67739 0.83221 0.0
C1944 C 0.17974 0.67726 0.8738 0.0
C1945 C 0.16998 0.67836 0.8578 0.0
C1946 C 0.16752 0.67972 0.8014 0.0
H1947 H 0.1813 0.7038 0.66757 0.0
H1948 H 0.17887 0.6989 0.73642 0.0
H1949 H 0.18927 0.69486 0.69723 0.0
H1950 H 0.19019 0.67872 0.74461 0.0
H1951 H 0.19452 0.67644 0.84321 0.0
H1952 H 0.40956 0.92197 0.10426 0.0
H1953 H 0.41153 0.91739 0.00574 0.0
H1954 H 0.44117 0.92755 0.0102 0.0
H1955 H 0.43933 0.93154 0.10975 0.0
H1956 H 0.41413 0.92837 0.92309 0.0
H1957 H 0.44543 0.90343 0.9249 0.0
H1958 H 0.43939 0.90712 0.98855 0.0
H1959 H 0.44862 0.91469 0.95747 0.0
C1960 C 0.41655 0.92301 0.08429 0.0
C1961 C 0.42433 0.92701 0.1143 0.0
C1962 C 0.41768 0.92041 0.02807 0.0
C1963 C 0.42655 0.92197 0.00042 0.0
C1964 C 0.43435 0.92594 0.03077 0.0
H1965 H 0.43078 0.93511 0.64997 0.0
H1966 H 0.42932 0.93486 0.75181 0.0
C1967 C 0.43329 0.9283 0.08751 0.0
C1968 C 0.42729 0.92036 0.93885 0.0
H1969 H 0.44182 0.91104 0.8359 0.0
C1970 C 0.42012 0.92444 0.90427 0.0
C1971 C 0.435 0.91509 0.91386 0.0
C1972 C 0.44247 0.90975 0.94827 0.0
C1973 C 0.42059 0.9237 0.84573 0.0
C1974 C 0.42871 0.91914 0.82065 0.0
C1975 C 0.4357 0.91471 0.85506 0.0
C1976 C 0.4302 0.91922 0.75896 0.0
C1977 C 0.41231 0.92776 0.81155 0.0
C1978 C 0.43174 0.91055 0.72917 0.0
C1979 C 0.43283 0.9107 0.67074 0.0
C1980 C 0.43231 0.91952 0.64131 0.0
C1981 C 0.43103 0.92819 0.67142 0.0
C1982 C 0.43013 0.92805 0.72965 0.0
H1983 H 0.40543 0.92773 0.83586 0.0
H1984 H 0.41392 0.93541 0.80042 0.0
H1985 H 0.41118 0.92358 0.77231 0.0
H1986 H 0.43191 0.90366 0.75098 0.0
H1987 H 0.43384 0.90392 0.64854 0.0
H1988 H 0.80229 0.67684 0.84162 0.0
H1989 H 0.80681 0.67864 0.74287 0.0
H1990 H 0.83698 0.68035 0.78963 0.0
H1991 H 0.83253 0.6783 0.88847 0.0
H1992 H 0.81728 0.69401 0.69052 0.0
H1993 H 0.83592 0.65834 0.67142 0.0
H1994 H 0.82793 0.6612 0.72915 0.0
H1995 H 0.83999 0.66612 0.72724 0.0
C1996 C 0.80989 0.67763 0.83084 0.0
C1997 C 0.81704 0.67761 0.87278 0.0
C1998 C 0.81245 0.67868 0.77452 0.0
C1999 C 0.82222 0.67959 0.75902 0.0
C2000 C 0.8294 0.67961 0.80077 0.0
H2001 H 0.83783 0.69545 0.41328 0.0
H2002 H 0.83772 0.69477 0.51599 0.0
C2003 C 0.82684 0.67858 0.85725 0.0
C2004 C 0.82481 0.68041 0.69894 0.0
H2005 H 0.83548 0.66819 0.59068 0.0
C2006 C 0.82134 0.68842 0.66868 0.0
C2007 C 0.83003 0.67305 0.67072 0.0
C2008 C 0.83364 0.66414 0.70099 0.0
C2009 C 0.82279 0.68919 0.61059 0.0
C2010 C 0.82797 0.6818 0.58226 0.0
C2011 C 0.83159 0.67387 0.6127 0.0
C2012 C 0.82895 0.68178 0.5204 0.0
C2013 C 0.81843 0.69769 0.57966 0.0
C2014 C 0.82439 0.67448 0.48899 0.0
C2015 C 0.82448 0.67482 0.43047 0.0
C2016 C 0.82916 0.68245 0.40219 0.0
C2017 C 0.83411 0.68951 0.43377 0.0
C2018 C 0.83401 0.68917 0.49243 0.0
H2019 H 0.81309 0.7017 0.60581 0.0
H2020 H 0.82428 0.70281 0.5676 0.0
H2021 H 0.81475 0.69523 0.54069 0.0
H2022 H 0.82048 0.66869 0.50982 0.0
H2023 H 0.82065 0.66922 0.40748 0.0
H2024 H 0.05517 0.06817 0.62649 0.0
H2025 H 0.05291 0.07154 0.52648 0.0
H2026 H 0.08383 0.06966 0.50083 0.0
H2027 H 0.08613 0.06624 0.60064 0.0
H2028 H 0.06015 0.08609 0.45572 0.0
H2029 H 0.07314 0.04964 0.39138 0.0
H2030 H 0.0702 0.05257 0.46316 0.0
H2031 H 0.08167 0.05617 0.43386 0.0
C2032 C 0.0615 0.06866 0.59976 0.0
C2033 C 0.07084 0.06703 0.62138 0.0
C2034 C 0.06019 0.07053 0.54259 0.0
C2035 C 0.06819 0.07072 0.5062 0.0
C2036 C 0.07754 0.06936 0.52803 0.0
H2037 H 0.07625 0.0767 0.14857 0.0
H2038 H 0.0782 0.0769 0.25047 0.0
C2039 C 0.07885 0.06744 0.58501 0.0
C2040 C 0.06675 0.07204 0.44512 0.0
H2041 H 0.07065 0.06111 0.31865 0.0
C2042 C 0.06241 0.08062 0.42569 0.0
C2043 C 0.06965 0.06486 0.40615 0.0
C2044 C 0.07384 0.05525 0.4246 0.0
C2045 C 0.06108 0.0823 0.36805 0.0
C2046 C 0.06413 0.07517 0.32924 0.0
C2047 C 0.06841 0.06658 0.34868 0.0
C2048 C 0.06282 0.07633 0.26808 0.0
C2049 C 0.05659 0.0917 0.34888 0.0
C2050 C 0.05351 0.07607 0.24442 0.0
C2051 C 0.05235 0.07589 0.18616 0.0
C2052 C 0.06051 0.07596 0.15069 0.0
C2053 C 0.06981 0.07662 0.17466 0.0
C2054 C 0.07095 0.07674 0.23286 0.0
H2055 H 0.0564 0.0972 0.38299 0.0
H2056 H 0.06066 0.09473 0.3127 0.0
H2057 H 0.04903 0.09033 0.33493 0.0
H2058 H 0.04715 0.07561 0.27102 0.0
H2059 H 0.04509 0.07539 0.16903 0.0
H2060 H 0.6531 0.31362 0.91155 0.0
H2061 H 0.65292 0.3153 0.01414 0.0
H2062 H 0.68417 0.31697 0.01498 0.0
H2063 H 0.68439 0.31567 0.9131 0.0
H2064 H 0.66044 0.30478 0.09863 0.0
H2065 H 0.67731 0.34111 0.09958 0.0
H2066 H 0.67292 0.33551 0.03612 0.0
H2067 H 0.68478 0.33256 0.06297 0.0
C2068 C 0.65992 0.31436 0.93376 0.0
C2069 C 0.66875 0.31465 0.90431 0.0
C2070 C 0.65981 0.31531 0.99227 0.0
C2071 C 0.66852 0.31652 0.02208 0.0
C2072 C 0.67734 0.31639 0.99277 0.0
H2073 H 0.68147 0.30718 0.37178 0.0
H2074 H 0.67744 0.30539 0.27222 0.0
C2075 C 0.67745 0.31559 0.9345 0.0
C2076 C 0.6685 0.31792 0.08377 0.0
H2077 H 0.67781 0.33237 0.18652 0.0
C2078 C 0.66412 0.31088 0.11797 0.0
C2079 C 0.67311 0.32599 0.109 0.0
C2080 C 0.67719 0.33427 0.07494 0.0
C2081 C 0.66459 0.31148 0.17678 0.0
C2082 C 0.66985 0.31917 0.20188 0.0
C2083 C 0.67389 0.3264 0.16753 0.0
C2084 C 0.67148 0.31986 0.26339 0.0
C2085 C 0.65936 0.30393 0.21115 0.0
C2086 C 0.6697 0.32865 0.29148 0.0
C2087 C 0.67227 0.32976 0.34775 0.0
C2088 C 0.67649 0.32204 0.37732 0.0
C2089 C 0.67805 0.31316 0.34996 0.0
C2090 C 0.67567 0.31212 0.29322 0.0
H2091 H 0.65309 0.30086 0.18779 0.0
H2092 H 0.66441 0.29786 0.22042 0.0
H2093 H 0.65669 0.30697 0.25143 0.0
H2094 H 0.6665 0.33474 0.26948 0.0
H2095 H 0.67101 0.33667 0.36811 0.0
H2096 H 0.42318 0.08124 0.3498 0.0
H2097 H 0.4213 0.08172 0.24758 0.0
H2098 H 0.44661 0.06363 0.22879 0.0
H2099 H 0.44856 0.06307 0.33061 0.0
H2100 H 0.43518 0.08703 0.15615 0.0
H2101 H 0.42329 0.04846 0.15575 0.0
H2102 H 0.42339 0.05579 0.21854 0.0
H2103 H 0.43452 0.0509 0.19145 0.0
C2104 C 0.42842 0.07747 0.3239 0.0
C2105 C 0.43595 0.07202 0.34833 0.0
C2106 C 0.42734 0.07777 0.26558 0.0
C2107 C 0.43375 0.07261 0.23096 0.0
C2108 C 0.44154 0.06757 0.25502 0.0
H2109 H 0.44018 0.06994 0.87 0.0
H2110 H 0.44229 0.07326 0.96995 0.0
C2111 C 0.44264 0.06727 0.3132 0.0
C2112 C 0.43195 0.07194 0.16998 0.0
H2113 H 0.42559 0.05589 0.06744 0.0
C2114 C 0.43306 0.08024 0.13659 0.0
C2115 C 0.42907 0.0631 0.14501 0.0
C2116 C 0.42741 0.05405 0.17942 0.0
C2117 C 0.43155 0.07987 0.07832 0.0
C2118 C 0.42892 0.07095 0.0532 0.0
C2119 C 0.42765 0.06271 0.08686 0.0
C2120 C 0.42743 0.06994 0.99201 0.0
C2121 C 0.43266 0.08901 0.04418 0.0
C2122 C 0.4184 0.06691 0.97139 0.0
C2123 C 0.41716 0.06506 0.91427 0.0
C2124 C 0.42492 0.06622 0.87667 0.0
C2125 C 0.43395 0.06933 0.89738 0.0
C2126 C 0.43519 0.07118 0.95461 0.0
H2127 H 0.43244 0.09561 0.07095 0.0
H2128 H 0.43975 0.08886 0.02218 0.0
H2129 H 0.42686 0.08955 0.01199 0.0
H2130 H 0.41234 0.06583 0.9997 0.0
H2131 H 0.41013 0.06263 0.89959 0.0
H2132 H 0.66118 0.69705 0.09513 0.0
H2133 H 0.66088 0.69592 0.9926 0.0
H2134 H 0.67557 0.66833 0.00117 0.0
H2135 H 0.67576 0.66931 0.1033 0.0
H2136 H 0.67681 0.6951 0.92435 0.0
H2137 H 0.65392 0.66266 0.89039 0.0
H2138 H 0.65431 0.66902 0.95659 0.0
H2139 H 0.66363 0.6604 0.93878 0.0
C2140 C 0.6642 0.69067 0.07523 0.0
C2141 C 0.66851 0.68328 0.10743 0.0
C2142 C 0.66404 0.69004 0.01665 0.0
C2143 C 0.66809 0.68198 0.98928 0.0
C2144 C 0.6722 0.67451 0.02139 0.0
H2145 H 0.6947 0.67644 0.66746 0.0
H2146 H 0.69037 0.67891 0.76585 0.0
C2147 C 0.67237 0.67512 0.07985 0.0
C2148 C 0.66877 0.68171 0.92722 0.0
H2149 H 0.66412 0.66743 0.81329 0.0
C2150 C 0.67392 0.68912 0.89995 0.0
C2151 C 0.66489 0.67397 0.8953 0.0
C2152 C 0.65879 0.66611 0.92169 0.0
C2153 C 0.67567 0.68877 0.84201 0.0
C2154 C 0.67234 0.68071 0.81074 0.0
C2155 C 0.66679 0.67354 0.83749 0.0
C2156 C 0.67489 0.67939 0.75083 0.0
C2157 C 0.68115 0.69701 0.81489 0.0
C2158 C 0.66762 0.67855 0.70993 0.0
C2159 C 0.67008 0.67706 0.65363 0.0
C2160 C 0.67986 0.67639 0.63733 0.0
C2161 C 0.68711 0.67705 0.67862 0.0
C2162 C 0.68465 0.67854 0.73478 0.0
H2163 H 0.6806 0.70377 0.84004 0.0
H2164 H 0.68894 0.69504 0.81185 0.0
H2165 H 0.67841 0.69847 0.77192 0.0
H2166 H 0.66004 0.67902 0.72162 0.0
H2167 H 0.6643 0.67619 0.62338 0.0
H2168 H 0.06807 0.94467 0.4129 0.0
H2169 H 0.06642 0.94001 0.51128 0.0
H2170 H 0.06819 0.90982 0.46491 0.0
H2171 H 0.0702 0.91444 0.36652 0.0
H2172 H 0.0524 0.92836 0.56334 0.0
H2173 H 0.08951 0.91289 0.58423 0.0
H2174 H 0.08597 0.92035 0.52546 0.0
H2175 H 0.08215 0.90791 0.52904 0.0
C2176 C 0.06809 0.93703 0.42358 0.0
C2177 C 0.06911 0.92993 0.38172 0.0
C2178 C 0.06711 0.93438 0.47977 0.0
C2179 C 0.06724 0.92458 0.49537 0.0
C2180 C 0.06814 0.91743 0.45374 0.0
H2181 H 0.05257 0.90891 0.84308 0.0
H2182 H 0.05317 0.90869 0.74039 0.0
C2183 C 0.06913 0.92009 0.39734 0.0
C2184 C 0.06657 0.92196 0.55551 0.0
H2185 H 0.0796 0.91261 0.66469 0.0
C2186 C 0.05829 0.92483 0.58549 0.0
C2187 C 0.07433 0.91743 0.58419 0.0
C2188 C 0.08354 0.91452 0.55437 0.0
C2189 C 0.05765 0.9235 0.64373 0.0
C2190 C 0.06543 0.91902 0.67251 0.0
C2191 C 0.07362 0.91596 0.64234 0.0
C2192 C 0.06556 0.91827 0.73449 0.0
C2193 C 0.04883 0.92729 0.67427 0.0
C2194 C 0.07257 0.9234 0.76512 0.0
C2195 C 0.0723 0.92349 0.82366 0.0
C2196 C 0.06501 0.91843 0.85273 0.0
C2197 C 0.05824 0.91294 0.82197 0.0
C2198 C 0.05854 0.91285 0.7633 0.0
H2199 H 0.04445 0.93225 0.64768 0.0
H2200 H 0.04416 0.9211 0.68669 0.0
H2201 H 0.05099 0.93122 0.71297 0.0
H2202 H 0.07808 0.9276 0.74366 0.0
H2203 H 0.07766 0.92774 0.84601 0.0
H2204 H 0.82504 0.327 0.59438 0.0
H2205 H 0.82522 0.3283 0.49211 0.0
H2206 H 0.82743 0.29718 0.47846 0.0
H2207 H 0.82703 0.29578 0.5807 0.0
H2208 H 0.83818 0.32245 0.40971 0.0
H2209 H 0.80298 0.30313 0.38898 0.0
H2210 H 0.80752 0.30737 0.45558 0.0
H2211 H 0.8122 0.29639 0.42513 0.0
C2212 C 0.82564 0.32043 0.56968 0.0
C2213 C 0.82588 0.31127 0.59567 0.0
C2214 C 0.82575 0.32119 0.51123 0.0
C2215 C 0.82613 0.31283 0.47774 0.0
C2216 C 0.8269 0.30371 0.50355 0.0
H2217 H 0.81987 0.30571 0.11564 0.0
H2218 H 0.82387 0.30303 0.21452 0.0
C2219 C 0.82672 0.30293 0.562 0.0
C2220 C 0.82531 0.31366 0.41593 0.0
H2221 H 0.81088 0.30754 0.30498 0.0
C2222 C 0.83223 0.31917 0.38675 0.0
C2223 C 0.81751 0.3094 0.38614 0.0
C2224 C 0.80957 0.30381 0.41549 0.0
C2225 C 0.83157 0.32052 0.32848 0.0
C2226 C 0.82373 0.31632 0.29892 0.0
C2227 C 0.81691 0.31069 0.32788 0.0
C2228 C 0.82217 0.31808 0.23837 0.0
C2229 C 0.83925 0.3264 0.29891 0.0
C2230 C 0.81985 0.32742 0.21922 0.0
C2231 C 0.81759 0.32897 0.16283 0.0
C2232 C 0.81767 0.32122 0.12453 0.0
C2233 C 0.82005 0.31188 0.14373 0.0
C2234 C 0.82225 0.31032 0.20028 0.0
H2235 H 0.84594 0.32708 0.32459 0.0
H2236 H 0.84115 0.32308 0.2579 0.0
H2237 H 0.83641 0.3338 0.29082 0.0
H2238 H 0.81955 0.33346 0.24822 0.0
H2239 H 0.8157 0.33623 0.14922 0.0
H2240 H 0.14196 0.65954 0.18966 0.0
H2241 H 0.12965 0.64677 0.18132 0.0
H2242 H 0.15041 0.62843 0.0969 0.0
H2243 H 0.16282 0.64105 0.10721 0.0
H2244 H 0.12221 0.63843 0.08648 0.0
H2245 H 0.14022 0.61061 0.21873 0.0
H2246 H 0.14406 0.62313 0.21771 0.0
H2247 H 0.14769 0.615 0.16251 0.0
C2248 C 0.14388 0.65273 0.1699 0.0
C2249 C 0.15329 0.65122 0.14915 0.0
C2250 C 0.13687 0.64548 0.16492 0.0
C2251 C 0.13916 0.63661 0.1392 0.0
C2252 C 0.14855 0.63514 0.11791 0.0
H2253 H 0.10408 0.58706 0.04148 0.0
H2254 H 0.11671 0.5996 0.04923 0.0
C2255 C 0.15558 0.64237 0.12323 0.0
C2256 C 0.13166 0.629 0.1335 0.0
H2257 H 0.12637 0.60549 0.16701 0.0
C2258 C 0.1231 0.63125 0.10428 0.0
C2259 C 0.13285 0.61963 0.15692 0.0
C2260 C 0.14165 0.61695 0.19119 0.0
C2261 C 0.11574 0.62433 0.09734 0.0
C2262 C 0.11699 0.61498 0.12021 0.0
C2263 C 0.12552 0.61269 0.14932 0.0
C2264 C 0.1094 0.60751 0.11521 0.0
C2265 C 0.10668 0.62699 0.06534 0.0
C2266 C 0.10121 0.60787 0.15001 0.0
C2267 C 0.09405 0.60074 0.14578 0.0
C2268 C 0.095 0.59321 0.10653 0.0
C2269 C 0.1032 0.59287 0.0717 0.0
C2270 C 0.11039 0.59997 0.0762 0.0
H2271 H 0.10727 0.63422 0.04505 0.0
H2272 H 0.10517 0.62146 0.03263 0.0
H2273 H 0.10041 0.6271 0.09451 0.0
H2274 H 0.10038 0.61364 0.18048 0.0
H2275 H 0.08776 0.60113 0.17289 0.0
H2276 H 0.58569 0.8915 0.43655 0.0
H2277 H 0.5981 0.87882 0.42625 0.0
H2278 H 0.61813 0.90002 0.3607 0.0
H2279 H 0.60577 0.91271 0.37152 0.0
H2280 H 0.60793 0.8736 0.32255 0.0
H2281 H 0.6331 0.88611 0.49003 0.0
H2282 H 0.62056 0.88988 0.4868 0.0
H2283 H 0.62934 0.89521 0.44054 0.0
C2284 C 0.59278 0.89343 0.42045 0.0
C2285 C 0.59484 0.90302 0.40487 0.0
C2286 C 0.59982 0.88621 0.41439 0.0
C2287 C 0.60903 0.88853 0.3932 0.0
C2288 C 0.6111 0.89813 0.37778 0.0
H2289 H 0.65561 0.85202 0.2703 0.0
H2290 H 0.64298 0.86444 0.28202 0.0
C2291 C 0.60405 0.90534 0.38364 0.0
C2292 C 0.61639 0.88086 0.38586 0.0
H2293 H 0.6386 0.87329 0.43174 0.0
C2294 C 0.61463 0.87351 0.34643 0.0
C2295 C 0.62508 0.88078 0.41741 0.0
C2296 C 0.62715 0.88836 0.46144 0.0
C2297 C 0.62144 0.86612 0.33711 0.0
C2298 C 0.63017 0.86613 0.36804 0.0
C2299 C 0.63189 0.87339 0.40795 0.0
C2300 C 0.63757 0.85854 0.36003 0.0
C2301 C 0.61928 0.8583 0.29467 0.0
C2302 C 0.63862 0.85117 0.40004 0.0
C2303 C 0.64571 0.84404 0.3931 0.0
C2304 C 0.65192 0.84427 0.34641 0.0
C2305 C 0.65084 0.85165 0.30633 0.0
C2306 C 0.64368 0.85874 0.31306 0.0
H2307 H 0.61174 0.85876 0.27842 0.0
H2308 H 0.62437 0.85897 0.25881 0.0
H2309 H 0.6204 0.85103 0.3137 0.0
H2310 H 0.63393 0.85092 0.43647 0.0
H2311 H 0.64634 0.83835 0.42418 0.0
H2312 H 0.35439 0.33773 0.69545 0.0
H2313 H 0.36667 0.35059 0.69127 0.0
H2314 H 0.34698 0.36843 0.59548 0.0
H2315 H 0.33458 0.35576 0.60165 0.0
H2316 H 0.37529 0.35852 0.59917 0.0
H2317 H 0.35551 0.38693 0.7179 0.0
H2318 H 0.35172 0.37439 0.71732 0.0
H2319 H 0.34876 0.38224 0.65951 0.0
C2320 C 0.35267 0.34447 0.67422 0.0
C2321 C 0.34356 0.34582 0.64908 0.0
C2322 C 0.35968 0.35176 0.67159 0.0
C2323 C 0.35768 0.36052 0.64382 0.0
C2324 C 0.3486 0.36183 0.61819 0.0
H2325 H 0.39236 0.41033 0.54963 0.0
H2326 H 0.3799 0.39765 0.55767 0.0
C2327 C 0.34157 0.35455 0.62116 0.0
C2328 C 0.3652 0.36815 0.64006 0.0
H2329 H 0.36978 0.39196 0.66951 0.0
C2330 C 0.37411 0.36581 0.61488 0.0
C2331 C 0.36364 0.37765 0.66071 0.0
C2332 C 0.35443 0.38045 0.69087 0.0
C2333 C 0.38144 0.37279 0.60892 0.0
C2334 C 0.37981 0.38229 0.62877 0.0
C2335 C 0.37094 0.38465 0.6541 0.0
C2336 C 0.38729 0.38989 0.62397 0.0
C2337 C 0.39085 0.37003 0.58078 0.0
C2338 C 0.39546 0.38969 0.65894 0.0
C2339 C 0.40252 0.39691 0.65455 0.0
C2340 C 0.4015 0.40437 0.61497 0.0
C2341 C 0.3933 0.40458 0.5801 0.0
C2342 C 0.3862 0.39739 0.58477 0.0
H2343 H 0.39047 0.36275 0.56081 0.0
H2344 H 0.39279 0.37548 0.54835 0.0
H2345 H 0.39675 0.36994 0.61243 0.0
H2346 H 0.39635 0.38396 0.68965 0.0
H2347 H 0.40882 0.39663 0.68172 0.0
H2348 H 0.91012 0.10489 0.92715 0.0
H2349 H 0.89748 0.11736 0.9186 0.0
H2350 H 0.877 0.09551 0.86587 0.0
H2351 H 0.88963 0.08302 0.87487 0.0
H2352 H 0.88633 0.12171 0.81768 0.0
H2353 H 0.86352 0.1102 0.99844 0.0
H2354 H 0.87605 0.10657 0.99091 0.0
H2355 H 0.86682 0.10083 0.94947 0.0
C2356 C 0.9029 0.10278 0.91407 0.0
C2357 C 0.90078 0.09307 0.90158 0.0
C2358 C 0.89572 0.10988 0.90906 0.0
C2359 C 0.88632 0.10731 0.89207 0.0
C2360 C 0.88419 0.09759 0.87966 0.0
H2361 H 0.83899 0.14415 0.78075 0.0
H2362 H 0.85137 0.13144 0.78973 0.0
C2363 C 0.89139 0.0905 0.88446 0.0
C2364 C 0.8788 0.11486 0.88617 0.0
H2365 H 0.85735 0.12279 0.94108 0.0
C2366 C 0.87999 0.12196 0.84457 0.0
C2367 C 0.87059 0.11516 0.92168 0.0
C2368 C 0.86915 0.10784 0.968 0.0
C2369 C 0.8731 0.12933 0.83718 0.0
C2370 C 0.86484 0.12956 0.87224 0.0
C2371 C 0.86369 0.12252 0.91415 0.0
C2372 C 0.85742 0.13719 0.8666 0.0
C2373 C 0.8747 0.13691 0.7925 0.0
C2374 C 0.85675 0.14453 0.90708 0.0
C2375 C 0.84978 0.15182 0.90168 0.0
C2376 C 0.84334 0.1518 0.85604 0.0
C2377 C 0.84397 0.14438 0.81586 0.0
C2378 C 0.85099 0.13712 0.82104 0.0
H2379 H 0.88209 0.13648 0.77406 0.0
H2380 H 0.86932 0.13589 0.75839 0.0
H2381 H 0.87361 0.14429 0.81017 0.0
H2382 H 0.86167 0.14466 0.94248 0.0
H2383 H 0.84949 0.15753 0.9329 0.0
H2384 H 0.14236 0.33625 0.81151 0.0
H2385 H 0.12989 0.3489 0.81931 0.0
H2386 H 0.15108 0.3685 0.88935 0.0
H2387 H 0.16359 0.35592 0.88043 0.0
H2388 H 0.12378 0.3584 0.918 0.0
H2389 H 0.13869 0.38432 0.76167 0.0
H2390 H 0.14253 0.3718 0.76536 0.0
H2391 H 0.14717 0.38053 0.81453 0.0
C2392 C 0.14433 0.3433 0.82799 0.0
C2393 C 0.15388 0.34518 0.84528 0.0
C2394 C 0.13723 0.35048 0.83263 0.0
C2395 C 0.13961 0.35965 0.85428 0.0
C2396 C 0.14915 0.36152 0.87166 0.0
H2397 H 0.10412 0.40766 0.96725 0.0
H2398 H 0.11654 0.395 0.95632 0.0
C2399 C 0.15625 0.35434 0.867 0.0
C2400 C 0.13202 0.36715 0.86026 0.0
H2401 H 0.12557 0.38991 0.81774 0.0
C2402 C 0.12415 0.36528 0.89596 0.0
C2403 C 0.13253 0.37609 0.83117 0.0
C2404 C 0.14063 0.3783 0.79062 0.0
C2405 C 0.11682 0.3722 0.90404 0.0
C2406 C 0.11742 0.38116 0.87569 0.0
C2407 C 0.12522 0.38302 0.83958 0.0
C2408 C 0.10992 0.38865 0.88271 0.0
C2409 C 0.10846 0.36996 0.94271 0.0
C2410 C 0.10216 0.38918 0.84488 0.0
C2411 C 0.09506 0.39632 0.85127 0.0
C2412 C 0.09568 0.40304 0.89539 0.0
C2413 C 0.10346 0.40249 0.93324 0.0
C2414 C 0.11055 0.39533 0.92693 0.0
H2415 H 0.10892 0.36253 0.96062 0.0
H2416 H 0.10833 0.37529 0.97765 0.0
H2417 H 0.1015 0.37068 0.91956 0.0
H2418 H 0.10159 0.38405 0.8106 0.0
H2419 H 0.08906 0.39656 0.82193 0.0
H2420 H 0.89349 0.91127 0.16533 0.0
H2421 H 0.88117 0.89876 0.17756 0.0
H2422 H 0.8937 0.88245 0.04091 0.0
H2423 H 0.90667 0.89442 0.03295 0.0
H2424 H 0.86751 0.8926 0.11771 0.0
H2425 H 0.89197 0.86137 0.15107 0.0
H2426 H 0.8964 0.87365 0.14835 0.0
H2427 H 0.89427 0.86694 0.08454 0.0
C2428 C 0.89375 0.90489 0.13883 0.0
C2429 C 0.90114 0.90375 0.0988 0.0
C2430 C 0.88663 0.89779 0.14537 0.0
C2431 C 0.8866 0.8895 0.11108 0.0
C2432 C 0.89374 0.88858 0.06929 0.0
H2433 H 0.83501 0.85361 0.07714 0.0
H2434 H 0.84764 0.86587 0.067 0.0
C2435 C 0.90104 0.89553 0.06394 0.0
C2436 C 0.87899 0.88198 0.11853 0.0
H2437 H 0.8754 0.8576 0.1316 0.0
C2438 C 0.86925 0.88495 0.12132 0.0
C2439 C 0.88124 0.87201 0.12443 0.0
C2440 C 0.89155 0.86833 0.1276 0.0
C2441 C 0.86172 0.87826 0.12937 0.0
C2442 C 0.86392 0.86823 0.13153 0.0
C2443 C 0.87367 0.86527 0.12923 0.0
C2444 C 0.85629 0.86067 0.13673 0.0
C2445 C 0.85155 0.8821 0.13721 0.0
C2446 C 0.85716 0.85333 0.17731 0.0
C2447 C 0.85018 0.84601 0.18118 0.0
C2448 C 0.8421 0.84601 0.14536 0.0
C2449 C 0.84121 0.85337 0.10499 0.0
C2450 C 0.84833 0.86051 0.09994 0.0
H2451 H 0.85162 0.88959 0.15446 0.0
H2452 H 0.84785 0.88239 0.09592 0.0
H2453 H 0.84725 0.87744 0.16592 0.0
H2454 H 0.86326 0.85322 0.20594 0.0
H2455 H 0.85119 0.84031 0.21185 0.0
H2456 H 0.35435 0.65975 0.29911 0.0
H2457 H 0.36695 0.64723 0.30564 0.0
H2458 H 0.34747 0.62915 0.40124 0.0
H2459 H 0.33476 0.64148 0.39272 0.0
H2460 H 0.37551 0.63985 0.39932 0.0
H2461 H 0.35691 0.6105 0.28211 0.0
H2462 H 0.35276 0.62292 0.28086 0.0
H2463 H 0.34982 0.61517 0.33917 0.0
C2464 C 0.35275 0.65303 0.32077 0.0
C2465 C 0.34362 0.65152 0.34527 0.0
C2466 C 0.35994 0.64593 0.32474 0.0
C2467 C 0.35809 0.63721 0.35319 0.0
C2468 C 0.34898 0.63573 0.37803 0.0
H2469 H 0.39348 0.58876 0.46015 0.0
H2470 H 0.38095 0.60132 0.44921 0.0
C2471 C 0.34177 0.6428 0.37371 0.0
C2472 C 0.36581 0.6298 0.35866 0.0
H2473 H 0.37107 0.60598 0.33347 0.0
C2474 C 0.37457 0.63247 0.38455 0.0
C2475 C 0.36456 0.62018 0.33921 0.0
C2476 C 0.35554 0.61703 0.30829 0.0
C2477 C 0.38204 0.6257 0.39249 0.0
C2478 C 0.38069 0.61607 0.37403 0.0
C2479 C 0.37199 0.61339 0.34786 0.0
C2480 C 0.3883 0.60866 0.38122 0.0
C2481 C 0.39128 0.6288 0.42127 0.0
C2482 C 0.3965 0.60869 0.34642 0.0
C2483 C 0.40359 0.60154 0.35245 0.0
C2484 C 0.40258 0.59431 0.39347 0.0
C2485 C 0.3944 0.59432 0.4285 0.0
C2486 C 0.38726 0.60144 0.42219 0.0
H2487 H 0.39073 0.63623 0.43912 0.0
H2488 H 0.39312 0.62364 0.45547 0.0
H2489 H 0.39734 0.62868 0.39059 0.0
H2490 H 0.39735 0.6142 0.31441 0.0
H2491 H 0.40988 0.60165 0.32518 0.0
H2492 H 0.58963 0.10153 0.52042 0.0
H2493 H 0.60284 0.11331 0.5192 0.0
H2494 H 0.61647 0.09838 0.65759 0.0
H2495 H 0.60393 0.08596 0.65412 0.0
H2496 H 0.60794 0.12586 0.58807 0.0
H2497 H 0.63958 0.10176 0.56543 0.0
H2498 H 0.62736 0.09734 0.55763 0.0
H2499 H 0.63283 0.09828 0.62627 0.0
C2500 C 0.59561 0.10059 0.54933 0.0
C2501 C 0.59575 0.09279 0.5872 0.0
C2502 C 0.60311 0.1074 0.54912 0.0
C2503 C 0.6108 0.10667 0.58762 0.0
C2504 C 0.61084 0.09896 0.62612 0.0
H2505 H 0.64447 0.1568 0.68967 0.0
H2506 H 0.63237 0.14404 0.67828 0.0
C2507 C 0.60352 0.09197 0.62501 0.0
C2508 C 0.61845 0.11427 0.58966 0.0
H2509 H 0.64285 0.11765 0.60317 0.0
C2510 C 0.61558 0.12405 0.59047 0.0
C2511 C 0.62846 0.11199 0.59159 0.0
C2512 C 0.63222 0.10177 0.58449 0.0
C2513 C 0.6224 0.13157 0.59443 0.0
C2514 C 0.63234 0.12925 0.60126 0.0
C2515 C 0.63523 0.11948 0.59907 0.0
C2516 C 0.63989 0.13679 0.61025 0.0
C2517 C 0.61882 0.14189 0.58977 0.0
C2518 C 0.64848 0.13665 0.57852 0.0
C2519 C 0.65566 0.14363 0.58733 0.0
C2520 C 0.6543 0.15104 0.62695 0.0
C2521 C 0.64576 0.15114 0.65907 0.0
C2522 C 0.63873 0.14396 0.65165 0.0
H2523 H 0.61205 0.1423 0.56454 0.0
H2524 H 0.6171 0.1447 0.63227 0.0
H2525 H 0.62431 0.14669 0.57008 0.0
H2526 H 0.64963 0.13116 0.54672 0.0
H2527 H 0.66228 0.14322 0.56297 0.0
H2528 H 0.85139 0.33834 0.91904 0.0
H2529 H 0.86385 0.35096 0.9294 0.0
H2530 H 0.85133 0.36677 0.79117 0.0
H2531 H 0.83881 0.35419 0.7808 0.0
H2532 H 0.87623 0.35957 0.81797 0.0
H2533 H 0.85406 0.38414 0.95272 0.0
H2534 H 0.85259 0.37112 0.95556 0.0
H2535 H 0.84846 0.37768 0.89529 0.0
C2536 C 0.85131 0.34453 0.89102 0.0
C2537 C 0.84419 0.34537 0.84924 0.0
C2538 C 0.85842 0.35168 0.89685 0.0
C2539 C 0.85843 0.35974 0.86112 0.0
C2540 C 0.85137 0.36057 0.81905 0.0
H2541 H 0.89139 0.41318 0.86173 0.0
H2542 H 0.87902 0.40053 0.85047 0.0
C2543 C 0.84429 0.3534 0.81308 0.0
C2544 C 0.86583 0.36735 0.86797 0.0
H2545 H 0.86986 0.38928 0.92982 0.0
C2546 C 0.87488 0.36608 0.8424 0.0
C2547 C 0.86393 0.37579 0.89958 0.0
C2548 C 0.85425 0.37735 0.92763 0.0
C2549 C 0.88216 0.37314 0.8474 0.0
C2550 C 0.88034 0.38154 0.87989 0.0
C2551 C 0.87123 0.38281 0.90518 0.0
C2552 C 0.88777 0.38917 0.8876 0.0
C2553 C 0.89163 0.37163 0.81689 0.0
C2554 C 0.89669 0.387 0.91312 0.0
C2555 C 0.90376 0.39418 0.91899 0.0
C2556 C 0.90197 0.40364 0.89992 0.0
C2557 C 0.89295 0.40588 0.87595 0.0
C2558 C 0.88589 0.39869 0.86978 0.0
H2559 H 0.8909 0.36626 0.78234 0.0
H2560 H 0.89438 0.37855 0.79913 0.0
H2561 H 0.89713 0.36882 0.8468 0.0
H2562 H 0.89818 0.37975 0.92833 0.0
H2563 H 0.91067 0.39232 0.93777 0.0
H2564 H 0.39344 0.08943 0.53335 0.0
H2565 H 0.38099 0.10206 0.54486 0.0
H2566 H 0.3966 0.11363 0.6866 0.0
H2567 H 0.40907 0.10104 0.67518 0.0
H2568 H 0.37112 0.10635 0.66936 0.0
H2569 H 0.3902 0.13608 0.5553 0.0
H2570 H 0.39186 0.12349 0.53627 0.0
H2571 H 0.397 0.12802 0.60013 0.0
C2572 C 0.39421 0.09472 0.56663 0.0
C2573 C 0.40215 0.09432 0.60345 0.0
C2574 C 0.38712 0.10187 0.57326 0.0
C2575 C 0.38794 0.10872 0.61647 0.0
C2576 C 0.3959 0.10838 0.65302 0.0
H2577 H 0.35458 0.16026 0.6971 0.0
H2578 H 0.36711 0.14766 0.69059 0.0
C2579 C 0.40296 0.10121 0.64657 0.0
C2580 C 0.38039 0.11616 0.62409 0.0
H2581 H 0.37501 0.13977 0.5952 0.0
C2582 C 0.37193 0.11366 0.65319 0.0
C2583 C 0.38159 0.12566 0.60332 0.0
C2584 C 0.39063 0.12855 0.57182 0.0
C2585 C 0.36456 0.12051 0.66227 0.0
C2586 C 0.36565 0.13 0.64047 0.0
C2587 C 0.37419 0.13248 0.61175 0.0
C2588 C 0.35798 0.13743 0.64631 0.0
C2589 C 0.35577 0.11757 0.696 0.0
C2590 C 0.34873 0.13584 0.62339 0.0
C2591 C 0.34158 0.14297 0.6276 0.0
C2592 C 0.3436 0.15183 0.65413 0.0
C2593 C 0.35284 0.15343 0.67695 0.0
C2594 C 0.35999 0.14628 0.67298 0.0
H2595 H 0.3573 0.11116 0.72287 0.0
H2596 H 0.35324 0.12361 0.7231 0.0
H2597 H 0.3498 0.1156 0.66694 0.0
H2598 H 0.34709 0.12915 0.60161 0.0
H2599 H 0.33447 0.14159 0.6099 0.0
H2600 H 0.59071 0.59845 0.31299 0.0
H2601 H 0.60365 0.61063 0.30605 0.0
H2602 H 0.61693 0.59915 0.45573 0.0
H2603 H 0.60414 0.58678 0.46209 0.0
H2604 H 0.61162 0.6222 0.43837 0.0
H2605 H 0.63513 0.60331 0.2824 0.0
H2606 H 0.62212 0.60289 0.27414 0.0
H2607 H 0.6277 0.59669 0.33174 0.0
C2608 C 0.59646 0.59847 0.34398 0.0
C2609 C 0.59646 0.59172 0.3881 0.0
C2610 C 0.60379 0.60542 0.3401 0.0
C2611 C 0.61119 0.60572 0.38037 0.0
C2612 C 0.61124 0.59899 0.42439 0.0
H2613 H 0.66416 0.63973 0.38951 0.0
H2614 H 0.65188 0.62689 0.39767 0.0
C2615 C 0.60394 0.59199 0.42808 0.0
C2616 C 0.61876 0.61323 0.37713 0.0
H2617 H 0.63991 0.619 0.31079 0.0
C2618 C 0.61782 0.62153 0.41061 0.0
C2619 C 0.62682 0.61222 0.34111 0.0
C2620 C 0.6281 0.6033 0.30523 0.0
C2621 C 0.62475 0.62897 0.40854 0.0
C2622 C 0.63273 0.62806 0.37161 0.0
C2623 C 0.63374 0.61967 0.33879 0.0
C2624 C 0.64011 0.63578 0.36643 0.0
C2625 C 0.62354 0.63768 0.44625 0.0
C2626 C 0.63755 0.64494 0.34551 0.0
C2627 C 0.64453 0.65225 0.34102 0.0
C2628 C 0.65415 0.65046 0.35725 0.0
C2629 C 0.65674 0.64126 0.37738 0.0
C2630 C 0.64977 0.63395 0.3818 0.0
H2631 H 0.6184 0.63622 0.48112 0.0
H2632 H 0.63062 0.63993 0.46428 0.0
H2633 H 0.62065 0.64383 0.42132 0.0
H2634 H 0.63017 0.64643 0.33256 0.0
H2635 H 0.64241 0.65931 0.32527 0.0
H2636 H 0.14294 0.83867 0.20024 0.0
H2637 H 0.13091 0.85173 0.19186 0.0
H2638 H 0.15117 0.86858 0.09441 0.0
H2639 H 0.1633 0.85563 0.1037 0.0
H2640 H 0.13393 0.87278 0.22311 0.0
H2641 H 0.12534 0.8661 0.99808 0.0
H2642 H 0.1307 0.85693 0.04251 0.0
H2643 H 0.13796 0.8668 0.01713 0.0
C2644 C 0.14483 0.8452 0.17745 0.0
C2645 C 0.15399 0.84617 0.15238 0.0
C2646 C 0.13797 0.85261 0.17256 0.0
C2647 C 0.14016 0.86103 0.14209 0.0
C2648 C 0.14934 0.86206 0.11749 0.0
H2649 H 0.10577 0.91119 0.04613 0.0
H2650 H 0.11863 0.89902 0.0574 0.0
C2651 C 0.15622 0.85468 0.1227 0.0
C2652 C 0.13283 0.86876 0.13612 0.0
H2653 H 0.11775 0.87949 0.04122 0.0
C2654 C 0.13036 0.87427 0.18345 0.0
C2655 C 0.1283 0.87067 0.08417 0.0
C2656 C 0.13063 0.8648 0.03247 0.0
C2657 C 0.12349 0.88175 0.18007 0.0
C2658 C 0.1188 0.88356 0.12827 0.0
C2659 C 0.12134 0.87807 0.08086 0.0
C2660 C 0.11114 0.89101 0.12243 0.0
C2661 C 0.12146 0.88776 0.23169 0.0
C2662 C 0.10265 0.89046 0.15478 0.0
C2663 C 0.09535 0.89741 0.14851 0.0
C2664 C 0.09639 0.90491 0.10924 0.0
C2665 C 0.10482 0.90542 0.07646 0.0
C2666 C 0.11215 0.8985 0.08296 0.0
H2667 H 0.12756 0.88741 0.2621 0.0
H2668 H 0.12014 0.89547 0.22064 0.0
H2669 H 0.11488 0.8849 0.25291 0.0
H2670 H 0.10161 0.8846 0.18442 0.0
H2671 H 0.08884 0.89685 0.17377 0.0
H2672 H 0.89073 0.58319 0.13154 0.0
H2673 H 0.87765 0.59516 0.13972 0.0
H2674 H 0.89494 0.61593 0.04843 0.0
H2675 H 0.90803 0.60394 0.04006 0.0
H2676 H 0.87892 0.61297 0.19243 0.0
H2677 H 0.86869 0.61732 0.96866 0.0
H2678 H 0.87592 0.60727 0.99355 0.0
H2679 H 0.88141 0.61894 0.98217 0.0
C2680 C 0.89168 0.59031 0.113 0.0
C2681 C 0.90034 0.59271 0.08535 0.0
C2682 C 0.88423 0.59711 0.11756 0.0
C2683 C 0.8853 0.60639 0.09421 0.0
C2684 C 0.8939 0.60874 0.06577 0.0
H2685 H 0.8543 0.65871 0.18448 0.0
H2686 H 0.8663 0.64575 0.17159 0.0
C2687 C 0.90136 0.60192 0.06111 0.0
C2688 C 0.87764 0.61376 0.10249 0.0
H2689 H 0.86215 0.62884 0.03281 0.0
C2690 C 0.87521 0.61641 0.15757 0.0
C2691 C 0.87276 0.61814 0.0569 0.0
C2692 C 0.87474 0.61522 0.99698 0.0
C2693 C 0.86814 0.62348 0.16833 0.0
C2694 C 0.86351 0.62811 0.12272 0.0
C2695 C 0.86579 0.62533 0.06764 0.0
C2696 C 0.85627 0.63588 0.13128 0.0
C2697 C 0.86561 0.62585 0.22839 0.0
C2698 C 0.84672 0.63466 0.11208 0.0
C2699 C 0.8399 0.64204 0.11935 0.0
C2700 C 0.84256 0.65076 0.14551 0.0
C2701 C 0.8521 0.65199 0.16469 0.0
C2702 C 0.85892 0.64461 0.15743 0.0
H2703 H 0.86789 0.61998 0.25752 0.0
H2704 H 0.86941 0.6326 0.24098 0.0
H2705 H 0.85769 0.62705 0.23327 0.0
H2706 H 0.84455 0.62797 0.09172 0.0
H2707 H 0.83255 0.64094 0.10458 0.0
H2708 H 0.14776 0.15675 0.9366 0.0
H2709 H 0.13555 0.1439 0.9456 0.0
H2710 H 0.14593 0.13076 0.79278 0.0
H2711 H 0.15834 0.14345 0.78438 0.0
H2712 H 0.12443 0.13439 0.80439 0.0
H2713 H 0.1414 0.11415 0.98113 0.0
H2714 H 0.14057 0.12713 0.98831 0.0
H2715 H 0.14827 0.12202 0.93533 0.0
C2716 C 0.1475 0.15105 0.90534 0.0
C2717 C 0.15396 0.15105 0.85983 0.0
C2718 C 0.14053 0.14375 0.91044 0.0
C2719 C 0.13992 0.13639 0.87001 0.0
C2720 C 0.14633 0.1364 0.82435 0.0
H2721 H 0.10605 0.08332 0.86919 0.0
H2722 H 0.11894 0.09555 0.8603 0.0
C2723 C 0.15335 0.14366 0.81947 0.0
C2724 C 0.13245 0.12879 0.87479 0.0
H2725 H 0.12574 0.10911 0.95252 0.0
C2726 C 0.1247 0.12884 0.83664 0.0
C2727 C 0.13292 0.12156 0.91674 0.0
C2728 C 0.14126 0.12111 0.95763 0.0
C2729 C 0.11729 0.12191 0.84 0.0
C2730 C 0.11766 0.1148 0.88262 0.0
C2731 C 0.12549 0.11464 0.92016 0.0
C2732 C 0.10996 0.10745 0.88873 0.0
C2733 C 0.10912 0.12217 0.7979 0.0
C2734 C 0.10074 0.11014 0.90821 0.0
C2735 C 0.09344 0.10319 0.9135 0.0
C2736 C 0.09526 0.09349 0.89916 0.0
C2737 C 0.10451 0.09079 0.88012 0.0
C2738 C 0.11184 0.09773 0.8752 0.0
H2739 H 0.11073 0.12707 0.76211 0.0
H2740 H 0.10765 0.11478 0.78143 0.0
H2741 H 0.10242 0.12478 0.81883 0.0
H2742 H 0.09922 0.11761 0.91923 0.0
H2743 H 0.08633 0.10539 0.92816 0.0
H2744 H 0.60377 0.40791 0.54536 0.0
H2745 H 0.61626 0.39535 0.55774 0.0
H2746 H 0.59944 0.38255 0.69115 0.0
H2747 H 0.58694 0.39506 0.67869 0.0
H2748 H 0.62634 0.39126 0.66623 0.0
H2749 H 0.60601 0.35985 0.57821 0.0
H2750 H 0.60298 0.37227 0.56144 0.0
H2751 H 0.59972 0.36731 0.6284 0.0
C2752 C 0.60274 0.40234 0.57689 0.0
C2753 C 0.59446 0.40238 0.6111 0.0
C2754 C 0.60985 0.39523 0.58405 0.0
C2755 C 0.6087 0.38802 0.62506 0.0
C2756 C 0.60038 0.38801 0.65894 0.0
H2757 H 0.64343 0.33796 0.71934 0.0
H2758 H 0.63086 0.35052 0.71326 0.0
C2759 C 0.5933 0.39515 0.652 0.0
C2760 C 0.61634 0.38068 0.6336 0.0
H2761 H 0.62127 0.35657 0.61887 0.0
C2762 C 0.62527 0.38367 0.65583 0.0
C2763 C 0.61483 0.37081 0.62037 0.0
C2764 C 0.6054 0.36732 0.59542 0.0
C2765 C 0.63276 0.37699 0.66566 0.0
C2766 C 0.63132 0.36713 0.65153 0.0
C2767 C 0.62235 0.36414 0.62967 0.0
C2768 C 0.63911 0.35981 0.65768 0.0
C2769 C 0.64206 0.38054 0.69201 0.0
C2770 C 0.64788 0.36089 0.62845 0.0
C2771 C 0.65507 0.35379 0.63241 0.0
C2772 C 0.65355 0.34545 0.66499 0.0
C2773 C 0.6448 0.34439 0.69443 0.0
C2774 C 0.63761 0.35151 0.6907 0.0
H2775 H 0.64094 0.38743 0.71534 0.0
H2776 H 0.64511 0.37505 0.72123 0.0
H2777 H 0.64748 0.38193 0.65854 0.0
H2778 H 0.6491 0.36713 0.60182 0.0
H2779 H 0.6618 0.35479 0.60962 0.0
H2780 H 0.4101 0.8939 0.35166 0.0
H2781 H 0.39747 0.88136 0.34563 0.0
H2782 H 0.37837 0.89916 0.44546 0.0
H2783 H 0.39099 0.91172 0.45129 0.0
H2784 H 0.38733 0.87177 0.44008 0.0
H2785 H 0.36306 0.8926 0.29746 0.0
H2786 H 0.37578 0.89543 0.30558 0.0
H2787 H 0.36729 0.89883 0.35913 0.0
C2788 C 0.40319 0.89508 0.3723 0.0
C2789 C 0.40143 0.9037 0.40183 0.0
C2790 C 0.39603 0.88795 0.36894 0.0
C2791 C 0.38699 0.88941 0.39465 0.0
C2792 C 0.38528 0.89798 0.42488 0.0
H2793 H 0.33371 0.85587 0.39843 0.0
H2794 H 0.34624 0.86834 0.4105 0.0
C2795 C 0.39247 0.90509 0.42845 0.0
C2796 C 0.37935 0.88196 0.38962 0.0
H2797 H 0.35729 0.87751 0.33021 0.0
C2798 C 0.38075 0.87299 0.41606 0.0
C2799 C 0.37081 0.88365 0.35839 0.0
C2800 C 0.36912 0.89311 0.32809 0.0
C2801 C 0.37374 0.86564 0.4126 0.0
C2802 C 0.36523 0.86728 0.38071 0.0
C2803 C 0.36382 0.87629 0.35454 0.0
C2804 C 0.35772 0.85971 0.37371 0.0
C2805 C 0.37541 0.85629 0.444 0.0
C2806 C 0.36001 0.85082 0.34828 0.0
C2807 C 0.3529 0.84369 0.34187 0.0
C2808 C 0.34339 0.8454 0.36034 0.0
C2809 C 0.34105 0.85437 0.38464 0.0
C2810 C 0.34817 0.86148 0.39129 0.0
H2811 H 0.38079 0.85721 0.47829 0.0
H2812 H 0.36854 0.8535 0.46225 0.0
H2813 H 0.37827 0.85075 0.41455 0.0
H2814 H 0.36729 0.8494 0.33324 0.0
H2815 H 0.35483 0.83682 0.32287 0.0
H2816 H 0.0744 0.46301 0.86939 0.0
H2817 H 0.07608 0.48011 0.8946 0.0
H2818 H 0.07625 0.47246 0.07002 0.0
H2819 H 0.07439 0.45537 0.04542 0.0
H2820 H 0.06319 0.48681 0.04491 0.0
H2821 H 0.09913 0.49555 0.9534 0.0
H2822 H 0.09091 0.49004 0.90443 0.0
H2823 H 0.09505 0.48324 0.9642 0.0
C2824 C 0.0749 0.46494 0.91335 0.0
C2825 C 0.07423 0.45781 0.95539 0.0
C2826 C 0.07594 0.47472 0.92764 0.0
C2827 C 0.07643 0.47754 0.98415 0.0
C2828 C 0.07594 0.47043 0.02615 0.0
H2829 H 0.07495 0.53414 0.14808 0.0
H2830 H 0.07683 0.51682 0.12857 0.0
C2831 C 0.07487 0.46066 0.01195 0.0
C2832 C 0.07666 0.48794 0.99959 0.0
H2833 H 0.08932 0.509 0.98148 0.0
C2834 C 0.06896 0.49164 0.03159 0.0
C2835 C 0.08417 0.49422 0.98192 0.0
C2836 C 0.09283 0.49055 0.94953 0.0
C2837 C 0.06842 0.50152 0.04514 0.0
C2838 C 0.07587 0.50782 0.02688 0.0
C2839 C 0.08363 0.50412 0.99539 0.0
C2840 C 0.07551 0.51835 0.03857 0.0
C2841 C 0.05973 0.50519 0.07737 0.0
C2842 C 0.07447 0.52495 0.99424 0.0
C2843 C 0.07342 0.53485 0.00514 0.0
C2844 C 0.07343 0.53833 0.06065 0.0
C2845 C 0.07482 0.53171 0.10487 0.0
C2846 C 0.07587 0.52181 0.09387 0.0
H2847 H 0.0537 0.49985 0.0776 0.0
H2848 H 0.06188 0.50659 0.1215 0.0
H2849 H 0.05703 0.51211 0.05925 0.0
H2850 H 0.07421 0.5224 0.95125 0.0
H2851 H 0.07241 0.53974 0.97005 0.0
H2852 H 0.71177 0.82391 0.36712 0.0
H2853 H 0.72883 0.82528 0.34048 0.0
H2854 H 0.7211 0.82175 0.1664 0.0
H2855 H 0.70399 0.82043 0.1924 0.0
H2856 H 0.73917 0.81055 0.2826 0.0
H2857 H 0.73949 0.8455 0.16597 0.0
H2858 H 0.72983 0.84218 0.21342 0.0
H2859 H 0.73041 0.83689 0.14468 0.0
C2860 C 0.71366 0.82353 0.32307 0.0
C2861 C 0.70651 0.82203 0.28191 0.0
C2862 C 0.72342 0.82432 0.30797 0.0
C2863 C 0.72619 0.82371 0.25149 0.0
C2864 C 0.71908 0.8224 0.21014 0.0
H2865 H 0.78342 0.82105 0.09502 0.0
H2866 H 0.76588 0.82187 0.11152 0.0
C2867 C 0.70931 0.8216 0.22517 0.0
C2868 C 0.7366 0.82373 0.23651 0.0
H2869 H 0.75404 0.83633 0.16552 0.0
C2870 C 0.74243 0.8162 0.25712 0.0
C2871 C 0.74078 0.83106 0.20277 0.0
C2872 C 0.73485 0.83942 0.18066 0.0
C2873 C 0.75236 0.81578 0.24495 0.0
C2874 C 0.7566 0.82321 0.21223 0.0
C2875 C 0.75075 0.83067 0.19074 0.0
C2876 C 0.76716 0.82345 0.2015 0.0
C2877 C 0.75822 0.80733 0.26677 0.0
C2878 C 0.77365 0.82435 0.24648 0.0
C2879 C 0.78363 0.82386 0.23733 0.0
C2880 C 0.78733 0.82252 0.18287 0.0
C2881 C 0.78081 0.82204 0.1375 0.0
C2882 C 0.77079 0.82251 0.14679 0.0
H2883 H 0.75352 0.80106 0.27779 0.0
H2884 H 0.76366 0.80492 0.23534 0.0
H2885 H 0.76215 0.80959 0.30524 0.0
H2886 H 0.77098 0.82528 0.28888 0.0
H2887 H 0.78842 0.82437 0.27319 0.0
H2888 H 0.42313 0.53412 0.36975 0.0
H2889 H 0.42129 0.51712 0.39657 0.0
H2890 H 0.422 0.52519 0.57133 0.0
H2891 H 0.42402 0.54219 0.54508 0.0
H2892 H 0.43464 0.51051 0.54582 0.0
H2893 H 0.39819 0.50231 0.45962 0.0
H2894 H 0.40632 0.50751 0.40912 0.0
H2895 H 0.40256 0.51456 0.46882 0.0
C2896 C 0.42279 0.53231 0.41391 0.0
C2897 C 0.42375 0.53953 0.45526 0.0
C2898 C 0.42166 0.52258 0.42914 0.0
C2899 C 0.42137 0.51991 0.48593 0.0
C2900 C 0.42216 0.52711 0.52726 0.0
H2901 H 0.42222 0.46364 0.65405 0.0
H2902 H 0.42063 0.48096 0.63354 0.0
C2903 C 0.42332 0.53682 0.51213 0.0
C2904 C 0.42099 0.50955 0.50225 0.0
H2905 H 0.40782 0.48872 0.48749 0.0
C2906 C 0.42873 0.50577 0.53361 0.0
C2907 C 0.41327 0.50339 0.48608 0.0
C2908 C 0.40457 0.50716 0.4545 0.0
C2909 C 0.42911 0.49591 0.54795 0.0
C2910 C 0.42146 0.48972 0.53113 0.0
C2911 C 0.41366 0.49351 0.5003 0.0
C2912 C 0.42165 0.47922 0.54354 0.0
C2913 C 0.43783 0.49214 0.57944 0.0
C2914 C 0.42244 0.47251 0.49958 0.0
C2915 C 0.42333 0.46262 0.51105 0.0
C2916 C 0.4234 0.45925 0.56679 0.0
C2917 C 0.42227 0.46598 0.61068 0.0
C2918 C 0.42138 0.47588 0.5991 0.0
H2919 H 0.44396 0.49737 0.57872 0.0
H2920 H 0.4358 0.49085 0.62388 0.0
H2921 H 0.44034 0.48514 0.56143 0.0
H2922 H 0.42262 0.47496 0.4564 0.0
H2923 H 0.42414 0.45764 0.4762 0.0
H2924 H 0.79124 0.17566 0.70906 0.0
H2925 H 0.77407 0.17404 0.68532 0.0
H2926 H 0.7671 0.17025 0.86029 0.0
H2927 H 0.78424 0.17199 0.88475 0.0
H2928 H 0.76049 0.15892 0.70723 0.0
H2929 H 0.75044 0.19359 0.81126 0.0
H2930 H 0.76285 0.19038 0.79583 0.0
H2931 H 0.75678 0.18511 0.85518 0.0
C2932 C 0.78607 0.17444 0.74258 0.0
C2933 C 0.78911 0.17406 0.79892 0.0
C2934 C 0.77627 0.17349 0.72885 0.0
C2935 C 0.76933 0.17218 0.77113 0.0
C2936 C 0.77235 0.17144 0.82717 0.0
H2937 H 0.70671 0.1714 0.77537 0.0
H2938 H 0.7239 0.16984 0.79758 0.0
C2939 C 0.78215 0.1724 0.84101 0.0
C2940 C 0.7589 0.17189 0.75667 0.0
H2941 H 0.73761 0.18407 0.77554 0.0
C2942 C 0.75547 0.16441 0.72205 0.0
C2943 C 0.75241 0.1791 0.77596 0.0
C2944 C 0.75579 0.18756 0.81121 0.0
C2945 C 0.74563 0.16384 0.70698 0.0
C2946 C 0.73915 0.17105 0.72639 0.0
C2947 C 0.7426 0.17853 0.76093 0.0
C2948 C 0.72873 0.17105 0.71153 0.0
C2949 C 0.74223 0.15546 0.67134 0.0
C2950 C 0.72574 0.17217 0.65561 0.0
C2951 C 0.71588 0.17305 0.64262 0.0
C2952 C 0.70887 0.17292 0.68548 0.0
C2953 C 0.71191 0.17157 0.7413 0.0
C2954 C 0.72174 0.17067 0.75415 0.0
H2955 H 0.74749 0.14936 0.67182 0.0
H2956 H 0.73507 0.15276 0.68593 0.0
H2957 H 0.74142 0.15794 0.6273 0.0
H2958 H 0.73105 0.17266 0.62221 0.0
H2959 H 0.71379 0.17411 0.59924 0.0
H2960 H 0.9228 0.46263 0.86083 0.0
H2961 H 0.92114 0.47992 0.88207 0.0
H2962 H 0.92331 0.47374 0.05893 0.0
H2963 H 0.92487 0.45645 0.03842 0.0
H2964 H 0.90857 0.4875 0.02987 0.0
H2965 H 0.94445 0.4963 0.93615 0.0
H2966 H 0.93625 0.48988 0.89083 0.0
H2967 H 0.94085 0.48405 0.95275 0.0
C2968 C 0.92287 0.46493 0.90429 0.0
C2969 C 0.92407 0.45816 0.94789 0.0
C2970 C 0.92194 0.47481 0.91629 0.0
C2971 C 0.92225 0.47809 0.97199 0.0
C2972 C 0.92309 0.47134 0.01566 0.0
H2973 H 0.92359 0.53419 0.13807 0.0
H2974 H 0.92204 0.51689 0.11649 0.0
C2975 C 0.92401 0.46146 0.00377 0.0
C2976 C 0.92207 0.48858 0.9848 0.0
H2977 H 0.935 0.50946 0.96799 0.0
C2978 C 0.91434 0.49233 0.0164 0.0
C2979 C 0.92963 0.4948 0.96731 0.0
C2980 C 0.93832 0.49107 0.93529 0.0
C2981 C 0.91389 0.50223 0.03022 0.0
C2982 C 0.92147 0.50844 0.01275 0.0
C2983 C 0.92919 0.50467 0.98117 0.0
C2984 C 0.92161 0.51891 0.02646 0.0
C2985 C 0.90525 0.50597 0.06245 0.0
C2986 C 0.92196 0.52575 0.98303 0.0
C2987 C 0.92293 0.5356 0.99513 0.0
C2988 C 0.92361 0.53882 0.05102 0.0
C2989 C 0.92305 0.53196 0.09461 0.0
C2990 C 0.9221 0.52208 0.08238 0.0
H2991 H 0.899 0.5009 0.06 0.0
H2992 H 0.90726 0.5068 0.10728 0.0
H2993 H 0.90293 0.51317 0.04646 0.0
H2994 H 0.92161 0.52345 0.93961 0.0
H2995 H 0.9233 0.54067 0.96049 0.0
H2996 H 0.21351 0.17334 0.88819 0.0
H2997 H 0.23063 0.17184 0.86249 0.0
H2998 H 0.22276 0.17075 0.68752 0.0
H2999 H 0.20566 0.17241 0.71252 0.0
H3000 H 0.24082 0.15769 0.80091 0.0
H3001 H 0.24163 0.19362 0.69521 0.0
H3002 H 0.23176 0.18989 0.74 0.0
H3003 H 0.23252 0.18547 0.66919 0.0
C3004 C 0.2154 0.17273 0.84423 0.0
C3005 C 0.20822 0.17312 0.80237 0.0
C3006 C 0.22519 0.17186 0.82966 0.0
C3007 C 0.22795 0.17137 0.7731 0.0
C3008 C 0.22078 0.17134 0.73136 0.0
H3009 H 0.28437 0.17239 0.60982 0.0
H3010 H 0.26709 0.17038 0.63004 0.0
C3011 C 0.21101 0.17225 0.7458 0.0
C3012 C 0.23834 0.17119 0.75772 0.0
H3013 H 0.25582 0.18407 0.68894 0.0
C3014 C 0.24412 0.16345 0.77642 0.0
C3015 C 0.24259 0.17873 0.72582 0.0
C3016 C 0.23684 0.18745 0.70675 0.0
C3017 C 0.25405 0.16301 0.76366 0.0
C3018 C 0.2583 0.17058 0.73205 0.0
C3019 C 0.2525 0.17826 0.7129 0.0
C3020 C 0.26882 0.17093 0.72018 0.0
C3021 C 0.2599 0.15443 0.78361 0.0
C3022 C 0.27549 0.1719 0.76424 0.0
C3023 C 0.28536 0.17307 0.75291 0.0
C3024 C 0.28873 0.17335 0.69722 0.0
C3025 C 0.28203 0.1722 0.65318 0.0
C3026 C 0.27216 0.17105 0.6646 0.0
H3027 H 0.25519 0.14814 0.79401 0.0
H3028 H 0.26526 0.15216 0.75137 0.0
H3029 H 0.26394 0.1565 0.82207 0.0
H3030 H 0.27303 0.17201 0.80739 0.0
H3031 H 0.2903 0.17395 0.78785 0.0
H3032 H 0.57244 0.45523 0.46114 0.0
H3033 H 0.57398 0.47241 0.43751 0.0
H3034 H 0.57585 0.47958 0.61325 0.0
H3035 H 0.57426 0.46243 0.63753 0.0
H3036 H 0.56171 0.49012 0.55227 0.0
H3037 H 0.59757 0.49083 0.44599 0.0
H3038 H 0.5893 0.48175 0.42074 0.0
H3039 H 0.59384 0.481 0.49124 0.0
C3040 C 0.57329 0.46044 0.49483 0.0
C3041 C 0.5732 0.45745 0.55128 0.0
C3042 C 0.57423 0.47025 0.48117 0.0
C3043 C 0.57513 0.47723 0.52363 0.0
C3044 C 0.57521 0.47427 0.57991 0.0
H3045 H 0.57353 0.54015 0.53065 0.0
H3046 H 0.57491 0.52297 0.55417 0.0
C3047 C 0.5743 0.46447 0.59365 0.0
C3048 C 0.57525 0.48768 0.50957 0.0
H3049 H 0.588 0.50513 0.4397 0.0
C3050 C 0.56749 0.49343 0.52801 0.0
C3051 C 0.58276 0.49192 0.47751 0.0
C3052 C 0.59139 0.48609 0.45802 0.0
C3053 C 0.56694 0.50331 0.51449 0.0
C3054 C 0.57448 0.50758 0.4827 0.0
C3055 C 0.58225 0.50183 0.46418 0.0
C3056 C 0.57437 0.51801 0.46811 0.0
C3057 C 0.55817 0.50903 0.53314 0.0
C3058 C 0.57399 0.52093 0.41177 0.0
C3059 C 0.57329 0.53077 0.39806 0.0
C3060 C 0.57295 0.53785 0.44054 0.0
C3061 C 0.57366 0.53489 0.49689 0.0
C3062 C 0.57441 0.52507 0.51048 0.0
H3063 H 0.55198 0.50421 0.54389 0.0
H3064 H 0.56005 0.51328 0.57113 0.0
H3065 H 0.5558 0.51417 0.5 0.0
H3066 H 0.57401 0.51558 0.37847 0.0
H3067 H 0.5728 0.53279 0.35424 0.0
H3068 H 0.29118 0.82483 0.21334 0.0
H3069 H 0.27406 0.82677 0.1899 0.0
H3070 H 0.26666 0.82582 0.36559 0.0
H3071 H 0.28381 0.82401 0.38971 0.0
H3072 H 0.25983 0.81338 0.21484 0.0
H3073 H 0.25106 0.84911 0.3094 0.0
H3074 H 0.26337 0.84516 0.29711 0.0
H3075 H 0.25675 0.84076 0.35691 0.0
C3076 C 0.28594 0.82515 0.24716 0.0
C3077 C 0.28887 0.82424 0.30347 0.0
C3078 C 0.27615 0.82627 0.23361 0.0
C3079 C 0.26911 0.82654 0.276 0.0
C3080 C 0.272 0.82583 0.3323 0.0
H3081 H 0.2069 0.82303 0.29016 0.0
H3082 H 0.22423 0.82471 0.30875 0.0
C3083 C 0.28181 0.82473 0.34597 0.0
C3084 C 0.2587 0.82677 0.26092 0.0
H3085 H 0.23767 0.83947 0.27934 0.0
C3086 C 0.25499 0.81913 0.22845 0.0
C3087 C 0.25243 0.83427 0.27898 0.0
C3088 C 0.2561 0.84284 0.31211 0.0
C3089 C 0.24512 0.81864 0.21469 0.0
C3090 C 0.23883 0.82609 0.23312 0.0
C3091 C 0.24253 0.83379 0.26519 0.0
C3092 C 0.2283 0.82578 0.22134 0.0
C3093 C 0.24145 0.81 0.18209 0.0
C3094 C 0.22484 0.82604 0.16601 0.0
C3095 C 0.21492 0.82504 0.15511 0.0
C3096 C 0.2083 0.82381 0.19946 0.0
C3097 C 0.21179 0.82391 0.25496 0.0
C3098 C 0.22169 0.82489 0.26574 0.0
H3099 H 0.24675 0.80392 0.1822 0.0
H3100 H 0.23448 0.80734 0.19963 0.0
H3101 H 0.24018 0.81216 0.13786 0.0
H3102 H 0.22982 0.8269 0.13123 0.0
H3103 H 0.21248 0.82508 0.11192 0.0
H3104 H 0.57177 0.95528 0.55318 0.0
H3105 H 0.57308 0.97243 0.5781 0.0
H3106 H 0.57624 0.97986 0.40338 0.0
H3107 H 0.57487 0.96274 0.37776 0.0
H3108 H 0.58789 0.98673 0.55396 0.0
H3109 H 0.55219 0.99537 0.45776 0.0
H3110 H 0.55596 0.9831 0.47303 0.0
H3111 H 0.56059 0.98925 0.41221 0.0
C3112 C 0.57281 0.96054 0.51997 0.0
C3113 C 0.5731 0.95764 0.46335 0.0
C3114 C 0.57358 0.97033 0.53438 0.0
C3115 C 0.57461 0.97739 0.49251 0.0
C3116 C 0.5753 0.97451 0.4362 0.0
H3117 H 0.57379 0.03952 0.47712 0.0
H3118 H 0.57542 0.02218 0.46011 0.0
C3119 C 0.57453 0.96472 0.42169 0.0
C3120 C 0.57455 0.98779 0.50747 0.0
H3121 H 0.56154 0.00862 0.49003 0.0
C3122 C 0.58213 0.99154 0.54023 0.0
C3123 C 0.56696 0.99398 0.48976 0.0
C3124 C 0.55841 0.99024 0.45666 0.0
C3125 C 0.58248 0.00143 0.55436 0.0
C3126 C 0.57496 0.00764 0.53591 0.0
C3127 C 0.56732 0.00384 0.50387 0.0
C3128 C 0.57492 0.01817 0.54778 0.0
C3129 C 0.591 0.00521 0.58752 0.0
C3130 C 0.5742 0.02169 0.60293 0.0
C3131 C 0.57329 0.03165 0.61296 0.0
C3132 C 0.57299 0.03824 0.56788 0.0
C3133 C 0.57394 0.03467 0.51285 0.0
C3134 C 0.57488 0.02475 0.50297 0.0
H3135 H 0.59718 3e-05 0.58735 0.0
H3136 H 0.59352 0.01227 0.57052 0.0
H3137 H 0.58874 0.00636 0.63171 0.0
H3138 H 0.57405 0.01671 0.63806 0.0
H3139 H 0.57255 0.03417 0.6558 0.0
H3140 H 0.20569 0.32304 0.70238 0.0
H3141 H 0.22277 0.32482 0.67744 0.0
H3142 H 0.23056 0.32459 0.85263 0.0
H3143 H 0.21345 0.32298 0.87827 0.0
H3144 H 0.24046 0.33874 0.78899 0.0
H3145 H 0.24216 0.3024 0.68847 0.0
H3146 H 0.23285 0.3102 0.66134 0.0
H3147 H 0.2322 0.30607 0.73277 0.0
C3148 C 0.21102 0.3234 0.73574 0.0
C3149 C 0.2082 0.32276 0.79237 0.0
C3150 C 0.22078 0.32438 0.72132 0.0
C3151 C 0.22793 0.32464 0.76315 0.0
C3152 C 0.22514 0.32434 0.81974 0.0
H3153 H 0.29025 0.32371 0.77896 0.0
H3154 H 0.27292 0.32534 0.79757 0.0
C3155 C 0.21536 0.3234 0.83427 0.0
C3156 C 0.23832 0.32499 0.74784 0.0
H3157 H 0.2561 0.31227 0.68061 0.0
C3158 C 0.2439 0.33296 0.7653 0.0
C3159 C 0.24276 0.31744 0.71691 0.0
C3160 C 0.23722 0.3085 0.69915 0.0
C3161 C 0.25381 0.3336 0.75228 0.0
C3162 C 0.25824 0.32601 0.7217 0.0
C3163 C 0.25264 0.3181 0.70375 0.0
C3164 C 0.26878 0.32585 0.71008 0.0
C3165 C 0.25943 0.34242 0.7709 0.0
C3166 C 0.27218 0.3255 0.65464 0.0
C3167 C 0.2821 0.32451 0.64374 0.0
C3168 C 0.28877 0.32376 0.68819 0.0
C3169 C 0.28533 0.32428 0.74369 0.0
C3170 C 0.27542 0.32528 0.75449 0.0
H3171 H 0.25456 0.34865 0.77997 0.0
H3172 H 0.26347 0.34066 0.80989 0.0
H3173 H 0.26477 0.34464 0.73848 0.0
H3174 H 0.26714 0.32585 0.61983 0.0
H3175 H 0.2845 0.32414 0.60053 0.0
H3176 H 0.9241 0.95731 0.96814 0.0
H3177 H 0.92243 0.97471 0.95226 0.0
H3178 H 0.92176 0.97964 0.13084 0.0
H3179 H 0.92356 0.9622 0.14744 0.0
H3180 H 0.90793 0.98795 0.98735 0.0
H3181 H 0.94425 0.99684 0.07536 0.0
H3182 H 0.94072 0.98461 0.05759 0.0
H3183 H 0.93633 0.99013 0.12096 0.0
C3184 C 0.92357 0.96207 0.00419 0.0
C3185 C 0.92406 0.95836 0.05913 0.0
C3186 C 0.92259 0.97201 0.99495 0.0
C3187 C 0.92211 0.97845 0.04035 0.0
C3188 C 0.92229 0.97479 0.09526 0.0
H3189 H 0.92344 0.04146 0.04629 0.0
H3190 H 0.92172 0.0244 0.07164 0.0
C3191 C 0.92328 0.96482 0.10463 0.0
C3192 C 0.92169 0.98901 0.02972 0.0
H3193 H 0.93467 0.00993 0.04429 0.0
C3194 C 0.91375 0.99278 0.99995 0.0
C3195 C 0.92931 0.99526 0.04618 0.0
C3196 C 0.93818 0.99153 0.0764 0.0
C3197 C 0.91322 0.00267 0.98621 0.0
C3198 C 0.92092 0.00888 0.00188 0.0
C3199 C 0.92878 0.00513 0.03242 0.0
C3200 C 0.92114 0.01925 0.98599 0.0
C3201 C 0.9044 0.00639 0.9555 0.0
C3202 C 0.92136 0.02201 0.92932 0.0
C3203 C 0.92233 0.03178 0.91456 0.0
C3204 C 0.92319 0.03895 0.95629 0.0
C3205 C 0.92282 0.03615 0.01302 0.0
C3206 C 0.92183 0.02639 0.02767 0.0
H3207 H 0.8981 0.00143 0.96052 0.0
H3208 H 0.90232 0.01372 0.97064 0.0
H3209 H 0.90608 0.00691 0.91006 0.0
H3210 H 0.92105 0.01659 0.89649 0.0
H3211 H 0.92263 0.03368 0.8705 0.0
H3212 H 0.28429 0.67184 0.39115 0.0
H3213 H 0.26696 0.66978 0.37233 0.0
H3214 H 0.27253 0.67091 0.19444 0.0
H3215 H 0.28983 0.67286 0.21259 0.0
H3216 H 0.25557 0.6832 0.31459 0.0
H3217 H 0.25463 0.64733 0.2091 0.0
H3218 H 0.26487 0.65138 0.25015 0.0
H3219 H 0.26325 0.65564 0.17948 0.0
C3220 C 0.28185 0.67153 0.34799 0.0
C3221 C 0.28846 0.67254 0.30338 0.0
C3222 C 0.27195 0.67034 0.33736 0.0
C3223 C 0.26849 0.67007 0.28202 0.0
C3224 C 0.27507 0.6709 0.23743 0.0
H3225 H 0.21277 0.67336 0.11811 0.0
H3226 H 0.22996 0.67166 0.1419 0.0
C3227 C 0.28496 0.67209 0.24797 0.0
C3228 C 0.25794 0.66974 0.27082 0.0
H3229 H 0.24032 0.65703 0.20202 0.0
C3230 C 0.2522 0.67742 0.29053 0.0
C3231 C 0.25362 0.66223 0.23905 0.0
C3232 C 0.25938 0.65363 0.21861 0.0
C3233 C 0.24228 0.67794 0.27808 0.0
C3234 C 0.23796 0.67048 0.24593 0.0
C3235 C 0.24367 0.66274 0.22663 0.0
C3236 C 0.22753 0.6707 0.23139 0.0
C3237 C 0.23657 0.68664 0.29796 0.0
C3238 C 0.22049 0.67045 0.27375 0.0
C3239 C 0.21068 0.67146 0.26042 0.0
C3240 C 0.20773 0.67267 0.20433 0.0
C3241 C 0.21479 0.67249 0.16172 0.0
C3242 C 0.22462 0.67151 0.1752 0.0
H3243 H 0.24138 0.69276 0.31002 0.0
H3244 H 0.23149 0.68919 0.26495 0.0
H3245 H 0.23224 0.68458 0.33534 0.0
H3246 H 0.22259 0.66963 0.31728 0.0
H3247 H 0.20544 0.67145 0.29426 0.0
H3248 H 0.42158 0.03441 0.62572 0.0
H3249 H 0.42005 0.01735 0.59929 0.0
H3250 H 0.42411 0.0249 0.42537 0.0
H3251 H 0.42558 0.04201 0.45112 0.0
H3252 H 0.40884 0.01089 0.44728 0.0
H3253 H 0.44398 0.00137 0.54762 0.0
H3254 H 0.43556 0.00766 0.59226 0.0
H3255 H 0.44055 0.01373 0.53211 0.0
C3256 C 0.4221 0.03247 0.58178 0.0
C3257 C 0.42381 0.03958 0.5406 0.0
C3258 C 0.42124 0.02272 0.56682 0.0
C3259 C 0.42211 0.01988 0.51053 0.0
C3260 C 0.42346 0.02696 0.46907 0.0
H3261 H 0.4236 0.96345 0.3448 0.0
H3262 H 0.42225 0.98085 0.36395 0.0
C3263 C 0.42432 0.03673 0.48394 0.0
C3264 C 0.422 0.00949 0.49527 0.0
H3265 H 0.43444 0.98836 0.51404 0.0
C3266 C 0.41444 0.00594 0.46162 0.0
C3267 C 0.42936 0.00312 0.51388 0.0
C3268 C 0.43788 0.00665 0.54806 0.0
C3269 C 0.4139 0.99606 0.44737 0.0
C3270 C 0.4212 0.98967 0.46661 0.0
C3271 C 0.42882 0.99328 0.49964 0.0
C3272 C 0.4211 0.97916 0.45398 0.0
C3273 C 0.40541 0.99251 0.41315 0.0
C3274 C 0.42093 0.97247 0.49822 0.0
C3275 C 0.4218 0.96256 0.48754 0.0
C3276 C 0.42287 0.95914 0.43229 0.0
C3277 C 0.42276 0.96584 0.3878 0.0
C3278 C 0.42193 0.97579 0.39862 0.0
H3279 H 0.39932 0.99779 0.41329 0.0
H3280 H 0.40776 0.99145 0.36905 0.0
H3281 H 0.40273 0.98544 0.42925 0.0
H3282 H 0.42032 0.97493 0.54124 0.0
H3283 H 0.4218 0.95761 0.52281 0.0
H3284 H 0.71325 0.67338 0.39292 0.0
H3285 H 0.73047 0.67214 0.3688 0.0
H3286 H 0.72314 0.67143 0.19301 0.0
H3287 H 0.70596 0.67279 0.21639 0.0
H3288 H 0.74095 0.65811 0.3052 0.0
H3289 H 0.74177 0.69459 0.20617 0.0
H3290 H 0.73189 0.69061 0.25021 0.0
H3291 H 0.73267 0.68657 0.17864 0.0
C3292 C 0.71529 0.67291 0.34912 0.0
C3293 C 0.70823 0.6733 0.30657 0.0
C3294 C 0.72513 0.67219 0.33546 0.0
C3295 C 0.72806 0.67187 0.27913 0.0
C3296 C 0.72102 0.67187 0.2367 0.0
H3297 H 0.78424 0.67364 0.11435 0.0
H3298 H 0.76697 0.67182 0.13556 0.0
C3299 C 0.7112 0.67261 0.25023 0.0
C3300 C 0.73849 0.67184 0.26457 0.0
H3301 H 0.75596 0.68505 0.19787 0.0
C3302 C 0.74425 0.66399 0.28182 0.0
C3303 C 0.74275 0.67954 0.23407 0.0
C3304 C 0.73699 0.68836 0.21656 0.0
C3305 C 0.75418 0.66359 0.26868 0.0
C3306 C 0.75842 0.67131 0.23829 0.0
C3307 C 0.75265 0.67913 0.22088 0.0
C3308 C 0.76893 0.67164 0.22561 0.0
C3309 C 0.75999 0.65486 0.28671 0.0
C3310 C 0.77572 0.67214 0.26927 0.0
C3311 C 0.78558 0.67319 0.25737 0.0
C3312 C 0.78883 0.67382 0.20151 0.0
C3313 C 0.782 0.67318 0.15782 0.0
C3314 C 0.77213 0.67213 0.16982 0.0
H3315 H 0.75526 0.64853 0.29583 0.0
H3316 H 0.76532 0.65276 0.25393 0.0
H3317 H 0.76406 0.65666 0.32553 0.0
H3318 H 0.77337 0.67197 0.31262 0.0
H3319 H 0.79063 0.67368 0.29207 0.0
H3320 H 0.07353 0.95734 0.96437 0.0
H3321 H 0.07479 0.9747 0.94532 0.0
H3322 H 0.07441 0.98067 0.12288 0.0
H3323 H 0.07305 0.96331 0.14256 0.0
H3324 H 0.06088 0.9914 0.05999 0.0
H3325 H 0.09768 0.99351 0.96611 0.0
H3326 H 0.08994 0.98448 0.93526 0.0
H3327 H 0.09367 0.98325 0.00715 0.0
C3328 C 0.07382 0.96232 0.99948 0.0
C3329 C 0.07317 0.95892 0.05502 0.0
C3330 C 0.07461 0.97224 0.98847 0.0
C3331 C 0.07482 0.97894 0.03272 0.0
C3332 C 0.07432 0.97559 0.08819 0.0
H3333 H 0.07151 0.04198 0.04389 0.0
H3334 H 0.07311 0.02483 0.06782 0.0
C3335 C 0.07354 0.96567 0.0993 0.0
C3336 C 0.07484 0.98948 0.02097 0.0
H3337 H 0.08769 0.00752 0.95707 0.0
C3338 C 0.06678 0.99496 0.03795 0.0
C3339 C 0.08252 0.99405 0.99191 0.0
C3340 C 0.09149 0.98855 0.97442 0.0
C3341 C 0.06608 0.00487 0.02546 0.0
C3342 C 0.07374 0.00945 0.99618 0.0
C3343 C 0.08184 0.00398 0.97953 0.0
C3344 C 0.07338 0.01988 0.98171 0.0
C3345 C 0.05701 0.01029 0.04223 0.0
C3346 C 0.07336 0.02279 0.92534 0.0
C3347 C 0.07252 0.0326 0.91142 0.0
C3348 C 0.07171 0.03967 0.95373 0.0
C3349 C 0.07202 0.03673 0.01023 0.0
C3350 C 0.0729 0.02692 0.02404 0.0
H3351 H 0.05091 0.00527 0.05153 0.0
H3352 H 0.0585 0.01459 0.08063 0.0
H3353 H 0.0547 0.01537 0.00863 0.0
H3354 H 0.07378 0.01744 0.89208 0.0
H3355 H 0.07234 0.03461 0.8675 0.0
H3356 H 0.71274 0.32247 0.60623 0.0
H3357 H 0.73021 0.32373 0.62413 0.0
H3358 H 0.72467 0.32596 0.80167 0.0
H3359 H 0.70729 0.32458 0.78456 0.0
H3360 H 0.7416 0.3381 0.68152 0.0
H3361 H 0.74268 0.30224 0.78742 0.0
H3362 H 0.73253 0.30613 0.7452 0.0
H3363 H 0.73386 0.31046 0.81594 0.0
C3364 C 0.71523 0.32329 0.64904 0.0
C3365 C 0.70862 0.32329 0.69402 0.0
C3366 C 0.72521 0.32402 0.65915 0.0
C3367 C 0.7287 0.32474 0.71427 0.0
C3368 C 0.72211 0.3252 0.75892 0.0
H3369 H 0.78446 0.32473 0.87838 0.0
H3370 H 0.76731 0.32627 0.85384 0.0
C3371 C 0.71217 0.32443 0.74897 0.0
C3372 C 0.73924 0.32468 0.7257 0.0
H3373 H 0.75687 0.31191 0.79388 0.0
C3374 C 0.74497 0.33236 0.70578 0.0
C3375 C 0.74359 0.31715 0.7572 0.0
C3376 C 0.73788 0.30848 0.77728 0.0
C3377 C 0.75493 0.33284 0.71797 0.0
C3378 C 0.75923 0.32538 0.75026 0.0
C3379 C 0.75351 0.31766 0.76954 0.0
C3380 C 0.76967 0.32533 0.76429 0.0
C3381 C 0.76074 0.3414 0.69739 0.0
C3382 C 0.77666 0.32431 0.72196 0.0
C3383 C 0.78646 0.3234 0.73577 0.0
C3384 C 0.78945 0.32345 0.79226 0.0
C3385 C 0.78242 0.32466 0.83449 0.0
C3386 C 0.77262 0.32555 0.82059 0.0
H3387 H 0.75599 0.34753 0.68462 0.0
H3388 H 0.76583 0.34397 0.73031 0.0
H3389 H 0.76509 0.33917 0.66039 0.0
H3390 H 0.7745 0.32395 0.67831 0.0
H3391 H 0.79167 0.32247 0.70219 0.0
H3392 H 0.03692 0.57532 0.02029 0.0
H3393 H 0.01942 0.5774 0.0296 0.0
H3394 H 0.0214 0.57142 0.20679 0.0
H3395 H 0.03895 0.56922 0.19797 0.0
H3396 H 0.00748 0.56041 0.1514 0.0
H3397 H 0.00342 0.59935 0.09876 0.0
H3398 H 0.01034 0.5927 0.04783 0.0
H3399 H 0.01492 0.59404 0.11807 0.0
C3400 C 0.03367 0.57455 0.06143 0.0
C3401 C 0.03935 0.57208 0.10836 0.0
C3402 C 0.02367 0.57581 0.06671 0.0
C3403 C 0.01915 0.57471 0.11902 0.0
C3404 C 0.02478 0.57237 0.16613 0.0
H3405 H 0.95697 0.57062 0.19405 0.0
H3406 H 0.97452 0.57233 0.20532 0.0
C3407 C 0.0348 0.57111 0.16094 0.0
C3408 C 0.00845 0.57522 0.12341 0.0
H3409 H 0.98897 0.5897 0.09495 0.0
C3410 C 0.00342 0.56685 0.13992 0.0
C3411 C 0.0032 0.58364 0.1083 0.0
C3412 C 0.00824 0.59298 0.09276 0.0
C3413 C 0.99325 0.56652 0.13926 0.0
C3414 C 0.988 0.57486 0.12258 0.0
C3415 C 0.99303 0.58332 0.10763 0.0
C3416 C 0.97731 0.5747 0.11708 0.0
C3417 C 0.98823 0.55713 0.15396 0.0
C3418 C 0.97306 0.57585 0.06406 0.0
C3419 C 0.96304 0.57494 0.05746 0.0
C3420 C 0.95708 0.57289 0.10387 0.0
C3421 C 0.96134 0.57213 0.15735 0.0
C3422 C 0.97137 0.57306 0.16388 0.0
H3423 H 0.99334 0.55089 0.15444 0.0
H3424 H 0.98496 0.55777 0.19634 0.0
H3425 H 0.98232 0.55554 0.12368 0.0
H3426 H 0.97753 0.57716 0.02747 0.0
H3427 H 0.96001 0.57562 0.01572 0.0
H3428 H 0.67111 0.70933 0.27139 0.0
H3429 H 0.66921 0.72686 0.28153 0.0
H3430 H 0.67508 0.72455 0.4587 0.0
H3431 H 0.6771 0.707 0.44909 0.0
H3432 H 0.65661 0.73808 0.35157 0.0
H3433 H 0.69567 0.74387 0.40076 0.0
H3434 H 0.69118 0.73266 0.37155 0.0
H3435 H 0.68937 0.73533 0.44453 0.0
C3436 C 0.67196 0.71252 0.31263 0.0
C3437 C 0.67437 0.70676 0.35932 0.0
C3438 C 0.67084 0.72254 0.31832 0.0
C3439 C 0.67214 0.72699 0.37067 0.0
C3440 C 0.67421 0.72125 0.41776 0.0
H3441 H 0.67683 0.78913 0.44054 0.0
H3442 H 0.675 0.77162 0.4536 0.0
C3443 C 0.67533 0.71123 0.41216 0.0
C3444 C 0.67168 0.73768 0.37518 0.0
H3445 H 0.6857 0.75769 0.39798 0.0
C3446 C 0.66294 0.74238 0.3621 0.0
C3447 C 0.67996 0.74324 0.38914 0.0
C3448 C 0.68961 0.73856 0.40192 0.0
C3449 C 0.66229 0.75254 0.36184 0.0
C3450 C 0.67065 0.75811 0.374 0.0
C3451 C 0.6793 0.7534 0.38879 0.0
C3452 C 0.67081 0.76879 0.36766 0.0
C3453 C 0.65267 0.75722 0.34843 0.0
C3454 C 0.66906 0.77298 0.31504 0.0
C3455 C 0.6701 0.78296 0.30738 0.0
C3456 C 0.67301 0.78895 0.35215 0.0
C3457 C 0.67458 0.78474 0.40516 0.0
C3458 C 0.67354 0.77474 0.41275 0.0
H3459 H 0.64652 0.75226 0.35759 0.0
H3460 H 0.65165 0.76403 0.37263 0.0
H3461 H 0.65243 0.75902 0.30307 0.0
H3462 H 0.66717 0.76849 0.27937 0.0
H3463 H 0.66885 0.78594 0.26594 0.0
H3464 H 0.45954 0.42185 0.52772 0.0
H3465 H 0.47704 0.41976 0.53725 0.0
H3466 H 0.47505 0.4261 0.71402 0.0
H3467 H 0.45751 0.42831 0.70499 0.0
H3468 H 0.48895 0.43704 0.65742 0.0
H3469 H 0.49305 0.39795 0.60843 0.0
H3470 H 0.48611 0.40448 0.5571 0.0
H3471 H 0.48154 0.4033 0.62744 0.0
C3472 C 0.46279 0.4227 0.56881 0.0
C3473 C 0.45711 0.42528 0.61556 0.0
C3474 C 0.47279 0.42143 0.57423 0.0
C3475 C 0.47731 0.42264 0.62648 0.0
C3476 C 0.47167 0.42507 0.67341 0.0
H3477 H 0.53941 0.42699 0.70307 0.0
H3478 H 0.52183 0.42542 0.71377 0.0
C3479 C 0.46166 0.42633 0.6681 0.0
C3480 C 0.488 0.42214 0.63098 0.0
H3481 H 0.5075 0.40757 0.6047 0.0
C3482 C 0.49302 0.43057 0.64674 0.0
C3483 C 0.49326 0.41368 0.61686 0.0
C3484 C 0.48822 0.40431 0.60201 0.0
C3485 C 0.50319 0.43089 0.64637 0.0
C3486 C 0.50845 0.4225 0.63084 0.0
C3487 C 0.50343 0.41399 0.61656 0.0
C3488 C 0.51915 0.42261 0.62582 0.0
C3489 C 0.5082 0.44034 0.66015 0.0
C3490 C 0.52347 0.42119 0.57322 0.0
C3491 C 0.5335 0.42201 0.56697 0.0
C3492 C 0.53941 0.42427 0.6133 0.0
C3493 C 0.53508 0.42533 0.66642 0.0
C3494 C 0.52503 0.42448 0.67262 0.0
H3495 H 0.50309 0.44658 0.6594 0.0
H3496 H 0.51137 0.43987 0.70284 0.0
H3497 H 0.51418 0.44179 0.63009 0.0
H3498 H 0.51904 0.41971 0.53664 0.0
H3499 H 0.53659 0.4211 0.52552 0.0
H3500 H 0.81943 0.28992 0.94316 0.0
H3501 H 0.82143 0.2724 0.95456 0.0
H3502 H 0.82918 0.26982 0.77993 0.0
H3503 H 0.82734 0.28729 0.76817 0.0
H3504 H 0.81081 0.25855 0.89772 0.0
H3505 H 0.85004 0.25357 0.85655 0.0
H3506 H 0.8448 0.26525 0.87276 0.0
H3507 H 0.84403 0.26042 0.80277 0.0
C3508 C 0.82169 0.28566 0.90733 0.0
C3509 C 0.8232 0.29002 0.85468 0.0
C3510 C 0.82284 0.27565 0.91398 0.0
C3511 C 0.82559 0.26984 0.86831 0.0
C3512 C 0.82728 0.2742 0.81604 0.0
H3513 H 0.82591 0.21058 0.76787 0.0
H3514 H 0.82766 0.2281 0.77921 0.0
C3515 C 0.82614 0.28419 0.80931 0.0
C3516 C 0.82586 0.25915 0.87371 0.0
H3517 H 0.84009 0.23931 0.84984 0.0
C3518 C 0.81725 0.25433 0.88819 0.0
C3519 C 0.83427 0.2537 0.86111 0.0
C3520 C 0.84383 0.2585 0.84796 0.0
C3521 C 0.81669 0.24418 0.88783 0.0
C3522 C 0.82502 0.23872 0.87349 0.0
C3523 C 0.83372 0.24353 0.86068 0.0
C3524 C 0.82467 0.22804 0.86829 0.0
C3525 C 0.80709 0.23938 0.9003 0.0
C3526 C 0.82262 0.22219 0.91496 0.0
C3527 C 0.82158 0.21217 0.90866 0.0
C3528 C 0.82261 0.20782 0.85555 0.0
C3529 C 0.82501 0.21369 0.8093 0.0
C3530 C 0.82604 0.2237 0.81568 0.0
H3531 H 0.80098 0.24463 0.89934 0.0
H3532 H 0.80558 0.2335 0.86963 0.0
H3533 H 0.80735 0.23609 0.94275 0.0
H3534 H 0.8217 0.2254 0.95609 0.0
H3535 H 0.81982 0.20786 0.94527 0.0
H3536 H 0.9606 0.42183 0.98755 0.0
H3537 H 0.97818 0.42021 0.97763 0.0
H3538 H 0.97573 0.42505 0.7995 0.0
H3539 H 0.95815 0.42679 0.80886 0.0
H3540 H 0.98964 0.40746 0.9099 0.0
H3541 H 0.99465 0.4463 0.85315 0.0
H3542 H 0.98354 0.44176 0.88333 0.0
H3543 H 0.9862 0.43964 0.81059 0.0
C3544 C 0.96378 0.4225 0.94617 0.0
C3545 C 0.95797 0.42455 0.8991 0.0
C3546 C 0.97382 0.42155 0.9406 0.0
C3547 C 0.97824 0.42266 0.888 0.0
C3548 C 0.97245 0.42434 0.84061 0.0
H3549 H 0.03994 0.42758 0.80836 0.0
H3550 H 0.02236 0.42561 0.79926 0.0
C3551 C 0.96241 0.42531 0.84608 0.0
C3552 C 0.98893 0.42237 0.88333 0.0
H3553 H 0.00864 0.43654 0.85544 0.0
C3554 C 0.99381 0.41379 0.89772 0.0
C3555 C 0.99432 0.43064 0.86724 0.0
C3556 C 0.98945 0.44015 0.85308 0.0
C3557 C 0.00398 0.41329 0.89689 0.0
C3558 C 0.00937 0.42164 0.88226 0.0
C3559 C 0.00448 0.43014 0.86649 0.0
C3560 C 0.02008 0.42196 0.88653 0.0
C3561 C 0.00885 0.40382 0.91161 0.0
C3562 C 0.02459 0.42056 0.93862 0.0
C3563 C 0.03461 0.42168 0.94402 0.0
C3564 C 0.04031 0.42431 0.89748 0.0
C3565 C 0.03577 0.42555 0.84508 0.0
C3566 C 0.02574 0.42443 0.83975 0.0
H3567 H 0.00392 0.39755 0.90474 0.0
H3568 H 0.01554 0.40272 0.88644 0.0
H3569 H 0.01089 0.40391 0.95664 0.0
H3570 H 0.02033 0.41888 0.97553 0.0
H3571 H 0.03784 0.42069 0.98503 0.0
H3572 H 0.81879 0.78781 0.06501 0.0
H3573 H 0.82084 0.7702 0.06609 0.0
H3574 H 0.82932 0.77143 0.24005 0.0
H3575 H 0.82719 0.78903 0.23975 0.0
H3576 H 0.83675 0.75799 0.09357 0.0
H3577 H 0.80572 0.75326 0.23999 0.0
H3578 H 0.80806 0.76453 0.20396 0.0
H3579 H 0.81506 0.76128 0.26474 0.0
C3580 C 0.82119 0.78437 0.10338 0.0
C3581 C 0.82271 0.78983 0.15248 0.0
C3582 C 0.82236 0.7743 0.10388 0.0
C3583 C 0.82506 0.76952 0.1534 0.0
C3584 C 0.82704 0.77498 0.20171 0.0
H3585 H 0.82742 0.70877 0.24647 0.0
H3586 H 0.8295 0.72635 0.24303 0.0
C3587 C 0.82584 0.78504 0.20137 0.0
C3588 C 0.82536 0.7588 0.15522 0.0
H3589 H 0.8146 0.7392 0.21651 0.0
C3590 C 0.83192 0.75386 0.12042 0.0
C3591 C 0.81901 0.75347 0.19018 0.0
C3592 C 0.8115 0.75838 0.2265 0.0
C3593 C 0.83238 0.74368 0.1202 0.0
C3594 C 0.82603 0.73836 0.15511 0.0
C3595 C 0.81951 0.74331 0.19005 0.0
C3596 C 0.82575 0.72763 0.15521 0.0
C3597 C 0.83974 0.73871 0.08322 0.0
C3598 C 0.82301 0.72253 0.10683 0.0
C3599 C 0.8218 0.71247 0.10859 0.0
C3600 C 0.82325 0.70734 0.15895 0.0
C3601 C 0.82622 0.71247 0.20701 0.0
C3602 C 0.82743 0.72253 0.20516 0.0
H3603 H 0.84568 0.74371 0.07076 0.0
H3604 H 0.84295 0.73232 0.10471 0.0
H3605 H 0.83611 0.73614 0.04444 0.0
H3606 H 0.82149 0.72636 0.06816 0.0
H3607 H 0.81947 0.70877 0.07086 0.0
H3608 H 0.45764 0.5697 0.30024 0.0
H3609 H 0.47519 0.57144 0.28856 0.0
H3610 H 0.47819 0.57741 0.4653 0.0
H3611 H 0.46068 0.57585 0.4774 0.0
H3612 H 0.48945 0.58963 0.3959 0.0
H3613 H 0.4943 0.5506 0.34292 0.0
H3614 H 0.48587 0.55715 0.2997 0.0
H3615 H 0.48321 0.55527 0.37266 0.0
C3616 C 0.46202 0.57144 0.3366 0.0
C3617 C 0.45776 0.57254 0.38988 0.0
C3618 C 0.47205 0.5724 0.32984 0.0
C3619 C 0.47798 0.57439 0.37624 0.0
C3620 C 0.47373 0.57583 0.42901 0.0
H3621 H 0.53748 0.57597 0.47389 0.0
H3622 H 0.52 0.57803 0.46359 0.0
C3623 C 0.46371 0.57491 0.43583 0.0
C3624 C 0.48867 0.57465 0.37066 0.0
H3625 H 0.50832 0.5603 0.34436 0.0
C3626 C 0.49359 0.58324 0.38426 0.0
C3627 C 0.49402 0.5663 0.35538 0.0
C3628 C 0.48912 0.55677 0.34223 0.0
C3629 C 0.50376 0.58368 0.38366 0.0
C3630 C 0.50911 0.57525 0.36995 0.0
C3631 C 0.50418 0.56675 0.35474 0.0
C3632 C 0.51981 0.57486 0.37467 0.0
C3633 C 0.50869 0.59314 0.39783 0.0
C3634 C 0.52549 0.5723 0.32816 0.0
C3635 C 0.53551 0.57105 0.33393 0.0
C3636 C 0.53999 0.57225 0.38651 0.0
C3637 C 0.53428 0.575 0.43277 0.0
C3638 C 0.52428 0.57626 0.4269 0.0
H3639 H 0.5038 0.59943 0.39063 0.0
H3640 H 0.51074 0.59311 0.44285 0.0
H3641 H 0.51539 0.59415 0.37258 0.0
H3642 H 0.52216 0.57113 0.28757 0.0
H3643 H 0.53968 0.56895 0.29741 0.0
H3644 H 0.67145 0.20824 0.73089 0.0
H3645 H 0.66962 0.22585 0.72913 0.0
H3646 H 0.67655 0.22615 0.55277 0.0
H3647 H 0.67834 0.20853 0.55384 0.0
H3648 H 0.68457 0.23865 0.69955 0.0
H3649 H 0.65237 0.24362 0.56229 0.0
H3650 H 0.65524 0.23218 0.59523 0.0
H3651 H 0.66174 0.23601 0.53379 0.0
C3652 C 0.67247 0.21201 0.69147 0.0
C3653 C 0.67505 0.20694 0.64246 0.0
C3654 C 0.67141 0.22208 0.6906 0.0
C3655 C 0.67284 0.22728 0.64071 0.0
C3656 C 0.67522 0.22225 0.59146 0.0
H3657 H 0.67803 0.28863 0.56427 0.0
H3658 H 0.67668 0.27094 0.55924 0.0
C3659 C 0.67629 0.21217 0.59226 0.0
C3660 C 0.67263 0.23801 0.64143 0.0
H3661 H 0.66121 0.25783 0.5865 0.0
C3662 C 0.67943 0.24285 0.67513 0.0
C3663 C 0.66597 0.24344 0.60907 0.0
C3664 C 0.65836 0.23857 0.57335 0.0
C3665 C 0.67981 0.253 0.67696 0.0
C3666 C 0.67309 0.25844 0.64506 0.0
C3667 C 0.66632 0.25362 0.61102 0.0
C3668 C 0.67302 0.26916 0.64687 0.0
C3669 C 0.68754 0.25781 0.71216 0.0
C3670 C 0.67111 0.274 0.6974 0.0
C3671 C 0.67191 0.28408 0.70054 0.0
C3672 C 0.67457 0.28952 0.65301 0.0
C3673 C 0.67602 0.28467 0.60172 0.0
C3674 C 0.67524 0.27457 0.59871 0.0
H3675 H 0.69355 0.25273 0.72238 0.0
H3676 H 0.69061 0.26422 0.6903 0.0
H3677 H 0.68429 0.2603 0.75222 0.0
H3678 H 0.6692 0.26996 0.73476 0.0
H3679 H 0.67063 0.28758 0.74056 0.0
H3680 H 0.3267 0.28758 0.72725 0.0
H3681 H 0.3284 0.27002 0.71854 0.0
H3682 H 0.32069 0.27176 0.54351 0.0
H3683 H 0.31879 0.28931 0.55192 0.0
H3684 H 0.30999 0.25825 0.60263 0.0
H3685 H 0.34925 0.25335 0.64413 0.0
H3686 H 0.34318 0.26042 0.6967 0.0
H3687 H 0.34404 0.26496 0.62613 0.0
C3688 C 0.32547 0.28427 0.68668 0.0
C3689 C 0.32262 0.28988 0.64023 0.0
C3690 C 0.32653 0.27422 0.6817 0.0
C3691 C 0.32482 0.26961 0.63017 0.0
C3692 C 0.32212 0.2752 0.58353 0.0
H3693 H 0.3191 0.2077 0.55288 0.0
H3694 H 0.32087 0.22527 0.54305 0.0
C3695 C 0.32106 0.28524 0.58843 0.0
C3696 C 0.32505 0.2589 0.62625 0.0
H3697 H 0.33936 0.2391 0.64977 0.0
C3698 C 0.31644 0.25405 0.61215 0.0
C3699 C 0.33348 0.25347 0.63883 0.0
C3700 C 0.34304 0.25831 0.65178 0.0
C3701 C 0.31592 0.24389 0.61246 0.0
C3702 C 0.32429 0.23846 0.62633 0.0
C3703 C 0.33297 0.2433 0.63917 0.0
C3704 C 0.324 0.22776 0.63082 0.0
C3705 C 0.30632 0.23907 0.60024 0.0
C3706 C 0.32552 0.22333 0.68302 0.0
C3707 C 0.32457 0.2133 0.68877 0.0
C3708 C 0.32211 0.2075 0.64231 0.0
C3709 C 0.32094 0.21194 0.58959 0.0
C3710 C 0.3219 0.22199 0.5839 0.0
H3711 H 0.30018 0.24429 0.60203 0.0
H3712 H 0.30652 0.23589 0.55749 0.0
H3713 H 0.3049 0.23311 0.63051 0.0
H3714 H 0.32718 0.22768 0.71967 0.0
H3715 H 0.32559 0.21013 0.72993 0.0
H3716 H 0.17056 0.70897 0.24565 0.0
H3717 H 0.16895 0.72658 0.24066 0.0
H3718 H 0.17686 0.72592 0.06568 0.0
H3719 H 0.17837 0.70826 0.06989 0.0
H3720 H 0.18398 0.7391 0.21312 0.0
H3721 H 0.15297 0.74364 0.06659 0.0
H3722 H 0.15558 0.73228 0.10122 0.0
H3723 H 0.16254 0.73597 0.04115 0.0
C3724 C 0.17184 0.71253 0.20586 0.0
C3725 C 0.17462 0.70719 0.15819 0.0
C3726 C 0.17091 0.7226 0.20312 0.0
C3727 C 0.17268 0.72753 0.1527 0.0
C3728 C 0.17527 0.72223 0.10473 0.0
H3729 H 0.17901 0.78847 0.06939 0.0
H3730 H 0.17762 0.77079 0.06669 0.0
C3731 C 0.17619 0.71214 0.10736 0.0
C3732 C 0.17256 0.73827 0.15168 0.0
H3733 H 0.1617 0.75791 0.09097 0.0
C3734 C 0.17907 0.74322 0.18668 0.0
C3735 C 0.16619 0.74359 0.11676 0.0
C3736 C 0.15886 0.73862 0.0796 0.0
C3737 C 0.17946 0.75337 0.18739 0.0
C3738 C 0.17305 0.75871 0.15286 0.0
C3739 C 0.16658 0.75378 0.1175 0.0
C3740 C 0.17303 0.76944 0.1531 0.0
C3741 C 0.18688 0.75831 0.22427 0.0
C3742 C 0.17064 0.77452 0.20213 0.0
C3743 C 0.17144 0.78461 0.20391 0.0
C3744 C 0.17459 0.78982 0.15649 0.0
C3745 C 0.17657 0.78471 0.10666 0.0
C3746 C 0.17578 0.7746 0.10499 0.0
H3747 H 0.19274 0.75325 0.23728 0.0
H3748 H 0.19021 0.76459 0.20239 0.0
H3749 H 0.18326 0.76103 0.26276 0.0
H3750 H 0.16834 0.77066 0.2394 0.0
H3751 H 0.16976 0.78831 0.24283 0.0
H3752 H 0.17034 0.28655 0.76832 0.0
H3753 H 0.16855 0.26908 0.78029 0.0
H3754 H 0.17635 0.27173 0.95481 0.0
H3755 H 0.17832 0.28925 0.94317 0.0
H3756 H 0.18695 0.25784 0.89814 0.0
H3757 H 0.1477 0.25289 0.8574 0.0
H3758 H 0.15371 0.25969 0.80344 0.0
H3759 H 0.15296 0.26458 0.87332 0.0
C3760 C 0.17157 0.28347 0.80948 0.0
C3761 C 0.1745 0.28932 0.85476 0.0
C3762 C 0.17046 0.27347 0.81633 0.0
C3763 C 0.17217 0.26914 0.86863 0.0
C3764 C 0.17493 0.27496 0.9142 0.0
H3765 H 0.1778 0.20722 0.94804 0.0
H3766 H 0.17602 0.22479 0.95805 0.0
C3767 C 0.17604 0.28497 0.90742 0.0
C3768 C 0.1719 0.25845 0.87424 0.0
H3769 H 0.15762 0.23861 0.85132 0.0
C3770 C 0.1805 0.25362 0.88881 0.0
C3771 C 0.16347 0.253 0.86192 0.0
C3772 C 0.15391 0.25781 0.84868 0.0
C3773 C 0.18103 0.24346 0.88888 0.0
C3774 C 0.17269 0.23801 0.87487 0.0
C3775 C 0.164 0.24283 0.86191 0.0
C3776 C 0.17301 0.22732 0.87018 0.0
C3777 C 0.19063 0.23866 0.90146 0.0
C3778 C 0.17159 0.22291 0.81782 0.0
C3779 C 0.17255 0.21288 0.81191 0.0
C3780 C 0.17495 0.20707 0.8584 0.0
C3781 C 0.17604 0.21149 0.91127 0.0
C3782 C 0.17506 0.22153 0.91709 0.0
H3783 H 0.19676 0.24389 0.90016 0.0
H3784 H 0.19038 0.23543 0.94408 0.0
H3785 H 0.19211 0.23273 0.87107 0.0
H3786 H 0.16997 0.22727 0.78116 0.0
H3787 H 0.17161 0.20973 0.77065 0.0
H3788 H 0.32546 0.70924 0.26063 0.0
H3789 H 0.3271 0.72683 0.26816 0.0
H3790 H 0.32033 0.72532 0.44455 0.0
H3791 H 0.3185 0.70774 0.43737 0.0
H3792 H 0.30929 0.73876 0.38644 0.0
H3793 H 0.34836 0.74355 0.33846 0.0
H3794 H 0.34198 0.73644 0.28731 0.0
H3795 H 0.34323 0.73197 0.35782 0.0
C3796 C 0.32442 0.71262 0.30122 0.0
C3797 C 0.32185 0.70705 0.34844 0.0
C3798 C 0.32544 0.72267 0.3055 0.0
C3799 C 0.32398 0.72735 0.35709 0.0
C3800 C 0.32156 0.72182 0.40445 0.0
H3801 H 0.31911 0.7889 0.44109 0.0
H3802 H 0.32066 0.77126 0.44734 0.0
C3803 C 0.32053 0.71177 0.40024 0.0
C3804 C 0.32424 0.73806 0.36056 0.0
H3805 H 0.33853 0.75783 0.33563 0.0
C3806 C 0.31571 0.74294 0.37601 0.0
C3807 C 0.33263 0.74347 0.34672 0.0
C3808 C 0.3421 0.7386 0.33214 0.0
C3809 C 0.31524 0.7531 0.37618 0.0
C3810 C 0.32357 0.75851 0.36144 0.0
C3811 C 0.33216 0.75364 0.34689 0.0
C3812 C 0.32338 0.76922 0.35873 0.0
C3813 C 0.30572 0.75795 0.39015 0.0
C3814 C 0.32474 0.77392 0.30717 0.0
C3815 C 0.32391 0.784 0.30342 0.0
C3816 C 0.32174 0.78956 0.35129 0.0
C3817 C 0.32071 0.78484 0.4033 0.0
C3818 C 0.32155 0.77476 0.40697 0.0
H3819 H 0.29953 0.75279 0.38823 0.0
H3820 H 0.30608 0.76092 0.43336 0.0
H3821 H 0.30425 0.76406 0.36097 0.0
H3822 H 0.32619 0.76976 0.26951 0.0
H3823 H 0.32479 0.78739 0.26276 0.0
H3824 H 0.53673 0.07611 0.52716 0.0
H3825 H 0.51925 0.07816 0.53843 0.0
H3826 H 0.52179 0.07186 0.715 0.0
H3827 H 0.53931 0.06969 0.70419 0.0
H3828 H 0.50783 0.06077 0.65934 0.0
H3829 H 0.50322 0.09981 0.61126 0.0
H3830 H 0.51017 0.09343 0.55938 0.0
H3831 H 0.51481 0.09458 0.6296 0.0
C3832 C 0.53361 0.07527 0.56858 0.0
C3833 C 0.53943 0.07271 0.61476 0.0
C3834 C 0.52362 0.07652 0.575 0.0
C3835 C 0.51926 0.07529 0.62769 0.0
C3836 C 0.52505 0.07291 0.67408 0.0
H3837 H 0.45694 0.06996 0.69994 0.0
H3838 H 0.47445 0.07179 0.71322 0.0
C3839 C 0.53505 0.07168 0.66777 0.0
C3840 C 0.50858 0.07568 0.63301 0.0
H3841 H 0.48889 0.08997 0.6064 0.0
C3842 C 0.50367 0.06719 0.64871 0.0
C3843 C 0.50321 0.08408 0.61903 0.0
C3844 C 0.50812 0.09353 0.60438 0.0
C3845 C 0.49351 0.06671 0.64801 0.0
C3846 C 0.48814 0.07502 0.6322 0.0
C3847 C 0.49304 0.08362 0.61841 0.0
C3848 C 0.47747 0.0747 0.62574 0.0
C3849 C 0.48863 0.05719 0.66149 0.0
C3850 C 0.47335 0.07607 0.57256 0.0
C3851 C 0.46337 0.0751 0.56483 0.0
C3852 C 0.4573 0.07274 0.61026 0.0
C3853 C 0.46141 0.0717 0.66396 0.0
C3854 C 0.47142 0.0727 0.67163 0.0
H3855 H 0.49385 0.05104 0.66152 0.0
H3856 H 0.4853 0.05763 0.70378 0.0
H3857 H 0.48279 0.0556 0.63078 0.0
H3858 H 0.47791 0.07765 0.53665 0.0
H3859 H 0.46045 0.07599 0.52296 0.0
H3860 H 0.03875 0.92004 0.0068 0.0
H3861 H 0.02116 0.91804 0.00873 0.0
H3862 H 0.02069 0.92611 0.18346 0.0
H3863 H 0.03835 0.92802 0.18237 0.0
H3864 H 0.00831 0.91009 0.15489 0.0
H3865 H 0.00308 0.94186 0.01457 0.0
H3866 H 0.01111 0.93271 0.98769 0.0
H3867 H 0.01444 0.93941 0.04948 0.0
C3868 C 0.03494 0.92133 0.04583 0.0
C3869 C 0.03995 0.92431 0.09428 0.0
C3870 C 0.02488 0.92021 0.04676 0.0
C3871 C 0.01964 0.9221 0.09594 0.0
C3872 C 0.02463 0.92467 0.14501 0.0
H3873 H 0.95893 0.92662 0.18306 0.0
H3874 H 0.97653 0.92473 0.18474 0.0
C3875 C 0.03471 0.92578 0.14423 0.0
C3876 C 0.00891 0.92183 0.09541 0.0
H3877 H 0.98912 0.93275 0.03723 0.0
C3878 C 0.00409 0.91504 0.12926 0.0
C3879 C 0.00346 0.92832 0.06198 0.0
C3880 C 0.00826 0.93605 0.02671 0.0
C3881 C 0.99391 0.91447 0.12986 0.0
C3882 C 0.98848 0.92097 0.09638 0.0
C3883 C 0.99332 0.92774 0.06254 0.0
C3884 C 0.97774 0.92112 0.09668 0.0
C3885 C 0.98908 0.90684 0.16557 0.0
C3886 C 0.97259 0.91977 0.04653 0.0
C3887 C 0.96253 0.92091 0.04529 0.0
C3888 C 0.95743 0.92349 0.0942 0.0
C3889 C 0.9626 0.92459 0.1447 0.0
C3890 C 0.97267 0.92346 0.14585 0.0
H3891 H 0.99415 0.90087 0.17639 0.0
H3892 H 0.98657 0.91021 0.20529 0.0
H3893 H 0.98267 0.90373 0.14386 0.0
H3894 H 0.9764 0.91802 0.00806 0.0
H3895 H 0.95879 0.91998 0.00568 0.0
H3896 H 0.53912 0.92909 0.31078 0.0
H3897 H 0.52145 0.9281 0.30124 0.0
H3898 H 0.51911 0.91919 0.47404 0.0
H3899 H 0.53669 0.92019 0.48429 0.0
H3900 H 0.50775 0.91223 0.32419 0.0
H3901 H 0.50264 0.94446 0.46094 0.0
H3902 H 0.51416 0.94147 0.42926 0.0
H3903 H 0.5101 0.93509 0.49065 0.0
C3904 C 0.53486 0.92683 0.34663 0.0
C3905 C 0.53932 0.92483 0.3985 0.0
C3906 C 0.52478 0.92626 0.34102 0.0
C3907 C 0.51901 0.92372 0.38717 0.0
C3908 C 0.52345 0.9213 0.43819 0.0
H3909 H 0.45894 0.92143 0.47581 0.0
H3910 H 0.47652 0.92 0.46906 0.0
C3911 C 0.53351 0.92187 0.44389 0.0
C3912 C 0.50832 0.92403 0.38321 0.0
H3913 H 0.48852 0.93554 0.43741 0.0
C3914 C 0.50351 0.91735 0.34855 0.0
C3915 C 0.50287 0.93079 0.41481 0.0
C3916 C 0.50768 0.93843 0.45066 0.0
C3917 C 0.49333 0.91701 0.34635 0.0
C3918 C 0.48789 0.92362 0.37912 0.0
C3919 C 0.49272 0.93044 0.41269 0.0
C3920 C 0.47716 0.92351 0.3807 0.0
C3921 C 0.48846 0.90943 0.31047 0.0
C3922 C 0.47169 0.92586 0.33298 0.0
C3923 C 0.46159 0.92669 0.33662 0.0
C3924 C 0.45683 0.92525 0.38821 0.0
C3925 C 0.46235 0.92263 0.43547 0.0
C3926 C 0.47241 0.9218 0.43174 0.0
H3927 H 0.49359 0.90365 0.2973 0.0
H3928 H 0.48231 0.90604 0.33332 0.0
H3929 H 0.48551 0.91292 0.27215 0.0
H3930 H 0.47525 0.92736 0.29342 0.0
H3931 H 0.45756 0.92874 0.29945 0.0
H3932 H 0.03867 0.07018 0.80325 0.0
H3933 H 0.02111 0.07213 0.7933 0.0
H3934 H 0.01898 0.08003 0.96793 0.0
H3935 H 0.03648 0.07825 0.97821 0.0
H3936 H 0.00758 0.06143 0.85157 0.0
H3937 H 0.0022 0.10059 0.89296 0.0
H3938 H 0.01391 0.0955 0.87579 0.0
H3939 H 0.00928 0.09471 0.94623 0.0
C3940 C 0.03449 0.07249 0.83934 0.0
C3941 C 0.03899 0.07403 0.89159 0.0
C3942 C 0.02446 0.0736 0.83353 0.0
C3943 C 0.01877 0.07635 0.87967 0.0
C3944 C 0.02326 0.07812 0.93146 0.0
H3945 H 0.95972 0.07587 0.98582 0.0
H3946 H 0.9772 0.07782 0.9733 0.0
C3947 C 0.03327 0.07701 0.93734 0.0
C3948 C 0.00806 0.07649 0.8754 0.0
H3949 H 0.9881 0.09044 0.90164 0.0
C3950 C 0.00331 0.06781 0.86157 0.0
C3951 C 0.00253 0.08482 0.88867 0.0
C3952 C 0.00724 0.09446 0.90121 0.0
C3953 C 0.99316 0.06711 0.86315 0.0
C3954 C 0.98764 0.07537 0.8781 0.0
C3955 C 0.99237 0.08413 0.89035 0.0
C3956 C 0.97698 0.07487 0.88417 0.0
C3957 C 0.98846 0.05744 0.85126 0.0
C3958 C 0.97106 0.07278 0.8379 0.0
C3959 C 0.96106 0.07162 0.84488 0.0
C3960 C 0.95681 0.07259 0.89829 0.0
C3961 C 0.96275 0.07503 0.94418 0.0
C3962 C 0.97274 0.07617 0.93712 0.0
H3963 H 0.99379 0.05139 0.85178 0.0
H3964 H 0.98269 0.05586 0.88251 0.0
H3965 H 0.98504 0.05764 0.80913 0.0
H3966 H 0.97419 0.07191 0.79652 0.0
H3967 H 0.9567 0.06983 0.80852 0.0
loop_
_geom_bond_atom_site_label_1
_geom_bond_atom_site_label_2
_geom_bond_distance
_geom_bond_site_symmetry_2
_ccdc_geom_bond_type
Co0 O3 1.970 . S
Co0 N17 1.989 . S
Co0 O25 1.967 . S
Co0 O32 1.920 1_554 S
Co1 O4 1.966 . S
Co1 N10 2.022 . S
Co1 N18 1.993 . S
Co1 O26 1.941 . S
C2 O3 1.258 . S
C2 O4 1.263 . S
O3 Co0 1.970 . S
O3 C2 1.258 . S
O4 Co1 1.966 . S
O4 C2 1.263 . S
C5 O6 1.235 . S
C5 O32 1.289 . S
O6 C5 1.235 . S
C7 C9 1.400 . S
C7 N10 1.351 . S
C7 C12 1.501 . S
C8 C9 1.387 . S
C8 N11 1.341 . S
C9 C7 1.400 . S
C9 C8 1.387 . S
N10 Co1 2.022 . S
N10 C7 1.351 . S
N10 N11 1.365 . S
N11 C8 1.341 . S
N11 N10 1.365 . S
N11 H31 0.862 . S
C12 C7 1.501 . S
C12 H13 0.961 . S
C12 H14 0.961 . S
C12 H15 0.960 . S
H13 C12 0.961 . S
H14 C12 0.961 . S
H15 C12 0.960 . S
C16 N17 1.342 . S
C16 C20 1.401 . S
C16 C21 1.499 1_554 S
N17 Co0 1.989 . S
N17 C16 1.342 . S
N17 N18 1.388 . S
N18 Co1 1.993 . S
N18 N17 1.388 . S
N18 C19 1.346 . S
C19 N18 1.346 . S
C19 C20 1.396 . S
C19 C29 1.510 . S
C20 C16 1.401 . S
C20 C19 1.396 . S
C21 C16 1.499 1_556 S
C21 H22 0.959 . S
C21 H23 0.960 . S
C21 H24 0.961 . S
H22 C21 0.959 . S
H23 C21 0.960 . S
H24 C21 0.961 . S
O25 Co0 1.967 . S
O25 C33 1.258 . S
O26 Co1 1.941 . S
O26 C33 1.266 . S
H27 C29 0.959 . S
H28 C29 0.961 . S
C29 C19 1.510 . S
C29 H27 0.959 . S
C29 H28 0.961 . S
C29 H30 0.960 . S
H30 C29 0.960 . S
H31 N11 0.862 . S
O32 Co0 1.920 1_556 S
O32 C5 1.289 . S
C33 O25 1.258 . S
C33 O26 1.266 . S
Co34 O37 1.970 . S
Co34 N51 1.989 . S
Co34 O59 1.967 . S
Co34 O66 1.920 . S
Co35 O38 1.966 . S
Co35 N44 2.022 . S
Co35 N52 1.993 . S
Co35 O60 1.941 . S
C36 O37 1.258 . S
C36 O38 1.263 . S
O37 Co34 1.970 . S
O37 C36 1.258 . S
O38 Co35 1.966 . S
O38 C36 1.263 . S
C39 O40 1.235 . S
C39 O66 1.289 . S
O40 C39 1.235 . S
C41 C43 1.400 . S
C41 N44 1.351 . S
C41 C46 1.501 . S
C42 C43 1.387 . S
C42 N45 1.341 . S
C43 C41 1.400 . S
C43 C42 1.387 . S
N44 Co35 2.022 . S
N44 C41 1.351 . S
N44 N45 1.365 . S
N45 C42 1.341 . S
N45 N44 1.365 . S
N45 H65 0.862 . S
C46 C41 1.501 . S
C46 H47 0.961 . S
C46 H48 0.961 . S
C46 H49 0.960 . S
H47 C46 0.961 . S
H48 C46 0.961 . S
H49 C46 0.960 . S
C50 N51 1.342 . S
C50 C54 1.401 . S
C50 C55 1.499 . S
N51 Co34 1.989 . S
N51 C50 1.342 . S
N51 N52 1.388 . S
N52 Co35 1.993 . S
N52 N51 1.388 . S
N52 C53 1.346 . S
C53 N52 1.346 . S
C53 C54 1.396 . S
C53 C63 1.510 . S
C54 C50 1.401 . S
C54 C53 1.396 . S
C55 C50 1.499 . S
C55 H56 0.959 . S
C55 H57 0.960 . S
C55 H58 0.961 . S
H56 C55 0.959 . S
H57 C55 0.960 . S
H58 C55 0.961 . S
O59 Co34 1.967 . S
O59 C67 1.258 . S
O60 Co35 1.941 . S
O60 C67 1.266 . S
H61 C63 0.959 . S
H62 C63 0.961 . S
C63 C53 1.510 . S
C63 H61 0.959 . S
C63 H62 0.961 . S
C63 H64 0.960 . S
H64 C63 0.960 . S
H65 N45 0.862 . S
O66 Co34 1.920 . S
O66 C39 1.289 . S
C67 O59 1.258 . S
C67 O60 1.266 . S
Co68 O71 1.970 . S
Co68 N85 1.989 . S
Co68 O93 1.967 . S
Co68 O100 1.920 . S
Co69 O72 1.966 . S
Co69 N78 2.022 . S
Co69 N86 1.993 . S
Co69 O94 1.941 . S
C70 O71 1.258 . S
C70 O72 1.263 . S
O71 Co68 1.970 . S
O71 C70 1.258 . S
O72 Co69 1.966 . S
O72 C70 1.263 . S
C73 O74 1.235 . S
C73 O100 1.289 . S
O74 C73 1.235 . S
C75 C77 1.400 . S
C75 N78 1.351 . S
C75 C80 1.501 . S
C76 C77 1.387 . S
C76 N79 1.341 . S
C77 C75 1.400 . S
C77 C76 1.387 . S
N78 Co69 2.022 . S
N78 C75 1.351 . S
N78 N79 1.365 . S
N79 C76 1.341 . S
N79 N78 1.365 . S
N79 H99 0.862 . S
C80 C75 1.501 . S
C80 H81 0.961 . S
C80 H82 0.961 . S
C80 H83 0.960 . S
H81 C80 0.961 . S
H82 C80 0.961 . S
H83 C80 0.960 . S
C84 N85 1.342 . S
C84 C88 1.401 . S
C84 C89 1.499 . S
N85 Co68 1.989 . S
N85 C84 1.342 . S
N85 N86 1.388 . S
N86 Co69 1.993 . S
N86 N85 1.388 . S
N86 C87 1.346 . S
C87 N86 1.346 . S
C87 C88 1.396 . S
C87 C97 1.510 . S
C88 C84 1.401 . S
C88 C87 1.396 . S
C89 C84 1.499 . S
C89 H90 0.959 . S
C89 H91 0.960 . S
C89 H92 0.961 . S
H90 C89 0.959 . S
H91 C89 0.960 . S
H92 C89 0.961 . S
O93 Co68 1.967 . S
O93 C101 1.258 . S
O94 Co69 1.941 . S
O94 C101 1.266 . S
H95 C97 0.959 . S
H96 C97 0.961 . S
C97 C87 1.510 . S
C97 H95 0.959 . S
C97 H96 0.961 . S
C97 H98 0.960 . S
H98 C97 0.960 . S
H99 N79 0.862 . S
O100 Co68 1.920 . S
O100 C73 1.289 . S
C101 O93 1.258 . S
C101 O94 1.266 . S
Co102 O105 1.970 . S
Co102 N119 1.989 . S
Co102 O127 1.967 . S
Co102 O134 1.920 . S
Co103 O106 1.966 . S
Co103 N112 2.022 . S
Co103 N120 1.993 . S
Co103 O128 1.941 . S
C104 O105 1.258 . S
C104 O106 1.263 . S
O105 Co102 1.970 . S
O105 C104 1.258 . S
O106 Co103 1.966 . S
O106 C104 1.263 . S
C107 O108 1.235 . S
C107 O134 1.289 . S
O108 C107 1.235 . S
C109 C111 1.400 . S
C109 N112 1.351 1_554 S
C109 C114 1.501 . S
C110 C111 1.387 . S
C110 N113 1.341 . S
C111 C109 1.400 . S
C111 C110 1.387 . S
N112 Co103 2.022 . S
N112 C109 1.351 1_556 S
N112 N113 1.365 1_556 S
N113 C110 1.341 . S
N113 N112 1.365 1_554 S
N113 H133 0.862 . S
C114 C109 1.501 . S
C114 H115 0.961 1_554 S
C114 H116 0.961 . S
C114 H117 0.960 . S
H115 C114 0.961 1_556 S
H116 C114 0.961 . S
H117 C114 0.960 . S
C118 N119 1.342 . S
C118 C122 1.401 . S
C118 C123 1.499 . S
N119 Co102 1.989 . S
N119 C118 1.342 . S
N119 N120 1.388 . S
N120 Co103 1.993 . S
N120 N119 1.388 . S
N120 C121 1.346 . S
C121 N120 1.346 . S
C121 C122 1.396 . S
C121 C131 1.510 . S
C122 C118 1.401 . S
C122 C121 1.396 . S
C123 C118 1.499 . S
C123 H124 0.959 . S
C123 H125 0.960 . S
C123 H126 0.961 . S
H124 C123 0.959 . S
H125 C123 0.960 . S
H126 C123 0.961 . S
O127 Co102 1.967 . S
O127 C135 1.258 . S
O128 Co103 1.941 . S
O128 C135 1.266 . S
H129 C131 0.959 . S
H130 C131 0.961 . S
C131 C121 1.510 . S
C131 H129 0.959 . S
C131 H130 0.961 . S
C131 H132 0.960 . S
H132 C131 0.960 . S
H133 N113 0.862 . S
O134 Co102 1.920 . S
O134 C107 1.289 . S
C135 O127 1.258 . S
C135 O128 1.266 . S
Co136 O139 1.970 . S
Co136 N153 1.989 . S
Co136 O161 1.967 . S
Co136 O168 1.920 1_556 S
Co137 O140 1.966 . S
Co137 N146 2.022 . S
Co137 N154 1.993 . S
Co137 O162 1.941 . S
C138 O139 1.258 . S
C138 O140 1.263 . S
O139 Co136 1.970 . S
O139 C138 1.258 . S
O140 Co137 1.966 . S
O140 C138 1.263 . S
C141 O142 1.235 . S
C141 O168 1.289 . S
O142 C141 1.235 . S
C143 C145 1.400 . S
C143 N146 1.351 . S
C143 C148 1.501 . S
C144 C145 1.387 . S
C144 N147 1.341 . S
C145 C143 1.400 . S
C145 C144 1.387 . S
N146 Co137 2.022 . S
N146 C143 1.351 . S
N146 N147 1.365 . S
N147 C144 1.341 . S
N147 N146 1.365 . S
N147 H167 0.862 . S
C148 C143 1.501 . S
C148 H149 0.961 . S
C148 H150 0.961 . S
C148 H151 0.960 . S
H149 C148 0.961 . S
H150 C148 0.961 . S
H151 C148 0.960 . S
C152 N153 1.342 . S
C152 C156 1.401 . S
C152 C157 1.499 1_556 S
N153 Co136 1.989 . S
N153 C152 1.342 . S
N153 N154 1.388 . S
N154 Co137 1.993 . S
N154 N153 1.388 . S
N154 C155 1.346 . S
C155 N154 1.346 . S
C155 C156 1.396 . S
C155 C165 1.510 . S
C156 C152 1.401 . S
C156 C155 1.396 . S
C157 C152 1.499 1_554 S
C157 H158 0.959 . S
C157 H159 0.960 . S
C157 H160 0.961 . S
H158 C157 0.959 . S
H159 C157 0.960 . S
H160 C157 0.961 . S
O161 Co136 1.967 . S
O161 C169 1.258 . S
O162 Co137 1.941 . S
O162 C169 1.266 . S
H163 C165 0.959 . S
H164 C165 0.961 . S
C165 C155 1.510 . S
C165 H163 0.959 . S
C165 H164 0.961 . S
C165 H166 0.960 . S
H166 C165 0.960 . S
H167 N147 0.862 . S
O168 Co136 1.920 1_554 S
O168 C141 1.289 . S
C169 O161 1.258 . S
C169 O162 1.266 . S
Co170 O173 1.970 . S
Co170 N187 1.989 . S
Co170 O195 1.967 . S
Co170 O202 1.920 . S
Co171 O174 1.966 . S
Co171 N180 2.022 . S
Co171 N188 1.993 . S
Co171 O196 1.941 . S
C172 O173 1.258 . S
C172 O174 1.263 . S
O173 Co170 1.970 . S
O173 C172 1.258 . S
O174 Co171 1.966 . S
O174 C172 1.263 . S
C175 O176 1.235 . S
C175 O202 1.289 . S
O176 C175 1.235 . S
C177 C179 1.400 . S
C177 N180 1.351 1_556 S
C177 C182 1.501 . S
C178 C179 1.387 . S
C178 N181 1.341 . S
C179 C177 1.400 . S
C179 C178 1.387 . S
N180 Co171 2.022 . S
N180 C177 1.351 1_554 S
N180 N181 1.365 1_554 S
N181 C178 1.341 . S
N181 N180 1.365 1_556 S
N181 H201 0.862 . S
C182 C177 1.501 . S
C182 H183 0.961 1_556 S
C182 H184 0.961 . S
C182 H185 0.960 . S
H183 C182 0.961 1_554 S
H184 C182 0.961 . S
H185 C182 0.960 . S
C186 N187 1.342 . S
C186 C190 1.401 . S
C186 C191 1.499 . S
N187 Co170 1.989 . S
N187 C186 1.342 . S
N187 N188 1.388 . S
N188 Co171 1.993 . S
N188 N187 1.388 . S
N188 C189 1.346 . S
C189 N188 1.346 . S
C189 C190 1.396 . S
C189 C199 1.510 . S
C190 C186 1.401 . S
C190 C189 1.396 . S
C191 C186 1.499 . S
C191 H192 0.959 . S
C191 H193 0.960 . S
C191 H194 0.961 . S
H192 C191 0.959 . S
H193 C191 0.960 . S
H194 C191 0.961 . S
O195 Co170 1.967 . S
O195 C203 1.258 . S
O196 Co171 1.941 . S
O196 C203 1.266 . S
H197 C199 0.959 . S
H198 C199 0.961 . S
C199 C189 1.510 . S
C199 H197 0.959 . S
C199 H198 0.961 . S
C199 H200 0.960 . S
H200 C199 0.960 . S
H201 N181 0.862 . S
O202 Co170 1.920 . S
O202 C175 1.289 . S
C203 O195 1.258 . S
C203 O196 1.266 . S
Co204 O207 1.970 . S
Co204 N221 1.989 . S
Co204 O229 1.967 . S
Co204 O236 1.920 . S
Co205 O208 1.966 . S
Co205 N214 2.022 . S
Co205 N222 1.993 . S
Co205 O230 1.941 . S
C206 O207 1.258 . S
C206 O208 1.263 . S
O207 Co204 1.970 . S
O207 C206 1.258 . S
O208 Co205 1.966 . S
O208 C206 1.263 . S
C209 O210 1.235 . S
C209 O236 1.289 . S
O210 C209 1.235 . S
C211 C213 1.400 . S
C211 N214 1.351 . S
C211 C216 1.501 . S
C212 C213 1.387 . S
C212 N215 1.341 . S
C213 C211 1.400 . S
C213 C212 1.387 . S
N214 Co205 2.022 . S
N214 C211 1.351 . S
N214 N215 1.365 . S
N215 C212 1.341 . S
N215 N214 1.365 . S
N215 H235 0.862 . S
C216 C211 1.501 . S
C216 H217 0.961 . S
C216 H218 0.961 . S
C216 H219 0.960 . S
H217 C216 0.961 . S
H218 C216 0.961 . S
H219 C216 0.960 . S
C220 N221 1.342 . S
C220 C224 1.401 . S
C220 C225 1.499 . S
N221 Co204 1.989 . S
N221 C220 1.342 . S
N221 N222 1.388 . S
N222 Co205 1.993 . S
N222 N221 1.388 . S
N222 C223 1.346 . S
C223 N222 1.346 . S
C223 C224 1.396 . S
C223 C233 1.510 . S
C224 C220 1.401 . S
C224 C223 1.396 . S
C225 C220 1.499 . S
C225 H226 0.959 . S
C225 H227 0.960 . S
C225 H228 0.961 . S
H226 C225 0.959 . S
H227 C225 0.960 . S
H228 C225 0.961 . S
O229 Co204 1.967 . S
O229 C237 1.258 . S
O230 Co205 1.941 . S
O230 C237 1.266 . S
H231 C233 0.959 . S
H232 C233 0.961 . S
C233 C223 1.510 . S
C233 H231 0.959 . S
C233 H232 0.961 . S
C233 H234 0.960 . S
H234 C233 0.960 . S
H235 N215 0.862 . S
O236 Co204 1.920 . S
O236 C209 1.289 . S
C237 O229 1.258 . S
C237 O230 1.266 . S
Co238 O241 1.970 . S
Co238 N255 1.989 . S
Co238 O263 1.967 . S
Co238 O270 1.920 . S
Co239 O242 1.966 . S
Co239 N248 2.022 . S
Co239 N256 1.993 . S
Co239 O264 1.941 . S
C240 O241 1.258 . S
C240 O242 1.263 . S
O241 Co238 1.970 . S
O241 C240 1.258 . S
O242 Co239 1.966 . S
O242 C240 1.263 . S
C243 O244 1.235 . S
C243 O270 1.289 . S
O244 C243 1.235 . S
C245 C247 1.400 . S
C245 N248 1.351 . S
C245 C250 1.501 . S
C246 C247 1.387 . S
C246 N249 1.341 . S
C247 C245 1.400 . S
C247 C246 1.387 . S
N248 Co239 2.022 . S
N248 C245 1.351 . S
N248 N249 1.365 . S
N249 C246 1.341 . S
N249 N248 1.365 . S
N249 H269 0.862 . S
C250 C245 1.501 . S
C250 H251 0.961 . S
C250 H252 0.961 . S
C250 H253 0.960 . S
H251 C250 0.961 . S
H252 C250 0.961 . S
H253 C250 0.960 . S
C254 N255 1.342 . S
C254 C258 1.401 . S
C254 C259 1.499 . S
N255 Co238 1.989 . S
N255 C254 1.342 . S
N255 N256 1.388 . S
N256 Co239 1.993 . S
N256 N255 1.388 . S
N256 C257 1.346 . S
C257 N256 1.346 . S
C257 C258 1.396 . S
C257 C267 1.510 . S
C258 C254 1.401 . S
C258 C257 1.396 . S
C259 C254 1.499 . S
C259 H260 0.959 . S
C259 H261 0.960 . S
C259 H262 0.961 . S
H260 C259 0.959 . S
H261 C259 0.960 . S
H262 C259 0.961 . S
O263 Co238 1.967 . S
O263 C271 1.258 . S
O264 Co239 1.941 . S
O264 C271 1.266 . S
H265 C267 0.959 . S
H266 C267 0.961 . S
C267 C257 1.510 . S
C267 H265 0.959 . S
C267 H266 0.961 . S
C267 H268 0.960 . S
H268 C267 0.960 . S
H269 N249 0.862 . S
O270 Co238 1.920 . S
O270 C243 1.289 . S
C271 O263 1.258 . S
C271 O264 1.266 . S
Co272 O275 1.970 . S
Co272 N289 1.989 . S
Co272 O297 1.967 . S
Co272 O304 1.920 1_556 S
Co273 O276 1.966 . S
Co273 N282 2.022 . S
Co273 N290 1.993 . S
Co273 O298 1.941 . S
C274 O275 1.258 . S
C274 O276 1.263 . S
O275 Co272 1.970 . S
O275 C274 1.258 . S
O276 Co273 1.966 . S
O276 C274 1.263 . S
C277 O278 1.235 . S
C277 O304 1.289 . S
O278 C277 1.235 . S
C279 C281 1.400 . S
C279 N282 1.351 . S
C279 C284 1.501 . S
C280 C281 1.387 . S
C280 N283 1.341 . S
C281 C279 1.400 . S
C281 C280 1.387 . S
N282 Co273 2.022 . S
N282 C279 1.351 . S
N282 N283 1.365 . S
N283 C280 1.341 . S
N283 N282 1.365 . S
N283 H303 0.862 . S
C284 C279 1.501 . S
C284 H285 0.961 . S
C284 H286 0.961 . S
C284 H287 0.960 . S
H285 C284 0.961 . S
H286 C284 0.961 . S
H287 C284 0.960 . S
C288 N289 1.342 . S
C288 C292 1.401 . S
C288 C293 1.499 1_556 S
N289 Co272 1.989 . S
N289 C288 1.342 . S
N289 N290 1.388 . S
N290 Co273 1.993 . S
N290 N289 1.388 . S
N290 C291 1.346 . S
C291 N290 1.346 . S
C291 C292 1.396 . S
C291 C301 1.510 . S
C292 C288 1.401 . S
C292 C291 1.396 . S
C293 C288 1.499 1_554 S
C293 H294 0.959 . S
C293 H295 0.960 . S
C293 H296 0.961 . S
H294 C293 0.959 . S
H295 C293 0.960 . S
H296 C293 0.961 . S
O297 Co272 1.967 . S
O297 C305 1.258 . S
O298 Co273 1.941 . S
O298 C305 1.266 . S
H299 C301 0.959 . S
H300 C301 0.961 . S
C301 C291 1.510 . S
C301 H299 0.959 . S
C301 H300 0.961 . S
C301 H302 0.960 . S
H302 C301 0.960 . S
H303 N283 0.862 . S
O304 Co272 1.920 1_554 S
O304 C277 1.289 . S
C305 O297 1.258 . S
C305 O298 1.266 . S
Co306 O309 1.970 . S
Co306 N323 1.989 . S
Co306 O331 1.967 . S
Co306 O338 1.920 . S
Co307 O310 1.966 . S
Co307 N316 2.022 . S
Co307 N324 1.993 . S
Co307 O332 1.941 . S
C308 O309 1.258 . S
C308 O310 1.263 . S
O309 Co306 1.970 . S
O309 C308 1.258 . S
O310 Co307 1.966 . S
O310 C308 1.263 . S
C311 O312 1.235 . S
C311 O338 1.289 . S
O312 C311 1.235 . S
C313 C315 1.400 . S
C313 N316 1.351 . S
C313 C318 1.501 . S
C314 C315 1.387 . S
C314 N317 1.341 . S
C315 C313 1.400 . S
C315 C314 1.387 . S
N316 Co307 2.022 . S
N316 C313 1.351 . S
N316 N317 1.365 . S
N317 C314 1.341 . S
N317 N316 1.365 . S
N317 H337 0.862 . S
C318 C313 1.501 . S
C318 H319 0.961 . S
C318 H320 0.961 . S
C318 H321 0.960 . S
H319 C318 0.961 . S
H320 C318 0.961 . S
H321 C318 0.960 . S
C322 N323 1.342 . S
C322 C326 1.401 . S
C322 C327 1.499 . S
N323 Co306 1.989 . S
N323 C322 1.342 . S
N323 N324 1.388 . S
N324 Co307 1.993 . S
N324 N323 1.388 . S
N324 C325 1.346 . S
C325 N324 1.346 . S
C325 C326 1.396 . S
C325 C335 1.510 . S
C326 C322 1.401 . S
C326 C325 1.396 . S
C327 C322 1.499 . S
C327 H328 0.959 . S
C327 H329 0.960 . S
C327 H330 0.961 . S
H328 C327 0.959 . S
H329 C327 0.960 . S
H330 C327 0.961 . S
O331 Co306 1.967 . S
O331 C339 1.258 . S
O332 Co307 1.941 . S
O332 C339 1.266 . S
H333 C335 0.959 . S
H334 C335 0.961 . S
C335 C325 1.510 . S
C335 H333 0.959 . S
C335 H334 0.961 . S
C335 H336 0.960 . S
H336 C335 0.960 . S
H337 N317 0.862 . S
O338 Co306 1.920 . S
O338 C311 1.289 . S
C339 O331 1.258 . S
C339 O332 1.266 . S
Co340 O343 1.970 . S
Co340 N357 1.989 . S
Co340 O365 1.967 . S
Co340 O372 1.920 . S
Co341 O344 1.966 . S
Co341 N350 2.022 . S
Co341 N358 1.993 . S
Co341 O366 1.941 . S
C342 O343 1.258 . S
C342 O344 1.263 . S
O343 Co340 1.970 . S
O343 C342 1.258 . S
O344 Co341 1.966 . S
O344 C342 1.263 . S
C345 O346 1.235 . S
C345 O372 1.289 . S
O346 C345 1.235 . S
C347 C349 1.400 . S
C347 N350 1.351 . S
C347 C352 1.501 . S
C348 C349 1.387 . S
C348 N351 1.341 . S
C349 C347 1.400 . S
C349 C348 1.387 . S
N350 Co341 2.022 . S
N350 C347 1.351 . S
N350 N351 1.365 . S
N351 C348 1.341 . S
N351 N350 1.365 . S
N351 H371 0.862 . S
C352 C347 1.501 . S
C352 H353 0.961 . S
C352 H354 0.961 . S
C352 H355 0.960 . S
H353 C352 0.961 . S
H354 C352 0.961 . S
H355 C352 0.960 . S
C356 N357 1.342 . S
C356 C360 1.401 . S
C356 C361 1.499 . S
N357 Co340 1.989 . S
N357 C356 1.342 . S
N357 N358 1.388 . S
N358 Co341 1.993 . S
N358 N357 1.388 . S
N358 C359 1.346 . S
C359 N358 1.346 . S
C359 C360 1.396 . S
C359 C369 1.510 . S
C360 C356 1.401 . S
C360 C359 1.396 . S
C361 C356 1.499 . S
C361 H362 0.959 . S
C361 H363 0.960 . S
C361 H364 0.961 . S
H362 C361 0.959 . S
H363 C361 0.960 . S
H364 C361 0.961 . S
O365 Co340 1.967 . S
O365 C373 1.258 . S
O366 Co341 1.941 . S
O366 C373 1.266 . S
H367 C369 0.959 . S
H368 C369 0.961 . S
C369 C359 1.510 . S
C369 H367 0.959 . S
C369 H368 0.961 . S
C369 H370 0.960 . S
H370 C369 0.960 . S
H371 N351 0.862 . S
O372 Co340 1.920 . S
O372 C345 1.289 . S
C373 O365 1.258 . S
C373 O366 1.266 . S
Co374 O377 1.970 . S
Co374 N391 1.989 . S
Co374 O399 1.967 . S
Co374 O406 1.920 . S
Co375 O378 1.966 . S
Co375 N384 2.022 . S
Co375 N392 1.993 . S
Co375 O400 1.941 . S
C376 O377 1.258 . S
C376 O378 1.263 . S
O377 Co374 1.970 . S
O377 C376 1.258 . S
O378 Co375 1.966 . S
O378 C376 1.263 . S
C379 O380 1.235 . S
C379 O406 1.289 . S
O380 C379 1.235 . S
C381 C383 1.400 . S
C381 N384 1.351 1_556 S
C381 C386 1.501 . S
C382 C383 1.387 . S
C382 N385 1.341 . S
C383 C381 1.400 . S
C383 C382 1.387 . S
N384 Co375 2.022 . S
N384 C381 1.351 1_554 S
N384 N385 1.365 1_554 S
N385 C382 1.341 . S
N385 N384 1.365 1_556 S
N385 H405 0.862 . S
C386 C381 1.501 . S
C386 H387 0.961 1_556 S
C386 H388 0.961 . S
C386 H389 0.960 . S
H387 C386 0.961 1_554 S
H388 C386 0.961 . S
H389 C386 0.960 . S
C390 N391 1.342 . S
C390 C394 1.401 . S
C390 C395 1.499 . S
N391 Co374 1.989 . S
N391 C390 1.342 . S
N391 N392 1.388 . S
N392 Co375 1.993 . S
N392 N391 1.388 . S
N392 C393 1.346 . S
C393 N392 1.346 . S
C393 C394 1.396 . S
C393 C403 1.510 . S
C394 C390 1.401 . S
C394 C393 1.396 . S
C395 C390 1.499 . S
C395 H396 0.959 . S
C395 H397 0.960 . S
C395 H398 0.961 . S
H396 C395 0.959 . S
H397 C395 0.960 . S
H398 C395 0.961 . S
O399 Co374 1.967 . S
O399 C407 1.258 . S
O400 Co375 1.941 . S
O400 C407 1.266 . S
H401 C403 0.959 . S
H402 C403 0.961 . S
C403 C393 1.510 . S
C403 H401 0.959 . S
C403 H402 0.961 . S
C403 H404 0.960 . S
H404 C403 0.960 . S
H405 N385 0.862 . S
O406 Co374 1.920 . S
O406 C379 1.289 . S
C407 O399 1.258 . S
C407 O400 1.266 . S
Co408 O411 1.970 . S
Co408 N425 1.989 . S
Co408 O433 1.967 . S
Co408 O440 1.920 1_554 S
Co409 O412 1.966 . S
Co409 N418 2.022 . S
Co409 N426 1.993 . S
Co409 O434 1.941 . S
C410 O411 1.258 . S
C410 O412 1.263 . S
O411 Co408 1.970 . S
O411 C410 1.258 . S
O412 Co409 1.966 . S
O412 C410 1.263 . S
C413 O414 1.235 . S
C413 O440 1.289 . S
O414 C413 1.235 . S
C415 C417 1.400 . S
C415 N418 1.351 . S
C415 C420 1.501 . S
C416 C417 1.387 . S
C416 N419 1.341 . S
C417 C415 1.400 . S
C417 C416 1.387 . S
N418 Co409 2.022 . S
N418 C415 1.351 . S
N418 N419 1.365 . S
N419 C416 1.341 . S
N419 N418 1.365 . S
N419 H439 0.862 . S
C420 C415 1.501 . S
C420 H421 0.961 . S
C420 H422 0.961 . S
C420 H423 0.960 . S
H421 C420 0.961 . S
H422 C420 0.961 . S
H423 C420 0.960 . S
C424 N425 1.342 . S
C424 C428 1.401 . S
C424 C429 1.499 1_554 S
N425 Co408 1.989 . S
N425 C424 1.342 . S
N425 N426 1.388 . S
N426 Co409 1.993 . S
N426 N425 1.388 . S
N426 C427 1.346 . S
C427 N426 1.346 . S
C427 C428 1.396 . S
C427 C437 1.510 . S
C428 C424 1.401 . S
C428 C427 1.396 . S
C429 C424 1.499 1_556 S
C429 H430 0.959 . S
C429 H431 0.960 . S
C429 H432 0.961 . S
H430 C429 0.959 . S
H431 C429 0.960 . S
H432 C429 0.961 . S
O433 Co408 1.967 . S
O433 C441 1.258 . S
O434 Co409 1.941 . S
O434 C441 1.266 . S
H435 C437 0.959 . S
H436 C437 0.961 . S
C437 C427 1.510 . S
C437 H435 0.959 . S
C437 H436 0.961 . S
C437 H438 0.960 . S
H438 C437 0.960 . S
H439 N419 0.862 . S
O440 Co408 1.920 1_556 S
O440 C413 1.289 . S
C441 O433 1.258 . S
C441 O434 1.266 . S
Co442 O445 1.970 . S
Co442 N459 1.989 . S
Co442 O467 1.967 . S
Co442 O474 1.920 . S
Co443 O446 1.966 . S
Co443 N452 2.022 . S
Co443 N460 1.993 . S
Co443 O468 1.941 . S
C444 O445 1.258 . S
C444 O446 1.263 . S
O445 Co442 1.970 . S
O445 C444 1.258 . S
O446 Co443 1.966 . S
O446 C444 1.263 . S
C447 O448 1.235 . S
C447 O474 1.289 . S
O448 C447 1.235 . S
C449 C451 1.400 . S
C449 N452 1.351 1_554 S
C449 C454 1.501 . S
C450 C451 1.387 . S
C450 N453 1.341 . S
C451 C449 1.400 . S
C451 C450 1.387 . S
N452 Co443 2.022 . S
N452 C449 1.351 1_556 S
N452 N453 1.365 1_556 S
N453 C450 1.341 . S
N453 N452 1.365 1_554 S
N453 H473 0.862 . S
C454 C449 1.501 . S
C454 H455 0.961 1_554 S
C454 H456 0.961 . S
C454 H457 0.960 . S
H455 C454 0.961 1_556 S
H456 C454 0.961 . S
H457 C454 0.960 . S
C458 N459 1.342 . S
C458 C462 1.401 . S
C458 C463 1.499 . S
N459 Co442 1.989 . S
N459 C458 1.342 . S
N459 N460 1.388 . S
N460 Co443 1.993 . S
N460 N459 1.388 . S
N460 C461 1.346 . S
C461 N460 1.346 . S
C461 C462 1.396 . S
C461 C471 1.510 . S
C462 C458 1.401 . S
C462 C461 1.396 . S
C463 C458 1.499 . S
C463 H464 0.959 . S
C463 H465 0.960 . S
C463 H466 0.961 . S
H464 C463 0.959 . S
H465 C463 0.960 . S
H466 C463 0.961 . S
O467 Co442 1.967 . S
O467 C475 1.258 . S
O468 Co443 1.941 . S
O468 C475 1.266 . S
H469 C471 0.959 . S
H470 C471 0.961 . S
C471 C461 1.510 . S
C471 H469 0.959 . S
C471 H470 0.961 . S
C471 H472 0.960 . S
H472 C471 0.960 . S
H473 N453 0.862 . S
O474 Co442 1.920 . S
O474 C447 1.289 . S
C475 O467 1.258 . S
C475 O468 1.266 . S
Co476 O479 1.970 . S
Co476 N493 1.989 . S
Co476 O501 1.967 . S
Co476 O508 1.920 . S
Co477 O480 1.966 . S
Co477 N486 2.022 . S
Co477 N494 1.993 . S
Co477 O502 1.941 . S
C478 O479 1.258 . S
C478 O480 1.263 . S
O479 Co476 1.970 . S
O479 C478 1.258 . S
O480 Co477 1.966 . S
O480 C478 1.263 . S
C481 O482 1.235 . S
C481 O508 1.289 . S
O482 C481 1.235 . S
C483 C485 1.400 . S
C483 N486 1.351 . S
C483 C488 1.501 . S
C484 C485 1.387 . S
C484 N487 1.341 . S
C485 C483 1.400 . S
C485 C484 1.387 . S
N486 Co477 2.022 . S
N486 C483 1.351 . S
N486 N487 1.365 . S
N487 C484 1.341 . S
N487 N486 1.365 . S
N487 H507 0.862 . S
C488 C483 1.501 . S
C488 H489 0.961 . S
C488 H490 0.961 . S
C488 H491 0.960 . S
H489 C488 0.961 . S
H490 C488 0.961 . S
H491 C488 0.960 . S
C492 N493 1.342 . S
C492 C496 1.401 . S
C492 C497 1.499 . S
N493 Co476 1.989 . S
N493 C492 1.342 . S
N493 N494 1.388 . S
N494 Co477 1.993 . S
N494 N493 1.388 . S
N494 C495 1.346 . S
C495 N494 1.346 . S
C495 C496 1.396 . S
C495 C505 1.510 . S
C496 C492 1.401 . S
C496 C495 1.396 . S
C497 C492 1.499 . S
C497 H498 0.959 . S
C497 H499 0.960 . S
C497 H500 0.961 . S
H498 C497 0.959 . S
H499 C497 0.960 . S
H500 C497 0.961 . S
O501 Co476 1.967 . S
O501 C509 1.258 . S
O502 Co477 1.941 . S
O502 C509 1.266 . S
H503 C505 0.959 . S
H504 C505 0.961 . S
C505 C495 1.510 . S
C505 H503 0.959 . S
C505 H504 0.961 . S
C505 H506 0.960 . S
H506 C505 0.960 . S
H507 N487 0.862 . S
O508 Co476 1.920 . S
O508 C481 1.289 . S
C509 O501 1.258 . S
C509 O502 1.266 . S
Co510 O513 1.970 . S
Co510 N527 1.989 . S
Co510 O535 1.967 . S
Co510 O542 1.920 . S
Co511 O514 1.966 . S
Co511 N520 2.022 . S
Co511 N528 1.993 . S
Co511 O536 1.941 . S
C512 O513 1.258 . S
C512 O514 1.263 . S
O513 Co510 1.970 . S
O513 C512 1.258 . S
O514 Co511 1.966 . S
O514 C512 1.263 . S
C515 O516 1.235 . S
C515 O542 1.289 . S
O516 C515 1.235 . S
C517 C519 1.400 . S
C517 N520 1.351 . S
C517 C522 1.501 . S
C518 C519 1.387 . S
C518 N521 1.341 . S
C519 C517 1.400 . S
C519 C518 1.387 . S
N520 Co511 2.022 . S
N520 C517 1.351 . S
N520 N521 1.365 . S
N521 C518 1.341 . S
N521 N520 1.365 . S
N521 H541 0.862 . S
C522 C517 1.501 . S
C522 H523 0.961 . S
C522 H524 0.961 . S
C522 H525 0.960 . S
H523 C522 0.961 . S
H524 C522 0.961 . S
H525 C522 0.960 . S
C526 N527 1.342 . S
C526 C530 1.401 . S
C526 C531 1.499 . S
N527 Co510 1.989 . S
N527 C526 1.342 . S
N527 N528 1.388 . S
N528 Co511 1.993 . S
N528 N527 1.388 . S
N528 C529 1.346 . S
C529 N528 1.346 . S
C529 C530 1.396 . S
C529 C539 1.510 . S
C530 C526 1.401 . S
C530 C529 1.396 . S
C531 C526 1.499 . S
C531 H532 0.959 . S
C531 H533 0.960 . S
C531 H534 0.961 . S
H532 C531 0.959 . S
H533 C531 0.960 . S
H534 C531 0.961 . S
O535 Co510 1.967 . S
O535 C543 1.258 . S
O536 Co511 1.941 . S
O536 C543 1.266 . S
H537 C539 0.959 . S
H538 C539 0.961 . S
C539 C529 1.510 . S
C539 H537 0.959 . S
C539 H538 0.961 . S
C539 H540 0.960 . S
H540 C539 0.960 . S
H541 N521 0.862 . S
O542 Co510 1.920 . S
O542 C515 1.289 . S
C543 O535 1.258 . S
C543 O536 1.266 . S
Co544 O547 1.970 . S
Co544 N561 1.989 . S
Co544 O569 1.967 . S
Co544 O576 1.920 . S
Co545 O548 1.966 . S
Co545 N554 2.022 . S
Co545 N562 1.993 . S
Co545 O570 1.941 . S
C546 O547 1.258 . S
C546 O548 1.263 . S
O547 Co544 1.970 . S
O547 C546 1.258 . S
O548 Co545 1.966 . S
O548 C546 1.263 . S
C549 O550 1.235 . S
C549 O576 1.289 . S
O550 C549 1.235 . S
C551 C553 1.400 . S
C551 N554 1.351 . S
C551 C556 1.501 . S
C552 C553 1.387 . S
C552 N555 1.341 . S
C553 C551 1.400 . S
C553 C552 1.387 . S
N554 Co545 2.022 . S
N554 C551 1.351 . S
N554 N555 1.365 . S
N555 C552 1.341 . S
N555 N554 1.365 . S
N555 H575 0.862 . S
C556 C551 1.501 . S
C556 H557 0.961 . S
C556 H558 0.961 . S
C556 H559 0.960 . S
H557 C556 0.961 . S
H558 C556 0.961 . S
H559 C556 0.960 . S
C560 N561 1.342 . S
C560 C564 1.401 . S
C560 C565 1.499 . S
N561 Co544 1.989 . S
N561 C560 1.342 . S
N561 N562 1.388 . S
N562 Co545 1.993 . S
N562 N561 1.388 . S
N562 C563 1.346 . S
C563 N562 1.346 . S
C563 C564 1.396 . S
C563 C573 1.510 . S
C564 C560 1.401 . S
C564 C563 1.396 . S
C565 C560 1.499 . S
C565 H566 0.959 . S
C565 H567 0.960 . S
C565 H568 0.961 . S
H566 C565 0.959 . S
H567 C565 0.960 . S
H568 C565 0.961 . S
O569 Co544 1.967 . S
O569 C577 1.258 . S
O570 Co545 1.941 . S
O570 C577 1.266 . S
H571 C573 0.959 . S
H572 C573 0.961 . S
C573 C563 1.510 . S
C573 H571 0.959 . S
C573 H572 0.961 . S
C573 H574 0.960 . S
H574 C573 0.960 . S
H575 N555 0.862 . S
O576 Co544 1.920 . S
O576 C549 1.289 . S
C577 O569 1.258 . S
C577 O570 1.266 . S
Co578 O581 1.970 . S
Co578 N595 1.989 . S
Co578 O603 1.967 . S
Co578 O610 1.920 . S
Co579 O582 1.966 . S
Co579 N588 2.022 . S
Co579 N596 1.993 . S
Co579 O604 1.941 . S
C580 O581 1.258 . S
C580 O582 1.263 . S
O581 Co578 1.970 . S
O581 C580 1.258 . S
O582 Co579 1.966 . S
O582 C580 1.263 . S
C583 O584 1.235 . S
C583 O610 1.289 . S
O584 C583 1.235 . S
C585 C587 1.400 . S
C585 N588 1.351 1_554 S
C585 C590 1.501 . S
C586 C587 1.387 . S
C586 N589 1.341 . S
C587 C585 1.400 . S
C587 C586 1.387 . S
N588 Co579 2.022 . S
N588 C585 1.351 1_556 S
N588 N589 1.365 1_556 S
N589 C586 1.341 . S
N589 N588 1.365 1_554 S
N589 H609 0.862 . S
C590 C585 1.501 . S
C590 H591 0.961 1_554 S
C590 H592 0.961 . S
C590 H593 0.960 . S
H591 C590 0.961 1_556 S
H592 C590 0.961 . S
H593 C590 0.960 . S
C594 N595 1.342 . S
C594 C598 1.401 . S
C594 C599 1.499 . S
N595 Co578 1.989 . S
N595 C594 1.342 . S
N595 N596 1.388 . S
N596 Co579 1.993 . S
N596 N595 1.388 . S
N596 C597 1.346 . S
C597 N596 1.346 . S
C597 C598 1.396 . S
C597 C607 1.510 . S
C598 C594 1.401 . S
C598 C597 1.396 . S
C599 C594 1.499 . S
C599 H600 0.959 . S
C599 H601 0.960 . S
C599 H602 0.961 . S
H600 C599 0.959 . S
H601 C599 0.960 . S
H602 C599 0.961 . S
O603 Co578 1.967 . S
O603 C611 1.258 . S
O604 Co579 1.941 . S
O604 C611 1.266 . S
H605 C607 0.959 . S
H606 C607 0.961 . S
C607 C597 1.510 . S
C607 H605 0.959 . S
C607 H606 0.961 . S
C607 H608 0.960 . S
H608 C607 0.960 . S
H609 N589 0.862 . S
O610 Co578 1.920 . S
O610 C583 1.289 . S
C611 O603 1.258 . S
C611 O604 1.266 . S
Co612 O615 1.970 . S
Co612 N629 1.989 . S
Co612 O637 1.967 . S
Co612 O644 1.920 1_554 S
Co613 O616 1.966 . S
Co613 N622 2.022 . S
Co613 N630 1.993 . S
Co613 O638 1.941 . S
C614 O615 1.258 . S
C614 O616 1.263 . S
O615 Co612 1.970 . S
O615 C614 1.258 . S
O616 Co613 1.966 . S
O616 C614 1.263 . S
C617 O618 1.235 . S
C617 O644 1.289 . S
O618 C617 1.235 . S
C619 C621 1.400 . S
C619 N622 1.351 . S
C619 C624 1.501 . S
C620 C621 1.387 . S
C620 N623 1.341 . S
C621 C619 1.400 . S
C621 C620 1.387 . S
N622 Co613 2.022 . S
N622 C619 1.351 . S
N622 N623 1.365 . S
N623 C620 1.341 . S
N623 N622 1.365 . S
N623 H643 0.862 . S
C624 C619 1.501 . S
C624 H625 0.961 . S
C624 H626 0.961 . S
C624 H627 0.960 . S
H625 C624 0.961 . S
H626 C624 0.961 . S
H627 C624 0.960 . S
C628 N629 1.342 . S
C628 C632 1.401 . S
C628 C633 1.499 1_554 S
N629 Co612 1.989 . S
N629 C628 1.342 . S
N629 N630 1.388 . S
N630 Co613 1.993 . S
N630 N629 1.388 . S
N630 C631 1.346 . S
C631 N630 1.346 . S
C631 C632 1.396 . S
C631 C641 1.510 . S
C632 C628 1.401 . S
C632 C631 1.396 . S
C633 C628 1.499 1_556 S
C633 H634 0.959 . S
C633 H635 0.960 . S
C633 H636 0.961 . S
H634 C633 0.959 . S
H635 C633 0.960 . S
H636 C633 0.961 . S
O637 Co612 1.967 . S
O637 C645 1.258 . S
O638 Co613 1.941 . S
O638 C645 1.266 . S
H639 C641 0.959 . S
H640 C641 0.961 . S
C641 C631 1.510 . S
C641 H639 0.959 . S
C641 H640 0.961 . S
C641 H642 0.960 . S
H642 C641 0.960 . S
H643 N623 0.862 . S
O644 Co612 1.920 1_556 S
O644 C617 1.289 . S
C645 O637 1.258 . S
C645 O638 1.266 . S
Co646 O649 1.970 . S
Co646 N663 1.989 . S
Co646 O671 1.967 . S
Co646 O678 1.920 . S
Co647 O650 1.966 . S
Co647 N656 2.022 . S
Co647 N664 1.993 . S
Co647 O672 1.941 . S
C648 O649 1.258 . S
C648 O650 1.263 . S
O649 Co646 1.970 . S
O649 C648 1.258 . S
O650 Co647 1.966 . S
O650 C648 1.263 . S
C651 O652 1.235 . S
C651 O678 1.289 . S
O652 C651 1.235 . S
C653 C655 1.400 . S
C653 N656 1.351 . S
C653 C658 1.501 . S
C654 C655 1.387 . S
C654 N657 1.341 . S
C655 C653 1.400 . S
C655 C654 1.387 . S
N656 Co647 2.022 . S
N656 C653 1.351 . S
N656 N657 1.365 . S
N657 C654 1.341 . S
N657 N656 1.365 . S
N657 H677 0.862 . S
C658 C653 1.501 . S
C658 H659 0.961 . S
C658 H660 0.961 . S
C658 H661 0.960 . S
H659 C658 0.961 . S
H660 C658 0.961 . S
H661 C658 0.960 . S
C662 N663 1.342 . S
C662 C666 1.401 . S
C662 C667 1.499 . S
N663 Co646 1.989 . S
N663 C662 1.342 . S
N663 N664 1.388 . S
N664 Co647 1.993 . S
N664 N663 1.388 . S
N664 C665 1.346 . S
C665 N664 1.346 . S
C665 C666 1.396 . S
C665 C675 1.510 . S
C666 C662 1.401 . S
C666 C665 1.396 . S
C667 C662 1.499 . S
C667 H668 0.959 . S
C667 H669 0.960 . S
C667 H670 0.961 . S
H668 C667 0.959 . S
H669 C667 0.960 . S
H670 C667 0.961 . S
O671 Co646 1.967 . S
O671 C679 1.258 . S
O672 Co647 1.941 . S
O672 C679 1.266 . S
H673 C675 0.959 . S
H674 C675 0.961 . S
C675 C665 1.510 . S
C675 H673 0.959 . S
C675 H674 0.961 . S
C675 H676 0.960 . S
H676 C675 0.960 . S
H677 N657 0.862 . S
O678 Co646 1.920 . S
O678 C651 1.289 . S
C679 O671 1.258 . S
C679 O672 1.266 . S
Co680 O683 1.970 . S
Co680 N697 1.989 . S
Co680 O705 1.967 . S
Co680 O712 1.920 . S
Co681 O684 1.966 . S
Co681 N690 2.022 . S
Co681 N698 1.993 . S
Co681 O706 1.941 . S
C682 O683 1.258 . S
C682 O684 1.263 . S
O683 Co680 1.970 . S
O683 C682 1.258 . S
O684 Co681 1.966 . S
O684 C682 1.263 . S
C685 O686 1.235 . S
C685 O712 1.289 . S
O686 C685 1.235 . S
C687 C689 1.400 . S
C687 N690 1.351 . S
C687 C692 1.501 . S
C688 C689 1.387 . S
C688 N691 1.341 . S
C689 C687 1.400 . S
C689 C688 1.387 . S
N690 Co681 2.022 . S
N690 C687 1.351 . S
N690 N691 1.365 . S
N691 C688 1.341 . S
N691 N690 1.365 . S
N691 H711 0.862 . S
C692 C687 1.501 . S
C692 H693 0.961 . S
C692 H694 0.961 . S
C692 H695 0.960 . S
H693 C692 0.961 . S
H694 C692 0.961 . S
H695 C692 0.960 . S
C696 N697 1.342 . S
C696 C700 1.401 . S
C696 C701 1.499 . S
N697 Co680 1.989 . S
N697 C696 1.342 . S
N697 N698 1.388 . S
N698 Co681 1.993 . S
N698 N697 1.388 . S
N698 C699 1.346 . S
C699 N698 1.346 . S
C699 C700 1.396 . S
C699 C709 1.510 . S
C700 C696 1.401 . S
C700 C699 1.396 . S
C701 C696 1.499 . S
C701 H702 0.959 . S
C701 H703 0.960 . S
C701 H704 0.961 . S
H702 C701 0.959 . S
H703 C701 0.960 . S
H704 C701 0.961 . S
O705 Co680 1.967 . S
O705 C713 1.258 . S
O706 Co681 1.941 . S
O706 C713 1.266 . S
H707 C709 0.959 . S
H708 C709 0.961 . S
C709 C699 1.510 . S
C709 H707 0.959 . S
C709 H708 0.961 . S
C709 H710 0.960 . S
H710 C709 0.960 . S
H711 N691 0.862 . S
O712 Co680 1.920 . S
O712 C685 1.289 . S
C713 O705 1.258 . S
C713 O706 1.266 . S
Co714 O717 1.970 . S
Co714 N731 1.989 . S
Co714 O739 1.967 . S
Co714 O746 1.920 . S
Co715 O718 1.966 . S
Co715 N724 2.022 . S
Co715 N732 1.993 . S
Co715 O740 1.941 . S
C716 O717 1.258 . S
C716 O718 1.263 . S
O717 Co714 1.970 . S
O717 C716 1.258 . S
O718 Co715 1.966 . S
O718 C716 1.263 . S
C719 O720 1.235 . S
C719 O746 1.289 . S
O720 C719 1.235 . S
C721 C723 1.400 . S
C721 N724 1.351 . S
C721 C726 1.501 . S
C722 C723 1.387 . S
C722 N725 1.341 . S
C723 C721 1.400 . S
C723 C722 1.387 . S
N724 Co715 2.022 . S
N724 C721 1.351 . S
N724 N725 1.365 . S
N725 C722 1.341 . S
N725 N724 1.365 . S
N725 H745 0.862 . S
C726 C721 1.501 . S
C726 H727 0.961 . S
C726 H728 0.961 . S
C726 H729 0.960 . S
H727 C726 0.961 . S
H728 C726 0.961 . S
H729 C726 0.960 . S
C730 N731 1.342 . S
C730 C734 1.401 . S
C730 C735 1.499 . S
N731 Co714 1.989 . S
N731 C730 1.342 . S
N731 N732 1.388 . S
N732 Co715 1.993 . S
N732 N731 1.388 . S
N732 C733 1.346 . S
C733 N732 1.346 . S
C733 C734 1.396 . S
C733 C743 1.510 . S
C734 C730 1.401 . S
C734 C733 1.396 . S
C735 C730 1.499 . S
C735 H736 0.959 . S
C735 H737 0.960 . S
C735 H738 0.961 . S
H736 C735 0.959 . S
H737 C735 0.960 . S
H738 C735 0.961 . S
O739 Co714 1.967 . S
O739 C747 1.258 . S
O740 Co715 1.941 . S
O740 C747 1.266 . S
H741 C743 0.959 . S
H742 C743 0.961 . S
C743 C733 1.510 . S
C743 H741 0.959 . S
C743 H742 0.961 . S
C743 H744 0.960 . S
H744 C743 0.960 . S
H745 N725 0.862 . S
O746 Co714 1.920 . S
O746 C719 1.289 . S
C747 O739 1.258 . S
C747 O740 1.266 . S
Co748 O751 1.970 . S
Co748 N765 1.989 . S
Co748 O773 1.967 . S
Co748 O780 1.920 1_556 S
Co749 O752 1.966 . S
Co749 N758 2.022 . S
Co749 N766 1.993 . S
Co749 O774 1.941 . S
C750 O751 1.258 . S
C750 O752 1.263 . S
O751 Co748 1.970 . S
O751 C750 1.258 . S
O752 Co749 1.966 . S
O752 C750 1.263 . S
C753 O754 1.235 . S
C753 O780 1.289 . S
O754 C753 1.235 . S
C755 C757 1.400 . S
C755 N758 1.351 . S
C755 C760 1.501 . S
C756 C757 1.387 . S
C756 N759 1.341 . S
C757 C755 1.400 . S
C757 C756 1.387 . S
N758 Co749 2.022 . S
N758 C755 1.351 . S
N758 N759 1.365 . S
N759 C756 1.341 . S
N759 N758 1.365 . S
N759 H779 0.862 . S
C760 C755 1.501 . S
C760 H761 0.961 . S
C760 H762 0.961 . S
C760 H763 0.960 . S
H761 C760 0.961 . S
H762 C760 0.961 . S
H763 C760 0.960 . S
C764 N765 1.342 . S
C764 C768 1.401 . S
C764 C769 1.499 1_556 S
N765 Co748 1.989 . S
N765 C764 1.342 . S
N765 N766 1.388 . S
N766 Co749 1.993 . S
N766 N765 1.388 . S
N766 C767 1.346 . S
C767 N766 1.346 . S
C767 C768 1.396 . S
C767 C777 1.510 . S
C768 C764 1.401 . S
C768 C767 1.396 . S
C769 C764 1.499 1_554 S
C769 H770 0.959 . S
C769 H771 0.960 . S
C769 H772 0.961 . S
H770 C769 0.959 . S
H771 C769 0.960 . S
H772 C769 0.961 . S
O773 Co748 1.967 . S
O773 C781 1.258 . S
O774 Co749 1.941 . S
O774 C781 1.266 . S
H775 C777 0.959 . S
H776 C777 0.961 . S
C777 C767 1.510 . S
C777 H775 0.959 . S
C777 H776 0.961 . S
C777 H778 0.960 . S
H778 C777 0.960 . S
H779 N759 0.862 . S
O780 Co748 1.920 1_554 S
O780 C753 1.289 . S
C781 O773 1.258 . S
C781 O774 1.266 . S
Co782 O785 1.970 . S
Co782 N799 1.989 . S
Co782 O807 1.967 . S
Co782 O814 1.920 . S
Co783 O786 1.966 . S
Co783 N792 2.022 . S
Co783 N800 1.993 . S
Co783 O808 1.941 . S
C784 O785 1.258 . S
C784 O786 1.263 . S
O785 Co782 1.970 . S
O785 C784 1.258 . S
O786 Co783 1.966 . S
O786 C784 1.263 . S
C787 O788 1.235 . S
C787 O814 1.289 . S
O788 C787 1.235 . S
C789 C791 1.400 . S
C789 N792 1.351 1_556 S
C789 C794 1.501 . S
C790 C791 1.387 . S
C790 N793 1.341 . S
C791 C789 1.400 . S
C791 C790 1.387 . S
N792 Co783 2.022 . S
N792 C789 1.351 1_554 S
N792 N793 1.365 1_554 S
N793 C790 1.341 . S
N793 N792 1.365 1_556 S
N793 H813 0.862 . S
C794 C789 1.501 . S
C794 H795 0.961 1_556 S
C794 H796 0.961 . S
C794 H797 0.960 . S
H795 C794 0.961 1_554 S
H796 C794 0.961 . S
H797 C794 0.960 . S
C798 N799 1.342 . S
C798 C802 1.401 . S
C798 C803 1.499 . S
N799 Co782 1.989 . S
N799 C798 1.342 . S
N799 N800 1.388 . S
N800 Co783 1.993 . S
N800 N799 1.388 . S
N800 C801 1.346 . S
C801 N800 1.346 . S
C801 C802 1.396 . S
C801 C811 1.510 . S
C802 C798 1.401 . S
C802 C801 1.396 . S
C803 C798 1.499 . S
C803 H804 0.959 . S
C803 H805 0.960 . S
C803 H806 0.961 . S
H804 C803 0.959 . S
H805 C803 0.960 . S
H806 C803 0.961 . S
O807 Co782 1.967 . S
O807 C815 1.258 . S
O808 Co783 1.941 . S
O808 C815 1.266 . S
H809 C811 0.959 . S
H810 C811 0.961 . S
C811 C801 1.510 . S
C811 H809 0.959 . S
C811 H810 0.961 . S
C811 H812 0.960 . S
H812 C811 0.960 . S
H813 N793 0.862 . S
O814 Co782 1.920 . S
O814 C787 1.289 . S
C815 O807 1.258 . S
C815 O808 1.266 . S
Co816 O819 1.970 . S
Co816 N833 1.989 . S
Co816 O841 1.967 . S
Co816 O848 1.920 . S
Co817 O820 1.966 . S
Co817 N826 2.022 . S
Co817 N834 1.993 . S
Co817 O842 1.941 . S
C818 O819 1.258 . S
C818 O820 1.263 . S
O819 Co816 1.970 . S
O819 C818 1.258 . S
O820 Co817 1.966 . S
O820 C818 1.263 . S
C821 O822 1.235 . S
C821 O848 1.289 . S
O822 C821 1.235 . S
C823 C825 1.400 . S
C823 N826 1.351 . S
C823 C828 1.501 . S
C824 C825 1.387 . S
C824 N827 1.341 . S
C825 C823 1.400 . S
C825 C824 1.387 . S
N826 Co817 2.022 . S
N826 C823 1.351 . S
N826 N827 1.365 . S
N827 C824 1.341 . S
N827 N826 1.365 . S
N827 H847 0.862 . S
C828 C823 1.501 . S
C828 H829 0.961 . S
C828 H830 0.961 . S
C828 H831 0.960 . S
H829 C828 0.961 . S
H830 C828 0.961 . S
H831 C828 0.960 . S
C832 N833 1.342 . S
C832 C836 1.401 . S
C832 C837 1.499 . S
N833 Co816 1.989 . S
N833 C832 1.342 . S
N833 N834 1.388 . S
N834 Co817 1.993 . S
N834 N833 1.388 . S
N834 C835 1.346 . S
C835 N834 1.346 . S
C835 C836 1.396 . S
C835 C845 1.510 . S
C836 C832 1.401 . S
C836 C835 1.396 . S
C837 C832 1.499 . S
C837 H838 0.959 . S
C837 H839 0.960 . S
C837 H840 0.961 . S
H838 C837 0.959 . S
H839 C837 0.960 . S
H840 C837 0.961 . S
O841 Co816 1.967 . S
O841 C849 1.258 . S
O842 Co817 1.941 . S
O842 C849 1.266 . S
H843 C845 0.959 . S
H844 C845 0.961 . S
C845 C835 1.510 . S
C845 H843 0.959 . S
C845 H844 0.961 . S
C845 H846 0.960 . S
H846 C845 0.960 . S
H847 N827 0.862 . S
O848 Co816 1.920 . S
O848 C821 1.289 . S
C849 O841 1.258 . S
C849 O842 1.266 . S
Co850 O853 1.970 . S
Co850 N867 1.989 . S
Co850 O875 1.967 . S
Co850 O882 1.920 . S
Co851 O854 1.966 . S
Co851 N860 2.022 . S
Co851 N868 1.993 . S
Co851 O876 1.941 . S
C852 O853 1.258 . S
C852 O854 1.263 . S
O853 Co850 1.970 . S
O853 C852 1.258 . S
O854 Co851 1.966 . S
O854 C852 1.263 . S
C855 O856 1.235 . S
C855 O882 1.289 . S
O856 C855 1.235 . S
C857 C859 1.400 . S
C857 N860 1.351 1_556 S
C857 C862 1.501 . S
C858 C859 1.387 . S
C858 N861 1.341 . S
C859 C857 1.400 . S
C859 C858 1.387 . S
N860 Co851 2.022 . S
N860 C857 1.351 1_554 S
N860 N861 1.365 1_554 S
N861 C858 1.341 . S
N861 N860 1.365 1_556 S
N861 H881 0.862 . S
C862 C857 1.501 . S
C862 H863 0.961 1_556 S
C862 H864 0.961 . S
C862 H865 0.960 . S
H863 C862 0.961 1_554 S
H864 C862 0.961 . S
H865 C862 0.960 . S
C866 N867 1.342 . S
C866 C870 1.401 . S
C866 C871 1.499 . S
N867 Co850 1.989 . S
N867 C866 1.342 . S
N867 N868 1.388 . S
N868 Co851 1.993 . S
N868 N867 1.388 . S
N868 C869 1.346 . S
C869 N868 1.346 . S
C869 C870 1.396 . S
C869 C879 1.510 . S
C870 C866 1.401 . S
C870 C869 1.396 . S
C871 C866 1.499 . S
C871 H872 0.959 . S
C871 H873 0.960 . S
C871 H874 0.961 . S
H872 C871 0.959 . S
H873 C871 0.960 . S
H874 C871 0.961 . S
O875 Co850 1.967 . S
O875 C883 1.258 . S
O876 Co851 1.941 . S
O876 C883 1.266 . S
H877 C879 0.959 . S
H878 C879 0.961 . S
C879 C869 1.510 . S
C879 H877 0.959 . S
C879 H878 0.961 . S
C879 H880 0.960 . S
H880 C879 0.960 . S
H881 N861 0.862 . S
O882 Co850 1.920 . S
O882 C855 1.289 . S
C883 O875 1.258 . S
C883 O876 1.266 . S
Co884 O887 1.970 . S
Co884 N901 1.989 . S
Co884 O909 1.967 . S
Co884 O916 1.920 1_556 S
Co885 O888 1.966 . S
Co885 N894 2.022 . S
Co885 N902 1.993 . S
Co885 O910 1.941 . S
C886 O887 1.258 . S
C886 O888 1.263 . S
O887 Co884 1.970 . S
O887 C886 1.258 . S
O888 Co885 1.966 . S
O888 C886 1.263 . S
C889 O890 1.235 . S
C889 O916 1.289 . S
O890 C889 1.235 . S
C891 C893 1.400 . S
C891 N894 1.351 . S
C891 C896 1.501 . S
C892 C893 1.387 . S
C892 N895 1.341 . S
C893 C891 1.400 . S
C893 C892 1.387 . S
N894 Co885 2.022 . S
N894 C891 1.351 . S
N894 N895 1.365 . S
N895 C892 1.341 . S
N895 N894 1.365 . S
N895 H915 0.862 . S
C896 C891 1.501 . S
C896 H897 0.961 . S
C896 H898 0.961 . S
C896 H899 0.960 . S
H897 C896 0.961 . S
H898 C896 0.961 . S
H899 C896 0.960 . S
C900 N901 1.342 . S
C900 C904 1.401 . S
C900 C905 1.499 1_556 S
N901 Co884 1.989 . S
N901 C900 1.342 . S
N901 N902 1.388 . S
N902 Co885 1.993 . S
N902 N901 1.388 . S
N902 C903 1.346 . S
C903 N902 1.346 . S
C903 C904 1.396 . S
C903 C913 1.510 . S
C904 C900 1.401 . S
C904 C903 1.396 . S
C905 C900 1.499 1_554 S
C905 H906 0.959 . S
C905 H907 0.960 . S
C905 H908 0.961 . S
H906 C905 0.959 . S
H907 C905 0.960 . S
H908 C905 0.961 . S
O909 Co884 1.967 . S
O909 C917 1.258 . S
O910 Co885 1.941 . S
O910 C917 1.266 . S
H911 C913 0.959 . S
H912 C913 0.961 . S
C913 C903 1.510 . S
C913 H911 0.959 . S
C913 H912 0.961 . S
C913 H914 0.960 . S
H914 C913 0.960 . S
H915 N895 0.862 . S
O916 Co884 1.920 1_554 S
O916 C889 1.289 . S
C917 O909 1.258 . S
C917 O910 1.266 . S
Co918 O921 1.970 . S
Co918 N935 1.989 . S
Co918 O943 1.967 . S
Co918 O950 1.920 . S
Co919 O922 1.966 . S
Co919 N928 2.022 . S
Co919 N936 1.993 . S
Co919 O944 1.941 . S
C920 O921 1.258 . S
C920 O922 1.263 . S
O921 Co918 1.970 . S
O921 C920 1.258 . S
O922 Co919 1.966 . S
O922 C920 1.263 . S
C923 O924 1.235 . S
C923 O950 1.289 . S
O924 C923 1.235 . S
C925 C927 1.400 . S
C925 N928 1.351 . S
C925 C930 1.501 . S
C926 C927 1.387 . S
C926 N929 1.341 . S
C927 C925 1.400 . S
C927 C926 1.387 . S
N928 Co919 2.022 . S
N928 C925 1.351 . S
N928 N929 1.365 . S
N929 C926 1.341 . S
N929 N928 1.365 . S
N929 H949 0.862 . S
C930 C925 1.501 . S
C930 H931 0.961 . S
C930 H932 0.961 . S
C930 H933 0.960 . S
H931 C930 0.961 . S
H932 C930 0.961 . S
H933 C930 0.960 . S
C934 N935 1.342 . S
C934 C938 1.401 . S
C934 C939 1.499 . S
N935 Co918 1.989 . S
N935 C934 1.342 . S
N935 N936 1.388 . S
N936 Co919 1.993 . S
N936 N935 1.388 . S
N936 C937 1.346 . S
C937 N936 1.346 . S
C937 C938 1.396 . S
C937 C947 1.510 . S
C938 C934 1.401 . S
C938 C937 1.396 . S
C939 C934 1.499 . S
C939 H940 0.959 . S
C939 H941 0.960 . S
C939 H942 0.961 . S
H940 C939 0.959 . S
H941 C939 0.960 . S
H942 C939 0.961 . S
O943 Co918 1.967 . S
O943 C951 1.258 . S
O944 Co919 1.941 . S
O944 C951 1.266 . S
H945 C947 0.959 . S
H946 C947 0.961 . S
C947 C937 1.510 . S
C947 H945 0.959 . S
C947 H946 0.961 . S
C947 H948 0.960 . S
H948 C947 0.960 . S
H949 N929 0.862 . S
O950 Co918 1.920 . S
O950 C923 1.289 . S
C951 O943 1.258 . S
C951 O944 1.266 . S
Co952 O955 1.970 . S
Co952 N969 1.989 . S
Co952 O977 1.967 . S
Co952 O984 1.920 . S
Co953 O956 1.966 . S
Co953 N962 2.022 . S
Co953 N970 1.993 . S
Co953 O978 1.941 . S
C954 O955 1.258 . S
C954 O956 1.263 . S
O955 Co952 1.970 . S
O955 C954 1.258 . S
O956 Co953 1.966 . S
O956 C954 1.263 . S
C957 O958 1.235 . S
C957 O984 1.289 . S
O958 C957 1.235 . S
C959 C961 1.400 . S
C959 N962 1.351 . S
C959 C964 1.501 . S
C960 C961 1.387 . S
C960 N963 1.341 . S
C961 C959 1.400 . S
C961 C960 1.387 . S
N962 Co953 2.022 . S
N962 C959 1.351 . S
N962 N963 1.365 . S
N963 C960 1.341 . S
N963 N962 1.365 . S
N963 H983 0.862 . S
C964 C959 1.501 . S
C964 H965 0.961 . S
C964 H966 0.961 . S
C964 H967 0.960 . S
H965 C964 0.961 . S
H966 C964 0.961 . S
H967 C964 0.960 . S
C968 N969 1.342 . S
C968 C972 1.401 . S
C968 C973 1.499 . S
N969 Co952 1.989 . S
N969 C968 1.342 . S
N969 N970 1.388 . S
N970 Co953 1.993 . S
N970 N969 1.388 . S
N970 C971 1.346 . S
C971 N970 1.346 . S
C971 C972 1.396 . S
C971 C981 1.510 . S
C972 C968 1.401 . S
C972 C971 1.396 . S
C973 C968 1.499 . S
C973 H974 0.959 . S
C973 H975 0.960 . S
C973 H976 0.961 . S
H974 C973 0.959 . S
H975 C973 0.960 . S
H976 C973 0.961 . S
O977 Co952 1.967 . S
O977 C985 1.258 . S
O978 Co953 1.941 . S
O978 C985 1.266 . S
H979 C981 0.959 . S
H980 C981 0.961 . S
C981 C971 1.510 . S
C981 H979 0.959 . S
C981 H980 0.961 . S
C981 H982 0.960 . S
H982 C981 0.960 . S
H983 N963 0.862 . S
O984 Co952 1.920 . S
O984 C957 1.289 . S
C985 O977 1.258 . S
C985 O978 1.266 . S
Co986 O989 1.970 . S
Co986 N1003 1.989 . S
Co986 O1011 1.967 . S
Co986 O1018 1.920 . S
Co987 O990 1.966 . S
Co987 N996 2.022 . S
Co987 N1004 1.993 . S
Co987 O1012 1.941 . S
C988 O989 1.258 . S
C988 O990 1.263 . S
O989 Co986 1.970 . S
O989 C988 1.258 . S
O990 Co987 1.966 . S
O990 C988 1.263 . S
C991 O992 1.235 . S
C991 O1018 1.289 . S
O992 C991 1.235 . S
C993 C995 1.400 . S
C993 N996 1.351 . S
C993 C998 1.501 . S
C994 C995 1.387 . S
C994 N997 1.341 . S
C995 C993 1.400 . S
C995 C994 1.387 . S
N996 Co987 2.022 . S
N996 C993 1.351 . S
N996 N997 1.365 . S
N997 C994 1.341 . S
N997 N996 1.365 . S
N997 H1017 0.862 . S
C998 C993 1.501 . S
C998 H999 0.961 . S
C998 H1000 0.961 . S
C998 H1001 0.960 . S
H999 C998 0.961 . S
H1000 C998 0.961 . S
H1001 C998 0.960 . S
C1002 N1003 1.342 . S
C1002 C1006 1.401 . S
C1002 C1007 1.499 . S
N1003 Co986 1.989 . S
N1003 C1002 1.342 . S
N1003 N1004 1.388 . S
N1004 Co987 1.993 . S
N1004 N1003 1.388 . S
N1004 C1005 1.346 . S
C1005 N1004 1.346 . S
C1005 C1006 1.396 . S
C1005 C1015 1.510 . S
C1006 C1002 1.401 . S
C1006 C1005 1.396 . S
C1007 C1002 1.499 . S
C1007 H1008 0.959 . S
C1007 H1009 0.960 . S
C1007 H1010 0.961 . S
H1008 C1007 0.959 . S
H1009 C1007 0.960 . S
H1010 C1007 0.961 . S
O1011 Co986 1.967 . S
O1011 C1019 1.258 . S
O1012 Co987 1.941 . S
O1012 C1019 1.266 . S
H1013 C1015 0.959 . S
H1014 C1015 0.961 . S
C1015 C1005 1.510 . S
C1015 H1013 0.959 . S
C1015 H1014 0.961 . S
C1015 H1016 0.960 . S
H1016 C1015 0.960 . S
H1017 N997 0.862 . S
O1018 Co986 1.920 . S
O1018 C991 1.289 . S
C1019 O1011 1.258 . S
C1019 O1012 1.266 . S
Co1020 O1023 1.970 . S
Co1020 N1037 1.989 . S
Co1020 O1045 1.967 . S
Co1020 O1052 1.920 1_554 S
Co1021 O1024 1.966 . S
Co1021 N1030 2.022 . S
Co1021 N1038 1.993 . S
Co1021 O1046 1.941 . S
C1022 O1023 1.258 . S
C1022 O1024 1.263 . S
O1023 Co1020 1.970 . S
O1023 C1022 1.258 . S
O1024 Co1021 1.966 . S
O1024 C1022 1.263 . S
C1025 O1026 1.235 . S
C1025 O1052 1.289 . S
O1026 C1025 1.235 . S
C1027 C1029 1.400 . S
C1027 N1030 1.351 . S
C1027 C1032 1.501 . S
C1028 C1029 1.387 . S
C1028 N1031 1.341 . S
C1029 C1027 1.400 . S
C1029 C1028 1.387 . S
N1030 Co1021 2.022 . S
N1030 C1027 1.351 . S
N1030 N1031 1.365 . S
N1031 C1028 1.341 . S
N1031 N1030 1.365 . S
N1031 H1051 0.862 . S
C1032 C1027 1.501 . S
C1032 H1033 0.961 . S
C1032 H1034 0.961 . S
C1032 H1035 0.960 . S
H1033 C1032 0.961 . S
H1034 C1032 0.961 . S
H1035 C1032 0.960 . S
C1036 N1037 1.342 . S
C1036 C1040 1.401 . S
C1036 C1041 1.499 1_554 S
N1037 Co1020 1.989 . S
N1037 C1036 1.342 . S
N1037 N1038 1.388 . S
N1038 Co1021 1.993 . S
N1038 N1037 1.388 . S
N1038 C1039 1.346 . S
C1039 N1038 1.346 . S
C1039 C1040 1.396 . S
C1039 C1049 1.510 . S
C1040 C1036 1.401 . S
C1040 C1039 1.396 . S
C1041 C1036 1.499 1_556 S
C1041 H1042 0.959 . S
C1041 H1043 0.960 . S
C1041 H1044 0.961 . S
H1042 C1041 0.959 . S
H1043 C1041 0.960 . S
H1044 C1041 0.961 . S
O1045 Co1020 1.967 . S
O1045 C1053 1.258 . S
O1046 Co1021 1.941 . S
O1046 C1053 1.266 . S
H1047 C1049 0.959 . S
H1048 C1049 0.961 . S
C1049 C1039 1.510 . S
C1049 H1047 0.959 . S
C1049 H1048 0.961 . S
C1049 H1050 0.960 . S
H1050 C1049 0.960 . S
H1051 N1031 0.862 . S
O1052 Co1020 1.920 1_556 S
O1052 C1025 1.289 . S
C1053 O1045 1.258 . S
C1053 O1046 1.266 . S
Co1054 O1057 1.970 . S
Co1054 N1071 1.989 . S
Co1054 O1079 1.967 . S
Co1054 O1086 1.920 . S
Co1055 O1058 1.966 . S
Co1055 N1064 2.022 . S
Co1055 N1072 1.993 . S
Co1055 O1080 1.941 . S
C1056 O1057 1.258 . S
C1056 O1058 1.263 . S
O1057 Co1054 1.970 . S
O1057 C1056 1.258 . S
O1058 Co1055 1.966 . S
O1058 C1056 1.263 . S
C1059 O1060 1.235 . S
C1059 O1086 1.289 . S
O1060 C1059 1.235 . S
C1061 C1063 1.400 . S
C1061 N1064 1.351 1_554 S
C1061 C1066 1.501 . S
C1062 C1063 1.387 . S
C1062 N1065 1.341 . S
C1063 C1061 1.400 . S
C1063 C1062 1.387 . S
N1064 Co1055 2.022 . S
N1064 C1061 1.351 1_556 S
N1064 N1065 1.365 1_556 S
N1065 C1062 1.341 . S
N1065 N1064 1.365 1_554 S
N1065 H1085 0.862 . S
C1066 C1061 1.501 . S
C1066 H1067 0.961 1_554 S
C1066 H1068 0.961 . S
C1066 H1069 0.960 . S
H1067 C1066 0.961 1_556 S
H1068 C1066 0.961 . S
H1069 C1066 0.960 . S
C1070 N1071 1.342 . S
C1070 C1074 1.401 . S
C1070 C1075 1.499 . S
N1071 Co1054 1.989 . S
N1071 C1070 1.342 . S
N1071 N1072 1.388 . S
N1072 Co1055 1.993 . S
N1072 N1071 1.388 . S
N1072 C1073 1.346 . S
C1073 N1072 1.346 . S
C1073 C1074 1.396 . S
C1073 C1083 1.510 . S
C1074 C1070 1.401 . S
C1074 C1073 1.396 . S
C1075 C1070 1.499 . S
C1075 H1076 0.959 . S
C1075 H1077 0.960 . S
C1075 H1078 0.961 . S
H1076 C1075 0.959 . S
H1077 C1075 0.960 . S
H1078 C1075 0.961 . S
O1079 Co1054 1.967 . S
O1079 C1087 1.258 . S
O1080 Co1055 1.941 . S
O1080 C1087 1.266 . S
H1081 C1083 0.959 . S
H1082 C1083 0.961 . S
C1083 C1073 1.510 . S
C1083 H1081 0.959 . S
C1083 H1082 0.961 . S
C1083 H1084 0.960 . S
H1084 C1083 0.960 . S
H1085 N1065 0.862 . S
O1086 Co1054 1.920 . S
O1086 C1059 1.289 . S
C1087 O1079 1.258 . S
C1087 O1080 1.266 . S
H1088 C1096 0.929 . S
H1089 C1098 0.930 . S
H1090 C1100 0.930 . S
H1091 C1103 0.929 . S
H1092 C1106 0.930 . S
H1093 C1108 0.960 . S
H1094 C1108 0.960 . S
H1095 C1108 0.960 . S
C1096 H1088 0.929 . S
C1096 C1097 1.377 . S
C1096 C1098 1.384 . S
C1097 C1096 1.377 . S
C1097 C1103 1.390 . S
C1098 H1089 0.930 . S
C1098 C1096 1.384 . S
C1098 C1099 1.372 . S
C1099 C1098 1.372 . S
C1099 C1100 1.400 . S
C1099 C1104 1.490 . S
C1100 H1090 0.930 . S
C1100 C1099 1.400 . S
C1100 C1103 1.386 . S
H1101 C1117 0.930 . S
H1102 C1118 0.931 . S
C1103 H1091 0.929 . S
C1103 C1097 1.390 . S
C1103 C1100 1.386 . S
C1104 C1099 1.490 . S
C1104 C1106 1.395 . S
C1104 C1107 1.403 . S
H1105 C1111 0.930 . S
C1106 H1092 0.930 . S
C1106 C1104 1.395 . S
C1106 C1109 1.403 . S
C1107 C1104 1.403 . S
C1107 C1108 1.524 . S
C1107 C1111 1.400 . S
C1108 H1093 0.960 . S
C1108 H1094 0.960 . S
C1108 H1095 0.960 . S
C1108 C1107 1.524 . S
C1109 C1106 1.403 . S
C1109 C1110 1.392 . S
C1109 C1113 1.495 . S
C1110 C1109 1.392 . S
C1110 C1111 1.385 . S
C1110 C1112 1.478 . S
C1111 H1105 0.930 . S
C1111 C1107 1.400 . S
C1111 C1110 1.385 . S
C1112 C1110 1.478 . S
C1112 C1114 1.381 . S
C1112 C1118 1.383 . S
C1113 C1109 1.495 . S
C1113 H1119 0.959 . S
C1113 H1120 0.961 . S
C1113 H1121 0.960 . S
C1114 C1112 1.381 . S
C1114 C1115 1.394 . S
C1114 H1122 0.930 . S
C1115 C1114 1.394 . S
C1115 C1116 1.383 . S
C1115 H1123 0.929 . S
C1116 C1115 1.383 . S
C1116 C1117 1.377 . S
C1117 H1101 0.930 . S
C1117 C1116 1.377 . S
C1117 C1118 1.379 . S
C1118 H1102 0.931 . S
C1118 C1112 1.383 . S
C1118 C1117 1.379 . S
H1119 C1113 0.959 . S
H1120 C1113 0.961 . S
H1121 C1113 0.960 . S
H1122 C1114 0.930 . S
H1123 C1115 0.929 . S
H1124 C1132 0.929 . S
H1125 C1134 0.930 . S
H1126 C1136 0.930 . S
H1127 C1139 0.929 . S
H1128 C1142 0.930 . S
H1129 C1144 0.960 . S
H1130 C1144 0.960 . S
H1131 C1144 0.960 . S
C1132 H1124 0.929 . S
C1132 C1133 1.377 . S
C1132 C1134 1.384 . S
C1133 C1132 1.377 . S
C1133 C1139 1.390 . S
C1134 H1125 0.930 . S
C1134 C1132 1.384 . S
C1134 C1135 1.372 . S
C1135 C1134 1.372 . S
C1135 C1136 1.400 . S
C1135 C1140 1.490 . S
C1136 H1126 0.930 . S
C1136 C1135 1.400 . S
C1136 C1139 1.386 . S
H1137 C1153 0.930 . S
H1138 C1154 0.931 1_556 S
C1139 H1127 0.929 . S
C1139 C1133 1.390 . S
C1139 C1136 1.386 . S
C1140 C1135 1.490 . S
C1140 C1142 1.395 . S
C1140 C1143 1.403 . S
H1141 C1147 0.930 . S
C1142 H1128 0.930 . S
C1142 C1140 1.395 . S
C1142 C1145 1.403 . S
C1143 C1140 1.403 . S
C1143 C1144 1.524 . S
C1143 C1147 1.400 . S
C1144 H1129 0.960 . S
C1144 H1130 0.960 . S
C1144 H1131 0.960 . S
C1144 C1143 1.524 . S
C1145 C1142 1.403 . S
C1145 C1146 1.392 . S
C1145 C1149 1.495 . S
C1146 C1145 1.392 . S
C1146 C1147 1.385 . S
C1146 C1148 1.478 . S
C1147 H1141 0.930 . S
C1147 C1143 1.400 . S
C1147 C1146 1.385 . S
C1148 C1146 1.478 . S
C1148 C1150 1.381 1_556 S
C1148 C1154 1.383 1_556 S
C1149 C1145 1.495 . S
C1149 H1155 0.959 . S
C1149 H1156 0.961 . S
C1149 H1157 0.960 . S
C1150 C1148 1.381 1_554 S
C1150 C1151 1.394 . S
C1150 H1158 0.932 . S
C1151 C1150 1.394 . S
C1151 C1152 1.383 . S
C1151 H1159 0.929 . S
C1152 C1151 1.383 . S
C1152 C1153 1.377 . S
C1153 H1137 0.930 . S
C1153 C1152 1.377 . S
C1153 C1154 1.379 . S
C1154 H1138 0.931 1_554 S
C1154 C1148 1.383 1_554 S
C1154 C1153 1.379 . S
H1155 C1149 0.959 . S
H1156 C1149 0.961 . S
H1157 C1149 0.960 . S
H1158 C1150 0.932 . S
H1159 C1151 0.929 . S
H1160 C1168 0.929 . S
H1161 C1170 0.930 . S
H1162 C1172 0.930 . S
H1163 C1175 0.929 . S
H1164 C1178 0.930 . S
H1165 C1180 0.960 . S
H1166 C1180 0.960 . S
H1167 C1180 0.960 . S
C1168 H1160 0.929 . S
C1168 C1169 1.377 . S
C1168 C1170 1.384 . S
C1169 C1168 1.377 . S
C1169 C1175 1.390 . S
C1170 H1161 0.930 . S
C1170 C1168 1.384 . S
C1170 C1171 1.372 . S
C1171 C1170 1.372 . S
C1171 C1172 1.400 . S
C1171 C1176 1.490 1_556 S
C1172 H1162 0.930 . S
C1172 C1171 1.400 . S
C1172 C1175 1.386 . S
H1173 C1189 0.930 . S
H1174 C1190 0.931 . S
C1175 H1163 0.929 . S
C1175 C1169 1.390 . S
C1175 C1172 1.386 . S
C1176 C1171 1.490 1_554 S
C1176 C1178 1.395 . S
C1176 C1179 1.403 . S
H1177 C1183 0.930 . S
C1178 H1164 0.930 . S
C1178 C1176 1.395 . S
C1178 C1181 1.403 . S
C1179 C1176 1.403 . S
C1179 C1180 1.524 . S
C1179 C1183 1.400 . S
C1180 H1165 0.960 . S
C1180 H1166 0.960 . S
C1180 H1167 0.960 . S
C1180 C1179 1.524 . S
C1181 C1178 1.403 . S
C1181 C1182 1.392 . S
C1181 C1185 1.495 . S
C1182 C1181 1.392 . S
C1182 C1183 1.385 . S
C1182 C1184 1.478 . S
C1183 H1177 0.930 . S
C1183 C1179 1.400 . S
C1183 C1182 1.385 . S
C1184 C1182 1.478 . S
C1184 C1186 1.381 . S
C1184 C1190 1.383 . S
C1185 C1181 1.495 . S
C1185 H1191 0.959 . S
C1185 H1192 0.961 . S
C1185 H1193 0.960 . S
C1186 C1184 1.381 . S
C1186 C1187 1.394 . S
C1186 H1194 0.930 . S
C1187 C1186 1.394 . S
C1187 C1188 1.383 . S
C1187 H1195 0.929 . S
C1188 C1187 1.383 . S
C1188 C1189 1.377 . S
C1189 H1173 0.930 . S
C1189 C1188 1.377 . S
C1189 C1190 1.379 . S
C1190 H1174 0.931 . S
C1190 C1184 1.383 . S
C1190 C1189 1.379 . S
H1191 C1185 0.959 . S
H1192 C1185 0.961 . S
H1193 C1185 0.960 . S
H1194 C1186 0.930 . S
H1195 C1187 0.929 . S
H1196 C1204 0.929 . S
H1197 C1206 0.930 . S
H1198 C1208 0.930 . S
H1199 C1211 0.929 . S
H1200 C1214 0.930 . S
H1201 C1216 0.960 . S
H1202 C1216 0.960 . S
H1203 C1216 0.960 . S
C1204 H1196 0.929 . S
C1204 C1205 1.377 . S
C1204 C1206 1.384 . S
C1205 C1204 1.377 . S
C1205 C1211 1.390 . S
C1206 H1197 0.930 . S
C1206 C1204 1.384 . S
C1206 C1207 1.372 . S
C1207 C1206 1.372 . S
C1207 C1208 1.400 . S
C1207 C1212 1.490 . S
C1208 H1198 0.930 . S
C1208 C1207 1.400 . S
C1208 C1211 1.386 . S
H1209 C1225 0.930 . S
H1210 C1226 0.931 . S
C1211 H1199 0.929 . S
C1211 C1205 1.390 . S
C1211 C1208 1.386 . S
C1212 C1207 1.490 . S
C1212 C1214 1.395 . S
C1212 C1215 1.403 . S
H1213 C1219 0.930 . S
C1214 H1200 0.930 . S
C1214 C1212 1.395 . S
C1214 C1217 1.403 . S
C1215 C1212 1.403 . S
C1215 C1216 1.524 . S
C1215 C1219 1.400 . S
C1216 H1201 0.960 . S
C1216 H1202 0.960 . S
C1216 H1203 0.960 . S
C1216 C1215 1.524 . S
C1217 C1214 1.403 . S
C1217 C1218 1.392 . S
C1217 C1221 1.495 . S
C1218 C1217 1.392 . S
C1218 C1219 1.385 . S
C1218 C1220 1.478 . S
C1219 H1213 0.930 . S
C1219 C1215 1.400 . S
C1219 C1218 1.385 . S
C1220 C1218 1.478 . S
C1220 C1222 1.381 . S
C1220 C1226 1.383 . S
C1221 C1217 1.495 . S
C1221 H1227 0.959 . S
C1221 H1228 0.961 . S
C1221 H1229 0.960 . S
C1222 C1220 1.381 . S
C1222 C1223 1.394 . S
C1222 H1230 0.930 . S
C1223 C1222 1.394 . S
C1223 C1224 1.383 . S
C1223 H1231 0.929 . S
C1224 C1223 1.383 . S
C1224 C1225 1.377 . S
C1225 H1209 0.930 . S
C1225 C1224 1.377 . S
C1225 C1226 1.379 . S
C1226 H1210 0.931 . S
C1226 C1220 1.383 . S
C1226 C1225 1.379 . S
H1227 C1221 0.959 . S
H1228 C1221 0.961 . S
H1229 C1221 0.960 . S
H1230 C1222 0.930 . S
H1231 C1223 0.929 . S
H1232 C1240 0.929 . S
H1233 C1242 0.930 . S
H1234 C1244 0.930 . S
H1235 C1247 0.929 . S
H1236 C1250 0.930 . S
H1237 C1252 0.960 . S
H1238 C1252 0.960 . S
H1239 C1252 0.960 . S
C1240 H1232 0.929 . S
C1240 C1241 1.377 . S
C1240 C1242 1.384 . S
C1241 C1240 1.377 . S
C1241 C1247 1.390 . S
C1242 H1233 0.930 . S
C1242 C1240 1.384 . S
C1242 C1243 1.372 . S
C1243 C1242 1.372 . S
C1243 C1244 1.400 . S
C1243 C1248 1.490 . S
C1244 H1234 0.930 . S
C1244 C1243 1.400 . S
C1244 C1247 1.386 . S
H1245 C1261 0.930 . S
H1246 C1262 0.931 . S
C1247 H1235 0.929 . S
C1247 C1241 1.390 . S
C1247 C1244 1.386 . S
C1248 C1243 1.490 . S
C1248 C1250 1.395 . S
C1248 C1251 1.403 . S
H1249 C1255 0.930 . S
C1250 H1236 0.930 . S
C1250 C1248 1.395 . S
C1250 C1253 1.403 . S
C1251 C1248 1.403 . S
C1251 C1252 1.524 . S
C1251 C1255 1.400 . S
C1252 H1237 0.960 . S
C1252 H1238 0.960 . S
C1252 H1239 0.960 . S
C1252 C1251 1.524 . S
C1253 C1250 1.403 . S
C1253 C1254 1.392 . S
C1253 C1257 1.495 . S
C1254 C1253 1.392 . S
C1254 C1255 1.385 . S
C1254 C1256 1.478 . S
C1255 H1249 0.930 . S
C1255 C1251 1.400 . S
C1255 C1254 1.385 . S
C1256 C1254 1.478 . S
C1256 C1258 1.381 . S
C1256 C1262 1.383 . S
C1257 C1253 1.495 . S
C1257 H1263 0.959 . S
C1257 H1264 0.961 . S
C1257 H1265 0.960 . S
C1258 C1256 1.381 . S
C1258 C1259 1.394 . S
C1258 H1266 0.930 . S
C1259 C1258 1.394 . S
C1259 C1260 1.383 . S
C1259 H1267 0.929 . S
C1260 C1259 1.383 . S
C1260 C1261 1.377 . S
C1261 H1245 0.930 . S
C1261 C1260 1.377 . S
C1261 C1262 1.379 . S
C1262 H1246 0.931 . S
C1262 C1256 1.383 . S
C1262 C1261 1.379 . S
H1263 C1257 0.959 . S
H1264 C1257 0.961 . S
H1265 C1257 0.960 . S
H1266 C1258 0.930 . S
H1267 C1259 0.929 . S
H1268 C1276 0.929 . S
H1269 C1278 0.930 . S
H1270 C1280 0.930 . S
H1271 C1283 0.929 . S
H1272 C1286 0.930 . S
H1273 C1288 0.960 . S
H1274 C1288 0.960 . S
H1275 C1288 0.960 . S
C1276 H1268 0.929 . S
C1276 C1277 1.377 . S
C1276 C1278 1.384 . S
C1277 C1276 1.377 . S
C1277 C1283 1.390 . S
C1278 H1269 0.930 . S
C1278 C1276 1.384 . S
C1278 C1279 1.372 . S
C1279 C1278 1.372 . S
C1279 C1280 1.400 . S
C1279 C1284 1.490 . S
C1280 H1270 0.930 . S
C1280 C1279 1.400 . S
C1280 C1283 1.386 . S
H1281 C1297 0.930 . S
H1282 C1298 0.931 . S
C1283 H1271 0.929 . S
C1283 C1277 1.390 . S
C1283 C1280 1.386 . S
C1284 C1279 1.490 . S
C1284 C1286 1.395 . S
C1284 C1287 1.403 . S
H1285 C1291 0.930 . S
C1286 H1272 0.930 . S
C1286 C1284 1.395 . S
C1286 C1289 1.403 . S
C1287 C1284 1.403 . S
C1287 C1288 1.524 . S
C1287 C1291 1.400 . S
C1288 H1273 0.960 . S
C1288 H1274 0.960 . S
C1288 H1275 0.960 . S
C1288 C1287 1.524 . S
C1289 C1286 1.403 . S
C1289 C1290 1.392 . S
C1289 C1293 1.495 . S
C1290 C1289 1.392 . S
C1290 C1291 1.385 . S
C1290 C1292 1.478 . S
C1291 H1285 0.930 . S
C1291 C1287 1.400 . S
C1291 C1290 1.385 . S
C1292 C1290 1.478 . S
C1292 C1294 1.381 . S
C1292 C1298 1.383 . S
C1293 C1289 1.495 . S
C1293 H1299 0.959 . S
C1293 H1300 0.961 . S
C1293 H1301 0.960 . S
C1294 C1292 1.381 . S
C1294 C1295 1.394 . S
C1294 H1302 0.930 . S
C1295 C1294 1.394 . S
C1295 C1296 1.383 . S
C1295 H1303 0.929 . S
C1296 C1295 1.383 . S
C1296 C1297 1.377 . S
C1297 H1281 0.930 . S
C1297 C1296 1.377 . S
C1297 C1298 1.379 . S
C1298 H1282 0.931 . S
C1298 C1292 1.383 . S
C1298 C1297 1.379 . S
H1299 C1293 0.959 . S
H1300 C1293 0.961 . S
H1301 C1293 0.960 . S
H1302 C1294 0.930 . S
H1303 C1295 0.929 . S
H1304 C1312 0.929 . S
H1305 C1314 0.930 . S
H1306 C1316 0.930 . S
H1307 C1319 0.929 . S
H1308 C1322 0.930 . S
H1309 C1324 0.960 . S
H1310 C1324 0.960 . S
H1311 C1324 0.960 . S
C1312 H1304 0.929 . S
C1312 C1313 1.377 . S
C1312 C1314 1.384 . S
C1313 C1312 1.377 . S
C1313 C1319 1.390 . S
C1314 H1305 0.930 . S
C1314 C1312 1.384 . S
C1314 C1315 1.372 . S
C1315 C1314 1.372 . S
C1315 C1316 1.400 . S
C1315 C1320 1.490 . S
C1316 H1306 0.930 . S
C1316 C1315 1.400 . S
C1316 C1319 1.386 . S
H1317 C1333 0.930 . S
H1318 C1334 0.931 . S
C1319 H1307 0.929 . S
C1319 C1313 1.390 . S
C1319 C1316 1.386 . S
C1320 C1315 1.490 . S
C1320 C1322 1.395 . S
C1320 C1323 1.403 . S
H1321 C1327 0.930 . S
C1322 H1308 0.930 . S
C1322 C1320 1.395 . S
C1322 C1325 1.403 . S
C1323 C1320 1.403 . S
C1323 C1324 1.524 . S
C1323 C1327 1.400 . S
C1324 H1309 0.960 . S
C1324 H1310 0.960 . S
C1324 H1311 0.960 . S
C1324 C1323 1.524 . S
C1325 C1322 1.403 . S
C1325 C1326 1.392 . S
C1325 C1329 1.495 . S
C1326 C1325 1.392 . S
C1326 C1327 1.385 . S
C1326 C1328 1.478 1_556 S
C1327 H1321 0.930 . S
C1327 C1323 1.400 . S
C1327 C1326 1.385 . S
C1328 C1326 1.478 1_554 S
C1328 C1330 1.381 . S
C1328 C1334 1.383 . S
C1329 C1325 1.495 . S
C1329 H1335 0.959 . S
C1329 H1336 0.961 . S
C1329 H1337 0.960 . S
C1330 C1328 1.381 . S
C1330 C1331 1.394 . S
C1330 H1338 0.930 . S
C1331 C1330 1.394 . S
C1331 C1332 1.383 . S
C1331 H1339 0.929 . S
C1332 C1331 1.383 . S
C1332 C1333 1.377 . S
C1333 H1317 0.930 . S
C1333 C1332 1.377 . S
C1333 C1334 1.379 . S
C1334 H1318 0.931 . S
C1334 C1328 1.383 . S
C1334 C1333 1.379 . S
H1335 C1329 0.959 . S
H1336 C1329 0.961 . S
H1337 C1329 0.960 . S
H1338 C1330 0.930 . S
H1339 C1331 0.929 . S
H1340 C1348 0.929 . S
H1341 C1350 0.930 . S
H1342 C1352 0.930 1_554 S
H1343 C1355 0.929 . S
H1344 C1358 0.930 . S
H1345 C1360 0.960 . S
H1346 C1360 0.960 . S
H1347 C1360 0.960 . S
C1348 H1340 0.929 . S
C1348 C1349 1.377 . S
C1348 C1350 1.384 . S
C1349 C1348 1.377 . S
C1349 C1355 1.390 . S
C1350 H1341 0.930 . S
C1350 C1348 1.384 . S
C1350 C1351 1.372 1_556 S
C1351 C1350 1.372 1_554 S
C1351 C1352 1.400 1_554 S
C1351 C1356 1.490 . S
C1352 H1342 0.930 1_556 S
C1352 C1351 1.400 1_556 S
C1352 C1355 1.386 . S
H1353 C1369 0.930 . S
H1354 C1370 0.931 . S
C1355 H1343 0.929 . S
C1355 C1349 1.390 . S
C1355 C1352 1.386 . S
C1356 C1351 1.490 . S
C1356 C1358 1.395 . S
C1356 C1359 1.403 . S
H1357 C1363 0.930 . S
C1358 H1344 0.930 . S
C1358 C1356 1.395 . S
C1358 C1361 1.403 . S
C1359 C1356 1.403 . S
C1359 C1360 1.524 . S
C1359 C1363 1.400 . S
C1360 H1345 0.960 . S
C1360 H1346 0.960 . S
C1360 H1347 0.960 . S
C1360 C1359 1.524 . S
C1361 C1358 1.403 . S
C1361 C1362 1.392 . S
C1361 C1365 1.495 . S
C1362 C1361 1.392 . S
C1362 C1363 1.385 . S
C1362 C1364 1.478 . S
C1363 H1357 0.930 . S
C1363 C1359 1.400 . S
C1363 C1362 1.385 . S
C1364 C1362 1.478 . S
C1364 C1366 1.381 . S
C1364 C1370 1.383 . S
C1365 C1361 1.495 . S
C1365 H1371 0.959 . S
C1365 H1372 0.961 . S
C1365 H1373 0.960 . S
C1366 C1364 1.381 . S
C1366 C1367 1.394 . S
C1366 H1374 0.930 . S
C1367 C1366 1.394 . S
C1367 C1368 1.383 . S
C1367 H1375 0.929 . S
C1368 C1367 1.383 . S
C1368 C1369 1.377 . S
C1369 H1353 0.930 . S
C1369 C1368 1.377 . S
C1369 C1370 1.379 . S
C1370 H1354 0.931 . S
C1370 C1364 1.383 . S
C1370 C1369 1.379 . S
H1371 C1365 0.959 . S
H1372 C1365 0.961 . S
H1373 C1365 0.960 . S
H1374 C1366 0.930 . S
H1375 C1367 0.929 . S
H1376 C1384 0.929 . S
H1377 C1386 0.930 . S
H1378 C1388 0.930 . S
H1379 C1391 0.929 . S
H1380 C1394 0.930 . S
H1381 C1396 0.960 . S
H1382 C1396 0.960 . S
H1383 C1396 0.960 . S
C1384 H1376 0.929 . S
C1384 C1385 1.377 . S
C1384 C1386 1.384 . S
C1385 C1384 1.377 . S
C1385 C1391 1.390 . S
C1386 H1377 0.930 . S
C1386 C1384 1.384 . S
C1386 C1387 1.372 . S
C1387 C1386 1.372 . S
C1387 C1388 1.400 . S
C1387 C1392 1.490 . S
C1388 H1378 0.930 . S
C1388 C1387 1.400 . S
C1388 C1391 1.386 . S
H1389 C1405 0.930 . S
H1390 C1406 0.931 . S
C1391 H1379 0.929 . S
C1391 C1385 1.390 . S
C1391 C1388 1.386 . S
C1392 C1387 1.490 . S
C1392 C1394 1.395 . S
C1392 C1395 1.403 . S
H1393 C1399 0.930 . S
C1394 H1380 0.930 . S
C1394 C1392 1.395 . S
C1394 C1397 1.403 . S
C1395 C1392 1.403 . S
C1395 C1396 1.524 . S
C1395 C1399 1.400 . S
C1396 H1381 0.960 . S
C1396 H1382 0.960 . S
C1396 H1383 0.960 . S
C1396 C1395 1.524 . S
C1397 C1394 1.403 . S
C1397 C1398 1.392 . S
C1397 C1401 1.495 . S
C1398 C1397 1.392 . S
C1398 C1399 1.385 . S
C1398 C1400 1.478 . S
C1399 H1393 0.930 . S
C1399 C1395 1.400 . S
C1399 C1398 1.385 . S
C1400 C1398 1.478 . S
C1400 C1402 1.381 . S
C1400 C1406 1.383 . S
C1401 C1397 1.495 . S
C1401 H1407 0.959 . S
C1401 H1408 0.961 . S
C1401 H1409 0.960 . S
C1402 C1400 1.381 . S
C1402 C1403 1.394 . S
C1402 H1410 0.930 . S
C1403 C1402 1.394 . S
C1403 C1404 1.383 . S
C1403 H1411 0.929 . S
C1404 C1403 1.383 . S
C1404 C1405 1.377 . S
C1405 H1389 0.930 . S
C1405 C1404 1.377 . S
C1405 C1406 1.379 . S
C1406 H1390 0.931 . S
C1406 C1400 1.383 . S
C1406 C1405 1.379 . S
H1407 C1401 0.959 . S
H1408 C1401 0.961 . S
H1409 C1401 0.960 . S
H1410 C1402 0.930 . S
H1411 C1403 0.929 . S
H1412 C1420 0.929 . S
H1413 C1422 0.931 1_554 S
H1414 C1424 0.930 1_554 S
H1415 C1427 0.929 . S
H1416 C1430 0.930 . S
H1417 C1432 0.960 . S
H1418 C1432 0.960 . S
H1419 C1432 0.960 . S
C1420 H1412 0.929 . S
C1420 C1421 1.377 . S
C1420 C1422 1.384 . S
C1421 C1420 1.377 . S
C1421 C1427 1.390 . S
C1422 H1413 0.931 1_556 S
C1422 C1420 1.384 . S
C1422 C1423 1.372 1_556 S
C1423 C1422 1.372 1_554 S
C1423 C1424 1.400 1_554 S
C1423 C1428 1.490 . S
C1424 H1414 0.930 1_556 S
C1424 C1423 1.400 1_556 S
C1424 C1427 1.386 . S
H1425 C1441 0.930 . S
H1426 C1442 0.931 . S
C1427 H1415 0.929 . S
C1427 C1421 1.390 . S
C1427 C1424 1.386 . S
C1428 C1423 1.490 . S
C1428 C1430 1.395 . S
C1428 C1431 1.403 . S
H1429 C1435 0.930 . S
C1430 H1416 0.930 . S
C1430 C1428 1.395 . S
C1430 C1433 1.403 . S
C1431 C1428 1.403 . S
C1431 C1432 1.524 . S
C1431 C1435 1.400 . S
C1432 H1417 0.960 . S
C1432 H1418 0.960 . S
C1432 H1419 0.960 . S
C1432 C1431 1.524 . S
C1433 C1430 1.403 . S
C1433 C1434 1.392 . S
C1433 C1437 1.495 . S
C1434 C1433 1.392 . S
C1434 C1435 1.385 . S
C1434 C1436 1.478 . S
C1435 H1429 0.930 . S
C1435 C1431 1.400 . S
C1435 C1434 1.385 . S
C1436 C1434 1.478 . S
C1436 C1438 1.381 . S
C1436 C1442 1.383 . S
C1437 C1433 1.495 . S
C1437 H1443 0.959 . S
C1437 H1444 0.961 . S
C1437 H1445 0.960 . S
C1438 C1436 1.381 . S
C1438 C1439 1.394 . S
C1438 H1446 0.930 . S
C1439 C1438 1.394 . S
C1439 C1440 1.383 . S
C1439 H1447 0.929 . S
C1440 C1439 1.383 . S
C1440 C1441 1.377 . S
C1441 H1425 0.930 . S
C1441 C1440 1.377 . S
C1441 C1442 1.379 . S
C1442 H1426 0.931 . S
C1442 C1436 1.383 . S
C1442 C1441 1.379 . S
H1443 C1437 0.959 . S
H1444 C1437 0.961 . S
H1445 C1437 0.960 . S
H1446 C1438 0.930 . S
H1447 C1439 0.929 . S
H1448 C1456 0.929 . S
H1449 C1458 0.930 . S
H1450 C1460 0.930 . S
H1451 C1463 0.929 . S
H1452 C1466 0.930 . S
H1453 C1468 0.960 . S
H1454 C1468 0.960 . S
H1455 C1468 0.960 . S
C1456 H1448 0.929 . S
C1456 C1457 1.377 . S
C1456 C1458 1.384 . S
C1457 C1456 1.377 . S
C1457 C1463 1.390 . S
C1458 H1449 0.930 . S
C1458 C1456 1.384 . S
C1458 C1459 1.372 . S
C1459 C1458 1.372 . S
C1459 C1460 1.400 . S
C1459 C1464 1.490 . S
C1460 H1450 0.930 . S
C1460 C1459 1.400 . S
C1460 C1463 1.386 . S
H1461 C1477 0.930 . S
H1462 C1478 0.931 . S
C1463 H1451 0.929 . S
C1463 C1457 1.390 . S
C1463 C1460 1.386 . S
C1464 C1459 1.490 . S
C1464 C1466 1.395 . S
C1464 C1467 1.403 . S
H1465 C1471 0.930 . S
C1466 H1452 0.930 . S
C1466 C1464 1.395 . S
C1466 C1469 1.403 . S
C1467 C1464 1.403 . S
C1467 C1468 1.524 . S
C1467 C1471 1.400 . S
C1468 H1453 0.960 . S
C1468 H1454 0.960 . S
C1468 H1455 0.960 . S
C1468 C1467 1.524 . S
C1469 C1466 1.403 . S
C1469 C1470 1.392 . S
C1469 C1473 1.495 . S
C1470 C1469 1.392 . S
C1470 C1471 1.385 . S
C1470 C1472 1.478 1_556 S
C1471 H1465 0.930 . S
C1471 C1467 1.400 . S
C1471 C1470 1.385 . S
C1472 C1470 1.478 1_554 S
C1472 C1474 1.381 . S
C1472 C1478 1.383 . S
C1473 C1469 1.495 . S
C1473 H1479 0.959 . S
C1473 H1480 0.961 . S
C1473 H1481 0.960 . S
C1474 C1472 1.381 . S
C1474 C1475 1.394 . S
C1474 H1482 0.930 . S
C1475 C1474 1.394 . S
C1475 C1476 1.383 . S
C1475 H1483 0.929 . S
C1476 C1475 1.383 . S
C1476 C1477 1.377 . S
C1477 H1461 0.930 . S
C1477 C1476 1.377 . S
C1477 C1478 1.379 . S
C1478 H1462 0.931 . S
C1478 C1472 1.383 . S
C1478 C1477 1.379 . S
H1479 C1473 0.959 . S
H1480 C1473 0.961 . S
H1481 C1473 0.960 . S
H1482 C1474 0.930 . S
H1483 C1475 0.929 . S
H1484 C1492 0.929 . S
H1485 C1494 0.930 . S
H1486 C1496 0.930 . S
H1487 C1499 0.929 . S
H1488 C1502 0.930 . S
H1489 C1504 0.960 . S
H1490 C1504 0.960 . S
H1491 C1504 0.960 . S
C1492 H1484 0.929 . S
C1492 C1493 1.377 . S
C1492 C1494 1.384 . S
C1493 C1492 1.377 . S
C1493 C1499 1.390 . S
C1494 H1485 0.930 . S
C1494 C1492 1.384 . S
C1494 C1495 1.372 . S
C1495 C1494 1.372 . S
C1495 C1496 1.400 . S
C1495 C1500 1.490 . S
C1496 H1486 0.930 . S
C1496 C1495 1.400 . S
C1496 C1499 1.386 . S
H1497 C1513 0.930 . S
H1498 C1514 0.931 . S
C1499 H1487 0.929 . S
C1499 C1493 1.390 . S
C1499 C1496 1.386 . S
C1500 C1495 1.490 . S
C1500 C1502 1.395 . S
C1500 C1503 1.403 . S
H1501 C1507 0.930 . S
C1502 H1488 0.930 . S
C1502 C1500 1.395 . S
C1502 C1505 1.403 . S
C1503 C1500 1.403 . S
C1503 C1504 1.524 . S
C1503 C1507 1.400 . S
C1504 H1489 0.960 . S
C1504 H1490 0.960 . S
C1504 H1491 0.960 . S
C1504 C1503 1.524 . S
C1505 C1502 1.403 . S
C1505 C1506 1.392 . S
C1505 C1509 1.495 . S
C1506 C1505 1.392 . S
C1506 C1507 1.385 . S
C1506 C1508 1.478 . S
C1507 H1501 0.930 . S
C1507 C1503 1.400 . S
C1507 C1506 1.385 . S
C1508 C1506 1.478 . S
C1508 C1510 1.381 . S
C1508 C1514 1.383 . S
C1509 C1505 1.495 . S
C1509 H1515 0.959 . S
C1509 H1516 0.961 . S
C1509 H1517 0.960 . S
C1510 C1508 1.381 . S
C1510 C1511 1.394 . S
C1510 H1518 0.930 . S
C1511 C1510 1.394 . S
C1511 C1512 1.383 . S
C1511 H1519 0.929 . S
C1512 C1511 1.383 . S
C1512 C1513 1.377 . S
C1513 H1497 0.930 . S
C1513 C1512 1.377 . S
C1513 C1514 1.379 . S
C1514 H1498 0.931 . S
C1514 C1508 1.383 . S
C1514 C1513 1.379 . S
H1515 C1509 0.959 . S
H1516 C1509 0.961 . S
H1517 C1509 0.960 . S
H1518 C1510 0.930 . S
H1519 C1511 0.929 . S
H1520 C1528 0.929 . S
H1521 C1530 0.930 . S
H1522 C1532 0.930 . S
H1523 C1535 0.929 . S
H1524 C1538 0.930 . S
H1525 C1540 0.960 . S
H1526 C1540 0.960 . S
H1527 C1540 0.960 . S
C1528 H1520 0.929 . S
C1528 C1529 1.377 . S
C1528 C1530 1.384 . S
C1529 C1528 1.377 . S
C1529 C1535 1.390 . S
C1530 H1521 0.930 . S
C1530 C1528 1.384 . S
C1530 C1531 1.372 . S
C1531 C1530 1.372 . S
C1531 C1532 1.400 . S
C1531 C1536 1.490 . S
C1532 H1522 0.930 . S
C1532 C1531 1.400 . S
C1532 C1535 1.386 . S
H1533 C1549 0.930 . S
H1534 C1550 0.931 . S
C1535 H1523 0.929 . S
C1535 C1529 1.390 . S
C1535 C1532 1.386 . S
C1536 C1531 1.490 . S
C1536 C1538 1.395 . S
C1536 C1539 1.403 . S
H1537 C1543 0.930 . S
C1538 H1524 0.930 . S
C1538 C1536 1.395 . S
C1538 C1541 1.403 . S
C1539 C1536 1.403 . S
C1539 C1540 1.524 . S
C1539 C1543 1.400 . S
C1540 H1525 0.960 . S
C1540 H1526 0.960 . S
C1540 H1527 0.960 . S
C1540 C1539 1.524 . S
C1541 C1538 1.403 . S
C1541 C1542 1.392 . S
C1541 C1545 1.495 . S
C1542 C1541 1.392 . S
C1542 C1543 1.385 . S
C1542 C1544 1.478 . S
C1543 H1537 0.930 . S
C1543 C1539 1.400 . S
C1543 C1542 1.385 . S
C1544 C1542 1.478 . S
C1544 C1546 1.381 . S
C1544 C1550 1.383 . S
C1545 C1541 1.495 . S
C1545 H1551 0.959 . S
C1545 H1552 0.961 . S
C1545 H1553 0.960 . S
C1546 C1544 1.381 . S
C1546 C1547 1.394 . S
C1546 H1554 0.930 . S
C1547 C1546 1.394 . S
C1547 C1548 1.383 . S
C1547 H1555 0.929 . S
C1548 C1547 1.383 . S
C1548 C1549 1.377 . S
C1549 H1533 0.930 . S
C1549 C1548 1.377 . S
C1549 C1550 1.379 . S
C1550 H1534 0.931 . S
C1550 C1544 1.383 . S
C1550 C1549 1.379 . S
H1551 C1545 0.959 . S
H1552 C1545 0.961 . S
H1553 C1545 0.960 . S
H1554 C1546 0.930 . S
H1555 C1547 0.929 . S
H1556 C1564 0.929 . S
H1557 C1566 0.930 . S
H1558 C1568 0.930 . S
H1559 C1571 0.929 . S
H1560 C1574 0.930 . S
H1561 C1576 0.960 . S
H1562 C1576 0.960 . S
H1563 C1576 0.960 . S
C1564 H1556 0.929 . S
C1564 C1565 1.377 . S
C1564 C1566 1.384 . S
C1565 C1564 1.377 . S
C1565 C1571 1.390 . S
C1566 H1557 0.930 . S
C1566 C1564 1.384 . S
C1566 C1567 1.372 . S
C1567 C1566 1.372 . S
C1567 C1568 1.400 . S
C1567 C1572 1.490 . S
C1568 H1558 0.930 . S
C1568 C1567 1.400 . S
C1568 C1571 1.386 . S
H1569 C1585 0.930 . S
H1570 C1586 0.931 . S
C1571 H1559 0.929 . S
C1571 C1565 1.390 . S
C1571 C1568 1.386 . S
C1572 C1567 1.490 . S
C1572 C1574 1.395 . S
C1572 C1575 1.403 . S
H1573 C1579 0.930 . S
C1574 H1560 0.930 . S
C1574 C1572 1.395 . S
C1574 C1577 1.403 . S
C1575 C1572 1.403 . S
C1575 C1576 1.524 . S
C1575 C1579 1.400 . S
C1576 H1561 0.960 . S
C1576 H1562 0.960 . S
C1576 H1563 0.960 . S
C1576 C1575 1.524 . S
C1577 C1574 1.403 . S
C1577 C1578 1.392 . S
C1577 C1581 1.495 . S
C1578 C1577 1.392 . S
C1578 C1579 1.385 . S
C1578 C1580 1.478 . S
C1579 H1573 0.930 . S
C1579 C1575 1.400 . S
C1579 C1578 1.385 . S
C1580 C1578 1.478 . S
C1580 C1582 1.381 . S
C1580 C1586 1.383 . S
C1581 C1577 1.495 . S
C1581 H1587 0.959 . S
C1581 H1588 0.961 . S
C1581 H1589 0.960 . S
C1582 C1580 1.381 . S
C1582 C1583 1.394 . S
C1582 H1590 0.930 . S
C1583 C1582 1.394 . S
C1583 C1584 1.383 . S
C1583 H1591 0.929 . S
C1584 C1583 1.383 . S
C1584 C1585 1.377 . S
C1585 H1569 0.930 . S
C1585 C1584 1.377 . S
C1585 C1586 1.379 . S
C1586 H1570 0.931 . S
C1586 C1580 1.383 . S
C1586 C1585 1.379 . S
H1587 C1581 0.959 . S
H1588 C1581 0.961 . S
H1589 C1581 0.960 . S
H1590 C1582 0.930 . S
H1591 C1583 0.929 . S
H1592 C1600 0.929 . S
H1593 C1602 0.930 . S
H1594 C1604 0.930 . S
H1595 C1607 0.929 . S
H1596 C1610 0.930 . S
H1597 C1612 0.960 . S
H1598 C1612 0.960 . S
H1599 C1612 0.960 . S
C1600 H1592 0.929 . S
C1600 C1601 1.377 . S
C1600 C1602 1.384 . S
C1601 C1600 1.377 . S
C1601 C1607 1.390 . S
C1602 H1593 0.930 . S
C1602 C1600 1.384 . S
C1602 C1603 1.372 . S
C1603 C1602 1.372 . S
C1603 C1604 1.400 . S
C1603 C1608 1.490 1_556 S
C1604 H1594 0.930 . S
C1604 C1603 1.400 . S
C1604 C1607 1.386 . S
H1605 C1621 0.930 . S
H1606 C1622 0.931 . S
C1607 H1595 0.929 . S
C1607 C1601 1.390 . S
C1607 C1604 1.386 . S
C1608 C1603 1.490 1_554 S
C1608 C1610 1.395 . S
C1608 C1611 1.403 . S
H1609 C1615 0.930 . S
C1610 H1596 0.930 . S
C1610 C1608 1.395 . S
C1610 C1613 1.403 . S
C1611 C1608 1.403 . S
C1611 C1612 1.524 . S
C1611 C1615 1.400 . S
C1612 H1597 0.960 . S
C1612 H1598 0.960 . S
C1612 H1599 0.960 . S
C1612 C1611 1.524 . S
C1613 C1610 1.403 . S
C1613 C1614 1.392 . S
C1613 C1617 1.495 . S
C1614 C1613 1.392 . S
C1614 C1615 1.385 . S
C1614 C1616 1.478 . S
C1615 H1609 0.930 . S
C1615 C1611 1.400 . S
C1615 C1614 1.385 . S
C1616 C1614 1.478 . S
C1616 C1618 1.381 . S
C1616 C1622 1.383 . S
C1617 C1613 1.495 . S
C1617 H1623 0.959 . S
C1617 H1624 0.961 . S
C1617 H1625 0.960 . S
C1618 C1616 1.381 . S
C1618 C1619 1.394 . S
C1618 H1626 0.930 . S
C1619 C1618 1.394 . S
C1619 C1620 1.383 . S
C1619 H1627 0.929 . S
C1620 C1619 1.383 . S
C1620 C1621 1.377 . S
C1621 H1605 0.930 . S
C1621 C1620 1.377 . S
C1621 C1622 1.379 . S
C1622 H1606 0.931 . S
C1622 C1616 1.383 . S
C1622 C1621 1.379 . S
H1623 C1617 0.959 . S
H1624 C1617 0.961 . S
H1625 C1617 0.960 . S
H1626 C1618 0.930 . S
H1627 C1619 0.929 . S
H1628 C1636 0.929 . S
H1629 C1638 0.930 . S
H1630 C1640 0.930 1_556 S
H1631 C1643 0.929 . S
H1632 C1646 0.930 . S
H1633 C1648 0.960 . S
H1634 C1648 0.960 . S
H1635 C1648 0.960 . S
C1636 H1628 0.929 . S
C1636 C1637 1.377 . S
C1636 C1638 1.384 . S
C1637 C1636 1.377 . S
C1637 C1643 1.390 . S
C1638 H1629 0.930 . S
C1638 C1636 1.384 . S
C1638 C1639 1.372 1_554 S
C1639 C1638 1.372 1_556 S
C1639 C1640 1.400 1_556 S
C1639 C1644 1.490 . S
C1640 H1630 0.930 1_554 S
C1640 C1639 1.400 1_554 S
C1640 C1643 1.386 . S
H1641 C1657 0.930 . S
H1642 C1658 0.931 . S
C1643 H1631 0.929 . S
C1643 C1637 1.390 . S
C1643 C1640 1.386 . S
C1644 C1639 1.490 . S
C1644 C1646 1.395 . S
C1644 C1647 1.403 . S
H1645 C1651 0.930 . S
C1646 H1632 0.930 . S
C1646 C1644 1.395 . S
C1646 C1649 1.403 . S
C1647 C1644 1.403 . S
C1647 C1648 1.524 . S
C1647 C1651 1.400 . S
C1648 H1633 0.960 . S
C1648 H1634 0.960 . S
C1648 H1635 0.960 . S
C1648 C1647 1.524 . S
C1649 C1646 1.403 . S
C1649 C1650 1.392 . S
C1649 C1653 1.495 . S
C1650 C1649 1.392 . S
C1650 C1651 1.385 . S
C1650 C1652 1.478 . S
C1651 H1645 0.930 . S
C1651 C1647 1.400 . S
C1651 C1650 1.385 . S
C1652 C1650 1.478 . S
C1652 C1654 1.381 . S
C1652 C1658 1.383 . S
C1653 C1649 1.495 . S
C1653 H1659 0.959 . S
C1653 H1660 0.961 . S
C1653 H1661 0.960 . S
C1654 C1652 1.381 . S
C1654 C1655 1.394 . S
C1654 H1662 0.930 . S
C1655 C1654 1.394 . S
C1655 C1656 1.383 . S
C1655 H1663 0.929 . S
C1656 C1655 1.383 . S
C1656 C1657 1.377 . S
C1657 H1641 0.930 . S
C1657 C1656 1.377 . S
C1657 C1658 1.379 . S
C1658 H1642 0.931 . S
C1658 C1652 1.383 . S
C1658 C1657 1.379 . S
H1659 C1653 0.959 . S
H1660 C1653 0.961 . S
H1661 C1653 0.960 . S
H1662 C1654 0.930 . S
H1663 C1655 0.929 . S
H1664 C1672 0.929 . S
H1665 C1674 0.930 . S
H1666 C1676 0.930 . S
H1667 C1679 0.929 . S
H1668 C1682 0.930 . S
H1669 C1684 0.960 . S
H1670 C1684 0.960 . S
H1671 C1684 0.960 . S
C1672 H1664 0.929 . S
C1672 C1673 1.377 . S
C1672 C1674 1.384 . S
C1673 C1672 1.377 . S
C1673 C1679 1.390 . S
C1674 H1665 0.930 . S
C1674 C1672 1.384 . S
C1674 C1675 1.372 . S
C1675 C1674 1.372 . S
C1675 C1676 1.400 . S
C1675 C1680 1.490 1_556 S
C1676 H1666 0.930 . S
C1676 C1675 1.400 . S
C1676 C1679 1.386 . S
H1677 C1693 0.930 . S
H1678 C1694 0.931 . S
C1679 H1667 0.929 . S
C1679 C1673 1.390 . S
C1679 C1676 1.386 . S
C1680 C1675 1.490 1_554 S
C1680 C1682 1.395 . S
C1680 C1683 1.403 . S
H1681 C1687 0.930 . S
C1682 H1668 0.930 . S
C1682 C1680 1.395 . S
C1682 C1685 1.403 . S
C1683 C1680 1.403 . S
C1683 C1684 1.524 . S
C1683 C1687 1.400 . S
C1684 H1669 0.960 . S
C1684 H1670 0.960 . S
C1684 H1671 0.960 . S
C1684 C1683 1.524 . S
C1685 C1682 1.403 . S
C1685 C1686 1.392 . S
C1685 C1689 1.495 . S
C1686 C1685 1.392 . S
C1686 C1687 1.385 . S
C1686 C1688 1.478 . S
C1687 H1681 0.930 . S
C1687 C1683 1.400 . S
C1687 C1686 1.385 . S
C1688 C1686 1.478 . S
C1688 C1690 1.381 . S
C1688 C1694 1.383 . S
C1689 C1685 1.495 . S
C1689 H1695 0.959 . S
C1689 H1696 0.961 . S
C1689 H1697 0.960 . S
C1690 C1688 1.381 . S
C1690 C1691 1.394 . S
C1690 H1698 0.930 . S
C1691 C1690 1.394 . S
C1691 C1692 1.383 . S
C1691 H1699 0.929 . S
C1692 C1691 1.383 . S
C1692 C1693 1.377 . S
C1693 H1677 0.930 . S
C1693 C1692 1.377 . S
C1693 C1694 1.379 . S
C1694 H1678 0.931 . S
C1694 C1688 1.383 . S
C1694 C1693 1.379 . S
H1695 C1689 0.959 . S
H1696 C1689 0.961 . S
H1697 C1689 0.960 . S
H1698 C1690 0.930 . S
H1699 C1691 0.929 . S
H1700 C1708 0.929 . S
H1701 C1710 0.930 . S
H1702 C1712 0.930 . S
H1703 C1715 0.929 . S
H1704 C1718 0.930 . S
H1705 C1720 0.960 . S
H1706 C1720 0.960 . S
H1707 C1720 0.960 . S
C1708 H1700 0.929 . S
C1708 C1709 1.377 . S
C1708 C1710 1.384 . S
C1709 C1708 1.377 . S
C1709 C1715 1.390 . S
C1710 H1701 0.930 . S
C1710 C1708 1.384 . S
C1710 C1711 1.372 . S
C1711 C1710 1.372 . S
C1711 C1712 1.400 . S
C1711 C1716 1.490 . S
C1712 H1702 0.930 . S
C1712 C1711 1.400 . S
C1712 C1715 1.386 . S
H1713 C1729 0.930 . S
H1714 C1730 0.931 . S
C1715 H1703 0.929 . S
C1715 C1709 1.390 . S
C1715 C1712 1.386 . S
C1716 C1711 1.490 . S
C1716 C1718 1.395 . S
C1716 C1719 1.403 . S
H1717 C1723 0.930 . S
C1718 H1704 0.930 . S
C1718 C1716 1.395 . S
C1718 C1721 1.403 . S
C1719 C1716 1.403 . S
C1719 C1720 1.524 . S
C1719 C1723 1.400 . S
C1720 H1705 0.960 . S
C1720 H1706 0.960 . S
C1720 H1707 0.960 . S
C1720 C1719 1.524 . S
C1721 C1718 1.403 . S
C1721 C1722 1.392 . S
C1721 C1725 1.495 . S
C1722 C1721 1.392 . S
C1722 C1723 1.385 . S
C1722 C1724 1.478 . S
C1723 H1717 0.930 . S
C1723 C1719 1.400 . S
C1723 C1722 1.385 . S
C1724 C1722 1.478 . S
C1724 C1726 1.381 . S
C1724 C1730 1.383 . S
C1725 C1721 1.495 . S
C1725 H1731 0.959 . S
C1725 H1732 0.961 . S
C1725 H1733 0.960 . S
C1726 C1724 1.381 . S
C1726 C1727 1.394 . S
C1726 H1734 0.930 . S
C1727 C1726 1.394 . S
C1727 C1728 1.383 . S
C1727 H1735 0.929 . S
C1728 C1727 1.383 . S
C1728 C1729 1.377 . S
C1729 H1713 0.930 . S
C1729 C1728 1.377 . S
C1729 C1730 1.379 . S
C1730 H1714 0.931 . S
C1730 C1724 1.383 . S
C1730 C1729 1.379 . S
H1731 C1725 0.959 . S
H1732 C1725 0.961 . S
H1733 C1725 0.960 . S
H1734 C1726 0.930 . S
H1735 C1727 0.929 . S
H1736 C1744 0.929 . S
H1737 C1746 0.930 . S
H1738 C1748 0.930 . S
H1739 C1751 0.929 . S
H1740 C1754 0.930 . S
H1741 C1756 0.960 . S
H1742 C1756 0.960 . S
H1743 C1756 0.960 . S
C1744 H1736 0.929 . S
C1744 C1745 1.377 . S
C1744 C1746 1.384 . S
C1745 C1744 1.377 . S
C1745 C1751 1.390 . S
C1746 H1737 0.930 . S
C1746 C1744 1.384 . S
C1746 C1747 1.372 . S
C1747 C1746 1.372 . S
C1747 C1748 1.400 . S
C1747 C1752 1.490 . S
C1748 H1738 0.930 . S
C1748 C1747 1.400 . S
C1748 C1751 1.386 . S
H1749 C1765 0.930 . S
H1750 C1766 0.931 . S
C1751 H1739 0.929 . S
C1751 C1745 1.390 . S
C1751 C1748 1.386 . S
C1752 C1747 1.490 . S
C1752 C1754 1.395 . S
C1752 C1755 1.403 . S
H1753 C1759 0.930 . S
C1754 H1740 0.930 . S
C1754 C1752 1.395 . S
C1754 C1757 1.403 . S
C1755 C1752 1.403 . S
C1755 C1756 1.524 . S
C1755 C1759 1.400 . S
C1756 H1741 0.960 . S
C1756 H1742 0.960 . S
C1756 H1743 0.960 . S
C1756 C1755 1.524 . S
C1757 C1754 1.403 . S
C1757 C1758 1.392 . S
C1757 C1761 1.495 . S
C1758 C1757 1.392 . S
C1758 C1759 1.385 . S
C1758 C1760 1.478 . S
C1759 H1753 0.930 . S
C1759 C1755 1.400 . S
C1759 C1758 1.385 . S
C1760 C1758 1.478 . S
C1760 C1762 1.381 . S
C1760 C1766 1.383 . S
C1761 C1757 1.495 . S
C1761 H1767 0.959 . S
C1761 H1768 0.961 . S
C1761 H1769 0.960 . S
C1762 C1760 1.381 . S
C1762 C1763 1.394 . S
C1762 H1770 0.930 . S
C1763 C1762 1.394 . S
C1763 C1764 1.383 . S
C1763 H1771 0.929 . S
C1764 C1763 1.383 . S
C1764 C1765 1.377 . S
C1765 H1749 0.930 . S
C1765 C1764 1.377 . S
C1765 C1766 1.379 . S
C1766 H1750 0.931 . S
C1766 C1760 1.383 . S
C1766 C1765 1.379 . S
H1767 C1761 0.959 . S
H1768 C1761 0.961 . S
H1769 C1761 0.960 . S
H1770 C1762 0.930 . S
H1771 C1763 0.929 . S
H1772 C1780 0.929 . S
H1773 C1782 0.930 . S
H1774 C1784 0.930 . S
H1775 C1787 0.929 . S
H1776 C1790 0.930 . S
H1777 C1792 0.960 . S
H1778 C1792 0.960 . S
H1779 C1792 0.960 . S
C1780 H1772 0.929 . S
C1780 C1781 1.377 . S
C1780 C1782 1.384 . S
C1781 C1780 1.377 . S
C1781 C1787 1.390 . S
C1782 H1773 0.930 . S
C1782 C1780 1.384 . S
C1782 C1783 1.372 . S
C1783 C1782 1.372 . S
C1783 C1784 1.400 . S
C1783 C1788 1.490 . S
C1784 H1774 0.930 . S
C1784 C1783 1.400 . S
C1784 C1787 1.386 . S
H1785 C1801 0.930 . S
H1786 C1802 0.931 1_556 S
C1787 H1775 0.929 . S
C1787 C1781 1.390 . S
C1787 C1784 1.386 . S
C1788 C1783 1.490 . S
C1788 C1790 1.395 . S
C1788 C1791 1.403 . S
H1789 C1795 0.930 . S
C1790 H1776 0.930 . S
C1790 C1788 1.395 . S
C1790 C1793 1.403 . S
C1791 C1788 1.403 . S
C1791 C1792 1.524 . S
C1791 C1795 1.400 . S
C1792 H1777 0.960 . S
C1792 H1778 0.960 . S
C1792 H1779 0.960 . S
C1792 C1791 1.524 . S
C1793 C1790 1.403 . S
C1793 C1794 1.392 . S
C1793 C1797 1.495 . S
C1794 C1793 1.392 . S
C1794 C1795 1.385 . S
C1794 C1796 1.478 . S
C1795 H1789 0.930 . S
C1795 C1791 1.400 . S
C1795 C1794 1.385 . S
C1796 C1794 1.478 . S
C1796 C1798 1.381 1_556 S
C1796 C1802 1.383 1_556 S
C1797 C1793 1.495 . S
C1797 H1803 0.959 . S
C1797 H1804 0.961 . S
C1797 H1805 0.960 . S
C1798 C1796 1.381 1_554 S
C1798 C1799 1.394 . S
C1798 H1806 0.930 . S
C1799 C1798 1.394 . S
C1799 C1800 1.383 . S
C1799 H1807 0.929 . S
C1800 C1799 1.383 . S
C1800 C1801 1.377 . S
C1801 H1785 0.930 . S
C1801 C1800 1.377 . S
C1801 C1802 1.379 . S
C1802 H1786 0.931 1_554 S
C1802 C1796 1.383 1_554 S
C1802 C1801 1.379 . S
H1803 C1797 0.959 . S
H1804 C1797 0.961 . S
H1805 C1797 0.960 . S
H1806 C1798 0.930 . S
H1807 C1799 0.929 . S
H1808 C1816 0.929 . S
H1809 C1818 0.930 . S
H1810 C1820 0.930 . S
H1811 C1823 0.929 . S
H1812 C1826 0.930 . S
H1813 C1828 0.960 . S
H1814 C1828 0.960 . S
H1815 C1828 0.960 . S
C1816 H1808 0.929 . S
C1816 C1817 1.377 . S
C1816 C1818 1.384 . S
C1817 C1816 1.377 . S
C1817 C1823 1.390 . S
C1818 H1809 0.930 . S
C1818 C1816 1.384 . S
C1818 C1819 1.372 . S
C1819 C1818 1.372 . S
C1819 C1820 1.400 . S
C1819 C1824 1.490 1_554 S
C1820 H1810 0.930 . S
C1820 C1819 1.400 . S
C1820 C1823 1.386 . S
H1821 C1837 0.930 . S
H1822 C1838 0.931 . S
C1823 H1811 0.929 . S
C1823 C1817 1.390 . S
C1823 C1820 1.386 . S
C1824 C1819 1.490 1_556 S
C1824 C1826 1.395 . S
C1824 C1827 1.403 . S
H1825 C1831 0.930 . S
C1826 H1812 0.930 . S
C1826 C1824 1.395 . S
C1826 C1829 1.403 . S
C1827 C1824 1.403 . S
C1827 C1828 1.524 . S
C1827 C1831 1.400 . S
C1828 H1813 0.960 . S
C1828 H1814 0.960 . S
C1828 H1815 0.960 . S
C1828 C1827 1.524 . S
C1829 C1826 1.403 . S
C1829 C1830 1.392 . S
C1829 C1833 1.495 . S
C1830 C1829 1.392 . S
C1830 C1831 1.385 . S
C1830 C1832 1.478 . S
C1831 H1825 0.930 . S
C1831 C1827 1.400 . S
C1831 C1830 1.385 . S
C1832 C1830 1.478 . S
C1832 C1834 1.381 . S
C1832 C1838 1.383 . S
C1833 C1829 1.495 . S
C1833 H1839 0.959 . S
C1833 H1840 0.961 . S
C1833 H1841 0.960 . S
C1834 C1832 1.381 . S
C1834 C1835 1.394 . S
C1834 H1842 0.930 . S
C1835 C1834 1.394 . S
C1835 C1836 1.383 . S
C1835 H1843 0.929 . S
C1836 C1835 1.383 . S
C1836 C1837 1.377 . S
C1837 H1821 0.930 . S
C1837 C1836 1.377 . S
C1837 C1838 1.379 . S
C1838 H1822 0.931 . S
C1838 C1832 1.383 . S
C1838 C1837 1.379 . S
H1839 C1833 0.959 . S
H1840 C1833 0.961 . S
H1841 C1833 0.960 . S
H1842 C1834 0.930 . S
H1843 C1835 0.929 . S
H1844 C1852 0.929 . S
H1845 C1854 0.930 . S
H1846 C1856 0.930 . S
H1847 C1859 0.929 . S
H1848 C1862 0.930 . S
H1849 C1864 0.960 . S
H1850 C1864 0.960 . S
H1851 C1864 0.960 . S
C1852 H1844 0.929 . S
C1852 C1853 1.377 . S
C1852 C1854 1.384 . S
C1853 C1852 1.377 . S
C1853 C1859 1.390 . S
C1854 H1845 0.930 . S
C1854 C1852 1.384 . S
C1854 C1855 1.372 . S
C1855 C1854 1.372 . S
C1855 C1856 1.400 . S
C1855 C1860 1.490 . S
C1856 H1846 0.930 . S
C1856 C1855 1.400 . S
C1856 C1859 1.386 . S
H1857 C1873 0.930 . S
H1858 C1874 0.925 1_554 S
C1859 H1847 0.929 . S
C1859 C1853 1.390 . S
C1859 C1856 1.386 . S
C1860 C1855 1.490 . S
C1860 C1862 1.395 . S
C1860 C1863 1.403 . S
H1861 C1867 0.930 . S
C1862 H1848 0.930 . S
C1862 C1860 1.395 . S
C1862 C1865 1.403 . S
C1863 C1860 1.403 . S
C1863 C1864 1.524 . S
C1863 C1867 1.400 . S
C1864 H1849 0.960 . S
C1864 H1850 0.960 . S
C1864 H1851 0.960 . S
C1864 C1863 1.524 . S
C1865 C1862 1.403 . S
C1865 C1866 1.392 . S
C1865 C1869 1.495 . S
C1866 C1865 1.392 . S
C1866 C1867 1.385 . S
C1866 C1868 1.478 . S
C1867 H1861 0.930 . S
C1867 C1863 1.400 . S
C1867 C1866 1.385 . S
C1868 C1866 1.478 . S
C1868 C1870 1.381 1_554 S
C1868 C1874 1.383 1_554 S
C1869 C1865 1.495 . S
C1869 H1875 0.959 . S
C1869 H1876 0.961 . S
C1869 H1877 0.960 . S
C1870 C1868 1.381 1_556 S
C1870 C1871 1.394 . S
C1870 H1878 0.930 1_556 S
C1871 C1870 1.394 . S
C1871 C1872 1.383 . S
C1871 H1879 0.929 . S
C1872 C1871 1.383 . S
C1872 C1873 1.377 . S
C1873 H1857 0.930 . S
C1873 C1872 1.377 . S
C1873 C1874 1.379 . S
C1874 H1858 0.925 1_556 S
C1874 C1868 1.383 1_556 S
C1874 C1873 1.379 . S
H1875 C1869 0.959 . S
H1876 C1869 0.961 . S
H1877 C1869 0.960 . S
H1878 C1870 0.930 1_554 S
H1879 C1871 0.929 . S
H1880 C1888 0.929 . S
H1881 C1890 0.930 . S
H1882 C1892 0.930 . S
H1883 C1895 0.929 . S
H1884 C1898 0.930 . S
H1885 C1900 0.960 . S
H1886 C1900 0.960 . S
H1887 C1900 0.960 . S
C1888 H1880 0.929 . S
C1888 C1889 1.377 . S
C1888 C1890 1.384 . S
C1889 C1888 1.377 . S
C1889 C1895 1.390 . S
C1890 H1881 0.930 . S
C1890 C1888 1.384 . S
C1890 C1891 1.372 . S
C1891 C1890 1.372 . S
C1891 C1892 1.400 . S
C1891 C1896 1.490 . S
C1892 H1882 0.930 . S
C1892 C1891 1.400 . S
C1892 C1895 1.386 . S
H1893 C1909 0.930 . S
H1894 C1910 0.931 . S
C1895 H1883 0.929 . S
C1895 C1889 1.390 . S
C1895 C1892 1.386 . S
C1896 C1891 1.490 . S
C1896 C1898 1.395 . S
C1896 C1899 1.403 . S
H1897 C1903 0.930 . S
C1898 H1884 0.930 . S
C1898 C1896 1.395 . S
C1898 C1901 1.403 . S
C1899 C1896 1.403 . S
C1899 C1900 1.524 . S
C1899 C1903 1.400 . S
C1900 H1885 0.960 . S
C1900 H1886 0.960 . S
C1900 H1887 0.960 . S
C1900 C1899 1.524 . S
C1901 C1898 1.403 . S
C1901 C1902 1.392 . S
C1901 C1905 1.495 . S
C1902 C1901 1.392 . S
C1902 C1903 1.385 . S
C1902 C1904 1.478 . S
C1903 H1897 0.930 . S
C1903 C1899 1.400 . S
C1903 C1902 1.385 . S
C1904 C1902 1.478 . S
C1904 C1906 1.381 . S
C1904 C1910 1.383 . S
C1905 C1901 1.495 . S
C1905 H1911 0.959 . S
C1905 H1912 0.961 . S
C1905 H1913 0.960 . S
C1906 C1904 1.381 . S
C1906 C1907 1.394 . S
C1906 H1914 0.930 . S
C1907 C1906 1.394 . S
C1907 C1908 1.383 . S
C1907 H1915 0.929 . S
C1908 C1907 1.383 . S
C1908 C1909 1.377 . S
C1909 H1893 0.930 . S
C1909 C1908 1.377 . S
C1909 C1910 1.379 . S
C1910 H1894 0.931 . S
C1910 C1904 1.383 . S
C1910 C1909 1.379 . S
H1911 C1905 0.959 . S
H1912 C1905 0.961 . S
H1913 C1905 0.960 . S
H1914 C1906 0.930 . S
H1915 C1907 0.929 . S
H1916 C1924 0.929 . S
H1917 C1926 0.930 . S
H1918 C1928 0.930 . S
H1919 C1931 0.929 . S
H1920 C1934 0.930 . S
H1921 C1936 0.960 . S
H1922 C1936 0.960 . S
H1923 C1936 0.960 . S
C1924 H1916 0.929 . S
C1924 C1925 1.377 . S
C1924 C1926 1.384 . S
C1925 C1924 1.377 . S
C1925 C1931 1.390 . S
C1926 H1917 0.930 . S
C1926 C1924 1.384 . S
C1926 C1927 1.372 . S
C1927 C1926 1.372 . S
C1927 C1928 1.400 . S
C1927 C1932 1.490 . S
C1928 H1918 0.930 . S
C1928 C1927 1.400 . S
C1928 C1931 1.386 . S
H1929 C1945 0.930 . S
H1930 C1946 0.931 . S
C1931 H1919 0.929 . S
C1931 C1925 1.390 . S
C1931 C1928 1.386 . S
C1932 C1927 1.490 . S
C1932 C1934 1.395 . S
C1932 C1935 1.403 . S
H1933 C1939 0.930 . S
C1934 H1920 0.930 . S
C1934 C1932 1.395 . S
C1934 C1937 1.403 . S
C1935 C1932 1.403 . S
C1935 C1936 1.524 . S
C1935 C1939 1.400 . S
C1936 H1921 0.960 . S
C1936 H1922 0.960 . S
C1936 H1923 0.960 . S
C1936 C1935 1.524 . S
C1937 C1934 1.403 . S
C1937 C1938 1.392 . S
C1937 C1941 1.495 . S
C1938 C1937 1.392 . S
C1938 C1939 1.385 . S
C1938 C1940 1.478 . S
C1939 H1933 0.930 . S
C1939 C1935 1.400 . S
C1939 C1938 1.385 . S
C1940 C1938 1.478 . S
C1940 C1942 1.381 . S
C1940 C1946 1.383 . S
C1941 C1937 1.495 . S
C1941 H1947 0.959 . S
C1941 H1948 0.961 . S
C1941 H1949 0.960 . S
C1942 C1940 1.381 . S
C1942 C1943 1.394 . S
C1942 H1950 0.930 . S
C1943 C1942 1.394 . S
C1943 C1944 1.383 . S
C1943 H1951 0.929 . S
C1944 C1943 1.383 . S
C1944 C1945 1.377 . S
C1945 H1929 0.930 . S
C1945 C1944 1.377 . S
C1945 C1946 1.379 . S
C1946 H1930 0.931 . S
C1946 C1940 1.383 . S
C1946 C1945 1.379 . S
H1947 C1941 0.959 . S
H1948 C1941 0.961 . S
H1949 C1941 0.960 . S
H1950 C1942 0.930 . S
H1951 C1943 0.929 . S
H1952 C1960 0.929 . S
H1953 C1962 0.930 . S
H1954 C1964 0.930 . S
H1955 C1967 0.929 . S
H1956 C1970 0.930 . S
H1957 C1972 0.960 . S
H1958 C1972 0.960 . S
H1959 C1972 0.960 . S
C1960 H1952 0.929 . S
C1960 C1961 1.377 . S
C1960 C1962 1.384 . S
C1961 C1960 1.377 . S
C1961 C1967 1.390 . S
C1962 H1953 0.930 . S
C1962 C1960 1.384 . S
C1962 C1963 1.372 . S
C1963 C1962 1.372 . S
C1963 C1964 1.400 . S
C1963 C1968 1.490 1_554 S
C1964 H1954 0.930 . S
C1964 C1963 1.400 . S
C1964 C1967 1.386 . S
H1965 C1981 0.930 . S
H1966 C1982 0.931 . S
C1967 H1955 0.929 . S
C1967 C1961 1.390 . S
C1967 C1964 1.386 . S
C1968 C1963 1.490 1_556 S
C1968 C1970 1.395 . S
C1968 C1971 1.403 . S
H1969 C1975 0.930 . S
C1970 H1956 0.930 . S
C1970 C1968 1.395 . S
C1970 C1973 1.403 . S
C1971 C1968 1.403 . S
C1971 C1972 1.524 . S
C1971 C1975 1.400 . S
C1972 H1957 0.960 . S
C1972 H1958 0.960 . S
C1972 H1959 0.960 . S
C1972 C1971 1.524 . S
C1973 C1970 1.403 . S
C1973 C1974 1.392 . S
C1973 C1977 1.495 . S
C1974 C1973 1.392 . S
C1974 C1975 1.385 . S
C1974 C1976 1.478 . S
C1975 H1969 0.930 . S
C1975 C1971 1.400 . S
C1975 C1974 1.385 . S
C1976 C1974 1.478 . S
C1976 C1978 1.381 . S
C1976 C1982 1.383 . S
C1977 C1973 1.495 . S
C1977 H1983 0.959 . S
C1977 H1984 0.961 . S
C1977 H1985 0.960 . S
C1978 C1976 1.381 . S
C1978 C1979 1.394 . S
C1978 H1986 0.930 . S
C1979 C1978 1.394 . S
C1979 C1980 1.383 . S
C1979 H1987 0.929 . S
C1980 C1979 1.383 . S
C1980 C1981 1.377 . S
C1981 H1965 0.930 . S
C1981 C1980 1.377 . S
C1981 C1982 1.379 . S
C1982 H1966 0.931 . S
C1982 C1976 1.383 . S
C1982 C1981 1.379 . S
H1983 C1977 0.959 . S
H1984 C1977 0.961 . S
H1985 C1977 0.960 . S
H1986 C1978 0.930 . S
H1987 C1979 0.929 . S
H1988 C1996 0.929 . S
H1989 C1998 0.930 . S
H1990 C2000 0.930 . S
H1991 C2003 0.929 . S
H1992 C2006 0.930 . S
H1993 C2008 0.960 . S
H1994 C2008 0.960 . S
H1995 C2008 0.960 . S
C1996 H1988 0.929 . S
C1996 C1997 1.377 . S
C1996 C1998 1.384 . S
C1997 C1996 1.377 . S
C1997 C2003 1.390 . S
C1998 H1989 0.930 . S
C1998 C1996 1.384 . S
C1998 C1999 1.372 . S
C1999 C1998 1.372 . S
C1999 C2000 1.400 . S
C1999 C2004 1.490 . S
C2000 H1990 0.930 . S
C2000 C1999 1.400 . S
C2000 C2003 1.386 . S
H2001 C2017 0.930 . S
H2002 C2018 0.931 . S
C2003 H1991 0.929 . S
C2003 C1997 1.390 . S
C2003 C2000 1.386 . S
C2004 C1999 1.490 . S
C2004 C2006 1.395 . S
C2004 C2007 1.403 . S
H2005 C2011 0.930 . S
C2006 H1992 0.930 . S
C2006 C2004 1.395 . S
C2006 C2009 1.403 . S
C2007 C2004 1.403 . S
C2007 C2008 1.524 . S
C2007 C2011 1.400 . S
C2008 H1993 0.960 . S
C2008 H1994 0.960 . S
C2008 H1995 0.960 . S
C2008 C2007 1.524 . S
C2009 C2006 1.403 . S
C2009 C2010 1.392 . S
C2009 C2013 1.495 . S
C2010 C2009 1.392 . S
C2010 C2011 1.385 . S
C2010 C2012 1.478 . S
C2011 H2005 0.930 . S
C2011 C2007 1.400 . S
C2011 C2010 1.385 . S
C2012 C2010 1.478 . S
C2012 C2014 1.381 . S
C2012 C2018 1.383 . S
C2013 C2009 1.495 . S
C2013 H2019 0.959 . S
C2013 H2020 0.961 . S
C2013 H2021 0.960 . S
C2014 C2012 1.381 . S
C2014 C2015 1.394 . S
C2014 H2022 0.930 . S
C2015 C2014 1.394 . S
C2015 C2016 1.383 . S
C2015 H2023 0.929 . S
C2016 C2015 1.383 . S
C2016 C2017 1.377 . S
C2017 H2001 0.930 . S
C2017 C2016 1.377 . S
C2017 C2018 1.379 . S
C2018 H2002 0.931 . S
C2018 C2012 1.383 . S
C2018 C2017 1.379 . S
H2019 C2013 0.959 . S
H2020 C2013 0.961 . S
H2021 C2013 0.960 . S
H2022 C2014 0.930 . S
H2023 C2015 0.929 . S
H2024 C2032 0.929 . S
H2025 C2034 0.930 . S
H2026 C2036 0.930 . S
H2027 C2039 0.929 . S
H2028 C2042 0.930 . S
H2029 C2044 0.960 . S
H2030 C2044 0.960 . S
H2031 C2044 0.960 . S
C2032 H2024 0.929 . S
C2032 C2033 1.377 . S
C2032 C2034 1.384 . S
C2033 C2032 1.377 . S
C2033 C2039 1.390 . S
C2034 H2025 0.930 . S
C2034 C2032 1.384 . S
C2034 C2035 1.372 . S
C2035 C2034 1.372 . S
C2035 C2036 1.400 . S
C2035 C2040 1.490 . S
C2036 H2026 0.930 . S
C2036 C2035 1.400 . S
C2036 C2039 1.386 . S
H2037 C2053 0.930 . S
H2038 C2054 0.931 . S
C2039 H2027 0.929 . S
C2039 C2033 1.390 . S
C2039 C2036 1.386 . S
C2040 C2035 1.490 . S
C2040 C2042 1.395 . S
C2040 C2043 1.403 . S
H2041 C2047 0.930 . S
C2042 H2028 0.930 . S
C2042 C2040 1.395 . S
C2042 C2045 1.403 . S
C2043 C2040 1.403 . S
C2043 C2044 1.524 . S
C2043 C2047 1.400 . S
C2044 H2029 0.960 . S
C2044 H2030 0.960 . S
C2044 H2031 0.960 . S
C2044 C2043 1.524 . S
C2045 C2042 1.403 . S
C2045 C2046 1.392 . S
C2045 C2049 1.495 . S
C2046 C2045 1.392 . S
C2046 C2047 1.385 . S
C2046 C2048 1.478 . S
C2047 H2041 0.930 . S
C2047 C2043 1.400 . S
C2047 C2046 1.385 . S
C2048 C2046 1.478 . S
C2048 C2050 1.381 . S
C2048 C2054 1.383 . S
C2049 C2045 1.495 . S
C2049 H2055 0.959 . S
C2049 H2056 0.961 . S
C2049 H2057 0.960 . S
C2050 C2048 1.381 . S
C2050 C2051 1.394 . S
C2050 H2058 0.930 . S
C2051 C2050 1.394 . S
C2051 C2052 1.383 . S
C2051 H2059 0.929 . S
C2052 C2051 1.383 . S
C2052 C2053 1.377 . S
C2053 H2037 0.930 . S
C2053 C2052 1.377 . S
C2053 C2054 1.379 . S
C2054 H2038 0.931 . S
C2054 C2048 1.383 . S
C2054 C2053 1.379 . S
H2055 C2049 0.959 . S
H2056 C2049 0.961 . S
H2057 C2049 0.960 . S
H2058 C2050 0.930 . S
H2059 C2051 0.929 . S
H2060 C2068 0.929 . S
H2061 C2070 0.930 1_554 S
H2062 C2072 0.930 1_554 S
H2063 C2075 0.929 . S
H2064 C2078 0.930 . S
H2065 C2080 0.960 . S
H2066 C2080 0.960 . S
H2067 C2080 0.960 . S
C2068 H2060 0.929 . S
C2068 C2069 1.377 . S
C2068 C2070 1.384 . S
C2069 C2068 1.377 . S
C2069 C2075 1.390 . S
C2070 H2061 0.930 1_556 S
C2070 C2068 1.384 . S
C2070 C2071 1.372 1_556 S
C2071 C2070 1.372 1_554 S
C2071 C2072 1.400 1_554 S
C2071 C2076 1.490 . S
C2072 H2062 0.930 1_556 S
C2072 C2071 1.400 1_556 S
C2072 C2075 1.386 . S
H2073 C2089 0.930 . S
H2074 C2090 0.931 . S
C2075 H2063 0.929 . S
C2075 C2069 1.390 . S
C2075 C2072 1.386 . S
C2076 C2071 1.490 . S
C2076 C2078 1.395 . S
C2076 C2079 1.403 . S
H2077 C2083 0.930 . S
C2078 H2064 0.930 . S
C2078 C2076 1.395 . S
C2078 C2081 1.403 . S
C2079 C2076 1.403 . S
C2079 C2080 1.524 . S
C2079 C2083 1.400 . S
C2080 H2065 0.960 . S
C2080 H2066 0.960 . S
C2080 H2067 0.960 . S
C2080 C2079 1.524 . S
C2081 C2078 1.403 . S
C2081 C2082 1.392 . S
C2081 C2085 1.495 . S
C2082 C2081 1.392 . S
C2082 C2083 1.385 . S
C2082 C2084 1.478 . S
C2083 H2077 0.930 . S
C2083 C2079 1.400 . S
C2083 C2082 1.385 . S
C2084 C2082 1.478 . S
C2084 C2086 1.381 . S
C2084 C2090 1.383 . S
C2085 C2081 1.495 . S
C2085 H2091 0.959 . S
C2085 H2092 0.961 . S
C2085 H2093 0.960 . S
C2086 C2084 1.381 . S
C2086 C2087 1.394 . S
C2086 H2094 0.930 . S
C2087 C2086 1.394 . S
C2087 C2088 1.383 . S
C2087 H2095 0.929 . S
C2088 C2087 1.383 . S
C2088 C2089 1.377 . S
C2089 H2073 0.930 . S
C2089 C2088 1.377 . S
C2089 C2090 1.379 . S
C2090 H2074 0.931 . S
C2090 C2084 1.383 . S
C2090 C2089 1.379 . S
H2091 C2085 0.959 . S
H2092 C2085 0.961 . S
H2093 C2085 0.960 . S
H2094 C2086 0.930 . S
H2095 C2087 0.929 . S
H2096 C2104 0.929 . S
H2097 C2106 0.930 . S
H2098 C2108 0.930 . S
H2099 C2111 0.929 . S
H2100 C2114 0.930 . S
H2101 C2116 0.960 . S
H2102 C2116 0.960 . S
H2103 C2116 0.960 . S
C2104 H2096 0.929 . S
C2104 C2105 1.377 . S
C2104 C2106 1.384 . S
C2105 C2104 1.377 . S
C2105 C2111 1.390 . S
C2106 H2097 0.930 . S
C2106 C2104 1.384 . S
C2106 C2107 1.372 . S
C2107 C2106 1.372 . S
C2107 C2108 1.400 . S
C2107 C2112 1.490 . S
C2108 H2098 0.930 . S
C2108 C2107 1.400 . S
C2108 C2111 1.386 . S
H2109 C2125 0.930 . S
H2110 C2126 0.931 . S
C2111 H2099 0.929 . S
C2111 C2105 1.390 . S
C2111 C2108 1.386 . S
C2112 C2107 1.490 . S
C2112 C2114 1.395 . S
C2112 C2115 1.403 . S
H2113 C2119 0.930 . S
C2114 H2100 0.930 . S
C2114 C2112 1.395 . S
C2114 C2117 1.403 . S
C2115 C2112 1.403 . S
C2115 C2116 1.524 . S
C2115 C2119 1.400 . S
C2116 H2101 0.960 . S
C2116 H2102 0.960 . S
C2116 H2103 0.960 . S
C2116 C2115 1.524 . S
C2117 C2114 1.403 . S
C2117 C2118 1.392 . S
C2117 C2121 1.495 . S
C2118 C2117 1.392 . S
C2118 C2119 1.385 . S
C2118 C2120 1.478 1_554 S
C2119 H2113 0.930 . S
C2119 C2115 1.400 . S
C2119 C2118 1.385 . S
C2120 C2118 1.478 1_556 S
C2120 C2122 1.381 . S
C2120 C2126 1.383 . S
C2121 C2117 1.495 . S
C2121 H2127 0.959 . S
C2121 H2128 0.961 . S
C2121 H2129 0.960 . S
C2122 C2120 1.381 . S
C2122 C2123 1.394 . S
C2122 H2130 0.930 . S
C2123 C2122 1.394 . S
C2123 C2124 1.383 . S
C2123 H2131 0.929 . S
C2124 C2123 1.383 . S
C2124 C2125 1.377 . S
C2125 H2109 0.930 . S
C2125 C2124 1.377 . S
C2125 C2126 1.379 . S
C2126 H2110 0.931 . S
C2126 C2120 1.383 . S
C2126 C2125 1.379 . S
H2127 C2121 0.959 . S
H2128 C2121 0.961 . S
H2129 C2121 0.960 . S
H2130 C2122 0.930 . S
H2131 C2123 0.929 . S
H2132 C2140 0.929 . S
H2133 C2142 0.930 1_556 S
H2134 C2144 0.925 1_556 S
H2135 C2147 0.929 . S
H2136 C2150 0.930 . S
H2137 C2152 0.960 . S
H2138 C2152 0.960 . S
H2139 C2152 0.960 . S
C2140 H2132 0.929 . S
C2140 C2141 1.377 . S
C2140 C2142 1.384 . S
C2141 C2140 1.377 . S
C2141 C2147 1.390 . S
C2142 H2133 0.930 1_554 S
C2142 C2140 1.384 . S
C2142 C2143 1.372 1_554 S
C2143 C2142 1.372 1_556 S
C2143 C2144 1.400 1_556 S
C2143 C2148 1.490 . S
C2144 H2134 0.925 1_554 S
C2144 C2143 1.400 1_554 S
C2144 C2147 1.386 . S
H2145 C2161 0.930 . S
H2146 C2162 0.931 . S
C2147 H2135 0.929 . S
C2147 C2141 1.390 . S
C2147 C2144 1.386 . S
C2148 C2143 1.490 . S
C2148 C2150 1.395 . S
C2148 C2151 1.403 . S
H2149 C2155 0.930 . S
C2150 H2136 0.930 . S
C2150 C2148 1.395 . S
C2150 C2153 1.403 . S
C2151 C2148 1.403 . S
C2151 C2152 1.524 . S
C2151 C2155 1.400 . S
C2152 H2137 0.960 . S
C2152 H2138 0.960 . S
C2152 H2139 0.960 . S
C2152 C2151 1.524 . S
C2153 C2150 1.403 . S
C2153 C2154 1.392 . S
C2153 C2157 1.495 . S
C2154 C2153 1.392 . S
C2154 C2155 1.385 . S
C2154 C2156 1.478 . S
C2155 H2149 0.930 . S
C2155 C2151 1.400 . S
C2155 C2154 1.385 . S
C2156 C2154 1.478 . S
C2156 C2158 1.381 . S
C2156 C2162 1.383 . S
C2157 C2153 1.495 . S
C2157 H2163 0.959 . S
C2157 H2164 0.961 . S
C2157 H2165 0.960 . S
C2158 C2156 1.381 . S
C2158 C2159 1.394 . S
C2158 H2166 0.930 . S
C2159 C2158 1.394 . S
C2159 C2160 1.383 . S
C2159 H2167 0.929 . S
C2160 C2159 1.383 . S
C2160 C2161 1.377 . S
C2161 H2145 0.930 . S
C2161 C2160 1.377 . S
C2161 C2162 1.379 . S
C2162 H2146 0.931 . S
C2162 C2156 1.383 . S
C2162 C2161 1.379 . S
H2163 C2157 0.959 . S
H2164 C2157 0.961 . S
H2165 C2157 0.960 . S
H2166 C2158 0.930 . S
H2167 C2159 0.929 . S
H2168 C2176 0.929 . S
H2169 C2178 0.930 . S
H2170 C2180 0.930 . S
H2171 C2183 0.929 . S
H2172 C2186 0.930 . S
H2173 C2188 0.960 . S
H2174 C2188 0.960 . S
H2175 C2188 0.960 . S
C2176 H2168 0.929 . S
C2176 C2177 1.377 . S
C2176 C2178 1.384 . S
C2177 C2176 1.377 . S
C2177 C2183 1.390 . S
C2178 H2169 0.930 . S
C2178 C2176 1.384 . S
C2178 C2179 1.372 . S
C2179 C2178 1.372 . S
C2179 C2180 1.400 . S
C2179 C2184 1.490 . S
C2180 H2170 0.930 . S
C2180 C2179 1.400 . S
C2180 C2183 1.386 . S
H2181 C2197 0.930 . S
H2182 C2198 0.931 . S
C2183 H2171 0.929 . S
C2183 C2177 1.390 . S
C2183 C2180 1.386 . S
C2184 C2179 1.490 . S
C2184 C2186 1.395 . S
C2184 C2187 1.403 . S
H2185 C2191 0.930 . S
C2186 H2172 0.930 . S
C2186 C2184 1.395 . S
C2186 C2189 1.403 . S
C2187 C2184 1.403 . S
C2187 C2188 1.524 . S
C2187 C2191 1.400 . S
C2188 H2173 0.960 . S
C2188 H2174 0.960 . S
C2188 H2175 0.960 . S
C2188 C2187 1.524 . S
C2189 C2186 1.403 . S
C2189 C2190 1.392 . S
C2189 C2193 1.495 . S
C2190 C2189 1.392 . S
C2190 C2191 1.385 . S
C2190 C2192 1.478 . S
C2191 H2185 0.930 . S
C2191 C2187 1.400 . S
C2191 C2190 1.385 . S
C2192 C2190 1.478 . S
C2192 C2194 1.381 . S
C2192 C2198 1.383 . S
C2193 C2189 1.495 . S
C2193 H2199 0.959 . S
C2193 H2200 0.961 . S
C2193 H2201 0.960 . S
C2194 C2192 1.381 . S
C2194 C2195 1.394 . S
C2194 H2202 0.930 . S
C2195 C2194 1.394 . S
C2195 C2196 1.383 . S
C2195 H2203 0.929 . S
C2196 C2195 1.383 . S
C2196 C2197 1.377 . S
C2197 H2181 0.930 . S
C2197 C2196 1.377 . S
C2197 C2198 1.379 . S
C2198 H2182 0.931 . S
C2198 C2192 1.383 . S
C2198 C2197 1.379 . S
H2199 C2193 0.959 . S
H2200 C2193 0.961 . S
H2201 C2193 0.960 . S
H2202 C2194 0.930 . S
H2203 C2195 0.929 . S
H2204 C2212 0.929 . S
H2205 C2214 0.930 . S
H2206 C2216 0.930 . S
H2207 C2219 0.929 . S
H2208 C2222 0.930 . S
H2209 C2224 0.960 . S
H2210 C2224 0.960 . S
H2211 C2224 0.960 . S
C2212 H2204 0.929 . S
C2212 C2213 1.377 . S
C2212 C2214 1.384 . S
C2213 C2212 1.377 . S
C2213 C2219 1.390 . S
C2214 H2205 0.930 . S
C2214 C2212 1.384 . S
C2214 C2215 1.372 . S
C2215 C2214 1.372 . S
C2215 C2216 1.400 . S
C2215 C2220 1.490 . S
C2216 H2206 0.930 . S
C2216 C2215 1.400 . S
C2216 C2219 1.386 . S
H2217 C2233 0.930 . S
H2218 C2234 0.931 . S
C2219 H2207 0.929 . S
C2219 C2213 1.390 . S
C2219 C2216 1.386 . S
C2220 C2215 1.490 . S
C2220 C2222 1.395 . S
C2220 C2223 1.403 . S
H2221 C2227 0.930 . S
C2222 H2208 0.930 . S
C2222 C2220 1.395 . S
C2222 C2225 1.403 . S
C2223 C2220 1.403 . S
C2223 C2224 1.524 . S
C2223 C2227 1.400 . S
C2224 H2209 0.960 . S
C2224 H2210 0.960 . S
C2224 H2211 0.960 . S
C2224 C2223 1.524 . S
C2225 C2222 1.403 . S
C2225 C2226 1.392 . S
C2225 C2229 1.495 . S
C2226 C2225 1.392 . S
C2226 C2227 1.385 . S
C2226 C2228 1.478 . S
C2227 H2221 0.930 . S
C2227 C2223 1.400 . S
C2227 C2226 1.385 . S
C2228 C2226 1.478 . S
C2228 C2230 1.381 . S
C2228 C2234 1.383 . S
C2229 C2225 1.495 . S
C2229 H2235 0.959 . S
C2229 H2236 0.961 . S
C2229 H2237 0.960 . S
C2230 C2228 1.381 . S
C2230 C2231 1.394 . S
C2230 H2238 0.930 . S
C2231 C2230 1.394 . S
C2231 C2232 1.383 . S
C2231 H2239 0.929 . S
C2232 C2231 1.383 . S
C2232 C2233 1.377 . S
C2233 H2217 0.930 . S
C2233 C2232 1.377 . S
C2233 C2234 1.379 . S
C2234 H2218 0.931 . S
C2234 C2228 1.383 . S
C2234 C2233 1.379 . S
H2235 C2229 0.959 . S
H2236 C2229 0.961 . S
H2237 C2229 0.960 . S
H2238 C2230 0.930 . S
H2239 C2231 0.929 . S
H2240 C2248 0.929 . S
H2241 C2250 0.930 . S
H2242 C2252 0.930 . S
H2243 C2255 0.929 . S
H2244 C2258 0.930 . S
H2245 C2260 0.960 . S
H2246 C2260 0.960 . S
H2247 C2260 0.960 . S
C2248 H2240 0.929 . S
C2248 C2249 1.377 . S
C2248 C2250 1.384 . S
C2249 C2248 1.377 . S
C2249 C2255 1.390 . S
C2250 H2241 0.930 . S
C2250 C2248 1.384 . S
C2250 C2251 1.372 . S
C2251 C2250 1.372 . S
C2251 C2252 1.400 . S
C2251 C2256 1.490 . S
C2252 H2242 0.930 . S
C2252 C2251 1.400 . S
C2252 C2255 1.386 . S
H2253 C2269 0.930 . S
H2254 C2270 0.931 . S
C2255 H2243 0.929 . S
C2255 C2249 1.390 . S
C2255 C2252 1.386 . S
C2256 C2251 1.490 . S
C2256 C2258 1.395 . S
C2256 C2259 1.403 . S
H2257 C2263 0.930 . S
C2258 H2244 0.930 . S
C2258 C2256 1.395 . S
C2258 C2261 1.403 . S
C2259 C2256 1.403 . S
C2259 C2260 1.524 . S
C2259 C2263 1.400 . S
C2260 H2245 0.960 . S
C2260 H2246 0.960 . S
C2260 H2247 0.960 . S
C2260 C2259 1.524 . S
C2261 C2258 1.403 . S
C2261 C2262 1.392 . S
C2261 C2265 1.495 . S
C2262 C2261 1.392 . S
C2262 C2263 1.385 . S
C2262 C2264 1.478 . S
C2263 H2257 0.930 . S
C2263 C2259 1.400 . S
C2263 C2262 1.385 . S
C2264 C2262 1.478 . S
C2264 C2266 1.381 . S
C2264 C2270 1.383 . S
C2265 C2261 1.495 . S
C2265 H2271 0.959 . S
C2265 H2272 0.961 . S
C2265 H2273 0.960 . S
C2266 C2264 1.381 . S
C2266 C2267 1.394 . S
C2266 H2274 0.930 . S
C2267 C2266 1.394 . S
C2267 C2268 1.383 . S
C2267 H2275 0.929 . S
C2268 C2267 1.383 . S
C2268 C2269 1.377 . S
C2269 H2253 0.930 . S
C2269 C2268 1.377 . S
C2269 C2270 1.379 . S
C2270 H2254 0.931 . S
C2270 C2264 1.383 . S
C2270 C2269 1.379 . S
H2271 C2265 0.959 . S
H2272 C2265 0.961 . S
H2273 C2265 0.960 . S
H2274 C2266 0.930 . S
H2275 C2267 0.929 . S
H2276 C2284 0.929 . S
H2277 C2286 0.930 . S
H2278 C2288 0.930 . S
H2279 C2291 0.929 . S
H2280 C2294 0.930 . S
H2281 C2296 0.960 . S
H2282 C2296 0.960 . S
H2283 C2296 0.960 . S
C2284 H2276 0.929 . S
C2284 C2285 1.377 . S
C2284 C2286 1.384 . S
C2285 C2284 1.377 . S
C2285 C2291 1.390 . S
C2286 H2277 0.930 . S
C2286 C2284 1.384 . S
C2286 C2287 1.372 . S
C2287 C2286 1.372 . S
C2287 C2288 1.400 . S
C2287 C2292 1.490 . S
C2288 H2278 0.930 . S
C2288 C2287 1.400 . S
C2288 C2291 1.386 . S
H2289 C2305 0.930 . S
H2290 C2306 0.931 . S
C2291 H2279 0.929 . S
C2291 C2285 1.390 . S
C2291 C2288 1.386 . S
C2292 C2287 1.490 . S
C2292 C2294 1.395 . S
C2292 C2295 1.403 . S
H2293 C2299 0.930 . S
C2294 H2280 0.930 . S
C2294 C2292 1.395 . S
C2294 C2297 1.403 . S
C2295 C2292 1.403 . S
C2295 C2296 1.524 . S
C2295 C2299 1.400 . S
C2296 H2281 0.960 . S
C2296 H2282 0.960 . S
C2296 H2283 0.960 . S
C2296 C2295 1.524 . S
C2297 C2294 1.403 . S
C2297 C2298 1.392 . S
C2297 C2301 1.495 . S
C2298 C2297 1.392 . S
C2298 C2299 1.385 . S
C2298 C2300 1.478 . S
C2299 H2293 0.930 . S
C2299 C2295 1.400 . S
C2299 C2298 1.385 . S
C2300 C2298 1.478 . S
C2300 C2302 1.381 . S
C2300 C2306 1.383 . S
C2301 C2297 1.495 . S
C2301 H2307 0.959 . S
C2301 H2308 0.961 . S
C2301 H2309 0.960 . S
C2302 C2300 1.381 . S
C2302 C2303 1.394 . S
C2302 H2310 0.930 . S
C2303 C2302 1.394 . S
C2303 C2304 1.383 . S
C2303 H2311 0.929 . S
C2304 C2303 1.383 . S
C2304 C2305 1.377 . S
C2305 H2289 0.930 . S
C2305 C2304 1.377 . S
C2305 C2306 1.379 . S
C2306 H2290 0.931 . S
C2306 C2300 1.383 . S
C2306 C2305 1.379 . S
H2307 C2301 0.959 . S
H2308 C2301 0.961 . S
H2309 C2301 0.960 . S
H2310 C2302 0.930 . S
H2311 C2303 0.929 . S
H2312 C2320 0.929 . S
H2313 C2322 0.930 . S
H2314 C2324 0.930 . S
H2315 C2327 0.929 . S
H2316 C2330 0.930 . S
H2317 C2332 0.960 . S
H2318 C2332 0.960 . S
H2319 C2332 0.960 . S
C2320 H2312 0.929 . S
C2320 C2321 1.377 . S
C2320 C2322 1.384 . S
C2321 C2320 1.377 . S
C2321 C2327 1.390 . S
C2322 H2313 0.930 . S
C2322 C2320 1.384 . S
C2322 C2323 1.372 . S
C2323 C2322 1.372 . S
C2323 C2324 1.400 . S
C2323 C2328 1.490 . S
C2324 H2314 0.930 . S
C2324 C2323 1.400 . S
C2324 C2327 1.386 . S
H2325 C2341 0.930 . S
H2326 C2342 0.931 . S
C2327 H2315 0.929 . S
C2327 C2321 1.390 . S
C2327 C2324 1.386 . S
C2328 C2323 1.490 . S
C2328 C2330 1.395 . S
C2328 C2331 1.403 . S
H2329 C2335 0.930 . S
C2330 H2316 0.930 . S
C2330 C2328 1.395 . S
C2330 C2333 1.403 . S
C2331 C2328 1.403 . S
C2331 C2332 1.524 . S
C2331 C2335 1.400 . S
C2332 H2317 0.960 . S
C2332 H2318 0.960 . S
C2332 H2319 0.960 . S
C2332 C2331 1.524 . S
C2333 C2330 1.403 . S
C2333 C2334 1.392 . S
C2333 C2337 1.495 . S
C2334 C2333 1.392 . S
C2334 C2335 1.385 . S
C2334 C2336 1.478 . S
C2335 H2329 0.930 . S
C2335 C2331 1.400 . S
C2335 C2334 1.385 . S
C2336 C2334 1.478 . S
C2336 C2338 1.381 . S
C2336 C2342 1.383 . S
C2337 C2333 1.495 . S
C2337 H2343 0.959 . S
C2337 H2344 0.961 . S
C2337 H2345 0.960 . S
C2338 C2336 1.381 . S
C2338 C2339 1.394 . S
C2338 H2346 0.930 . S
C2339 C2338 1.394 . S
C2339 C2340 1.383 . S
C2339 H2347 0.929 . S
C2340 C2339 1.383 . S
C2340 C2341 1.377 . S
C2341 H2325 0.930 . S
C2341 C2340 1.377 . S
C2341 C2342 1.379 . S
C2342 H2326 0.931 . S
C2342 C2336 1.383 . S
C2342 C2341 1.379 . S
H2343 C2337 0.959 . S
H2344 C2337 0.961 . S
H2345 C2337 0.960 . S
H2346 C2338 0.930 . S
H2347 C2339 0.929 . S
H2348 C2356 0.929 . S
H2349 C2358 0.930 . S
H2350 C2360 0.930 . S
H2351 C2363 0.929 . S
H2352 C2366 0.930 . S
H2353 C2368 0.960 . S
H2354 C2368 0.960 . S
H2355 C2368 0.960 . S
C2356 H2348 0.929 . S
C2356 C2357 1.377 . S
C2356 C2358 1.384 . S
C2357 C2356 1.377 . S
C2357 C2363 1.390 . S
C2358 H2349 0.930 . S
C2358 C2356 1.384 . S
C2358 C2359 1.372 . S
C2359 C2358 1.372 . S
C2359 C2360 1.400 . S
C2359 C2364 1.490 . S
C2360 H2350 0.930 . S
C2360 C2359 1.400 . S
C2360 C2363 1.386 . S
H2361 C2377 0.930 . S
H2362 C2378 0.931 . S
C2363 H2351 0.929 . S
C2363 C2357 1.390 . S
C2363 C2360 1.386 . S
C2364 C2359 1.490 . S
C2364 C2366 1.395 . S
C2364 C2367 1.403 . S
H2365 C2371 0.930 . S
C2366 H2352 0.930 . S
C2366 C2364 1.395 . S
C2366 C2369 1.403 . S
C2367 C2364 1.403 . S
C2367 C2368 1.524 . S
C2367 C2371 1.400 . S
C2368 H2353 0.960 . S
C2368 H2354 0.960 . S
C2368 H2355 0.960 . S
C2368 C2367 1.524 . S
C2369 C2366 1.403 . S
C2369 C2370 1.392 . S
C2369 C2373 1.495 . S
C2370 C2369 1.392 . S
C2370 C2371 1.385 . S
C2370 C2372 1.478 . S
C2371 H2365 0.930 . S
C2371 C2367 1.400 . S
C2371 C2370 1.385 . S
C2372 C2370 1.478 . S
C2372 C2374 1.381 . S
C2372 C2378 1.383 . S
C2373 C2369 1.495 . S
C2373 H2379 0.959 . S
C2373 H2380 0.961 . S
C2373 H2381 0.960 . S
C2374 C2372 1.381 . S
C2374 C2375 1.394 . S
C2374 H2382 0.930 . S
C2375 C2374 1.394 . S
C2375 C2376 1.383 . S
C2375 H2383 0.929 . S
C2376 C2375 1.383 . S
C2376 C2377 1.377 . S
C2377 H2361 0.930 . S
C2377 C2376 1.377 . S
C2377 C2378 1.379 . S
C2378 H2362 0.931 . S
C2378 C2372 1.383 . S
C2378 C2377 1.379 . S
H2379 C2373 0.959 . S
H2380 C2373 0.961 . S
H2381 C2373 0.960 . S
H2382 C2374 0.930 . S
H2383 C2375 0.929 . S
H2384 C2392 0.929 . S
H2385 C2394 0.930 . S
H2386 C2396 0.930 . S
H2387 C2399 0.929 . S
H2388 C2402 0.930 . S
H2389 C2404 0.960 . S
H2390 C2404 0.960 . S
H2391 C2404 0.960 . S
C2392 H2384 0.929 . S
C2392 C2393 1.377 . S
C2392 C2394 1.384 . S
C2393 C2392 1.377 . S
C2393 C2399 1.390 . S
C2394 H2385 0.930 . S
C2394 C2392 1.384 . S
C2394 C2395 1.372 . S
C2395 C2394 1.372 . S
C2395 C2396 1.400 . S
C2395 C2400 1.490 . S
C2396 H2386 0.930 . S
C2396 C2395 1.400 . S
C2396 C2399 1.386 . S
H2397 C2413 0.930 . S
H2398 C2414 0.931 . S
C2399 H2387 0.929 . S
C2399 C2393 1.390 . S
C2399 C2396 1.386 . S
C2400 C2395 1.490 . S
C2400 C2402 1.395 . S
C2400 C2403 1.403 . S
H2401 C2407 0.930 . S
C2402 H2388 0.930 . S
C2402 C2400 1.395 . S
C2402 C2405 1.403 . S
C2403 C2400 1.403 . S
C2403 C2404 1.524 . S
C2403 C2407 1.400 . S
C2404 H2389 0.960 . S
C2404 H2390 0.960 . S
C2404 H2391 0.960 . S
C2404 C2403 1.524 . S
C2405 C2402 1.403 . S
C2405 C2406 1.392 . S
C2405 C2409 1.495 . S
C2406 C2405 1.392 . S
C2406 C2407 1.385 . S
C2406 C2408 1.478 . S
C2407 H2401 0.930 . S
C2407 C2403 1.400 . S
C2407 C2406 1.385 . S
C2408 C2406 1.478 . S
C2408 C2410 1.381 . S
C2408 C2414 1.383 . S
C2409 C2405 1.495 . S
C2409 H2415 0.959 . S
C2409 H2416 0.961 . S
C2409 H2417 0.960 . S
C2410 C2408 1.381 . S
C2410 C2411 1.394 . S
C2410 H2418 0.930 . S
C2411 C2410 1.394 . S
C2411 C2412 1.383 . S
C2411 H2419 0.929 . S
C2412 C2411 1.383 . S
C2412 C2413 1.377 . S
C2413 H2397 0.930 . S
C2413 C2412 1.377 . S
C2413 C2414 1.379 . S
C2414 H2398 0.931 . S
C2414 C2408 1.383 . S
C2414 C2413 1.379 . S
H2415 C2409 0.959 . S
H2416 C2409 0.961 . S
H2417 C2409 0.960 . S
H2418 C2410 0.930 . S
H2419 C2411 0.929 . S
H2420 C2428 0.929 . S
H2421 C2430 0.930 . S
H2422 C2432 0.930 . S
H2423 C2435 0.929 . S
H2424 C2438 0.930 . S
H2425 C2440 0.960 . S
H2426 C2440 0.960 . S
H2427 C2440 0.960 . S
C2428 H2420 0.929 . S
C2428 C2429 1.377 . S
C2428 C2430 1.384 . S
C2429 C2428 1.377 . S
C2429 C2435 1.390 . S
C2430 H2421 0.930 . S
C2430 C2428 1.384 . S
C2430 C2431 1.372 . S
C2431 C2430 1.372 . S
C2431 C2432 1.400 . S
C2431 C2436 1.490 . S
C2432 H2422 0.930 . S
C2432 C2431 1.400 . S
C2432 C2435 1.386 . S
H2433 C2449 0.930 . S
H2434 C2450 0.931 . S
C2435 H2423 0.929 . S
C2435 C2429 1.390 . S
C2435 C2432 1.386 . S
C2436 C2431 1.490 . S
C2436 C2438 1.395 . S
C2436 C2439 1.403 . S
H2437 C2443 0.930 . S
C2438 H2424 0.930 . S
C2438 C2436 1.395 . S
C2438 C2441 1.403 . S
C2439 C2436 1.403 . S
C2439 C2440 1.524 . S
C2439 C2443 1.400 . S
C2440 H2425 0.960 . S
C2440 H2426 0.960 . S
C2440 H2427 0.960 . S
C2440 C2439 1.524 . S
C2441 C2438 1.403 . S
C2441 C2442 1.392 . S
C2441 C2445 1.495 . S
C2442 C2441 1.392 . S
C2442 C2443 1.385 . S
C2442 C2444 1.478 . S
C2443 H2437 0.930 . S
C2443 C2439 1.400 . S
C2443 C2442 1.385 . S
C2444 C2442 1.478 . S
C2444 C2446 1.381 . S
C2444 C2450 1.383 . S
C2445 C2441 1.495 . S
C2445 H2451 0.959 . S
C2445 H2452 0.961 . S
C2445 H2453 0.960 . S
C2446 C2444 1.381 . S
C2446 C2447 1.394 . S
C2446 H2454 0.930 . S
C2447 C2446 1.394 . S
C2447 C2448 1.383 . S
C2447 H2455 0.929 . S
C2448 C2447 1.383 . S
C2448 C2449 1.377 . S
C2449 H2433 0.930 . S
C2449 C2448 1.377 . S
C2449 C2450 1.379 . S
C2450 H2434 0.931 . S
C2450 C2444 1.383 . S
C2450 C2449 1.379 . S
H2451 C2445 0.959 . S
H2452 C2445 0.961 . S
H2453 C2445 0.960 . S
H2454 C2446 0.930 . S
H2455 C2447 0.929 . S
H2456 C2464 0.929 . S
H2457 C2466 0.930 . S
H2458 C2468 0.930 . S
H2459 C2471 0.929 . S
H2460 C2474 0.930 . S
H2461 C2476 0.960 . S
H2462 C2476 0.960 . S
H2463 C2476 0.960 . S
C2464 H2456 0.929 . S
C2464 C2465 1.377 . S
C2464 C2466 1.384 . S
C2465 C2464 1.377 . S
C2465 C2471 1.390 . S
C2466 H2457 0.930 . S
C2466 C2464 1.384 . S
C2466 C2467 1.372 . S
C2467 C2466 1.372 . S
C2467 C2468 1.400 . S
C2467 C2472 1.490 . S
C2468 H2458 0.930 . S
C2468 C2467 1.400 . S
C2468 C2471 1.386 . S
H2469 C2485 0.930 . S
H2470 C2486 0.931 . S
C2471 H2459 0.929 . S
C2471 C2465 1.390 . S
C2471 C2468 1.386 . S
C2472 C2467 1.490 . S
C2472 C2474 1.395 . S
C2472 C2475 1.403 . S
H2473 C2479 0.930 . S
C2474 H2460 0.930 . S
C2474 C2472 1.395 . S
C2474 C2477 1.403 . S
C2475 C2472 1.403 . S
C2475 C2476 1.524 . S
C2475 C2479 1.400 . S
C2476 H2461 0.960 . S
C2476 H2462 0.960 . S
C2476 H2463 0.960 . S
C2476 C2475 1.524 . S
C2477 C2474 1.403 . S
C2477 C2478 1.392 . S
C2477 C2481 1.495 . S
C2478 C2477 1.392 . S
C2478 C2479 1.385 . S
C2478 C2480 1.478 . S
C2479 H2473 0.930 . S
C2479 C2475 1.400 . S
C2479 C2478 1.385 . S
C2480 C2478 1.478 . S
C2480 C2482 1.381 . S
C2480 C2486 1.383 . S
C2481 C2477 1.495 . S
C2481 H2487 0.959 . S
C2481 H2488 0.961 . S
C2481 H2489 0.960 . S
C2482 C2480 1.381 . S
C2482 C2483 1.394 . S
C2482 H2490 0.930 . S
C2483 C2482 1.394 . S
C2483 C2484 1.383 . S
C2483 H2491 0.929 . S
C2484 C2483 1.383 . S
C2484 C2485 1.377 . S
C2485 H2469 0.930 . S
C2485 C2484 1.377 . S
C2485 C2486 1.379 . S
C2486 H2470 0.931 . S
C2486 C2480 1.383 . S
C2486 C2485 1.379 . S
H2487 C2481 0.959 . S
H2488 C2481 0.961 . S
H2489 C2481 0.960 . S
H2490 C2482 0.930 . S
H2491 C2483 0.929 . S
H2492 C2500 0.929 . S
H2493 C2502 0.930 . S
H2494 C2504 0.930 . S
H2495 C2507 0.929 . S
H2496 C2510 0.930 . S
H2497 C2512 0.960 . S
H2498 C2512 0.960 . S
H2499 C2512 0.960 . S
C2500 H2492 0.929 . S
C2500 C2501 1.377 . S
C2500 C2502 1.384 . S
C2501 C2500 1.377 . S
C2501 C2507 1.390 . S
C2502 H2493 0.930 . S
C2502 C2500 1.384 . S
C2502 C2503 1.372 . S
C2503 C2502 1.372 . S
C2503 C2504 1.400 . S
C2503 C2508 1.490 . S
C2504 H2494 0.930 . S
C2504 C2503 1.400 . S
C2504 C2507 1.386 . S
H2505 C2521 0.930 . S
H2506 C2522 0.931 . S
C2507 H2495 0.929 . S
C2507 C2501 1.390 . S
C2507 C2504 1.386 . S
C2508 C2503 1.490 . S
C2508 C2510 1.395 . S
C2508 C2511 1.403 . S
H2509 C2515 0.930 . S
C2510 H2496 0.930 . S
C2510 C2508 1.395 . S
C2510 C2513 1.403 . S
C2511 C2508 1.403 . S
C2511 C2512 1.524 . S
C2511 C2515 1.400 . S
C2512 H2497 0.960 . S
C2512 H2498 0.960 . S
C2512 H2499 0.960 . S
C2512 C2511 1.524 . S
C2513 C2510 1.403 . S
C2513 C2514 1.392 . S
C2513 C2517 1.495 . S
C2514 C2513 1.392 . S
C2514 C2515 1.385 . S
C2514 C2516 1.478 . S
C2515 H2509 0.930 . S
C2515 C2511 1.400 . S
C2515 C2514 1.385 . S
C2516 C2514 1.478 . S
C2516 C2518 1.381 . S
C2516 C2522 1.383 . S
C2517 C2513 1.495 . S
C2517 H2523 0.959 . S
C2517 H2524 0.961 . S
C2517 H2525 0.960 . S
C2518 C2516 1.381 . S
C2518 C2519 1.394 . S
C2518 H2526 0.930 . S
C2519 C2518 1.394 . S
C2519 C2520 1.383 . S
C2519 H2527 0.929 . S
C2520 C2519 1.383 . S
C2520 C2521 1.377 . S
C2521 H2505 0.930 . S
C2521 C2520 1.377 . S
C2521 C2522 1.379 . S
C2522 H2506 0.931 . S
C2522 C2516 1.383 . S
C2522 C2521 1.379 . S
H2523 C2517 0.959 . S
H2524 C2517 0.961 . S
H2525 C2517 0.960 . S
H2526 C2518 0.930 . S
H2527 C2519 0.929 . S
H2528 C2536 0.929 . S
H2529 C2538 0.930 . S
H2530 C2540 0.930 . S
H2531 C2543 0.929 . S
H2532 C2546 0.930 . S
H2533 C2548 0.960 . S
H2534 C2548 0.960 . S
H2535 C2548 0.960 . S
C2536 H2528 0.929 . S
C2536 C2537 1.377 . S
C2536 C2538 1.384 . S
C2537 C2536 1.377 . S
C2537 C2543 1.390 . S
C2538 H2529 0.930 . S
C2538 C2536 1.384 . S
C2538 C2539 1.372 . S
C2539 C2538 1.372 . S
C2539 C2540 1.400 . S
C2539 C2544 1.490 . S
C2540 H2530 0.930 . S
C2540 C2539 1.400 . S
C2540 C2543 1.386 . S
H2541 C2557 0.930 . S
H2542 C2558 0.931 . S
C2543 H2531 0.929 . S
C2543 C2537 1.390 . S
C2543 C2540 1.386 . S
C2544 C2539 1.490 . S
C2544 C2546 1.395 . S
C2544 C2547 1.403 . S
H2545 C2551 0.930 . S
C2546 H2532 0.930 . S
C2546 C2544 1.395 . S
C2546 C2549 1.403 . S
C2547 C2544 1.403 . S
C2547 C2548 1.524 . S
C2547 C2551 1.400 . S
C2548 H2533 0.960 . S
C2548 H2534 0.960 . S
C2548 H2535 0.960 . S
C2548 C2547 1.524 . S
C2549 C2546 1.403 . S
C2549 C2550 1.392 . S
C2549 C2553 1.495 . S
C2550 C2549 1.392 . S
C2550 C2551 1.385 . S
C2550 C2552 1.478 . S
C2551 H2545 0.930 . S
C2551 C2547 1.400 . S
C2551 C2550 1.385 . S
C2552 C2550 1.478 . S
C2552 C2554 1.381 . S
C2552 C2558 1.383 . S
C2553 C2549 1.495 . S
C2553 H2559 0.959 . S
C2553 H2560 0.961 . S
C2553 H2561 0.960 . S
C2554 C2552 1.381 . S
C2554 C2555 1.394 . S
C2554 H2562 0.930 . S
C2555 C2554 1.394 . S
C2555 C2556 1.383 . S
C2555 H2563 0.929 . S
C2556 C2555 1.383 . S
C2556 C2557 1.377 . S
C2557 H2541 0.930 . S
C2557 C2556 1.377 . S
C2557 C2558 1.379 . S
C2558 H2542 0.931 . S
C2558 C2552 1.383 . S
C2558 C2557 1.379 . S
H2559 C2553 0.959 . S
H2560 C2553 0.961 . S
H2561 C2553 0.960 . S
H2562 C2554 0.930 . S
H2563 C2555 0.929 . S
H2564 C2572 0.929 . S
H2565 C2574 0.930 . S
H2566 C2576 0.930 . S
H2567 C2579 0.929 . S
H2568 C2582 0.930 . S
H2569 C2584 0.960 . S
H2570 C2584 0.960 . S
H2571 C2584 0.960 . S
C2572 H2564 0.929 . S
C2572 C2573 1.377 . S
C2572 C2574 1.384 . S
C2573 C2572 1.377 . S
C2573 C2579 1.390 . S
C2574 H2565 0.930 . S
C2574 C2572 1.384 . S
C2574 C2575 1.372 . S
C2575 C2574 1.372 . S
C2575 C2576 1.400 . S
C2575 C2580 1.490 . S
C2576 H2566 0.930 . S
C2576 C2575 1.400 . S
C2576 C2579 1.386 . S
H2577 C2593 0.930 . S
H2578 C2594 0.931 . S
C2579 H2567 0.929 . S
C2579 C2573 1.390 . S
C2579 C2576 1.386 . S
C2580 C2575 1.490 . S
C2580 C2582 1.395 . S
C2580 C2583 1.403 . S
H2581 C2587 0.930 . S
C2582 H2568 0.930 . S
C2582 C2580 1.395 . S
C2582 C2585 1.403 . S
C2583 C2580 1.403 . S
C2583 C2584 1.524 . S
C2583 C2587 1.400 . S
C2584 H2569 0.960 . S
C2584 H2570 0.960 . S
C2584 H2571 0.960 . S
C2584 C2583 1.524 . S
C2585 C2582 1.403 . S
C2585 C2586 1.392 . S
C2585 C2589 1.495 . S
C2586 C2585 1.392 . S
C2586 C2587 1.385 . S
C2586 C2588 1.478 . S
C2587 H2581 0.930 . S
C2587 C2583 1.400 . S
C2587 C2586 1.385 . S
C2588 C2586 1.478 . S
C2588 C2590 1.381 . S
C2588 C2594 1.383 . S
C2589 C2585 1.495 . S
C2589 H2595 0.959 . S
C2589 H2596 0.961 . S
C2589 H2597 0.960 . S
C2590 C2588 1.381 . S
C2590 C2591 1.394 . S
C2590 H2598 0.930 . S
C2591 C2590 1.394 . S
C2591 C2592 1.383 . S
C2591 H2599 0.929 . S
C2592 C2591 1.383 . S
C2592 C2593 1.377 . S
C2593 H2577 0.930 . S
C2593 C2592 1.377 . S
C2593 C2594 1.379 . S
C2594 H2578 0.931 . S
C2594 C2588 1.383 . S
C2594 C2593 1.379 . S
H2595 C2589 0.959 . S
H2596 C2589 0.961 . S
H2597 C2589 0.960 . S
H2598 C2590 0.930 . S
H2599 C2591 0.929 . S
H2600 C2608 0.929 . S
H2601 C2610 0.930 . S
H2602 C2612 0.930 . S
H2603 C2615 0.929 . S
H2604 C2618 0.930 . S
H2605 C2620 0.960 . S
H2606 C2620 0.960 . S
H2607 C2620 0.960 . S
C2608 H2600 0.929 . S
C2608 C2609 1.377 . S
C2608 C2610 1.384 . S
C2609 C2608 1.377 . S
C2609 C2615 1.390 . S
C2610 H2601 0.930 . S
C2610 C2608 1.384 . S
C2610 C2611 1.372 . S
C2611 C2610 1.372 . S
C2611 C2612 1.400 . S
C2611 C2616 1.490 . S
C2612 H2602 0.930 . S
C2612 C2611 1.400 . S
C2612 C2615 1.386 . S
H2613 C2629 0.930 . S
H2614 C2630 0.931 . S
C2615 H2603 0.929 . S
C2615 C2609 1.390 . S
C2615 C2612 1.386 . S
C2616 C2611 1.490 . S
C2616 C2618 1.395 . S
C2616 C2619 1.403 . S
H2617 C2623 0.930 . S
C2618 H2604 0.930 . S
C2618 C2616 1.395 . S
C2618 C2621 1.403 . S
C2619 C2616 1.403 . S
C2619 C2620 1.524 . S
C2619 C2623 1.400 . S
C2620 H2605 0.960 . S
C2620 H2606 0.960 . S
C2620 H2607 0.960 . S
C2620 C2619 1.524 . S
C2621 C2618 1.403 . S
C2621 C2622 1.392 . S
C2621 C2625 1.495 . S
C2622 C2621 1.392 . S
C2622 C2623 1.385 . S
C2622 C2624 1.478 . S
C2623 H2617 0.930 . S
C2623 C2619 1.400 . S
C2623 C2622 1.385 . S
C2624 C2622 1.478 . S
C2624 C2626 1.381 . S
C2624 C2630 1.383 . S
C2625 C2621 1.495 . S
C2625 H2631 0.959 . S
C2625 H2632 0.961 . S
C2625 H2633 0.960 . S
C2626 C2624 1.381 . S
C2626 C2627 1.394 . S
C2626 H2634 0.930 . S
C2627 C2626 1.394 . S
C2627 C2628 1.383 . S
C2627 H2635 0.929 . S
C2628 C2627 1.383 . S
C2628 C2629 1.377 . S
C2629 H2613 0.930 . S
C2629 C2628 1.377 . S
C2629 C2630 1.379 . S
C2630 H2614 0.931 . S
C2630 C2624 1.383 . S
C2630 C2629 1.379 . S
H2631 C2625 0.959 . S
H2632 C2625 0.961 . S
H2633 C2625 0.960 . S
H2634 C2626 0.930 . S
H2635 C2627 0.929 . S
H2636 C2644 0.929 . S
H2637 C2646 0.930 . S
H2638 C2648 0.930 . S
H2639 C2651 0.929 . S
H2640 C2654 0.930 . S
H2641 C2656 0.960 . S
H2642 C2656 0.960 . S
H2643 C2656 0.960 . S
C2644 H2636 0.929 . S
C2644 C2645 1.377 . S
C2644 C2646 1.384 . S
C2645 C2644 1.377 . S
C2645 C2651 1.390 . S
C2646 H2637 0.930 . S
C2646 C2644 1.384 . S
C2646 C2647 1.372 . S
C2647 C2646 1.372 . S
C2647 C2648 1.400 . S
C2647 C2652 1.490 . S
C2648 H2638 0.930 . S
C2648 C2647 1.400 . S
C2648 C2651 1.386 . S
H2649 C2665 0.930 . S
H2650 C2666 0.931 . S
C2651 H2639 0.929 . S
C2651 C2645 1.390 . S
C2651 C2648 1.386 . S
C2652 C2647 1.490 . S
C2652 C2654 1.395 . S
C2652 C2655 1.403 . S
H2653 C2659 0.930 . S
C2654 H2640 0.930 . S
C2654 C2652 1.395 . S
C2654 C2657 1.403 . S
C2655 C2652 1.403 . S
C2655 C2656 1.524 . S
C2655 C2659 1.400 . S
C2656 H2641 0.960 . S
C2656 H2642 0.960 . S
C2656 H2643 0.960 . S
C2656 C2655 1.524 . S
C2657 C2654 1.403 . S
C2657 C2658 1.392 . S
C2657 C2661 1.495 . S
C2658 C2657 1.392 . S
C2658 C2659 1.385 . S
C2658 C2660 1.478 . S
C2659 H2653 0.930 . S
C2659 C2655 1.400 . S
C2659 C2658 1.385 . S
C2660 C2658 1.478 . S
C2660 C2662 1.381 . S
C2660 C2666 1.383 . S
C2661 C2657 1.495 . S
C2661 H2667 0.959 . S
C2661 H2668 0.961 . S
C2661 H2669 0.960 . S
C2662 C2660 1.381 . S
C2662 C2663 1.394 . S
C2662 H2670 0.930 . S
C2663 C2662 1.394 . S
C2663 C2664 1.383 . S
C2663 H2671 0.929 . S
C2664 C2663 1.383 . S
C2664 C2665 1.377 . S
C2665 H2649 0.930 . S
C2665 C2664 1.377 . S
C2665 C2666 1.379 . S
C2666 H2650 0.931 . S
C2666 C2660 1.383 . S
C2666 C2665 1.379 . S
H2667 C2661 0.959 . S
H2668 C2661 0.961 . S
H2669 C2661 0.960 . S
H2670 C2662 0.930 . S
H2671 C2663 0.929 . S
H2672 C2680 0.929 . S
H2673 C2682 0.930 . S
H2674 C2684 0.930 . S
H2675 C2687 0.929 . S
H2676 C2690 0.930 . S
H2677 C2692 0.960 . S
H2678 C2692 0.960 . S
H2679 C2692 0.960 . S
C2680 H2672 0.929 . S
C2680 C2681 1.377 . S
C2680 C2682 1.384 . S
C2681 C2680 1.377 . S
C2681 C2687 1.390 . S
C2682 H2673 0.930 . S
C2682 C2680 1.384 . S
C2682 C2683 1.372 . S
C2683 C2682 1.372 . S
C2683 C2684 1.400 . S
C2683 C2688 1.490 . S
C2684 H2674 0.930 . S
C2684 C2683 1.400 . S
C2684 C2687 1.386 . S
H2685 C2701 0.930 . S
H2686 C2702 0.931 . S
C2687 H2675 0.929 . S
C2687 C2681 1.390 . S
C2687 C2684 1.386 . S
C2688 C2683 1.490 . S
C2688 C2690 1.395 . S
C2688 C2691 1.403 . S
H2689 C2695 0.930 . S
C2690 H2676 0.930 . S
C2690 C2688 1.395 . S
C2690 C2693 1.403 . S
C2691 C2688 1.403 . S
C2691 C2692 1.524 . S
C2691 C2695 1.400 . S
C2692 H2677 0.960 . S
C2692 H2678 0.960 . S
C2692 H2679 0.960 . S
C2692 C2691 1.524 . S
C2693 C2690 1.403 . S
C2693 C2694 1.392 . S
C2693 C2697 1.495 . S
C2694 C2693 1.392 . S
C2694 C2695 1.385 . S
C2694 C2696 1.478 . S
C2695 H2689 0.930 . S
C2695 C2691 1.400 . S
C2695 C2694 1.385 . S
C2696 C2694 1.478 . S
C2696 C2698 1.381 . S
C2696 C2702 1.383 . S
C2697 C2693 1.495 . S
C2697 H2703 0.959 . S
C2697 H2704 0.961 . S
C2697 H2705 0.960 . S
C2698 C2696 1.381 . S
C2698 C2699 1.394 . S
C2698 H2706 0.930 . S
C2699 C2698 1.394 . S
C2699 C2700 1.383 . S
C2699 H2707 0.929 . S
C2700 C2699 1.383 . S
C2700 C2701 1.377 . S
C2701 H2685 0.930 . S
C2701 C2700 1.377 . S
C2701 C2702 1.379 . S
C2702 H2686 0.931 . S
C2702 C2696 1.383 . S
C2702 C2701 1.379 . S
H2703 C2697 0.959 . S
H2704 C2697 0.961 . S
H2705 C2697 0.960 . S
H2706 C2698 0.930 . S
H2707 C2699 0.929 . S
H2708 C2716 0.929 . S
H2709 C2718 0.930 . S
H2710 C2720 0.930 . S
H2711 C2723 0.929 . S
H2712 C2726 0.930 . S
H2713 C2728 0.960 . S
H2714 C2728 0.960 . S
H2715 C2728 0.960 . S
C2716 H2708 0.929 . S
C2716 C2717 1.377 . S
C2716 C2718 1.384 . S
C2717 C2716 1.377 . S
C2717 C2723 1.390 . S
C2718 H2709 0.930 . S
C2718 C2716 1.384 . S
C2718 C2719 1.372 . S
C2719 C2718 1.372 . S
C2719 C2720 1.400 . S
C2719 C2724 1.490 . S
C2720 H2710 0.930 . S
C2720 C2719 1.400 . S
C2720 C2723 1.386 . S
H2721 C2737 0.930 . S
H2722 C2738 0.931 . S
C2723 H2711 0.929 . S
C2723 C2717 1.390 . S
C2723 C2720 1.386 . S
C2724 C2719 1.490 . S
C2724 C2726 1.395 . S
C2724 C2727 1.403 . S
H2725 C2731 0.930 . S
C2726 H2712 0.930 . S
C2726 C2724 1.395 . S
C2726 C2729 1.403 . S
C2727 C2724 1.403 . S
C2727 C2728 1.524 . S
C2727 C2731 1.400 . S
C2728 H2713 0.960 . S
C2728 H2714 0.960 . S
C2728 H2715 0.960 . S
C2728 C2727 1.524 . S
C2729 C2726 1.403 . S
C2729 C2730 1.392 . S
C2729 C2733 1.495 . S
C2730 C2729 1.392 . S
C2730 C2731 1.385 . S
C2730 C2732 1.478 . S
C2731 H2725 0.930 . S
C2731 C2727 1.400 . S
C2731 C2730 1.385 . S
C2732 C2730 1.478 . S
C2732 C2734 1.381 . S
C2732 C2738 1.383 . S
C2733 C2729 1.495 . S
C2733 H2739 0.959 . S
C2733 H2740 0.961 . S
C2733 H2741 0.960 . S
C2734 C2732 1.381 . S
C2734 C2735 1.394 . S
C2734 H2742 0.930 . S
C2735 C2734 1.394 . S
C2735 C2736 1.383 . S
C2735 H2743 0.929 . S
C2736 C2735 1.383 . S
C2736 C2737 1.377 . S
C2737 H2721 0.930 . S
C2737 C2736 1.377 . S
C2737 C2738 1.379 . S
C2738 H2722 0.931 . S
C2738 C2732 1.383 . S
C2738 C2737 1.379 . S
H2739 C2733 0.959 . S
H2740 C2733 0.961 . S
H2741 C2733 0.960 . S
H2742 C2734 0.930 . S
H2743 C2735 0.929 . S
H2744 C2752 0.929 . S
H2745 C2754 0.930 . S
H2746 C2756 0.930 . S
H2747 C2759 0.929 . S
H2748 C2762 0.930 . S
H2749 C2764 0.960 . S
H2750 C2764 0.960 . S
H2751 C2764 0.960 . S
C2752 H2744 0.929 . S
C2752 C2753 1.377 . S
C2752 C2754 1.384 . S
C2753 C2752 1.377 . S
C2753 C2759 1.390 . S
C2754 H2745 0.930 . S
C2754 C2752 1.384 . S
C2754 C2755 1.372 . S
C2755 C2754 1.372 . S
C2755 C2756 1.400 . S
C2755 C2760 1.490 . S
C2756 H2746 0.930 . S
C2756 C2755 1.400 . S
C2756 C2759 1.386 . S
H2757 C2773 0.930 . S
H2758 C2774 0.931 . S
C2759 H2747 0.929 . S
C2759 C2753 1.390 . S
C2759 C2756 1.386 . S
C2760 C2755 1.490 . S
C2760 C2762 1.395 . S
C2760 C2763 1.403 . S
H2761 C2767 0.930 . S
C2762 H2748 0.930 . S
C2762 C2760 1.395 . S
C2762 C2765 1.403 . S
C2763 C2760 1.403 . S
C2763 C2764 1.524 . S
C2763 C2767 1.400 . S
C2764 H2749 0.960 . S
C2764 H2750 0.960 . S
C2764 H2751 0.960 . S
C2764 C2763 1.524 . S
C2765 C2762 1.403 . S
C2765 C2766 1.392 . S
C2765 C2769 1.495 . S
C2766 C2765 1.392 . S
C2766 C2767 1.385 . S
C2766 C2768 1.478 . S
C2767 H2761 0.930 . S
C2767 C2763 1.400 . S
C2767 C2766 1.385 . S
C2768 C2766 1.478 . S
C2768 C2770 1.381 . S
C2768 C2774 1.383 . S
C2769 C2765 1.495 . S
C2769 H2775 0.959 . S
C2769 H2776 0.961 . S
C2769 H2777 0.960 . S
C2770 C2768 1.381 . S
C2770 C2771 1.394 . S
C2770 H2778 0.930 . S
C2771 C2770 1.394 . S
C2771 C2772 1.383 . S
C2771 H2779 0.929 . S
C2772 C2771 1.383 . S
C2772 C2773 1.377 . S
C2773 H2757 0.930 . S
C2773 C2772 1.377 . S
C2773 C2774 1.379 . S
C2774 H2758 0.931 . S
C2774 C2768 1.383 . S
C2774 C2773 1.379 . S
H2775 C2769 0.959 . S
H2776 C2769 0.961 . S
H2777 C2769 0.960 . S
H2778 C2770 0.930 . S
H2779 C2771 0.929 . S
H2780 C2788 0.929 . S
H2781 C2790 0.930 . S
H2782 C2792 0.930 . S
H2783 C2795 0.929 . S
H2784 C2798 0.930 . S
H2785 C2800 0.960 . S
H2786 C2800 0.960 . S
H2787 C2800 0.960 . S
C2788 H2780 0.929 . S
C2788 C2789 1.377 . S
C2788 C2790 1.384 . S
C2789 C2788 1.377 . S
C2789 C2795 1.390 . S
C2790 H2781 0.930 . S
C2790 C2788 1.384 . S
C2790 C2791 1.372 . S
C2791 C2790 1.372 . S
C2791 C2792 1.400 . S
C2791 C2796 1.490 . S
C2792 H2782 0.930 . S
C2792 C2791 1.400 . S
C2792 C2795 1.386 . S
H2793 C2809 0.930 . S
H2794 C2810 0.931 . S
C2795 H2783 0.929 . S
C2795 C2789 1.390 . S
C2795 C2792 1.386 . S
C2796 C2791 1.490 . S
C2796 C2798 1.395 . S
C2796 C2799 1.403 . S
H2797 C2803 0.930 . S
C2798 H2784 0.930 . S
C2798 C2796 1.395 . S
C2798 C2801 1.403 . S
C2799 C2796 1.403 . S
C2799 C2800 1.524 . S
C2799 C2803 1.400 . S
C2800 H2785 0.960 . S
C2800 H2786 0.960 . S
C2800 H2787 0.960 . S
C2800 C2799 1.524 . S
C2801 C2798 1.403 . S
C2801 C2802 1.392 . S
C2801 C2805 1.495 . S
C2802 C2801 1.392 . S
C2802 C2803 1.385 . S
C2802 C2804 1.478 . S
C2803 H2797 0.930 . S
C2803 C2799 1.400 . S
C2803 C2802 1.385 . S
C2804 C2802 1.478 . S
C2804 C2806 1.381 . S
C2804 C2810 1.383 . S
C2805 C2801 1.495 . S
C2805 H2811 0.959 . S
C2805 H2812 0.961 . S
C2805 H2813 0.960 . S
C2806 C2804 1.381 . S
C2806 C2807 1.394 . S
C2806 H2814 0.930 . S
C2807 C2806 1.394 . S
C2807 C2808 1.383 . S
C2807 H2815 0.929 . S
C2808 C2807 1.383 . S
C2808 C2809 1.377 . S
C2809 H2793 0.930 . S
C2809 C2808 1.377 . S
C2809 C2810 1.379 . S
C2810 H2794 0.931 . S
C2810 C2804 1.383 . S
C2810 C2809 1.379 . S
H2811 C2805 0.959 . S
H2812 C2805 0.961 . S
H2813 C2805 0.960 . S
H2814 C2806 0.930 . S
H2815 C2807 0.929 . S
H2816 C2824 0.929 . S
H2817 C2826 0.930 . S
H2818 C2828 0.930 1_554 S
H2819 C2831 0.929 . S
H2820 C2834 0.930 . S
H2821 C2836 0.960 . S
H2822 C2836 0.960 . S
H2823 C2836 0.960 . S
C2824 H2816 0.929 . S
C2824 C2825 1.377 . S
C2824 C2826 1.384 . S
C2825 C2824 1.377 . S
C2825 C2831 1.390 . S
C2826 H2817 0.930 . S
C2826 C2824 1.384 . S
C2826 C2827 1.372 . S
C2827 C2826 1.372 . S
C2827 C2828 1.400 . S
C2827 C2832 1.490 . S
C2828 H2818 0.930 1_556 S
C2828 C2827 1.400 . S
C2828 C2831 1.386 . S
H2829 C2845 0.930 . S
H2830 C2846 0.931 . S
C2831 H2819 0.929 . S
C2831 C2825 1.390 . S
C2831 C2828 1.386 . S
C2832 C2827 1.490 . S
C2832 C2834 1.395 1_556 S
C2832 C2835 1.403 . S
H2833 C2839 0.930 . S
C2834 H2820 0.930 . S
C2834 C2832 1.395 1_554 S
C2834 C2837 1.403 . S
C2835 C2832 1.403 . S
C2835 C2836 1.524 . S
C2835 C2839 1.400 . S
C2836 H2821 0.960 . S
C2836 H2822 0.960 . S
C2836 H2823 0.960 . S
C2836 C2835 1.524 . S
C2837 C2834 1.403 . S
C2837 C2838 1.392 . S
C2837 C2841 1.495 . S
C2838 C2837 1.392 . S
C2838 C2839 1.385 1_554 S
C2838 C2840 1.478 . S
C2839 H2833 0.930 . S
C2839 C2835 1.400 . S
C2839 C2838 1.385 1_556 S
C2840 C2838 1.478 . S
C2840 C2842 1.381 . S
C2840 C2846 1.383 . S
C2841 C2837 1.495 . S
C2841 H2847 0.959 . S
C2841 H2848 0.961 . S
C2841 H2849 0.960 . S
C2842 C2840 1.381 . S
C2842 C2843 1.394 . S
C2842 H2850 0.930 1_554 S
C2843 C2842 1.394 . S
C2843 C2844 1.383 . S
C2843 H2851 0.929 . S
C2844 C2843 1.383 . S
C2844 C2845 1.377 . S
C2845 H2829 0.930 . S
C2845 C2844 1.377 . S
C2845 C2846 1.379 . S
C2846 H2830 0.931 . S
C2846 C2840 1.383 . S
C2846 C2845 1.379 . S
H2847 C2841 0.959 . S
H2848 C2841 0.961 . S
H2849 C2841 0.960 . S
H2850 C2842 0.930 1_556 S
H2851 C2843 0.929 . S
H2852 C2860 0.929 . S
H2853 C2862 0.930 . S
H2854 C2864 0.930 . S
H2855 C2867 0.929 . S
H2856 C2870 0.930 . S
H2857 C2872 0.960 . S
H2858 C2872 0.960 . S
H2859 C2872 0.960 . S
C2860 H2852 0.929 . S
C2860 C2861 1.377 . S
C2860 C2862 1.384 . S
C2861 C2860 1.377 . S
C2861 C2867 1.390 . S
C2862 H2853 0.930 . S
C2862 C2860 1.384 . S
C2862 C2863 1.372 . S
C2863 C2862 1.372 . S
C2863 C2864 1.400 . S
C2863 C2868 1.490 . S
C2864 H2854 0.930 . S
C2864 C2863 1.400 . S
C2864 C2867 1.386 . S
H2865 C2881 0.930 . S
H2866 C2882 0.931 . S
C2867 H2855 0.929 . S
C2867 C2861 1.390 . S
C2867 C2864 1.386 . S
C2868 C2863 1.490 . S
C2868 C2870 1.395 . S
C2868 C2871 1.403 . S
H2869 C2875 0.930 . S
C2870 H2856 0.930 . S
C2870 C2868 1.395 . S
C2870 C2873 1.403 . S
C2871 C2868 1.403 . S
C2871 C2872 1.524 . S
C2871 C2875 1.400 . S
C2872 H2857 0.960 . S
C2872 H2858 0.960 . S
C2872 H2859 0.960 . S
C2872 C2871 1.524 . S
C2873 C2870 1.403 . S
C2873 C2874 1.392 . S
C2873 C2877 1.495 . S
C2874 C2873 1.392 . S
C2874 C2875 1.385 . S
C2874 C2876 1.478 . S
C2875 H2869 0.930 . S
C2875 C2871 1.400 . S
C2875 C2874 1.385 . S
C2876 C2874 1.478 . S
C2876 C2878 1.381 . S
C2876 C2882 1.383 . S
C2877 C2873 1.495 . S
C2877 H2883 0.959 . S
C2877 H2884 0.961 . S
C2877 H2885 0.960 . S
C2878 C2876 1.381 . S
C2878 C2879 1.394 . S
C2878 H2886 0.930 . S
C2879 C2878 1.394 . S
C2879 C2880 1.383 . S
C2879 H2887 0.929 . S
C2880 C2879 1.383 . S
C2880 C2881 1.377 . S
C2881 H2865 0.930 . S
C2881 C2880 1.377 . S
C2881 C2882 1.379 . S
C2882 H2866 0.931 . S
C2882 C2876 1.383 . S
C2882 C2881 1.379 . S
H2883 C2877 0.959 . S
H2884 C2877 0.961 . S
H2885 C2877 0.960 . S
H2886 C2878 0.930 . S
H2887 C2879 0.929 . S
H2888 C2896 0.929 . S
H2889 C2898 0.930 . S
H2890 C2900 0.930 . S
H2891 C2903 0.929 . S
H2892 C2906 0.930 . S
H2893 C2908 0.960 . S
H2894 C2908 0.960 . S
H2895 C2908 0.960 . S
C2896 H2888 0.929 . S
C2896 C2897 1.377 . S
C2896 C2898 1.384 . S
C2897 C2896 1.377 . S
C2897 C2903 1.390 . S
C2898 H2889 0.930 . S
C2898 C2896 1.384 . S
C2898 C2899 1.372 . S
C2899 C2898 1.372 . S
C2899 C2900 1.400 . S
C2899 C2904 1.490 . S
C2900 H2890 0.930 . S
C2900 C2899 1.400 . S
C2900 C2903 1.386 . S
H2901 C2917 0.930 . S
H2902 C2918 0.931 . S
C2903 H2891 0.929 . S
C2903 C2897 1.390 . S
C2903 C2900 1.386 . S
C2904 C2899 1.490 . S
C2904 C2906 1.395 . S
C2904 C2907 1.403 . S
H2905 C2911 0.930 . S
C2906 H2892 0.930 . S
C2906 C2904 1.395 . S
C2906 C2909 1.403 . S
C2907 C2904 1.403 . S
C2907 C2908 1.524 . S
C2907 C2911 1.400 . S
C2908 H2893 0.960 . S
C2908 H2894 0.960 . S
C2908 H2895 0.960 . S
C2908 C2907 1.524 . S
C2909 C2906 1.403 . S
C2909 C2910 1.392 . S
C2909 C2913 1.495 . S
C2910 C2909 1.392 . S
C2910 C2911 1.385 . S
C2910 C2912 1.478 . S
C2911 H2905 0.930 . S
C2911 C2907 1.400 . S
C2911 C2910 1.385 . S
C2912 C2910 1.478 . S
C2912 C2914 1.381 . S
C2912 C2918 1.383 . S
C2913 C2909 1.495 . S
C2913 H2919 0.959 . S
C2913 H2920 0.961 . S
C2913 H2921 0.960 . S
C2914 C2912 1.381 . S
C2914 C2915 1.394 . S
C2914 H2922 0.930 . S
C2915 C2914 1.394 . S
C2915 C2916 1.383 . S
C2915 H2923 0.929 . S
C2916 C2915 1.383 . S
C2916 C2917 1.377 . S
C2917 H2901 0.930 . S
C2917 C2916 1.377 . S
C2917 C2918 1.379 . S
C2918 H2902 0.931 . S
C2918 C2912 1.383 . S
C2918 C2917 1.379 . S
H2919 C2913 0.959 . S
H2920 C2913 0.961 . S
H2921 C2913 0.960 . S
H2922 C2914 0.930 . S
H2923 C2915 0.929 . S
H2924 C2932 0.929 . S
H2925 C2934 0.930 . S
H2926 C2936 0.930 . S
H2927 C2939 0.929 . S
H2928 C2942 0.930 . S
H2929 C2944 0.960 . S
H2930 C2944 0.960 . S
H2931 C2944 0.960 . S
C2932 H2924 0.929 . S
C2932 C2933 1.377 . S
C2932 C2934 1.384 . S
C2933 C2932 1.377 . S
C2933 C2939 1.390 . S
C2934 H2925 0.930 . S
C2934 C2932 1.384 . S
C2934 C2935 1.372 . S
C2935 C2934 1.372 . S
C2935 C2936 1.400 . S
C2935 C2940 1.490 . S
C2936 H2926 0.930 . S
C2936 C2935 1.400 . S
C2936 C2939 1.386 . S
H2937 C2953 0.930 . S
H2938 C2954 0.931 . S
C2939 H2927 0.929 . S
C2939 C2933 1.390 . S
C2939 C2936 1.386 . S
C2940 C2935 1.490 . S
C2940 C2942 1.395 . S
C2940 C2943 1.403 . S
H2941 C2947 0.930 . S
C2942 H2928 0.930 . S
C2942 C2940 1.395 . S
C2942 C2945 1.403 . S
C2943 C2940 1.403 . S
C2943 C2944 1.524 . S
C2943 C2947 1.400 . S
C2944 H2929 0.960 . S
C2944 H2930 0.960 . S
C2944 H2931 0.960 . S
C2944 C2943 1.524 . S
C2945 C2942 1.403 . S
C2945 C2946 1.392 . S
C2945 C2949 1.495 . S
C2946 C2945 1.392 . S
C2946 C2947 1.385 . S
C2946 C2948 1.478 . S
C2947 H2941 0.930 . S
C2947 C2943 1.400 . S
C2947 C2946 1.385 . S
C2948 C2946 1.478 . S
C2948 C2950 1.381 . S
C2948 C2954 1.383 . S
C2949 C2945 1.495 . S
C2949 H2955 0.959 . S
C2949 H2956 0.961 . S
C2949 H2957 0.960 . S
C2950 C2948 1.381 . S
C2950 C2951 1.394 . S
C2950 H2958 0.930 . S
C2951 C2950 1.394 . S
C2951 C2952 1.383 . S
C2951 H2959 0.929 . S
C2952 C2951 1.383 . S
C2952 C2953 1.377 . S
C2953 H2937 0.930 . S
C2953 C2952 1.377 . S
C2953 C2954 1.379 . S
C2954 H2938 0.931 . S
C2954 C2948 1.383 . S
C2954 C2953 1.379 . S
H2955 C2949 0.959 . S
H2956 C2949 0.961 . S
H2957 C2949 0.960 . S
H2958 C2950 0.930 . S
H2959 C2951 0.929 . S
H2960 C2968 0.929 . S
H2961 C2970 0.930 . S
H2962 C2972 0.933 . S
H2963 C2975 0.929 . S
H2964 C2978 0.930 . S
H2965 C2980 0.960 . S
H2966 C2980 0.960 . S
H2967 C2980 0.960 . S
C2968 H2960 0.929 . S
C2968 C2969 1.377 . S
C2968 C2970 1.384 . S
C2969 C2968 1.377 . S
C2969 C2975 1.390 . S
C2970 H2961 0.930 . S
C2970 C2968 1.384 . S
C2970 C2971 1.372 . S
C2971 C2970 1.372 . S
C2971 C2972 1.400 . S
C2971 C2976 1.490 . S
C2972 H2962 0.933 . S
C2972 C2971 1.400 . S
C2972 C2975 1.386 . S
H2973 C2989 0.930 . S
H2974 C2990 0.931 . S
C2975 H2963 0.929 . S
C2975 C2969 1.390 . S
C2975 C2972 1.386 . S
C2976 C2971 1.490 . S
C2976 C2978 1.395 1_556 S
C2976 C2979 1.403 . S
H2977 C2983 0.930 . S
C2978 H2964 0.930 . S
C2978 C2976 1.395 1_554 S
C2978 C2981 1.403 . S
C2979 C2976 1.403 . S
C2979 C2980 1.524 . S
C2979 C2983 1.400 . S
C2980 H2965 0.960 . S
C2980 H2966 0.960 . S
C2980 H2967 0.960 . S
C2980 C2979 1.524 . S
C2981 C2978 1.403 . S
C2981 C2982 1.392 . S
C2981 C2985 1.495 . S
C2982 C2981 1.392 . S
C2982 C2983 1.385 1_554 S
C2982 C2984 1.478 . S
C2983 H2977 0.930 . S
C2983 C2979 1.400 . S
C2983 C2982 1.385 1_556 S
C2984 C2982 1.478 . S
C2984 C2986 1.381 . S
C2984 C2990 1.383 . S
C2985 C2981 1.495 . S
C2985 H2991 0.959 . S
C2985 H2992 0.961 . S
C2985 H2993 0.960 . S
C2986 C2984 1.381 . S
C2986 C2987 1.394 . S
C2986 H2994 0.930 1_554 S
C2987 C2986 1.394 . S
C2987 C2988 1.383 . S
C2987 H2995 0.929 . S
C2988 C2987 1.383 . S
C2988 C2989 1.377 . S
C2989 H2973 0.930 . S
C2989 C2988 1.377 . S
C2989 C2990 1.379 . S
C2990 H2974 0.931 . S
C2990 C2984 1.383 . S
C2990 C2989 1.379 . S
H2991 C2985 0.959 . S
H2992 C2985 0.961 . S
H2993 C2985 0.960 . S
H2994 C2986 0.930 1_556 S
H2995 C2987 0.929 . S
H2996 C3004 0.929 . S
H2997 C3006 0.930 . S
H2998 C3008 0.930 . S
H2999 C3011 0.929 . S
H3000 C3014 0.930 . S
H3001 C3016 0.960 . S
H3002 C3016 0.960 . S
H3003 C3016 0.960 . S
C3004 H2996 0.929 . S
C3004 C3005 1.377 . S
C3004 C3006 1.384 . S
C3005 C3004 1.377 . S
C3005 C3011 1.390 . S
C3006 H2997 0.930 . S
C3006 C3004 1.384 . S
C3006 C3007 1.372 . S
C3007 C3006 1.372 . S
C3007 C3008 1.400 . S
C3007 C3012 1.490 . S
C3008 H2998 0.930 . S
C3008 C3007 1.400 . S
C3008 C3011 1.386 . S
H3009 C3025 0.930 . S
H3010 C3026 0.931 . S
C3011 H2999 0.929 . S
C3011 C3005 1.390 . S
C3011 C3008 1.386 . S
C3012 C3007 1.490 . S
C3012 C3014 1.395 . S
C3012 C3015 1.403 . S
H3013 C3019 0.930 . S
C3014 H3000 0.930 . S
C3014 C3012 1.395 . S
C3014 C3017 1.403 . S
C3015 C3012 1.403 . S
C3015 C3016 1.524 . S
C3015 C3019 1.400 . S
C3016 H3001 0.960 . S
C3016 H3002 0.960 . S
C3016 H3003 0.960 . S
C3016 C3015 1.524 . S
C3017 C3014 1.403 . S
C3017 C3018 1.392 . S
C3017 C3021 1.495 . S
C3018 C3017 1.392 . S
C3018 C3019 1.385 . S
C3018 C3020 1.478 . S
C3019 H3013 0.930 . S
C3019 C3015 1.400 . S
C3019 C3018 1.385 . S
C3020 C3018 1.478 . S
C3020 C3022 1.381 . S
C3020 C3026 1.383 . S
C3021 C3017 1.495 . S
C3021 H3027 0.959 . S
C3021 H3028 0.961 . S
C3021 H3029 0.960 . S
C3022 C3020 1.381 . S
C3022 C3023 1.394 . S
C3022 H3030 0.930 . S
C3023 C3022 1.394 . S
C3023 C3024 1.383 . S
C3023 H3031 0.929 . S
C3024 C3023 1.383 . S
C3024 C3025 1.377 . S
C3025 H3009 0.930 . S
C3025 C3024 1.377 . S
C3025 C3026 1.379 . S
C3026 H3010 0.931 . S
C3026 C3020 1.383 . S
C3026 C3025 1.379 . S
H3027 C3021 0.959 . S
H3028 C3021 0.961 . S
H3029 C3021 0.960 . S
H3030 C3022 0.930 . S
H3031 C3023 0.929 . S
H3032 C3040 0.929 . S
H3033 C3042 0.930 . S
H3034 C3044 0.930 . S
H3035 C3047 0.929 . S
H3036 C3050 0.930 . S
H3037 C3052 0.960 . S
H3038 C3052 0.960 . S
H3039 C3052 0.960 . S
C3040 H3032 0.929 . S
C3040 C3041 1.377 . S
C3040 C3042 1.384 . S
C3041 C3040 1.377 . S
C3041 C3047 1.390 . S
C3042 H3033 0.930 . S
C3042 C3040 1.384 . S
C3042 C3043 1.372 . S
C3043 C3042 1.372 . S
C3043 C3044 1.400 . S
C3043 C3048 1.490 . S
C3044 H3034 0.930 . S
C3044 C3043 1.400 . S
C3044 C3047 1.386 . S
H3045 C3061 0.930 . S
H3046 C3062 0.931 . S
C3047 H3035 0.929 . S
C3047 C3041 1.390 . S
C3047 C3044 1.386 . S
C3048 C3043 1.490 . S
C3048 C3050 1.395 . S
C3048 C3051 1.403 . S
H3049 C3055 0.930 . S
C3050 H3036 0.930 . S
C3050 C3048 1.395 . S
C3050 C3053 1.403 . S
C3051 C3048 1.403 . S
C3051 C3052 1.524 . S
C3051 C3055 1.400 . S
C3052 H3037 0.960 . S
C3052 H3038 0.960 . S
C3052 H3039 0.960 . S
C3052 C3051 1.524 . S
C3053 C3050 1.403 . S
C3053 C3054 1.392 . S
C3053 C3057 1.495 . S
C3054 C3053 1.392 . S
C3054 C3055 1.385 . S
C3054 C3056 1.478 . S
C3055 H3049 0.930 . S
C3055 C3051 1.400 . S
C3055 C3054 1.385 . S
C3056 C3054 1.478 . S
C3056 C3058 1.381 . S
C3056 C3062 1.383 . S
C3057 C3053 1.495 . S
C3057 H3063 0.959 . S
C3057 H3064 0.961 . S
C3057 H3065 0.960 . S
C3058 C3056 1.381 . S
C3058 C3059 1.394 . S
C3058 H3066 0.930 . S
C3059 C3058 1.394 . S
C3059 C3060 1.383 . S
C3059 H3067 0.929 . S
C3060 C3059 1.383 . S
C3060 C3061 1.377 . S
C3061 H3045 0.930 . S
C3061 C3060 1.377 . S
C3061 C3062 1.379 . S
C3062 H3046 0.931 . S
C3062 C3056 1.383 . S
C3062 C3061 1.379 . S
H3063 C3057 0.959 . S
H3064 C3057 0.961 . S
H3065 C3057 0.960 . S
H3066 C3058 0.930 . S
H3067 C3059 0.929 . S
H3068 C3076 0.929 . S
H3069 C3078 0.930 . S
H3070 C3080 0.930 . S
H3071 C3083 0.929 . S
H3072 C3086 0.930 . S
H3073 C3088 0.960 . S
H3074 C3088 0.960 . S
H3075 C3088 0.960 . S
C3076 H3068 0.929 . S
C3076 C3077 1.377 . S
C3076 C3078 1.384 . S
C3077 C3076 1.377 . S
C3077 C3083 1.390 . S
C3078 H3069 0.930 . S
C3078 C3076 1.384 . S
C3078 C3079 1.372 . S
C3079 C3078 1.372 . S
C3079 C3080 1.400 . S
C3079 C3084 1.490 . S
C3080 H3070 0.930 . S
C3080 C3079 1.400 . S
C3080 C3083 1.386 . S
H3081 C3097 0.930 . S
H3082 C3098 0.931 . S
C3083 H3071 0.929 . S
C3083 C3077 1.390 . S
C3083 C3080 1.386 . S
C3084 C3079 1.490 . S
C3084 C3086 1.395 . S
C3084 C3087 1.403 . S
H3085 C3091 0.930 . S
C3086 H3072 0.930 . S
C3086 C3084 1.395 . S
C3086 C3089 1.403 . S
C3087 C3084 1.403 . S
C3087 C3088 1.524 . S
C3087 C3091 1.400 . S
C3088 H3073 0.960 . S
C3088 H3074 0.960 . S
C3088 H3075 0.960 . S
C3088 C3087 1.524 . S
C3089 C3086 1.403 . S
C3089 C3090 1.392 . S
C3089 C3093 1.495 . S
C3090 C3089 1.392 . S
C3090 C3091 1.385 . S
C3090 C3092 1.478 . S
C3091 H3085 0.930 . S
C3091 C3087 1.400 . S
C3091 C3090 1.385 . S
C3092 C3090 1.478 . S
C3092 C3094 1.381 . S
C3092 C3098 1.383 . S
C3093 C3089 1.495 . S
C3093 H3099 0.959 . S
C3093 H3100 0.961 . S
C3093 H3101 0.960 . S
C3094 C3092 1.381 . S
C3094 C3095 1.394 . S
C3094 H3102 0.930 . S
C3095 C3094 1.394 . S
C3095 C3096 1.383 . S
C3095 H3103 0.929 . S
C3096 C3095 1.383 . S
C3096 C3097 1.377 . S
C3097 H3081 0.930 . S
C3097 C3096 1.377 . S
C3097 C3098 1.379 . S
C3098 H3082 0.931 . S
C3098 C3092 1.383 . S
C3098 C3097 1.379 . S
H3099 C3093 0.959 . S
H3100 C3093 0.961 . S
H3101 C3093 0.960 . S
H3102 C3094 0.930 . S
H3103 C3095 0.929 . S
H3104 C3112 0.929 . S
H3105 C3114 0.930 . S
H3106 C3116 0.930 . S
H3107 C3119 0.929 . S
H3108 C3122 0.930 . S
H3109 C3124 0.913 1_545 S
H3110 C3124 0.960 . S
H3111 C3124 0.960 . S
C3112 H3104 0.929 . S
C3112 C3113 1.377 . S
C3112 C3114 1.384 . S
C3113 C3112 1.377 . S
C3113 C3119 1.390 . S
C3114 H3105 0.930 . S
C3114 C3112 1.384 . S
C3114 C3115 1.372 . S
C3115 C3114 1.372 . S
C3115 C3116 1.400 . S
C3115 C3120 1.490 . S
C3116 H3106 0.930 . S
C3116 C3115 1.400 . S
C3116 C3119 1.386 . S
H3117 C3133 0.930 . S
H3118 C3134 0.931 . S
C3119 H3107 0.929 . S
C3119 C3113 1.390 . S
C3119 C3116 1.386 . S
C3120 C3115 1.490 . S
C3120 C3122 1.395 . S
C3120 C3123 1.403 . S
H3121 C3127 0.930 . S
C3122 H3108 0.930 . S
C3122 C3120 1.395 . S
C3122 C3125 1.403 1_565 S
C3123 C3120 1.403 . S
C3123 C3124 1.524 . S
C3123 C3127 1.400 1_565 S
C3124 H3109 0.913 1_565 S
C3124 H3110 0.960 . S
C3124 H3111 0.960 . S
C3124 C3123 1.524 . S
C3125 C3122 1.403 1_545 S
C3125 C3126 1.392 . S
C3125 C3129 1.495 . S
C3126 C3125 1.392 . S
C3126 C3127 1.385 . S
C3126 C3128 1.478 . S
C3127 H3121 0.930 . S
C3127 C3123 1.400 1_545 S
C3127 C3126 1.385 . S
C3128 C3126 1.478 . S
C3128 C3130 1.381 . S
C3128 C3134 1.383 . S
C3129 C3125 1.495 . S
C3129 H3135 0.882 1_545 S
C3129 H3136 0.961 . S
C3129 H3137 0.960 . S
C3130 C3128 1.381 . S
C3130 C3131 1.394 . S
C3130 H3138 0.930 . S
C3131 C3130 1.394 . S
C3131 C3132 1.383 . S
C3131 H3139 0.929 . S
C3132 C3131 1.383 . S
C3132 C3133 1.377 . S
C3133 H3117 0.930 . S
C3133 C3132 1.377 . S
C3133 C3134 1.379 . S
C3134 H3118 0.931 . S
C3134 C3128 1.383 . S
C3134 C3133 1.379 . S
H3135 C3129 0.882 1_565 S
H3136 C3129 0.961 . S
H3137 C3129 0.960 . S
H3138 C3130 0.930 . S
H3139 C3131 0.929 . S
H3140 C3148 0.929 . S
H3141 C3150 0.930 . S
H3142 C3152 0.930 . S
H3143 C3155 0.929 . S
H3144 C3158 0.930 . S
H3145 C3160 0.960 . S
H3146 C3160 0.960 . S
H3147 C3160 0.960 . S
C3148 H3140 0.929 . S
C3148 C3149 1.377 . S
C3148 C3150 1.384 . S
C3149 C3148 1.377 . S
C3149 C3155 1.390 . S
C3150 H3141 0.930 . S
C3150 C3148 1.384 . S
C3150 C3151 1.372 . S
C3151 C3150 1.372 . S
C3151 C3152 1.400 . S
C3151 C3156 1.490 . S
C3152 H3142 0.930 . S
C3152 C3151 1.400 . S
C3152 C3155 1.386 . S
H3153 C3169 0.930 . S
H3154 C3170 0.931 . S
C3155 H3143 0.929 . S
C3155 C3149 1.390 . S
C3155 C3152 1.386 . S
C3156 C3151 1.490 . S
C3156 C3158 1.395 . S
C3156 C3159 1.403 . S
H3157 C3163 0.930 . S
C3158 H3144 0.930 . S
C3158 C3156 1.395 . S
C3158 C3161 1.403 . S
C3159 C3156 1.403 . S
C3159 C3160 1.524 . S
C3159 C3163 1.400 . S
C3160 H3145 0.960 . S
C3160 H3146 0.960 . S
C3160 H3147 0.960 . S
C3160 C3159 1.524 . S
C3161 C3158 1.403 . S
C3161 C3162 1.392 . S
C3161 C3165 1.495 . S
C3162 C3161 1.392 . S
C3162 C3163 1.385 . S
C3162 C3164 1.478 . S
C3163 H3157 0.930 . S
C3163 C3159 1.400 . S
C3163 C3162 1.385 . S
C3164 C3162 1.478 . S
C3164 C3166 1.381 . S
C3164 C3170 1.383 . S
C3165 C3161 1.495 . S
C3165 H3171 0.959 . S
C3165 H3172 0.961 . S
C3165 H3173 0.960 . S
C3166 C3164 1.381 . S
C3166 C3167 1.394 . S
C3166 H3174 0.930 . S
C3167 C3166 1.394 . S
C3167 C3168 1.383 . S
C3167 H3175 0.929 . S
C3168 C3167 1.383 . S
C3168 C3169 1.377 . S
C3169 H3153 0.930 . S
C3169 C3168 1.377 . S
C3169 C3170 1.379 . S
C3170 H3154 0.931 . S
C3170 C3164 1.383 . S
C3170 C3169 1.379 . S
H3171 C3165 0.959 . S
H3172 C3165 0.961 . S
H3173 C3165 0.960 . S
H3174 C3166 0.930 . S
H3175 C3167 0.929 . S
H3176 C3184 0.929 1_556 S
H3177 C3186 0.930 . S
H3178 C3188 0.930 . S
H3179 C3191 0.929 . S
H3180 C3194 0.930 . S
H3181 C3196 0.960 . S
H3182 C3196 0.960 . S
H3183 C3196 0.960 . S
C3184 H3176 0.929 1_554 S
C3184 C3185 1.377 . S
C3184 C3186 1.384 1_554 S
C3185 C3184 1.377 . S
C3185 C3191 1.390 . S
C3186 H3177 0.930 . S
C3186 C3184 1.384 1_556 S
C3186 C3187 1.372 1_556 S
C3187 C3186 1.372 1_554 S
C3187 C3188 1.400 . S
C3187 C3192 1.490 . S
C3188 H3178 0.930 . S
C3188 C3187 1.400 . S
C3188 C3191 1.386 . S
H3189 C3205 0.930 1_554 S
H3190 C3206 0.931 . S
C3191 H3179 0.929 . S
C3191 C3185 1.390 . S
C3191 C3188 1.386 . S
C3192 C3187 1.490 . S
C3192 C3194 1.395 1_554 S
C3192 C3195 1.403 . S
H3193 C3199 0.930 . S
C3194 H3180 0.930 . S
C3194 C3192 1.395 1_556 S
C3194 C3197 1.403 1_565 S
C3195 C3192 1.403 . S
C3195 C3196 1.524 . S
C3195 C3199 1.400 1_565 S
C3196 H3181 0.960 . S
C3196 H3182 0.960 . S
C3196 H3183 0.960 . S
C3196 C3195 1.524 . S
C3197 C3194 1.403 1_545 S
C3197 C3198 1.392 . S
C3197 C3201 1.495 . S
C3198 C3197 1.392 . S
C3198 C3199 1.385 1_556 S
C3198 C3200 1.478 . S
C3199 H3193 0.930 . S
C3199 C3195 1.400 1_545 S
C3199 C3198 1.385 1_554 S
C3200 C3198 1.478 . S
C3200 C3202 1.381 . S
C3200 C3206 1.383 1_556 S
C3201 C3197 1.495 . S
C3201 H3207 0.959 . S
C3201 H3208 0.961 . S
C3201 H3209 0.960 . S
C3202 C3200 1.381 . S
C3202 C3203 1.394 . S
C3202 H3210 0.930 . S
C3203 C3202 1.394 . S
C3203 C3204 1.383 . S
C3203 H3211 0.929 . S
C3204 C3203 1.383 . S
C3204 C3205 1.377 . S
C3205 H3189 0.930 1_556 S
C3205 C3204 1.377 . S
C3205 C3206 1.379 1_556 S
C3206 H3190 0.931 . S
C3206 C3200 1.383 1_554 S
C3206 C3205 1.379 1_554 S
H3207 C3201 0.959 . S
H3208 C3201 0.961 . S
H3209 C3201 0.960 . S
H3210 C3202 0.930 . S
H3211 C3203 0.929 . S
H3212 C3220 0.929 . S
H3213 C3222 0.930 . S
H3214 C3224 0.930 . S
H3215 C3227 0.929 . S
H3216 C3230 0.930 . S
H3217 C3232 0.960 . S
H3218 C3232 0.960 . S
H3219 C3232 0.960 . S
C3220 H3212 0.929 . S
C3220 C3221 1.377 . S
C3220 C3222 1.384 . S
C3221 C3220 1.377 . S
C3221 C3227 1.390 . S
C3222 H3213 0.930 . S
C3222 C3220 1.384 . S
C3222 C3223 1.372 . S
C3223 C3222 1.372 . S
C3223 C3224 1.400 . S
C3223 C3228 1.490 . S
C3224 H3214 0.930 . S
C3224 C3223 1.400 . S
C3224 C3227 1.386 . S
H3225 C3241 0.930 . S
H3226 C3242 0.931 . S
C3227 H3215 0.929 . S
C3227 C3221 1.390 . S
C3227 C3224 1.386 . S
C3228 C3223 1.490 . S
C3228 C3230 1.395 . S
C3228 C3231 1.403 . S
H3229 C3235 0.930 . S
C3230 H3216 0.930 . S
C3230 C3228 1.395 . S
C3230 C3233 1.403 . S
C3231 C3228 1.403 . S
C3231 C3232 1.524 . S
C3231 C3235 1.400 . S
C3232 H3217 0.960 . S
C3232 H3218 0.960 . S
C3232 H3219 0.960 . S
C3232 C3231 1.524 . S
C3233 C3230 1.403 . S
C3233 C3234 1.392 . S
C3233 C3237 1.495 . S
C3234 C3233 1.392 . S
C3234 C3235 1.385 . S
C3234 C3236 1.478 . S
C3235 H3229 0.930 . S
C3235 C3231 1.400 . S
C3235 C3234 1.385 . S
C3236 C3234 1.478 . S
C3236 C3238 1.381 . S
C3236 C3242 1.383 . S
C3237 C3233 1.495 . S
C3237 H3243 0.959 . S
C3237 H3244 0.961 . S
C3237 H3245 0.960 . S
C3238 C3236 1.381 . S
C3238 C3239 1.394 . S
C3238 H3246 0.930 . S
C3239 C3238 1.394 . S
C3239 C3240 1.383 . S
C3239 H3247 0.929 . S
C3240 C3239 1.383 . S
C3240 C3241 1.377 . S
C3241 H3225 0.930 . S
C3241 C3240 1.377 . S
C3241 C3242 1.379 . S
C3242 H3226 0.931 . S
C3242 C3236 1.383 . S
C3242 C3241 1.379 . S
H3243 C3237 0.959 . S
H3244 C3237 0.961 . S
H3245 C3237 0.960 . S
H3246 C3238 0.930 . S
H3247 C3239 0.929 . S
H3248 C3256 0.929 . S
H3249 C3258 0.930 . S
H3250 C3260 0.930 . S
H3251 C3263 0.929 . S
H3252 C3266 0.930 . S
H3253 C3268 0.960 1_565 S
H3254 C3268 0.960 . S
H3255 C3268 0.960 . S
C3256 H3248 0.929 . S
C3256 C3257 1.377 . S
C3256 C3258 1.384 . S
C3257 C3256 1.377 . S
C3257 C3263 1.390 . S
C3258 H3249 0.930 . S
C3258 C3256 1.384 . S
C3258 C3259 1.372 . S
C3259 C3258 1.372 . S
C3259 C3260 1.400 . S
C3259 C3264 1.490 . S
C3260 H3250 0.930 . S
C3260 C3259 1.400 . S
C3260 C3263 1.386 . S
H3261 C3277 0.930 . S
H3262 C3278 0.931 . S
C3263 H3251 0.929 . S
C3263 C3257 1.390 . S
C3263 C3260 1.386 . S
C3264 C3259 1.490 . S
C3264 C3266 1.395 . S
C3264 C3267 1.403 . S
H3265 C3271 0.930 . S
C3266 H3252 0.930 . S
C3266 C3264 1.395 . S
C3266 C3269 1.403 1_545 S
C3267 C3264 1.403 . S
C3267 C3268 1.524 . S
C3267 C3271 1.400 1_545 S
C3268 H3253 0.960 1_545 S
C3268 H3254 0.960 . S
C3268 H3255 0.960 . S
C3268 C3267 1.524 . S
C3269 C3266 1.403 1_565 S
C3269 C3270 1.392 . S
C3269 C3273 1.495 . S
C3270 C3269 1.392 . S
C3270 C3271 1.385 . S
C3270 C3272 1.478 . S
C3271 H3265 0.930 . S
C3271 C3267 1.400 1_565 S
C3271 C3270 1.385 . S
C3272 C3270 1.478 . S
C3272 C3274 1.381 . S
C3272 C3278 1.383 . S
C3273 C3269 1.495 . S
C3273 H3279 0.959 1_565 S
C3273 H3280 0.961 . S
C3273 H3281 0.960 . S
C3274 C3272 1.381 . S
C3274 C3275 1.394 . S
C3274 H3282 0.930 . S
C3275 C3274 1.394 . S
C3275 C3276 1.383 . S
C3275 H3283 0.929 . S
C3276 C3275 1.383 . S
C3276 C3277 1.377 . S
C3277 H3261 0.930 . S
C3277 C3276 1.377 . S
C3277 C3278 1.379 . S
C3278 H3262 0.931 . S
C3278 C3272 1.383 . S
C3278 C3277 1.379 . S
H3279 C3273 0.959 1_545 S
H3280 C3273 0.961 . S
H3281 C3273 0.960 . S
H3282 C3274 0.930 . S
H3283 C3275 0.929 . S
H3284 C3292 0.929 . S
H3285 C3294 0.930 . S
H3286 C3296 0.930 . S
H3287 C3299 0.929 . S
H3288 C3302 0.930 . S
H3289 C3304 0.960 . S
H3290 C3304 0.960 . S
H3291 C3304 0.960 . S
C3292 H3284 0.929 . S
C3292 C3293 1.377 . S
C3292 C3294 1.384 . S
C3293 C3292 1.377 . S
C3293 C3299 1.390 . S
C3294 H3285 0.930 . S
C3294 C3292 1.384 . S
C3294 C3295 1.372 . S
C3295 C3294 1.372 . S
C3295 C3296 1.400 . S
C3295 C3300 1.490 . S
C3296 H3286 0.930 . S
C3296 C3295 1.400 . S
C3296 C3299 1.386 . S
H3297 C3313 0.930 . S
H3298 C3314 0.931 . S
C3299 H3287 0.929 . S
C3299 C3293 1.390 . S
C3299 C3296 1.386 . S
C3300 C3295 1.490 . S
C3300 C3302 1.395 . S
C3300 C3303 1.403 . S
H3301 C3307 0.930 . S
C3302 H3288 0.930 . S
C3302 C3300 1.395 . S
C3302 C3305 1.403 . S
C3303 C3300 1.403 . S
C3303 C3304 1.524 . S
C3303 C3307 1.400 . S
C3304 H3289 0.960 . S
C3304 H3290 0.960 . S
C3304 H3291 0.960 . S
C3304 C3303 1.524 . S
C3305 C3302 1.403 . S
C3305 C3306 1.392 . S
C3305 C3309 1.495 . S
C3306 C3305 1.392 . S
C3306 C3307 1.385 . S
C3306 C3308 1.478 . S
C3307 H3301 0.930 . S
C3307 C3303 1.400 . S
C3307 C3306 1.385 . S
C3308 C3306 1.478 . S
C3308 C3310 1.381 . S
C3308 C3314 1.383 . S
C3309 C3305 1.495 . S
C3309 H3315 0.959 . S
C3309 H3316 0.961 . S
C3309 H3317 0.960 . S
C3310 C3308 1.381 . S
C3310 C3311 1.394 . S
C3310 H3318 0.930 . S
C3311 C3310 1.394 . S
C3311 C3312 1.383 . S
C3311 H3319 0.929 . S
C3312 C3311 1.383 . S
C3312 C3313 1.377 . S
C3313 H3297 0.930 . S
C3313 C3312 1.377 . S
C3313 C3314 1.379 . S
C3314 H3298 0.931 . S
C3314 C3308 1.383 . S
C3314 C3313 1.379 . S
H3315 C3309 0.959 . S
H3316 C3309 0.961 . S
H3317 C3309 0.960 . S
H3318 C3310 0.930 . S
H3319 C3311 0.929 . S
H3320 C3328 0.929 . S
H3321 C3330 0.930 1_556 S
H3322 C3332 0.930 . S
H3323 C3335 0.929 . S
H3324 C3338 0.930 . S
H3325 C3340 0.960 . S
H3326 C3340 0.960 . S
H3327 C3340 0.960 1_554 S
C3328 H3320 0.929 . S
C3328 C3329 1.377 . S
C3328 C3330 1.384 . S
C3329 C3328 1.377 . S
C3329 C3335 1.390 . S
C3330 H3321 0.930 1_554 S
C3330 C3328 1.384 . S
C3330 C3331 1.372 . S
C3331 C3330 1.372 . S
C3331 C3332 1.400 . S
C3331 C3336 1.490 . S
C3332 H3322 0.930 . S
C3332 C3331 1.400 . S
C3332 C3335 1.386 . S
H3333 C3349 0.930 . S
H3334 C3350 0.931 1_554 S
C3335 H3323 0.929 . S
C3335 C3329 1.390 . S
C3335 C3332 1.386 . S
C3336 C3331 1.490 . S
C3336 C3338 1.395 . S
C3336 C3339 1.403 1_554 S
H3337 C3343 0.930 . S
C3338 H3324 0.930 . S
C3338 C3336 1.395 . S
C3338 C3341 1.403 1_565 S
C3339 C3336 1.403 1_556 S
C3339 C3340 1.524 . S
C3339 C3343 1.400 1_565 S
C3340 H3325 0.960 . S
C3340 H3326 0.960 . S
C3340 H3327 0.960 1_556 S
C3340 C3339 1.524 . S
C3341 C3338 1.403 1_545 S
C3341 C3342 1.392 1_554 S
C3341 C3345 1.495 . S
C3342 C3341 1.392 1_556 S
C3342 C3343 1.385 . S
C3342 C3344 1.478 . S
C3343 H3337 0.930 . S
C3343 C3339 1.400 1_545 S
C3343 C3342 1.385 . S
C3344 C3342 1.478 . S
C3344 C3346 1.381 . S
C3344 C3350 1.383 . S
C3345 C3341 1.495 . S
C3345 H3351 0.959 . S
C3345 H3352 0.961 . S
C3345 H3353 0.960 1_554 S
C3346 C3344 1.381 . S
C3346 C3347 1.394 . S
C3346 H3354 0.930 . S
C3347 C3346 1.394 . S
C3347 C3348 1.383 . S
C3347 H3355 0.929 . S
C3348 C3347 1.383 . S
C3348 C3349 1.377 . S
C3349 H3333 0.930 . S
C3349 C3348 1.377 . S
C3349 C3350 1.379 . S
C3350 H3334 0.931 1_556 S
C3350 C3344 1.383 . S
C3350 C3349 1.379 . S
H3351 C3345 0.959 . S
H3352 C3345 0.961 . S
H3353 C3345 0.960 1_556 S
H3354 C3346 0.930 . S
H3355 C3347 0.929 . S
H3356 C3364 0.929 . S
H3357 C3366 0.930 . S
H3358 C3368 0.930 . S
H3359 C3371 0.929 . S
H3360 C3374 0.930 . S
H3361 C3376 0.960 . S
H3362 C3376 0.960 . S
H3363 C3376 0.960 . S
C3364 H3356 0.929 . S
C3364 C3365 1.377 . S
C3364 C3366 1.384 . S
C3365 C3364 1.377 . S
C3365 C3371 1.390 . S
C3366 H3357 0.930 . S
C3366 C3364 1.384 . S
C3366 C3367 1.372 . S
C3367 C3366 1.372 . S
C3367 C3368 1.400 . S
C3367 C3372 1.490 . S
C3368 H3358 0.930 . S
C3368 C3367 1.400 . S
C3368 C3371 1.386 . S
H3369 C3385 0.930 . S
H3370 C3386 0.931 . S
C3371 H3359 0.929 . S
C3371 C3365 1.390 . S
C3371 C3368 1.386 . S
C3372 C3367 1.490 . S
C3372 C3374 1.395 . S
C3372 C3375 1.403 . S
H3373 C3379 0.930 . S
C3374 H3360 0.930 . S
C3374 C3372 1.395 . S
C3374 C3377 1.403 . S
C3375 C3372 1.403 . S
C3375 C3376 1.524 . S
C3375 C3379 1.400 . S
C3376 H3361 0.960 . S
C3376 H3362 0.960 . S
C3376 H3363 0.960 . S
C3376 C3375 1.524 . S
C3377 C3374 1.403 . S
C3377 C3378 1.392 . S
C3377 C3381 1.495 . S
C3378 C3377 1.392 . S
C3378 C3379 1.385 . S
C3378 C3380 1.478 . S
C3379 H3373 0.930 . S
C3379 C3375 1.400 . S
C3379 C3378 1.385 . S
C3380 C3378 1.478 . S
C3380 C3382 1.381 . S
C3380 C3386 1.383 . S
C3381 C3377 1.495 . S
C3381 H3387 0.959 . S
C3381 H3388 0.961 . S
C3381 H3389 0.960 . S
C3382 C3380 1.381 . S
C3382 C3383 1.394 . S
C3382 H3390 0.930 . S
C3383 C3382 1.394 . S
C3383 C3384 1.383 . S
C3383 H3391 0.929 . S
C3384 C3383 1.383 . S
C3384 C3385 1.377 . S
C3385 H3369 0.930 . S
C3385 C3384 1.377 . S
C3385 C3386 1.379 . S
C3386 H3370 0.931 . S
C3386 C3380 1.383 . S
C3386 C3385 1.379 . S
H3387 C3381 0.959 . S
H3388 C3381 0.961 . S
H3389 C3381 0.960 . S
H3390 C3382 0.930 . S
H3391 C3383 0.929 . S
H3392 C3400 0.929 . S
H3393 C3402 0.930 . S
H3394 C3404 0.930 . S
H3395 C3407 0.929 . S
H3396 C3410 0.930 . S
H3397 C3412 0.960 . S
H3398 C3412 0.960 1_556 S
H3399 C3412 0.960 . S
C3400 H3392 0.929 . S
C3400 C3401 1.377 . S
C3400 C3402 1.384 . S
C3401 C3400 1.377 . S
C3401 C3407 1.390 . S
C3402 H3393 0.930 . S
C3402 C3400 1.384 . S
C3402 C3403 1.372 . S
C3403 C3402 1.372 . S
C3403 C3404 1.400 . S
C3403 C3408 1.490 . S
C3404 H3394 0.930 . S
C3404 C3403 1.400 . S
C3404 C3407 1.386 . S
H3405 C3421 0.930 . S
H3406 C3422 0.931 . S
C3407 H3395 0.929 . S
C3407 C3401 1.390 . S
C3407 C3404 1.386 . S
C3408 C3403 1.490 . S
C3408 C3410 1.395 . S
C3408 C3411 1.403 . S
H3409 C3415 0.930 . S
C3410 H3396 0.930 . S
C3410 C3408 1.395 . S
C3410 C3413 1.403 1_455 S
C3411 C3408 1.403 . S
C3411 C3412 1.524 . S
C3411 C3415 1.400 1_455 S
C3412 H3397 0.960 . S
C3412 H3398 0.960 1_554 S
C3412 H3399 0.960 . S
C3412 C3411 1.524 . S
C3413 C3410 1.403 1_655 S
C3413 C3414 1.392 . S
C3413 C3417 1.495 . S
C3414 C3413 1.392 . S
C3414 C3415 1.385 . S
C3414 C3416 1.478 . S
C3415 H3409 0.930 . S
C3415 C3411 1.400 1_655 S
C3415 C3414 1.385 . S
C3416 C3414 1.478 . S
C3416 C3418 1.381 . S
C3416 C3422 1.383 . S
C3417 C3413 1.495 . S
C3417 H3423 0.959 . S
C3417 H3424 0.961 . S
C3417 H3425 0.960 . S
C3418 C3416 1.381 . S
C3418 C3419 1.394 . S
C3418 H3426 0.930 . S
C3419 C3418 1.394 . S
C3419 C3420 1.383 . S
C3419 H3427 0.929 . S
C3420 C3419 1.383 . S
C3420 C3421 1.377 . S
C3421 H3405 0.930 . S
C3421 C3420 1.377 . S
C3421 C3422 1.379 . S
C3422 H3406 0.931 . S
C3422 C3416 1.383 . S
C3422 C3421 1.379 . S
H3423 C3417 0.959 . S
H3424 C3417 0.961 . S
H3425 C3417 0.960 . S
H3426 C3418 0.930 . S
H3427 C3419 0.929 . S
H3428 C3436 0.929 . S
H3429 C3438 0.930 . S
H3430 C3440 0.930 . S
H3431 C3443 0.929 . S
H3432 C3446 0.930 . S
H3433 C3448 0.960 . S
H3434 C3448 0.960 . S
H3435 C3448 0.960 . S
C3436 H3428 0.929 . S
C3436 C3437 1.377 . S
C3436 C3438 1.384 . S
C3437 C3436 1.377 . S
C3437 C3443 1.390 . S
C3438 H3429 0.930 . S
C3438 C3436 1.384 . S
C3438 C3439 1.372 . S
C3439 C3438 1.372 . S
C3439 C3440 1.400 . S
C3439 C3444 1.490 . S
C3440 H3430 0.930 . S
C3440 C3439 1.400 . S
C3440 C3443 1.386 . S
H3441 C3457 0.930 . S
H3442 C3458 0.931 . S
C3443 H3431 0.929 . S
C3443 C3437 1.390 . S
C3443 C3440 1.386 . S
C3444 C3439 1.490 . S
C3444 C3446 1.395 . S
C3444 C3447 1.403 . S
H3445 C3451 0.930 . S
C3446 H3432 0.930 . S
C3446 C3444 1.395 . S
C3446 C3449 1.403 . S
C3447 C3444 1.403 . S
C3447 C3448 1.524 . S
C3447 C3451 1.400 . S
C3448 H3433 0.960 . S
C3448 H3434 0.960 . S
C3448 H3435 0.960 . S
C3448 C3447 1.524 . S
C3449 C3446 1.403 . S
C3449 C3450 1.392 . S
C3449 C3453 1.495 . S
C3450 C3449 1.392 . S
C3450 C3451 1.385 . S
C3450 C3452 1.478 . S
C3451 H3445 0.930 . S
C3451 C3447 1.400 . S
C3451 C3450 1.385 . S
C3452 C3450 1.478 . S
C3452 C3454 1.381 . S
C3452 C3458 1.383 . S
C3453 C3449 1.495 . S
C3453 H3459 0.959 . S
C3453 H3460 0.961 . S
C3453 H3461 0.960 . S
C3454 C3452 1.381 . S
C3454 C3455 1.394 . S
C3454 H3462 0.930 . S
C3455 C3454 1.394 . S
C3455 C3456 1.383 . S
C3455 H3463 0.929 . S
C3456 C3455 1.383 . S
C3456 C3457 1.377 . S
C3457 H3441 0.930 . S
C3457 C3456 1.377 . S
C3457 C3458 1.379 . S
C3458 H3442 0.931 . S
C3458 C3452 1.383 . S
C3458 C3457 1.379 . S
H3459 C3453 0.959 . S
H3460 C3453 0.961 . S
H3461 C3453 0.960 . S
H3462 C3454 0.930 . S
H3463 C3455 0.929 . S
H3464 C3472 0.929 . S
H3465 C3474 0.930 . S
H3466 C3476 0.930 . S
H3467 C3479 0.929 . S
H3468 C3482 0.930 . S
H3469 C3484 0.960 . S
H3470 C3484 0.960 . S
H3471 C3484 0.960 . S
C3472 H3464 0.929 . S
C3472 C3473 1.377 . S
C3472 C3474 1.384 . S
C3473 C3472 1.377 . S
C3473 C3479 1.390 . S
C3474 H3465 0.930 . S
C3474 C3472 1.384 . S
C3474 C3475 1.372 . S
C3475 C3474 1.372 . S
C3475 C3476 1.400 . S
C3475 C3480 1.490 . S
C3476 H3466 0.930 . S
C3476 C3475 1.400 . S
C3476 C3479 1.386 . S
H3477 C3493 0.930 . S
H3478 C3494 0.931 . S
C3479 H3467 0.929 . S
C3479 C3473 1.390 . S
C3479 C3476 1.386 . S
C3480 C3475 1.490 . S
C3480 C3482 1.395 . S
C3480 C3483 1.403 . S
H3481 C3487 0.930 . S
C3482 H3468 0.930 . S
C3482 C3480 1.395 . S
C3482 C3485 1.403 . S
C3483 C3480 1.403 . S
C3483 C3484 1.524 . S
C3483 C3487 1.400 . S
C3484 H3469 0.960 . S
C3484 H3470 0.960 . S
C3484 H3471 0.960 . S
C3484 C3483 1.524 . S
C3485 C3482 1.403 . S
C3485 C3486 1.392 . S
C3485 C3489 1.495 . S
C3486 C3485 1.392 . S
C3486 C3487 1.385 . S
C3486 C3488 1.478 . S
C3487 H3481 0.930 . S
C3487 C3483 1.400 . S
C3487 C3486 1.385 . S
C3488 C3486 1.478 . S
C3488 C3490 1.381 . S
C3488 C3494 1.383 . S
C3489 C3485 1.495 . S
C3489 H3495 0.959 . S
C3489 H3496 0.961 . S
C3489 H3497 0.960 . S
C3490 C3488 1.381 . S
C3490 C3491 1.394 . S
C3490 H3498 0.930 . S
C3491 C3490 1.394 . S
C3491 C3492 1.383 . S
C3491 H3499 0.929 . S
C3492 C3491 1.383 . S
C3492 C3493 1.377 . S
C3493 H3477 0.930 . S
C3493 C3492 1.377 . S
C3493 C3494 1.379 . S
C3494 H3478 0.931 . S
C3494 C3488 1.383 . S
C3494 C3493 1.379 . S
H3495 C3489 0.959 . S
H3496 C3489 0.961 . S
H3497 C3489 0.960 . S
H3498 C3490 0.930 . S
H3499 C3491 0.929 . S
H3500 C3508 0.929 . S
H3501 C3510 0.930 . S
H3502 C3512 0.930 . S
H3503 C3515 0.929 . S
H3504 C3518 0.930 . S
H3505 C3520 0.960 . S
H3506 C3520 0.960 . S
H3507 C3520 0.960 . S
C3508 H3500 0.929 . S
C3508 C3509 1.377 . S
C3508 C3510 1.384 . S
C3509 C3508 1.377 . S
C3509 C3515 1.390 . S
C3510 H3501 0.930 . S
C3510 C3508 1.384 . S
C3510 C3511 1.372 . S
C3511 C3510 1.372 . S
C3511 C3512 1.400 . S
C3511 C3516 1.490 . S
C3512 H3502 0.930 . S
C3512 C3511 1.400 . S
C3512 C3515 1.386 . S
H3513 C3529 0.930 . S
H3514 C3530 0.931 . S
C3515 H3503 0.929 . S
C3515 C3509 1.390 . S
C3515 C3512 1.386 . S
C3516 C3511 1.490 . S
C3516 C3518 1.395 . S
C3516 C3519 1.403 . S
H3517 C3523 0.930 . S
C3518 H3504 0.930 . S
C3518 C3516 1.395 . S
C3518 C3521 1.403 . S
C3519 C3516 1.403 . S
C3519 C3520 1.524 . S
C3519 C3523 1.400 . S
C3520 H3505 0.960 . S
C3520 H3506 0.960 . S
C3520 H3507 0.960 . S
C3520 C3519 1.524 . S
C3521 C3518 1.403 . S
C3521 C3522 1.392 . S
C3521 C3525 1.495 . S
C3522 C3521 1.392 . S
C3522 C3523 1.385 . S
C3522 C3524 1.478 . S
C3523 H3517 0.930 . S
C3523 C3519 1.400 . S
C3523 C3522 1.385 . S
C3524 C3522 1.478 . S
C3524 C3526 1.381 . S
C3524 C3530 1.383 . S
C3525 C3521 1.495 . S
C3525 H3531 0.959 . S
C3525 H3532 0.961 . S
C3525 H3533 0.960 . S
C3526 C3524 1.381 . S
C3526 C3527 1.394 . S
C3526 H3534 0.930 . S
C3527 C3526 1.394 . S
C3527 C3528 1.383 . S
C3527 H3535 0.929 . S
C3528 C3527 1.383 . S
C3528 C3529 1.377 . S
C3529 H3513 0.930 . S
C3529 C3528 1.377 . S
C3529 C3530 1.379 . S
C3530 H3514 0.931 . S
C3530 C3524 1.383 . S
C3530 C3529 1.379 . S
H3531 C3525 0.959 . S
H3532 C3525 0.961 . S
H3533 C3525 0.960 . S
H3534 C3526 0.930 . S
H3535 C3527 0.929 . S
H3536 C3544 0.929 . S
H3537 C3546 0.930 . S
H3538 C3548 0.930 . S
H3539 C3551 0.929 . S
H3540 C3554 0.930 . S
H3541 C3556 0.960 . S
H3542 C3556 0.960 . S
H3543 C3556 0.960 . S
C3544 H3536 0.929 . S
C3544 C3545 1.377 . S
C3544 C3546 1.384 . S
C3545 C3544 1.377 . S
C3545 C3551 1.390 . S
C3546 H3537 0.930 . S
C3546 C3544 1.384 . S
C3546 C3547 1.372 . S
C3547 C3546 1.372 . S
C3547 C3548 1.400 . S
C3547 C3552 1.490 . S
C3548 H3538 0.930 . S
C3548 C3547 1.400 . S
C3548 C3551 1.386 . S
H3549 C3565 0.930 . S
H3550 C3566 0.931 . S
C3551 H3539 0.929 . S
C3551 C3545 1.390 . S
C3551 C3548 1.386 . S
C3552 C3547 1.490 . S
C3552 C3554 1.395 . S
C3552 C3555 1.403 . S
H3553 C3559 0.930 . S
C3554 H3540 0.930 . S
C3554 C3552 1.395 . S
C3554 C3557 1.403 1_655 S
C3555 C3552 1.403 . S
C3555 C3556 1.524 . S
C3555 C3559 1.400 1_655 S
C3556 H3541 0.960 . S
C3556 H3542 0.960 . S
C3556 H3543 0.960 . S
C3556 C3555 1.524 . S
C3557 C3554 1.403 1_455 S
C3557 C3558 1.392 . S
C3557 C3561 1.495 1_556 S
C3558 C3557 1.392 . S
C3558 C3559 1.385 . S
C3558 C3560 1.478 . S
C3559 H3553 0.930 . S
C3559 C3555 1.400 1_455 S
C3559 C3558 1.385 . S
C3560 C3558 1.478 . S
C3560 C3562 1.381 . S
C3560 C3566 1.383 . S
C3561 C3557 1.495 1_554 S
C3561 H3567 0.959 . S
C3561 H3568 0.961 . S
C3561 H3569 0.960 . S
C3562 C3560 1.381 . S
C3562 C3563 1.394 . S
C3562 H3570 0.930 . S
C3563 C3562 1.394 . S
C3563 C3564 1.383 . S
C3563 H3571 0.929 . S
C3564 C3563 1.383 . S
C3564 C3565 1.377 . S
C3565 H3549 0.930 . S
C3565 C3564 1.377 . S
C3565 C3566 1.379 . S
C3566 H3550 0.931 . S
C3566 C3560 1.383 . S
C3566 C3565 1.379 . S
H3567 C3561 0.959 . S
H3568 C3561 0.961 . S
H3569 C3561 0.960 . S
H3570 C3562 0.930 . S
H3571 C3563 0.929 . S
H3572 C3580 0.929 . S
H3573 C3582 0.930 . S
H3574 C3584 0.930 . S
H3575 C3587 0.929 . S
H3576 C3590 0.930 . S
H3577 C3592 0.960 . S
H3578 C3592 0.960 . S
H3579 C3592 0.960 . S
C3580 H3572 0.929 . S
C3580 C3581 1.377 . S
C3580 C3582 1.384 . S
C3581 C3580 1.377 . S
C3581 C3587 1.390 . S
C3582 H3573 0.930 . S
C3582 C3580 1.384 . S
C3582 C3583 1.372 . S
C3583 C3582 1.372 . S
C3583 C3584 1.400 . S
C3583 C3588 1.490 . S
C3584 H3574 0.930 . S
C3584 C3583 1.400 . S
C3584 C3587 1.386 . S
H3585 C3601 0.930 . S
H3586 C3602 0.931 . S
C3587 H3575 0.929 . S
C3587 C3581 1.390 . S
C3587 C3584 1.386 . S
C3588 C3583 1.490 . S
C3588 C3590 1.395 . S
C3588 C3591 1.403 . S
H3589 C3595 0.930 . S
C3590 H3576 0.930 . S
C3590 C3588 1.395 . S
C3590 C3593 1.403 . S
C3591 C3588 1.403 . S
C3591 C3592 1.524 . S
C3591 C3595 1.400 . S
C3592 H3577 0.960 . S
C3592 H3578 0.960 . S
C3592 H3579 0.960 . S
C3592 C3591 1.524 . S
C3593 C3590 1.403 . S
C3593 C3594 1.392 . S
C3593 C3597 1.495 . S
C3594 C3593 1.392 . S
C3594 C3595 1.385 . S
C3594 C3596 1.478 . S
C3595 H3589 0.930 . S
C3595 C3591 1.400 . S
C3595 C3594 1.385 . S
C3596 C3594 1.478 . S
C3596 C3598 1.381 . S
C3596 C3602 1.383 . S
C3597 C3593 1.495 . S
C3597 H3603 0.959 . S
C3597 H3604 0.961 . S
C3597 H3605 0.960 . S
C3598 C3596 1.381 . S
C3598 C3599 1.394 . S
C3598 H3606 0.930 . S
C3599 C3598 1.394 . S
C3599 C3600 1.383 . S
C3599 H3607 0.929 . S
C3600 C3599 1.383 . S
C3600 C3601 1.377 . S
C3601 H3585 0.930 . S
C3601 C3600 1.377 . S
C3601 C3602 1.379 . S
C3602 H3586 0.931 . S
C3602 C3596 1.383 . S
C3602 C3601 1.379 . S
H3603 C3597 0.959 . S
H3604 C3597 0.961 . S
H3605 C3597 0.960 . S
H3606 C3598 0.930 . S
H3607 C3599 0.929 . S
H3608 C3616 0.929 . S
H3609 C3618 0.930 . S
H3610 C3620 0.930 . S
H3611 C3623 0.929 . S
H3612 C3626 0.930 . S
H3613 C3628 0.960 . S
H3614 C3628 0.960 . S
H3615 C3628 0.960 . S
C3616 H3608 0.929 . S
C3616 C3617 1.377 . S
C3616 C3618 1.384 . S
C3617 C3616 1.377 . S
C3617 C3623 1.390 . S
C3618 H3609 0.930 . S
C3618 C3616 1.384 . S
C3618 C3619 1.372 . S
C3619 C3618 1.372 . S
C3619 C3620 1.400 . S
C3619 C3624 1.490 . S
C3620 H3610 0.930 . S
C3620 C3619 1.400 . S
C3620 C3623 1.386 . S
H3621 C3637 0.930 . S
H3622 C3638 0.931 . S
C3623 H3611 0.929 . S
C3623 C3617 1.390 . S
C3623 C3620 1.386 . S
C3624 C3619 1.490 . S
C3624 C3626 1.395 . S
C3624 C3627 1.403 . S
H3625 C3631 0.930 . S
C3626 H3612 0.930 . S
C3626 C3624 1.395 . S
C3626 C3629 1.403 . S
C3627 C3624 1.403 . S
C3627 C3628 1.524 . S
C3627 C3631 1.400 . S
C3628 H3613 0.960 . S
C3628 H3614 0.960 . S
C3628 H3615 0.960 . S
C3628 C3627 1.524 . S
C3629 C3626 1.403 . S
C3629 C3630 1.392 . S
C3629 C3633 1.495 . S
C3630 C3629 1.392 . S
C3630 C3631 1.385 . S
C3630 C3632 1.478 . S
C3631 H3625 0.930 . S
C3631 C3627 1.400 . S
C3631 C3630 1.385 . S
C3632 C3630 1.478 . S
C3632 C3634 1.381 . S
C3632 C3638 1.383 . S
C3633 C3629 1.495 . S
C3633 H3639 0.959 . S
C3633 H3640 0.961 . S
C3633 H3641 0.960 . S
C3634 C3632 1.381 . S
C3634 C3635 1.394 . S
C3634 H3642 0.930 . S
C3635 C3634 1.394 . S
C3635 C3636 1.383 . S
C3635 H3643 0.929 . S
C3636 C3635 1.383 . S
C3636 C3637 1.377 . S
C3637 H3621 0.930 . S
C3637 C3636 1.377 . S
C3637 C3638 1.379 . S
C3638 H3622 0.931 . S
C3638 C3632 1.383 . S
C3638 C3637 1.379 . S
H3639 C3633 0.959 . S
H3640 C3633 0.961 . S
H3641 C3633 0.960 . S
H3642 C3634 0.930 . S
H3643 C3635 0.929 . S
H3644 C3652 0.929 . S
H3645 C3654 0.930 . S
H3646 C3656 0.930 . S
H3647 C3659 0.929 . S
H3648 C3662 0.930 . S
H3649 C3664 0.960 . S
H3650 C3664 0.960 . S
H3651 C3664 0.960 . S
C3652 H3644 0.929 . S
C3652 C3653 1.377 . S
C3652 C3654 1.384 . S
C3653 C3652 1.377 . S
C3653 C3659 1.390 . S
C3654 H3645 0.930 . S
C3654 C3652 1.384 . S
C3654 C3655 1.372 . S
C3655 C3654 1.372 . S
C3655 C3656 1.400 . S
C3655 C3660 1.490 . S
C3656 H3646 0.930 . S
C3656 C3655 1.400 . S
C3656 C3659 1.386 . S
H3657 C3673 0.930 . S
H3658 C3674 0.931 . S
C3659 H3647 0.929 . S
C3659 C3653 1.390 . S
C3659 C3656 1.386 . S
C3660 C3655 1.490 . S
C3660 C3662 1.395 . S
C3660 C3663 1.403 . S
H3661 C3667 0.930 . S
C3662 H3648 0.930 . S
C3662 C3660 1.395 . S
C3662 C3665 1.403 . S
C3663 C3660 1.403 . S
C3663 C3664 1.524 . S
C3663 C3667 1.400 . S
C3664 H3649 0.960 . S
C3664 H3650 0.960 . S
C3664 H3651 0.960 . S
C3664 C3663 1.524 . S
C3665 C3662 1.403 . S
C3665 C3666 1.392 . S
C3665 C3669 1.495 . S
C3666 C3665 1.392 . S
C3666 C3667 1.385 . S
C3666 C3668 1.478 . S
C3667 H3661 0.930 . S
C3667 C3663 1.400 . S
C3667 C3666 1.385 . S
C3668 C3666 1.478 . S
C3668 C3670 1.381 . S
C3668 C3674 1.383 . S
C3669 C3665 1.495 . S
C3669 H3675 0.959 . S
C3669 H3676 0.961 . S
C3669 H3677 0.960 . S
C3670 C3668 1.381 . S
C3670 C3671 1.394 . S
C3670 H3678 0.930 . S
C3671 C3670 1.394 . S
C3671 C3672 1.383 . S
C3671 H3679 0.929 . S
C3672 C3671 1.383 . S
C3672 C3673 1.377 . S
C3673 H3657 0.930 . S
C3673 C3672 1.377 . S
C3673 C3674 1.379 . S
C3674 H3658 0.931 . S
C3674 C3668 1.383 . S
C3674 C3673 1.379 . S
H3675 C3669 0.959 . S
H3676 C3669 0.961 . S
H3677 C3669 0.960 . S
H3678 C3670 0.930 . S
H3679 C3671 0.929 . S
H3680 C3688 0.929 . S
H3681 C3690 0.930 . S
H3682 C3692 0.930 . S
H3683 C3695 0.929 . S
H3684 C3698 0.930 . S
H3685 C3700 0.960 . S
H3686 C3700 0.960 . S
H3687 C3700 0.960 . S
C3688 H3680 0.929 . S
C3688 C3689 1.377 . S
C3688 C3690 1.384 . S
C3689 C3688 1.377 . S
C3689 C3695 1.390 . S
C3690 H3681 0.930 . S
C3690 C3688 1.384 . S
C3690 C3691 1.372 . S
C3691 C3690 1.372 . S
C3691 C3692 1.400 . S
C3691 C3696 1.490 . S
C3692 H3682 0.930 . S
C3692 C3691 1.400 . S
C3692 C3695 1.386 . S
H3693 C3709 0.930 . S
H3694 C3710 0.931 . S
C3695 H3683 0.929 . S
C3695 C3689 1.390 . S
C3695 C3692 1.386 . S
C3696 C3691 1.490 . S
C3696 C3698 1.395 . S
C3696 C3699 1.403 . S
H3697 C3703 0.930 . S
C3698 H3684 0.930 . S
C3698 C3696 1.395 . S
C3698 C3701 1.403 . S
C3699 C3696 1.403 . S
C3699 C3700 1.524 . S
C3699 C3703 1.400 . S
C3700 H3685 0.960 . S
C3700 H3686 0.960 . S
C3700 H3687 0.960 . S
C3700 C3699 1.524 . S
C3701 C3698 1.403 . S
C3701 C3702 1.392 . S
C3701 C3705 1.495 . S
C3702 C3701 1.392 . S
C3702 C3703 1.385 . S
C3702 C3704 1.478 . S
C3703 H3697 0.930 . S
C3703 C3699 1.400 . S
C3703 C3702 1.385 . S
C3704 C3702 1.478 . S
C3704 C3706 1.381 . S
C3704 C3710 1.383 . S
C3705 C3701 1.495 . S
C3705 H3711 0.959 . S
C3705 H3712 0.961 . S
C3705 H3713 0.960 . S
C3706 C3704 1.381 . S
C3706 C3707 1.394 . S
C3706 H3714 0.930 . S
C3707 C3706 1.394 . S
C3707 C3708 1.383 . S
C3707 H3715 0.929 . S
C3708 C3707 1.383 . S
C3708 C3709 1.377 . S
C3709 H3693 0.930 . S
C3709 C3708 1.377 . S
C3709 C3710 1.379 . S
C3710 H3694 0.931 . S
C3710 C3704 1.383 . S
C3710 C3709 1.379 . S
H3711 C3705 0.959 . S
H3712 C3705 0.961 . S
H3713 C3705 0.960 . S
H3714 C3706 0.930 . S
H3715 C3707 0.929 . S
H3716 C3724 0.929 . S
H3717 C3726 0.930 . S
H3718 C3728 0.930 . S
H3719 C3731 0.929 . S
H3720 C3734 0.930 . S
H3721 C3736 0.960 . S
H3722 C3736 0.960 . S
H3723 C3736 0.960 . S
C3724 H3716 0.929 . S
C3724 C3725 1.377 . S
C3724 C3726 1.384 . S
C3725 C3724 1.377 . S
C3725 C3731 1.390 . S
C3726 H3717 0.930 . S
C3726 C3724 1.384 . S
C3726 C3727 1.372 . S
C3727 C3726 1.372 . S
C3727 C3728 1.400 . S
C3727 C3732 1.490 . S
C3728 H3718 0.930 . S
C3728 C3727 1.400 . S
C3728 C3731 1.386 . S
H3729 C3745 0.930 . S
H3730 C3746 0.931 . S
C3731 H3719 0.929 . S
C3731 C3725 1.390 . S
C3731 C3728 1.386 . S
C3732 C3727 1.490 . S
C3732 C3734 1.395 . S
C3732 C3735 1.403 . S
H3733 C3739 0.930 . S
C3734 H3720 0.930 . S
C3734 C3732 1.395 . S
C3734 C3737 1.403 . S
C3735 C3732 1.403 . S
C3735 C3736 1.524 . S
C3735 C3739 1.400 . S
C3736 H3721 0.960 . S
C3736 H3722 0.960 . S
C3736 H3723 0.960 . S
C3736 C3735 1.524 . S
C3737 C3734 1.403 . S
C3737 C3738 1.392 . S
C3737 C3741 1.495 . S
C3738 C3737 1.392 . S
C3738 C3739 1.385 . S
C3738 C3740 1.478 . S
C3739 H3733 0.930 . S
C3739 C3735 1.400 . S
C3739 C3738 1.385 . S
C3740 C3738 1.478 . S
C3740 C3742 1.381 . S
C3740 C3746 1.383 . S
C3741 C3737 1.495 . S
C3741 H3747 0.959 . S
C3741 H3748 0.961 . S
C3741 H3749 0.960 . S
C3742 C3740 1.381 . S
C3742 C3743 1.394 . S
C3742 H3750 0.930 . S
C3743 C3742 1.394 . S
C3743 C3744 1.383 . S
C3743 H3751 0.929 . S
C3744 C3743 1.383 . S
C3744 C3745 1.377 . S
C3745 H3729 0.930 . S
C3745 C3744 1.377 . S
C3745 C3746 1.379 . S
C3746 H3730 0.931 . S
C3746 C3740 1.383 . S
C3746 C3745 1.379 . S
H3747 C3741 0.959 . S
H3748 C3741 0.961 . S
H3749 C3741 0.960 . S
H3750 C3742 0.930 . S
H3751 C3743 0.929 . S
H3752 C3760 0.929 . S
H3753 C3762 0.930 . S
H3754 C3764 0.930 . S
H3755 C3767 0.929 . S
H3756 C3770 0.930 . S
H3757 C3772 0.960 . S
H3758 C3772 0.960 . S
H3759 C3772 0.960 . S
C3760 H3752 0.929 . S
C3760 C3761 1.377 . S
C3760 C3762 1.384 . S
C3761 C3760 1.377 . S
C3761 C3767 1.390 . S
C3762 H3753 0.930 . S
C3762 C3760 1.384 . S
C3762 C3763 1.372 . S
C3763 C3762 1.372 . S
C3763 C3764 1.400 . S
C3763 C3768 1.490 . S
C3764 H3754 0.930 . S
C3764 C3763 1.400 . S
C3764 C3767 1.386 . S
H3765 C3781 0.930 . S
H3766 C3782 0.931 . S
C3767 H3755 0.929 . S
C3767 C3761 1.390 . S
C3767 C3764 1.386 . S
C3768 C3763 1.490 . S
C3768 C3770 1.395 . S
C3768 C3771 1.403 . S
H3769 C3775 0.930 . S
C3770 H3756 0.930 . S
C3770 C3768 1.395 . S
C3770 C3773 1.403 . S
C3771 C3768 1.403 . S
C3771 C3772 1.524 . S
C3771 C3775 1.400 . S
C3772 H3757 0.960 . S
C3772 H3758 0.960 . S
C3772 H3759 0.960 . S
C3772 C3771 1.524 . S
C3773 C3770 1.403 . S
C3773 C3774 1.392 . S
C3773 C3777 1.495 . S
C3774 C3773 1.392 . S
C3774 C3775 1.385 . S
C3774 C3776 1.478 . S
C3775 H3769 0.930 . S
C3775 C3771 1.400 . S
C3775 C3774 1.385 . S
C3776 C3774 1.478 . S
C3776 C3778 1.381 . S
C3776 C3782 1.383 . S
C3777 C3773 1.495 . S
C3777 H3783 0.959 . S
C3777 H3784 0.961 . S
C3777 H3785 0.960 . S
C3778 C3776 1.381 . S
C3778 C3779 1.394 . S
C3778 H3786 0.930 . S
C3779 C3778 1.394 . S
C3779 C3780 1.383 . S
C3779 H3787 0.929 . S
C3780 C3779 1.383 . S
C3780 C3781 1.377 . S
C3781 H3765 0.930 . S
C3781 C3780 1.377 . S
C3781 C3782 1.379 . S
C3782 H3766 0.931 . S
C3782 C3776 1.383 . S
C3782 C3781 1.379 . S
H3783 C3777 0.959 . S
H3784 C3777 0.961 . S
H3785 C3777 0.960 . S
H3786 C3778 0.930 . S
H3787 C3779 0.929 . S
H3788 C3796 0.929 . S
H3789 C3798 0.930 . S
H3790 C3800 0.930 . S
H3791 C3803 0.929 . S
H3792 C3806 0.930 . S
H3793 C3808 0.960 . S
H3794 C3808 0.960 . S
H3795 C3808 0.960 . S
C3796 H3788 0.929 . S
C3796 C3797 1.377 . S
C3796 C3798 1.384 . S
C3797 C3796 1.377 . S
C3797 C3803 1.390 . S
C3798 H3789 0.930 . S
C3798 C3796 1.384 . S
C3798 C3799 1.372 . S
C3799 C3798 1.372 . S
C3799 C3800 1.400 . S
C3799 C3804 1.490 . S
C3800 H3790 0.930 . S
C3800 C3799 1.400 . S
C3800 C3803 1.386 . S
H3801 C3817 0.930 . S
H3802 C3818 0.931 . S
C3803 H3791 0.929 . S
C3803 C3797 1.390 . S
C3803 C3800 1.386 . S
C3804 C3799 1.490 . S
C3804 C3806 1.395 . S
C3804 C3807 1.403 . S
H3805 C3811 0.930 . S
C3806 H3792 0.930 . S
C3806 C3804 1.395 . S
C3806 C3809 1.403 . S
C3807 C3804 1.403 . S
C3807 C3808 1.524 . S
C3807 C3811 1.400 . S
C3808 H3793 0.960 . S
C3808 H3794 0.960 . S
C3808 H3795 0.960 . S
C3808 C3807 1.524 . S
C3809 C3806 1.403 . S
C3809 C3810 1.392 . S
C3809 C3813 1.495 . S
C3810 C3809 1.392 . S
C3810 C3811 1.385 . S
C3810 C3812 1.478 . S
C3811 H3805 0.930 . S
C3811 C3807 1.400 . S
C3811 C3810 1.385 . S
C3812 C3810 1.478 . S
C3812 C3814 1.381 . S
C3812 C3818 1.383 . S
C3813 C3809 1.495 . S
C3813 H3819 0.959 . S
C3813 H3820 0.961 . S
C3813 H3821 0.960 . S
C3814 C3812 1.381 . S
C3814 C3815 1.394 . S
C3814 H3822 0.930 . S
C3815 C3814 1.394 . S
C3815 C3816 1.383 . S
C3815 H3823 0.929 . S
C3816 C3815 1.383 . S
C3816 C3817 1.377 . S
C3817 H3801 0.930 . S
C3817 C3816 1.377 . S
C3817 C3818 1.379 . S
C3818 H3802 0.931 . S
C3818 C3812 1.383 . S
C3818 C3817 1.379 . S
H3819 C3813 0.959 . S
H3820 C3813 0.961 . S
H3821 C3813 0.960 . S
H3822 C3814 0.930 . S
H3823 C3815 0.929 . S
H3824 C3832 0.929 . S
H3825 C3834 0.930 . S
H3826 C3836 0.930 . S
H3827 C3839 0.929 . S
H3828 C3842 0.930 . S
H3829 C3844 0.960 . S
H3830 C3844 0.960 . S
H3831 C3844 0.960 . S
C3832 H3824 0.929 . S
C3832 C3833 1.377 . S
C3832 C3834 1.384 . S
C3833 C3832 1.377 . S
C3833 C3839 1.390 . S
C3834 H3825 0.930 . S
C3834 C3832 1.384 . S
C3834 C3835 1.372 . S
C3835 C3834 1.372 . S
C3835 C3836 1.400 . S
C3835 C3840 1.490 . S
C3836 H3826 0.930 . S
C3836 C3835 1.400 . S
C3836 C3839 1.386 . S
H3837 C3853 0.930 . S
H3838 C3854 0.931 . S
C3839 H3827 0.929 . S
C3839 C3833 1.390 . S
C3839 C3836 1.386 . S
C3840 C3835 1.490 . S
C3840 C3842 1.395 . S
C3840 C3843 1.403 . S
H3841 C3847 0.930 . S
C3842 H3828 0.930 . S
C3842 C3840 1.395 . S
C3842 C3845 1.403 . S
C3843 C3840 1.403 . S
C3843 C3844 1.524 . S
C3843 C3847 1.400 . S
C3844 H3829 0.960 . S
C3844 H3830 0.960 . S
C3844 H3831 0.960 . S
C3844 C3843 1.524 . S
C3845 C3842 1.403 . S
C3845 C3846 1.392 . S
C3845 C3849 1.495 . S
C3846 C3845 1.392 . S
C3846 C3847 1.385 . S
C3846 C3848 1.478 . S
C3847 H3841 0.930 . S
C3847 C3843 1.400 . S
C3847 C3846 1.385 . S
C3848 C3846 1.478 . S
C3848 C3850 1.381 . S
C3848 C3854 1.383 . S
C3849 C3845 1.495 . S
C3849 H3855 0.959 . S
C3849 H3856 0.961 . S
C3849 H3857 0.960 . S
C3850 C3848 1.381 . S
C3850 C3851 1.394 . S
C3850 H3858 0.930 . S
C3851 C3850 1.394 . S
C3851 C3852 1.383 . S
C3851 H3859 0.929 . S
C3852 C3851 1.383 . S
C3852 C3853 1.377 . S
C3853 H3837 0.930 . S
C3853 C3852 1.377 . S
C3853 C3854 1.379 . S
C3854 H3838 0.931 . S
C3854 C3848 1.383 . S
C3854 C3853 1.379 . S
H3855 C3849 0.959 . S
H3856 C3849 0.961 . S
H3857 C3849 0.960 . S
H3858 C3850 0.930 . S
H3859 C3851 0.929 . S
H3860 C3868 0.929 . S
H3861 C3870 0.930 . S
H3862 C3872 0.930 . S
H3863 C3875 0.929 . S
H3864 C3878 0.930 . S
H3865 C3880 0.960 . S
H3866 C3880 0.960 . S
H3867 C3880 0.960 . S
C3868 H3860 0.929 . S
C3868 C3869 1.377 . S
C3868 C3870 1.384 . S
C3869 C3868 1.377 . S
C3869 C3875 1.390 . S
C3870 H3861 0.930 . S
C3870 C3868 1.384 . S
C3870 C3871 1.372 . S
C3871 C3870 1.372 . S
C3871 C3872 1.400 . S
C3871 C3876 1.490 . S
C3872 H3862 0.930 . S
C3872 C3871 1.400 . S
C3872 C3875 1.386 . S
H3873 C3889 0.930 . S
H3874 C3890 0.931 . S
C3875 H3863 0.929 . S
C3875 C3869 1.390 . S
C3875 C3872 1.386 . S
C3876 C3871 1.490 . S
C3876 C3878 1.395 . S
C3876 C3879 1.403 . S
H3877 C3883 0.930 . S
C3878 H3864 0.930 . S
C3878 C3876 1.395 . S
C3878 C3881 1.403 1_455 S
C3879 C3876 1.403 . S
C3879 C3880 1.524 . S
C3879 C3883 1.400 1_455 S
C3880 H3865 0.960 . S
C3880 H3866 0.960 . S
C3880 H3867 0.960 . S
C3880 C3879 1.524 . S
C3881 C3878 1.403 1_655 S
C3881 C3882 1.392 . S
C3881 C3885 1.495 . S
C3882 C3881 1.392 . S
C3882 C3883 1.385 . S
C3882 C3884 1.478 . S
C3883 H3877 0.930 . S
C3883 C3879 1.400 1_655 S
C3883 C3882 1.385 . S
C3884 C3882 1.478 . S
C3884 C3886 1.381 . S
C3884 C3890 1.383 . S
C3885 C3881 1.495 . S
C3885 H3891 0.959 . S
C3885 H3892 0.961 . S
C3885 H3893 0.960 . S
C3886 C3884 1.381 . S
C3886 C3887 1.394 . S
C3886 H3894 0.930 . S
C3887 C3886 1.394 . S
C3887 C3888 1.383 . S
C3887 H3895 0.929 . S
C3888 C3887 1.383 . S
C3888 C3889 1.377 . S
C3889 H3873 0.930 . S
C3889 C3888 1.377 . S
C3889 C3890 1.379 . S
C3890 H3874 0.931 . S
C3890 C3884 1.383 . S
C3890 C3889 1.379 . S
H3891 C3885 0.959 . S
H3892 C3885 0.961 . S
H3893 C3885 0.960 . S
H3894 C3886 0.930 . S
H3895 C3887 0.929 . S
H3896 C3904 0.929 . S
H3897 C3906 0.930 . S
H3898 C3908 0.930 . S
H3899 C3911 0.929 . S
H3900 C3914 0.930 . S
H3901 C3916 0.960 . S
H3902 C3916 0.960 . S
H3903 C3916 0.960 . S
C3904 H3896 0.929 . S
C3904 C3905 1.377 . S
C3904 C3906 1.384 . S
C3905 C3904 1.377 . S
C3905 C3911 1.390 . S
C3906 H3897 0.930 . S
C3906 C3904 1.384 . S
C3906 C3907 1.372 . S
C3907 C3906 1.372 . S
C3907 C3908 1.400 . S
C3907 C3912 1.490 . S
C3908 H3898 0.930 . S
C3908 C3907 1.400 . S
C3908 C3911 1.386 . S
H3909 C3925 0.930 . S
H3910 C3926 0.931 . S
C3911 H3899 0.929 . S
C3911 C3905 1.390 . S
C3911 C3908 1.386 . S
C3912 C3907 1.490 . S
C3912 C3914 1.395 . S
C3912 C3915 1.403 . S
H3913 C3919 0.930 . S
C3914 H3900 0.930 . S
C3914 C3912 1.395 . S
C3914 C3917 1.403 . S
C3915 C3912 1.403 . S
C3915 C3916 1.524 . S
C3915 C3919 1.400 . S
C3916 H3901 0.960 . S
C3916 H3902 0.960 . S
C3916 H3903 0.960 . S
C3916 C3915 1.524 . S
C3917 C3914 1.403 . S
C3917 C3918 1.392 . S
C3917 C3921 1.495 . S
C3918 C3917 1.392 . S
C3918 C3919 1.385 . S
C3918 C3920 1.478 . S
C3919 H3913 0.930 . S
C3919 C3915 1.400 . S
C3919 C3918 1.385 . S
C3920 C3918 1.478 . S
C3920 C3922 1.381 . S
C3920 C3926 1.383 . S
C3921 C3917 1.495 . S
C3921 H3927 0.959 . S
C3921 H3928 0.961 . S
C3921 H3929 0.960 . S
C3922 C3920 1.381 . S
C3922 C3923 1.394 . S
C3922 H3930 0.930 . S
C3923 C3922 1.394 . S
C3923 C3924 1.383 . S
C3923 H3931 0.929 . S
C3924 C3923 1.383 . S
C3924 C3925 1.377 . S
C3925 H3909 0.930 . S
C3925 C3924 1.377 . S
C3925 C3926 1.379 . S
C3926 H3910 0.931 . S
C3926 C3920 1.383 . S
C3926 C3925 1.379 . S
H3927 C3921 0.959 . S
H3928 C3921 0.961 . S
H3929 C3921 0.960 . S
H3930 C3922 0.930 . S
H3931 C3923 0.929 . S
H3932 C3940 0.929 . S
H3933 C3942 0.930 . S
H3934 C3944 0.930 . S
H3935 C3947 0.929 . S
H3936 C3950 0.930 . S
H3937 C3952 0.960 . S
H3938 C3952 0.960 . S
H3939 C3952 0.960 . S
C3940 H3932 0.929 . S
C3940 C3941 1.377 . S
C3940 C3942 1.384 . S
C3941 C3940 1.377 . S
C3941 C3947 1.390 . S
C3942 H3933 0.930 . S
C3942 C3940 1.384 . S
C3942 C3943 1.372 . S
C3943 C3942 1.372 . S
C3943 C3944 1.400 . S
C3943 C3948 1.490 . S
C3944 H3934 0.930 . S
C3944 C3943 1.400 . S
C3944 C3947 1.386 . S
H3945 C3961 0.930 . S
H3946 C3962 0.931 . S
C3947 H3935 0.929 . S
C3947 C3941 1.390 . S
C3947 C3944 1.386 . S
C3948 C3943 1.490 . S
C3948 C3950 1.395 . S
C3948 C3951 1.403 . S
H3949 C3955 0.930 . S
C3950 H3936 0.930 . S
C3950 C3948 1.395 . S
C3950 C3953 1.403 1_455 S
C3951 C3948 1.403 . S
C3951 C3952 1.524 . S
C3951 C3955 1.400 1_455 S
C3952 H3937 0.960 . S
C3952 H3938 0.960 . S
C3952 H3939 0.960 . S
C3952 C3951 1.524 . S
C3953 C3950 1.403 1_655 S
C3953 C3954 1.392 . S
C3953 C3957 1.495 . S
C3954 C3953 1.392 . S
C3954 C3955 1.385 . S
C3954 C3956 1.478 . S
C3955 H3949 0.930 . S
C3955 C3951 1.400 1_655 S
C3955 C3954 1.385 . S
C3956 C3954 1.478 . S
C3956 C3958 1.381 . S
C3956 C3962 1.383 . S
C3957 C3953 1.495 . S
C3957 H3963 0.959 . S
C3957 H3964 0.961 . S
C3957 H3965 0.960 . S
C3958 C3956 1.381 . S
C3958 C3959 1.394 . S
C3958 H3966 0.930 . S
C3959 C3958 1.394 . S
C3959 C3960 1.383 . S
C3959 H3967 0.929 . S
C3960 C3959 1.383 . S
C3960 C3961 1.377 . S
C3961 H3945 0.930 . S
C3961 C3960 1.377 . S
C3961 C3962 1.379 . S
C3962 H3946 0.931 . S
C3962 C3956 1.383 . S
C3962 C3961 1.379 . S
H3963 C3957 0.959 . S
H3964 C3957 0.961 . S
H3965 C3957 0.960 . S
H3966 C3958 0.930 . S
H3967 C3959 0.929 . S
C1097 C5 1.414 . S
C1116 C9 1.340 . S
C1133 C43 1.346 . S
C1152 C39 1.407 . S
C1169 C77 1.347 . S
C1188 C73 1.413 . S
C1205 C111 1.350 . S
C1224 C107 1.406 . S
C1241 C145 1.344 . S
C1260 C141 1.411 . S
C1277 C179 1.351 . S
C1296 C175 1.414 . S
C1313 C209 1.413 . S
C1332 C213 1.379 . S
C1349 C243 1.414 . S
C1368 C247 1.331 . S
C1385 C277 1.413 . S
C1404 C281 1.378 . S
C1421 C311 1.414 . S
C1440 C315 1.373 . S
C1457 C345 1.412 . S
C1476 C349 1.316 . S
C1493 C383 1.345 . S
C1512 C379 1.408 . S
C1529 C413 1.414 . S
C1548 C417 1.377 . S
C1565 C447 1.413 . S
C1584 C451 1.332 . S
C1601 C485 1.346 . S
C1620 C481 1.406 . S
C1637 C515 1.413 . S
C1656 C519 1.326 . S
C1673 C553 1.345 . S
C1692 C549 1.407 . S
C1709 C587 1.357 . S
C1728 C583 1.409 . S
C1745 C621 1.352 . S
C1764 C617 1.406 . S
C1781 C655 1.347 . S
C1800 C651 1.413 . S
C1817 C689 1.345 . S
C1836 C685 1.408 . S
C1853 C723 1.356 . S
C1872 C719 1.407 . S
C1889 C757 1.348 . S
C1908 C753 1.414 . S
C1925 C787 1.414 . S
C1944 C791 1.351 . S
C1961 C825 1.355 . S
C1980 C821 1.414 . S
C1997 C859 1.344 . S
C2016 C855 1.406 . S
C2033 C893 1.352 . S
C2052 C889 1.408 . S
C2069 C923 1.414 . S
C2088 C927 1.380 . S
C2105 C957 1.414 . S
C2124 C961 1.374 . S
C2141 C991 1.413 . S
C2160 C995 1.359 . S
C2177 C1029 1.344 . S
C2196 C1025 1.407 . S
C2213 C1059 1.414 . S
C2232 C1063 1.373 . S
C2249 C802 1.473 . S
C2268 C20 1.459 . S
C2285 C700 1.474 . S
C2304 C54 1.459 . S
C2321 C734 1.473 . S
C2340 C88 1.461 . S
C2357 C768 1.473 . S
C2376 C122 1.460 . S
C2393 C598 1.473 . S
C2412 C156 1.459 . S
C2429 C632 1.471 . S
C2448 C190 1.480 . S
C2465 C666 1.473 . S
C2484 C224 1.461 . S
C2501 C564 1.475 . S
C2520 C258 1.459 . S
C2537 C1074 1.472 . S
C2556 C292 1.462 . S
C2573 C972 1.472 . S
C2592 C326 1.481 . S
C2609 C360 1.473 . S
C2628 C1006 1.458 . S
C2645 C394 1.471 . S
C2664 C1040 1.474 . S
C2681 C428 1.474 . S
C2700 C870 1.475 . S
C2717 C462 1.472 . S
C2736 C904 1.461 . S
C2753 C496 1.473 . S
C2772 C938 1.480 . S
C2789 C836 1.472 . S
C2808 C530 1.462 . S
C2825 C169 1.137 . S
C2844 C33 1.126 . S
C2861 C67 1.138 . S
C2880 C203 1.122 . S
C2897 C237 1.136 . S
C2916 C101 1.130 . S
C2933 C135 1.133 . S
C2952 C271 1.146 . S
C2969 C305 1.137 . S
C2988 C441 1.145 . S
C3005 C475 1.135 . S
C3024 C339 1.143 . S
C3041 C509 1.135 . S
C3060 C373 1.121 . S
C3077 C543 1.138 . S
C3096 C407 1.134 . S
C3113 C713 1.133 . S
C3132 C577 1.145 . S
C3149 C611 1.135 . S
C3168 C747 1.141 . S
C3185 C645 1.133 . S
C3204 C781 1.146 . S
C3221 C679 1.137 . S
C3240 C815 1.129 . S
C3257 C985 1.138 . S
C3276 C849 1.143 . S
C3293 C1019 1.133 . S
C3312 C883 1.133 . S
C3329 C1053 1.135 . S
C3348 C917 1.121 . S
C3365 C951 1.134 . S
C3384 C1087 1.142 . S
C3401 C2 1.753 . S
C3420 C410 1.752 . S
C3437 C988 1.753 . S
C3456 C36 1.749 . S
C3473 C70 1.753 . S
C3492 C478 1.752 . S
C3509 C1056 1.754 . S
C3528 C104 1.751 . S
C3545 C274 1.754 . S
C3564 C138 1.747 . S
C3581 C172 1.754 . S
C3600 C852 1.750 . S
C3617 C206 1.754 . S
C3636 C342 1.747 . S
C3653 C240 1.753 . S
C3672 C920 1.749 . S
C3689 C716 1.753 . S
C3708 C308 1.752 . S
C3725 C784 1.754 . S
C3744 C376 1.747 . S
C3761 C580 1.753 . S
C3780 C444 1.751 . S
C3797 C648 1.753 . S
C3816 C512 1.752 . S
C3833 C546 1.753 . S
C3852 C954 1.751 . S
C3869 C1022 1.753 . S
C3888 C614 1.751 . S
C3905 C682 1.754 . S
C3924 C818 1.750 . S
C3941 C886 1.754 . S
C3960 C750 1.750 . S
