# Generated by pormake.
# Topology uog, (4)-cn, num edge types: 1
# Building blocks:
#     Node 0, Type 0, BuildingBlock: ICAMEG_clean_sbu_1, # of connection points: 4
#     Node 1, Type 0, BuildingBlock: ICAMEG_clean_sbu_1, # of connection points: 4
#     Node 2, Type 0, BuildingBlock: ICAMEG_clean_sbu_1, # of connection points: 4
#     Node 3, Type 0, BuildingBlock: ICAMEG_clean_sbu_1, # of connection points: 4
#     Node 4, Type 0, BuildingBlock: ICAMEG_clean_sbu_1, # of connection points: 4
#     Node 5, Type 0, BuildingBlock: ICAMEG_clean_sbu_1, # of connection points: 4
#     Edge 6, Type (0, 0), BuildingBlock: OJICUG_clean_linker_0, # of connection points: 2
#     Edge 7, Type (0, 0), BuildingBlock: OJICUG_clean_linker_0, # of connection points: 2
#     Edge 8, Type (0, 0), BuildingBlock: OJICUG_clean_linker_0, # of connection points: 2
#     Edge 9, Type (0, 0), BuildingBlock: OJICUG_clean_linker_0, # of connection points: 2
#     Edge 10, Type (0, 0), BuildingBlock: OJICUG_clean_linker_0, # of connection points: 2
#     Edge 11, Type (0, 0), BuildingBlock: OJICUG_clean_linker_0, # of connection points: 2
#     Edge 12, Type (0, 0), BuildingBlock: OJICUG_clean_linker_0, # of connection points: 2
#     Edge 13, Type (0, 0), BuildingBlock: OJICUG_clean_linker_0, # of connection points: 2
#     Edge 14, Type (0, 0), BuildingBlock: OJICUG_clean_linker_0, # of connection points: 2
#     Edge 15, Type (0, 0), BuildingBlock: OJICUG_clean_linker_0, # of connection points: 2
#     Edge 16, Type (0, 0), BuildingBlock: OJICUG_clean_linker_0, # of connection points: 2
#     Edge 17, Type (0, 0), BuildingBlock: OJICUG_clean_linker_0, # of connection points: 2
# Relax obj value: 0.060
# Max RMSD: 0.119
# Mean RMSD: 0.119
data_MOF--net-uog--node1-ICAMEG_clean_sbu_1--edge1-OJICUG_clean_linker_0
_symmetry_space_group_name_H-M    P1
_symmetry_Int_Tables_number       1
_symmetry_cell_setting            triclinic
loop_
_symmetry_equiv_pos_as_xyz
'x, y, z'
_cell_length_a     22.449155
_cell_length_b     22.447982
_cell_length_c     33.552433
_cell_angle_alpha  90.000845
_cell_angle_beta   90.006382
_cell_angle_gamma 120.00331
loop_
_atom_site_label
_atom_site_type_symbol
_atom_site_fract_x
_atom_site_fract_y
_atom_site_fract_z
_atom_type_partial_charge
Co0 Co 0.65884 0.37062 0.16283 0.0
Co1 Co 0.5004 0.253 0.19926 0.0
O2 O 0.57717 0.27935 0.16278 0.0
C3 C 0.61551 0.34348 0.07809 0.0
O4 O 0.55358 0.32869 0.08936 0.0
C5 C 0.53602 0.14406 0.2082 0.0
O6 O 0.59995 0.19365 0.21261 0.0
O7 O 0.56397 0.28225 0.2453 0.0
O8 O 0.65656 0.37784 0.22267 0.0
H9 H 0.37942 0.28415 0.31649 0.0
H10 H 0.66318 0.25482 0.12299 0.0
O11 O 0.66399 0.36423 0.10353 0.0
H12 H 0.84625 0.33981 0.22462 0.0
H13 H 0.89452 0.55003 0.11621 0.0
H14 H 0.69922 0.50234 0.20384 0.0
H15 H 0.77578 0.39494 0.21591 0.0
H16 H 0.79172 0.43425 0.11843 0.0
O17 O 0.48845 0.15848 0.20277 0.0
H18 H 0.47489 0.31844 0.26891 0.0
H19 H 0.36301 0.12709 0.20879 0.0
H20 H 0.80123 0.61874 0.20279 0.0
H21 H 0.73296 0.1987 0.13043 0.0
H22 H 0.89982 0.64314 0.15874 0.0
H23 H 0.82513 0.24103 0.18164 0.0
O24 O 0.60034 0.41362 0.15673 0.0
H25 H 0.40496 0.13339 0.06867 0.0
H26 H 0.38768 0.27821 0.17338 0.0
H27 H 0.3111 0.24522 0.11488 0.0
H28 H 0.31941 0.1722 0.06204 0.0
H29 H 0.48098 0.16812 0.1275 0.0
H30 H 0.26648 0.09049 0.2559 0.0
H31 H 0.27428 0.16941 0.31014 0.0
O32 O 0.51069 0.34705 0.19653 0.0
C33 C 0.62191 0.33648 0.2508 0.0
C34 C 0.3753 0.24942 0.29289 0.0
C35 C 0.31195 0.14068 0.25891 0.0
N36 N 0.42421 0.22508 0.2359 0.0
C37 C 0.42909 0.26864 0.26579 0.0
C38 C 0.36679 0.16163 0.23237 0.0
C39 C 0.31635 0.185 0.28933 0.0
C40 C 0.70365 0.27404 0.14506 0.0
N41 N 0.71549 0.32828 0.16887 0.0
C42 C 0.7428 0.24183 0.14926 0.0
C43 C 0.79442 0.26553 0.17804 0.0
C44 C 0.80625 0.32091 0.20219 0.0
C45 C 0.76602 0.35179 0.19719 0.0
C46 C 0.85195 0.54 0.13558 0.0
C47 C 0.7421 0.51251 0.18477 0.0
C48 C 0.79356 0.47459 0.1369 0.0
N49 N 0.7398 0.46149 0.16148 0.0
C50 C 0.79963 0.57854 0.18422 0.0
C51 C 0.8549 0.59221 0.15947 0.0
C52 C 0.54631 0.40133 0.17589 0.0
C53 C 0.40069 0.16503 0.09156 0.0
C54 C 0.39174 0.24657 0.15046 0.0
C55 C 0.34813 0.22793 0.11745 0.0
C56 C 0.35278 0.18692 0.08782 0.0
N57 N 0.43855 0.22484 0.15392 0.0
C58 C 0.44339 0.18459 0.12502 0.0
Co59 Co 0.29136 0.65864 0.49652 0.0
Co60 Co 0.24969 0.49962 0.53246 0.0
O61 O 0.30051 0.57673 0.49627 0.0
C62 C 0.27493 0.61565 0.41179 0.0
O63 O 0.22754 0.55382 0.42305 0.0
C64 C 0.39412 0.53505 0.54173 0.0
O65 O 0.40842 0.59893 0.54635 0.0
O66 O 0.28364 0.56268 0.57876 0.0
O67 O 0.28175 0.65596 0.55632 0.0
H68 H 0.09626 0.37735 0.64902 0.0
H69 H 0.41126 0.66262 0.45659 0.0
O70 O 0.30296 0.66408 0.43724 0.0
H71 H 0.50991 0.84481 0.55872 0.0
H72 H 0.34902 0.89505 0.45053 0.0
H73 H 0.20047 0.69938 0.53772 0.0
H74 H 0.38428 0.77498 0.54986 0.0
H75 H 0.36124 0.79179 0.4524 0.0
O76 O 0.33218 0.48754 0.5361 0.0
H77 H 0.15804 0.47339 0.60185 0.0
H78 H 0.23796 0.36207 0.54159 0.0
H79 H 0.18684 0.80185 0.53701 0.0
H80 H 0.53719 0.73176 0.46418 0.0
H81 H 0.26151 0.90063 0.49319 0.0
H82 H 0.5873 0.82348 0.51564 0.0
O83 O 0.18982 0.6006 0.49035 0.0
H84 H 0.27495 0.40563 0.40162 0.0
H85 H 0.11193 0.38735 0.50598 0.0
H86 H 0.06881 0.31155 0.44714 0.0
H87 H 0.1506 0.32037 0.39447 0.0
H88 H 0.31578 0.48087 0.46079 0.0
H89 H 0.17743 0.26497 0.58827 0.0
H90 H 0.10577 0.27221 0.64238 0.0
O91 O 0.16606 0.51009 0.52961 0.0
C92 C 0.28779 0.6208 0.58439 0.0
C93 C 0.12711 0.37348 0.62548 0.0
C94 C 0.17274 0.31044 0.59141 0.0
N95 N 0.20099 0.42302 0.5688 0.0
C96 C 0.16203 0.4276 0.59861 0.0
C97 C 0.20697 0.3656 0.56511 0.0
C98 C 0.13253 0.31453 0.62176 0.0
C99 C 0.43264 0.7029 0.47877 0.0
N100 N 0.39038 0.71485 0.50264 0.0
C101 C 0.50401 0.74169 0.48305 0.0
C102 C 0.53209 0.79306 0.51198 0.0
C103 C 0.48869 0.80501 0.53619 0.0
C104 C 0.41756 0.76514 0.5311 0.0
C105 C 0.31628 0.8524 0.46981 0.0
C106 C 0.23338 0.74234 0.51874 0.0
C107 C 0.32285 0.79374 0.47093 0.0
N108 N 0.28195 0.73989 0.49539 0.0
C109 C 0.22532 0.80013 0.51839 0.0
C110 C 0.26718 0.8555 0.49376 0.0
C111 C 0.14782 0.54626 0.50918 0.0
C112 C 0.23885 0.40113 0.42444 0.0
C113 C 0.14783 0.39162 0.48315 0.0
C114 C 0.12313 0.34845 0.44994 0.0
C115 C 0.16905 0.35339 0.42041 0.0
N116 N 0.21637 0.43828 0.48689 0.0
C117 C 0.26171 0.44339 0.45809 0.0
Co118 Co 0.63411 0.28942 0.82947 0.0
Co119 Co 0.75168 0.24849 0.86586 0.0
O120 O 0.72536 0.29899 0.82941 0.0
C121 C 0.66128 0.27332 0.74474 0.0
O122 O 0.67596 0.2261 0.756 0.0
C123 C 0.86067 0.39304 0.87484 0.0
O124 O 0.81109 0.40739 0.87927 0.0
O125 O 0.72247 0.28281 0.91192 0.0
O126 O 0.62688 0.27983 0.88931 0.0
H127 H 0.7205 0.0962 0.98302 0.0
H128 H 0.74994 0.40962 0.78969 0.0
O129 O 0.64054 0.30106 0.77017 0.0
H130 H 0.66496 0.50757 0.89139 0.0
H131 H 0.45477 0.34582 0.78289 0.0
H132 H 0.50238 0.19805 0.87045 0.0
H133 H 0.60981 0.38197 0.8826 0.0
H134 H 0.57052 0.35875 0.7851 0.0
O135 O 0.84622 0.33105 0.86939 0.0
H136 H 0.68623 0.15747 0.93548 0.0
H137 H 0.87754 0.23694 0.87535 0.0
H138 H 0.38601 0.1837 0.86941 0.0
H139 H 0.80608 0.53552 0.7972 0.0
H140 H 0.36165 0.25797 0.82539 0.0
H141 H 0.76375 0.58529 0.84844 0.0
O142 O 0.59107 0.18791 0.82332 0.0
H143 H 0.87116 0.27274 0.73523 0.0
H144 H 0.72638 0.11056 0.83991 0.0
H145 H 0.75926 0.067 0.78137 0.0
H146 H 0.83227 0.14836 0.72854 0.0
H147 H 0.83654 0.31401 0.79412 0.0
H148 H 0.91412 0.17691 0.92241 0.0
H149 H 0.8352 0.10574 0.97664 0.0
O150 O 0.65762 0.16477 0.86312 0.0
C151 C 0.66825 0.28651 0.91743 0.0
C152 C 0.75523 0.12683 0.95943 0.0
C153 C 0.86394 0.17221 0.92544 0.0
N154 N 0.77958 0.20015 0.90247 0.0
C155 C 0.73603 0.16146 0.93235 0.0
C156 C 0.843 0.20615 0.89892 0.0
C157 C 0.81963 0.13227 0.95585 0.0
C158 C 0.73072 0.43084 0.81178 0.0
N159 N 0.67647 0.3884 0.83556 0.0
C160 C 0.76294 0.5022 0.81601 0.0
C161 C 0.73924 0.53008 0.84481 0.0
C162 C 0.68386 0.4865 0.86894 0.0
C163 C 0.65296 0.41539 0.8639 0.0
C164 C 0.46479 0.31325 0.80225 0.0
C165 C 0.49223 0.23079 0.8514 0.0
C166 C 0.53017 0.32023 0.80356 0.0
N167 N 0.54326 0.27954 0.82812 0.0
C168 C 0.42622 0.22232 0.85085 0.0
C169 C 0.41256 0.26396 0.82612 0.0
C170 C 0.60335 0.14615 0.84246 0.0
C171 C 0.83954 0.23682 0.75812 0.0
C172 C 0.75801 0.14627 0.817 0.0
C173 C 0.77659 0.12132 0.78396 0.0
C174 C 0.8176 0.16701 0.75435 0.0
N175 N 0.77978 0.21483 0.8205 0.0
C176 C 0.82003 0.25993 0.79161 0.0
Co177 Co 0.346 0.63346 0.16317 0.0
Co178 Co 0.50513 0.7506 0.1991 0.0
O179 O 0.42803 0.72445 0.16291 0.0
C180 C 0.38894 0.66 0.07844 0.0
O181 O 0.45074 0.67432 0.08969 0.0
C182 C 0.46999 0.8598 0.20836 0.0
O183 O 0.40608 0.81028 0.21299 0.0
O184 O 0.44209 0.7216 0.2454 0.0
O185 O 0.3487 0.6265 0.22297 0.0
H186 H 0.62715 0.71914 0.3157 0.0
H187 H 0.34225 0.74953 0.12325 0.0
O188 O 0.34053 0.63965 0.10389 0.0
H189 H 0.16015 0.66627 0.2254 0.0
H190 H 0.10943 0.45502 0.1172 0.0
H191 H 0.30503 0.50176 0.20436 0.0
H192 H 0.22978 0.61027 0.21653 0.0
H193 H 0.21283 0.5704 0.11907 0.0
O194 O 0.51742 0.84526 0.20272 0.0
H195 H 0.53117 0.68504 0.26849 0.0
H196 H 0.64282 0.87625 0.20823 0.0
H197 H 0.20242 0.38575 0.20366 0.0
H198 H 0.2733 0.80651 0.13086 0.0
H199 H 0.10369 0.36183 0.15985 0.0
H200 H 0.18163 0.76506 0.18233 0.0
O201 O 0.40386 0.58978 0.15699 0.0
H202 H 0.59923 0.86969 0.06824 0.0
H203 H 0.61717 0.72479 0.17263 0.0
H204 H 0.69289 0.75725 0.11378 0.0
H205 H 0.68425 0.83031 0.06109 0.0
H206 H 0.52404 0.83548 0.12742 0.0
H207 H 0.73986 0.91265 0.25494 0.0
H208 H 0.73243 0.8337 0.30906 0.0
O209 O 0.49445 0.65641 0.19624 0.0
C210 C 0.38393 0.6677 0.25103 0.0
C211 C 0.63111 0.75388 0.29215 0.0
C212 C 0.69433 0.86253 0.25807 0.0
N213 N 0.5817 0.77835 0.23544 0.0
C214 C 0.57702 0.73478 0.26526 0.0
C215 C 0.6392 0.8417 0.23176 0.0
C216 C 0.69013 0.8182 0.28843 0.0
C217 C 0.30199 0.73068 0.14544 0.0
N218 N 0.28995 0.67644 0.1693 0.0
C219 C 0.26331 0.76338 0.14973 0.0
C220 C 0.21197 0.74017 0.17866 0.0
C221 C 0.19993 0.68479 0.20286 0.0
C222 C 0.23969 0.65341 0.19777 0.0
C223 C 0.15207 0.46484 0.13647 0.0
C224 C 0.26209 0.4918 0.18539 0.0
C225 C 0.2108 0.53002 0.13759 0.0
N226 N 0.26463 0.54287 0.16204 0.0
C227 C 0.20422 0.42599 0.18504 0.0
C228 C 0.14887 0.41259 0.16042 0.0
C229 C 0.45819 0.60204 0.1758 0.0
C230 C 0.60365 0.83805 0.09106 0.0
C231 C 0.61298 0.75646 0.14979 0.0
C232 C 0.6561 0.7748 0.11657 0.0
C233 C 0.65126 0.81583 0.08704 0.0
N234 N 0.56644 0.77849 0.15353 0.0
C235 C 0.56143 0.81877 0.12472 0.0
Co236 Co 0.71564 0.34611 0.49618 0.0
Co237 Co 0.75701 0.50478 0.53252 0.0
O238 O 0.70635 0.42795 0.4961 0.0
C239 C 0.73183 0.38932 0.41143 0.0
O240 O 0.77907 0.45123 0.42266 0.0
C241 C 0.61255 0.46932 0.54161 0.0
O242 O 0.59823 0.40541 0.54607 0.0
O243 O 0.72276 0.44134 0.57863 0.0
O244 O 0.72521 0.34846 0.55602 0.0
H245 H 0.90978 0.626 0.64952 0.0
H246 H 0.59567 0.34212 0.45635 0.0
O247 O 0.70403 0.34088 0.43689 0.0
H248 H 0.49719 0.15931 0.55811 0.0
H249 H 0.65848 0.11008 0.44969 0.0
H250 H 0.80672 0.3054 0.5372 0.0
H251 H 0.62281 0.22939 0.54932 0.0
H252 H 0.64596 0.21315 0.45185 0.0
O253 O 0.67452 0.51687 0.53612 0.0
H254 H 0.84824 0.53038 0.60205 0.0
H255 H 0.76874 0.64229 0.54201 0.0
H256 H 0.82065 0.20312 0.53621 0.0
H257 H 0.46974 0.27273 0.46385 0.0
H258 H 0.74615 0.10452 0.49223 0.0
H259 H 0.41972 0.18071 0.51513 0.0
O260 O 0.81717 0.40434 0.49005 0.0
H261 H 0.73256 0.60001 0.40193 0.0
H262 H 0.89494 0.61725 0.50646 0.0
H263 H 0.93842 0.69363 0.44788 0.0
H264 H 0.85696 0.68534 0.39513 0.0
H265 H 0.69137 0.52417 0.46084 0.0
H266 H 0.82904 0.73897 0.589 0.0
H267 H 0.90036 0.73123 0.64314 0.0
O268 O 0.84063 0.49429 0.52972 0.0
C269 C 0.7188 0.38329 0.58414 0.0
C270 C 0.87908 0.63009 0.62596 0.0
C271 C 0.83368 0.69346 0.59202 0.0
N272 N 0.80552 0.58107 0.56909 0.0
C273 C 0.8443 0.57621 0.59893 0.0
C274 C 0.79959 0.63853 0.56555 0.0
C275 C 0.87371 0.68909 0.62239 0.0
C276 C 0.57433 0.30171 0.47845 0.0
N277 N 0.61663 0.28972 0.50225 0.0
C278 C 0.50296 0.26278 0.48268 0.0
C279 C 0.47493 0.21124 0.5115 0.0
C280 C 0.51838 0.19925 0.53565 0.0
C281 C 0.5895 0.23926 0.53061 0.0
C282 C 0.69115 0.15265 0.46904 0.0
C283 C 0.77387 0.26252 0.51816 0.0
C284 C 0.6844 0.2112 0.47032 0.0
N285 N 0.72523 0.26496 0.49486 0.0
C286 C 0.78211 0.20483 0.51764 0.0
C287 C 0.74034 0.14956 0.49292 0.0
C288 C 0.85905 0.45844 0.50912 0.0
C289 C 0.76853 0.60427 0.42478 0.0
C290 C 0.85918 0.6132 0.48358 0.0
C291 C 0.88409 0.6567 0.45053 0.0
C292 C 0.83835 0.65206 0.42095 0.0
N293 N 0.79062 0.5665 0.48714 0.0
C294 C 0.74546 0.56168 0.45829 0.0
Co295 Co 0.37132 0.71368 0.82987 0.0
Co296 Co 0.25413 0.75559 0.86576 0.0
O297 O 0.28031 0.70466 0.82958 0.0
C298 C 0.3448 0.73003 0.74512 0.0
O299 O 0.33045 0.77749 0.75634 0.0
C300 C 0.14493 0.61123 0.87499 0.0
O301 O 0.19444 0.59684 0.87964 0.0
O302 O 0.2831 0.72153 0.91207 0.0
O303 O 0.37826 0.72336 0.88967 0.0
H304 H 0.28552 0.90906 0.98236 0.0
H305 H 0.2553 0.5938 0.78996 0.0
O306 O 0.36515 0.70199 0.77059 0.0
H307 H 0.33864 0.49509 0.89216 0.0
H308 H 0.54985 0.65566 0.78399 0.0
H309 H 0.50299 0.80451 0.87107 0.0
H310 H 0.39458 0.62072 0.88326 0.0
H311 H 0.43445 0.6436 0.78581 0.0
O312 O 0.15948 0.67321 0.86936 0.0
H313 H 0.31964 0.84717 0.93518 0.0
H314 H 0.12848 0.76761 0.87485 0.0
H315 H 0.61902 0.81798 0.87041 0.0
H316 H 0.19837 0.46787 0.79758 0.0
H317 H 0.643 0.74317 0.82664 0.0
H318 H 0.23987 0.41772 0.84908 0.0
O319 O 0.41494 0.81523 0.82367 0.0
H320 H 0.13511 0.73062 0.73487 0.0
H321 H 0.27994 0.89346 0.8393 0.0
H322 H 0.24749 0.93673 0.78044 0.0
H323 H 0.17448 0.85503 0.72773 0.0
H324 H 0.16931 0.68964 0.79406 0.0
H325 H 0.09206 0.82826 0.92153 0.0
H326 H 0.17098 0.89979 0.97568 0.0
O327 O 0.34832 0.83912 0.86294 0.0
C328 C 0.33703 0.71732 0.91771 0.0
C329 C 0.25079 0.87827 0.9588 0.0
C330 C 0.14217 0.83284 0.92469 0.0
N331 N 0.22636 0.80439 0.90209 0.0
C332 C 0.26991 0.84329 0.93193 0.0
C333 C 0.16302 0.79855 0.89838 0.0
C334 C 0.18648 0.87298 0.95506 0.0
C335 C 0.27416 0.57241 0.81215 0.0
N336 N 0.3284 0.61466 0.83602 0.0
C337 C 0.2415 0.50103 0.81645 0.0
C338 C 0.26473 0.47294 0.8454 0.0
C339 C 0.3201 0.51632 0.86961 0.0
C340 C 0.35145 0.58746 0.8645 0.0
C341 C 0.54 0.68847 0.80324 0.0
C342 C 0.51298 0.77153 0.85212 0.0
C343 C 0.47481 0.68198 0.80433 0.0
N344 N 0.46193 0.72297 0.82877 0.0
C345 C 0.5788 0.77951 0.85179 0.0
C346 C 0.59224 0.73756 0.82719 0.0
C347 C 0.40268 0.85728 0.84249 0.0
C348 C 0.16674 0.76669 0.7577 0.0
C349 C 0.24829 0.8576 0.81645 0.0
C350 C 0.22996 0.88239 0.78323 0.0
C351 C 0.18895 0.83652 0.75368 0.0
N352 N 0.22627 0.78903 0.82019 0.0
C353 C 0.18601 0.74374 0.79136 0.0
C354 C 0.45027 0.01785 0.20891 0.0
C355 C 0.51917 0.07137 0.20878 0.0
H356 H 0.3807 0.90916 0.20906 0.0
C357 C 0.57176 0.05471 0.20878 0.0
H358 H 0.40852 0.02894 0.20891 0.0
C359 C 0.55579 0.98602 0.20868 0.0
C360 C 0.48689 0.9325 0.20887 0.0
H361 H 0.62536 0.09472 0.20851 0.0
H362 H 0.59753 0.97492 0.2085 0.0
C363 C 0.4343 0.94916 0.20909 0.0
C364 C 0.51922 0.5709 0.54246 0.0
C365 C 0.45 0.51825 0.54226 0.0
H366 H 0.62482 0.59679 0.54227 0.0
C367 C 0.43468 0.44937 0.54211 0.0
H368 H 0.53277 0.62449 0.5424 0.0
C369 C 0.48745 0.43348 0.54222 0.0
C370 C 0.55668 0.48613 0.54219 0.0
H371 H 0.38186 0.40759 0.54195 0.0
H372 H 0.4739 0.3799 0.54197 0.0
C373 C 0.572 0.55501 0.54228 0.0
C374 C 0.98686 0.43347 0.87553 0.0
C375 C 0.93336 0.44887 0.87541 0.0
H376 H 0.09554 0.47256 0.87567 0.0
C377 C 0.95003 0.51812 0.87542 0.0
H378 H 0.97576 0.38062 0.87553 0.0
C379 C 0.01873 0.57084 0.87532 0.0
C380 C 0.07223 0.55543 0.8755 0.0
H381 H 0.91004 0.53173 0.87516 0.0
H382 H 0.02984 0.62369 0.87515 0.0
C383 C 0.05555 0.48618 0.87571 0.0
C384 C 0.0386 0.51296 0.47254 0.0
C385 C 0.07427 0.52476 0.5087 0.0
H386 H 0.94092 0.4802 0.44441 0.0
C387 C 0.03873 0.51402 0.54479 0.0
H388 H 0.06517 0.52056 0.44442 0.0
C389 C 0.96873 0.49308 0.54477 0.0
C390 C 0.93266 0.48005 0.50869 0.0
H391 H 0.06542 0.52276 0.57298 0.0
H392 H 0.94245 0.48606 0.57296 0.0
C393 C 0.96786 0.48957 0.47255 0.0
C394 C 0.47723 0.96686 0.80588 0.0
C395 C 0.45477 0.93079 0.842 0.0
H396 H 0.54097 0.06487 0.77782 0.0
C397 C 0.48087 0.96592 0.87807 0.0
H398 H 0.4572 0.94058 0.77778 0.0
C399 C 0.52986 0.03596 0.87806 0.0
C400 C 0.5515 0.07246 0.84204 0.0
H401 H 0.46397 0.93891 0.90624 0.0
H402 H 0.55008 0.06193 0.90623 0.0
C403 C 0.5245 0.03763 0.80593 0.0
C404 C 0.48713 0.52277 0.21137 0.0
C405 C 0.47952 0.54991 0.17533 0.0
H406 H 0.51286 0.45279 0.23953 0.0
C407 C 0.49451 0.52848 0.13927 0.0
H408 H 0.47598 0.53891 0.23949 0.0
C409 C 0.51797 0.48118 0.13937 0.0
C410 C 0.5244 0.45314 0.17544 0.0
H411 H 0.48936 0.54933 0.11119 0.0
H412 H 0.52982 0.46552 0.11132 0.0
C413 C 0.50818 0.47378 0.21138 0.0
C414 C 0.70396 0.3203 0.9883 0.0
C415 C 0.65372 0.30084 0.95839 0.0
H416 H 0.73169 0.34968 0.04894 0.0
C417 C 0.59073 0.29677 0.968 0.0
H418 H 0.75323 0.32444 0.98204 0.0
C419 C 0.57818 0.31115 1.00677 0.0
C420 C 0.62864 0.33061 0.03656 0.0
H421 H 0.55092 0.28207 0.94568 0.0
H422 H 0.52896 0.30686 0.01339 0.0
C423 C 0.69171 0.33523 0.02675 0.0
C424 C 0.38665 0.70352 0.32194 0.0
C425 C 0.35536 0.65337 0.29204 0.0
H426 H 0.38551 0.73133 0.38263 0.0
C427 C 0.29613 0.59065 0.30168 0.0
H428 H 0.43204 0.75258 0.31566 0.0
C429 C 0.26936 0.57827 0.34047 0.0
C430 C 0.30083 0.62865 0.37025 0.0
H431 H 0.27064 0.55091 0.27936 0.0
H432 H 0.22417 0.52926 0.34711 0.0
C433 C 0.35962 0.69145 0.36043 0.0
C434 C 0.69361 0.26831 0.67343 0.0
C435 C 0.67432 0.29942 0.70323 0.0
H436 H 0.72268 0.27009 0.61235 0.0
C437 C 0.67003 0.35808 0.69346 0.0
H438 H 0.69764 0.22322 0.68003 0.0
C439 C 0.68512 0.38533 0.65502 0.0
C440 C 0.70438 0.35442 0.6251 0.0
H441 H 0.65573 0.3837 0.71566 0.0
H442 H 0.68123 0.43062 0.64878 0.0
C443 C 0.70813 0.2953 0.63468 0.0
C444 C 0.41401 0.70642 0.96836 0.0
C445 C 0.35133 0.70301 0.95872 0.0
H446 H 0.47533 0.69567 0.01377 0.0
C447 C 0.30119 0.68415 0.98862 0.0
H448 H 0.45375 0.72066 0.94605 0.0
C449 C 0.31322 0.66909 0.0271 0.0
C450 C 0.37598 0.67301 0.03691 0.0
H451 H 0.25215 0.68055 0.98234 0.0
H452 H 0.27334 0.65509 0.04929 0.0
C453 C 0.42635 0.69192 1.00714 0.0
C454 C 0.64725 0.31312 0.36012 0.0
C455 C 0.70577 0.37616 0.3699 0.0
H456 H 0.57483 0.25159 0.31544 0.0
C457 C 0.73679 0.42658 0.34009 0.0
H458 H 0.6217 0.27318 0.38233 0.0
C459 C 0.70982 0.414 0.30134 0.0
C460 C 0.65082 0.35103 0.29175 0.0
H461 H 0.78178 0.47578 0.34669 0.0
H462 H 0.73494 0.45377 0.279 0.0
C463 C 0.62002 0.30085 0.32168 0.0
C464 C 0.31301 0.73551 0.67378 0.0
C465 C 0.33186 0.70405 0.70359 0.0
H466 H 0.2844 0.73418 0.61266 0.0
C467 C 0.3358 0.64521 0.69381 0.0
H468 H 0.30925 0.78075 0.68039 0.0
C469 C 0.32082 0.61812 0.65533 0.0
C470 C 0.30202 0.64941 0.62539 0.0
H471 H 0.34975 0.61932 0.71603 0.0
H472 H 0.32444 0.57269 0.64907 0.0
C473 C 0.2986 0.70869 0.635 0.0
loop_
_geom_bond_atom_site_label_1
_geom_bond_atom_site_label_2
_geom_bond_distance
_geom_bond_site_symmetry_2
_ccdc_geom_bond_type
Co0 O2 2.143 . S
Co0 O8 2.074 . S
Co0 O11 2.093 . S
Co0 O24 2.097 . S
Co0 N41 2.151 . S
Co0 N49 2.214 . S
Co1 O2 2.160 . S
Co1 O7 2.058 . S
Co1 O17 2.057 . S
Co1 O32 2.037 . S
Co1 N36 2.145 . S
Co1 N57 2.257 . S
O2 Co0 2.143 . S
O2 Co1 2.160 . S
C3 O4 1.278 . S
C3 O11 1.224 . S
O4 C3 1.278 . S
C5 O6 1.245 . S
C5 O17 1.232 . S
O6 C5 1.245 . S
O7 Co1 2.058 . S
O7 C33 1.269 . S
O8 Co0 2.074 . S
O8 C33 1.257 . S
H9 C34 0.930 . S
H10 C40 0.930 . S
O11 Co0 2.093 . S
O11 C3 1.224 . S
H12 C44 0.929 . S
H13 C46 0.930 . S
H14 C47 0.930 . S
H15 C45 0.929 . S
H16 C48 0.928 . S
O17 Co1 2.057 . S
O17 C5 1.232 . S
H18 C37 0.929 . S
H19 C38 0.929 . S
H20 C50 0.931 . S
H21 C42 0.929 . S
H22 C51 0.930 . S
H23 C43 0.931 . S
O24 Co0 2.097 . S
O24 C52 1.214 . S
H25 C53 0.929 . S
H26 C54 0.929 . S
H27 C55 0.930 . S
H28 C56 0.929 . S
H29 C58 0.930 . S
H30 C35 0.930 . S
H31 C39 0.930 . S
O32 Co1 2.037 . S
O32 C52 1.234 . S
C33 O7 1.269 . S
C33 O8 1.257 . S
C34 H9 0.930 . S
C34 C37 1.388 . S
C34 C39 1.418 . S
C35 H30 0.930 . S
C35 C38 1.404 . S
C35 C39 1.353 . S
N36 Co1 2.145 . S
N36 C37 1.397 . S
N36 C38 1.334 . S
C37 H18 0.929 . S
C37 C34 1.388 . S
C37 N36 1.397 . S
C38 H19 0.929 . S
C38 C35 1.404 . S
C38 N36 1.334 . S
C39 H31 0.930 . S
C39 C34 1.418 . S
C39 C35 1.353 . S
C40 H10 0.930 . S
C40 N41 1.330 . S
C40 C42 1.446 . S
N41 Co0 2.151 . S
N41 C40 1.330 . S
N41 C45 1.418 . S
C42 H21 0.929 . S
C42 C40 1.446 . S
C42 C43 1.332 . S
C43 H23 0.931 . S
C43 C42 1.332 . S
C43 C44 1.267 . S
C44 H12 0.929 . S
C44 C43 1.267 . S
C44 C45 1.251 . S
C45 H15 0.929 . S
C45 N41 1.418 . S
C45 C44 1.251 . S
C46 H13 0.930 . S
C46 C48 1.406 . S
C46 C51 1.261 . S
C47 H14 0.930 . S
C47 N49 1.325 . S
C47 C50 1.357 . S
C48 H16 0.928 . S
C48 C46 1.406 . S
C48 N49 1.261 . S
N49 Co0 2.214 . S
N49 C47 1.325 . S
N49 C48 1.261 . S
C50 H20 0.931 . S
C50 C47 1.357 . S
C50 C51 1.312 . S
C51 H22 0.930 . S
C51 C46 1.261 . S
C51 C50 1.312 . S
C52 O24 1.214 . S
C52 O32 1.234 . S
C53 H25 0.929 . S
C53 C56 1.391 . S
C53 C58 1.391 . S
C54 H26 0.929 . S
C54 C55 1.390 . S
C54 N57 1.391 . S
C55 H27 0.930 . S
C55 C54 1.390 . S
C55 C56 1.392 . S
C56 H28 0.929 . S
C56 C53 1.391 . S
C56 C55 1.392 . S
N57 Co1 2.257 . S
N57 C54 1.391 . S
N57 C58 1.388 . S
C58 H29 0.930 . S
C58 C53 1.391 . S
C58 N57 1.388 . S
Co59 O61 2.143 . S
Co59 O67 2.074 . S
Co59 O70 2.093 . S
Co59 O83 2.097 . S
Co59 N100 2.151 . S
Co59 N108 2.214 . S
Co60 O61 2.160 . S
Co60 O66 2.058 . S
Co60 O76 2.057 . S
Co60 O91 2.037 . S
Co60 N95 2.145 . S
Co60 N116 2.257 . S
O61 Co59 2.143 . S
O61 Co60 2.160 . S
C62 O63 1.278 . S
C62 O70 1.224 . S
O63 C62 1.278 . S
C64 O65 1.245 . S
C64 O76 1.232 . S
O65 C64 1.245 . S
O66 Co60 2.058 . S
O66 C92 1.269 . S
O67 Co59 2.074 . S
O67 C92 1.257 . S
H68 C93 0.930 . S
H69 C99 0.930 . S
O70 Co59 2.093 . S
O70 C62 1.224 . S
H71 C103 0.929 . S
H72 C105 0.930 . S
H73 C106 0.930 . S
H74 C104 0.929 . S
H75 C107 0.928 . S
O76 Co60 2.057 . S
O76 C64 1.232 . S
H77 C96 0.929 . S
H78 C97 0.929 . S
H79 C109 0.931 . S
H80 C101 0.929 . S
H81 C110 0.930 . S
H82 C102 0.931 . S
O83 Co59 2.097 . S
O83 C111 1.214 . S
H84 C112 0.929 . S
H85 C113 0.929 . S
H86 C114 0.930 . S
H87 C115 0.929 . S
H88 C117 0.930 . S
H89 C94 0.930 . S
H90 C98 0.930 . S
O91 Co60 2.037 . S
O91 C111 1.234 . S
C92 O66 1.269 . S
C92 O67 1.257 . S
C93 H68 0.930 . S
C93 C96 1.388 . S
C93 C98 1.418 . S
C94 H89 0.930 . S
C94 C97 1.404 . S
C94 C98 1.353 . S
N95 Co60 2.145 . S
N95 C96 1.397 . S
N95 C97 1.334 . S
C96 H77 0.929 . S
C96 C93 1.388 . S
C96 N95 1.397 . S
C97 H78 0.929 . S
C97 C94 1.404 . S
C97 N95 1.334 . S
C98 H90 0.930 . S
C98 C93 1.418 . S
C98 C94 1.353 . S
C99 H69 0.930 . S
C99 N100 1.330 . S
C99 C101 1.446 . S
N100 Co59 2.151 . S
N100 C99 1.330 . S
N100 C104 1.418 . S
C101 H80 0.929 . S
C101 C99 1.446 . S
C101 C102 1.332 . S
C102 H82 0.931 . S
C102 C101 1.332 . S
C102 C103 1.267 . S
C103 H71 0.929 . S
C103 C102 1.267 . S
C103 C104 1.251 . S
C104 H74 0.929 . S
C104 N100 1.418 . S
C104 C103 1.251 . S
C105 H72 0.930 . S
C105 C107 1.406 . S
C105 C110 1.261 . S
C106 H73 0.930 . S
C106 N108 1.325 . S
C106 C109 1.357 . S
C107 H75 0.928 . S
C107 C105 1.406 . S
C107 N108 1.261 . S
N108 Co59 2.214 . S
N108 C106 1.325 . S
N108 C107 1.261 . S
C109 H79 0.931 . S
C109 C106 1.357 . S
C109 C110 1.312 . S
C110 H81 0.930 . S
C110 C105 1.261 . S
C110 C109 1.312 . S
C111 O83 1.214 . S
C111 O91 1.234 . S
C112 H84 0.929 . S
C112 C115 1.391 . S
C112 C117 1.391 . S
C113 H85 0.929 . S
C113 C114 1.390 . S
C113 N116 1.391 . S
C114 H86 0.930 . S
C114 C113 1.390 . S
C114 C115 1.392 . S
C115 H87 0.929 . S
C115 C112 1.391 . S
C115 C114 1.392 . S
N116 Co60 2.257 . S
N116 C113 1.391 . S
N116 C117 1.388 . S
C117 H88 0.930 . S
C117 C112 1.391 . S
C117 N116 1.388 . S
Co118 O120 2.143 . S
Co118 O126 2.074 . S
Co118 O129 2.093 . S
Co118 O142 2.097 . S
Co118 N159 2.151 . S
Co118 N167 2.214 . S
Co119 O120 2.160 . S
Co119 O125 2.058 . S
Co119 O135 2.057 . S
Co119 O150 2.037 . S
Co119 N154 2.145 . S
Co119 N175 2.257 . S
O120 Co118 2.143 . S
O120 Co119 2.160 . S
C121 O122 1.278 . S
C121 O129 1.224 . S
O122 C121 1.278 . S
C123 O124 1.245 . S
C123 O135 1.232 . S
O124 C123 1.245 . S
O125 Co119 2.058 . S
O125 C151 1.269 . S
O126 Co118 2.074 . S
O126 C151 1.257 . S
H127 C152 0.930 . S
H128 C158 0.930 . S
O129 Co118 2.093 . S
O129 C121 1.224 . S
H130 C162 0.929 . S
H131 C164 0.930 . S
H132 C165 0.930 . S
H133 C163 0.929 . S
H134 C166 0.928 . S
O135 Co119 2.057 . S
O135 C123 1.232 . S
H136 C155 0.929 . S
H137 C156 0.929 . S
H138 C168 0.931 . S
H139 C160 0.929 . S
H140 C169 0.930 . S
H141 C161 0.931 . S
O142 Co118 2.097 . S
O142 C170 1.214 . S
H143 C171 0.929 . S
H144 C172 0.929 . S
H145 C173 0.930 . S
H146 C174 0.929 . S
H147 C176 0.930 . S
H148 C153 0.930 . S
H149 C157 0.930 . S
O150 Co119 2.037 . S
O150 C170 1.234 . S
C151 O125 1.269 . S
C151 O126 1.257 . S
C152 H127 0.930 . S
C152 C155 1.388 . S
C152 C157 1.418 . S
C153 H148 0.930 . S
C153 C156 1.404 . S
C153 C157 1.353 . S
N154 Co119 2.145 . S
N154 C155 1.397 . S
N154 C156 1.334 . S
C155 H136 0.929 . S
C155 C152 1.388 . S
C155 N154 1.397 . S
C156 H137 0.929 . S
C156 C153 1.404 . S
C156 N154 1.334 . S
C157 H149 0.930 . S
C157 C152 1.418 . S
C157 C153 1.353 . S
C158 H128 0.930 . S
C158 N159 1.330 . S
C158 C160 1.446 . S
N159 Co118 2.151 . S
N159 C158 1.330 . S
N159 C163 1.418 . S
C160 H139 0.929 . S
C160 C158 1.446 . S
C160 C161 1.332 . S
C161 H141 0.931 . S
C161 C160 1.332 . S
C161 C162 1.267 . S
C162 H130 0.929 . S
C162 C161 1.267 . S
C162 C163 1.251 . S
C163 H133 0.929 . S
C163 N159 1.418 . S
C163 C162 1.251 . S
C164 H131 0.930 . S
C164 C166 1.406 . S
C164 C169 1.261 . S
C165 H132 0.930 . S
C165 N167 1.325 . S
C165 C168 1.357 . S
C166 H134 0.928 . S
C166 C164 1.406 . S
C166 N167 1.261 . S
N167 Co118 2.214 . S
N167 C165 1.325 . S
N167 C166 1.261 . S
C168 H138 0.931 . S
C168 C165 1.357 . S
C168 C169 1.312 . S
C169 H140 0.930 . S
C169 C164 1.261 . S
C169 C168 1.312 . S
C170 O142 1.214 . S
C170 O150 1.234 . S
C171 H143 0.929 . S
C171 C174 1.391 . S
C171 C176 1.391 . S
C172 H144 0.929 . S
C172 C173 1.390 . S
C172 N175 1.391 . S
C173 H145 0.930 . S
C173 C172 1.390 . S
C173 C174 1.392 . S
C174 H146 0.929 . S
C174 C171 1.391 . S
C174 C173 1.392 . S
N175 Co119 2.257 . S
N175 C172 1.391 . S
N175 C176 1.388 . S
C176 H147 0.930 . S
C176 C171 1.391 . S
C176 N175 1.388 . S
Co177 O179 2.143 . S
Co177 O185 2.074 . S
Co177 O188 2.093 . S
Co177 O201 2.097 . S
Co177 N218 2.151 . S
Co177 N226 2.214 . S
Co178 O179 2.160 . S
Co178 O184 2.058 . S
Co178 O194 2.057 . S
Co178 O209 2.037 . S
Co178 N213 2.145 . S
Co178 N234 2.257 . S
O179 Co177 2.143 . S
O179 Co178 2.160 . S
C180 O181 1.278 . S
C180 O188 1.224 . S
O181 C180 1.278 . S
C182 O183 1.245 . S
C182 O194 1.232 . S
O183 C182 1.245 . S
O184 Co178 2.058 . S
O184 C210 1.269 . S
O185 Co177 2.074 . S
O185 C210 1.257 . S
H186 C211 0.930 . S
H187 C217 0.930 . S
O188 Co177 2.093 . S
O188 C180 1.224 . S
H189 C221 0.929 . S
H190 C223 0.930 . S
H191 C224 0.930 . S
H192 C222 0.929 . S
H193 C225 0.928 . S
O194 Co178 2.057 . S
O194 C182 1.232 . S
H195 C214 0.929 . S
H196 C215 0.929 . S
H197 C227 0.931 . S
H198 C219 0.929 . S
H199 C228 0.930 . S
H200 C220 0.931 . S
O201 Co177 2.097 . S
O201 C229 1.214 . S
H202 C230 0.929 . S
H203 C231 0.929 . S
H204 C232 0.930 . S
H205 C233 0.929 . S
H206 C235 0.930 . S
H207 C212 0.930 . S
H208 C216 0.930 . S
O209 Co178 2.037 . S
O209 C229 1.234 . S
C210 O184 1.269 . S
C210 O185 1.257 . S
C211 H186 0.930 . S
C211 C214 1.388 . S
C211 C216 1.418 . S
C212 H207 0.930 . S
C212 C215 1.404 . S
C212 C216 1.353 . S
N213 Co178 2.145 . S
N213 C214 1.397 . S
N213 C215 1.334 . S
C214 H195 0.929 . S
C214 C211 1.388 . S
C214 N213 1.397 . S
C215 H196 0.929 . S
C215 C212 1.404 . S
C215 N213 1.334 . S
C216 H208 0.930 . S
C216 C211 1.418 . S
C216 C212 1.353 . S
C217 H187 0.930 . S
C217 N218 1.330 . S
C217 C219 1.446 . S
N218 Co177 2.151 . S
N218 C217 1.330 . S
N218 C222 1.418 . S
C219 H198 0.929 . S
C219 C217 1.446 . S
C219 C220 1.332 . S
C220 H200 0.931 . S
C220 C219 1.332 . S
C220 C221 1.267 . S
C221 H189 0.929 . S
C221 C220 1.267 . S
C221 C222 1.251 . S
C222 H192 0.929 . S
C222 N218 1.418 . S
C222 C221 1.251 . S
C223 H190 0.930 . S
C223 C225 1.406 . S
C223 C228 1.261 . S
C224 H191 0.930 . S
C224 N226 1.325 . S
C224 C227 1.357 . S
C225 H193 0.928 . S
C225 C223 1.406 . S
C225 N226 1.261 . S
N226 Co177 2.214 . S
N226 C224 1.325 . S
N226 C225 1.261 . S
C227 H197 0.931 . S
C227 C224 1.357 . S
C227 C228 1.312 . S
C228 H199 0.930 . S
C228 C223 1.261 . S
C228 C227 1.312 . S
C229 O201 1.214 . S
C229 O209 1.234 . S
C230 H202 0.929 . S
C230 C233 1.391 . S
C230 C235 1.391 . S
C231 H203 0.929 . S
C231 C232 1.390 . S
C231 N234 1.391 . S
C232 H204 0.930 . S
C232 C231 1.390 . S
C232 C233 1.392 . S
C233 H205 0.929 . S
C233 C230 1.391 . S
C233 C232 1.392 . S
N234 Co178 2.257 . S
N234 C231 1.391 . S
N234 C235 1.388 . S
C235 H206 0.930 . S
C235 C230 1.391 . S
C235 N234 1.388 . S
Co236 O238 2.143 . S
Co236 O244 2.074 . S
Co236 O247 2.093 . S
Co236 O260 2.097 . S
Co236 N277 2.151 . S
Co236 N285 2.214 . S
Co237 O238 2.160 . S
Co237 O243 2.058 . S
Co237 O253 2.057 . S
Co237 O268 2.037 . S
Co237 N272 2.145 . S
Co237 N293 2.257 . S
O238 Co236 2.143 . S
O238 Co237 2.160 . S
C239 O240 1.278 . S
C239 O247 1.224 . S
O240 C239 1.278 . S
C241 O242 1.245 . S
C241 O253 1.232 . S
O242 C241 1.245 . S
O243 Co237 2.058 . S
O243 C269 1.269 . S
O244 Co236 2.074 . S
O244 C269 1.257 . S
H245 C270 0.930 . S
H246 C276 0.930 . S
O247 Co236 2.093 . S
O247 C239 1.224 . S
H248 C280 0.929 . S
H249 C282 0.930 . S
H250 C283 0.930 . S
H251 C281 0.929 . S
H252 C284 0.928 . S
O253 Co237 2.057 . S
O253 C241 1.232 . S
H254 C273 0.929 . S
H255 C274 0.929 . S
H256 C286 0.931 . S
H257 C278 0.929 . S
H258 C287 0.930 . S
H259 C279 0.931 . S
O260 Co236 2.097 . S
O260 C288 1.214 . S
H261 C289 0.929 . S
H262 C290 0.929 . S
H263 C291 0.930 . S
H264 C292 0.929 . S
H265 C294 0.930 . S
H266 C271 0.930 . S
H267 C275 0.930 . S
O268 Co237 2.037 . S
O268 C288 1.234 . S
C269 O243 1.269 . S
C269 O244 1.257 . S
C270 H245 0.930 . S
C270 C273 1.388 . S
C270 C275 1.418 . S
C271 H266 0.930 . S
C271 C274 1.404 . S
C271 C275 1.353 . S
N272 Co237 2.145 . S
N272 C273 1.397 . S
N272 C274 1.334 . S
C273 H254 0.929 . S
C273 C270 1.388 . S
C273 N272 1.397 . S
C274 H255 0.929 . S
C274 C271 1.404 . S
C274 N272 1.334 . S
C275 H267 0.930 . S
C275 C270 1.418 . S
C275 C271 1.353 . S
C276 H246 0.930 . S
C276 N277 1.330 . S
C276 C278 1.446 . S
N277 Co236 2.151 . S
N277 C276 1.330 . S
N277 C281 1.418 . S
C278 H257 0.929 . S
C278 C276 1.446 . S
C278 C279 1.332 . S
C279 H259 0.931 . S
C279 C278 1.332 . S
C279 C280 1.267 . S
C280 H248 0.929 . S
C280 C279 1.267 . S
C280 C281 1.251 . S
C281 H251 0.929 . S
C281 N277 1.418 . S
C281 C280 1.251 . S
C282 H249 0.930 . S
C282 C284 1.406 . S
C282 C287 1.261 . S
C283 H250 0.930 . S
C283 N285 1.325 . S
C283 C286 1.357 . S
C284 H252 0.928 . S
C284 C282 1.406 . S
C284 N285 1.261 . S
N285 Co236 2.214 . S
N285 C283 1.325 . S
N285 C284 1.261 . S
C286 H256 0.931 . S
C286 C283 1.357 . S
C286 C287 1.312 . S
C287 H258 0.930 . S
C287 C282 1.261 . S
C287 C286 1.312 . S
C288 O260 1.214 . S
C288 O268 1.234 . S
C289 H261 0.929 . S
C289 C292 1.391 . S
C289 C294 1.391 . S
C290 H262 0.929 . S
C290 C291 1.390 . S
C290 N293 1.391 . S
C291 H263 0.930 . S
C291 C290 1.390 . S
C291 C292 1.392 . S
C292 H264 0.929 . S
C292 C289 1.391 . S
C292 C291 1.392 . S
N293 Co237 2.257 . S
N293 C290 1.391 . S
N293 C294 1.388 . S
C294 H265 0.930 . S
C294 C289 1.391 . S
C294 N293 1.388 . S
Co295 O297 2.143 . S
Co295 O303 2.074 . S
Co295 O306 2.093 . S
Co295 O319 2.097 . S
Co295 N336 2.151 . S
Co295 N344 2.214 . S
Co296 O297 2.160 . S
Co296 O302 2.058 . S
Co296 O312 2.057 . S
Co296 O327 2.037 . S
Co296 N331 2.145 . S
Co296 N352 2.257 . S
O297 Co295 2.143 . S
O297 Co296 2.160 . S
C298 O299 1.278 . S
C298 O306 1.224 . S
O299 C298 1.278 . S
C300 O301 1.245 . S
C300 O312 1.232 . S
O301 C300 1.245 . S
O302 Co296 2.058 . S
O302 C328 1.269 . S
O303 Co295 2.074 . S
O303 C328 1.257 . S
H304 C329 0.930 . S
H305 C335 0.930 . S
O306 Co295 2.093 . S
O306 C298 1.224 . S
H307 C339 0.929 . S
H308 C341 0.930 . S
H309 C342 0.930 . S
H310 C340 0.929 . S
H311 C343 0.928 . S
O312 Co296 2.057 . S
O312 C300 1.232 . S
H313 C332 0.929 . S
H314 C333 0.929 . S
H315 C345 0.931 . S
H316 C337 0.929 . S
H317 C346 0.930 . S
H318 C338 0.931 . S
O319 Co295 2.097 . S
O319 C347 1.214 . S
H320 C348 0.929 . S
H321 C349 0.929 . S
H322 C350 0.930 . S
H323 C351 0.929 . S
H324 C353 0.930 . S
H325 C330 0.930 . S
H326 C334 0.930 . S
O327 Co296 2.037 . S
O327 C347 1.234 . S
C328 O302 1.269 . S
C328 O303 1.257 . S
C329 H304 0.930 . S
C329 C332 1.388 . S
C329 C334 1.418 . S
C330 H325 0.930 . S
C330 C333 1.404 . S
C330 C334 1.353 . S
N331 Co296 2.145 . S
N331 C332 1.397 . S
N331 C333 1.334 . S
C332 H313 0.929 . S
C332 C329 1.388 . S
C332 N331 1.397 . S
C333 H314 0.929 . S
C333 C330 1.404 . S
C333 N331 1.334 . S
C334 H326 0.930 . S
C334 C329 1.418 . S
C334 C330 1.353 . S
C335 H305 0.930 . S
C335 N336 1.330 . S
C335 C337 1.446 . S
N336 Co295 2.151 . S
N336 C335 1.330 . S
N336 C340 1.418 . S
C337 H316 0.929 . S
C337 C335 1.446 . S
C337 C338 1.332 . S
C338 H318 0.931 . S
C338 C337 1.332 . S
C338 C339 1.267 . S
C339 H307 0.929 . S
C339 C338 1.267 . S
C339 C340 1.251 . S
C340 H310 0.929 . S
C340 N336 1.418 . S
C340 C339 1.251 . S
C341 H308 0.930 . S
C341 C343 1.406 . S
C341 C346 1.261 . S
C342 H309 0.930 . S
C342 N344 1.325 . S
C342 C345 1.357 . S
C343 H311 0.928 . S
C343 C341 1.406 . S
C343 N344 1.261 . S
N344 Co295 2.214 . S
N344 C342 1.325 . S
N344 C343 1.261 . S
C345 H315 0.931 . S
C345 C342 1.357 . S
C345 C346 1.312 . S
C346 H317 0.930 . S
C346 C341 1.261 . S
C346 C345 1.312 . S
C347 O319 1.214 . S
C347 O327 1.234 . S
C348 H320 0.929 . S
C348 C351 1.391 . S
C348 C353 1.391 . S
C349 H321 0.929 . S
C349 C350 1.390 . S
C349 N352 1.391 . S
C350 H322 0.930 . S
C350 C349 1.390 . S
C350 C351 1.392 . S
C351 H323 0.929 . S
C351 C348 1.391 . S
C351 C350 1.392 . S
N352 Co296 2.257 . S
N352 C349 1.391 . S
N352 C353 1.388 . S
C353 H324 0.930 . S
C353 C348 1.391 . S
C353 N352 1.388 . S
C354 C355 1.387 . S
C354 H358 0.950 . S
C354 C363 1.390 1_545 S
C355 C354 1.387 . S
C355 C357 1.387 . S
H356 C363 0.950 . S
C357 C355 1.387 . S
C357 C359 1.390 1_545 S
C357 H361 0.950 . S
H358 C354 0.950 . S
C359 C357 1.390 1_565 S
C359 C360 1.387 . S
C359 H362 0.950 . S
C360 C359 1.387 . S
C360 C363 1.387 . S
H361 C357 0.950 . S
H362 C359 0.950 . S
C363 C354 1.390 1_565 S
C363 H356 0.950 . S
C363 C360 1.387 . S
C364 C365 1.387 . S
C364 H368 0.950 . S
C364 C373 1.390 . S
C365 C364 1.387 . S
C365 C367 1.387 . S
H366 C373 0.950 . S
C367 C365 1.387 . S
C367 C369 1.390 . S
C367 H371 0.950 . S
H368 C364 0.950 . S
C369 C367 1.390 . S
C369 C370 1.387 . S
C369 H372 0.950 . S
C370 C369 1.387 . S
C370 C373 1.387 . S
H371 C367 0.950 . S
H372 C369 0.950 . S
C373 C364 1.390 . S
C373 H366 0.950 . S
C373 C370 1.387 . S
C374 C375 1.387 . S
C374 H378 0.950 . S
C374 C383 1.390 1_655 S
C375 C374 1.387 . S
C375 C377 1.387 . S
H376 C383 0.950 . S
C377 C375 1.387 . S
C377 C379 1.390 1_655 S
C377 H381 0.950 . S
H378 C374 0.950 . S
C379 C377 1.390 1_455 S
C379 C380 1.387 . S
C379 H382 0.950 . S
C380 C379 1.387 . S
C380 C383 1.387 . S
H381 C377 0.950 . S
H382 C379 0.950 . S
C383 C374 1.390 1_455 S
C383 H376 0.950 . S
C383 C380 1.387 . S
C384 C385 1.387 . S
C384 H388 0.950 . S
C384 C393 1.390 1_455 S
C385 C384 1.387 . S
C385 C387 1.387 . S
H386 C393 0.950 . S
C387 C385 1.387 . S
C387 C389 1.390 1_455 S
C387 H391 0.950 . S
H388 C384 0.950 . S
C389 C387 1.390 1_655 S
C389 C390 1.387 . S
C389 H392 0.950 . S
C390 C389 1.387 . S
C390 C393 1.387 . S
H391 C387 0.950 . S
H392 C389 0.950 . S
C393 C384 1.390 1_655 S
C393 H386 0.950 . S
C393 C390 1.387 . S
C394 C395 1.387 . S
C394 H398 0.950 . S
C394 C403 1.390 1_565 S
C395 C394 1.387 . S
C395 C397 1.387 . S
H396 C403 0.950 . S
C397 C395 1.387 . S
C397 C399 1.390 1_565 S
C397 H401 0.950 . S
H398 C394 0.950 . S
C399 C397 1.390 1_545 S
C399 C400 1.387 . S
C399 H402 0.950 . S
C400 C399 1.387 . S
C400 C403 1.387 . S
H401 C397 0.950 . S
H402 C399 0.950 . S
C403 C394 1.390 1_545 S
C403 H396 0.950 . S
C403 C400 1.387 . S
C404 C405 1.387 . S
C404 H408 0.950 . S
C404 C413 1.390 . S
C405 C404 1.387 . S
C405 C407 1.387 . S
H406 C413 0.950 . S
C407 C405 1.387 . S
C407 C409 1.390 . S
C407 H411 0.950 . S
H408 C404 0.950 . S
C409 C407 1.390 . S
C409 C410 1.387 . S
C409 H412 0.950 . S
C410 C409 1.387 . S
C410 C413 1.387 . S
H411 C407 0.950 . S
H412 C409 0.950 . S
C413 C404 1.390 . S
C413 H406 0.950 . S
C413 C410 1.387 . S
C414 C415 1.387 . S
C414 H418 0.950 . S
C414 C423 1.390 1_556 S
C415 C414 1.387 . S
C415 C417 1.387 . S
H416 C423 0.950 . S
C417 C415 1.387 . S
C417 C419 1.390 1_556 S
C417 H421 0.950 . S
H418 C414 0.950 . S
C419 C417 1.390 1_554 S
C419 C420 1.387 . S
C419 H422 0.950 . S
C420 C419 1.387 . S
C420 C423 1.387 . S
H421 C417 0.950 . S
H422 C419 0.950 . S
C423 C414 1.390 1_554 S
C423 H416 0.950 . S
C423 C420 1.387 . S
C424 C425 1.387 . S
C424 H428 0.950 . S
C424 C433 1.390 . S
C425 C424 1.387 . S
C425 C427 1.387 . S
H426 C433 0.950 . S
C427 C425 1.387 . S
C427 C429 1.390 . S
C427 H431 0.950 . S
H428 C424 0.950 . S
C429 C427 1.390 . S
C429 C430 1.387 . S
C429 H432 0.950 . S
C430 C429 1.387 . S
C430 C433 1.387 . S
H431 C427 0.950 . S
H432 C429 0.950 . S
C433 C424 1.390 . S
C433 H426 0.950 . S
C433 C430 1.387 . S
C434 C435 1.387 . S
C434 H438 0.950 . S
C434 C443 1.390 . S
C435 C434 1.387 . S
C435 C437 1.387 . S
H436 C443 0.950 . S
C437 C435 1.387 . S
C437 C439 1.390 . S
C437 H441 0.950 . S
H438 C434 0.950 . S
C439 C437 1.390 . S
C439 C440 1.387 . S
C439 H442 0.950 . S
C440 C439 1.387 . S
C440 C443 1.387 . S
H441 C437 0.950 . S
H442 C439 0.950 . S
C443 C434 1.390 . S
C443 H436 0.950 . S
C443 C440 1.387 . S
C444 C445 1.387 . S
C444 H448 0.950 . S
C444 C453 1.390 1_556 S
C445 C444 1.387 . S
C445 C447 1.387 . S
H446 C453 0.950 . S
C447 C445 1.387 . S
C447 C449 1.390 1_556 S
C447 H451 0.950 . S
H448 C444 0.950 . S
C449 C447 1.390 1_554 S
C449 C450 1.387 . S
C449 H452 0.950 . S
C450 C449 1.387 . S
C450 C453 1.387 . S
H451 C447 0.950 . S
H452 C449 0.950 . S
C453 C444 1.390 1_554 S
C453 H446 0.950 . S
C453 C450 1.387 . S
C454 C455 1.387 . S
C454 H458 0.950 . S
C454 C463 1.390 . S
C455 C454 1.387 . S
C455 C457 1.387 . S
H456 C463 0.950 . S
C457 C455 1.387 . S
C457 C459 1.390 . S
C457 H461 0.950 . S
H458 C454 0.950 . S
C459 C457 1.390 . S
C459 C460 1.387 . S
C459 H462 0.950 . S
C460 C459 1.387 . S
C460 C463 1.387 . S
H461 C457 0.950 . S
H462 C459 0.950 . S
C463 C454 1.390 . S
C463 H456 0.950 . S
C463 C460 1.387 . S
C464 C465 1.387 . S
C464 H468 0.950 . S
C464 C473 1.390 . S
C465 C464 1.387 . S
C465 C467 1.387 . S
H466 C473 0.950 . S
C467 C465 1.387 . S
C467 C469 1.390 . S
C467 H471 0.950 . S
H468 C464 0.950 . S
C469 C467 1.390 . S
C469 C470 1.387 . S
C469 H472 0.950 . S
C470 C469 1.387 . S
C470 C473 1.387 . S
H471 C467 0.950 . S
H472 C469 0.950 . S
C473 C464 1.390 . S
C473 H466 0.950 . S
C473 C470 1.387 . S
C355 C5 1.258 . S
C360 C182 1.258 . S
C365 C64 1.258 . S
C370 C241 1.258 . S
C375 C123 1.258 . S
C380 C300 1.258 . S
C385 C111 1.795 . S
C390 C288 1.795 . S
C395 C347 1.795 . S
C400 C170 1.795 . S
C405 C229 1.795 . S
C410 C52 1.795 . S
C415 C151 1.456 . S
C420 C3 1.441 . S
C425 C210 1.456 . S
C430 C62 1.441 . S
C435 C121 1.441 . S
C440 C269 1.456 . S
C445 C328 1.458 . S
C450 C180 1.443 . S
C455 C239 1.442 . S
C460 C33 1.456 . S
C465 C298 1.441 . S
C470 C92 1.456 . S
