# Generated by pormake.
# Topology crs, (6)-cn, num edge types: 1
# Building blocks:
#     Node 0, Type 0, BuildingBlock: GEDQOX_clean_sbu_0, # of connection points: 6
#     Node 1, Type 0, BuildingBlock: GEDQOX_clean_sbu_0, # of connection points: 6
#     Node 2, Type 0, BuildingBlock: GEDQOX_clean_sbu_0, # of connection points: 6
#     Node 3, Type 0, BuildingBlock: GEDQOX_clean_sbu_0, # of connection points: 6
#     Node 4, Type 0, BuildingBlock: GEDQOX_clean_sbu_0, # of connection points: 6
#     Node 5, Type 0, BuildingBlock: GEDQOX_clean_sbu_0, # of connection points: 6
#     Node 6, Type 0, BuildingBlock: GEDQOX_clean_sbu_0, # of connection points: 6
#     Node 7, Type 0, BuildingBlock: GEDQOX_clean_sbu_0, # of connection points: 6
#     Node 8, Type 0, BuildingBlock: GEDQOX_clean_sbu_0, # of connection points: 6
#     Node 9, Type 0, BuildingBlock: GEDQOX_clean_sbu_0, # of connection points: 6
#     Node 10, Type 0, BuildingBlock: GEDQOX_clean_sbu_0, # of connection points: 6
#     Node 11, Type 0, BuildingBlock: GEDQOX_clean_sbu_0, # of connection points: 6
#     Node 12, Type 0, BuildingBlock: GEDQOX_clean_sbu_0, # of connection points: 6
#     Node 13, Type 0, BuildingBlock: GEDQOX_clean_sbu_0, # of connection points: 6
#     Node 14, Type 0, BuildingBlock: GEDQOX_clean_sbu_0, # of connection points: 6
#     Node 15, Type 0, BuildingBlock: GEDQOX_clean_sbu_0, # of connection points: 6
#     Edge 16, Type (0, 0), BuildingBlock: MIFKUJ_clean_linker_0, # of connection points: 2
#     Edge 17, Type (0, 0), BuildingBlock: MIFKUJ_clean_linker_0, # of connection points: 2
#     Edge 18, Type (0, 0), BuildingBlock: MIFKUJ_clean_linker_0, # of connection points: 2
#     Edge 19, Type (0, 0), BuildingBlock: MIFKUJ_clean_linker_0, # of connection points: 2
#     Edge 20, Type (0, 0), BuildingBlock: MIFKUJ_clean_linker_0, # of connection points: 2
#     Edge 21, Type (0, 0), BuildingBlock: MIFKUJ_clean_linker_0, # of connection points: 2
#     Edge 22, Type (0, 0), BuildingBlock: MIFKUJ_clean_linker_0, # of connection points: 2
#     Edge 23, Type (0, 0), BuildingBlock: MIFKUJ_clean_linker_0, # of connection points: 2
#     Edge 24, Type (0, 0), BuildingBlock: MIFKUJ_clean_linker_0, # of connection points: 2
#     Edge 25, Type (0, 0), BuildingBlock: MIFKUJ_clean_linker_0, # of connection points: 2
#     Edge 26, Type (0, 0), BuildingBlock: MIFKUJ_clean_linker_0, # of connection points: 2
#     Edge 27, Type (0, 0), BuildingBlock: MIFKUJ_clean_linker_0, # of connection points: 2
#     Edge 28, Type (0, 0), BuildingBlock: MIFKUJ_clean_linker_0, # of connection points: 2
#     Edge 29, Type (0, 0), BuildingBlock: MIFKUJ_clean_linker_0, # of connection points: 2
#     Edge 30, Type (0, 0), BuildingBlock: MIFKUJ_clean_linker_0, # of connection points: 2
#     Edge 31, Type (0, 0), BuildingBlock: MIFKUJ_clean_linker_0, # of connection points: 2
#     Edge 32, Type (0, 0), BuildingBlock: MIFKUJ_clean_linker_0, # of connection points: 2
#     Edge 33, Type (0, 0), BuildingBlock: MIFKUJ_clean_linker_0, # of connection points: 2
#     Edge 34, Type (0, 0), BuildingBlock: MIFKUJ_clean_linker_0, # of connection points: 2
#     Edge 35, Type (0, 0), BuildingBlock: MIFKUJ_clean_linker_0, # of connection points: 2
#     Edge 36, Type (0, 0), BuildingBlock: MIFKUJ_clean_linker_0, # of connection points: 2
#     Edge 37, Type (0, 0), BuildingBlock: MIFKUJ_clean_linker_0, # of connection points: 2
#     Edge 38, Type (0, 0), BuildingBlock: MIFKUJ_clean_linker_0, # of connection points: 2
#     Edge 39, Type (0, 0), BuildingBlock: MIFKUJ_clean_linker_0, # of connection points: 2
#     Edge 40, Type (0, 0), BuildingBlock: MIFKUJ_clean_linker_0, # of connection points: 2
#     Edge 41, Type (0, 0), BuildingBlock: MIFKUJ_clean_linker_0, # of connection points: 2
#     Edge 42, Type (0, 0), BuildingBlock: MIFKUJ_clean_linker_0, # of connection points: 2
#     Edge 43, Type (0, 0), BuildingBlock: MIFKUJ_clean_linker_0, # of connection points: 2
#     Edge 44, Type (0, 0), BuildingBlock: MIFKUJ_clean_linker_0, # of connection points: 2
#     Edge 45, Type (0, 0), BuildingBlock: MIFKUJ_clean_linker_0, # of connection points: 2
#     Edge 46, Type (0, 0), BuildingBlock: MIFKUJ_clean_linker_0, # of connection points: 2
#     Edge 47, Type (0, 0), BuildingBlock: MIFKUJ_clean_linker_0, # of connection points: 2
#     Edge 48, Type (0, 0), BuildingBlock: MIFKUJ_clean_linker_0, # of connection points: 2
#     Edge 49, Type (0, 0), BuildingBlock: MIFKUJ_clean_linker_0, # of connection points: 2
#     Edge 50, Type (0, 0), BuildingBlock: MIFKUJ_clean_linker_0, # of connection points: 2
#     Edge 51, Type (0, 0), BuildingBlock: MIFKUJ_clean_linker_0, # of connection points: 2
#     Edge 52, Type (0, 0), BuildingBlock: MIFKUJ_clean_linker_0, # of connection points: 2
#     Edge 53, Type (0, 0), BuildingBlock: MIFKUJ_clean_linker_0, # of connection points: 2
#     Edge 54, Type (0, 0), BuildingBlock: MIFKUJ_clean_linker_0, # of connection points: 2
#     Edge 55, Type (0, 0), BuildingBlock: MIFKUJ_clean_linker_0, # of connection points: 2
#     Edge 56, Type (0, 0), BuildingBlock: MIFKUJ_clean_linker_0, # of connection points: 2
#     Edge 57, Type (0, 0), BuildingBlock: MIFKUJ_clean_linker_0, # of connection points: 2
#     Edge 58, Type (0, 0), BuildingBlock: MIFKUJ_clean_linker_0, # of connection points: 2
#     Edge 59, Type (0, 0), BuildingBlock: MIFKUJ_clean_linker_0, # of connection points: 2
#     Edge 60, Type (0, 0), BuildingBlock: MIFKUJ_clean_linker_0, # of connection points: 2
#     Edge 61, Type (0, 0), BuildingBlock: MIFKUJ_clean_linker_0, # of connection points: 2
#     Edge 62, Type (0, 0), BuildingBlock: MIFKUJ_clean_linker_0, # of connection points: 2
#     Edge 63, Type (0, 0), BuildingBlock: MIFKUJ_clean_linker_0, # of connection points: 2
# Relax obj value: 0.325
# Max RMSD: 0.335
# Mean RMSD: 0.235
data_MOF--net-crs--node1-GEDQOX_clean_sbu_0--edge1-MIFKUJ_clean_linker_0
_symmetry_space_group_name_H-M    P1
_symmetry_Int_Tables_number       1
_symmetry_cell_setting            triclinic
loop_
_symmetry_equiv_pos_as_xyz
'x, y, z'
_cell_length_a     47.970683
_cell_length_b     61.845182
_cell_length_c     78.383707
_cell_angle_alpha  93.440961
_cell_angle_beta   107.52638
_cell_angle_gamma 87.720546
loop_
_atom_site_label
_atom_site_type_symbol
_atom_site_fract_x
_atom_site_fract_y
_atom_site_fract_z
_atom_type_partial_charge
Nd0 Nd 0.03321 1.00039 0.99479 0.0
Nd1 Nd 0.99612 0.02574 0.01264 0.0
C2 C 0.06008 0.97496 0.976 0.0
C3 C 0.05906 0.95399 0.96607 0.0
C4 C 0.03249 0.94466 0.9562 0.0
C5 C 0.03243 0.92618 0.94499 0.0
C6 C 0.05893 0.91683 0.94355 0.0
C7 C 0.08545 0.92545 0.95441 0.0
C8 C 0.08547 0.9439 0.96554 0.0
C9 C 0.05974 0.00823 0.03097 0.0
C10 C 0.98244 0.97571 0.00576 0.0
C11 C 0.9733 0.05292 0.0325 0.0
C12 C 0.9814 0.07261 0.04432 0.0
C13 C 0.00746 0.07361 0.05861 0.0
C14 C 0.01367 0.09212 0.07017 0.0
C15 C 0.99403 0.11003 0.0676 0.0
C16 C 0.96855 0.10919 0.05284 0.0
C17 C 0.96226 0.09066 0.04141 0.0
C18 C 0.97017 0.01936 0.97608 0.0
C19 C 0.04693 0.05009 0.00216 0.0
O20 O 0.04032 0.98969 0.96894 0.0
O21 O 0.06611 0.97464 0.99335 0.0
O22 O 0.07264 0.01005 0.01882 0.0
O23 O 0.0336 1.0025 0.02399 0.0
O24 O 0.997 0.97625 0.99392 0.0
O25 O 0.98191 0.99234 0.01692 0.0
O26 O 0.98675 0.03473 0.03818 0.0
O27 O 0.96928 0.05504 0.01545 0.0
O28 O 0.95669 0.01778 0.98801 0.0
O29 O 0.99654 0.02428 0.98352 0.0
O30 O 0.03371 0.04873 0.01453 0.0
O31 O 0.04601 0.03415 0.99016 0.0
H32 H 0.01186 0.95211 0.95662 0.0
H33 H 0.01168 0.91971 0.93691 0.0
H34 H 0.10619 0.91879 0.95345 0.0
H35 H 0.10617 0.95088 0.97315 0.0
H36 H 0.02279 0.05997 0.06107 0.0
H37 H 0.03339 0.09209 0.08145 0.0
H38 H 0.95327 0.12283 0.05017 0.0
H39 H 0.94219 0.09033 0.03037 0.0
Nd40 Nd 0.00646 0.28467 0.24503 0.0
Nd41 Nd 0.05378 0.3109 0.23939 0.0
C42 C 0.959 0.27771 0.25386 0.0
C43 C 0.95626 0.27321 0.27143 0.0
C44 C 0.93192 0.28132 0.27631 0.0
C45 C 0.93177 0.28093 0.29408 0.0
C46 C 0.956 0.27246 0.30717 0.0
C47 C 0.97988 0.26359 0.30214 0.0
C48 C 0.98012 0.26411 0.2844 0.0
C49 C 0.05501 0.25729 0.2519 0.0
C50 C 0.05653 0.30673 0.27988 0.0
C51 C 0.09155 0.32994 0.22704 0.0
C52 C 0.10673 0.32466 0.21362 0.0
C53 C 0.10794 0.30332 0.20668 0.0
C54 C 0.11969 0.29888 0.19252 0.0
C55 C 0.13039 0.31573 0.18513 0.0
C56 C 0.12967 0.337 0.19246 0.0
C57 C 0.1179 0.34141 0.20658 0.0
C58 C 0.0046 0.33435 0.24168 0.0
C59 C 0.01928 0.27433 0.20834 0.0
O60 O 0.96831 0.29713 0.25315 0.0
O61 O 0.97174 0.26262 0.24616 0.0
O62 O 0.02954 0.25202 0.25266 0.0
O63 O 0.05447 0.27669 0.24738 0.0
O64 O 0.03031 0.29845 0.27331 0.0
O65 O 0.07242 0.31161 0.26965 0.0
O66 O 0.09941 0.31877 0.24148 0.0
O67 O 0.06321 0.33262 0.22056 0.0
O68 O 0.0311 0.33951 0.25049 0.0
O69 O 0.00459 0.3168 0.23244 0.0
O70 O 0.04365 0.28487 0.21608 0.0
O71 O 0.9976 0.27516 0.21544 0.0
H72 H 0.91363 0.2888 0.26656 0.0
H73 H 0.91305 0.28775 0.2977 0.0
H74 H -0.00115 0.25713 0.31205 0.0
H75 H -0.00054 0.25828 0.28099 0.0
H76 H 0.09928 0.29021 0.21196 0.0
H77 H 0.12019 0.28231 0.18727 0.0
H78 H 0.13729 0.35039 0.18689 0.0
H79 H 0.11678 0.358 0.21168 0.0
Nd80 Nd 0.72944 0.28978 0.5151 0.0
Nd81 Nd 0.76513 0.25457 0.49925 0.0
C82 C 0.70354 0.31222 0.53586 0.0
C83 C 0.68468 0.30725 0.54659 0.0
C84 C 0.67746 0.28576 0.54781 0.0
C85 C 0.65787 0.28125 0.55711 0.0
C86 C 0.64517 0.29821 0.56521 0.0
C87 C 0.65234 0.31972 0.56375 0.0
C88 C 0.67199 0.32419 0.55452 0.0
C89 C 0.72719 0.30154 0.48079 0.0
C90 C 0.69816 0.24385 0.49764 0.0
C91 C 0.79222 0.23292 0.47875 0.0
C92 C 0.81169 0.23846 0.46843 0.0
C93 C 0.8057 0.25635 0.45759 0.0
C94 C 0.82589 0.26237 0.44919 0.0
C95 C 0.85259 0.25078 0.45167 0.0
C96 C 0.85846 0.23295 0.46265 0.0
C97 C 0.83814 0.22682 0.47086 0.0
C98 C 0.76784 0.24221 0.53349 0.0
C99 C 0.79496 0.30171 0.51544 0.0
O100 O 0.73088 0.30538 0.54156 0.0
O101 O 0.69169 0.3089 0.51859 0.0
O102 O 0.71348 0.31168 0.49087 0.0
O103 O 0.74008 0.28495 0.48873 0.0
O104 O 0.6982 0.26146 0.50801 0.0
O105 O 0.71987 0.2388 0.49082 0.0
O106 O 0.76458 0.23907 0.47288 0.0
O107 O 0.80346 0.23587 0.49611 0.0
O108 O 0.78096 0.23238 0.52297 0.0
O109 O 0.75461 0.25907 0.52598 0.0
O110 O 0.79569 0.28369 0.50562 0.0
O111 O 0.77365 0.30633 0.5226 0.0
H112 H 0.68678 0.27253 0.54147 0.0
H113 H 0.65303 0.26451 0.55817 0.0
H114 H 0.64259 0.33313 0.56965 0.0
H115 H 0.677 0.34087 0.55338 0.0
H116 H 0.7856 0.2658 0.45574 0.0
H117 H 0.82038 0.27596 0.4406 0.0
H118 H 0.87894 0.22388 0.46512 0.0
H119 H 0.84335 0.2132 0.47945 0.0
Nd120 Nd 0.76151 0.0436 0.74966 0.0
Nd121 Nd 0.73297 1.00594 0.76676 0.0
C122 C 0.76696 0.0799 0.73389 0.0
C123 C 0.76682 0.09026 0.71678 0.0
C124 C 0.74254 0.10294 0.70743 0.0
C125 C 0.74302 0.11467 0.69259 0.0
C126 C 0.76787 0.11436 0.68642 0.0
C127 C 0.79208 0.1014 0.69568 0.0
C128 C 0.7916 0.08967 0.71058 0.0
C129 C 0.78689 1.00277 0.7459 0.0
C130 C 0.70802 0.01269 0.72365 0.0
C131 C 0.72312 0.97289 0.78485 0.0
C132 C 0.72743 0.96182 0.80225 0.0
C133 C 0.75227 0.94871 0.80999 0.0
C134 C 0.75413 0.9365 0.82506 0.0
C135 C 0.7311 0.93671 0.83292 0.0
C136 C 0.70646 0.95008 0.8252 0.0
C137 C 0.70468 0.9623 0.81024 0.0
C138 C 0.70313 0.04543 0.76226 0.0
C139 C 0.78872 0.03528 0.79279 0.0
O140 O 0.74215 0.07344 0.73545 0.0
O141 O 0.78921 0.06754 0.7422 0.0
O142 O 0.79436 0.02033 0.74025 0.0
O143 O 0.76671 0.00773 0.75274 0.0
O144 O 0.72305 0.03074 0.72637 0.0
O145 O 0.71022 0.99885 0.73641 0.0
O146 O 0.74398 0.97256 0.77717 0.0
O147 O 0.70701 0.99066 0.78195 0.0
O148 O 0.6911 0.02661 0.76045 0.0
O149 O 0.73095 0.0432 0.76728 0.0
O150 O 0.77005 0.01938 0.79064 0.0
O151 O 0.78931 0.04771 0.77959 0.0
H152 H 0.72321 0.10427 0.71187 0.0
H153 H 0.72399 0.12456 0.68632 0.0
H154 H 0.81161 0.10024 0.69146 0.0
H155 H 0.81093 0.08038 0.7174 0.0
H156 H 0.77019 0.94757 0.80423 0.0
H157 H 0.77377 0.92683 0.8305 0.0
H158 H 0.68784 0.95067 0.83031 0.0
H159 H 0.68488 0.97173 0.80456 0.0
Nd160 Nd 0.44361 0.73609 0.28105 0.0
Nd161 Nd 0.48324 0.76512 0.26838 0.0
C162 C 0.39998 0.72027 0.28995 0.0
C163 C 0.38378 0.7265 0.30267 0.0
C164 C 0.38451 0.74777 0.31006 0.0
C165 C 0.37329 0.75265 0.3244 0.0
C166 C 0.3615 0.73625 0.33168 0.0
C167 C 0.35995 0.71513 0.32374 0.0
C168 C 0.37098 0.71034 0.30935 0.0
C169 C 0.49384 0.71168 0.28046 0.0
C170 C 0.4811 0.77213 0.3101 0.0
C171 C 0.52586 0.78466 0.26101 0.0
C172 C 0.53676 0.78402 0.24529 0.0
C173 C 0.54798 0.76471 0.23924 0.0
C174 C 0.55433 0.76364 0.22296 0.0
C175 C 0.54931 0.78177 0.21236 0.0
C176 C 0.53966 0.80139 0.21893 0.0
C177 C 0.53349 0.8025 0.23526 0.0
C178 C 0.42709 0.78176 0.26305 0.0
C179 C 0.44164 0.73222 0.23937 0.0
O180 O 0.39597 0.7323 0.27613 0.0
O181 O 0.42744 0.71498 0.29748 0.0
O182 O 0.47281 0.70474 0.28565 0.0
O183 O 0.48801 0.73111 0.2764 0.0
O184 O 0.4609 0.7573 0.30661 0.0
O185 O 0.49417 0.77684 0.29817 0.0
O186 O 0.53007 0.76722 0.27024 0.0
O187 O 0.49974 0.79334 0.25859 0.0
O188 O 0.44133 0.78166 0.25132 0.0
O189 O 0.44262 0.77245 0.27686 0.0
O190 O 0.46694 0.74202 0.24383 0.0
O191 O 0.42631 0.73063 0.25061 0.0
H192 H 0.39472 0.76041 0.30519 0.0
H193 H 0.37449 0.76912 0.33004 0.0
H194 H 0.35153 0.70202 0.32916 0.0
H195 H 0.37073 0.69376 0.30398 0.0
H196 H 0.55075 0.75016 0.24665 0.0
H197 H 0.5616 0.74826 0.21823 0.0
H198 H 0.53624 0.81577 0.21125 0.0
H199 H 0.52512 0.81762 0.23973 0.0
Nd200 Nd 0.22103 0.77862 0.49151 0.0
Nd201 Nd 0.26881 0.77176 0.52518 0.0
C202 C 0.18795 0.79251 0.46091 0.0
C203 C 0.18878 0.81416 0.45441 0.0
C204 C 0.2155 0.82229 0.45407 0.0
C205 C 0.21816 0.84423 0.45217 0.0
C206 C 0.19431 0.85864 0.45082 0.0
C207 C 0.16729 0.8504 0.45062 0.0
C208 C 0.16453 0.82831 0.4523 0.0
C209 C 0.20568 0.78678 0.52221 0.0
C210 C 0.26858 0.81669 0.5088 0.0
C211 C 0.30081 0.75914 0.55645 0.0
C212 C 0.3066 0.73642 0.56139 0.0
C213 C 0.28542 0.72518 0.56614 0.0
C214 C 0.28718 0.70275 0.5667 0.0
C215 C 0.31029 0.69096 0.56269 0.0
C216 C 0.33223 0.70224 0.55873 0.0
C217 C 0.33046 0.72478 0.55816 0.0
C218 C 0.28531 0.76279 0.49506 0.0
C219 C 0.22173 0.7327 0.50667 0.0
O220 O 0.21088 0.77978 0.46204 0.0
O221 O 0.17909 0.79254 0.4751 0.0
O222 O 0.18964 0.77599 0.50828 0.0
O223 O 0.22877 0.79292 0.5197 0.0
O224 O 0.2527 0.80664 0.49395 0.0
O225 O 0.27355 0.80808 0.5244 0.0
O226 O 0.27373 0.76617 0.55357 0.0
O227 O 0.31227 0.76498 0.54431 0.0
O228 O 0.30176 0.77252 0.50945 0.0
O229 O 0.26139 0.75734 0.49696 0.0
O230 O 0.24065 0.74105 0.52136 0.0
O231 O 0.21306 0.74302 0.49175 0.0
H232 H 0.23479 0.81188 0.45602 0.0
H233 H 0.23905 0.84987 0.45183 0.0
H234 H 0.14848 0.86106 0.44966 0.0
H235 H 0.14388 0.82245 0.45292 0.0
H236 H 0.26677 0.73358 0.56877 0.0
H237 H 0.27049 0.6947 0.57052 0.0
H238 H 0.3505 0.69366 0.5558 0.0
H239 H 0.34714 0.73299 0.55444 0.0
Nd240 Nd 0.26735 0.53874 0.75558 0.0
Nd241 Nd 0.21987 0.51055 0.76184 0.0
C242 C 0.29228 0.57239 0.74811 0.0
C243 C 0.30117 0.57672 0.73239 0.0
C244 C 0.28995 0.59531 0.72305 0.0
C245 C 0.29235 0.59741 0.70596 0.0
C246 C 0.30632 0.58102 0.69814 0.0
C247 C 0.31903 0.56302 0.7079 0.0
C248 C 0.31627 0.56077 0.72488 0.0
C249 C 0.28481 0.49551 0.75311 0.0
C250 C 0.2147 0.51868 0.72082 0.0
C251 C 0.1917 0.48235 0.77346 0.0
C252 C 0.20112 0.47273 0.79094 0.0
C253 C 0.23015 0.46509 0.79808 0.0
C254 C 0.24097 0.46064 0.81615 0.0
C255 C 0.22305 0.46421 0.82723 0.0
C256 C 0.19388 0.47117 0.82002 0.0
C257 C 0.18294 0.4753 0.80195 0.0
C258 C 0.20483 0.55364 0.75736 0.0
C259 C 0.27535 0.52704 0.79654 0.0
O260 O 0.26393 0.57116 0.74483 0.0
O261 O 0.30714 0.55729 0.7584 0.0
O262 O 0.29972 0.51166 0.75096 0.0
O263 O 0.26173 0.50286 0.75609 0.0
O264 O 0.23558 0.53308 0.7269 0.0
O265 O 0.20678 0.50609 0.73148 0.0
O266 O 0.20686 0.47673 0.76244 0.0
O267 O 0.1861 0.5032 0.77434 0.0
O268 O 0.18696 0.53795 0.75064 0.0
O269 O 0.22945 0.54626 0.76653 0.0
O270 O 0.25342 0.51359 0.79013 0.0
O271 O 0.28328 0.54 0.78615 0.0
H272 H 0.27798 0.60762 0.72859 0.0
H273 H 0.28277 0.61158 0.6987 0.0
H274 H 0.32989 0.55023 0.70205 0.0
H275 H 0.3247 0.54609 0.73171 0.0
H276 H 0.24486 0.46341 0.78993 0.0
H277 H 0.26343 0.45505 0.82158 0.0
H278 H 0.17961 0.47346 0.82842 0.0
H279 H 0.1607 0.48149 0.79676 0.0
Nd280 Nd 0.0338 0.49727 0.49708 0.0
Nd281 Nd 0.99278 0.52834 0.51264 0.0
C282 C 0.05903 0.46938 0.4793 0.0
C283 C 0.05325 0.45033 0.46682 0.0
C284 C 0.02682 0.44835 0.45297 0.0
C285 C 0.02347 0.43147 0.43992 0.0
C286 C 0.04642 0.41637 0.4406 0.0
C287 C 0.07208 0.41763 0.45512 0.0
C288 C 0.07548 0.43455 0.46812 0.0
C289 C 0.0554 0.50727 0.53315 0.0
C290 C 0.97608 0.47746 0.50546 0.0
C291 C 0.97124 0.55374 0.53418 0.0
C292 C 0.9808 0.572 0.54748 0.0
C293 C 0.00375 0.56972 0.56346 0.0
C294 C 0.01173 0.58731 0.57589 0.0
C295 C 0.99712 0.60749 0.57247 0.0
C296 C 0.97461 0.60981 0.55635 0.0
C297 C 0.96644 0.59222 0.54405 0.0
C298 C 0.971 0.52568 0.47541 0.0
C299 C 0.04985 0.54778 0.50452 0.0
O300 O 0.04718 0.48788 0.47305 0.0
O301 O 0.05877 0.46663 0.49567 0.0
O302 O 0.07128 0.5049 0.52237 0.0
O303 O 0.02881 0.50378 0.52479 0.0
O304 O 0.99766 0.47431 0.4982 0.0
O305 O 0.96995 0.49654 0.5122 0.0
O306 O 0.98255 0.53443 0.53835 0.0
O307 O 0.96827 0.55787 0.51757 0.0
O308 O 0.95866 0.53705 0.48564 0.0
O309 O 0.99343 0.5163 0.48506 0.0
O310 O 0.03215 0.54929 0.5146 0.0
O311 O 0.05126 0.53034 0.49418 0.0
H312 H 0.00925 0.46025 0.45188 0.0
H313 H 0.00334 0.4306 0.42897 0.0
H314 H 0.09016 0.40629 0.45586 0.0
H315 H 0.09597 0.43583 0.47879 0.0
H316 H 0.0154 0.55439 0.56643 0.0
H317 H 0.02928 0.58514 0.58819 0.0
H318 H 0.96272 0.62509 0.55348 0.0
H319 H 0.94864 0.59438 0.53186 0.0
Nd320 Nd 0.22838 0.28103 0.99564 0.0
Nd321 Nd 0.27979 0.26565 0.02484 0.0
C322 C 0.18364 0.29109 0.96801 0.0
C323 C 0.17094 0.31219 0.96212 0.0
C324 C 0.18496 0.3309 0.97102 0.0
C325 C 0.17705 0.35093 0.96363 0.0
C326 C 0.15487 0.35256 0.94722 0.0
C327 C 0.13877 0.33403 0.9394 0.0
C328 C 0.147 0.31386 0.94674 0.0
C329 C 0.22767 0.29462 0.0295 0.0
C330 C 0.28124 0.3133 0.01219 0.0
C331 C 0.31811 0.24896 0.0527 0.0
C332 C 0.31778 0.22827 0.06073 0.0
C333 C 0.29141 0.22084 0.06218 0.0
C334 C 0.28866 0.1991 0.06478 0.0
C335 C 0.31199 0.18431 0.06559 0.0
C336 C 0.33899 0.19202 0.06532 0.0
C337 C 0.34185 0.21392 0.06292 0.0
C338 C 0.28852 0.26343 0.99188 0.0
C339 C 0.22699 0.23175 0.00786 0.0
O340 O 0.21021 0.28762 0.96698 0.0
O341 O 0.18067 0.28553 0.98317 0.0
O342 O 0.22125 0.30721 0.01618 0.0
O343 O 0.23439 0.2759 0.0247 0.0
O344 O 0.26277 0.30623 0.9969 0.0
O345 O 0.28669 0.30222 0.02673 0.0
O346 O 0.29862 0.2638 0.05433 0.0
O347 O 0.32016 0.24665 0.03647 0.0
O348 O 0.30797 0.26998 0.00646 0.0
O349 O 0.26539 0.25806 0.99482 0.0
O350 O 0.2518 0.23539 0.02056 0.0
O351 O 0.21474 0.24622 0.99605 0.0
H352 H 0.20346 0.32979 0.983 0.0
H353 H 0.19025 0.36467 0.96996 0.0
H354 H 0.12126 0.33485 0.92692 0.0
H355 H 0.13579 0.29949 0.93988 0.0
H356 H 0.27235 0.23149 0.06025 0.0
H357 H 0.2679 0.19378 0.06565 0.0
H358 H 0.35744 0.18101 0.06618 0.0
H359 H 0.36225 0.21936 0.06156 0.0
Nd360 Nd 0.27123 0.03625 0.25711 0.0
Nd361 Nd 0.22481 0.00939 0.2595 0.0
C362 C 0.30317 0.06577 0.24955 0.0
C363 C 0.30055 0.0756 0.23262 0.0
C364 C 0.27291 0.08169 0.22137 0.0
C365 C 0.26949 0.08636 0.20371 0.0
C366 C 0.29357 0.08483 0.19702 0.0
C367 C 0.32148 0.07998 0.2086 0.0
C368 C 0.32493 0.07541 0.22631 0.0
C369 C 0.28804 0.99309 0.25998 0.0
C370 C 0.22146 0.01951 0.21985 0.0
C371 C 0.19196 0.98088 0.26753 0.0
C372 C 0.19192 0.97377 0.28509 0.0
C373 C 0.21648 0.96293 0.29611 0.0
C374 C 0.21928 0.96082 0.31414 0.0
C375 C 0.19765 0.96953 0.32145 0.0
C376 C 0.17212 0.97889 0.31014 0.0
C377 C 0.16924 0.98091 0.29207 0.0
C378 C 0.2086 0.05271 0.25655 0.0
C379 C 0.27498 0.02516 0.29672 0.0
O380 O 0.28234 0.0706 0.25681 0.0
O381 O 0.31011 0.04514 0.2497 0.0
O382 O 0.3042 0.00895 0.26855 0.0
O383 O 0.26379 1.00017 0.25007 0.0
O384 O 0.23998 0.03496 0.22777 0.0
O385 O 0.21502 1.00478 0.22937 0.0
O386 O 0.21493 0.97538 0.26243 0.0
O387 O 0.18366 1.00103 0.26452 0.0
O388 O 0.19254 0.03699 0.24765 0.0
O389 O 0.23248 0.0454 0.2667 0.0
O390 O 0.25552 0.0104 0.28879 0.0
O391 O 0.28276 0.03954 0.28748 0.0
H392 H 0.25367 0.0818 0.22589 0.0
H393 H 0.24785 0.0905 0.19514 0.0
H394 H 0.34038 0.07862 0.20373 0.0
H395 H 0.34632 0.0705 0.23477 0.0
H396 H 0.23425 0.95703 0.29111 0.0
H397 H 0.23878 0.95293 0.32247 0.0
H398 H 0.15505 0.98565 0.31542 0.0
H399 H 0.15007 0.98925 0.28382 0.0
Nd400 Nd 0.44054 0.23827 0.77677 0.0
Nd401 Nd 0.4861 0.26658 0.76856 0.0
C402 C 0.39474 0.22321 0.78377 0.0
C403 C 0.37919 0.22876 0.79698 0.0
C404 C 0.37642 0.25033 0.80311 0.0
C405 C 0.36676 0.25485 0.81812 0.0
C406 C 0.36039 0.23784 0.82733 0.0
C407 C 0.36214 0.21638 0.82079 0.0
C408 C 0.37131 0.21189 0.80566 0.0
C409 C 0.49119 0.2128 0.77847 0.0
C410 C 0.47909 0.27085 0.80885 0.0
C411 C 0.52995 0.28553 0.76229 0.0
C412 C 0.53599 0.28866 0.74526 0.0
C413 C 0.56181 0.27989 0.74257 0.0
C414 C 0.56579 0.27953 0.72564 0.0
C415 C 0.54404 0.28804 0.71107 0.0
C416 C 0.51878 0.29775 0.71399 0.0
C417 C 0.5147 0.29794 0.73089 0.0
C418 C 0.43051 0.28519 0.76005 0.0
C419 C 0.44567 0.23533 0.7369 0.0
O420 O 0.39234 0.2367 0.77106 0.0
O421 O 0.42146 0.21592 0.79078 0.0
O422 O 0.46787 0.20574 0.78107 0.0
O423 O 0.48661 0.23251 0.77528 0.0
O424 O 0.45606 0.25848 0.80301 0.0
O425 O 0.49627 0.27429 0.79892 0.0
O426 O 0.53142 0.26542 0.76687 0.0
O427 O 0.50753 0.29633 0.765 0.0
O428 O 0.4474 0.2844 0.7498 0.0
O429 O 0.44276 0.27487 0.77401 0.0
O430 O 0.47176 0.24385 0.74351 0.0
O431 O 0.42709 0.23467 0.74624 0.0
H432 H 0.38298 0.26356 0.79681 0.0
H433 H 0.3657 0.27151 0.82307 0.0
H434 H 0.35719 0.20306 0.82769 0.0
H435 H 0.37371 0.19515 0.80126 0.0
H436 H 0.57834 0.27242 0.75339 0.0
H437 H 0.5853 0.27161 0.72379 0.0
H438 H 0.50179 0.30466 0.7031 0.0
H439 H 0.49439 0.30467 0.7325 0.0
Nd440 Nd 0.0178 0.78427 0.75 0.0
Nd441 Nd 0.05076 0.8123 0.73655 0.0
C442 C 0.97744 0.76318 0.75846 0.0
C443 C 0.96777 0.76331 0.77465 0.0
C444 C 0.94796 0.77927 0.77778 0.0
C445 C 0.94169 0.78084 0.79408 0.0
C446 C 0.95522 0.76657 0.80763 0.0
C447 C 0.97371 0.74985 0.80404 0.0
C448 C 0.97986 0.74822 0.78773 0.0
C449 C 0.0731 0.76684 0.75367 0.0
C450 C 0.05946 0.81547 0.77959 0.0
C451 C 0.08945 0.83418 0.72707 0.0
C452 C 0.10525 0.8292 0.71384 0.0
C453 C 0.1123 0.80765 0.70975 0.0
C454 C 0.12447 0.80275 0.69584 0.0
C455 C 0.12946 0.81927 0.6856 0.0
C456 C 0.12285 0.84089 0.69001 0.0
C457 C 0.11088 0.84579 0.70402 0.0
C458 C 0.99588 0.82991 0.73535 0.0
C459 C 0.01658 0.77627 0.70819 0.0
O460 O 0.97164 0.78062 0.74922 0.0
O461 O 0.00375 0.75531 0.76013 0.0
O462 O 0.06029 0.76769 0.76609 0.0
O463 O 0.05692 0.77591 0.73995 0.0
O464 O 0.03584 0.80393 0.77613 0.0
O465 O 0.07093 0.8198 0.76692 0.0
O466 O 0.09639 0.82229 0.74106 0.0
O467 O 0.06125 0.83715 0.72033 0.0
O468 O 0.00681 0.82946 0.72211 0.0
O469 O 0.01336 0.82061 0.74834 0.0
O470 O 0.03982 0.78827 0.71254 0.0
O471 O 0.00163 0.77451 0.71964 0.0
H472 H 0.93803 0.79104 0.76791 0.0
H473 H 0.92729 0.79388 0.79632 0.0
H474 H 0.98365 0.73807 0.81389 0.0
H475 H 0.99475 0.73546 0.78557 0.0
H476 H 0.10779 0.79453 0.71703 0.0
H477 H 0.12965 0.78597 0.69301 0.0
H478 H 0.12594 0.85399 0.68223 0.0
H479 H 0.10518 0.86247 0.70683 0.0
Nd480 Nd 0.76135 0.5428 0.2492 0.0
Nd481 Nd 0.7324 0.50218 0.2657 0.0
C482 C 0.76812 0.57944 0.23432 0.0
C483 C 0.76924 0.58971 0.21746 0.0
C484 C 0.74366 0.59387 0.20329 0.0
C485 C 0.74444 0.60573 0.18857 0.0
C486 C 0.7708 0.61408 0.18741 0.0
C487 C 0.79645 0.60953 0.20146 0.0
C488 C 0.79566 0.59766 0.21618 0.0
C489 C 0.78495 0.50157 0.24396 0.0
C490 C 0.70376 0.51503 0.22343 0.0
C491 C 0.72735 0.46544 0.28106 0.0
C492 C 0.72845 0.45517 0.29841 0.0
C493 C 0.7531 0.44273 0.30762 0.0
C494 C 0.75342 0.43116 0.32271 0.0
C495 C 0.72903 0.4314 0.32933 0.0
C496 C 0.70447 0.44417 0.32023 0.0
C497 C 0.70415 0.45572 0.30508 0.0
C498 C 0.70797 0.54313 0.27091 0.0
C499 C 0.78913 0.53063 0.29171 0.0
O500 O 0.74295 0.57274 0.23507 0.0
O501 O 0.79012 0.56717 0.24311 0.0
O502 O 0.79257 0.51924 0.23854 0.0
O503 O 0.76495 0.50667 0.25092 0.0
O504 O 0.72015 0.53249 0.22681 0.0
O505 O 0.70666 0.49955 0.23512 0.0
O506 O 0.75182 0.47168 0.27887 0.0
O507 O 0.70504 0.47808 0.27327 0.0
O508 O 0.70057 0.52509 0.27591 0.0
O509 O 0.72844 0.53861 0.26409 0.0
O510 O 0.77249 0.51334 0.28838 0.0
O511 O 0.78698 0.54566 0.27976 0.0
H512 H 0.72274 0.5884 0.20373 0.0
H513 H 0.72402 0.60891 0.17835 0.0
H514 H 0.81736 0.61519 0.20119 0.0
H515 H 0.81581 0.59508 0.22681 0.0
H516 H 0.77212 0.44145 0.30286 0.0
H517 H 0.77271 0.42144 0.32884 0.0
H518 H 0.68526 0.44533 0.32477 0.0
H519 H 0.68455 0.46484 0.29842 0.0
Nd520 Nd 0.73756 0.7896 0.01794 0.0
Nd521 Nd 0.76326 0.75568 0.00059 0.0
C522 C 0.71351 0.81108 0.04015 0.0
C523 C 0.69555 0.80457 0.05097 0.0
C524 C 0.69566 0.78289 0.05537 0.0
C525 C 0.67573 0.77624 0.06369 0.0
C526 C 0.65528 0.79115 0.06752 0.0
C527 C 0.65546 0.81287 0.06319 0.0
C528 C 0.67545 0.81951 0.05495 0.0
C529 C 0.73096 0.80538 0.98411 0.0
C530 C 0.69766 0.74834 0.99817 0.0
C531 C 0.7956 0.73183 0.98453 0.0
C532 C 0.81596 0.73805 0.97518 0.0
C533 C 0.81704 0.75978 0.97133 0.0
C534 C 0.83682 0.76613 0.96288 0.0
C535 C 0.8555 0.75074 0.95775 0.0
C536 C 0.85461 0.72895 0.96184 0.0
C537 C 0.83503 0.72268 0.9706 0.0
C538 C 0.75914 0.74272 0.03305 0.0
C539 C 0.79976 0.80053 0.01607 0.0
O540 O 0.74093 0.8045 0.04493 0.0
O541 O 0.70083 0.80874 0.02293 0.0
O542 O 0.72243 0.8151 0.99674 0.0
O543 O 0.74299 0.78721 0.98921 0.0
O544 O 0.7036 0.76282 0.01167 0.0
O545 O 0.71574 0.74526 0.98846 0.0
O546 O 0.76803 0.73671 0.97674 0.0
O547 O 0.80385 0.73682 0.00174 0.0
O548 O 0.75285 0.73108 0.01824 0.0
O549 O 0.76756 0.7613 0.0306 0.0
O550 O 0.79513 0.78387 0.0044 0.0
O551 O 0.7821 0.80508 0.02574 0.0
H552 H 0.71069 0.77104 0.05202 0.0
H553 H 0.676 0.75941 0.06689 0.0
H554 H 0.64028 0.82476 0.0663 0.0
H555 H 0.67485 0.83621 0.05136 0.0
H556 H 0.80239 0.77186 0.97471 0.0
H557 H 0.83716 0.78306 0.96013 0.0
H558 H 0.86836 0.71664 0.95779 0.0
H559 H 0.83451 0.70584 0.97358 0.0
Nd560 Nd 0.50104 0.02072 0.50453 0.0
Nd561 Nd 0.46275 0.04765 0.52008 0.0
C562 C 0.52697 0.99261 0.48708 0.0
C563 C 0.51931 0.97431 0.47388 0.0
C564 C 0.49011 0.97008 0.46418 0.0
C565 C 0.48358 0.95288 0.45125 0.0
C566 C 0.50617 0.93982 0.44782 0.0
C567 C 0.53528 0.94393 0.45791 0.0
C568 C 0.54176 0.96102 0.47081 0.0
C569 C 0.52524 0.02902 0.54108 0.0
C570 C 0.44413 0.99855 0.51041 0.0
C571 C 0.4364 0.07394 0.53853 0.0
C572 C 0.4396 0.09431 0.54931 0.0
C573 C 0.46715 0.10304 0.55785 0.0
C574 C 0.46954 0.12148 0.56937 0.0
C575 C 0.44441 0.13139 0.5724 0.0
C576 C 0.41681 0.12313 0.56306 0.0
C577 C 0.41447 0.10472 0.55162 0.0
C578 C 0.43817 0.03954 0.48388 0.0
C579 C 0.51444 0.07118 0.50897 0.0
O580 O 0.51727 0.01172 0.4814 0.0
O581 O 0.52485 0.98954 0.50297 0.0
O582 O 0.53925 0.02978 0.52938 0.0
O583 O 0.4989 0.02404 0.5334 0.0
O584 O 0.46207 0.99841 0.50056 0.0
O585 O 0.44319 0.01504 0.52166 0.0
O586 O 0.45353 0.05769 0.54545 0.0
O587 O 0.43271 0.07537 0.52145 0.0
O588 O 0.42374 0.04028 0.49545 0.0
O589 O 0.46474 0.04395 0.49133 0.0
O590 O 0.49833 0.07192 0.52003 0.0
O591 O 0.51643 0.05334 0.49933 0.0
H592 H 0.47247 0.98019 0.46646 0.0
H593 H 0.46102 0.95012 0.44365 0.0
H594 H 0.55312 0.9339 0.45582 0.0
H595 H 0.56438 0.96398 0.47829 0.0
H596 H 0.48675 0.09525 0.55601 0.0
H597 H 0.49105 0.12762 0.57631 0.0
H598 H 0.3971 0.13016 0.56533 0.0
H599 H 0.39305 0.09816 0.54504 0.0
Nd600 Nd 0.50107 0.5223 0.00045 0.0
Nd601 Nd 0.46324 0.55103 0.02073 0.0
C602 C 0.51553 0.5003 0.97429 0.0
C603 C 0.51052 0.47866 0.9649 0.0
C604 C 0.48615 0.47535 0.9497 0.0
C605 C 0.48207 0.45534 0.94018 0.0
C606 C 0.50236 0.43818 0.94554 0.0
C607 C 0.52648 0.44135 0.9609 0.0
C608 C 0.53056 0.4614 0.97046 0.0
C609 C 0.52736 0.52179 0.0374 0.0
C610 C 0.45149 0.49972 0.01431 0.0
C611 C 0.44002 0.57713 0.0408 0.0
C612 C 0.44498 0.59681 0.05263 0.0
C613 C 0.47096 0.59974 0.06672 0.0
C614 C 0.47318 0.61713 0.07925 0.0
C615 C 0.44949 0.6318 0.07783 0.0
C616 C 0.42433 0.62956 0.06302 0.0
C617 C 0.42211 0.61219 0.05055 0.0
C618 C 0.43696 0.54104 0.98502 0.0
C619 C 0.51573 0.57353 0.00873 0.0
O620 O 0.49276 0.51343 0.97171 0.0
O621 O 0.53268 0.50148 0.99083 0.0
O622 O 0.53749 0.51097 0.02574 0.0
O623 O 0.5043 0.5317 0.0291 0.0
O624 O 0.46607 0.49916 0.00239 0.0
O625 O 0.4511 0.51686 0.02518 0.0
O626 O 0.45557 0.55968 0.0467 0.0
O627 O 0.43556 0.57963 0.02371 0.0
O628 O 0.42321 0.54175 0.99698 0.0
O629 O 0.46331 0.54629 0.99204 0.0
O630 O 0.49774 0.57499 0.01874 0.0
O631 O 0.51971 0.55548 -0.00025 0.0
H632 H 0.47043 0.48835 0.94491 0.0
H633 H 0.46354 0.45357 0.92823 0.0
H634 H 0.54236 0.42838 0.96545 0.0
H635 H 0.54962 0.46344 0.98206 0.0
H636 H 0.48903 0.58816 0.06846 0.0
H637 H 0.49293 0.61859 0.09046 0.0
H638 H 0.40556 0.64039 0.06168 0.0
H639 H 0.40191 0.61018 0.03974 0.0
H640 H 0.95365 0.13354 0.07968 0.0
H641 H 0.96189 0.16386 0.10174 0.0
H642 H 0.05435 0.15967 0.10799 0.0
H643 H 0.04623 0.12946 0.08548 0.0
H644 H 0.0435 0.16181 0.13988 0.0
H645 H 0.01503 0.20238 0.08793 0.0
H646 H 0.98535 0.213 0.05796 0.0
H647 H 0.91167 0.22665 0.07754 0.0
H648 H 0.94079 0.21583 0.1076 0.0
H649 H 0.06498 0.25942 0.19654 0.0
H650 H 0.0642 0.23231 0.17244 0.0
H651 H 0.97105 0.22668 0.16133 0.0
H652 H 0.97162 0.25375 0.18558 0.0
H653 H 0.9875 0.23151 0.13088 0.0
H654 H 0.01446 0.18386 0.18094 0.0
H655 H 0.04305 0.16791 0.20921 0.0
H656 H 0.12049 0.16739 0.19246 0.0
H657 H 0.09215 0.18292 0.16392 0.0
C658 C 0.9757 0.13931 0.08539 0.0
C659 C -0.00075 0.12907 0.08066 0.0
C660 C 0.98037 0.15667 0.09806 0.0
C661 C 0.00867 0.16424 0.10635 0.0
C662 C 0.0323 0.15414 0.1017 0.0
C663 C 0.02763 0.13679 0.08891 0.0
C664 C 0.01349 0.18173 0.1207 0.0
C665 C 0.0318 0.17728 0.13782 0.0
C666 C 0.99778 0.20173 0.11808 0.0
C667 C 0.98005 0.20812 0.1 0.0
C668 C 0.99242 0.20746 0.08582 0.0
C669 C 0.97571 0.21356 0.06881 0.0
C670 C 0.94662 0.22045 0.06584 0.0
C671 C 0.9342 0.22129 0.07986 0.0
C672 C 0.95082 0.21521 0.0969 0.0
C673 C 0.04423 0.25258 0.18891 0.0
C674 C 0.01826 0.25896 0.19289 0.0
C675 C 0.04393 0.23686 0.17526 0.0
C676 C 0.01763 0.22731 0.1652 0.0
C677 C 0.99162 0.2338 0.16898 0.0
C678 C 0.99195 0.24933 0.1828 0.0
C679 C 0.01695 0.21134 0.15016 0.0
C680 C -0.00049 0.21617 0.13288 0.0
C681 C 0.03366 0.19176 0.15259 0.0
C682 C 0.05131 0.18483 0.17045 0.0
C683 C 0.03768 0.18067 0.18342 0.0
C684 C 0.05376 0.17146 0.19938 0.0
C685 C 0.08358 0.16663 0.20262 0.0
C686 C 0.09741 0.17112 0.18994 0.0
C687 C 0.08132 0.18004 0.17384 0.0
H688 H 0.09598 0.15942 0.21496 0.0
H689 H 0.93373 0.22518 0.05266 0.0
H690 H 0.88642 0.22358 0.43684 0.0
H691 H 0.91697 0.23311 0.41878 0.0
H692 H 0.89644 0.30082 0.42643 0.0
H693 H 0.86658 0.29154 0.44521 0.0
H694 H 0.88141 0.2856 0.39087 0.0
H695 H 0.96536 0.28459 0.44236 0.0
H696 H -0.0003 0.27019 0.46966 0.0
H697 H 0.01902 0.21499 0.43891 0.0
H698 H 0.98449 0.22888 0.41144 0.0
H699 H 0.947 0.30822 0.32683 0.0
H700 H 0.94329 0.3099 0.35729 0.0
H701 H 0.96153 0.24112 0.36042 0.0
H702 H 0.96683 0.23962 0.33018 0.0
H703 H 0.98303 0.26287 0.39357 0.0
H704 H 0.88906 0.25588 0.34717 0.0
H705 H 0.85511 0.26639 0.3182 0.0
H706 H 0.8557 0.3325 0.3384 0.0
H707 H 0.88897 0.32221 0.36771 0.0
C708 C 0.88908 0.24057 0.43523 0.0
C709 C 0.87371 0.25678 0.44234 0.0
C710 C 0.90664 0.24598 0.42489 0.0
C711 C 0.90906 0.26766 0.42137 0.0
C712 C 0.89487 0.28399 0.42907 0.0
C713 C 0.87754 0.27861 0.4396 0.0
C714 C 0.92244 0.27274 0.40744 0.0
C715 C 0.90391 0.28124 0.39172 0.0
C716 C 0.95146 0.26626 0.4083 0.0
C717 C 0.97215 0.25774 0.42483 0.0
C718 C 0.97672 0.26928 0.44142 0.0
C719 C 0.99628 0.26123 0.45694 0.0
C720 C 0.0115 0.24167 0.45603 0.0
C721 C 0.00722 0.23014 0.4396 0.0
C722 C 0.98768 0.23812 0.42404 0.0
C723 C 0.95081 0.29357 0.33417 0.0
C724 C 0.95669 0.27372 0.32614 0.0
C725 C 0.94878 0.29454 0.35156 0.0
C726 C 0.95156 0.27556 0.36094 0.0
C727 C 0.95933 0.25595 0.35339 0.0
C728 C 0.96208 0.25506 0.33611 0.0
C729 C 0.9419 0.27557 0.37717 0.0
C730 C 0.96088 0.26783 0.39309 0.0
C731 C 0.9131 0.28226 0.37651 0.0
C732 C 0.89137 0.2883 0.35954 0.0
C733 C 0.88161 0.27261 0.34547 0.0
C734 C 0.86248 0.27851 0.32903 0.0
C735 C 0.85311 0.30009 0.32652 0.0
C736 C 0.86271 0.31576 0.34047 0.0
C737 C 0.88151 0.30989 0.35704 0.0
H738 H 0.8385 0.30468 0.31373 0.0
H739 H 0.02664 0.23547 0.46805 0.0
H740 H 0.81509 0.13396 0.68017 0.0
H741 H 0.81579 0.15573 0.65529 0.0
H742 H 0.72297 0.14808 0.63206 0.0
H743 H 0.72229 0.12547 0.65641 0.0
H744 H 0.74654 0.14502 0.60614 0.0
H745 H 0.75832 0.19732 0.65643 0.0
H746 H 0.78324 0.21183 0.68703 0.0
H747 H 0.86281 0.2169 0.67329 0.0
H748 H 0.83844 0.2022 0.64267 0.0
H749 H 0.72911 0.24791 0.55444 0.0
H750 H 0.72968 0.22738 0.58073 0.0
H751 H 0.80913 0.19432 0.57854 0.0
H752 H 0.80874 0.21439 0.55262 0.0
H753 H 0.79118 0.21742 0.61659 0.0
H754 H 0.78188 0.16286 0.56746 0.0
H755 H 0.75991 0.14476 0.53792 0.0
H756 H 0.67963 0.13833 0.55052 0.0
H757 H 0.70061 0.15771 0.57975 0.0
C758 C 0.79475 0.13661 0.66974 0.0
C759 C 0.76857 0.12774 0.67074 0.0
C760 C 0.79512 0.14949 0.65548 0.0
C761 C 0.76931 0.15426 0.64166 0.0
C762 C 0.7433 0.14506 0.64243 0.0
C763 C 0.74291 0.13215 0.65664 0.0
C764 C 0.76923 0.16849 0.62636 0.0
C765 C 0.75599 0.16098 0.60853 0.0
C766 C 0.78223 0.1892 0.62907 0.0
C767 C 0.79661 0.19855 0.64731 0.0
C768 C 0.78115 0.20149 0.65996 0.0
C769 C 0.79518 0.20974 0.6773 0.0
C770 C 0.8246 0.21525 0.68211 0.0
C771 C 0.84003 0.21262 0.66955 0.0
C772 C 0.82611 0.20436 0.6522 0.0
C773 C 0.74676 0.23638 0.55961 0.0
C774 C 0.76867 0.23279 0.55107 0.0
C775 C 0.74682 0.22428 0.57452 0.0
C776 C 0.76843 0.20806 0.58111 0.0
C777 C 0.7913 0.20575 0.57336 0.0
C778 C 0.79117 0.21755 0.55852 0.0
C779 C 0.76809 0.19406 0.59637 0.0
C780 C 0.78138 0.20159 0.6142 0.0
C781 C 0.75564 0.1731 0.59363 0.0
C782 C 0.74242 0.16286 0.5755 0.0
C783 C 0.75914 0.1586 0.56365 0.0
C784 C 0.74694 0.14785 0.547 0.0
C785 C 0.71825 0.14065 0.54223 0.0
C786 C 0.70179 0.14407 0.55416 0.0
C787 C 0.71376 0.15512 0.57071 0.0
H788 H 0.70889 0.13223 0.52938 0.0
H789 H 0.83544 0.2216 0.69555 0.0
H790 H 0.9118 0.01542 0.9592 0.0
H791 H 0.88548 0.01917 0.92756 0.0
H792 H 0.96666 0.03034 0.91685 0.0
H793 H 0.99316 0.02703 0.9488 0.0
H794 H 0.9255 0.05748 0.89852 0.0
H795 H 0.93187 0.98198 0.90592 0.0
H796 H 0.92763 0.94743 0.91896 0.0
H797 H 0.83442 0.95645 0.90438 0.0
H798 H 0.8381 0.99148 0.89198 0.0
H799 H 0.84724 0.04576 0.80283 0.0
H800 H 0.88254 0.04388 0.83297 0.0
H801 H 0.81249 0.02955 0.85418 0.0
H802 H 0.7778 0.0307 0.82429 0.0
H803 H 0.85465 1.00195 0.86568 0.0
H804 H 0.85118 0.08059 0.86158 0.0
H805 H 0.85724 0.11425 0.84781 0.0
H806 H 0.94731 0.09697 0.85432 0.0
H807 H 0.94168 0.06311 0.86795 0.0
C808 C 0.92414 0.0186 0.95014 0.0
C809 C 0.95464 0.02084 0.95657 0.0
C810 C 0.90902 0.02069 0.93196 0.0
C811 C 0.92397 0.0248 0.9196 0.0
C812 C 0.9545 0.02716 0.92601 0.0
C813 C 0.96968 0.02515 0.94429 0.0
C814 C 0.90751 0.02655 0.90009 0.0
C815 C 0.91028 0.04517 0.89129 0.0
C816 C 0.88761 0.01055 0.89045 0.0
C817 C 0.88532 0.98955 0.89816 0.0
C818 C 0.91048 0.97678 0.90573 0.0
C819 C 0.90818 0.9571 0.91305 0.0
C820 C 0.88078 0.94982 0.91264 0.0
C821 C 0.85564 0.9622 0.90489 0.0
C822 C 0.85783 0.982 0.89774 0.0
C823 C 0.83938 0.04271 0.81403 0.0
C824 C 0.80967 0.03842 0.81113 0.0
C825 C 0.8596 0.04157 0.8313 0.0
C826 C 0.85039 0.03652 0.84606 0.0
C827 C 0.82045 0.03325 0.84315 0.0
C828 C 0.8005 0.03406 0.826 0.0
C829 C 0.87148 0.03336 0.86438 0.0
C830 C 0.86983 0.01428 0.87291 0.0
C831 C 0.89256 0.0488 0.87365 0.0
C832 C 0.89593 0.06924 0.86561 0.0
C833 C 0.87222 0.08392 0.85997 0.0
C834 C 0.87559 0.10304 0.85221 0.0
C835 C 0.90262 0.10772 0.85015 0.0
C836 C 0.92638 0.09332 0.8559 0.0
C837 C 0.92312 0.07418 0.86366 0.0
H838 H 0.90518 0.12252 0.84412 0.0
H839 H 0.879 0.93454 0.91823 0.0
H840 H 0.04652 0.98981 0.05851 0.0
H841 H 0.0744 0.99199 0.09034 0.0
H842 H 0.13444 0.03537 0.0792 0.0
H843 H 0.10835 0.03125 0.04732 0.0
H844 H 0.16498 0.01199 0.10163 0.0
H845 H 0.07495 0.05053 0.10106 0.0
H846 H 0.02149 0.05532 0.09462 0.0
H847 H 0.01957 1.00074 0.12552 0.0
H848 H 0.07297 0.99559 0.13217 0.0
H849 H 0.2286 0.04642 0.19462 0.0
H850 H 0.20142 0.04603 0.16255 0.0
H851 H 0.15242 0.99163 0.16874 0.0
H852 H 0.17915 0.99191 0.20052 0.0
H853 H 0.11679 0.02229 0.14938 0.0
H854 H 0.20795 0.98552 0.15055 0.0
H855 H 0.26158 0.98232 0.15768 0.0
H856 H 0.26135 0.03598 0.12534 0.0
H857 H 0.20775 0.03991 0.11841 0.0
C858 C 0.06561 0.99986 0.06294 0.0
C859 C 0.07506 0.01058 0.05046 0.0
C860 C 0.08147 1.00132 0.08121 0.0
C861 C 0.10636 0.01436 0.08753 0.0
C862 C 0.11546 0.0252 0.07493 0.0
C863 C 0.10031 0.02305 0.05664 0.0
C864 C 0.1235 0.01628 0.10706 0.0
C865 C 0.15428 0.01468 0.11198 0.0
C866 C 0.10997 0.01933 0.12086 0.0
C867 C 0.07791 0.02258 0.117 0.0
C868 C 0.0631 0.03951 0.10642 0.0
C869 C 0.03283 0.04229 0.10274 0.0
C870 C 0.01715 0.02829 0.10957 0.0
C871 C 0.03173 0.01155 0.12021 0.0
C872 C 0.062 0.00873 0.12399 0.0
C873 C 0.21213 0.03432 0.18913 0.0
C874 C 0.20618 0.01917 0.20022 0.0
C875 C 0.19661 0.0341 0.17078 0.0
C876 C 0.17485 0.01874 0.16317 0.0
C877 C 0.16897 1.00368 0.17425 0.0
C878 C 0.18448 1.00381 0.19247 0.0
C879 C 0.15795 0.01818 0.14374 0.0
C880 C 0.1273 0.01993 0.13891 0.0
C881 C 0.17161 0.01562 0.13004 0.0
C882 C 0.20384 0.01319 0.13415 0.0
C883 C 0.21935 0.9968 0.14512 0.0
C884 C 0.24975 0.99486 0.14913 0.0
C885 C 0.26487 0.00902 0.14206 0.0
C886 C 0.24961 0.0251 0.13089 0.0
C887 C 0.21922 0.02721 0.12693 0.0
H888 H 0.28841 0.00749 0.14517 0.0
H889 H 0.99371 0.03046 0.10666 0.0
H890 H 0.05946 0.37281 0.44068 0.0
H891 H 0.06278 0.34907 0.41507 0.0
H892 H 0.03613 0.40278 0.38053 0.0
H893 H 0.0321 0.42615 0.40584 0.0
H894 H 0.01123 0.36863 0.3637 0.0
H895 H 0.10956 0.38578 0.3996 0.0
H896 H 0.15184 0.38687 0.42693 0.0
H897 H 0.1538 0.3174 0.427 0.0
H898 H 0.11122 0.31592 0.39982 0.0
H899 H 0.0755 0.34613 0.29454 0.0
H900 H 0.07702 0.36025 0.32472 0.0
H901 H 0.0592 0.29665 0.33806 0.0
H902 H 0.05614 0.28271 0.30757 0.0
H903 H 0.10553 0.33068 0.36647 0.0
H904 H 0.00652 0.31591 0.32739 0.0
H905 H 0.96735 0.31819 0.29878 0.0
H906 H 0.96827 0.3876 0.30436 0.0
H907 H 0.00886 0.3858 0.33247 0.0
C908 C 0.05393 0.37934 0.42753 0.0
C909 C 0.0453 0.40121 0.42514 0.0
C910 C 0.05599 0.36586 0.41296 0.0
C911 C 0.05012 0.37423 0.39592 0.0
C912 C 0.04065 0.39591 0.39351 0.0
C913 C 0.0382 0.40925 0.40796 0.0
C914 C 0.05461 0.36089 0.38058 0.0
C915 C 0.03188 0.36036 0.36436 0.0
C916 C 0.08146 0.34985 0.38145 0.0
C917 C 0.10697 0.35075 0.39782 0.0
C918 C 0.11885 0.37075 0.40554 0.0
C919 C 0.14288 0.37143 0.42099 0.0
C920 C 0.15543 0.35222 0.42874 0.0
C921 C 0.144 0.33227 0.42102 0.0
C922 C 0.11992 0.3315 0.4056 0.0
C923 C 0.073 0.33504 0.30415 0.0
C924 C 0.06582 0.31339 0.29893 0.0
C925 C 0.07375 0.34311 0.32129 0.0
C926 C 0.06804 0.32944 0.33343 0.0
C927 C 0.06371 0.30734 0.3288 0.0
C928 C 0.062 0.29942 0.31147 0.0
C929 C 0.06237 0.33891 0.34977 0.0
C930 C 0.0848 0.33868 0.36603 0.0
C931 C 0.03547 0.34965 0.3489 0.0
C932 C 0.01118 0.3507 0.3319 0.0
C933 C -0.00106 0.33166 0.32233 0.0
C934 C 0.97639 0.33286 0.30621 0.0
C935 C 0.96524 0.35298 0.29979 0.0
C936 C 0.97694 0.372 0.30934 0.0
C937 C -0.00013 0.3709 0.3253 0.0
H938 H 0.94745 0.35381 0.28746 0.0
H939 H 0.17406 0.35278 0.44069 0.0
H940 H 0.60121 0.26861 0.55725 0.0
H941 H 0.57107 0.25983 0.57625 0.0
H942 H 0.6151 0.3083 0.61601 0.0
H943 H 0.64534 0.31695 0.59746 0.0
H944 H 0.60832 0.25341 0.62099 0.0
H945 H 0.56432 0.32968 0.60578 0.0
H946 H 0.53602 0.35388 0.58245 0.0
H947 H 0.47007 0.30586 0.56309 0.0
H948 H 0.49825 0.28131 0.58621 0.0
H949 H 0.59303 0.29274 0.70096 0.0
H950 H 0.59863 0.28629 0.67121 0.0
H951 H 0.50736 0.27078 0.64983 0.0
H952 H 0.50148 0.2774 0.67967 0.0
H953 H 0.5233 0.29705 0.62847 0.0
H954 H 0.55732 0.22967 0.65267 0.0
H955 H 0.58389 0.20364 0.67485 0.0
H956 H 0.66572 0.22981 0.67542 0.0
H957 H 0.63973 0.25602 0.65325 0.0
C958 C 0.6043 0.27744 0.57002 0.0
C959 C 0.62557 0.29352 0.57587 0.0
C960 C 0.58695 0.27253 0.58072 0.0
C961 C 0.59074 0.28369 0.59731 0.0
C962 C 0.61164 0.29984 0.60305 0.0
C963 C 0.62883 0.30478 0.59243 0.0
C964 C 0.57537 0.27751 0.60982 0.0
C965 C 0.58945 0.26262 0.62257 0.0
C966 C 0.55016 0.28894 0.61134 0.0
C967 C 0.53349 0.30364 0.59751 0.0
C968 C 0.54393 0.32424 0.59643 0.0
C969 C 0.52789 0.33802 0.58328 0.0
C970 C 0.50131 0.33138 0.57126 0.0
C971 C 0.49069 0.31096 0.57238 0.0
C972 C 0.50669 0.29711 0.58548 0.0
C973 C 0.57418 0.28779 0.68999 0.0
C974 C 0.54692 0.28538 0.69274 0.0
C975 C 0.57742 0.28401 0.67299 0.0
C976 C 0.55355 0.27752 0.65841 0.0
C977 C 0.5261 0.27557 0.66096 0.0
C978 C 0.52279 0.27949 0.67799 0.0
C979 C 0.55758 0.274 0.64047 0.0
C980 C 0.54138 0.28703 0.62668 0.0
C981 C 0.58066 0.26053 0.63788 0.0
C982 C 0.59652 0.24484 0.65128 0.0
C983 C 0.58098 0.22996 0.65759 0.0
C984 C 0.59594 0.21516 0.67016 0.0
C985 C 0.62645 0.21513 0.6766 0.0
C986 C 0.64208 0.22984 0.67042 0.0
C987 C 0.62725 0.24461 0.65778 0.0
H988 H 0.63797 0.20367 0.68635 0.0
H989 H 0.4889 0.34208 0.56111 0.0
H990 H 0.70579 0.94479 0.86045 0.0
H991 H 0.70569 0.922 0.88471 0.0
H992 H 0.76006 0.8744 0.86675 0.0
H993 H 0.75887 0.89658 0.84174 0.0
H994 H 0.72238 0.8533 0.87633 0.0
H995 H 0.78544 0.91209 0.90799 0.0
H996 H 0.79831 0.95006 0.91779 0.0
H997 H 0.72369 0.95785 0.93716 0.0
H998 H 0.71041 0.91993 0.92759 0.0
H999 H 0.75698 0.79306 0.95731 0.0
H1000 H 0.75779 0.81383 0.93157 0.0
H1001 H 0.70394 0.86394 0.94717 0.0
H1002 H 0.70361 0.84362 0.97277 0.0
H1003 H 0.74298 0.88325 0.93882 0.0
H1004 H 0.67898 0.8269 0.90876 0.0
H1005 H 0.66267 0.78952 0.89961 0.0
H1006 H 0.73308 0.77781 0.87675 0.0
H1007 H 0.75004 0.81508 0.88597 0.0
C1008 C 0.7176 0.92942 0.8614 0.0
C1009 C 0.73232 0.92289 0.84872 0.0
C1010 C 0.71792 0.91638 0.87568 0.0
C1011 C 0.73336 0.89632 0.87815 0.0
C1012 C 0.74802 0.88971 0.8655 0.0
C1013 C 0.74758 0.9027 0.85115 0.0
C1014 C 0.7337 0.88214 0.89352 0.0
C1015 C 0.72742 0.85989 0.89002 0.0
C1016 C 0.73915 0.89038 0.91155 0.0
C1017 C 0.74681 0.91327 0.91692 0.0
C1018 C 0.77167 0.92196 0.91421 0.0
C1019 C 0.77907 0.94345 0.91977 0.0
C1020 C 0.76177 0.95638 0.92799 0.0
C1021 C 0.73705 0.94784 0.93076 0.0
C1022 C 0.72963 0.92634 0.92533 0.0
C1023 C 0.74509 0.80839 0.95514 0.0
C1024 C 0.73018 0.81649 0.96727 0.0
C1025 C 0.74547 0.82036 0.9403 0.0
C1026 C 0.73081 0.84073 0.93705 0.0
C1027 C 0.71567 0.84851 0.94911 0.0
C1028 C 0.71537 0.83669 0.96385 0.0
C1029 C 0.73168 0.85442 0.92165 0.0
C1030 C 0.73814 0.87659 0.92515 0.0
C1031 C 0.72585 0.84617 0.90362 0.0
C1032 C 0.71601 0.82368 0.89827 0.0
C1033 C 0.69117 0.81628 0.90195 0.0
C1034 C 0.68176 0.79513 0.89671 0.0
C1035 C 0.69689 0.78127 0.88766 0.0
C1036 C 0.72143 0.78855 0.8838 0.0
C1037 C 0.73094 0.80969 0.88902 0.0
H1038 H 0.68955 0.76491 0.88359 0.0
H1039 H 0.76757 0.973 0.93227 0.0
H1040 H 0.24304 0.3247 0.05719 0.0
H1041 H 0.22422 0.3281 0.08323 0.0
H1042 H 0.16473 0.2762 0.06031 0.0
H1043 H 0.18407 0.27239 0.03465 0.0
H1044 H 0.1402 0.31321 0.07637 0.0
H1045 H 0.21906 0.26103 0.08879 0.0
H1046 H 0.26871 0.24759 0.09018 0.0
H1047 H 0.30562 0.29941 0.12827 0.0
H1048 H 0.25607 0.31332 0.12694 0.0
H1049 H 0.10667 0.28925 0.15542 0.0
H1050 H 0.12223 0.28446 0.12842 0.0
H1051 H 0.19281 0.32846 0.15177 0.0
H1052 H 0.17809 0.33267 0.17905 0.0
H1053 H 0.21043 0.29406 0.1346 0.0
H1054 H 0.12797 0.34503 0.122 0.0
H1055 H 0.07713 0.35665 0.11937 0.0
H1056 H 0.04535 0.30446 0.0805 0.0
H1057 H 0.09602 0.29234 0.0831 0.0
C1058 C 0.22576 0.31425 0.05774 0.0
C1059 C 0.21505 0.2982 0.04423 0.0
C1060 C 0.21504 0.31619 0.07249 0.0
C1061 C 0.19319 0.30234 0.0736 0.0
C1062 C 0.18153 0.28702 0.05962 0.0
C1063 C 0.19267 0.28478 0.0451 0.0
C1064 C 0.18415 0.30264 0.08998 0.0
C1065 C 0.15538 0.30887 0.0891 0.0
C1066 C 0.20407 0.29687 0.10646 0.0
C1067 C 0.23389 0.28835 0.10763 0.0
C1068 C 0.23776 0.26966 0.09736 0.0
C1069 C 0.26587 0.26194 0.09814 0.0
C1070 C 0.29031 0.2727 0.10923 0.0
C1071 C 0.28666 0.29112 0.11965 0.0
C1072 C 0.25857 0.29892 0.11891 0.0
C1073 C 0.12583 0.29759 0.15493 0.0
C1074 C 0.14105 0.31147 0.16932 0.0
C1075 C 0.13449 0.29502 0.13943 0.0
C1076 C 0.15834 0.30642 0.138 0.0
C1077 C 0.17421 0.31963 0.15257 0.0
C1078 C 0.16564 0.32215 0.16809 0.0
C1079 C 0.16648 0.30508 0.12119 0.0
C1080 C 0.19514 0.2985 0.12193 0.0
C1081 C 0.14626 0.31024 0.10454 0.0
C1082 C 0.1158 0.31765 0.10289 0.0
C1083 C 0.11015 0.33594 0.11299 0.0
C1084 C 0.08135 0.34263 0.11149 0.0
C1085 C 0.05802 0.33126 0.09981 0.0
C1086 C 0.06344 0.31322 0.08956 0.0
C1087 C 0.09219 0.30644 0.09104 0.0
H1088 H 0.03575 0.33646 0.09867 0.0
H1089 H 0.31207 0.26671 0.1098 0.0
H1090 H 0.77565 0.42006 0.35886 0.0
H1091 H 0.77585 0.39774 0.38359 0.0
H1092 H 0.68286 0.39018 0.36163 0.0
H1093 H 0.68244 0.41214 0.33663 0.0
H1094 H 0.69796 0.39708 0.39813 0.0
H1095 H 0.73561 0.34924 0.3578 0.0
H1096 H 0.7709 0.3398 0.34108 0.0
H1097 H 0.84168 0.34307 0.39011 0.0
H1098 H 0.80686 0.35287 0.4071 0.0
H1099 H 0.68111 0.31767 0.45488 0.0
H1100 H 0.68107 0.33742 0.42889 0.0
H1101 H 0.77438 0.32704 0.44174 0.0
H1102 H 0.77395 0.30602 0.46726 0.0
H1103 H 0.76051 0.33063 0.41021 0.0
H1104 H 0.73091 0.3783 0.45141 0.0
H1105 H 0.70249 0.39299 0.47109 0.0
H1106 H 0.62533 0.39624 0.42585 0.0
H1107 H 0.6533 0.38141 0.40588 0.0
C1108 C 0.75513 0.41353 0.35901 0.0
C1109 C 0.72905 0.41812 0.34524 0.0
C1110 C 0.7553 0.40066 0.37338 0.0
C1111 C 0.72944 0.39171 0.37465 0.0
C1112 C 0.70327 0.39667 0.36122 0.0
C1113 C 0.70308 0.40948 0.34681 0.0
C1114 C 0.72957 0.37712 0.38974 0.0
C1115 C 0.71134 0.38237 0.40058 0.0
C1116 C 0.74799 0.35836 0.39385 0.0
C1117 C 0.76868 0.35192 0.38367 0.0
C1118 C 0.75871 0.34802 0.36499 0.0
C1119 C 0.77861 0.34262 0.35548 0.0
C1120 C 0.80847 0.34091 0.36454 0.0
C1121 C 0.81853 0.34445 0.38313 0.0
C1122 C 0.79873 0.34991 0.3927 0.0
C1123 C 0.70162 0.31925 0.45198 0.0
C1124 C 0.72747 0.31 0.4632 0.0
C1125 C 0.70173 0.3311 0.43719 0.0
C1126 C 0.728 0.33525 0.43348 0.0
C1127 C 0.75373 0.32497 0.44422 0.0
C1128 C 0.7535 0.31256 0.45882 0.0
C1129 C 0.72853 0.3503 0.41871 0.0
C1130 C 0.74693 0.34523 0.40789 0.0
C1131 C 0.7112 0.36982 0.41517 0.0
C1132 C 0.69422 0.37858 0.42715 0.0
C1133 C 0.70789 0.38208 0.44565 0.0
C1134 C 0.69185 0.39043 0.45686 0.0
C1135 C 0.6621 0.39551 0.44973 0.0
C1136 C 0.64837 0.39228 0.43136 0.0
C1137 C 0.66432 0.38392 0.42008 0.0
H1138 H 0.64971 0.40197 0.45843 0.0
H1139 H 0.82381 0.33683 0.35716 0.0
H1140 H 0.58328 0.03396 0.5579 0.0
H1141 H 0.61025 0.02915 0.58927 0.0
H1142 H 0.52993 0.01615 0.60031 0.0
H1143 H 0.50255 0.02099 0.5686 0.0
H1144 H 0.56796 0.04278 0.62764 0.0
H1145 H 0.5737 0.97464 0.59611 0.0
H1146 H 0.58277 0.9506 0.57199 0.0
H1147 H 0.67211 0.97034 0.58744 0.0
H1148 H 0.66346 0.99475 0.6115 0.0
H1149 H 0.64993 1.00175 0.71346 0.0
H1150 H 0.61504 1.00275 0.68306 0.0
H1151 H 0.68532 0.01726 0.66219 0.0
H1152 H 0.71979 0.01672 0.69236 0.0
H1153 H 0.648 0.98715 0.64033 0.0
H1154 H 0.64283 0.0567 0.66965 0.0
H1155 H 0.63538 0.08249 0.69319 0.0
H1156 H 0.54689 0.06191 0.68165 0.0
H1157 H 0.55399 0.03567 0.65823 0.0
C1158 C 0.5712 0.03018 0.56696 0.0
C1159 C 0.54072 0.02765 0.56063 0.0
C1160 C 0.58674 0.02738 0.58496 0.0
C1161 C 0.57231 0.02194 0.59722 0.0
C1162 C 0.54166 0.02023 0.59114 0.0
C1163 C 0.52601 0.02296 0.573 0.0
C1164 C 0.58967 0.01739 0.61611 0.0
C1165 C 0.58503 0.03029 0.63045 0.0
C1166 C 0.6125 1.00146 0.61987 0.0
C1167 C 0.61787 0.98664 0.60553 0.0
C1168 C 0.59523 0.97396 0.59429 0.0
C1169 C 0.6003 0.96026 0.58064 0.0
C1170 C 0.62799 0.95898 0.57817 0.0
C1171 C 0.65068 0.97136 0.58937 0.0
C1172 C 0.64571 0.98512 0.60303 0.0
C1173 C 0.65795 1.0046 0.70229 0.0
C1174 C 0.68766 0.0089 0.70527 0.0
C1175 C 0.63797 1.00543 0.68495 0.0
C1176 C 0.64744 0.01024 0.67026 0.0
C1177 C 0.67736 0.01351 0.6732 0.0
C1178 C 0.6971 0.01312 0.69047 0.0
C1179 C 0.62646 0.0126 0.65188 0.0
C1180 C 0.63055 0.99936 0.6376 0.0
C1181 C 0.60335 0.02834 0.6482 0.0
C1182 C 0.59909 0.04395 0.66238 0.0
C1183 C 0.62189 0.05746 0.67228 0.0
C1184 C 0.61771 0.07221 0.68557 0.0
C1185 C 0.59072 0.07377 0.68897 0.0
C1186 C 0.56782 0.06062 0.67904 0.0
C1187 C 0.57192 0.0458 0.66576 0.0
H1188 H 0.58751 0.08523 0.69925 0.0
H1189 H 0.63187 0.94836 0.56759 0.0
H1190 H 0.09364 0.88003 0.94523 0.0
H1191 H 0.09941 0.85709 0.9198 0.0
H1192 H 0.03173 0.8948 0.88371 0.0
H1193 H 0.02544 0.91716 0.90887 0.0
H1194 H 0.02667 0.85599 0.87196 0.0
H1195 H 0.10766 0.90409 0.89407 0.0
H1196 H 0.1509 0.9198 0.91641 0.0
H1197 H 0.19495 0.85764 0.92062 0.0
H1198 H 0.15174 0.84148 0.89849 0.0
H1199 H 0.05313 0.85677 0.79108 0.0
H1200 H 0.06217 0.87002 0.82234 0.0
H1201 H 0.10091 0.80806 0.84016 0.0
H1202 H 0.09128 0.79464 0.80879 0.0
H1203 H 0.12489 0.85261 0.86305 0.0
H1204 H 0.03997 0.80667 0.83639 0.0
H1205 H -0.0004 0.79783 0.80924 0.0
H1206 H 0.96254 0.86184 0.81196 0.0
H1207 H 0.00357 0.87138 0.83867 0.0
C1208 C 0.07968 0.8831 0.93186 0.0
C1209 C 0.05916 0.90043 0.92901 0.0
C1210 C 0.08311 0.87009 0.91736 0.0
C1211 C 0.06648 0.87453 0.89979 0.0
C1212 C 0.04486 0.89103 0.89711 0.0
C1213 C 0.04117 0.90378 0.91155 0.0
C1214 C 0.07223 0.86306 0.88397 0.0
C1215 C 0.04825 0.85494 0.87025 0.0
C1216 C 0.1004 0.86185 0.88151 0.0
C1217 C 0.12633 0.87151 0.89484 0.0
C1218 C 0.12647 0.89373 0.89988 0.0
C1219 C 0.15098 0.90272 0.91249 0.0
C1220 C 0.17562 0.88971 0.91998 0.0
C1221 C 0.17581 0.86768 0.91485 0.0
C1222 C 0.15131 0.85859 0.90229 0.0
C1223 C 0.06464 0.84635 0.80171 0.0
C1224 C 0.07168 0.82483 0.79777 0.0
C1225 C 0.06987 0.85389 0.8195 0.0
C1226 C 0.08222 0.83998 0.83347 0.0
C1227 C 0.09166 0.81905 0.82954 0.0
C1228 C 0.08602 0.81139 0.8117 0.0
C1229 C 0.07929 0.84578 0.85139 0.0
C1230 C 0.10364 0.85283 0.8653 0.0
C1231 C 0.05141 0.84638 0.85403 0.0
C1232 C 0.02498 0.83979 0.8394 0.0
C1233 C 0.02317 0.81884 0.83121 0.0
C1234 C 0.00014 0.81371 0.81586 0.0
C1235 C 0.9783 0.82921 0.8089 0.0
C1236 C 0.97933 0.8498 0.8174 0.0
C1237 C 0.00255 0.85511 0.8326 0.0
H1238 H 0.96071 0.82539 0.79685 0.0
H1239 H 0.19459 0.89671 0.92972 0.0
H1240 H 0.042 0.07945 0.97698 0.0
H1241 H 0.07396 0.10996 0.97879 0.0
H1242 H 0.1278 0.0908 0.03081 0.0
H1243 H 0.09395 0.06183 0.02964 0.0
H1244 H 0.12634 0.13047 0.03257 0.0
H1245 H 0.14541 0.08051 0.98785 0.0
H1246 H 0.13331 0.0569 0.96023 0.0
H1247 H 0.09749 0.1117 0.92896 0.0
H1248 H 0.10909 0.13558 0.95641 0.0
H1249 H 0.24305 0.1981 0.03043 0.0
H1250 H 0.21481 0.16588 0.03032 0.0
H1251 H 0.14726 0.18761 0.98413 0.0
H1252 H 0.17515 0.21956 0.98401 0.0
H1253 H 0.15988 0.14517 0.9805 0.0
H1254 H 0.14024 0.1942 0.02706 0.0
H1255 H 0.15546 0.21681 0.05519 0.0
H1256 H 0.19759 0.16142 0.08366 0.0
H1257 H 0.18282 0.13854 0.05565 0.0
C1258 C 0.06061 0.08197 0.98879 0.0
C1259 C 0.06585 0.0684 0.00314 0.0
C1260 C 0.0791 0.09921 0.98977 0.0
C1261 C 0.10399 0.10239 0.00471 0.0
C1262 C 0.10892 0.08876 0.0191 0.0
C1263 C 0.08973 0.07213 0.01842 0.0
C1264 C 0.12468 0.12002 0.00548 0.0
C1265 C 0.134 0.13337 0.02124 0.0
C1266 C 0.1347 0.12411 0.99073 0.0
C1267 C 0.12793 0.10979 0.9742 0.0
C1268 C 0.13483 0.08749 0.97509 0.0
C1269 C 0.12807 0.07407 0.95946 0.0
C1270 C 0.11459 0.08279 0.94285 0.0
C1271 C 0.10792 0.10496 0.94183 0.0
C1272 C 0.11462 0.11845 0.95741 0.0
C1273 C 0.22228 0.19594 0.0202 0.0
C1274 C 0.21135 0.21145 0.00727 0.0
C1275 C 0.20615 0.17759 0.02021 0.0
C1276 C 0.17886 0.1745 0.00733 0.0
C1277 C 0.16828 0.18969 0.99419 0.0
C1278 C 0.1843 0.20798 0.99417 0.0
C1279 C 0.16101 0.15554 0.00739 0.0
C1280 C 0.15233 0.14199 0.99182 0.0
C1281 C 0.1521 0.151 0.0224 0.0
C1282 C 0.16059 0.16471 0.03926 0.0
C1283 C 0.15285 0.18688 0.03931 0.0
C1284 C 0.16137 0.19973 0.05523 0.0
C1285 C 0.1775 0.19056 0.0712 0.0
C1286 C 0.18508 0.1685 0.07129 0.0
C1287 C 0.1766 0.15558 0.0554 0.0
H1288 H 0.1841 0.20054 0.0835 0.0
H1289 H 0.10935 0.07237 0.93077 0.0
H1290 H 0.70734 0.58188 0.25382 0.0
H1291 H 0.67419 0.61361 0.25335 0.0
H1292 H 0.63701 0.58281 0.2891 0.0
H1293 H 0.6694 0.55154 0.28942 0.0
H1294 H 0.59457 0.59723 0.26218 0.0
H1295 H 0.6844 0.6273 0.30199 0.0
H1296 H 0.73555 0.63882 0.30983 0.0
H1297 H 0.71205 0.6823 0.26679 0.0
H1298 H 0.66081 0.67082 0.25856 0.0
H1299 H 0.51175 0.67343 0.29573 0.0
H1300 H 0.55067 0.64862 0.2924 0.0
H1301 H 0.57285 0.69268 0.25814 0.0
H1302 H 0.53394 0.71817 0.26199 0.0
H1303 H 0.62236 0.67372 0.27895 0.0
H1304 H 0.53245 0.64658 0.2406 0.0
H1305 H 0.48105 0.63555 0.23219 0.0
H1306 H 0.50442 0.5864 0.27079 0.0
H1307 H 0.5559 0.59735 0.27963 0.0
C1308 C 0.69238 0.58206 0.26173 0.0
C1309 C 0.69112 0.56401 0.2716 0.0
C1310 C 0.67334 0.60025 0.26148 0.0
C1311 C 0.65272 0.60079 0.27115 0.0
C1312 C 0.65228 0.58297 0.28136 0.0
C1313 C 0.67107 0.565 0.28158 0.0
C1314 C 0.63055 0.61908 0.27037 0.0
C1315 C 0.60083 0.61391 0.26599 0.0
C1316 C 0.63811 0.64116 0.27459 0.0
C1317 C 0.66887 0.64801 0.27953 0.0
C1318 C 0.6902 0.63918 0.29411 0.0
C1319 C 0.71919 0.64573 0.29864 0.0
C1320 C 0.72707 0.66123 0.28878 0.0
C1321 C 0.70594 0.67026 0.27439 0.0
C1322 C 0.67692 0.66375 0.26979 0.0
C1323 C 0.52499 0.67802 0.28758 0.0
C1324 C 0.51952 0.69783 0.27908 0.0
C1325 C 0.54728 0.66366 0.28557 0.0
C1326 C 0.56456 0.6683 0.27464 0.0
C1327 C 0.55988 0.68849 0.26658 0.0
C1328 C 0.53759 0.7031 0.26878 0.0
C1329 C 0.58662 0.65161 0.27146 0.0
C1330 C 0.61613 0.65707 0.27498 0.0
C1331 C 0.57893 0.62972 0.26628 0.0
C1332 C 0.54803 0.62288 0.26085 0.0
C1333 C 0.52661 0.6335 0.24736 0.0
C1334 C 0.49745 0.62725 0.24251 0.0
C1335 C 0.48947 0.6103 0.25097 0.0
C1336 C 0.51064 0.59953 0.26426 0.0
C1337 C 0.53982 0.60573 0.26917 0.0
H1338 H 0.46689 0.6055 0.24721 0.0
H1339 H 0.74952 0.66628 0.29231 0.0
H1340 H 0.28981 0.82697 0.48196 0.0
H1341 H 0.31823 0.85876 0.48106 0.0
H1342 H 0.30795 0.8835 0.53147 0.0
H1343 H 0.28098 0.85113 0.53299 0.0
H1344 H 0.2983 0.90626 0.4854 0.0
H1345 H 0.35742 0.88631 0.54921 0.0
H1346 H 0.38244 0.85787 0.56952 0.0
H1347 H 0.42865 0.8356 0.5324 0.0
H1348 H 0.40307 0.86351 0.5116 0.0
H1349 H 0.39416 0.99812 0.52041 0.0
H1350 H 0.36036 0.96818 0.51624 0.0
H1351 H 0.41326 0.92869 0.49027 0.0
H1352 H 0.44682 0.95864 0.49397 0.0
H1353 H 0.4017 0.91248 0.52287 0.0
H1354 H 0.3541 0.93596 0.46341 0.0
H1355 H 0.32661 0.95828 0.43844 0.0
H1356 H 0.25962 0.97144 0.46379 0.0
H1357 H 0.28644 0.94906 0.48883 0.0
C1358 C 0.29362 0.83922 0.49284 0.0
C1359 C 0.28347 0.83663 0.50763 0.0
C1360 C 0.30989 0.85727 0.49233 0.0
C1361 C 0.31579 0.8731 0.50643 0.0
C1362 C 0.30452 0.87102 0.5208 0.0
C1363 C 0.28892 0.85269 0.52157 0.0
C1364 C 0.33338 0.89194 0.5059 0.0
C1365 C 0.32076 0.90792 0.4938 0.0
C1366 C 0.36291 0.89351 0.51638 0.0
C1367 C 0.37779 0.87657 0.52869 0.0
C1368 C 0.37244 0.87505 0.54523 0.0
C1369 C 0.38679 0.85909 0.55685 0.0
C1370 C 0.40697 0.84483 0.5522 0.0
C1371 C 0.41284 0.84653 0.53592 0.0
C1372 C 0.39833 0.86235 0.52418 0.0
C1373 C 0.39851 0.98312 0.5137 0.0
C1374 C 0.42338 0.98065 0.50773 0.0
C1375 C 0.37899 0.96615 0.51114 0.0
C1376 C 0.3842 0.94637 0.50279 0.0
C1377 C 0.40873 0.94395 0.49657 0.0
C1378 C 0.42797 0.96102 0.49882 0.0
C1379 C 0.36637 0.92741 0.50276 0.0
C1380 C 0.37907 0.91119 0.51467 0.0
C1381 C 0.33689 0.92568 0.49205 0.0
C1382 C 0.32262 0.94122 0.4782 0.0
C1383 C 0.3339 0.94406 0.4639 0.0
C1384 C 0.31836 0.95662 0.44968 0.0
C1385 C 0.29165 0.9665 0.44966 0.0
C1386 C 0.28043 0.96393 0.46389 0.0
C1387 C 0.29577 0.9513 0.47809 0.0
H1388 H 0.27952 0.97597 0.43852 0.0
H1389 H 0.41818 0.83255 0.56125 0.0
H1390 H 0.05773 0.73063 0.7322 0.0
H1391 H 0.08486 0.69597 0.73426 0.0
H1392 H 0.15801 0.72478 0.77443 0.0
H1393 H 0.12995 0.75925 0.77327 0.0
H1394 H 0.17049 0.6946 0.74389 0.0
H1395 H 0.12692 0.69805 0.79162 0.0
H1396 H 0.08692 0.70484 0.8051 0.0
H1397 H 0.03612 0.65582 0.76935 0.0
H1398 H 0.07568 0.649 0.75543 0.0
H1399 H 0.2374 0.58983 0.77179 0.0
H1400 H 0.21984 0.62782 0.77147 0.0
H1401 H 0.13293 0.60765 0.74168 0.0
H1402 H 0.15028 0.57001 0.74182 0.0
H1403 H 0.1319 0.63534 0.76966 0.0
H1404 H 0.17455 0.6322 0.72143 0.0
H1405 H 0.21364 0.62581 0.70713 0.0
H1406 H 0.26566 0.67417 0.743 0.0
H1407 H 0.22708 0.68057 0.75774 0.0
C1408 C 0.07986 0.72971 0.74116 0.0
C1409 C 0.09198 0.74769 0.75237 0.0
C1410 C 0.09534 0.70989 0.74235 0.0
C1411 C 0.12364 0.7078 0.75433 0.0
C1412 C 0.13636 0.72606 0.76495 0.0
C1413 C 0.12041 0.74574 0.76423 0.0
C1414 C 0.1387 0.68611 0.75657 0.0
C1415 C 0.16246 0.68171 0.74982 0.0
C1416 C 0.12795 0.6692 0.76404 0.0
C1417 C 0.10411 0.6732 0.77235 0.0
C1418 C 0.10709 0.68888 0.7865 0.0
C1419 C 0.08453 0.69271 0.79424 0.0
C1420 C 0.05895 0.68082 0.78804 0.0
C1421 C 0.05593 0.66504 0.77411 0.0
C1422 C 0.07842 0.66119 0.76629 0.0
C1423 C 0.21461 0.59356 0.76508 0.0
C1424 C 0.19524 0.57687 0.75686 0.0
C1425 C 0.20459 0.61528 0.76488 0.0
C1426 C 0.17498 0.62069 0.75655 0.0
C1427 C 0.15579 0.60398 0.74827 0.0
C1428 C 0.16581 0.58241 0.74832 0.0
C1429 C 0.1635 0.64355 0.75668 0.0
C1430 C 0.14029 0.6482 0.7639 0.0
C1431 C 0.17477 0.66061 0.74958 0.0
C1432 C 0.19809 0.65666 0.74085 0.0
C1433 C 0.19446 0.6413 0.72641 0.0
C1434 C 0.21649 0.63772 0.71819 0.0
C1435 C 0.24213 0.64956 0.72417 0.0
C1436 C 0.2458 0.66499 0.7384 0.0
C1437 C 0.22387 0.6686 0.74669 0.0
H1438 H 0.25912 0.64681 0.71776 0.0
H1439 H 0.04151 0.68379 0.79406 0.0
H1440 H 0.79021 0.3452 0.52267 0.0
H1441 H 0.82335 0.37341 0.52083 0.0
H1442 H 0.88219 0.32477 0.5085 0.0
H1443 H 0.84871 0.29633 0.50986 0.0
H1444 H 0.90876 0.36006 0.53651 0.0
H1445 H 0.85636 0.35073 0.47357 0.0
H1446 H 0.81614 0.34807 0.44526 0.0
H1447 H 0.77539 0.40563 0.46124 0.0
H1448 H 0.81607 0.40903 0.48939 0.0
H1449 H 0.99082 0.43435 0.50315 0.0
H1450 H 0.96303 0.40334 0.50659 0.0
H1451 H 0.89486 0.44678 0.51435 0.0
H1452 H 0.92258 0.47786 0.51119 0.0
H1453 H 0.87538 0.41229 0.48842 0.0
H1454 H 0.9374 0.42389 0.54906 0.0
H1455 H 0.98449 0.42787 0.57277 0.0
H1456 H 0.01123 0.36374 0.5591 0.0
H1457 H 0.96445 0.3595 0.5351 0.0
C1458 C 0.81038 0.34041 0.51982 0.0
C1459 C 0.81689 0.31846 0.51654 0.0
C1460 C 0.82918 0.35659 0.51863 0.0
C1461 C 0.85512 0.35117 0.51445 0.0
C1462 C 0.86224 0.32927 0.51173 0.0
C1463 C 0.84313 0.31306 0.51256 0.0
C1464 C 0.87447 0.36858 0.51283 0.0
C1465 C 0.90169 0.37133 0.52587 0.0
C1466 C 0.86518 0.3834 0.49911 0.0
C1467 C 0.83888 0.37991 0.48364 0.0
C1468 C 0.83849 0.36254 0.47118 0.0
C1469 C 0.81577 0.36103 0.45511 0.0
C1470 C 0.79307 0.37656 0.45153 0.0
C1471 C 0.79294 0.39357 0.46407 0.0
C1472 C 0.81589 0.39538 0.48003 0.0
C1473 C 0.96987 0.43731 0.50555 0.0
C1474 C 0.95885 0.4586 0.50683 0.0
C1475 C 0.95417 0.41958 0.50767 0.0
C1476 C 0.92704 0.42279 0.51089 0.0
C1477 C 0.91585 0.44397 0.51197 0.0
C1478 C 0.93171 0.46171 0.51013 0.0
C1479 C 0.90949 0.40409 0.51222 0.0
C1480 C 0.88252 0.4011 0.49912 0.0
C1481 C 0.91939 0.38893 0.52574 0.0
C1482 C 0.94754 0.39147 0.54014 0.0
C1483 C 0.95344 0.41072 0.55098 0.0
C1484 C 0.98005 0.413 0.5645 0.0
C1485 C 0.00088 0.39609 0.5674 0.0
C1486 C 0.9951 0.37684 0.55681 0.0
C1487 C 0.96853 0.37448 0.54326 0.0
H1488 H 0.02146 0.39789 0.57788 0.0
H1489 H 0.77578 0.37559 0.43897 0.0
H1490 H 0.25776 0.95636 0.24459 0.0
H1491 H 0.27727 0.91895 0.24421 0.0
H1492 H 0.36336 0.94116 0.27356 0.0
H1493 H 0.344 0.97827 0.27423 0.0
H1494 H 0.36384 0.91233 0.24471 0.0
H1495 H 0.32519 0.91699 0.29494 0.0
H1496 H 0.28614 0.92486 0.30905 0.0
H1497 H 0.23355 0.87555 0.27475 0.0
H1498 H 0.2721 0.86766 0.26018 0.0
H1499 H 0.44158 0.81822 0.28443 0.0
H1500 H 0.41353 0.85255 0.28253 0.0
H1501 H 0.3414 0.82315 0.24198 0.0
H1502 H 0.37007 0.78893 0.24329 0.0
H1503 H 0.32999 0.85405 0.27409 0.0
H1504 H 0.36832 0.84898 0.22396 0.0
H1505 H 0.40621 0.8421 0.2088 0.0
H1506 H 0.45796 0.89272 0.24182 0.0
H1507 H 0.4206 0.89957 0.25746 0.0
C1508 C 0.28083 0.95322 0.25096 0.0
C1509 C 0.29929 0.97031 0.25946 0.0
C1510 C 0.29197 0.93184 0.25075 0.0
C1511 C 0.32186 0.92714 0.25888 0.0
C1512 C 0.34029 0.94428 0.26715 0.0
C1513 C 0.32913 0.96553 0.26758 0.0
C1514 C 0.33409 0.90445 0.2591 0.0
C1515 C 0.35649 0.89966 0.25122 0.0
C1516 C 0.3242 0.88766 0.26724 0.0
C1517 C 0.3014 0.89189 0.27635 0.0
C1518 C 0.30522 0.90791 0.29033 0.0
C1519 C 0.28319 0.91238 0.29842 0.0
C1520 C 0.25734 0.90075 0.29277 0.0
C1521 C 0.25356 0.88456 0.27909 0.0
C1522 C 0.2755 0.88008 0.27091 0.0
C1523 C 0.41947 0.81894 0.27541 0.0
C1524 C 0.40779 0.80082 0.2642 0.0
C1525 C 0.40352 0.8386 0.27427 0.0
C1526 C 0.37531 0.84048 0.26214 0.0
C1527 C 0.36304 0.82208 0.2515 0.0
C1528 C 0.37936 0.80253 0.2523 0.0
C1529 C 0.35983 0.86208 0.25981 0.0
C1530 C 0.33704 0.86668 0.2674 0.0
C1531 C 0.3692 0.87872 0.2513 0.0
C1532 C 0.39189 0.87453 0.24209 0.0
C1533 C 0.38799 0.85841 0.22819 0.0
C1534 C 0.40932 0.85457 0.21946 0.0
C1535 C 0.43454 0.86689 0.2244 0.0
C1536 C 0.43845 0.88312 0.23806 0.0
C1537 C 0.41721 0.88699 0.24686 0.0
H1538 H 0.45101 0.86393 0.2176 0.0
H1539 H 0.24028 0.90427 0.29902 0.0
H1540 H 0.25671 0.45861 0.75693 0.0
H1541 H 0.27544 0.42093 0.7576 0.0
H1542 H 0.3557 0.44281 0.75103 0.0
H1543 H 0.3368 0.48004 0.74985 0.0
H1544 H 0.33927 0.40826 0.73033 0.0
H1545 H 0.34394 0.4285 0.79215 0.0
H1546 H 0.32111 0.44015 0.81555 0.0
H1547 H 0.27052 0.38248 0.80452 0.0
H1548 H 0.29197 0.37094 0.78043 0.0
H1549 H 0.44332 0.32599 0.7549 0.0
H1550 H 0.41411 0.35912 0.75417 0.0
H1551 H 0.34608 0.32337 0.76462 0.0
H1552 H 0.37656 0.28989 0.76638 0.0
H1553 H 0.34811 0.3617 0.78114 0.0
H1554 H 0.34179 0.34027 0.72089 0.0
H1555 H 0.3599 0.32793 0.69556 0.0
H1556 H 0.40895 0.38604 0.70212 0.0
H1557 H 0.39143 0.39861 0.72763 0.0
C1558 C 0.27829 0.45532 0.75558 0.0
C1559 C 0.29522 0.4724 0.75334 0.0
C1560 C 0.28911 0.43374 0.75607 0.0
C1561 C 0.31729 0.4288 0.75458 0.0
C1562 C 0.33395 0.44594 0.7522 0.0
C1563 C 0.3231 0.46735 0.75157 0.0
C1564 C 0.32985 0.40602 0.75531 0.0
C1565 C 0.34137 0.39822 0.74155 0.0
C1566 C 0.33155 0.39224 0.76949 0.0
C1567 C 0.31935 0.39896 0.78433 0.0
C1568 C 0.32779 0.41837 0.79461 0.0
C1569 C 0.31509 0.42495 0.80801 0.0
C1570 C 0.29452 0.41201 0.8116 0.0
C1571 C 0.28647 0.39249 0.80173 0.0
C1572 C 0.29879 0.38597 0.78814 0.0
C1573 C 0.42213 0.32508 0.75705 0.0
C1574 C 0.41207 0.30517 0.76038 0.0
C1575 C 0.40525 0.34413 0.75652 0.0
C1576 C 0.37721 0.34391 0.75868 0.0
C1577 C 0.36742 0.32412 0.76266 0.0
C1578 C 0.38479 0.30494 0.76362 0.0
C1579 C 0.35856 0.36439 0.75649 0.0
C1580 C 0.34581 0.37169 0.76986 0.0
C1581 C 0.35517 0.37766 0.74178 0.0
C1582 C 0.3654 0.37033 0.72624 0.0
C1583 C 0.35653 0.35038 0.71697 0.0
C1584 C 0.36669 0.34334 0.70258 0.0
C1585 C 0.38559 0.35618 0.69725 0.0
C1586 C 0.3943 0.37611 0.70626 0.0
C1587 C 0.38422 0.38322 0.72067 0.0
H1588 H 0.39347 0.35069 0.68612 0.0
H1589 H 0.2848 0.41709 0.82204 0.0
H1590 H 0.2284 0.81578 0.54999 0.0
H1591 H 0.21735 0.81953 0.57856 0.0
H1592 H 0.15967 0.76523 0.56222 0.0
H1593 H 0.16947 0.76229 0.53331 0.0
H1594 H 0.13455 0.79481 0.57646 0.0
H1595 H 0.23071 0.76234 0.59437 0.0
H1596 H 0.28316 0.75879 0.5968 0.0
H1597 H 0.29844 0.8208 0.62523 0.0
H1598 H 0.24607 0.8248 0.6229 0.0
H1599 H 0.11485 0.78474 0.66126 0.0
H1600 H 0.13065 0.77685 0.63471 0.0
H1601 H 0.18267 0.83427 0.64701 0.0
H1602 H 0.16826 0.84166 0.67419 0.0
H1603 H 0.21121 0.80145 0.63523 0.0
H1604 H 0.11323 0.83329 0.6159 0.0
H1605 H 0.06059 0.8356 0.61311 0.0
H1606 H 0.04896 0.77215 0.58692 0.0
H1607 H 0.1016 0.76937 0.58975 0.0
C1608 C 0.21337 0.8047 0.55257 0.0
C1609 C 0.19962 0.78886 0.53951 0.0
C1610 C 0.20726 0.8067 0.56893 0.0
C1611 C 0.18802 0.79243 0.5727 0.0
C1612 C 0.17454 0.77645 0.55964 0.0
C1613 C 0.18013 0.77478 0.54314 0.0
C1614 C 0.18093 0.79468 0.5899 0.0
C1615 C 0.15137 0.79587 0.58931 0.0
C1616 C 0.20281 0.79647 0.6067 0.0
C1617 C 0.23441 0.79394 0.60835 0.0
C1618 C 0.24523 0.77526 0.60107 0.0
C1619 C 0.27494 0.77317 0.60243 0.0
C1620 C 0.29408 0.78959 0.61109 0.0
C1621 C 0.28358 0.8081 0.61851 0.0
C1622 C 0.2539 0.81027 0.61722 0.0
C1623 C 0.13012 0.79549 0.65856 0.0
C1624 C 0.14017 0.81392 0.66987 0.0
C1625 C 0.13886 0.79108 0.64323 0.0
C1626 C 0.15741 0.80519 0.6387 0.0
C1627 C 0.16819 0.82323 0.6502 0.0
C1628 C 0.15968 0.82755 0.66564 0.0
C1629 C 0.16489 0.80157 0.6217 0.0
C1630 C 0.19448 0.80018 0.62235 0.0
C1631 C 0.14305 0.7993 0.60494 0.0
C1632 C 0.11139 0.80105 0.60319 0.0
C1633 C 0.09947 0.81978 0.60965 0.0
C1634 C 0.06963 0.82118 0.60805 0.0
C1635 C 0.05146 0.80401 0.59989 0.0
C1636 C 0.06306 0.78543 0.59326 0.0
C1637 C 0.09289 0.78394 0.59485 0.0
H1638 H 0.02837 0.80513 0.59866 0.0
H1639 H 0.31706 0.78795 0.6121 0.0
H1640 H 0.15804 0.96002 0.3384 0.0
H1641 H 0.16661 0.95746 0.37046 0.0
H1642 H 0.25606 0.97625 0.38058 0.0
H1643 H 0.24752 0.97909 0.34837 0.0
H1644 H 0.25052 0.93746 0.39323 0.0
H1645 H 0.21169 0.00851 0.3986 0.0
H1646 H 0.17657 0.03876 0.38868 0.0
H1647 H 0.10715 1.00069 0.39419 0.0
H1648 H 0.14169 0.9701 0.40387 0.0
H1649 H 0.24182 0.88417 0.46645 0.0
H1650 H 0.25165 0.91831 0.45546 0.0
H1651 H 0.16351 0.92033 0.41969 0.0
H1652 H 0.15401 0.88585 0.42969 0.0
H1653 H 0.18545 0.96139 0.42969 0.0
H1654 H 0.2092 0.89174 0.406 0.0
H1655 H 0.23289 0.85596 0.40412 0.0
H1656 H 0.31735 0.88477 0.42321 0.0
H1657 H 0.29408 0.92072 0.42546 0.0
C1658 C 0.17931 0.96416 0.34747 0.0
C1659 C 0.2022 0.9695 0.34092 0.0
C1660 C 0.18412 0.96291 0.3658 0.0
C1661 C 0.21183 0.96712 0.37789 0.0
C1662 C 0.23445 0.97325 0.37144 0.0
C1663 C 0.22964 0.97453 0.35308 0.0
C1664 C 0.2181 0.96101 0.39658 0.0
C1665 C 0.23736 0.94334 0.40172 0.0
C1666 C 0.20013 0.96835 0.4072 0.0
C1667 C 0.17941 0.98703 0.40209 0.0
C1668 C 0.18895 1.00658 0.39772 0.0
C1669 C 0.16911 0.02379 0.3921 0.0
C1670 C 0.13966 0.02166 0.39084 0.0
C1671 C 0.12999 1.00235 0.39524 0.0
C1672 C 0.14972 0.98509 0.40086 0.0
C1673 C 0.22435 0.89209 0.45646 0.0
C1674 C 0.19747 0.88188 0.44841 0.0
C1675 C 0.2299 0.91178 0.45046 0.0
C1676 C 0.20843 0.92159 0.43663 0.0
C1677 C 0.18034 0.91299 0.43044 0.0
C1678 C 0.17495 0.89315 0.43616 0.0
C1679 C 0.21648 0.93713 0.42553 0.0
C1680 C 0.20013 0.95652 0.42192 0.0
C1681 C 0.23578 0.93066 0.41551 0.0
C1682 C 0.24995 0.90884 0.41635 0.0
C1683 C 0.23284 0.89037 0.41027 0.0
C1684 C 0.24617 0.87009 0.40898 0.0
C1685 C 0.27659 0.86815 0.41344 0.0
C1686 C 0.29378 0.88634 0.41974 0.0
C1687 C 0.28054 0.90666 0.42111 0.0
H1688 H 0.28685 0.85259 0.41183 0.0
H1689 H 0.12432 0.03497 0.38643 0.0
H1690 H 0.99616 0.73525 0.70407 0.0
H1691 H 0.99671 0.70826 0.67994 0.0
H1692 H 0.02722 0.75625 0.6525 0.0
H1693 H 0.02766 0.78318 0.6769 0.0
H1694 H 0.97828 0.7283 0.63071 0.0
H1695 H 0.07508 0.72635 0.67038 0.0
H1696 H 0.11598 0.72319 0.69813 0.0
H1697 H 0.08876 0.65965 0.70444 0.0
H1698 H 0.04721 0.66259 0.67691 0.0
H1699 H 0.0063 0.6497 0.5674 0.0
H1700 H 0.01296 0.68045 0.58934 0.0
H1701 H 0.00859 0.63738 0.62977 0.0
H1702 H 0.00294 0.60661 0.60805 0.0
H1703 H 0.04827 0.66585 0.64397 0.0
H1704 H 0.94825 0.6699 0.60464 0.0
H1705 H 0.91038 0.67284 0.57546 0.0
H1706 H 0.94573 0.733 0.5679 0.0
H1707 H 0.98405 0.73026 0.59693 0.0
C1708 C 0.00235 0.74017 0.69271 0.0
C1709 C 0.01156 0.76134 0.69222 0.0
C1710 C 0.00298 0.72469 0.67907 0.0
C1711 C 0.01227 0.73028 0.66459 0.0
C1712 C 0.02009 0.75167 0.66362 0.0
C1713 C 0.02017 0.76702 0.67748 0.0
C1714 C 0.01401 0.71363 0.65058 0.0
C1715 C 0.9938 0.71476 0.6335 0.0
C1716 C 0.0342 0.69598 0.65435 0.0
C1717 C 0.05778 0.6948 0.67165 0.0
C1718 C 0.07741 0.71187 0.67786 0.0
C1719 C 0.10084 0.71006 0.69349 0.0
C1720 C 0.10505 0.69117 0.70294 0.0
C1721 C 0.08552 0.67422 0.69702 0.0
C1722 C 0.06199 0.67597 0.68143 0.0
C1723 C 0.00701 0.64684 0.58103 0.0
C1724 C 0.00395 0.62581 0.58603 0.0
C1725 C 0.01066 0.66441 0.59353 0.0
C1726 C 0.0106 0.66134 0.61113 0.0
C1727 C 0.00862 0.64021 0.61627 0.0
C1728 C 0.00544 0.62261 0.60386 0.0
C1729 C 0.01181 0.68001 0.62419 0.0
C1730 C 0.0327 0.67936 0.64113 0.0
C1731 C 0.99227 0.69812 0.62027 0.0
C1732 C 0.96917 0.69976 0.60286 0.0
C1733 C 0.94805 0.68368 0.59669 0.0
C1734 C 0.9265 0.68531 0.58019 0.0
C1735 C 0.9257 0.70306 0.56981 0.0
C1736 C 0.94641 0.71924 0.57593 0.0
C1737 C 0.96803 0.71766 0.59241 0.0
H1738 H 0.90899 0.7043 0.55704 0.0
H1739 H 0.12345 0.68968 0.71486 0.0
H1740 H 0.33567 0.7744 0.48962 0.0
H1741 H 0.34998 0.76874 0.46227 0.0
H1742 H 0.26926 0.7361 0.43626 0.0
H1743 H 0.25482 0.74151 0.4638 0.0
H1744 H 0.32522 0.71605 0.43115 0.0
H1745 H 0.26503 0.78588 0.41791 0.0
H1746 H 0.25206 0.82094 0.43054 0.0
H1747 H 0.34303 0.83536 0.45305 0.0
H1748 H 0.35646 0.80071 0.43975 0.0
H1749 H 0.31499 0.71997 0.33985 0.0
H1750 H 0.30392 0.72416 0.36832 0.0
H1751 H 0.3766 0.76685 0.38937 0.0
H1752 H 0.38848 0.76225 0.36115 0.0
H1753 H 0.32735 0.78179 0.39815 0.0
H1754 H 0.38563 0.71758 0.40169 0.0
H1755 H 0.40176 0.68168 0.39236 0.0
H1756 H 0.32115 0.65452 0.39308 0.0
H1757 H 0.30429 0.69038 0.40212 0.0
C1758 C 0.32104 0.76586 0.47813 0.0
C1759 C 0.29409 0.75845 0.47874 0.0
C1760 C 0.32924 0.76268 0.46254 0.0
C1761 C 0.31055 0.75216 0.4473 0.0
C1762 C 0.28393 0.74423 0.44797 0.0
C1763 C 0.27568 0.7474 0.46362 0.0
C1764 C 0.31826 0.75059 0.43042 0.0
C1765 C 0.32534 0.73029 0.42375 0.0
C1766 C 0.31951 0.76932 0.42128 0.0
C1767 C 0.31167 0.79086 0.42788 0.0
C1768 C 0.2822 0.79666 0.42542 0.0
C1769 C 0.2748 0.81637 0.43279 0.0
C1770 C 0.29672 0.83014 0.44299 0.0
C1771 C 0.3261 0.82457 0.4453 0.0
C1772 C 0.33361 0.80504 0.43765 0.0
C1773 C 0.3287 0.7302 0.35053 0.0
C1774 C 0.35276 0.74064 0.34823 0.0
C1775 C 0.32228 0.73263 0.36677 0.0
C1776 C 0.33967 0.7456 0.38098 0.0
C1777 C 0.36294 0.75676 0.37854 0.0
C1778 C 0.36955 0.75421 0.36234 0.0
C1779 C 0.33388 0.74706 0.39851 0.0
C1780 C 0.32723 0.76742 0.4054 0.0
C1781 C 0.33371 0.72832 0.40803 0.0
C1782 C 0.34353 0.70675 0.40236 0.0
C1783 C 0.37117 0.70401 0.39965 0.0
C1784 C 0.38049 0.68366 0.39446 0.0
C1785 C 0.36245 0.66584 0.39207 0.0
C1786 C 0.33507 0.66835 0.39489 0.0
C1787 C 0.32562 0.68869 0.40005 0.0
H1788 H 0.36972 0.65008 0.38808 0.0
H1789 H 0.29091 0.84531 0.44882 0.0
H1790 H 0.32744 0.10707 0.18215 0.0
H1791 H 0.32021 0.11129 0.15029 0.0
H1792 H 0.24276 0.07296 0.1368 0.0
H1793 H 0.25031 0.06791 0.16868 0.0
H1794 H 0.29809 0.06759 0.1169 0.0
H1795 H 0.21765 0.1131 0.12988 0.0
H1796 H 0.20163 0.13908 0.1504 0.0
H1797 H 0.26897 0.1825 0.14981 0.0
H1798 H 0.28557 0.15666 0.12948 0.0
H1799 H 0.26501 0.15997 0.04768 0.0
H1800 H 0.25102 0.12689 0.05821 0.0
H1801 H 0.33629 0.12265 0.09713 0.0
H1802 H 0.34974 0.15625 0.08739 0.0
H1803 H 0.25789 0.1398 0.0961 0.0
H1804 H 0.34857 0.07703 0.10681 0.0
H1805 H 0.375 0.05439 0.08939 0.0
H1806 H 0.29642 0.04945 0.04507 0.0
H1807 H 0.26972 0.07235 0.06216 0.0
C1808 C 0.30917 0.09921 0.1724 0.0
C1809 C 0.28936 0.08728 0.17783 0.0
C1810 C 0.30511 0.10161 0.15429 0.0
C1811 C 0.28121 0.09214 0.14142 0.0
C1812 C 0.26156 0.07998 0.14668 0.0
C1813 C 0.26565 0.07748 0.16483 0.0
C1814 C 0.27586 0.09685 0.12263 0.0
C1815 C 0.28849 0.08306 0.112 0.0
C1816 C 0.26358 0.11709 0.11652 0.0
C1817 C 0.2528 0.13295 0.12817 0.0
C1818 C 0.22904 0.12817 0.13416 0.0
C1819 C 0.21987 0.14287 0.14576 0.0
C1820 C 0.23427 0.16243 0.1514 0.0
C1821 C 0.2578 0.16737 0.14541 0.0
C1822 C 0.26704 0.15273 0.13382 0.0
C1823 C 0.28102 0.15158 0.05812 0.0
C1824 C 0.30789 0.16111 0.06733 0.0
C1825 C 0.27322 0.13245 0.06382 0.0
C1826 C 0.29255 0.12251 0.07849 0.0
C1827 C 0.32118 0.13003 0.08563 0.0
C1828 C 0.32878 0.1494 0.08018 0.0
C1829 C 0.28071 0.11081 0.09041 0.0
C1830 C 0.26544 0.12358 0.10018 0.0
C1831 C 0.29132 0.09002 0.09593 0.0
C1832 C 0.30721 0.07622 0.08575 0.0
C1833 C 0.33696 0.07099 0.09338 0.0
C1834 C 0.35201 0.05823 0.08354 0.0
C1835 C 0.33738 0.05045 0.06615 0.0
C1836 C 0.30773 0.05552 0.05852 0.0
C1837 C 0.29269 0.06848 0.06823 0.0
H1838 H 0.34903 0.0405 0.05857 0.0
H1839 H 0.22719 0.17376 0.16041 0.0
H1840 H 0.84042 0.7786 0.93069 0.0
H1841 H 0.86679 0.78494 0.90951 0.0
H1842 H 0.93738 0.74286 0.93762 0.0
H1843 H 0.91147 0.73692 0.95953 0.0
H1844 H 0.95262 0.78285 0.92069 0.0
H1845 H 0.89383 0.71831 0.90761 0.0
H1846 H 0.84863 0.69902 0.9051 0.0
H1847 H 0.79953 0.7422 0.86541 0.0
H1848 H 0.84438 0.76198 0.86792 0.0
H1849 H 0.99481 0.75997 0.84053 0.0
H1850 H 0.98521 0.76039 0.86938 0.0
H1851 H 0.89619 0.78165 0.84433 0.0
H1852 H 0.90484 0.77948 0.81529 0.0
H1853 H 0.89579 0.74888 0.86219 0.0
H1854 H 0.94915 0.81616 0.87714 0.0
H1855 H 0.99069 0.84014 0.88137 0.0
H1856 H 0.04744 0.7954 0.91652 0.0
H1857 H 0.0059 0.77133 0.91273 0.0
C1858 C 0.86201 0.77128 0.93286 0.0
C1859 C 0.87372 0.75704 0.9467 0.0
C1860 C 0.87701 0.77491 0.92069 0.0
C1861 C 0.90378 0.76419 0.922 0.0
C1862 C 0.91669 0.75125 0.93649 0.0
C1863 C 0.9017 0.74766 0.9488 0.0
C1864 C 0.9153 0.76383 0.9066 0.0
C1865 C 0.94063 0.77514 0.90792 0.0
C1866 C 0.89921 0.75404 0.89 0.0
C1867 C 0.87242 0.74168 0.88803 0.0
C1868 C 0.87337 0.72375 0.89841 0.0
C1869 C 0.84781 0.71273 0.89699 0.0
C1870 C 0.82122 0.71939 0.88512 0.0
C1871 C 0.82014 0.73705 0.87459 0.0
C1872 C 0.84563 0.74815 0.876 0.0
C1873 C 0.9731 0.76456 0.84113 0.0
C1874 C 0.9504 0.7692 0.82548 0.0
C1875 C 0.96784 0.76524 0.85773 0.0
C1876 C 0.93999 0.77109 0.85904 0.0
C1877 C 0.91784 0.77698 0.84362 0.0
C1878 C 0.92289 0.77588 0.827 0.0
C1879 C 0.93269 0.76873 0.87588 0.0
C1880 C 0.90817 0.75653 0.8749 0.0
C1881 C 0.94939 0.77793 0.89266 0.0
C1882 C 0.97456 0.79189 0.89448 0.0
C1883 C 0.97056 0.81137 0.88563 0.0
C1884 C 0.9941 0.82501 0.88801 0.0
C1885 C 0.02182 0.81924 0.8991 0.0
C1886 C 0.02599 0.79984 0.90791 0.0
C1887 C 0.00242 0.78625 0.90572 0.0
H1888 H 0.04003 0.82982 0.90095 0.0
H1889 H 0.80145 0.71086 0.88405 0.0
H1890 H 0.26027 0.58845 0.66877 0.0
H1891 H 0.26216 0.59465 0.63852 0.0
H1892 H 0.35553 0.58335 0.65589 0.0
H1893 H 0.35377 0.57686 0.68609 0.0
H1894 H 0.32545 0.6283 0.64291 0.0
H1895 H 0.32902 0.55054 0.62865 0.0
H1896 H 0.30883 0.51399 0.62577 0.0
H1897 H 0.22992 0.53586 0.58741 0.0
H1898 H 0.24943 0.57269 0.5904 0.0
H1899 H 0.35987 0.6669 0.57729 0.0
H1900 H 0.36104 0.63339 0.59201 0.0
H1901 H 0.26767 0.62844 0.56906 0.0
H1902 H 0.26649 0.66129 0.55309 0.0
H1903 H 0.29699 0.5883 0.58355 0.0
H1904 H 0.28146 0.66272 0.60174 0.0
H1905 H 0.29067 0.70197 0.60541 0.0
H1906 H 0.37971 0.6893 0.63617 0.0
H1907 H 0.37089 0.64995 0.63283 0.0
C1908 C 0.28107 0.58692 0.66598 0.0
C1909 C 0.30697 0.58249 0.67965 0.0
C1910 C 0.28204 0.59014 0.64874 0.0
C1911 C 0.30891 0.5891 0.6451 0.0
C1912 C 0.3346 0.58377 0.65852 0.0
C1913 C 0.33359 0.58024 0.6757 0.0
C1914 C 0.31103 0.59796 0.62865 0.0
C1915 C 0.31995 0.61937 0.63001 0.0
C1916 C 0.30204 0.5866 0.6118 0.0
C1917 C 0.29059 0.56439 0.60982 0.0
C1918 C 0.30726 0.54761 0.61972 0.0
C1919 C 0.29594 0.52684 0.61807 0.0
C1920 C 0.26805 0.52263 0.60645 0.0
C1921 C 0.25146 0.53916 0.59643 0.0
C1922 C 0.26265 0.55997 0.59808 0.0
C1923 C 0.33983 0.65803 0.57432 0.0
C1924 C 0.31282 0.6673 0.56483 0.0
C1925 C 0.34056 0.63875 0.58275 0.0
C1926 C 0.31428 0.62914 0.58218 0.0
C1927 C 0.28811 0.63594 0.5699 0.0
C1928 C 0.28744 0.65495 0.56107 0.0
C1929 C 0.31293 0.61825 0.59806 0.0
C1930 C 0.30337 0.59689 0.59656 0.0
C1931 C 0.32011 0.62987 0.61487 0.0
C1932 C 0.32565 0.65345 0.61683 0.0
C1933 C 0.30305 0.66832 0.60918 0.0
C1934 C 0.30816 0.69057 0.61124 0.0
C1935 C 0.33582 0.69811 0.62086 0.0
C1936 C 0.35834 0.68343 0.62863 0.0
C1937 C 0.35327 0.66116 0.62673 0.0
H1938 H 0.33976 0.71533 0.62239 0.0
H1939 H 0.25931 0.50654 0.60519 0.0
H1940 H 0.26098 0.04797 0.32388 0.0
H1941 H 0.28924 0.04965 0.35576 0.0
H1942 H 0.35247 1.00378 0.34455 0.0
H1943 H 0.32358 1.00165 0.3128 0.0
H1944 H 0.34563 0.99524 0.37509 0.0
H1945 H 0.36406 0.05952 0.34995 0.0
H1946 H 0.35228 0.09306 0.33348 0.0
H1947 H 0.31078 0.12032 0.37158 0.0
H1948 H 0.32194 0.08679 0.38816 0.0
H1949 H 0.46025 0.02515 0.45665 0.0
H1950 H 0.43357 0.02225 0.42437 0.0
H1951 H 0.35659 0.0505 0.43514 0.0
H1952 H 0.38262 0.05268 0.46721 0.0
H1953 H 0.37294 0.06773 0.40485 0.0
H1954 H 0.35898 1.00156 0.43076 0.0
H1955 H 0.37787 0.96917 0.4478 0.0
H1956 H 0.416 0.94506 0.40722 0.0
H1957 H 0.39896 0.978 0.39043 0.0
C1958 C 0.28069 0.03805 0.32836 0.0
C1959 C 0.29019 0.02465 0.31605 0.0
C1960 C 0.29698 0.03912 0.34652 0.0
C1961 C 0.3234 0.02715 0.35261 0.0
C1962 C 0.33228 0.01321 0.34028 0.0
C1963 C 0.31583 0.012 0.32215 0.0
C1964 C 0.3422 0.02969 0.37163 0.0
C1965 C 0.35186 0.0111 0.38149 0.0
C1966 C 0.35042 0.05036 0.38014 0.0
C1967 C 0.34356 0.07054 0.37019 0.0
C1968 C 0.3522 0.07259 0.35474 0.0
C1969 C 0.34567 0.09162 0.3454 0.0
C1970 C 0.33072 0.10879 0.35145 0.0
C1971 C 0.32231 0.10699 0.36689 0.0
C1972 C 0.32875 0.08798 0.37627 0.0
C1973 C 0.43772 0.03087 0.45204 0.0
C1974 C 0.42345 0.03908 0.46437 0.0
C1975 C 0.42253 0.02919 0.43367 0.0
C1976 C 0.3931 0.03616 0.4274 0.0
C1977 C 0.37926 0.04508 0.43969 0.0
C1978 C 0.39413 0.04622 0.458 0.0
C1979 C 0.37607 0.03338 0.40818 0.0
C1980 C 0.36673 0.05191 0.39835 0.0
C1981 C 0.36868 0.01266 0.39965 0.0
C1982 C 0.37804 0.99248 0.40944 0.0
C1983 C 0.37174 0.98954 0.42556 0.0
C1984 C 0.38207 0.97105 0.43516 0.0
C1985 C 0.39782 0.95497 0.42849 0.0
C1986 C 0.40363 0.95748 0.4123 0.0
C1987 C 0.39383 0.97615 0.4028 0.0
H1988 H 0.40562 0.9406 0.4359 0.0
H1989 H 0.3257 0.12351 0.34421 0.0
H1990 H 0.84368 0.81801 0.04392 0.0
H1991 H 0.87801 0.84566 0.04235 0.0
H1992 H 0.83594 0.84822 0.98536 0.0
H1993 H 0.80379 0.81922 0.98679 0.0
H1994 H 0.8882 0.85293 0.98963 0.0
H1995 H 0.82444 0.88746 0.02137 0.0
H1996 H 0.80129 0.89159 0.04559 0.0
H1997 H 0.88584 0.89605 0.08476 0.0
H1998 H 0.90948 0.89174 0.06079 0.0
H1999 H 0.94198 0.95517 0.97811 0.0
H2000 H 0.91173 0.92481 0.97972 0.0
H2001 H 0.95684 0.92176 0.0363 0.0
H2002 H 0.98511 0.95332 0.03487 0.0
H2003 H 0.90409 0.91684 0.03241 0.0
H2004 H 0.96721 0.88366 -0.00084 0.0
H2005 H 0.98839 0.88101 0.97402 0.0
H2006 H 0.90246 0.87551 0.93653 0.0
H2007 H 0.88077 0.87834 0.96142 0.0
C2008 C 0.84215 0.8244 0.03109 0.0
C2009 C 0.82128 0.81657 0.01548 0.0
C2010 C 0.8615 0.84039 0.03018 0.0
C2011 C 0.85922 0.84965 0.01379 0.0
C2012 C 0.83838 0.8415 0.99819 0.0
C2013 C 0.81991 0.82494 -0.001 0.0
C2014 C 0.87816 0.86788 0.01272 0.0
C2015 C 0.89138 0.86699 0.99891 0.0
C2016 C 0.88297 0.8862 0.02494 0.0
C2017 C 0.8687 0.8891 0.0393 0.0
C2018 C 0.83807 0.88925 0.03516 0.0
C2019 C 0.82488 0.89162 0.04884 0.0
C2020 C 0.84209 0.89403 0.06671 0.0
C2021 C 0.87254 0.89416 0.07093 0.0
C2022 C 0.88584 0.89178 0.0573 0.0
C2023 C 0.94544 0.94784 0.99082 0.0
C2024 C 0.96588 0.95637 0.00635 0.0
C2025 C 0.92833 0.93036 0.99174 0.0
C2026 C 0.93232 0.92047 0.00807 0.0
C2027 C 0.95319 0.92897 0.02352 0.0
C2028 C 0.96947 0.94692 0.02272 0.0
C2029 C 0.91418 0.90187 0.00936 0.0
C2030 C 0.90104 0.90272 0.02319 0.0
C2031 C 0.9092 0.88364 0.99704 0.0
C2032 C 0.92239 0.88133 0.98215 0.0
C2033 C 0.95285 0.88192 0.98555 0.0
C2034 C 0.96493 0.8804 0.97134 0.0
C2035 C 0.94678 0.87813 0.95369 0.0
C2036 C 0.9165 0.87727 0.9502 0.0
C2037 C 0.90431 0.87879 0.96435 0.0
H2038 H 0.95617 0.87701 0.94272 0.0
H2039 H 0.83183 0.89584 0.07728 0.0
H2040 H 0.6507 0.24924 0.51006 0.0
H2041 H 0.61468 0.22251 0.50991 0.0
H2042 H 0.65412 0.17686 0.47983 0.0
H2043 H 0.69059 0.20361 0.47989 0.0
H2044 H 0.58963 0.1776 0.46932 0.0
H2045 H 0.674 0.17939 0.52313 0.0
H2046 H 0.70543 0.19785 0.55025 0.0
H2047 H 0.63295 0.20635 0.57165 0.0
H2048 H 0.60052 0.18905 0.54408 0.0
H2049 H 0.54654 0.07586 0.48599 0.0
H2050 H 0.57262 0.10759 0.48268 0.0
H2051 H 0.54454 0.14252 0.52414 0.0
H2052 H 0.51852 0.11059 0.52771 0.0
H2053 H 0.59946 0.15005 0.52908 0.0
H2054 H 0.51496 0.15482 0.48085 0.0
H2055 H 0.47454 0.14406 0.45419 0.0
H2056 H 0.53536 0.13084 0.42416 0.0
H2057 H 0.5763 0.1412 0.45077 0.0
C2058 C 0.65159 0.23366 0.50313 0.0
C2059 C 0.67389 0.22854 0.49513 0.0
C2060 C 0.63085 0.2184 0.50306 0.0
C2061 C 0.63191 0.19761 0.49506 0.0
C2062 C 0.65295 0.19282 0.48611 0.0
C2063 C 0.67385 0.20811 0.4862 0.0
C2064 C 0.6129 0.18033 0.49744 0.0
C2065 C 0.592 0.17134 0.48233 0.0
C2066 C 0.61478 0.17315 0.51462 0.0
C2067 C 0.63465 0.18317 0.53134 0.0
C2068 C 0.66453 0.18561 0.5334 0.0
C2069 C 0.68253 0.19601 0.54887 0.0
C2070 C 0.67119 0.20335 0.5627 0.0
C2071 C 0.64171 0.20065 0.56094 0.0
C2072 C 0.62345 0.19068 0.54533 0.0
C2073 C 0.54583 0.09026 0.49444 0.0
C2074 C 0.53037 0.09062 0.50713 0.0
C2075 C 0.56064 0.1085 0.49243 0.0
C2076 C 0.5603 0.12761 0.50298 0.0
C2077 C 0.5451 0.128 0.5158 0.0
C2078 C 0.53017 0.10973 0.5178 0.0
C2079 C 0.57655 0.14686 0.50088 0.0
C2080 C 0.59696 0.15625 0.51603 0.0
C2081 C 0.57313 0.15523 0.48391 0.0
C2082 C 0.54877 0.14853 0.4679 0.0
C2083 C 0.51979 0.14937 0.46863 0.0
C2084 C 0.49676 0.1434 0.45351 0.0
C2085 C 0.50239 0.1367 0.43751 0.0
C2086 C 0.53106 0.13599 0.43659 0.0
C2087 C 0.55419 0.14191 0.45169 0.0
H2088 H 0.48452 0.13213 0.4258 0.0
H2089 H 0.6852 0.21094 0.57486 0.0
H2090 H 0.81078 0.47553 0.27202 0.0
H2091 H 0.84552 0.44494 0.27218 0.0
H2092 H 0.83068 0.44971 0.21552 0.0
H2093 H 0.79717 0.48077 0.21552 0.0
H2094 H 0.83324 0.40375 0.23002 0.0
H2095 H 0.88528 0.47164 0.23743 0.0
H2096 H 0.90201 0.5069 0.25272 0.0
H2097 H 0.94353 0.47543 0.30163 0.0
H2098 H 0.92656 0.44001 0.28669 0.0
H2099 H 0.9524 0.34012 0.21495 0.0
H2100 H 0.91291 0.36649 0.21514 0.0
H2101 H 0.95852 0.38622 0.26992 0.0
H2102 H -0.00134 0.36108 0.26917 0.0
H2103 H 0.93834 0.41948 0.25713 0.0
H2104 H 0.88977 0.35246 0.2527 0.0
H2105 H 0.87323 0.31604 0.24009 0.0
H2106 H 0.82488 0.34296 0.19022 0.0
H2107 H 0.84147 0.37952 0.20246 0.0
C2108 C 0.81436 0.46965 0.25953 0.0
C2109 C 0.8008 0.48033 0.24368 0.0
C2110 C 0.83441 0.45226 0.25965 0.0
C2111 C 0.8408 0.44488 0.24383 0.0
C2112 C 0.82611 0.45491 0.22787 0.0
C2113 C 0.80683 0.47264 0.22787 0.0
C2114 C 0.86414 0.42782 0.24401 0.0
C2115 C 0.85626 0.40717 0.23587 0.0
C2116 C 0.89421 0.43193 0.25205 0.0
C2117 C 0.90426 0.45323 0.26101 0.0
C2118 C 0.89764 0.47227 0.2515 0.0
C2119 C 0.90724 0.49228 0.26009 0.0
C2120 C 0.92372 0.49342 0.27815 0.0
C2121 C 0.93069 0.47454 0.28765 0.0
C2122 C 0.92107 0.4545 0.27913 0.0
C2123 C 0.95374 0.34993 0.22707 0.0
C2124 C 0.97864 0.34838 0.24207 0.0
C2125 C 0.93095 0.36502 0.22727 0.0
C2126 C 0.93186 0.37838 0.24273 0.0
C2127 C 0.95674 0.37639 0.25775 0.0
C2128 C 0.97979 0.36182 0.25737 0.0
C2129 C 0.90777 0.39488 0.24324 0.0
C2130 C 0.91543 0.41564 0.25144 0.0
C2131 C 0.87745 0.39058 0.23574 0.0
C2132 C 0.86705 0.36869 0.22845 0.0
C2133 C 0.8757 0.3506 0.23902 0.0
C2134 C 0.86633 0.32993 0.23194 0.0
C2135 C 0.84806 0.32718 0.21436 0.0
C2136 C 0.83905 0.34511 0.20384 0.0
C2137 C 0.8484 0.36581 0.21084 0.0
H2138 H 0.84085 0.31117 0.20889 0.0
H2139 H 0.93118 0.50891 0.28477 0.0
H2140 H 0.10248 0.5466 0.49747 0.0
H2141 H 0.13495 0.57703 0.49956 0.0
H2142 H 0.07398 0.62037 0.51581 0.0
H2143 H 0.04176 0.59008 0.51418 0.0
H2144 H 0.09495 0.62986 0.48293 0.0
H2145 H 0.12906 0.62475 0.5488 0.0
H2146 H 0.15132 0.60892 0.57815 0.0
H2147 H 0.21997 0.5796 0.55929 0.0
H2148 H 0.19855 0.59587 0.53006 0.0
H2149 H 0.1648 0.72984 0.50327 0.0
H2150 H 0.13769 0.6973 0.50341 0.0
H2151 H 0.21708 0.65856 0.51104 0.0
H2152 H 0.2446 0.69164 0.51215 0.0
H2153 H 0.18809 0.64484 0.53051 0.0
H2154 H 0.15963 0.66244 0.46846 0.0
H2155 H 0.14096 0.68661 0.44339 0.0
H2156 H 0.0597 0.69507 0.45567 0.0
H2157 H 0.078 0.67118 0.48095 0.0
C2158 C 0.09604 0.56261 0.50153 0.0
C2159 C 0.06948 0.56599 0.50554 0.0
C2160 C 0.11471 0.57989 0.50287 0.0
C2161 C 0.10688 0.60083 0.50798 0.0
C2162 C 0.08046 0.60426 0.51201 0.0
C2163 C 0.06207 0.58695 0.51101 0.0
C2164 C 0.125 0.61945 0.5076 0.0
C2165 C 0.1153 0.63325 0.49333 0.0
C2166 C 0.15168 0.62358 0.52097 0.0
C2167 C 0.16195 0.6111 0.53723 0.0
C2168 C 0.14863 0.61461 0.55086 0.0
C2169 C 0.16138 0.60591 0.56756 0.0
C2170 C 0.18712 0.59335 0.57062 0.0
C2171 C 0.20007 0.58935 0.55694 0.0
C2172 C 0.18771 0.59837 0.54034 0.0
C2173 C 0.17636 0.71432 0.50503 0.0
C2174 C 0.20653 0.71297 0.50752 0.0
C2175 C 0.16086 0.69573 0.5049 0.0
C2176 C 0.17508 0.67533 0.50655 0.0
C2177 C 0.20554 0.67408 0.50949 0.0
C2178 C 0.22125 0.69286 0.51013 0.0
C2179 C 0.15824 0.65547 0.5058 0.0
C2180 C 0.1681 0.64135 0.51983 0.0
C2181 C 0.13158 0.6512 0.49219 0.0
C2182 C 0.12025 0.66507 0.47665 0.0
C2183 C 0.1378 0.66949 0.46584 0.0
C2184 C 0.12729 0.68315 0.45159 0.0
C2185 C 0.09918 0.69238 0.44795 0.0
C2186 C 0.08146 0.6879 0.4585 0.0
C2187 C 0.09187 0.67427 0.47276 0.0
H2188 H 0.09111 0.703 0.43694 0.0
H2189 H 0.19692 0.58661 0.58356 0.0
H2190 H 0.72105 0.0884 0.77062 0.0
H2191 H 0.68986 0.12059 0.77276 0.0
H2192 H 0.61425 0.08012 0.75868 0.0
H2193 H 0.64459 0.04875 0.75583 0.0
H2194 H 0.59823 0.11361 0.74212 0.0
H2195 H 0.6531 0.10244 0.80386 0.0
H2196 H 0.69756 0.09955 0.82966 0.0
H2197 H 0.72027 0.16427 0.8229 0.0
H2198 H 0.6761 0.16744 0.79691 0.0
H2199 H 0.49473 0.16882 0.77771 0.0
H2200 H 0.53457 0.1447 0.77441 0.0
H2201 H 0.5855 0.19991 0.77273 0.0
H2202 H 0.5451 0.22433 0.77577 0.0
H2203 H 0.61799 0.16425 0.79565 0.0
H2204 H 0.55757 0.17551 0.73575 0.0
H2205 H 0.51117 0.17728 0.71154 0.0
H2206 H 0.49736 0.10999 0.71614 0.0
H2207 H 0.54346 0.10794 0.74086 0.0
C2208 C 0.69774 0.0865 0.76786 0.0
C2209 C 0.68549 0.06586 0.76308 0.0
C2210 C 0.67985 0.10492 0.76925 0.0
C2211 C 0.64938 0.10304 0.7661 0.0
C2212 C 0.63743 0.08239 0.76114 0.0
C2213 C 0.65504 0.06426 0.75958 0.0
C2214 C 0.62931 0.12208 0.76768 0.0
C2215 C 0.6027 0.12449 0.75396 0.0
C2216 C 0.63493 0.13701 0.78279 0.0
C2217 C 0.66153 0.13507 0.79831 0.0
C2218 C 0.66772 0.11598 0.80778 0.0
C2219 C 0.69283 0.1143 0.82245 0.0
C2220 C 0.71179 0.13168 0.82787 0.0
C2221 C 0.70562 0.1508 0.81866 0.0
C2222 C 0.68055 0.15255 0.80396 0.0
C2223 C 0.51439 0.17594 0.77669 0.0
C2224 C 0.51654 0.19861 0.77695 0.0
C2225 C 0.53725 0.16205 0.7748 0.0
C2226 C 0.56323 0.17034 0.77329 0.0
C2227 C 0.56581 0.19302 0.77392 0.0
C2228 C 0.54261 0.20701 0.77556 0.0
C2229 C 0.58682 0.15504 0.77041 0.0
C2230 C 0.6139 0.15341 0.7838 0.0
C2231 C 0.58152 0.14051 0.75516 0.0
C2232 C 0.55386 0.14163 0.74026 0.0
C2233 C 0.54453 0.16113 0.73173 0.0
C2234 C 0.51827 0.16217 0.71787 0.0
C2235 C 0.50128 0.14376 0.71223 0.0
C2236 C 0.51053 0.12425 0.72051 0.0
C2237 C 0.53672 0.12314 0.73446 0.0
H2238 H 0.48098 0.14459 0.70145 0.0
H2239 H 0.73121 0.13036 0.83924 0.0
H2240 H 0.7366 0.61109 0.15169 0.0
H2241 H 0.73674 0.6337 0.12719 0.0
H2242 H 0.80683 0.6708 0.16278 0.0
H2243 H 0.80615 0.64875 0.18754 0.0
H2244 H 0.76878 0.69795 0.142 0.0
H2245 H 0.81673 0.63109 0.12947 0.0
H2246 H 0.82095 0.59162 0.12367 0.0
H2247 H 0.74349 0.59397 0.07855 0.0
H2248 H 0.73862 0.6334 0.08422 0.0
H2249 H 0.78961 0.75584 0.06872 0.0
H2250 H 0.79583 0.73537 0.09572 0.0
H2251 H 0.74171 0.68524 0.06323 0.0
H2252 H 0.73551 0.70523 0.03686 0.0
H2253 H 0.77576 0.66505 0.08424 0.0
H2254 H 0.72422 0.73043 0.09634 0.0
H2255 H 0.7185 0.77 0.10096 0.0
H2256 H 0.79654 0.77065 0.14571 0.0
H2257 H 0.80339 0.73124 0.141 0.0
C2258 C 0.75199 0.62412 0.15449 0.0
C2259 C 0.7714 0.62776 0.17193 0.0
C2260 C 0.75227 0.63703 0.14025 0.0
C2261 C 0.77206 0.65407 0.14278 0.0
C2262 C 0.79131 0.65786 0.16018 0.0
C2263 C 0.79108 0.64494 0.17443 0.0
C2264 C 0.77259 0.66792 0.12745 0.0
C2265 C 0.77052 0.69071 0.12941 0.0
C2266 C 0.77429 0.65887 0.11069 0.0
C2267 C 0.77721 0.63516 0.10736 0.0
C2268 C 0.8005 0.62316 0.11839 0.0
C2269 C 0.80302 0.6008 0.11511 0.0
C2270 C 0.78247 0.59028 0.10078 0.0
C2271 C 0.75938 0.60212 0.08966 0.0
C2272 C 0.75675 0.62447 0.09289 0.0
C2273 C 0.77855 0.74064 0.06748 0.0
C2274 C 0.7618 0.73242 0.05046 0.0
C2275 C 0.78197 0.72883 0.08303 0.0
C2276 C 0.76827 0.70866 0.08208 0.0
C2277 C 0.75188 0.70074 0.06495 0.0
C2278 C 0.74848 0.71234 0.04961 0.0
C2279 C 0.77073 0.69531 0.09835 0.0
C2280 C 0.77364 0.6725 0.09667 0.0
C2281 C 0.76902 0.70436 0.11517 0.0
C2282 C 0.76447 0.72793 0.11822 0.0
C2283 C 0.74022 0.73903 0.10713 0.0
C2284 C 0.73678 0.76142 0.10975 0.0
C2285 C 0.75704 0.77279 0.12365 0.0
C2286 C 0.78086 0.76182 0.13495 0.0
C2287 C 0.7846 0.73947 0.13228 0.0
H2288 H 0.7543 0.79012 0.12565 0.0
H2289 H 0.78447 0.57298 0.09826 0.0
H2290 H 0.94342 0.49244 0.45294 0.0
H2291 H 0.91671 0.49405 0.42096 0.0
H2292 H 0.94641 0.55914 0.42139 0.0
H2293 H 0.9715 0.55783 0.45357 0.0
H2294 H 0.89293 0.55945 0.40446 0.0
H2295 H 0.97107 0.50973 0.40005 0.0
H2296 H 0.00236 0.47668 0.4059 0.0
H2297 H 0.92685 0.43718 0.38494 0.0
H2298 H 0.89506 0.46991 0.37926 0.0
H2299 H 0.82822 0.5635 0.30809 0.0
H2300 H 0.86402 0.56399 0.33827 0.0
H2301 H 0.83558 0.5013 0.3466 0.0
H2302 H 0.80073 0.5005 0.31708 0.0
H2303 H 0.89255 0.50151 0.35792 0.0
H2304 H 0.81455 0.54889 0.36549 0.0
H2305 H 0.78091 0.58064 0.35965 0.0
H2306 H 0.85398 0.6231 0.37493 0.0
H2307 H 0.88808 0.59154 0.38064 0.0
C2308 C 0.94476 0.50685 0.44603 0.0
C2309 C 0.95996 0.52486 0.45559 0.0
C2310 C 0.92951 0.5078 0.42769 0.0
C2311 C 0.92969 0.52664 0.41841 0.0
C2312 C 0.94573 0.54439 0.42802 0.0
C2313 C 0.96037 0.54358 0.4464 0.0
C2314 C 0.91179 0.52848 0.39911 0.0
C2315 C 0.89343 0.54691 0.39426 0.0
C2316 C 0.91148 0.51199 0.38565 0.0
C2317 C 0.93066 0.49231 0.3893 0.0
C2318 C 0.96112 0.494 0.39682 0.0
C2319 C 0.97894 0.47531 0.40009 0.0
C2320 C 0.96658 0.45487 0.39575 0.0
C2321 C 0.93638 0.45303 0.38826 0.0
C2322 C 0.91846 0.47164 0.38501 0.0
C2323 C 0.82964 0.54985 0.31637 0.0
C2324 C 0.81128 0.53205 0.30995 0.0
C2325 C 0.85009 0.55015 0.33367 0.0
C2326 C 0.85261 0.53265 0.34487 0.0
C2327 C 0.83441 0.51496 0.33835 0.0
C2328 C 0.81416 0.51465 0.3213 0.0
C2329 C 0.87375 0.53233 0.36342 0.0
C2330 C 0.89257 0.51418 0.36812 0.0
C2331 C 0.87429 0.54891 0.37678 0.0
C2332 C 0.85385 0.56787 0.37325 0.0
C2333 C 0.82344 0.56499 0.36744 0.0
C2334 C 0.80429 0.58295 0.36419 0.0
C2335 C 0.8153 0.60387 0.36685 0.0
C2336 C 0.84549 0.60688 0.37282 0.0
C2337 C 0.86473 0.58897 0.37607 0.0
H2338 H 0.80044 0.61776 0.36434 0.0
H2339 H 0.98038 0.44043 0.39811 0.0
H2340 H 0.15628 0.51422 0.70671 0.0
H2341 H 0.12734 0.51257 0.67524 0.0
H2342 H 0.20582 0.51831 0.65987 0.0
H2343 H 0.23464 0.52166 0.69166 0.0
H2344 H 0.16537 0.53905 0.63769 0.0
H2345 H 0.1691 0.46753 0.65897 0.0
H2346 H 0.16399 0.43988 0.67918 0.0
H2347 H 0.07218 0.45518 0.66682 0.0
H2348 H 0.07681 0.48311 0.6467 0.0
H2349 H 0.11134 0.49583 0.55055 0.0
H2350 H 0.13469 0.4943 0.58265 0.0
H2351 H 0.05362 0.51432 0.59255 0.0
H2352 H 0.02939 0.51471 0.55999 0.0
H2353 H 0.09369 0.48003 0.61682 0.0
H2354 H 0.0943 0.55533 0.59851 0.0
H2355 H 0.09436 0.5727 0.57101 0.0
H2356 H 0.178 0.54304 0.57407 0.0
H2357 H 0.17863 0.52567 0.60176 0.0
C2358 C 0.16737 0.5151 0.69661 0.0
C2359 C 0.19776 0.51768 0.70159 0.0
C2360 C 0.15081 0.51404 0.67857 0.0
C2361 C 0.16435 0.51455 0.66499 0.0
C2362 C 0.19475 0.51768 0.66999 0.0
C2363 C 0.21126 0.51948 0.68815 0.0
C2364 C 0.14676 0.51149 0.64571 0.0
C2365 C 0.1499 0.52605 0.63329 0.0
C2366 C 0.12627 0.49457 0.63959 0.0
C2367 C 0.12336 0.47753 0.65145 0.0
C2368 C 0.14785 0.46506 0.66063 0.0
C2369 C 0.14504 0.44934 0.67206 0.0
C2370 C 0.1178 0.44581 0.67431 0.0
C2371 C 0.09328 0.45794 0.66507 0.0
C2372 C 0.09597 0.4737 0.65364 0.0
C2373 C 0.09826 0.4997 0.55948 0.0
C2374 C 0.06859 0.50584 0.55274 0.0
C2375 C 0.11165 0.49865 0.57785 0.0
C2376 C 0.096 0.50438 0.58999 0.0
C2377 C 0.06605 0.50973 0.58338 0.0
C2378 C 0.05235 0.51025 0.56483 0.0
C2379 C 0.11223 0.50763 0.60933 0.0
C2380 C 0.10896 0.49312 0.62156 0.0
C2381 C 0.1328 0.52428 0.61527 0.0
C2382 C 0.13663 0.53941 0.60226 0.0
C2383 C 0.11319 0.55317 0.59367 0.0
C2384 C 0.11294 0.56277 0.57794 0.0
C2385 C 0.13603 0.55873 0.57072 0.0
C2386 C 0.16016 0.54606 0.57972 0.0
C2387 C 0.16063 0.53653 0.59554 0.0
H2388 H 0.13515 0.56533 0.55809 0.0
H2389 H 0.11567 0.43366 0.68319 0.0
H2390 H 0.51345 0.799 0.18182 0.0
H2391 H 0.51906 0.79589 0.15179 0.0
H2392 H 0.59844 0.75803 0.17166 0.0
H2393 H 0.59273 0.76051 0.20167 0.0
H2394 H 0.58544 0.80814 0.15081 0.0
H2395 H 0.57503 0.7277 0.15113 0.0
H2396 H 0.54754 0.69515 0.15201 0.0
H2397 H 0.47537 0.71771 0.10904 0.0
H2398 H 0.50228 0.75068 0.10821 0.0
H2399 H 0.66753 0.76669 0.09668 0.0
H2400 H 0.63623 0.76165 0.11547 0.0
H2401 H 0.56534 0.79546 0.07844 0.0
H2402 H 0.59679 0.80089 0.05955 0.0
H2403 H 0.56222 0.74915 0.1032 0.0
H2404 H 0.57469 0.8283 0.10092 0.0
H2405 H 0.60487 0.85883 0.09877 0.0
H2406 H 0.67279 0.83829 0.14493 0.0
H2407 H 0.64316 0.80739 0.14711 0.0
C2408 C 0.53188 0.78971 0.17978 0.0
C2409 C 0.55257 0.77985 0.19413 0.0
C2410 C 0.53481 0.78777 0.16258 0.0
C2411 C 0.55859 0.77615 0.15951 0.0
C2412 C 0.57933 0.76636 0.17373 0.0
C2413 C 0.57618 0.76797 0.19087 0.0
C2414 C 0.56471 0.77741 0.14236 0.0
C2415 C 0.57997 0.7954 0.14029 0.0
C2416 C 0.55717 0.76091 0.12861 0.0
C2417 C 0.54039 0.74185 0.1299 0.0
C2418 C 0.55305 0.72597 0.14217 0.0
C2419 C 0.53766 0.70738 0.14257 0.0
C2420 C 0.50972 0.70438 0.1306 0.0
C2421 C 0.497 0.72007 0.11832 0.0
C2422 C 0.51227 0.73874 0.11792 0.0
C2423 C 0.64509 0.77255 0.09226 0.0
C2424 C 0.63474 0.78454 0.07687 0.0
C2425 C 0.62722 0.76958 0.10295 0.0
C2426 C 0.5987 0.7783 0.09829 0.0
C2427 C 0.58738 0.78867 0.08217 0.0
C2428 C 0.6054 0.79189 0.07153 0.0
C2429 C 0.58323 0.77972 0.11187 0.0
C2430 C 0.56657 0.76227 0.11341 0.0
C2431 C 0.58925 0.79678 0.12515 0.0
C2432 C 0.60689 0.81546 0.12404 0.0
C2433 C 0.59617 0.83021 0.1105 0.0
C2434 C 0.61315 0.84758 0.10929 0.0
C2435 C 0.64077 0.85046 0.12168 0.0
C2436 C 0.65142 0.83601 0.13532 0.0
C2437 C 0.63456 0.81857 0.13655 0.0
H2438 H 0.65388 0.86393 0.12073 0.0
H2439 H 0.49801 0.68985 0.13082 0.0
H2440 H 0.67899 0.47902 0.20186 0.0
H2441 H 0.64541 0.47898 0.17102 0.0
H2442 H 0.64389 0.54882 0.17364 0.0
H2443 H 0.67695 0.54897 0.20402 0.0
H2444 H 0.59007 0.53462 0.15694 0.0
H2445 H 0.68682 0.52017 0.15256 0.0
H2446 H 0.73418 0.50053 0.15793 0.0
H2447 H 0.69008 0.44274 0.13244 0.0
H2448 H 0.64239 0.46199 0.12713 0.0
H2449 H 0.5339 0.55491 0.0633 0.0
H2450 H 0.56117 0.55358 0.0952 0.0
H2451 H 0.576 0.48473 0.08804 0.0
H2452 H 0.55133 0.48667 0.05599 0.0
H2453 H 0.62214 0.49793 0.10787 0.0
H2454 H 0.52377 0.51411 0.11144 0.0
H2455 H 0.4778 0.53579 0.10521 0.0
H2456 H 0.52543 0.59177 0.13174 0.0
H2457 H 0.5717 0.57048 0.13799 0.0
C2458 C 0.67115 0.49432 0.19593 0.0
C2459 C 0.68094 0.51396 0.20548 0.0
C2460 C 0.65207 0.49432 0.17822 0.0
C2461 C 0.64215 0.51394 0.16979 0.0
C2462 C 0.65104 0.53345 0.17966 0.0
C2463 C 0.67019 0.53347 0.19712 0.0
C2464 C 0.62357 0.5145 0.15054 0.0
C2465 C 0.59707 0.52656 0.14619 0.0
C2466 C 0.63243 0.50407 0.13637 0.0
C2467 C 0.66103 0.49243 0.13966 0.0
C2468 C 0.68721 0.50322 0.14826 0.0
C2469 C 0.71411 0.49217 0.15126 0.0
C2470 C 0.71513 0.47038 0.14559 0.0
C2471 C 0.68925 0.4596 0.13687 0.0
C2472 C 0.66228 0.47057 0.13386 0.0
C2473 C 0.54279 0.5395 0.06865 0.0
C2474 C 0.54038 0.52087 0.05716 0.0
C2475 C 0.55825 0.53864 0.08701 0.0
C2476 C 0.57049 0.51891 0.09451 0.0
C2477 C 0.56715 0.50024 0.08292 0.0
C2478 C 0.55278 0.50129 0.06452 0.0
C2479 C 0.58792 0.51758 0.11406 0.0
C2480 C 0.61454 0.50559 0.11852 0.0
C2481 C 0.57913 0.52815 0.1283 0.0
C2482 C 0.5512 0.54073 0.12507 0.0
C2483 C 0.52442 0.53104 0.11593 0.0
C2484 C 0.49833 0.54327 0.11238 0.0
C2485 C 0.49871 0.56516 0.11803 0.0
C2486 C 0.52517 0.57483 0.12736 0.0
C2487 C 0.55132 0.56268 0.13094 0.0
H2488 H 0.47851 0.57462 0.11521 0.0
H2489 H 0.73599 0.46186 0.1479 0.0
H2490 H 0.42255 0.49216 0.03861 0.0
H2491 H 0.39195 0.46133 0.03838 0.0
H2492 H 0.40863 0.43424 0.99031 0.0
H2493 H 0.43918 0.46488 0.99037 0.0
H2494 H 0.34906 0.43314 0.98928 0.0
H2495 H 0.44552 0.41472 0.02887 0.0
H2496 H 0.48894 0.42166 0.05487 0.0
H2497 H 0.4352 0.42462 0.09 0.0
H2498 H 0.39139 0.41801 0.06417 0.0
H2499 H 0.3017 0.32679 0.98605 0.0
H2500 H 0.33099 0.35858 0.98727 0.0
H2501 H 0.32641 0.37619 0.04054 0.0
H2502 H 0.29865 0.3435 0.03975 0.0
H2503 H 0.3783 0.38347 0.03946 0.0
H2504 H 0.28302 0.40317 0.00299 0.0
H2505 H 0.23762 0.3944 0.979 0.0
H2506 H 0.28484 0.39051 0.94024 0.0
H2507 H 0.33063 0.39915 0.96404 0.0
C2508 C 0.41976 0.47964 0.028 0.0
C2509 C 0.43353 0.48091 0.0146 0.0
C2510 C 0.40225 0.46206 0.02788 0.0
C2511 C 0.39815 0.44551 0.01435 0.0
C2512 C 0.41149 0.44688 0.00083 0.0
C2513 C 0.42914 0.46434 0.001 0.0
C2514 C 0.38075 0.42637 0.01457 0.0
C2515 C 0.35555 0.42218 0.00017 0.0
C2516 C 0.38875 0.41247 0.02904 0.0
C2517 C 0.41517 0.41607 0.04458 0.0
C2518 C 0.44295 0.41699 0.04213 0.0
C2519 C 0.46763 0.42085 0.05684 0.0
C2520 C 0.46482 0.42363 0.07407 0.0
C2521 C 0.43734 0.42249 0.07664 0.0
C2522 C 0.41259 0.41867 0.06198 0.0
C2523 C 0.30684 0.33755 0.99796 0.0
C2524 C 0.29769 0.33298 0.01273 0.0
C2525 C 0.32352 0.35572 0.99865 0.0
C2526 C 0.33034 0.3701 0.01384 0.0
C2527 C 0.32136 0.36538 0.02867 0.0
C2528 C 0.30539 0.34683 0.02818 0.0
C2529 C 0.34663 0.39011 0.01415 0.0
C2530 C 0.37162 0.39449 0.02862 0.0
C2531 C 0.33803 0.40449 -2e-05 0.0
C2532 C 0.31025 0.40168 0.98531 0.0
C2533 C 0.28367 0.40063 0.98932 0.0
C2534 C 0.2579 0.39562 0.97578 0.0
C2535 C 0.25839 0.3918 0.95815 0.0
C2536 C 0.28451 0.39348 0.95392 0.0
C2537 C 0.31039 0.39851 0.96743 0.0
H2538 H 0.23849 0.38737 0.94788 0.0
H2539 H 0.48395 0.42663 0.08544 0.0
H2540 H 0.04738 0.22114 0.23067 0.0
H2541 H 0.07996 0.18967 0.233 0.0
H2542 H 0.14645 0.22292 0.27467 0.0
H2543 H 0.11335 0.25512 0.27234 0.0
H2544 H 0.17095 0.19492 0.25237 0.0
H2545 H 0.10348 0.18793 0.2862 0.0
H2546 H 0.0545 0.19087 0.2904 0.0
H2547 H 0.02207 0.14483 0.24622 0.0
H2548 H 0.0708 0.1418 0.24165 0.0
H2549 H 0.23586 0.08821 0.27705 0.0
H2550 H 0.216 0.12549 0.27765 0.0
H2551 H 0.13716 0.10622 0.23675 0.0
H2552 H 0.15665 0.06922 0.23627 0.0
H2553 H 0.12375 0.12909 0.26286 0.0
H2554 H 0.1905 0.13692 0.22833 0.0
H2555 H 0.23904 0.13413 0.22352 0.0
H2556 H 0.27325 0.17832 0.2688 0.0
H2557 H 0.225 0.18106 0.27407 0.0
C2558 C 0.0692 0.22202 0.24006 0.0
C2559 C 0.07778 0.24055 0.25134 0.0
C2560 C 0.08792 0.20396 0.2413 0.0
C2561 C 0.11567 0.2036 0.25406 0.0
C2562 C 0.12517 0.22267 0.26469 0.0
C2563 C 0.10631 0.24107 0.26334 0.0
C2564 C 0.13273 0.18252 0.25709 0.0
C2565 C 0.16089 0.18061 0.25502 0.0
C2566 C 0.11971 0.16363 0.26037 0.0
C2567 C 0.09077 0.16462 0.26361 0.0
C2568 C 0.0859 0.1784 0.27742 0.0
C2569 C 0.05818 0.18012 0.27984 0.0
C2570 C 0.03519 0.16803 0.26859 0.0
C2571 C 0.03992 0.15413 0.25495 0.0
C2572 C 0.0676 0.15236 0.25247 0.0
C2573 C 0.21436 0.092 0.26814 0.0
C2574 C 0.1978 0.07567 0.25668 0.0
C2575 C 0.20304 0.11336 0.26844 0.0
C2576 C 0.17499 0.11885 0.2572 0.0
C2577 C 0.15874 0.10253 0.24562 0.0
C2578 C 0.16998 0.08131 0.24534 0.0
C2579 C 0.16174 0.14123 0.25772 0.0
C2580 C 0.13414 0.14339 0.26048 0.0
C2581 C 0.17544 0.1602 0.25515 0.0
C2582 C 0.20422 0.15903 0.2517 0.0
C2583 C 0.20841 0.14595 0.23732 0.0
C2584 C 0.23587 0.14438 0.23451 0.0
C2585 C 0.25923 0.156 0.24587 0.0
C2586 C 0.25514 0.1693 0.26002 0.0
C2587 C 0.22774 0.17087 0.26292 0.0
H2588 H 0.28048 0.15475 0.24369 0.0
H2589 H 0.01372 0.16944 0.27044 0.0
H2590 H 0.16063 0.39551 0.95908 0.0
H2591 H 0.17743 0.42378 0.94411 0.0
H2592 H 0.16415 0.3814 0.89681 0.0
H2593 H 0.14831 0.35304 0.91156 0.0
H2594 H 0.22612 0.39557 0.91871 0.0
H2595 H 0.12588 0.41941 0.88809 0.0
H2596 H 0.07715 0.43403 0.88782 0.0
H2597 H 0.11644 0.49041 0.91914 0.0
H2598 H 0.16546 0.47598 0.91971 0.0
H2599 H 0.23749 0.42468 0.83983 0.0
H2600 H 0.23542 0.4139 0.8686 0.0
H2601 H 0.22942 0.48116 0.88597 0.0
H2602 H 0.22955 0.49181 0.85636 0.0
H2603 H 0.18514 0.46262 0.88819 0.0
H2604 H 0.28487 0.44373 0.91127 0.0
H2605 H 0.33357 0.42931 0.91141 0.0
H2606 H 0.29924 0.36539 0.89775 0.0
H2607 H 0.25026 0.37941 0.89728 0.0
C2608 C 0.16039 0.39248 0.94528 0.0
C2609 C 0.15376 0.37183 0.93667 0.0
C2610 C 0.16989 0.40865 0.93678 0.0
C2611 C 0.17236 0.40436 0.91956 0.0
C2612 C 0.16242 0.38482 0.91019 0.0
C2613 C 0.15305 0.36868 0.91863 0.0
C2614 C 0.18977 0.41824 0.91237 0.0
C2615 C 0.21768 0.41057 0.91244 0.0
C2616 C 0.17867 0.43786 0.90451 0.0
C2617 C 0.14929 0.44651 0.90416 0.0
C2618 C 0.12412 0.43482 0.89507 0.0
C2619 C 0.09646 0.4431 0.89481 0.0
C2620 C 0.09371 0.4631 0.90352 0.0
C2621 C 0.11862 0.4749 0.91243 0.0
C2622 C 0.14633 0.46669 0.91271 0.0
C2623 C 0.23712 0.43713 0.85011 0.0
C2624 C 0.23332 0.45894 0.84605 0.0
C2625 C 0.23615 0.43103 0.86668 0.0
C2626 C 0.23227 0.44674 0.87957 0.0
C2627 C 0.23226 0.46878 0.87621 0.0
C2628 C 0.23248 0.47486 0.85941 0.0
C2629 C 0.22184 0.43982 0.89429 0.0
C2630 C 0.19492 0.44856 0.89559 0.0
C2631 C 0.23426 0.42138 0.90385 0.0
C2632 C 0.26383 0.41267 0.90432 0.0
C2633 C 0.28767 0.4266 0.90828 0.0
C2634 C 0.31535 0.41848 0.90842 0.0
C2635 C 0.31951 0.39644 0.90463 0.0
C2636 C 0.29601 0.38245 0.90073 0.0
C2637 C 0.26828 0.39047 0.90058 0.0
H2638 H 0.34094 0.3902 0.90469 0.0
H2639 H 0.07228 0.46948 0.90331 0.0
H2640 H 0.34036 0.25024 0.98742 0.0
H2641 H 0.35215 0.24459 0.95926 0.0
H2642 H 0.26342 0.26274 0.93009 0.0
H2643 H 0.25105 0.26622 0.95823 0.0
H2644 H 0.27998 0.23389 0.91143 0.0
H2645 H 0.32504 0.29901 0.94174 0.0
H2646 H 0.35555 0.32072 0.96755 0.0
H2647 H 0.43096 0.28149 0.96645 0.0
H2648 H 0.40079 0.25935 0.94079 0.0
H2649 H 0.31614 0.26304 0.83353 0.0
H2650 H 0.30387 0.26806 0.86185 0.0
H2651 H 0.37824 0.22775 0.88776 0.0
H2652 H 0.39014 0.22231 0.85947 0.0
H2653 H 0.36885 0.26907 0.90739 0.0
H2654 H 0.31991 0.2041 0.8762 0.0
H2655 H 0.28724 0.18433 0.85 0.0
H2656 H 0.21604 0.22775 0.85198 0.0
H2657 H 0.24845 0.248 0.87803 0.0
C2658 C 0.32338 0.25283 0.97494 0.0
C2659 C 0.29494 0.25906 0.97487 0.0
C2660 C 0.33016 0.24978 0.95887 0.0
C2661 C 0.30899 0.25407 0.94256 0.0
C2662 C 0.28024 0.25955 0.94249 0.0
C2663 C 0.27318 0.2617 0.95855 0.0
C2664 C 0.31698 0.25335 0.92565 0.0
C2665 C 0.29917 0.2419 0.91055 0.0
C2666 C 0.34218 0.26363 0.92442 0.0
C2667 C 0.36062 0.27745 0.9394 0.0
C2668 C 0.34813 0.29501 0.94701 0.0
C2669 C 0.36535 0.30737 0.96163 0.0
C2670 C 0.39517 0.30247 0.96865 0.0
C2671 C 0.40786 0.28527 0.961 0.0
C2672 C 0.39072 0.27282 0.9464 0.0
C2673 C 0.32989 0.25543 0.84534 0.0
C2674 C 0.35386 0.24217 0.84443 0.0
C2675 C 0.32292 0.25828 0.86142 0.0
C2676 C 0.34017 0.2482 0.87677 0.0
C2677 C 0.36476 0.23564 0.87602 0.0
C2678 C 0.3714 0.23246 0.8599 0.0
C2679 C 0.33177 0.24977 0.89341 0.0
C2680 C 0.34956 0.26131 0.9084 0.0
C2681 C 0.30621 0.24006 0.89442 0.0
C2682 C 0.28668 0.2277 0.87892 0.0
C2683 C 0.29736 0.20954 0.87095 0.0
C2684 C 0.27888 0.19823 0.85614 0.0
C2685 C 0.2496 0.20482 0.84929 0.0
C2686 C 0.23873 0.22269 0.85727 0.0
C2687 C 0.25714 0.23408 0.87206 0.0
H2688 H 0.23533 0.19604 0.83783 0.0
H2689 H 0.40846 0.31202 0.97999 0.0
H2690 H 0.45536 0.55198 0.95674 0.0
H2691 H 0.42804 0.54844 0.9247 0.0
H2692 H 0.35783 0.51825 0.9375 0.0
H2693 H 0.38482 0.52198 0.96942 0.0
H2694 H 0.37074 0.49752 0.90811 0.0
H2695 H 0.34999 0.56925 0.92838 0.0
H2696 H 0.36165 0.6057 0.94274 0.0
H2697 H 0.40573 0.61935 0.9045 0.0
H2698 H 0.3947 0.58283 0.89005 0.0
H2699 H 0.26178 0.50751 0.82359 0.0
H2700 H 0.28898 0.50872 0.85549 0.0
H2701 H 0.3538 0.54838 0.84542 0.0
H2702 H 0.3263 0.54779 0.81369 0.0
H2703 H 0.34286 0.56402 0.87392 0.0
H2704 H 0.36854 0.49134 0.85581 0.0
H2705 H 0.35818 0.45467 0.84167 0.0
H2706 H 0.30423 0.44336 0.87498 0.0
H2707 H 0.31481 0.47987 0.88961 0.0
C2708 C 0.43424 0.54441 0.95267 0.0
C2709 C 0.42215 0.53735 0.96557 0.0
C2710 C 0.41858 0.54247 0.93439 0.0
C2711 C 0.39073 0.53324 0.92868 0.0
C2712 C 0.37921 0.52545 0.94154 0.0
C2713 C 0.39463 0.52765 0.95979 0.0
C2714 C 0.37311 0.53231 0.9094 0.0
C2715 C 0.36441 0.51208 0.90068 0.0
C2716 C 0.36508 0.55125 0.89959 0.0
C2717 C 0.37184 0.5732 0.90827 0.0
C2718 C 0.36243 0.57994 0.92314 0.0
C2719 C 0.36887 0.60063 0.93127 0.0
C2720 C 0.38451 0.61481 0.92457 0.0
C2721 C 0.39368 0.60834 0.90969 0.0
C2722 C 0.38733 0.58764 0.90152 0.0
C2723 C 0.28187 0.51645 0.82815 0.0
C2724 C 0.29181 0.52753 0.81599 0.0
C2725 C 0.29757 0.51702 0.84644 0.0
C2726 C 0.32384 0.52838 0.85297 0.0
C2727 C 0.33367 0.53949 0.84083 0.0
C2728 C 0.31787 0.53911 0.82261 0.0
C2729 C 0.34088 0.52917 0.87244 0.0
C2730 C 0.3493 0.54942 0.88128 0.0
C2731 C 0.34871 0.51026 0.88234 0.0
C2732 C 0.34233 0.48832 0.8737 0.0
C2733 C 0.35443 0.48103 0.86009 0.0
C2734 C 0.34858 0.46026 0.85203 0.0
C2735 C 0.33049 0.44669 0.85739 0.0
C2736 C 0.31832 0.45385 0.8709 0.0
C2737 C 0.32438 0.47453 0.87915 0.0
H2738 H 0.32599 0.43061 0.85113 0.0
H2739 H 0.38945 0.63083 0.93088 0.0
H2740 H 0.6594 0.74928 0.01788 0.0
H2741 H 0.626 0.72127 0.01925 0.0
H2742 H 0.65004 0.68307 0.97783 0.0
H2743 H 0.68369 0.71126 0.97623 0.0
H2744 H 0.58904 0.68522 0.97321 0.0
H2745 H 0.67297 0.65081 0.02516 0.0
H2746 H 0.71061 0.65215 0.05466 0.0
H2747 H 0.66059 0.70157 0.074 0.0
H2748 H 0.6221 0.69978 0.04479 0.0
H2749 H 0.54447 0.57985 0.9842 0.0
H2750 H 0.57011 0.61203 0.98118 0.0
H2751 H 0.54791 0.64391 0.02596 0.0
H2752 H 0.52207 0.61173 0.0291 0.0
H2753 H 0.6052 0.64678 0.02926 0.0
H2754 H 0.51575 0.66076 0.98506 0.0
H2755 H 0.47306 0.65335 0.95876 0.0
H2756 H 0.52928 0.64395 0.92532 0.0
H2757 H 0.57243 0.65097 0.9515 0.0
C2758 C 0.6575 0.73504 0.00889 0.0
C2759 C 0.67436 0.73259 0.99691 0.0
C2760 C 0.63863 0.71886 0.00991 0.0
C2761 C 0.63611 0.69976 -0.00096 0.0
C2762 C 0.65192 0.69757 0.98653 0.0
C2763 C 0.67099 0.71378 0.98552 0.0
C2764 C 0.61638 0.6824 0.00042 0.0
C2765 C 0.59272 0.67666 0.98541 0.0
C2766 C 0.62038 0.67171 0.01647 0.0
C2767 C 0.64525 0.67569 0.03269 0.0
C2768 C 0.67038 0.66229 0.0356 0.0
C2769 C 0.69156 0.66283 0.05235 0.0
C2770 C 0.68801 0.67697 0.0662 0.0
C2771 C 0.66335 0.69069 0.06326 0.0
C2772 C 0.64181 0.68987 0.04662 0.0
C2773 C 0.54497 0.59369 0.99343 0.0
C2774 C 0.53134 0.59313 0.00698 0.0
C2775 C 0.55941 0.61218 0.99154 0.0
C2776 C 0.56067 0.63048 0.0032 0.0
C2777 C 0.54707 0.63001 0.01674 0.0
C2778 C 0.53235 0.61158 0.01853 0.0
C2779 C 0.578 0.64944 0.00206 0.0
C2780 C 0.60127 0.65542 0.01706 0.0
C2781 C 0.5732 0.66052 0.9861 0.0
C2782 C 0.54739 0.65617 0.97029 0.0
C2783 C 0.51907 0.6569 0.97214 0.0
C2784 C 0.49477 0.65281 0.95724 0.0
C2785 C 0.49846 0.64812 0.94039 0.0
C2786 C 0.52647 0.64755 0.9384 0.0
C2787 C 0.55086 0.6516 0.95326 0.0
H2788 H 0.47961 0.64497 0.92887 0.0
H2789 H 0.70437 0.67729 0.0792 0.0
H2790 H 0.98694 0.84925 0.76585 0.0
H2791 H 0.94971 0.87657 0.76808 0.0
H2792 H 0.91186 0.87177 0.7106 0.0
H2793 H 0.95045 0.84565 0.70836 0.0
H2794 H 0.90976 0.91037 0.71873 0.0
H2795 H 0.88338 0.85005 0.74536 0.0
H2796 H 0.88927 0.82092 0.7664 0.0
H2797 H 0.90522 0.86805 0.81054 0.0
H2798 H 0.90051 0.89743 0.78988 0.0
H2799 H 0.78385 0.97511 0.71708 0.0
H2800 H 0.81526 0.94329 0.71541 0.0
H2801 H 0.85913 0.9521 0.77207 0.0
H2802 H 0.82636 0.9832 0.77381 0.0
H2803 H 0.85669 0.91087 0.76408 0.0
H2804 H 0.88564 0.97065 0.73569 0.0
H2805 H 0.87679 0.99865 0.71338 0.0
H2806 H 0.8511 0.94978 0.67071 0.0
H2807 H 0.85951 0.92154 0.69276 0.0
C2808 C 0.97055 0.85394 0.7537 0.0
C2809 C 0.97168 0.84519 0.7369 0.0
C2810 C 0.94897 0.86955 0.75498 0.0
C2811 C 0.92718 0.87629 0.73955 0.0
C2812 C 0.92817 0.86716 0.7228 0.0
C2813 C 0.95023 0.85204 0.72149 0.0
C2814 C 0.90413 0.89337 0.74064 0.0
C2815 C 0.89794 0.91011 0.72852 0.0
C2816 C 0.88865 0.89371 0.75356 0.0
C2817 C 0.89187 0.87598 0.76605 0.0
C2818 C 0.88848 0.85421 0.75957 0.0
C2819 C 0.89162 0.83764 0.77144 0.0
C2820 C 0.89762 0.84264 0.78979 0.0
C2821 C 0.90056 0.8642 0.79632 0.0
C2822 C 0.89781 0.88082 0.78455 0.0
C2823 C 0.79971 0.96987 0.72924 0.0
C2824 C 0.80233 0.98144 0.74561 0.0
C2825 C 0.81807 0.95182 0.72826 0.0
C2826 C 0.84047 0.94539 0.74351 0.0
C2827 C 0.8423 0.95656 0.76003 0.0
C2828 C 0.82344 0.97433 0.76107 0.0
C2829 C 0.86251 0.92766 0.74219 0.0
C2830 C 0.86855 0.91091 0.75429 0.0
C2831 C 0.87753 0.92703 0.72907 0.0
C2832 C 0.87299 0.94402 0.71587 0.0
C2833 C 0.87802 0.9659 0.72155 0.0
C2834 C 0.87307 0.98181 0.70895 0.0
C2835 C 0.86333 0.97601 0.69065 0.0
C2836 C 0.85862 0.95427 0.68489 0.0
C2837 C 0.8635 0.9383 0.69743 0.0
H2838 H 0.85948 0.98835 0.68092 0.0
H2839 H 0.89997 0.82981 0.79896 0.0
H2840 H 0.468 0.19773 0.72716 0.0
H2841 H 0.46123 0.18286 0.69647 0.0
H2842 H 0.40121 0.23541 0.6758 0.0
H2843 H 0.40673 0.2498 0.70662 0.0
H2844 H 0.38897 0.19307 0.65591 0.0
H2845 H 0.46801 0.24166 0.68308 0.0
H2846 H 0.51027 0.25163 0.70866 0.0
H2847 H 0.55812 0.19547 0.69713 0.0
H2848 H 0.51496 0.18376 0.6726 0.0
H2849 H 0.41091 0.16851 0.57172 0.0
H2850 H 0.40851 0.1919 0.59763 0.0
H2851 H 0.48017 0.1553 0.63163 0.0
H2852 H 0.4828 0.13214 0.60593 0.0
H2853 H 0.48368 0.19618 0.64273 0.0
H2854 H 0.40898 0.14251 0.62515 0.0
H2855 H 0.36674 0.12374 0.60436 0.0
H2856 H 0.3153 0.18273 0.60005 0.0
H2857 H 0.35747 0.20196 0.62059 0.0
C2858 C 0.45282 0.20574 0.71604 0.0
C2859 C 0.43813 0.22495 0.71896 0.0
C2860 C 0.44903 0.19729 0.69865 0.0
C2861 C 0.43148 0.20841 0.68402 0.0
C2862 C 0.41499 0.22672 0.68698 0.0
C2863 C 0.41828 0.23497 0.70447 0.0
C2864 C 0.43385 0.20259 0.66597 0.0
C2865 C 0.40946 0.19414 0.65285 0.0
C2866 C 0.46097 0.2036 0.6623 0.0
C2867 C 0.48788 0.21165 0.67604 0.0
C2868 C 0.48735 0.23123 0.68606 0.0
C2869 C 0.51152 0.23718 0.70046 0.0
C2870 C 0.53711 0.22444 0.70435 0.0
C2871 C 0.53839 0.20548 0.69399 0.0
C2872 C 0.51388 0.199 0.67997 0.0
C2873 C 0.42651 0.16579 0.58468 0.0
C2874 C 0.44684 0.14837 0.58686 0.0
C2875 C 0.4251 0.17912 0.59944 0.0
C2876 C 0.44376 0.17503 0.61658 0.0
C2877 C 0.46553 0.15874 0.61851 0.0
C2878 C 0.46708 0.14553 0.60379 0.0
C2879 C 0.43903 0.18601 0.63281 0.0
C2880 C 0.46298 0.19557 0.64561 0.0
C2881 C 0.41189 0.18527 0.63647 0.0
C2882 C 0.38649 0.17375 0.62418 0.0
C2883 C 0.38874 0.15153 0.61964 0.0
C2884 C 0.36481 0.1408 0.60792 0.0
C2885 C 0.33838 0.15205 0.60084 0.0
C2886 C 0.33582 0.17405 0.6055 0.0
C2887 C 0.35973 0.18488 0.61717 0.0
H2888 H 0.31987 0.14372 0.59178 0.0
H2889 H 0.55586 0.22918 0.71545 0.0
H2890 H 0.52697 0.29336 0.8293 0.0
H2891 H 0.52914 0.31899 0.85483 0.0
H2892 H 0.44 0.30518 0.85092 0.0
H2893 H 0.43779 0.27923 0.8259 0.0
H2894 H 0.4548 0.35164 0.85158 0.0
H2895 H 0.482 0.28685 0.88354 0.0
H2896 H 0.50997 0.25272 0.89151 0.0
H2897 H 0.58983 0.28785 0.91013 0.0
H2898 H 0.56233 0.3222 0.90199 0.0
H2899 H 0.4524 0.4156 0.92936 0.0
H2900 H 0.44687 0.38405 0.9083 0.0
H2901 H 0.53963 0.38294 0.91534 0.0
H2902 H 0.54532 0.41444 0.9363 0.0
H2903 H 0.5195 0.34235 0.91351 0.0
H2904 H 0.49204 0.40713 0.88033 0.0
H2905 H 0.46392 0.44117 0.87215 0.0
H2906 H 0.38392 0.40614 0.85534 0.0
H2907 H 0.41157 0.37186 0.86372 0.0
C2908 C 0.50805 0.2955 0.8341 0.0
C2909 C 0.48234 0.28414 0.82564 0.0
C2910 C 0.50926 0.31017 0.8486 0.0
C2911 C 0.48464 0.31398 0.85461 0.0
C2912 C 0.45915 0.30247 0.8464 0.0
C2913 C 0.4581 0.2875 0.8322 0.0
C2914 C 0.48533 0.33037 0.86925 0.0
C2915 C 0.46857 0.34953 0.86519 0.0
C2916 C 0.50354 0.3276 0.88688 0.0
C2917 C 0.52016 0.30706 0.89198 0.0
C2918 C 0.50556 0.28728 0.88918 0.0
C2919 C 0.52131 0.2679 0.89376 0.0
C2920 C 0.55167 0.2681 0.90128 0.0
C2921 C 0.56631 0.28771 0.90429 0.0
C2922 C 0.55066 0.30715 0.89971 0.0
C2923 C 0.47163 0.40856 0.92648 0.0
C2924 C 0.49927 0.41763 0.93438 0.0
C2925 C 0.46844 0.39052 0.91448 0.0
C2926 C 0.49279 0.38136 0.91007 0.0
C2927 C 0.52056 0.38975 0.91857 0.0
C2928 C 0.52378 0.40774 0.93059 0.0
C2929 C 0.48927 0.36387 0.89585 0.0
C2930 C 0.50551 0.34446 0.89995 0.0
C2931 C 0.47051 0.36645 0.87823 0.0
C2932 C 0.45386 0.38696 0.87285 0.0
C2933 C 0.46844 0.40669 0.87501 0.0
C2934 C 0.45259 0.42602 0.87033 0.0
C2935 C 0.42216 0.42582 0.86329 0.0
C2936 C 0.4075 0.40626 0.86084 0.0
C2937 C 0.42325 0.38687 0.86554 0.0
H2938 H 0.40997 0.44082 0.8597 0.0
H2939 H 0.56383 0.25308 0.90481 0.0
H2940 H 0.5186 0.80588 0.32196 0.0
H2941 H 0.51976 0.83246 0.3465 0.0
H2942 H 0.45271 0.79822 0.35934 0.0
H2943 H 0.45128 0.77155 0.33485 0.0
H2944 H 0.44135 0.84265 0.3582 0.0
H2945 H 0.51964 0.79437 0.38612 0.0
H2946 H 0.56434 0.77216 0.38842 0.0
H2947 H 0.61161 0.82933 0.38736 0.0
H2948 H 0.56706 0.85186 0.38478 0.0
H2949 H 0.46361 0.90916 0.44036 0.0
H2950 H 0.4563 0.87872 0.41797 0.0
H2951 H 0.52698 0.90092 0.40056 0.0
H2952 H 0.53449 0.93101 0.42287 0.0
H2953 H 0.53357 0.8591 0.40612 0.0
H2954 H 0.45369 0.90707 0.37607 0.0
H2955 H 0.40869 0.92899 0.3736 0.0
H2956 H 0.36396 0.87223 0.37903 0.0
H2957 H 0.40882 0.85 0.38173 0.0
C2958 C 0.50444 0.80375 0.33017 0.0
C2959 C 0.48506 0.78644 0.32648 0.0
C2960 C 0.50502 0.81903 0.34414 0.0
C2961 C 0.48631 0.81729 0.35474 0.0
C2962 C 0.46724 0.79989 0.35129 0.0
C2963 C 0.46673 0.78453 0.33738 0.0
C2964 C 0.48684 0.83372 0.36941 0.0
C2965 C 0.46137 0.84607 0.36886 0.0
C2966 C 0.51296 0.83821 0.38323 0.0
C2967 C 0.53996 0.82478 0.38514 0.0
C2968 C 0.53953 0.80219 0.38628 0.0
C2969 C 0.56484 0.78955 0.38764 0.0
C2970 C 0.59079 0.79933 0.388 0.0
C2971 C 0.59149 0.82178 0.38707 0.0
C2972 C 0.56623 0.8345 0.38569 0.0
C2973 C 0.47734 0.90761 0.43161 0.0
C2974 C 0.49988 0.92229 0.43351 0.0
C2975 C 0.47315 0.89024 0.41883 0.0
C2976 C 0.49116 0.88751 0.40761 0.0
C2977 C 0.51302 0.90256 0.40918 0.0
C2978 C 0.51733 0.91973 0.42197 0.0
C2979 C 0.48837 0.86863 0.39461 0.0
C2980 C 0.51344 0.85565 0.39556 0.0
C2981 C 0.46183 0.86361 0.38122 0.0
C2982 C 0.43472 0.87691 0.37931 0.0
C2983 C 0.43432 0.89929 0.37685 0.0
C2984 C 0.40883 0.91176 0.37539 0.0
C2985 C 0.38352 0.90203 0.37624 0.0
C2986 C 0.3836 0.87976 0.37843 0.0
C2987 C 0.40905 0.86721 0.3799 0.0
H2988 H 0.36383 0.91173 0.37515 0.0
H2989 H 0.61035 0.7895 0.38903 0.0
H2990 H 0.46736 0.62378 0.11318 0.0
H2991 H 0.45731 0.64582 0.13752 0.0
H2992 H 0.4189 0.69611 0.10129 0.0
H2993 H 0.42923 0.6741 0.07662 0.0
H2994 H 0.45499 0.71051 0.13808 0.0
H2995 H 0.37231 0.66903 0.10767 0.0
H2996 H 0.34623 0.63655 0.09211 0.0
H2997 H 0.37777 0.60198 0.14037 0.0
H2998 H 0.40449 0.63416 0.15616 0.0
H2999 H 0.40941 0.75254 0.21008 0.0
H3000 H 0.39731 0.7382 0.17886 0.0
H3001 H 0.43729 0.67661 0.19699 0.0
H3002 H 0.44884 0.69086 0.22817 0.0
H3003 H 0.38865 0.6735 0.16436 0.0
H3004 H 0.47976 0.71253 0.19152 0.0
H3005 H 0.49925 0.74536 0.20975 0.0
H3006 H 0.45029 0.78499 0.16723 0.0
H3007 H 0.42911 0.75223 0.14908 0.0
C3008 C 0.45764 0.6398 0.11043 0.0
C3009 C 0.4489 0.64716 0.09296 0.0
C3010 C 0.45166 0.65227 0.12433 0.0
C3011 C 0.43687 0.67231 0.12103 0.0
C3012 C 0.43009 0.68055 0.10396 0.0
C3013 C 0.43593 0.66797 0.08995 0.0
C3014 C 0.42674 0.68346 0.1353 0.0
C3015 C 0.44008 0.70266 0.14358 0.0
C3016 C 0.40695 0.67333 0.14235 0.0
C3017 C 0.39055 0.65399 0.13307 0.0
C3018 C 0.37386 0.65445 0.11494 0.0
C3019 C 0.35894 0.63611 0.10608 0.0
C3020 C 0.36037 0.6172 0.11524 0.0
C3021 C 0.37668 0.61664 0.13329 0.0
C3022 C 0.39169 0.63495 0.14222 0.0
C3023 C 0.41474 0.73577 0.20729 0.0
C3024 C 0.43023 0.72274 0.22121 0.0
C3025 C 0.40767 0.72756 0.18957 0.0
C3026 C 0.41664 0.70643 0.18568 0.0
C3027 C 0.43004 0.6929 0.19975 0.0
C3028 C 0.4369 0.70107 0.21748 0.0
C3029 C 0.41791 0.69993 0.16748 0.0
C3030 C 0.40303 0.68157 0.15854 0.0
C3031 C 0.43621 0.71083 0.15976 0.0
C3032 C 0.45269 0.73002 0.16905 0.0
C3033 C 0.47343 0.72824 0.18598 0.0
C3034 C 0.48458 0.74684 0.19636 0.0
C3035 C 0.47592 0.76728 0.1897 0.0
C3036 C 0.45675 0.76913 0.17242 0.0
C3037 C 0.44507 0.75055 0.1621 0.0
H3038 H 0.48396 0.78169 0.19795 0.0
H3039 H 0.34881 0.603 0.10835 0.0
loop_
_geom_bond_atom_site_label_1
_geom_bond_atom_site_label_2
_geom_bond_distance
_geom_bond_site_symmetry_2
_ccdc_geom_bond_type
Nd0 C2 2.836 . S
Nd0 O20 2.500 . S
Nd0 O21 2.492 . S
Nd0 O22 2.487 1_556 S
Nd0 O23 2.682 1_566 S
Nd0 O24 2.410 1_556 S
Nd0 O29 2.414 1_565 S
Nd0 O31 2.424 1_566 S
Nd1 C11 2.836 . S
Nd1 O23 2.414 . S
Nd1 O25 2.424 1_445 S
Nd1 O26 2.500 . S
Nd1 O27 2.492 1_455 S
Nd1 O28 2.487 1_454 S
Nd1 O29 2.682 1_554 S
Nd1 O30 2.410 . S
C2 Nd0 2.836 . S
C2 C3 1.498 . S
C2 O20 1.258 . S
C2 O21 1.239 . S
C3 C2 1.498 . S
C3 C4 1.366 . S
C3 C8 1.407 . S
C4 C3 1.366 . S
C4 C5 1.392 . S
C4 H32 0.930 . S
C5 C4 1.392 . S
C5 C6 1.398 . S
C5 H33 0.929 . S
C6 C5 1.398 . S
C6 C7 1.352 . S
C7 C6 1.352 . S
C7 C8 1.384 . S
C7 H34 0.930 . S
C8 C3 1.407 . S
C8 C7 1.384 . S
C8 H35 0.929 . S
C9 O22 1.241 . S
C9 O23 1.273 1_565 S
C10 O24 1.251 1_655 S
C10 O25 1.268 . S
C11 Nd1 2.836 . S
C11 C12 1.498 . S
C11 O26 1.258 . S
C11 O27 1.239 1_455 S
C12 C11 1.498 . S
C12 C13 1.366 . S
C12 C17 1.407 1_455 S
C13 C12 1.366 . S
C13 C14 1.392 . S
C13 H36 0.930 . S
C14 C13 1.392 . S
C14 C15 1.398 . S
C14 H37 0.929 . S
C15 C14 1.398 . S
C15 C16 1.352 1_455 S
C16 C15 1.352 1_655 S
C16 C17 1.384 . S
C16 H38 0.930 . S
C17 C12 1.407 1_655 S
C17 C16 1.384 . S
C17 H39 0.929 . S
C18 O28 1.241 . S
C18 O29 1.273 1_655 S
C19 O30 1.251 . S
C19 O31 1.268 . S
O20 Nd0 2.500 . S
O20 C2 1.258 . S
O21 Nd0 2.492 . S
O21 C2 1.239 . S
O22 Nd0 2.487 1_554 S
O22 C9 1.241 . S
O23 Nd0 2.682 1_544 S
O23 Nd1 2.414 . S
O23 C9 1.273 1_545 S
O24 Nd0 2.410 1_554 S
O24 C10 1.251 1_455 S
O25 Nd1 2.424 1_665 S
O25 C10 1.268 . S
O26 Nd1 2.500 . S
O26 C11 1.258 . S
O27 Nd1 2.492 1_655 S
O27 C11 1.239 1_655 S
O28 Nd1 2.487 1_656 S
O28 C18 1.241 . S
O29 Nd0 2.414 1_545 S
O29 Nd1 2.682 1_556 S
O29 C18 1.273 1_455 S
O30 Nd1 2.410 . S
O30 C19 1.251 . S
O31 Nd0 2.424 1_544 S
O31 C19 1.268 . S
H32 C4 0.930 . S
H33 C5 0.929 . S
H34 C7 0.930 . S
H35 C8 0.929 . S
H36 C13 0.930 . S
H37 C14 0.929 . S
H38 C16 0.930 . S
H39 C17 0.929 . S
Nd40 C42 2.836 . S
Nd40 O60 2.500 1_455 S
Nd40 O61 2.492 . S
Nd40 O62 2.487 . S
Nd40 O63 2.682 . S
Nd40 O64 2.410 . S
Nd40 O69 2.414 . S
Nd40 O71 2.424 . S
Nd41 C51 2.836 . S
Nd41 O63 2.414 . S
Nd41 O65 2.424 . S
Nd41 O66 2.500 . S
Nd41 O67 2.492 . S
Nd41 O68 2.487 . S
Nd41 O69 2.682 . S
Nd41 O70 2.410 . S
C42 Nd40 2.836 . S
C42 C43 1.498 1_455 S
C42 O60 1.258 1_455 S
C42 O61 1.239 . S
C43 C42 1.498 1_655 S
C43 C44 1.366 . S
C43 C48 1.407 . S
C44 C43 1.366 . S
C44 C45 1.392 . S
C44 H72 0.930 . S
C45 C44 1.392 . S
C45 C46 1.398 . S
C45 H73 0.929 . S
C46 C45 1.398 . S
C46 C47 1.352 . S
C47 C46 1.352 . S
C47 C48 1.384 . S
C47 H74 0.930 . S
C48 C43 1.407 . S
C48 C47 1.384 . S
C48 H75 0.929 1_655 S
C49 O62 1.241 . S
C49 O63 1.273 . S
C50 O64 1.251 . S
C50 O65 1.268 . S
C51 Nd41 2.836 . S
C51 C52 1.498 . S
C51 O66 1.258 . S
C51 O67 1.239 . S
C52 C51 1.498 . S
C52 C53 1.366 . S
C52 C57 1.407 . S
C53 C52 1.366 . S
C53 C54 1.392 . S
C53 H76 0.930 . S
C54 C53 1.392 . S
C54 C55 1.398 . S
C54 H77 0.929 . S
C55 C54 1.398 . S
C55 C56 1.352 . S
C56 C55 1.352 . S
C56 C57 1.384 . S
C56 H78 0.930 . S
C57 C52 1.407 . S
C57 C56 1.384 . S
C57 H79 0.929 . S
C58 O68 1.241 . S
C58 O69 1.273 . S
C59 O70 1.251 . S
C59 O71 1.268 . S
O60 Nd40 2.500 1_655 S
O60 C42 1.258 1_655 S
O61 Nd40 2.492 . S
O61 C42 1.239 . S
O62 Nd40 2.487 . S
O62 C49 1.241 . S
O63 Nd40 2.682 . S
O63 Nd41 2.414 . S
O63 C49 1.273 . S
O64 Nd40 2.410 . S
O64 C50 1.251 . S
O65 Nd41 2.424 . S
O65 C50 1.268 . S
O66 Nd41 2.500 . S
O66 C51 1.258 . S
O67 Nd41 2.492 . S
O67 C51 1.239 . S
O68 Nd41 2.487 . S
O68 C58 1.241 . S
O69 Nd40 2.414 . S
O69 Nd41 2.682 . S
O69 C58 1.273 . S
O70 Nd41 2.410 . S
O70 C59 1.251 . S
O71 Nd40 2.424 . S
O71 C59 1.268 . S
H72 C44 0.930 . S
H73 C45 0.929 . S
H74 C47 0.930 . S
H75 C48 0.929 1_455 S
H76 C53 0.930 . S
H77 C54 0.929 . S
H78 C56 0.930 . S
H79 C57 0.929 . S
Nd80 C82 2.836 . S
Nd80 O100 2.500 . S
Nd80 O101 2.492 . S
Nd80 O102 2.487 . S
Nd80 O103 2.682 . S
Nd80 O104 2.410 . S
Nd80 O109 2.414 . S
Nd80 O111 2.424 . S
Nd81 C91 2.836 . S
Nd81 O103 2.414 . S
Nd81 O105 2.424 . S
Nd81 O106 2.500 . S
Nd81 O107 2.492 . S
Nd81 O108 2.487 . S
Nd81 O109 2.682 . S
Nd81 O110 2.410 . S
C82 Nd80 2.836 . S
C82 C83 1.498 . S
C82 O100 1.258 . S
C82 O101 1.239 . S
C83 C82 1.498 . S
C83 C84 1.366 . S
C83 C88 1.407 . S
C84 C83 1.366 . S
C84 C85 1.392 . S
C84 H112 0.930 . S
C85 C84 1.392 . S
C85 C86 1.398 . S
C85 H113 0.929 . S
C86 C85 1.398 . S
C86 C87 1.352 . S
C87 C86 1.352 . S
C87 C88 1.384 . S
C87 H114 0.930 . S
C88 C83 1.407 . S
C88 C87 1.384 . S
C88 H115 0.929 . S
C89 O102 1.241 . S
C89 O103 1.273 . S
C90 O104 1.251 . S
C90 O105 1.268 . S
C91 Nd81 2.836 . S
C91 C92 1.498 . S
C91 O106 1.258 . S
C91 O107 1.239 . S
C92 C91 1.498 . S
C92 C93 1.366 . S
C92 C97 1.407 . S
C93 C92 1.366 . S
C93 C94 1.392 . S
C93 H116 0.930 . S
C94 C93 1.392 . S
C94 C95 1.398 . S
C94 H117 0.929 . S
C95 C94 1.398 . S
C95 C96 1.352 . S
C96 C95 1.352 . S
C96 C97 1.384 . S
C96 H118 0.930 . S
C97 C92 1.407 . S
C97 C96 1.384 . S
C97 H119 0.929 . S
C98 O108 1.241 . S
C98 O109 1.273 . S
C99 O110 1.251 . S
C99 O111 1.268 . S
O100 Nd80 2.500 . S
O100 C82 1.258 . S
O101 Nd80 2.492 . S
O101 C82 1.239 . S
O102 Nd80 2.487 . S
O102 C89 1.241 . S
O103 Nd80 2.682 . S
O103 Nd81 2.414 . S
O103 C89 1.273 . S
O104 Nd80 2.410 . S
O104 C90 1.251 . S
O105 Nd81 2.424 . S
O105 C90 1.268 . S
O106 Nd81 2.500 . S
O106 C91 1.258 . S
O107 Nd81 2.492 . S
O107 C91 1.239 . S
O108 Nd81 2.487 . S
O108 C98 1.241 . S
O109 Nd80 2.414 . S
O109 Nd81 2.682 . S
O109 C98 1.273 . S
O110 Nd81 2.410 . S
O110 C99 1.251 . S
O111 Nd80 2.424 . S
O111 C99 1.268 . S
H112 C84 0.930 . S
H113 C85 0.929 . S
H114 C87 0.930 . S
H115 C88 0.929 . S
H116 C93 0.930 . S
H117 C94 0.929 . S
H118 C96 0.930 . S
H119 C97 0.929 . S
Nd120 C122 2.836 . S
Nd120 O140 2.500 . S
Nd120 O141 2.492 . S
Nd120 O142 2.487 . S
Nd120 O143 2.682 1_545 S
Nd120 O144 2.410 . S
Nd120 O149 2.414 . S
Nd120 O151 2.424 . S
Nd121 C131 2.836 . S
Nd121 O143 2.414 . S
Nd121 O145 2.424 1_565 S
Nd121 O146 2.500 . S
Nd121 O147 2.492 . S
Nd121 O148 2.487 1_565 S
Nd121 O149 2.682 1_565 S
Nd121 O150 2.410 1_565 S
C122 Nd120 2.836 . S
C122 C123 1.498 . S
C122 O140 1.258 . S
C122 O141 1.239 . S
C123 C122 1.498 . S
C123 C124 1.366 . S
C123 C128 1.407 . S
C124 C123 1.366 . S
C124 C125 1.392 . S
C124 H152 0.930 . S
C125 C124 1.392 . S
C125 C126 1.398 . S
C125 H153 0.929 . S
C126 C125 1.398 . S
C126 C127 1.352 . S
C127 C126 1.352 . S
C127 C128 1.384 . S
C127 H154 0.930 . S
C128 C123 1.407 . S
C128 C127 1.384 . S
C128 H155 0.929 . S
C129 O142 1.241 1_565 S
C129 O143 1.273 . S
C130 O144 1.251 . S
C130 O145 1.268 . S
C131 Nd121 2.836 . S
C131 C132 1.498 . S
C131 O146 1.258 . S
C131 O147 1.239 . S
C132 C131 1.498 . S
C132 C133 1.366 . S
C132 C137 1.407 . S
C133 C132 1.366 . S
C133 C134 1.392 . S
C133 H156 0.930 . S
C134 C133 1.392 . S
C134 C135 1.398 . S
C134 H157 0.929 . S
C135 C134 1.398 . S
C135 C136 1.352 . S
C136 C135 1.352 . S
C136 C137 1.384 . S
C136 H158 0.930 . S
C137 C132 1.407 . S
C137 C136 1.384 . S
C137 H159 0.929 . S
C138 O148 1.241 . S
C138 O149 1.273 . S
C139 O150 1.251 . S
C139 O151 1.268 . S
O140 Nd120 2.500 . S
O140 C122 1.258 . S
O141 Nd120 2.492 . S
O141 C122 1.239 . S
O142 Nd120 2.487 . S
O142 C129 1.241 1_545 S
O143 Nd120 2.682 1_565 S
O143 Nd121 2.414 . S
O143 C129 1.273 . S
O144 Nd120 2.410 . S
O144 C130 1.251 . S
O145 Nd121 2.424 1_545 S
O145 C130 1.268 . S
O146 Nd121 2.500 . S
O146 C131 1.258 . S
O147 Nd121 2.492 . S
O147 C131 1.239 . S
O148 Nd121 2.487 1_545 S
O148 C138 1.241 . S
O149 Nd120 2.414 . S
O149 Nd121 2.682 1_545 S
O149 C138 1.273 . S
O150 Nd121 2.410 1_545 S
O150 C139 1.251 . S
O151 Nd120 2.424 . S
O151 C139 1.268 . S
H152 C124 0.930 . S
H153 C125 0.929 . S
H154 C127 0.930 . S
H155 C128 0.929 . S
H156 C133 0.930 . S
H157 C134 0.929 . S
H158 C136 0.930 . S
H159 C137 0.929 . S
Nd160 C162 2.836 . S
Nd160 O180 2.500 . S
Nd160 O181 2.492 . S
Nd160 O182 2.487 . S
Nd160 O183 2.682 . S
Nd160 O184 2.410 . S
Nd160 O189 2.414 . S
Nd160 O191 2.424 . S
Nd161 C171 2.836 . S
Nd161 O183 2.414 . S
Nd161 O185 2.424 . S
Nd161 O186 2.500 . S
Nd161 O187 2.492 . S
Nd161 O188 2.487 . S
Nd161 O189 2.682 . S
Nd161 O190 2.410 . S
C162 Nd160 2.836 . S
C162 C163 1.498 . S
C162 O180 1.258 . S
C162 O181 1.239 . S
C163 C162 1.498 . S
C163 C164 1.366 . S
C163 C168 1.407 . S
C164 C163 1.366 . S
C164 C165 1.392 . S
C164 H192 0.930 . S
C165 C164 1.392 . S
C165 C166 1.398 . S
C165 H193 0.929 . S
C166 C165 1.398 . S
C166 C167 1.352 . S
C167 C166 1.352 . S
C167 C168 1.384 . S
C167 H194 0.930 . S
C168 C163 1.407 . S
C168 C167 1.384 . S
C168 H195 0.929 . S
C169 O182 1.241 . S
C169 O183 1.273 . S
C170 O184 1.251 . S
C170 O185 1.268 . S
C171 Nd161 2.836 . S
C171 C172 1.498 . S
C171 O186 1.258 . S
C171 O187 1.239 . S
C172 C171 1.498 . S
C172 C173 1.366 . S
C172 C177 1.407 . S
C173 C172 1.366 . S
C173 C174 1.392 . S
C173 H196 0.930 . S
C174 C173 1.392 . S
C174 C175 1.398 . S
C174 H197 0.929 . S
C175 C174 1.398 . S
C175 C176 1.352 . S
C176 C175 1.352 . S
C176 C177 1.384 . S
C176 H198 0.930 . S
C177 C172 1.407 . S
C177 C176 1.384 . S
C177 H199 0.929 . S
C178 O188 1.241 . S
C178 O189 1.273 . S
C179 O190 1.251 . S
C179 O191 1.268 . S
O180 Nd160 2.500 . S
O180 C162 1.258 . S
O181 Nd160 2.492 . S
O181 C162 1.239 . S
O182 Nd160 2.487 . S
O182 C169 1.241 . S
O183 Nd160 2.682 . S
O183 Nd161 2.414 . S
O183 C169 1.273 . S
O184 Nd160 2.410 . S
O184 C170 1.251 . S
O185 Nd161 2.424 . S
O185 C170 1.268 . S
O186 Nd161 2.500 . S
O186 C171 1.258 . S
O187 Nd161 2.492 . S
O187 C171 1.239 . S
O188 Nd161 2.487 . S
O188 C178 1.241 . S
O189 Nd160 2.414 . S
O189 Nd161 2.682 . S
O189 C178 1.273 . S
O190 Nd161 2.410 . S
O190 C179 1.251 . S
O191 Nd160 2.424 . S
O191 C179 1.268 . S
H192 C164 0.930 . S
H193 C165 0.929 . S
H194 C167 0.930 . S
H195 C168 0.929 . S
H196 C173 0.930 . S
H197 C174 0.929 . S
H198 C176 0.930 . S
H199 C177 0.929 . S
Nd200 C202 2.836 . S
Nd200 O220 2.500 . S
Nd200 O221 2.492 . S
Nd200 O222 2.487 . S
Nd200 O223 2.682 . S
Nd200 O224 2.410 . S
Nd200 O229 2.414 . S
Nd200 O231 2.424 . S
Nd201 C211 2.836 . S
Nd201 O223 2.414 . S
Nd201 O225 2.424 . S
Nd201 O226 2.500 . S
Nd201 O227 2.492 . S
Nd201 O228 2.487 . S
Nd201 O229 2.682 . S
Nd201 O230 2.410 . S
C202 Nd200 2.836 . S
C202 C203 1.498 . S
C202 O220 1.258 . S
C202 O221 1.239 . S
C203 C202 1.498 . S
C203 C204 1.366 . S
C203 C208 1.407 . S
C204 C203 1.366 . S
C204 C205 1.392 . S
C204 H232 0.930 . S
C205 C204 1.392 . S
C205 C206 1.398 . S
C205 H233 0.929 . S
C206 C205 1.398 . S
C206 C207 1.352 . S
C207 C206 1.352 . S
C207 C208 1.384 . S
C207 H234 0.930 . S
C208 C203 1.407 . S
C208 C207 1.384 . S
C208 H235 0.929 . S
C209 O222 1.241 . S
C209 O223 1.273 . S
C210 O224 1.251 . S
C210 O225 1.268 . S
C211 Nd201 2.836 . S
C211 C212 1.498 . S
C211 O226 1.258 . S
C211 O227 1.239 . S
C212 C211 1.498 . S
C212 C213 1.366 . S
C212 C217 1.407 . S
C213 C212 1.366 . S
C213 C214 1.392 . S
C213 H236 0.930 . S
C214 C213 1.392 . S
C214 C215 1.398 . S
C214 H237 0.929 . S
C215 C214 1.398 . S
C215 C216 1.352 . S
C216 C215 1.352 . S
C216 C217 1.384 . S
C216 H238 0.930 . S
C217 C212 1.407 . S
C217 C216 1.384 . S
C217 H239 0.929 . S
C218 O228 1.241 . S
C218 O229 1.273 . S
C219 O230 1.251 . S
C219 O231 1.268 . S
O220 Nd200 2.500 . S
O220 C202 1.258 . S
O221 Nd200 2.492 . S
O221 C202 1.239 . S
O222 Nd200 2.487 . S
O222 C209 1.241 . S
O223 Nd200 2.682 . S
O223 Nd201 2.414 . S
O223 C209 1.273 . S
O224 Nd200 2.410 . S
O224 C210 1.251 . S
O225 Nd201 2.424 . S
O225 C210 1.268 . S
O226 Nd201 2.500 . S
O226 C211 1.258 . S
O227 Nd201 2.492 . S
O227 C211 1.239 . S
O228 Nd201 2.487 . S
O228 C218 1.241 . S
O229 Nd200 2.414 . S
O229 Nd201 2.682 . S
O229 C218 1.273 . S
O230 Nd201 2.410 . S
O230 C219 1.251 . S
O231 Nd200 2.424 . S
O231 C219 1.268 . S
H232 C204 0.930 . S
H233 C205 0.929 . S
H234 C207 0.930 . S
H235 C208 0.929 . S
H236 C213 0.930 . S
H237 C214 0.929 . S
H238 C216 0.930 . S
H239 C217 0.929 . S
Nd240 C242 2.836 . S
Nd240 O260 2.500 . S
Nd240 O261 2.492 . S
Nd240 O262 2.487 . S
Nd240 O263 2.682 . S
Nd240 O264 2.410 . S
Nd240 O269 2.414 . S
Nd240 O271 2.424 . S
Nd241 C251 2.836 . S
Nd241 O263 2.414 . S
Nd241 O265 2.424 . S
Nd241 O266 2.500 . S
Nd241 O267 2.492 . S
Nd241 O268 2.487 . S
Nd241 O269 2.682 . S
Nd241 O270 2.410 . S
C242 Nd240 2.836 . S
C242 C243 1.498 . S
C242 O260 1.258 . S
C242 O261 1.239 . S
C243 C242 1.498 . S
C243 C244 1.366 . S
C243 C248 1.407 . S
C244 C243 1.366 . S
C244 C245 1.392 . S
C244 H272 0.930 . S
C245 C244 1.392 . S
C245 C246 1.398 . S
C245 H273 0.929 . S
C246 C245 1.398 . S
C246 C247 1.352 . S
C247 C246 1.352 . S
C247 C248 1.384 . S
C247 H274 0.930 . S
C248 C243 1.407 . S
C248 C247 1.384 . S
C248 H275 0.929 . S
C249 O262 1.241 . S
C249 O263 1.273 . S
C250 O264 1.251 . S
C250 O265 1.268 . S
C251 Nd241 2.836 . S
C251 C252 1.498 . S
C251 O266 1.258 . S
C251 O267 1.239 . S
C252 C251 1.498 . S
C252 C253 1.366 . S
C252 C257 1.407 . S
C253 C252 1.366 . S
C253 C254 1.392 . S
C253 H276 0.930 . S
C254 C253 1.392 . S
C254 C255 1.398 . S
C254 H277 0.929 . S
C255 C254 1.398 . S
C255 C256 1.352 . S
C256 C255 1.352 . S
C256 C257 1.384 . S
C256 H278 0.930 . S
C257 C252 1.407 . S
C257 C256 1.384 . S
C257 H279 0.929 . S
C258 O268 1.241 . S
C258 O269 1.273 . S
C259 O270 1.251 . S
C259 O271 1.268 . S
O260 Nd240 2.500 . S
O260 C242 1.258 . S
O261 Nd240 2.492 . S
O261 C242 1.239 . S
O262 Nd240 2.487 . S
O262 C249 1.241 . S
O263 Nd240 2.682 . S
O263 Nd241 2.414 . S
O263 C249 1.273 . S
O264 Nd240 2.410 . S
O264 C250 1.251 . S
O265 Nd241 2.424 . S
O265 C250 1.268 . S
O266 Nd241 2.500 . S
O266 C251 1.258 . S
O267 Nd241 2.492 . S
O267 C251 1.239 . S
O268 Nd241 2.487 . S
O268 C258 1.241 . S
O269 Nd240 2.414 . S
O269 Nd241 2.682 . S
O269 C258 1.273 . S
O270 Nd241 2.410 . S
O270 C259 1.251 . S
O271 Nd240 2.424 . S
O271 C259 1.268 . S
H272 C244 0.930 . S
H273 C245 0.929 . S
H274 C247 0.930 . S
H275 C248 0.929 . S
H276 C253 0.930 . S
H277 C254 0.929 . S
H278 C256 0.930 . S
H279 C257 0.929 . S
Nd280 C282 2.836 . S
Nd280 O300 2.500 . S
Nd280 O301 2.492 . S
Nd280 O302 2.487 . S
Nd280 O303 2.682 . S
Nd280 O304 2.410 . S
Nd280 O309 2.414 . S
Nd280 O311 2.424 . S
Nd281 C291 2.836 . S
Nd281 O303 2.414 . S
Nd281 O305 2.424 1_455 S
Nd281 O306 2.500 . S
Nd281 O307 2.492 1_455 S
Nd281 O308 2.487 1_455 S
Nd281 O309 2.682 . S
Nd281 O310 2.410 . S
C282 Nd280 2.836 . S
C282 C283 1.498 . S
C282 O300 1.258 . S
C282 O301 1.239 . S
C283 C282 1.498 . S
C283 C284 1.366 . S
C283 C288 1.407 . S
C284 C283 1.366 . S
C284 C285 1.392 . S
C284 H312 0.930 . S
C285 C284 1.392 . S
C285 C286 1.398 . S
C285 H313 0.929 . S
C286 C285 1.398 . S
C286 C287 1.352 . S
C287 C286 1.352 . S
C287 C288 1.384 . S
C287 H314 0.930 . S
C288 C283 1.407 . S
C288 C287 1.384 . S
C288 H315 0.929 . S
C289 O302 1.241 . S
C289 O303 1.273 . S
C290 O304 1.251 1_655 S
C290 O305 1.268 . S
C291 Nd281 2.836 . S
C291 C292 1.498 . S
C291 O306 1.258 . S
C291 O307 1.239 1_455 S
C292 C291 1.498 . S
C292 C293 1.366 . S
C292 C297 1.407 1_455 S
C293 C292 1.366 . S
C293 C294 1.392 . S
C293 H316 0.930 . S
C294 C293 1.392 . S
C294 C295 1.398 . S
C294 H317 0.929 . S
C295 C294 1.398 . S
C295 C296 1.352 1_455 S
C296 C295 1.352 1_655 S
C296 C297 1.384 . S
C296 H318 0.930 . S
C297 C292 1.407 1_655 S
C297 C296 1.384 . S
C297 H319 0.929 . S
C298 O308 1.241 . S
C298 O309 1.273 1_655 S
C299 O310 1.251 . S
C299 O311 1.268 . S
O300 Nd280 2.500 . S
O300 C282 1.258 . S
O301 Nd280 2.492 . S
O301 C282 1.239 . S
O302 Nd280 2.487 . S
O302 C289 1.241 . S
O303 Nd280 2.682 . S
O303 Nd281 2.414 . S
O303 C289 1.273 . S
O304 Nd280 2.410 . S
O304 C290 1.251 1_455 S
O305 Nd281 2.424 1_655 S
O305 C290 1.268 . S
O306 Nd281 2.500 . S
O306 C291 1.258 . S
O307 Nd281 2.492 1_655 S
O307 C291 1.239 1_655 S
O308 Nd281 2.487 1_655 S
O308 C298 1.241 . S
O309 Nd280 2.414 . S
O309 Nd281 2.682 . S
O309 C298 1.273 1_455 S
O310 Nd281 2.410 . S
O310 C299 1.251 . S
O311 Nd280 2.424 . S
O311 C299 1.268 . S
H312 C284 0.930 . S
H313 C285 0.929 . S
H314 C287 0.930 . S
H315 C288 0.929 . S
H316 C293 0.930 . S
H317 C294 0.929 . S
H318 C296 0.930 . S
H319 C297 0.929 . S
Nd320 C322 2.836 . S
Nd320 O340 2.500 . S
Nd320 O341 2.492 . S
Nd320 O342 2.487 1_556 S
Nd320 O343 2.682 1_556 S
Nd320 O344 2.410 1_556 S
Nd320 O349 2.414 . S
Nd320 O351 2.424 . S
Nd321 C331 2.836 . S
Nd321 O343 2.414 . S
Nd321 O345 2.424 . S
Nd321 O346 2.500 . S
Nd321 O347 2.492 . S
Nd321 O348 2.487 . S
Nd321 O349 2.682 1_554 S
Nd321 O350 2.410 . S
C322 Nd320 2.836 . S
C322 C323 1.498 . S
C322 O340 1.258 . S
C322 O341 1.239 . S
C323 C322 1.498 . S
C323 C324 1.366 . S
C323 C328 1.407 . S
C324 C323 1.366 . S
C324 C325 1.392 . S
C324 H352 0.930 . S
C325 C324 1.392 . S
C325 C326 1.398 . S
C325 H353 0.929 . S
C326 C325 1.398 . S
C326 C327 1.352 . S
C327 C326 1.352 . S
C327 C328 1.384 . S
C327 H354 0.930 . S
C328 C323 1.407 . S
C328 C327 1.384 . S
C328 H355 0.929 . S
C329 O342 1.241 . S
C329 O343 1.273 . S
C330 O344 1.251 . S
C330 O345 1.268 . S
C331 Nd321 2.836 . S
C331 C332 1.498 . S
C331 O346 1.258 . S
C331 O347 1.239 . S
C332 C331 1.498 . S
C332 C333 1.366 . S
C332 C337 1.407 . S
C333 C332 1.366 . S
C333 C334 1.392 . S
C333 H356 0.930 . S
C334 C333 1.392 . S
C334 C335 1.398 . S
C334 H357 0.929 . S
C335 C334 1.398 . S
C335 C336 1.352 . S
C336 C335 1.352 . S
C336 C337 1.384 . S
C336 H358 0.930 . S
C337 C332 1.407 . S
C337 C336 1.384 . S
C337 H359 0.929 . S
C338 O348 1.241 1_556 S
C338 O349 1.273 . S
C339 O350 1.251 . S
C339 O351 1.268 1_554 S
O340 Nd320 2.500 . S
O340 C322 1.258 . S
O341 Nd320 2.492 . S
O341 C322 1.239 . S
O342 Nd320 2.487 1_554 S
O342 C329 1.241 . S
O343 Nd320 2.682 1_554 S
O343 Nd321 2.414 . S
O343 C329 1.273 . S
O344 Nd320 2.410 1_554 S
O344 C330 1.251 . S
O345 Nd321 2.424 . S
O345 C330 1.268 . S
O346 Nd321 2.500 . S
O346 C331 1.258 . S
O347 Nd321 2.492 . S
O347 C331 1.239 . S
O348 Nd321 2.487 . S
O348 C338 1.241 1_554 S
O349 Nd320 2.414 . S
O349 Nd321 2.682 1_556 S
O349 C338 1.273 . S
O350 Nd321 2.410 . S
O350 C339 1.251 . S
O351 Nd320 2.424 . S
O351 C339 1.268 1_556 S
H352 C324 0.930 . S
H353 C325 0.929 . S
H354 C327 0.930 . S
H355 C328 0.929 . S
H356 C333 0.930 . S
H357 C334 0.929 . S
H358 C336 0.930 . S
H359 C337 0.929 . S
Nd360 C362 2.836 . S
Nd360 O380 2.500 . S
Nd360 O381 2.492 . S
Nd360 O382 2.487 1_545 S
Nd360 O383 2.682 1_545 S
Nd360 O384 2.410 . S
Nd360 O389 2.414 . S
Nd360 O391 2.424 . S
Nd361 C371 2.834 1_545 S
Nd361 O383 2.413 1_545 S
Nd361 O385 2.425 . S
Nd361 O386 2.496 1_545 S
Nd361 O387 2.491 1_545 S
Nd361 O388 2.491 . S
Nd361 O389 2.686 . S
Nd361 O390 2.411 . S
C362 Nd360 2.836 . S
C362 C363 1.498 . S
C362 O380 1.258 . S
C362 O381 1.239 . S
C363 C362 1.498 . S
C363 C364 1.366 . S
C363 C368 1.407 . S
C364 C363 1.366 . S
C364 C365 1.392 . S
C364 H392 0.930 . S
C365 C364 1.392 . S
C365 C366 1.398 . S
C365 H393 0.929 . S
C366 C365 1.398 . S
C366 C367 1.352 . S
C367 C366 1.352 . S
C367 C368 1.384 . S
C367 H394 0.930 . S
C368 C363 1.407 . S
C368 C367 1.384 . S
C368 H395 0.929 . S
C369 O382 1.241 . S
C369 O383 1.273 . S
C370 O384 1.251 . S
C370 O385 1.268 . S
C371 Nd361 2.834 1_565 S
C371 C372 1.498 . S
C371 O386 1.258 . S
C371 O387 1.239 . S
C372 C371 1.498 . S
C372 C373 1.366 . S
C372 C377 1.407 . S
C373 C372 1.366 . S
C373 C374 1.392 . S
C373 H396 0.930 . S
C374 C373 1.392 . S
C374 C375 1.398 . S
C374 H397 0.929 . S
C375 C374 1.398 . S
C375 C376 1.352 . S
C376 C375 1.352 . S
C376 C377 1.384 . S
C376 H398 0.930 . S
C377 C372 1.407 . S
C377 C376 1.384 . S
C377 H399 0.929 . S
C378 O388 1.241 . S
C378 O389 1.273 . S
C379 O390 1.251 . S
C379 O391 1.268 . S
O380 Nd360 2.500 . S
O380 C362 1.258 . S
O381 Nd360 2.492 . S
O381 C362 1.239 . S
O382 Nd360 2.487 1_565 S
O382 C369 1.241 . S
O383 Nd360 2.682 1_565 S
O383 Nd361 2.413 1_565 S
O383 C369 1.273 . S
O384 Nd360 2.410 . S
O384 C370 1.251 . S
O385 Nd361 2.425 . S
O385 C370 1.268 . S
O386 Nd361 2.496 1_565 S
O386 C371 1.258 . S
O387 Nd361 2.491 1_565 S
O387 C371 1.239 . S
O388 Nd361 2.491 . S
O388 C378 1.241 . S
O389 Nd360 2.414 . S
O389 Nd361 2.686 . S
O389 C378 1.273 . S
O390 Nd361 2.411 . S
O390 C379 1.251 . S
O391 Nd360 2.424 . S
O391 C379 1.268 . S
H392 C364 0.930 . S
H393 C365 0.929 . S
H394 C367 0.930 . S
H395 C368 0.929 . S
H396 C373 0.930 . S
H397 C374 0.929 . S
H398 C376 0.930 . S
H399 C377 0.929 . S
Nd400 C402 2.836 . S
Nd400 O420 2.500 . S
Nd400 O421 2.492 . S
Nd400 O422 2.487 . S
Nd400 O423 2.682 . S
Nd400 O424 2.410 . S
Nd400 O429 2.414 . S
Nd400 O431 2.424 . S
Nd401 C411 2.836 . S
Nd401 O423 2.414 . S
Nd401 O425 2.424 . S
Nd401 O426 2.500 . S
Nd401 O427 2.492 . S
Nd401 O428 2.487 . S
Nd401 O429 2.682 . S
Nd401 O430 2.410 . S
C402 Nd400 2.836 . S
C402 C403 1.498 . S
C402 O420 1.258 . S
C402 O421 1.239 . S
C403 C402 1.498 . S
C403 C404 1.366 . S
C403 C408 1.407 . S
C404 C403 1.366 . S
C404 C405 1.392 . S
C404 H432 0.930 . S
C405 C404 1.392 . S
C405 C406 1.398 . S
C405 H433 0.929 . S
C406 C405 1.398 . S
C406 C407 1.352 . S
C407 C406 1.352 . S
C407 C408 1.384 . S
C407 H434 0.930 . S
C408 C403 1.407 . S
C408 C407 1.384 . S
C408 H435 0.929 . S
C409 O422 1.241 . S
C409 O423 1.273 . S
C410 O424 1.251 . S
C410 O425 1.268 . S
C411 Nd401 2.836 . S
C411 C412 1.498 . S
C411 O426 1.258 . S
C411 O427 1.239 . S
C412 C411 1.498 . S
C412 C413 1.366 . S
C412 C417 1.407 . S
C413 C412 1.366 . S
C413 C414 1.392 . S
C413 H436 0.930 . S
C414 C413 1.392 . S
C414 C415 1.398 . S
C414 H437 0.929 . S
C415 C414 1.398 . S
C415 C416 1.352 . S
C416 C415 1.352 . S
C416 C417 1.384 . S
C416 H438 0.930 . S
C417 C412 1.407 . S
C417 C416 1.384 . S
C417 H439 0.929 . S
C418 O428 1.241 . S
C418 O429 1.273 . S
C419 O430 1.251 . S
C419 O431 1.268 . S
O420 Nd400 2.500 . S
O420 C402 1.258 . S
O421 Nd400 2.492 . S
O421 C402 1.239 . S
O422 Nd400 2.487 . S
O422 C409 1.241 . S
O423 Nd400 2.682 . S
O423 Nd401 2.414 . S
O423 C409 1.273 . S
O424 Nd400 2.410 . S
O424 C410 1.251 . S
O425 Nd401 2.424 . S
O425 C410 1.268 . S
O426 Nd401 2.500 . S
O426 C411 1.258 . S
O427 Nd401 2.492 . S
O427 C411 1.239 . S
O428 Nd401 2.487 . S
O428 C418 1.241 . S
O429 Nd400 2.414 . S
O429 Nd401 2.682 . S
O429 C418 1.273 . S
O430 Nd401 2.410 . S
O430 C419 1.251 . S
O431 Nd400 2.424 . S
O431 C419 1.268 . S
H432 C404 0.930 . S
H433 C405 0.929 . S
H434 C407 0.930 . S
H435 C408 0.929 . S
H436 C413 0.930 . S
H437 C414 0.929 . S
H438 C416 0.930 . S
H439 C417 0.929 . S
Nd440 C442 2.836 . S
Nd440 O460 2.500 1_455 S
Nd440 O461 2.492 . S
Nd440 O462 2.487 . S
Nd440 O463 2.682 . S
Nd440 O464 2.410 . S
Nd440 O469 2.414 . S
Nd440 O471 2.424 . S
Nd441 C451 2.836 . S
Nd441 O463 2.414 . S
Nd441 O465 2.424 . S
Nd441 O466 2.500 . S
Nd441 O467 2.492 . S
Nd441 O468 2.487 . S
Nd441 O469 2.682 . S
Nd441 O470 2.410 . S
C442 Nd440 2.836 . S
C442 C443 1.498 1_455 S
C442 O460 1.258 1_455 S
C442 O461 1.239 . S
C443 C442 1.498 1_655 S
C443 C444 1.366 . S
C443 C448 1.407 . S
C444 C443 1.366 . S
C444 C445 1.392 . S
C444 H472 0.930 . S
C445 C444 1.392 . S
C445 C446 1.398 . S
C445 H473 0.929 . S
C446 C445 1.398 . S
C446 C447 1.352 . S
C447 C446 1.352 . S
C447 C448 1.384 . S
C447 H474 0.930 . S
C448 C443 1.407 . S
C448 C447 1.384 . S
C448 H475 0.929 1_655 S
C449 O462 1.241 . S
C449 O463 1.273 . S
C450 O464 1.251 . S
C450 O465 1.268 . S
C451 Nd441 2.836 . S
C451 C452 1.498 . S
C451 O466 1.258 . S
C451 O467 1.239 . S
C452 C451 1.498 . S
C452 C453 1.366 . S
C452 C457 1.407 . S
C453 C452 1.366 . S
C453 C454 1.392 . S
C453 H476 0.930 . S
C454 C453 1.392 . S
C454 C455 1.398 . S
C454 H477 0.929 . S
C455 C454 1.398 . S
C455 C456 1.352 . S
C456 C455 1.352 . S
C456 C457 1.384 . S
C456 H478 0.930 . S
C457 C452 1.407 . S
C457 C456 1.384 . S
C457 H479 0.929 . S
C458 O468 1.241 . S
C458 O469 1.273 . S
C459 O470 1.251 . S
C459 O471 1.268 . S
O460 Nd440 2.500 1_655 S
O460 C442 1.258 1_655 S
O461 Nd440 2.492 . S
O461 C442 1.239 . S
O462 Nd440 2.487 . S
O462 C449 1.241 . S
O463 Nd440 2.682 . S
O463 Nd441 2.414 . S
O463 C449 1.273 . S
O464 Nd440 2.410 . S
O464 C450 1.251 . S
O465 Nd441 2.424 . S
O465 C450 1.268 . S
O466 Nd441 2.500 . S
O466 C451 1.258 . S
O467 Nd441 2.492 . S
O467 C451 1.239 . S
O468 Nd441 2.487 . S
O468 C458 1.241 . S
O469 Nd440 2.414 . S
O469 Nd441 2.682 . S
O469 C458 1.273 . S
O470 Nd441 2.410 . S
O470 C459 1.251 . S
O471 Nd440 2.424 . S
O471 C459 1.268 . S
H472 C444 0.930 . S
H473 C445 0.929 . S
H474 C447 0.930 . S
H475 C448 0.929 1_455 S
H476 C453 0.930 . S
H477 C454 0.929 . S
H478 C456 0.930 . S
H479 C457 0.929 . S
Nd480 C482 2.836 . S
Nd480 O500 2.500 . S
Nd480 O501 2.492 . S
Nd480 O502 2.487 . S
Nd480 O503 2.682 . S
Nd480 O504 2.410 . S
Nd480 O509 2.414 . S
Nd480 O511 2.424 . S
Nd481 C491 2.836 . S
Nd481 O503 2.414 . S
Nd481 O505 2.424 . S
Nd481 O506 2.500 . S
Nd481 O507 2.492 . S
Nd481 O508 2.487 . S
Nd481 O509 2.682 . S
Nd481 O510 2.410 . S
C482 Nd480 2.836 . S
C482 C483 1.498 . S
C482 O500 1.258 . S
C482 O501 1.239 . S
C483 C482 1.498 . S
C483 C484 1.366 . S
C483 C488 1.407 . S
C484 C483 1.366 . S
C484 C485 1.392 . S
C484 H512 0.930 . S
C485 C484 1.392 . S
C485 C486 1.398 . S
C485 H513 0.929 . S
C486 C485 1.398 . S
C486 C487 1.352 . S
C487 C486 1.352 . S
C487 C488 1.384 . S
C487 H514 0.930 . S
C488 C483 1.407 . S
C488 C487 1.384 . S
C488 H515 0.929 . S
C489 O502 1.241 . S
C489 O503 1.273 . S
C490 O504 1.251 . S
C490 O505 1.268 . S
C491 Nd481 2.836 . S
C491 C492 1.498 . S
C491 O506 1.258 . S
C491 O507 1.239 . S
C492 C491 1.498 . S
C492 C493 1.366 . S
C492 C497 1.407 . S
C493 C492 1.366 . S
C493 C494 1.392 . S
C493 H516 0.930 . S
C494 C493 1.392 . S
C494 C495 1.398 . S
C494 H517 0.929 . S
C495 C494 1.398 . S
C495 C496 1.352 . S
C496 C495 1.352 . S
C496 C497 1.384 . S
C496 H518 0.930 . S
C497 C492 1.407 . S
C497 C496 1.384 . S
C497 H519 0.929 . S
C498 O508 1.241 . S
C498 O509 1.273 . S
C499 O510 1.251 . S
C499 O511 1.268 . S
O500 Nd480 2.500 . S
O500 C482 1.258 . S
O501 Nd480 2.492 . S
O501 C482 1.239 . S
O502 Nd480 2.487 . S
O502 C489 1.241 . S
O503 Nd480 2.682 . S
O503 Nd481 2.414 . S
O503 C489 1.273 . S
O504 Nd480 2.410 . S
O504 C490 1.251 . S
O505 Nd481 2.424 . S
O505 C490 1.268 . S
O506 Nd481 2.500 . S
O506 C491 1.258 . S
O507 Nd481 2.492 . S
O507 C491 1.239 . S
O508 Nd481 2.487 . S
O508 C498 1.241 . S
O509 Nd480 2.414 . S
O509 Nd481 2.682 . S
O509 C498 1.273 . S
O510 Nd481 2.410 . S
O510 C499 1.251 . S
O511 Nd480 2.424 . S
O511 C499 1.268 . S
H512 C484 0.930 . S
H513 C485 0.929 . S
H514 C487 0.930 . S
H515 C488 0.929 . S
H516 C493 0.930 . S
H517 C494 0.929 . S
H518 C496 0.930 . S
H519 C497 0.929 . S
Nd520 C522 2.836 . S
Nd520 O540 2.500 . S
Nd520 O541 2.492 . S
Nd520 O542 2.487 1_554 S
Nd520 O543 2.682 1_554 S
Nd520 O544 2.410 . S
Nd520 O549 2.414 . S
Nd520 O551 2.424 . S
Nd521 C531 2.836 . S
Nd521 O543 2.414 . S
Nd521 O545 2.424 . S
Nd521 O546 2.500 . S
Nd521 O547 2.492 . S
Nd521 O548 2.487 1_556 S
Nd521 O549 2.682 1_556 S
Nd521 O550 2.410 1_556 S
C522 Nd520 2.836 . S
C522 C523 1.498 . S
C522 O540 1.258 . S
C522 O541 1.239 . S
C523 C522 1.498 . S
C523 C524 1.366 . S
C523 C528 1.407 . S
C524 C523 1.366 . S
C524 C525 1.392 . S
C524 H552 0.930 . S
C525 C524 1.392 . S
C525 C526 1.398 . S
C525 H553 0.929 . S
C526 C525 1.398 . S
C526 C527 1.352 . S
C527 C526 1.352 . S
C527 C528 1.384 . S
C527 H554 0.930 . S
C528 C523 1.407 . S
C528 C527 1.384 . S
C528 H555 0.929 . S
C529 O542 1.241 . S
C529 O543 1.273 . S
C530 O544 1.251 . S
C530 O545 1.268 1_554 S
C531 Nd521 2.836 . S
C531 C532 1.498 . S
C531 O546 1.258 . S
C531 O547 1.239 . S
C532 C531 1.498 . S
C532 C533 1.366 . S
C532 C537 1.407 . S
C533 C532 1.366 . S
C533 C534 1.392 . S
C533 H556 0.930 . S
C534 C533 1.392 . S
C534 C535 1.398 . S
C534 H557 0.929 . S
C535 C534 1.398 . S
C535 C536 1.352 . S
C536 C535 1.352 . S
C536 C537 1.384 . S
C536 H558 0.930 . S
C537 C532 1.407 . S
C537 C536 1.384 . S
C537 H559 0.929 . S
C538 O548 1.241 . S
C538 O549 1.273 . S
C539 O550 1.251 . S
C539 O551 1.268 . S
O540 Nd520 2.500 . S
O540 C522 1.258 . S
O541 Nd520 2.492 . S
O541 C522 1.239 . S
O542 Nd520 2.487 1_556 S
O542 C529 1.241 . S
O543 Nd520 2.682 1_556 S
O543 Nd521 2.414 . S
O543 C529 1.273 . S
O544 Nd520 2.410 . S
O544 C530 1.251 . S
O545 Nd521 2.424 . S
O545 C530 1.268 1_556 S
O546 Nd521 2.500 . S
O546 C531 1.258 . S
O547 Nd521 2.492 . S
O547 C531 1.239 . S
O548 Nd521 2.487 1_554 S
O548 C538 1.241 . S
O549 Nd520 2.414 . S
O549 Nd521 2.682 1_554 S
O549 C538 1.273 . S
O550 Nd521 2.410 1_554 S
O550 C539 1.251 . S
O551 Nd520 2.424 . S
O551 C539 1.268 . S
H552 C524 0.930 . S
H553 C525 0.929 . S
H554 C527 0.930 . S
H555 C528 0.929 . S
H556 C533 0.930 . S
H557 C534 0.929 . S
H558 C536 0.930 . S
H559 C537 0.929 . S
Nd560 C562 2.836 1_545 S
Nd560 O580 2.500 1_545 S
Nd560 O581 2.492 1_545 S
Nd560 O582 2.487 . S
Nd560 O583 2.682 . S
Nd560 O584 2.410 1_545 S
Nd560 O589 2.414 . S
Nd560 O591 2.424 . S
Nd561 C571 2.836 . S
Nd561 O583 2.414 . S
Nd561 O585 2.424 . S
Nd561 O586 2.500 . S
Nd561 O587 2.492 . S
Nd561 O588 2.487 . S
Nd561 O589 2.682 . S
Nd561 O590 2.410 . S
C562 Nd560 2.836 1_565 S
C562 C563 1.498 . S
C562 O580 1.258 . S
C562 O581 1.239 . S
C563 C562 1.498 . S
C563 C564 1.366 . S
C563 C568 1.407 . S
C564 C563 1.366 . S
C564 C565 1.392 . S
C564 H592 0.930 . S
C565 C564 1.392 . S
C565 C566 1.398 . S
C565 H593 0.929 . S
C566 C565 1.398 . S
C566 C567 1.352 . S
C567 C566 1.352 . S
C567 C568 1.384 . S
C567 H594 0.930 . S
C568 C563 1.407 . S
C568 C567 1.384 . S
C568 H595 0.929 . S
C569 O582 1.241 . S
C569 O583 1.273 . S
C570 O584 1.251 . S
C570 O585 1.268 1_565 S
C571 Nd561 2.836 . S
C571 C572 1.498 . S
C571 O586 1.258 . S
C571 O587 1.239 . S
C572 C571 1.498 . S
C572 C573 1.366 . S
C572 C577 1.407 . S
C573 C572 1.366 . S
C573 C574 1.392 . S
C573 H596 0.930 . S
C574 C573 1.392 . S
C574 C575 1.398 . S
C574 H597 0.929 . S
C575 C574 1.398 . S
C575 C576 1.352 . S
C576 C575 1.352 . S
C576 C577 1.384 . S
C576 H598 0.930 . S
C577 C572 1.407 . S
C577 C576 1.384 . S
C577 H599 0.929 . S
C578 O588 1.241 . S
C578 O589 1.273 . S
C579 O590 1.251 . S
C579 O591 1.268 . S
O580 Nd560 2.500 1_565 S
O580 C562 1.258 . S
O581 Nd560 2.492 1_565 S
O581 C562 1.239 . S
O582 Nd560 2.487 . S
O582 C569 1.241 . S
O583 Nd560 2.682 . S
O583 Nd561 2.414 . S
O583 C569 1.273 . S
O584 Nd560 2.410 1_565 S
O584 C570 1.251 . S
O585 Nd561 2.424 . S
O585 C570 1.268 1_545 S
O586 Nd561 2.500 . S
O586 C571 1.258 . S
O587 Nd561 2.492 . S
O587 C571 1.239 . S
O588 Nd561 2.487 . S
O588 C578 1.241 . S
O589 Nd560 2.414 . S
O589 Nd561 2.682 . S
O589 C578 1.273 . S
O590 Nd561 2.410 . S
O590 C579 1.251 . S
O591 Nd560 2.424 . S
O591 C579 1.268 . S
H592 C564 0.930 . S
H593 C565 0.929 . S
H594 C567 0.930 . S
H595 C568 0.929 . S
H596 C573 0.930 . S
H597 C574 0.929 . S
H598 C576 0.930 . S
H599 C577 0.929 . S
Nd600 C602 2.836 . S
Nd600 O620 2.500 . S
Nd600 O621 2.492 . S
Nd600 O622 2.487 1_556 S
Nd600 O623 2.682 1_556 S
Nd600 O624 2.410 1_556 S
Nd600 O629 2.414 . S
Nd600 O631 2.424 1_556 S
Nd601 C611 2.836 . S
Nd601 O623 2.414 . S
Nd601 O625 2.424 . S
Nd601 O626 2.500 . S
Nd601 O627 2.492 . S
Nd601 O628 2.487 1_554 S
Nd601 O629 2.682 1_554 S
Nd601 O630 2.410 . S
C602 Nd600 2.836 . S
C602 C603 1.498 . S
C602 O620 1.258 . S
C602 O621 1.239 . S
C603 C602 1.498 . S
C603 C604 1.366 . S
C603 C608 1.407 . S
C604 C603 1.366 . S
C604 C605 1.392 . S
C604 H632 0.930 . S
C605 C604 1.392 . S
C605 C606 1.398 . S
C605 H633 0.929 . S
C606 C605 1.398 . S
C606 C607 1.352 . S
C607 C606 1.352 . S
C607 C608 1.384 . S
C607 H634 0.930 . S
C608 C603 1.407 . S
C608 C607 1.384 . S
C608 H635 0.929 . S
C609 O622 1.241 . S
C609 O623 1.273 . S
C610 O624 1.251 . S
C610 O625 1.268 . S
C611 Nd601 2.836 . S
C611 C612 1.498 . S
C611 O626 1.258 . S
C611 O627 1.239 . S
C612 C611 1.498 . S
C612 C613 1.366 . S
C612 C617 1.407 . S
C613 C612 1.366 . S
C613 C614 1.392 . S
C613 H636 0.930 . S
C614 C613 1.392 . S
C614 C615 1.398 . S
C614 H637 0.929 . S
C615 C614 1.398 . S
C615 C616 1.352 . S
C616 C615 1.352 . S
C616 C617 1.384 . S
C616 H638 0.930 . S
C617 C612 1.407 . S
C617 C616 1.384 . S
C617 H639 0.929 . S
C618 O628 1.241 . S
C618 O629 1.273 . S
C619 O630 1.251 . S
C619 O631 1.268 . S
O620 Nd600 2.500 . S
O620 C602 1.258 . S
O621 Nd600 2.492 . S
O621 C602 1.239 . S
O622 Nd600 2.487 1_554 S
O622 C609 1.241 . S
O623 Nd600 2.682 1_554 S
O623 Nd601 2.414 . S
O623 C609 1.273 . S
O624 Nd600 2.410 1_554 S
O624 C610 1.251 . S
O625 Nd601 2.424 . S
O625 C610 1.268 . S
O626 Nd601 2.500 . S
O626 C611 1.258 . S
O627 Nd601 2.492 . S
O627 C611 1.239 . S
O628 Nd601 2.487 1_556 S
O628 C618 1.241 . S
O629 Nd600 2.414 . S
O629 Nd601 2.682 1_556 S
O629 C618 1.273 . S
O630 Nd601 2.410 . S
O630 C619 1.251 . S
O631 Nd600 2.424 1_554 S
O631 C619 1.268 . S
H632 C604 0.930 . S
H633 C605 0.929 . S
H634 C607 0.930 . S
H635 C608 0.929 . S
H636 C613 0.930 . S
H637 C614 0.929 . S
H638 C616 0.930 . S
H639 C617 0.929 . S
H640 C658 0.951 . S
H641 C660 0.951 . S
H642 C662 0.950 . S
H643 C663 0.950 . S
H644 C665 0.950 . S
H645 C668 0.950 1_455 S
H646 C669 0.950 . S
H647 C671 0.950 . S
H648 C672 0.950 . S
H649 C673 0.951 . S
H650 C675 0.951 . S
H651 C677 0.950 1_655 S
H652 C678 0.950 1_655 S
H653 C680 0.950 1_655 S
H654 C683 0.950 . S
H655 C684 0.950 . S
H656 C686 0.950 . S
H657 C687 0.950 . S
C658 H640 0.951 . S
C658 C659 1.366 1_655 S
C658 C660 1.388 . S
C659 C658 1.366 1_455 S
C659 C663 1.385 . S
C660 H641 0.951 . S
C660 C658 1.388 . S
C660 C661 1.366 1_655 S
C661 C660 1.366 1_455 S
C661 C662 1.414 . S
C661 C664 1.499 . S
C662 H642 0.950 . S
C662 C661 1.414 . S
C662 C663 1.374 . S
C663 H643 0.950 . S
C663 C659 1.385 . S
C663 C662 1.374 . S
C664 C661 1.499 . S
C664 C665 1.373 . S
C664 C666 1.389 . S
C665 H644 0.950 . S
C665 C664 1.373 . S
C665 C681 1.377 . S
C666 C664 1.389 . S
C666 C667 1.524 1_455 S
C666 C680 1.377 . S
C667 C666 1.524 1_655 S
C667 C668 1.397 . S
C667 C672 1.363 . S
C668 H645 0.950 1_655 S
C668 C667 1.397 . S
C668 C669 1.334 . S
C669 H646 0.950 . S
C669 C668 1.334 . S
C669 C670 1.287 . S
C670 C669 1.287 . S
C670 C671 1.524 . S
C670 H689 0.913 . S
C671 H647 0.950 . S
C671 C670 1.524 . S
C671 C672 1.415 . S
C672 H648 0.950 . S
C672 C667 1.363 . S
C672 C671 1.415 . S
C673 H649 0.951 . S
C673 C674 1.366 . S
C673 C675 1.388 . S
C674 C673 1.366 . S
C674 C678 1.385 . S
C675 H650 0.951 . S
C675 C673 1.388 . S
C675 C676 1.366 . S
C676 C675 1.366 . S
C676 C677 1.414 . S
C676 C679 1.499 . S
C677 H651 0.950 1_455 S
C677 C676 1.414 . S
C677 C678 1.374 . S
C678 H652 0.950 1_455 S
C678 C674 1.385 . S
C678 C677 1.374 . S
C679 C676 1.499 . S
C679 C680 1.373 . S
C679 C681 1.389 . S
C680 H653 0.950 1_455 S
C680 C666 1.377 . S
C680 C679 1.373 . S
C681 C665 1.377 . S
C681 C679 1.389 . S
C681 C682 1.524 . S
C682 C681 1.524 . S
C682 C683 1.397 . S
C682 C687 1.363 . S
C683 H654 0.950 . S
C683 C682 1.397 . S
C683 C684 1.334 . S
C684 H655 0.950 . S
C684 C683 1.334 . S
C684 C685 1.287 . S
C685 C684 1.287 . S
C685 C686 1.524 . S
C685 H688 0.999 . S
C686 H656 0.950 . S
C686 C685 1.524 . S
C686 C687 1.415 . S
C687 H657 0.950 . S
C687 C682 1.363 . S
C687 C686 1.415 . S
H688 C685 0.999 . S
H689 C670 0.913 . S
H690 C708 0.951 . S
H691 C710 0.951 . S
H692 C712 0.950 . S
H693 C713 0.950 . S
H694 C715 0.950 . S
H695 C718 0.950 . S
H696 C719 0.951 1_455 S
H697 C721 0.950 . S
H698 C722 0.950 . S
H699 C723 0.951 . S
H700 C725 0.951 . S
H701 C727 0.950 . S
H702 C728 0.950 . S
H703 C730 0.950 . S
H704 C733 0.950 . S
H705 C734 0.950 . S
H706 C736 0.950 . S
H707 C737 0.950 . S
C708 H690 0.951 . S
C708 C709 1.366 . S
C708 C710 1.388 . S
C709 C708 1.366 . S
C709 C713 1.385 . S
C710 H691 0.951 . S
C710 C708 1.388 . S
C710 C711 1.366 . S
C711 C710 1.366 . S
C711 C712 1.414 . S
C711 C714 1.499 . S
C712 H692 0.950 . S
C712 C711 1.414 . S
C712 C713 1.374 . S
C713 H693 0.950 . S
C713 C709 1.385 . S
C713 C712 1.374 . S
C714 C711 1.499 . S
C714 C715 1.373 . S
C714 C716 1.389 . S
C715 H694 0.950 . S
C715 C714 1.373 . S
C715 C731 1.377 . S
C716 C714 1.389 . S
C716 C717 1.524 . S
C716 C730 1.377 . S
C717 C716 1.524 . S
C717 C718 1.397 . S
C717 C722 1.363 . S
C718 H695 0.950 . S
C718 C717 1.397 . S
C718 C719 1.334 . S
C719 H696 0.951 1_655 S
C719 C718 1.334 . S
C719 C720 1.287 1_655 S
C720 C719 1.287 1_455 S
C720 C721 1.524 . S
C720 H739 0.913 . S
C721 H697 0.950 . S
C721 C720 1.524 . S
C721 C722 1.415 1_455 S
C722 H698 0.950 . S
C722 C717 1.363 . S
C722 C721 1.415 1_655 S
C723 H699 0.951 . S
C723 C724 1.366 . S
C723 C725 1.388 . S
C724 C723 1.366 . S
C724 C728 1.385 . S
C725 H700 0.951 . S
C725 C723 1.388 . S
C725 C726 1.366 . S
C726 C725 1.366 . S
C726 C727 1.414 . S
C726 C729 1.499 . S
C727 H701 0.950 . S
C727 C726 1.414 . S
C727 C728 1.374 . S
C728 H702 0.950 . S
C728 C724 1.385 . S
C728 C727 1.374 . S
C729 C726 1.499 . S
C729 C730 1.373 . S
C729 C731 1.389 . S
C730 H703 0.950 . S
C730 C716 1.377 . S
C730 C729 1.373 . S
C731 C715 1.377 . S
C731 C729 1.389 . S
C731 C732 1.524 . S
C732 C731 1.524 . S
C732 C733 1.397 . S
C732 C737 1.363 . S
C733 H704 0.950 . S
C733 C732 1.397 . S
C733 C734 1.334 . S
C734 H705 0.950 . S
C734 C733 1.334 . S
C734 C735 1.287 . S
C735 C734 1.287 . S
C735 C736 1.524 . S
C735 H738 0.999 . S
C736 H706 0.950 . S
C736 C735 1.524 . S
C736 C737 1.415 . S
C737 H707 0.950 . S
C737 C732 1.363 . S
C737 C736 1.415 . S
H738 C735 0.999 . S
H739 C720 0.913 . S
H740 C758 0.951 . S
H741 C760 0.951 . S
H742 C762 0.950 . S
H743 C763 0.950 . S
H744 C765 0.950 . S
H745 C768 0.950 . S
H746 C769 0.950 . S
H747 C771 0.950 . S
H748 C772 0.950 . S
H749 C773 0.951 . S
H750 C775 0.951 . S
H751 C777 0.950 . S
H752 C778 0.950 . S
H753 C780 0.950 . S
H754 C783 0.950 . S
H755 C784 0.950 . S
H756 C786 0.950 . S
H757 C787 0.950 . S
C758 H740 0.951 . S
C758 C759 1.366 . S
C758 C760 1.388 . S
C759 C758 1.366 . S
C759 C763 1.385 . S
C760 H741 0.951 . S
C760 C758 1.388 . S
C760 C761 1.366 . S
C761 C760 1.366 . S
C761 C762 1.414 . S
C761 C764 1.499 . S
C762 H742 0.950 . S
C762 C761 1.414 . S
C762 C763 1.374 . S
C763 H743 0.950 . S
C763 C759 1.385 . S
C763 C762 1.374 . S
C764 C761 1.499 . S
C764 C765 1.373 . S
C764 C766 1.389 . S
C765 H744 0.950 . S
C765 C764 1.373 . S
C765 C781 1.377 . S
C766 C764 1.389 . S
C766 C767 1.524 . S
C766 C780 1.377 . S
C767 C766 1.524 . S
C767 C768 1.397 . S
C767 C772 1.363 . S
C768 H745 0.950 . S
C768 C767 1.397 . S
C768 C769 1.334 . S
C769 H746 0.950 . S
C769 C768 1.334 . S
C769 C770 1.287 . S
C770 C769 1.287 . S
C770 C771 1.524 . S
C770 H789 0.913 . S
C771 H747 0.950 . S
C771 C770 1.524 . S
C771 C772 1.415 . S
C772 H748 0.950 . S
C772 C767 1.363 . S
C772 C771 1.415 . S
C773 H749 0.951 . S
C773 C774 1.366 . S
C773 C775 1.388 . S
C774 C773 1.366 . S
C774 C778 1.385 . S
C775 H750 0.951 . S
C775 C773 1.388 . S
C775 C776 1.366 . S
C776 C775 1.366 . S
C776 C777 1.414 . S
C776 C779 1.499 . S
C777 H751 0.950 . S
C777 C776 1.414 . S
C777 C778 1.374 . S
C778 H752 0.950 . S
C778 C774 1.385 . S
C778 C777 1.374 . S
C779 C776 1.499 . S
C779 C780 1.373 . S
C779 C781 1.389 . S
C780 H753 0.950 . S
C780 C766 1.377 . S
C780 C779 1.373 . S
C781 C765 1.377 . S
C781 C779 1.389 . S
C781 C782 1.524 . S
C782 C781 1.524 . S
C782 C783 1.397 . S
C782 C787 1.363 . S
C783 H754 0.950 . S
C783 C782 1.397 . S
C783 C784 1.334 . S
C784 H755 0.950 . S
C784 C783 1.334 . S
C784 C785 1.287 . S
C785 C784 1.287 . S
C785 C786 1.524 . S
C785 H788 0.999 . S
C786 H756 0.950 . S
C786 C785 1.524 . S
C786 C787 1.415 . S
C787 H757 0.950 . S
C787 C782 1.363 . S
C787 C786 1.415 . S
H788 C785 0.999 . S
H789 C770 0.913 . S
H790 C808 0.951 . S
H791 C810 0.951 . S
H792 C812 0.950 . S
H793 C813 0.950 . S
H794 C815 0.950 . S
H795 C818 0.950 . S
H796 C819 0.950 . S
H797 C821 0.950 . S
H798 C822 0.950 . S
H799 C823 0.951 . S
H800 C825 0.951 . S
H801 C827 0.950 . S
H802 C828 0.950 . S
H803 C830 0.950 1_565 S
H804 C833 0.950 . S
H805 C834 0.950 . S
H806 C836 0.950 . S
H807 C837 0.950 . S
C808 H790 0.951 . S
C808 C809 1.366 . S
C808 C810 1.388 . S
C809 C808 1.366 . S
C809 C813 1.385 . S
C810 H791 0.951 . S
C810 C808 1.388 . S
C810 C811 1.366 . S
C811 C810 1.366 . S
C811 C812 1.414 . S
C811 C814 1.499 . S
C812 H792 0.950 . S
C812 C811 1.414 . S
C812 C813 1.374 . S
C813 H793 0.950 . S
C813 C809 1.385 . S
C813 C812 1.374 . S
C814 C811 1.499 . S
C814 C815 1.373 . S
C814 C816 1.389 . S
C815 H794 0.950 . S
C815 C814 1.373 . S
C815 C831 1.377 . S
C816 C814 1.389 . S
C816 C817 1.524 1_545 S
C816 C830 1.377 . S
C817 C816 1.524 1_565 S
C817 C818 1.397 . S
C817 C822 1.363 . S
C818 H795 0.950 . S
C818 C817 1.397 . S
C818 C819 1.334 . S
C819 H796 0.950 . S
C819 C818 1.334 . S
C819 C820 1.287 . S
C820 C819 1.287 . S
C820 C821 1.524 . S
C820 H839 0.913 . S
C821 H797 0.950 . S
C821 C820 1.524 . S
C821 C822 1.415 . S
C822 H798 0.950 . S
C822 C817 1.363 . S
C822 C821 1.415 . S
C823 H799 0.951 . S
C823 C824 1.366 . S
C823 C825 1.388 . S
C824 C823 1.366 . S
C824 C828 1.385 . S
C825 H800 0.951 . S
C825 C823 1.388 . S
C825 C826 1.366 . S
C826 C825 1.366 . S
C826 C827 1.414 . S
C826 C829 1.499 . S
C827 H801 0.950 . S
C827 C826 1.414 . S
C827 C828 1.374 . S
C828 H802 0.950 . S
C828 C824 1.385 . S
C828 C827 1.374 . S
C829 C826 1.499 . S
C829 C830 1.373 . S
C829 C831 1.389 . S
C830 H803 0.950 1_545 S
C830 C816 1.377 . S
C830 C829 1.373 . S
C831 C815 1.377 . S
C831 C829 1.389 . S
C831 C832 1.524 . S
C832 C831 1.524 . S
C832 C833 1.397 . S
C832 C837 1.363 . S
C833 H804 0.950 . S
C833 C832 1.397 . S
C833 C834 1.334 . S
C834 H805 0.950 . S
C834 C833 1.334 . S
C834 C835 1.287 . S
C835 C834 1.287 . S
C835 C836 1.524 . S
C835 H838 0.999 . S
C836 H806 0.950 . S
C836 C835 1.524 . S
C836 C837 1.415 . S
C837 H807 0.950 . S
C837 C832 1.363 . S
C837 C836 1.415 . S
H838 C835 0.999 . S
H839 C820 0.913 . S
H840 C858 0.951 . S
H841 C860 0.951 . S
H842 C862 0.950 . S
H843 C863 0.950 . S
H844 C865 0.950 . S
H845 C868 0.950 . S
H846 C869 0.950 . S
H847 C871 0.950 . S
H848 C872 0.950 . S
H849 C873 0.951 . S
H850 C875 0.951 . S
H851 C877 0.950 . S
H852 C878 0.950 . S
H853 C880 0.950 . S
H854 C883 0.950 . S
H855 C884 0.950 . S
H856 C886 0.950 . S
H857 C887 0.950 . S
C858 H840 0.951 . S
C858 C859 1.366 . S
C858 C860 1.388 . S
C859 C858 1.366 . S
C859 C863 1.385 1_565 S
C860 H841 0.951 . S
C860 C858 1.388 . S
C860 C861 1.366 . S
C861 C860 1.366 . S
C861 C862 1.414 1_565 S
C861 C864 1.499 1_565 S
C862 H842 0.950 . S
C862 C861 1.414 1_545 S
C862 C863 1.374 . S
C863 H843 0.950 . S
C863 C859 1.385 1_545 S
C863 C862 1.374 . S
C864 C861 1.499 1_545 S
C864 C865 1.373 . S
C864 C866 1.389 . S
C865 H844 0.950 . S
C865 C864 1.373 . S
C865 C881 1.377 . S
C866 C864 1.389 . S
C866 C867 1.524 . S
C866 C880 1.377 . S
C867 C866 1.524 . S
C867 C868 1.397 . S
C867 C872 1.363 1_545 S
C868 H845 0.950 . S
C868 C867 1.397 . S
C868 C869 1.334 . S
C869 H846 0.950 . S
C869 C868 1.334 . S
C869 C870 1.287 . S
C870 C869 1.287 . S
C870 C871 1.524 1_545 S
C870 H889 0.913 . S
C871 H847 0.950 . S
C871 C870 1.524 1_565 S
C871 C872 1.415 . S
C872 H848 0.950 . S
C872 C867 1.363 1_565 S
C872 C871 1.415 . S
C873 H849 0.951 . S
C873 C874 1.366 . S
C873 C875 1.388 . S
C874 C873 1.366 . S
C874 C878 1.385 1_545 S
C875 H850 0.951 . S
C875 C873 1.388 . S
C875 C876 1.366 . S
C876 C875 1.366 . S
C876 C877 1.414 1_545 S
C876 C879 1.499 . S
C877 H851 0.950 . S
C877 C876 1.414 1_565 S
C877 C878 1.374 . S
C878 H852 0.950 . S
C878 C874 1.385 1_565 S
C878 C877 1.374 . S
C879 C876 1.499 . S
C879 C880 1.373 . S
C879 C881 1.389 . S
C880 H853 0.950 . S
C880 C866 1.377 . S
C880 C879 1.373 . S
C881 C865 1.377 . S
C881 C879 1.389 . S
C881 C882 1.524 . S
C882 C881 1.524 . S
C882 C883 1.397 1_545 S
C882 C887 1.363 . S
C883 H854 0.950 . S
C883 C882 1.397 1_565 S
C883 C884 1.334 . S
C884 H855 0.950 . S
C884 C883 1.334 . S
C884 C885 1.287 . S
C885 C884 1.287 . S
C885 C886 1.524 1_565 S
C885 H888 0.999 . S
C886 H856 0.950 . S
C886 C885 1.524 1_545 S
C886 C887 1.415 . S
C887 H857 0.950 . S
C887 C882 1.363 . S
C887 C886 1.415 . S
H888 C885 0.999 . S
H889 C870 0.913 . S
H890 C908 0.951 . S
H891 C910 0.951 . S
H892 C912 0.950 . S
H893 C913 0.950 . S
H894 C915 0.950 . S
H895 C918 0.950 . S
H896 C919 0.950 . S
H897 C921 0.950 . S
H898 C922 0.950 . S
H899 C923 0.951 . S
H900 C925 0.951 . S
H901 C927 0.950 . S
H902 C928 0.950 . S
H903 C930 0.950 . S
H904 C933 0.950 1_455 S
H905 C934 0.950 . S
H906 C936 0.950 . S
H907 C937 0.950 1_455 S
C908 H890 0.951 . S
C908 C909 1.366 . S
C908 C910 1.388 . S
C909 C908 1.366 . S
C909 C913 1.385 . S
C910 H891 0.951 . S
C910 C908 1.388 . S
C910 C911 1.366 . S
C911 C910 1.366 . S
C911 C912 1.414 . S
C911 C914 1.499 . S
C912 H892 0.950 . S
C912 C911 1.414 . S
C912 C913 1.374 . S
C913 H893 0.950 . S
C913 C909 1.385 . S
C913 C912 1.374 . S
C914 C911 1.499 . S
C914 C915 1.373 . S
C914 C916 1.389 . S
C915 H894 0.950 . S
C915 C914 1.373 . S
C915 C931 1.377 . S
C916 C914 1.389 . S
C916 C917 1.524 . S
C916 C930 1.377 . S
C917 C916 1.524 . S
C917 C918 1.397 . S
C917 C922 1.363 . S
C918 H895 0.950 . S
C918 C917 1.397 . S
C918 C919 1.334 . S
C919 H896 0.950 . S
C919 C918 1.334 . S
C919 C920 1.287 . S
C920 C919 1.287 . S
C920 C921 1.524 . S
C920 H939 0.913 . S
C921 H897 0.950 . S
C921 C920 1.524 . S
C921 C922 1.415 . S
C922 H898 0.950 . S
C922 C917 1.363 . S
C922 C921 1.415 . S
C923 H899 0.951 . S
C923 C924 1.366 . S
C923 C925 1.388 . S
C924 C923 1.366 . S
C924 C928 1.385 . S
C925 H900 0.951 . S
C925 C923 1.388 . S
C925 C926 1.366 . S
C926 C925 1.366 . S
C926 C927 1.414 . S
C926 C929 1.499 . S
C927 H901 0.950 . S
C927 C926 1.414 . S
C927 C928 1.374 . S
C928 H902 0.950 . S
C928 C924 1.385 . S
C928 C927 1.374 . S
C929 C926 1.499 . S
C929 C930 1.373 . S
C929 C931 1.389 . S
C930 H903 0.950 . S
C930 C916 1.377 . S
C930 C929 1.373 . S
C931 C915 1.377 . S
C931 C929 1.389 . S
C931 C932 1.524 . S
C932 C931 1.524 . S
C932 C933 1.397 1_455 S
C932 C937 1.363 1_455 S
C933 H904 0.950 1_655 S
C933 C932 1.397 1_655 S
C933 C934 1.334 . S
C934 H905 0.950 . S
C934 C933 1.334 . S
C934 C935 1.287 . S
C935 C934 1.287 . S
C935 C936 1.524 . S
C935 H938 0.999 . S
C936 H906 0.950 . S
C936 C935 1.524 . S
C936 C937 1.415 . S
C937 H907 0.950 1_655 S
C937 C932 1.363 1_655 S
C937 C936 1.415 . S
H938 C935 0.999 . S
H939 C920 0.913 . S
H940 C958 0.951 . S
H941 C960 0.951 . S
H942 C962 0.950 . S
H943 C963 0.950 . S
H944 C965 0.950 . S
H945 C968 0.950 . S
H946 C969 0.950 . S
H947 C971 0.950 . S
H948 C972 0.950 . S
H949 C973 0.951 . S
H950 C975 0.951 . S
H951 C977 0.950 . S
H952 C978 0.950 . S
H953 C980 0.950 . S
H954 C983 0.950 . S
H955 C984 0.950 . S
H956 C986 0.950 . S
H957 C987 0.950 . S
C958 H940 0.951 . S
C958 C959 1.366 . S
C958 C960 1.388 . S
C959 C958 1.366 . S
C959 C963 1.385 . S
C960 H941 0.951 . S
C960 C958 1.388 . S
C960 C961 1.366 . S
C961 C960 1.366 . S
C961 C962 1.414 . S
C961 C964 1.499 . S
C962 H942 0.950 . S
C962 C961 1.414 . S
C962 C963 1.374 . S
C963 H943 0.950 . S
C963 C959 1.385 . S
C963 C962 1.374 . S
C964 C961 1.499 . S
C964 C965 1.373 . S
C964 C966 1.389 . S
C965 H944 0.950 . S
C965 C964 1.373 . S
C965 C981 1.377 . S
C966 C964 1.389 . S
C966 C967 1.524 . S
C966 C980 1.377 . S
C967 C966 1.524 . S
C967 C968 1.397 . S
C967 C972 1.363 . S
C968 H945 0.950 . S
C968 C967 1.397 . S
C968 C969 1.334 . S
C969 H946 0.950 . S
C969 C968 1.334 . S
C969 C970 1.287 . S
C970 C969 1.287 . S
C970 C971 1.524 . S
C970 H989 0.913 . S
C971 H947 0.950 . S
C971 C970 1.524 . S
C971 C972 1.415 . S
C972 H948 0.950 . S
C972 C967 1.363 . S
C972 C971 1.415 . S
C973 H949 0.951 . S
C973 C974 1.366 . S
C973 C975 1.388 . S
C974 C973 1.366 . S
C974 C978 1.385 . S
C975 H950 0.951 . S
C975 C973 1.388 . S
C975 C976 1.366 . S
C976 C975 1.366 . S
C976 C977 1.414 . S
C976 C979 1.499 . S
C977 H951 0.950 . S
C977 C976 1.414 . S
C977 C978 1.374 . S
C978 H952 0.950 . S
C978 C974 1.385 . S
C978 C977 1.374 . S
C979 C976 1.499 . S
C979 C980 1.373 . S
C979 C981 1.389 . S
C980 H953 0.950 . S
C980 C966 1.377 . S
C980 C979 1.373 . S
C981 C965 1.377 . S
C981 C979 1.389 . S
C981 C982 1.524 . S
C982 C981 1.524 . S
C982 C983 1.397 . S
C982 C987 1.363 . S
C983 H954 0.950 . S
C983 C982 1.397 . S
C983 C984 1.334 . S
C984 H955 0.950 . S
C984 C983 1.334 . S
C984 C985 1.287 . S
C985 C984 1.287 . S
C985 C986 1.524 . S
C985 H988 0.999 . S
C986 H956 0.950 . S
C986 C985 1.524 . S
C986 C987 1.415 . S
C987 H957 0.950 . S
C987 C982 1.363 . S
C987 C986 1.415 . S
H988 C985 0.999 . S
H989 C970 0.913 . S
H990 C1008 0.951 . S
H991 C1010 0.951 . S
H992 C1012 0.950 . S
H993 C1013 0.950 . S
H994 C1015 0.950 . S
H995 C1018 0.950 . S
H996 C1019 0.950 . S
H997 C1021 0.950 . S
H998 C1022 0.950 . S
H999 C1023 0.951 . S
H1000 C1025 0.951 . S
H1001 C1027 0.950 . S
H1002 C1028 0.950 . S
H1003 C1030 0.950 . S
H1004 C1033 0.950 . S
H1005 C1034 0.950 . S
H1006 C1036 0.950 . S
H1007 C1037 0.950 . S
C1008 H990 0.951 . S
C1008 C1009 1.366 . S
C1008 C1010 1.388 . S
C1009 C1008 1.366 . S
C1009 C1013 1.385 . S
C1010 H991 0.951 . S
C1010 C1008 1.388 . S
C1010 C1011 1.366 . S
C1011 C1010 1.366 . S
C1011 C1012 1.414 . S
C1011 C1014 1.499 . S
C1012 H992 0.950 . S
C1012 C1011 1.414 . S
C1012 C1013 1.374 . S
C1013 H993 0.950 . S
C1013 C1009 1.385 . S
C1013 C1012 1.374 . S
C1014 C1011 1.499 . S
C1014 C1015 1.373 . S
C1014 C1016 1.389 . S
C1015 H994 0.950 . S
C1015 C1014 1.373 . S
C1015 C1031 1.377 . S
C1016 C1014 1.389 . S
C1016 C1017 1.524 . S
C1016 C1030 1.377 . S
C1017 C1016 1.524 . S
C1017 C1018 1.397 . S
C1017 C1022 1.363 . S
C1018 H995 0.950 . S
C1018 C1017 1.397 . S
C1018 C1019 1.334 . S
C1019 H996 0.950 . S
C1019 C1018 1.334 . S
C1019 C1020 1.287 . S
C1020 C1019 1.287 . S
C1020 C1021 1.524 . S
C1020 H1039 0.913 . S
C1021 H997 0.950 . S
C1021 C1020 1.524 . S
C1021 C1022 1.415 . S
C1022 H998 0.950 . S
C1022 C1017 1.363 . S
C1022 C1021 1.415 . S
C1023 H999 0.951 . S
C1023 C1024 1.366 . S
C1023 C1025 1.388 . S
C1024 C1023 1.366 . S
C1024 C1028 1.385 . S
C1025 H1000 0.951 . S
C1025 C1023 1.388 . S
C1025 C1026 1.366 . S
C1026 C1025 1.366 . S
C1026 C1027 1.414 . S
C1026 C1029 1.499 . S
C1027 H1001 0.950 . S
C1027 C1026 1.414 . S
C1027 C1028 1.374 . S
C1028 H1002 0.950 . S
C1028 C1024 1.385 . S
C1028 C1027 1.374 . S
C1029 C1026 1.499 . S
C1029 C1030 1.373 . S
C1029 C1031 1.389 . S
C1030 H1003 0.950 . S
C1030 C1016 1.377 . S
C1030 C1029 1.373 . S
C1031 C1015 1.377 . S
C1031 C1029 1.389 . S
C1031 C1032 1.524 . S
C1032 C1031 1.524 . S
C1032 C1033 1.397 . S
C1032 C1037 1.363 . S
C1033 H1004 0.950 . S
C1033 C1032 1.397 . S
C1033 C1034 1.334 . S
C1034 H1005 0.950 . S
C1034 C1033 1.334 . S
C1034 C1035 1.287 . S
C1035 C1034 1.287 . S
C1035 C1036 1.524 . S
C1035 H1038 0.999 . S
C1036 H1006 0.950 . S
C1036 C1035 1.524 . S
C1036 C1037 1.415 . S
C1037 H1007 0.950 . S
C1037 C1032 1.363 . S
C1037 C1036 1.415 . S
H1038 C1035 0.999 . S
H1039 C1020 0.913 . S
H1040 C1058 0.951 . S
H1041 C1060 0.951 . S
H1042 C1062 0.950 . S
H1043 C1063 0.950 . S
H1044 C1065 0.950 . S
H1045 C1068 0.950 . S
H1046 C1069 0.950 . S
H1047 C1071 0.950 . S
H1048 C1072 0.950 . S
H1049 C1073 0.951 . S
H1050 C1075 0.951 . S
H1051 C1077 0.950 . S
H1052 C1078 0.950 . S
H1053 C1080 0.950 . S
H1054 C1083 0.950 . S
H1055 C1084 0.950 . S
H1056 C1086 0.950 . S
H1057 C1087 0.950 . S
C1058 H1040 0.951 . S
C1058 C1059 1.366 . S
C1058 C1060 1.388 . S
C1059 C1058 1.366 . S
C1059 C1063 1.385 . S
C1060 H1041 0.951 . S
C1060 C1058 1.388 . S
C1060 C1061 1.366 . S
C1061 C1060 1.366 . S
C1061 C1062 1.414 . S
C1061 C1064 1.499 . S
C1062 H1042 0.950 . S
C1062 C1061 1.414 . S
C1062 C1063 1.374 . S
C1063 H1043 0.950 . S
C1063 C1059 1.385 . S
C1063 C1062 1.374 . S
C1064 C1061 1.499 . S
C1064 C1065 1.373 . S
C1064 C1066 1.389 . S
C1065 H1044 0.950 . S
C1065 C1064 1.373 . S
C1065 C1081 1.377 . S
C1066 C1064 1.389 . S
C1066 C1067 1.524 . S
C1066 C1080 1.377 . S
C1067 C1066 1.524 . S
C1067 C1068 1.397 . S
C1067 C1072 1.363 . S
C1068 H1045 0.950 . S
C1068 C1067 1.397 . S
C1068 C1069 1.334 . S
C1069 H1046 0.950 . S
C1069 C1068 1.334 . S
C1069 C1070 1.287 . S
C1070 C1069 1.287 . S
C1070 C1071 1.524 . S
C1070 H1089 0.913 . S
C1071 H1047 0.950 . S
C1071 C1070 1.524 . S
C1071 C1072 1.415 . S
C1072 H1048 0.950 . S
C1072 C1067 1.363 . S
C1072 C1071 1.415 . S
C1073 H1049 0.951 . S
C1073 C1074 1.366 . S
C1073 C1075 1.388 . S
C1074 C1073 1.366 . S
C1074 C1078 1.385 . S
C1075 H1050 0.951 . S
C1075 C1073 1.388 . S
C1075 C1076 1.366 . S
C1076 C1075 1.366 . S
C1076 C1077 1.414 . S
C1076 C1079 1.499 . S
C1077 H1051 0.950 . S
C1077 C1076 1.414 . S
C1077 C1078 1.374 . S
C1078 H1052 0.950 . S
C1078 C1074 1.385 . S
C1078 C1077 1.374 . S
C1079 C1076 1.499 . S
C1079 C1080 1.373 . S
C1079 C1081 1.389 . S
C1080 H1053 0.950 . S
C1080 C1066 1.377 . S
C1080 C1079 1.373 . S
C1081 C1065 1.377 . S
C1081 C1079 1.389 . S
C1081 C1082 1.524 . S
C1082 C1081 1.524 . S
C1082 C1083 1.397 . S
C1082 C1087 1.363 . S
C1083 H1054 0.950 . S
C1083 C1082 1.397 . S
C1083 C1084 1.334 . S
C1084 H1055 0.950 . S
C1084 C1083 1.334 . S
C1084 C1085 1.287 . S
C1085 C1084 1.287 . S
C1085 C1086 1.524 . S
C1085 H1088 0.999 . S
C1086 H1056 0.950 . S
C1086 C1085 1.524 . S
C1086 C1087 1.415 . S
C1087 H1057 0.950 . S
C1087 C1082 1.363 . S
C1087 C1086 1.415 . S
H1088 C1085 0.999 . S
H1089 C1070 0.913 . S
H1090 C1108 0.951 . S
H1091 C1110 0.951 . S
H1092 C1112 0.950 . S
H1093 C1113 0.950 . S
H1094 C1115 0.950 . S
H1095 C1118 0.950 . S
H1096 C1119 0.950 . S
H1097 C1121 0.950 . S
H1098 C1122 0.950 . S
H1099 C1123 0.951 . S
H1100 C1125 0.951 . S
H1101 C1127 0.950 . S
H1102 C1128 0.950 . S
H1103 C1130 0.950 . S
H1104 C1133 0.950 . S
H1105 C1134 0.950 . S
H1106 C1136 0.950 . S
H1107 C1137 0.950 . S
C1108 H1090 0.951 . S
C1108 C1109 1.366 . S
C1108 C1110 1.388 . S
C1109 C1108 1.366 . S
C1109 C1113 1.385 . S
C1110 H1091 0.951 . S
C1110 C1108 1.388 . S
C1110 C1111 1.366 . S
C1111 C1110 1.366 . S
C1111 C1112 1.414 . S
C1111 C1114 1.499 . S
C1112 H1092 0.950 . S
C1112 C1111 1.414 . S
C1112 C1113 1.374 . S
C1113 H1093 0.950 . S
C1113 C1109 1.385 . S
C1113 C1112 1.374 . S
C1114 C1111 1.499 . S
C1114 C1115 1.373 . S
C1114 C1116 1.389 . S
C1115 H1094 0.950 . S
C1115 C1114 1.373 . S
C1115 C1131 1.377 . S
C1116 C1114 1.389 . S
C1116 C1117 1.524 . S
C1116 C1130 1.377 . S
C1117 C1116 1.524 . S
C1117 C1118 1.397 . S
C1117 C1122 1.363 . S
C1118 H1095 0.950 . S
C1118 C1117 1.397 . S
C1118 C1119 1.334 . S
C1119 H1096 0.950 . S
C1119 C1118 1.334 . S
C1119 C1120 1.287 . S
C1120 C1119 1.287 . S
C1120 C1121 1.524 . S
C1120 H1139 0.913 . S
C1121 H1097 0.950 . S
C1121 C1120 1.524 . S
C1121 C1122 1.415 . S
C1122 H1098 0.950 . S
C1122 C1117 1.363 . S
C1122 C1121 1.415 . S
C1123 H1099 0.951 . S
C1123 C1124 1.366 . S
C1123 C1125 1.388 . S
C1124 C1123 1.366 . S
C1124 C1128 1.385 . S
C1125 H1100 0.951 . S
C1125 C1123 1.388 . S
C1125 C1126 1.366 . S
C1126 C1125 1.366 . S
C1126 C1127 1.414 . S
C1126 C1129 1.499 . S
C1127 H1101 0.950 . S
C1127 C1126 1.414 . S
C1127 C1128 1.374 . S
C1128 H1102 0.950 . S
C1128 C1124 1.385 . S
C1128 C1127 1.374 . S
C1129 C1126 1.499 . S
C1129 C1130 1.373 . S
C1129 C1131 1.389 . S
C1130 H1103 0.950 . S
C1130 C1116 1.377 . S
C1130 C1129 1.373 . S
C1131 C1115 1.377 . S
C1131 C1129 1.389 . S
C1131 C1132 1.524 . S
C1132 C1131 1.524 . S
C1132 C1133 1.397 . S
C1132 C1137 1.363 . S
C1133 H1104 0.950 . S
C1133 C1132 1.397 . S
C1133 C1134 1.334 . S
C1134 H1105 0.950 . S
C1134 C1133 1.334 . S
C1134 C1135 1.287 . S
C1135 C1134 1.287 . S
C1135 C1136 1.524 . S
C1135 H1138 0.999 . S
C1136 H1106 0.950 . S
C1136 C1135 1.524 . S
C1136 C1137 1.415 . S
C1137 H1107 0.950 . S
C1137 C1132 1.363 . S
C1137 C1136 1.415 . S
H1138 C1135 0.999 . S
H1139 C1120 0.913 . S
H1140 C1158 0.951 . S
H1141 C1160 0.951 . S
H1142 C1162 0.950 . S
H1143 C1163 0.950 . S
H1144 C1165 0.950 . S
H1145 C1168 0.950 . S
H1146 C1169 0.950 . S
H1147 C1171 0.950 . S
H1148 C1172 0.950 . S
H1149 C1173 0.951 . S
H1150 C1175 0.951 . S
H1151 C1177 0.950 . S
H1152 C1178 0.950 . S
H1153 C1180 0.950 1_565 S
H1154 C1183 0.950 . S
H1155 C1184 0.950 . S
H1156 C1186 0.950 . S
H1157 C1187 0.950 . S
C1158 H1140 0.951 . S
C1158 C1159 1.366 . S
C1158 C1160 1.388 . S
C1159 C1158 1.366 . S
C1159 C1163 1.385 . S
C1160 H1141 0.951 . S
C1160 C1158 1.388 . S
C1160 C1161 1.366 . S
C1161 C1160 1.366 . S
C1161 C1162 1.414 . S
C1161 C1164 1.499 . S
C1162 H1142 0.950 . S
C1162 C1161 1.414 . S
C1162 C1163 1.374 . S
C1163 H1143 0.950 . S
C1163 C1159 1.385 . S
C1163 C1162 1.374 . S
C1164 C1161 1.499 . S
C1164 C1165 1.373 . S
C1164 C1166 1.389 . S
C1165 H1144 0.950 . S
C1165 C1164 1.373 . S
C1165 C1181 1.377 . S
C1166 C1164 1.389 . S
C1166 C1167 1.524 1_545 S
C1166 C1180 1.377 . S
C1167 C1166 1.524 1_565 S
C1167 C1168 1.397 . S
C1167 C1172 1.363 . S
C1168 H1145 0.950 . S
C1168 C1167 1.397 . S
C1168 C1169 1.334 . S
C1169 H1146 0.950 . S
C1169 C1168 1.334 . S
C1169 C1170 1.287 . S
C1170 C1169 1.287 . S
C1170 C1171 1.524 . S
C1170 H1189 0.913 . S
C1171 H1147 0.950 . S
C1171 C1170 1.524 . S
C1171 C1172 1.415 . S
C1172 H1148 0.950 . S
C1172 C1167 1.363 . S
C1172 C1171 1.415 . S
C1173 H1149 0.951 . S
C1173 C1174 1.366 . S
C1173 C1175 1.388 . S
C1174 C1173 1.366 . S
C1174 C1178 1.385 . S
C1175 H1150 0.951 . S
C1175 C1173 1.388 . S
C1175 C1176 1.366 . S
C1176 C1175 1.366 . S
C1176 C1177 1.414 . S
C1176 C1179 1.499 . S
C1177 H1151 0.950 . S
C1177 C1176 1.414 . S
C1177 C1178 1.374 . S
C1178 H1152 0.950 . S
C1178 C1174 1.385 . S
C1178 C1177 1.374 . S
C1179 C1176 1.499 . S
C1179 C1180 1.373 . S
C1179 C1181 1.389 . S
C1180 H1153 0.950 1_545 S
C1180 C1166 1.377 . S
C1180 C1179 1.373 . S
C1181 C1165 1.377 . S
C1181 C1179 1.389 . S
C1181 C1182 1.524 . S
C1182 C1181 1.524 . S
C1182 C1183 1.397 . S
C1182 C1187 1.363 . S
C1183 H1154 0.950 . S
C1183 C1182 1.397 . S
C1183 C1184 1.334 . S
C1184 H1155 0.950 . S
C1184 C1183 1.334 . S
C1184 C1185 1.287 . S
C1185 C1184 1.287 . S
C1185 C1186 1.524 . S
C1185 H1188 0.999 . S
C1186 H1156 0.950 . S
C1186 C1185 1.524 . S
C1186 C1187 1.415 . S
C1187 H1157 0.950 . S
C1187 C1182 1.363 . S
C1187 C1186 1.415 . S
H1188 C1185 0.999 . S
H1189 C1170 0.913 . S
H1190 C1208 0.951 . S
H1191 C1210 0.951 . S
H1192 C1212 0.950 . S
H1193 C1213 0.950 . S
H1194 C1215 0.950 . S
H1195 C1218 0.950 . S
H1196 C1219 0.950 . S
H1197 C1221 0.950 . S
H1198 C1222 0.950 . S
H1199 C1223 0.951 . S
H1200 C1225 0.951 . S
H1201 C1227 0.950 . S
H1202 C1228 0.950 . S
H1203 C1230 0.950 . S
H1204 C1233 0.950 . S
H1205 C1234 0.950 . S
H1206 C1236 0.950 . S
H1207 C1237 0.950 . S
C1208 H1190 0.951 . S
C1208 C1209 1.366 . S
C1208 C1210 1.388 . S
C1209 C1208 1.366 . S
C1209 C1213 1.385 . S
C1210 H1191 0.951 . S
C1210 C1208 1.388 . S
C1210 C1211 1.366 . S
C1211 C1210 1.366 . S
C1211 C1212 1.414 . S
C1211 C1214 1.499 . S
C1212 H1192 0.950 . S
C1212 C1211 1.414 . S
C1212 C1213 1.374 . S
C1213 H1193 0.950 . S
C1213 C1209 1.385 . S
C1213 C1212 1.374 . S
C1214 C1211 1.499 . S
C1214 C1215 1.373 . S
C1214 C1216 1.389 . S
C1215 H1194 0.950 . S
C1215 C1214 1.373 . S
C1215 C1231 1.377 . S
C1216 C1214 1.389 . S
C1216 C1217 1.524 . S
C1216 C1230 1.377 . S
C1217 C1216 1.524 . S
C1217 C1218 1.397 . S
C1217 C1222 1.363 . S
C1218 H1195 0.950 . S
C1218 C1217 1.397 . S
C1218 C1219 1.334 . S
C1219 H1196 0.950 . S
C1219 C1218 1.334 . S
C1219 C1220 1.287 . S
C1220 C1219 1.287 . S
C1220 C1221 1.524 . S
C1220 H1239 0.913 . S
C1221 H1197 0.950 . S
C1221 C1220 1.524 . S
C1221 C1222 1.415 . S
C1222 H1198 0.950 . S
C1222 C1217 1.363 . S
C1222 C1221 1.415 . S
C1223 H1199 0.951 . S
C1223 C1224 1.366 . S
C1223 C1225 1.388 . S
C1224 C1223 1.366 . S
C1224 C1228 1.385 . S
C1225 H1200 0.951 . S
C1225 C1223 1.388 . S
C1225 C1226 1.366 . S
C1226 C1225 1.366 . S
C1226 C1227 1.414 . S
C1226 C1229 1.499 . S
C1227 H1201 0.950 . S
C1227 C1226 1.414 . S
C1227 C1228 1.374 . S
C1228 H1202 0.950 . S
C1228 C1224 1.385 . S
C1228 C1227 1.374 . S
C1229 C1226 1.499 . S
C1229 C1230 1.373 . S
C1229 C1231 1.389 . S
C1230 H1203 0.950 . S
C1230 C1216 1.377 . S
C1230 C1229 1.373 . S
C1231 C1215 1.377 . S
C1231 C1229 1.389 . S
C1231 C1232 1.524 . S
C1232 C1231 1.524 . S
C1232 C1233 1.397 . S
C1232 C1237 1.363 1_455 S
C1233 H1204 0.950 . S
C1233 C1232 1.397 . S
C1233 C1234 1.334 1_455 S
C1234 H1205 0.950 . S
C1234 C1233 1.334 1_655 S
C1234 C1235 1.287 . S
C1235 C1234 1.287 . S
C1235 C1236 1.524 . S
C1235 H1238 0.999 . S
C1236 H1206 0.950 . S
C1236 C1235 1.524 . S
C1236 C1237 1.415 . S
C1237 H1207 0.950 . S
C1237 C1232 1.363 1_655 S
C1237 C1236 1.415 . S
H1238 C1235 0.999 . S
H1239 C1220 0.913 . S
H1240 C1258 0.930 1_556 S
H1241 C1260 0.957 . S
H1242 C1262 0.950 . S
H1243 C1263 0.950 . S
H1244 C1265 0.950 . S
H1245 C1268 0.950 . S
H1246 C1269 0.950 . S
H1247 C1271 0.950 . S
H1248 C1272 0.950 . S
H1249 C1273 0.951 . S
H1250 C1275 0.951 . S
H1251 C1277 0.950 . S
H1252 C1278 0.950 . S
H1253 C1280 0.950 . S
H1254 C1283 0.950 . S
H1255 C1284 0.950 . S
H1256 C1286 0.950 . S
H1257 C1287 0.950 . S
C1258 H1240 0.930 1_554 S
C1258 C1259 1.403 . S
C1258 C1260 1.372 1_554 S
C1259 C1258 1.403 . S
C1259 C1263 1.385 . S
C1260 H1241 0.957 . S
C1260 C1258 1.372 1_556 S
C1260 C1261 1.362 1_556 S
C1261 C1260 1.362 1_554 S
C1261 C1262 1.414 . S
C1261 C1264 1.499 . S
C1262 H1242 0.950 . S
C1262 C1261 1.414 . S
C1262 C1263 1.374 . S
C1263 H1243 0.950 . S
C1263 C1259 1.385 . S
C1263 C1262 1.374 . S
C1264 C1261 1.499 . S
C1264 C1265 1.373 . S
C1264 C1266 1.389 1_554 S
C1265 H1244 0.950 . S
C1265 C1264 1.373 . S
C1265 C1281 1.377 . S
C1266 C1264 1.389 1_556 S
C1266 C1267 1.524 . S
C1266 C1280 1.377 . S
C1267 C1266 1.524 . S
C1267 C1268 1.397 . S
C1267 C1272 1.363 . S
C1268 H1245 0.950 . S
C1268 C1267 1.397 . S
C1268 C1269 1.334 . S
C1269 H1246 0.950 . S
C1269 C1268 1.334 . S
C1269 C1270 1.287 . S
C1270 C1269 1.287 . S
C1270 C1271 1.524 . S
C1270 H1289 0.913 . S
C1271 H1247 0.950 . S
C1271 C1270 1.524 . S
C1271 C1272 1.415 . S
C1272 H1248 0.950 . S
C1272 C1267 1.363 . S
C1272 C1271 1.415 . S
C1273 H1249 0.951 . S
C1273 C1274 1.366 . S
C1273 C1275 1.388 . S
C1274 C1273 1.366 . S
C1274 C1278 1.385 1_554 S
C1275 H1250 0.951 . S
C1275 C1273 1.388 . S
C1275 C1276 1.366 . S
C1276 C1275 1.366 . S
C1276 C1277 1.414 1_554 S
C1276 C1279 1.499 . S
C1277 H1251 0.950 . S
C1277 C1276 1.414 1_556 S
C1277 C1278 1.374 . S
C1278 H1252 0.950 . S
C1278 C1274 1.385 1_556 S
C1278 C1277 1.374 . S
C1279 C1276 1.499 . S
C1279 C1280 1.373 1_554 S
C1279 C1281 1.389 . S
C1280 H1253 0.950 . S
C1280 C1266 1.377 . S
C1280 C1279 1.373 1_556 S
C1281 C1265 1.377 . S
C1281 C1279 1.389 . S
C1281 C1282 1.524 . S
C1282 C1281 1.524 . S
C1282 C1283 1.397 . S
C1282 C1287 1.363 . S
C1283 H1254 0.950 . S
C1283 C1282 1.397 . S
C1283 C1284 1.334 . S
C1284 H1255 0.950 . S
C1284 C1283 1.334 . S
C1284 C1285 1.287 . S
C1285 C1284 1.287 . S
C1285 C1286 1.524 . S
C1285 H1288 0.999 . S
C1286 H1256 0.950 . S
C1286 C1285 1.524 . S
C1286 C1287 1.415 . S
C1287 H1257 0.950 . S
C1287 C1282 1.363 . S
C1287 C1286 1.415 . S
H1288 C1285 0.999 . S
H1289 C1270 0.913 . S
H1290 C1308 0.951 . S
H1291 C1310 0.951 . S
H1292 C1312 0.950 . S
H1293 C1313 0.950 . S
H1294 C1315 0.950 . S
H1295 C1318 0.950 . S
H1296 C1319 0.950 . S
H1297 C1321 0.950 . S
H1298 C1322 0.950 . S
H1299 C1323 0.951 . S
H1300 C1325 0.951 . S
H1301 C1327 0.950 . S
H1302 C1328 0.950 . S
H1303 C1330 0.950 . S
H1304 C1333 0.950 . S
H1305 C1334 0.950 . S
H1306 C1336 0.950 . S
H1307 C1337 0.950 . S
C1308 H1290 0.951 . S
C1308 C1309 1.366 . S
C1308 C1310 1.388 . S
C1309 C1308 1.366 . S
C1309 C1313 1.385 . S
C1310 H1291 0.951 . S
C1310 C1308 1.388 . S
C1310 C1311 1.366 . S
C1311 C1310 1.366 . S
C1311 C1312 1.414 . S
C1311 C1314 1.499 . S
C1312 H1292 0.950 . S
C1312 C1311 1.414 . S
C1312 C1313 1.374 . S
C1313 H1293 0.950 . S
C1313 C1309 1.385 . S
C1313 C1312 1.374 . S
C1314 C1311 1.499 . S
C1314 C1315 1.373 . S
C1314 C1316 1.389 . S
C1315 H1294 0.950 . S
C1315 C1314 1.373 . S
C1315 C1331 1.377 . S
C1316 C1314 1.389 . S
C1316 C1317 1.524 . S
C1316 C1330 1.377 . S
C1317 C1316 1.524 . S
C1317 C1318 1.397 . S
C1317 C1322 1.363 . S
C1318 H1295 0.950 . S
C1318 C1317 1.397 . S
C1318 C1319 1.334 . S
C1319 H1296 0.950 . S
C1319 C1318 1.334 . S
C1319 C1320 1.287 . S
C1320 C1319 1.287 . S
C1320 C1321 1.524 . S
C1320 H1339 0.913 . S
C1321 H1297 0.950 . S
C1321 C1320 1.524 . S
C1321 C1322 1.415 . S
C1322 H1298 0.950 . S
C1322 C1317 1.363 . S
C1322 C1321 1.415 . S
C1323 H1299 0.951 . S
C1323 C1324 1.366 . S
C1323 C1325 1.388 . S
C1324 C1323 1.366 . S
C1324 C1328 1.385 . S
C1325 H1300 0.951 . S
C1325 C1323 1.388 . S
C1325 C1326 1.366 . S
C1326 C1325 1.366 . S
C1326 C1327 1.414 . S
C1326 C1329 1.499 . S
C1327 H1301 0.950 . S
C1327 C1326 1.414 . S
C1327 C1328 1.374 . S
C1328 H1302 0.950 . S
C1328 C1324 1.385 . S
C1328 C1327 1.374 . S
C1329 C1326 1.499 . S
C1329 C1330 1.373 . S
C1329 C1331 1.389 . S
C1330 H1303 0.950 . S
C1330 C1316 1.377 . S
C1330 C1329 1.373 . S
C1331 C1315 1.377 . S
C1331 C1329 1.389 . S
C1331 C1332 1.524 . S
C1332 C1331 1.524 . S
C1332 C1333 1.397 . S
C1332 C1337 1.363 . S
C1333 H1304 0.950 . S
C1333 C1332 1.397 . S
C1333 C1334 1.334 . S
C1334 H1305 0.950 . S
C1334 C1333 1.334 . S
C1334 C1335 1.287 . S
C1335 C1334 1.287 . S
C1335 C1336 1.524 . S
C1335 H1338 0.999 . S
C1336 H1306 0.950 . S
C1336 C1335 1.524 . S
C1336 C1337 1.415 . S
C1337 H1307 0.950 . S
C1337 C1332 1.363 . S
C1337 C1336 1.415 . S
H1338 C1335 0.999 . S
H1339 C1320 0.913 . S
H1340 C1358 0.951 . S
H1341 C1360 0.951 . S
H1342 C1362 0.950 . S
H1343 C1363 0.950 . S
H1344 C1365 0.950 . S
H1345 C1368 0.950 . S
H1346 C1369 0.950 . S
H1347 C1371 0.950 . S
H1348 C1372 0.950 . S
H1349 C1373 0.951 . S
H1350 C1375 0.951 . S
H1351 C1377 0.950 . S
H1352 C1378 0.950 . S
H1353 C1380 0.950 . S
H1354 C1383 0.950 . S
H1355 C1384 0.950 . S
H1356 C1386 0.950 . S
H1357 C1387 0.950 . S
C1358 H1340 0.951 . S
C1358 C1359 1.366 . S
C1358 C1360 1.388 . S
C1359 C1358 1.366 . S
C1359 C1363 1.385 . S
C1360 H1341 0.951 . S
C1360 C1358 1.388 . S
C1360 C1361 1.366 . S
C1361 C1360 1.366 . S
C1361 C1362 1.414 . S
C1361 C1364 1.499 . S
C1362 H1342 0.950 . S
C1362 C1361 1.414 . S
C1362 C1363 1.374 . S
C1363 H1343 0.950 . S
C1363 C1359 1.385 . S
C1363 C1362 1.374 . S
C1364 C1361 1.499 . S
C1364 C1365 1.373 . S
C1364 C1366 1.389 . S
C1365 H1344 0.950 . S
C1365 C1364 1.373 . S
C1365 C1381 1.377 . S
C1366 C1364 1.389 . S
C1366 C1367 1.524 . S
C1366 C1380 1.377 . S
C1367 C1366 1.524 . S
C1367 C1368 1.397 . S
C1367 C1372 1.363 . S
C1368 H1345 0.950 . S
C1368 C1367 1.397 . S
C1368 C1369 1.334 . S
C1369 H1346 0.950 . S
C1369 C1368 1.334 . S
C1369 C1370 1.287 . S
C1370 C1369 1.287 . S
C1370 C1371 1.524 . S
C1370 H1389 0.913 . S
C1371 H1347 0.950 . S
C1371 C1370 1.524 . S
C1371 C1372 1.415 . S
C1372 H1348 0.950 . S
C1372 C1367 1.363 . S
C1372 C1371 1.415 . S
C1373 H1349 0.951 . S
C1373 C1374 1.366 . S
C1373 C1375 1.388 . S
C1374 C1373 1.366 . S
C1374 C1378 1.385 . S
C1375 H1350 0.951 . S
C1375 C1373 1.388 . S
C1375 C1376 1.366 . S
C1376 C1375 1.366 . S
C1376 C1377 1.414 . S
C1376 C1379 1.499 . S
C1377 H1351 0.950 . S
C1377 C1376 1.414 . S
C1377 C1378 1.374 . S
C1378 H1352 0.950 . S
C1378 C1374 1.385 . S
C1378 C1377 1.374 . S
C1379 C1376 1.499 . S
C1379 C1380 1.373 . S
C1379 C1381 1.389 . S
C1380 H1353 0.950 . S
C1380 C1366 1.377 . S
C1380 C1379 1.373 . S
C1381 C1365 1.377 . S
C1381 C1379 1.389 . S
C1381 C1382 1.524 . S
C1382 C1381 1.524 . S
C1382 C1383 1.397 . S
C1382 C1387 1.363 . S
C1383 H1354 0.950 . S
C1383 C1382 1.397 . S
C1383 C1384 1.334 . S
C1384 H1355 0.950 . S
C1384 C1383 1.334 . S
C1384 C1385 1.287 . S
C1385 C1384 1.287 . S
C1385 C1386 1.524 . S
C1385 H1388 0.999 . S
C1386 H1356 0.950 . S
C1386 C1385 1.524 . S
C1386 C1387 1.415 . S
C1387 H1357 0.950 . S
C1387 C1382 1.363 . S
C1387 C1386 1.415 . S
H1388 C1385 0.999 . S
H1389 C1370 0.913 . S
H1390 C1408 0.951 . S
H1391 C1410 0.951 . S
H1392 C1412 0.950 . S
H1393 C1413 0.950 . S
H1394 C1415 0.950 . S
H1395 C1418 0.950 . S
H1396 C1419 0.950 . S
H1397 C1421 0.950 . S
H1398 C1422 0.950 . S
H1399 C1423 0.951 . S
H1400 C1425 0.951 . S
H1401 C1427 0.950 . S
H1402 C1428 0.950 . S
H1403 C1430 0.950 . S
H1404 C1433 0.950 . S
H1405 C1434 0.950 . S
H1406 C1436 0.950 . S
H1407 C1437 0.950 . S
C1408 H1390 0.951 . S
C1408 C1409 1.366 . S
C1408 C1410 1.388 . S
C1409 C1408 1.366 . S
C1409 C1413 1.385 . S
C1410 H1391 0.951 . S
C1410 C1408 1.388 . S
C1410 C1411 1.366 . S
C1411 C1410 1.366 . S
C1411 C1412 1.414 . S
C1411 C1414 1.499 . S
C1412 H1392 0.950 . S
C1412 C1411 1.414 . S
C1412 C1413 1.374 . S
C1413 H1393 0.950 . S
C1413 C1409 1.385 . S
C1413 C1412 1.374 . S
C1414 C1411 1.499 . S
C1414 C1415 1.373 . S
C1414 C1416 1.389 . S
C1415 H1394 0.950 . S
C1415 C1414 1.373 . S
C1415 C1431 1.377 . S
C1416 C1414 1.389 . S
C1416 C1417 1.524 . S
C1416 C1430 1.377 . S
C1417 C1416 1.524 . S
C1417 C1418 1.397 . S
C1417 C1422 1.363 . S
C1418 H1395 0.950 . S
C1418 C1417 1.397 . S
C1418 C1419 1.334 . S
C1419 H1396 0.950 . S
C1419 C1418 1.334 . S
C1419 C1420 1.287 . S
C1420 C1419 1.287 . S
C1420 C1421 1.524 . S
C1420 H1439 0.913 . S
C1421 H1397 0.950 . S
C1421 C1420 1.524 . S
C1421 C1422 1.415 . S
C1422 H1398 0.950 . S
C1422 C1417 1.363 . S
C1422 C1421 1.415 . S
C1423 H1399 0.951 . S
C1423 C1424 1.366 . S
C1423 C1425 1.388 . S
C1424 C1423 1.366 . S
C1424 C1428 1.385 . S
C1425 H1400 0.951 . S
C1425 C1423 1.388 . S
C1425 C1426 1.366 . S
C1426 C1425 1.366 . S
C1426 C1427 1.414 . S
C1426 C1429 1.499 . S
C1427 H1401 0.950 . S
C1427 C1426 1.414 . S
C1427 C1428 1.374 . S
C1428 H1402 0.950 . S
C1428 C1424 1.385 . S
C1428 C1427 1.374 . S
C1429 C1426 1.499 . S
C1429 C1430 1.373 . S
C1429 C1431 1.389 . S
C1430 H1403 0.950 . S
C1430 C1416 1.377 . S
C1430 C1429 1.373 . S
C1431 C1415 1.377 . S
C1431 C1429 1.389 . S
C1431 C1432 1.524 . S
C1432 C1431 1.524 . S
C1432 C1433 1.397 . S
C1432 C1437 1.363 . S
C1433 H1404 0.950 . S
C1433 C1432 1.397 . S
C1433 C1434 1.334 . S
C1434 H1405 0.950 . S
C1434 C1433 1.334 . S
C1434 C1435 1.287 . S
C1435 C1434 1.287 . S
C1435 C1436 1.524 . S
C1435 H1438 0.999 . S
C1436 H1406 0.950 . S
C1436 C1435 1.524 . S
C1436 C1437 1.415 . S
C1437 H1407 0.950 . S
C1437 C1432 1.363 . S
C1437 C1436 1.415 . S
H1438 C1435 0.999 . S
H1439 C1420 0.913 . S
H1440 C1458 0.951 . S
H1441 C1460 0.951 . S
H1442 C1462 0.950 . S
H1443 C1463 0.950 . S
H1444 C1465 0.950 . S
H1445 C1468 0.950 . S
H1446 C1469 0.950 . S
H1447 C1471 0.950 . S
H1448 C1472 0.950 . S
H1449 C1473 0.951 1_455 S
H1450 C1475 0.951 . S
H1451 C1477 0.950 . S
H1452 C1478 0.950 . S
H1453 C1480 0.950 . S
H1454 C1483 0.950 . S
H1455 C1484 0.950 . S
H1456 C1486 0.950 1_455 S
H1457 C1487 0.950 . S
C1458 H1440 0.951 . S
C1458 C1459 1.366 . S
C1458 C1460 1.388 . S
C1459 C1458 1.366 . S
C1459 C1463 1.385 . S
C1460 H1441 0.951 . S
C1460 C1458 1.388 . S
C1460 C1461 1.366 . S
C1461 C1460 1.366 . S
C1461 C1462 1.414 . S
C1461 C1464 1.499 . S
C1462 H1442 0.950 . S
C1462 C1461 1.414 . S
C1462 C1463 1.374 . S
C1463 H1443 0.950 . S
C1463 C1459 1.385 . S
C1463 C1462 1.374 . S
C1464 C1461 1.499 . S
C1464 C1465 1.373 . S
C1464 C1466 1.389 . S
C1465 H1444 0.950 . S
C1465 C1464 1.373 . S
C1465 C1481 1.377 . S
C1466 C1464 1.389 . S
C1466 C1467 1.524 . S
C1466 C1480 1.377 . S
C1467 C1466 1.524 . S
C1467 C1468 1.397 . S
C1467 C1472 1.363 . S
C1468 H1445 0.950 . S
C1468 C1467 1.397 . S
C1468 C1469 1.334 . S
C1469 H1446 0.950 . S
C1469 C1468 1.334 . S
C1469 C1470 1.287 . S
C1470 C1469 1.287 . S
C1470 C1471 1.524 . S
C1470 H1489 0.913 . S
C1471 H1447 0.950 . S
C1471 C1470 1.524 . S
C1471 C1472 1.415 . S
C1472 H1448 0.950 . S
C1472 C1467 1.363 . S
C1472 C1471 1.415 . S
C1473 H1449 0.951 1_655 S
C1473 C1474 1.366 . S
C1473 C1475 1.388 . S
C1474 C1473 1.366 . S
C1474 C1478 1.385 . S
C1475 H1450 0.951 . S
C1475 C1473 1.388 . S
C1475 C1476 1.366 . S
C1476 C1475 1.366 . S
C1476 C1477 1.414 . S
C1476 C1479 1.499 . S
C1477 H1451 0.950 . S
C1477 C1476 1.414 . S
C1477 C1478 1.374 . S
C1478 H1452 0.950 . S
C1478 C1474 1.385 . S
C1478 C1477 1.374 . S
C1479 C1476 1.499 . S
C1479 C1480 1.373 . S
C1479 C1481 1.389 . S
C1480 H1453 0.950 . S
C1480 C1466 1.377 . S
C1480 C1479 1.373 . S
C1481 C1465 1.377 . S
C1481 C1479 1.389 . S
C1481 C1482 1.524 . S
C1482 C1481 1.524 . S
C1482 C1483 1.397 . S
C1482 C1487 1.363 . S
C1483 H1454 0.950 . S
C1483 C1482 1.397 . S
C1483 C1484 1.334 . S
C1484 H1455 0.950 . S
C1484 C1483 1.334 . S
C1484 C1485 1.287 . S
C1485 C1484 1.287 . S
C1485 C1486 1.524 . S
C1485 H1488 0.999 1_655 S
C1486 H1456 0.950 1_655 S
C1486 C1485 1.524 . S
C1486 C1487 1.415 . S
C1487 H1457 0.950 . S
C1487 C1482 1.363 . S
C1487 C1486 1.415 . S
H1488 C1485 0.999 1_455 S
H1489 C1470 0.913 . S
H1490 C1508 0.951 . S
H1491 C1510 0.951 . S
H1492 C1512 0.950 . S
H1493 C1513 0.950 . S
H1494 C1515 0.950 . S
H1495 C1518 0.950 . S
H1496 C1519 0.950 . S
H1497 C1521 0.950 . S
H1498 C1522 0.950 . S
H1499 C1523 0.951 . S
H1500 C1525 0.951 . S
H1501 C1527 0.950 . S
H1502 C1528 0.950 . S
H1503 C1530 0.950 . S
H1504 C1533 0.950 . S
H1505 C1534 0.950 . S
H1506 C1536 0.950 . S
H1507 C1537 0.950 . S
C1508 H1490 0.951 . S
C1508 C1509 1.366 . S
C1508 C1510 1.388 . S
C1509 C1508 1.366 . S
C1509 C1513 1.385 . S
C1510 H1491 0.951 . S
C1510 C1508 1.388 . S
C1510 C1511 1.366 . S
C1511 C1510 1.366 . S
C1511 C1512 1.414 . S
C1511 C1514 1.499 . S
C1512 H1492 0.950 . S
C1512 C1511 1.414 . S
C1512 C1513 1.374 . S
C1513 H1493 0.950 . S
C1513 C1509 1.385 . S
C1513 C1512 1.374 . S
C1514 C1511 1.499 . S
C1514 C1515 1.373 . S
C1514 C1516 1.389 . S
C1515 H1494 0.950 . S
C1515 C1514 1.373 . S
C1515 C1531 1.377 . S
C1516 C1514 1.389 . S
C1516 C1517 1.524 . S
C1516 C1530 1.377 . S
C1517 C1516 1.524 . S
C1517 C1518 1.397 . S
C1517 C1522 1.363 . S
C1518 H1495 0.950 . S
C1518 C1517 1.397 . S
C1518 C1519 1.334 . S
C1519 H1496 0.950 . S
C1519 C1518 1.334 . S
C1519 C1520 1.287 . S
C1520 C1519 1.287 . S
C1520 C1521 1.524 . S
C1520 H1539 0.913 . S
C1521 H1497 0.950 . S
C1521 C1520 1.524 . S
C1521 C1522 1.415 . S
C1522 H1498 0.950 . S
C1522 C1517 1.363 . S
C1522 C1521 1.415 . S
C1523 H1499 0.951 . S
C1523 C1524 1.366 . S
C1523 C1525 1.388 . S
C1524 C1523 1.366 . S
C1524 C1528 1.385 . S
C1525 H1500 0.951 . S
C1525 C1523 1.388 . S
C1525 C1526 1.366 . S
C1526 C1525 1.366 . S
C1526 C1527 1.414 . S
C1526 C1529 1.499 . S
C1527 H1501 0.950 . S
C1527 C1526 1.414 . S
C1527 C1528 1.374 . S
C1528 H1502 0.950 . S
C1528 C1524 1.385 . S
C1528 C1527 1.374 . S
C1529 C1526 1.499 . S
C1529 C1530 1.373 . S
C1529 C1531 1.389 . S
C1530 H1503 0.950 . S
C1530 C1516 1.377 . S
C1530 C1529 1.373 . S
C1531 C1515 1.377 . S
C1531 C1529 1.389 . S
C1531 C1532 1.524 . S
C1532 C1531 1.524 . S
C1532 C1533 1.397 . S
C1532 C1537 1.363 . S
C1533 H1504 0.950 . S
C1533 C1532 1.397 . S
C1533 C1534 1.334 . S
C1534 H1505 0.950 . S
C1534 C1533 1.334 . S
C1534 C1535 1.287 . S
C1535 C1534 1.287 . S
C1535 C1536 1.524 . S
C1535 H1538 0.999 . S
C1536 H1506 0.950 . S
C1536 C1535 1.524 . S
C1536 C1537 1.415 . S
C1537 H1507 0.950 . S
C1537 C1532 1.363 . S
C1537 C1536 1.415 . S
H1538 C1535 0.999 . S
H1539 C1520 0.913 . S
H1540 C1558 0.951 . S
H1541 C1560 0.951 . S
H1542 C1562 0.950 . S
H1543 C1563 0.950 . S
H1544 C1565 0.950 . S
H1545 C1568 0.950 . S
H1546 C1569 0.950 . S
H1547 C1571 0.950 . S
H1548 C1572 0.950 . S
H1549 C1573 0.951 . S
H1550 C1575 0.951 . S
H1551 C1577 0.950 . S
H1552 C1578 0.950 . S
H1553 C1580 0.950 . S
H1554 C1583 0.950 . S
H1555 C1584 0.950 . S
H1556 C1586 0.950 . S
H1557 C1587 0.950 . S
C1558 H1540 0.951 . S
C1558 C1559 1.366 . S
C1558 C1560 1.388 . S
C1559 C1558 1.366 . S
C1559 C1563 1.385 . S
C1560 H1541 0.951 . S
C1560 C1558 1.388 . S
C1560 C1561 1.366 . S
C1561 C1560 1.366 . S
C1561 C1562 1.414 . S
C1561 C1564 1.499 . S
C1562 H1542 0.950 . S
C1562 C1561 1.414 . S
C1562 C1563 1.374 . S
C1563 H1543 0.950 . S
C1563 C1559 1.385 . S
C1563 C1562 1.374 . S
C1564 C1561 1.499 . S
C1564 C1565 1.373 . S
C1564 C1566 1.389 . S
C1565 H1544 0.950 . S
C1565 C1564 1.373 . S
C1565 C1581 1.377 . S
C1566 C1564 1.389 . S
C1566 C1567 1.524 . S
C1566 C1580 1.377 . S
C1567 C1566 1.524 . S
C1567 C1568 1.397 . S
C1567 C1572 1.363 . S
C1568 H1545 0.950 . S
C1568 C1567 1.397 . S
C1568 C1569 1.334 . S
C1569 H1546 0.950 . S
C1569 C1568 1.334 . S
C1569 C1570 1.287 . S
C1570 C1569 1.287 . S
C1570 C1571 1.524 . S
C1570 H1589 0.913 . S
C1571 H1547 0.950 . S
C1571 C1570 1.524 . S
C1571 C1572 1.415 . S
C1572 H1548 0.950 . S
C1572 C1567 1.363 . S
C1572 C1571 1.415 . S
C1573 H1549 0.951 . S
C1573 C1574 1.366 . S
C1573 C1575 1.388 . S
C1574 C1573 1.366 . S
C1574 C1578 1.385 . S
C1575 H1550 0.951 . S
C1575 C1573 1.388 . S
C1575 C1576 1.366 . S
C1576 C1575 1.366 . S
C1576 C1577 1.414 . S
C1576 C1579 1.499 . S
C1577 H1551 0.950 . S
C1577 C1576 1.414 . S
C1577 C1578 1.374 . S
C1578 H1552 0.950 . S
C1578 C1574 1.385 . S
C1578 C1577 1.374 . S
C1579 C1576 1.499 . S
C1579 C1580 1.373 . S
C1579 C1581 1.389 . S
C1580 H1553 0.950 . S
C1580 C1566 1.377 . S
C1580 C1579 1.373 . S
C1581 C1565 1.377 . S
C1581 C1579 1.389 . S
C1581 C1582 1.524 . S
C1582 C1581 1.524 . S
C1582 C1583 1.397 . S
C1582 C1587 1.363 . S
C1583 H1554 0.950 . S
C1583 C1582 1.397 . S
C1583 C1584 1.334 . S
C1584 H1555 0.950 . S
C1584 C1583 1.334 . S
C1584 C1585 1.287 . S
C1585 C1584 1.287 . S
C1585 C1586 1.524 . S
C1585 H1588 0.999 . S
C1586 H1556 0.950 . S
C1586 C1585 1.524 . S
C1586 C1587 1.415 . S
C1587 H1557 0.950 . S
C1587 C1582 1.363 . S
C1587 C1586 1.415 . S
H1588 C1585 0.999 . S
H1589 C1570 0.913 . S
H1590 C1608 0.951 . S
H1591 C1610 0.951 . S
H1592 C1612 0.950 . S
H1593 C1613 0.950 . S
H1594 C1615 0.950 . S
H1595 C1618 0.950 . S
H1596 C1619 0.950 . S
H1597 C1621 0.950 . S
H1598 C1622 0.950 . S
H1599 C1623 0.951 . S
H1600 C1625 0.951 . S
H1601 C1627 0.950 . S
H1602 C1628 0.950 . S
H1603 C1630 0.950 . S
H1604 C1633 0.950 . S
H1605 C1634 0.950 . S
H1606 C1636 0.950 . S
H1607 C1637 0.950 . S
C1608 H1590 0.951 . S
C1608 C1609 1.366 . S
C1608 C1610 1.388 . S
C1609 C1608 1.366 . S
C1609 C1613 1.385 . S
C1610 H1591 0.951 . S
C1610 C1608 1.388 . S
C1610 C1611 1.366 . S
C1611 C1610 1.366 . S
C1611 C1612 1.414 . S
C1611 C1614 1.499 . S
C1612 H1592 0.950 . S
C1612 C1611 1.414 . S
C1612 C1613 1.374 . S
C1613 H1593 0.950 . S
C1613 C1609 1.385 . S
C1613 C1612 1.374 . S
C1614 C1611 1.499 . S
C1614 C1615 1.373 . S
C1614 C1616 1.389 . S
C1615 H1594 0.950 . S
C1615 C1614 1.373 . S
C1615 C1631 1.377 . S
C1616 C1614 1.389 . S
C1616 C1617 1.524 . S
C1616 C1630 1.377 . S
C1617 C1616 1.524 . S
C1617 C1618 1.397 . S
C1617 C1622 1.363 . S
C1618 H1595 0.950 . S
C1618 C1617 1.397 . S
C1618 C1619 1.334 . S
C1619 H1596 0.950 . S
C1619 C1618 1.334 . S
C1619 C1620 1.287 . S
C1620 C1619 1.287 . S
C1620 C1621 1.524 . S
C1620 H1639 0.913 . S
C1621 H1597 0.950 . S
C1621 C1620 1.524 . S
C1621 C1622 1.415 . S
C1622 H1598 0.950 . S
C1622 C1617 1.363 . S
C1622 C1621 1.415 . S
C1623 H1599 0.951 . S
C1623 C1624 1.366 . S
C1623 C1625 1.388 . S
C1624 C1623 1.366 . S
C1624 C1628 1.385 . S
C1625 H1600 0.951 . S
C1625 C1623 1.388 . S
C1625 C1626 1.366 . S
C1626 C1625 1.366 . S
C1626 C1627 1.414 . S
C1626 C1629 1.499 . S
C1627 H1601 0.950 . S
C1627 C1626 1.414 . S
C1627 C1628 1.374 . S
C1628 H1602 0.950 . S
C1628 C1624 1.385 . S
C1628 C1627 1.374 . S
C1629 C1626 1.499 . S
C1629 C1630 1.373 . S
C1629 C1631 1.389 . S
C1630 H1603 0.950 . S
C1630 C1616 1.377 . S
C1630 C1629 1.373 . S
C1631 C1615 1.377 . S
C1631 C1629 1.389 . S
C1631 C1632 1.524 . S
C1632 C1631 1.524 . S
C1632 C1633 1.397 . S
C1632 C1637 1.363 . S
C1633 H1604 0.950 . S
C1633 C1632 1.397 . S
C1633 C1634 1.334 . S
C1634 H1605 0.950 . S
C1634 C1633 1.334 . S
C1634 C1635 1.287 . S
C1635 C1634 1.287 . S
C1635 C1636 1.524 . S
C1635 H1638 0.999 . S
C1636 H1606 0.950 . S
C1636 C1635 1.524 . S
C1636 C1637 1.415 . S
C1637 H1607 0.950 . S
C1637 C1632 1.363 . S
C1637 C1636 1.415 . S
H1638 C1635 0.999 . S
H1639 C1620 0.913 . S
H1640 C1658 0.951 . S
H1641 C1660 0.951 . S
H1642 C1662 0.950 . S
H1643 C1663 0.950 . S
H1644 C1665 0.950 . S
H1645 C1668 0.950 . S
H1646 C1669 0.950 1_545 S
H1647 C1671 0.950 . S
H1648 C1672 0.950 . S
H1649 C1673 0.951 . S
H1650 C1675 0.951 . S
H1651 C1677 0.950 . S
H1652 C1678 0.950 . S
H1653 C1680 0.950 . S
H1654 C1683 0.950 . S
H1655 C1684 0.950 . S
H1656 C1686 0.950 . S
H1657 C1687 0.950 . S
C1658 H1640 0.951 . S
C1658 C1659 1.366 . S
C1658 C1660 1.388 . S
C1659 C1658 1.366 . S
C1659 C1663 1.385 . S
C1660 H1641 0.951 . S
C1660 C1658 1.388 . S
C1660 C1661 1.366 . S
C1661 C1660 1.366 . S
C1661 C1662 1.414 . S
C1661 C1664 1.499 . S
C1662 H1642 0.950 . S
C1662 C1661 1.414 . S
C1662 C1663 1.374 . S
C1663 H1643 0.950 . S
C1663 C1659 1.385 . S
C1663 C1662 1.374 . S
C1664 C1661 1.499 . S
C1664 C1665 1.373 . S
C1664 C1666 1.389 . S
C1665 H1644 0.950 . S
C1665 C1664 1.373 . S
C1665 C1681 1.377 . S
C1666 C1664 1.389 . S
C1666 C1667 1.524 . S
C1666 C1680 1.377 . S
C1667 C1666 1.524 . S
C1667 C1668 1.397 . S
C1667 C1672 1.363 . S
C1668 H1645 0.950 . S
C1668 C1667 1.397 . S
C1668 C1669 1.334 . S
C1669 H1646 0.950 1_565 S
C1669 C1668 1.334 . S
C1669 C1670 1.287 . S
C1670 C1669 1.287 . S
C1670 C1671 1.524 . S
C1670 H1689 0.913 . S
C1671 H1647 0.950 . S
C1671 C1670 1.524 . S
C1671 C1672 1.415 . S
C1672 H1648 0.950 . S
C1672 C1667 1.363 . S
C1672 C1671 1.415 . S
C1673 H1649 0.951 . S
C1673 C1674 1.366 . S
C1673 C1675 1.388 . S
C1674 C1673 1.366 . S
C1674 C1678 1.385 . S
C1675 H1650 0.951 . S
C1675 C1673 1.388 . S
C1675 C1676 1.366 . S
C1676 C1675 1.366 . S
C1676 C1677 1.414 . S
C1676 C1679 1.499 . S
C1677 H1651 0.950 . S
C1677 C1676 1.414 . S
C1677 C1678 1.374 . S
C1678 H1652 0.950 . S
C1678 C1674 1.385 . S
C1678 C1677 1.374 . S
C1679 C1676 1.499 . S
C1679 C1680 1.373 . S
C1679 C1681 1.389 . S
C1680 H1653 0.950 . S
C1680 C1666 1.377 . S
C1680 C1679 1.373 . S
C1681 C1665 1.377 . S
C1681 C1679 1.389 . S
C1681 C1682 1.524 . S
C1682 C1681 1.524 . S
C1682 C1683 1.397 . S
C1682 C1687 1.363 . S
C1683 H1654 0.950 . S
C1683 C1682 1.397 . S
C1683 C1684 1.334 . S
C1684 H1655 0.950 . S
C1684 C1683 1.334 . S
C1684 C1685 1.287 . S
C1685 C1684 1.287 . S
C1685 C1686 1.524 . S
C1685 H1688 0.999 . S
C1686 H1656 0.950 . S
C1686 C1685 1.524 . S
C1686 C1687 1.415 . S
C1687 H1657 0.950 . S
C1687 C1682 1.363 . S
C1687 C1686 1.415 . S
H1688 C1685 0.999 . S
H1689 C1670 0.913 . S
H1690 C1708 0.951 . S
H1691 C1710 0.951 . S
H1692 C1712 0.950 . S
H1693 C1713 0.950 . S
H1694 C1715 0.950 1_655 S
H1695 C1718 0.950 . S
H1696 C1719 0.950 . S
H1697 C1721 0.950 . S
H1698 C1722 0.950 . S
H1699 C1723 0.951 . S
H1700 C1725 0.951 . S
H1701 C1727 0.950 . S
H1702 C1728 0.950 . S
H1703 C1730 0.950 . S
H1704 C1733 0.950 . S
H1705 C1734 0.950 . S
H1706 C1736 0.950 . S
H1707 C1737 0.950 . S
C1708 H1690 0.951 . S
C1708 C1709 1.366 . S
C1708 C1710 1.388 . S
C1709 C1708 1.366 . S
C1709 C1713 1.385 . S
C1710 H1691 0.951 . S
C1710 C1708 1.388 . S
C1710 C1711 1.366 . S
C1711 C1710 1.366 . S
C1711 C1712 1.414 . S
C1711 C1714 1.499 . S
C1712 H1692 0.950 . S
C1712 C1711 1.414 . S
C1712 C1713 1.374 . S
C1713 H1693 0.950 . S
C1713 C1709 1.385 . S
C1713 C1712 1.374 . S
C1714 C1711 1.499 . S
C1714 C1715 1.373 . S
C1714 C1716 1.389 . S
C1715 H1694 0.950 1_455 S
C1715 C1714 1.373 . S
C1715 C1731 1.377 . S
C1716 C1714 1.389 . S
C1716 C1717 1.524 . S
C1716 C1730 1.377 . S
C1717 C1716 1.524 . S
C1717 C1718 1.397 . S
C1717 C1722 1.363 . S
C1718 H1695 0.950 . S
C1718 C1717 1.397 . S
C1718 C1719 1.334 . S
C1719 H1696 0.950 . S
C1719 C1718 1.334 . S
C1719 C1720 1.287 . S
C1720 C1719 1.287 . S
C1720 C1721 1.524 . S
C1720 H1739 0.913 . S
C1721 H1697 0.950 . S
C1721 C1720 1.524 . S
C1721 C1722 1.415 . S
C1722 H1698 0.950 . S
C1722 C1717 1.363 . S
C1722 C1721 1.415 . S
C1723 H1699 0.951 . S
C1723 C1724 1.366 . S
C1723 C1725 1.388 . S
C1724 C1723 1.366 . S
C1724 C1728 1.385 . S
C1725 H1700 0.951 . S
C1725 C1723 1.388 . S
C1725 C1726 1.366 . S
C1726 C1725 1.366 . S
C1726 C1727 1.414 . S
C1726 C1729 1.499 . S
C1727 H1701 0.950 . S
C1727 C1726 1.414 . S
C1727 C1728 1.374 . S
C1728 H1702 0.950 . S
C1728 C1724 1.385 . S
C1728 C1727 1.374 . S
C1729 C1726 1.499 . S
C1729 C1730 1.373 . S
C1729 C1731 1.389 . S
C1730 H1703 0.950 . S
C1730 C1716 1.377 . S
C1730 C1729 1.373 . S
C1731 C1715 1.377 . S
C1731 C1729 1.389 . S
C1731 C1732 1.524 1_455 S
C1732 C1731 1.524 1_655 S
C1732 C1733 1.397 . S
C1732 C1737 1.363 . S
C1733 H1704 0.950 . S
C1733 C1732 1.397 . S
C1733 C1734 1.334 . S
C1734 H1705 0.950 . S
C1734 C1733 1.334 . S
C1734 C1735 1.287 . S
C1735 C1734 1.287 . S
C1735 C1736 1.524 . S
C1735 H1738 0.999 . S
C1736 H1706 0.950 . S
C1736 C1735 1.524 . S
C1736 C1737 1.415 . S
C1737 H1707 0.950 . S
C1737 C1732 1.363 . S
C1737 C1736 1.415 . S
H1738 C1735 0.999 . S
H1739 C1720 0.913 . S
H1740 C1758 0.951 . S
H1741 C1760 0.951 . S
H1742 C1762 0.950 . S
H1743 C1763 0.950 . S
H1744 C1765 0.950 . S
H1745 C1768 0.950 . S
H1746 C1769 0.950 . S
H1747 C1771 0.950 . S
H1748 C1772 0.950 . S
H1749 C1773 0.951 . S
H1750 C1775 0.951 . S
H1751 C1777 0.950 . S
H1752 C1778 0.950 . S
H1753 C1780 0.950 . S
H1754 C1783 0.950 . S
H1755 C1784 0.950 . S
H1756 C1786 0.950 . S
H1757 C1787 0.950 . S
C1758 H1740 0.951 . S
C1758 C1759 1.366 . S
C1758 C1760 1.388 . S
C1759 C1758 1.366 . S
C1759 C1763 1.385 . S
C1760 H1741 0.951 . S
C1760 C1758 1.388 . S
C1760 C1761 1.366 . S
C1761 C1760 1.366 . S
C1761 C1762 1.414 . S
C1761 C1764 1.499 . S
C1762 H1742 0.950 . S
C1762 C1761 1.414 . S
C1762 C1763 1.374 . S
C1763 H1743 0.950 . S
C1763 C1759 1.385 . S
C1763 C1762 1.374 . S
C1764 C1761 1.499 . S
C1764 C1765 1.373 . S
C1764 C1766 1.389 . S
C1765 H1744 0.950 . S
C1765 C1764 1.373 . S
C1765 C1781 1.377 . S
C1766 C1764 1.389 . S
C1766 C1767 1.524 . S
C1766 C1780 1.377 . S
C1767 C1766 1.524 . S
C1767 C1768 1.397 . S
C1767 C1772 1.363 . S
C1768 H1745 0.950 . S
C1768 C1767 1.397 . S
C1768 C1769 1.334 . S
C1769 H1746 0.950 . S
C1769 C1768 1.334 . S
C1769 C1770 1.287 . S
C1770 C1769 1.287 . S
C1770 C1771 1.524 . S
C1770 H1789 0.913 . S
C1771 H1747 0.950 . S
C1771 C1770 1.524 . S
C1771 C1772 1.415 . S
C1772 H1748 0.950 . S
C1772 C1767 1.363 . S
C1772 C1771 1.415 . S
C1773 H1749 0.951 . S
C1773 C1774 1.366 . S
C1773 C1775 1.388 . S
C1774 C1773 1.366 . S
C1774 C1778 1.385 . S
C1775 H1750 0.951 . S
C1775 C1773 1.388 . S
C1775 C1776 1.366 . S
C1776 C1775 1.366 . S
C1776 C1777 1.414 . S
C1776 C1779 1.499 . S
C1777 H1751 0.950 . S
C1777 C1776 1.414 . S
C1777 C1778 1.374 . S
C1778 H1752 0.950 . S
C1778 C1774 1.385 . S
C1778 C1777 1.374 . S
C1779 C1776 1.499 . S
C1779 C1780 1.373 . S
C1779 C1781 1.389 . S
C1780 H1753 0.950 . S
C1780 C1766 1.377 . S
C1780 C1779 1.373 . S
C1781 C1765 1.377 . S
C1781 C1779 1.389 . S
C1781 C1782 1.524 . S
C1782 C1781 1.524 . S
C1782 C1783 1.397 . S
C1782 C1787 1.363 . S
C1783 H1754 0.950 . S
C1783 C1782 1.397 . S
C1783 C1784 1.334 . S
C1784 H1755 0.950 . S
C1784 C1783 1.334 . S
C1784 C1785 1.287 . S
C1785 C1784 1.287 . S
C1785 C1786 1.524 . S
C1785 H1788 0.999 . S
C1786 H1756 0.950 . S
C1786 C1785 1.524 . S
C1786 C1787 1.415 . S
C1787 H1757 0.950 . S
C1787 C1782 1.363 . S
C1787 C1786 1.415 . S
H1788 C1785 0.999 . S
H1789 C1770 0.913 . S
H1790 C1808 0.951 . S
H1791 C1810 0.951 . S
H1792 C1812 0.950 . S
H1793 C1813 0.950 . S
H1794 C1815 0.950 . S
H1795 C1818 0.950 . S
H1796 C1819 0.950 . S
H1797 C1821 0.950 . S
H1798 C1822 0.950 . S
H1799 C1823 0.951 . S
H1800 C1825 0.951 . S
H1801 C1827 0.950 . S
H1802 C1828 0.950 . S
H1803 C1830 0.950 . S
H1804 C1833 0.950 . S
H1805 C1834 0.950 . S
H1806 C1836 0.950 . S
H1807 C1837 0.950 . S
C1808 H1790 0.951 . S
C1808 C1809 1.366 . S
C1808 C1810 1.388 . S
C1809 C1808 1.366 . S
C1809 C1813 1.385 . S
C1810 H1791 0.951 . S
C1810 C1808 1.388 . S
C1810 C1811 1.366 . S
C1811 C1810 1.366 . S
C1811 C1812 1.414 . S
C1811 C1814 1.499 . S
C1812 H1792 0.950 . S
C1812 C1811 1.414 . S
C1812 C1813 1.374 . S
C1813 H1793 0.950 . S
C1813 C1809 1.385 . S
C1813 C1812 1.374 . S
C1814 C1811 1.499 . S
C1814 C1815 1.373 . S
C1814 C1816 1.389 . S
C1815 H1794 0.950 . S
C1815 C1814 1.373 . S
C1815 C1831 1.377 . S
C1816 C1814 1.389 . S
C1816 C1817 1.524 . S
C1816 C1830 1.377 . S
C1817 C1816 1.524 . S
C1817 C1818 1.397 . S
C1817 C1822 1.363 . S
C1818 H1795 0.950 . S
C1818 C1817 1.397 . S
C1818 C1819 1.334 . S
C1819 H1796 0.950 . S
C1819 C1818 1.334 . S
C1819 C1820 1.287 . S
C1820 C1819 1.287 . S
C1820 C1821 1.524 . S
C1820 H1839 0.913 . S
C1821 H1797 0.950 . S
C1821 C1820 1.524 . S
C1821 C1822 1.415 . S
C1822 H1798 0.950 . S
C1822 C1817 1.363 . S
C1822 C1821 1.415 . S
C1823 H1799 0.951 . S
C1823 C1824 1.366 . S
C1823 C1825 1.388 . S
C1824 C1823 1.366 . S
C1824 C1828 1.385 . S
C1825 H1800 0.951 . S
C1825 C1823 1.388 . S
C1825 C1826 1.366 . S
C1826 C1825 1.366 . S
C1826 C1827 1.414 . S
C1826 C1829 1.499 . S
C1827 H1801 0.950 . S
C1827 C1826 1.414 . S
C1827 C1828 1.374 . S
C1828 H1802 0.950 . S
C1828 C1824 1.385 . S
C1828 C1827 1.374 . S
C1829 C1826 1.499 . S
C1829 C1830 1.373 . S
C1829 C1831 1.389 . S
C1830 H1803 0.950 . S
C1830 C1816 1.377 . S
C1830 C1829 1.373 . S
C1831 C1815 1.377 . S
C1831 C1829 1.389 . S
C1831 C1832 1.524 . S
C1832 C1831 1.524 . S
C1832 C1833 1.397 . S
C1832 C1837 1.363 . S
C1833 H1804 0.950 . S
C1833 C1832 1.397 . S
C1833 C1834 1.334 . S
C1834 H1805 0.950 . S
C1834 C1833 1.334 . S
C1834 C1835 1.287 . S
C1835 C1834 1.287 . S
C1835 C1836 1.524 . S
C1835 H1838 0.999 . S
C1836 H1806 0.950 . S
C1836 C1835 1.524 . S
C1836 C1837 1.415 . S
C1837 H1807 0.950 . S
C1837 C1832 1.363 . S
C1837 C1836 1.415 . S
H1838 C1835 0.999 . S
H1839 C1820 0.913 . S
H1840 C1858 0.951 . S
H1841 C1860 0.951 . S
H1842 C1862 0.950 . S
H1843 C1863 0.950 . S
H1844 C1865 0.950 . S
H1845 C1868 0.950 . S
H1846 C1869 0.950 . S
H1847 C1871 0.950 . S
H1848 C1872 0.950 . S
H1849 C1873 0.951 1_455 S
H1850 C1875 0.951 . S
H1851 C1877 0.950 . S
H1852 C1878 0.950 . S
H1853 C1880 0.950 . S
H1854 C1883 0.950 . S
H1855 C1884 0.950 . S
H1856 C1886 0.950 . S
H1857 C1887 0.950 . S
C1858 H1840 0.951 . S
C1858 C1859 1.366 . S
C1858 C1860 1.388 . S
C1859 C1858 1.366 . S
C1859 C1863 1.385 . S
C1860 H1841 0.951 . S
C1860 C1858 1.388 . S
C1860 C1861 1.366 . S
C1861 C1860 1.366 . S
C1861 C1862 1.414 . S
C1861 C1864 1.499 . S
C1862 H1842 0.950 . S
C1862 C1861 1.414 . S
C1862 C1863 1.374 . S
C1863 H1843 0.950 . S
C1863 C1859 1.385 . S
C1863 C1862 1.374 . S
C1864 C1861 1.499 . S
C1864 C1865 1.373 . S
C1864 C1866 1.389 . S
C1865 H1844 0.950 . S
C1865 C1864 1.373 . S
C1865 C1881 1.377 . S
C1866 C1864 1.389 . S
C1866 C1867 1.524 . S
C1866 C1880 1.377 . S
C1867 C1866 1.524 . S
C1867 C1868 1.397 . S
C1867 C1872 1.363 . S
C1868 H1845 0.950 . S
C1868 C1867 1.397 . S
C1868 C1869 1.334 . S
C1869 H1846 0.950 . S
C1869 C1868 1.334 . S
C1869 C1870 1.287 . S
C1870 C1869 1.287 . S
C1870 C1871 1.524 . S
C1870 H1889 0.913 . S
C1871 H1847 0.950 . S
C1871 C1870 1.524 . S
C1871 C1872 1.415 . S
C1872 H1848 0.950 . S
C1872 C1867 1.363 . S
C1872 C1871 1.415 . S
C1873 H1849 0.951 1_655 S
C1873 C1874 1.366 . S
C1873 C1875 1.388 . S
C1874 C1873 1.366 . S
C1874 C1878 1.385 . S
C1875 H1850 0.951 . S
C1875 C1873 1.388 . S
C1875 C1876 1.366 . S
C1876 C1875 1.366 . S
C1876 C1877 1.414 . S
C1876 C1879 1.499 . S
C1877 H1851 0.950 . S
C1877 C1876 1.414 . S
C1877 C1878 1.374 . S
C1878 H1852 0.950 . S
C1878 C1874 1.385 . S
C1878 C1877 1.374 . S
C1879 C1876 1.499 . S
C1879 C1880 1.373 . S
C1879 C1881 1.389 . S
C1880 H1853 0.950 . S
C1880 C1866 1.377 . S
C1880 C1879 1.373 . S
C1881 C1865 1.377 . S
C1881 C1879 1.389 . S
C1881 C1882 1.524 . S
C1882 C1881 1.524 . S
C1882 C1883 1.397 . S
C1882 C1887 1.363 1_655 S
C1883 H1854 0.950 . S
C1883 C1882 1.397 . S
C1883 C1884 1.334 1_655 S
C1884 H1855 0.950 . S
C1884 C1883 1.334 1_455 S
C1884 C1885 1.287 . S
C1885 C1884 1.287 . S
C1885 C1886 1.524 . S
C1885 H1888 0.999 . S
C1886 H1856 0.950 . S
C1886 C1885 1.524 . S
C1886 C1887 1.415 . S
C1887 H1857 0.950 . S
C1887 C1882 1.363 1_455 S
C1887 C1886 1.415 . S
H1888 C1885 0.999 . S
H1889 C1870 0.913 . S
H1890 C1908 0.951 . S
H1891 C1910 0.951 . S
H1892 C1912 0.950 . S
H1893 C1913 0.950 . S
H1894 C1915 0.950 . S
H1895 C1918 0.950 . S
H1896 C1919 0.950 . S
H1897 C1921 0.950 . S
H1898 C1922 0.950 . S
H1899 C1923 0.951 . S
H1900 C1925 0.951 . S
H1901 C1927 0.950 . S
H1902 C1928 0.950 . S
H1903 C1930 0.950 . S
H1904 C1933 0.950 . S
H1905 C1934 0.950 . S
H1906 C1936 0.950 . S
H1907 C1937 0.950 . S
C1908 H1890 0.951 . S
C1908 C1909 1.366 . S
C1908 C1910 1.388 . S
C1909 C1908 1.366 . S
C1909 C1913 1.385 . S
C1910 H1891 0.951 . S
C1910 C1908 1.388 . S
C1910 C1911 1.366 . S
C1911 C1910 1.366 . S
C1911 C1912 1.414 . S
C1911 C1914 1.499 . S
C1912 H1892 0.950 . S
C1912 C1911 1.414 . S
C1912 C1913 1.374 . S
C1913 H1893 0.950 . S
C1913 C1909 1.385 . S
C1913 C1912 1.374 . S
C1914 C1911 1.499 . S
C1914 C1915 1.373 . S
C1914 C1916 1.389 . S
C1915 H1894 0.950 . S
C1915 C1914 1.373 . S
C1915 C1931 1.377 . S
C1916 C1914 1.389 . S
C1916 C1917 1.524 . S
C1916 C1930 1.377 . S
C1917 C1916 1.524 . S
C1917 C1918 1.397 . S
C1917 C1922 1.363 . S
C1918 H1895 0.950 . S
C1918 C1917 1.397 . S
C1918 C1919 1.334 . S
C1919 H1896 0.950 . S
C1919 C1918 1.334 . S
C1919 C1920 1.287 . S
C1920 C1919 1.287 . S
C1920 C1921 1.524 . S
C1920 H1939 0.913 . S
C1921 H1897 0.950 . S
C1921 C1920 1.524 . S
C1921 C1922 1.415 . S
C1922 H1898 0.950 . S
C1922 C1917 1.363 . S
C1922 C1921 1.415 . S
C1923 H1899 0.951 . S
C1923 C1924 1.366 . S
C1923 C1925 1.388 . S
C1924 C1923 1.366 . S
C1924 C1928 1.385 . S
C1925 H1900 0.951 . S
C1925 C1923 1.388 . S
C1925 C1926 1.366 . S
C1926 C1925 1.366 . S
C1926 C1927 1.414 . S
C1926 C1929 1.499 . S
C1927 H1901 0.950 . S
C1927 C1926 1.414 . S
C1927 C1928 1.374 . S
C1928 H1902 0.950 . S
C1928 C1924 1.385 . S
C1928 C1927 1.374 . S
C1929 C1926 1.499 . S
C1929 C1930 1.373 . S
C1929 C1931 1.389 . S
C1930 H1903 0.950 . S
C1930 C1916 1.377 . S
C1930 C1929 1.373 . S
C1931 C1915 1.377 . S
C1931 C1929 1.389 . S
C1931 C1932 1.524 . S
C1932 C1931 1.524 . S
C1932 C1933 1.397 . S
C1932 C1937 1.363 . S
C1933 H1904 0.950 . S
C1933 C1932 1.397 . S
C1933 C1934 1.334 . S
C1934 H1905 0.950 . S
C1934 C1933 1.334 . S
C1934 C1935 1.287 . S
C1935 C1934 1.287 . S
C1935 C1936 1.524 . S
C1935 H1938 0.999 . S
C1936 H1906 0.950 . S
C1936 C1935 1.524 . S
C1936 C1937 1.415 . S
C1937 H1907 0.950 . S
C1937 C1932 1.363 . S
C1937 C1936 1.415 . S
H1938 C1935 0.999 . S
H1939 C1920 0.913 . S
H1940 C1958 0.951 . S
H1941 C1960 0.951 . S
H1942 C1962 0.950 . S
H1943 C1963 0.950 . S
H1944 C1965 0.950 1_565 S
H1945 C1968 0.950 . S
H1946 C1969 0.950 . S
H1947 C1971 0.950 . S
H1948 C1972 0.950 . S
H1949 C1973 0.951 . S
H1950 C1975 0.951 . S
H1951 C1977 0.950 . S
H1952 C1978 0.950 . S
H1953 C1980 0.950 . S
H1954 C1983 0.971 . S
H1955 C1984 0.950 . S
H1956 C1986 0.950 . S
H1957 C1987 0.950 . S
C1958 H1940 0.951 . S
C1958 C1959 1.366 . S
C1958 C1960 1.388 . S
C1959 C1958 1.366 . S
C1959 C1963 1.385 . S
C1960 H1941 0.951 . S
C1960 C1958 1.388 . S
C1960 C1961 1.366 . S
C1961 C1960 1.366 . S
C1961 C1962 1.414 . S
C1961 C1964 1.499 . S
C1962 H1942 0.950 . S
C1962 C1961 1.414 . S
C1962 C1963 1.374 . S
C1963 H1943 0.950 . S
C1963 C1959 1.385 . S
C1963 C1962 1.374 . S
C1964 C1961 1.499 . S
C1964 C1965 1.373 . S
C1964 C1966 1.389 . S
C1965 H1944 0.950 1_545 S
C1965 C1964 1.373 . S
C1965 C1981 1.377 . S
C1966 C1964 1.389 . S
C1966 C1967 1.524 . S
C1966 C1980 1.377 . S
C1967 C1966 1.524 . S
C1967 C1968 1.397 . S
C1967 C1972 1.363 . S
C1968 H1945 0.950 . S
C1968 C1967 1.397 . S
C1968 C1969 1.334 . S
C1969 H1946 0.950 . S
C1969 C1968 1.334 . S
C1969 C1970 1.287 . S
C1970 C1969 1.287 . S
C1970 C1971 1.524 . S
C1970 H1989 0.913 . S
C1971 H1947 0.950 . S
C1971 C1970 1.524 . S
C1971 C1972 1.415 . S
C1972 H1948 0.950 . S
C1972 C1967 1.363 . S
C1972 C1971 1.415 . S
C1973 H1949 0.951 . S
C1973 C1974 1.366 . S
C1973 C1975 1.388 . S
C1974 C1973 1.366 . S
C1974 C1978 1.385 . S
C1975 H1950 0.951 . S
C1975 C1973 1.388 . S
C1975 C1976 1.366 . S
C1976 C1975 1.366 . S
C1976 C1977 1.414 . S
C1976 C1979 1.499 . S
C1977 H1951 0.950 . S
C1977 C1976 1.414 . S
C1977 C1978 1.374 . S
C1978 H1952 0.950 . S
C1978 C1974 1.385 . S
C1978 C1977 1.374 . S
C1979 C1976 1.499 . S
C1979 C1980 1.373 . S
C1979 C1981 1.389 . S
C1980 H1953 0.950 . S
C1980 C1966 1.377 . S
C1980 C1979 1.373 . S
C1981 C1965 1.377 . S
C1981 C1979 1.389 . S
C1981 C1982 1.524 1_545 S
C1982 C1981 1.524 1_565 S
C1982 C1983 1.397 . S
C1982 C1987 1.363 . S
C1983 H1954 0.971 . S
C1983 C1982 1.397 . S
C1983 C1984 1.334 . S
C1984 H1955 0.950 . S
C1984 C1983 1.334 . S
C1984 C1985 1.287 . S
C1985 C1984 1.287 . S
C1985 C1986 1.524 . S
C1985 H1988 0.999 . S
C1986 H1956 0.950 . S
C1986 C1985 1.524 . S
C1986 C1987 1.415 . S
C1987 H1957 0.950 . S
C1987 C1982 1.363 . S
C1987 C1986 1.415 . S
H1988 C1985 0.999 . S
H1989 C1970 0.913 . S
H1990 C2008 0.951 . S
H1991 C2010 0.951 . S
H1992 C2012 0.950 . S
H1993 C2013 0.950 . S
H1994 C2015 0.950 . S
H1995 C2018 0.950 . S
H1996 C2019 0.950 . S
H1997 C2021 0.950 . S
H1998 C2022 0.950 . S
H1999 C2023 0.951 . S
H2000 C2025 0.951 . S
H2001 C2027 0.950 . S
H2002 C2028 0.944 1_455 S
H2003 C2030 0.950 . S
H2004 C2033 0.950 . S
H2005 C2034 0.950 . S
H2006 C2036 0.950 . S
H2007 C2037 0.950 . S
C2008 H1990 0.951 . S
C2008 C2009 1.366 . S
C2008 C2010 1.388 . S
C2009 C2008 1.366 . S
C2009 C2013 1.385 1_554 S
C2010 H1991 0.951 . S
C2010 C2008 1.388 . S
C2010 C2011 1.366 . S
C2011 C2010 1.366 . S
C2011 C2012 1.414 1_554 S
C2011 C2014 1.499 . S
C2012 H1992 0.950 . S
C2012 C2011 1.414 1_556 S
C2012 C2013 1.374 . S
C2013 H1993 0.950 . S
C2013 C2009 1.385 1_556 S
C2013 C2012 1.374 . S
C2014 C2011 1.499 . S
C2014 C2015 1.373 1_554 S
C2014 C2016 1.389 . S
C2015 H1994 0.950 . S
C2015 C2014 1.373 1_556 S
C2015 C2031 1.377 . S
C2016 C2014 1.389 . S
C2016 C2017 1.524 . S
C2016 C2030 1.377 . S
C2017 C2016 1.524 . S
C2017 C2018 1.397 . S
C2017 C2022 1.363 . S
C2018 H1995 0.950 . S
C2018 C2017 1.397 . S
C2018 C2019 1.334 . S
C2019 H1996 0.950 . S
C2019 C2018 1.334 . S
C2019 C2020 1.287 . S
C2020 C2019 1.287 . S
C2020 C2021 1.524 . S
C2020 H2039 0.913 . S
C2021 H1997 0.950 . S
C2021 C2020 1.524 . S
C2021 C2022 1.415 . S
C2022 H1998 0.950 . S
C2022 C2017 1.363 . S
C2022 C2021 1.415 . S
C2023 H1999 0.951 . S
C2023 C2024 1.366 1_556 S
C2023 C2025 1.388 . S
C2024 C2023 1.366 1_554 S
C2024 C2028 1.385 . S
C2025 H2000 0.951 . S
C2025 C2023 1.388 . S
C2025 C2026 1.366 1_556 S
C2026 C2025 1.366 1_554 S
C2026 C2027 1.414 . S
C2026 C2029 1.499 . S
C2027 H2001 0.950 . S
C2027 C2026 1.414 . S
C2027 C2028 1.374 . S
C2028 H2002 0.944 1_655 S
C2028 C2024 1.385 . S
C2028 C2027 1.374 . S
C2029 C2026 1.499 . S
C2029 C2030 1.373 . S
C2029 C2031 1.389 1_554 S
C2030 H2003 0.950 . S
C2030 C2016 1.377 . S
C2030 C2029 1.373 . S
C2031 C2015 1.377 . S
C2031 C2029 1.389 1_556 S
C2031 C2032 1.524 . S
C2032 C2031 1.524 . S
C2032 C2033 1.397 . S
C2032 C2037 1.363 . S
C2033 H2004 0.950 . S
C2033 C2032 1.397 . S
C2033 C2034 1.334 . S
C2034 H2005 0.950 . S
C2034 C2033 1.334 . S
C2034 C2035 1.287 . S
C2035 C2034 1.287 . S
C2035 C2036 1.524 . S
C2035 H2038 0.999 . S
C2036 H2006 0.950 . S
C2036 C2035 1.524 . S
C2036 C2037 1.415 . S
C2037 H2007 0.950 . S
C2037 C2032 1.363 . S
C2037 C2036 1.415 . S
H2038 C2035 0.999 . S
H2039 C2020 0.913 . S
H2040 C2058 0.951 . S
H2041 C2060 0.951 . S
H2042 C2062 0.950 . S
H2043 C2063 0.950 . S
H2044 C2065 0.950 . S
H2045 C2068 0.950 . S
H2046 C2069 0.950 . S
H2047 C2071 0.950 . S
H2048 C2072 0.950 . S
H2049 C2073 0.951 . S
H2050 C2075 0.951 . S
H2051 C2077 0.950 . S
H2052 C2078 0.950 . S
H2053 C2080 0.950 . S
H2054 C2083 0.950 . S
H2055 C2084 0.950 . S
H2056 C2086 0.950 . S
H2057 C2087 0.950 . S
C2058 H2040 0.951 . S
C2058 C2059 1.366 . S
C2058 C2060 1.388 . S
C2059 C2058 1.366 . S
C2059 C2063 1.385 . S
C2060 H2041 0.951 . S
C2060 C2058 1.388 . S
C2060 C2061 1.366 . S
C2061 C2060 1.366 . S
C2061 C2062 1.414 . S
C2061 C2064 1.499 . S
C2062 H2042 0.950 . S
C2062 C2061 1.414 . S
C2062 C2063 1.374 . S
C2063 H2043 0.950 . S
C2063 C2059 1.385 . S
C2063 C2062 1.374 . S
C2064 C2061 1.499 . S
C2064 C2065 1.373 . S
C2064 C2066 1.389 . S
C2065 H2044 0.950 . S
C2065 C2064 1.373 . S
C2065 C2081 1.377 . S
C2066 C2064 1.389 . S
C2066 C2067 1.524 . S
C2066 C2080 1.377 . S
C2067 C2066 1.524 . S
C2067 C2068 1.397 . S
C2067 C2072 1.363 . S
C2068 H2045 0.950 . S
C2068 C2067 1.397 . S
C2068 C2069 1.334 . S
C2069 H2046 0.950 . S
C2069 C2068 1.334 . S
C2069 C2070 1.287 . S
C2070 C2069 1.287 . S
C2070 C2071 1.524 . S
C2070 H2089 0.913 . S
C2071 H2047 0.950 . S
C2071 C2070 1.524 . S
C2071 C2072 1.415 . S
C2072 H2048 0.950 . S
C2072 C2067 1.363 . S
C2072 C2071 1.415 . S
C2073 H2049 0.951 . S
C2073 C2074 1.366 . S
C2073 C2075 1.388 . S
C2074 C2073 1.366 . S
C2074 C2078 1.385 . S
C2075 H2050 0.951 . S
C2075 C2073 1.388 . S
C2075 C2076 1.366 . S
C2076 C2075 1.366 . S
C2076 C2077 1.414 . S
C2076 C2079 1.499 . S
C2077 H2051 0.950 . S
C2077 C2076 1.414 . S
C2077 C2078 1.374 . S
C2078 H2052 0.950 . S
C2078 C2074 1.385 . S
C2078 C2077 1.374 . S
C2079 C2076 1.499 . S
C2079 C2080 1.373 . S
C2079 C2081 1.389 . S
C2080 H2053 0.950 . S
C2080 C2066 1.377 . S
C2080 C2079 1.373 . S
C2081 C2065 1.377 . S
C2081 C2079 1.389 . S
C2081 C2082 1.524 . S
C2082 C2081 1.524 . S
C2082 C2083 1.397 . S
C2082 C2087 1.363 . S
C2083 H2054 0.950 . S
C2083 C2082 1.397 . S
C2083 C2084 1.334 . S
C2084 H2055 0.950 . S
C2084 C2083 1.334 . S
C2084 C2085 1.287 . S
C2085 C2084 1.287 . S
C2085 C2086 1.524 . S
C2085 H2088 0.999 . S
C2086 H2056 0.950 . S
C2086 C2085 1.524 . S
C2086 C2087 1.415 . S
C2087 H2057 0.950 . S
C2087 C2082 1.363 . S
C2087 C2086 1.415 . S
H2088 C2085 0.999 . S
H2089 C2070 0.913 . S
H2090 C2108 0.951 . S
H2091 C2110 0.951 . S
H2092 C2112 0.950 . S
H2093 C2113 0.950 . S
H2094 C2115 0.950 . S
H2095 C2118 0.950 . S
H2096 C2119 0.950 . S
H2097 C2121 0.950 . S
H2098 C2122 0.950 . S
H2099 C2123 0.951 . S
H2100 C2125 0.951 . S
H2101 C2127 0.950 . S
H2102 C2128 0.950 . S
H2103 C2130 0.950 . S
H2104 C2133 0.950 . S
H2105 C2134 0.950 . S
H2106 C2136 0.950 . S
H2107 C2137 0.950 . S
C2108 H2090 0.951 . S
C2108 C2109 1.366 . S
C2108 C2110 1.388 . S
C2109 C2108 1.366 . S
C2109 C2113 1.385 . S
C2110 H2091 0.951 . S
C2110 C2108 1.388 . S
C2110 C2111 1.366 . S
C2111 C2110 1.366 . S
C2111 C2112 1.414 . S
C2111 C2114 1.499 . S
C2112 H2092 0.950 . S
C2112 C2111 1.414 . S
C2112 C2113 1.374 . S
C2113 H2093 0.950 . S
C2113 C2109 1.385 . S
C2113 C2112 1.374 . S
C2114 C2111 1.499 . S
C2114 C2115 1.373 . S
C2114 C2116 1.389 . S
C2115 H2094 0.950 . S
C2115 C2114 1.373 . S
C2115 C2131 1.377 . S
C2116 C2114 1.389 . S
C2116 C2117 1.524 . S
C2116 C2130 1.377 . S
C2117 C2116 1.524 . S
C2117 C2118 1.397 . S
C2117 C2122 1.363 . S
C2118 H2095 0.950 . S
C2118 C2117 1.397 . S
C2118 C2119 1.334 . S
C2119 H2096 0.950 . S
C2119 C2118 1.334 . S
C2119 C2120 1.287 . S
C2120 C2119 1.287 . S
C2120 C2121 1.524 . S
C2120 H2139 0.913 . S
C2121 H2097 0.950 . S
C2121 C2120 1.524 . S
C2121 C2122 1.415 . S
C2122 H2098 0.950 . S
C2122 C2117 1.363 . S
C2122 C2121 1.415 . S
C2123 H2099 0.951 . S
C2123 C2124 1.366 . S
C2123 C2125 1.388 . S
C2124 C2123 1.366 . S
C2124 C2128 1.385 . S
C2125 H2100 0.951 . S
C2125 C2123 1.388 . S
C2125 C2126 1.366 . S
C2126 C2125 1.366 . S
C2126 C2127 1.414 . S
C2126 C2129 1.499 . S
C2127 H2101 0.950 . S
C2127 C2126 1.414 . S
C2127 C2128 1.374 . S
C2128 H2102 0.950 . S
C2128 C2124 1.385 . S
C2128 C2127 1.374 . S
C2129 C2126 1.499 . S
C2129 C2130 1.373 . S
C2129 C2131 1.389 . S
C2130 H2103 0.950 . S
C2130 C2116 1.377 . S
C2130 C2129 1.373 . S
C2131 C2115 1.377 . S
C2131 C2129 1.389 . S
C2131 C2132 1.524 . S
C2132 C2131 1.524 . S
C2132 C2133 1.397 . S
C2132 C2137 1.363 . S
C2133 H2104 0.950 . S
C2133 C2132 1.397 . S
C2133 C2134 1.334 . S
C2134 H2105 0.950 . S
C2134 C2133 1.334 . S
C2134 C2135 1.287 . S
C2135 C2134 1.287 . S
C2135 C2136 1.524 . S
C2135 H2138 0.999 . S
C2136 H2106 0.950 . S
C2136 C2135 1.524 . S
C2136 C2137 1.415 . S
C2137 H2107 0.950 . S
C2137 C2132 1.363 . S
C2137 C2136 1.415 . S
H2138 C2135 0.999 . S
H2139 C2120 0.913 . S
H2140 C2158 0.951 . S
H2141 C2160 0.951 . S
H2142 C2162 0.950 . S
H2143 C2163 0.950 . S
H2144 C2165 0.950 . S
H2145 C2168 0.950 . S
H2146 C2169 0.950 . S
H2147 C2171 0.950 . S
H2148 C2172 0.950 . S
H2149 C2173 0.951 . S
H2150 C2175 0.951 . S
H2151 C2177 0.950 . S
H2152 C2178 0.950 . S
H2153 C2180 0.950 . S
H2154 C2183 0.950 . S
H2155 C2184 0.950 . S
H2156 C2186 0.950 . S
H2157 C2187 0.950 . S
C2158 H2140 0.951 . S
C2158 C2159 1.366 . S
C2158 C2160 1.388 . S
C2159 C2158 1.366 . S
C2159 C2163 1.385 . S
C2160 H2141 0.951 . S
C2160 C2158 1.388 . S
C2160 C2161 1.366 . S
C2161 C2160 1.366 . S
C2161 C2162 1.414 . S
C2161 C2164 1.499 . S
C2162 H2142 0.950 . S
C2162 C2161 1.414 . S
C2162 C2163 1.374 . S
C2163 H2143 0.950 . S
C2163 C2159 1.385 . S
C2163 C2162 1.374 . S
C2164 C2161 1.499 . S
C2164 C2165 1.373 . S
C2164 C2166 1.389 . S
C2165 H2144 0.950 . S
C2165 C2164 1.373 . S
C2165 C2181 1.377 . S
C2166 C2164 1.389 . S
C2166 C2167 1.524 . S
C2166 C2180 1.377 . S
C2167 C2166 1.524 . S
C2167 C2168 1.397 . S
C2167 C2172 1.363 . S
C2168 H2145 0.950 . S
C2168 C2167 1.397 . S
C2168 C2169 1.334 . S
C2169 H2146 0.950 . S
C2169 C2168 1.334 . S
C2169 C2170 1.287 . S
C2170 C2169 1.287 . S
C2170 C2171 1.524 . S
C2170 H2189 0.913 . S
C2171 H2147 0.950 . S
C2171 C2170 1.524 . S
C2171 C2172 1.415 . S
C2172 H2148 0.950 . S
C2172 C2167 1.363 . S
C2172 C2171 1.415 . S
C2173 H2149 0.951 . S
C2173 C2174 1.366 . S
C2173 C2175 1.388 . S
C2174 C2173 1.366 . S
C2174 C2178 1.385 . S
C2175 H2150 0.951 . S
C2175 C2173 1.388 . S
C2175 C2176 1.366 . S
C2176 C2175 1.366 . S
C2176 C2177 1.414 . S
C2176 C2179 1.499 . S
C2177 H2151 0.950 . S
C2177 C2176 1.414 . S
C2177 C2178 1.374 . S
C2178 H2152 0.950 . S
C2178 C2174 1.385 . S
C2178 C2177 1.374 . S
C2179 C2176 1.499 . S
C2179 C2180 1.373 . S
C2179 C2181 1.389 . S
C2180 H2153 0.950 . S
C2180 C2166 1.377 . S
C2180 C2179 1.373 . S
C2181 C2165 1.377 . S
C2181 C2179 1.389 . S
C2181 C2182 1.524 . S
C2182 C2181 1.524 . S
C2182 C2183 1.397 . S
C2182 C2187 1.363 . S
C2183 H2154 0.950 . S
C2183 C2182 1.397 . S
C2183 C2184 1.334 . S
C2184 H2155 0.950 . S
C2184 C2183 1.334 . S
C2184 C2185 1.287 . S
C2185 C2184 1.287 . S
C2185 C2186 1.524 . S
C2185 H2188 0.999 . S
C2186 H2156 0.950 . S
C2186 C2185 1.524 . S
C2186 C2187 1.415 . S
C2187 H2157 0.950 . S
C2187 C2182 1.363 . S
C2187 C2186 1.415 . S
H2188 C2185 0.999 . S
H2189 C2170 0.913 . S
H2190 C2208 0.951 . S
H2191 C2210 0.951 . S
H2192 C2212 0.950 . S
H2193 C2213 0.950 . S
H2194 C2215 0.950 . S
H2195 C2218 0.950 . S
H2196 C2219 0.950 . S
H2197 C2221 0.950 . S
H2198 C2222 0.950 . S
H2199 C2223 0.951 . S
H2200 C2225 0.951 . S
H2201 C2227 0.950 . S
H2202 C2228 0.950 . S
H2203 C2230 0.950 . S
H2204 C2233 0.950 . S
H2205 C2234 0.950 . S
H2206 C2236 0.950 . S
H2207 C2237 0.950 . S
C2208 H2190 0.951 . S
C2208 C2209 1.366 . S
C2208 C2210 1.388 . S
C2209 C2208 1.366 . S
C2209 C2213 1.385 . S
C2210 H2191 0.951 . S
C2210 C2208 1.388 . S
C2210 C2211 1.366 . S
C2211 C2210 1.366 . S
C2211 C2212 1.414 . S
C2211 C2214 1.499 . S
C2212 H2192 0.950 . S
C2212 C2211 1.414 . S
C2212 C2213 1.374 . S
C2213 H2193 0.950 . S
C2213 C2209 1.385 . S
C2213 C2212 1.374 . S
C2214 C2211 1.499 . S
C2214 C2215 1.373 . S
C2214 C2216 1.389 . S
C2215 H2194 0.950 . S
C2215 C2214 1.373 . S
C2215 C2231 1.377 . S
C2216 C2214 1.389 . S
C2216 C2217 1.524 . S
C2216 C2230 1.377 . S
C2217 C2216 1.524 . S
C2217 C2218 1.397 . S
C2217 C2222 1.363 . S
C2218 H2195 0.950 . S
C2218 C2217 1.397 . S
C2218 C2219 1.334 . S
C2219 H2196 0.950 . S
C2219 C2218 1.334 . S
C2219 C2220 1.287 . S
C2220 C2219 1.287 . S
C2220 C2221 1.524 . S
C2220 H2239 0.913 . S
C2221 H2197 0.950 . S
C2221 C2220 1.524 . S
C2221 C2222 1.415 . S
C2222 H2198 0.950 . S
C2222 C2217 1.363 . S
C2222 C2221 1.415 . S
C2223 H2199 0.951 . S
C2223 C2224 1.366 . S
C2223 C2225 1.388 . S
C2224 C2223 1.366 . S
C2224 C2228 1.385 . S
C2225 H2200 0.951 . S
C2225 C2223 1.388 . S
C2225 C2226 1.366 . S
C2226 C2225 1.366 . S
C2226 C2227 1.414 . S
C2226 C2229 1.499 . S
C2227 H2201 0.950 . S
C2227 C2226 1.414 . S
C2227 C2228 1.374 . S
C2228 H2202 0.950 . S
C2228 C2224 1.385 . S
C2228 C2227 1.374 . S
C2229 C2226 1.499 . S
C2229 C2230 1.373 . S
C2229 C2231 1.389 . S
C2230 H2203 0.950 . S
C2230 C2216 1.377 . S
C2230 C2229 1.373 . S
C2231 C2215 1.377 . S
C2231 C2229 1.389 . S
C2231 C2232 1.524 . S
C2232 C2231 1.524 . S
C2232 C2233 1.397 . S
C2232 C2237 1.363 . S
C2233 H2204 0.950 . S
C2233 C2232 1.397 . S
C2233 C2234 1.334 . S
C2234 H2205 0.950 . S
C2234 C2233 1.334 . S
C2234 C2235 1.287 . S
C2235 C2234 1.287 . S
C2235 C2236 1.524 . S
C2235 H2238 0.999 . S
C2236 H2206 0.950 . S
C2236 C2235 1.524 . S
C2236 C2237 1.415 . S
C2237 H2207 0.950 . S
C2237 C2232 1.363 . S
C2237 C2236 1.415 . S
H2238 C2235 0.999 . S
H2239 C2220 0.913 . S
H2240 C2258 0.951 . S
H2241 C2260 0.951 . S
H2242 C2262 0.950 . S
H2243 C2263 0.950 . S
H2244 C2265 0.950 . S
H2245 C2268 0.950 . S
H2246 C2269 0.950 . S
H2247 C2271 0.950 . S
H2248 C2272 0.950 . S
H2249 C2273 0.951 . S
H2250 C2275 0.951 . S
H2251 C2277 0.950 . S
H2252 C2278 0.950 . S
H2253 C2280 0.950 . S
H2254 C2283 0.950 . S
H2255 C2284 0.950 . S
H2256 C2286 0.950 . S
H2257 C2287 0.950 . S
C2258 H2240 0.951 . S
C2258 C2259 1.366 . S
C2258 C2260 1.388 . S
C2259 C2258 1.366 . S
C2259 C2263 1.385 . S
C2260 H2241 0.951 . S
C2260 C2258 1.388 . S
C2260 C2261 1.366 . S
C2261 C2260 1.366 . S
C2261 C2262 1.414 . S
C2261 C2264 1.499 . S
C2262 H2242 0.950 . S
C2262 C2261 1.414 . S
C2262 C2263 1.374 . S
C2263 H2243 0.950 . S
C2263 C2259 1.385 . S
C2263 C2262 1.374 . S
C2264 C2261 1.499 . S
C2264 C2265 1.373 . S
C2264 C2266 1.389 . S
C2265 H2244 0.950 . S
C2265 C2264 1.373 . S
C2265 C2281 1.377 . S
C2266 C2264 1.389 . S
C2266 C2267 1.524 . S
C2266 C2280 1.377 . S
C2267 C2266 1.524 . S
C2267 C2268 1.397 . S
C2267 C2272 1.363 . S
C2268 H2245 0.950 . S
C2268 C2267 1.397 . S
C2268 C2269 1.334 . S
C2269 H2246 0.950 . S
C2269 C2268 1.334 . S
C2269 C2270 1.287 . S
C2270 C2269 1.287 . S
C2270 C2271 1.524 . S
C2270 H2289 0.913 . S
C2271 H2247 0.950 . S
C2271 C2270 1.524 . S
C2271 C2272 1.415 . S
C2272 H2248 0.950 . S
C2272 C2267 1.363 . S
C2272 C2271 1.415 . S
C2273 H2249 0.951 . S
C2273 C2274 1.366 . S
C2273 C2275 1.388 . S
C2274 C2273 1.366 . S
C2274 C2278 1.385 . S
C2275 H2250 0.951 . S
C2275 C2273 1.388 . S
C2275 C2276 1.366 . S
C2276 C2275 1.366 . S
C2276 C2277 1.414 . S
C2276 C2279 1.499 . S
C2277 H2251 0.950 . S
C2277 C2276 1.414 . S
C2277 C2278 1.374 . S
C2278 H2252 0.950 . S
C2278 C2274 1.385 . S
C2278 C2277 1.374 . S
C2279 C2276 1.499 . S
C2279 C2280 1.373 . S
C2279 C2281 1.389 . S
C2280 H2253 0.950 . S
C2280 C2266 1.377 . S
C2280 C2279 1.373 . S
C2281 C2265 1.377 . S
C2281 C2279 1.389 . S
C2281 C2282 1.524 . S
C2282 C2281 1.524 . S
C2282 C2283 1.397 . S
C2282 C2287 1.363 . S
C2283 H2254 0.950 . S
C2283 C2282 1.397 . S
C2283 C2284 1.334 . S
C2284 H2255 0.950 . S
C2284 C2283 1.334 . S
C2284 C2285 1.287 . S
C2285 C2284 1.287 . S
C2285 C2286 1.524 . S
C2285 H2288 0.999 . S
C2286 H2256 0.950 . S
C2286 C2285 1.524 . S
C2286 C2287 1.415 . S
C2287 H2257 0.950 . S
C2287 C2282 1.363 . S
C2287 C2286 1.415 . S
H2288 C2285 0.999 . S
H2289 C2270 0.913 . S
H2290 C2308 0.951 . S
H2291 C2310 0.951 . S
H2292 C2312 0.950 . S
H2293 C2313 0.950 . S
H2294 C2315 0.950 . S
H2295 C2318 0.950 . S
H2296 C2319 0.950 . S
H2297 C2321 0.950 . S
H2298 C2322 0.950 . S
H2299 C2323 0.951 . S
H2300 C2325 0.951 . S
H2301 C2327 0.950 . S
H2302 C2328 0.950 . S
H2303 C2330 0.950 . S
H2304 C2333 0.950 . S
H2305 C2334 0.950 . S
H2306 C2336 0.950 . S
H2307 C2337 0.950 . S
C2308 H2290 0.951 . S
C2308 C2309 1.366 . S
C2308 C2310 1.388 . S
C2309 C2308 1.366 . S
C2309 C2313 1.385 . S
C2310 H2291 0.951 . S
C2310 C2308 1.388 . S
C2310 C2311 1.366 . S
C2311 C2310 1.366 . S
C2311 C2312 1.414 . S
C2311 C2314 1.499 . S
C2312 H2292 0.950 . S
C2312 C2311 1.414 . S
C2312 C2313 1.374 . S
C2313 H2293 0.950 . S
C2313 C2309 1.385 . S
C2313 C2312 1.374 . S
C2314 C2311 1.499 . S
C2314 C2315 1.373 . S
C2314 C2316 1.389 . S
C2315 H2294 0.950 . S
C2315 C2314 1.373 . S
C2315 C2331 1.377 . S
C2316 C2314 1.389 . S
C2316 C2317 1.524 . S
C2316 C2330 1.377 . S
C2317 C2316 1.524 . S
C2317 C2318 1.397 . S
C2317 C2322 1.363 . S
C2318 H2295 0.950 . S
C2318 C2317 1.397 . S
C2318 C2319 1.334 . S
C2319 H2296 0.950 . S
C2319 C2318 1.334 . S
C2319 C2320 1.287 . S
C2320 C2319 1.287 . S
C2320 C2321 1.524 . S
C2320 H2339 0.913 . S
C2321 H2297 0.950 . S
C2321 C2320 1.524 . S
C2321 C2322 1.415 . S
C2322 H2298 0.950 . S
C2322 C2317 1.363 . S
C2322 C2321 1.415 . S
C2323 H2299 0.951 . S
C2323 C2324 1.366 . S
C2323 C2325 1.388 . S
C2324 C2323 1.366 . S
C2324 C2328 1.385 . S
C2325 H2300 0.951 . S
C2325 C2323 1.388 . S
C2325 C2326 1.366 . S
C2326 C2325 1.366 . S
C2326 C2327 1.414 . S
C2326 C2329 1.499 . S
C2327 H2301 0.950 . S
C2327 C2326 1.414 . S
C2327 C2328 1.374 . S
C2328 H2302 0.950 . S
C2328 C2324 1.385 . S
C2328 C2327 1.374 . S
C2329 C2326 1.499 . S
C2329 C2330 1.373 . S
C2329 C2331 1.389 . S
C2330 H2303 0.950 . S
C2330 C2316 1.377 . S
C2330 C2329 1.373 . S
C2331 C2315 1.377 . S
C2331 C2329 1.389 . S
C2331 C2332 1.524 . S
C2332 C2331 1.524 . S
C2332 C2333 1.397 . S
C2332 C2337 1.363 . S
C2333 H2304 0.950 . S
C2333 C2332 1.397 . S
C2333 C2334 1.334 . S
C2334 H2305 0.950 . S
C2334 C2333 1.334 . S
C2334 C2335 1.287 . S
C2335 C2334 1.287 . S
C2335 C2336 1.524 . S
C2335 H2338 0.999 . S
C2336 H2306 0.950 . S
C2336 C2335 1.524 . S
C2336 C2337 1.415 . S
C2337 H2307 0.950 . S
C2337 C2332 1.363 . S
C2337 C2336 1.415 . S
H2338 C2335 0.999 . S
H2339 C2320 0.913 . S
H2340 C2358 0.951 . S
H2341 C2360 0.951 . S
H2342 C2362 0.950 . S
H2343 C2363 0.950 . S
H2344 C2365 0.950 . S
H2345 C2368 0.950 . S
H2346 C2369 0.950 . S
H2347 C2371 0.950 . S
H2348 C2372 0.950 . S
H2349 C2373 0.951 . S
H2350 C2375 0.951 . S
H2351 C2377 0.950 . S
H2352 C2378 0.950 . S
H2353 C2380 0.950 . S
H2354 C2383 0.950 . S
H2355 C2384 0.950 . S
H2356 C2386 0.950 . S
H2357 C2387 0.950 . S
C2358 H2340 0.951 . S
C2358 C2359 1.366 . S
C2358 C2360 1.388 . S
C2359 C2358 1.366 . S
C2359 C2363 1.385 . S
C2360 H2341 0.951 . S
C2360 C2358 1.388 . S
C2360 C2361 1.366 . S
C2361 C2360 1.366 . S
C2361 C2362 1.414 . S
C2361 C2364 1.499 . S
C2362 H2342 0.950 . S
C2362 C2361 1.414 . S
C2362 C2363 1.374 . S
C2363 H2343 0.950 . S
C2363 C2359 1.385 . S
C2363 C2362 1.374 . S
C2364 C2361 1.499 . S
C2364 C2365 1.373 . S
C2364 C2366 1.389 . S
C2365 H2344 0.950 . S
C2365 C2364 1.373 . S
C2365 C2381 1.377 . S
C2366 C2364 1.389 . S
C2366 C2367 1.524 . S
C2366 C2380 1.377 . S
C2367 C2366 1.524 . S
C2367 C2368 1.397 . S
C2367 C2372 1.363 . S
C2368 H2345 0.950 . S
C2368 C2367 1.397 . S
C2368 C2369 1.334 . S
C2369 H2346 0.950 . S
C2369 C2368 1.334 . S
C2369 C2370 1.287 . S
C2370 C2369 1.287 . S
C2370 C2371 1.524 . S
C2370 H2389 0.913 . S
C2371 H2347 0.950 . S
C2371 C2370 1.524 . S
C2371 C2372 1.415 . S
C2372 H2348 0.950 . S
C2372 C2367 1.363 . S
C2372 C2371 1.415 . S
C2373 H2349 0.951 . S
C2373 C2374 1.366 . S
C2373 C2375 1.388 . S
C2374 C2373 1.366 . S
C2374 C2378 1.385 . S
C2375 H2350 0.951 . S
C2375 C2373 1.388 . S
C2375 C2376 1.366 . S
C2376 C2375 1.366 . S
C2376 C2377 1.414 . S
C2376 C2379 1.499 . S
C2377 H2351 0.950 . S
C2377 C2376 1.414 . S
C2377 C2378 1.374 . S
C2378 H2352 0.950 . S
C2378 C2374 1.385 . S
C2378 C2377 1.374 . S
C2379 C2376 1.499 . S
C2379 C2380 1.373 . S
C2379 C2381 1.389 . S
C2380 H2353 0.950 . S
C2380 C2366 1.377 . S
C2380 C2379 1.373 . S
C2381 C2365 1.377 . S
C2381 C2379 1.389 . S
C2381 C2382 1.524 . S
C2382 C2381 1.524 . S
C2382 C2383 1.397 . S
C2382 C2387 1.363 . S
C2383 H2354 0.950 . S
C2383 C2382 1.397 . S
C2383 C2384 1.334 . S
C2384 H2355 0.950 . S
C2384 C2383 1.334 . S
C2384 C2385 1.287 . S
C2385 C2384 1.287 . S
C2385 C2386 1.524 . S
C2385 H2388 0.999 . S
C2386 H2356 0.950 . S
C2386 C2385 1.524 . S
C2386 C2387 1.415 . S
C2387 H2357 0.950 . S
C2387 C2382 1.363 . S
C2387 C2386 1.415 . S
H2388 C2385 0.999 . S
H2389 C2370 0.913 . S
H2390 C2408 0.951 . S
H2391 C2410 0.951 . S
H2392 C2412 0.950 . S
H2393 C2413 0.950 . S
H2394 C2415 0.950 . S
H2395 C2418 0.950 . S
H2396 C2419 0.950 . S
H2397 C2421 0.950 . S
H2398 C2422 0.950 . S
H2399 C2423 0.951 . S
H2400 C2425 0.951 . S
H2401 C2427 0.950 . S
H2402 C2428 0.950 . S
H2403 C2430 0.950 . S
H2404 C2433 0.950 . S
H2405 C2434 0.950 . S
H2406 C2436 0.950 . S
H2407 C2437 0.950 . S
C2408 H2390 0.951 . S
C2408 C2409 1.366 . S
C2408 C2410 1.388 . S
C2409 C2408 1.366 . S
C2409 C2413 1.385 . S
C2410 H2391 0.951 . S
C2410 C2408 1.388 . S
C2410 C2411 1.366 . S
C2411 C2410 1.366 . S
C2411 C2412 1.414 . S
C2411 C2414 1.499 . S
C2412 H2392 0.950 . S
C2412 C2411 1.414 . S
C2412 C2413 1.374 . S
C2413 H2393 0.950 . S
C2413 C2409 1.385 . S
C2413 C2412 1.374 . S
C2414 C2411 1.499 . S
C2414 C2415 1.373 . S
C2414 C2416 1.389 . S
C2415 H2394 0.950 . S
C2415 C2414 1.373 . S
C2415 C2431 1.377 . S
C2416 C2414 1.389 . S
C2416 C2417 1.524 . S
C2416 C2430 1.377 . S
C2417 C2416 1.524 . S
C2417 C2418 1.397 . S
C2417 C2422 1.363 . S
C2418 H2395 0.950 . S
C2418 C2417 1.397 . S
C2418 C2419 1.334 . S
C2419 H2396 0.950 . S
C2419 C2418 1.334 . S
C2419 C2420 1.287 . S
C2420 C2419 1.287 . S
C2420 C2421 1.524 . S
C2420 H2439 0.913 . S
C2421 H2397 0.950 . S
C2421 C2420 1.524 . S
C2421 C2422 1.415 . S
C2422 H2398 0.950 . S
C2422 C2417 1.363 . S
C2422 C2421 1.415 . S
C2423 H2399 0.951 . S
C2423 C2424 1.366 . S
C2423 C2425 1.388 . S
C2424 C2423 1.366 . S
C2424 C2428 1.385 . S
C2425 H2400 0.951 . S
C2425 C2423 1.388 . S
C2425 C2426 1.366 . S
C2426 C2425 1.366 . S
C2426 C2427 1.414 . S
C2426 C2429 1.499 . S
C2427 H2401 0.950 . S
C2427 C2426 1.414 . S
C2427 C2428 1.374 . S
C2428 H2402 0.950 . S
C2428 C2424 1.385 . S
C2428 C2427 1.374 . S
C2429 C2426 1.499 . S
C2429 C2430 1.373 . S
C2429 C2431 1.389 . S
C2430 H2403 0.950 . S
C2430 C2416 1.377 . S
C2430 C2429 1.373 . S
C2431 C2415 1.377 . S
C2431 C2429 1.389 . S
C2431 C2432 1.524 . S
C2432 C2431 1.524 . S
C2432 C2433 1.397 . S
C2432 C2437 1.363 . S
C2433 H2404 0.950 . S
C2433 C2432 1.397 . S
C2433 C2434 1.334 . S
C2434 H2405 0.950 . S
C2434 C2433 1.334 . S
C2434 C2435 1.287 . S
C2435 C2434 1.287 . S
C2435 C2436 1.524 . S
C2435 H2438 0.999 . S
C2436 H2406 0.950 . S
C2436 C2435 1.524 . S
C2436 C2437 1.415 . S
C2437 H2407 0.950 . S
C2437 C2432 1.363 . S
C2437 C2436 1.415 . S
H2438 C2435 0.999 . S
H2439 C2420 0.913 . S
H2440 C2458 0.951 . S
H2441 C2460 0.951 . S
H2442 C2462 0.950 . S
H2443 C2463 0.950 . S
H2444 C2465 0.950 . S
H2445 C2468 0.950 . S
H2446 C2469 0.950 . S
H2447 C2471 0.950 . S
H2448 C2472 0.950 . S
H2449 C2473 0.951 . S
H2450 C2475 0.951 . S
H2451 C2477 0.950 . S
H2452 C2478 0.950 . S
H2453 C2480 0.950 . S
H2454 C2483 0.950 . S
H2455 C2484 0.950 . S
H2456 C2486 0.950 . S
H2457 C2487 0.950 . S
C2458 H2440 0.951 . S
C2458 C2459 1.366 . S
C2458 C2460 1.388 . S
C2459 C2458 1.366 . S
C2459 C2463 1.385 . S
C2460 H2441 0.951 . S
C2460 C2458 1.388 . S
C2460 C2461 1.366 . S
C2461 C2460 1.366 . S
C2461 C2462 1.414 . S
C2461 C2464 1.499 . S
C2462 H2442 0.950 . S
C2462 C2461 1.414 . S
C2462 C2463 1.374 . S
C2463 H2443 0.950 . S
C2463 C2459 1.385 . S
C2463 C2462 1.374 . S
C2464 C2461 1.499 . S
C2464 C2465 1.373 . S
C2464 C2466 1.389 . S
C2465 H2444 0.950 . S
C2465 C2464 1.373 . S
C2465 C2481 1.377 . S
C2466 C2464 1.389 . S
C2466 C2467 1.524 . S
C2466 C2480 1.377 . S
C2467 C2466 1.524 . S
C2467 C2468 1.397 . S
C2467 C2472 1.363 . S
C2468 H2445 0.950 . S
C2468 C2467 1.397 . S
C2468 C2469 1.334 . S
C2469 H2446 0.950 . S
C2469 C2468 1.334 . S
C2469 C2470 1.287 . S
C2470 C2469 1.287 . S
C2470 C2471 1.524 . S
C2470 H2489 0.913 . S
C2471 H2447 0.950 . S
C2471 C2470 1.524 . S
C2471 C2472 1.415 . S
C2472 H2448 0.950 . S
C2472 C2467 1.363 . S
C2472 C2471 1.415 . S
C2473 H2449 0.951 . S
C2473 C2474 1.366 . S
C2473 C2475 1.388 . S
C2474 C2473 1.366 . S
C2474 C2478 1.385 . S
C2475 H2450 0.951 . S
C2475 C2473 1.388 . S
C2475 C2476 1.366 . S
C2476 C2475 1.366 . S
C2476 C2477 1.414 . S
C2476 C2479 1.499 . S
C2477 H2451 0.950 . S
C2477 C2476 1.414 . S
C2477 C2478 1.374 . S
C2478 H2452 0.950 . S
C2478 C2474 1.385 . S
C2478 C2477 1.374 . S
C2479 C2476 1.499 . S
C2479 C2480 1.373 . S
C2479 C2481 1.389 . S
C2480 H2453 0.950 . S
C2480 C2466 1.377 . S
C2480 C2479 1.373 . S
C2481 C2465 1.377 . S
C2481 C2479 1.389 . S
C2481 C2482 1.524 . S
C2482 C2481 1.524 . S
C2482 C2483 1.397 . S
C2482 C2487 1.363 . S
C2483 H2454 0.950 . S
C2483 C2482 1.397 . S
C2483 C2484 1.334 . S
C2484 H2455 0.950 . S
C2484 C2483 1.334 . S
C2484 C2485 1.287 . S
C2485 C2484 1.287 . S
C2485 C2486 1.524 . S
C2485 H2488 0.999 . S
C2486 H2456 0.950 . S
C2486 C2485 1.524 . S
C2486 C2487 1.415 . S
C2487 H2457 0.950 . S
C2487 C2482 1.363 . S
C2487 C2486 1.415 . S
H2488 C2485 0.999 . S
H2489 C2470 0.913 . S
H2490 C2508 0.951 . S
H2491 C2510 0.951 . S
H2492 C2512 0.950 . S
H2493 C2513 0.950 . S
H2494 C2515 0.950 . S
H2495 C2518 0.950 . S
H2496 C2519 0.950 . S
H2497 C2521 0.950 . S
H2498 C2522 0.950 . S
H2499 C2523 0.951 . S
H2500 C2525 0.951 . S
H2501 C2527 0.950 . S
H2502 C2528 0.950 . S
H2503 C2530 0.950 . S
H2504 C2533 0.950 . S
H2505 C2534 0.950 . S
H2506 C2536 0.950 . S
H2507 C2537 0.950 . S
C2508 H2490 0.951 . S
C2508 C2509 1.366 . S
C2508 C2510 1.388 . S
C2509 C2508 1.366 . S
C2509 C2513 1.385 1_554 S
C2510 H2491 0.951 . S
C2510 C2508 1.388 . S
C2510 C2511 1.366 . S
C2511 C2510 1.366 . S
C2511 C2512 1.414 1_554 S
C2511 C2514 1.499 . S
C2512 H2492 0.950 . S
C2512 C2511 1.414 1_556 S
C2512 C2513 1.374 . S
C2513 H2493 0.950 . S
C2513 C2509 1.385 1_556 S
C2513 C2512 1.374 . S
C2514 C2511 1.499 . S
C2514 C2515 1.373 1_554 S
C2514 C2516 1.389 . S
C2515 H2494 0.950 . S
C2515 C2514 1.373 1_556 S
C2515 C2531 1.377 . S
C2516 C2514 1.389 . S
C2516 C2517 1.524 . S
C2516 C2530 1.377 . S
C2517 C2516 1.524 . S
C2517 C2518 1.397 . S
C2517 C2522 1.363 . S
C2518 H2495 0.950 . S
C2518 C2517 1.397 . S
C2518 C2519 1.334 . S
C2519 H2496 0.950 . S
C2519 C2518 1.334 . S
C2519 C2520 1.287 . S
C2520 C2519 1.287 . S
C2520 C2521 1.524 . S
C2520 H2539 0.913 . S
C2521 H2497 0.950 . S
C2521 C2520 1.524 . S
C2521 C2522 1.415 . S
C2522 H2498 0.950 . S
C2522 C2517 1.363 . S
C2522 C2521 1.415 . S
C2523 H2499 0.951 . S
C2523 C2524 1.366 1_556 S
C2523 C2525 1.388 . S
C2524 C2523 1.366 1_554 S
C2524 C2528 1.385 . S
C2525 H2500 0.951 . S
C2525 C2523 1.388 . S
C2525 C2526 1.366 1_556 S
C2526 C2525 1.366 1_554 S
C2526 C2527 1.414 . S
C2526 C2529 1.499 . S
C2527 H2501 0.950 . S
C2527 C2526 1.414 . S
C2527 C2528 1.374 . S
C2528 H2502 0.950 . S
C2528 C2524 1.385 . S
C2528 C2527 1.374 . S
C2529 C2526 1.499 . S
C2529 C2530 1.373 . S
C2529 C2531 1.389 1_554 S
C2530 H2503 0.950 . S
C2530 C2516 1.377 . S
C2530 C2529 1.373 . S
C2531 C2515 1.377 . S
C2531 C2529 1.389 1_556 S
C2531 C2532 1.524 . S
C2532 C2531 1.524 . S
C2532 C2533 1.397 . S
C2532 C2537 1.363 . S
C2533 H2504 0.950 . S
C2533 C2532 1.397 . S
C2533 C2534 1.334 . S
C2534 H2505 0.950 . S
C2534 C2533 1.334 . S
C2534 C2535 1.287 . S
C2535 C2534 1.287 . S
C2535 C2536 1.524 . S
C2535 H2538 0.999 . S
C2536 H2506 0.950 . S
C2536 C2535 1.524 . S
C2536 C2537 1.415 . S
C2537 H2507 0.950 . S
C2537 C2532 1.363 . S
C2537 C2536 1.415 . S
H2538 C2535 0.999 . S
H2539 C2520 0.913 . S
H2540 C2558 0.951 . S
H2541 C2560 0.951 . S
H2542 C2562 0.950 . S
H2543 C2563 0.950 . S
H2544 C2565 0.950 . S
H2545 C2568 0.950 . S
H2546 C2569 0.950 . S
H2547 C2571 0.950 . S
H2548 C2572 0.950 . S
H2549 C2573 0.951 . S
H2550 C2575 0.951 . S
H2551 C2577 0.950 . S
H2552 C2578 0.950 . S
H2553 C2580 0.950 . S
H2554 C2583 0.950 . S
H2555 C2584 0.950 . S
H2556 C2586 0.950 . S
H2557 C2587 0.950 . S
C2558 H2540 0.951 . S
C2558 C2559 1.366 . S
C2558 C2560 1.388 . S
C2559 C2558 1.366 . S
C2559 C2563 1.385 . S
C2560 H2541 0.951 . S
C2560 C2558 1.388 . S
C2560 C2561 1.366 . S
C2561 C2560 1.366 . S
C2561 C2562 1.414 . S
C2561 C2564 1.499 . S
C2562 H2542 0.950 . S
C2562 C2561 1.414 . S
C2562 C2563 1.374 . S
C2563 H2543 0.950 . S
C2563 C2559 1.385 . S
C2563 C2562 1.374 . S
C2564 C2561 1.499 . S
C2564 C2565 1.373 . S
C2564 C2566 1.389 . S
C2565 H2544 0.950 . S
C2565 C2564 1.373 . S
C2565 C2581 1.377 . S
C2566 C2564 1.389 . S
C2566 C2567 1.524 . S
C2566 C2580 1.377 . S
C2567 C2566 1.524 . S
C2567 C2568 1.397 . S
C2567 C2572 1.363 . S
C2568 H2545 0.950 . S
C2568 C2567 1.397 . S
C2568 C2569 1.334 . S
C2569 H2546 0.950 . S
C2569 C2568 1.334 . S
C2569 C2570 1.287 . S
C2570 C2569 1.287 . S
C2570 C2571 1.524 . S
C2570 H2589 0.913 . S
C2571 H2547 0.950 . S
C2571 C2570 1.524 . S
C2571 C2572 1.415 . S
C2572 H2548 0.950 . S
C2572 C2567 1.363 . S
C2572 C2571 1.415 . S
C2573 H2549 0.951 . S
C2573 C2574 1.366 . S
C2573 C2575 1.388 . S
C2574 C2573 1.366 . S
C2574 C2578 1.385 . S
C2575 H2550 0.951 . S
C2575 C2573 1.388 . S
C2575 C2576 1.366 . S
C2576 C2575 1.366 . S
C2576 C2577 1.414 . S
C2576 C2579 1.499 . S
C2577 H2551 0.950 . S
C2577 C2576 1.414 . S
C2577 C2578 1.374 . S
C2578 H2552 0.950 . S
C2578 C2574 1.385 . S
C2578 C2577 1.374 . S
C2579 C2576 1.499 . S
C2579 C2580 1.373 . S
C2579 C2581 1.389 . S
C2580 H2553 0.950 . S
C2580 C2566 1.377 . S
C2580 C2579 1.373 . S
C2581 C2565 1.377 . S
C2581 C2579 1.389 . S
C2581 C2582 1.524 . S
C2582 C2581 1.524 . S
C2582 C2583 1.397 . S
C2582 C2587 1.363 . S
C2583 H2554 0.950 . S
C2583 C2582 1.397 . S
C2583 C2584 1.334 . S
C2584 H2555 0.950 . S
C2584 C2583 1.334 . S
C2584 C2585 1.287 . S
C2585 C2584 1.287 . S
C2585 C2586 1.524 . S
C2585 H2588 0.999 . S
C2586 H2556 0.950 . S
C2586 C2585 1.524 . S
C2586 C2587 1.415 . S
C2587 H2557 0.950 . S
C2587 C2582 1.363 . S
C2587 C2586 1.415 . S
H2588 C2585 0.999 . S
H2589 C2570 0.913 . S
H2590 C2608 0.951 . S
H2591 C2610 0.951 . S
H2592 C2612 0.950 . S
H2593 C2613 0.950 . S
H2594 C2615 0.950 . S
H2595 C2618 0.950 . S
H2596 C2619 0.950 . S
H2597 C2621 0.950 . S
H2598 C2622 0.950 . S
H2599 C2623 0.951 . S
H2600 C2625 0.951 . S
H2601 C2627 0.950 . S
H2602 C2628 0.950 . S
H2603 C2630 0.950 . S
H2604 C2633 0.950 . S
H2605 C2634 0.950 . S
H2606 C2636 0.950 . S
H2607 C2637 0.950 . S
C2608 H2590 0.951 . S
C2608 C2609 1.366 . S
C2608 C2610 1.388 . S
C2609 C2608 1.366 . S
C2609 C2613 1.385 . S
C2610 H2591 0.951 . S
C2610 C2608 1.388 . S
C2610 C2611 1.366 . S
C2611 C2610 1.366 . S
C2611 C2612 1.414 . S
C2611 C2614 1.499 . S
C2612 H2592 0.950 . S
C2612 C2611 1.414 . S
C2612 C2613 1.374 . S
C2613 H2593 0.950 . S
C2613 C2609 1.385 . S
C2613 C2612 1.374 . S
C2614 C2611 1.499 . S
C2614 C2615 1.373 . S
C2614 C2616 1.389 . S
C2615 H2594 0.950 . S
C2615 C2614 1.373 . S
C2615 C2631 1.377 . S
C2616 C2614 1.389 . S
C2616 C2617 1.524 . S
C2616 C2630 1.377 . S
C2617 C2616 1.524 . S
C2617 C2618 1.397 . S
C2617 C2622 1.363 . S
C2618 H2595 0.950 . S
C2618 C2617 1.397 . S
C2618 C2619 1.334 . S
C2619 H2596 0.950 . S
C2619 C2618 1.334 . S
C2619 C2620 1.287 . S
C2620 C2619 1.287 . S
C2620 C2621 1.524 . S
C2620 H2639 0.913 . S
C2621 H2597 0.950 . S
C2621 C2620 1.524 . S
C2621 C2622 1.415 . S
C2622 H2598 0.950 . S
C2622 C2617 1.363 . S
C2622 C2621 1.415 . S
C2623 H2599 0.951 . S
C2623 C2624 1.366 . S
C2623 C2625 1.388 . S
C2624 C2623 1.366 . S
C2624 C2628 1.385 . S
C2625 H2600 0.951 . S
C2625 C2623 1.388 . S
C2625 C2626 1.366 . S
C2626 C2625 1.366 . S
C2626 C2627 1.414 . S
C2626 C2629 1.499 . S
C2627 H2601 0.950 . S
C2627 C2626 1.414 . S
C2627 C2628 1.374 . S
C2628 H2602 0.950 . S
C2628 C2624 1.385 . S
C2628 C2627 1.374 . S
C2629 C2626 1.499 . S
C2629 C2630 1.373 . S
C2629 C2631 1.389 . S
C2630 H2603 0.950 . S
C2630 C2616 1.377 . S
C2630 C2629 1.373 . S
C2631 C2615 1.377 . S
C2631 C2629 1.389 . S
C2631 C2632 1.524 . S
C2632 C2631 1.524 . S
C2632 C2633 1.397 . S
C2632 C2637 1.363 . S
C2633 H2604 0.950 . S
C2633 C2632 1.397 . S
C2633 C2634 1.334 . S
C2634 H2605 0.950 . S
C2634 C2633 1.334 . S
C2634 C2635 1.287 . S
C2635 C2634 1.287 . S
C2635 C2636 1.524 . S
C2635 H2638 0.999 . S
C2636 H2606 0.950 . S
C2636 C2635 1.524 . S
C2636 C2637 1.415 . S
C2637 H2607 0.950 . S
C2637 C2632 1.363 . S
C2637 C2636 1.415 . S
H2638 C2635 0.999 . S
H2639 C2620 0.913 . S
H2640 C2658 0.951 . S
H2641 C2660 0.951 . S
H2642 C2662 0.950 . S
H2643 C2663 0.950 . S
H2644 C2665 0.950 . S
H2645 C2668 0.950 . S
H2646 C2669 0.950 . S
H2647 C2671 0.950 . S
H2648 C2672 0.950 . S
H2649 C2673 0.951 . S
H2650 C2675 0.951 . S
H2651 C2677 0.950 . S
H2652 C2678 0.950 . S
H2653 C2680 0.950 . S
H2654 C2683 0.950 . S
H2655 C2684 0.950 . S
H2656 C2686 0.950 . S
H2657 C2687 0.950 . S
C2658 H2640 0.951 . S
C2658 C2659 1.366 . S
C2658 C2660 1.388 . S
C2659 C2658 1.366 . S
C2659 C2663 1.385 . S
C2660 H2641 0.951 . S
C2660 C2658 1.388 . S
C2660 C2661 1.366 . S
C2661 C2660 1.366 . S
C2661 C2662 1.414 . S
C2661 C2664 1.499 . S
C2662 H2642 0.950 . S
C2662 C2661 1.414 . S
C2662 C2663 1.374 . S
C2663 H2643 0.950 . S
C2663 C2659 1.385 . S
C2663 C2662 1.374 . S
C2664 C2661 1.499 . S
C2664 C2665 1.373 . S
C2664 C2666 1.389 . S
C2665 H2644 0.950 . S
C2665 C2664 1.373 . S
C2665 C2681 1.377 . S
C2666 C2664 1.389 . S
C2666 C2667 1.524 . S
C2666 C2680 1.377 . S
C2667 C2666 1.524 . S
C2667 C2668 1.397 . S
C2667 C2672 1.363 . S
C2668 H2645 0.950 . S
C2668 C2667 1.397 . S
C2668 C2669 1.334 . S
C2669 H2646 0.950 . S
C2669 C2668 1.334 . S
C2669 C2670 1.287 . S
C2670 C2669 1.287 . S
C2670 C2671 1.524 . S
C2670 H2689 0.913 . S
C2671 H2647 0.950 . S
C2671 C2670 1.524 . S
C2671 C2672 1.415 . S
C2672 H2648 0.950 . S
C2672 C2667 1.363 . S
C2672 C2671 1.415 . S
C2673 H2649 0.951 . S
C2673 C2674 1.366 . S
C2673 C2675 1.388 . S
C2674 C2673 1.366 . S
C2674 C2678 1.385 . S
C2675 H2650 0.951 . S
C2675 C2673 1.388 . S
C2675 C2676 1.366 . S
C2676 C2675 1.366 . S
C2676 C2677 1.414 . S
C2676 C2679 1.499 . S
C2677 H2651 0.950 . S
C2677 C2676 1.414 . S
C2677 C2678 1.374 . S
C2678 H2652 0.950 . S
C2678 C2674 1.385 . S
C2678 C2677 1.374 . S
C2679 C2676 1.499 . S
C2679 C2680 1.373 . S
C2679 C2681 1.389 . S
C2680 H2653 0.950 . S
C2680 C2666 1.377 . S
C2680 C2679 1.373 . S
C2681 C2665 1.377 . S
C2681 C2679 1.389 . S
C2681 C2682 1.524 . S
C2682 C2681 1.524 . S
C2682 C2683 1.397 . S
C2682 C2687 1.363 . S
C2683 H2654 0.950 . S
C2683 C2682 1.397 . S
C2683 C2684 1.334 . S
C2684 H2655 0.950 . S
C2684 C2683 1.334 . S
C2684 C2685 1.287 . S
C2685 C2684 1.287 . S
C2685 C2686 1.524 . S
C2685 H2688 0.999 . S
C2686 H2656 0.950 . S
C2686 C2685 1.524 . S
C2686 C2687 1.415 . S
C2687 H2657 0.950 . S
C2687 C2682 1.363 . S
C2687 C2686 1.415 . S
H2688 C2685 0.999 . S
H2689 C2670 0.913 . S
H2690 C2708 0.951 . S
H2691 C2710 0.951 . S
H2692 C2712 0.950 . S
H2693 C2713 0.950 . S
H2694 C2715 0.950 . S
H2695 C2718 0.950 . S
H2696 C2719 0.950 . S
H2697 C2721 0.950 . S
H2698 C2722 0.950 . S
H2699 C2723 0.951 . S
H2700 C2725 0.951 . S
H2701 C2727 0.950 . S
H2702 C2728 0.950 . S
H2703 C2730 0.950 . S
H2704 C2733 0.950 . S
H2705 C2734 0.950 . S
H2706 C2736 0.950 . S
H2707 C2737 0.950 . S
C2708 H2690 0.951 . S
C2708 C2709 1.366 . S
C2708 C2710 1.388 . S
C2709 C2708 1.366 . S
C2709 C2713 1.385 . S
C2710 H2691 0.951 . S
C2710 C2708 1.388 . S
C2710 C2711 1.366 . S
C2711 C2710 1.366 . S
C2711 C2712 1.414 . S
C2711 C2714 1.499 . S
C2712 H2692 0.950 . S
C2712 C2711 1.414 . S
C2712 C2713 1.374 . S
C2713 H2693 0.950 . S
C2713 C2709 1.385 . S
C2713 C2712 1.374 . S
C2714 C2711 1.499 . S
C2714 C2715 1.373 . S
C2714 C2716 1.389 . S
C2715 H2694 0.950 . S
C2715 C2714 1.373 . S
C2715 C2731 1.377 . S
C2716 C2714 1.389 . S
C2716 C2717 1.524 . S
C2716 C2730 1.377 . S
C2717 C2716 1.524 . S
C2717 C2718 1.397 . S
C2717 C2722 1.363 . S
C2718 H2695 0.950 . S
C2718 C2717 1.397 . S
C2718 C2719 1.334 . S
C2719 H2696 0.950 . S
C2719 C2718 1.334 . S
C2719 C2720 1.287 . S
C2720 C2719 1.287 . S
C2720 C2721 1.524 . S
C2720 H2739 0.913 . S
C2721 H2697 0.950 . S
C2721 C2720 1.524 . S
C2721 C2722 1.415 . S
C2722 H2698 0.950 . S
C2722 C2717 1.363 . S
C2722 C2721 1.415 . S
C2723 H2699 0.951 . S
C2723 C2724 1.366 . S
C2723 C2725 1.388 . S
C2724 C2723 1.366 . S
C2724 C2728 1.385 . S
C2725 H2700 0.951 . S
C2725 C2723 1.388 . S
C2725 C2726 1.366 . S
C2726 C2725 1.366 . S
C2726 C2727 1.414 . S
C2726 C2729 1.499 . S
C2727 H2701 0.950 . S
C2727 C2726 1.414 . S
C2727 C2728 1.374 . S
C2728 H2702 0.950 . S
C2728 C2724 1.385 . S
C2728 C2727 1.374 . S
C2729 C2726 1.499 . S
C2729 C2730 1.373 . S
C2729 C2731 1.389 . S
C2730 H2703 0.950 . S
C2730 C2716 1.377 . S
C2730 C2729 1.373 . S
C2731 C2715 1.377 . S
C2731 C2729 1.389 . S
C2731 C2732 1.524 . S
C2732 C2731 1.524 . S
C2732 C2733 1.397 . S
C2732 C2737 1.363 . S
C2733 H2704 0.950 . S
C2733 C2732 1.397 . S
C2733 C2734 1.334 . S
C2734 H2705 0.950 . S
C2734 C2733 1.334 . S
C2734 C2735 1.287 . S
C2735 C2734 1.287 . S
C2735 C2736 1.524 . S
C2735 H2738 0.999 . S
C2736 H2706 0.950 . S
C2736 C2735 1.524 . S
C2736 C2737 1.415 . S
C2737 H2707 0.950 . S
C2737 C2732 1.363 . S
C2737 C2736 1.415 . S
H2738 C2735 0.999 . S
H2739 C2720 0.913 . S
H2740 C2758 0.951 . S
H2741 C2760 0.951 . S
H2742 C2762 0.950 . S
H2743 C2763 0.950 . S
H2744 C2765 0.950 . S
H2745 C2768 0.950 . S
H2746 C2769 0.950 . S
H2747 C2771 0.950 . S
H2748 C2772 0.950 . S
H2749 C2773 0.939 1_556 S
H2750 C2775 0.951 . S
H2751 C2777 0.950 . S
H2752 C2778 0.950 . S
H2753 C2780 0.950 . S
H2754 C2783 0.950 . S
H2755 C2784 0.950 . S
H2756 C2786 0.950 . S
H2757 C2787 0.950 . S
C2758 H2740 0.951 . S
C2758 C2759 1.366 . S
C2758 C2760 1.388 . S
C2759 C2758 1.366 . S
C2759 C2763 1.385 1_554 S
C2760 H2741 0.951 . S
C2760 C2758 1.388 . S
C2760 C2761 1.366 . S
C2761 C2760 1.366 . S
C2761 C2762 1.414 1_554 S
C2761 C2764 1.499 . S
C2762 H2742 0.950 . S
C2762 C2761 1.414 1_556 S
C2762 C2763 1.374 . S
C2763 H2743 0.950 . S
C2763 C2759 1.385 1_556 S
C2763 C2762 1.374 . S
C2764 C2761 1.499 . S
C2764 C2765 1.373 1_554 S
C2764 C2766 1.389 . S
C2765 H2744 0.950 . S
C2765 C2764 1.373 1_556 S
C2765 C2781 1.377 . S
C2766 C2764 1.389 . S
C2766 C2767 1.524 . S
C2766 C2780 1.377 . S
C2767 C2766 1.524 . S
C2767 C2768 1.397 . S
C2767 C2772 1.363 . S
C2768 H2745 0.950 . S
C2768 C2767 1.397 . S
C2768 C2769 1.334 . S
C2769 H2746 0.950 . S
C2769 C2768 1.334 . S
C2769 C2770 1.287 . S
C2770 C2769 1.287 . S
C2770 C2771 1.524 . S
C2770 H2789 0.913 . S
C2771 H2747 0.950 . S
C2771 C2770 1.524 . S
C2771 C2772 1.415 . S
C2772 H2748 0.950 . S
C2772 C2767 1.363 . S
C2772 C2771 1.415 . S
C2773 H2749 0.939 1_554 S
C2773 C2774 1.383 . S
C2773 C2775 1.382 1_554 S
C2774 C2773 1.383 . S
C2774 C2778 1.385 . S
C2775 H2750 0.951 . S
C2775 C2773 1.382 1_556 S
C2775 C2776 1.366 1_556 S
C2776 C2775 1.366 1_554 S
C2776 C2777 1.414 . S
C2776 C2779 1.499 . S
C2777 H2751 0.950 . S
C2777 C2776 1.414 . S
C2777 C2778 1.374 . S
C2778 H2752 0.950 . S
C2778 C2774 1.385 . S
C2778 C2777 1.374 . S
C2779 C2776 1.499 . S
C2779 C2780 1.373 . S
C2779 C2781 1.389 1_554 S
C2780 H2753 0.950 . S
C2780 C2766 1.377 . S
C2780 C2779 1.373 . S
C2781 C2765 1.377 . S
C2781 C2779 1.389 1_556 S
C2781 C2782 1.524 . S
C2782 C2781 1.524 . S
C2782 C2783 1.397 . S
C2782 C2787 1.363 . S
C2783 H2754 0.950 . S
C2783 C2782 1.397 . S
C2783 C2784 1.334 . S
C2784 H2755 0.950 . S
C2784 C2783 1.334 . S
C2784 C2785 1.287 . S
C2785 C2784 1.287 . S
C2785 C2786 1.524 . S
C2785 H2788 0.999 . S
C2786 H2756 0.950 . S
C2786 C2785 1.524 . S
C2786 C2787 1.415 . S
C2787 H2757 0.950 . S
C2787 C2782 1.363 . S
C2787 C2786 1.415 . S
H2788 C2785 0.999 . S
H2789 C2770 0.913 . S
H2790 C2808 0.951 1_455 S
H2791 C2810 0.951 . S
H2792 C2812 0.950 . S
H2793 C2813 0.950 . S
H2794 C2815 0.950 . S
H2795 C2818 0.950 . S
H2796 C2819 0.950 . S
H2797 C2821 0.950 . S
H2798 C2822 0.950 . S
H2799 C2823 0.951 . S
H2800 C2825 0.951 . S
H2801 C2827 0.950 . S
H2802 C2828 0.950 . S
H2803 C2830 0.950 . S
H2804 C2833 0.950 . S
H2805 C2834 0.950 . S
H2806 C2836 0.950 . S
H2807 C2837 0.950 . S
C2808 H2790 0.951 1_655 S
C2808 C2809 1.366 . S
C2808 C2810 1.388 . S
C2809 C2808 1.366 . S
C2809 C2813 1.385 . S
C2810 H2791 0.951 . S
C2810 C2808 1.388 . S
C2810 C2811 1.366 . S
C2811 C2810 1.366 . S
C2811 C2812 1.414 . S
C2811 C2814 1.499 . S
C2812 H2792 0.950 . S
C2812 C2811 1.414 . S
C2812 C2813 1.374 . S
C2813 H2793 0.950 . S
C2813 C2809 1.385 . S
C2813 C2812 1.374 . S
C2814 C2811 1.499 . S
C2814 C2815 1.373 . S
C2814 C2816 1.389 . S
C2815 H2794 0.950 . S
C2815 C2814 1.373 . S
C2815 C2831 1.377 . S
C2816 C2814 1.389 . S
C2816 C2817 1.524 . S
C2816 C2830 1.377 . S
C2817 C2816 1.524 . S
C2817 C2818 1.397 . S
C2817 C2822 1.363 . S
C2818 H2795 0.950 . S
C2818 C2817 1.397 . S
C2818 C2819 1.334 . S
C2819 H2796 0.950 . S
C2819 C2818 1.334 . S
C2819 C2820 1.287 . S
C2820 C2819 1.287 . S
C2820 C2821 1.524 . S
C2820 H2839 0.913 . S
C2821 H2797 0.950 . S
C2821 C2820 1.524 . S
C2821 C2822 1.415 . S
C2822 H2798 0.950 . S
C2822 C2817 1.363 . S
C2822 C2821 1.415 . S
C2823 H2799 0.951 . S
C2823 C2824 1.366 . S
C2823 C2825 1.388 . S
C2824 C2823 1.366 . S
C2824 C2828 1.385 . S
C2825 H2800 0.951 . S
C2825 C2823 1.388 . S
C2825 C2826 1.366 . S
C2826 C2825 1.366 . S
C2826 C2827 1.414 . S
C2826 C2829 1.499 . S
C2827 H2801 0.950 . S
C2827 C2826 1.414 . S
C2827 C2828 1.374 . S
C2828 H2802 0.950 . S
C2828 C2824 1.385 . S
C2828 C2827 1.374 . S
C2829 C2826 1.499 . S
C2829 C2830 1.373 . S
C2829 C2831 1.389 . S
C2830 H2803 0.950 . S
C2830 C2816 1.377 . S
C2830 C2829 1.373 . S
C2831 C2815 1.377 . S
C2831 C2829 1.389 . S
C2831 C2832 1.524 . S
C2832 C2831 1.524 . S
C2832 C2833 1.397 . S
C2832 C2837 1.363 . S
C2833 H2804 0.950 . S
C2833 C2832 1.397 . S
C2833 C2834 1.334 . S
C2834 H2805 0.950 . S
C2834 C2833 1.334 . S
C2834 C2835 1.287 . S
C2835 C2834 1.287 . S
C2835 C2836 1.524 . S
C2835 H2838 0.999 . S
C2836 H2806 0.950 . S
C2836 C2835 1.524 . S
C2836 C2837 1.415 . S
C2837 H2807 0.950 . S
C2837 C2832 1.363 . S
C2837 C2836 1.415 . S
H2838 C2835 0.999 . S
H2839 C2820 0.913 . S
H2840 C2858 0.951 . S
H2841 C2860 0.951 . S
H2842 C2862 0.950 . S
H2843 C2863 0.950 . S
H2844 C2865 0.950 . S
H2845 C2868 0.950 . S
H2846 C2869 0.950 . S
H2847 C2871 0.950 . S
H2848 C2872 0.950 . S
H2849 C2873 0.951 . S
H2850 C2875 0.951 . S
H2851 C2877 0.950 . S
H2852 C2878 0.950 . S
H2853 C2880 0.950 . S
H2854 C2883 0.950 . S
H2855 C2884 0.950 . S
H2856 C2886 0.950 . S
H2857 C2887 0.950 . S
C2858 H2840 0.951 . S
C2858 C2859 1.366 . S
C2858 C2860 1.388 . S
C2859 C2858 1.366 . S
C2859 C2863 1.385 . S
C2860 H2841 0.951 . S
C2860 C2858 1.388 . S
C2860 C2861 1.366 . S
C2861 C2860 1.366 . S
C2861 C2862 1.414 . S
C2861 C2864 1.499 . S
C2862 H2842 0.950 . S
C2862 C2861 1.414 . S
C2862 C2863 1.374 . S
C2863 H2843 0.950 . S
C2863 C2859 1.385 . S
C2863 C2862 1.374 . S
C2864 C2861 1.499 . S
C2864 C2865 1.373 . S
C2864 C2866 1.389 . S
C2865 H2844 0.950 . S
C2865 C2864 1.373 . S
C2865 C2881 1.377 . S
C2866 C2864 1.389 . S
C2866 C2867 1.524 . S
C2866 C2880 1.377 . S
C2867 C2866 1.524 . S
C2867 C2868 1.397 . S
C2867 C2872 1.363 . S
C2868 H2845 0.950 . S
C2868 C2867 1.397 . S
C2868 C2869 1.334 . S
C2869 H2846 0.950 . S
C2869 C2868 1.334 . S
C2869 C2870 1.287 . S
C2870 C2869 1.287 . S
C2870 C2871 1.524 . S
C2870 H2889 0.913 . S
C2871 H2847 0.950 . S
C2871 C2870 1.524 . S
C2871 C2872 1.415 . S
C2872 H2848 0.950 . S
C2872 C2867 1.363 . S
C2872 C2871 1.415 . S
C2873 H2849 0.951 . S
C2873 C2874 1.366 . S
C2873 C2875 1.388 . S
C2874 C2873 1.366 . S
C2874 C2878 1.385 . S
C2875 H2850 0.951 . S
C2875 C2873 1.388 . S
C2875 C2876 1.366 . S
C2876 C2875 1.366 . S
C2876 C2877 1.414 . S
C2876 C2879 1.499 . S
C2877 H2851 0.950 . S
C2877 C2876 1.414 . S
C2877 C2878 1.374 . S
C2878 H2852 0.950 . S
C2878 C2874 1.385 . S
C2878 C2877 1.374 . S
C2879 C2876 1.499 . S
C2879 C2880 1.373 . S
C2879 C2881 1.389 . S
C2880 H2853 0.950 . S
C2880 C2866 1.377 . S
C2880 C2879 1.373 . S
C2881 C2865 1.377 . S
C2881 C2879 1.389 . S
C2881 C2882 1.524 . S
C2882 C2881 1.524 . S
C2882 C2883 1.397 . S
C2882 C2887 1.363 . S
C2883 H2854 0.950 . S
C2883 C2882 1.397 . S
C2883 C2884 1.334 . S
C2884 H2855 0.950 . S
C2884 C2883 1.334 . S
C2884 C2885 1.287 . S
C2885 C2884 1.287 . S
C2885 C2886 1.524 . S
C2885 H2888 0.999 . S
C2886 H2856 0.950 . S
C2886 C2885 1.524 . S
C2886 C2887 1.415 . S
C2887 H2857 0.950 . S
C2887 C2882 1.363 . S
C2887 C2886 1.415 . S
H2888 C2885 0.999 . S
H2889 C2870 0.913 . S
H2890 C2908 0.951 . S
H2891 C2910 0.951 . S
H2892 C2912 0.950 . S
H2893 C2913 0.950 . S
H2894 C2915 0.950 . S
H2895 C2918 0.950 . S
H2896 C2919 0.950 . S
H2897 C2921 0.950 . S
H2898 C2922 0.950 . S
H2899 C2923 0.951 . S
H2900 C2925 0.951 . S
H2901 C2927 0.950 . S
H2902 C2928 0.950 . S
H2903 C2930 0.950 . S
H2904 C2933 0.950 . S
H2905 C2934 0.950 . S
H2906 C2936 0.950 . S
H2907 C2937 0.950 . S
C2908 H2890 0.951 . S
C2908 C2909 1.366 . S
C2908 C2910 1.388 . S
C2909 C2908 1.366 . S
C2909 C2913 1.385 . S
C2910 H2891 0.951 . S
C2910 C2908 1.388 . S
C2910 C2911 1.366 . S
C2911 C2910 1.366 . S
C2911 C2912 1.414 . S
C2911 C2914 1.499 . S
C2912 H2892 0.950 . S
C2912 C2911 1.414 . S
C2912 C2913 1.374 . S
C2913 H2893 0.950 . S
C2913 C2909 1.385 . S
C2913 C2912 1.374 . S
C2914 C2911 1.499 . S
C2914 C2915 1.373 . S
C2914 C2916 1.389 . S
C2915 H2894 0.950 . S
C2915 C2914 1.373 . S
C2915 C2931 1.377 . S
C2916 C2914 1.389 . S
C2916 C2917 1.524 . S
C2916 C2930 1.377 . S
C2917 C2916 1.524 . S
C2917 C2918 1.397 . S
C2917 C2922 1.363 . S
C2918 H2895 0.950 . S
C2918 C2917 1.397 . S
C2918 C2919 1.334 . S
C2919 H2896 0.950 . S
C2919 C2918 1.334 . S
C2919 C2920 1.287 . S
C2920 C2919 1.287 . S
C2920 C2921 1.524 . S
C2920 H2939 0.913 . S
C2921 H2897 0.950 . S
C2921 C2920 1.524 . S
C2921 C2922 1.415 . S
C2922 H2898 0.950 . S
C2922 C2917 1.363 . S
C2922 C2921 1.415 . S
C2923 H2899 0.951 . S
C2923 C2924 1.366 . S
C2923 C2925 1.388 . S
C2924 C2923 1.366 . S
C2924 C2928 1.385 . S
C2925 H2900 0.951 . S
C2925 C2923 1.388 . S
C2925 C2926 1.366 . S
C2926 C2925 1.366 . S
C2926 C2927 1.414 . S
C2926 C2929 1.499 . S
C2927 H2901 0.950 . S
C2927 C2926 1.414 . S
C2927 C2928 1.374 . S
C2928 H2902 0.950 . S
C2928 C2924 1.385 . S
C2928 C2927 1.374 . S
C2929 C2926 1.499 . S
C2929 C2930 1.373 . S
C2929 C2931 1.389 . S
C2930 H2903 0.950 . S
C2930 C2916 1.377 . S
C2930 C2929 1.373 . S
C2931 C2915 1.377 . S
C2931 C2929 1.389 . S
C2931 C2932 1.524 . S
C2932 C2931 1.524 . S
C2932 C2933 1.397 . S
C2932 C2937 1.363 . S
C2933 H2904 0.950 . S
C2933 C2932 1.397 . S
C2933 C2934 1.334 . S
C2934 H2905 0.950 . S
C2934 C2933 1.334 . S
C2934 C2935 1.287 . S
C2935 C2934 1.287 . S
C2935 C2936 1.524 . S
C2935 H2938 0.999 . S
C2936 H2906 0.950 . S
C2936 C2935 1.524 . S
C2936 C2937 1.415 . S
C2937 H2907 0.950 . S
C2937 C2932 1.363 . S
C2937 C2936 1.415 . S
H2938 C2935 0.999 . S
H2939 C2920 0.913 . S
H2940 C2958 0.951 . S
H2941 C2960 0.951 . S
H2942 C2962 0.950 . S
H2943 C2963 0.950 . S
H2944 C2965 0.950 . S
H2945 C2968 0.950 . S
H2946 C2969 0.950 . S
H2947 C2971 0.950 . S
H2948 C2972 0.950 . S
H2949 C2973 0.951 . S
H2950 C2975 0.951 . S
H2951 C2977 0.950 . S
H2952 C2978 0.950 . S
H2953 C2980 0.950 . S
H2954 C2983 0.950 . S
H2955 C2984 0.950 . S
H2956 C2986 0.950 . S
H2957 C2987 0.950 . S
C2958 H2940 0.951 . S
C2958 C2959 1.366 . S
C2958 C2960 1.388 . S
C2959 C2958 1.366 . S
C2959 C2963 1.385 . S
C2960 H2941 0.951 . S
C2960 C2958 1.388 . S
C2960 C2961 1.366 . S
C2961 C2960 1.366 . S
C2961 C2962 1.414 . S
C2961 C2964 1.499 . S
C2962 H2942 0.950 . S
C2962 C2961 1.414 . S
C2962 C2963 1.374 . S
C2963 H2943 0.950 . S
C2963 C2959 1.385 . S
C2963 C2962 1.374 . S
C2964 C2961 1.499 . S
C2964 C2965 1.373 . S
C2964 C2966 1.389 . S
C2965 H2944 0.950 . S
C2965 C2964 1.373 . S
C2965 C2981 1.377 . S
C2966 C2964 1.389 . S
C2966 C2967 1.524 . S
C2966 C2980 1.377 . S
C2967 C2966 1.524 . S
C2967 C2968 1.397 . S
C2967 C2972 1.363 . S
C2968 H2945 0.950 . S
C2968 C2967 1.397 . S
C2968 C2969 1.334 . S
C2969 H2946 0.950 . S
C2969 C2968 1.334 . S
C2969 C2970 1.287 . S
C2970 C2969 1.287 . S
C2970 C2971 1.524 . S
C2970 H2989 0.913 . S
C2971 H2947 0.950 . S
C2971 C2970 1.524 . S
C2971 C2972 1.415 . S
C2972 H2948 0.950 . S
C2972 C2967 1.363 . S
C2972 C2971 1.415 . S
C2973 H2949 0.951 . S
C2973 C2974 1.366 . S
C2973 C2975 1.388 . S
C2974 C2973 1.366 . S
C2974 C2978 1.385 . S
C2975 H2950 0.951 . S
C2975 C2973 1.388 . S
C2975 C2976 1.366 . S
C2976 C2975 1.366 . S
C2976 C2977 1.414 . S
C2976 C2979 1.499 . S
C2977 H2951 0.950 . S
C2977 C2976 1.414 . S
C2977 C2978 1.374 . S
C2978 H2952 0.950 . S
C2978 C2974 1.385 . S
C2978 C2977 1.374 . S
C2979 C2976 1.499 . S
C2979 C2980 1.373 . S
C2979 C2981 1.389 . S
C2980 H2953 0.950 . S
C2980 C2966 1.377 . S
C2980 C2979 1.373 . S
C2981 C2965 1.377 . S
C2981 C2979 1.389 . S
C2981 C2982 1.524 . S
C2982 C2981 1.524 . S
C2982 C2983 1.397 . S
C2982 C2987 1.363 . S
C2983 H2954 0.950 . S
C2983 C2982 1.397 . S
C2983 C2984 1.334 . S
C2984 H2955 0.950 . S
C2984 C2983 1.334 . S
C2984 C2985 1.287 . S
C2985 C2984 1.287 . S
C2985 C2986 1.524 . S
C2985 H2988 0.999 . S
C2986 H2956 0.950 . S
C2986 C2985 1.524 . S
C2986 C2987 1.415 . S
C2987 H2957 0.950 . S
C2987 C2982 1.363 . S
C2987 C2986 1.415 . S
H2988 C2985 0.999 . S
H2989 C2970 0.913 . S
H2990 C3008 0.951 . S
H2991 C3010 0.951 . S
H2992 C3012 0.950 . S
H2993 C3013 0.950 . S
H2994 C3015 0.950 . S
H2995 C3018 0.950 . S
H2996 C3019 0.950 . S
H2997 C3021 0.950 . S
H2998 C3022 0.950 . S
H2999 C3023 0.951 . S
H3000 C3025 0.951 . S
H3001 C3027 0.950 . S
H3002 C3028 0.950 . S
H3003 C3030 0.950 . S
H3004 C3033 0.950 . S
H3005 C3034 0.950 . S
H3006 C3036 0.950 . S
H3007 C3037 0.950 . S
C3008 H2990 0.951 . S
C3008 C3009 1.366 . S
C3008 C3010 1.388 . S
C3009 C3008 1.366 . S
C3009 C3013 1.385 . S
C3010 H2991 0.951 . S
C3010 C3008 1.388 . S
C3010 C3011 1.366 . S
C3011 C3010 1.366 . S
C3011 C3012 1.414 . S
C3011 C3014 1.499 . S
C3012 H2992 0.950 . S
C3012 C3011 1.414 . S
C3012 C3013 1.374 . S
C3013 H2993 0.950 . S
C3013 C3009 1.385 . S
C3013 C3012 1.374 . S
C3014 C3011 1.499 . S
C3014 C3015 1.373 . S
C3014 C3016 1.389 . S
C3015 H2994 0.950 . S
C3015 C3014 1.373 . S
C3015 C3031 1.377 . S
C3016 C3014 1.389 . S
C3016 C3017 1.524 . S
C3016 C3030 1.377 . S
C3017 C3016 1.524 . S
C3017 C3018 1.397 . S
C3017 C3022 1.363 . S
C3018 H2995 0.950 . S
C3018 C3017 1.397 . S
C3018 C3019 1.334 . S
C3019 H2996 0.950 . S
C3019 C3018 1.334 . S
C3019 C3020 1.287 . S
C3020 C3019 1.287 . S
C3020 C3021 1.524 . S
C3020 H3039 0.913 . S
C3021 H2997 0.950 . S
C3021 C3020 1.524 . S
C3021 C3022 1.415 . S
C3022 H2998 0.950 . S
C3022 C3017 1.363 . S
C3022 C3021 1.415 . S
C3023 H2999 0.951 . S
C3023 C3024 1.366 . S
C3023 C3025 1.388 . S
C3024 C3023 1.366 . S
C3024 C3028 1.385 . S
C3025 H3000 0.951 . S
C3025 C3023 1.388 . S
C3025 C3026 1.366 . S
C3026 C3025 1.366 . S
C3026 C3027 1.414 . S
C3026 C3029 1.499 . S
C3027 H3001 0.950 . S
C3027 C3026 1.414 . S
C3027 C3028 1.374 . S
C3028 H3002 0.950 . S
C3028 C3024 1.385 . S
C3028 C3027 1.374 . S
C3029 C3026 1.499 . S
C3029 C3030 1.373 . S
C3029 C3031 1.389 . S
C3030 H3003 0.950 . S
C3030 C3016 1.377 . S
C3030 C3029 1.373 . S
C3031 C3015 1.377 . S
C3031 C3029 1.389 . S
C3031 C3032 1.524 . S
C3032 C3031 1.524 . S
C3032 C3033 1.397 . S
C3032 C3037 1.363 . S
C3033 H3004 0.950 . S
C3033 C3032 1.397 . S
C3033 C3034 1.334 . S
C3034 H3005 0.950 . S
C3034 C3033 1.334 . S
C3034 C3035 1.287 . S
C3035 C3034 1.287 . S
C3035 C3036 1.524 . S
C3035 H3038 0.999 . S
C3036 H3006 0.950 . S
C3036 C3035 1.524 . S
C3036 C3037 1.415 . S
C3037 H3007 0.950 . S
C3037 C3032 1.363 . S
C3037 C3036 1.415 . S
H3038 C3035 0.999 . S
H3039 C3020 0.913 . S
C659 C15 1.129 . S
C674 C59 1.146 . S
C709 C95 0.361 . S
C724 C46 0.112 . S
C759 C126 1.798 . S
C774 C98 1.758 . S
C809 C18 1.884 . S
C824 C139 1.903 . S
C859 C9 1.518 . S
C874 C370 1.503 . S
C909 C286 1.210 . S
C924 C50 1.275 . S
C959 C86 0.362 . S
C974 C415 0.111 . S
C1009 C135 1.797 . S
C1024 C529 1.757 . S
C1059 C329 0.412 . S
C1074 C55 0.408 . S
C1109 C495 1.797 . S
C1124 C89 1.758 . S
C1159 C569 1.884 . S
C1174 C130 1.902 . S
C1209 C6 1.210 . S
C1224 C450 1.275 . S
C1259 C19 1.316 . S
C1274 C339 1.335 . S
C1309 C498 2.229 . S
C1324 C169 2.252 . S
C1359 C210 1.335 . S
C1374 C570 1.315 . S
C1409 C449 1.420 . S
C1424 C258 1.505 . S
C1459 C99 1.681 . S
C1474 C290 1.648 . S
C1509 C369 1.505 . S
C1524 C178 1.420 . S
C1559 C249 1.506 . S
C1574 C418 1.419 . S
C1609 C209 0.411 . S
C1624 C455 0.408 . S
C1659 C375 1.033 . S
C1674 C206 1.136 . S
C1709 C459 1.146 . S
C1724 C295 1.129 . S
C1759 C218 0.412 . S
C1774 C166 0.408 . S
C1809 C366 1.034 . S
C1824 C335 1.135 . S
C1859 C535 0.365 . S
C1874 C446 0.113 . S
C1909 C246 1.033 . S
C1924 C215 1.136 . S
C1959 C379 1.503 . S
C1974 C578 1.519 . S
C2009 C539 1.681 . S
C2024 C10 1.648 . S
C2059 C90 1.681 . S
C2074 C579 1.648 . S
C2109 C489 2.230 . S
C2124 C58 2.251 1_655 S
C2159 C299 1.314 . S
C2174 C219 1.334 . S
C2209 C138 2.229 . S
C2224 C409 2.251 . S
C2259 C486 1.797 . S
C2274 C538 1.758 . S
C2309 C298 1.883 . S
C2324 C499 1.902 . S
C2359 C250 1.503 . S
C2374 C289 1.519 . S
C2409 C175 0.112 . S
C2424 C526 0.364 . S
C2459 C490 1.902 . S
C2474 C609 1.883 . S
C2509 C610 1.315 . S
C2524 C330 1.334 . S
C2559 C49 1.420 . S
C2574 C378 1.505 . S
C2609 C326 1.135 . S
C2624 C255 1.034 . S
C2659 C338 0.412 . S
C2674 C406 0.407 . S
C2709 C618 1.519 . S
C2724 C259 1.503 . S
C2759 C530 1.681 . S
C2774 C619 1.648 . S
C2809 C458 2.251 1_655 S
C2824 C129 2.229 . S
C2859 C419 1.275 . S
C2874 C575 1.210 . S
C2909 C410 1.146 . S
C2924 C606 1.130 . S
C2959 C170 1.146 . S
C2974 C566 1.130 . S
C3009 C615 1.210 . S
C3024 C179 1.275 . S
