# Generated by pormake.
# Topology wgb, (5)-cn, num edge types: 1
# Building blocks:
#     Node 0, Type 0, BuildingBlock: BEQFEK_clean_sbu_0, # of connection points: 5
#     Node 1, Type 0, BuildingBlock: BEQFEK_clean_sbu_0, # of connection points: 5
#     Node 2, Type 0, BuildingBlock: BEQFEK_clean_sbu_0, # of connection points: 5
#     Node 3, Type 0, BuildingBlock: BEQFEK_clean_sbu_0, # of connection points: 5
#     Node 4, Type 0, BuildingBlock: BEQFEK_clean_sbu_0, # of connection points: 5
#     Node 5, Type 0, BuildingBlock: BEQFEK_clean_sbu_0, # of connection points: 5
#     Node 6, Type 0, BuildingBlock: BEQFEK_clean_sbu_0, # of connection points: 5
#     Node 7, Type 0, BuildingBlock: BEQFEK_clean_sbu_0, # of connection points: 5
#     Node 8, Type 0, BuildingBlock: BEQFEK_clean_sbu_0, # of connection points: 5
#     Node 9, Type 0, BuildingBlock: BEQFEK_clean_sbu_0, # of connection points: 5
#     Node 10, Type 0, BuildingBlock: BEQFEK_clean_sbu_0, # of connection points: 5
#     Node 11, Type 0, BuildingBlock: BEQFEK_clean_sbu_0, # of connection points: 5
#     Node 12, Type 0, BuildingBlock: BEQFEK_clean_sbu_0, # of connection points: 5
#     Node 13, Type 0, BuildingBlock: BEQFEK_clean_sbu_0, # of connection points: 5
#     Node 14, Type 0, BuildingBlock: BEQFEK_clean_sbu_0, # of connection points: 5
#     Node 15, Type 0, BuildingBlock: BEQFEK_clean_sbu_0, # of connection points: 5
#     Edge 16, Type (0, 0), BuildingBlock: EZIPEK_clean_linker_0, # of connection points: 2
#     Edge 17, Type (0, 0), BuildingBlock: EZIPEK_clean_linker_0, # of connection points: 2
#     Edge 18, Type (0, 0), BuildingBlock: EZIPEK_clean_linker_0, # of connection points: 2
#     Edge 19, Type (0, 0), BuildingBlock: EZIPEK_clean_linker_0, # of connection points: 2
#     Edge 20, Type (0, 0), BuildingBlock: EZIPEK_clean_linker_0, # of connection points: 2
#     Edge 21, Type (0, 0), BuildingBlock: EZIPEK_clean_linker_0, # of connection points: 2
#     Edge 22, Type (0, 0), BuildingBlock: EZIPEK_clean_linker_0, # of connection points: 2
#     Edge 23, Type (0, 0), BuildingBlock: EZIPEK_clean_linker_0, # of connection points: 2
#     Edge 24, Type (0, 0), BuildingBlock: EZIPEK_clean_linker_0, # of connection points: 2
#     Edge 25, Type (0, 0), BuildingBlock: EZIPEK_clean_linker_0, # of connection points: 2
#     Edge 26, Type (0, 0), BuildingBlock: EZIPEK_clean_linker_0, # of connection points: 2
#     Edge 27, Type (0, 0), BuildingBlock: EZIPEK_clean_linker_0, # of connection points: 2
#     Edge 28, Type (0, 0), BuildingBlock: EZIPEK_clean_linker_0, # of connection points: 2
#     Edge 29, Type (0, 0), BuildingBlock: EZIPEK_clean_linker_0, # of connection points: 2
#     Edge 30, Type (0, 0), BuildingBlock: EZIPEK_clean_linker_0, # of connection points: 2
#     Edge 31, Type (0, 0), BuildingBlock: EZIPEK_clean_linker_0, # of connection points: 2
#     Edge 32, Type (0, 0), BuildingBlock: EZIPEK_clean_linker_0, # of connection points: 2
#     Edge 33, Type (0, 0), BuildingBlock: EZIPEK_clean_linker_0, # of connection points: 2
#     Edge 34, Type (0, 0), BuildingBlock: EZIPEK_clean_linker_0, # of connection points: 2
#     Edge 35, Type (0, 0), BuildingBlock: EZIPEK_clean_linker_0, # of connection points: 2
#     Edge 36, Type (0, 0), BuildingBlock: EZIPEK_clean_linker_0, # of connection points: 2
#     Edge 37, Type (0, 0), BuildingBlock: EZIPEK_clean_linker_0, # of connection points: 2
#     Edge 38, Type (0, 0), BuildingBlock: EZIPEK_clean_linker_0, # of connection points: 2
#     Edge 39, Type (0, 0), BuildingBlock: EZIPEK_clean_linker_0, # of connection points: 2
#     Edge 40, Type (0, 0), BuildingBlock: EZIPEK_clean_linker_0, # of connection points: 2
#     Edge 41, Type (0, 0), BuildingBlock: EZIPEK_clean_linker_0, # of connection points: 2
#     Edge 42, Type (0, 0), BuildingBlock: EZIPEK_clean_linker_0, # of connection points: 2
#     Edge 43, Type (0, 0), BuildingBlock: EZIPEK_clean_linker_0, # of connection points: 2
#     Edge 44, Type (0, 0), BuildingBlock: EZIPEK_clean_linker_0, # of connection points: 2
#     Edge 45, Type (0, 0), BuildingBlock: EZIPEK_clean_linker_0, # of connection points: 2
#     Edge 46, Type (0, 0), BuildingBlock: EZIPEK_clean_linker_0, # of connection points: 2
#     Edge 47, Type (0, 0), BuildingBlock: EZIPEK_clean_linker_0, # of connection points: 2
#     Edge 48, Type (0, 0), BuildingBlock: EZIPEK_clean_linker_0, # of connection points: 2
#     Edge 49, Type (0, 0), BuildingBlock: EZIPEK_clean_linker_0, # of connection points: 2
#     Edge 50, Type (0, 0), BuildingBlock: EZIPEK_clean_linker_0, # of connection points: 2
#     Edge 51, Type (0, 0), BuildingBlock: EZIPEK_clean_linker_0, # of connection points: 2
#     Edge 52, Type (0, 0), BuildingBlock: EZIPEK_clean_linker_0, # of connection points: 2
#     Edge 53, Type (0, 0), BuildingBlock: EZIPEK_clean_linker_0, # of connection points: 2
#     Edge 54, Type (0, 0), BuildingBlock: EZIPEK_clean_linker_0, # of connection points: 2
#     Edge 55, Type (0, 0), BuildingBlock: EZIPEK_clean_linker_0, # of connection points: 2
# Relax obj value: 0.155
# Max RMSD: 0.143
# Mean RMSD: 0.143
data_MOF--net-wgb--node1-BEQFEK_clean_sbu_0--edge1-EZIPEK_clean_linker_0
_symmetry_space_group_name_H-M    P1
_symmetry_Int_Tables_number       1
_symmetry_cell_setting            triclinic
loop_
_symmetry_equiv_pos_as_xyz
'x, y, z'
_cell_length_a     49.402751
_cell_length_b     49.452831
_cell_length_c     14.928875
_cell_angle_alpha  89.949337
_cell_angle_beta   89.942976
_cell_angle_gamma 90.072349
loop_
_atom_site_label
_atom_site_type_symbol
_atom_site_fract_x
_atom_site_fract_y
_atom_site_fract_z
_atom_type_partial_charge
Co0 Co 0.34354 0.05639 0.12936 0.0
Co1 Co 0.32374 0.11781 0.14519 0.0
C2 C 0.30184 0.08232 0.00189 0.0
O3 O 0.31551 0.06189 0.02979 0.0
O4 O 0.30553 0.10597 0.034 0.0
C5 C 0.37749 1.00392 0.12247 0.0
O6 O 0.39392 0.01259 0.05948 0.0
C7 C 0.31761 0.17773 0.12541 0.0
C8 C 0.30495 0.18843 0.26299 0.0
C9 C 0.31104 0.19938 0.18029 0.0
N10 N 0.31579 0.15485 0.17395 0.0
N11 N 0.3079 0.16148 0.25579 0.0
C12 C 0.32622 0.17897 0.02956 0.0
H13 H 0.33315 0.15884 0.00612 0.0
H14 H 0.34267 0.1941 0.02151 0.0
H15 H 0.30887 0.18576 0.98808 0.0
C16 C 0.39697 0.08496 0.16822 0.0
N17 N 0.37033 0.08503 0.14575 0.0
N18 N 0.36153 0.11021 0.15107 0.0
C19 C 0.38211 0.12648 0.17646 0.0
C20 C 0.40511 0.1111 0.18855 0.0
C21 C 0.41437 0.06046 0.17681 0.0
H22 H 0.4204 0.0537 0.10894 0.0
H23 H 0.43307 0.06481 0.21541 0.0
H24 H 0.40313 0.04415 0.21053 0.0
O25 O 0.32037 0.05587 0.23402 0.0
O26 O 0.30472 0.09785 0.23836 0.0
H27 H 0.39894 0.16489 0.21891 0.0
H28 H 0.37205 0.16674 0.13816 0.0
C29 C 0.37937 0.15584 0.19813 0.0
H30 H 0.36452 0.15838 0.25316 0.0
H31 H 0.30512 0.14761 0.30772 0.0
O32 O 0.3575 0.01841 0.14618 0.0
C33 C 0.30503 0.07372 0.26675 0.0
Co34 Co 0.05396 0.67264 0.86996 0.0
Co35 Co 0.11656 0.68923 0.87363 0.0
C36 C 0.07872 0.70844 0.01595 0.0
O37 O 0.05882 0.69488 0.98371 0.0
O38 O 0.10259 0.7067 0.98351 0.0
C39 C 1.00318 0.63811 0.86985 0.0
O40 O 0.01476 0.62057 0.9236 0.0
C41 C 0.17643 0.69574 0.90289 0.0
C42 C 0.18912 0.70305 0.76273 0.0
C43 C 0.19885 0.70049 0.8489 0.0
N44 N 0.15428 0.69528 0.85043 0.0
N45 N 0.16213 0.69985 0.76697 0.0
C46 C 0.17622 0.69137 0.00189 0.0
H47 H 0.1554 0.68708 0.02609 0.0
H48 H 0.18977 0.67425 0.01908 0.0
H49 H 0.18427 0.70967 0.03568 0.0
C50 C 0.08106 0.61973 0.81505 0.0
N51 N 0.08152 0.64528 0.84831 0.0
N52 N 0.1071 0.65227 0.85961 0.0
C53 C 0.12321 0.63123 0.83818 0.0
C54 C 0.10733 0.61014 0.80849 0.0
C55 C 0.05668 0.60545 0.77966 0.0
H56 H 0.04152 0.62019 0.75681 0.0
H57 H 0.04806 0.59245 0.83307 0.0
H58 H 0.06215 0.59209 0.72274 0.0
O59 O 0.05632 0.7005 0.77793 0.0
O60 O 0.10004 0.71062 0.77986 0.0
H61 H 0.16075 0.6439 0.78097 0.0
H62 H 0.16207 0.61122 0.83389 0.0
C63 C 0.15343 0.63188 0.83886 0.0
H64 H 0.16054 0.64143 0.90165 0.0
H65 H 0.14903 0.7004 0.71223 0.0
O66 O 0.01562 0.65981 0.84986 0.0
C67 C 0.07634 0.71415 0.75012 0.0
Co68 Co 0.67155 0.95659 0.13216 0.0
Co69 Co 0.6871 0.89401 0.12571 0.0
C70 C 0.70674 0.93181 0.98373 0.0
O71 O 0.69355 0.95179 0.01708 0.0
O72 O 0.70468 0.90792 0.01562 0.0
C73 C 0.63764 0.00768 0.13798 0.0
O74 O 0.6195 0.99651 0.08544 0.0
C75 C 0.69433 0.83472 0.09089 0.0
C76 C 0.69697 0.82021 0.2309 0.0
C77 C 0.69736 0.81161 0.14294 0.0
N78 N 0.69203 0.8561 0.14612 0.0
N79 N 0.69379 0.84719 0.2295 0.0
C80 C 0.69397 0.83652 0.991 0.0
H81 H 0.71513 0.8369 0.96608 0.0
H82 H 0.68369 0.85535 0.96915 0.0
H83 H 0.68376 0.81858 0.96177 0.0
C84 C 0.61834 0.93002 0.18962 0.0
N85 N 0.64368 0.92943 0.15421 0.0
N86 N 0.65015 0.90388 0.14034 0.0
C87 C 0.62885 0.88797 0.16135 0.0
C88 C 0.60818 0.90388 0.19425 0.0
C89 C 0.60506 0.95418 0.2302 0.0
H90 H 0.59145 0.96359 0.18013 0.0
H91 H 0.59245 0.94826 0.28863 0.0
H92 H 0.62042 0.96887 0.25225 0.0
O93 O 0.69973 0.95347 0.22247 0.0
O94 O 0.70926 0.90967 0.22036 0.0
H95 H 0.63896 0.84948 0.21682 0.0
H96 H 0.60774 0.84981 0.15516 0.0
C97 C 0.62875 0.85779 0.15673 0.0
H98 H 0.63965 0.85106 0.09583 0.0
H99 H 0.69254 0.85959 0.28585 0.0
O100 O 0.65945 0.99504 0.15491 0.0
C101 C 0.71327 0.93336 0.24971 0.0
Co102 Co 0.95686 0.33705 0.8554 0.0
Co103 Co 0.89488 0.32017 0.85325 0.0
C104 C 0.93133 0.29691 0.98953 0.0
O105 O 0.95175 0.30948 0.95639 0.0
O106 O 0.90732 0.30153 0.96238 0.0
C107 C 0.00655 0.37295 0.86308 0.0
O108 O 0.99366 0.3907 0.91264 0.0
C109 C 0.83494 0.31736 0.87961 0.0
C110 C 0.82298 0.29666 0.75442 0.0
C111 C 0.81277 0.30785 0.83207 0.0
N112 N 0.8574 0.3122 0.83163 0.0
N113 N 0.85001 0.29971 0.75715 0.0
C114 C 0.8347 0.33105 0.96874 0.0
H115 H 0.85538 0.3378 0.9874 0.0
H116 H 0.82078 0.34864 0.9668 0.0
H117 H 0.82688 0.31678 0.02004 0.0
C118 C 0.9311 0.39007 0.80793 0.0
N119 N 0.92928 0.36487 0.84295 0.0
N120 N 0.9036 0.35792 0.84637 0.0
C121 C 0.88836 0.37891 0.81823 0.0
C122 C 0.90501 0.40146 0.80187 0.0
C123 C 0.95402 0.39686 0.74572 0.0
H124 H 0.96368 0.37795 0.7231 0.0
H125 H 0.96949 0.40939 0.77947 0.0
H126 H 0.94679 0.40755 0.68496 0.0
O127 O 0.95581 0.31453 0.74983 0.0
O128 O 0.91316 0.30067 0.75719 0.0
H129 H 0.85503 0.38996 0.72944 0.0
H130 H 0.84553 0.37429 0.83473 0.0
C131 C 0.86062 0.37454 0.77982 0.0
H132 H 0.85994 0.35496 0.74435 0.0
H133 H 0.86341 0.29344 0.7073 0.0
O134 O 0.99518 0.35062 0.84419 0.0
C135 C 0.93654 0.29991 0.72246 0.0
Co136 Co 0.33851 0.45902 0.11666 0.0
Co137 Co 0.32595 0.39639 0.1362 0.0
C138 C 0.30391 0.43251 0.27008 0.0
O139 O 0.31364 0.45263 0.22592 0.0
O140 O 0.30951 0.40815 0.2493 0.0
C141 C 0.37204 0.50993 0.12034 0.0
O142 O 0.39085 0.49705 0.16543 0.0
C143 C 0.3202 0.33643 0.16256 0.0
C144 C 0.31673 0.32386 0.02081 0.0
C145 C 0.31706 0.31405 0.10737 0.0
N146 N 0.32175 0.35863 0.11052 0.0
N147 N 0.31956 0.35085 0.02606 0.0
C148 C 0.32169 0.33663 0.26247 0.0
H149 H 0.32905 0.3565 0.28702 0.0
H150 H 0.33524 0.32024 0.28617 0.0
H151 H 0.30121 0.3327 0.29021 0.0
C152 C 0.39231 0.4343 0.06118 0.0
N153 N 0.36757 0.43308 0.10055 0.0
N154 N 0.36239 0.40752 0.11938 0.0
C155 C 0.38406 0.39226 0.09805 0.0
C156 C 0.40353 0.4086 0.0595 0.0
C157 C 0.40349 0.45827 0.01263 0.0
H158 H 0.38713 0.47249 0.99552 0.0
H159 H 0.4188 0.46839 0.0553 0.0
H160 H 0.41386 0.45194 0.95011 0.0
O161 O 0.31416 0.45519 0.0153 0.0
O162 O 0.30264 0.41288 0.04555 0.0
H163 H 0.37534 0.35304 0.04587 0.0
H164 H 0.40645 0.35496 0.10773 0.0
C165 C 0.38518 0.36214 0.10538 0.0
H166 H 0.37442 0.35543 0.16666 0.0
H167 H 0.32028 0.36403 0.97156 0.0
O168 O 0.34978 0.49807 0.10346 0.0
C169 C 0.29933 0.4347 0.00225 0.0
Co170 Co 0.45759 0.67467 0.89192 0.0
Co171 Co 0.39559 0.69307 0.9018 0.0
C172 C 0.43233 0.71006 0.74933 0.0
O173 O 0.45234 0.69581 0.77691 0.0
O174 O 0.40929 0.70949 0.78835 0.0
C175 C 0.50979 0.64179 0.88732 0.0
O176 O 0.50012 0.62574 0.825 0.0
C177 C 0.3356 0.69744 0.87401 0.0
C178 C 0.32347 0.71252 0.00761 0.0
C179 C 0.31337 0.70482 0.92537 0.0
N180 N 0.35802 0.70044 0.92424 0.0
N181 N 0.3505 0.70966 0.00369 0.0
C182 C 0.33539 0.68734 0.77978 0.0
H183 H 0.35604 0.68128 0.75844 0.0
H184 H 0.32134 0.66988 0.77421 0.0
H185 H 0.32772 0.70351 0.73495 0.0
C186 C 0.43043 0.62168 0.94542 0.0
N187 N 0.42975 0.64784 0.91792 0.0
N188 N 0.40427 0.65592 0.91936 0.0
C189 C 0.38838 0.63534 0.94742 0.0
C190 C 0.40438 0.61313 0.96513 0.0
C191 C 0.45529 0.60492 0.95657 0.0
H192 H 0.47154 0.61708 0.9867 0.0
H193 H 0.46187 0.59757 0.88994 0.0
H194 H 0.4514 0.58703 -0.0003 0.0
O195 O 0.45661 0.70357 0.98124 0.0
O196 O 0.41327 0.71461 0.99236 0.0
H197 H 0.35 0.61783 0.98724 0.0
H198 H 0.34852 0.64288 0.89965 0.0
C199 C 0.3586 0.63727 0.96319 0.0
H200 H 0.35449 0.65314 0.01374 0.0
H201 H 0.36383 0.71358 0.05628 0.0
O202 O 0.49571 0.66175 0.91368 0.0
C203 C 0.43777 0.7177 0.0146 0.0
Co204 Co 0.67165 0.55537 0.11499 0.0
Co205 Co 0.69314 0.61616 0.09262 0.0
C206 C 0.7144 0.58007 0.23802 0.0
O207 O 0.69988 0.55984 0.21344 0.0
O208 O 0.71155 0.60344 0.20279 0.0
C209 C 0.64078 0.50087 0.1396 0.0
O210 O 0.63191 0.50619 0.22069 0.0
C211 C 0.69786 0.67597 0.11358 0.0
C212 C 0.71633 0.68692 0.98351 0.0
C213 C 0.70655 0.69772 0.0624 0.0
N214 N 0.70204 0.65316 0.06656 0.0
N215 N 0.71334 0.65993 0.98926 0.0
C216 C 0.68531 0.67698 0.20458 0.0
H217 H 0.67746 0.65677 0.2242 0.0
H218 H 0.66871 0.69208 0.20537 0.0
H219 H 0.70076 0.68367 0.25375 0.0
C220 C 0.61877 0.5852 0.08644 0.0
N221 N 0.64578 0.58482 0.10251 0.0
N222 N 0.65533 0.60938 0.08759 0.0
C223 C 0.63511 0.62538 0.05783 0.0
C224 C 0.61139 0.61063 0.05626 0.0
C225 C 0.59999 0.56171 0.09444 0.0
H226 H 0.60961 0.54493 0.13091 0.0
H227 H 0.58142 0.56803 0.13075 0.0
H228 H 0.59356 0.55523 0.02661 0.0
O229 O 0.69447 0.55444 0.00829 0.0
O230 O 0.71081 0.59615 -0.00145 0.0
H231 H 0.65626 0.65377 0.97488 0.0
H232 H 0.62049 0.66049 0.98565 0.0
C233 C 0.6388 0.65332 0.02148 0.0
H234 H 0.64278 0.66732 0.07775 0.0
H235 H 0.71854 0.64613 0.9393 0.0
O236 O 0.65563 0.51802 0.0991 0.0
C237 C 0.70977 0.57186 0.97228 0.0
Co238 Co 0.55404 0.34012 0.88253 0.0
Co239 Co 0.61631 0.32294 0.88846 0.0
C240 C 0.57997 0.30523 0.73788 0.0
O241 O 0.55978 0.31894 0.76717 0.0
O242 O 0.60321 0.30634 0.77521 0.0
C243 C 0.50236 0.37362 0.8812 0.0
O244 O 0.51298 0.39101 0.82461 0.0
C245 C 0.6761 0.31726 0.85997 0.0
C246 C 0.68865 0.30793 -0.00116 0.0
C247 C 0.6985 0.31197 0.91329 0.0
N248 N 0.6539 0.31667 0.91222 0.0
N249 N 0.66164 0.3109 0.99489 0.0
C250 C 0.67594 0.32297 0.7617 0.0
H251 H 0.65509 0.32727 0.73803 0.0
H252 H 0.68927 0.3405 0.74706 0.0
H253 H 0.68424 0.30526 0.72526 0.0
C254 C 0.58053 0.39285 0.94304 0.0
N255 N 0.58144 0.36729 0.90989 0.0
N256 N 0.6071 0.35993 0.90568 0.0
C257 C 0.6229 0.38058 0.93343 0.0
C258 C 0.60666 0.40192 0.9588 0.0
C259 C 0.55547 0.40777 0.96876 0.0
H260 H 0.54 0.39351 0.99288 0.0
H261 H 0.54778 0.41891 0.90961 0.0
H262 H 0.55967 0.4228 0.02221 0.0
O263 O 0.55537 0.31129 0.97182 0.0
O264 O 0.59893 0.30082 0.9792 0.0
H265 H 0.65881 0.36622 0.99703 0.0
H266 H 0.66171 0.39998 0.95259 0.0
C267 C 0.65303 0.37959 0.9406 0.0
H268 H 0.6615 0.37135 0.87762 0.0
H269 H 0.64845 0.30935 0.04929 0.0
O270 O 0.51566 0.35263 0.90277 0.0
C271 C 0.5746 0.29732 0.0033 0.0
Co272 Co 0.84189 0.5524 0.62158 0.0
Co273 Co 0.82433 0.61461 0.62544 0.0
C274 C 0.80704 0.57699 0.47613 0.0
O275 O 0.82095 0.55696 0.50569 0.0
O276 O 0.80794 0.60034 0.51287 0.0
C277 C 0.86883 0.49634 0.60656 0.0
O278 O 0.87228 0.4974 0.5194 0.0
C279 C 0.81923 0.6745 0.59521 0.0
C280 C 0.80855 0.68716 0.73288 0.0
C281 C 0.81353 0.69696 0.64783 0.0
N282 N 0.81793 0.65232 0.64745 0.0
N283 N 0.8114 0.66016 0.7294 0.0
C284 C 0.82593 0.67424 0.49764 0.0
H285 H 0.82881 0.65322 0.47345 0.0
H286 H 0.84468 0.6861 0.48583 0.0
H287 H 0.80938 0.68415 0.45956 0.0
C288 C 0.89379 0.57815 0.6776 0.0
N289 N 0.86825 0.57992 0.64575 0.0
N290 N 0.86119 0.60559 0.64354 0.0
C291 C 0.88213 0.62081 0.67237 0.0
C292 C 0.90333 0.60397 0.69573 0.0
C293 C 0.90806 0.55216 0.69643 0.0
H294 H 0.89629 0.54029 0.74613 0.0
H295 H 0.90917 0.54028 0.63371 0.0
H296 H 0.92882 0.55567 0.72236 0.0
O297 O 0.81289 0.55372 0.7103 0.0
O298 O 0.80238 0.5973 0.71673 0.0
H299 H 0.86718 0.65598 0.73875 0.0
H300 H 0.90162 0.65913 0.69976 0.0
C301 C 0.88132 0.6508 0.68371 0.0
H302 H 0.8739 0.66012 0.62092 0.0
H303 H 0.80923 0.64703 0.7837 0.0
O304 O 0.85768 0.51588 0.64782 0.0
C305 C 0.79891 0.57302 0.74129 0.0
Co306 Co 0.55574 0.17068 0.37545 0.0
Co307 Co 0.61692 0.19007 0.35197 0.0
C308 C 0.5829 0.21277 0.49803 0.0
O309 O 0.5622 0.19903 0.47271 0.0
O310 O 0.60627 0.20907 0.46339 0.0
C311 C 0.49912 0.1624 0.3435 0.0
O312 O 0.5003 0.18786 0.31889 0.0
C313 C 0.67701 0.19533 0.36198 0.0
C314 C 0.68607 0.20893 0.22398 0.0
C315 C 0.69801 0.20217 0.30452 0.0
N316 N 0.65353 0.19772 0.31713 0.0
N317 N 0.65917 0.20607 0.23492 0.0
C318 C 0.67935 0.18626 0.4571 0.0
H319 H 0.65935 0.17976 0.48346 0.0
H320 H 0.69407 0.16937 0.46186 0.0
H321 H 0.68728 0.20318 0.49825 0.0
C322 C 0.58211 0.11814 0.33622 0.0
N323 N 0.58391 0.14451 0.35924 0.0
N324 N 0.60922 0.15246 0.34959 0.0
C325 C 0.62417 0.13138 0.32047 0.0
C326 C 0.60755 0.10903 0.31065 0.0
C327 C 0.55605 0.10298 0.32744 0.0
H328 H 0.54349 0.11262 0.27475 0.0
H329 H 0.54474 0.10407 0.39157 0.0
H330 H 0.55956 0.08148 0.30963 0.0
O331 O 0.55335 0.19247 0.26695 0.0
O332 O 0.59549 0.20808 0.26062 0.0
H333 H 0.65508 0.14849 0.23774 0.0
H334 H 0.66089 0.11357 0.26743 0.0
C335 C 0.6531 0.13326 0.2919 0.0
H336 H 0.66551 0.13981 0.34965 0.0
H337 H 0.64465 0.20937 0.18541 0.0
O338 O 0.51984 0.15146 0.37903 0.0
C339 C 0.57127 0.20763 0.23286 0.0
Co340 Co 0.17443 0.45754 0.65386 0.0
Co341 Co 0.18195 0.39468 0.62776 0.0
C342 C 0.21086 0.43129 0.50734 0.0
O343 O 0.20069 0.45151 0.54931 0.0
O344 O 0.20404 0.407 0.52561 0.0
C345 C 0.14344 0.50908 0.65005 0.0
O346 O 0.12541 0.49682 0.59977 0.0
C347 C 0.1883 0.33495 0.601 0.0
C348 C 0.17785 0.32144 0.73827 0.0
C349 C 0.18595 0.31224 0.65525 0.0
N350 N 0.18173 0.35674 0.65019 0.0
N351 N 0.17557 0.34842 0.73198 0.0
C352 C 0.19772 0.33606 0.50599 0.0
H353 H 0.22001 0.3389 0.50518 0.0
H354 H 0.18832 0.35349 0.47103 0.0
H355 H 0.19288 0.31693 0.47059 0.0
C356 C 0.11844 0.43598 0.69758 0.0
N357 N 0.14315 0.43387 0.65849 0.0
N358 N 0.14633 0.40864 0.63211 0.0
C359 C 0.12329 0.39472 0.64713 0.0
C360 C 0.10515 0.41129 0.69109 0.0
C361 C 0.10932 0.45929 0.75366 0.0
H362 H 0.09551 0.47224 0.71393 0.0
H363 H 0.0978 0.45223 0.81305 0.0
H364 H 0.12694 0.47116 0.77635 0.0
O365 O 0.19628 0.45005 0.75897 0.0
O366 O 0.20195 0.40681 0.73228 0.0
H367 H 0.12278 0.35364 0.69202 0.0
H368 H 0.09846 0.36116 0.60711 0.0
C369 C 0.11952 0.36519 0.62926 0.0
H370 H 0.13372 0.35819 0.57669 0.0
H371 H 0.16998 0.36133 0.78407 0.0
O372 O 0.16518 0.49682 0.67023 0.0
C373 C 0.20635 0.42738 0.78019 0.0
Co374 Co 0.45782 0.84417 0.38511 0.0
Co375 Co 0.39639 0.82509 0.36402 0.0
C376 C 0.4306 0.80253 0.50944 0.0
O377 O 0.45137 0.81602 0.48321 0.0
O378 O 0.40721 0.8064 0.47548 0.0
C379 C 0.5147 0.85194 0.35244 0.0
O380 O 0.51338 0.82652 0.32769 0.0
C381 C 0.33649 0.8194 0.3807 0.0
C382 C 0.32601 0.80611 0.24366 0.0
C383 C 0.31492 0.81233 0.32607 0.0
N384 N 0.35945 0.81761 0.33251 0.0
N385 N 0.35296 0.8095 0.25083 0.0
C386 C 0.3352 0.8279 0.47658 0.0
H387 H 0.35555 0.83387 0.50118 0.0
H388 H 0.32092 0.84507 0.48385 0.0
H389 H 0.32726 0.81091 0.51755 0.0
C390 C 0.43168 0.89651 0.34204 0.0
N391 N 0.42973 0.87041 0.36823 0.0
N392 N 0.40436 0.86256 0.35996 0.0
C393 C 0.38951 0.88343 0.32875 0.0
C394 C 0.4063 0.9055 0.31558 0.0
C395 C 0.45782 0.91141 0.33105 0.0
H396 H 0.46998 0.90155 0.27785 0.0
H397 H 0.46948 0.91041 0.39443 0.0
H398 H 0.45441 0.93289 0.31266 0.0
O399 O 0.45979 0.82213 0.27747 0.0
O400 O 0.41748 0.80679 0.27212 0.0
H401 H 0.35828 0.86653 0.24709 0.0
H402 H 0.35243 0.90127 0.27898 0.0
C403 C 0.36045 0.88149 0.30191 0.0
H404 H 0.34843 0.87453 0.36016 0.0
H405 H 0.36696 0.80655 0.19935 0.0
O406 O 0.49396 0.86308 0.38726 0.0
C407 C 0.44171 0.80706 0.24401 0.0
Co408 Co 0.84106 0.95511 0.61715 0.0
Co409 Co 0.8227 0.89353 0.60538 0.0
C410 C 0.7998 0.92934 0.74617 0.0
O411 O 0.81314 0.9498 0.71688 0.0
O412 O 0.80371 0.90563 0.71504 0.0
C413 C 0.84917 0.0117 0.57961 0.0
O414 O 0.82402 0.01008 0.55177 0.0
C415 C 0.81975 0.83333 0.62397 0.0
C416 C 0.79817 0.82293 0.49889 0.0
C417 C 0.80988 0.81175 0.57425 0.0
N418 N 0.81428 0.85636 0.57946 0.0
N419 N 0.80128 0.84988 0.50497 0.0
C420 C 0.83401 0.83202 0.71202 0.0
H421 H 0.8404 0.85252 0.73384 0.0
H422 H 0.85195 0.81864 0.70641 0.0
H423 H 0.82028 0.82301 0.76282 0.0
C424 C 0.89341 0.92944 0.57325 0.0
N425 N 0.8678 0.92704 0.60405 0.0
N426 N 0.86052 0.90153 0.60056 0.0
C427 C 0.8815 0.8868 0.56942 0.0
C428 C 0.90446 0.90346 0.55923 0.0
C429 C 0.90209 0.95518 0.52796 0.0
H430 H 0.88409 0.96571 0.50103 0.0
H431 H 0.91192 0.96887 0.57698 0.0
H432 H 0.91553 0.95144 0.46992 0.0
O433 O 0.81893 0.95592 0.50909 0.0
O434 O 0.8043 0.91341 0.51087 0.0
H435 H 0.89215 0.85594 0.47123 0.0
H436 H 0.87696 0.84376 0.57432 0.0
C437 C 0.87691 0.86015 0.52374 0.0
H438 H 0.85706 0.86025 0.48964 0.0
H439 H 0.7947 0.86388 0.45746 0.0
O440 O 0.85982 0.99142 0.61877 0.0
C441 C 0.80408 0.93714 0.47882 0.0
Co442 Co 0.95729 0.1679 0.3719 0.0
Co443 Co 0.89475 0.18455 0.36631 0.0
C444 C 0.93342 0.20362 0.22479 0.0
O445 O 0.95322 0.18999 0.25732 0.0
O446 O 0.90953 0.20194 0.25709 0.0
C447 C 0.01001 0.13559 0.3759 0.0
O448 O 1.00045 0.11788 0.31853 0.0
C449 C 0.83542 0.19116 0.32922 0.0
C450 C 0.82111 0.19939 0.46702 0.0
C451 C 0.81242 0.19649 0.37974 0.0
N452 N 0.85687 0.19072 0.38473 0.0
N453 N 0.84806 0.19581 0.46675 0.0
C454 C 0.83683 0.1864 0.23056 0.0
H455 H 0.85776 0.18115 0.20984 0.0
H456 H 0.82275 0.16982 0.2119 0.0
H457 H 0.83014 0.20491 0.19482 0.0
C458 C 0.93001 0.11444 0.42215 0.0
N459 N 0.92962 0.1403 0.39141 0.0
N460 N 0.90405 0.14756 0.38207 0.0
C461 C 0.88784 0.12657 0.40374 0.0
C462 C 0.90363 0.10506 0.43061 0.0
C463 C 0.95466 0.09933 0.4507 0.0
H464 H 0.96321 0.08862 0.39198 0.0
H465 H 0.94962 0.08396 0.50234 0.0
H466 H 0.96984 0.11343 0.47782 0.0
O467 O 0.95407 0.19596 0.46305 0.0
O468 O 0.91039 0.20609 0.46107 0.0
H469 H 0.8508 0.1401 0.46216 0.0
H470 H 0.84872 0.10701 0.41231 0.0
C471 C 0.85762 0.12752 0.40503 0.0
H472 H 0.85027 0.13668 0.34186 0.0
H473 H 0.86049 0.19657 0.52316 0.0
O474 O 0.99568 0.15595 0.39716 0.0
C475 C 0.93409 0.20961 0.49079 0.0
Co476 Co 0.17244 0.0556 0.62501 0.0
Co477 Co 0.19311 0.11658 0.60953 0.0
C478 C 0.20894 0.0789 0.76417 0.0
O479 O 0.19371 0.05922 0.73986 0.0
O480 O 0.20915 0.10143 0.72216 0.0
C481 C 0.14191 1.00139 0.6344 0.0
O482 O 0.1323 0.00635 0.71483 0.0
C483 C 0.19378 0.17633 0.63739 0.0
C484 C 0.22022 0.18877 0.52492 0.0
C485 C 0.20477 0.19868 0.59455 0.0
N486 N 0.20215 0.154 0.59417 0.0
N487 N 0.21817 0.16167 0.52768 0.0
C488 C 0.17546 0.17631 0.71704 0.0
H489 H 0.16676 0.15587 0.72824 0.0
H490 H 0.15905 0.19137 0.70761 0.0
H491 H 0.18721 0.18245 0.77701 0.0
C492 C 0.11978 0.08442 0.58104 0.0
N493 N 0.14642 0.08449 0.60296 0.0
N494 N 0.15582 0.1092 0.59013 0.0
C495 C 0.13607 0.12474 0.55451 0.0
C496 C 0.11262 0.10962 0.54839 0.0
C497 C 0.10093 0.06098 0.58901 0.0
H498 H 0.11017 0.04448 0.6277 0.0
H499 H 0.08207 0.06755 0.62313 0.0
H500 H 0.09501 0.05403 0.52119 0.0
O501 O 0.20179 0.05626 0.53484 0.0
O502 O 0.21349 0.09922 0.51726 0.0
H503 H 0.1603 0.1541 0.48522 0.0
H504 H 0.12429 0.15765 0.46757 0.0
C505 C 0.14014 0.15253 0.51739 0.0
H506 H 0.13884 0.16739 0.57267 0.0
H507 H 0.22733 0.14844 0.48255 0.0
O508 O 0.15746 0.01855 0.597 0.0
C509 C 0.216 0.0745 0.49787 0.0
Co510 Co 0.05622 0.84214 0.38234 0.0
Co511 Co 0.11835 0.82394 0.38957 0.0
C512 C 0.08129 0.80174 0.25022 0.0
O513 O 0.06087 0.815 0.28029 0.0
O514 O 0.10518 0.80557 0.28037 0.0
C515 C 1.00026 0.87074 0.36115 0.0
O516 O 1.00227 0.8765 0.27553 0.0
C517 C 0.178 0.8189 0.35978 0.0
C518 C 0.19102 0.80595 0.49484 0.0
C519 C 0.20057 0.81214 0.4103 0.0
N520 N 0.15596 0.81698 0.41249 0.0
N521 N 0.16397 0.80908 0.49291 0.0
C522 C 0.17752 0.82726 0.26366 0.0
H523 H 0.15671 0.83291 0.24286 0.0
H524 H 0.19145 0.84461 0.25334 0.0
H525 H 0.18493 0.81031 0.22159 0.0
C526 C 0.08268 0.8947 0.42382 0.0
N527 N 0.08427 0.86877 0.39584 0.0
N528 N 0.10985 0.86123 0.39764 0.0
C529 C 0.12515 0.88217 0.42591 0.0
C530 C 0.10848 0.90395 0.44426 0.0
C531 C 0.05672 0.9092 0.44101 0.0
H532 H 0.04471 0.89791 0.49157 0.0
H533 H 0.04501 0.90978 0.37789 0.0
H534 H 0.06023 0.93015 0.46499 0.0
O535 O 0.05712 0.81855 0.48603 0.0
O536 O 0.09983 0.80453 0.48513 0.0
H537 H 0.15857 0.86589 0.49884 0.0
H538 H 0.16324 0.90057 0.46391 0.0
C539 C 0.15482 0.88062 0.44424 0.0
H540 H 0.1653 0.87359 0.38299 0.0
H541 H 0.15097 0.8061 0.54716 0.0
O542 O 0.01926 0.85828 0.40115 0.0
C543 C 0.07597 0.80387 0.51626 0.0
C544 C 0.26003 0.05461 0.3024 0.0
C545 C 0.28477 0.06593 0.33292 0.0
C546 C 0.26567 0.07359 0.48063 0.0
C547 C 0.2398 0.06696 0.44533 0.0
N548 N 0.21157 0.05045 0.32588 0.0
N549 N 0.31256 0.08473 0.44941 0.0
C550 C 0.23679 0.05659 0.35771 0.0
C551 C 0.28816 0.07452 0.42224 0.0
N552 N 0.25878 0.04265 0.21993 0.0
N553 N 0.2685 0.07915 0.56986 0.0
H554 H 0.3298 0.08422 0.40896 0.0
H555 H 0.3156 0.09456 0.51018 0.0
H556 H 0.25217 0.0794 0.61405 0.0
H557 H 0.28708 0.08152 0.6017 0.0
H558 H 0.242 0.03207 0.19654 0.0
H559 H 0.27537 0.0415 0.17689 0.0
H560 H 0.20748 0.04584 0.25927 0.0
H561 H 0.19423 0.05124 0.36571 0.0
C562 C 0.08006 0.78611 0.67018 0.0
C563 C 0.06974 0.78318 0.58268 0.0
C564 C 0.06075 0.7352 0.60721 0.0
C565 C 0.07154 0.73801 0.69445 0.0
N566 N 0.08458 0.76686 0.81807 0.0
N567 N 0.04431 0.75758 0.4736 0.0
C568 C 0.07901 0.76375 0.72892 0.0
C569 C 0.05786 0.7586 0.55338 0.0
N570 N 0.09168 0.81001 0.69581 0.0
N571 N 0.055 0.71007 0.57393 0.0
H572 H 0.04245 0.77418 0.43101 0.0
H573 H 0.03303 0.74095 0.45276 0.0
H574 H 0.05699 0.6924 0.6115 0.0
H575 H 0.05014 0.70642 0.5072 0.0
H576 H 0.10281 0.81235 0.75449 0.0
H577 H 0.09127 0.82734 0.65585 0.0
H578 H 0.08728 0.78557 0.84869 0.0
H579 H 0.08418 0.75089 0.86359 0.0
C580 C 0.78599 0.93159 0.32595 0.0
C581 C 0.78341 0.94312 0.41196 0.0
C582 C 0.73493 0.95011 0.39023 0.0
C583 C 0.73741 0.93823 0.30437 0.0
N584 N 0.76588 0.92421 0.18066 0.0
N585 N 0.75778 0.96907 0.51934 0.0
C586 C 0.76316 0.93101 0.26903 0.0
C587 C 0.75865 0.95454 0.44148 0.0
N588 N 0.81006 0.92035 0.30028 0.0
N589 N 0.70987 0.95549 0.42491 0.0
H590 H 0.77468 0.9721 0.55984 0.0
H591 H 0.74094 0.98002 0.54016 0.0
H592 H 0.69197 0.95217 0.38961 0.0
H593 H 0.70655 0.96126 0.49104 0.0
H594 H 0.81231 0.90833 0.24352 0.0
H595 H 0.82766 0.92206 0.33853 0.0
H596 H 0.78451 0.92166 0.1491 0.0
H597 H 0.74966 0.9234 0.13625 0.0
C598 C 0.95314 0.25406 0.68673 0.0
C599 C 0.94187 0.27884 0.65669 0.0
C600 C 0.93207 0.25927 0.5111 0.0
C601 C 0.93902 0.23347 0.54623 0.0
N602 N 0.9549 0.20545 0.66755 0.0
N603 N 0.92026 0.30577 0.54315 0.0
C604 C 0.9497 0.23061 0.63359 0.0
C605 C 0.93147 0.28176 0.56928 0.0
N606 N 0.9667 0.25294 0.76648 0.0
N607 N 0.92664 0.26233 0.42181 0.0
H608 H 0.92095 0.32315 0.58276 0.0
H609 H 0.90913 0.30816 0.48447 0.0
H610 H 0.92686 0.24629 0.3766 0.0
H611 H 0.9243 0.28104 0.3908 0.0
H612 H 0.97756 0.23612 0.78786 0.0
H613 H 0.96898 0.26961 0.8085 0.0
H614 H 0.95968 0.20183 0.73439 0.0
H615 H 0.95252 0.18775 0.63043 0.0
C616 C 0.25407 0.45297 0.95706 0.0
C617 C 0.27647 0.4357 0.93965 0.0
C618 C 0.2487 0.40721 0.84418 0.0
C619 C 0.22725 0.42612 0.85153 0.0
N620 N 0.20567 0.4603 0.94048 0.0
N621 N 0.29704 0.40092 0.84994 0.0
C622 C 0.22887 0.44733 0.91508 0.0
C623 C 0.27434 0.41428 0.87769 0.0
N624 N 0.25692 0.47484 0.01227 0.0
N625 N 0.24421 0.38159 0.81334 0.0
H626 H 0.31639 0.4063 0.8717 0.0
H627 H 0.29684 0.38671 0.7984 0.0
H628 H 0.22486 0.37364 0.80491 0.0
H629 H 0.25919 0.36676 0.81194 0.0
H630 H 0.24226 0.48972 0.02024 0.0
H631 H 0.2747 0.47939 0.04633 0.0
H632 H 0.20459 0.47465 0.99124 0.0
H633 H 0.18665 0.45432 0.91735 0.0
C634 C 0.46017 0.76217 0.20654 0.0
C635 C 0.44906 0.78702 0.17683 0.0
C636 C 0.4381 0.76748 0.03206 0.0
C637 C 0.44471 0.74161 0.06742 0.0
N638 N 0.46207 0.71354 0.18626 0.0
N639 N 0.4288 0.8147 0.0629 0.0
C640 C 0.45639 0.73874 0.1534 0.0
C641 C 0.43888 0.7902 0.08926 0.0
N642 N 0.47362 0.76097 0.28648 0.0
N643 N 0.4312 0.77021 0.94379 0.0
H644 H 0.4307 0.83209 0.10206 0.0
H645 H 0.41777 0.8177 0.00438 0.0
H646 H 0.42971 0.75387 0.90012 0.0
H647 H 0.42891 0.78877 0.91173 0.0
H648 H 0.48419 0.74406 0.30862 0.0
H649 H 0.47612 0.77773 0.32797 0.0
H650 H 0.46768 0.70976 0.25224 0.0
H651 H 0.4596 0.69592 0.14879 0.0
C652 C 0.75398 0.5519 0.93413 0.0
C653 C 0.72936 0.56359 0.90467 0.0
C654 C 0.74907 0.57383 0.75937 0.0
C655 C 0.77485 0.56686 0.79473 0.0
N656 N 0.80263 0.54947 0.91437 0.0
N657 N 0.70208 0.58431 0.79067 0.0
C658 C 0.77752 0.55532 0.88105 0.0
C659 C 0.72637 0.5737 0.81692 0.0
N660 N 0.75489 0.53827 0.0138 0.0
N661 N 0.74639 0.58044 0.67082 0.0
H662 H 0.68467 0.5829 0.83016 0.0
H663 H 0.69933 0.59532 0.73192 0.0
H664 H 0.76273 0.58137 0.62678 0.0
H665 H 0.72782 0.58295 0.63901 0.0
H666 H 0.77161 0.52731 0.03553 0.0
H667 H 0.73803 0.53594 0.05515 0.0
H668 H 0.80621 0.54401 0.98063 0.0
H669 H 0.82036 0.55179 0.87722 0.0
C670 C 0.55264 0.25247 0.19549 0.0
C671 C 0.5638 0.22766 0.16563 0.0
C672 C 0.57499 0.24748 0.02116 0.0
C673 C 0.56826 0.27329 0.05668 0.0
N674 N 0.55095 0.30114 0.17618 0.0
N675 N 0.58441 0.20025 0.05173 0.0
C676 C 0.55655 0.276 0.14278 0.0
C677 C 0.57419 0.22467 0.07818 0.0
N678 N 0.53903 0.25352 0.27521 0.0
N679 N 0.58193 0.24484 0.93287 0.0
H680 H 0.58248 0.1828 0.09065 0.0
H681 H 0.59561 0.19741 0.99342 0.0
H682 H 0.58339 0.26121 0.8892 0.0
H683 H 0.58425 0.22632 0.90075 0.0
H684 H 0.5284 0.2704 0.29735 0.0
H685 H 0.53642 0.23668 0.31637 0.0
H686 H 0.5453 0.30476 0.24224 0.0
H687 H 0.55362 0.31886 0.13927 0.0
C688 C 0.29025 0.2713 0.12233 0.0
C689 C 0.31531 0.28506 0.13177 0.0
C690 C 0.33726 0.24284 0.17753 0.0
C691 C 0.3128 0.22868 0.16034 0.0
N692 N 0.26692 0.22835 0.10586 0.0
N693 N 0.36363 0.2836 0.15428 0.0
C694 C 0.28953 0.24261 0.12962 0.0
C695 C 0.3391 0.27076 0.15579 0.0
N696 N 0.26704 0.28578 0.10901 0.0
N697 N 0.35857 0.22974 0.21648 0.0
H698 H 0.36582 0.3041 0.1397 0.0
H699 H 0.38205 0.27356 0.16067 0.0
H700 H 0.35825 0.20917 0.23159 0.0
H701 H 0.37577 0.23959 0.24015 0.0
H702 H 0.24776 0.27729 0.11058 0.0
H703 H 0.26684 0.30683 0.10402 0.0
H704 H 0.25032 0.23695 0.07385 0.0
H705 H 0.26556 0.20737 0.11189 0.0
C706 C 0.24228 0.6772 0.88895 0.0
C707 C 0.22785 0.70155 0.87362 0.0
C708 C 0.27021 0.72738 0.87994 0.0
C709 C 0.28424 0.70335 0.90267 0.0
N710 N 0.28323 0.65622 0.94438 0.0
N711 N 0.22693 0.75023 0.8678 0.0
C712 C 0.27017 0.67847 0.91155 0.0
C713 C 0.24151 0.72679 0.87285 0.0
N714 N 0.22961 0.65282 0.87862 0.0
N715 N 0.28441 0.75059 0.86309 0.0
H716 H 0.20586 0.75051 0.86301 0.0
H717 H 0.23537 0.76936 0.8761 0.0
H718 H 0.30545 0.75172 0.86805 0.0
H719 H 0.27569 0.76806 0.83711 0.0
H720 H 0.23981 0.6344 0.87858 0.0
H721 H 0.20916 0.65103 0.86286 0.0
H722 H 0.27335 0.63838 0.96199 0.0
H723 H 0.30369 0.65629 0.96109 0.0
C724 C 0.72508 0.7695 0.12971 0.0
C725 C 0.70017 0.78302 0.11472 0.0
C726 C 0.68015 0.74098 0.05836 0.0
C727 C 0.70413 0.72695 0.08222 0.0
N728 N 0.7483 0.72674 0.15042 0.0
N729 N 0.65264 0.78103 0.07812 0.0
C730 C 0.72632 0.74091 0.1207 0.0
C731 C 0.67733 0.76864 0.08229 0.0
N732 N 0.74775 0.78416 0.15002 0.0
N733 N 0.66031 0.72802 0.01114 0.0
H734 H 0.64971 0.80129 0.09461 0.0
H735 H 0.63466 0.77076 0.06509 0.0
H736 H 0.66148 0.70768 0.99338 0.0
H737 H 0.64375 0.73793 0.98319 0.0
H738 H 0.76709 0.77587 0.15309 0.0
H739 H 0.74763 0.80518 0.15586 0.0
H740 H 0.76382 0.73534 0.18802 0.0
H741 H 0.75006 0.70582 0.14355 0.0
C742 C 0.76987 0.28543 0.8814 0.0
C743 C 0.7837 0.30933 0.85548 0.0
C744 C 0.7418 0.33534 0.8705 0.0
C745 C 0.72748 0.31102 0.88808 0.0
N746 N 0.72678 0.26233 0.89588 0.0
N747 N 0.78215 0.356 0.80859 0.0
C748 C 0.74122 0.28586 0.88946 0.0
C749 C 0.76949 0.33403 0.84529 0.0
N750 N 0.78421 0.26253 0.90075 0.0
N751 N 0.7293 0.35976 0.88133 0.0
H752 H 0.80237 0.35576 0.78866 0.0
H753 H 0.77202 0.37365 0.79061 0.0
H754 H 0.70909 0.36157 0.90029 0.0
H755 H 0.73955 0.37817 0.87914 0.0
H756 H 0.77557 0.24531 0.92908 0.0
H757 H 0.80526 0.26152 0.89593 0.0
H758 H 0.73536 0.24326 0.88801 0.0
H759 H 0.70572 0.26187 0.90097 0.0
C760 C 0.78713 0.76836 0.61739 0.0
C761 C 0.81119 0.78241 0.59422 0.0
C762 C 0.83715 0.74039 0.60736 0.0
C763 C 0.81273 0.72595 0.62262 0.0
N764 N 0.76396 0.7252 0.6263 0.0
N765 N 0.85806 0.78107 0.54901 0.0
C766 C 0.78754 0.73967 0.62299 0.0
C767 C 0.83594 0.76823 0.58402 0.0
N768 N 0.7641 0.7825 0.63686 0.0
N769 N 0.86154 0.72787 0.61874 0.0
H770 H 0.85783 0.80134 0.52991 0.0
H771 H 0.87581 0.77105 0.5313 0.0
H772 H 0.86328 0.70756 0.6363 0.0
H773 H 0.87995 0.73815 0.61834 0.0
H774 H 0.74674 0.77359 0.66336 0.0
H775 H 0.7631 0.80355 0.63421 0.0
H776 H 0.74493 0.73384 0.61761 0.0
H777 H 0.7635 0.70413 0.62933 0.0
C778 C 0.77079 0.22352 0.3483 0.0
C779 C 0.7838 0.19799 0.35101 0.0
C780 C 0.74106 0.17555 0.31347 0.0
C781 C 0.72751 0.20072 0.32104 0.0
N782 N 0.72851 0.24838 0.35451 0.0
N783 N 0.78101 0.14928 0.34855 0.0
C784 C 0.74213 0.22469 0.34065 0.0
C785 C 0.76889 0.17386 0.33657 0.0
N786 N 0.78598 0.24664 0.3511 0.0
N787 N 0.72752 0.15341 0.28189 0.0
H788 H 0.80143 0.14716 0.36437 0.0
H789 H 0.77041 0.13107 0.34953 0.0
H790 H 0.70715 0.15391 0.26405 0.0
H791 H 0.73698 0.13525 0.26582 0.0
H792 H 0.77806 0.26588 0.34048 0.0
H793 H 0.80704 0.24644 0.35619 0.0
H794 H 0.73765 0.2659 0.37858 0.0
H795 H 0.70754 0.25001 0.34845 0.0
C796 C 0.21482 0.27111 0.67113 0.0
C797 C 0.1916 0.28363 0.63381 0.0
C798 C 0.17763 0.24062 0.56709 0.0
C799 C 0.19948 0.22764 0.61137 0.0
N800 N 0.23693 0.22931 0.71442 0.0
N801 N 0.14882 0.28015 0.55699 0.0
C802 C 0.21753 0.24255 0.66605 0.0
C803 C 0.17244 0.26837 0.58443 0.0
N804 N 0.23464 0.28667 0.70901 0.0
N805 N 0.16226 0.22657 0.50683 0.0
H806 H 0.1445 0.30057 0.56685 0.0
H807 H 0.13265 0.26934 0.53018 0.0
H808 H 0.16508 0.20608 0.49365 0.0
H809 H 0.14807 0.23561 0.46493 0.0
H810 H 0.2533 0.27911 0.72943 0.0
H811 H 0.23343 0.3077 0.71286 0.0
H812 H 0.24885 0.23863 0.76292 0.0
H813 H 0.23971 0.20842 0.71123 0.0
C814 C 0.27135 0.83722 0.35172 0.0
C815 C 0.28561 0.81237 0.34754 0.0
C816 C 0.24316 0.78749 0.37019 0.0
C817 C 0.22949 0.81236 0.38374 0.0
N818 N 0.23129 0.86077 0.40282 0.0
N819 N 0.28615 0.76389 0.36425 0.0
C820 C 0.24376 0.83723 0.37863 0.0
C821 C 0.2718 0.78747 0.3598 0.0
N822 N 0.28388 0.86073 0.327 0.0
N823 N 0.22867 0.76398 0.36509 0.0
H824 H 0.30714 0.76311 0.35677 0.0
H825 H 0.27764 0.74543 0.3826 0.0
H826 H 0.20767 0.76328 0.37236 0.0
H827 H 0.23706 0.74555 0.34609 0.0
H828 H 0.27371 0.87902 0.31948 0.0
H829 H 0.30397 0.86148 0.30593 0.0
H830 H 0.24151 0.87907 0.41007 0.0
H831 H 0.21115 0.8616 0.42328 0.0
C832 C 0.25171 0.08824 0.97518 0.0
C833 C 0.27714 0.07803 0.94493 0.0
C834 C 0.25418 0.05995 0.81155 0.0
C835 C 0.23036 0.07477 0.83368 0.0
N836 N 0.20702 0.1045 0.93512 0.0
N837 N 0.30288 0.0559 0.82919 0.0
C838 C 0.22933 0.08935 0.91516 0.0
C839 C 0.2784 0.06401 0.86218 0.0
N840 N 0.24844 0.09561 0.06279 0.0
N841 N 0.25379 0.042 0.74208 0.0
H842 H 0.32102 0.05891 0.86341 0.0
H843 H 0.30549 0.04839 0.7646 0.0
H844 H 0.23677 0.03871 0.70242 0.0
H845 H 0.26962 0.02873 0.72854 0.0
H846 H 0.22976 0.10073 0.09036 0.0
H847 H 0.26364 0.09352 0.11063 0.0
H848 H 0.20644 0.11821 0.98805 0.0
H849 H 0.18962 0.10445 0.89552 0.0
C850 C 0.06395 0.77849 0.10941 0.0
C851 C 0.07682 0.77703 0.19403 0.0
C852 C 0.08703 0.72885 0.16795 0.0
C853 C 0.07387 0.73014 0.08385 0.0
N854 N 0.04375 0.75448 0.98469 0.0
N855 N 0.09274 0.7486 0.31493 0.0
C856 C 0.0602 0.75436 0.0582 0.0
C857 C 0.08603 0.75152 0.2266 0.0
N858 N 0.05668 0.80311 0.07548 0.0
N859 N 0.10086 0.70601 0.19152 0.0
H860 H 0.09129 0.76428 0.36122 0.0
H861 H 0.09689 0.72998 0.34452 0.0
H862 H 0.10043 0.68836 0.15327 0.0
H863 H 0.11384 0.70507 0.24637 0.0
H864 H 0.05025 0.80597 0.00975 0.0
H865 H 0.05921 0.82112 0.1108 0.0
H866 H 0.03113 0.77059 0.96836 0.0
H867 H 0.04092 0.73772 0.94363 0.0
C868 C 0.72682 0.92419 0.83031 0.0
C869 C 0.72856 0.93656 0.91569 0.0
C870 C 0.77718 0.94561 0.88964 0.0
C871 C 0.77525 0.93362 0.80367 0.0
N872 N 0.74627 0.9193 0.68221 0.0
N873 N 0.75391 0.96496 0.0175 0.0
C874 C 0.74945 0.92521 0.77105 0.0
C875 C 0.75322 0.94934 0.94207 0.0
N876 N 0.70359 0.91108 0.8061 0.0
N877 N 0.80206 0.95204 0.92347 0.0
H878 H 0.7373 0.96768 0.05945 0.0
H879 H 0.77039 0.977 0.03488 0.0
H880 H 0.81993 0.94954 0.8872 0.0
H881 H 0.80524 0.95774 0.98976 0.0
H882 H 0.7022 0.89869 0.74989 0.0
H883 H 0.68604 0.91147 0.84508 0.0
H884 H 0.7275 0.91575 0.65271 0.0
H885 H 0.76195 0.9208 0.63572 0.0
C886 C 0.92509 0.22404 0.07266 0.0
C887 C 0.93838 0.2253 0.15661 0.0
C888 C 0.94872 0.27359 0.13016 0.0
C889 C 0.93566 0.27217 0.04583 0.0
N890 N 0.91879 0.24396 0.92597 0.0
N891 N 0.96842 0.24963 0.25603 0.0
C892 C 0.92604 0.24674 0.01387 0.0
C893 C 0.95217 0.24949 0.182 0.0
N894 N 0.91112 0.20122 0.04952 0.0
N895 N 0.95645 0.29818 0.16317 0.0
H896 H 0.97091 0.23296 0.29778 0.0
H897 H 0.98117 0.26566 0.27239 0.0
H898 H 0.95426 0.31612 0.12715 0.0
H899 H 0.96303 0.30115 0.22867 0.0
H900 H 0.898 0.20028 0.99502 0.0
H901 H 0.91159 0.18355 0.08778 0.0
H902 H 0.91436 0.2254 0.89645 0.0
H903 H 0.91994 0.25972 0.87979 0.0
C904 C 0.23196 0.4437 0.35873 0.0
C905 C 0.23508 0.4355 0.44895 0.0
C906 C 0.28451 0.43189 0.42644 0.0
C907 C 0.28092 0.43682 0.33373 0.0
N908 N 0.2508 0.44438 0.20884 0.0
N909 N 0.26402 0.42142 0.57053 0.0
C910 C 0.25456 0.44228 0.29928 0.0
C911 C 0.26134 0.42965 0.48345 0.0
N912 N 0.20735 0.45277 0.32982 0.0
N913 N 0.31017 0.42984 0.45991 0.0
H914 H 0.24794 0.42113 0.61583 0.0
H915 H 0.28184 0.4137 0.59736 0.0
H916 H 0.32734 0.43141 0.41944 0.0
H917 H 0.31465 0.42875 0.52789 0.0
H918 H 0.20432 0.46179 0.26759 0.0
H919 H 0.19032 0.45331 0.37113 0.0
H920 H 0.23185 0.44508 0.17849 0.0
H921 H 0.26665 0.44333 0.16298 0.0
C922 C 0.42443 0.75252 0.53677 0.0
C923 C 0.43425 0.77802 0.56747 0.0
C924 C 0.45108 0.75556 0.70341 0.0
C925 C 0.43666 0.73156 0.68018 0.0
N926 N 0.40808 0.70778 0.57613 0.0
N927 N 0.45491 0.8042 0.68501 0.0
C928 C 0.42287 0.73025 0.5972 0.0
C929 C 0.44736 0.77959 0.65173 0.0
N930 N 0.41791 0.7491 0.4485 0.0
N931 N 0.46831 0.75555 0.77492 0.0
H932 H 0.45214 0.82223 0.64997 0.0
H933 H 0.46166 0.80701 0.75043 0.0
H934 H 0.47127 0.73879 0.81601 0.0
H935 H 0.48139 0.77151 0.78916 0.0
H936 H 0.4131 0.73037 0.42079 0.0
H937 H 0.42036 0.76425 0.40059 0.0
H938 H 0.3949 0.70698 0.52173 0.0
H939 H 0.40785 0.69047 0.61614 0.0
C940 C 0.73711 0.56302 0.38049 0.0
C941 C 0.73893 0.57564 0.29539 0.0
C942 C 0.78713 0.5857 0.32327 0.0
C943 C 0.78551 0.57252 0.4073 0.0
N944 N 0.76078 0.54209 0.50456 0.0
N945 N 0.76819 0.59037 0.17467 0.0
C946 C 0.76114 0.5589 0.43191 0.0
C947 C 0.76471 0.58445 0.26343 0.0
N948 N 0.71233 0.55636 0.41478 0.0
N949 N 0.81001 0.59968 0.30069 0.0
H950 H 0.75286 0.58815 0.12732 0.0
H951 H 0.78703 0.59441 0.14619 0.0
H952 H 0.8274 0.59961 0.34033 0.0
H953 H 0.81114 0.61247 0.24532 0.0
H954 H 0.70943 0.55004 0.48067 0.0
H955 H 0.69431 0.55944 0.37994 0.0
H956 H 0.74446 0.52957 0.52007 0.0
H957 H 0.77755 0.53888 0.54537 0.0
C958 C 0.58955 0.28523 0.5855 0.0
C959 C 0.57584 0.28369 0.66871 0.0
C960 C 0.56607 0.23543 0.64074 0.0
C961 C 0.57907 0.23722 0.55622 0.0
N962 N 0.59485 0.26642 0.43689 0.0
N963 N 0.54476 0.25907 0.76411 0.0
C964 C 0.58841 0.2629 0.52525 0.0
C965 C 0.56192 0.25941 0.69232 0.0
N966 N 0.60389 0.30797 0.56401 0.0
N967 N 0.55905 0.21069 0.67438 0.0
H968 H 0.5415 0.27575 0.80521 0.0
H969 H 0.53201 0.24285 0.77862 0.0
H970 H 0.56218 0.1927 0.63951 0.0
H971 H 0.55243 0.20776 0.73995 0.0
H972 H 0.61704 0.309 0.50949 0.0
H973 H 0.60376 0.32532 0.60376 0.0
H974 H 0.59927 0.28523 0.40897 0.0
H975 H 0.5927 0.2512 0.38913 0.0
C976 C 0.38893 0.95421 0.12506 0.0
C977 C 0.38399 0.97853 0.1732 0.0
C978 C 0.39402 0.95475 0.31525 0.0
C979 C 0.39948 0.93087 0.26641 0.0
N980 N 0.40675 0.90844 0.12536 0.0
N981 N 0.37814 1.00097 0.31695 0.0
C982 C 0.39817 0.93075 0.17145 0.0
C983 C 0.3855 0.97855 0.2691 0.0
N984 N 0.38293 0.95298 0.03569 0.0
N985 N 0.39821 0.95493 0.40593 0.0
H986 H 0.37375 0.01967 0.28909 0.0
H987 H 0.37473 1.00095 0.38569 0.0
H988 H 0.40355 0.93772 0.44223 0.0
H989 H 0.39838 0.9723 0.44513 0.0
H990 H 0.38314 0.93519 -0.0015 0.0
H991 H 0.37505 0.96927 -0.00013 0.0
H992 H 0.40951 0.90803 0.05627 0.0
H993 H 0.41333 0.89079 0.1568 0.0
C994 C 0.95187 0.6185 0.68848 0.0
C995 C 0.92898 0.61198 0.7411 0.0
C996 C 0.95429 0.62311 0.87816 0.0
C997 C 0.97691 0.63115 0.82509 0.0
N998 N 0.99456 0.64191 0.67683 0.0
N999 N 0.90663 0.61079 0.88436 0.0
C1000 C 0.97493 0.63053 0.72949 0.0
C1001 C 0.92971 0.61499 0.83559 0.0
N1002 N 0.95186 0.6125 0.59902 0.0
N1003 N 0.95621 0.62351 0.96953 0.0
H1004 H 0.88864 0.60379 0.85606 0.0
H1005 H 0.90464 0.61568 0.95182 0.0
H1006 H 0.97247 0.63217 0.00353 0.0
H1007 H 0.94214 0.6145 0.01207 0.0
H1008 H 0.9691 0.61339 0.55893 0.0
H1009 H 0.93517 0.60424 0.56615 0.0
H1010 H 0.99224 0.64504 0.60828 0.0
H1011 H 0.01223 0.65064 0.70067 0.0
C1012 C 0.63332 0.03692 0.27815 0.0
C1013 C 0.63156 0.03414 0.18287 0.0
C1014 C 0.6135 0.08053 0.17208 0.0
C1015 C 0.6148 0.08293 0.26669 0.0
N1016 N 0.62205 0.06295 0.41132 0.0
N1017 N 0.62594 0.05538 0.03866 0.0
C1018 C 0.62381 0.06105 0.32 0.0
C1019 C 0.62304 0.05649 0.12976 0.0
N1020 N 0.64479 0.01699 0.32916 0.0
N1021 N 0.60235 0.10104 0.12289 0.0
H1022 H 0.63406 0.03872 0.00542 0.0
H1023 H 0.62285 0.07175 0.99609 0.0
H1024 H 0.59585 0.11919 0.15115 0.0
H1025 H 0.59766 0.09953 0.05517 0.0
H1026 H 0.6502 0.01946 0.39597 0.0
H1027 H 0.65096 0.99835 0.30491 0.0
H1028 H 0.62465 0.04673 0.45487 0.0
H1029 H 0.61581 0.08047 0.44426 0.0
C1030 C 0.07976 0.39694 0.83066 0.0
C1031 C 0.07992 0.40224 0.73711 0.0
C1032 C 0.03494 0.38191 0.72427 0.0
C1033 C 0.03284 0.38047 0.81959 0.0
N1034 N 0.05324 0.38805 0.96432 0.0
N1035 N 0.05576 0.40437 0.59748 0.0
C1036 C 0.05522 0.38862 0.87304 0.0
C1037 C 0.05687 0.3962 0.68492 0.0
N1038 N 0.1033 0.39869 0.8784 0.0
N1039 N 0.01688 0.36881 0.67028 0.0
H1040 H 0.07156 0.41473 0.56609 0.0
H1041 H 0.03821 0.40322 0.559 0.0
H1042 H 1.00169 0.35617 0.69375 0.0
H1043 H 0.01922 0.36746 0.60106 0.0
H1044 H 0.10513 0.39223 0.94452 0.0
H1045 H 0.12167 0.40454 0.84979 0.0
H1046 H 0.06751 0.39689 0.0065 0.0
H1047 H 0.03666 0.37982 -0.00197 0.0
C1048 C 0.39428 0.58403 0.09992 0.0
C1049 C 0.3957 0.58692 0.00544 0.0
C1050 C 0.37691 0.54133 0.98633 0.0
C1051 C 0.37804 0.53719 0.08106 0.0
N1052 N 0.38822 0.55447 0.22839 0.0
N1053 N 0.39216 0.56755 0.85828 0.0
C1054 C 0.38693 0.55854 0.13786 0.0
C1055 C 0.38802 0.56537 0.94865 0.0
N1056 N 0.39935 0.60593 0.1533 0.0
N1057 N 0.36485 0.52271 0.9316 0.0
H1058 H 0.39954 0.58507 0.82784 0.0
H1059 H 0.39049 0.55135 0.81413 0.0
H1060 H 0.35695 0.50438 0.95313 0.0
H1061 H 0.36041 0.52643 0.86455 0.0
H1062 H 0.39573 0.60632 0.22194 0.0
H1063 H 0.40568 0.62457 0.12809 0.0
H1064 H 0.39787 0.5676 0.27249 0.0
H1065 H 0.38038 0.53732 0.25979 0.0
C1066 C 0.56454 0.63003 0.06682 0.0
C1067 C 0.58534 0.61867 0.0138 0.0
C1068 C 0.55867 0.62738 0.87819 0.0
C1069 C 0.53626 0.63543 0.93174 0.0
N1070 N 0.5172 0.64089 0.08123 0.0
N1071 N 0.60122 0.60314 0.87007 0.0
C1072 C 0.53902 0.63601 0.02721 0.0
C1073 C 0.58206 0.61626 0.9198 0.0
N1074 N 0.56933 0.63562 0.1551 0.0
N1075 N 0.55832 0.63183 0.7878 0.0
H1076 H 0.61897 0.59533 0.89757 0.0
H1077 H 0.59848 0.59806 0.80299 0.0
H1078 H 0.54237 0.6415 0.75526 0.0
H1079 H 0.57508 0.62884 0.74661 0.0
H1080 H 0.55629 0.64712 0.19454 0.0
H1081 H 0.58741 0.6307 0.18724 0.0
H1082 H 0.51746 0.63771 0.15021 0.0
H1083 H 0.49809 0.64612 0.05836 0.0
C1084 C 0.62197 0.47642 0.00308 0.0
C1085 C 0.63233 0.47545 0.09238 0.0
C1086 C 0.62327 0.42649 0.09628 0.0
C1087 C 0.61523 0.42727 0.0051 0.0
N1088 N 0.61126 0.45194 0.86681 0.0
N1089 N 0.64855 0.44812 0.21528 0.0
C1090 C 0.61585 0.45194 0.95714 0.0
C1091 C 0.63447 0.45007 0.13676 0.0
N1092 N 0.61674 0.50069 0.96293 0.0
N1093 N 0.61969 0.40334 0.14499 0.0
H1094 H 0.6582 0.46455 0.24515 0.0
H1095 H 0.65316 0.42975 0.24579 0.0
H1096 H 0.61173 0.38562 0.1177 0.0
H1097 H 0.62236 0.40241 0.21413 0.0
H1098 H 0.60597 0.50255 0.90331 0.0
H1099 H 0.62102 0.51923 0.99212 0.0
H1100 H 0.61473 0.46867 0.82597 0.0
H1101 H 0.60614 0.43454 0.83114 0.0
C1102 C 0.45214 0.39437 0.0641 0.0
C1103 C 0.42863 0.39949 0.01301 0.0
C1104 C 0.4529 0.38657 0.87559 0.0
C1105 C 0.4762 0.3801 0.92743 0.0
N1106 N 0.49492 0.37131 0.0756 0.0
N1107 N 0.40464 0.39617 0.87312 0.0
C1108 C 0.47493 0.38193 0.02296 0.0
C1109 C 0.42844 0.39439 0.91948 0.0
N1110 N 0.45301 0.40212 0.15201 0.0
N1111 N 0.45403 0.38499 0.78424 0.0
H1112 H 0.3865 0.40228 0.90261 0.0
H1113 H 0.40231 0.3898 0.80716 0.0
H1114 H 0.47035 0.37658 0.74983 0.0
H1115 H 0.43921 0.39288 0.74216 0.0
H1116 H 0.4707 0.40218 0.18992 0.0
H1117 H 0.43659 0.41086 0.18505 0.0
H1118 H 0.49311 0.36931 0.14481 0.0
H1119 H 0.5122 0.36188 0.05159 0.0
C1120 C 0.86911 0.43822 0.7744 0.0
C1121 C 0.89637 0.42947 0.76905 0.0
C1122 C 0.90648 0.46816 0.67223 0.0
C1123 C 0.87834 0.47275 0.66 0.0
N1124 N 0.8323 0.46173 0.70151 0.0
N1125 N 0.9389 0.45258 0.78083 0.0
C1126 C 0.85946 0.45788 0.71259 0.0
C1127 C 0.91503 0.44892 0.73694 0.0
N1128 N 0.85353 0.43039 0.84532 0.0
N1129 N 0.9252 0.4823 0.62388 0.0
H1130 H 0.9429 0.44249 0.84083 0.0
H1131 H 0.95235 0.46819 0.76558 0.0
H1132 H 0.91999 0.49683 0.57641 0.0
H1133 H 0.94582 0.47784 0.6266 0.0
H1134 H 0.83424 0.43806 0.85755 0.0
H1135 H 0.86148 0.41885 0.89764 0.0
H1136 H 0.8178 0.44945 0.73202 0.0
H1137 H 0.82433 0.47556 0.65581 0.0
C1138 C 0.47647 0.13944 0.21386 0.0
C1139 C 0.47697 0.14522 0.30721 0.0
C1140 C 0.43191 0.12488 0.325 0.0
C1141 C 0.43095 0.12014 0.23104 0.0
N1142 N 0.45362 0.11778 0.0886 0.0
N1143 N 0.45829 0.13912 0.45452 0.0
C1144 C 0.45374 0.12576 0.17633 0.0
C1145 C 0.45565 0.13646 0.36379 0.0
N1146 N 0.49757 0.14765 0.16091 0.0
N1147 N 0.40978 0.11891 0.3765 0.0
H1148 H 0.47527 0.14789 0.48424 0.0
H1149 H 0.44475 0.13112 0.50092 0.0
H1150 H 0.3928 0.10889 0.35148 0.0
H1151 H 0.40761 0.12463 0.44313 0.0
H1152 H 0.49731 0.14726 0.09127 0.0
H1153 H 0.51539 0.15585 0.18669 0.0
H1154 H 0.47038 0.11875 0.04652 0.0
H1155 H 0.43705 0.10832 0.05873 0.0
C1156 C 0.13621 0.53918 0.78572 0.0
C1157 C 0.13695 0.53596 0.69061 0.0
C1158 C 0.12063 0.58275 0.6731 0.0
C1159 C 0.11688 0.58447 0.76716 0.0
N1160 N 0.11723 0.56338 0.9123 0.0
N1161 N 0.12956 0.55465 0.54322 0.0
C1162 C 0.12362 0.56243 0.82316 0.0
C1163 C 0.12898 0.55777 0.6342 0.0
N1164 N 0.14791 0.52053 0.84115 0.0
N1165 N 0.11692 0.60527 0.62128 0.0
H1166 H 0.13824 0.53794 0.51183 0.0
H1167 H 0.12063 0.56815 0.49864 0.0
H1168 H 0.11019 0.62366 0.64711 0.0
H1169 H 0.12221 0.60641 0.5539 0.0
H1170 H 0.15072 0.52372 0.90945 0.0
H1171 H 0.15734 0.50297 0.81957 0.0
H1172 H 0.11834 0.54667 0.95467 0.0
H1173 H 0.10847 0.58024 0.94261 0.0
C1174 C 0.58451 0.88405 0.32924 0.0
C1175 C 0.58309 0.89421 0.2402 0.0
C1176 C 0.53591 0.87903 0.22859 0.0
C1177 C 0.53729 0.86885 0.31761 0.0
N1178 N 0.56056 0.86573 0.45847 0.0
N1179 N 0.55639 0.90659 0.11188 0.0
C1180 C 0.56091 0.8727 0.36983 0.0
C1181 C 0.55838 0.89342 0.19218 0.0
N1182 N 0.60863 0.8847 0.37405 0.0
N1183 N 0.51349 0.87393 0.17754 0.0
H1184 H 0.57263 0.91677 0.08245 0.0
H1185 H 0.53825 0.90933 0.07771 0.0
H1186 H 0.49629 0.86424 0.20239 0.0
H1187 H 0.51241 0.8778 0.10911 0.0
H1188 H 0.61207 0.87483 0.43452 0.0
H1189 H 0.62585 0.89424 0.34863 0.0
H1190 H 0.57611 0.87019 0.50307 0.0
H1191 H 0.54363 0.85716 0.48933 0.0
C1192 C 0.88886 0.05665 0.41783 0.0
C1193 C 0.89379 0.07947 0.47267 0.0
C1194 C 0.87473 0.0553 0.60259 0.0
C1195 C 0.86657 0.034 0.54507 0.0
N1196 N 0.86491 0.01426 0.39723 0.0
N1197 N 0.89121 0.10146 0.61637 0.0
C1198 C 0.87356 0.03455 0.45254 0.0
C1199 C 0.8869 0.07895 0.56515 0.0
N1200 N 0.8991 0.05606 0.33272 0.0
N1201 N 0.87084 0.05283 0.69289 0.0
H1202 H 0.90118 0.1186 0.59234 0.0
H1203 H 0.88381 0.10379 0.68118 0.0
H1204 H 0.86141 0.03606 0.72177 0.0
H1205 H 0.87861 0.0663 0.73982 0.0
H1206 H 0.89876 0.03902 0.2919 0.0
H1207 H 0.91009 0.07208 0.30517 0.0
H1208 H 0.86629 0.01504 0.32772 0.0
H1209 H 0.8549 0.99704 0.4203 0.0
C1210 C 0.06564 0.12895 0.55529 0.0
C1211 C 0.08672 0.11735 0.50401 0.0
C1212 C 0.05942 0.12274 0.36772 0.0
C1213 C 0.03684 0.13088 0.42038 0.0
N1214 N 0.01788 0.13822 0.56881 0.0
N1215 N 0.103 0.10026 0.36279 0.0
C1216 C 0.03981 0.13328 0.51536 0.0
C1217 C 0.08338 0.11333 0.41062 0.0
N1218 N 0.07038 0.13621 0.64225 0.0
N1219 N 0.05857 0.12542 0.2766 0.0
H1220 H 0.12122 0.09389 0.391 0.0
H1221 H 0.10035 0.09391 0.29687 0.0
H1222 H 0.04206 0.13365 0.24282 0.0
H1223 H 0.0753 0.12236 0.23534 0.0
H1224 H 0.05698 0.14783 0.67991 0.0
H1225 H 0.08874 0.13261 0.67458 0.0
H1226 H 0.01839 0.13649 0.63832 0.0
H1227 H 0.99851 0.14193 0.54505 0.0
C1228 C 0.11849 0.95381 0.44588 0.0
C1229 C 0.11607 0.92913 0.49312 0.0
C1230 C 0.13377 0.95093 0.62871 0.0
C1231 C 0.13348 0.97644 0.58459 0.0
N1232 N 0.12102 1.00249 0.45298 0.0
N1233 N 0.11658 0.90502 0.63352 0.0
C1234 C 0.12469 0.97798 0.4935 0.0
C1235 C 0.12221 0.92796 0.58584 0.0
N1236 N 0.11555 0.95411 0.35481 0.0
N1237 N 0.14656 0.94818 0.70937 0.0
H1238 H 0.10814 0.88777 0.60457 0.0
H1239 H 0.11793 0.90398 0.70307 0.0
H1240 H 0.15668 0.96403 0.74091 0.0
H1241 H 0.14978 0.92955 0.74015 0.0
H1242 H 0.12045 0.97074 0.3151 0.0
H1243 H 0.11027 0.93699 0.31788 0.0
H1244 H 0.11138 1.00479 0.39143 0.0
H1245 H 0.12539 0.02085 0.48325 0.0
C1246 C 0.97213 0.90697 0.43559 0.0
C1247 C 0.97626 0.87924 0.41484 0.0
C1248 C 0.94072 0.86764 0.52361 0.0
C1249 C 0.93262 0.89512 0.52638 0.0
N1250 N 0.95705 0.93613 0.55446 0.0
N1251 N 0.96404 0.83255 0.44134 0.0
C1252 C 0.95279 0.91404 0.50197 0.0
C1253 C 0.96063 0.85933 0.46037 0.0
N1254 N 0.98673 0.9267 0.39369 0.0
N1255 N 0.9322 0.85038 0.58914 0.0
H1256 H 0.97805 0.82561 0.39436 0.0
H1257 H 0.95126 0.81755 0.46646 0.0
H1258 H 0.92062 0.85714 0.64319 0.0
H1259 H 0.93937 0.83067 0.59579 0.0
H1260 H 0.98274 0.94721 0.4034 0.0
H1261 H 1.00099 0.92262 0.34413 0.0
H1262 H 0.97324 0.94939 0.54479 0.0
H1263 H 0.94661 0.93862 0.61472 0.0
loop_
_geom_bond_atom_site_label_1
_geom_bond_atom_site_label_2
_geom_bond_distance
_geom_bond_site_symmetry_2
_ccdc_geom_bond_type
Co0 O3 1.970 . S
Co0 N17 1.989 . S
Co0 O25 1.967 . S
Co0 O32 1.920 . S
Co1 O4 1.966 . S
Co1 N10 2.022 . S
Co1 N18 1.993 . S
Co1 O26 1.941 . S
C2 O3 1.258 . S
C2 O4 1.263 . S
O3 Co0 1.970 . S
O3 C2 1.258 . S
O4 Co1 1.966 . S
O4 C2 1.263 . S
C5 O6 1.235 . S
C5 O32 1.289 . S
O6 C5 1.235 . S
C7 C9 1.400 . S
C7 N10 1.351 . S
C7 C12 1.501 1_554 S
C8 C9 1.387 . S
C8 N11 1.341 . S
C9 C7 1.400 . S
C9 C8 1.387 . S
N10 Co1 2.022 . S
N10 C7 1.351 . S
N10 N11 1.365 . S
N11 C8 1.341 . S
N11 N10 1.365 . S
N11 H31 0.862 . S
C12 C7 1.501 1_556 S
C12 H13 0.961 . S
C12 H14 0.961 . S
C12 H15 0.960 . S
H13 C12 0.961 . S
H14 C12 0.961 . S
H15 C12 0.960 . S
C16 N17 1.342 . S
C16 C20 1.401 . S
C16 C21 1.499 . S
N17 Co0 1.989 . S
N17 C16 1.342 . S
N17 N18 1.388 . S
N18 Co1 1.993 . S
N18 N17 1.388 . S
N18 C19 1.346 . S
C19 N18 1.346 . S
C19 C20 1.396 . S
C19 C29 1.510 . S
C20 C16 1.401 . S
C20 C19 1.396 . S
C21 C16 1.499 . S
C21 H22 0.959 . S
C21 H23 0.960 . S
C21 H24 0.961 . S
H22 C21 0.959 . S
H23 C21 0.960 . S
H24 C21 0.961 . S
O25 Co0 1.967 . S
O25 C33 1.258 . S
O26 Co1 1.941 . S
O26 C33 1.266 . S
H27 C29 0.959 . S
H28 C29 0.961 . S
C29 C19 1.510 . S
C29 H27 0.959 . S
C29 H28 0.961 . S
C29 H30 0.960 . S
H30 C29 0.960 . S
H31 N11 0.862 . S
O32 Co0 1.920 . S
O32 C5 1.289 . S
C33 O25 1.258 . S
C33 O26 1.266 . S
Co34 O37 1.970 . S
Co34 N51 1.989 . S
Co34 O59 1.967 . S
Co34 O66 1.920 . S
Co35 O38 1.966 . S
Co35 N44 2.022 . S
Co35 N52 1.993 . S
Co35 O60 1.941 . S
C36 O37 1.258 . S
C36 O38 1.263 . S
O37 Co34 1.970 . S
O37 C36 1.258 . S
O38 Co35 1.966 . S
O38 C36 1.263 . S
C39 O40 1.235 . S
C39 O66 1.289 . S
O40 C39 1.235 . S
C41 C43 1.400 . S
C41 N44 1.351 . S
C41 C46 1.501 1_556 S
C42 C43 1.387 . S
C42 N45 1.341 . S
C43 C41 1.400 . S
C43 C42 1.387 . S
N44 Co35 2.022 . S
N44 C41 1.351 . S
N44 N45 1.365 . S
N45 C42 1.341 . S
N45 N44 1.365 . S
N45 H65 0.862 . S
C46 C41 1.501 1_554 S
C46 H47 0.961 . S
C46 H48 0.961 . S
C46 H49 0.960 . S
H47 C46 0.961 . S
H48 C46 0.961 . S
H49 C46 0.960 . S
C50 N51 1.342 . S
C50 C54 1.401 . S
C50 C55 1.499 . S
N51 Co34 1.989 . S
N51 C50 1.342 . S
N51 N52 1.388 . S
N52 Co35 1.993 . S
N52 N51 1.388 . S
N52 C53 1.346 . S
C53 N52 1.346 . S
C53 C54 1.396 . S
C53 C63 1.510 . S
C54 C50 1.401 . S
C54 C53 1.396 . S
C55 C50 1.499 . S
C55 H56 0.959 . S
C55 H57 0.960 . S
C55 H58 0.961 . S
H56 C55 0.959 . S
H57 C55 0.960 . S
H58 C55 0.961 . S
O59 Co34 1.967 . S
O59 C67 1.258 . S
O60 Co35 1.941 . S
O60 C67 1.266 . S
H61 C63 0.959 . S
H62 C63 0.961 . S
C63 C53 1.510 . S
C63 H61 0.959 . S
C63 H62 0.961 . S
C63 H64 0.960 . S
H64 C63 0.960 . S
H65 N45 0.862 . S
O66 Co34 1.920 . S
O66 C39 1.289 . S
C67 O59 1.258 . S
C67 O60 1.266 . S
Co68 O71 1.970 . S
Co68 N85 1.989 . S
Co68 O93 1.967 . S
Co68 O100 1.920 . S
Co69 O72 1.966 . S
Co69 N78 2.022 . S
Co69 N86 1.993 . S
Co69 O94 1.941 . S
C70 O71 1.258 . S
C70 O72 1.263 . S
O71 Co68 1.970 . S
O71 C70 1.258 . S
O72 Co69 1.966 . S
O72 C70 1.263 . S
C73 O74 1.235 . S
C73 O100 1.289 . S
O74 C73 1.235 . S
C75 C77 1.400 . S
C75 N78 1.351 . S
C75 C80 1.501 1_554 S
C76 C77 1.387 . S
C76 N79 1.341 . S
C77 C75 1.400 . S
C77 C76 1.387 . S
N78 Co69 2.022 . S
N78 C75 1.351 . S
N78 N79 1.365 . S
N79 C76 1.341 . S
N79 N78 1.365 . S
N79 H99 0.862 . S
C80 C75 1.501 1_556 S
C80 H81 0.961 . S
C80 H82 0.961 . S
C80 H83 0.960 . S
H81 C80 0.961 . S
H82 C80 0.961 . S
H83 C80 0.960 . S
C84 N85 1.342 . S
C84 C88 1.401 . S
C84 C89 1.499 . S
N85 Co68 1.989 . S
N85 C84 1.342 . S
N85 N86 1.388 . S
N86 Co69 1.993 . S
N86 N85 1.388 . S
N86 C87 1.346 . S
C87 N86 1.346 . S
C87 C88 1.396 . S
C87 C97 1.510 . S
C88 C84 1.401 . S
C88 C87 1.396 . S
C89 C84 1.499 . S
C89 H90 0.959 . S
C89 H91 0.960 . S
C89 H92 0.961 . S
H90 C89 0.959 . S
H91 C89 0.960 . S
H92 C89 0.961 . S
O93 Co68 1.967 . S
O93 C101 1.258 . S
O94 Co69 1.941 . S
O94 C101 1.266 . S
H95 C97 0.959 . S
H96 C97 0.961 . S
C97 C87 1.510 . S
C97 H95 0.959 . S
C97 H96 0.961 . S
C97 H98 0.960 . S
H98 C97 0.960 . S
H99 N79 0.862 . S
O100 Co68 1.920 . S
O100 C73 1.289 . S
C101 O93 1.258 . S
C101 O94 1.266 . S
Co102 O105 1.970 . S
Co102 N119 1.989 . S
Co102 O127 1.967 . S
Co102 O134 1.920 . S
Co103 O106 1.966 . S
Co103 N112 2.022 . S
Co103 N120 1.993 . S
Co103 O128 1.941 . S
C104 O105 1.258 . S
C104 O106 1.263 . S
O105 Co102 1.970 . S
O105 C104 1.258 . S
O106 Co103 1.966 . S
O106 C104 1.263 . S
C107 O108 1.235 . S
C107 O134 1.289 . S
O108 C107 1.235 . S
C109 C111 1.400 . S
C109 N112 1.351 . S
C109 C114 1.501 1_556 S
C110 C111 1.387 . S
C110 N113 1.341 . S
C111 C109 1.400 . S
C111 C110 1.387 . S
N112 Co103 2.022 . S
N112 C109 1.351 . S
N112 N113 1.365 . S
N113 C110 1.341 . S
N113 N112 1.365 . S
N113 H133 0.862 . S
C114 C109 1.501 1_554 S
C114 H115 0.961 . S
C114 H116 0.961 . S
C114 H117 0.960 . S
H115 C114 0.961 . S
H116 C114 0.961 . S
H117 C114 0.960 . S
C118 N119 1.342 . S
C118 C122 1.401 . S
C118 C123 1.499 . S
N119 Co102 1.989 . S
N119 C118 1.342 . S
N119 N120 1.388 . S
N120 Co103 1.993 . S
N120 N119 1.388 . S
N120 C121 1.346 . S
C121 N120 1.346 . S
C121 C122 1.396 . S
C121 C131 1.510 . S
C122 C118 1.401 . S
C122 C121 1.396 . S
C123 C118 1.499 . S
C123 H124 0.959 . S
C123 H125 0.960 . S
C123 H126 0.961 . S
H124 C123 0.959 . S
H125 C123 0.960 . S
H126 C123 0.961 . S
O127 Co102 1.967 . S
O127 C135 1.258 . S
O128 Co103 1.941 . S
O128 C135 1.266 . S
H129 C131 0.959 . S
H130 C131 0.961 . S
C131 C121 1.510 . S
C131 H129 0.959 . S
C131 H130 0.961 . S
C131 H132 0.960 . S
H132 C131 0.960 . S
H133 N113 0.862 . S
O134 Co102 1.920 . S
O134 C107 1.289 . S
C135 O127 1.258 . S
C135 O128 1.266 . S
Co136 O139 1.970 . S
Co136 N153 1.989 . S
Co136 O161 1.967 . S
Co136 O168 1.920 . S
Co137 O140 1.966 . S
Co137 N146 2.022 . S
Co137 N154 1.993 . S
Co137 O162 1.941 1_554 S
C138 O139 1.258 . S
C138 O140 1.263 . S
O139 Co136 1.970 . S
O139 C138 1.258 . S
O140 Co137 1.966 . S
O140 C138 1.263 . S
C141 O142 1.235 . S
C141 O168 1.289 . S
O142 C141 1.235 . S
C143 C145 1.400 . S
C143 N146 1.351 . S
C143 C148 1.501 . S
C144 C145 1.387 . S
C144 N147 1.341 . S
C145 C143 1.400 . S
C145 C144 1.387 . S
N146 Co137 2.022 . S
N146 C143 1.351 . S
N146 N147 1.365 . S
N147 C144 1.341 . S
N147 N146 1.365 . S
N147 H167 0.862 1_554 S
C148 C143 1.501 . S
C148 H149 0.961 . S
C148 H150 0.961 . S
C148 H151 0.960 . S
H149 C148 0.961 . S
H150 C148 0.961 . S
H151 C148 0.960 . S
C152 N153 1.342 . S
C152 C156 1.401 . S
C152 C157 1.499 . S
N153 Co136 1.989 . S
N153 C152 1.342 . S
N153 N154 1.388 . S
N154 Co137 1.993 . S
N154 N153 1.388 . S
N154 C155 1.346 . S
C155 N154 1.346 . S
C155 C156 1.396 . S
C155 C165 1.510 . S
C156 C152 1.401 . S
C156 C155 1.396 . S
C157 C152 1.499 . S
C157 H158 0.959 . S
C157 H159 0.960 . S
C157 H160 0.961 1_554 S
H158 C157 0.959 . S
H159 C157 0.960 . S
H160 C157 0.961 1_556 S
O161 Co136 1.967 . S
O161 C169 1.258 1_554 S
O162 Co137 1.941 1_556 S
O162 C169 1.266 . S
H163 C165 0.959 . S
H164 C165 0.961 . S
C165 C155 1.510 . S
C165 H163 0.959 . S
C165 H164 0.961 . S
C165 H166 0.960 . S
H166 C165 0.960 . S
H167 N147 0.862 1_556 S
O168 Co136 1.920 . S
O168 C141 1.289 . S
C169 O161 1.258 1_556 S
C169 O162 1.266 . S
Co170 O173 1.970 . S
Co170 N187 1.989 . S
Co170 O195 1.967 . S
Co170 O202 1.920 . S
Co171 O174 1.966 . S
Co171 N180 2.022 . S
Co171 N188 1.993 . S
Co171 O196 1.941 1_556 S
C172 O173 1.258 . S
C172 O174 1.263 . S
O173 Co170 1.970 . S
O173 C172 1.258 . S
O174 Co171 1.966 . S
O174 C172 1.263 . S
C175 O176 1.235 . S
C175 O202 1.289 . S
O176 C175 1.235 . S
C177 C179 1.400 . S
C177 N180 1.351 . S
C177 C182 1.501 . S
C178 C179 1.387 . S
C178 N181 1.341 . S
C179 C177 1.400 . S
C179 C178 1.387 . S
N180 Co171 2.022 . S
N180 C177 1.351 . S
N180 N181 1.365 . S
N181 C178 1.341 . S
N181 N180 1.365 . S
N181 H201 0.862 1_556 S
C182 C177 1.501 . S
C182 H183 0.961 . S
C182 H184 0.961 . S
C182 H185 0.960 . S
H183 C182 0.961 . S
H184 C182 0.961 . S
H185 C182 0.960 . S
C186 N187 1.342 . S
C186 C190 1.401 . S
C186 C191 1.499 . S
N187 Co170 1.989 . S
N187 C186 1.342 . S
N187 N188 1.388 . S
N188 Co171 1.993 . S
N188 N187 1.388 . S
N188 C189 1.346 . S
C189 N188 1.346 . S
C189 C190 1.396 . S
C189 C199 1.510 . S
C190 C186 1.401 . S
C190 C189 1.396 . S
C191 C186 1.499 . S
C191 H192 0.959 . S
C191 H193 0.960 . S
C191 H194 0.961 1_556 S
H192 C191 0.959 . S
H193 C191 0.960 . S
H194 C191 0.961 1_554 S
O195 Co170 1.967 . S
O195 C203 1.258 1_556 S
O196 Co171 1.941 1_554 S
O196 C203 1.266 . S
H197 C199 0.959 . S
H198 C199 0.961 . S
C199 C189 1.510 . S
C199 H197 0.959 . S
C199 H198 0.961 . S
C199 H200 0.960 . S
H200 C199 0.960 . S
H201 N181 0.862 1_554 S
O202 Co170 1.920 . S
O202 C175 1.289 . S
C203 O195 1.258 1_554 S
C203 O196 1.266 . S
Co204 O207 1.970 . S
Co204 N221 1.989 . S
Co204 O229 1.967 . S
Co204 O236 1.920 . S
Co205 O208 1.966 . S
Co205 N214 2.022 . S
Co205 N222 1.993 . S
Co205 O230 1.941 1_554 S
C206 O207 1.258 . S
C206 O208 1.263 . S
O207 Co204 1.970 . S
O207 C206 1.258 . S
O208 Co205 1.966 . S
O208 C206 1.263 . S
C209 O210 1.235 . S
C209 O236 1.289 . S
O210 C209 1.235 . S
C211 C213 1.400 . S
C211 N214 1.351 . S
C211 C216 1.501 . S
C212 C213 1.387 . S
C212 N215 1.341 . S
C213 C211 1.400 . S
C213 C212 1.387 . S
N214 Co205 2.022 . S
N214 C211 1.351 . S
N214 N215 1.365 . S
N215 C212 1.341 . S
N215 N214 1.365 . S
N215 H235 0.862 1_554 S
C216 C211 1.501 . S
C216 H217 0.961 . S
C216 H218 0.961 . S
C216 H219 0.960 . S
H217 C216 0.961 . S
H218 C216 0.961 . S
H219 C216 0.960 . S
C220 N221 1.342 . S
C220 C224 1.401 . S
C220 C225 1.499 . S
N221 Co204 1.989 . S
N221 C220 1.342 . S
N221 N222 1.388 . S
N222 Co205 1.993 . S
N222 N221 1.388 . S
N222 C223 1.346 . S
C223 N222 1.346 . S
C223 C224 1.396 . S
C223 C233 1.510 . S
C224 C220 1.401 . S
C224 C223 1.396 . S
C225 C220 1.499 . S
C225 H226 0.959 . S
C225 H227 0.960 . S
C225 H228 0.961 1_554 S
H226 C225 0.959 . S
H227 C225 0.960 . S
H228 C225 0.961 1_556 S
O229 Co204 1.967 . S
O229 C237 1.258 1_554 S
O230 Co205 1.941 1_556 S
O230 C237 1.266 . S
H231 C233 0.959 . S
H232 C233 0.961 . S
C233 C223 1.510 . S
C233 H231 0.959 . S
C233 H232 0.961 . S
C233 H234 0.960 . S
H234 C233 0.960 . S
H235 N215 0.862 1_556 S
O236 Co204 1.920 . S
O236 C209 1.289 . S
C237 O229 1.258 1_556 S
C237 O230 1.266 . S
Co238 O241 1.970 . S
Co238 N255 1.989 . S
Co238 O263 1.967 . S
Co238 O270 1.920 . S
Co239 O242 1.966 . S
Co239 N248 2.022 . S
Co239 N256 1.993 . S
Co239 O264 1.941 1_556 S
C240 O241 1.258 . S
C240 O242 1.263 . S
O241 Co238 1.970 . S
O241 C240 1.258 . S
O242 Co239 1.966 . S
O242 C240 1.263 . S
C243 O244 1.235 . S
C243 O270 1.289 . S
O244 C243 1.235 . S
C245 C247 1.400 . S
C245 N248 1.351 . S
C245 C250 1.501 . S
C246 C247 1.387 . S
C246 N249 1.341 . S
C247 C245 1.400 . S
C247 C246 1.387 . S
N248 Co239 2.022 . S
N248 C245 1.351 . S
N248 N249 1.365 . S
N249 C246 1.341 . S
N249 N248 1.365 . S
N249 H269 0.862 1_556 S
C250 C245 1.501 . S
C250 H251 0.961 . S
C250 H252 0.961 . S
C250 H253 0.960 . S
H251 C250 0.961 . S
H252 C250 0.961 . S
H253 C250 0.960 . S
C254 N255 1.342 . S
C254 C258 1.401 . S
C254 C259 1.499 . S
N255 Co238 1.989 . S
N255 C254 1.342 . S
N255 N256 1.388 . S
N256 Co239 1.993 . S
N256 N255 1.388 . S
N256 C257 1.346 . S
C257 N256 1.346 . S
C257 C258 1.396 . S
C257 C267 1.510 . S
C258 C254 1.401 . S
C258 C257 1.396 . S
C259 C254 1.499 . S
C259 H260 0.959 . S
C259 H261 0.960 . S
C259 H262 0.961 1_556 S
H260 C259 0.959 . S
H261 C259 0.960 . S
H262 C259 0.961 1_554 S
O263 Co238 1.967 . S
O263 C271 1.258 1_556 S
O264 Co239 1.941 1_554 S
O264 C271 1.266 . S
H265 C267 0.959 . S
H266 C267 0.961 . S
C267 C257 1.510 . S
C267 H265 0.959 . S
C267 H266 0.961 . S
C267 H268 0.960 . S
H268 C267 0.960 . S
H269 N249 0.862 1_554 S
O270 Co238 1.920 . S
O270 C243 1.289 . S
C271 O263 1.258 1_554 S
C271 O264 1.266 . S
Co272 O275 1.970 . S
Co272 N289 1.989 . S
Co272 O297 1.967 . S
Co272 O304 1.920 . S
Co273 O276 1.966 . S
Co273 N282 2.022 . S
Co273 N290 1.993 . S
Co273 O298 1.941 . S
C274 O275 1.258 . S
C274 O276 1.263 . S
O275 Co272 1.970 . S
O275 C274 1.258 . S
O276 Co273 1.966 . S
O276 C274 1.263 . S
C277 O278 1.235 . S
C277 O304 1.289 . S
O278 C277 1.235 . S
C279 C281 1.400 . S
C279 N282 1.351 . S
C279 C284 1.501 . S
C280 C281 1.387 . S
C280 N283 1.341 . S
C281 C279 1.400 . S
C281 C280 1.387 . S
N282 Co273 2.022 . S
N282 C279 1.351 . S
N282 N283 1.365 . S
N283 C280 1.341 . S
N283 N282 1.365 . S
N283 H303 0.862 . S
C284 C279 1.501 . S
C284 H285 0.961 . S
C284 H286 0.961 . S
C284 H287 0.960 . S
H285 C284 0.961 . S
H286 C284 0.961 . S
H287 C284 0.960 . S
C288 N289 1.342 . S
C288 C292 1.401 . S
C288 C293 1.499 . S
N289 Co272 1.989 . S
N289 C288 1.342 . S
N289 N290 1.388 . S
N290 Co273 1.993 . S
N290 N289 1.388 . S
N290 C291 1.346 . S
C291 N290 1.346 . S
C291 C292 1.396 . S
C291 C301 1.510 . S
C292 C288 1.401 . S
C292 C291 1.396 . S
C293 C288 1.499 . S
C293 H294 0.959 . S
C293 H295 0.960 . S
C293 H296 0.961 . S
H294 C293 0.959 . S
H295 C293 0.960 . S
H296 C293 0.961 . S
O297 Co272 1.967 . S
O297 C305 1.258 . S
O298 Co273 1.941 . S
O298 C305 1.266 . S
H299 C301 0.959 . S
H300 C301 0.961 . S
C301 C291 1.510 . S
C301 H299 0.959 . S
C301 H300 0.961 . S
C301 H302 0.960 . S
H302 C301 0.960 . S
H303 N283 0.862 . S
O304 Co272 1.920 . S
O304 C277 1.289 . S
C305 O297 1.258 . S
C305 O298 1.266 . S
Co306 O309 1.970 . S
Co306 N323 1.989 . S
Co306 O331 1.967 . S
Co306 O338 1.920 . S
Co307 O310 1.966 . S
Co307 N316 2.022 . S
Co307 N324 1.993 . S
Co307 O332 1.941 . S
C308 O309 1.258 . S
C308 O310 1.263 . S
O309 Co306 1.970 . S
O309 C308 1.258 . S
O310 Co307 1.966 . S
O310 C308 1.263 . S
C311 O312 1.235 . S
C311 O338 1.289 . S
O312 C311 1.235 . S
C313 C315 1.400 . S
C313 N316 1.351 . S
C313 C318 1.501 . S
C314 C315 1.387 . S
C314 N317 1.341 . S
C315 C313 1.400 . S
C315 C314 1.387 . S
N316 Co307 2.022 . S
N316 C313 1.351 . S
N316 N317 1.365 . S
N317 C314 1.341 . S
N317 N316 1.365 . S
N317 H337 0.862 . S
C318 C313 1.501 . S
C318 H319 0.961 . S
C318 H320 0.961 . S
C318 H321 0.960 . S
H319 C318 0.961 . S
H320 C318 0.961 . S
H321 C318 0.960 . S
C322 N323 1.342 . S
C322 C326 1.401 . S
C322 C327 1.499 . S
N323 Co306 1.989 . S
N323 C322 1.342 . S
N323 N324 1.388 . S
N324 Co307 1.993 . S
N324 N323 1.388 . S
N324 C325 1.346 . S
C325 N324 1.346 . S
C325 C326 1.396 . S
C325 C335 1.510 . S
C326 C322 1.401 . S
C326 C325 1.396 . S
C327 C322 1.499 . S
C327 H328 0.959 . S
C327 H329 0.960 . S
C327 H330 0.961 . S
H328 C327 0.959 . S
H329 C327 0.960 . S
H330 C327 0.961 . S
O331 Co306 1.967 . S
O331 C339 1.258 . S
O332 Co307 1.941 . S
O332 C339 1.266 . S
H333 C335 0.959 . S
H334 C335 0.961 . S
C335 C325 1.510 . S
C335 H333 0.959 . S
C335 H334 0.961 . S
C335 H336 0.960 . S
H336 C335 0.960 . S
H337 N317 0.862 . S
O338 Co306 1.920 . S
O338 C311 1.289 . S
C339 O331 1.258 . S
C339 O332 1.266 . S
Co340 O343 1.970 . S
Co340 N357 1.989 . S
Co340 O365 1.967 . S
Co340 O372 1.920 . S
Co341 O344 1.966 . S
Co341 N350 2.022 . S
Co341 N358 1.993 . S
Co341 O366 1.941 . S
C342 O343 1.258 . S
C342 O344 1.263 . S
O343 Co340 1.970 . S
O343 C342 1.258 . S
O344 Co341 1.966 . S
O344 C342 1.263 . S
C345 O346 1.235 . S
C345 O372 1.289 . S
O346 C345 1.235 . S
C347 C349 1.400 . S
C347 N350 1.351 . S
C347 C352 1.501 . S
C348 C349 1.387 . S
C348 N351 1.341 . S
C349 C347 1.400 . S
C349 C348 1.387 . S
N350 Co341 2.022 . S
N350 C347 1.351 . S
N350 N351 1.365 . S
N351 C348 1.341 . S
N351 N350 1.365 . S
N351 H371 0.862 . S
C352 C347 1.501 . S
C352 H353 0.961 . S
C352 H354 0.961 . S
C352 H355 0.960 . S
H353 C352 0.961 . S
H354 C352 0.961 . S
H355 C352 0.960 . S
C356 N357 1.342 . S
C356 C360 1.401 . S
C356 C361 1.499 . S
N357 Co340 1.989 . S
N357 C356 1.342 . S
N357 N358 1.388 . S
N358 Co341 1.993 . S
N358 N357 1.388 . S
N358 C359 1.346 . S
C359 N358 1.346 . S
C359 C360 1.396 . S
C359 C369 1.510 . S
C360 C356 1.401 . S
C360 C359 1.396 . S
C361 C356 1.499 . S
C361 H362 0.959 . S
C361 H363 0.960 . S
C361 H364 0.961 . S
H362 C361 0.959 . S
H363 C361 0.960 . S
H364 C361 0.961 . S
O365 Co340 1.967 . S
O365 C373 1.258 . S
O366 Co341 1.941 . S
O366 C373 1.266 . S
H367 C369 0.959 . S
H368 C369 0.961 . S
C369 C359 1.510 . S
C369 H367 0.959 . S
C369 H368 0.961 . S
C369 H370 0.960 . S
H370 C369 0.960 . S
H371 N351 0.862 . S
O372 Co340 1.920 . S
O372 C345 1.289 . S
C373 O365 1.258 . S
C373 O366 1.266 . S
Co374 O377 1.970 . S
Co374 N391 1.989 . S
Co374 O399 1.967 . S
Co374 O406 1.920 . S
Co375 O378 1.966 . S
Co375 N384 2.022 . S
Co375 N392 1.993 . S
Co375 O400 1.941 . S
C376 O377 1.258 . S
C376 O378 1.263 . S
O377 Co374 1.970 . S
O377 C376 1.258 . S
O378 Co375 1.966 . S
O378 C376 1.263 . S
C379 O380 1.235 . S
C379 O406 1.289 . S
O380 C379 1.235 . S
C381 C383 1.400 . S
C381 N384 1.351 . S
C381 C386 1.501 . S
C382 C383 1.387 . S
C382 N385 1.341 . S
C383 C381 1.400 . S
C383 C382 1.387 . S
N384 Co375 2.022 . S
N384 C381 1.351 . S
N384 N385 1.365 . S
N385 C382 1.341 . S
N385 N384 1.365 . S
N385 H405 0.862 . S
C386 C381 1.501 . S
C386 H387 0.961 . S
C386 H388 0.961 . S
C386 H389 0.960 . S
H387 C386 0.961 . S
H388 C386 0.961 . S
H389 C386 0.960 . S
C390 N391 1.342 . S
C390 C394 1.401 . S
C390 C395 1.499 . S
N391 Co374 1.989 . S
N391 C390 1.342 . S
N391 N392 1.388 . S
N392 Co375 1.993 . S
N392 N391 1.388 . S
N392 C393 1.346 . S
C393 N392 1.346 . S
C393 C394 1.396 . S
C393 C403 1.510 . S
C394 C390 1.401 . S
C394 C393 1.396 . S
C395 C390 1.499 . S
C395 H396 0.959 . S
C395 H397 0.960 . S
C395 H398 0.961 . S
H396 C395 0.959 . S
H397 C395 0.960 . S
H398 C395 0.961 . S
O399 Co374 1.967 . S
O399 C407 1.258 . S
O400 Co375 1.941 . S
O400 C407 1.266 . S
H401 C403 0.959 . S
H402 C403 0.961 . S
C403 C393 1.510 . S
C403 H401 0.959 . S
C403 H402 0.961 . S
C403 H404 0.960 . S
H404 C403 0.960 . S
H405 N385 0.862 . S
O406 Co374 1.920 . S
O406 C379 1.289 . S
C407 O399 1.258 . S
C407 O400 1.266 . S
Co408 O411 1.970 . S
Co408 N425 1.989 . S
Co408 O433 1.967 . S
Co408 O440 1.920 . S
Co409 O412 1.966 . S
Co409 N418 2.022 . S
Co409 N426 1.993 . S
Co409 O434 1.941 . S
C410 O411 1.258 . S
C410 O412 1.263 . S
O411 Co408 1.970 . S
O411 C410 1.258 . S
O412 Co409 1.966 . S
O412 C410 1.263 . S
C413 O414 1.235 . S
C413 O440 1.289 . S
O414 C413 1.235 . S
C415 C417 1.400 . S
C415 N418 1.351 . S
C415 C420 1.501 . S
C416 C417 1.387 . S
C416 N419 1.341 . S
C417 C415 1.400 . S
C417 C416 1.387 . S
N418 Co409 2.022 . S
N418 C415 1.351 . S
N418 N419 1.365 . S
N419 C416 1.341 . S
N419 N418 1.365 . S
N419 H439 0.862 . S
C420 C415 1.501 . S
C420 H421 0.961 . S
C420 H422 0.961 . S
C420 H423 0.960 . S
H421 C420 0.961 . S
H422 C420 0.961 . S
H423 C420 0.960 . S
C424 N425 1.342 . S
C424 C428 1.401 . S
C424 C429 1.499 . S
N425 Co408 1.989 . S
N425 C424 1.342 . S
N425 N426 1.388 . S
N426 Co409 1.993 . S
N426 N425 1.388 . S
N426 C427 1.346 . S
C427 N426 1.346 . S
C427 C428 1.396 . S
C427 C437 1.510 . S
C428 C424 1.401 . S
C428 C427 1.396 . S
C429 C424 1.499 . S
C429 H430 0.959 . S
C429 H431 0.960 . S
C429 H432 0.961 . S
H430 C429 0.959 . S
H431 C429 0.960 . S
H432 C429 0.961 . S
O433 Co408 1.967 . S
O433 C441 1.258 . S
O434 Co409 1.941 . S
O434 C441 1.266 . S
H435 C437 0.959 . S
H436 C437 0.961 . S
C437 C427 1.510 . S
C437 H435 0.959 . S
C437 H436 0.961 . S
C437 H438 0.960 . S
H438 C437 0.960 . S
H439 N419 0.862 . S
O440 Co408 1.920 . S
O440 C413 1.289 . S
C441 O433 1.258 . S
C441 O434 1.266 . S
Co442 O445 1.970 . S
Co442 N459 1.989 . S
Co442 O467 1.967 . S
Co442 O474 1.920 . S
Co443 O446 1.966 . S
Co443 N452 2.022 . S
Co443 N460 1.993 . S
Co443 O468 1.941 . S
C444 O445 1.258 . S
C444 O446 1.263 . S
O445 Co442 1.970 . S
O445 C444 1.258 . S
O446 Co443 1.966 . S
O446 C444 1.263 . S
C447 O448 1.235 . S
C447 O474 1.289 . S
O448 C447 1.235 . S
C449 C451 1.400 . S
C449 N452 1.351 . S
C449 C454 1.501 . S
C450 C451 1.387 . S
C450 N453 1.341 . S
C451 C449 1.400 . S
C451 C450 1.387 . S
N452 Co443 2.022 . S
N452 C449 1.351 . S
N452 N453 1.365 . S
N453 C450 1.341 . S
N453 N452 1.365 . S
N453 H473 0.862 . S
C454 C449 1.501 . S
C454 H455 0.961 . S
C454 H456 0.961 . S
C454 H457 0.960 . S
H455 C454 0.961 . S
H456 C454 0.961 . S
H457 C454 0.960 . S
C458 N459 1.342 . S
C458 C462 1.401 . S
C458 C463 1.499 . S
N459 Co442 1.989 . S
N459 C458 1.342 . S
N459 N460 1.388 . S
N460 Co443 1.993 . S
N460 N459 1.388 . S
N460 C461 1.346 . S
C461 N460 1.346 . S
C461 C462 1.396 . S
C461 C471 1.510 . S
C462 C458 1.401 . S
C462 C461 1.396 . S
C463 C458 1.499 . S
C463 H464 0.959 . S
C463 H465 0.960 . S
C463 H466 0.961 . S
H464 C463 0.959 . S
H465 C463 0.960 . S
H466 C463 0.961 . S
O467 Co442 1.967 . S
O467 C475 1.258 . S
O468 Co443 1.941 . S
O468 C475 1.266 . S
H469 C471 0.959 . S
H470 C471 0.961 . S
C471 C461 1.510 . S
C471 H469 0.959 . S
C471 H470 0.961 . S
C471 H472 0.960 . S
H472 C471 0.960 . S
H473 N453 0.862 . S
O474 Co442 1.920 . S
O474 C447 1.289 . S
C475 O467 1.258 . S
C475 O468 1.266 . S
Co476 O479 1.970 . S
Co476 N493 1.989 . S
Co476 O501 1.967 . S
Co476 O508 1.920 . S
Co477 O480 1.966 . S
Co477 N486 2.022 . S
Co477 N494 1.993 . S
Co477 O502 1.941 . S
C478 O479 1.258 . S
C478 O480 1.263 . S
O479 Co476 1.970 . S
O479 C478 1.258 . S
O480 Co477 1.966 . S
O480 C478 1.263 . S
C481 O482 1.235 . S
C481 O508 1.289 . S
O482 C481 1.235 . S
C483 C485 1.400 . S
C483 N486 1.351 . S
C483 C488 1.501 . S
C484 C485 1.387 . S
C484 N487 1.341 . S
C485 C483 1.400 . S
C485 C484 1.387 . S
N486 Co477 2.022 . S
N486 C483 1.351 . S
N486 N487 1.365 . S
N487 C484 1.341 . S
N487 N486 1.365 . S
N487 H507 0.862 . S
C488 C483 1.501 . S
C488 H489 0.961 . S
C488 H490 0.961 . S
C488 H491 0.960 . S
H489 C488 0.961 . S
H490 C488 0.961 . S
H491 C488 0.960 . S
C492 N493 1.342 . S
C492 C496 1.401 . S
C492 C497 1.499 . S
N493 Co476 1.989 . S
N493 C492 1.342 . S
N493 N494 1.388 . S
N494 Co477 1.993 . S
N494 N493 1.388 . S
N494 C495 1.346 . S
C495 N494 1.346 . S
C495 C496 1.396 . S
C495 C505 1.510 . S
C496 C492 1.401 . S
C496 C495 1.396 . S
C497 C492 1.499 . S
C497 H498 0.959 . S
C497 H499 0.960 . S
C497 H500 0.961 . S
H498 C497 0.959 . S
H499 C497 0.960 . S
H500 C497 0.961 . S
O501 Co476 1.967 . S
O501 C509 1.258 . S
O502 Co477 1.941 . S
O502 C509 1.266 . S
H503 C505 0.959 . S
H504 C505 0.961 . S
C505 C495 1.510 . S
C505 H503 0.959 . S
C505 H504 0.961 . S
C505 H506 0.960 . S
H506 C505 0.960 . S
H507 N487 0.862 . S
O508 Co476 1.920 . S
O508 C481 1.289 . S
C509 O501 1.258 . S
C509 O502 1.266 . S
Co510 O513 1.970 . S
Co510 N527 1.989 . S
Co510 O535 1.967 . S
Co510 O542 1.920 . S
Co511 O514 1.966 . S
Co511 N520 2.022 . S
Co511 N528 1.993 . S
Co511 O536 1.941 . S
C512 O513 1.258 . S
C512 O514 1.263 . S
O513 Co510 1.970 . S
O513 C512 1.258 . S
O514 Co511 1.966 . S
O514 C512 1.263 . S
C515 O516 1.235 . S
C515 O542 1.289 . S
O516 C515 1.235 . S
C517 C519 1.400 . S
C517 N520 1.351 . S
C517 C522 1.501 . S
C518 C519 1.387 . S
C518 N521 1.341 . S
C519 C517 1.400 . S
C519 C518 1.387 . S
N520 Co511 2.022 . S
N520 C517 1.351 . S
N520 N521 1.365 . S
N521 C518 1.341 . S
N521 N520 1.365 . S
N521 H541 0.862 . S
C522 C517 1.501 . S
C522 H523 0.961 . S
C522 H524 0.961 . S
C522 H525 0.960 . S
H523 C522 0.961 . S
H524 C522 0.961 . S
H525 C522 0.960 . S
C526 N527 1.342 . S
C526 C530 1.401 . S
C526 C531 1.499 . S
N527 Co510 1.989 . S
N527 C526 1.342 . S
N527 N528 1.388 . S
N528 Co511 1.993 . S
N528 N527 1.388 . S
N528 C529 1.346 . S
C529 N528 1.346 . S
C529 C530 1.396 . S
C529 C539 1.510 . S
C530 C526 1.401 . S
C530 C529 1.396 . S
C531 C526 1.499 . S
C531 H532 0.959 . S
C531 H533 0.960 . S
C531 H534 0.961 . S
H532 C531 0.959 . S
H533 C531 0.960 . S
H534 C531 0.961 . S
O535 Co510 1.967 . S
O535 C543 1.258 . S
O536 Co511 1.941 . S
O536 C543 1.266 . S
H537 C539 0.959 . S
H538 C539 0.961 . S
C539 C529 1.510 . S
C539 H537 0.959 . S
C539 H538 0.961 . S
C539 H540 0.960 . S
H540 C539 0.960 . S
H541 N521 0.862 . S
O542 Co510 1.920 . S
O542 C515 1.289 . S
C543 O535 1.258 . S
C543 O536 1.266 . S
C544 C545 1.363 . S
C544 C550 1.379 . S
C544 N552 1.356 . S
C545 C544 1.363 . S
C545 C551 1.363 . S
C546 C547 1.363 . S
C546 C551 1.379 . S
C546 N553 1.356 . S
C547 C546 1.363 . S
C547 C550 1.363 . S
N548 C550 1.356 . S
N548 H560 0.984 . S
N548 H561 0.985 . S
N549 C551 1.356 . S
N549 H554 0.984 . S
N549 H555 0.985 . S
C550 C544 1.379 . S
C550 C547 1.363 . S
C550 N548 1.356 . S
C551 C545 1.363 . S
C551 C546 1.379 . S
C551 N549 1.356 . S
N552 C544 1.356 . S
N552 H558 0.984 . S
N552 H559 0.984 . S
N553 C546 1.356 . S
N553 H556 0.984 . S
N553 H557 0.985 . S
H554 N549 0.984 . S
H555 N549 0.985 . S
H556 N553 0.984 . S
H557 N553 0.985 . S
H558 N552 0.984 . S
H559 N552 0.984 . S
H560 N548 0.984 . S
H561 N548 0.985 . S
C562 C563 1.363 . S
C562 C568 1.379 . S
C562 N570 1.356 . S
C563 C562 1.363 . S
C563 C569 1.363 . S
C564 C565 1.363 . S
C564 C569 1.379 . S
C564 N571 1.356 . S
C565 C564 1.363 . S
C565 C568 1.363 . S
N566 C568 1.356 . S
N566 H578 0.984 . S
N566 H579 0.985 . S
N567 C569 1.356 . S
N567 H572 0.984 . S
N567 H573 0.985 . S
C568 C562 1.379 . S
C568 C565 1.363 . S
C568 N566 1.356 . S
C569 C563 1.363 . S
C569 C564 1.379 . S
C569 N567 1.356 . S
N570 C562 1.356 . S
N570 H576 0.984 . S
N570 H577 0.984 . S
N571 C564 1.356 . S
N571 H574 0.984 . S
N571 H575 0.985 . S
H572 N567 0.984 . S
H573 N567 0.985 . S
H574 N571 0.984 . S
H575 N571 0.985 . S
H576 N570 0.984 . S
H577 N570 0.984 . S
H578 N566 0.984 . S
H579 N566 0.985 . S
C580 C581 1.363 . S
C580 C586 1.379 . S
C580 N588 1.356 . S
C581 C580 1.363 . S
C581 C587 1.363 . S
C582 C583 1.363 . S
C582 C587 1.379 . S
C582 N589 1.356 . S
C583 C582 1.363 . S
C583 C586 1.363 . S
N584 C586 1.356 . S
N584 H596 0.984 . S
N584 H597 0.985 . S
N585 C587 1.356 . S
N585 H590 0.984 . S
N585 H591 0.985 . S
C586 C580 1.379 . S
C586 C583 1.363 . S
C586 N584 1.356 . S
C587 C581 1.363 . S
C587 C582 1.379 . S
C587 N585 1.356 . S
N588 C580 1.356 . S
N588 H594 0.984 . S
N588 H595 0.984 . S
N589 C582 1.356 . S
N589 H592 0.984 . S
N589 H593 0.985 . S
H590 N585 0.984 . S
H591 N585 0.985 . S
H592 N589 0.984 . S
H593 N589 0.985 . S
H594 N588 0.984 . S
H595 N588 0.984 . S
H596 N584 0.984 . S
H597 N584 0.985 . S
C598 C599 1.363 . S
C598 C604 1.379 . S
C598 N606 1.356 . S
C599 C598 1.363 . S
C599 C605 1.363 . S
C600 C601 1.363 . S
C600 C605 1.379 . S
C600 N607 1.356 . S
C601 C600 1.363 . S
C601 C604 1.363 . S
N602 C604 1.356 . S
N602 H614 0.984 . S
N602 H615 0.985 . S
N603 C605 1.356 . S
N603 H608 0.984 . S
N603 H609 0.985 . S
C604 C598 1.379 . S
C604 C601 1.363 . S
C604 N602 1.356 . S
C605 C599 1.363 . S
C605 C600 1.379 . S
C605 N603 1.356 . S
N606 C598 1.356 . S
N606 H612 0.984 . S
N606 H613 0.984 . S
N607 C600 1.356 . S
N607 H610 0.984 . S
N607 H611 0.985 . S
H608 N603 0.984 . S
H609 N603 0.985 . S
H610 N607 0.984 . S
H611 N607 0.985 . S
H612 N606 0.984 . S
H613 N606 0.984 . S
H614 N602 0.984 . S
H615 N602 0.985 . S
C616 C617 1.363 . S
C616 C622 1.379 . S
C616 N624 1.363 . S
C617 C616 1.363 . S
C617 C623 1.363 . S
C618 C619 1.363 . S
C618 C623 1.379 . S
C618 N625 1.356 . S
C619 C618 1.363 . S
C619 C622 1.363 . S
N620 C622 1.356 . S
N620 H632 0.984 . S
N620 H633 0.985 . S
N621 C623 1.356 . S
N621 H626 0.984 . S
N621 H627 0.985 . S
C622 C616 1.379 . S
C622 C619 1.363 . S
C622 N620 1.356 . S
C623 C617 1.363 . S
C623 C618 1.379 . S
C623 N621 1.356 . S
N624 C616 1.363 . S
N624 H630 0.981 1_556 S
N624 H631 0.982 1_556 S
N625 C618 1.356 . S
N625 H628 0.984 . S
N625 H629 0.985 . S
H626 N621 0.984 . S
H627 N621 0.985 . S
H628 N625 0.984 . S
H629 N625 0.985 . S
H630 N624 0.981 1_554 S
H631 N624 0.982 1_554 S
H632 N620 0.984 . S
H633 N620 0.985 . S
C634 C635 1.363 . S
C634 C640 1.379 . S
C634 N642 1.356 . S
C635 C634 1.363 . S
C635 C641 1.363 . S
C636 C637 1.363 . S
C636 C641 1.379 . S
C636 N643 1.356 1_554 S
C637 C636 1.363 . S
C637 C640 1.363 . S
N638 C640 1.356 . S
N638 H650 0.984 . S
N638 H651 0.985 . S
N639 C641 1.356 . S
N639 H644 0.984 . S
N639 H645 0.985 . S
C640 C634 1.379 . S
C640 C637 1.363 . S
C640 N638 1.356 . S
C641 C635 1.363 . S
C641 C636 1.379 . S
C641 N639 1.356 . S
N642 C634 1.356 . S
N642 H648 0.984 . S
N642 H649 0.984 . S
N643 C636 1.356 1_556 S
N643 H646 0.984 . S
N643 H647 0.985 . S
H644 N639 0.984 . S
H645 N639 0.985 . S
H646 N643 0.984 . S
H647 N643 0.985 . S
H648 N642 0.984 . S
H649 N642 0.984 . S
H650 N638 0.984 . S
H651 N638 0.985 . S
C652 C653 1.363 . S
C652 C658 1.379 . S
C652 N660 1.363 . S
C653 C652 1.363 . S
C653 C659 1.363 . S
C654 C655 1.363 . S
C654 C659 1.379 . S
C654 N661 1.356 . S
C655 C654 1.363 . S
C655 C658 1.363 . S
N656 C658 1.356 . S
N656 H668 0.984 . S
N656 H669 0.985 . S
N657 C659 1.356 . S
N657 H662 0.984 . S
N657 H663 0.985 . S
C658 C652 1.379 . S
C658 C655 1.363 . S
C658 N656 1.356 . S
C659 C653 1.363 . S
C659 C654 1.379 . S
C659 N657 1.356 . S
N660 C652 1.363 . S
N660 H666 0.981 1_556 S
N660 H667 0.982 1_556 S
N661 C654 1.356 . S
N661 H664 0.984 . S
N661 H665 0.985 . S
H662 N657 0.984 . S
H663 N657 0.985 . S
H664 N661 0.984 . S
H665 N661 0.985 . S
H666 N660 0.981 1_554 S
H667 N660 0.982 1_554 S
H668 N656 0.984 . S
H669 N656 0.985 . S
C670 C671 1.363 . S
C670 C676 1.379 . S
C670 N678 1.356 . S
C671 C670 1.363 . S
C671 C677 1.363 . S
C672 C673 1.363 . S
C672 C677 1.379 . S
C672 N679 1.356 1_554 S
C673 C672 1.363 . S
C673 C676 1.363 . S
N674 C676 1.356 . S
N674 H686 0.984 . S
N674 H687 0.985 . S
N675 C677 1.356 . S
N675 H680 0.984 . S
N675 H681 0.985 . S
C676 C670 1.379 . S
C676 C673 1.363 . S
C676 N674 1.356 . S
C677 C671 1.363 . S
C677 C672 1.379 . S
C677 N675 1.356 . S
N678 C670 1.356 . S
N678 H684 0.984 . S
N678 H685 0.984 . S
N679 C672 1.356 1_556 S
N679 H682 0.984 . S
N679 H683 0.985 . S
H680 N675 0.984 . S
H681 N675 0.985 . S
H682 N679 0.984 . S
H683 N679 0.985 . S
H684 N678 0.984 . S
H685 N678 0.984 . S
H686 N674 0.984 . S
H687 N674 0.985 . S
C688 C689 1.363 . S
C688 C694 1.379 . S
C688 N696 1.356 . S
C689 C688 1.363 . S
C689 C695 1.363 . S
C690 C691 1.363 . S
C690 C695 1.379 . S
C690 N697 1.356 . S
C691 C690 1.363 . S
C691 C694 1.363 . S
N692 C694 1.356 . S
N692 H704 0.984 . S
N692 H705 0.985 . S
N693 C695 1.356 . S
N693 H698 0.984 . S
N693 H699 0.985 . S
C694 C688 1.379 . S
C694 C691 1.363 . S
C694 N692 1.356 . S
C695 C689 1.363 . S
C695 C690 1.379 . S
C695 N693 1.356 . S
N696 C688 1.356 . S
N696 H702 0.984 . S
N696 H703 0.984 . S
N697 C690 1.356 . S
N697 H700 0.984 . S
N697 H701 0.985 . S
H698 N693 0.984 . S
H699 N693 0.985 . S
H700 N697 0.984 . S
H701 N697 0.985 . S
H702 N696 0.984 . S
H703 N696 0.984 . S
H704 N692 0.984 . S
H705 N692 0.985 . S
C706 C707 1.363 . S
C706 C712 1.379 . S
C706 N714 1.356 . S
C707 C706 1.363 . S
C707 C713 1.363 . S
C708 C709 1.363 . S
C708 C713 1.379 . S
C708 N715 1.356 . S
C709 C708 1.363 . S
C709 C712 1.363 . S
N710 C712 1.356 . S
N710 H722 0.984 . S
N710 H723 0.985 . S
N711 C713 1.356 . S
N711 H716 0.984 . S
N711 H717 0.985 . S
C712 C706 1.379 . S
C712 C709 1.363 . S
C712 N710 1.356 . S
C713 C707 1.363 . S
C713 C708 1.379 . S
C713 N711 1.356 . S
N714 C706 1.356 . S
N714 H720 0.984 1_556 S
N714 H721 0.984 1_556 S
N715 C708 1.356 . S
N715 H718 0.984 . S
N715 H719 0.985 . S
H716 N711 0.984 . S
H717 N711 0.985 . S
H718 N715 0.984 . S
H719 N715 0.985 . S
H720 N714 0.984 1_554 S
H721 N714 0.984 1_554 S
H722 N710 0.984 . S
H723 N710 0.985 . S
C724 C725 1.363 . S
C724 C730 1.379 . S
C724 N732 1.356 . S
C725 C724 1.363 . S
C725 C731 1.363 . S
C726 C727 1.363 . S
C726 C731 1.379 . S
C726 N733 1.356 . S
C727 C726 1.363 . S
C727 C730 1.363 . S
N728 C730 1.356 . S
N728 H740 0.984 . S
N728 H741 0.985 . S
N729 C731 1.356 1_556 S
N729 H734 0.984 . S
N729 H735 0.985 . S
C730 C724 1.379 . S
C730 C727 1.363 . S
C730 N728 1.356 . S
C731 C725 1.363 . S
C731 C726 1.379 . S
C731 N729 1.356 1_554 S
N732 C724 1.356 . S
N732 H738 0.984 . S
N732 H739 0.984 . S
N733 C726 1.356 . S
N733 H736 0.984 . S
N733 H737 0.985 . S
H734 N729 0.984 . S
H735 N729 0.985 . S
H736 N733 0.984 . S
H737 N733 0.985 . S
H738 N732 0.984 . S
H739 N732 0.984 . S
H740 N728 0.984 . S
H741 N728 0.985 . S
C742 C743 1.363 . S
C742 C748 1.379 . S
C742 N750 1.356 . S
C743 C742 1.363 . S
C743 C749 1.363 . S
C744 C745 1.363 . S
C744 C749 1.379 . S
C744 N751 1.356 . S
C745 C744 1.363 . S
C745 C748 1.363 . S
N746 C748 1.356 . S
N746 H758 0.984 . S
N746 H759 0.985 . S
N747 C749 1.356 . S
N747 H752 0.984 1_556 S
N747 H753 0.985 1_556 S
C748 C742 1.379 . S
C748 C745 1.363 . S
C748 N746 1.356 . S
C749 C743 1.363 . S
C749 C744 1.379 . S
C749 N747 1.356 . S
N750 C742 1.356 . S
N750 H756 0.984 . S
N750 H757 0.984 . S
N751 C744 1.356 . S
N751 H754 0.984 . S
N751 H755 0.985 . S
H752 N747 0.984 1_554 S
H753 N747 0.985 1_554 S
H754 N751 0.984 . S
H755 N751 0.985 . S
H756 N750 0.984 . S
H757 N750 0.984 . S
H758 N746 0.984 . S
H759 N746 0.985 . S
C760 C761 1.363 . S
C760 C766 1.379 . S
C760 N768 1.356 . S
C761 C760 1.363 . S
C761 C767 1.363 . S
C762 C763 1.363 . S
C762 C767 1.379 . S
C762 N769 1.356 . S
C763 C762 1.363 . S
C763 C766 1.363 . S
N764 C766 1.356 . S
N764 H776 0.984 . S
N764 H777 0.985 . S
N765 C767 1.356 . S
N765 H770 0.984 . S
N765 H771 0.985 . S
C766 C760 1.379 . S
C766 C763 1.363 . S
C766 N764 1.356 . S
C767 C761 1.363 . S
C767 C762 1.379 . S
C767 N765 1.356 . S
N768 C760 1.356 . S
N768 H774 0.984 . S
N768 H775 0.984 . S
N769 C762 1.356 . S
N769 H772 0.984 . S
N769 H773 0.985 . S
H770 N765 0.984 . S
H771 N765 0.985 . S
H772 N769 0.984 . S
H773 N769 0.985 . S
H774 N768 0.984 . S
H775 N768 0.984 . S
H776 N764 0.984 . S
H777 N764 0.985 . S
C778 C779 1.363 . S
C778 C784 1.379 . S
C778 N786 1.356 . S
C779 C778 1.363 . S
C779 C785 1.363 . S
C780 C781 1.363 . S
C780 C785 1.379 . S
C780 N787 1.356 . S
C781 C780 1.363 . S
C781 C784 1.363 . S
N782 C784 1.356 . S
N782 H794 0.984 . S
N782 H795 0.985 . S
N783 C785 1.356 . S
N783 H788 0.984 . S
N783 H789 0.985 . S
C784 C778 1.379 . S
C784 C781 1.363 . S
C784 N782 1.356 . S
C785 C779 1.363 . S
C785 C780 1.379 . S
C785 N783 1.356 . S
N786 C778 1.356 . S
N786 H792 0.984 . S
N786 H793 0.984 . S
N787 C780 1.356 . S
N787 H790 0.984 . S
N787 H791 0.985 . S
H788 N783 0.984 . S
H789 N783 0.985 . S
H790 N787 0.984 . S
H791 N787 0.985 . S
H792 N786 0.984 . S
H793 N786 0.984 . S
H794 N782 0.984 . S
H795 N782 0.985 . S
C796 C797 1.363 . S
C796 C802 1.379 . S
C796 N804 1.356 . S
C797 C796 1.363 . S
C797 C803 1.363 . S
C798 C799 1.363 . S
C798 C803 1.379 . S
C798 N805 1.356 . S
C799 C798 1.363 . S
C799 C802 1.363 . S
N800 C802 1.356 . S
N800 H812 0.984 . S
N800 H813 0.985 . S
N801 C803 1.356 . S
N801 H806 0.984 . S
N801 H807 0.985 . S
C802 C796 1.379 . S
C802 C799 1.363 . S
C802 N800 1.356 . S
C803 C797 1.363 . S
C803 C798 1.379 . S
C803 N801 1.356 . S
N804 C796 1.356 . S
N804 H810 0.984 . S
N804 H811 0.984 . S
N805 C798 1.356 . S
N805 H808 0.984 . S
N805 H809 0.985 . S
H806 N801 0.984 . S
H807 N801 0.985 . S
H808 N805 0.984 . S
H809 N805 0.985 . S
H810 N804 0.984 . S
H811 N804 0.984 . S
H812 N800 0.984 . S
H813 N800 0.985 . S
C814 C815 1.363 . S
C814 C820 1.379 . S
C814 N822 1.356 . S
C815 C814 1.363 . S
C815 C821 1.363 . S
C816 C817 1.363 . S
C816 C821 1.379 . S
C816 N823 1.356 . S
C817 C816 1.363 . S
C817 C820 1.363 . S
N818 C820 1.356 . S
N818 H830 0.984 . S
N818 H831 0.985 . S
N819 C821 1.356 . S
N819 H824 0.984 . S
N819 H825 0.985 . S
C820 C814 1.379 . S
C820 C817 1.363 . S
C820 N818 1.356 . S
C821 C815 1.363 . S
C821 C816 1.379 . S
C821 N819 1.356 . S
N822 C814 1.356 . S
N822 H828 0.984 . S
N822 H829 0.984 . S
N823 C816 1.356 . S
N823 H826 0.984 . S
N823 H827 0.985 . S
H824 N819 0.984 . S
H825 N819 0.985 . S
H826 N823 0.984 . S
H827 N823 0.985 . S
H828 N822 0.984 . S
H829 N822 0.984 . S
H830 N818 0.984 . S
H831 N818 0.985 . S
C832 C833 1.363 . S
C832 C838 1.379 . S
C832 N840 1.356 1_556 S
C833 C832 1.363 . S
C833 C839 1.363 . S
C834 C835 1.363 . S
C834 C839 1.379 . S
C834 N841 1.356 . S
C835 C834 1.363 . S
C835 C838 1.363 . S
N836 C838 1.356 . S
N836 H848 0.984 . S
N836 H849 0.985 . S
N837 C839 1.356 . S
N837 H842 0.984 . S
N837 H843 0.985 . S
C838 C832 1.379 . S
C838 C835 1.363 . S
C838 N836 1.356 . S
C839 C833 1.363 . S
C839 C834 1.379 . S
C839 N837 1.356 . S
N840 C832 1.356 1_554 S
N840 H846 0.984 . S
N840 H847 0.984 . S
N841 C834 1.356 . S
N841 H844 0.984 . S
N841 H845 0.985 . S
H842 N837 0.984 . S
H843 N837 0.985 . S
H844 N841 0.984 . S
H845 N841 0.985 . S
H846 N840 0.984 . S
H847 N840 0.984 . S
H848 N836 0.984 . S
H849 N836 0.985 . S
C850 C851 1.363 . S
C850 C856 1.379 . S
C850 N858 1.356 . S
C851 C850 1.363 . S
C851 C857 1.363 . S
C852 C853 1.363 . S
C852 C857 1.379 . S
C852 N859 1.356 . S
C853 C852 1.363 . S
C853 C856 1.363 . S
N854 C856 1.356 1_556 S
N854 H866 0.984 . S
N854 H867 0.985 . S
N855 C857 1.356 . S
N855 H860 0.984 . S
N855 H861 0.985 . S
C856 C850 1.379 . S
C856 C853 1.363 . S
C856 N854 1.356 1_554 S
C857 C851 1.363 . S
C857 C852 1.379 . S
C857 N855 1.356 . S
N858 C850 1.356 . S
N858 H864 0.984 . S
N858 H865 0.984 . S
N859 C852 1.356 . S
N859 H862 0.984 . S
N859 H863 0.985 . S
H860 N855 0.984 . S
H861 N855 0.985 . S
H862 N859 0.984 . S
H863 N859 0.985 . S
H864 N858 0.984 . S
H865 N858 0.984 . S
H866 N854 0.984 . S
H867 N854 0.985 . S
C868 C869 1.363 . S
C868 C874 1.379 . S
C868 N876 1.356 . S
C869 C868 1.363 . S
C869 C875 1.363 . S
C870 C871 1.363 . S
C870 C875 1.379 . S
C870 N877 1.356 . S
C871 C870 1.363 . S
C871 C874 1.363 . S
N872 C874 1.356 . S
N872 H884 0.984 . S
N872 H885 0.985 . S
N873 C875 1.356 1_554 S
N873 H878 0.984 . S
N873 H879 0.985 . S
C874 C868 1.379 . S
C874 C871 1.363 . S
C874 N872 1.356 . S
C875 C869 1.363 . S
C875 C870 1.379 . S
C875 N873 1.356 1_556 S
N876 C868 1.356 . S
N876 H882 0.984 . S
N876 H883 0.984 . S
N877 C870 1.356 . S
N877 H880 0.984 . S
N877 H881 0.985 . S
H878 N873 0.984 . S
H879 N873 0.985 . S
H880 N877 0.984 . S
H881 N877 0.985 . S
H882 N876 0.984 . S
H883 N876 0.984 . S
H884 N872 0.984 . S
H885 N872 0.985 . S
C886 C887 1.363 . S
C886 C892 1.379 . S
C886 N894 1.356 . S
C887 C886 1.363 . S
C887 C893 1.363 . S
C888 C889 1.363 . S
C888 C893 1.379 . S
C888 N895 1.356 . S
C889 C888 1.363 . S
C889 C892 1.363 . S
N890 C892 1.356 1_556 S
N890 H902 0.984 . S
N890 H903 0.985 . S
N891 C893 1.356 . S
N891 H896 0.984 . S
N891 H897 0.985 . S
C892 C886 1.379 . S
C892 C889 1.363 . S
C892 N890 1.356 1_554 S
C893 C887 1.363 . S
C893 C888 1.379 . S
C893 N891 1.356 . S
N894 C886 1.356 . S
N894 H900 0.984 . S
N894 H901 0.984 . S
N895 C888 1.356 . S
N895 H898 0.984 . S
N895 H899 0.985 . S
H896 N891 0.984 . S
H897 N891 0.985 . S
H898 N895 0.984 . S
H899 N895 0.985 . S
H900 N894 0.984 . S
H901 N894 0.984 . S
H902 N890 0.984 . S
H903 N890 0.985 . S
C904 C905 1.363 . S
C904 C910 1.379 . S
C904 N912 1.356 . S
C905 C904 1.363 . S
C905 C911 1.363 . S
C906 C907 1.363 . S
C906 C911 1.379 . S
C906 N913 1.356 . S
C907 C906 1.363 . S
C907 C910 1.363 . S
N908 C910 1.356 . S
N908 H920 0.984 . S
N908 H921 0.985 . S
N909 C911 1.356 . S
N909 H914 0.984 . S
N909 H915 0.985 . S
C910 C904 1.379 . S
C910 C907 1.363 . S
C910 N908 1.356 . S
C911 C905 1.363 . S
C911 C906 1.379 . S
C911 N909 1.356 . S
N912 C904 1.356 . S
N912 H918 0.984 . S
N912 H919 0.984 . S
N913 C906 1.356 . S
N913 H916 0.984 . S
N913 H917 0.985 . S
H914 N909 0.984 . S
H915 N909 0.985 . S
H916 N913 0.984 . S
H917 N913 0.985 . S
H918 N912 0.984 . S
H919 N912 0.984 . S
H920 N908 0.984 . S
H921 N908 0.985 . S
C922 C923 1.363 . S
C922 C928 1.379 . S
C922 N930 1.356 . S
C923 C922 1.363 . S
C923 C929 1.363 . S
C924 C925 1.363 . S
C924 C929 1.379 . S
C924 N931 1.356 . S
C925 C924 1.363 . S
C925 C928 1.363 . S
N926 C928 1.356 . S
N926 H938 0.984 . S
N926 H939 0.985 . S
N927 C929 1.356 . S
N927 H932 0.984 . S
N927 H933 0.985 . S
C928 C922 1.379 . S
C928 C925 1.363 . S
C928 N926 1.356 . S
C929 C923 1.363 . S
C929 C924 1.379 . S
C929 N927 1.356 . S
N930 C922 1.356 . S
N930 H936 0.984 . S
N930 H937 0.984 . S
N931 C924 1.356 . S
N931 H934 0.984 . S
N931 H935 0.985 . S
H932 N927 0.984 . S
H933 N927 0.985 . S
H934 N931 0.984 . S
H935 N931 0.985 . S
H936 N930 0.984 . S
H937 N930 0.984 . S
H938 N926 0.984 . S
H939 N926 0.985 . S
C940 C941 1.363 . S
C940 C946 1.379 . S
C940 N948 1.356 . S
C941 C940 1.363 . S
C941 C947 1.363 . S
C942 C943 1.363 . S
C942 C947 1.379 . S
C942 N949 1.356 . S
C943 C942 1.363 . S
C943 C946 1.363 . S
N944 C946 1.356 . S
N944 H956 0.984 . S
N944 H957 0.985 . S
N945 C947 1.356 . S
N945 H950 0.984 . S
N945 H951 0.985 . S
C946 C940 1.379 . S
C946 C943 1.363 . S
C946 N944 1.356 . S
C947 C941 1.363 . S
C947 C942 1.379 . S
C947 N945 1.356 . S
N948 C940 1.356 . S
N948 H954 0.984 . S
N948 H955 0.984 . S
N949 C942 1.356 . S
N949 H952 0.984 . S
N949 H953 0.985 . S
H950 N945 0.984 . S
H951 N945 0.985 . S
H952 N949 0.984 . S
H953 N949 0.985 . S
H954 N948 0.984 . S
H955 N948 0.984 . S
H956 N944 0.984 . S
H957 N944 0.985 . S
C958 C959 1.363 . S
C958 C964 1.379 . S
C958 N966 1.356 . S
C959 C958 1.363 . S
C959 C965 1.363 . S
C960 C961 1.363 . S
C960 C965 1.379 . S
C960 N967 1.356 . S
C961 C960 1.363 . S
C961 C964 1.363 . S
N962 C964 1.356 . S
N962 H974 0.984 . S
N962 H975 0.985 . S
N963 C965 1.356 . S
N963 H968 0.984 . S
N963 H969 0.985 . S
C964 C958 1.379 . S
C964 C961 1.363 . S
C964 N962 1.356 . S
C965 C959 1.363 . S
C965 C960 1.379 . S
C965 N963 1.356 . S
N966 C958 1.356 . S
N966 H972 0.984 . S
N966 H973 0.984 . S
N967 C960 1.356 . S
N967 H970 0.984 . S
N967 H971 0.985 . S
H968 N963 0.984 . S
H969 N963 0.985 . S
H970 N967 0.984 . S
H971 N967 0.985 . S
H972 N966 0.984 . S
H973 N966 0.984 . S
H974 N962 0.984 . S
H975 N962 0.985 . S
C976 C977 1.363 . S
C976 C982 1.379 . S
C976 N984 1.356 . S
C977 C976 1.363 . S
C977 C983 1.363 . S
C978 C979 1.363 . S
C978 C983 1.379 . S
C978 N985 1.356 . S
C979 C978 1.363 . S
C979 C982 1.363 . S
N980 C982 1.356 . S
N980 H992 0.984 . S
N980 H993 0.985 . S
N981 C983 1.356 1_545 S
N981 H986 0.984 . S
N981 H987 0.985 . S
C982 C976 1.379 . S
C982 C979 1.363 . S
C982 N980 1.356 . S
C983 C977 1.363 . S
C983 C978 1.379 . S
C983 N981 1.356 1_565 S
N984 C976 1.356 . S
N984 H990 0.984 . S
N984 H991 0.984 . S
N985 C978 1.356 . S
N985 H988 0.984 . S
N985 H989 0.985 . S
H986 N981 0.984 . S
H987 N981 0.985 . S
H988 N985 0.984 . S
H989 N985 0.985 . S
H990 N984 0.984 . S
H991 N984 0.984 . S
H992 N980 0.984 . S
H993 N980 0.985 . S
C994 C995 1.363 . S
C994 C1000 1.379 . S
C994 N1002 1.356 . S
C995 C994 1.363 . S
C995 C1001 1.363 . S
C996 C997 1.363 . S
C996 C1001 1.379 . S
C996 N1003 1.356 . S
C997 C996 1.363 . S
C997 C1000 1.363 . S
N998 C1000 1.356 . S
N998 H1010 0.984 1_655 S
N998 H1011 0.985 1_655 S
N999 C1001 1.356 . S
N999 H1004 0.984 . S
N999 H1005 0.985 . S
C1000 C994 1.379 . S
C1000 C997 1.363 . S
C1000 N998 1.356 . S
C1001 C995 1.363 . S
C1001 C996 1.379 . S
C1001 N999 1.356 . S
N1002 C994 1.356 . S
N1002 H1008 0.984 . S
N1002 H1009 0.984 . S
N1003 C996 1.356 . S
N1003 H1006 0.984 . S
N1003 H1007 0.985 1_556 S
H1004 N999 0.984 . S
H1005 N999 0.985 . S
H1006 N1003 0.984 . S
H1007 N1003 0.985 1_554 S
H1008 N1002 0.984 . S
H1009 N1002 0.984 . S
H1010 N998 0.984 1_455 S
H1011 N998 0.985 1_455 S
C1012 C1013 1.363 . S
C1012 C1018 1.379 . S
C1012 N1020 1.356 . S
C1013 C1012 1.363 . S
C1013 C1019 1.363 . S
C1014 C1015 1.363 . S
C1014 C1019 1.379 . S
C1014 N1021 1.356 . S
C1015 C1014 1.363 . S
C1015 C1018 1.363 . S
N1016 C1018 1.356 . S
N1016 H1028 0.984 . S
N1016 H1029 0.985 . S
N1017 C1019 1.356 . S
N1017 H1022 0.984 . S
N1017 H1023 0.985 1_554 S
C1018 C1012 1.379 . S
C1018 C1015 1.363 . S
C1018 N1016 1.356 . S
C1019 C1013 1.363 . S
C1019 C1014 1.379 . S
C1019 N1017 1.356 . S
N1020 C1012 1.356 . S
N1020 H1026 0.987 . S
N1020 H1027 0.984 1_545 S
N1021 C1014 1.356 . S
N1021 H1024 0.984 . S
N1021 H1025 0.985 . S
H1022 N1017 0.984 . S
H1023 N1017 0.985 1_556 S
H1024 N1021 0.984 . S
H1025 N1021 0.985 . S
H1026 N1020 0.987 . S
H1027 N1020 0.984 1_565 S
H1028 N1016 0.984 . S
H1029 N1016 0.985 . S
C1030 C1031 1.363 . S
C1030 C1036 1.379 . S
C1030 N1038 1.356 . S
C1031 C1030 1.363 . S
C1031 C1037 1.363 . S
C1032 C1033 1.363 . S
C1032 C1037 1.379 . S
C1032 N1039 1.356 . S
C1033 C1032 1.363 . S
C1033 C1036 1.363 . S
N1034 C1036 1.356 . S
N1034 H1046 0.984 1_556 S
N1034 H1047 0.985 . S
N1035 C1037 1.356 . S
N1035 H1040 0.984 . S
N1035 H1041 0.985 . S
C1036 C1030 1.379 . S
C1036 C1033 1.363 . S
C1036 N1034 1.356 . S
C1037 C1031 1.363 . S
C1037 C1032 1.379 . S
C1037 N1035 1.356 . S
N1038 C1030 1.356 . S
N1038 H1044 0.984 . S
N1038 H1045 0.984 . S
N1039 C1032 1.356 . S
N1039 H1042 0.984 1_455 S
N1039 H1043 0.985 1_455 S
H1040 N1035 0.984 . S
H1041 N1035 0.985 . S
H1042 N1039 0.984 1_655 S
H1043 N1039 0.985 1_655 S
H1044 N1038 0.984 . S
H1045 N1038 0.984 . S
H1046 N1034 0.984 1_554 S
H1047 N1034 0.985 . S
C1048 C1049 1.363 . S
C1048 C1054 1.379 . S
C1048 N1056 1.356 . S
C1049 C1048 1.363 . S
C1049 C1055 1.363 1_554 S
C1050 C1051 1.363 1_556 S
C1050 C1055 1.379 . S
C1050 N1057 1.356 . S
C1051 C1050 1.363 1_554 S
C1051 C1054 1.363 . S
N1052 C1054 1.356 . S
N1052 H1064 0.984 . S
N1052 H1065 0.985 . S
N1053 C1055 1.356 . S
N1053 H1058 0.984 . S
N1053 H1059 0.985 . S
C1054 C1048 1.379 . S
C1054 C1051 1.363 . S
C1054 N1052 1.356 . S
C1055 C1049 1.363 1_556 S
C1055 C1050 1.379 . S
C1055 N1053 1.356 . S
N1056 C1048 1.356 . S
N1056 H1062 0.984 . S
N1056 H1063 0.984 . S
N1057 C1050 1.356 . S
N1057 H1060 0.984 1_556 S
N1057 H1061 0.985 . S
H1058 N1053 0.984 . S
H1059 N1053 0.985 . S
H1060 N1057 0.984 1_554 S
H1061 N1057 0.985 . S
H1062 N1056 0.984 . S
H1063 N1056 0.984 . S
H1064 N1052 0.984 . S
H1065 N1052 0.985 . S
C1066 C1067 1.363 1_554 S
C1066 C1072 1.379 . S
C1066 N1074 1.356 . S
C1067 C1066 1.363 1_556 S
C1067 C1073 1.363 . S
C1068 C1069 1.363 . S
C1068 C1073 1.379 . S
C1068 N1075 1.356 . S
C1069 C1068 1.363 . S
C1069 C1072 1.363 1_556 S
N1070 C1072 1.356 . S
N1070 H1082 0.984 . S
N1070 H1083 0.985 . S
N1071 C1073 1.356 . S
N1071 H1076 0.984 . S
N1071 H1077 0.985 . S
C1072 C1066 1.379 . S
C1072 C1069 1.363 1_554 S
C1072 N1070 1.356 . S
C1073 C1067 1.363 . S
C1073 C1068 1.379 . S
C1073 N1071 1.356 . S
N1074 C1066 1.356 . S
N1074 H1080 0.984 . S
N1074 H1081 0.984 . S
N1075 C1068 1.356 . S
N1075 H1078 0.984 . S
N1075 H1079 0.985 . S
H1076 N1071 0.984 . S
H1077 N1071 0.985 . S
H1078 N1075 0.984 . S
H1079 N1075 0.985 . S
H1080 N1074 0.984 . S
H1081 N1074 0.984 . S
H1082 N1070 0.984 . S
H1083 N1070 0.985 . S
C1084 C1085 1.363 . S
C1084 C1090 1.379 1_554 S
C1084 N1092 1.356 . S
C1085 C1084 1.363 . S
C1085 C1091 1.363 . S
C1086 C1087 1.363 . S
C1086 C1091 1.379 . S
C1086 N1093 1.356 . S
C1087 C1086 1.363 . S
C1087 C1090 1.363 1_554 S
N1088 C1090 1.356 . S
N1088 H1100 0.984 . S
N1088 H1101 0.985 . S
N1089 C1091 1.356 . S
N1089 H1094 0.984 . S
N1089 H1095 0.985 . S
C1090 C1084 1.379 1_556 S
C1090 C1087 1.363 1_556 S
C1090 N1088 1.356 . S
C1091 C1085 1.363 . S
C1091 C1086 1.379 . S
C1091 N1089 1.356 . S
N1092 C1084 1.356 . S
N1092 H1098 0.984 1_554 S
N1092 H1099 0.984 . S
N1093 C1086 1.356 . S
N1093 H1096 0.984 . S
N1093 H1097 0.985 . S
H1094 N1089 0.984 . S
H1095 N1089 0.985 . S
H1096 N1093 0.984 . S
H1097 N1093 0.985 . S
H1098 N1092 0.984 1_556 S
H1099 N1092 0.984 . S
H1100 N1088 0.984 . S
H1101 N1088 0.985 . S
C1102 C1103 1.363 1_554 S
C1102 C1108 1.379 . S
C1102 N1110 1.356 . S
C1103 C1102 1.363 1_556 S
C1103 C1109 1.363 . S
C1104 C1105 1.363 . S
C1104 C1109 1.379 . S
C1104 N1111 1.356 . S
C1105 C1104 1.363 . S
C1105 C1108 1.363 1_556 S
N1106 C1108 1.356 . S
N1106 H1118 0.984 . S
N1106 H1119 0.987 . S
N1107 C1109 1.356 . S
N1107 H1112 0.984 . S
N1107 H1113 0.985 . S
C1108 C1102 1.379 . S
C1108 C1105 1.363 1_554 S
C1108 N1106 1.356 . S
C1109 C1103 1.363 . S
C1109 C1104 1.379 . S
C1109 N1107 1.356 . S
N1110 C1102 1.356 . S
N1110 H1116 0.984 . S
N1110 H1117 0.984 . S
N1111 C1104 1.356 . S
N1111 H1114 0.984 . S
N1111 H1115 0.985 . S
H1112 N1107 0.984 . S
H1113 N1107 0.985 . S
H1114 N1111 0.984 . S
H1115 N1111 0.985 . S
H1116 N1110 0.984 . S
H1117 N1110 0.984 . S
H1118 N1106 0.984 . S
H1119 N1106 0.987 . S
C1120 C1121 1.363 . S
C1120 C1126 1.379 . S
C1120 N1128 1.356 . S
C1121 C1120 1.363 . S
C1121 C1127 1.363 . S
C1122 C1123 1.363 . S
C1122 C1127 1.379 . S
C1122 N1129 1.356 . S
C1123 C1122 1.363 . S
C1123 C1126 1.363 . S
N1124 C1126 1.356 . S
N1124 H1136 0.984 . S
N1124 H1137 0.985 . S
N1125 C1127 1.356 . S
N1125 H1130 0.984 . S
N1125 H1131 0.985 . S
C1126 C1120 1.379 . S
C1126 C1123 1.363 . S
C1126 N1124 1.356 . S
C1127 C1121 1.363 . S
C1127 C1122 1.379 . S
C1127 N1125 1.356 . S
N1128 C1120 1.356 . S
N1128 H1134 0.984 . S
N1128 H1135 0.984 . S
N1129 C1122 1.356 . S
N1129 H1132 0.984 . S
N1129 H1133 0.985 . S
H1130 N1125 0.984 . S
H1131 N1125 0.985 . S
H1132 N1129 0.984 . S
H1133 N1129 0.985 . S
H1134 N1128 0.984 . S
H1135 N1128 0.984 . S
H1136 N1124 0.984 . S
H1137 N1124 0.985 . S
C1138 C1139 1.363 . S
C1138 C1144 1.379 . S
C1138 N1146 1.356 . S
C1139 C1138 1.363 . S
C1139 C1145 1.363 . S
C1140 C1141 1.363 . S
C1140 C1145 1.379 . S
C1140 N1147 1.356 . S
C1141 C1140 1.363 . S
C1141 C1144 1.363 . S
N1142 C1144 1.356 . S
N1142 H1154 0.984 . S
N1142 H1155 0.985 . S
N1143 C1145 1.356 . S
N1143 H1148 0.984 . S
N1143 H1149 0.985 . S
C1144 C1138 1.379 . S
C1144 C1141 1.363 . S
C1144 N1142 1.356 . S
C1145 C1139 1.363 . S
C1145 C1140 1.379 . S
C1145 N1143 1.356 . S
N1146 C1138 1.356 . S
N1146 H1152 0.984 . S
N1146 H1153 0.984 . S
N1147 C1140 1.356 . S
N1147 H1150 0.984 . S
N1147 H1151 0.985 . S
H1148 N1143 0.984 . S
H1149 N1143 0.985 . S
H1150 N1147 0.984 . S
H1151 N1147 0.985 . S
H1152 N1146 0.984 . S
H1153 N1146 0.984 . S
H1154 N1142 0.984 . S
H1155 N1142 0.985 . S
C1156 C1157 1.363 . S
C1156 C1162 1.379 . S
C1156 N1164 1.356 . S
C1157 C1156 1.363 . S
C1157 C1163 1.363 . S
C1158 C1159 1.363 . S
C1158 C1163 1.379 . S
C1158 N1165 1.356 . S
C1159 C1158 1.363 . S
C1159 C1162 1.363 . S
N1160 C1162 1.356 . S
N1160 H1172 0.984 . S
N1160 H1173 0.985 . S
N1161 C1163 1.356 . S
N1161 H1166 0.984 . S
N1161 H1167 0.985 . S
C1162 C1156 1.379 . S
C1162 C1159 1.363 . S
C1162 N1160 1.356 . S
C1163 C1157 1.363 . S
C1163 C1158 1.379 . S
C1163 N1161 1.356 . S
N1164 C1156 1.356 . S
N1164 H1170 0.984 . S
N1164 H1171 0.984 . S
N1165 C1158 1.356 . S
N1165 H1168 0.984 . S
N1165 H1169 0.985 . S
H1166 N1161 0.984 . S
H1167 N1161 0.985 . S
H1168 N1165 0.984 . S
H1169 N1165 0.985 . S
H1170 N1164 0.984 . S
H1171 N1164 0.984 . S
H1172 N1160 0.984 . S
H1173 N1160 0.985 . S
C1174 C1175 1.363 . S
C1174 C1180 1.379 . S
C1174 N1182 1.356 . S
C1175 C1174 1.363 . S
C1175 C1181 1.363 . S
C1176 C1177 1.363 . S
C1176 C1181 1.379 . S
C1176 N1183 1.356 . S
C1177 C1176 1.363 . S
C1177 C1180 1.363 . S
N1178 C1180 1.356 . S
N1178 H1190 0.984 . S
N1178 H1191 0.985 . S
N1179 C1181 1.356 . S
N1179 H1184 0.984 . S
N1179 H1185 0.985 . S
C1180 C1174 1.379 . S
C1180 C1177 1.363 . S
C1180 N1178 1.356 . S
C1181 C1175 1.363 . S
C1181 C1176 1.379 . S
C1181 N1179 1.356 . S
N1182 C1174 1.356 . S
N1182 H1188 0.984 . S
N1182 H1189 0.984 . S
N1183 C1176 1.356 . S
N1183 H1186 0.984 . S
N1183 H1187 0.985 . S
H1184 N1179 0.984 . S
H1185 N1179 0.985 . S
H1186 N1183 0.984 . S
H1187 N1183 0.985 . S
H1188 N1182 0.984 . S
H1189 N1182 0.984 . S
H1190 N1178 0.984 . S
H1191 N1178 0.985 . S
C1192 C1193 1.363 . S
C1192 C1198 1.379 . S
C1192 N1200 1.356 . S
C1193 C1192 1.363 . S
C1193 C1199 1.363 . S
C1194 C1195 1.363 . S
C1194 C1199 1.379 . S
C1194 N1201 1.356 . S
C1195 C1194 1.363 . S
C1195 C1198 1.363 . S
N1196 C1198 1.356 . S
N1196 H1208 0.984 . S
N1196 H1209 0.985 . S
N1197 C1199 1.356 . S
N1197 H1202 0.984 . S
N1197 H1203 0.985 . S
C1198 C1192 1.379 . S
C1198 C1195 1.363 . S
C1198 N1196 1.356 . S
C1199 C1193 1.363 . S
C1199 C1194 1.379 . S
C1199 N1197 1.356 . S
N1200 C1192 1.356 . S
N1200 H1206 0.984 . S
N1200 H1207 0.984 . S
N1201 C1194 1.356 . S
N1201 H1204 0.984 . S
N1201 H1205 0.985 . S
H1202 N1197 0.984 . S
H1203 N1197 0.985 . S
H1204 N1201 0.984 . S
H1205 N1201 0.985 . S
H1206 N1200 0.984 . S
H1207 N1200 0.984 . S
H1208 N1196 0.984 . S
H1209 N1196 0.985 . S
C1210 C1211 1.363 . S
C1210 C1216 1.379 . S
C1210 N1218 1.356 . S
C1211 C1210 1.363 . S
C1211 C1217 1.363 . S
C1212 C1213 1.363 . S
C1212 C1217 1.379 . S
C1212 N1219 1.356 . S
C1213 C1212 1.363 . S
C1213 C1216 1.363 . S
N1214 C1216 1.356 . S
N1214 H1226 0.984 1_455 S
N1214 H1227 0.985 1_455 S
N1215 C1217 1.356 . S
N1215 H1220 0.984 . S
N1215 H1221 0.985 . S
C1216 C1210 1.379 . S
C1216 C1213 1.363 . S
C1216 N1214 1.356 . S
C1217 C1211 1.363 . S
C1217 C1212 1.379 . S
C1217 N1215 1.356 . S
N1218 C1210 1.356 . S
N1218 H1224 0.984 . S
N1218 H1225 0.984 . S
N1219 C1212 1.356 . S
N1219 H1222 0.984 . S
N1219 H1223 0.985 . S
H1220 N1215 0.984 . S
H1221 N1215 0.985 . S
H1222 N1219 0.984 . S
H1223 N1219 0.985 . S
H1224 N1218 0.984 . S
H1225 N1218 0.984 . S
H1226 N1214 0.984 1_655 S
H1227 N1214 0.985 1_655 S
C1228 C1229 1.363 . S
C1228 C1234 1.379 . S
C1228 N1236 1.356 . S
C1229 C1228 1.363 . S
C1229 C1235 1.363 . S
C1230 C1231 1.363 . S
C1230 C1235 1.379 . S
C1230 N1237 1.356 . S
C1231 C1230 1.363 . S
C1231 C1234 1.363 . S
N1232 C1234 1.339 1_545 S
N1232 H1244 0.991 . S
N1232 H1245 0.996 . S
N1233 C1235 1.356 . S
N1233 H1238 0.984 . S
N1233 H1239 0.985 . S
C1234 C1228 1.379 . S
C1234 C1231 1.363 . S
C1234 N1232 1.339 1_565 S
C1235 C1229 1.363 . S
C1235 C1230 1.379 . S
C1235 N1233 1.356 . S
N1236 C1228 1.356 . S
N1236 H1242 0.984 . S
N1236 H1243 0.984 . S
N1237 C1230 1.356 . S
N1237 H1240 0.984 . S
N1237 H1241 0.985 . S
H1238 N1233 0.984 . S
H1239 N1233 0.985 . S
H1240 N1237 0.984 . S
H1241 N1237 0.985 . S
H1242 N1236 0.984 . S
H1243 N1236 0.984 . S
H1244 N1232 0.991 . S
H1245 N1232 0.996 . S
C1246 C1247 1.363 . S
C1246 C1252 1.379 . S
C1246 N1254 1.356 . S
C1247 C1246 1.363 . S
C1247 C1253 1.363 . S
C1248 C1249 1.363 . S
C1248 C1253 1.379 . S
C1248 N1255 1.356 . S
C1249 C1248 1.363 . S
C1249 C1252 1.363 . S
N1250 C1252 1.356 . S
N1250 H1262 0.984 . S
N1250 H1263 0.985 . S
N1251 C1253 1.356 . S
N1251 H1256 0.984 . S
N1251 H1257 0.985 . S
C1252 C1246 1.379 . S
C1252 C1249 1.363 . S
C1252 N1250 1.356 . S
C1253 C1247 1.363 . S
C1253 C1248 1.379 . S
C1253 N1251 1.356 . S
N1254 C1246 1.356 . S
N1254 H1260 0.988 . S
N1254 H1261 0.984 1_655 S
N1255 C1248 1.356 . S
N1255 H1258 0.984 . S
N1255 H1259 0.985 . S
H1256 N1251 0.984 . S
H1257 N1251 0.985 . S
H1258 N1255 0.984 . S
H1259 N1255 0.985 . S
H1260 N1254 0.988 . S
H1261 N1254 0.984 1_455 S
H1262 N1250 0.984 . S
H1263 N1250 0.985 . S
C545 C33 1.093 . S
C547 C509 1.093 . S
C563 C543 1.093 . S
C565 C67 1.093 . S
C581 C441 1.093 . S
C583 C101 1.093 . S
C599 C135 1.093 . S
C601 C475 1.093 . S
C617 C169 1.093 . S
C619 C373 1.093 . S
C635 C407 1.093 . S
C637 C203 1.093 . S
C653 C237 1.093 . S
C655 C305 1.093 . S
C671 C339 1.093 . S
C673 C271 1.093 . S
C689 C145 1.220 . S
C691 C9 1.220 . S
C707 C43 1.220 . S
C709 C179 1.220 . S
C725 C77 1.220 . S
C727 C213 1.220 . S
C743 C111 1.220 . S
C745 C247 1.220 . S
C761 C417 1.220 . S
C763 C281 1.220 . S
C779 C451 1.220 . S
C781 C315 1.220 . S
C797 C349 1.220 . S
C799 C485 1.220 . S
C815 C383 1.220 . S
C817 C519 1.220 . S
C833 C2 1.917 1_556 S
C835 C478 1.917 . S
C851 C512 1.917 . S
C853 C36 1.917 1_554 S
C869 C70 1.917 1_556 S
C871 C410 1.917 . S
C887 C444 1.917 . S
C889 C104 1.917 1_554 S
C905 C342 1.917 . S
C907 C138 1.917 . S
C923 C376 1.917 . S
C925 C172 1.917 . S
C941 C206 1.917 . S
C943 C274 1.917 . S
C959 C240 1.917 . S
C961 C308 1.917 . S
C977 C5 1.694 1_565 S
C979 C394 1.719 . S
C995 C292 1.719 . S
C997 C39 1.694 1_655 S
C1013 C73 1.694 1_545 S
C1015 C326 1.719 . S
C1031 C360 1.719 . S
C1033 C107 1.694 1_455 S
C1049 C190 1.719 1_554 S
C1051 C141 1.694 . S
C1067 C224 1.719 1_556 S
C1069 C175 1.694 . S
C1085 C209 1.694 . S
C1087 C258 1.719 1_554 S
C1103 C156 1.719 1_556 S
C1105 C243 1.694 . S
C1121 C122 1.719 . S
C1123 C277 1.694 . S
C1139 C311 1.694 . S
C1141 C20 1.719 . S
C1157 C345 1.694 . S
C1159 C54 1.719 . S
C1175 C88 1.719 . S
C1177 C379 1.694 . S
C1193 C462 1.719 . S
C1195 C413 1.694 1_545 S
C1211 C496 1.719 . S
C1213 C447 1.694 1_455 S
C1229 C530 1.719 . S
C1231 C481 1.694 1_565 S
C1247 C515 1.694 1_655 S
C1249 C428 1.719 . S
