# Generated by pormake.
# Topology umw, (4)-cn, num edge types: 1
# Building blocks:
#     Node 0, Type 0, BuildingBlock: QUQFOY_clean_sbu_3, # of connection points: 4
#     Node 1, Type 0, BuildingBlock: QUQFOY_clean_sbu_3, # of connection points: 4
#     Node 2, Type 0, BuildingBlock: QUQFOY_clean_sbu_3, # of connection points: 4
#     Node 3, Type 0, BuildingBlock: QUQFOY_clean_sbu_3, # of connection points: 4
#     Node 4, Type 0, BuildingBlock: QUQFOY_clean_sbu_3, # of connection points: 4
#     Node 5, Type 0, BuildingBlock: QUQFOY_clean_sbu_3, # of connection points: 4
#     Node 6, Type 0, BuildingBlock: QUQFOY_clean_sbu_3, # of connection points: 4
#     Node 7, Type 0, BuildingBlock: QUQFOY_clean_sbu_3, # of connection points: 4
#     Edge 8, Type (0, 0), BuildingBlock: ZUJKAS_clean_linker_0, # of connection points: 2
#     Edge 9, Type (0, 0), BuildingBlock: ZUJKAS_clean_linker_0, # of connection points: 2
#     Edge 10, Type (0, 0), BuildingBlock: ZUJKAS_clean_linker_0, # of connection points: 2
#     Edge 11, Type (0, 0), BuildingBlock: ZUJKAS_clean_linker_0, # of connection points: 2
#     Edge 12, Type (0, 0), BuildingBlock: ZUJKAS_clean_linker_0, # of connection points: 2
#     Edge 13, Type (0, 0), BuildingBlock: ZUJKAS_clean_linker_0, # of connection points: 2
#     Edge 14, Type (0, 0), BuildingBlock: ZUJKAS_clean_linker_0, # of connection points: 2
#     Edge 15, Type (0, 0), BuildingBlock: ZUJKAS_clean_linker_0, # of connection points: 2
#     Edge 16, Type (0, 0), BuildingBlock: ZUJKAS_clean_linker_0, # of connection points: 2
#     Edge 17, Type (0, 0), BuildingBlock: ZUJKAS_clean_linker_0, # of connection points: 2
#     Edge 18, Type (0, 0), BuildingBlock: ZUJKAS_clean_linker_0, # of connection points: 2
#     Edge 19, Type (0, 0), BuildingBlock: ZUJKAS_clean_linker_0, # of connection points: 2
#     Edge 20, Type (0, 0), BuildingBlock: ZUJKAS_clean_linker_0, # of connection points: 2
#     Edge 21, Type (0, 0), BuildingBlock: ZUJKAS_clean_linker_0, # of connection points: 2
#     Edge 22, Type (0, 0), BuildingBlock: ZUJKAS_clean_linker_0, # of connection points: 2
#     Edge 23, Type (0, 0), BuildingBlock: ZUJKAS_clean_linker_0, # of connection points: 2
# Relax obj value: 0.128
# Max RMSD: 0.103
# Mean RMSD: 0.103
data_MOF--net-umw--node1-QUQFOY_clean_sbu_3--edge1-ZUJKAS_clean_linker_0
_symmetry_space_group_name_H-M    P1
_symmetry_Int_Tables_number       1
_symmetry_cell_setting            triclinic
loop_
_symmetry_equiv_pos_as_xyz
'x, y, z'
_cell_length_a     54.520776
_cell_length_b     54.636108
_cell_length_c     33.953424
_cell_angle_alpha  89.949441
_cell_angle_beta   89.938629
_cell_angle_gamma 90.025912
loop_
_atom_site_label
_atom_site_type_symbol
_atom_site_fract_x
_atom_site_fract_y
_atom_site_fract_z
_atom_type_partial_charge
C0 C 0.44557 0.18656 0.20701 0.0
O1 O 0.46425 0.1804 0.22699 0.0
Cd2 Cd 0.46727 0.16852 0.29335 0.0
O3 O 0.4241 0.18633 0.22227 0.0
Cd4 Cd 0.40822 0.17604 0.29015 0.0
C5 C 0.43021 0.11776 0.28937 0.0
O6 O 0.44097 0.19805 0.32139 0.0
O7 O 0.41909 0.17712 0.36137 0.0
O8 O 0.37557 0.20681 0.28539 0.0
C9 C 0.43625 0.19243 0.35654 0.0
O10 O 0.45136 0.12689 0.2954 0.0
C11 C 0.3596 0.19365 0.30265 0.0
O12 O 0.41165 0.13152 0.28401 0.0
O13 O 0.3657 0.1718 0.31061 0.0
C14 C 0.80061 0.44854 0.47205 0.0
O15 O 0.80708 0.46492 0.4964 0.0
Cd16 Cd 0.8198 0.46015 0.56218 0.0
O17 O 0.80085 0.42591 0.48174 0.0
Cd18 Cd 0.8123 0.40395 0.54437 0.0
C19 C 0.87059 0.4246 0.54587 0.0
O20 O 0.79095 0.43179 0.58735 0.0
O21 O 0.81746 0.40914 0.61629 0.0
O22 O 0.77981 0.37336 0.5393 0.0
C23 C 0.7999 0.42417 0.61932 0.0
O24 O 0.86162 0.44445 0.5592 0.0
C25 C 0.79335 0.35546 0.54911 0.0
O26 O 0.85661 0.40724 0.53479 0.0
O27 O 0.81614 0.35976 0.55225 0.0
C28 C 0.54654 0.8072 0.73105 0.0
O29 O 0.53167 0.81475 0.75713 0.0
Cd30 Cd 0.53995 0.82612 0.8227 0.0
O31 O 0.56954 0.80575 0.73823 0.0
Cd32 Cd 0.59498 0.81569 0.79801 0.0
C33 C 0.57714 0.87504 0.80454 0.0
O34 O 0.56754 0.79484 0.84215 0.0
O35 O 0.59447 0.81682 0.8713 0.0
O36 O 0.6248 0.78285 0.78722 0.0
C37 C 0.57766 0.80092 0.874 0.0
O38 O 0.55728 0.86712 0.81962 0.0
C39 C 0.64337 0.79609 0.79482 0.0
O40 O 0.59322 0.86022 0.79152 0.0
O41 O 0.63947 0.8188 0.79936 0.0
C42 C 0.19159 0.54255 0.98537 0.0
O43 O 0.18612 0.52819 0.01343 0.0
Cd44 Cd 0.17403 0.53863 0.07788 0.0
O45 O 0.19082 0.56577 0.99004 0.0
Cd46 Cd 0.18071 0.59283 0.04791 0.0
C47 C 0.12263 0.57232 0.05615 0.0
O48 O 0.20323 0.56898 0.09513 0.0
O49 O 0.17692 0.59336 0.12075 0.0
O50 O 0.21302 0.6226 0.03443 0.0
C51 C 0.19493 0.57907 0.12575 0.0
O52 O 0.13187 0.5536 0.07288 0.0
C53 C 0.19968 0.64123 0.04086 0.0
O54 O 0.13638 0.5888 0.04142 0.0
O55 O 0.17696 0.63731 0.04607 0.0
C56 C 0.44162 0.78319 0.35497 0.0
O57 O 0.45937 0.78759 0.33179 0.0
Cd58 Cd 0.45881 0.80297 0.26708 0.0
O59 O 0.41935 0.78646 0.3443 0.0
Cd60 Cd 0.39956 0.79861 0.27999 0.0
C61 C 0.42459 0.85542 0.28222 0.0
O62 O 0.42869 0.77724 0.23988 0.0
O63 O 0.40596 0.802 0.20762 0.0
O64 O 0.36705 0.76795 0.28312 0.0
C65 C 0.42243 0.78568 0.20687 0.0
O66 O 0.44483 0.84541 0.27257 0.0
C67 C 0.35002 0.78264 0.27342 0.0
O68 O 0.40556 0.84251 0.28884 0.0
O69 O 0.35573 0.80511 0.27083 0.0
C70 C 0.20334 0.4421 0.6024 0.0
O71 O 0.1986 0.45926 0.5784 0.0
Cd72 Cd 0.18529 0.4558 0.51266 0.0
O73 O 0.20143 0.41969 0.59199 0.0
Cd74 Cd 0.19063 0.39891 0.52817 0.0
C75 C 0.13319 0.42152 0.52774 0.0
O76 O 0.213 0.42683 0.48613 0.0
O77 O 0.18624 0.40503 0.45631 0.0
O78 O 0.22152 0.36682 0.53705 0.0
C79 C 0.2038 0.42012 0.45384 0.0
O80 O 0.14284 0.44139 0.51563 0.0
C81 C 0.20789 0.34974 0.52418 0.0
O82 O 0.14654 0.40342 0.5376 0.0
O83 O 0.18576 0.35523 0.5168 0.0
C84 C 0.5408 0.20287 0.82615 0.0
O85 O 0.52811 0.19626 0.7967 0.0
Cd86 Cd 0.54241 0.18383 0.73418 0.0
O87 O 0.56424 0.20333 0.82433 0.0
Cd88 Cd 0.59478 0.19403 0.77076 0.0
C89 C 0.57759 0.13481 0.76183 0.0
O90 O 0.57211 0.21418 0.71925 0.0
O91 O 0.60087 0.1908 0.69856 0.0
O92 O 0.62282 0.22753 0.78622 0.0
C93 C 0.58492 0.20689 0.69062 0.0
O94 O 0.55911 0.1427 0.74277 0.0
C95 C 0.64207 0.21453 0.78356 0.0
O96 O 0.59265 0.14966 0.77762 0.0
O97 O 0.63895 0.19162 0.77998 0.0
C98 C 0.78686 0.55065 0.09263 0.0
O99 O 0.79217 0.53528 0.06597 0.0
Cd100 Cd 0.8082 0.54329 0.00289 0.0
O101 O 0.78963 0.57362 0.08683 0.0
Cd102 Cd 0.803 0.59846 0.02795 0.0
C103 C 0.86019 0.57536 0.02807 0.0
O104 O 0.78189 0.57442 0.9792 0.0
O105 O 0.81089 0.59659 0.95609 0.0
O106 O 0.77147 0.62987 0.03519 0.0
C107 C 0.79268 0.58284 0.94926 0.0
O108 O 0.85069 0.55656 0.01201 0.0
C109 C 0.78585 0.6477 0.02849 0.0
O110 O 0.84674 0.59295 0.03985 0.0
O111 O 0.80854 0.64272 0.02614 0.0
H112 H 0.4789 0.21793 0.34967 0.0
H113 H 0.51013 0.22409 0.40012 0.0
H114 H 0.46418 0.18744 0.48527 0.0
H115 H 0.433 0.18061 0.43461 0.0
H116 H 0.51008 0.24736 0.47102 0.0
H117 H 0.52758 0.14825 0.48993 0.0
H118 H 0.50974 0.1603 0.44959 0.0
H119 H 0.49589 0.15586 0.49723 0.0
C120 C 0.47536 0.21128 0.3792 0.0
C121 C 0.45366 0.19847 0.38816 0.0
C122 C 0.49323 0.21484 0.40793 0.0
C123 C 0.48966 0.2057 0.44603 0.0
C124 C 0.46749 0.19403 0.45564 0.0
H125 H 0.54766 0.2364 0.66723 0.0
H126 H 0.52987 0.23913 0.60186 0.0
C127 C 0.44965 0.1903 0.42683 0.0
C128 C 0.50928 0.20801 0.47564 0.0
H129 H 0.54308 0.17459 0.54049 0.0
C130 C 0.51757 0.23146 0.48592 0.0
C131 C 0.5196 0.18721 0.49399 0.0
C132 C 0.51295 0.16148 0.48182 0.0
C133 C 0.53481 0.23472 0.51605 0.0
C134 C 0.54344 0.21401 0.53682 0.0
C135 C 0.53631 0.1905 0.52475 0.0
C136 C 0.55722 0.21615 0.57405 0.0
C137 C 0.54328 0.26031 0.52568 0.0
C138 C 0.57864 0.20241 0.5802 0.0
C139 C 0.58865 0.20042 0.61792 0.0
C140 C 0.57726 0.21209 0.64992 0.0
C141 C 0.55679 0.22711 0.64316 0.0
C142 C 0.54674 0.22894 0.60563 0.0
H143 H 0.5431 0.27211 0.49901 0.0
H144 H 0.53052 0.26854 0.54743 0.0
H145 H 0.56206 0.26037 0.5383 0.0
H146 H 0.58691 0.19229 0.55618 0.0
H147 H 0.60454 0.18884 0.6223 0.0
H148 H 0.76102 0.45355 0.63499 0.0
H149 H 0.75591 0.4808 0.69142 0.0
H150 H 0.82273 0.45277 0.74227 0.0
H151 H 0.8277 0.42499 0.68628 0.0
H152 H 0.78597 0.46049 0.79715 0.0
H153 H 0.79894 0.54175 0.70093 0.0
H154 H 0.77417 0.52213 0.68623 0.0
H155 H 0.80518 0.51098 0.68451 0.0
C156 C 0.77444 0.45295 0.65849 0.0
C157 C 0.79494 0.43746 0.65609 0.0
C158 C 0.77156 0.46861 0.6905 0.0
C159 C 0.78932 0.46921 0.72027 0.0
C160 C 0.80899 0.45268 0.71924 0.0
H161 H 0.82438 0.58216 0.88687 0.0
H162 H 0.82173 0.55555 0.82908 0.0
C163 C 0.81177 0.43682 0.68735 0.0
C164 C 0.78798 0.48781 0.75158 0.0
H165 H 0.78862 0.54946 0.76756 0.0
C166 C 0.78649 0.47994 0.79078 0.0
C167 C 0.78911 0.51314 0.74295 0.0
C168 C 0.79218 0.52256 0.70142 0.0
C169 C 0.78596 0.4968 0.82179 0.0
C170 C 0.78633 0.52213 0.81309 0.0
C171 C 0.78798 0.53001 0.77391 0.0
C172 C 0.7862 0.54066 0.84458 0.0
C173 C 0.78571 0.48731 0.86357 0.0
C174 C 0.76654 0.54189 0.8711 0.0
C175 C 0.76808 0.55688 0.90416 0.0
C176 C 0.78917 0.57106 0.91081 0.0
C177 C 0.80795 0.57134 0.88249 0.0
C178 C 0.80649 0.55614 0.84957 0.0
H179 H 0.79159 0.46786 0.86521 0.0
H180 H 0.79793 0.49838 0.88271 0.0
H181 H 0.76679 0.48851 0.87549 0.0
H182 H 0.75046 0.53051 0.86706 0.0
H183 H 0.7532 0.5566 0.92534 0.0
H184 H 0.46456 0.7592 0.20316 0.0
H185 H 0.49421 0.75827 0.14942 0.0
H186 H 0.44601 0.80272 0.07846 0.0
H187 H 0.41643 0.80439 0.13274 0.0
H188 H 0.49311 0.74286 0.07403 0.0
H189 H 0.50851 0.84304 0.08049 0.0
H190 H 0.49145 0.82672 0.11774 0.0
H191 H 0.47697 0.83527 0.07214 0.0
C192 C 0.46013 0.76862 0.176 0.0
C193 C 0.43836 0.78222 0.1723 0.0
C194 C 0.47711 0.76805 0.14536 0.0
C195 C 0.47254 0.78094 0.11048 0.0
C196 C 0.45012 0.79323 0.10568 0.0
H197 H 0.53789 0.77193 0.88542 0.0
H198 H 0.51603 0.76467 0.94668 0.0
C199 C 0.43319 0.79401 0.13652 0.0
C200 C 0.49159 0.78211 0.07967 0.0
H201 H 0.52532 0.82218 0.025 0.0
C202 C 0.50033 0.76017 0.06347 0.0
C203 C 0.50151 0.80469 0.06694 0.0
C204 C 0.49434 0.82875 0.08552 0.0
C205 C 0.51796 0.76028 0.03344 0.0
C206 C 0.52652 0.78295 0.01871 0.0
C207 C 0.5186 0.80482 0.03617 0.0
C208 C 0.54181 0.78466 0.98294 0.0
C209 C 0.52717 0.73613 0.01778 0.0
C210 C 0.56352 0.79852 0.9829 0.0
C211 C 0.5759 0.80311 0.94761 0.0
C212 C 0.56664 0.79396 0.91197 0.0
C213 C 0.54549 0.77925 0.91242 0.0
C214 C 0.53309 0.77484 0.94752 0.0
H215 H 0.5262 0.72164 0.04072 0.0
H216 H 0.51539 0.73027 -0.00713 0.0
H217 H 0.54638 0.73755 0.00714 0.0
H218 H 0.57043 0.80639 0.00998 0.0
H219 H 0.5922 0.81444 0.94807 0.0
H220 H 0.24102 0.45214 0.43998 0.0
H221 H 0.24471 0.48073 0.38483 0.0
H222 H 0.17946 0.45013 0.33254 0.0
H223 H 0.176 0.42106 0.38702 0.0
H224 H 0.21506 0.4599 0.27836 0.0
H225 H 0.19996 0.54005 0.37599 0.0
H226 H 0.22569 0.52135 0.38948 0.0
H227 H 0.19518 0.50897 0.39224 0.0
C228 C 0.22766 0.4513 0.41642 0.0
C229 C 0.20805 0.43461 0.41794 0.0
C230 C 0.22969 0.46775 0.38517 0.0
C231 C 0.21196 0.46794 0.35532 0.0
C232 C 0.19318 0.45038 0.3556 0.0
H233 H 0.16623 0.578 0.19175 0.0
H234 H 0.17311 0.5527 0.25028 0.0
C235 C 0.19126 0.43376 0.38665 0.0
C236 C 0.21246 0.48686 0.32432 0.0
H237 H 0.20825 0.54847 0.30893 0.0
C238 C 0.21369 0.47927 0.28497 0.0
C239 C 0.21027 0.51207 0.33325 0.0
C240 C 0.20746 0.52116 0.37499 0.0
C241 C 0.21262 0.49623 0.25411 0.0
C242 C 0.21099 0.52149 0.26302 0.0
C243 C 0.20986 0.52911 0.30237 0.0
C244 C 0.2089 0.54002 0.23161 0.0
C245 C 0.21232 0.48684 0.21228 0.0
C246 C 0.22733 0.54221 0.20303 0.0
C247 C 0.22332 0.55634 0.16949 0.0
C248 C 0.20102 0.56882 0.16451 0.0
C249 C 0.18355 0.56849 0.1949 0.0
C250 C 0.18744 0.55404 0.22825 0.0
H251 H 0.20757 0.46708 0.21092 0.0
H252 H 0.19896 0.49717 0.19406 0.0
H253 H 0.2308 0.48918 0.19909 0.0
H254 H 0.24428 0.53201 0.20571 0.0
H255 H 0.23719 0.55661 0.14663 0.0
H256 H 0.33761 0.23699 0.28277 0.0
H257 H 0.30629 0.25868 0.32092 0.0
H258 H 0.30097 0.19728 0.40046 0.0
H259 H 0.33109 0.17505 0.36129 0.0
H260 H 0.25799 0.21827 0.39459 0.0
H261 H 0.32784 0.28999 0.42106 0.0
H262 H 0.32059 0.28707 0.36982 0.0
H263 H 0.33488 0.26198 0.39556 0.0
C264 C 0.32924 0.22789 0.30776 0.0
C265 C 0.33705 0.20448 0.31936 0.0
C266 C 0.31156 0.24039 0.32981 0.0
C267 C 0.30201 0.22999 0.36448 0.0
C268 C 0.30828 0.20582 0.37414 0.0
H269 H 0.251 0.32858 0.54728 0.0
H270 H 0.27239 0.29506 0.51409 0.0
C271 C 0.32551 0.1931 0.35162 0.0
C272 C 0.28719 0.24483 0.39238 0.0
H273 H 0.28771 0.2983 0.44407 0.0
C274 C 0.26451 0.23573 0.40559 0.0
C275 C 0.29605 0.26722 0.40782 0.0
C276 C 0.32128 0.27701 0.3982 0.0
C277 C 0.2502 0.24871 0.433 0.0
C278 C 0.25839 0.27184 0.44647 0.0
C279 C 0.28128 0.28064 0.43378 0.0
C280 C 0.24331 0.28801 0.4721 0.0
C281 C 0.22677 0.23717 0.44771 0.0
C282 C 0.2194 0.29449 0.4609 0.0
C283 C 0.2069 0.31311 0.48065 0.0
C284 C 0.21837 0.32618 0.51115 0.0
C285 C 0.24172 0.31882 0.52387 0.0
C286 C 0.25398 0.29975 0.50475 0.0
H287 H 0.228 0.21687 0.44713 0.0
H288 H 0.22238 0.24303 0.47821 0.0
H289 H 0.21144 0.24257 0.42808 0.0
H290 H 0.21093 0.28633 0.43525 0.0
H291 H 0.18902 0.31856 0.46983 0.0
H292 H 0.74503 0.3423 0.55055 0.0
H293 H 0.72662 0.31111 0.59284 0.0
H294 H 0.79856 0.28604 0.62654 0.0
H295 H 0.81723 0.3173 0.58442 0.0
H296 H 0.7313 0.25873 0.60285 0.0
H297 H 0.76673 0.31264 0.72989 0.0
H298 H 0.76616 0.32471 0.6804 0.0
H299 H 0.78882 0.30247 0.69408 0.0
C300 C 0.75697 0.32969 0.56598 0.0
C301 C 0.78259 0.33252 0.56459 0.0
C302 C 0.74641 0.31191 0.59024 0.0
C303 C 0.76127 0.29673 0.61349 0.0
C304 C 0.78682 0.29793 0.60933 0.0
H305 H 0.68502 0.19131 0.76526 0.0
H306 H 0.71931 0.20938 0.72898 0.0
C307 C 0.79743 0.31568 0.58498 0.0
C308 C 0.74986 0.28164 0.64476 0.0
H309 H 0.74067 0.27963 0.74432 0.0
C310 C 0.73365 0.26294 0.63384 0.0
C311 C 0.7528 0.2875 0.68511 0.0
C312 C 0.76942 0.30801 0.69832 0.0
C313 C 0.7197 0.25038 0.66213 0.0
C314 C 0.72227 0.25658 0.70243 0.0
C315 C 0.73901 0.27478 0.71346 0.0
C316 C 0.7055 0.24639 0.73258 0.0
C317 C 0.70131 0.23153 0.64851 0.0
C318 C 0.68748 0.26152 0.74921 0.0
C319 C 0.66793 0.25132 0.77019 0.0
C320 C 0.66613 0.2258 0.77473 0.0
C321 C 0.68574 0.21102 0.76199 0.0
C322 C 0.70528 0.22127 0.74098 0.0
H323 H 0.69894 0.23168 0.61602 0.0
H324 H 0.70765 0.21304 0.65737 0.0
H325 H 0.68318 0.23477 0.6625 0.0
H326 H 0.68748 0.28102 0.74332 0.0
H327 H 0.65323 0.26323 0.77982 0.0
H328 H 0.81169 0.68567 -0.00353 0.0
H329 H 0.79476 0.71918 0.95725 0.0
H330 H 0.72155 0.69682 0.98924 0.0
H331 H 0.73825 0.66328 0.02845 0.0
H332 H 0.76432 0.70746 0.89286 0.0
H333 H 0.71813 0.77204 -0.00564 0.0
H334 H 0.74168 0.75103 0.0105 0.0
H335 H 0.71066 0.74059 0.00401 0.0
C336 C 0.79201 0.6884 -0.00363 0.0
C337 C 0.77628 0.67168 0.01532 0.0
C338 C 0.78239 0.7075 0.97374 0.0
C339 C 0.75693 0.71044 0.9703 0.0
C340 C 0.74127 0.69506 -0.00811 0.0
H341 H 0.65593 0.74765 0.79487 0.0
H342 H 0.68917 0.72912 0.83262 0.0
C343 C 0.75086 0.67586 0.01429 0.0
C344 C 0.74659 0.72703 0.94008 0.0
H345 H 0.70448 0.77239 0.92699 0.0
C346 C 0.75161 0.72201 0.90029 0.0
C347 C 0.73018 0.74608 0.94982 0.0
C348 C 0.725 0.75295 -0.00798 0.0
C349 C 0.7395 0.73461 0.86996 0.0
C350 C 0.72185 0.75251 0.87976 0.0
C351 C 0.71794 0.75854 0.91951 0.0
C352 C 0.7055 0.7636 0.84986 0.0
C353 C 0.74523 0.72823 0.82774 0.0
C354 C 0.70417 0.78911 0.84586 0.0
C355 C 0.68521 0.79977 0.82414 0.0
C356 C 0.66704 0.78507 0.8066 0.0
C357 C 0.66963 0.75949 0.80794 0.0
C358 C 0.68867 0.74885 0.82951 0.0
H359 H 0.76381 0.72007 0.82486 0.0
H360 H 0.7317 0.71457 0.81712 0.0
H361 H 0.74408 0.74463 0.80848 0.0
H362 H 0.71698 0.80079 0.86137 0.0
H363 H 0.68376 0.81954 0.82369 0.0
H364 H 0.24823 0.65346 0.04059 0.0
H365 H 0.26683 0.68686 0.07767 0.0
H366 H 0.19514 0.71629 0.10271 0.0
H367 H 0.17626 0.68267 0.06607 0.0
H368 H 0.26538 0.73874 0.08082 0.0
H369 H 0.22159 0.69478 0.21129 0.0
H370 H 0.22249 0.6802 0.16368 0.0
H371 H 0.2014 0.70481 0.17272 0.0
C372 C 0.2364 0.66745 0.05284 0.0
C373 C 0.21075 0.66512 0.05109 0.0
C374 C 0.24708 0.68653 0.07412 0.0
C375 C 0.2323 0.7036 0.09385 0.0
C376 C 0.20681 0.70295 0.0884 0.0
H377 H 0.31265 0.80931 0.241 0.0
H378 H 0.27923 0.79338 0.20032 0.0
C379 C 0.19608 0.68382 0.06716 0.0
C380 C 0.24353 0.71975 0.12385 0.0
H381 H 0.24953 0.72641 0.22345 0.0
C382 C 0.26162 0.73646 0.11199 0.0
C383 C 0.23875 0.71639 0.16452 0.0
C384 C 0.22015 0.69798 0.17906 0.0
C385 C 0.27573 0.74924 0.13976 0.0
C386 C 0.27135 0.74541 0.18043 0.0
C387 C 0.25262 0.72943 0.19225 0.0
C388 C 0.28809 0.75535 0.21079 0.0
C389 C 0.29619 0.76561 0.1254 0.0
C390 C 0.30302 0.73922 0.23222 0.0
C391 C 0.32198 0.74822 0.25573 0.0
C392 C 0.32631 0.77353 0.25819 0.0
C393 C 0.30989 0.7897 0.23954 0.0
C394 C 0.29091 0.78065 0.21601 0.0
H395 H 0.29965 0.76345 0.09333 0.0
H396 H 0.29127 0.785 0.131 0.0
H397 H 0.31345 0.76163 0.14151 0.0
H398 H 0.30099 0.7196 0.22882 0.0
H399 H 0.33421 0.73529 0.26982 0.0
H400 H 0.46227 0.88826 0.27739 0.0
H401 H 0.45983 0.93282 0.27953 0.0
H402 H 0.38134 0.92851 0.29382 0.0
H403 H 0.38361 0.8838 0.29251 0.0
H404 H 0.43488 0.96294 0.22866 0.0
H405 H 0.4009 0.97519 0.3818 0.0
H406 H 0.41325 0.94654 0.36431 0.0
H407 H 0.38251 0.95539 0.35167 0.0
C408 C 0.44448 0.89673 0.2813 0.0
C409 C 0.42313 0.88243 0.28488 0.0
C410 C 0.44313 0.92222 0.28248 0.0
C411 C 0.42045 0.93396 0.28729 0.0
C412 C 0.39909 0.9198 0.29092 0.0
H413 H 0.38758 0.09108 0.286 0.0
H414 H 0.38345 0.04638 0.28422 0.0
C415 C 0.40042 0.89425 0.28995 0.0
C416 C 0.41928 0.96104 0.2869 0.0
H417 H 0.40432 0.01088 0.34262 0.0
C418 C 0.42816 0.97341 0.25356 0.0
C419 C 0.41037 0.97463 0.31936 0.0
C420 C 0.4014 0.96232 0.35648 0.0
C421 C 0.42864 -0.00096 0.25196 0.0
C422 C 0.4202 0.01259 0.28466 0.0
C423 C 0.41072 0.00032 0.31761 0.0
C424 C 0.42249 0.03951 0.286 0.0
C425 C 0.43829 0.01148 0.21539 0.0
C426 C 0.44579 0.05026 0.28806 0.0
C427 C 0.44823 0.07566 0.28926 0.0
C428 C 0.42738 0.09082 0.28835 0.0
C429 C 0.404 0.07994 0.28655 0.0
C430 C 0.40159 0.05444 0.28561 0.0
H431 H 0.43876 -0.00116 0.18978 0.0
H432 H 0.42687 0.02761 0.20773 0.0
H433 H 0.45726 0.01799 0.22093 0.0
H434 H 0.46211 0.03896 0.28885 0.0
H435 H 0.4665 0.08339 0.29071 0.0
H436 H 0.90548 0.4568 0.57111 0.0
H437 H 0.94995 0.45242 0.56744 0.0
H438 H 0.94154 0.38182 0.51244 0.0
H439 H 0.89684 0.38602 0.51576 0.0
H440 H 0.97953 0.41373 0.60026 0.0
H441 H 0.98736 0.42145 0.43719 0.0
H442 H 0.96033 0.4311 0.46374 0.0
H443 H 0.96601 0.39913 0.4558 0.0
C444 C 0.913 0.44033 0.55812 0.0
C445 C 0.89756 0.4218 0.54355 0.0
C446 C 0.93843 0.43785 0.55616 0.0
C447 C 0.94895 0.41691 0.5394 0.0
C448 C 0.9337 0.39826 0.52506 0.0
H449 H 0.10581 0.38287 0.55486 0.0
H450 H 0.06103 0.37979 0.55786 0.0
C451 C 0.90819 0.40067 0.5271 0.0
C452 C 0.97593 0.4148 0.53716 0.0
H453 H 0.024 0.41554 0.47272 0.0
C454 C 0.9893 0.41391 0.57242 0.0
C455 C 0.98849 0.41527 0.50074 0.0
C456 C 0.97492 0.41696 0.46212 0.0
C457 C 0.01503 0.41379 0.57224 0.0
C458 C 0.02759 0.41437 0.53582 0.0
C459 C 0.01422 0.41495 0.50055 0.0
C460 C 0.05463 0.41588 0.53376 0.0
C461 C 0.0286 0.4139 0.61095 0.0
C462 C 0.06574 0.43705 0.5187 0.0
C463 C 0.09124 0.4389 0.51693 0.0
C464 C 0.10614 0.4195 0.52996 0.0
C465 C 0.09489 0.39818 0.54474 0.0
C466 C 0.06933 0.3964 0.54659 0.0
H467 H 0.01626 0.41791 0.63619 0.0
H468 H 0.037 0.39566 0.61586 0.0
H469 H 0.04358 0.42767 0.61048 0.0
H470 H 0.05464 0.45226 0.50861 0.0
H471 H 0.09925 0.45554 0.50526 0.0
H472 H 0.61683 0.89906 0.77317 0.0
H473 H 0.62292 0.94335 0.76769 0.0
H474 H 0.55287 0.95563 0.82332 0.0
H475 H 0.54671 0.91161 0.82939 0.0
H476 H 0.59377 0.97663 0.72769 0.0
H477 H 0.59855 0.00014 0.88605 0.0
H478 H 0.6019 0.96918 0.86825 0.0
H479 H 0.57188 0.98237 0.87417 0.0
C480 C 0.60281 0.91118 0.78453 0.0
C481 C 0.58131 0.90177 0.80182 0.0
C482 C 0.60633 0.93647 0.78137 0.0
C483 C 0.58853 0.95273 0.79571 0.0
C484 C 0.56709 0.94339 0.81291 0.0
H485 H 0.54888 0.09803 0.73278 0.0
H486 H 0.55483 0.05402 0.74001 0.0
C487 C 0.56354 0.91819 0.81608 0.0
C488 C 0.59157 0.97947 0.79087 0.0
H489 H 0.58996 0.03331 0.84163 0.0
C490 C 0.59329 0.98903 0.7526 0.0
C491 C 0.59135 0.99558 0.82345 0.0
C492 C 0.59108 0.9863 0.86531 0.0
C493 C 0.59351 0.01437 0.74595 0.0
C494 C 0.59155 0.03047 0.7784 0.0
C495 C 0.59114 0.02091 0.81676 0.0
C496 C 0.58858 0.05719 0.77312 0.0
C497 C 0.59561 0.02366 0.70422 0.0
C498 C 0.60528 0.07358 0.79019 0.0
C499 C 0.60183 0.09883 0.78638 0.0
C500 C 0.58151 0.1081 0.76566 0.0
C501 C 0.56479 0.09155 0.74875 0.0
C502 C 0.56825 0.06636 0.75259 0.0
H503 H 0.60445 0.00993 0.68471 0.0
H504 H 0.57698 0.02734 0.69252 0.0
H505 H 0.60634 0.04092 0.7029 0.0
H506 H 0.62097 0.06682 0.80643 0.0
H507 H 0.61504 0.11105 0.79982 0.0
H508 H 0.88727 0.61256 0.06049 0.0
H509 H 0.932 0.61536 0.06519 0.0
H510 H 0.93887 0.54462 0.01011 0.0
H511 H 0.89433 0.54168 0.00492 0.0
H512 H 0.96497 0.58352 0.10342 0.0
H513 H 0.9835 0.58886 0.943 0.0
H514 H 0.95342 0.59394 0.96373 0.0
H515 H 0.96466 0.5633 0.95689 0.0
C516 C 0.89828 0.5976 0.04933 0.0
C517 C 0.88719 0.57694 0.03214 0.0
C518 C 0.92382 0.59925 0.05204 0.0
C519 C 0.93869 0.58039 0.03738 0.0
C520 C 0.9277 0.5596 0.02084 0.0
H521 H 0.0879 0.54111 0.08553 0.0
H522 H 0.0434 0.54521 0.08186 0.0
C523 C 0.90222 0.5579 0.01814 0.0
C524 C 0.96571 0.5821 0.04006 0.0
H525 H 0.0179 0.5809 0.9845 0.0
C526 C 0.97657 0.58317 0.07745 0.0
C527 C 0.98074 0.58201 0.00608 0.0
C528 C 0.97002 0.58221 0.96512 0.0
C529 C 0.00216 0.58322 0.08182 0.0
C530 C 0.01718 0.58183 0.0479 0.0
C531 C 0.00632 0.5817 0.01046 0.0
C532 C 0.04418 0.57973 0.05063 0.0
C533 C 0.0129 0.58474 0.12268 0.0
C534 C 0.05936 0.59752 0.03344 0.0
C535 C 0.08487 0.59519 0.03526 0.0
C536 C 0.09562 0.5749 0.05407 0.0
C537 C 0.08028 0.55703 0.07098 0.0
C538 C 0.05481 0.5594 0.06916 0.0
H539 H -0.00042 0.59252 0.14406 0.0
H540 H 0.01782 0.56607 0.13283 0.0
H541 H 0.02978 0.59613 0.1229 0.0
H542 H 0.05145 0.61326 0.01874 0.0
H543 H 0.09613 0.60926 0.02187 0.0
H544 H 0.49169 0.20964 0.8356 0.0
H545 H 0.46921 0.21568 0.89681 0.0
H546 H 0.53726 0.2159 0.96144 0.0
H547 H 0.56012 0.21005 0.89999 0.0
H548 H 0.47015 0.18236 0.95735 0.0
H549 H 0.49975 0.27363 0.00971 0.0
H550 H 0.50375 0.26374 0.95933 0.0
H551 H 0.525 0.25413 -0.00321 0.0
C552 C 0.502 0.21131 0.86272 0.0
C553 C 0.52774 0.20916 0.86297 0.0
C554 C 0.48906 0.21485 0.89765 0.0
C555 C 0.50156 0.21647 0.93352 0.0
C556 C 0.5273 0.21519 0.93388 0.0
H557 H 0.48939 0.19496 0.17177 0.0
H558 H 0.49743 0.20585 0.1039 0.0
C559 C 0.54033 0.21169 0.89881 0.0
C560 C 0.48759 0.21672 0.97084 0.0
H561 H 0.48239 0.24662 0.05849 0.0
C562 C 0.47235 0.19666 0.97922 0.0
C563 C 0.49036 0.23552 -0.00101 0.0
C564 C 0.50541 0.25811 0.99065 0.0
C565 C 0.4613 0.19394 0.01626 0.0
C566 C 0.46535 0.21199 0.04532 0.0
C567 C 0.47929 0.23284 0.03604 0.0
C568 C 0.45923 0.20742 0.08705 0.0
C569 C 0.44687 0.17097 0.02497 0.0
C570 C 0.43492 0.20495 0.10027 0.0
C571 C 0.43013 0.19849 0.13954 0.0
C572 C 0.44964 0.19442 0.16582 0.0
C573 C 0.47386 0.19766 0.15239 0.0
C574 C 0.47855 0.20409 0.11356 0.0
H575 H 0.44779 0.15754 0.00045 0.0
H576 H 0.45384 0.16208 0.05216 0.0
H577 H 0.42735 0.17577 0.02995 0.0
H578 H 0.41975 0.20769 0.08019 0.0
H579 H 0.41129 0.1963 0.14909 0.0
H580 H 0.7675 0.50582 0.10725 0.0
H581 H 0.7606 0.48671 0.17112 0.0
H582 H 0.78129 0.5538 0.22909 0.0
H583 H 0.78812 0.5733 0.16485 0.0
H584 H 0.79973 0.482 0.2233 0.0
H585 H 0.72113 0.52988 0.29287 0.0
H586 H 0.72676 0.53058 0.24041 0.0
H587 H 0.74421 0.54984 0.27285 0.0
C588 C 0.77014 0.51673 0.13354 0.0
C589 C 0.77866 0.541 0.13109 0.0
C590 C 0.76609 0.50576 0.16999 0.0
C591 C 0.77037 0.51884 0.20472 0.0
C592 C 0.77751 0.54353 0.20252 0.0
H593 H 0.79981 0.49506 0.44382 0.0
H594 H 0.78904 0.50891 0.37827 0.0
C595 C 0.7815 0.55462 0.16586 0.0
C596 C 0.77059 0.50569 0.24274 0.0
H597 H 0.74622 0.50548 0.33522 0.0
C598 C 0.78779 0.48683 0.24766 0.0
C599 C 0.75494 0.51207 0.27421 0.0
C600 C 0.73554 0.53155 0.26986 0.0
C601 C 0.79069 0.47501 0.28399 0.0
C602 C 0.77558 0.48192 0.31594 0.0
C603 C 0.75769 0.50014 0.31055 0.0
C604 C 0.78022 0.47284 0.35626 0.0
C605 C 0.81083 0.45624 0.28842 0.0
C606 C 0.77857 0.44786 0.36584 0.0
C607 C 0.78501 0.43969 0.40358 0.0
C608 C 0.79299 0.45648 0.43222 0.0
C609 C 0.79388 0.48153 0.42257 0.0
C610 C 0.78759 0.48957 0.38508 0.0
H611 H 0.82363 0.45631 0.26294 0.0
H612 H 0.82154 0.45961 0.31568 0.0
H613 H 0.80257 0.43773 0.29063 0.0
H614 H 0.77256 0.43469 0.34406 0.0
H615 H 0.78392 0.42033 0.4102 0.0
H616 H 0.4989 0.80957 0.70788 0.0
H617 H 0.48133 0.79743 0.64532 0.0
H618 H 0.55275 0.77529 0.60391 0.0
H619 H 0.57087 0.78779 0.66702 0.0
H620 H 0.52763 0.80507 0.55194 0.0
H621 H 0.46719 0.72971 0.60166 0.0
H622 H 0.46273 0.75716 0.62971 0.0
H623 H 0.49181 0.7416 0.63164 0.0
C624 C 0.51101 0.80198 0.68573 0.0
C625 C 0.53637 0.79962 0.69255 0.0
C626 C 0.5008 0.79479 0.65005 0.0
C627 C 0.51561 0.78488 0.62042 0.0
C628 C 0.54098 0.78259 0.62677 0.0
H629 H 0.47999 0.75519 0.37708 0.0
H630 H 0.49689 0.75128 0.44331 0.0
C631 C 0.5513 0.78982 0.6627 0.0
C632 C 0.50461 0.77897 0.58183 0.0
H633 H 0.45754 0.74759 0.53861 0.0
C634 C 0.5126 0.7922 0.54886 0.0
C635 C 0.48487 0.76227 0.57805 0.0
C636 C 0.4763 0.7467 0.61211 0.0
C637 C 0.50074 0.78993 0.51249 0.0
C638 C 0.48057 0.77378 0.50902 0.0
C639 C 0.4729 0.76007 0.54164 0.0
C640 C 0.46745 0.77123 0.47133 0.0
C641 C 0.50938 0.80535 0.47825 0.0
C642 C 0.44457 0.78252 0.46578 0.0
C643 C 0.43471 0.78464 0.42786 0.0
C644 C 0.44784 0.77565 0.39536 0.0
C645 C 0.46965 0.76251 0.40166 0.0
C646 C 0.47933 0.76024 0.43939 0.0
H647 H 0.52232 0.81994 0.48762 0.0
H648 H 0.51891 0.7935 0.45658 0.0
H649 H 0.49354 0.81401 0.46313 0.0
H650 H 0.4352 0.79107 0.49032 0.0
H651 H 0.41792 0.79491 0.42368 0.0
H652 H 0.19857 0.56557 0.91397 0.0
H653 H 0.20681 0.54588 0.85021 0.0
H654 H 0.20856 0.47531 0.90699 0.0
H655 H 0.20037 0.49449 0.97025 0.0
H656 H 0.24756 0.50957 0.82758 0.0
H657 H 0.15229 0.47296 0.82131 0.0
H658 H 0.16066 0.49854 0.85217 0.0
H659 H 0.16889 0.46798 0.86635 0.0
C660 C 0.20094 0.54591 0.91287 0.0
C661 C 0.19848 0.5316 0.94709 0.0
C662 C 0.20568 0.53472 0.87655 0.0
C663 C 0.20798 0.50918 0.87411 0.0
C664 C 0.20655 0.49503 0.90836 0.0
H665 H 0.20326 0.4131 0.66871 0.0
H666 H 0.20896 0.42679 0.737 0.0
C667 C 0.20182 0.50609 0.94446 0.0
C668 C 0.2105 0.49694 0.83565 0.0
H669 H 0.1792 0.46118 0.77061 0.0
C670 C 0.23268 0.49897 0.81501 0.0
C671 C 0.19112 0.48287 0.81986 0.0
C672 C 0.16679 0.48049 0.84081 0.0
C673 C 0.23592 0.48734 0.77853 0.0
C674 C 0.21626 0.47382 0.76217 0.0
C675 C 0.1943 0.47138 0.78337 0.0
C676 C 0.21688 0.46441 0.72137 0.0
C677 C 0.26034 0.48959 0.75792 0.0
C678 C 0.21976 0.48093 0.69016 0.0
C679 C 0.21651 0.47323 0.65148 0.0
C680 C 0.21006 0.44884 0.64312 0.0
C681 C 0.20825 0.43197 0.67425 0.0
C682 C 0.21148 0.43977 0.71319 0.0
H683 H 0.27542 0.49268 0.77932 0.0
H684 H 0.26456 0.47298 0.74036 0.0
H685 H 0.25984 0.50556 0.73772 0.0
H686 H 0.22334 0.50012 0.69577 0.0
H687 H 0.21819 0.48669 0.62819 0.0
loop_
_geom_bond_atom_site_label_1
_geom_bond_atom_site_label_2
_geom_bond_distance
_geom_bond_site_symmetry_2
_ccdc_geom_bond_type
C0 O1 1.306 . S
C0 O3 1.160 . S
O1 C0 1.306 . S
O1 Cd2 2.228 . S
Cd2 O1 2.228 . S
Cd2 O6 2.273 . S
Cd2 O10 2.277 . S
O3 C0 1.160 . S
O3 Cd4 2.203 . S
Cd4 O3 2.203 . S
Cd4 O6 2.411 . S
Cd4 O7 2.333 . S
Cd4 O8 2.352 . S
Cd4 O12 2.277 . S
Cd4 O13 2.356 . S
C5 O10 1.209 . S
C5 O12 1.226 . S
O6 Cd2 2.273 . S
O6 Cd4 2.411 . S
O6 C9 1.320 . S
O7 Cd4 2.333 . S
O7 C9 1.214 . S
O8 Cd4 2.352 . S
O8 C11 1.258 . S
C9 O6 1.320 . S
C9 O7 1.214 . S
O10 Cd2 2.277 . S
O10 C5 1.209 . S
C11 O8 1.258 . S
C11 O13 1.282 . S
O12 Cd4 2.277 . S
O12 C5 1.226 . S
O13 Cd4 2.356 . S
O13 C11 1.282 . S
C14 O15 1.306 . S
C14 O17 1.160 . S
O15 C14 1.306 . S
O15 Cd16 2.228 . S
Cd16 O15 2.228 . S
Cd16 O20 2.273 . S
Cd16 O24 2.277 . S
O17 C14 1.160 . S
O17 Cd18 2.203 . S
Cd18 O17 2.203 . S
Cd18 O20 2.411 . S
Cd18 O21 2.333 . S
Cd18 O22 2.352 . S
Cd18 O26 2.277 . S
Cd18 O27 2.356 . S
C19 O24 1.209 . S
C19 O26 1.226 . S
O20 Cd16 2.273 . S
O20 Cd18 2.411 . S
O20 C23 1.320 . S
O21 Cd18 2.333 . S
O21 C23 1.214 . S
O22 Cd18 2.352 . S
O22 C25 1.258 . S
C23 O20 1.320 . S
C23 O21 1.214 . S
O24 Cd16 2.277 . S
O24 C19 1.209 . S
C25 O22 1.258 . S
C25 O27 1.282 . S
O26 Cd18 2.277 . S
O26 C19 1.226 . S
O27 Cd18 2.356 . S
O27 C25 1.282 . S
C28 O29 1.306 . S
C28 O31 1.160 . S
O29 C28 1.306 . S
O29 Cd30 2.228 . S
Cd30 O29 2.228 . S
Cd30 O34 2.273 . S
Cd30 O38 2.277 . S
O31 C28 1.160 . S
O31 Cd32 2.203 . S
Cd32 O31 2.203 . S
Cd32 O34 2.411 . S
Cd32 O35 2.333 . S
Cd32 O36 2.352 . S
Cd32 O40 2.277 . S
Cd32 O41 2.356 . S
C33 O38 1.209 . S
C33 O40 1.226 . S
O34 Cd30 2.273 . S
O34 Cd32 2.411 . S
O34 C37 1.320 . S
O35 Cd32 2.333 . S
O35 C37 1.214 . S
O36 Cd32 2.352 . S
O36 C39 1.258 . S
C37 O34 1.320 . S
C37 O35 1.214 . S
O38 Cd30 2.277 . S
O38 C33 1.209 . S
C39 O36 1.258 . S
C39 O41 1.282 . S
O40 Cd32 2.277 . S
O40 C33 1.226 . S
O41 Cd32 2.356 . S
O41 C39 1.282 . S
C42 O43 1.306 1_556 S
C42 O45 1.160 1_556 S
O43 C42 1.306 1_554 S
O43 Cd44 2.228 . S
Cd44 O43 2.228 . S
Cd44 O48 2.273 . S
Cd44 O52 2.277 . S
O45 C42 1.160 1_554 S
O45 Cd46 2.203 . S
Cd46 O45 2.203 . S
Cd46 O48 2.411 . S
Cd46 O49 2.333 . S
Cd46 O50 2.352 . S
Cd46 O54 2.277 . S
Cd46 O55 2.356 . S
C47 O52 1.209 . S
C47 O54 1.226 . S
O48 Cd44 2.273 . S
O48 Cd46 2.411 . S
O48 C51 1.320 . S
O49 Cd46 2.333 . S
O49 C51 1.214 . S
O50 Cd46 2.352 . S
O50 C53 1.258 . S
C51 O48 1.320 . S
C51 O49 1.214 . S
O52 Cd44 2.277 . S
O52 C47 1.209 . S
C53 O50 1.258 . S
C53 O55 1.282 . S
O54 Cd46 2.277 . S
O54 C47 1.226 . S
O55 Cd46 2.356 . S
O55 C53 1.282 . S
C56 O57 1.306 . S
C56 O59 1.160 . S
O57 C56 1.306 . S
O57 Cd58 2.228 . S
Cd58 O57 2.228 . S
Cd58 O62 2.273 . S
Cd58 O66 2.277 . S
O59 C56 1.160 . S
O59 Cd60 2.203 . S
Cd60 O59 2.203 . S
Cd60 O62 2.411 . S
Cd60 O63 2.333 . S
Cd60 O64 2.352 . S
Cd60 O68 2.277 . S
Cd60 O69 2.356 . S
C61 O66 1.209 . S
C61 O68 1.226 . S
O62 Cd58 2.273 . S
O62 Cd60 2.411 . S
O62 C65 1.320 . S
O63 Cd60 2.333 . S
O63 C65 1.214 . S
O64 Cd60 2.352 . S
O64 C67 1.258 . S
C65 O62 1.320 . S
C65 O63 1.214 . S
O66 Cd58 2.277 . S
O66 C61 1.209 . S
C67 O64 1.258 . S
C67 O69 1.282 . S
O68 Cd60 2.277 . S
O68 C61 1.226 . S
O69 Cd60 2.356 . S
O69 C67 1.282 . S
C70 O71 1.306 . S
C70 O73 1.160 . S
O71 C70 1.306 . S
O71 Cd72 2.228 . S
Cd72 O71 2.228 . S
Cd72 O76 2.273 . S
Cd72 O80 2.277 . S
O73 C70 1.160 . S
O73 Cd74 2.203 . S
Cd74 O73 2.203 . S
Cd74 O76 2.411 . S
Cd74 O77 2.333 . S
Cd74 O78 2.352 . S
Cd74 O82 2.277 . S
Cd74 O83 2.356 . S
C75 O80 1.209 . S
C75 O82 1.226 . S
O76 Cd72 2.273 . S
O76 Cd74 2.411 . S
O76 C79 1.320 . S
O77 Cd74 2.333 . S
O77 C79 1.214 . S
O78 Cd74 2.352 . S
O78 C81 1.258 . S
C79 O76 1.320 . S
C79 O77 1.214 . S
O80 Cd72 2.277 . S
O80 C75 1.209 . S
C81 O78 1.258 . S
C81 O83 1.282 . S
O82 Cd74 2.277 . S
O82 C75 1.226 . S
O83 Cd74 2.356 . S
O83 C81 1.282 . S
C84 O85 1.306 . S
C84 O87 1.160 . S
O85 C84 1.306 . S
O85 Cd86 2.228 . S
Cd86 O85 2.228 . S
Cd86 O90 2.273 . S
Cd86 O94 2.277 . S
O87 C84 1.160 . S
O87 Cd88 2.203 . S
Cd88 O87 2.203 . S
Cd88 O90 2.411 . S
Cd88 O91 2.333 . S
Cd88 O92 2.352 . S
Cd88 O96 2.277 . S
Cd88 O97 2.356 . S
C89 O94 1.209 . S
C89 O96 1.226 . S
O90 Cd86 2.273 . S
O90 Cd88 2.411 . S
O90 C93 1.320 . S
O91 Cd88 2.333 . S
O91 C93 1.214 . S
O92 Cd88 2.352 . S
O92 C95 1.258 . S
C93 O90 1.320 . S
C93 O91 1.214 . S
O94 Cd86 2.277 . S
O94 C89 1.209 . S
C95 O92 1.258 . S
C95 O97 1.282 . S
O96 Cd88 2.277 . S
O96 C89 1.226 . S
O97 Cd88 2.356 . S
O97 C95 1.282 . S
C98 O99 1.306 . S
C98 O101 1.160 . S
O99 C98 1.306 . S
O99 Cd100 2.228 . S
Cd100 O99 2.228 . S
Cd100 O104 2.273 1_554 S
Cd100 O108 2.277 . S
O101 C98 1.160 . S
O101 Cd102 2.203 . S
Cd102 O101 2.203 . S
Cd102 O104 2.411 1_554 S
Cd102 O105 2.333 1_554 S
Cd102 O106 2.352 . S
Cd102 O110 2.277 . S
Cd102 O111 2.356 . S
C103 O108 1.209 . S
C103 O110 1.226 . S
O104 Cd100 2.273 1_556 S
O104 Cd102 2.411 1_556 S
O104 C107 1.320 . S
O105 Cd102 2.333 1_556 S
O105 C107 1.214 . S
O106 Cd102 2.352 . S
O106 C109 1.258 . S
C107 O104 1.320 . S
C107 O105 1.214 . S
O108 Cd100 2.277 . S
O108 C103 1.209 . S
C109 O106 1.258 . S
C109 O111 1.282 . S
O110 Cd102 2.277 . S
O110 C103 1.226 . S
O111 Cd102 2.356 . S
O111 C109 1.282 . S
H112 C120 0.929 . S
H113 C122 0.930 . S
H114 C124 0.930 . S
H115 C127 0.929 . S
H116 C130 0.930 . S
H117 C132 0.960 . S
H118 C132 0.960 . S
H119 C132 0.960 . S
C120 H112 0.929 . S
C120 C121 1.377 . S
C120 C122 1.384 . S
C121 C120 1.377 . S
C121 C127 1.390 . S
C122 H113 0.930 . S
C122 C120 1.384 . S
C122 C123 1.372 . S
C123 C122 1.372 . S
C123 C124 1.400 . S
C123 C128 1.490 . S
C124 H114 0.930 . S
C124 C123 1.400 . S
C124 C127 1.386 . S
H125 C141 0.930 . S
H126 C142 0.931 . S
C127 H115 0.929 . S
C127 C121 1.390 . S
C127 C124 1.386 . S
C128 C123 1.490 . S
C128 C130 1.395 . S
C128 C131 1.403 . S
H129 C135 0.930 . S
C130 H116 0.930 . S
C130 C128 1.395 . S
C130 C133 1.403 . S
C131 C128 1.403 . S
C131 C132 1.524 . S
C131 C135 1.400 . S
C132 H117 0.960 . S
C132 H118 0.960 . S
C132 H119 0.960 . S
C132 C131 1.524 . S
C133 C130 1.403 . S
C133 C134 1.392 . S
C133 C137 1.495 . S
C134 C133 1.392 . S
C134 C135 1.385 . S
C134 C136 1.478 . S
C135 H129 0.930 . S
C135 C131 1.400 . S
C135 C134 1.385 . S
C136 C134 1.478 . S
C136 C138 1.381 . S
C136 C142 1.383 . S
C137 C133 1.495 . S
C137 H143 0.959 . S
C137 H144 0.961 . S
C137 H145 0.960 . S
C138 C136 1.381 . S
C138 C139 1.394 . S
C138 H146 0.930 . S
C139 C138 1.394 . S
C139 C140 1.383 . S
C139 H147 0.929 . S
C140 C139 1.383 . S
C140 C141 1.377 . S
C141 H125 0.930 . S
C141 C140 1.377 . S
C141 C142 1.379 . S
C142 H126 0.931 . S
C142 C136 1.383 . S
C142 C141 1.379 . S
H143 C137 0.959 . S
H144 C137 0.961 . S
H145 C137 0.960 . S
H146 C138 0.930 . S
H147 C139 0.929 . S
H148 C156 0.929 . S
H149 C158 0.930 . S
H150 C160 0.930 . S
H151 C163 0.929 . S
H152 C166 0.930 . S
H153 C168 0.960 . S
H154 C168 0.960 . S
H155 C168 0.960 . S
C156 H148 0.929 . S
C156 C157 1.377 . S
C156 C158 1.384 . S
C157 C156 1.377 . S
C157 C163 1.390 . S
C158 H149 0.930 . S
C158 C156 1.384 . S
C158 C159 1.372 . S
C159 C158 1.372 . S
C159 C160 1.400 . S
C159 C164 1.490 . S
C160 H150 0.930 . S
C160 C159 1.400 . S
C160 C163 1.386 . S
H161 C177 0.930 . S
H162 C178 0.931 . S
C163 H151 0.929 . S
C163 C157 1.390 . S
C163 C160 1.386 . S
C164 C159 1.490 . S
C164 C166 1.395 . S
C164 C167 1.403 . S
H165 C171 0.930 . S
C166 H152 0.930 . S
C166 C164 1.395 . S
C166 C169 1.403 . S
C167 C164 1.403 . S
C167 C168 1.524 . S
C167 C171 1.400 . S
C168 H153 0.960 . S
C168 H154 0.960 . S
C168 H155 0.960 . S
C168 C167 1.524 . S
C169 C166 1.403 . S
C169 C170 1.392 . S
C169 C173 1.495 . S
C170 C169 1.392 . S
C170 C171 1.385 . S
C170 C172 1.478 . S
C171 H165 0.930 . S
C171 C167 1.400 . S
C171 C170 1.385 . S
C172 C170 1.478 . S
C172 C174 1.381 . S
C172 C178 1.383 . S
C173 C169 1.495 . S
C173 H179 0.959 . S
C173 H180 0.961 . S
C173 H181 0.960 . S
C174 C172 1.381 . S
C174 C175 1.394 . S
C174 H182 0.930 . S
C175 C174 1.394 . S
C175 C176 1.383 . S
C175 H183 0.929 . S
C176 C175 1.383 . S
C176 C177 1.377 . S
C177 H161 0.930 . S
C177 C176 1.377 . S
C177 C178 1.379 . S
C178 H162 0.931 . S
C178 C172 1.383 . S
C178 C177 1.379 . S
H179 C173 0.959 . S
H180 C173 0.961 . S
H181 C173 0.960 . S
H182 C174 0.930 . S
H183 C175 0.929 . S
H184 C192 0.929 . S
H185 C194 0.930 . S
H186 C196 0.930 . S
H187 C199 0.929 . S
H188 C202 0.930 . S
H189 C204 0.960 . S
H190 C204 0.960 . S
H191 C204 0.960 . S
C192 H184 0.929 . S
C192 C193 1.377 . S
C192 C194 1.384 . S
C193 C192 1.377 . S
C193 C199 1.390 . S
C194 H185 0.930 . S
C194 C192 1.384 . S
C194 C195 1.372 . S
C195 C194 1.372 . S
C195 C196 1.400 . S
C195 C200 1.490 . S
C196 H186 0.930 . S
C196 C195 1.400 . S
C196 C199 1.386 . S
H197 C213 0.930 . S
H198 C214 0.931 . S
C199 H187 0.929 . S
C199 C193 1.390 . S
C199 C196 1.386 . S
C200 C195 1.490 . S
C200 C202 1.395 . S
C200 C203 1.403 . S
H201 C207 0.917 1_556 S
C202 H188 0.930 . S
C202 C200 1.395 . S
C202 C205 1.403 . S
C203 C200 1.403 . S
C203 C204 1.524 . S
C203 C207 1.400 . S
C204 H189 0.960 . S
C204 H190 0.960 . S
C204 H191 0.960 . S
C204 C203 1.524 . S
C205 C202 1.403 . S
C205 C206 1.392 . S
C205 C209 1.495 . S
C206 C205 1.392 . S
C206 C207 1.385 . S
C206 C208 1.478 1_554 S
C207 H201 0.917 1_554 S
C207 C203 1.400 . S
C207 C206 1.385 . S
C208 C206 1.478 1_556 S
C208 C210 1.381 . S
C208 C214 1.383 . S
C209 C205 1.495 . S
C209 H215 0.959 . S
C209 H216 0.961 . S
C209 H217 0.960 . S
C210 C208 1.381 . S
C210 C211 1.394 . S
C210 H218 0.930 . S
C211 C210 1.394 . S
C211 C212 1.383 . S
C211 H219 0.929 . S
C212 C211 1.383 . S
C212 C213 1.377 . S
C213 H197 0.930 . S
C213 C212 1.377 . S
C213 C214 1.379 . S
C214 H198 0.931 . S
C214 C208 1.383 . S
C214 C213 1.379 . S
H215 C209 0.959 . S
H216 C209 0.961 . S
H217 C209 0.960 . S
H218 C210 0.930 . S
H219 C211 0.929 . S
H220 C228 0.929 . S
H221 C230 0.930 . S
H222 C232 0.930 . S
H223 C235 0.929 . S
H224 C238 0.930 . S
H225 C240 0.960 . S
H226 C240 0.960 . S
H227 C240 0.960 . S
C228 H220 0.929 . S
C228 C229 1.377 . S
C228 C230 1.384 . S
C229 C228 1.377 . S
C229 C235 1.390 . S
C230 H221 0.930 . S
C230 C228 1.384 . S
C230 C231 1.372 . S
C231 C230 1.372 . S
C231 C232 1.400 . S
C231 C236 1.490 . S
C232 H222 0.930 . S
C232 C231 1.400 . S
C232 C235 1.386 . S
H233 C249 0.930 . S
H234 C250 0.931 . S
C235 H223 0.929 . S
C235 C229 1.390 . S
C235 C232 1.386 . S
C236 C231 1.490 . S
C236 C238 1.395 . S
C236 C239 1.403 . S
H237 C243 0.930 . S
C238 H224 0.930 . S
C238 C236 1.395 . S
C238 C241 1.403 . S
C239 C236 1.403 . S
C239 C240 1.524 . S
C239 C243 1.400 . S
C240 H225 0.960 . S
C240 H226 0.960 . S
C240 H227 0.960 . S
C240 C239 1.524 . S
C241 C238 1.403 . S
C241 C242 1.392 . S
C241 C245 1.495 . S
C242 C241 1.392 . S
C242 C243 1.385 . S
C242 C244 1.478 . S
C243 H237 0.930 . S
C243 C239 1.400 . S
C243 C242 1.385 . S
C244 C242 1.478 . S
C244 C246 1.381 . S
C244 C250 1.383 . S
C245 C241 1.495 . S
C245 H251 0.959 . S
C245 H252 0.961 . S
C245 H253 0.960 . S
C246 C244 1.381 . S
C246 C247 1.394 . S
C246 H254 0.930 . S
C247 C246 1.394 . S
C247 C248 1.383 . S
C247 H255 0.929 . S
C248 C247 1.383 . S
C248 C249 1.377 . S
C249 H233 0.930 . S
C249 C248 1.377 . S
C249 C250 1.379 . S
C250 H234 0.931 . S
C250 C244 1.383 . S
C250 C249 1.379 . S
H251 C245 0.959 . S
H252 C245 0.961 . S
H253 C245 0.960 . S
H254 C246 0.930 . S
H255 C247 0.929 . S
H256 C264 0.929 . S
H257 C266 0.930 . S
H258 C268 0.930 . S
H259 C271 0.929 . S
H260 C274 0.930 . S
H261 C276 0.960 . S
H262 C276 0.960 . S
H263 C276 0.960 . S
C264 H256 0.929 . S
C264 C265 1.377 . S
C264 C266 1.384 . S
C265 C264 1.377 . S
C265 C271 1.390 . S
C266 H257 0.930 . S
C266 C264 1.384 . S
C266 C267 1.372 . S
C267 C266 1.372 . S
C267 C268 1.400 . S
C267 C272 1.490 . S
C268 H258 0.930 . S
C268 C267 1.400 . S
C268 C271 1.386 . S
H269 C285 0.930 . S
H270 C286 0.931 . S
C271 H259 0.929 . S
C271 C265 1.390 . S
C271 C268 1.386 . S
C272 C267 1.490 . S
C272 C274 1.395 . S
C272 C275 1.403 . S
H273 C279 0.930 . S
C274 H260 0.930 . S
C274 C272 1.395 . S
C274 C277 1.403 . S
C275 C272 1.403 . S
C275 C276 1.524 . S
C275 C279 1.400 . S
C276 H261 0.960 . S
C276 H262 0.960 . S
C276 H263 0.960 . S
C276 C275 1.524 . S
C277 C274 1.403 . S
C277 C278 1.392 . S
C277 C281 1.495 . S
C278 C277 1.392 . S
C278 C279 1.385 . S
C278 C280 1.478 . S
C279 H273 0.930 . S
C279 C275 1.400 . S
C279 C278 1.385 . S
C280 C278 1.478 . S
C280 C282 1.381 . S
C280 C286 1.383 . S
C281 C277 1.495 . S
C281 H287 0.959 . S
C281 H288 0.961 . S
C281 H289 0.960 . S
C282 C280 1.381 . S
C282 C283 1.394 . S
C282 H290 0.930 . S
C283 C282 1.394 . S
C283 C284 1.383 . S
C283 H291 0.929 . S
C284 C283 1.383 . S
C284 C285 1.377 . S
C285 H269 0.930 . S
C285 C284 1.377 . S
C285 C286 1.379 . S
C286 H270 0.931 . S
C286 C280 1.383 . S
C286 C285 1.379 . S
H287 C281 0.959 . S
H288 C281 0.961 . S
H289 C281 0.960 . S
H290 C282 0.930 . S
H291 C283 0.929 . S
H292 C300 0.929 . S
H293 C302 0.930 . S
H294 C304 0.930 . S
H295 C307 0.929 . S
H296 C310 0.930 . S
H297 C312 0.960 . S
H298 C312 0.960 . S
H299 C312 0.960 . S
C300 H292 0.929 . S
C300 C301 1.377 . S
C300 C302 1.384 . S
C301 C300 1.377 . S
C301 C307 1.390 . S
C302 H293 0.930 . S
C302 C300 1.384 . S
C302 C303 1.372 . S
C303 C302 1.372 . S
C303 C304 1.400 . S
C303 C308 1.490 . S
C304 H294 0.930 . S
C304 C303 1.400 . S
C304 C307 1.386 . S
H305 C321 0.930 . S
H306 C322 0.931 . S
C307 H295 0.929 . S
C307 C301 1.390 . S
C307 C304 1.386 . S
C308 C303 1.490 . S
C308 C310 1.395 . S
C308 C311 1.403 . S
H309 C315 0.930 . S
C310 H296 0.930 . S
C310 C308 1.395 . S
C310 C313 1.403 . S
C311 C308 1.403 . S
C311 C312 1.524 . S
C311 C315 1.400 . S
C312 H297 0.960 . S
C312 H298 0.960 . S
C312 H299 0.960 . S
C312 C311 1.524 . S
C313 C310 1.403 . S
C313 C314 1.392 . S
C313 C317 1.495 . S
C314 C313 1.392 . S
C314 C315 1.385 . S
C314 C316 1.478 . S
C315 H309 0.930 . S
C315 C311 1.400 . S
C315 C314 1.385 . S
C316 C314 1.478 . S
C316 C318 1.381 . S
C316 C322 1.383 . S
C317 C313 1.495 . S
C317 H323 0.959 . S
C317 H324 0.961 . S
C317 H325 0.960 . S
C318 C316 1.381 . S
C318 C319 1.394 . S
C318 H326 0.930 . S
C319 C318 1.394 . S
C319 C320 1.383 . S
C319 H327 0.929 . S
C320 C319 1.383 . S
C320 C321 1.377 . S
C321 H305 0.930 . S
C321 C320 1.377 . S
C321 C322 1.379 . S
C322 H306 0.931 . S
C322 C316 1.383 . S
C322 C321 1.379 . S
H323 C317 0.959 . S
H324 C317 0.961 . S
H325 C317 0.960 . S
H326 C318 0.930 . S
H327 C319 0.929 . S
H328 C336 0.929 . S
H329 C338 0.930 . S
H330 C340 0.930 1_554 S
H331 C343 0.929 . S
H332 C346 0.930 . S
H333 C348 0.960 1_554 S
H334 C348 0.960 . S
H335 C348 0.960 1_554 S
C336 H328 0.929 . S
C336 C337 1.382 . S
C336 C338 1.384 . S
C337 C336 1.382 . S
C337 C343 1.388 1_556 S
C338 H329 0.930 . S
C338 C336 1.384 . S
C338 C339 1.372 . S
C339 C338 1.372 . S
C339 C340 1.400 . S
C339 C344 1.490 . S
C340 H330 0.930 1_556 S
C340 C339 1.400 . S
C340 C343 1.386 1_556 S
H341 C357 0.930 . S
H342 C358 0.931 . S
C343 H331 0.929 . S
C343 C337 1.388 1_554 S
C343 C340 1.386 1_554 S
C344 C339 1.490 . S
C344 C346 1.395 . S
C344 C347 1.403 . S
H345 C351 0.930 . S
C346 H332 0.930 . S
C346 C344 1.395 . S
C346 C349 1.403 . S
C347 C344 1.403 . S
C347 C348 1.524 . S
C347 C351 1.400 . S
C348 H333 0.960 1_556 S
C348 H334 0.960 . S
C348 H335 0.960 1_556 S
C348 C347 1.524 . S
C349 C346 1.403 . S
C349 C350 1.392 . S
C349 C353 1.495 . S
C350 C349 1.392 . S
C350 C351 1.385 . S
C350 C352 1.478 . S
C351 H345 0.930 . S
C351 C347 1.400 . S
C351 C350 1.385 . S
C352 C350 1.478 . S
C352 C354 1.381 . S
C352 C358 1.383 . S
C353 C349 1.495 . S
C353 H359 0.959 . S
C353 H360 0.961 . S
C353 H361 0.960 . S
C354 C352 1.381 . S
C354 C355 1.394 . S
C354 H362 0.930 . S
C355 C354 1.394 . S
C355 C356 1.383 . S
C355 H363 0.929 . S
C356 C355 1.383 . S
C356 C357 1.377 . S
C357 H341 0.930 . S
C357 C356 1.377 . S
C357 C358 1.379 . S
C358 H342 0.931 . S
C358 C352 1.383 . S
C358 C357 1.379 . S
H359 C353 0.959 . S
H360 C353 0.961 . S
H361 C353 0.960 . S
H362 C354 0.930 . S
H363 C355 0.929 . S
H364 C372 0.929 . S
H365 C374 0.930 . S
H366 C376 0.930 . S
H367 C379 0.929 . S
H368 C382 0.930 . S
H369 C384 0.960 . S
H370 C384 0.960 . S
H371 C384 0.960 . S
C372 H364 0.929 . S
C372 C373 1.377 . S
C372 C374 1.384 . S
C373 C372 1.377 . S
C373 C379 1.390 . S
C374 H365 0.930 . S
C374 C372 1.384 . S
C374 C375 1.372 . S
C375 C374 1.372 . S
C375 C376 1.400 . S
C375 C380 1.490 . S
C376 H366 0.930 . S
C376 C375 1.400 . S
C376 C379 1.386 . S
H377 C393 0.930 . S
H378 C394 0.931 . S
C379 H367 0.929 . S
C379 C373 1.390 . S
C379 C376 1.386 . S
C380 C375 1.490 . S
C380 C382 1.395 . S
C380 C383 1.403 . S
H381 C387 0.930 . S
C382 H368 0.930 . S
C382 C380 1.395 . S
C382 C385 1.403 . S
C383 C380 1.403 . S
C383 C384 1.524 . S
C383 C387 1.400 . S
C384 H369 0.960 . S
C384 H370 0.960 . S
C384 H371 0.960 . S
C384 C383 1.524 . S
C385 C382 1.403 . S
C385 C386 1.392 . S
C385 C389 1.495 . S
C386 C385 1.392 . S
C386 C387 1.385 . S
C386 C388 1.478 . S
C387 H381 0.930 . S
C387 C383 1.400 . S
C387 C386 1.385 . S
C388 C386 1.478 . S
C388 C390 1.381 . S
C388 C394 1.383 . S
C389 C385 1.495 . S
C389 H395 0.959 . S
C389 H396 0.961 . S
C389 H397 0.960 . S
C390 C388 1.381 . S
C390 C391 1.394 . S
C390 H398 0.930 . S
C391 C390 1.394 . S
C391 C392 1.383 . S
C391 H399 0.929 . S
C392 C391 1.383 . S
C392 C393 1.377 . S
C393 H377 0.930 . S
C393 C392 1.377 . S
C393 C394 1.379 . S
C394 H378 0.931 . S
C394 C388 1.383 . S
C394 C393 1.379 . S
H395 C389 0.959 . S
H396 C389 0.961 . S
H397 C389 0.960 . S
H398 C390 0.930 . S
H399 C391 0.929 . S
H400 C408 0.929 . S
H401 C410 0.930 . S
H402 C412 0.930 . S
H403 C415 0.929 . S
H404 C418 0.930 . S
H405 C420 0.960 . S
H406 C420 0.960 . S
H407 C420 0.960 . S
C408 H400 0.929 . S
C408 C409 1.377 . S
C408 C410 1.384 . S
C409 C408 1.377 . S
C409 C415 1.390 . S
C410 H401 0.930 . S
C410 C408 1.384 . S
C410 C411 1.372 . S
C411 C410 1.372 . S
C411 C412 1.400 . S
C411 C416 1.490 . S
C412 H402 0.930 . S
C412 C411 1.400 . S
C412 C415 1.386 . S
H413 C429 0.930 . S
H414 C430 0.931 . S
C415 H403 0.929 . S
C415 C409 1.390 . S
C415 C412 1.386 . S
C416 C411 1.490 . S
C416 C418 1.395 . S
C416 C419 1.403 . S
H417 C423 0.930 . S
C418 H404 0.930 . S
C418 C416 1.395 . S
C418 C421 1.403 1_565 S
C419 C416 1.403 . S
C419 C420 1.524 . S
C419 C423 1.400 1_565 S
C420 H405 0.960 . S
C420 H406 0.960 . S
C420 H407 0.960 . S
C420 C419 1.524 . S
C421 C418 1.403 1_545 S
C421 C422 1.392 . S
C421 C425 1.495 . S
C422 C421 1.392 . S
C422 C423 1.385 . S
C422 C424 1.478 . S
C423 H417 0.930 . S
C423 C419 1.400 1_545 S
C423 C422 1.385 . S
C424 C422 1.478 . S
C424 C426 1.381 . S
C424 C430 1.383 . S
C425 C421 1.495 . S
C425 H431 0.959 . S
C425 H432 0.961 . S
C425 H433 0.960 . S
C426 C424 1.381 . S
C426 C427 1.394 . S
C426 H434 0.930 . S
C427 C426 1.394 . S
C427 C428 1.383 . S
C427 H435 0.929 . S
C428 C427 1.383 . S
C428 C429 1.377 . S
C429 H413 0.930 . S
C429 C428 1.377 . S
C429 C430 1.379 . S
C430 H414 0.931 . S
C430 C424 1.383 . S
C430 C429 1.379 . S
H431 C425 0.959 . S
H432 C425 0.961 . S
H433 C425 0.960 . S
H434 C426 0.930 . S
H435 C427 0.929 . S
H436 C444 0.929 . S
H437 C446 0.930 . S
H438 C448 0.930 . S
H439 C451 0.929 . S
H440 C454 0.930 . S
H441 C456 0.960 . S
H442 C456 0.960 . S
H443 C456 0.960 . S
C444 H436 0.929 . S
C444 C445 1.377 . S
C444 C446 1.384 . S
C445 C444 1.377 . S
C445 C451 1.390 . S
C446 H437 0.930 . S
C446 C444 1.384 . S
C446 C447 1.372 . S
C447 C446 1.372 . S
C447 C448 1.400 . S
C447 C452 1.490 . S
C448 H438 0.930 . S
C448 C447 1.400 . S
C448 C451 1.386 . S
H449 C465 0.930 . S
H450 C466 0.931 . S
C451 H439 0.929 . S
C451 C445 1.390 . S
C451 C448 1.386 . S
C452 C447 1.490 . S
C452 C454 1.395 . S
C452 C455 1.403 . S
H453 C459 0.930 . S
C454 H440 0.930 . S
C454 C452 1.395 . S
C454 C457 1.403 1_655 S
C455 C452 1.403 . S
C455 C456 1.524 . S
C455 C459 1.400 1_655 S
C456 H441 0.960 . S
C456 H442 0.960 . S
C456 H443 0.960 . S
C456 C455 1.524 . S
C457 C454 1.403 1_455 S
C457 C458 1.392 . S
C457 C461 1.495 . S
C458 C457 1.392 . S
C458 C459 1.385 . S
C458 C460 1.478 . S
C459 H453 0.930 . S
C459 C455 1.400 1_455 S
C459 C458 1.385 . S
C460 C458 1.478 . S
C460 C462 1.381 . S
C460 C466 1.383 . S
C461 C457 1.495 . S
C461 H467 0.959 . S
C461 H468 0.961 . S
C461 H469 0.960 . S
C462 C460 1.381 . S
C462 C463 1.394 . S
C462 H470 0.930 . S
C463 C462 1.394 . S
C463 C464 1.383 . S
C463 H471 0.929 . S
C464 C463 1.383 . S
C464 C465 1.377 . S
C465 H449 0.930 . S
C465 C464 1.377 . S
C465 C466 1.379 . S
C466 H450 0.931 . S
C466 C460 1.383 . S
C466 C465 1.379 . S
H467 C461 0.959 . S
H468 C461 0.961 . S
H469 C461 0.960 . S
H470 C462 0.930 . S
H471 C463 0.929 . S
H472 C480 0.929 . S
H473 C482 0.930 . S
H474 C484 0.930 . S
H475 C487 0.929 . S
H476 C490 0.930 . S
H477 C492 0.960 . S
H478 C492 0.960 . S
H479 C492 0.960 . S
C480 H472 0.929 . S
C480 C481 1.377 . S
C480 C482 1.384 . S
C481 C480 1.377 . S
C481 C487 1.390 . S
C482 H473 0.930 . S
C482 C480 1.384 . S
C482 C483 1.372 . S
C483 C482 1.372 . S
C483 C484 1.400 . S
C483 C488 1.490 . S
C484 H474 0.930 . S
C484 C483 1.400 . S
C484 C487 1.386 . S
H485 C501 0.930 . S
H486 C502 0.931 . S
C487 H475 0.929 . S
C487 C481 1.390 . S
C487 C484 1.386 . S
C488 C483 1.490 . S
C488 C490 1.395 . S
C488 C491 1.403 . S
H489 C495 0.930 . S
C490 H476 0.930 . S
C490 C488 1.395 . S
C490 C493 1.403 1_565 S
C491 C488 1.403 . S
C491 C492 1.524 . S
C491 C495 1.400 1_565 S
C492 H477 0.960 . S
C492 H478 0.960 . S
C492 H479 0.960 . S
C492 C491 1.524 . S
C493 C490 1.403 1_545 S
C493 C494 1.392 . S
C493 C497 1.495 . S
C494 C493 1.392 . S
C494 C495 1.385 . S
C494 C496 1.478 . S
C495 H489 0.930 . S
C495 C491 1.400 1_545 S
C495 C494 1.385 . S
C496 C494 1.478 . S
C496 C498 1.381 . S
C496 C502 1.383 . S
C497 C493 1.495 . S
C497 H503 0.959 . S
C497 H504 0.961 . S
C497 H505 0.960 . S
C498 C496 1.381 . S
C498 C499 1.394 . S
C498 H506 0.930 . S
C499 C498 1.394 . S
C499 C500 1.383 . S
C499 H507 0.929 . S
C500 C499 1.383 . S
C500 C501 1.377 . S
C501 H485 0.930 . S
C501 C500 1.377 . S
C501 C502 1.379 . S
C502 H486 0.931 . S
C502 C496 1.383 . S
C502 C501 1.379 . S
H503 C497 0.959 . S
H504 C497 0.961 . S
H505 C497 0.960 . S
H506 C498 0.930 . S
H507 C499 0.929 . S
H508 C516 0.929 . S
H509 C518 0.930 . S
H510 C520 0.930 . S
H511 C523 0.929 . S
H512 C526 0.930 . S
H513 C528 0.960 . S
H514 C528 0.960 . S
H515 C528 0.960 . S
C516 H508 0.929 . S
C516 C517 1.377 . S
C516 C518 1.384 . S
C517 C516 1.377 . S
C517 C523 1.390 . S
C518 H509 0.930 . S
C518 C516 1.384 . S
C518 C519 1.372 . S
C519 C518 1.372 . S
C519 C520 1.400 . S
C519 C524 1.490 . S
C520 H510 0.930 . S
C520 C519 1.400 . S
C520 C523 1.386 . S
H521 C537 0.930 . S
H522 C538 0.931 . S
C523 H511 0.929 . S
C523 C517 1.390 . S
C523 C520 1.386 . S
C524 C519 1.490 . S
C524 C526 1.395 . S
C524 C527 1.403 . S
H525 C531 0.930 . S
C526 H512 0.930 . S
C526 C524 1.395 . S
C526 C529 1.403 1_655 S
C527 C524 1.403 . S
C527 C528 1.524 1_554 S
C527 C531 1.400 1_655 S
C528 H513 0.960 . S
C528 H514 0.960 . S
C528 H515 0.960 . S
C528 C527 1.524 1_556 S
C529 C526 1.403 1_455 S
C529 C530 1.392 . S
C529 C533 1.495 . S
C530 C529 1.392 . S
C530 C531 1.385 . S
C530 C532 1.478 . S
C531 H525 0.930 . S
C531 C527 1.400 1_455 S
C531 C530 1.385 . S
C532 C530 1.478 . S
C532 C534 1.381 . S
C532 C538 1.383 . S
C533 C529 1.495 . S
C533 H539 0.959 . S
C533 H540 0.961 . S
C533 H541 0.960 . S
C534 C532 1.381 . S
C534 C535 1.394 . S
C534 H542 0.930 . S
C535 C534 1.394 . S
C535 C536 1.383 . S
C535 H543 0.929 . S
C536 C535 1.383 . S
C536 C537 1.377 . S
C537 H521 0.930 . S
C537 C536 1.377 . S
C537 C538 1.379 . S
C538 H522 0.931 . S
C538 C532 1.383 . S
C538 C537 1.379 . S
H539 C533 0.959 . S
H540 C533 0.961 . S
H541 C533 0.960 . S
H542 C534 0.930 . S
H543 C535 0.929 . S
H544 C552 0.929 . S
H545 C554 0.930 . S
H546 C556 0.930 . S
H547 C559 0.929 . S
H548 C562 0.930 . S
H549 C564 0.960 . S
H550 C564 0.960 1_556 S
H551 C564 0.960 . S
C552 H544 0.929 . S
C552 C553 1.377 . S
C552 C554 1.384 . S
C553 C552 1.377 . S
C553 C559 1.390 . S
C554 H545 0.930 . S
C554 C552 1.384 . S
C554 C555 1.372 . S
C555 C554 1.372 . S
C555 C556 1.400 . S
C555 C560 1.490 1_556 S
C556 H546 0.930 . S
C556 C555 1.400 . S
C556 C559 1.386 . S
H557 C573 0.930 . S
H558 C574 0.931 . S
C559 H547 0.929 . S
C559 C553 1.390 . S
C559 C556 1.386 . S
C560 C555 1.490 1_554 S
C560 C562 1.395 . S
C560 C563 1.403 . S
H561 C567 0.930 . S
C562 H548 0.930 . S
C562 C560 1.395 . S
C562 C565 1.403 . S
C563 C560 1.403 . S
C563 C564 1.524 . S
C563 C567 1.400 . S
C564 H549 0.960 . S
C564 H550 0.960 1_554 S
C564 H551 0.960 . S
C564 C563 1.524 . S
C565 C562 1.403 . S
C565 C566 1.392 . S
C565 C569 1.495 . S
C566 C565 1.392 . S
C566 C567 1.385 . S
C566 C568 1.478 . S
C567 H561 0.930 . S
C567 C563 1.400 . S
C567 C566 1.385 . S
C568 C566 1.478 . S
C568 C570 1.381 . S
C568 C574 1.383 . S
C569 C565 1.495 . S
C569 H575 0.959 . S
C569 H576 0.961 . S
C569 H577 0.960 . S
C570 C568 1.381 . S
C570 C571 1.394 . S
C570 H578 0.930 . S
C571 C570 1.394 . S
C571 C572 1.383 . S
C571 H579 0.929 . S
C572 C571 1.383 . S
C572 C573 1.377 . S
C573 H557 0.930 . S
C573 C572 1.377 . S
C573 C574 1.379 . S
C574 H558 0.931 . S
C574 C568 1.383 . S
C574 C573 1.379 . S
H575 C569 0.959 . S
H576 C569 0.961 . S
H577 C569 0.960 . S
H578 C570 0.930 . S
H579 C571 0.929 . S
H580 C588 0.929 . S
H581 C590 0.930 . S
H582 C592 0.930 . S
H583 C595 0.929 . S
H584 C598 0.930 . S
H585 C600 0.960 . S
H586 C600 0.960 . S
H587 C600 0.960 . S
C588 H580 0.929 . S
C588 C589 1.377 . S
C588 C590 1.384 . S
C589 C588 1.377 . S
C589 C595 1.390 . S
C590 H581 0.930 . S
C590 C588 1.384 . S
C590 C591 1.372 . S
C591 C590 1.372 . S
C591 C592 1.400 . S
C591 C596 1.490 . S
C592 H582 0.930 . S
C592 C591 1.400 . S
C592 C595 1.386 . S
H593 C609 0.930 . S
H594 C610 0.931 . S
C595 H583 0.929 . S
C595 C589 1.390 . S
C595 C592 1.386 . S
C596 C591 1.490 . S
C596 C598 1.395 . S
C596 C599 1.403 . S
H597 C603 0.930 . S
C598 H584 0.930 . S
C598 C596 1.395 . S
C598 C601 1.403 . S
C599 C596 1.403 . S
C599 C600 1.524 . S
C599 C603 1.400 . S
C600 H585 0.960 . S
C600 H586 0.960 . S
C600 H587 0.960 . S
C600 C599 1.524 . S
C601 C598 1.403 . S
C601 C602 1.392 . S
C601 C605 1.495 . S
C602 C601 1.392 . S
C602 C603 1.385 . S
C602 C604 1.478 . S
C603 H597 0.930 . S
C603 C599 1.400 . S
C603 C602 1.385 . S
C604 C602 1.478 . S
C604 C606 1.381 . S
C604 C610 1.383 . S
C605 C601 1.495 . S
C605 H611 0.959 . S
C605 H612 0.961 . S
C605 H613 0.960 . S
C606 C604 1.381 . S
C606 C607 1.394 . S
C606 H614 0.930 . S
C607 C606 1.394 . S
C607 C608 1.383 . S
C607 H615 0.929 . S
C608 C607 1.383 . S
C608 C609 1.377 . S
C609 H593 0.930 . S
C609 C608 1.377 . S
C609 C610 1.379 . S
C610 H594 0.931 . S
C610 C604 1.383 . S
C610 C609 1.379 . S
H611 C605 0.959 . S
H612 C605 0.961 . S
H613 C605 0.960 . S
H614 C606 0.930 . S
H615 C607 0.929 . S
H616 C624 0.929 . S
H617 C626 0.930 . S
H618 C628 0.930 . S
H619 C631 0.929 . S
H620 C634 0.930 . S
H621 C636 0.960 . S
H622 C636 0.960 . S
H623 C636 0.960 . S
C624 H616 0.929 . S
C624 C625 1.377 . S
C624 C626 1.384 . S
C625 C624 1.377 . S
C625 C631 1.390 . S
C626 H617 0.930 . S
C626 C624 1.384 . S
C626 C627 1.372 . S
C627 C626 1.372 . S
C627 C628 1.400 . S
C627 C632 1.490 . S
C628 H618 0.930 . S
C628 C627 1.400 . S
C628 C631 1.386 . S
H629 C645 0.930 . S
H630 C646 0.931 . S
C631 H619 0.929 . S
C631 C625 1.390 . S
C631 C628 1.386 . S
C632 C627 1.490 . S
C632 C634 1.395 . S
C632 C635 1.403 . S
H633 C639 0.930 . S
C634 H620 0.930 . S
C634 C632 1.395 . S
C634 C637 1.403 . S
C635 C632 1.403 . S
C635 C636 1.524 . S
C635 C639 1.400 . S
C636 H621 0.960 . S
C636 H622 0.960 . S
C636 H623 0.960 . S
C636 C635 1.524 . S
C637 C634 1.403 . S
C637 C638 1.392 . S
C637 C641 1.495 . S
C638 C637 1.392 . S
C638 C639 1.385 . S
C638 C640 1.478 . S
C639 H633 0.930 . S
C639 C635 1.400 . S
C639 C638 1.385 . S
C640 C638 1.478 . S
C640 C642 1.381 . S
C640 C646 1.383 . S
C641 C637 1.495 . S
C641 H647 0.959 . S
C641 H648 0.961 . S
C641 H649 0.960 . S
C642 C640 1.381 . S
C642 C643 1.394 . S
C642 H650 0.930 . S
C643 C642 1.394 . S
C643 C644 1.383 . S
C643 H651 0.929 . S
C644 C643 1.383 . S
C644 C645 1.377 . S
C645 H629 0.930 . S
C645 C644 1.377 . S
C645 C646 1.379 . S
C646 H630 0.931 . S
C646 C640 1.383 . S
C646 C645 1.379 . S
H647 C641 0.959 . S
H648 C641 0.961 . S
H649 C641 0.960 . S
H650 C642 0.930 . S
H651 C643 0.929 . S
H652 C660 0.929 . S
H653 C662 0.930 . S
H654 C664 0.930 . S
H655 C667 0.929 . S
H656 C670 0.930 . S
H657 C672 0.960 . S
H658 C672 0.960 . S
H659 C672 0.960 . S
C660 H652 0.929 . S
C660 C661 1.377 . S
C660 C662 1.384 . S
C661 C660 1.377 . S
C661 C667 1.390 . S
C662 H653 0.930 . S
C662 C660 1.384 . S
C662 C663 1.372 . S
C663 C662 1.372 . S
C663 C664 1.400 . S
C663 C668 1.490 . S
C664 H654 0.930 . S
C664 C663 1.400 . S
C664 C667 1.386 . S
H665 C681 0.930 . S
H666 C682 0.931 . S
C667 H655 0.929 . S
C667 C661 1.390 . S
C667 C664 1.386 . S
C668 C663 1.490 . S
C668 C670 1.395 . S
C668 C671 1.403 . S
H669 C675 0.930 . S
C670 H656 0.930 . S
C670 C668 1.395 . S
C670 C673 1.403 . S
C671 C668 1.403 . S
C671 C672 1.524 . S
C671 C675 1.400 . S
C672 H657 0.960 . S
C672 H658 0.960 . S
C672 H659 0.960 . S
C672 C671 1.524 . S
C673 C670 1.403 . S
C673 C674 1.392 . S
C673 C677 1.495 . S
C674 C673 1.392 . S
C674 C675 1.385 . S
C674 C676 1.478 . S
C675 H669 0.930 . S
C675 C671 1.400 . S
C675 C674 1.385 . S
C676 C674 1.478 . S
C676 C678 1.381 . S
C676 C682 1.383 . S
C677 C673 1.495 . S
C677 H683 0.959 . S
C677 H684 0.961 . S
C677 H685 0.960 . S
C678 C676 1.381 . S
C678 C679 1.394 . S
C678 H686 0.930 . S
C679 C678 1.394 . S
C679 C680 1.383 . S
C679 H687 0.929 . S
C680 C679 1.383 . S
C680 C681 1.377 . S
C681 H665 0.930 . S
C681 C680 1.377 . S
C681 C682 1.379 . S
C682 H666 0.931 . S
C682 C676 1.383 . S
C682 C681 1.379 . S
H683 C677 0.959 . S
H684 C677 0.961 . S
H685 C677 0.960 . S
H686 C678 0.930 . S
H687 C679 0.929 . S
C121 C9 0.499 . S
C140 C93 0.480 . S
C157 C23 0.495 . S
C176 C107 0.523 . S
C193 C65 0.501 . S
C212 C37 0.488 . S
C229 C79 0.504 . S
C248 C51 0.517 . S
C265 C11 1.480 . S
C284 C81 1.461 . S
C301 C25 1.475 . S
C320 C95 1.454 . S
C337 C109 1.473 1_556 S
C356 C39 1.493 . S
C373 C53 1.474 . S
C392 C67 1.455 . S
C409 C61 1.503 . S
C428 C5 1.497 . S
C445 C19 1.502 . S
C464 C75 1.501 . S
C481 C33 1.503 . S
C500 C89 1.504 . S
C517 C103 1.504 . S
C536 C47 1.501 . S
C553 C84 1.496 . S
C572 C0 1.478 . S
C589 C98 1.499 . S
C608 C14 1.492 . S
C625 C28 1.492 . S
C644 C56 1.475 . S
C661 C42 1.497 . S
C680 C70 1.509 . S
