# Generated by pormake.
# Topology qtz-x, (6)-cn, num edge types: 1
# Building blocks:
#     Node 0, Type 0, BuildingBlock: BETFAJ_clean_sbu_0, # of connection points: 6
#     Node 1, Type 0, BuildingBlock: BETFAJ_clean_sbu_0, # of connection points: 6
#     Node 2, Type 0, BuildingBlock: BETFAJ_clean_sbu_0, # of connection points: 6
#     Edge 3, Type (0, 0), BuildingBlock: MIFKUJ_clean_linker_0, # of connection points: 2
#     Edge 4, Type (0, 0), BuildingBlock: MIFKUJ_clean_linker_0, # of connection points: 2
#     Edge 5, Type (0, 0), BuildingBlock: MIFKUJ_clean_linker_0, # of connection points: 2
#     Edge 6, Type (0, 0), BuildingBlock: MIFKUJ_clean_linker_0, # of connection points: 2
#     Edge 7, Type (0, 0), BuildingBlock: MIFKUJ_clean_linker_0, # of connection points: 2
#     Edge 8, Type (0, 0), BuildingBlock: MIFKUJ_clean_linker_0, # of connection points: 2
#     Edge 9, Type (0, 0), BuildingBlock: MIFKUJ_clean_linker_0, # of connection points: 2
#     Edge 10, Type (0, 0), BuildingBlock: MIFKUJ_clean_linker_0, # of connection points: 2
#     Edge 11, Type (0, 0), BuildingBlock: MIFKUJ_clean_linker_0, # of connection points: 2
# Relax obj value: 0.175
# Max RMSD: 0.236
# Mean RMSD: 0.218
data_MOF--net-qtz-x--node1-BETFAJ_clean_sbu_0--edge1-MIFKUJ_clean_linker_0
_symmetry_space_group_name_H-M    P1
_symmetry_Int_Tables_number       1
_symmetry_cell_setting            triclinic
loop_
_symmetry_equiv_pos_as_xyz
'x, y, z'
_cell_length_a     19.174627
_cell_length_b     19.094109
_cell_length_c     66.106453
_cell_angle_alpha  73.652475
_cell_angle_beta   109.35802
_cell_angle_gamma 121.11378
loop_
_atom_site_label
_atom_site_type_symbol
_atom_site_fract_x
_atom_site_fract_y
_atom_site_fract_z
_atom_type_partial_charge
Sm0 Sm 0.97294 0.58981 0.18711 0.0
Sm1 Sm 0.13154 0.71683 0.17276 0.0
C2 C 0.861 0.46162 0.20752 0.0
C3 C 0.84373 0.43341 0.22952 0.0
C4 C 0.85216 0.36425 0.24209 0.0
C5 C 0.8359 0.33611 0.26282 0.0
C6 C 0.81009 0.37604 0.27152 0.0
C7 C 0.80142 0.44524 0.25887 0.0
C8 C 0.81808 0.47362 0.23815 0.0
C9 C 0.99477 0.74899 0.17895 0.0
C10 C 0.14597 0.68097 0.22373 0.0
C11 C 0.24954 0.84038 0.15342 0.0
C12 C 0.28336 0.85468 0.13467 0.0
C13 C 0.27441 0.91202 0.11663 0.0
C14 C 0.30462 0.92502 0.09861 0.0
C15 C 0.34509 0.88146 0.09841 0.0
C16 C 0.35504 0.82496 0.11657 0.0
C17 C 0.32431 0.81149 0.13449 0.0
C18 C 0.10727 0.55652 0.17999 0.0
C19 C 0.95859 0.63322 0.13587 0.0
O20 O 0.92758 0.46343 0.20552 0.0
O21 O 0.84943 0.5243 0.1959 0.0
O22 O 0.05116 0.72781 0.18861 0.0
O23 O 0.92266 0.68483 0.17424 0.0
O24 O 0.07449 0.61328 0.21935 0.0
O25 O 0.17592 0.73963 0.20804 0.0
O26 O 0.1738 0.83121 0.14913 0.0
O27 O 0.26399 0.78997 0.17026 0.0
O28 O 0.05213 0.57935 0.17068 0.0
O29 O 0.17964 0.61988 0.18467 0.0
O30 O 0.02983 0.70023 0.14083 0.0
O31 O 0.92741 0.57198 0.15106 0.0
H32 H 0.87162 0.33186 0.23587 0.0
H33 H 0.84456 0.28349 0.27212 0.0
H34 H 0.78054 0.47695 0.26484 0.0
H35 H 0.81052 0.52689 0.2289 0.0
H36 H 0.24347 0.94639 0.1164 0.0
H37 H 0.29642 0.96915 0.08484 0.0
H38 H 0.38491 0.78966 0.11672 0.0
H39 H 0.3321 0.76665 0.14808 0.0
Sm40 Sm 0.72265 0.11876 0.53775 0.0
Sm41 Sm 0.65559 0.9451 0.53167 0.0
C42 C 0.75234 0.25176 0.55105 0.0
C43 C 0.77568 0.27647 0.57248 0.0
C44 C 0.73167 0.30867 0.57672 0.0
C45 C 0.74964 0.32832 0.59728 0.0
C46 C 0.81286 0.31703 0.61399 0.0
C47 C 0.85693 0.28467 0.60962 0.0
C48 C 0.83815 0.26408 0.58912 0.0
C49 C 0.84217 0.08654 0.53436 0.0
C50 C 0.70989 0.97476 0.58103 0.0
C51 C 0.61787 0.81425 0.5157 0.0
C52 C 0.58991 0.79739 0.49297 0.0
C53 C 0.64701 0.83199 0.47957 0.0
C54 C 0.61868 0.82393 0.4575 0.0
C55 C 0.53266 0.78153 0.44832 0.0
C56 C 0.47598 0.74452 0.46185 0.0
C57 C 0.50427 0.75193 0.48391 0.0
C58 C 0.53642 0.97944 0.53437 0.0
C59 C 0.67666 0.09162 0.48886 0.0
O60 O 0.67714 0.19084 0.546 0.0
O61 O 0.80865 0.2466 0.54542 0.0
O62 O 0.78672 0.03885 0.54518 0.0
O63 O 0.83772 0.15462 0.52578 0.0
O64 O 0.71725 0.04911 0.57257 0.0
O65 O 0.69365 0.92177 0.56878 0.0
O66 O 0.69488 0.871 0.52175 0.0
O67 O 0.56505 0.81902 0.52299 0.0
O68 O 0.5923 0.02587 0.52365 0.0
O69 O 0.54084 0.91171 0.5435 0.0
O70 O 0.6705 0.01786 0.49746 0.0
O71 O 0.68685 0.14217 0.50086 0.0
H72 H 0.68258 0.31762 0.56415 0.0
H73 H 0.71313 0.35136 0.60013 0.0
H74 H 0.90659 0.27596 0.62196 0.0
H75 H 0.87232 0.23817 0.58634 0.0
H76 H 0.71343 0.86745 0.48597 0.0
H77 H 0.66387 0.85336 0.44747 0.0
H78 H 0.40944 0.71022 0.45532 0.0
H79 H 0.45869 0.72393 0.49378 0.0
Sm80 Sm 0.73164 0.78457 0.85734 0.0
Sm81 Sm 0.86716 0.74308 0.86203 0.0
C82 C 0.60197 0.78873 0.86203 0.0
C83 C 0.58435 0.80589 0.87968 0.0
C84 C 0.50642 0.75531 0.88512 0.0
C85 C 0.49022 0.76849 0.90248 0.0
C86 C 0.55169 0.83286 0.91471 0.0
C87 C 0.6297 0.88359 0.90913 0.0
C88 C 0.64603 0.86999 0.89188 0.0
C89 C 0.8879 0.91961 0.85984 0.0
C90 C 0.828 0.73131 0.90601 0.0
C91 C 0.9938 0.73159 0.85828 0.0
C92 C 1.00403 0.70087 0.84177 0.0
C93 C 0.0214 0.75049 0.82203 0.0
C94 C 1.01892 0.71725 0.80534 0.0
C95 C 0.99889 0.63366 0.80797 0.0
C96 C 0.98634 0.58546 0.82814 0.0
C97 C 0.9893 0.61882 0.84488 0.0
C98 C 0.70985 0.60907 0.85973 0.0
C99 C 0.77264 0.79652 0.81285 0.0
O100 O 0.60753 0.72066 0.86574 0.0
O101 O 0.65921 0.85089 0.85241 0.0
O102 O 0.87211 0.85034 0.87131 0.0
O103 O 0.82007 0.92082 0.84744 0.0
O104 O 0.75673 0.72785 0.89347 0.0
O105 O 0.89116 0.75351 0.89764 0.0
O106 O 0.9877 0.80007 0.85227 0.0
O107 O 0.94099 0.67598 0.87011 0.0
O108 O 0.72704 0.67799 0.84805 0.0
O109 O 0.77706 0.60748 0.87246 0.0
O110 O 0.84102 0.7935 0.82556 0.0
O111 O 0.71193 0.78282 0.82112 0.0
H112 H 0.45841 0.70483 0.87611 0.0
H113 H 0.43008 0.72715 0.90659 0.0
H114 H 0.67823 0.93417 0.91802 0.0
H115 H 0.70714 0.90935 0.88819 0.0
H116 H 0.03414 0.81431 0.81916 0.0
H117 H 0.03089 0.75668 0.79018 0.0
H118 H 0.97032 0.52078 0.83074 0.0
H119 H 0.97652 0.57921 0.85998 0.0
H120 H 0.14146 0.88937 0.18785 0.0
H121 H 0.16046 0.02696 0.18714 0.0
H122 H 0.89336 0.93599 0.16646 0.0
H123 H 0.87435 0.79869 0.16658 0.0
H124 H 0.97132 0.0855 0.14526 0.0
H125 H 1.0006 0.96327 0.22008 0.0
H126 H 0.06027 0.8952 0.25329 0.0
H127 H 0.30424 0.10306 0.25348 0.0
H128 H 0.24621 0.17188 0.22008 0.0
H129 H 0.96 0.41799 0.16957 0.0
H130 H 0.94022 0.28072 0.16943 0.0
H131 H 0.20681 0.36918 0.19117 0.0
H132 H 0.22648 0.50578 0.19195 0.0
H133 H 0.12876 0.22089 0.2117 0.0
H134 H 0.10174 0.34388 0.1373 0.0
H135 H 0.04389 0.41398 0.1042 0.0
H136 H 0.79881 0.20712 0.103 0.0
H137 H 0.85499 0.1363 0.13629 0.0
C138 C 0.08683 0.89884 0.18306 0.0
C139 C 1.00634 0.8331 0.17747 0.0
C140 C 0.0977 0.97747 0.18274 0.0
C141 C 0.02823 -0.00823 0.17716 0.0
C142 C 0.94794 0.92662 0.17092 0.0
C143 C 0.9371 0.84808 0.17106 0.0
C144 C 0.0391 0.07397 0.17826 0.0
C145 C 1.00486 0.11459 0.15988 0.0
C146 C 0.08443 0.11312 0.19717 0.0
C147 C 0.11915 0.0724 0.21747 0.0
C148 C 0.06705 -0.00574 0.22713 0.0
C149 C 0.10058 0.95556 0.246 0.0
C150 C 0.18603 -0.00531 0.25546 0.0
C151 C 0.23808 0.07277 0.24612 0.0
C152 C 0.20489 0.11169 0.22723 0.0
C153 C 1.0143 0.40797 0.1744 0.0
C154 C 0.09484 0.47271 0.18064 0.0
C155 C 1.00301 0.32959 0.17421 0.0
C156 C 0.07216 0.31468 0.17991 0.0
C157 C 0.15246 0.37898 0.18663 0.0
C158 C 0.16368 0.45715 0.18701 0.0
C159 C 0.06107 0.2325 0.1787 0.0
C160 C 0.09524 0.19186 0.19707 0.0
C161 C 1.01603 0.19358 0.15976 0.0
C162 C 0.98247 0.23508 0.1394 0.0
C163 C 0.03544 0.31349 0.13003 0.0
C164 C 1.00296 0.35337 0.11124 0.0
C165 C 0.91769 0.31513 0.10154 0.0
C166 C 0.86482 0.23672 0.11055 0.0
C167 C 0.89697 0.19665 0.12937 0.0
H168 H 0.89263 0.34619 0.08703 0.0
H169 H 0.21189 0.96458 0.27005 0.0
H170 H 0.5091 0.11344 0.51458 0.0
H171 H 0.39117 0.13267 0.51398 0.0
H172 H 0.288 0.89531 0.55285 0.0
H173 H 0.40494 0.87582 0.55339 0.0
H174 H 0.16736 0.91297 0.52028 0.0
H175 H 0.39063 0.07635 0.57439 0.0
H176 H 0.52962 0.18534 0.58932 0.0
H177 H 0.47718 0.36968 0.54254 0.0
H178 H 0.33851 0.26173 0.52708 0.0
H179 H 0.87107 0.95309 0.55336 0.0
H180 H 0.98833 0.93517 0.55272 0.0
H181 H 0.08618 0.17235 0.51343 0.0
H182 H 0.96998 0.19061 0.51413 0.0
H183 H 0.20903 0.15595 0.54552 0.0
H184 H 0.98708 -0.00441 0.49142 0.0
H185 H 0.84522 0.88911 0.47719 0.0
H186 H 0.89386 0.70165 0.52341 0.0
H187 H 0.0356 0.80715 0.53821 0.0
C188 C 0.4613 0.06554 0.52301 0.0
C189 C 0.46641 -0.00686 0.53403 0.0
C190 C 0.39398 0.07662 0.52272 0.0
C191 C 0.33055 0.01558 0.53348 0.0
C192 C 0.33571 0.94322 0.54438 0.0
C193 C 0.40292 0.93231 0.54474 0.0
C194 C 0.25863 0.02646 0.53342 0.0
C195 C 0.17662 0.96572 0.52603 0.0
C196 C 0.27017 0.09611 0.54045 0.0
C197 C 0.35443 0.1608 0.54943 0.0
C198 C 0.40908 0.14001 0.56712 0.0
C199 C 0.48774 0.20163 0.57572 0.0
C200 C 0.51211 0.28434 0.56689 0.0
C201 C 0.45817 0.30558 0.54936 0.0
C202 C 0.37957 0.24422 0.54067 0.0
C203 C 0.91757 0.00123 0.54457 0.0
C204 C 0.91138 0.07334 0.53386 0.0
C205 C 0.98446 -0.00911 0.54415 0.0
C206 C 0.04623 0.05234 0.53295 0.0
C207 C 0.03977 0.12422 0.52225 0.0
C208 C 0.97303 0.13444 0.52262 0.0
C209 C 0.11803 0.04246 0.53245 0.0
C210 C 0.19989 0.10334 0.53973 0.0
C211 C 0.10638 0.97325 0.52522 0.0
C212 C 0.02175 0.90943 0.51607 0.0
C213 C 0.96738 0.93174 0.49866 0.0
C214 C 0.88701 0.87158 0.49047 0.0
C215 C 0.86049 0.78876 0.49942 0.0
C216 C 0.91445 0.76587 0.51652 0.0
C217 C 0.99485 0.82581 0.52481 0.0
H218 H 0.79819 0.74233 0.49308 0.0
H219 H 0.57263 0.33207 0.57366 0.0
H220 H 0.92611 0.07585 0.83948 0.0
H221 H 0.0644 0.1958 0.84072 0.0
H222 H 0.17755 0.04769 0.88431 0.0
H223 H 0.0385 0.92745 0.8835 0.0
H224 H 0.25058 0.20082 0.89626 0.0
H225 H 0.17536 0.09052 0.83032 0.0
H226 H 0.07993 0.04124 0.79587 0.0
H227 H 0.09034 0.27924 0.77194 0.0
H228 H 0.18537 0.32992 0.80631 0.0
H229 H 0.66601 0.45686 0.88343 0.0
H230 H 0.52528 0.34305 0.8841 0.0
H231 H 0.42001 0.49214 0.83712 0.0
H232 H 0.56126 0.60563 0.83597 0.0
H233 H 0.34052 0.34164 0.82708 0.0
H234 H 0.42307 0.45674 0.89155 0.0
H235 H 0.51311 0.50665 0.92633 0.0
H236 H 0.48403 0.26328 0.9537 0.0
H237 H 0.39551 0.21224 0.91893 0.0
C238 C 0.98041 0.06889 0.84942 0.0
C239 C 0.97168 -0.00775 0.86131 0.0
C240 C 0.05945 0.13747 0.85007 0.0
C241 C 0.13155 0.13054 0.86235 0.0
C242 C 0.12283 0.05446 0.87468 0.0
C243 C 0.0435 -0.0142 0.87416 0.0
C244 C 0.21596 0.20201 0.86174 0.0
C245 C 0.27087 0.23103 0.8812 0.0
C246 C 0.2413 0.24297 0.84198 0.0
C247 C 0.18701 0.21379 0.82095 0.0
C248 C 0.15722 0.13234 0.81771 0.0
C249 C 0.10322 0.10419 0.7982 0.0
C250 C 0.07904 0.15712 0.78173 0.0
C251 C 0.10927 0.23846 0.78469 0.0
C252 C 0.16332 0.26697 0.80417 0.0
C253 C 0.61286 0.4653 0.8732 0.0
C254 C 0.6245 0.54009 0.85967 0.0
C255 C 0.53237 0.40037 0.87371 0.0
C256 C 0.46178 0.40931 0.86094 0.0
C257 C 0.47341 0.48379 0.84719 0.0
C258 C 0.55407 0.54863 0.84656 0.0
C259 C 0.37605 0.34037 0.86168 0.0
C260 C 0.32064 0.31176 0.84221 0.0
C261 C 0.35019 0.30028 0.88145 0.0
C262 C 0.4033 0.33082 0.90248 0.0
C263 C 0.43651 0.41397 0.9049 0.0
C264 C 0.48726 0.44248 0.92463 0.0
C265 C 0.50452 0.38824 0.94219 0.0
C266 C 0.47083 0.3053 0.94007 0.0
C267 C 0.42039 0.27656 0.92033 0.0
H268 H 0.54389 0.41043 0.95744 0.0
H269 H 0.03691 0.13513 0.76666 0.0
H270 H 0.65944 0.87609 0.95388 0.0
H271 H 0.63081 0.89401 0.98487 0.0
H272 H 0.37843 0.83739 0.94933 0.0
H273 H 0.40669 0.82034 0.91805 0.0
H274 H 0.45459 0.97335 0.97076 0.0
H275 H 0.41222 0.69086 0.98816 0.0
H276 H 0.45014 0.57952 0.99516 0.0
H277 H 0.66555 0.70388 0.04393 0.0
H278 H 0.62835 0.81566 0.03735 0.0
H279 H 0.25939 0.88193 0.05615 0.0
H280 H 0.30343 0.88799 1.02467 0.0
H281 H 0.54077 0.91162 0.06559 0.0
H282 H 0.49614 0.90386 0.09714 0.0
H283 H 0.48082 0.79966 0.04158 0.0
H284 H 0.52021 0.07365 0.02805 0.0
H285 H 0.48879 0.18867 1.02225 0.0
H286 H 0.29407 0.09372 0.96655 0.0
H287 H 0.32314 0.97711 0.97225 0.0
C288 C 0.5979 0.86786 0.95253 0.0
C289 C 0.53508 0.84591 0.93347 0.0
C290 C 0.58152 0.87756 0.97036 0.0
C291 C 0.50222 0.86608 0.96948 0.0
C292 C 0.43993 0.84605 0.95037 0.0
C293 C 0.45603 0.83569 0.93257 0.0
C294 C 0.48424 0.87523 0.98846 0.0
C295 C 0.45918 0.9348 0.98622 0.0
C296 C 0.49368 0.82718 1.00878 0.0
C297 C 0.51784 0.76178 1.01215 0.0
C298 C 0.46807 0.6948 1.00023 0.0
C299 C 0.48925 0.63147 1.0042 0.0
C300 C 0.56025 0.6347 1.01998 0.0
C301 C 0.6105 0.70145 0.03175 0.0
C302 C 0.58923 0.76461 0.02797 0.0
C303 C 0.32146 0.8898 0.05833 0.0
C304 C 0.37434 0.89228 0.07907 0.0
C305 C 0.34672 0.89352 0.04033 0.0
C306 C 0.42581 0.90103 0.04269 0.0
C307 C 0.47943 0.90565 0.06335 0.0
C308 C 0.45388 0.9011 0.08136 0.0
C309 C 0.45009 0.89753 1.02398 0.0
C310 C 0.47646 0.83888 0.02624 0.0
C311 C 0.44309 0.94752 1.00378 0.0
C312 C 0.42327 0.01596 1.00074 0.0
C313 C 0.46988 0.07655 1.01474 0.0
C314 C 0.45264 0.14222 1.01143 0.0
C315 C 0.38931 0.14836 0.99409 0.0
C316 C 0.34296 0.08876 0.98002 0.0
C317 C 0.35978 0.02284 0.98329 0.0
H318 H 0.37634 0.19946 0.99149 0.0
H319 H 0.57605 0.58521 1.02322 0.0
H320 H 0.63174 -0.00313 0.45799 0.0
H321 H 0.64723 0.04348 0.42061 0.0
H322 H 0.74351 0.29538 0.42969 0.0
H323 H 0.72604 0.24885 0.467 0.0
H324 H 0.64262 0.26757 0.3906 0.0
H325 H 0.8753 0.21622 0.43243 0.0
H326 H 0.9405 0.13197 0.45739 0.0
H327 H 0.81106 0.9523 0.41336 0.0
H328 H 0.74443 0.03501 0.38823 0.0
H329 H 0.8452 0.46736 0.30248 0.0
H330 H 0.8155 0.41722 0.33853 0.0
H331 H 0.70697 0.16598 0.32717 0.0
H332 H 0.73471 0.21536 0.29089 0.0
H333 H 0.81317 0.19223 0.3672 0.0
H334 H 0.58147 0.24078 0.32546 0.0
H335 H 0.51152 0.32058 0.30042 0.0
H336 H 0.63395 0.50071 0.34413 0.0
H337 H 0.7055 0.42245 0.36931 0.0
C338 C 0.65559 0.06217 0.45201 0.0
C339 C 0.67829 0.11924 0.46558 0.0
C340 C 0.66483 0.0888 0.43063 0.0
C341 C 0.69842 0.17325 0.42243 0.0
C342 C 0.71793 0.22998 0.43566 0.0
C343 C 0.70788 0.20327 0.45701 0.0
C344 C 0.71532 0.20266 0.40031 0.0
C345 C 0.68094 0.25208 0.38561 0.0
C346 C 0.7637 0.18092 0.39355 0.0
C347 C 0.80459 0.13164 0.4085 0.0
C348 C 0.8605 0.15857 0.42811 0.0
C349 C 0.89772 0.11112 0.44229 0.0
C350 C 0.87999 0.03692 0.43694 0.0
C351 C 0.82483 0.00988 0.41745 0.0
C352 C 0.78742 0.05708 0.40322 0.0
C353 C 0.81403 0.40137 0.30748 0.0
C354 C 0.79226 0.34557 0.29363 0.0
C355 C 0.79739 0.37279 0.32818 0.0
C356 C 0.75856 0.28777 0.33554 0.0
C357 C 0.73732 0.23186 0.32189 0.0
C358 C 0.75359 0.26035 0.30114 0.0
C359 C 0.7406 0.25729 0.35754 0.0
C360 C 0.77514 0.20799 0.37223 0.0
C361 C 0.69217 0.27889 0.36428 0.0
C362 C 0.64952 0.32624 0.34915 0.0
C363 C 0.59406 0.2978 0.32964 0.0
C364 C 0.55399 0.34266 0.31544 0.0
C365 C 0.56846 0.4158 0.32065 0.0
C366 C 0.6229 0.44412 0.3401 0.0
C367 C 0.66317 0.3995 0.35435 0.0
H368 H 0.53735 0.45042 0.30965 0.0
H369 H 0.90926 0.00056 0.44786 0.0
H370 H 0.87848 0.81123 0.79071 0.0
H371 H 0.86772 0.84088 0.75176 0.0
H372 H 0.63896 0.85135 0.74147 0.0
H373 H 0.6495 0.82197 0.78066 0.0
H374 H 0.75617 0.75914 0.71946 0.0
H375 H 0.62457 -0.00917 0.69705 0.0
H376 H 0.6335 0.09922 0.71263 0.0
H377 H 0.87407 0.13639 0.7531 0.0
H378 H 0.86642 0.02809 0.73781 0.0
H379 H 0.6315 0.82243 0.6041 0.0
H380 H 0.63866 0.78995 0.64309 0.0
H381 H 0.82042 0.04379 0.65082 0.0
H382 H 0.80856 0.07703 0.6118 0.0
H383 H 0.72718 0.00297 0.67465 0.0
H384 H 0.8669 0.86267 0.66739 0.0
H385 H 0.87949 0.76594 0.65241 0.0
H386 H 0.65756 0.5661 0.67203 0.0
H387 H 0.64444 0.66129 0.68735 0.0
C388 C 0.82576 0.81994 0.78025 0.0
C389 C 0.76484 0.81423 0.78895 0.0
C390 C 0.81961 0.83669 0.75788 0.0
C391 C 0.75285 0.84897 0.74355 0.0
C392 C 0.69169 0.84316 0.75214 0.0
C393 C 0.69756 0.82592 0.77458 0.0
C394 C 0.74717 0.86676 0.71967 0.0
C395 C 0.74976 0.81248 0.70966 0.0
C396 C 0.74016 0.93691 0.7068 0.0
C397 C 0.7444 0.00072 0.71645 0.0
C398 C 0.67924 0.02202 0.70931 0.0
C399 C 0.68407 0.08339 0.7181 0.0
C400 C 0.75426 0.12463 0.73386 0.0
C401 C 0.81959 0.10422 0.74095 0.0
C402 C 0.81484 0.04255 0.73231 0.0
C403 C 0.67354 0.87092 0.6142 0.0
C404 C 0.71976 0.95214 0.60488 0.0
C405 C 0.67807 0.85232 0.63659 0.0
C406 C 0.7313 0.9139 0.65029 0.0
C407 C 0.77851 -0.00521 0.64086 0.0
C408 C 0.77213 0.01377 0.61848 0.0
C409 C 0.73659 0.89551 0.67426 0.0
C410 C 0.73348 0.94947 0.68434 0.0
C411 C 0.74579 0.82643 0.68732 0.0
C412 C 0.75444 0.76909 0.67838 0.0
C413 C 0.8209 0.79803 0.6685 0.0
C414 C 0.82829 0.74341 0.66002 0.0
C415 C 0.76956 0.65977 0.66134 0.0
C416 C 0.70345 0.63062 0.67117 0.0
C417 C 0.69617 0.6848 0.67982 0.0
H418 H 0.77521 0.61757 0.65472 0.0
H419 H 0.75811 0.17254 0.74052 0.0
H420 H 0.71678 0.59755 0.92723 0.0
H421 H 0.72831 0.55986 0.96632 0.0
H422 H 0.96582 0.77995 0.97702 0.0
H423 H 0.95752 0.81316 0.93794 0.0
H424 H 0.97533 0.66649 1.00731 0.0
H425 H 0.75588 0.75469 0.97613 0.0
H426 H 0.62447 0.73711 0.94947 0.0
H427 H 0.49803 0.48584 0.97815 0.0
H428 H 0.62956 0.50067 1.00443 0.0
H429 H 0.92817 0.747 0.10433 0.0
H430 H 0.88659 0.74459 0.0651 0.0
H431 H 0.86837 0.50291 0.07572 0.0
H432 H 0.90614 0.50351 0.1151 0.0
H433 H 0.7402 0.61393 0.03552 0.0
H434 H 1.00264 0.54681 0.04029 0.0
H435 H 0.134 0.55466 0.06539 0.0
H436 H 0.17098 0.76053 0.0896 0.0
H437 H 0.04264 0.75655 0.064 0.0
C438 C 0.77161 0.63746 0.93801 0.0
C439 C 0.83591 0.7087 0.92965 0.0
C440 C 0.77797 0.61629 0.96038 0.0
C441 C 0.84668 0.66837 0.97483 0.0
C442 C 0.91185 0.73872 0.96637 0.0
C443 C 0.90701 0.75806 0.94403 0.0
C444 C 0.85006 0.65172 0.9986 0.0
C445 C 0.92363 0.65485 1.01336 0.0
C446 C 0.78258 0.63539 1.00682 0.0
C447 C 0.70236 0.62892 0.99228 0.0
C448 C 0.69984 0.69594 0.97687 0.0
C449 C 0.62543 0.6864 0.96178 0.0
C450 C 0.55273 0.61086 0.96227 0.0
C451 C 0.55434 0.54443 0.97781 0.0
C452 C 0.62882 0.55326 0.99278 0.0
C453 C 0.91261 0.69231 0.09827 0.0
C454 C 0.91957 0.62517 0.11268 0.0
C455 C 0.88871 0.6909 0.07589 0.0
C456 C 0.87441 0.62364 0.06749 0.0
C457 C 0.87849 0.55513 0.08187 0.0
C458 C 0.89985 0.55544 0.10433 0.0
C459 C 0.86567 0.63012 0.04391 0.0
C460 C 0.79134 0.62503 0.02932 0.0
C461 C 0.93227 0.64446 0.03581 0.0
C462 C 1.01219 0.65036 0.05049 0.0
C463 C 0.03935 0.59425 0.05084 0.0
C464 C 0.11357 0.59831 0.06509 0.0
C465 C 0.16106 0.65824 0.07908 0.0
C466 C 0.13469 0.71453 0.07871 0.0
C467 C 0.06123 0.71144 0.06431 0.0
H468 H 0.21825 0.66108 0.09019 0.0
H469 H 0.49527 0.60373 0.95054 0.0
H470 H 0.30238 0.80234 0.23869 0.0
H471 H 0.37657 0.8223 0.27626 0.0
H472 H 0.1648 0.6092 0.29803 0.0
H473 H 0.09115 0.58745 0.2605 0.0
H474 H 0.34852 0.8565 0.30724 0.0
H475 H 0.22627 0.51445 0.34607 0.0
H476 H 0.17817 0.37858 0.3362 0.0
H477 H 0.32685 0.49566 0.28858 0.0
H478 H 0.3765 0.63213 0.29832 0.0
H479 H 0.4039 0.80869 0.42116 0.0
H480 H 0.34893 0.79746 0.38247 0.0
H481 H 0.53587 0.73455 0.38319 0.0
H482 H 0.59103 0.74532 0.42203 0.0
H483 H 0.37903 0.62996 0.36221 0.0
H484 H 0.55645 0.91939 0.36104 0.0
H485 H 0.61368 0.05788 0.37041 0.0
H486 H 0.37569 0.05373 0.34158 0.0
H487 H 0.31606 0.91401 0.33245 0.0
C488 C 0.27165 0.75943 0.25146 0.0
C489 C 0.19099 0.69294 0.24656 0.0
C490 C 0.31413 0.77112 0.27297 0.0
C491 C 0.27691 0.71675 0.29006 0.0
C492 C 0.19576 0.65102 0.28519 0.0
C493 C 0.15352 0.63882 0.26368 0.0
C494 C 0.32264 0.72939 0.31293 0.0
C495 C 0.35518 0.80693 0.31924 0.0
C496 C 0.33298 0.66533 0.32858 0.0
C497 C 0.30454 0.5835 0.32282 0.0
C498 C 0.24898 0.51114 0.33356 0.0
C499 C 0.22137 0.43405 0.32797 0.0
C500 C 0.24927 0.42851 0.31173 0.0
C501 C 0.30507 0.50006 0.3011 0.0
C502 C 0.33287 0.5773 0.30663 0.0
C503 C 0.43319 0.79226 0.41309 0.0
C504 C 0.50147 0.77736 0.42466 0.0
C505 C 0.40211 0.78649 0.39095 0.0
C506 C 0.43846 0.76545 0.37991 0.0
C507 C 0.5069 0.75089 0.39139 0.0
C508 C 0.53862 0.75748 0.41353 0.0
C509 C 0.40322 0.75643 0.35655 0.0
C510 C 0.37254 0.67955 0.35018 0.0
C511 C 0.3959 0.82154 0.34078 0.0
C512 C 0.43147 0.90564 0.34627 0.0
C513 C 0.51596 0.94752 0.35689 0.0
C514 C 0.54894 0.02641 0.36213 0.0
C515 C 0.4984 0.06459 0.35665 0.0
C516 C 0.41473 0.02399 0.34586 0.0
C517 C 0.38126 0.94488 0.34066 0.0
H518 H 0.52398 0.12559 0.36074 0.0
H519 H 0.22776 0.36878 0.30742 0.0
H520 H 0.04198 0.51671 0.80797 0.0
H521 H 1.01007 0.44783 0.77757 0.0
H522 H 0.89527 0.59661 0.73542 0.0
H523 H 0.92291 0.66247 0.76582 0.0
H524 H 0.79982 0.44006 0.72912 0.0
H525 H 0.09575 0.63486 0.73667 0.0
H526 H 0.24335 0.69527 0.75659 0.0
H527 H 0.23953 0.46124 0.7665 0.0
H528 H 0.09172 0.39955 0.74668 0.0
H529 H 0.8138 0.4481 0.62356 0.0
H530 H 0.84403 0.48405 0.65915 0.0
H531 H 0.89278 0.27739 0.68948 0.0
H532 H 0.85849 0.23796 0.65387 0.0
H533 H 1.01845 0.43966 0.70491 0.0
H534 H 0.72927 0.25 0.69335 0.0
H535 H 0.58197 0.18829 0.67344 0.0
H536 H 0.57241 0.41009 0.67125 0.0
H537 H 0.72038 0.47354 0.69095 0.0
C538 C 1.0096 0.53449 0.79225 0.0
C539 C 0.9854 0.59549 0.78935 0.0
C540 C 0.99204 0.49553 0.77485 0.0
C541 C 0.95089 0.51754 0.75418 0.0
C542 C 0.92718 0.57868 0.75123 0.0
C543 C 0.94408 0.61712 0.7686 0.0
C544 C 0.93107 0.47666 0.73552 0.0
C545 C 0.84778 0.44055 0.72375 0.0
C546 C 0.99313 0.47439 0.729 0.0
C547 C 0.08238 0.51222 0.74052 0.0
C548 C 0.12624 0.59618 0.74323 0.0
C549 C 0.21 0.63073 0.75445 0.0
C550 C 0.25072 0.58207 0.76289 0.0
C551 C 0.2079 0.49886 0.76001 0.0
C552 C 0.1242 0.4641 0.74878 0.0
C553 C 0.8296 0.40927 0.63773 0.0
C554 C 0.83315 0.33975 0.63575 0.0
C555 C 0.84759 0.43045 0.65806 0.0
C556 C 0.87049 0.38327 0.67684 0.0
C557 C 0.87566 0.31472 0.67509 0.0
C558 C 0.85639 0.29263 0.65471 0.0
C559 C 0.88803 0.40613 0.69821 0.0
C560 C 0.97055 0.43843 0.71049 0.0
C561 C 0.82534 0.40489 0.70523 0.0
C562 C 0.73621 0.36685 0.69346 0.0
C563 C 0.69604 0.2859 0.68848 0.0
C564 C 0.61238 0.25054 0.67725 0.0
C565 C 0.56793 0.29537 0.67102 0.0
C566 C 0.60703 0.37555 0.67606 0.0
C567 C 0.69075 0.4112 0.68727 0.0
H568 H 0.50314 0.26791 0.66233 0.0
H569 H 0.31552 0.6089 0.77159 0.0
loop_
_geom_bond_atom_site_label_1
_geom_bond_atom_site_label_2
_geom_bond_distance
_geom_bond_site_symmetry_2
_ccdc_geom_bond_type
Sm0 C2 2.846 . S
Sm0 O20 2.543 . S
Sm0 O21 2.450 . S
Sm0 O22 2.681 1_655 S
Sm0 O23 2.464 . S
Sm0 O24 2.396 1_655 S
Sm0 O28 2.386 . S
Sm0 O31 2.408 . S
Sm1 C11 2.846 . S
Sm1 O22 2.386 . S
Sm1 O25 2.408 . S
Sm1 O26 2.543 . S
Sm1 O27 2.450 . S
Sm1 O28 2.681 1_455 S
Sm1 O29 2.464 . S
Sm1 O30 2.396 1_455 S
C2 Sm0 2.846 . S
C2 C3 1.506 . S
C2 O20 1.261 . S
C2 O21 1.242 . S
C3 C2 1.506 . S
C3 C4 1.358 . S
C3 C8 1.382 . S
C4 C3 1.358 . S
C4 C5 1.385 . S
C4 H32 0.930 . S
C5 C4 1.385 . S
C5 C6 1.395 . S
C5 H33 0.929 . S
C6 C5 1.395 . S
C6 C7 1.335 . S
C7 C6 1.335 . S
C7 C8 1.398 . S
C7 H34 0.930 . S
C8 C3 1.382 . S
C8 C7 1.398 . S
C8 H35 0.929 . S
C9 O22 1.271 1_655 S
C9 O23 1.251 . S
C10 O24 1.252 . S
C10 O25 1.272 . S
C11 Sm1 2.846 . S
C11 C12 1.506 . S
C11 O26 1.261 . S
C11 O27 1.242 . S
C12 C11 1.506 . S
C12 C13 1.358 . S
C12 C17 1.382 . S
C13 C12 1.358 . S
C13 C14 1.385 . S
C13 H36 0.930 . S
C14 C13 1.385 . S
C14 C15 1.395 . S
C14 H37 0.929 . S
C15 C14 1.395 . S
C15 C16 1.335 . S
C16 C15 1.335 . S
C16 C17 1.398 . S
C16 H38 0.930 . S
C17 C12 1.382 . S
C17 C16 1.398 . S
C17 H39 0.929 . S
C18 O28 1.271 1_455 S
C18 O29 1.251 . S
C19 O30 1.252 . S
C19 O31 1.272 . S
O20 Sm0 2.543 . S
O20 C2 1.261 . S
O21 Sm0 2.450 . S
O21 C2 1.242 . S
O22 Sm0 2.681 1_455 S
O22 Sm1 2.386 . S
O22 C9 1.271 1_455 S
O23 Sm0 2.464 . S
O23 C9 1.251 . S
O24 Sm0 2.396 1_455 S
O24 C10 1.252 . S
O25 Sm1 2.408 . S
O25 C10 1.272 . S
O26 Sm1 2.543 . S
O26 C11 1.261 . S
O27 Sm1 2.450 . S
O27 C11 1.242 . S
O28 Sm0 2.386 . S
O28 Sm1 2.681 1_655 S
O28 C18 1.271 1_655 S
O29 Sm1 2.464 . S
O29 C18 1.251 . S
O30 Sm1 2.396 1_655 S
O30 C19 1.252 . S
O31 Sm0 2.408 . S
O31 C19 1.272 . S
H32 C4 0.930 . S
H33 C5 0.929 . S
H34 C7 0.930 . S
H35 C8 0.929 . S
H36 C13 0.930 . S
H37 C14 0.929 . S
H38 C16 0.930 . S
H39 C17 0.929 . S
Sm40 C42 2.846 . S
Sm40 O60 2.543 . S
Sm40 O61 2.450 . S
Sm40 O62 2.681 1_545 S
Sm40 O63 2.464 . S
Sm40 O64 2.396 . S
Sm40 O68 2.386 . S
Sm40 O71 2.408 . S
Sm41 C51 2.846 . S
Sm41 O62 2.386 . S
Sm41 O65 2.408 . S
Sm41 O66 2.543 . S
Sm41 O67 2.450 . S
Sm41 O68 2.681 1_565 S
Sm41 O69 2.464 . S
Sm41 O70 2.396 1_565 S
C42 Sm40 2.846 . S
C42 C43 1.506 . S
C42 O60 1.261 . S
C42 O61 1.242 . S
C43 C42 1.506 . S
C43 C44 1.358 . S
C43 C48 1.382 . S
C44 C43 1.358 . S
C44 C45 1.385 . S
C44 H72 0.930 . S
C45 C44 1.385 . S
C45 C46 1.395 . S
C45 H73 0.929 . S
C46 C45 1.395 . S
C46 C47 1.335 . S
C47 C46 1.335 . S
C47 C48 1.398 . S
C47 H74 0.930 . S
C48 C43 1.382 . S
C48 C47 1.398 . S
C48 H75 0.929 . S
C49 O62 1.271 1_545 S
C49 O63 1.251 . S
C50 O64 1.252 1_565 S
C50 O65 1.272 . S
C51 Sm41 2.846 . S
C51 C52 1.506 . S
C51 O66 1.261 . S
C51 O67 1.242 . S
C52 C51 1.506 . S
C52 C53 1.358 . S
C52 C57 1.382 . S
C53 C52 1.358 . S
C53 C54 1.385 . S
C53 H76 0.930 . S
C54 C53 1.385 . S
C54 C55 1.395 . S
C54 H77 0.929 . S
C55 C54 1.395 . S
C55 C56 1.335 . S
C56 C55 1.335 . S
C56 C57 1.398 . S
C56 H78 0.930 . S
C57 C52 1.382 . S
C57 C56 1.398 . S
C57 H79 0.929 . S
C58 O68 1.271 1_565 S
C58 O69 1.251 . S
C59 O70 1.252 . S
C59 O71 1.272 . S
O60 Sm40 2.543 . S
O60 C42 1.261 . S
O61 Sm40 2.450 . S
O61 C42 1.242 . S
O62 Sm40 2.681 1_565 S
O62 Sm41 2.386 . S
O62 C49 1.271 1_565 S
O63 Sm40 2.464 . S
O63 C49 1.251 . S
O64 Sm40 2.396 . S
O64 C50 1.252 1_545 S
O65 Sm41 2.408 . S
O65 C50 1.272 . S
O66 Sm41 2.543 . S
O66 C51 1.261 . S
O67 Sm41 2.450 . S
O67 C51 1.242 . S
O68 Sm40 2.386 . S
O68 Sm41 2.681 1_545 S
O68 C58 1.271 1_545 S
O69 Sm41 2.464 . S
O69 C58 1.251 . S
O70 Sm41 2.396 1_545 S
O70 C59 1.252 . S
O71 Sm40 2.408 . S
O71 C59 1.272 . S
H72 C44 0.930 . S
H73 C45 0.929 . S
H74 C47 0.930 . S
H75 C48 0.929 . S
H76 C53 0.930 . S
H77 C54 0.929 . S
H78 C56 0.930 . S
H79 C57 0.929 . S
Sm80 C82 2.846 . S
Sm80 O100 2.543 . S
Sm80 O101 2.450 . S
Sm80 O102 2.681 . S
Sm80 O103 2.464 1_565 S
Sm80 O104 2.396 . S
Sm80 O108 2.386 . S
Sm80 O111 2.408 . S
Sm81 C91 2.846 . S
Sm81 O102 2.386 . S
Sm81 O105 2.408 . S
Sm81 O106 2.543 . S
Sm81 O107 2.450 . S
Sm81 O108 2.681 . S
Sm81 O109 2.464 . S
Sm81 O110 2.396 . S
C82 Sm80 2.846 . S
C82 C83 1.506 . S
C82 O100 1.261 . S
C82 O101 1.242 . S
C83 C82 1.506 . S
C83 C84 1.358 . S
C83 C88 1.382 1_565 S
C84 C83 1.358 . S
C84 C85 1.385 . S
C84 H112 0.930 . S
C85 C84 1.385 . S
C85 C86 1.395 . S
C85 H113 0.929 . S
C86 C85 1.395 . S
C86 C87 1.335 1_565 S
C87 C86 1.335 1_545 S
C87 C88 1.398 . S
C87 H114 0.930 . S
C88 C83 1.382 1_545 S
C88 C87 1.398 . S
C88 H115 0.929 . S
C89 O102 1.271 . S
C89 O103 1.251 1_565 S
C90 O104 1.252 . S
C90 O105 1.272 . S
C91 Sm81 2.846 . S
C91 C92 1.506 . S
C91 O106 1.261 . S
C91 O107 1.242 . S
C92 C91 1.506 . S
C92 C93 1.358 . S
C92 C97 1.382 . S
C93 C92 1.358 . S
C93 C94 1.385 . S
C93 H116 0.930 . S
C94 C93 1.385 . S
C94 C95 1.395 . S
C94 H117 0.929 1_655 S
C95 C94 1.395 . S
C95 C96 1.335 . S
C96 C95 1.335 . S
C96 C97 1.398 . S
C96 H118 0.930 . S
C97 C92 1.382 . S
C97 C96 1.398 . S
C97 H119 0.929 . S
C98 O108 1.271 . S
C98 O109 1.251 . S
C99 O110 1.252 . S
C99 O111 1.272 . S
O100 Sm80 2.543 . S
O100 C82 1.261 . S
O101 Sm80 2.450 . S
O101 C82 1.242 . S
O102 Sm80 2.681 . S
O102 Sm81 2.386 . S
O102 C89 1.271 . S
O103 Sm80 2.464 1_545 S
O103 C89 1.251 1_545 S
O104 Sm80 2.396 . S
O104 C90 1.252 . S
O105 Sm81 2.408 . S
O105 C90 1.272 . S
O106 Sm81 2.543 . S
O106 C91 1.261 . S
O107 Sm81 2.450 . S
O107 C91 1.242 . S
O108 Sm80 2.386 . S
O108 Sm81 2.681 . S
O108 C98 1.271 . S
O109 Sm81 2.464 . S
O109 C98 1.251 . S
O110 Sm81 2.396 . S
O110 C99 1.252 . S
O111 Sm80 2.408 . S
O111 C99 1.272 . S
H112 C84 0.930 . S
H113 C85 0.929 . S
H114 C87 0.930 . S
H115 C88 0.929 . S
H116 C93 0.930 . S
H117 C94 0.929 1_455 S
H118 C96 0.930 . S
H119 C97 0.929 . S
H120 C138 0.951 . S
H121 C140 0.951 1_545 S
H122 C142 0.950 . S
H123 C143 0.950 . S
H124 C145 0.950 . S
H125 C148 0.950 . S
H126 C149 0.950 . S
H127 C151 0.950 . S
H128 C152 0.950 . S
H129 C153 0.951 . S
H130 C155 0.951 . S
H131 C157 0.950 . S
H132 C158 0.950 . S
H133 C160 0.950 . S
H134 C163 0.950 . S
H135 C164 0.950 . S
H136 C166 0.950 . S
H137 C167 0.950 . S
C138 H120 0.951 . S
C138 C139 1.366 . S
C138 C140 1.388 . S
C139 C138 1.366 . S
C139 C143 1.385 1_455 S
C140 H121 0.951 1_565 S
C140 C138 1.388 . S
C140 C141 1.366 . S
C141 C140 1.366 . S
C141 C142 1.414 1_455 S
C141 C144 1.499 1_565 S
C142 H122 0.950 . S
C142 C141 1.414 1_655 S
C142 C143 1.374 . S
C143 H123 0.950 . S
C143 C139 1.385 1_655 S
C143 C142 1.374 . S
C144 C141 1.499 1_545 S
C144 C145 1.373 1_455 S
C144 C146 1.389 . S
C145 H124 0.950 . S
C145 C144 1.373 1_655 S
C145 C161 1.377 . S
C146 C144 1.389 . S
C146 C147 1.524 . S
C146 C160 1.377 . S
C147 C146 1.524 . S
C147 C148 1.397 . S
C147 C152 1.363 . S
C148 H125 0.950 . S
C148 C147 1.397 . S
C148 C149 1.334 . S
C149 H126 0.950 . S
C149 C148 1.334 . S
C149 C150 1.287 . S
C150 C149 1.287 . S
C150 C151 1.524 . S
C150 H169 0.913 . S
C151 H127 0.950 . S
C151 C150 1.524 . S
C151 C152 1.415 . S
C152 H128 0.950 . S
C152 C147 1.363 . S
C152 C151 1.415 . S
C153 H129 0.951 . S
C153 C154 1.366 . S
C153 C155 1.388 . S
C154 C153 1.366 . S
C154 C158 1.385 1_655 S
C155 H130 0.951 . S
C155 C153 1.388 . S
C155 C156 1.366 . S
C156 C155 1.366 . S
C156 C157 1.414 1_655 S
C156 C159 1.499 . S
C157 H131 0.950 . S
C157 C156 1.414 1_455 S
C157 C158 1.374 . S
C158 H132 0.950 . S
C158 C154 1.385 1_455 S
C158 C157 1.374 . S
C159 C156 1.499 . S
C159 C160 1.373 1_655 S
C159 C161 1.389 . S
C160 H133 0.950 . S
C160 C146 1.377 . S
C160 C159 1.373 1_455 S
C161 C145 1.377 . S
C161 C159 1.389 . S
C161 C162 1.524 . S
C162 C161 1.524 . S
C162 C163 1.397 . S
C162 C167 1.363 . S
C163 H134 0.950 . S
C163 C162 1.397 . S
C163 C164 1.334 . S
C164 H135 0.950 . S
C164 C163 1.334 . S
C164 C165 1.287 . S
C165 C164 1.287 . S
C165 C166 1.524 . S
C165 H168 0.999 . S
C166 H136 0.950 . S
C166 C165 1.524 . S
C166 C167 1.415 . S
C167 H137 0.950 . S
C167 C162 1.363 . S
C167 C166 1.415 . S
H168 C165 0.999 . S
H169 C150 0.913 . S
H170 C188 0.951 . S
H171 C190 0.951 . S
H172 C192 0.950 . S
H173 C193 0.950 . S
H174 C195 0.950 . S
H175 C198 0.950 . S
H176 C199 0.950 . S
H177 C201 0.950 . S
H178 C202 0.950 . S
H179 C203 0.951 . S
H180 C205 0.951 . S
H181 C207 0.950 . S
H182 C208 0.950 . S
H183 C210 0.950 . S
H184 C213 0.950 . S
H185 C214 0.950 . S
H186 C216 0.950 . S
H187 C217 0.950 . S
C188 H170 0.951 . S
C188 C189 1.366 . S
C188 C190 1.388 . S
C189 C188 1.366 . S
C189 C193 1.385 1_545 S
C190 H171 0.951 . S
C190 C188 1.388 . S
C190 C191 1.366 . S
C191 C190 1.366 . S
C191 C192 1.414 1_545 S
C191 C194 1.499 . S
C192 H172 0.950 . S
C192 C191 1.414 1_565 S
C192 C193 1.374 . S
C193 H173 0.950 . S
C193 C189 1.385 1_565 S
C193 C192 1.374 . S
C194 C191 1.499 . S
C194 C195 1.373 1_545 S
C194 C196 1.389 . S
C195 H174 0.950 . S
C195 C194 1.373 1_565 S
C195 C211 1.377 . S
C196 C194 1.389 . S
C196 C197 1.524 . S
C196 C210 1.377 . S
C197 C196 1.524 . S
C197 C198 1.397 . S
C197 C202 1.363 . S
C198 H175 0.950 . S
C198 C197 1.397 . S
C198 C199 1.334 . S
C199 H176 0.950 . S
C199 C198 1.334 . S
C199 C200 1.287 . S
C200 C199 1.287 . S
C200 C201 1.524 . S
C200 H219 0.913 . S
C201 H177 0.950 . S
C201 C200 1.524 . S
C201 C202 1.415 . S
C202 H178 0.950 . S
C202 C197 1.363 . S
C202 C201 1.415 . S
C203 H179 0.951 . S
C203 C204 1.366 1_565 S
C203 C205 1.388 . S
C204 C203 1.366 1_545 S
C204 C208 1.385 . S
C205 H180 0.951 . S
C205 C203 1.388 . S
C205 C206 1.366 1_665 S
C206 C205 1.366 1_445 S
C206 C207 1.414 . S
C206 C209 1.499 . S
C207 H181 0.950 . S
C207 C206 1.414 . S
C207 C208 1.374 1_455 S
C208 H182 0.950 . S
C208 C204 1.385 . S
C208 C207 1.374 1_655 S
C209 C206 1.499 . S
C209 C210 1.373 . S
C209 C211 1.389 1_545 S
C210 H183 0.950 . S
C210 C196 1.377 . S
C210 C209 1.373 . S
C211 C195 1.377 . S
C211 C209 1.389 1_565 S
C211 C212 1.524 . S
C212 C211 1.524 . S
C212 C213 1.397 1_455 S
C212 C217 1.363 . S
C213 H184 0.950 . S
C213 C212 1.397 1_655 S
C213 C214 1.334 . S
C214 H185 0.950 . S
C214 C213 1.334 . S
C214 C215 1.287 . S
C215 C214 1.287 . S
C215 C216 1.524 . S
C215 H218 0.999 . S
C216 H186 0.950 . S
C216 C215 1.524 . S
C216 C217 1.415 1_655 S
C217 H187 0.950 . S
C217 C212 1.363 . S
C217 C216 1.415 1_455 S
H218 C215 0.999 . S
H219 C200 0.913 . S
H220 C238 0.951 1_655 S
H221 C240 0.951 . S
H222 C242 0.950 . S
H223 C243 0.950 1_565 S
H224 C245 0.950 . S
H225 C248 0.950 . S
H226 C249 0.950 1_655 S
H227 C251 0.950 . S
H228 C252 0.950 . S
H229 C253 0.951 . S
H230 C255 0.951 . S
H231 C257 0.950 . S
H232 C258 0.950 . S
H233 C260 0.950 . S
H234 C263 0.950 . S
H235 C264 0.950 . S
H236 C266 0.950 . S
H237 C267 0.950 . S
C238 H220 0.951 1_455 S
C238 C239 1.366 1_455 S
C238 C240 1.388 . S
C239 C238 1.366 1_655 S
C239 C243 1.385 1_655 S
C240 H221 0.951 . S
C240 C238 1.388 . S
C240 C241 1.366 . S
C241 C240 1.366 . S
C241 C242 1.414 . S
C241 C244 1.499 . S
C242 H222 0.950 . S
C242 C241 1.414 . S
C242 C243 1.374 . S
C243 H223 0.950 1_545 S
C243 C239 1.385 1_455 S
C243 C242 1.374 . S
C244 C241 1.499 . S
C244 C245 1.373 . S
C244 C246 1.389 . S
C245 H224 0.950 . S
C245 C244 1.373 . S
C245 C261 1.377 . S
C246 C244 1.389 . S
C246 C247 1.524 . S
C246 C260 1.377 . S
C247 C246 1.524 . S
C247 C248 1.397 . S
C247 C252 1.363 . S
C248 H225 0.950 . S
C248 C247 1.397 . S
C248 C249 1.334 . S
C249 H226 0.950 1_455 S
C249 C248 1.334 . S
C249 C250 1.287 . S
C250 C249 1.287 . S
C250 C251 1.524 . S
C250 H269 0.913 1_455 S
C251 H227 0.950 . S
C251 C250 1.524 . S
C251 C252 1.415 . S
C252 H228 0.950 . S
C252 C247 1.363 . S
C252 C251 1.415 . S
C253 H229 0.951 . S
C253 C254 1.366 . S
C253 C255 1.388 . S
C254 C253 1.366 . S
C254 C258 1.385 . S
C255 H230 0.951 . S
C255 C253 1.388 . S
C255 C256 1.366 . S
C256 C255 1.366 . S
C256 C257 1.414 . S
C256 C259 1.499 . S
C257 H231 0.950 . S
C257 C256 1.414 . S
C257 C258 1.374 . S
C258 H232 0.950 . S
C258 C254 1.385 . S
C258 C257 1.374 . S
C259 C256 1.499 . S
C259 C260 1.373 . S
C259 C261 1.389 . S
C260 H233 0.950 . S
C260 C246 1.377 . S
C260 C259 1.373 . S
C261 C245 1.377 . S
C261 C259 1.389 . S
C261 C262 1.524 . S
C262 C261 1.524 . S
C262 C263 1.397 . S
C262 C267 1.363 . S
C263 H234 0.950 . S
C263 C262 1.397 . S
C263 C264 1.334 . S
C264 H235 0.950 . S
C264 C263 1.334 . S
C264 C265 1.287 . S
C265 C264 1.287 . S
C265 C266 1.524 . S
C265 H268 0.999 . S
C266 H236 0.950 . S
C266 C265 1.524 . S
C266 C267 1.415 . S
C267 H237 0.950 . S
C267 C262 1.363 . S
C267 C266 1.415 . S
H268 C265 0.999 . S
H269 C250 0.913 1_655 S
H270 C288 0.951 . S
H271 C290 0.951 . S
H272 C292 0.950 . S
H273 C293 0.950 . S
H274 C295 0.950 1_545 S
H275 C298 0.950 . S
H276 C299 0.950 . S
H277 C301 0.950 . S
H278 C302 0.950 . S
H279 C303 0.951 . S
H280 C305 0.951 1_556 S
H281 C307 0.950 . S
H282 C308 0.950 . S
H283 C310 0.950 . S
H284 C313 0.950 1_554 S
H285 C314 0.950 1_554 S
H286 C316 0.950 . S
H287 C317 0.950 . S
C288 H270 0.951 . S
C288 C289 1.366 . S
C288 C290 1.388 . S
C289 C288 1.366 . S
C289 C293 1.385 . S
C290 H271 0.951 . S
C290 C288 1.388 . S
C290 C291 1.366 . S
C291 C290 1.366 . S
C291 C292 1.414 . S
C291 C294 1.499 . S
C292 H272 0.950 . S
C292 C291 1.414 . S
C292 C293 1.374 . S
C293 H273 0.950 . S
C293 C289 1.385 . S
C293 C292 1.374 . S
C294 C291 1.499 . S
C294 C295 1.373 . S
C294 C296 1.389 . S
C295 H274 0.950 1_565 S
C295 C294 1.373 . S
C295 C311 1.377 . S
C296 C294 1.389 . S
C296 C297 1.524 . S
C296 C310 1.377 1_556 S
C297 C296 1.524 . S
C297 C298 1.397 . S
C297 C302 1.363 1_556 S
C298 H275 0.950 . S
C298 C297 1.397 . S
C298 C299 1.334 . S
C299 H276 0.950 . S
C299 C298 1.334 . S
C299 C300 1.287 . S
C300 C299 1.287 . S
C300 C301 1.524 1_556 S
C300 H319 0.913 . S
C301 H277 0.950 . S
C301 C300 1.524 1_554 S
C301 C302 1.415 . S
C302 H278 0.950 . S
C302 C297 1.363 1_554 S
C302 C301 1.415 . S
C303 H279 0.951 . S
C303 C304 1.366 . S
C303 C305 1.388 . S
C304 C303 1.366 . S
C304 C308 1.385 . S
C305 H280 0.951 1_554 S
C305 C303 1.388 . S
C305 C306 1.366 . S
C306 C305 1.366 . S
C306 C307 1.414 . S
C306 C309 1.497 . S
C307 H281 0.950 . S
C307 C306 1.414 . S
C307 C308 1.374 . S
C308 H282 0.950 . S
C308 C304 1.385 . S
C308 C307 1.374 . S
C309 C306 1.497 . S
C309 C310 1.374 . S
C309 C311 1.390 1_554 S
C310 H283 0.950 . S
C310 C296 1.377 1_554 S
C310 C309 1.374 . S
C311 C295 1.377 . S
C311 C309 1.390 1_556 S
C311 C312 1.524 1_565 S
C312 C311 1.524 1_545 S
C312 C313 1.397 . S
C312 C317 1.363 . S
C313 H284 0.950 1_556 S
C313 C312 1.397 . S
C313 C314 1.334 . S
C314 H285 0.950 1_556 S
C314 C313 1.334 . S
C314 C315 1.287 . S
C315 C314 1.287 . S
C315 C316 1.524 . S
C315 H318 0.999 . S
C316 H286 0.950 . S
C316 C315 1.524 . S
C316 C317 1.415 . S
C317 H287 0.950 . S
C317 C312 1.363 . S
C317 C316 1.415 . S
H318 C315 0.999 . S
H319 C300 0.913 . S
H320 C338 0.951 . S
H321 C340 0.951 . S
H322 C342 0.950 . S
H323 C343 0.950 . S
H324 C345 0.950 . S
H325 C348 0.950 . S
H326 C349 0.950 . S
H327 C351 0.950 . S
H328 C352 0.950 . S
H329 C353 0.951 . S
H330 C355 0.951 . S
H331 C357 0.950 . S
H332 C358 0.950 . S
H333 C360 0.950 . S
H334 C363 0.950 . S
H335 C364 0.950 . S
H336 C366 0.950 . S
H337 C367 0.950 . S
C338 H320 0.951 . S
C338 C339 1.366 . S
C338 C340 1.388 . S
C339 C338 1.366 . S
C339 C343 1.385 . S
C340 H321 0.951 . S
C340 C338 1.388 . S
C340 C341 1.366 . S
C341 C340 1.366 . S
C341 C342 1.414 . S
C341 C344 1.499 . S
C342 H322 0.950 . S
C342 C341 1.414 . S
C342 C343 1.374 . S
C343 H323 0.950 . S
C343 C339 1.385 . S
C343 C342 1.374 . S
C344 C341 1.499 . S
C344 C345 1.373 . S
C344 C346 1.389 . S
C345 H324 0.950 . S
C345 C344 1.373 . S
C345 C361 1.377 . S
C346 C344 1.389 . S
C346 C347 1.524 . S
C346 C360 1.377 . S
C347 C346 1.524 . S
C347 C348 1.397 . S
C347 C352 1.363 . S
C348 H325 0.950 . S
C348 C347 1.397 . S
C348 C349 1.334 . S
C349 H326 0.950 . S
C349 C348 1.334 . S
C349 C350 1.287 . S
C350 C349 1.287 . S
C350 C351 1.524 . S
C350 H369 0.913 1_655 S
C351 H327 0.950 . S
C351 C350 1.524 . S
C351 C352 1.415 . S
C352 H328 0.950 . S
C352 C347 1.363 . S
C352 C351 1.415 . S
C353 H329 0.951 . S
C353 C354 1.366 . S
C353 C355 1.388 . S
C354 C353 1.366 . S
C354 C358 1.385 . S
C355 H330 0.951 . S
C355 C353 1.388 . S
C355 C356 1.366 . S
C356 C355 1.366 . S
C356 C357 1.414 . S
C356 C359 1.499 . S
C357 H331 0.950 . S
C357 C356 1.414 . S
C357 C358 1.374 . S
C358 H332 0.950 . S
C358 C354 1.385 . S
C358 C357 1.374 . S
C359 C356 1.499 . S
C359 C360 1.373 . S
C359 C361 1.389 . S
C360 H333 0.950 . S
C360 C346 1.377 . S
C360 C359 1.373 . S
C361 C345 1.377 . S
C361 C359 1.389 . S
C361 C362 1.524 . S
C362 C361 1.524 . S
C362 C363 1.397 . S
C362 C367 1.363 . S
C363 H334 0.950 . S
C363 C362 1.397 . S
C363 C364 1.334 . S
C364 H335 0.950 . S
C364 C363 1.334 . S
C364 C365 1.287 . S
C365 C364 1.287 . S
C365 C366 1.524 . S
C365 H368 0.999 . S
C366 H336 0.950 . S
C366 C365 1.524 . S
C366 C367 1.415 . S
C367 H337 0.950 . S
C367 C362 1.363 . S
C367 C366 1.415 . S
H368 C365 0.999 . S
H369 C350 0.913 1_455 S
H370 C388 0.951 . S
H371 C390 0.951 . S
H372 C392 0.950 . S
H373 C393 0.950 . S
H374 C395 0.950 . S
H375 C398 0.950 . S
H376 C399 0.950 . S
H377 C401 0.950 . S
H378 C402 0.950 . S
H379 C403 0.951 . S
H380 C405 0.951 . S
H381 C407 0.950 . S
H382 C408 0.950 . S
H383 C410 0.950 1_545 S
H384 C413 0.950 . S
H385 C414 0.950 . S
H386 C416 0.950 . S
H387 C417 0.950 . S
C388 H370 0.951 . S
C388 C389 1.366 . S
C388 C390 1.388 . S
C389 C388 1.366 . S
C389 C393 1.385 . S
C390 H371 0.951 . S
C390 C388 1.388 . S
C390 C391 1.366 . S
C391 C390 1.366 . S
C391 C392 1.414 . S
C391 C394 1.499 . S
C392 H372 0.950 . S
C392 C391 1.414 . S
C392 C393 1.374 . S
C393 H373 0.950 . S
C393 C389 1.385 . S
C393 C392 1.374 . S
C394 C391 1.499 . S
C394 C395 1.373 . S
C394 C396 1.389 . S
C395 H374 0.950 . S
C395 C394 1.373 . S
C395 C411 1.377 . S
C396 C394 1.389 . S
C396 C397 1.524 1_565 S
C396 C410 1.377 . S
C397 C396 1.524 1_545 S
C397 C398 1.397 . S
C397 C402 1.363 . S
C398 H375 0.950 . S
C398 C397 1.397 . S
C398 C399 1.334 . S
C399 H376 0.950 . S
C399 C398 1.334 . S
C399 C400 1.287 . S
C400 C399 1.287 . S
C400 C401 1.524 . S
C400 H419 0.913 . S
C401 H377 0.950 . S
C401 C400 1.524 . S
C401 C402 1.415 . S
C402 H378 0.950 . S
C402 C397 1.363 . S
C402 C401 1.415 . S
C403 H379 0.951 . S
C403 C404 1.366 . S
C403 C405 1.388 . S
C404 C403 1.366 . S
C404 C408 1.385 . S
C405 H380 0.951 . S
C405 C403 1.388 . S
C405 C406 1.366 . S
C406 C405 1.366 . S
C406 C407 1.414 . S
C406 C409 1.499 . S
C407 H381 0.950 . S
C407 C406 1.414 . S
C407 C408 1.374 . S
C408 H382 0.950 . S
C408 C404 1.385 . S
C408 C407 1.374 . S
C409 C406 1.499 . S
C409 C410 1.373 . S
C409 C411 1.389 . S
C410 H383 0.950 1_565 S
C410 C396 1.377 . S
C410 C409 1.373 . S
C411 C395 1.377 . S
C411 C409 1.389 . S
C411 C412 1.524 . S
C412 C411 1.524 . S
C412 C413 1.397 . S
C412 C417 1.363 . S
C413 H384 0.950 . S
C413 C412 1.397 . S
C413 C414 1.334 . S
C414 H385 0.950 . S
C414 C413 1.334 . S
C414 C415 1.287 . S
C415 C414 1.287 . S
C415 C416 1.524 . S
C415 H418 0.999 . S
C416 H386 0.950 . S
C416 C415 1.524 . S
C416 C417 1.415 . S
C417 H387 0.950 . S
C417 C412 1.363 . S
C417 C416 1.415 . S
H418 C415 0.999 . S
H419 C400 0.913 . S
H420 C438 0.951 . S
H421 C440 0.951 . S
H422 C442 0.950 . S
H423 C443 0.950 . S
H424 C445 0.950 . S
H425 C448 0.950 . S
H426 C449 0.950 . S
H427 C451 0.950 . S
H428 C452 0.950 . S
H429 C453 0.951 . S
H430 C455 0.951 . S
H431 C457 0.950 . S
H432 C458 0.950 . S
H433 C460 0.950 . S
H434 C463 0.950 . S
H435 C464 0.950 . S
H436 C466 0.950 . S
H437 C467 0.950 . S
C438 H420 0.951 . S
C438 C439 1.366 . S
C438 C440 1.388 . S
C439 C438 1.366 . S
C439 C443 1.385 . S
C440 H421 0.951 . S
C440 C438 1.388 . S
C440 C441 1.366 . S
C441 C440 1.366 . S
C441 C442 1.414 . S
C441 C444 1.499 . S
C442 H422 0.950 . S
C442 C441 1.414 . S
C442 C443 1.374 . S
C443 H423 0.950 . S
C443 C439 1.385 . S
C443 C442 1.374 . S
C444 C441 1.499 . S
C444 C445 1.373 . S
C444 C446 1.389 . S
C445 H424 0.950 . S
C445 C444 1.373 . S
C445 C461 1.377 1_556 S
C446 C444 1.389 . S
C446 C447 1.524 . S
C446 C460 1.377 1_556 S
C447 C446 1.524 . S
C447 C448 1.397 . S
C447 C452 1.363 . S
C448 H425 0.950 . S
C448 C447 1.397 . S
C448 C449 1.334 . S
C449 H426 0.950 . S
C449 C448 1.334 . S
C449 C450 1.287 . S
C450 C449 1.287 . S
C450 C451 1.524 . S
C450 H469 0.913 . S
C451 H427 0.950 . S
C451 C450 1.524 . S
C451 C452 1.415 . S
C452 H428 0.950 . S
C452 C447 1.363 . S
C452 C451 1.415 . S
C453 H429 0.951 . S
C453 C454 1.366 . S
C453 C455 1.388 . S
C454 C453 1.366 . S
C454 C458 1.385 . S
C455 H430 0.951 . S
C455 C453 1.388 . S
C455 C456 1.366 . S
C456 C455 1.366 . S
C456 C457 1.414 . S
C456 C459 1.499 . S
C457 H431 0.950 . S
C457 C456 1.414 . S
C457 C458 1.374 . S
C458 H432 0.950 . S
C458 C454 1.385 . S
C458 C457 1.374 . S
C459 C456 1.499 . S
C459 C460 1.373 . S
C459 C461 1.389 . S
C460 H433 0.950 . S
C460 C446 1.377 1_554 S
C460 C459 1.373 . S
C461 C445 1.377 1_554 S
C461 C459 1.389 . S
C461 C462 1.524 1_655 S
C462 C461 1.524 1_455 S
C462 C463 1.397 . S
C462 C467 1.363 . S
C463 H434 0.950 . S
C463 C462 1.397 . S
C463 C464 1.334 . S
C464 H435 0.950 . S
C464 C463 1.334 . S
C464 C465 1.287 . S
C465 C464 1.287 . S
C465 C466 1.524 . S
C465 H468 0.999 . S
C466 H436 0.950 . S
C466 C465 1.524 . S
C466 C467 1.415 . S
C467 H437 0.950 . S
C467 C462 1.363 . S
C467 C466 1.415 . S
H468 C465 0.999 . S
H469 C450 0.913 . S
H470 C488 0.951 . S
H471 C490 0.951 . S
H472 C492 0.950 . S
H473 C493 0.950 . S
H474 C495 0.950 . S
H475 C498 0.950 . S
H476 C499 0.950 . S
H477 C501 0.950 . S
H478 C502 0.950 . S
H479 C503 0.951 . S
H480 C505 0.951 . S
H481 C507 0.950 . S
H482 C508 0.950 . S
H483 C510 0.950 . S
H484 C513 0.950 . S
H485 C514 0.950 . S
H486 C516 0.950 . S
H487 C517 0.950 . S
C488 H470 0.951 . S
C488 C489 1.366 . S
C488 C490 1.388 . S
C489 C488 1.366 . S
C489 C493 1.385 . S
C490 H471 0.951 . S
C490 C488 1.388 . S
C490 C491 1.366 . S
C491 C490 1.366 . S
C491 C492 1.414 . S
C491 C494 1.499 . S
C492 H472 0.950 . S
C492 C491 1.414 . S
C492 C493 1.374 . S
C493 H473 0.950 . S
C493 C489 1.385 . S
C493 C492 1.374 . S
C494 C491 1.499 . S
C494 C495 1.373 . S
C494 C496 1.389 . S
C495 H474 0.950 . S
C495 C494 1.373 . S
C495 C511 1.377 . S
C496 C494 1.389 . S
C496 C497 1.524 . S
C496 C510 1.377 . S
C497 C496 1.524 . S
C497 C498 1.397 . S
C497 C502 1.363 . S
C498 H475 0.950 . S
C498 C497 1.397 . S
C498 C499 1.334 . S
C499 H476 0.950 . S
C499 C498 1.334 . S
C499 C500 1.287 . S
C500 C499 1.287 . S
C500 C501 1.524 . S
C500 H519 0.913 . S
C501 H477 0.950 . S
C501 C500 1.524 . S
C501 C502 1.415 . S
C502 H478 0.950 . S
C502 C497 1.363 . S
C502 C501 1.415 . S
C503 H479 0.951 . S
C503 C504 1.366 . S
C503 C505 1.388 . S
C504 C503 1.366 . S
C504 C508 1.385 . S
C505 H480 0.951 . S
C505 C503 1.388 . S
C505 C506 1.366 . S
C506 C505 1.366 . S
C506 C507 1.414 . S
C506 C509 1.499 . S
C507 H481 0.950 . S
C507 C506 1.414 . S
C507 C508 1.374 . S
C508 H482 0.950 . S
C508 C504 1.385 . S
C508 C507 1.374 . S
C509 C506 1.499 . S
C509 C510 1.373 . S
C509 C511 1.389 . S
C510 H483 0.950 . S
C510 C496 1.377 . S
C510 C509 1.373 . S
C511 C495 1.377 . S
C511 C509 1.389 . S
C511 C512 1.524 . S
C512 C511 1.524 . S
C512 C513 1.397 . S
C512 C517 1.363 . S
C513 H484 0.950 . S
C513 C512 1.397 . S
C513 C514 1.334 . S
C514 H485 0.950 . S
C514 C513 1.334 . S
C514 C515 1.279 1_565 S
C515 C514 1.279 1_545 S
C515 C516 1.525 1_545 S
C515 H518 1.007 . S
C516 H486 0.950 . S
C516 C515 1.525 1_565 S
C516 C517 1.415 . S
C517 H487 0.950 . S
C517 C512 1.363 . S
C517 C516 1.415 . S
H518 C515 1.007 . S
H519 C500 0.913 . S
H520 C538 0.951 1_455 S
H521 C540 0.951 1_455 S
H522 C542 0.950 . S
H523 C543 0.950 . S
H524 C545 0.950 . S
H525 C548 0.950 . S
H526 C549 0.950 . S
H527 C551 0.950 . S
H528 C552 0.950 . S
H529 C553 0.951 . S
H530 C555 0.951 . S
H531 C557 0.950 . S
H532 C558 0.950 . S
H533 C560 0.950 1_455 S
H534 C563 0.950 . S
H535 C564 0.950 . S
H536 C566 0.950 . S
H537 C567 0.950 . S
C538 H520 0.951 1_655 S
C538 C539 1.366 . S
C538 C540 1.388 . S
C539 C538 1.366 . S
C539 C543 1.385 . S
C540 H521 0.951 1_655 S
C540 C538 1.388 . S
C540 C541 1.366 . S
C541 C540 1.366 . S
C541 C542 1.414 . S
C541 C544 1.499 . S
C542 H522 0.950 . S
C542 C541 1.414 . S
C542 C543 1.374 . S
C543 H523 0.950 . S
C543 C539 1.385 . S
C543 C542 1.374 . S
C544 C541 1.499 . S
C544 C545 1.373 . S
C544 C546 1.389 . S
C545 H524 0.950 . S
C545 C544 1.373 . S
C545 C561 1.377 . S
C546 C544 1.389 . S
C546 C547 1.524 1_655 S
C546 C560 1.377 . S
C547 C546 1.524 1_455 S
C547 C548 1.397 . S
C547 C552 1.363 . S
C548 H525 0.950 . S
C548 C547 1.397 . S
C548 C549 1.334 . S
C549 H526 0.950 . S
C549 C548 1.334 . S
C549 C550 1.287 . S
C550 C549 1.287 . S
C550 C551 1.524 . S
C550 H569 0.913 . S
C551 H527 0.950 . S
C551 C550 1.524 . S
C551 C552 1.415 . S
C552 H528 0.950 . S
C552 C547 1.363 . S
C552 C551 1.415 . S
C553 H529 0.951 . S
C553 C554 1.366 . S
C553 C555 1.388 . S
C554 C553 1.366 . S
C554 C558 1.385 . S
C555 H530 0.951 . S
C555 C553 1.388 . S
C555 C556 1.366 . S
C556 C555 1.366 . S
C556 C557 1.414 . S
C556 C559 1.499 . S
C557 H531 0.950 . S
C557 C556 1.414 . S
C557 C558 1.374 . S
C558 H532 0.950 . S
C558 C554 1.385 . S
C558 C557 1.374 . S
C559 C556 1.499 . S
C559 C560 1.373 . S
C559 C561 1.389 . S
C560 H533 0.950 1_655 S
C560 C546 1.377 . S
C560 C559 1.373 . S
C561 C545 1.377 . S
C561 C559 1.389 . S
C561 C562 1.524 . S
C562 C561 1.524 . S
C562 C563 1.397 . S
C562 C567 1.363 . S
C563 H534 0.950 . S
C563 C562 1.397 . S
C563 C564 1.334 . S
C564 H535 0.950 . S
C564 C563 1.334 . S
C564 C565 1.287 . S
C565 C564 1.287 . S
C565 C566 1.524 . S
C565 H568 0.999 . S
C566 H536 0.950 . S
C566 C565 1.524 . S
C566 C567 1.415 . S
C567 H537 0.950 . S
C567 C562 1.363 . S
C567 C566 1.415 . S
H568 C565 0.999 . S
H569 C550 0.913 . S
C139 C9 1.313 1_455 S
C154 C18 1.313 1_655 S
C189 C58 1.391 1_545 S
C204 C49 1.391 . S
C239 C89 1.171 1_545 S
C254 C98 1.171 . S
C289 C86 0.905 . S
C304 C15 0.902 . S
C339 C59 1.808 . S
C354 C6 1.782 . S
C389 C99 2.270 . S
C404 C50 2.265 . S
C439 C90 2.197 . S
C454 C19 2.176 . S
C489 C10 1.490 . S
C504 C55 1.444 . S
C539 C95 0.894 . S
C554 C46 0.902 . S
