# Generated by pormake.
# Topology utp, (3)-cn, num edge types: 1
# Building blocks:
#     Node 0, Type 0, BuildingBlock: WUSLED_clean_sbu_0, # of connection points: 3
#     Node 1, Type 0, BuildingBlock: WUSLED_clean_sbu_0, # of connection points: 3
#     Node 2, Type 0, BuildingBlock: WUSLED_clean_sbu_0, # of connection points: 3
#     Node 3, Type 0, BuildingBlock: WUSLED_clean_sbu_0, # of connection points: 3
#     Node 4, Type 0, BuildingBlock: WUSLED_clean_sbu_0, # of connection points: 3
#     Node 5, Type 0, BuildingBlock: WUSLED_clean_sbu_0, # of connection points: 3
#     Node 6, Type 0, BuildingBlock: WUSLED_clean_sbu_0, # of connection points: 3
#     Node 7, Type 0, BuildingBlock: WUSLED_clean_sbu_0, # of connection points: 3
#     Edge 8, Type (0, 0), BuildingBlock: MIFKUJ_clean_linker_0, # of connection points: 2
#     Edge 9, Type (0, 0), BuildingBlock: MIFKUJ_clean_linker_0, # of connection points: 2
#     Edge 10, Type (0, 0), BuildingBlock: MIFKUJ_clean_linker_0, # of connection points: 2
#     Edge 11, Type (0, 0), BuildingBlock: MIFKUJ_clean_linker_0, # of connection points: 2
#     Edge 12, Type (0, 0), BuildingBlock: MIFKUJ_clean_linker_0, # of connection points: 2
#     Edge 13, Type (0, 0), BuildingBlock: MIFKUJ_clean_linker_0, # of connection points: 2
#     Edge 14, Type (0, 0), BuildingBlock: MIFKUJ_clean_linker_0, # of connection points: 2
#     Edge 15, Type (0, 0), BuildingBlock: MIFKUJ_clean_linker_0, # of connection points: 2
#     Edge 16, Type (0, 0), BuildingBlock: MIFKUJ_clean_linker_0, # of connection points: 2
#     Edge 17, Type (0, 0), BuildingBlock: MIFKUJ_clean_linker_0, # of connection points: 2
#     Edge 18, Type (0, 0), BuildingBlock: MIFKUJ_clean_linker_0, # of connection points: 2
#     Edge 19, Type (0, 0), BuildingBlock: MIFKUJ_clean_linker_0, # of connection points: 2
# Relax obj value: 0.000
# Max RMSD: 0.004
# Mean RMSD: 0.004
data_MOF--net-utp--node1-WUSLED_clean_sbu_0--edge1-MIFKUJ_clean_linker_0
_symmetry_space_group_name_H-M    P1
_symmetry_Int_Tables_number       1
_symmetry_cell_setting            triclinic
loop_
_symmetry_equiv_pos_as_xyz
'x, y, z'
_cell_length_a     92.9411
_cell_length_b     81.434931
_cell_length_c     22.598012
_cell_angle_alpha  90.234933
_cell_angle_beta   89.900122
_cell_angle_gamma 89.814045
loop_
_atom_site_label
_atom_site_type_symbol
_atom_site_fract_x
_atom_site_fract_y
_atom_site_fract_z
_atom_type_partial_charge
C0 C 0.10182 0.09477 0.07723 0.0
C1 C 0.10374 0.07773 0.08227 0.0
C2 C 0.07925 0.07308 0.04705 0.0
C3 C 0.09254 0.06698 0.06747 0.0
C4 C 0.0775 0.09018 0.04148 0.0
C5 C 0.08866 0.10089 0.05648 0.0
U6 U 0.14121 0.10539 0.11154 0.0
O7 O 0.15366 0.12738 0.0884 0.0
O8 O 0.15007 0.12125 0.18177 0.0
C9 C 0.15517 0.13197 0.14391 0.0
C10 C 0.11325 0.10638 0.09421 0.0
C11 C 0.15231 0.14943 0.15764 0.0
C12 C 0.13968 0.17526 0.14082 0.0
C13 C 0.14152 0.15846 0.12871 0.0
C14 C 0.15914 0.17405 0.21181 0.0
C15 C 0.1486 0.18332 0.18205 0.0
C16 C 0.16097 0.15733 0.19962 0.0
C17 C 0.17026 0.07146 0.10221 0.0
C18 C 0.19601 0.07413 0.0847 0.0
C19 C 0.18661 0.04923 0.12807 0.0
C20 C 0.17268 0.05575 0.1254 0.0
C21 C 0.19845 0.05827 0.1073 0.0
C22 C 0.18206 0.08069 0.08239 0.0
C23 C 0.15531 0.0776 0.09743 0.0
O24 O 0.11914 0.10399 0.14634 0.0
O25 O 0.1227 0.10985 0.05282 0.0
O26 O 0.15261 0.08782 0.0539 0.0
O27 O 0.14902 0.08183 0.14736 0.0
H28 H 0.11386 0.07275 0.09791 0.0
H29 H 0.09433 0.05388 0.07162 0.0
H30 H 0.06738 0.09533 0.02665 0.0
H31 H 0.08697 0.11401 0.05239 0.0
H32 H 0.13152 0.18201 0.11684 0.0
H33 H 0.13467 0.1526 0.09622 0.0
H34 H 0.166 0.17971 0.24471 0.0
H35 H 0.1693 0.15058 0.22268 0.0
H36 H 0.2049 0.0815 0.06899 0.0
H37 H 0.18806 0.03692 0.14508 0.0
H38 H 0.16374 0.04839 0.14076 0.0
H39 H 0.1805 0.0929 0.06462 0.0
C40 C 0.43557 0.9452 0.0789 0.0
C41 C 0.43424 0.96209 0.09064 0.0
C42 C 0.45825 0.96689 0.05033 0.0
C43 C 0.4455 0.97283 0.07671 0.0
C44 C 0.45942 0.94998 0.03806 0.0
C45 C 0.4482 0.93926 0.0523 0.0
U46 U 0.39594 0.93467 0.1077 0.0
O47 O 0.38359 0.91278 0.08193 0.0
O48 O 0.38629 0.91888 0.17591 0.0
C49 C 0.38139 0.90826 0.13697 0.0
C50 C 0.42404 0.93355 0.09446 0.0
C51 C 0.38398 0.89079 0.15015 0.0
C52 C 0.39945 0.86661 0.15381 0.0
C53 C 0.39752 0.88341 0.14211 0.0
C54 C 0.37438 0.86456 0.18213 0.0
C55 C 0.38785 0.85695 0.17351 0.0
C56 C 0.37249 0.88127 0.17052 0.0
C57 C 0.36741 0.9689 0.09232 0.0
C58 C 0.34212 0.96629 0.11881 0.0
C59 C 0.35051 0.99081 0.06945 0.0
C60 C 0.36448 0.98439 0.06831 0.0
C61 C 0.33913 0.98187 0.0947 0.0
C62 C 0.35614 0.95984 0.11749 0.0
C63 C 0.38229 0.9626 0.09069 0.0
O64 O 0.41767 0.936 0.14578 0.0
O65 O 0.41499 0.92992 0.05179 0.0
O66 O 0.38525 0.95215 0.04788 0.0
O67 O 0.38786 0.95832 0.1418 0.0
H68 H 0.42453 0.96697 0.11075 0.0
H69 H 0.44417 0.98579 0.08611 0.0
H70 H 0.46913 0.94496 0.01843 0.0
H71 H 0.44944 0.92628 0.04291 0.0
H72 H 0.40994 0.86115 0.14635 0.0
H73 H 0.40654 0.89058 0.12639 0.0
H74 H 0.36527 0.85762 0.19832 0.0
H75 H 0.36197 0.88676 0.17729 0.0
H76 H 0.3336 0.959 0.13807 0.0
H77 H 0.34868 1.00293 0.05133 0.0
H78 H 0.37305 0.99158 0.04885 0.0
H79 H 0.35819 0.94782 0.13606 0.0
C80 C 0.10178 0.44542 0.39622 0.0
C81 C 0.10432 0.4622 0.40577 0.0
C82 C 0.07871 0.46685 0.42392 0.0
C83 C 0.09289 0.47283 0.41954 0.0
C84 C 0.07631 0.44998 0.41463 0.0
C85 C 0.08773 0.43939 0.4009 0.0
U86 U 0.1417 0.43532 0.36961 0.0
O87 O 0.1541 0.41337 0.39438 0.0
O88 O 0.15159 0.41969 0.30064 0.0
C89 C 0.15625 0.40886 0.33911 0.0
C90 C 0.11356 0.43401 0.38093 0.0
C91 C 0.15339 0.39147 0.32477 0.0
C92 C 0.13975 0.36622 0.33721 0.0
C93 C 0.1417 0.38298 0.34934 0.0
C94 C 0.16093 0.36639 0.27466 0.0
C95 C 0.14946 0.35765 0.30025 0.0
C96 C 0.16287 0.38309 0.28692 0.0
C97 C 0.17003 0.46948 0.38783 0.0
C98 C 0.1955 0.46643 0.36489 0.0
C99 C 0.18666 0.49174 0.40854 0.0
C100 C 0.17272 0.48534 0.40924 0.0
C101 C 0.19825 0.4824 0.38634 0.0
C102 C 0.18151 0.46002 0.36573 0.0
C103 C 0.15518 0.4632 0.38875 0.0
O104 O 0.12009 0.43679 0.33034 0.0
O105 O 0.12251 0.43045 0.42401 0.0
O106 O 0.15218 0.45265 0.43083 0.0
O107 O 0.14973 0.45905 0.3372 0.0
H108 H 0.11513 0.46707 0.40225 0.0
H109 H 0.09512 0.48576 0.42584 0.0
H110 H 0.0656 0.44488 0.41859 0.0
H111 H 0.08558 0.42646 0.39391 0.0
H112 H 0.13087 0.35989 0.35803 0.0
H113 H 0.13421 0.38923 0.37858 0.0
H114 H 0.16845 0.36033 0.24507 0.0
H115 H 0.17191 0.38943 0.26721 0.0
H116 H 0.20418 0.45883 0.34806 0.0
H117 H 0.1883 0.50415 0.42456 0.0
H118 H 0.16398 0.49284 0.4263 0.0
H119 H 0.17964 0.44771 0.34916 0.0
C120 C 0.43501 0.5953 0.40417 0.0
C121 C 0.4338 0.57838 0.39313 0.0
C122 C 0.45801 0.5738 0.43184 0.0
C123 C 0.4452 0.56773 0.40674 0.0
C124 C 0.45902 0.59075 0.44356 0.0
C125 C 0.44765 0.60136 0.42978 0.0
U126 U 0.3954 0.60582 0.37185 0.0
O127 O 0.38275 0.62753 0.39907 0.0
O128 O 0.38625 0.62231 0.30479 0.0
C129 C 0.38106 0.63261 0.34439 0.0
C130 C 0.42337 0.60688 0.38879 0.0
C131 C 0.38376 0.6502 0.33368 0.0
C132 C 0.39943 0.67281 0.30571 0.0
C133 C 0.39745 0.6561 0.31841 0.0
C134 C 0.37414 0.67786 0.32456 0.0
C135 C 0.38774 0.68387 0.30794 0.0
C136 C 0.37219 0.66122 0.33717 0.0
C137 C 0.36674 0.57165 0.37781 0.0
C138 C 0.34091 0.57462 0.39317 0.0
C139 C 0.35057 0.54907 0.35464 0.0
C140 C 0.36447 0.55561 0.35709 0.0
C141 C 0.33862 0.55843 0.37313 0.0
C142 C 0.35483 0.58119 0.39529 0.0
C143 C 0.38162 0.57783 0.38258 0.0
O144 O 0.41745 0.60485 0.33646 0.0
O145 O 0.41393 0.60994 0.4308 0.0
O146 O 0.38433 0.58769 0.42739 0.0
O147 O 0.3877 0.58257 0.33296 0.0
H148 H 0.4241 0.57342 0.3735 0.0
H149 H 0.44407 0.5548 0.39656 0.0
H150 H 0.46857 0.59586 0.46383 0.0
H151 H 0.44875 0.61437 0.43899 0.0
H152 H 0.41003 0.67698 0.2928 0.0
H153 H 0.40654 0.64777 0.31555 0.0
H154 H 0.36496 0.68603 0.32798 0.0
H155 H 0.36156 0.65693 0.34917 0.0
H156 H 0.33193 0.58223 0.40704 0.0
H157 H 0.34925 0.53652 0.33964 0.0
H158 H 0.3735 0.54802 0.34354 0.0
H159 H 0.35629 0.59364 0.41111 0.0
C160 C 0.93549 0.94593 0.89196 0.0
C161 C 0.93358 0.96298 0.88695 0.0
C162 C 0.95823 0.96758 0.92032 0.0
C163 C 0.94486 0.9737 0.90082 0.0
C164 C 0.95998 0.95047 0.92578 0.0
C165 C 0.94873 0.93978 0.91167 0.0
U166 U 0.89583 0.93548 0.86327 0.0
O167 O 0.88629 0.91963 0.7945 0.0
O168 O 0.88348 0.91359 0.88836 0.0
C169 C 0.88146 0.90897 0.83319 0.0
C170 C 0.92392 0.93435 0.87628 0.0
C171 C 0.88427 0.89151 0.81966 0.0
C172 C 0.89828 0.86637 0.83057 0.0
C173 C 0.89639 0.88321 0.84171 0.0
C174 C 0.87616 0.86608 0.77414 0.0
C175 C 0.88807 0.85754 0.79723 0.0
C176 C 0.87428 0.88285 0.78534 0.0
C177 C 0.86715 0.96953 0.8793 0.0
C178 C 0.84211 0.96719 0.84908 0.0
C179 C 0.84992 0.99088 0.9055 0.0
C180 C 0.86391 0.98455 0.90679 0.0
C181 C 0.83882 0.98231 0.87658 0.0
C182 C 0.85615 0.96083 0.85058 0.0
C183 C 0.88206 0.96334 0.88093 0.0
O184 O 0.91484 0.93079 0.91895 0.0
O185 O 0.91758 0.93687 0.82515 0.0
O186 O 0.88774 0.95909 0.82976 0.0
O187 O 0.88504 0.95294 0.92353 0.0
H188 H 0.92339 0.96798 0.87213 0.0
H189 H 0.94308 0.9868 0.89679 0.0
H190 H 0.97015 0.94531 0.93992 0.0
H191 H 0.95041 0.92666 0.91574 0.0
H192 H 0.90753 0.8602 0.84935 0.0
H193 H 0.90426 0.88969 0.86824 0.0
H194 H 0.86823 0.8598 0.74733 0.0
H195 H 0.8649 0.88904 0.76765 0.0
H196 H 0.8338 0.96019 0.82695 0.0
H197 H 0.84785 1.00265 0.92635 0.0
H198 H 0.87227 0.99146 0.92904 0.0
H199 H 0.85843 0.94916 0.8293 0.0
C200 C 0.60145 0.09484 0.89449 0.0
C201 C 0.60282 0.07799 0.88201 0.0
C202 C 0.5789 0.07296 0.9229 0.0
C203 C 0.59162 0.06716 0.89588 0.0
C204 C 0.5777 0.08983 0.93585 0.0
C205 C 0.58885 0.10063 0.92171 0.0
U206 U 0.6409 0.10574 0.86243 0.0
O207 O 0.65001 0.12218 0.79512 0.0
O208 O 0.65329 0.12753 0.88934 0.0
C209 C 0.65511 0.13252 0.83459 0.0
C210 C 0.6129 0.1066 0.87909 0.0
C211 C 0.65232 0.15005 0.82336 0.0
C212 C 0.63613 0.17345 0.81362 0.0
C213 C 0.63839 0.15674 0.82574 0.0
C214 C 0.66169 0.17687 0.79704 0.0
C215 C 0.64777 0.18371 0.79871 0.0
C216 C 0.66392 0.16025 0.8092 0.0
C217 C 0.66992 0.07177 0.86859 0.0
C218 C 0.69554 0.07404 0.88972 0.0
C219 C 0.68645 0.04997 0.83907 0.0
C220 C 0.67251 0.05648 0.84176 0.0
C221 C 0.69813 0.05859 0.86352 0.0
C222 C 0.68158 0.0806 0.89204 0.0
C223 C 0.65495 0.07785 0.87342 0.0
O224 O 0.62224 0.1098 0.92114 0.0
O225 O 0.61891 0.10464 0.8268 0.0
O226 O 0.64884 0.08249 0.82378 0.0
O227 O 0.65205 0.08769 0.9182 0.0
H228 H 0.61251 0.07323 0.86138 0.0
H229 H 0.59297 0.05423 0.88593 0.0
H230 H 0.56801 0.09475 0.95595 0.0
H231 H 0.58758 0.11359 0.93165 0.0
H232 H 0.62526 0.17826 0.81489 0.0
H233 H 0.62928 0.14903 0.83653 0.0
H234 H 0.67093 0.18442 0.78681 0.0
H235 H 0.67476 0.15532 0.80738 0.0
H236 H 0.70431 0.08109 0.90832 0.0
H237 H 0.68802 0.03798 0.81918 0.0
H238 H 0.66368 0.04943 0.82356 0.0
H239 H 0.67991 0.09249 0.91267 0.0
C240 C 0.9352 0.59434 0.59373 0.0
C241 C 0.93259 0.57753 0.58517 0.0
C242 C 0.95822 0.57262 0.56826 0.0
C243 C 0.944 0.56676 0.57248 0.0
C244 C 0.96069 0.58951 0.57685 0.0
C245 C 0.9493 0.60023 0.58946 0.0
U246 U 0.89534 0.60478 0.62072 0.0
O247 O 0.88561 0.62179 0.68521 0.0
O248 O 0.88282 0.62618 0.59014 0.0
C249 C 0.88086 0.63182 0.64413 0.0
C250 C 0.92342 0.60595 0.60684 0.0
C251 C 0.88372 0.6495 0.6533 0.0
C252 C 0.898 0.67189 0.69394 0.0
C253 C 0.8961 0.65508 0.68269 0.0
C254 C 0.87542 0.67775 0.64505 0.0
C255 C 0.88759 0.68344 0.67592 0.0
C256 C 0.87351 0.66099 0.63404 0.0
C257 C 0.867 0.57019 0.61519 0.0
C258 C 0.84115 0.57301 0.60076 0.0
C259 C 0.85103 0.54734 0.63628 0.0
C260 C 0.86487 0.55403 0.63427 0.0
C261 C 0.83898 0.55667 0.61898 0.0
C262 C 0.85503 0.57972 0.59896 0.0
C263 C 0.88183 0.57656 0.61119 0.0
O264 O 0.91425 0.6085 0.56362 0.0
O265 O 0.91714 0.60424 0.65861 0.0
O266 O 0.88753 0.58183 0.66093 0.0
O267 O 0.88471 0.58607 0.5658 0.0
H268 H 0.92175 0.57276 0.58838 0.0
H269 H 0.94171 0.55382 0.56672 0.0
H270 H 0.97143 0.59452 0.573 0.0
H271 H 0.9515 0.61318 0.59567 0.0
H272 H 0.90745 0.67577 0.71818 0.0
H273 H 0.90417 0.64645 0.69785 0.0
H274 H 0.86732 0.68627 0.6294 0.0
H275 H 0.86392 0.65697 0.61102 0.0
H276 H 0.83217 0.58053 0.58665 0.0
H277 H 0.84979 0.53485 0.65167 0.0
H278 H 0.87395 0.5465 0.64728 0.0
H279 H 0.85641 0.59225 0.58419 0.0
C280 C 0.60148 0.44544 0.59122 0.0
C281 C 0.60268 0.46236 0.6021 0.0
C282 C 0.57831 0.46684 0.56486 0.0
C283 C 0.5912 0.47296 0.58916 0.0
C284 C 0.57731 0.44987 0.55335 0.0
C285 C 0.58876 0.43931 0.56648 0.0
U286 U 0.64126 0.43529 0.62053 0.0
O287 O 0.65084 0.41886 0.68685 0.0
O288 O 0.654 0.41377 0.59231 0.0
C289 C 0.65591 0.40861 0.64676 0.0
C290 C 0.61323 0.43393 0.60577 0.0
C291 C 0.65308 0.39104 0.65703 0.0
C292 C 0.63679 0.36832 0.67624 0.0
C293 C 0.63909 0.3851 0.66609 0.0
C294 C 0.66241 0.36331 0.66797 0.0
C295 C 0.64844 0.3572 0.67717 0.0
C296 C 0.66469 0.38004 0.65803 0.0
C297 C 0.66936 0.46999 0.61119 0.0
C298 C 0.69479 0.46696 0.6344 0.0
C299 C 0.68578 0.49277 0.59633 0.0
C300 C 0.67193 0.48618 0.59351 0.0
C301 C 0.69741 0.4833 0.61703 0.0
C302 C 0.68088 0.46037 0.63153 0.0
C303 C 0.65459 0.46351 0.60797 0.0
O304 O 0.6225 0.43092 0.56307 0.0
O305 O 0.61937 0.43602 0.65762 0.0
O306 O 0.64891 0.45864 0.65821 0.0
O307 O 0.65194 0.45347 0.56368 0.0
H308 H 0.61243 0.46736 0.62106 0.0
H309 H 0.59233 0.4859 0.59919 0.0
H310 H 0.5677 0.44473 0.53369 0.0
H311 H 0.58765 0.4263 0.55741 0.0
H312 H 0.62588 0.36402 0.6826 0.0
H313 H 0.62997 0.39342 0.66527 0.0
H314 H 0.67166 0.35519 0.6693 0.0
H315 H 0.67557 0.3844 0.65133 0.0
H316 H 0.70345 0.45935 0.65103 0.0
H317 H 0.6874 0.50527 0.58155 0.0
H318 H 0.66318 0.49377 0.57739 0.0
H319 H 0.6791 0.44781 0.64536 0.0
H320 H 0.17025 0.2056 0.19785 0.0
H321 H 0.16824 0.23482 0.22025 0.0
H322 H 0.12199 0.23147 0.21314 0.0
H323 H 0.1239 0.20201 0.19126 0.0
H324 H 0.13181 0.259 0.15694 0.0
H325 H 0.13834 0.23389 0.34516 0.0
H326 H 0.14974 0.21575 0.41862 0.0
H327 H 0.18921 0.24269 0.40334 0.0
H328 H 0.1781 0.26085 0.32909 0.0
H329 H 0.12466 0.33981 0.28263 0.0
H330 H 0.12249 0.31021 0.26517 0.0
H331 H 0.16864 0.30517 0.27445 0.0
H332 H 0.17085 0.33451 0.29412 0.0
H333 H 0.15613 0.28143 0.3349 0.0
H334 H 0.14989 0.30517 0.14074 0.0
H335 H 0.13836 0.32313 0.06694 0.0
H336 H 0.09803 0.29872 0.09437 0.0
H337 H 0.10928 0.28074 0.16893 0.0
C338 C 0.15962 0.21098 0.20162 0.0
C339 C 0.14724 0.20134 0.19346 0.0
C340 C 0.15849 0.22775 0.21426 0.0
C341 C 0.14496 0.23533 0.21934 0.0
C342 C 0.13255 0.22589 0.20962 0.0
C343 C 0.13367 0.20905 0.19696 0.0
C344 C 0.14391 0.25307 0.23519 0.0
C345 C 0.13691 0.26388 0.19638 0.0
C346 C 0.1507 0.2595 0.2863 0.0
C347 C 0.15741 0.24866 0.33119 0.0
C348 C 0.14948 0.23587 0.35713 0.0
C349 C 0.15589 0.2256 0.39897 0.0
C350 C 0.1702 0.22804 0.41555 0.0
C351 C 0.17812 0.2408 0.39042 0.0
C352 C 0.17177 0.2511 0.3485 0.0
C353 C 0.13434 0.33238 0.28146 0.0
C354 C 0.14795 0.33963 0.28943 0.0
C355 C 0.13309 0.31546 0.27087 0.0
C356 C 0.14542 0.30544 0.26773 0.0
C357 C 0.15897 0.31262 0.27642 0.0
C358 C 0.16022 0.32947 0.28709 0.0
C359 C 0.14435 0.28745 0.25589 0.0
C360 C 0.15093 0.27656 0.29566 0.0
C361 C 0.13714 0.28098 0.20577 0.0
C362 C 0.13039 0.29175 0.16087 0.0
C363 C 0.13853 0.30372 0.13137 0.0
C364 C 0.13206 0.31389 0.08934 0.0
C365 C 0.11746 0.3121 0.07611 0.0
C366 C 0.10933 0.30011 0.10475 0.0
C367 C 0.11575 0.28992 0.14686 0.0
H368 H 0.11247 0.31998 0.04355 0.0
H369 H 0.17514 0.22007 0.44796 0.0
H370 H 0.41045 0.84087 0.22696 0.0
H371 H 0.41242 0.81153 0.24965 0.0
H372 H 0.37112 0.80311 0.16852 0.0
H373 H 0.36913 0.83226 0.14543 0.0
H374 H 0.3725 0.78867 0.27408 0.0
H375 H 0.4029 0.79154 0.10113 0.0
H376 H 0.4232 0.80171 0.04138 0.0
H377 H 0.45293 0.7857 0.17463 0.0
H378 H 0.43277 0.77563 0.23557 0.0
H379 H 0.36947 0.70314 0.24341 0.0
H380 H 0.37147 0.73238 0.22221 0.0
H381 H 0.41206 0.73407 0.31407 0.0
H382 H 0.41008 0.70467 0.33608 0.0
H383 H 0.41265 0.75223 0.21126 0.0
H384 H 0.38262 0.74825 0.38201 0.0
H385 H 0.36247 0.73793 0.4423 0.0
H386 H 0.33229 0.75628 0.31483 0.0
H387 H 0.35227 0.7665 0.2533 0.0
C388 C 0.40188 0.83273 0.21324 0.0
C389 C 0.38958 0.83899 0.18473 0.0
C390 C 0.40302 0.81595 0.22632 0.0
C391 C 0.39192 0.80506 0.21075 0.0
C392 C 0.37978 0.81125 0.1814 0.0
C393 C 0.37863 0.82797 0.1684 0.0
C394 C 0.39259 0.78732 0.22664 0.0
C395 C 0.38122 0.78069 0.25972 0.0
C396 C 0.4042 0.77696 0.2098 0.0
C397 C 0.41631 0.78301 0.17321 0.0
C398 C 0.41375 0.79032 0.11793 0.0
C399 C 0.42524 0.79604 0.0838 0.0
C400 C 0.43935 0.7944 0.10428 0.0
C401 C 0.442 0.78699 0.15887 0.0
C402 C 0.43055 0.78127 0.19321 0.0
C403 C 0.3788 0.70971 0.25956 0.0
C404 C 0.38951 0.70155 0.29227 0.0
C405 C 0.37995 0.72645 0.24716 0.0
C406 C 0.3918 0.73551 0.26734 0.0
C407 C 0.4028 0.72734 0.29817 0.0
C408 C 0.40165 0.71052 0.31063 0.0
C409 C 0.39238 0.75358 0.25738 0.0
C410 C 0.40399 0.76026 0.22579 0.0
C411 C 0.38102 0.76405 0.27574 0.0
C412 C 0.36895 0.75802 0.31281 0.0
C413 C 0.37169 0.74998 0.36662 0.0
C414 C 0.3603 0.74416 0.40105 0.0
C415 C 0.34611 0.74641 0.38235 0.0
C416 C 0.34328 0.75453 0.32924 0.0
C417 C 0.35464 0.76035 0.29459 0.0
H418 H 0.33731 0.7419 0.40907 0.0
H419 H 0.44822 0.79883 0.07778 0.0
H420 H 0.91262 0.83966 0.77297 0.0
H421 H 0.9147 0.80998 0.7564 0.0
H422 H 0.86892 0.80491 0.78178 0.0
H423 H 0.86685 0.83434 0.80034 0.0
H424 H 0.88299 0.78126 0.83869 0.0
H425 H 0.88473 0.80478 0.64226 0.0
H426 H 0.89453 0.82269 0.56428 0.0
H427 H 0.93547 0.79836 0.57704 0.0
H428 H 0.92595 0.78045 0.65566 0.0
H429 H 0.86649 0.705 0.71066 0.0
H430 H 0.86875 0.73414 0.73352 0.0
H431 H 0.91439 0.73153 0.70001 0.0
H432 H 0.91212 0.70236 0.67458 0.0
H433 H 0.90328 0.7587 0.65203 0.0
H434 H 0.90131 0.73368 0.84193 0.0
H435 H 0.89186 0.71565 0.92018 0.0
H436 H 0.8521 0.74265 0.92161 0.0
H437 H 0.86123 0.76071 0.84275 0.0
C438 C 0.90302 0.83221 0.77556 0.0
C439 C 0.88955 0.83946 0.78757 0.0
C440 C 0.9042 0.81525 0.76553 0.0
C441 C 0.89194 0.80519 0.7671 0.0
C442 C 0.87854 0.81238 0.78007 0.0
C443 C 0.87735 0.82928 0.79011 0.0
C444 C 0.89289 0.78719 0.75529 0.0
C445 C 0.88732 0.77635 0.79763 0.0
C446 C 0.89898 0.78068 0.70264 0.0
C447 C 0.90468 0.79141 0.65527 0.0
C448 C 0.89585 0.80334 0.62874 0.0
C449 C 0.90135 0.81347 0.58438 0.0
C450 C 0.91563 0.8117 0.56584 0.0
C451 C 0.92442 0.79975 0.59151 0.0
C452 C 0.91898 0.78959 0.63594 0.0
C453 C 0.87701 0.71061 0.70744 0.0
C454 C 0.88912 0.70126 0.69057 0.0
C455 C 0.87831 0.72728 0.72129 0.0
C456 C 0.89178 0.73503 0.71941 0.0
C457 C 0.9039 0.72582 0.70212 0.0
C458 C 0.9026 0.7091 0.68806 0.0
C459 C 0.89306 0.75279 0.73484 0.0
C460 C 0.89908 0.76358 0.69333 0.0
C461 C 0.88744 0.75927 0.78843 0.0
C462 C 0.88192 0.74848 0.83608 0.0
C463 C 0.89051 0.7357 0.85862 0.0
C464 C 0.88522 0.72549 0.90314 0.0
C465 C 0.87138 0.72798 0.92577 0.0
C466 C 0.86282 0.74073 0.90402 0.0
C467 C 0.86805 0.75097 0.85945 0.0
H468 H 0.8673 0.72006 0.96023 0.0
H469 H 0.91986 0.81955 0.53149 0.0
H470 H 0.63015 0.34262 0.75691 0.0
H471 H 0.6273 0.31326 0.77681 0.0
H472 H 0.65897 0.30197 0.64286 0.0
H473 H 0.66155 0.33119 0.62156 0.0
H474 H 0.63675 0.2811 0.63619 0.0
H475 H 0.66746 0.3022 0.79102 0.0
H476 H 0.67374 0.3205 0.87419 0.0
H477 H 0.63722 0.30323 0.97222 0.0
H478 H 0.63061 0.28497 0.88924 0.0
H479 H 0.66067 0.20166 0.71135 0.0
H480 H 0.65811 0.23091 0.69122 0.0
H481 H 0.62702 0.23529 0.83236 0.0
H482 H 0.62988 0.20598 0.85411 0.0
H483 H 0.64608 0.25977 0.83788 0.0
H484 H 0.61654 0.23681 0.68697 0.0
H485 H 0.61023 0.2184 0.60417 0.0
H486 H 0.6441 0.23904 0.4989 0.0
H487 H 0.65076 0.25742 0.58138 0.0
C488 C 0.63637 0.33388 0.73116 0.0
C489 C 0.64616 0.33931 0.68791 0.0
C490 C 0.63482 0.31709 0.74296 0.0
C491 C 0.64306 0.30537 0.7119 0.0
C492 C 0.65253 0.31075 0.66762 0.0
C493 C 0.6541 0.3275 0.65586 0.0
C494 C 0.64209 0.28754 0.72597 0.0
C495 C 0.6389 0.27642 0.68019 0.0
C496 C 0.64447 0.28143 0.78376 0.0
C497 C 0.64845 0.29236 0.83368 0.0
C498 C 0.66071 0.3024 0.83012 0.0
C499 C 0.66434 0.31275 0.87726 0.0
C500 C 0.65586 0.31307 0.92838 0.0
C501 C 0.64376 0.303 0.93255 0.0
C502 C 0.64007 0.29264 0.8855 0.0
C503 C 0.65332 0.20882 0.73837 0.0
C504 C 0.64553 0.20143 0.78457 0.0
C505 C 0.65174 0.22555 0.72634 0.0
C506 C 0.64225 0.23533 0.7598 0.0
C507 C 0.63437 0.228 0.80576 0.0
C508 C 0.63594 0.21121 0.81784 0.0
C509 C 0.64099 0.25328 0.74784 0.0
C510 C 0.64376 0.26442 0.794 0.0
C511 C 0.6382 0.25942 0.6904 0.0
C512 C 0.63422 0.24841 0.64058 0.0
C513 C 0.62272 0.23734 0.64633 0.0
C514 C 0.61907 0.22692 0.59942 0.0
C515 C 0.62678 0.22753 0.54636 0.0
C516 C 0.63814 0.23858 0.54005 0.0
C517 C 0.64185 0.24901 0.58685 0.0
H518 H 0.62394 0.21945 0.51009 0.0
H519 H 0.65869 0.32108 0.96484 0.0
H520 H 0.32522 0.99887 0.00728 0.0
H521 H 0.30144 1.01169 0.01129 0.0
H522 H 0.29551 0.99367 0.18883 0.0
H523 H 0.31937 0.98083 0.18523 0.0
H524 H 0.27129 0.99001 0.12433 0.0
H525 H 0.30447 0.0337 0.16398 0.0
H526 H 0.32558 0.05117 0.14492 0.0
H527 H 0.30708 0.06686 0.98052 0.0
H528 H 0.28593 0.0493 -0.00178 0.0
H529 H 0.21124 0.04049 0.19568 0.0
H530 H 0.23501 0.02754 0.19496 0.0
H531 H 0.24278 0.04642 0.01976 0.0
H532 H 0.21905 0.05952 0.02045 0.0
H533 H 0.26618 0.04966 0.08519 0.0
H534 H 0.23325 1.00576 0.04412 0.0
H535 H 0.21216 0.98817 0.06213 0.0
H536 H 0.23015 0.97275 0.22781 0.0
H537 H 0.25127 0.99043 0.21116 0.0
C538 C 0.31891 0.9977 0.04737 0.0
C539 C 0.3243 0.98893 0.09615 0.0
C540 C 0.30529 1.00503 0.04956 0.0
C541 C 0.29675 1.00389 0.10072 0.0
C542 C 0.3019 0.99476 0.1489 0.0
C543 C 0.31554 0.98738 0.1467 0.0
C544 C 0.28253 1.01237 0.10403 0.0
C545 C 0.2702 1.00309 0.1166 0.0
C546 C 0.28103 0.02939 0.09269 0.0
C547 C 0.29367 0.04007 0.08219 0.0
C548 C 0.30494 0.04079 0.12357 0.0
C549 C 0.31691 0.05072 0.11304 0.0
C550 C 0.31769 0.06009 0.06148 0.0
C551 C 0.30647 0.05958 0.02041 0.0
C552 C 0.29449 0.04965 0.0307 0.0
C553 C 0.21799 0.04183 0.15689 0.0
C554 C 0.21319 0.05097 0.10798 0.0
C555 C 0.23159 0.0344 0.15651 0.0
C556 C 0.24064 0.03575 0.1069 0.0
C557 C 0.23601 0.04517 0.05855 0.0
C558 C 0.22244 0.0527 0.05906 0.0
C559 C 0.2549 0.02729 0.10523 0.0
C560 C 0.26725 0.03657 0.09301 0.0
C561 C 0.25641 1.01027 0.11675 0.0
C562 C 0.24378 0.99954 0.12665 0.0
C563 C 0.23266 0.9987 0.08458 0.0
C564 C 0.22071 0.98871 0.09452 0.0
C565 C 0.2198 0.97938 0.14615 0.0
C566 C 0.23086 0.98 0.18787 0.0
C567 C 0.24283 0.98999 0.17819 0.0
H568 H 0.21053 0.97165 0.15377 0.0
H569 H 0.32696 0.06776 0.05339 0.0
H570 H 0.32631 0.53903 0.28763 0.0
H571 H 0.30262 0.52605 0.28936 0.0
H572 H 0.29382 0.5484 0.459 0.0
H573 H 0.31765 0.56113 0.45817 0.0
H574 H 0.28651 0.51626 0.4582 0.0
H575 H 0.2781 0.56294 0.33404 0.0
H576 H 0.28245 0.58148 0.24995 0.0
H577 H 0.27521 0.54175 0.1282 0.0
H578 H 0.27101 0.52291 0.21164 0.0
H579 H 0.21144 0.50111 0.47152 0.0
H580 H 0.23524 0.51367 0.46796 0.0
H581 H 0.24269 0.49194 0.29622 0.0
H582 H 0.21865 0.47974 0.29862 0.0
H583 H 0.25087 0.52341 0.29713 0.0
H584 H 0.25905 0.47674 0.42071 0.0
H585 H 0.25475 0.45808 0.50451 0.0
H586 H 0.26255 0.49751 0.62694 0.0
H587 H 0.2667 0.51647 0.54382 0.0
C588 C 0.31936 0.54116 0.32541 0.0
C589 C 0.3239 0.55115 0.37277 0.0
C590 C 0.30576 0.53383 0.32611 0.0
C591 C 0.29637 0.53633 0.37412 0.0
C592 C 0.30086 0.54631 0.42142 0.0
C593 C 0.31444 0.5537 0.42064 0.0
C594 C 0.28199 0.52828 0.37558 0.0
C595 C 0.27864 0.518 0.42338 0.0
C596 C 0.27185 0.53017 0.32938 0.0
C597 C 0.27439 0.54147 0.27913 0.0
C598 C 0.27756 0.55812 0.28936 0.0
C599 C 0.27998 0.56869 0.2418 0.0
C600 C 0.27915 0.56279 0.18377 0.0
C601 C 0.27587 0.5463 0.17318 0.0
C602 C 0.27346 0.53567 0.22058 0.0
C603 C 0.21809 0.49905 0.4328 0.0
C604 C 0.21308 0.48941 0.3853 0.0
C605 C 0.23178 0.50612 0.43109 0.0
C606 C 0.24086 0.50364 0.38207 0.0
C607 C 0.23592 0.494 0.33461 0.0
C608 C 0.22221 0.48691 0.33629 0.0
C609 C 0.25535 0.51141 0.37986 0.0
C610 C 0.25874 0.52163 0.33193 0.0
C611 C 0.26554 0.50944 0.4259 0.0
C612 C 0.26304 0.49807 0.476 0.0
C613 C 0.25973 0.48147 0.46549 0.0
C614 C 0.25734 0.47083 0.51287 0.0
C615 C 0.25834 0.47662 0.57101 0.0
C616 C 0.26176 0.49305 0.58188 0.0
C617 C 0.26414 0.50375 0.53465 0.0
H618 H 0.2565 0.46836 0.60763 0.0
H619 H 0.28101 0.57099 0.14701 0.0
H620 H 0.71168 0.04235 0.77252 0.0
H621 H 0.73545 0.02939 0.77308 0.0
H622 H 0.74163 0.04507 0.9538 0.0
H623 H 0.71791 0.05819 0.95328 0.0
H624 H 0.76554 0.04952 0.8929 0.0
H625 H 0.7324 1.00487 0.9169 0.0
H626 H 0.71157 0.98761 0.89085 0.0
H627 H 0.73127 0.9754 0.7243 0.0
H628 H 0.75213 0.99278 0.74903 0.0
H629 H 0.82399 0.99766 0.96609 0.0
H630 H 0.80019 1.01042 0.96187 0.0
H631 H 0.79608 0.99558 0.77928 0.0
H632 H 0.81995 0.98279 0.78313 0.0
H633 H 0.77126 0.99075 0.83868 0.0
H634 H 0.80463 0.03512 0.816 0.0
H635 H 0.82548 0.05223 0.84294 0.0
H636 H 0.8053 0.06485 0.00813 0.0
H637 H 0.78441 0.04762 0.98253 0.0
C638 C 0.71808 0.04299 0.81246 0.0
C639 C 0.71285 0.05125 0.86295 0.0
C640 C 0.73168 0.03555 0.81276 0.0
C641 C 0.74029 0.036 0.86381 0.0
C642 C 0.73521 0.04453 0.91387 0.0
C643 C 0.72165 0.05207 0.91346 0.0
C644 C 0.75455 0.02756 0.86521 0.0
C645 C 0.76674 0.03662 0.88177 0.0
C646 C 0.75624 1.0108 0.84936 0.0
C647 C 0.74376 1.00025 0.83458 0.0
C648 C 0.73224 0.9986 0.87455 0.0
C649 C 0.72044 0.98878 0.86004 0.0
C650 C 0.72008 0.98045 0.80589 0.0
C651 C 0.73155 0.98188 0.76619 0.0
C652 C 0.74337 0.9917 0.78045 0.0
C653 C 0.81807 0.99717 0.92488 0.0
C654 C 0.82397 0.98931 0.87478 0.0
C655 C 0.80444 1.00447 0.92256 0.0
C656 C 0.79641 1.00421 0.86996 0.0
C657 C 0.80207 0.99598 0.82033 0.0
C658 C 0.81571 0.98862 0.82266 0.0
C659 C 0.78221 1.0127 0.86668 0.0
C660 C 0.77005 1.00366 0.84973 0.0
C661 C 0.78053 0.02947 0.88229 0.0
C662 C 0.79302 0.03996 0.89756 0.0
C663 C 0.80468 0.04146 0.85824 0.0
C664 C 0.8165 0.05119 0.87325 0.0
C665 C 0.81673 0.05959 0.92727 0.0
C666 C 0.80512 0.05832 0.96633 0.0
C667 C 0.79328 0.04858 0.95157 0.0
H668 H 0.82589 0.06712 0.93881 0.0
H669 H 0.71093 0.97286 0.79473 0.0
H670 H 0.70501 0.51435 0.65218 0.0
H671 H 0.72895 0.5266 0.65319 0.0
H672 H 0.74726 0.48095 0.59101 0.0
H673 H 0.72327 0.46861 0.58935 0.0
H674 H 0.7635 0.49431 0.67799 0.0
H675 H 0.74237 0.5129 0.49685 0.0
H676 H 0.72377 0.52573 0.4344 0.0
H677 H 0.72873 0.57124 0.52868 0.0
H678 H 0.74722 0.55861 0.59229 0.0
H679 H 0.83128 0.52538 0.5868 0.0
H680 H 0.8074 0.51302 0.58899 0.0
H681 H 0.78936 0.55866 0.65252 0.0
H682 H 0.81331 0.5711 0.6513 0.0
H683 H 0.77298 0.54535 0.56543 0.0
H684 H 0.7943 0.52674 0.74611 0.0
H685 H 0.81295 0.51386 0.80819 0.0
H686 H 0.80771 0.46833 0.71431 0.0
H687 H 0.78917 0.48101 0.65107 0.0
C688 C 0.7141 0.50692 0.63824 0.0
C689 C 0.71215 0.49051 0.62015 0.0
C690 C 0.72781 0.51395 0.63898 0.0
C691 C 0.73991 0.50478 0.62137 0.0
C692 C 0.73809 0.48828 0.60473 0.0
C693 C 0.72436 0.48122 0.60399 0.0
C694 C 0.75444 0.51248 0.6199 0.0
C695 C 0.76562 0.50534 0.65273 0.0
C696 C 0.75716 0.52711 0.58803 0.0
C697 C 0.74608 0.53476 0.54971 0.0
C698 C 0.73941 0.52561 0.50458 0.0
C699 C 0.7289 0.53285 0.46892 0.0
C700 C 0.72504 0.54928 0.47767 0.0
C701 C 0.73171 0.55851 0.52201 0.0
C702 C 0.74222 0.55132 0.55784 0.0
C703 C 0.82229 0.53278 0.60195 0.0
C704 C 0.8243 0.54924 0.61933 0.0
C705 C 0.80861 0.52568 0.603 0.0
C706 C 0.79658 0.53483 0.62161 0.0
C707 C 0.79847 0.55134 0.63802 0.0
C708 C 0.81218 0.55846 0.63708 0.0
C709 C 0.78205 0.52718 0.62354 0.0
C710 C 0.77086 0.53433 0.59075 0.0
C711 C 0.77934 0.51256 0.65538 0.0
C712 C 0.79045 0.50488 0.69347 0.0
C713 C 0.79721 0.51402 0.73838 0.0
C714 C 0.80774 0.50675 0.77384 0.0
C715 C 0.81154 0.4903 0.7651 0.0
C716 C 0.80477 0.48108 0.72098 0.0
C717 C 0.79424 0.4883 0.68534 0.0
H718 H 0.8197 0.48469 0.7926 0.0
H719 H 0.7169 0.55486 0.45001 0.0
H720 H 0.97719 0.96585 0.01296 0.0
H721 H 0.99761 0.9838 0.03374 0.0
H722 H 0.98712 1.01303 0.88096 0.0
H723 H 0.96686 0.99486 0.85903 0.0
H724 H 1.01562 1.00662 0.88566 0.0
H725 H 0.97974 0.02694 0.0198 0.0
H726 H 0.9614 0.02521 0.0985 0.0
H727 H 0.99323 1.00718 0.21968 0.0
H728 H 1.01172 1.00857 0.14142 0.0
H729 H 0.06051 0.0748 0.95359 0.0
H730 H 0.04009 0.05689 0.93217 0.0
H731 H 0.05026 0.02764 0.08525 0.0
H732 H 0.07049 0.04577 0.10785 0.0
H733 H 0.02188 0.03414 0.08015 0.0
H734 H 0.05776 1.01379 0.94584 0.0
H735 H 0.07607 1.01552 0.86707 0.0
H736 H 0.04423 0.03365 0.74613 0.0
H737 H 0.02576 0.03224 0.82446 0.0
C738 C 0.97925 0.97605 0.98358 0.0
C739 C 0.97036 0.97889 0.93429 0.0
C740 C 0.99087 0.9864 -0.00416 0.0
C741 C 0.99385 0.99987 0.95924 0.0
C742 C 0.98502 1.00274 0.90994 0.0
C743 C 0.97336 0.99242 0.89775 0.0
C744 C 1.00633 1.01078 0.97182 0.0
C745 C 1.01688 1.01283 0.9279 0.0
C746 C 1.00819 1.01858 0.02742 0.0
C747 C 0.99708 1.0177 0.07456 0.0
C748 C 0.9828 0.02247 0.06308 0.0
C749 C 0.97238 0.02158 0.10764 0.0
C750 C 0.97614 1.01605 0.16401 0.0
C751 C 0.99033 1.01143 0.17597 0.0
C752 C 1.00079 1.01228 0.13154 0.0
C753 C 0.05838 0.0646 0.98288 0.0
C754 C 0.06717 0.06174 0.03249 0.0
C755 C 0.04676 0.05427 0.97026 0.0
C756 C 0.04369 0.04081 0.00678 0.0
C757 C 0.05243 0.03792 0.05631 0.0
C758 C 0.06408 0.04822 0.06889 0.0
C759 C 0.03118 0.02996 -0.00598 0.0
C760 C 0.02062 0.02793 0.03791 0.0
C761 C 0.02931 0.02219 0.93838 0.0
C762 C 0.0404 0.02307 0.89121 0.0
C763 C 0.05468 1.01828 0.9026 0.0
C764 C 0.06509 1.01918 0.858 0.0
C765 C 0.06133 0.02473 0.80168 0.0
C766 C 0.04714 0.02937 0.7898 0.0
C767 C 0.03669 0.02851 0.83427 0.0
H768 H 0.0694 0.02541 0.7672 0.0
H769 H 0.96806 1.01538 0.19846 0.0
H770 H 0.47502 0.96742 0.95043 0.0
H771 H 0.4954 0.98535 0.92892 0.0
H772 H 0.48941 1.00984 0.09682 0.0
H773 H 0.46892 0.99201 0.11839 0.0
H774 H 0.49484 0.03169 0.01307 0.0
H775 H 0.51641 0.98089 0.07446 0.0
H776 H 0.52057 0.95097 0.07225 0.0
H777 H 0.53507 0.95407 0.89213 0.0
H778 H 0.53081 0.984 0.89301 0.0
H779 H 0.56224 0.07218 0.0231 0.0
H780 H 0.54189 0.0542 0.04443 0.0
H781 H 0.54779 0.02998 0.87599 0.0
H782 H 0.56823 0.0479 0.8545 0.0
H783 H 0.54241 1.00799 0.95986 0.0
H784 H 0.52086 0.05883 0.89863 0.0
H785 H 0.51671 0.08875 0.90099 0.0
H786 H 0.50218 0.08558 0.08105 0.0
H787 H 0.50644 0.05566 0.08003 0.0
C788 C 0.47808 0.97656 0.98294 0.0
C789 C 0.47037 0.9782 0.03632 0.0
C790 C 0.48975 0.98682 0.97059 0.0
C791 C 0.49413 0.99881 0.01163 0.0
C792 C 0.48627 1.00069 0.06443 0.0
C793 C 0.47453 0.9905 0.07666 0.0
C794 C 0.50689 1.00935 -0.00038 0.0
C795 C 0.50529 0.02649 0.00223 0.0
C796 C 0.52048 1.00263 0.98412 0.0
C797 C 0.52316 0.98466 0.98365 0.0
C798 C 0.52039 0.97518 0.03426 0.0
C799 C 0.52278 0.95822 0.03326 0.0
C800 C 0.52805 0.95062 0.98204 0.0
C801 C 0.53098 0.95997 0.93176 0.0
C802 C 0.52859 0.97693 0.9325 0.0
C803 C 0.55917 0.06309 0.99042 0.0
C804 C 0.56683 0.06157 0.93689 0.0
C805 C 0.54751 0.0528 0.00269 0.0
C806 C 0.54312 0.04088 0.96144 0.0
C807 C 0.55094 0.03909 0.90852 0.0
C808 C 0.56266 0.04932 0.89635 0.0
C809 C 0.53036 0.03033 0.97335 0.0
C810 C 0.53196 1.01319 0.97071 0.0
C811 C 0.51677 0.03705 0.98885 0.0
C812 C 0.51409 0.05502 0.98941 0.0
C813 C 0.51687 0.06453 0.93885 0.0
C814 C 0.51449 0.08148 0.93993 0.0
C815 C 0.50922 0.08907 0.99118 0.0
C816 C 0.50628 0.07969 0.04141 0.0
C817 C 0.50866 0.06273 0.04059 0.0
H818 H 0.50738 0.1022 -0.00806 0.0
H819 H 0.52989 0.93749 0.98135 0.0
H820 H 0.98526 0.57257 0.61671 0.0
H821 H 1.00556 0.55471 0.59186 0.0
H822 H 0.9793 0.52897 0.46484 0.0
H823 H 0.95892 0.54689 0.48919 0.0
H824 H 0.99517 0.50777 0.52896 0.0
H825 H 1.00411 0.5571 0.42004 0.0
H826 H 1.00719 0.58691 0.40655 0.0
H827 H 0.04303 0.58655 0.52618 0.0
H828 H 0.04004 0.55675 0.54104 0.0
H829 H 0.05162 0.46683 0.37595 0.0
H830 H 0.03129 0.48461 0.40119 0.0
H831 H 0.05755 0.51028 0.52839 0.0
H832 H 0.07796 0.49243 0.50367 0.0
H833 H 0.04169 0.5315 0.46423 0.0
H834 H 0.03273 0.48212 0.57299 0.0
H835 H 0.02964 0.4523 0.58625 0.0
H836 H 0.9938 0.45275 0.46662 0.0
H837 H 0.9968 0.48256 0.45198 0.0
C838 C 0.9838 0.5632 0.58313 0.0
C839 C 0.97045 0.56128 0.55465 0.0
C840 C 0.99544 0.55296 0.56903 0.0
C841 C 0.99405 0.54062 0.52585 0.0
C842 C 0.98065 0.53841 0.49827 0.0
C843 C 0.96899 0.54864 0.5124 0.0
C844 C 1.00657 0.53007 0.50939 0.0
C845 C 1.00527 0.51296 0.51402 0.0
C846 C 0.01989 0.53682 0.49116 0.0
C847 C 0.02176 0.55472 0.48209 0.0
C848 C 1.01258 0.5634 0.44383 0.0
C849 C 1.01432 0.58029 0.43587 0.0
C850 C 0.02528 0.58863 0.46561 0.0
C851 C 0.03454 0.58008 0.50324 0.0
C852 C 0.03284 0.56319 0.5114 0.0
C853 C 0.05307 0.47615 0.40969 0.0
C854 C 0.06643 0.47808 0.43808 0.0
C855 C 0.04142 0.48635 0.424 0.0
C856 C 0.04281 0.49866 0.46731 0.0
C857 C 0.0562 0.50086 0.49487 0.0
C858 C 0.06788 0.49067 0.48053 0.0
C859 C 0.03028 0.5092 0.48381 0.0
C860 C 0.03158 0.52631 0.47917 0.0
C861 C 1.01696 0.50245 0.50201 0.0
C862 C 1.01508 0.48454 0.51095 0.0
C863 C 0.02426 0.47584 0.54916 0.0
C864 C 0.02251 0.45895 0.55698 0.0
C865 C 1.01155 0.45063 0.52718 0.0
C866 C 1.00229 0.45921 0.48961 0.0
C867 C 1.00401 0.4761 0.48157 0.0
H868 H 1.01022 0.43755 0.5333 0.0
H869 H 0.02661 0.60171 0.45939 0.0
H870 H 0.48686 0.5797 0.41729 0.0
H871 H 0.50704 0.56165 0.44078 0.0
H872 H 0.47747 0.52421 0.49812 0.0
H873 H 0.45719 0.54249 0.47702 0.0
H874 H 0.49933 0.5267 0.57375 0.0
H875 H 0.4949 0.52184 0.36289 0.0
H876 H 0.49325 0.53195 0.2604 0.0
H877 H 0.53492 0.55412 0.27656 0.0
H878 H 0.53674 0.54433 0.37947 0.0
H879 H 0.54949 0.4609 0.58056 0.0
H880 H 0.52924 0.47889 0.5575 0.0
H881 H 0.55864 0.51635 0.49893 0.0
H882 H 0.57898 0.49813 0.51949 0.0
H883 H 0.53681 0.51379 0.42392 0.0
H884 H 0.54126 0.51871 0.63474 0.0
H885 H 0.54292 0.50866 0.7373 0.0
H886 H 0.50126 0.48645 0.72134 0.0
H887 H 0.49943 0.49618 0.61836 0.0
C888 C 0.48461 0.5677 0.43546 0.0
C889 C 0.47034 0.5626 0.44523 0.0
C890 C 0.49619 0.55729 0.44825 0.0
C891 C 0.49381 0.54145 0.47051 0.0
C892 C 0.4796 0.53634 0.48075 0.0
C893 C 0.468 0.54677 0.46812 0.0
C894 C 0.50615 0.53029 0.48362 0.0
C895 C 0.50741 0.5237 0.54071 0.0
C896 C 0.51692 0.52665 0.44105 0.0
C897 C 0.51589 0.53248 0.37907 0.0
C898 C 0.50366 0.52897 0.34473 0.0
C899 C 0.50271 0.53463 0.28654 0.0
C900 C 0.51396 0.5437 0.26203 0.0
C901 C 0.52621 0.5471 0.29563 0.0
C902 C 0.52721 0.54149 0.35387 0.0
C903 C 0.55169 0.4729 0.56222 0.0
C904 C 0.56593 0.47802 0.55192 0.0
C905 C 0.54007 0.48327 0.54969 0.0
C906 C 0.54238 0.4991 0.52718 0.0
C907 C 0.55656 0.50423 0.5165 0.0
C908 C 0.56821 0.49383 0.52883 0.0
C909 C 0.53 0.51021 0.51407 0.0
C910 C 0.52873 0.51679 0.45697 0.0
C911 C 0.51923 0.51384 0.55665 0.0
C912 C 0.52027 0.50804 0.61866 0.0
C913 C 0.5325 0.51158 0.65296 0.0
C914 C 0.53346 0.50596 0.71119 0.0
C915 C 0.52222 0.49689 0.73577 0.0
C916 C 0.50997 0.49346 0.70222 0.0
C917 C 0.50896 0.49904 0.64394 0.0
H918 H 0.52299 0.49254 0.78086 0.0
H919 H 0.5132 0.54807 0.21698 0.0
loop_
_geom_bond_atom_site_label_1
_geom_bond_atom_site_label_2
_geom_bond_distance
_geom_bond_site_symmetry_2
_ccdc_geom_bond_type
C0 C1 1.264 . S
C0 C5 1.479 . S
C0 C10 1.465 . S
C1 C0 1.264 . S
C1 C3 1.339 . S
C1 H28 0.931 . S
C2 C3 1.395 . S
C2 C4 1.320 . S
C3 C1 1.339 . S
C3 C2 1.395 . S
C3 H29 0.929 . S
C4 C2 1.320 . S
C4 C5 1.405 . S
C4 H30 0.930 . S
C5 C0 1.479 . S
C5 C4 1.405 . S
C5 H31 0.931 . S
U6 O7 2.454 . S
U6 O8 2.458 . S
U6 C9 2.984 . S
U6 C10 2.847 . S
U6 C23 2.882 . S
U6 O24 2.441 . S
U6 O25 2.420 . S
U6 O26 2.455 . S
U6 O27 2.449 . S
O7 U6 2.454 . S
O7 C9 1.353 . S
O8 U6 2.458 . S
O8 C9 1.286 . S
C9 U6 2.984 . S
C9 O7 1.353 . S
C9 O8 1.286 . S
C9 C11 1.363 . S
C10 C0 1.465 . S
C10 U6 2.847 . S
C10 O24 1.249 . S
C10 O25 1.202 . S
C11 C9 1.363 . S
C11 C13 1.408 . S
C11 C16 1.342 . S
C12 C13 1.310 . S
C12 C15 1.461 . S
C12 H32 0.932 . S
C13 C11 1.408 . S
C13 C12 1.310 . S
C13 H33 0.930 . S
C14 C15 1.474 . S
C14 C16 1.285 . S
C14 H34 0.929 . S
C15 C12 1.461 . S
C15 C14 1.474 . S
C16 C11 1.342 . S
C16 C14 1.285 . S
C16 H35 0.930 . S
C17 C20 1.424 . S
C17 C22 1.245 . S
C17 C23 1.428 . S
C18 C21 1.260 . S
C18 C22 1.477 . S
C18 H36 0.932 . S
C19 C20 1.384 . S
C19 C21 1.479 . S
C19 H37 0.929 . S
C20 C17 1.424 . S
C20 C19 1.384 . S
C20 H38 0.928 . S
C21 C18 1.260 . S
C21 C19 1.479 . S
C22 C17 1.245 . S
C22 C18 1.477 . S
C22 H39 0.932 . S
C23 U6 2.882 . S
C23 C17 1.428 . S
C23 O26 1.301 . S
C23 O27 1.282 . S
O24 U6 2.441 . S
O24 C10 1.249 . S
O25 U6 2.420 . S
O25 C10 1.202 . S
O26 U6 2.455 . S
O26 C23 1.301 . S
O27 U6 2.449 . S
O27 C23 1.282 . S
H28 C1 0.931 . S
H29 C3 0.929 . S
H30 C4 0.930 . S
H31 C5 0.931 . S
H32 C12 0.932 . S
H33 C13 0.930 . S
H34 C14 0.929 . S
H35 C16 0.930 . S
H36 C18 0.932 . S
H37 C19 0.929 . S
H38 C20 0.928 . S
H39 C22 0.932 . S
C40 C41 1.264 . S
C40 C45 1.479 . S
C40 C50 1.465 . S
C41 C40 1.264 . S
C41 C43 1.339 . S
C41 H68 0.931 . S
C42 C43 1.395 . S
C42 C44 1.320 . S
C43 C41 1.339 . S
C43 C42 1.395 . S
C43 H69 0.929 . S
C44 C42 1.320 . S
C44 C45 1.405 . S
C44 H70 0.930 . S
C45 C40 1.479 . S
C45 C44 1.405 . S
C45 H71 0.931 . S
U46 O47 2.454 . S
U46 O48 2.458 . S
U46 C49 2.984 . S
U46 C50 2.847 . S
U46 C63 2.882 . S
U46 O64 2.441 . S
U46 O65 2.420 . S
U46 O66 2.455 . S
U46 O67 2.449 . S
O47 U46 2.454 . S
O47 C49 1.353 . S
O48 U46 2.458 . S
O48 C49 1.286 . S
C49 U46 2.984 . S
C49 O47 1.353 . S
C49 O48 1.286 . S
C49 C51 1.363 . S
C50 C40 1.465 . S
C50 U46 2.847 . S
C50 O64 1.249 . S
C50 O65 1.202 . S
C51 C49 1.363 . S
C51 C53 1.408 . S
C51 C56 1.342 . S
C52 C53 1.310 . S
C52 C55 1.461 . S
C52 H72 0.932 . S
C53 C51 1.408 . S
C53 C52 1.310 . S
C53 H73 0.930 . S
C54 C55 1.474 . S
C54 C56 1.285 . S
C54 H74 0.929 . S
C55 C52 1.461 . S
C55 C54 1.474 . S
C56 C51 1.342 . S
C56 C54 1.285 . S
C56 H75 0.930 . S
C57 C60 1.424 . S
C57 C62 1.245 . S
C57 C63 1.428 . S
C58 C61 1.260 . S
C58 C62 1.477 . S
C58 H76 0.932 . S
C59 C60 1.384 . S
C59 C61 1.479 . S
C59 H77 0.929 . S
C60 C57 1.424 . S
C60 C59 1.384 . S
C60 H78 0.928 . S
C61 C58 1.260 . S
C61 C59 1.479 . S
C62 C57 1.245 . S
C62 C58 1.477 . S
C62 H79 0.932 . S
C63 U46 2.882 . S
C63 C57 1.428 . S
C63 O66 1.301 . S
C63 O67 1.282 . S
O64 U46 2.441 . S
O64 C50 1.249 . S
O65 U46 2.420 . S
O65 C50 1.202 . S
O66 U46 2.455 . S
O66 C63 1.301 . S
O67 U46 2.449 . S
O67 C63 1.282 . S
H68 C41 0.931 . S
H69 C43 0.929 . S
H70 C44 0.930 . S
H71 C45 0.931 . S
H72 C52 0.932 . S
H73 C53 0.930 . S
H74 C54 0.929 . S
H75 C56 0.930 . S
H76 C58 0.932 . S
H77 C59 0.929 . S
H78 C60 0.928 . S
H79 C62 0.932 . S
C80 C81 1.264 . S
C80 C85 1.479 . S
C80 C90 1.465 . S
C81 C80 1.264 . S
C81 C83 1.339 . S
C81 H108 0.931 . S
C82 C83 1.395 . S
C82 C84 1.320 . S
C83 C81 1.339 . S
C83 C82 1.395 . S
C83 H109 0.929 . S
C84 C82 1.320 . S
C84 C85 1.405 . S
C84 H110 0.930 . S
C85 C80 1.479 . S
C85 C84 1.405 . S
C85 H111 0.931 . S
U86 O87 2.454 . S
U86 O88 2.458 . S
U86 C89 2.984 . S
U86 C90 2.847 . S
U86 C103 2.882 . S
U86 O104 2.441 . S
U86 O105 2.420 . S
U86 O106 2.455 . S
U86 O107 2.449 . S
O87 U86 2.454 . S
O87 C89 1.353 . S
O88 U86 2.458 . S
O88 C89 1.286 . S
C89 U86 2.984 . S
C89 O87 1.353 . S
C89 O88 1.286 . S
C89 C91 1.363 . S
C90 C80 1.465 . S
C90 U86 2.847 . S
C90 O104 1.249 . S
C90 O105 1.202 . S
C91 C89 1.363 . S
C91 C93 1.408 . S
C91 C96 1.342 . S
C92 C93 1.310 . S
C92 C95 1.461 . S
C92 H112 0.932 . S
C93 C91 1.408 . S
C93 C92 1.310 . S
C93 H113 0.930 . S
C94 C95 1.474 . S
C94 C96 1.285 . S
C94 H114 0.929 . S
C95 C92 1.461 . S
C95 C94 1.474 . S
C96 C91 1.342 . S
C96 C94 1.285 . S
C96 H115 0.930 . S
C97 C100 1.424 . S
C97 C102 1.245 . S
C97 C103 1.428 . S
C98 C101 1.260 . S
C98 C102 1.477 . S
C98 H116 0.932 . S
C99 C100 1.384 . S
C99 C101 1.479 . S
C99 H117 0.929 . S
C100 C97 1.424 . S
C100 C99 1.384 . S
C100 H118 0.928 . S
C101 C98 1.260 . S
C101 C99 1.479 . S
C102 C97 1.245 . S
C102 C98 1.477 . S
C102 H119 0.932 . S
C103 U86 2.882 . S
C103 C97 1.428 . S
C103 O106 1.301 . S
C103 O107 1.282 . S
O104 U86 2.441 . S
O104 C90 1.249 . S
O105 U86 2.420 . S
O105 C90 1.202 . S
O106 U86 2.455 . S
O106 C103 1.301 . S
O107 U86 2.449 . S
O107 C103 1.282 . S
H108 C81 0.931 . S
H109 C83 0.929 . S
H110 C84 0.930 . S
H111 C85 0.931 . S
H112 C92 0.932 . S
H113 C93 0.930 . S
H114 C94 0.929 . S
H115 C96 0.930 . S
H116 C98 0.932 . S
H117 C99 0.929 . S
H118 C100 0.928 . S
H119 C102 0.932 . S
C120 C121 1.264 . S
C120 C125 1.479 . S
C120 C130 1.465 . S
C121 C120 1.264 . S
C121 C123 1.339 . S
C121 H148 0.931 . S
C122 C123 1.395 . S
C122 C124 1.320 . S
C123 C121 1.339 . S
C123 C122 1.395 . S
C123 H149 0.929 . S
C124 C122 1.320 . S
C124 C125 1.405 . S
C124 H150 0.930 . S
C125 C120 1.479 . S
C125 C124 1.405 . S
C125 H151 0.931 . S
U126 O127 2.454 . S
U126 O128 2.458 . S
U126 C129 2.984 . S
U126 C130 2.847 . S
U126 C143 2.882 . S
U126 O144 2.441 . S
U126 O145 2.420 . S
U126 O146 2.455 . S
U126 O147 2.449 . S
O127 U126 2.454 . S
O127 C129 1.353 . S
O128 U126 2.458 . S
O128 C129 1.286 . S
C129 U126 2.984 . S
C129 O127 1.353 . S
C129 O128 1.286 . S
C129 C131 1.363 . S
C130 C120 1.465 . S
C130 U126 2.847 . S
C130 O144 1.249 . S
C130 O145 1.202 . S
C131 C129 1.363 . S
C131 C133 1.408 . S
C131 C136 1.342 . S
C132 C133 1.310 . S
C132 C135 1.461 . S
C132 H152 0.932 . S
C133 C131 1.408 . S
C133 C132 1.310 . S
C133 H153 0.930 . S
C134 C135 1.474 . S
C134 C136 1.285 . S
C134 H154 0.929 . S
C135 C132 1.461 . S
C135 C134 1.474 . S
C136 C131 1.342 . S
C136 C134 1.285 . S
C136 H155 0.930 . S
C137 C140 1.424 . S
C137 C142 1.245 . S
C137 C143 1.428 . S
C138 C141 1.260 . S
C138 C142 1.477 . S
C138 H156 0.932 . S
C139 C140 1.384 . S
C139 C141 1.479 . S
C139 H157 0.929 . S
C140 C137 1.424 . S
C140 C139 1.384 . S
C140 H158 0.928 . S
C141 C138 1.260 . S
C141 C139 1.479 . S
C142 C137 1.245 . S
C142 C138 1.477 . S
C142 H159 0.932 . S
C143 U126 2.882 . S
C143 C137 1.428 . S
C143 O146 1.301 . S
C143 O147 1.282 . S
O144 U126 2.441 . S
O144 C130 1.249 . S
O145 U126 2.420 . S
O145 C130 1.202 . S
O146 U126 2.455 . S
O146 C143 1.301 . S
O147 U126 2.449 . S
O147 C143 1.282 . S
H148 C121 0.931 . S
H149 C123 0.929 . S
H150 C124 0.930 . S
H151 C125 0.931 . S
H152 C132 0.932 . S
H153 C133 0.930 . S
H154 C134 0.929 . S
H155 C136 0.930 . S
H156 C138 0.932 . S
H157 C139 0.929 . S
H158 C140 0.928 . S
H159 C142 0.932 . S
C160 C161 1.264 . S
C160 C165 1.479 . S
C160 C170 1.465 . S
C161 C160 1.264 . S
C161 C163 1.339 . S
C161 H188 0.931 . S
C162 C163 1.395 . S
C162 C164 1.320 . S
C163 C161 1.339 . S
C163 C162 1.395 . S
C163 H189 0.929 . S
C164 C162 1.320 . S
C164 C165 1.405 . S
C164 H190 0.930 . S
C165 C160 1.479 . S
C165 C164 1.405 . S
C165 H191 0.931 . S
U166 O167 2.454 . S
U166 O168 2.458 . S
U166 C169 2.984 . S
U166 C170 2.847 . S
U166 C183 2.882 . S
U166 O184 2.441 . S
U166 O185 2.420 . S
U166 O186 2.455 . S
U166 O187 2.449 . S
O167 U166 2.454 . S
O167 C169 1.353 . S
O168 U166 2.458 . S
O168 C169 1.286 . S
C169 U166 2.984 . S
C169 O167 1.353 . S
C169 O168 1.286 . S
C169 C171 1.363 . S
C170 C160 1.465 . S
C170 U166 2.847 . S
C170 O184 1.249 . S
C170 O185 1.202 . S
C171 C169 1.363 . S
C171 C173 1.408 . S
C171 C176 1.342 . S
C172 C173 1.310 . S
C172 C175 1.461 . S
C172 H192 0.932 . S
C173 C171 1.408 . S
C173 C172 1.310 . S
C173 H193 0.930 . S
C174 C175 1.474 . S
C174 C176 1.285 . S
C174 H194 0.929 . S
C175 C172 1.461 . S
C175 C174 1.474 . S
C176 C171 1.342 . S
C176 C174 1.285 . S
C176 H195 0.930 . S
C177 C180 1.424 . S
C177 C182 1.245 . S
C177 C183 1.428 . S
C178 C181 1.260 . S
C178 C182 1.477 . S
C178 H196 0.932 . S
C179 C180 1.384 . S
C179 C181 1.479 . S
C179 H197 0.929 . S
C180 C177 1.424 . S
C180 C179 1.384 . S
C180 H198 0.928 . S
C181 C178 1.260 . S
C181 C179 1.479 . S
C182 C177 1.245 . S
C182 C178 1.477 . S
C182 H199 0.932 . S
C183 U166 2.882 . S
C183 C177 1.428 . S
C183 O186 1.301 . S
C183 O187 1.282 . S
O184 U166 2.441 . S
O184 C170 1.249 . S
O185 U166 2.420 . S
O185 C170 1.202 . S
O186 U166 2.455 . S
O186 C183 1.301 . S
O187 U166 2.449 . S
O187 C183 1.282 . S
H188 C161 0.931 . S
H189 C163 0.929 . S
H190 C164 0.930 . S
H191 C165 0.931 . S
H192 C172 0.932 . S
H193 C173 0.930 . S
H194 C174 0.929 . S
H195 C176 0.930 . S
H196 C178 0.932 . S
H197 C179 0.929 . S
H198 C180 0.928 . S
H199 C182 0.932 . S
C200 C201 1.264 . S
C200 C205 1.479 . S
C200 C210 1.465 . S
C201 C200 1.264 . S
C201 C203 1.339 . S
C201 H228 0.931 . S
C202 C203 1.395 . S
C202 C204 1.320 . S
C203 C201 1.339 . S
C203 C202 1.395 . S
C203 H229 0.929 . S
C204 C202 1.320 . S
C204 C205 1.405 . S
C204 H230 0.930 . S
C205 C200 1.479 . S
C205 C204 1.405 . S
C205 H231 0.931 . S
U206 O207 2.454 . S
U206 O208 2.458 . S
U206 C209 2.984 . S
U206 C210 2.847 . S
U206 C223 2.882 . S
U206 O224 2.441 . S
U206 O225 2.420 . S
U206 O226 2.455 . S
U206 O227 2.449 . S
O207 U206 2.454 . S
O207 C209 1.353 . S
O208 U206 2.458 . S
O208 C209 1.286 . S
C209 U206 2.984 . S
C209 O207 1.353 . S
C209 O208 1.286 . S
C209 C211 1.363 . S
C210 C200 1.465 . S
C210 U206 2.847 . S
C210 O224 1.249 . S
C210 O225 1.202 . S
C211 C209 1.363 . S
C211 C213 1.408 . S
C211 C216 1.342 . S
C212 C213 1.310 . S
C212 C215 1.461 . S
C212 H232 0.932 . S
C213 C211 1.408 . S
C213 C212 1.310 . S
C213 H233 0.930 . S
C214 C215 1.474 . S
C214 C216 1.285 . S
C214 H234 0.929 . S
C215 C212 1.461 . S
C215 C214 1.474 . S
C216 C211 1.342 . S
C216 C214 1.285 . S
C216 H235 0.930 . S
C217 C220 1.424 . S
C217 C222 1.245 . S
C217 C223 1.428 . S
C218 C221 1.260 . S
C218 C222 1.477 . S
C218 H236 0.932 . S
C219 C220 1.384 . S
C219 C221 1.479 . S
C219 H237 0.929 . S
C220 C217 1.424 . S
C220 C219 1.384 . S
C220 H238 0.928 . S
C221 C218 1.260 . S
C221 C219 1.479 . S
C222 C217 1.245 . S
C222 C218 1.477 . S
C222 H239 0.932 . S
C223 U206 2.882 . S
C223 C217 1.428 . S
C223 O226 1.301 . S
C223 O227 1.282 . S
O224 U206 2.441 . S
O224 C210 1.249 . S
O225 U206 2.420 . S
O225 C210 1.202 . S
O226 U206 2.455 . S
O226 C223 1.301 . S
O227 U206 2.449 . S
O227 C223 1.282 . S
H228 C201 0.931 . S
H229 C203 0.929 . S
H230 C204 0.930 . S
H231 C205 0.931 . S
H232 C212 0.932 . S
H233 C213 0.930 . S
H234 C214 0.929 . S
H235 C216 0.930 . S
H236 C218 0.932 . S
H237 C219 0.929 . S
H238 C220 0.928 . S
H239 C222 0.932 . S
C240 C241 1.264 . S
C240 C245 1.479 . S
C240 C250 1.465 . S
C241 C240 1.264 . S
C241 C243 1.339 . S
C241 H268 0.931 . S
C242 C243 1.395 . S
C242 C244 1.320 . S
C243 C241 1.339 . S
C243 C242 1.395 . S
C243 H269 0.929 . S
C244 C242 1.320 . S
C244 C245 1.405 . S
C244 H270 0.930 . S
C245 C240 1.479 . S
C245 C244 1.405 . S
C245 H271 0.931 . S
U246 O247 2.454 . S
U246 O248 2.458 . S
U246 C249 2.984 . S
U246 C250 2.847 . S
U246 C263 2.882 . S
U246 O264 2.441 . S
U246 O265 2.420 . S
U246 O266 2.455 . S
U246 O267 2.449 . S
O247 U246 2.454 . S
O247 C249 1.353 . S
O248 U246 2.458 . S
O248 C249 1.286 . S
C249 U246 2.984 . S
C249 O247 1.353 . S
C249 O248 1.286 . S
C249 C251 1.363 . S
C250 C240 1.465 . S
C250 U246 2.847 . S
C250 O264 1.249 . S
C250 O265 1.202 . S
C251 C249 1.363 . S
C251 C253 1.408 . S
C251 C256 1.342 . S
C252 C253 1.310 . S
C252 C255 1.461 . S
C252 H272 0.932 . S
C253 C251 1.408 . S
C253 C252 1.310 . S
C253 H273 0.930 . S
C254 C255 1.474 . S
C254 C256 1.285 . S
C254 H274 0.929 . S
C255 C252 1.461 . S
C255 C254 1.474 . S
C256 C251 1.342 . S
C256 C254 1.285 . S
C256 H275 0.930 . S
C257 C260 1.424 . S
C257 C262 1.245 . S
C257 C263 1.428 . S
C258 C261 1.260 . S
C258 C262 1.477 . S
C258 H276 0.932 . S
C259 C260 1.384 . S
C259 C261 1.479 . S
C259 H277 0.929 . S
C260 C257 1.424 . S
C260 C259 1.384 . S
C260 H278 0.928 . S
C261 C258 1.260 . S
C261 C259 1.479 . S
C262 C257 1.245 . S
C262 C258 1.477 . S
C262 H279 0.932 . S
C263 U246 2.882 . S
C263 C257 1.428 . S
C263 O266 1.301 . S
C263 O267 1.282 . S
O264 U246 2.441 . S
O264 C250 1.249 . S
O265 U246 2.420 . S
O265 C250 1.202 . S
O266 U246 2.455 . S
O266 C263 1.301 . S
O267 U246 2.449 . S
O267 C263 1.282 . S
H268 C241 0.931 . S
H269 C243 0.929 . S
H270 C244 0.930 . S
H271 C245 0.931 . S
H272 C252 0.932 . S
H273 C253 0.930 . S
H274 C254 0.929 . S
H275 C256 0.930 . S
H276 C258 0.932 . S
H277 C259 0.929 . S
H278 C260 0.928 . S
H279 C262 0.932 . S
C280 C281 1.264 . S
C280 C285 1.479 . S
C280 C290 1.465 . S
C281 C280 1.264 . S
C281 C283 1.339 . S
C281 H308 0.931 . S
C282 C283 1.395 . S
C282 C284 1.320 . S
C283 C281 1.339 . S
C283 C282 1.395 . S
C283 H309 0.929 . S
C284 C282 1.320 . S
C284 C285 1.405 . S
C284 H310 0.930 . S
C285 C280 1.479 . S
C285 C284 1.405 . S
C285 H311 0.931 . S
U286 O287 2.454 . S
U286 O288 2.458 . S
U286 C289 2.984 . S
U286 C290 2.847 . S
U286 C303 2.882 . S
U286 O304 2.441 . S
U286 O305 2.420 . S
U286 O306 2.455 . S
U286 O307 2.449 . S
O287 U286 2.454 . S
O287 C289 1.353 . S
O288 U286 2.458 . S
O288 C289 1.286 . S
C289 U286 2.984 . S
C289 O287 1.353 . S
C289 O288 1.286 . S
C289 C291 1.363 . S
C290 C280 1.465 . S
C290 U286 2.847 . S
C290 O304 1.249 . S
C290 O305 1.202 . S
C291 C289 1.363 . S
C291 C293 1.408 . S
C291 C296 1.342 . S
C292 C293 1.310 . S
C292 C295 1.461 . S
C292 H312 0.932 . S
C293 C291 1.408 . S
C293 C292 1.310 . S
C293 H313 0.930 . S
C294 C295 1.474 . S
C294 C296 1.285 . S
C294 H314 0.929 . S
C295 C292 1.461 . S
C295 C294 1.474 . S
C296 C291 1.342 . S
C296 C294 1.285 . S
C296 H315 0.930 . S
C297 C300 1.424 . S
C297 C302 1.245 . S
C297 C303 1.428 . S
C298 C301 1.260 . S
C298 C302 1.477 . S
C298 H316 0.932 . S
C299 C300 1.384 . S
C299 C301 1.479 . S
C299 H317 0.929 . S
C300 C297 1.424 . S
C300 C299 1.384 . S
C300 H318 0.928 . S
C301 C298 1.260 . S
C301 C299 1.479 . S
C302 C297 1.245 . S
C302 C298 1.477 . S
C302 H319 0.932 . S
C303 U286 2.882 . S
C303 C297 1.428 . S
C303 O306 1.301 . S
C303 O307 1.282 . S
O304 U286 2.441 . S
O304 C290 1.249 . S
O305 U286 2.420 . S
O305 C290 1.202 . S
O306 U286 2.455 . S
O306 C303 1.301 . S
O307 U286 2.449 . S
O307 C303 1.282 . S
H308 C281 0.931 . S
H309 C283 0.929 . S
H310 C284 0.930 . S
H311 C285 0.931 . S
H312 C292 0.932 . S
H313 C293 0.930 . S
H314 C294 0.929 . S
H315 C296 0.930 . S
H316 C298 0.932 . S
H317 C299 0.929 . S
H318 C300 0.928 . S
H319 C302 0.932 . S
H320 C338 0.951 . S
H321 C340 0.951 . S
H322 C342 0.950 . S
H323 C343 0.950 . S
H324 C345 0.950 . S
H325 C348 0.950 . S
H326 C349 0.950 . S
H327 C351 0.950 . S
H328 C352 0.950 . S
H329 C353 0.951 . S
H330 C355 0.951 . S
H331 C357 0.950 . S
H332 C358 0.950 . S
H333 C360 0.950 . S
H334 C363 0.950 . S
H335 C364 0.950 . S
H336 C366 0.950 . S
H337 C367 0.950 . S
C338 H320 0.951 . S
C338 C339 1.366 . S
C338 C340 1.388 . S
C339 C338 1.366 . S
C339 C343 1.385 . S
C340 H321 0.951 . S
C340 C338 1.388 . S
C340 C341 1.366 . S
C341 C340 1.366 . S
C341 C342 1.414 . S
C341 C344 1.499 . S
C342 H322 0.950 . S
C342 C341 1.414 . S
C342 C343 1.374 . S
C343 H323 0.950 . S
C343 C339 1.385 . S
C343 C342 1.374 . S
C344 C341 1.499 . S
C344 C345 1.373 . S
C344 C346 1.389 . S
C345 H324 0.950 . S
C345 C344 1.373 . S
C345 C361 1.377 . S
C346 C344 1.389 . S
C346 C347 1.524 . S
C346 C360 1.377 . S
C347 C346 1.524 . S
C347 C348 1.397 . S
C347 C352 1.363 . S
C348 H325 0.950 . S
C348 C347 1.397 . S
C348 C349 1.334 . S
C349 H326 0.950 . S
C349 C348 1.334 . S
C349 C350 1.287 . S
C350 C349 1.287 . S
C350 C351 1.524 . S
C350 H369 0.913 . S
C351 H327 0.950 . S
C351 C350 1.524 . S
C351 C352 1.415 . S
C352 H328 0.950 . S
C352 C347 1.363 . S
C352 C351 1.415 . S
C353 H329 0.951 . S
C353 C354 1.366 . S
C353 C355 1.388 . S
C354 C353 1.366 . S
C354 C358 1.385 . S
C355 H330 0.951 . S
C355 C353 1.388 . S
C355 C356 1.366 . S
C356 C355 1.366 . S
C356 C357 1.414 . S
C356 C359 1.499 . S
C357 H331 0.950 . S
C357 C356 1.414 . S
C357 C358 1.374 . S
C358 H332 0.950 . S
C358 C354 1.385 . S
C358 C357 1.374 . S
C359 C356 1.499 . S
C359 C360 1.373 . S
C359 C361 1.389 . S
C360 H333 0.950 . S
C360 C346 1.377 . S
C360 C359 1.373 . S
C361 C345 1.377 . S
C361 C359 1.389 . S
C361 C362 1.524 . S
C362 C361 1.524 . S
C362 C363 1.397 . S
C362 C367 1.363 . S
C363 H334 0.950 . S
C363 C362 1.397 . S
C363 C364 1.334 . S
C364 H335 0.950 . S
C364 C363 1.334 . S
C364 C365 1.287 . S
C365 C364 1.287 . S
C365 C366 1.524 . S
C365 H368 0.999 . S
C366 H336 0.950 . S
C366 C365 1.524 . S
C366 C367 1.415 . S
C367 H337 0.950 . S
C367 C362 1.363 . S
C367 C366 1.415 . S
H368 C365 0.999 . S
H369 C350 0.913 . S
H370 C388 0.951 . S
H371 C390 0.951 . S
H372 C392 0.950 . S
H373 C393 0.950 . S
H374 C395 0.950 . S
H375 C398 0.950 . S
H376 C399 0.950 . S
H377 C401 0.950 . S
H378 C402 0.950 . S
H379 C403 0.951 . S
H380 C405 0.951 . S
H381 C407 0.950 . S
H382 C408 0.950 . S
H383 C410 0.950 . S
H384 C413 0.950 . S
H385 C414 0.950 . S
H386 C416 0.950 . S
H387 C417 0.950 . S
C388 H370 0.951 . S
C388 C389 1.366 . S
C388 C390 1.388 . S
C389 C388 1.366 . S
C389 C393 1.385 . S
C390 H371 0.951 . S
C390 C388 1.388 . S
C390 C391 1.366 . S
C391 C390 1.366 . S
C391 C392 1.414 . S
C391 C394 1.499 . S
C392 H372 0.950 . S
C392 C391 1.414 . S
C392 C393 1.374 . S
C393 H373 0.950 . S
C393 C389 1.385 . S
C393 C392 1.374 . S
C394 C391 1.499 . S
C394 C395 1.373 . S
C394 C396 1.389 . S
C395 H374 0.950 . S
C395 C394 1.373 . S
C395 C411 1.377 . S
C396 C394 1.389 . S
C396 C397 1.524 . S
C396 C410 1.377 . S
C397 C396 1.524 . S
C397 C398 1.397 . S
C397 C402 1.363 . S
C398 H375 0.950 . S
C398 C397 1.397 . S
C398 C399 1.334 . S
C399 H376 0.950 . S
C399 C398 1.334 . S
C399 C400 1.287 . S
C400 C399 1.287 . S
C400 C401 1.524 . S
C400 H419 0.913 . S
C401 H377 0.950 . S
C401 C400 1.524 . S
C401 C402 1.415 . S
C402 H378 0.950 . S
C402 C397 1.363 . S
C402 C401 1.415 . S
C403 H379 0.951 . S
C403 C404 1.366 . S
C403 C405 1.388 . S
C404 C403 1.366 . S
C404 C408 1.385 . S
C405 H380 0.951 . S
C405 C403 1.388 . S
C405 C406 1.366 . S
C406 C405 1.366 . S
C406 C407 1.414 . S
C406 C409 1.499 . S
C407 H381 0.950 . S
C407 C406 1.414 . S
C407 C408 1.374 . S
C408 H382 0.950 . S
C408 C404 1.385 . S
C408 C407 1.374 . S
C409 C406 1.499 . S
C409 C410 1.373 . S
C409 C411 1.389 . S
C410 H383 0.950 . S
C410 C396 1.377 . S
C410 C409 1.373 . S
C411 C395 1.377 . S
C411 C409 1.389 . S
C411 C412 1.524 . S
C412 C411 1.524 . S
C412 C413 1.397 . S
C412 C417 1.363 . S
C413 H384 0.950 . S
C413 C412 1.397 . S
C413 C414 1.334 . S
C414 H385 0.950 . S
C414 C413 1.334 . S
C414 C415 1.287 . S
C415 C414 1.287 . S
C415 C416 1.524 . S
C415 H418 0.999 . S
C416 H386 0.950 . S
C416 C415 1.524 . S
C416 C417 1.415 . S
C417 H387 0.950 . S
C417 C412 1.363 . S
C417 C416 1.415 . S
H418 C415 0.999 . S
H419 C400 0.913 . S
H420 C438 0.951 . S
H421 C440 0.951 . S
H422 C442 0.950 . S
H423 C443 0.950 . S
H424 C445 0.950 . S
H425 C448 0.950 . S
H426 C449 0.950 . S
H427 C451 0.950 . S
H428 C452 0.950 . S
H429 C453 0.951 . S
H430 C455 0.951 . S
H431 C457 0.950 . S
H432 C458 0.950 . S
H433 C460 0.950 . S
H434 C463 0.950 . S
H435 C464 0.950 . S
H436 C466 0.950 . S
H437 C467 0.950 . S
C438 H420 0.951 . S
C438 C439 1.366 . S
C438 C440 1.388 . S
C439 C438 1.366 . S
C439 C443 1.385 . S
C440 H421 0.951 . S
C440 C438 1.388 . S
C440 C441 1.366 . S
C441 C440 1.366 . S
C441 C442 1.414 . S
C441 C444 1.499 . S
C442 H422 0.950 . S
C442 C441 1.414 . S
C442 C443 1.374 . S
C443 H423 0.950 . S
C443 C439 1.385 . S
C443 C442 1.374 . S
C444 C441 1.499 . S
C444 C445 1.373 . S
C444 C446 1.389 . S
C445 H424 0.950 . S
C445 C444 1.373 . S
C445 C461 1.377 . S
C446 C444 1.389 . S
C446 C447 1.524 . S
C446 C460 1.377 . S
C447 C446 1.524 . S
C447 C448 1.397 . S
C447 C452 1.363 . S
C448 H425 0.950 . S
C448 C447 1.397 . S
C448 C449 1.334 . S
C449 H426 0.950 . S
C449 C448 1.334 . S
C449 C450 1.287 . S
C450 C449 1.287 . S
C450 C451 1.524 . S
C450 H469 0.913 . S
C451 H427 0.950 . S
C451 C450 1.524 . S
C451 C452 1.415 . S
C452 H428 0.950 . S
C452 C447 1.363 . S
C452 C451 1.415 . S
C453 H429 0.951 . S
C453 C454 1.366 . S
C453 C455 1.388 . S
C454 C453 1.366 . S
C454 C458 1.385 . S
C455 H430 0.951 . S
C455 C453 1.388 . S
C455 C456 1.366 . S
C456 C455 1.366 . S
C456 C457 1.414 . S
C456 C459 1.499 . S
C457 H431 0.950 . S
C457 C456 1.414 . S
C457 C458 1.374 . S
C458 H432 0.950 . S
C458 C454 1.385 . S
C458 C457 1.374 . S
C459 C456 1.499 . S
C459 C460 1.373 . S
C459 C461 1.389 . S
C460 H433 0.950 . S
C460 C446 1.377 . S
C460 C459 1.373 . S
C461 C445 1.377 . S
C461 C459 1.389 . S
C461 C462 1.524 . S
C462 C461 1.524 . S
C462 C463 1.397 . S
C462 C467 1.363 . S
C463 H434 0.950 . S
C463 C462 1.397 . S
C463 C464 1.334 . S
C464 H435 0.950 . S
C464 C463 1.334 . S
C464 C465 1.287 . S
C465 C464 1.287 . S
C465 C466 1.524 . S
C465 H468 0.999 . S
C466 H436 0.950 . S
C466 C465 1.524 . S
C466 C467 1.415 . S
C467 H437 0.950 . S
C467 C462 1.363 . S
C467 C466 1.415 . S
H468 C465 0.999 . S
H469 C450 0.913 . S
H470 C488 0.951 . S
H471 C490 0.951 . S
H472 C492 0.950 . S
H473 C493 0.950 . S
H474 C495 0.950 . S
H475 C498 0.950 . S
H476 C499 0.950 . S
H477 C501 0.950 . S
H478 C502 0.950 . S
H479 C503 0.951 . S
H480 C505 0.951 . S
H481 C507 0.950 . S
H482 C508 0.950 . S
H483 C510 0.950 . S
H484 C513 0.950 . S
H485 C514 0.950 . S
H486 C516 0.950 . S
H487 C517 0.950 . S
C488 H470 0.951 . S
C488 C489 1.366 . S
C488 C490 1.388 . S
C489 C488 1.366 . S
C489 C493 1.385 . S
C490 H471 0.951 . S
C490 C488 1.388 . S
C490 C491 1.366 . S
C491 C490 1.366 . S
C491 C492 1.414 . S
C491 C494 1.499 . S
C492 H472 0.950 . S
C492 C491 1.414 . S
C492 C493 1.374 . S
C493 H473 0.950 . S
C493 C489 1.385 . S
C493 C492 1.374 . S
C494 C491 1.499 . S
C494 C495 1.373 . S
C494 C496 1.389 . S
C495 H474 0.950 . S
C495 C494 1.373 . S
C495 C511 1.377 . S
C496 C494 1.389 . S
C496 C497 1.524 . S
C496 C510 1.377 . S
C497 C496 1.524 . S
C497 C498 1.397 . S
C497 C502 1.363 . S
C498 H475 0.950 . S
C498 C497 1.397 . S
C498 C499 1.334 . S
C499 H476 0.950 . S
C499 C498 1.334 . S
C499 C500 1.287 . S
C500 C499 1.287 . S
C500 C501 1.524 . S
C500 H519 0.913 . S
C501 H477 0.950 . S
C501 C500 1.524 . S
C501 C502 1.415 . S
C502 H478 0.950 . S
C502 C497 1.363 . S
C502 C501 1.415 . S
C503 H479 0.951 . S
C503 C504 1.366 . S
C503 C505 1.388 . S
C504 C503 1.366 . S
C504 C508 1.385 . S
C505 H480 0.951 . S
C505 C503 1.388 . S
C505 C506 1.366 . S
C506 C505 1.366 . S
C506 C507 1.414 . S
C506 C509 1.499 . S
C507 H481 0.950 . S
C507 C506 1.414 . S
C507 C508 1.374 . S
C508 H482 0.950 . S
C508 C504 1.385 . S
C508 C507 1.374 . S
C509 C506 1.499 . S
C509 C510 1.373 . S
C509 C511 1.389 . S
C510 H483 0.950 . S
C510 C496 1.377 . S
C510 C509 1.373 . S
C511 C495 1.377 . S
C511 C509 1.389 . S
C511 C512 1.524 . S
C512 C511 1.524 . S
C512 C513 1.397 . S
C512 C517 1.363 . S
C513 H484 0.950 . S
C513 C512 1.397 . S
C513 C514 1.334 . S
C514 H485 0.950 . S
C514 C513 1.334 . S
C514 C515 1.287 . S
C515 C514 1.287 . S
C515 C516 1.524 . S
C515 H518 0.999 . S
C516 H486 0.950 . S
C516 C515 1.524 . S
C516 C517 1.415 . S
C517 H487 0.950 . S
C517 C512 1.363 . S
C517 C516 1.415 . S
H518 C515 0.999 . S
H519 C500 0.913 . S
H520 C538 0.951 . S
H521 C540 0.951 . S
H522 C542 0.950 . S
H523 C543 0.950 . S
H524 C545 0.950 . S
H525 C548 0.950 . S
H526 C549 0.950 . S
H527 C551 0.950 1_556 S
H528 C552 0.950 . S
H529 C553 0.951 . S
H530 C555 0.951 . S
H531 C557 0.950 . S
H532 C558 0.950 . S
H533 C560 0.950 . S
H534 C563 0.950 . S
H535 C564 0.950 . S
H536 C566 0.950 . S
H537 C567 0.950 . S
C538 H520 0.951 . S
C538 C539 1.366 . S
C538 C540 1.388 . S
C539 C538 1.366 . S
C539 C543 1.385 . S
C540 H521 0.951 . S
C540 C538 1.388 . S
C540 C541 1.366 . S
C541 C540 1.366 . S
C541 C542 1.414 . S
C541 C544 1.499 . S
C542 H522 0.950 . S
C542 C541 1.414 . S
C542 C543 1.374 . S
C543 H523 0.950 . S
C543 C539 1.385 . S
C543 C542 1.374 . S
C544 C541 1.499 . S
C544 C545 1.373 . S
C544 C546 1.389 1_565 S
C545 H524 0.950 . S
C545 C544 1.373 . S
C545 C561 1.377 . S
C546 C544 1.389 1_545 S
C546 C547 1.524 . S
C546 C560 1.377 . S
C547 C546 1.524 . S
C547 C548 1.397 . S
C547 C552 1.363 . S
C548 H525 0.950 . S
C548 C547 1.397 . S
C548 C549 1.334 . S
C549 H526 0.950 . S
C549 C548 1.334 . S
C549 C550 1.287 . S
C550 C549 1.287 . S
C550 C551 1.524 . S
C550 H569 0.913 . S
C551 H527 0.950 1_554 S
C551 C550 1.524 . S
C551 C552 1.415 . S
C552 H528 0.950 . S
C552 C547 1.363 . S
C552 C551 1.415 . S
C553 H529 0.951 . S
C553 C554 1.366 . S
C553 C555 1.388 . S
C554 C553 1.366 . S
C554 C558 1.385 . S
C555 H530 0.951 . S
C555 C553 1.388 . S
C555 C556 1.366 . S
C556 C555 1.366 . S
C556 C557 1.414 . S
C556 C559 1.499 . S
C557 H531 0.950 . S
C557 C556 1.414 . S
C557 C558 1.374 . S
C558 H532 0.950 . S
C558 C554 1.385 . S
C558 C557 1.374 . S
C559 C556 1.499 . S
C559 C560 1.373 . S
C559 C561 1.389 1_545 S
C560 H533 0.950 . S
C560 C546 1.377 . S
C560 C559 1.373 . S
C561 C545 1.377 . S
C561 C559 1.389 1_565 S
C561 C562 1.524 . S
C562 C561 1.524 . S
C562 C563 1.397 . S
C562 C567 1.363 . S
C563 H534 0.950 . S
C563 C562 1.397 . S
C563 C564 1.334 . S
C564 H535 0.950 . S
C564 C563 1.334 . S
C564 C565 1.287 . S
C565 C564 1.287 . S
C565 C566 1.524 . S
C565 H568 0.999 . S
C566 H536 0.950 . S
C566 C565 1.524 . S
C566 C567 1.415 . S
C567 H537 0.950 . S
C567 C562 1.363 . S
C567 C566 1.415 . S
H568 C565 0.999 . S
H569 C550 0.913 . S
H570 C588 0.951 . S
H571 C590 0.951 . S
H572 C592 0.950 . S
H573 C593 0.950 . S
H574 C595 0.950 . S
H575 C598 0.950 . S
H576 C599 0.950 . S
H577 C601 0.950 . S
H578 C602 0.950 . S
H579 C603 0.951 . S
H580 C605 0.951 . S
H581 C607 0.950 . S
H582 C608 0.950 . S
H583 C610 0.950 . S
H584 C613 0.950 . S
H585 C614 0.950 . S
H586 C616 0.950 . S
H587 C617 0.950 . S
C588 H570 0.951 . S
C588 C589 1.366 . S
C588 C590 1.388 . S
C589 C588 1.366 . S
C589 C593 1.385 . S
C590 H571 0.951 . S
C590 C588 1.388 . S
C590 C591 1.366 . S
C591 C590 1.366 . S
C591 C592 1.414 . S
C591 C594 1.499 . S
C592 H572 0.950 . S
C592 C591 1.414 . S
C592 C593 1.374 . S
C593 H573 0.950 . S
C593 C589 1.385 . S
C593 C592 1.374 . S
C594 C591 1.499 . S
C594 C595 1.373 . S
C594 C596 1.389 . S
C595 H574 0.950 . S
C595 C594 1.373 . S
C595 C611 1.377 . S
C596 C594 1.389 . S
C596 C597 1.524 . S
C596 C610 1.377 . S
C597 C596 1.524 . S
C597 C598 1.397 . S
C597 C602 1.363 . S
C598 H575 0.950 . S
C598 C597 1.397 . S
C598 C599 1.334 . S
C599 H576 0.950 . S
C599 C598 1.334 . S
C599 C600 1.287 . S
C600 C599 1.287 . S
C600 C601 1.524 . S
C600 H619 0.913 . S
C601 H577 0.950 . S
C601 C600 1.524 . S
C601 C602 1.415 . S
C602 H578 0.950 . S
C602 C597 1.363 . S
C602 C601 1.415 . S
C603 H579 0.951 . S
C603 C604 1.366 . S
C603 C605 1.388 . S
C604 C603 1.366 . S
C604 C608 1.385 . S
C605 H580 0.951 . S
C605 C603 1.388 . S
C605 C606 1.366 . S
C606 C605 1.366 . S
C606 C607 1.414 . S
C606 C609 1.499 . S
C607 H581 0.950 . S
C607 C606 1.414 . S
C607 C608 1.374 . S
C608 H582 0.950 . S
C608 C604 1.385 . S
C608 C607 1.374 . S
C609 C606 1.499 . S
C609 C610 1.373 . S
C609 C611 1.389 . S
C610 H583 0.950 . S
C610 C596 1.377 . S
C610 C609 1.373 . S
C611 C595 1.377 . S
C611 C609 1.389 . S
C611 C612 1.524 . S
C612 C611 1.524 . S
C612 C613 1.397 . S
C612 C617 1.363 . S
C613 H584 0.950 . S
C613 C612 1.397 . S
C613 C614 1.334 . S
C614 H585 0.950 . S
C614 C613 1.334 . S
C614 C615 1.287 . S
C615 C614 1.287 . S
C615 C616 1.524 . S
C615 H618 0.999 . S
C616 H586 0.950 . S
C616 C615 1.524 . S
C616 C617 1.415 . S
C617 H587 0.950 . S
C617 C612 1.363 . S
C617 C616 1.415 . S
H618 C615 0.999 . S
H619 C600 0.913 . S
H620 C638 0.951 . S
H621 C640 0.951 . S
H622 C642 0.950 . S
H623 C643 0.950 . S
H624 C645 0.950 . S
H625 C648 0.950 . S
H626 C649 0.950 . S
H627 C651 0.950 . S
H628 C652 0.950 . S
H629 C653 0.951 . S
H630 C655 0.951 . S
H631 C657 0.950 . S
H632 C658 0.950 . S
H633 C660 0.950 . S
H634 C663 0.950 . S
H635 C664 0.950 . S
H636 C666 0.950 1_554 S
H637 C667 0.957 . S
C638 H620 0.951 . S
C638 C639 1.366 . S
C638 C640 1.388 . S
C639 C638 1.366 . S
C639 C643 1.385 . S
C640 H621 0.951 . S
C640 C638 1.388 . S
C640 C641 1.366 . S
C641 C640 1.366 . S
C641 C642 1.414 . S
C641 C644 1.499 . S
C642 H622 0.950 . S
C642 C641 1.414 . S
C642 C643 1.374 . S
C643 H623 0.950 . S
C643 C639 1.385 . S
C643 C642 1.374 . S
C644 C641 1.499 . S
C644 C645 1.373 . S
C644 C646 1.389 1_545 S
C645 H624 0.950 . S
C645 C644 1.373 . S
C645 C661 1.377 . S
C646 C644 1.389 1_565 S
C646 C647 1.524 . S
C646 C660 1.377 . S
C647 C646 1.524 . S
C647 C648 1.397 . S
C647 C652 1.363 . S
C648 H625 0.950 . S
C648 C647 1.397 . S
C648 C649 1.334 . S
C649 H626 0.950 . S
C649 C648 1.334 . S
C649 C650 1.287 . S
C650 C649 1.287 . S
C650 C651 1.524 . S
C650 H669 0.913 . S
C651 H627 0.950 . S
C651 C650 1.524 . S
C651 C652 1.415 . S
C652 H628 0.950 . S
C652 C647 1.363 . S
C652 C651 1.415 . S
C653 H629 0.951 . S
C653 C654 1.366 . S
C653 C655 1.388 . S
C654 C653 1.366 . S
C654 C658 1.385 . S
C655 H630 0.951 . S
C655 C653 1.388 . S
C655 C656 1.366 . S
C656 C655 1.366 . S
C656 C657 1.414 . S
C656 C659 1.499 . S
C657 H631 0.950 . S
C657 C656 1.414 . S
C657 C658 1.374 . S
C658 H632 0.950 . S
C658 C654 1.385 . S
C658 C657 1.374 . S
C659 C656 1.499 . S
C659 C660 1.373 . S
C659 C661 1.389 1_565 S
C660 H633 0.950 . S
C660 C646 1.377 . S
C660 C659 1.373 . S
C661 C645 1.377 . S
C661 C659 1.389 1_545 S
C661 C662 1.524 . S
C662 C661 1.524 . S
C662 C663 1.397 . S
C662 C667 1.363 . S
C663 H634 0.950 . S
C663 C662 1.397 . S
C663 C664 1.334 . S
C664 H635 0.950 . S
C664 C663 1.334 . S
C664 C665 1.287 . S
C665 C664 1.287 . S
C665 C666 1.524 . S
C665 H668 0.999 . S
C666 H636 0.950 1_556 S
C666 C665 1.524 . S
C666 C667 1.415 . S
C667 H637 0.957 . S
C667 C662 1.363 . S
C667 C666 1.415 . S
H668 C665 0.999 . S
H669 C650 0.913 . S
H670 C688 0.951 . S
H671 C690 0.951 . S
H672 C692 0.950 . S
H673 C693 0.950 . S
H674 C695 0.950 . S
H675 C698 0.950 . S
H676 C699 0.950 . S
H677 C701 0.950 . S
H678 C702 0.950 . S
H679 C703 0.951 . S
H680 C705 0.951 . S
H681 C707 0.950 . S
H682 C708 0.950 . S
H683 C710 0.950 . S
H684 C713 0.950 . S
H685 C714 0.950 . S
H686 C716 0.950 . S
H687 C717 0.950 . S
C688 H670 0.951 . S
C688 C689 1.366 . S
C688 C690 1.388 . S
C689 C688 1.366 . S
C689 C693 1.385 . S
C690 H671 0.951 . S
C690 C688 1.388 . S
C690 C691 1.366 . S
C691 C690 1.366 . S
C691 C692 1.414 . S
C691 C694 1.499 . S
C692 H672 0.950 . S
C692 C691 1.414 . S
C692 C693 1.374 . S
C693 H673 0.950 . S
C693 C689 1.385 . S
C693 C692 1.374 . S
C694 C691 1.499 . S
C694 C695 1.373 . S
C694 C696 1.389 . S
C695 H674 0.950 . S
C695 C694 1.373 . S
C695 C711 1.377 . S
C696 C694 1.389 . S
C696 C697 1.524 . S
C696 C710 1.377 . S
C697 C696 1.524 . S
C697 C698 1.397 . S
C697 C702 1.363 . S
C698 H675 0.950 . S
C698 C697 1.397 . S
C698 C699 1.334 . S
C699 H676 0.950 . S
C699 C698 1.334 . S
C699 C700 1.287 . S
C700 C699 1.287 . S
C700 C701 1.524 . S
C700 H719 0.913 . S
C701 H677 0.950 . S
C701 C700 1.524 . S
C701 C702 1.415 . S
C702 H678 0.950 . S
C702 C697 1.363 . S
C702 C701 1.415 . S
C703 H679 0.951 . S
C703 C704 1.366 . S
C703 C705 1.388 . S
C704 C703 1.366 . S
C704 C708 1.385 . S
C705 H680 0.951 . S
C705 C703 1.388 . S
C705 C706 1.366 . S
C706 C705 1.366 . S
C706 C707 1.414 . S
C706 C709 1.499 . S
C707 H681 0.950 . S
C707 C706 1.414 . S
C707 C708 1.374 . S
C708 H682 0.950 . S
C708 C704 1.385 . S
C708 C707 1.374 . S
C709 C706 1.499 . S
C709 C710 1.373 . S
C709 C711 1.389 . S
C710 H683 0.950 . S
C710 C696 1.377 . S
C710 C709 1.373 . S
C711 C695 1.377 . S
C711 C709 1.389 . S
C711 C712 1.524 . S
C712 C711 1.524 . S
C712 C713 1.397 . S
C712 C717 1.363 . S
C713 H684 0.950 . S
C713 C712 1.397 . S
C713 C714 1.334 . S
C714 H685 0.950 . S
C714 C713 1.334 . S
C714 C715 1.287 . S
C715 C714 1.287 . S
C715 C716 1.524 . S
C715 H718 0.999 . S
C716 H686 0.950 . S
C716 C715 1.524 . S
C716 C717 1.415 . S
C717 H687 0.950 . S
C717 C712 1.363 . S
C717 C716 1.415 . S
H718 C715 0.999 . S
H719 C700 0.913 . S
H720 C738 0.951 . S
H721 C740 0.951 . S
H722 C742 0.950 . S
H723 C743 0.950 . S
H724 C745 0.950 . S
H725 C748 0.950 . S
H726 C749 0.950 . S
H727 C751 0.950 . S
H728 C752 0.950 . S
H729 C753 0.951 . S
H730 C755 0.951 . S
H731 C757 0.950 . S
H732 C758 0.950 . S
H733 C760 0.950 . S
H734 C763 0.950 . S
H735 C764 0.950 . S
H736 C766 0.950 . S
H737 C767 0.950 . S
C738 H720 0.951 . S
C738 C739 1.366 1_554 S
C738 C740 1.388 . S
C739 C738 1.366 1_556 S
C739 C743 1.385 . S
C740 H721 0.951 . S
C740 C738 1.388 . S
C740 C741 1.366 1_554 S
C741 C740 1.366 1_556 S
C741 C742 1.414 . S
C741 C744 1.499 . S
C742 H722 0.950 . S
C742 C741 1.414 . S
C742 C743 1.374 . S
C743 H723 0.950 . S
C743 C739 1.385 . S
C743 C742 1.374 . S
C744 C741 1.499 . S
C744 C745 1.373 . S
C744 C746 1.389 1_556 S
C745 H724 0.950 . S
C745 C744 1.373 . S
C745 C761 1.377 1_665 S
C746 C744 1.389 1_554 S
C746 C747 1.524 . S
C746 C760 1.377 1_665 S
C747 C746 1.524 . S
C747 C748 1.397 1_565 S
C747 C752 1.363 . S
C748 H725 0.950 . S
C748 C747 1.397 1_545 S
C748 C749 1.334 . S
C749 H726 0.950 . S
C749 C748 1.334 . S
C749 C750 1.311 . S
C750 C749 1.311 . S
C750 C751 1.494 1_545 S
C750 H769 0.917 . S
C751 H727 0.950 . S
C751 C750 1.494 1_565 S
C751 C752 1.415 . S
C752 H728 0.950 . S
C752 C747 1.363 . S
C752 C751 1.415 . S
C753 H729 0.951 . S
C753 C754 1.366 1_556 S
C753 C755 1.388 . S
C754 C753 1.366 1_554 S
C754 C758 1.385 . S
C755 H730 0.951 . S
C755 C753 1.388 . S
C755 C756 1.366 1_556 S
C756 C755 1.366 1_554 S
C756 C757 1.414 . S
C756 C759 1.499 . S
C757 H731 0.950 . S
C757 C756 1.414 . S
C757 C758 1.374 . S
C758 H732 0.950 . S
C758 C754 1.385 . S
C758 C757 1.374 . S
C759 C756 1.499 . S
C759 C760 1.373 . S
C759 C761 1.389 1_554 S
C760 H733 0.950 . S
C760 C746 1.377 1_445 S
C760 C759 1.373 . S
C761 C745 1.377 1_445 S
C761 C759 1.389 1_556 S
C761 C762 1.524 . S
C762 C761 1.524 . S
C762 C763 1.397 1_545 S
C762 C767 1.363 . S
C763 H734 0.950 . S
C763 C762 1.397 1_565 S
C763 C764 1.334 . S
C764 H735 0.950 . S
C764 C763 1.334 . S
C764 C765 1.311 . S
C765 C764 1.311 . S
C765 C766 1.494 1_565 S
C765 H768 1.002 . S
C766 H736 0.950 . S
C766 C765 1.494 1_545 S
C766 C767 1.415 . S
C767 H737 0.950 . S
C767 C762 1.363 . S
C767 C766 1.415 . S
H768 C765 1.002 . S
H769 C750 0.917 . S
H770 C788 0.951 . S
H771 C790 0.951 . S
H772 C792 0.950 . S
H773 C793 0.950 . S
H774 C795 0.950 . S
H775 C798 0.950 . S
H776 C799 0.950 . S
H777 C801 0.950 . S
H778 C802 0.950 . S
H779 C803 0.951 . S
H780 C805 0.951 . S
H781 C807 0.950 . S
H782 C808 0.950 . S
H783 C810 0.950 . S
H784 C813 0.950 . S
H785 C814 0.950 . S
H786 C816 0.950 . S
H787 C817 0.950 . S
C788 H770 0.951 . S
C788 C789 1.366 1_556 S
C788 C790 1.388 . S
C789 C788 1.366 1_554 S
C789 C793 1.385 . S
C790 H771 0.951 . S
C790 C788 1.388 . S
C790 C791 1.366 1_556 S
C791 C790 1.366 1_554 S
C791 C792 1.414 . S
C791 C794 1.499 . S
C792 H772 0.950 . S
C792 C791 1.414 . S
C792 C793 1.374 . S
C793 H773 0.950 . S
C793 C789 1.385 . S
C793 C792 1.374 . S
C794 C791 1.499 . S
C794 C795 1.373 1_565 S
C794 C796 1.389 1_554 S
C795 H774 0.950 . S
C795 C794 1.373 1_545 S
C795 C811 1.377 . S
C796 C794 1.389 1_556 S
C796 C797 1.524 . S
C796 C810 1.377 . S
C797 C796 1.524 . S
C797 C798 1.397 1_556 S
C797 C802 1.363 . S
C798 H775 0.950 . S
C798 C797 1.397 1_554 S
C798 C799 1.334 . S
C799 H776 0.950 . S
C799 C798 1.334 . S
C799 C800 1.279 1_554 S
C800 C799 1.279 1_556 S
C800 C801 1.533 . S
C800 H819 0.913 1_556 S
C801 H777 0.950 . S
C801 C800 1.533 . S
C801 C802 1.415 . S
C802 H778 0.950 . S
C802 C797 1.363 . S
C802 C801 1.415 . S
C803 H779 0.951 . S
C803 C804 1.366 1_554 S
C803 C805 1.388 . S
C804 C803 1.366 1_556 S
C804 C808 1.385 . S
C805 H780 0.951 . S
C805 C803 1.388 . S
C805 C806 1.366 1_554 S
C806 C805 1.366 1_556 S
C806 C807 1.414 . S
C806 C809 1.499 . S
C807 H781 0.950 . S
C807 C806 1.414 . S
C807 C808 1.374 . S
C808 H782 0.950 . S
C808 C804 1.385 . S
C808 C807 1.374 . S
C809 C806 1.499 . S
C809 C810 1.373 1_545 S
C809 C811 1.389 1_556 S
C810 H783 0.950 . S
C810 C796 1.377 . S
C810 C809 1.373 1_565 S
C811 C795 1.377 . S
C811 C809 1.389 1_554 S
C811 C812 1.524 . S
C812 C811 1.524 . S
C812 C813 1.397 1_554 S
C812 C817 1.363 . S
C813 H784 0.950 . S
C813 C812 1.397 1_556 S
C813 C814 1.334 . S
C814 H785 0.950 . S
C814 C813 1.334 . S
C814 C815 1.279 1_556 S
C815 C814 1.279 1_554 S
C815 C816 1.533 . S
C815 H818 0.999 . S
C816 H786 0.950 . S
C816 C815 1.533 . S
C816 C817 1.415 . S
C817 H787 0.950 . S
C817 C812 1.363 . S
C817 C816 1.415 . S
H818 C815 0.999 . S
H819 C800 0.913 1_554 S
H820 C838 0.951 . S
H821 C840 0.951 . S
H822 C842 0.950 . S
H823 C843 0.950 . S
H824 C845 0.950 . S
H825 C848 0.950 . S
H826 C849 0.950 . S
H827 C851 0.950 . S
H828 C852 0.950 . S
H829 C853 0.951 . S
H830 C855 0.951 . S
H831 C857 0.950 . S
H832 C858 0.950 . S
H833 C860 0.950 . S
H834 C863 0.950 . S
H835 C864 0.950 . S
H836 C866 0.950 . S
H837 C867 0.950 . S
C838 H820 0.951 . S
C838 C839 1.366 . S
C838 C840 1.388 . S
C839 C838 1.366 . S
C839 C843 1.385 . S
C840 H821 0.951 . S
C840 C838 1.388 . S
C840 C841 1.366 . S
C841 C840 1.366 . S
C841 C842 1.414 . S
C841 C844 1.499 . S
C842 H822 0.950 . S
C842 C841 1.414 . S
C842 C843 1.374 . S
C843 H823 0.950 . S
C843 C839 1.385 . S
C843 C842 1.374 . S
C844 C841 1.499 . S
C844 C845 1.373 . S
C844 C846 1.364 1_655 S
C845 H824 0.950 . S
C845 C844 1.373 . S
C845 C861 1.401 . S
C846 C844 1.364 1_455 S
C846 C847 1.527 . S
C846 C860 1.401 . S
C847 C846 1.527 . S
C847 C848 1.397 1_455 S
C847 C852 1.363 . S
C848 H825 0.950 . S
C848 C847 1.397 1_655 S
C848 C849 1.334 . S
C849 H826 0.950 . S
C849 C848 1.334 . S
C849 C850 1.287 1_655 S
C850 C849 1.287 1_455 S
C850 C851 1.524 . S
C850 H869 0.913 . S
C851 H827 0.950 . S
C851 C850 1.524 . S
C851 C852 1.415 . S
C852 H828 0.950 . S
C852 C847 1.363 . S
C852 C851 1.415 . S
C853 H829 0.951 . S
C853 C854 1.366 . S
C853 C855 1.388 . S
C854 C853 1.366 . S
C854 C858 1.385 . S
C855 H830 0.951 . S
C855 C853 1.388 . S
C855 C856 1.366 . S
C856 C855 1.366 . S
C856 C857 1.414 . S
C856 C859 1.499 . S
C857 H831 0.950 . S
C857 C856 1.414 . S
C857 C858 1.374 . S
C858 H832 0.950 . S
C858 C854 1.385 . S
C858 C857 1.374 . S
C859 C856 1.499 . S
C859 C860 1.373 . S
C859 C861 1.364 1_455 S
C860 H833 0.950 . S
C860 C846 1.401 . S
C860 C859 1.373 . S
C861 C845 1.401 . S
C861 C859 1.364 1_655 S
C861 C862 1.527 . S
C862 C861 1.527 . S
C862 C863 1.397 1_655 S
C862 C867 1.363 . S
C863 H834 0.950 . S
C863 C862 1.397 1_455 S
C863 C864 1.334 . S
C864 H835 0.950 . S
C864 C863 1.334 . S
C864 C865 1.287 1_455 S
C865 C864 1.287 1_655 S
C865 C866 1.524 . S
C865 H868 0.999 . S
C866 H836 0.950 . S
C866 C865 1.524 . S
C866 C867 1.415 . S
C867 H837 0.950 . S
C867 C862 1.363 . S
C867 C866 1.415 . S
H868 C865 0.999 . S
H869 C850 0.913 . S
H870 C888 0.951 . S
H871 C890 0.951 . S
H872 C892 0.950 . S
H873 C893 0.950 . S
H874 C895 0.950 . S
H875 C898 0.950 . S
H876 C899 0.950 . S
H877 C901 0.950 . S
H878 C902 0.950 . S
H879 C903 0.951 . S
H880 C905 0.951 . S
H881 C907 0.950 . S
H882 C908 0.950 . S
H883 C910 0.950 . S
H884 C913 0.950 . S
H885 C914 0.950 . S
H886 C916 0.950 . S
H887 C917 0.950 . S
C888 H870 0.951 . S
C888 C889 1.366 . S
C888 C890 1.388 . S
C889 C888 1.366 . S
C889 C893 1.385 . S
C890 H871 0.951 . S
C890 C888 1.388 . S
C890 C891 1.366 . S
C891 C890 1.366 . S
C891 C892 1.414 . S
C891 C894 1.499 . S
C892 H872 0.950 . S
C892 C891 1.414 . S
C892 C893 1.374 . S
C893 H873 0.950 . S
C893 C889 1.385 . S
C893 C892 1.374 . S
C894 C891 1.499 . S
C894 C895 1.373 . S
C894 C896 1.389 . S
C895 H874 0.950 . S
C895 C894 1.373 . S
C895 C911 1.377 . S
C896 C894 1.389 . S
C896 C897 1.524 . S
C896 C910 1.377 . S
C897 C896 1.524 . S
C897 C898 1.397 . S
C897 C902 1.363 . S
C898 H875 0.950 . S
C898 C897 1.397 . S
C898 C899 1.334 . S
C899 H876 0.950 . S
C899 C898 1.334 . S
C899 C900 1.287 . S
C900 C899 1.287 . S
C900 C901 1.524 . S
C900 H919 0.913 . S
C901 H877 0.950 . S
C901 C900 1.524 . S
C901 C902 1.415 . S
C902 H878 0.950 . S
C902 C897 1.363 . S
C902 C901 1.415 . S
C903 H879 0.951 . S
C903 C904 1.366 . S
C903 C905 1.388 . S
C904 C903 1.366 . S
C904 C908 1.385 . S
C905 H880 0.951 . S
C905 C903 1.388 . S
C905 C906 1.366 . S
C906 C905 1.366 . S
C906 C907 1.414 . S
C906 C909 1.499 . S
C907 H881 0.950 . S
C907 C906 1.414 . S
C907 C908 1.374 . S
C908 H882 0.950 . S
C908 C904 1.385 . S
C908 C907 1.374 . S
C909 C906 1.499 . S
C909 C910 1.373 . S
C909 C911 1.389 . S
C910 H883 0.950 . S
C910 C896 1.377 . S
C910 C909 1.373 . S
C911 C895 1.377 . S
C911 C909 1.389 . S
C911 C912 1.524 . S
C912 C911 1.524 . S
C912 C913 1.397 . S
C912 C917 1.363 . S
C913 H884 0.950 . S
C913 C912 1.397 . S
C913 C914 1.334 . S
C914 H885 0.950 . S
C914 C913 1.334 . S
C914 C915 1.287 . S
C915 C914 1.287 . S
C915 C916 1.524 . S
C915 H918 0.999 . S
C916 H886 0.950 . S
C916 C915 1.524 . S
C916 C917 1.415 . S
C917 H887 0.950 . S
C917 C912 1.363 . S
C917 C916 1.415 . S
H918 C915 0.999 . S
H919 C900 0.913 . S
C339 C15 1.501 . S
C354 C95 1.501 . S
C389 C55 1.501 . S
C404 C135 1.501 . S
C439 C175 1.500 . S
C454 C255 1.500 . S
C489 C295 1.500 . S
C504 C215 1.500 . S
C539 C61 1.489 . S
C554 C21 1.489 . S
C589 C141 1.489 . S
C604 C101 1.490 . S
C639 C221 1.488 . S
C654 C181 1.488 . S
C689 C301 1.488 . S
C704 C261 1.488 . S
C739 C162 1.486 . S
C754 C2 1.489 . S
C789 C42 1.489 . S
C804 C202 1.486 . S
C839 C242 1.486 . S
C854 C82 1.489 . S
C889 C122 1.489 . S
C904 C282 1.487 . S
