# Generated by pormake.
# Topology smm, (6)-cn, num edge types: 1
# Building blocks:
#     Node 0, Type 0, BuildingBlock: BETGAK_clean_sbu_0, # of connection points: 6
#     Node 1, Type 0, BuildingBlock: BETGAK_clean_sbu_0, # of connection points: 6
#     Node 2, Type 0, BuildingBlock: BETGAK_clean_sbu_0, # of connection points: 6
#     Node 3, Type 0, BuildingBlock: BETGAK_clean_sbu_0, # of connection points: 6
#     Node 4, Type 0, BuildingBlock: BETGAK_clean_sbu_0, # of connection points: 6
#     Node 5, Type 0, BuildingBlock: BETGAK_clean_sbu_0, # of connection points: 6
#     Node 6, Type 0, BuildingBlock: BETGAK_clean_sbu_0, # of connection points: 6
#     Node 7, Type 0, BuildingBlock: BETGAK_clean_sbu_0, # of connection points: 6
#     Node 8, Type 0, BuildingBlock: BETGAK_clean_sbu_0, # of connection points: 6
#     Edge 9, Type (0, 0), None
#     Edge 10, Type (0, 0), None
#     Edge 11, Type (0, 0), None
#     Edge 12, Type (0, 0), None
#     Edge 13, Type (0, 0), None
#     Edge 14, Type (0, 0), None
#     Edge 15, Type (0, 0), None
#     Edge 16, Type (0, 0), None
#     Edge 17, Type (0, 0), None
#     Edge 18, Type (0, 0), None
#     Edge 19, Type (0, 0), None
#     Edge 20, Type (0, 0), None
#     Edge 21, Type (0, 0), None
#     Edge 22, Type (0, 0), None
#     Edge 23, Type (0, 0), None
#     Edge 24, Type (0, 0), None
#     Edge 25, Type (0, 0), None
#     Edge 26, Type (0, 0), None
#     Edge 27, Type (0, 0), None
#     Edge 28, Type (0, 0), None
#     Edge 29, Type (0, 0), None
#     Edge 30, Type (0, 0), None
#     Edge 31, Type (0, 0), None
#     Edge 32, Type (0, 0), None
#     Edge 33, Type (0, 0), None
#     Edge 34, Type (0, 0), None
#     Edge 35, Type (0, 0), None
# Relax obj value: 0.022
# Max RMSD: 0.094
# Mean RMSD: 0.094
data_MOF--net-smm--node1-BETGAK_clean_sbu_0--edge1-none
_symmetry_space_group_name_H-M    P1
_symmetry_Int_Tables_number       1
_symmetry_cell_setting            triclinic
loop_
_symmetry_equiv_pos_as_xyz
'x, y, z'
_cell_length_a     41.990048
_cell_length_b     41.990236
_cell_length_c     5.8644086
_cell_angle_alpha  90.003661
_cell_angle_beta   89.993796
_cell_angle_gamma 120.0014
loop_
_atom_site_label
_atom_site_type_symbol
_atom_site_fract_x
_atom_site_fract_y
_atom_site_fract_z
_atom_type_partial_charge
La0 La 0.10209 0.25409 0.07403 0.0
La1 La 1.03488 0.17582 0.06279 0.0
C2 C 0.15237 0.31641 0.94531 0.0
C3 C 0.16444 0.35537 0.90099 0.0
C4 C 0.20201 0.38077 0.92057 0.0
C5 C 0.21571 0.41765 0.86573 0.0
C6 C 0.19212 0.43026 0.79065 0.0
C7 C 0.15423 0.4047 0.77076 0.0
C8 C 0.14048 0.36743 0.82486 0.0
C9 C 0.07637 0.22345 0.47155 0.0
C10 C 1.02118 0.24365 0.08235 0.0
C11 C 0.98475 0.11159 0.1608 0.0
C12 C 0.97285 0.07224 0.13451 0.0
C13 C 0.93577 0.04785 0.08533 0.0
C14 C 0.92242 1.01009 0.07242 0.0
C15 C 0.94589 0.99567 0.10858 0.0
C16 C 0.98331 1.02022 0.15518 0.0
C17 C 0.9967 0.05824 0.16828 0.0
C18 C 1.06194 0.20599 0.66544 0.0
C19 C 0.11601 0.18677 0.09763 0.0
O20 O 0.14814 0.30523 0.15776 0.0
O21 O 0.12768 0.29177 0.80826 0.0
O22 O 0.11072 0.24778 0.43825 0.0
O23 O 1.05803 0.21998 0.29602 0.0
O24 O 1.05667 0.26613 0.03886 0.0
O25 O 1.00808 0.20817 0.12532 0.0
O26 O 0.98456 0.12922 0.977 0.0
O27 O 1.01302 0.13162 0.29314 0.0
O28 O 1.02757 0.1821 0.69686 0.0
O29 O 0.07961 0.20934 0.84371 0.0
O30 O 0.08 0.16413 0.11755 0.0
O31 O 0.13018 0.22237 0.05534 0.0
H32 H 0.22099 0.37195 0.97651 0.0
H33 H 0.24497 0.43632 0.88439 0.0
H34 H 0.13525 0.41347 0.7146 0.0
H35 H 0.11135 0.34812 0.80648 0.0
H36 H 0.91687 0.05804 0.05972 0.0
H37 H 0.89351 0.9922 0.03546 0.0
H38 H 1.00218 1.01011 0.1835 0.0
H39 H 1.02547 0.07654 0.20695 0.0
La40 La 0.86359 0.87404 0.07408 0.0
La41 La 0.94187 0.88511 0.06277 0.0
C42 C 0.80128 0.862 0.9454 0.0
C43 C 0.76232 0.83512 0.90106 0.0
C44 C 0.73692 0.84728 0.92069 0.0
C45 C 0.70004 0.82411 0.86582 0.0
C46 C 0.68743 0.78791 0.79066 0.0
C47 C 0.71298 0.77558 0.77073 0.0
C48 C 0.75025 0.7991 0.82485 0.0
C49 C 0.89424 0.87897 0.47158 0.0
C50 C 0.87403 0.80357 0.08231 0.0
C51 C 1.0061 0.89921 0.16074 0.0
C52 C 1.04545 0.92666 0.13445 0.0
C53 C 0.06983 0.91396 0.08519 0.0
C54 C 0.1076 0.93838 0.07229 0.0
C55 C 0.12201 0.97626 0.10853 0.0
C56 C 0.09746 0.98914 0.15519 0.0
C57 C 1.05945 0.96451 0.1683 0.0
C58 C 0.91169 0.88199 0.66545 0.0
C59 C 0.93091 0.95529 0.09771 0.0
O60 O 0.81245 0.86895 0.15785 0.0
O61 O 0.82592 0.86196 0.80833 0.0
O62 O 0.8699 0.88897 0.43831 0.0
O63 O 0.8977 0.86409 0.29602 0.0
O64 O 0.85155 0.81658 0.03888 0.0
O65 O 0.90951 0.82595 0.12526 0.0
O66 O 0.98847 0.88139 0.97693 0.0
O67 O 0.98606 0.90744 0.29311 0.0
O68 O 0.93558 0.87151 0.69682 0.0
O69 O 0.90834 0.89631 0.84374 0.0
O70 O 0.95355 0.94191 0.11757 0.0
O71 O 0.89531 0.93385 0.05544 0.0
H72 H 0.74573 0.87508 0.97668 0.0
H73 H 0.68137 0.8347 0.88451 0.0
H74 H 0.70421 0.74783 0.71451 0.0
H75 H 0.76956 0.78927 0.80643 0.0
H76 H 1.05964 0.88487 0.05952 0.0
H77 H 0.12548 0.92736 0.03528 0.0
H78 H 0.10758 1.01812 0.18358 0.0
H79 H 1.04114 0.97497 0.20702 0.0
La80 La 0.24365 1.01561 0.074 0.0
La81 La 0.23257 0.08281 0.06278 0.0
C82 C 0.25569 0.96533 0.94525 0.0
C83 C 0.28257 0.95325 0.90098 0.0
C84 C 0.27041 0.91569 0.92069 0.0
C85 C 0.29358 0.90198 0.86587 0.0
C86 C 0.32978 0.92557 0.79069 0.0
C87 C 0.34211 0.96345 0.77069 0.0
C88 C 0.31859 0.9772 0.82476 0.0
C89 C 0.23872 1.04132 0.47153 0.0
C90 C 0.31412 0.09652 0.0823 0.0
C91 C 0.21848 0.13294 0.1608 0.0
C92 C 0.19103 0.14484 0.13449 0.0
C93 C 0.20373 0.18192 0.08526 0.0
C94 C 0.17931 0.19526 0.07232 0.0
C95 C 0.14142 0.17179 0.10852 0.0
C96 C 0.12855 0.13437 0.15516 0.0
C97 C 0.15318 0.12099 0.16829 0.0
C98 C 0.23569 0.05575 0.66542 0.0
C99 C 0.1624 1.00167 0.09766 0.0
O100 O 0.24871 0.96954 0.15768 0.0
O101 O 0.25575 0.99003 0.80823 0.0
O102 O 0.22871 1.00697 0.43824 0.0
O103 O 0.2536 0.05966 0.29598 0.0
O104 O 0.30111 0.06103 0.03883 0.0
O105 O 0.29173 0.10961 0.12527 0.0
O106 O 0.2363 0.13313 0.97701 0.0
O107 O 0.21024 0.10466 0.29313 0.0
O108 O 0.24617 0.09012 0.69683 0.0
O109 O 0.22137 1.03808 0.84371 0.0
O110 O 0.17578 1.03769 0.11759 0.0
O111 O 0.18383 0.98751 0.05532 0.0
H112 H 0.24261 0.89671 0.9767 0.0
H113 H 0.28299 0.87272 0.88462 0.0
H114 H 0.36986 0.98243 0.71445 0.0
H115 H 0.32842 1.00634 0.80628 0.0
H116 H 0.23282 0.20082 0.05962 0.0
H117 H 0.19033 0.22417 0.03533 0.0
H118 H 0.09956 0.1155 0.18351 0.0
H119 H 0.14271 0.09222 0.20699 0.0
La120 La 0.76875 0.58742 0.40733 0.0
La121 La 0.70155 0.50915 0.39609 0.0
C122 C 0.81903 0.64974 0.27861 0.0
C123 C 0.83111 0.6887 0.2343 0.0
C124 C 0.86867 0.7141 0.25385 0.0
C125 C 0.88238 0.75098 0.19904 0.0
C126 C 0.85878 0.76359 0.12403 0.0
C127 C 0.8209 0.73803 0.10415 0.0
C128 C 0.80715 0.70076 0.15821 0.0
C129 C 0.74304 0.55678 0.80485 0.0
C130 C 0.68784 0.57698 0.41565 0.0
C131 C 0.65141 0.44492 0.49411 0.0
C132 C 0.63951 0.40557 0.46781 0.0
C133 C 0.60243 0.38119 0.41863 0.0
C134 C 0.58909 0.34342 0.40572 0.0
C135 C 0.61256 0.32901 0.44188 0.0
C136 C 0.64998 0.35356 0.48848 0.0
C137 C 0.66337 0.39157 0.50159 0.0
C138 C 0.72861 0.53932 0.99874 0.0
C139 C 0.78268 0.52011 0.43092 0.0
O140 O 0.81481 0.63856 0.49105 0.0
O141 O 0.79435 0.6251 0.14156 0.0
O142 O 0.77738 0.58112 0.77155 0.0
O143 O 0.72469 0.55332 0.62932 0.0
O144 O 0.72333 0.59946 0.37217 0.0
O145 O 0.67475 0.5415 0.45863 0.0
O146 O 0.65123 0.46255 0.3103 0.0
O147 O 0.67969 0.46496 0.62645 0.0
O148 O 0.69424 0.51544 0.03016 0.0
O149 O 0.74628 0.54268 0.17701 0.0
O150 O 0.74666 0.49747 0.45086 0.0
O151 O 0.79685 0.55571 0.38864 0.0
H152 H 0.88766 0.70528 0.30974 0.0
H153 H 0.91164 0.76965 0.21767 0.0
H154 H 0.80191 0.7468 0.04803 0.0
H155 H 0.77801 0.68146 0.13985 0.0
H156 H 0.58353 0.39137 0.39301 0.0
H157 H 0.56018 0.32554 0.36876 0.0
H158 H 0.66885 0.34344 0.51681 0.0
H159 H 0.69214 0.40988 0.54026 0.0
La160 La 0.53026 0.20737 0.40738 0.0
La161 La 0.60853 0.21844 0.39607 0.0
C162 C 0.46795 0.19534 0.2787 0.0
C163 C 0.42898 0.16845 0.23437 0.0
C164 C 0.40359 0.18062 0.25396 0.0
C165 C 0.3667 0.15745 0.19912 0.0
C166 C 0.35409 0.12124 0.12404 0.0
C167 C 0.37965 0.10891 0.10412 0.0
C168 C 0.41692 0.13243 0.15821 0.0
C169 C 0.5609 0.2123 0.80488 0.0
C170 C 0.5407 0.1369 0.41562 0.0
C171 C 0.67276 0.23254 0.49404 0.0
C172 C 0.71211 0.25999 0.46775 0.0
C173 C 0.73649 0.2473 0.41849 0.0
C174 C 0.77426 0.27172 0.40559 0.0
C175 C 0.78868 0.3096 0.44183 0.0
C176 C 0.76413 0.32247 0.4885 0.0
C177 C 0.72611 0.29784 0.5016 0.0
C178 C 0.57836 0.21533 0.99875 0.0
C179 C 0.59758 0.28862 0.43101 0.0
O180 O 0.47912 0.20228 0.49115 0.0
O181 O 0.49259 0.19529 0.14163 0.0
O182 O 0.53656 0.22231 0.77162 0.0
O183 O 0.56437 0.19742 0.62932 0.0
O184 O 0.51822 0.14991 0.37218 0.0
O185 O 0.57618 0.15929 0.45857 0.0
O186 O 0.65513 0.21473 0.31023 0.0
O187 O 0.65272 0.24077 0.62641 0.0
O188 O 0.60225 0.20485 0.03013 0.0
O189 O 0.57501 0.22965 0.17704 0.0
O190 O 0.62022 0.27524 0.45087 0.0
O191 O 0.56198 0.26719 0.38874 0.0
H192 H 0.4124 0.20842 0.30991 0.0
H193 H 0.34804 0.16804 0.2178 0.0
H194 H 0.37088 0.08116 0.04795 0.0
H195 H 0.43623 0.1226 0.13982 0.0
H196 H 0.72631 0.21821 0.39282 0.0
H197 H 0.79215 0.26069 0.36857 0.0
H198 H 0.77425 0.35146 0.51689 0.0
H199 H 0.70781 0.30831 0.54033 0.0
La200 La 0.91031 0.34894 0.4073 0.0
La201 La 0.89924 0.41614 0.39608 0.0
C202 C 0.92235 0.29866 0.27855 0.0
C203 C 0.94924 0.28659 0.23429 0.0
C204 C 0.93707 0.24902 0.25397 0.0
C205 C 0.96025 0.23531 0.19918 0.0
C206 C 0.99645 0.25891 0.12407 0.0
C207 C 1.00878 0.29679 0.10408 0.0
C208 C 0.98526 0.31054 0.15812 0.0
C209 C 0.90538 0.37465 0.80484 0.0
C210 C 0.98078 0.42985 0.41561 0.0
C211 C 0.88514 0.46627 0.49411 0.0
C212 C 0.8577 0.47817 0.46779 0.0
C213 C 0.87039 0.51525 0.41856 0.0
C214 C 0.84597 0.5286 0.40562 0.0
C215 C 0.80809 0.50513 0.44182 0.0
C216 C 0.79522 0.46771 0.48847 0.0
C217 C 0.81984 0.45432 0.5016 0.0
C218 C 0.90236 0.38908 0.99872 0.0
C219 C 0.82907 0.33501 0.43096 0.0
O220 O 0.91538 0.30287 0.49098 0.0
O221 O 0.92242 0.32336 0.14153 0.0
O222 O 0.89538 0.34031 0.77155 0.0
O223 O 0.92026 0.393 0.62928 0.0
O224 O 0.96777 0.39436 0.37214 0.0
O225 O 0.9584 0.44294 0.45858 0.0
O226 O 0.90297 0.46646 0.31031 0.0
O227 O 0.8769 0.438 0.62644 0.0
O228 O 0.91284 0.42345 0.03013 0.0
O229 O 0.88804 0.37141 0.17701 0.0
O230 O 0.84244 0.37102 0.4509 0.0
O231 O 0.8505 0.32084 0.38862 0.0
H232 H 0.90927 0.23004 0.30993 0.0
H233 H 0.94965 0.20605 0.21791 0.0
H234 H 1.03653 0.31577 0.04788 0.0
H235 H 0.99509 0.33967 0.13966 0.0
H236 H 0.89948 0.53415 0.39292 0.0
H237 H 0.857 0.5575 0.36862 0.0
H238 H 0.76623 0.44884 0.51682 0.0
H239 H 0.80937 0.42555 0.54031 0.0
La240 La 0.43541 0.92075 0.74063 0.0
La241 La 0.36821 0.84248 0.72939 0.0
C242 C 0.48569 0.98307 0.6119 0.0
C243 C 0.49777 1.02203 0.5676 0.0
C244 C 0.53533 0.04743 0.58716 0.0
C245 C 0.54904 0.08431 0.53235 0.0
C246 C 0.52544 0.09692 0.45733 0.0
C247 C 0.48756 0.07137 0.43744 0.0
C248 C 0.47381 1.0341 0.49151 0.0
C249 C 0.4097 0.89011 0.13815 0.0
C250 C 0.3545 0.91031 0.74892 0.0
C251 C 0.31808 0.77825 0.82741 0.0
C252 C 0.30618 0.7389 0.80112 0.0
C253 C 0.2691 0.71452 0.75193 0.0
C254 C 0.25575 0.67675 0.73902 0.0
C255 C 0.27922 0.66234 0.77519 0.0
C256 C 0.31664 0.68689 0.82178 0.0
C257 C 0.33003 0.7249 0.83489 0.0
C258 C 0.39527 0.87265 0.33204 0.0
C259 C 0.44934 0.85344 0.76422 0.0
O260 O 0.48147 0.97189 0.82434 0.0
O261 O 0.46101 0.95843 0.47486 0.0
O262 O 0.44404 0.91445 0.10486 0.0
O263 O 0.39136 0.88665 0.96262 0.0
O264 O 0.39 0.9328 0.70548 0.0
O265 O 0.34141 0.87483 0.79191 0.0
O266 O 0.31789 0.79588 0.6436 0.0
O267 O 0.34635 0.79829 0.95975 0.0
O268 O 0.3609 0.84877 0.36346 0.0
O269 O 0.41294 0.87601 0.51031 0.0
O270 O 0.41333 0.8308 0.78416 0.0
O271 O 0.46351 0.88904 0.72194 0.0
H272 H 0.55432 1.03862 0.64306 0.0
H273 H 0.5783 0.10298 0.551 0.0
H274 H 0.46858 0.08014 0.38132 0.0
H275 H 0.44468 1.01479 0.47314 0.0
H276 H 0.2502 0.7247 0.72632 0.0
H277 H 0.22684 0.65886 0.70206 0.0
H278 H 0.33552 0.67677 0.85011 0.0
H279 H 0.3588 0.74321 0.87356 0.0
La280 La 0.19693 0.5407 0.74069 0.0
La281 La 0.2752 0.55178 0.72937 0.0
C282 C 0.13461 0.52867 0.612 0.0
C283 C 0.09565 0.50178 0.56767 0.0
C284 C 0.07026 0.51395 0.58728 0.0
C285 C 1.03337 0.49078 0.53244 0.0
C286 C 1.02076 0.45457 0.45735 0.0
C287 C 1.04632 0.44224 0.43742 0.0
C288 C 0.08359 0.46576 0.49151 0.0
C289 C 0.22757 0.54563 0.13818 0.0
C290 C 0.20737 0.47024 0.74889 0.0
C291 C 0.33943 0.56588 0.82735 0.0
C292 C 0.37878 0.59332 0.80105 0.0
C293 C 0.40317 0.58063 0.7518 0.0
C294 C 0.44093 0.60505 0.73889 0.0
C295 C 0.45535 0.64293 0.77513 0.0
C296 C 0.4308 0.6558 0.8218 0.0
C297 C 0.39278 0.63118 0.83491 0.0
C298 C 0.24503 0.54866 0.33205 0.0
C299 C 0.26424 0.62195 0.76431 0.0
O300 O 0.14579 0.53562 0.82444 0.0
O301 O 0.15925 0.52862 0.47494 0.0
O302 O 0.20323 0.55563 0.10492 0.0
O303 O 0.23103 0.53075 0.96262 0.0
O304 O 0.18489 0.48324 0.7055 0.0
O305 O 0.24285 0.49262 0.79186 0.0
O306 O 0.32181 0.54806 0.64353 0.0
O307 O 0.31939 0.57411 0.95972 0.0
O308 O 0.26892 0.53818 0.36343 0.0
O309 O 0.24167 0.56298 0.51035 0.0
O310 O 0.28688 0.60857 0.78418 0.0
O311 O 0.22864 0.60052 0.72204 0.0
H312 H 0.07907 0.54175 0.64324 0.0
H313 H 1.01471 0.50137 0.55113 0.0
H314 H 1.03754 0.41449 0.38124 0.0
H315 H 0.10289 0.45593 0.4731 0.0
H316 H 0.39298 0.55154 0.72613 0.0
H317 H 0.45882 0.59403 0.70188 0.0
H318 H 0.44092 0.68479 0.85019 0.0
H319 H 0.37448 0.64164 0.87363 0.0
La320 La 0.57698 0.68228 0.7406 0.0
La321 La 0.56591 0.74948 0.72938 0.0
C322 C 0.58902 0.632 0.61184 0.0
C323 C 0.61591 0.61992 0.56759 0.0
C324 C 0.60374 0.58236 0.58728 0.0
C325 C 0.62692 0.56865 0.5325 0.0
C326 C 0.66312 0.59224 0.45737 0.0
C327 C 0.67545 0.63012 0.43737 0.0
C328 C 0.65193 0.64388 0.49141 0.0
C329 C 0.57205 0.70799 0.13814 0.0
C330 C 0.64745 0.76319 0.74887 0.0
C331 C 0.55181 0.79961 0.82741 0.0
C332 C 0.52436 0.81151 0.80109 0.0
C333 C 0.53706 0.84858 0.75186 0.0
C334 C 0.51264 0.86193 0.73892 0.0
C335 C 0.47475 0.83846 0.77512 0.0
C336 C 0.46188 0.80104 0.82177 0.0
C337 C 0.48651 0.78766 0.8349 0.0
C338 C 0.56903 0.72242 0.33202 0.0
C339 C 0.49574 0.66834 0.76426 0.0
O340 O 0.58204 0.63621 0.82427 0.0
O341 O 0.58909 0.6567 0.47483 0.0
O342 O 0.56205 0.67365 0.10485 0.0
O343 O 0.58693 0.72633 0.96258 0.0
O344 O 0.63444 0.7277 0.70545 0.0
O345 O 0.62507 0.77628 0.79186 0.0
O346 O 0.56963 0.7998 0.64361 0.0
O347 O 0.54357 0.77133 0.95974 0.0
O348 O 0.57951 0.75679 0.36343 0.0
O349 O 0.55471 0.70475 0.51031 0.0
O350 O 0.50911 0.70436 0.78419 0.0
O351 O 0.51717 0.65418 0.72192 0.0
H352 H 0.57594 0.56338 0.64326 0.0
H353 H 0.61632 0.53939 0.55124 0.0
H354 H 0.7032 0.6491 0.38117 0.0
H355 H 0.66176 0.67301 0.47294 0.0
H356 H 0.56615 0.86749 0.72622 0.0
H357 H 0.52366 0.89084 0.70193 0.0
H358 H 0.43289 0.78217 0.85011 0.0
H359 H 0.47604 0.75889 0.87361 0.0
loop_
_geom_bond_atom_site_label_1
_geom_bond_atom_site_label_2
_geom_bond_distance
_geom_bond_site_symmetry_2
_ccdc_geom_bond_type
La0 C2 2.928 1_554 S
La0 O20 2.521 . S
La0 O21 2.628 1_554 S
La0 O22 2.554 . S
La0 O23 2.757 . S
La0 O24 2.470 1_455 S
La0 O29 2.482 1_554 S
La0 O31 2.503 1_554 S
La1 C11 2.928 1_556 S
La1 O23 2.482 1_656 S
La1 O25 2.503 1_556 S
La1 O26 2.521 . S
La1 O27 2.628 1_556 S
La1 O28 2.554 . S
La1 O29 2.757 1_655 S
La1 O30 2.470 1_655 S
C2 La0 2.928 1_556 S
C2 C3 1.503 . S
C2 O20 1.261 1_556 S
C2 O21 1.243 . S
C3 C2 1.503 . S
C3 C4 1.394 1_556 S
C3 C8 1.373 . S
C4 C3 1.394 1_554 S
C4 C5 1.380 . S
C4 H32 0.930 . S
C5 C4 1.380 . S
C5 C6 1.376 1_554 S
C5 H33 0.930 . S
C6 C5 1.376 1_556 S
C6 C7 1.370 . S
C7 C6 1.370 . S
C7 C8 1.396 . S
C7 H34 0.929 . S
C8 C3 1.373 . S
C8 C7 1.396 . S
C8 H35 0.929 . S
C9 O22 1.240 . S
C9 O23 1.289 . S
C10 O24 1.258 . S
C10 O25 1.256 . S
C11 La1 2.928 1_554 S
C11 C12 1.503 . S
C11 O26 1.261 1_554 S
C11 O27 1.243 . S
C12 C11 1.503 . S
C12 C13 1.394 1_544 S
C12 C17 1.373 . S
C13 C12 1.394 1_566 S
C13 C14 1.380 . S
C13 H36 0.930 1_565 S
C14 C13 1.380 . S
C14 C15 1.376 1_556 S
C14 H37 0.930 . S
C15 C14 1.376 1_554 S
C15 C16 1.370 . S
C16 C15 1.370 . S
C16 C17 1.396 1_565 S
C16 H38 0.929 . S
C17 C12 1.373 . S
C17 C16 1.396 1_545 S
C17 H39 0.929 . S
C18 O28 1.240 . S
C18 O29 1.289 1_655 S
C19 O30 1.258 . S
C19 O31 1.256 . S
O20 La0 2.521 . S
O20 C2 1.261 1_554 S
O21 La0 2.628 1_556 S
O21 C2 1.243 . S
O22 La0 2.554 . S
O22 C9 1.240 . S
O23 La0 2.757 . S
O23 La1 2.482 1_454 S
O23 C9 1.289 . S
O24 La0 2.470 1_655 S
O24 C10 1.258 . S
O25 La1 2.503 1_554 S
O25 C10 1.256 . S
O26 La1 2.521 . S
O26 C11 1.261 1_556 S
O27 La1 2.628 1_554 S
O27 C11 1.243 . S
O28 La1 2.554 . S
O28 C18 1.240 . S
O29 La0 2.482 1_556 S
O29 La1 2.757 1_455 S
O29 C18 1.289 1_455 S
O30 La1 2.470 1_455 S
O30 C19 1.258 . S
O31 La0 2.503 1_556 S
O31 C19 1.256 . S
H32 C4 0.930 . S
H33 C5 0.930 . S
H34 C7 0.929 . S
H35 C8 0.929 . S
H36 C13 0.930 1_545 S
H37 C14 0.930 . S
H38 C16 0.929 . S
H39 C17 0.929 . S
La40 C42 2.928 1_554 S
La40 O60 2.521 . S
La40 O61 2.628 1_554 S
La40 O62 2.554 . S
La40 O63 2.757 . S
La40 O64 2.470 . S
La40 O69 2.482 1_554 S
La40 O71 2.503 1_554 S
La41 C51 2.928 1_556 S
La41 O63 2.482 1_556 S
La41 O65 2.503 1_556 S
La41 O66 2.521 . S
La41 O67 2.628 1_556 S
La41 O68 2.554 . S
La41 O69 2.757 . S
La41 O70 2.470 . S
C42 La40 2.928 1_556 S
C42 C43 1.503 . S
C42 O60 1.261 1_556 S
C42 O61 1.243 . S
C43 C42 1.503 . S
C43 C44 1.394 1_556 S
C43 C48 1.373 . S
C44 C43 1.394 1_554 S
C44 C45 1.380 . S
C44 H72 0.930 . S
C45 C44 1.380 . S
C45 C46 1.376 1_554 S
C45 H73 0.930 . S
C46 C45 1.376 1_556 S
C46 C47 1.370 . S
C47 C46 1.370 . S
C47 C48 1.396 . S
C47 H74 0.929 . S
C48 C43 1.373 . S
C48 C47 1.396 . S
C48 H75 0.929 . S
C49 O62 1.240 . S
C49 O63 1.289 . S
C50 O64 1.258 . S
C50 O65 1.256 . S
C51 La41 2.928 1_554 S
C51 C52 1.503 . S
C51 O66 1.261 1_554 S
C51 O67 1.243 . S
C52 C51 1.503 . S
C52 C53 1.394 1_654 S
C52 C57 1.373 1_655 S
C53 C52 1.394 1_456 S
C53 C54 1.380 . S
C53 H76 0.930 . S
C54 C53 1.380 . S
C54 C55 1.376 1_556 S
C54 H77 0.930 . S
C55 C54 1.376 1_554 S
C55 C56 1.370 . S
C56 C55 1.370 . S
C56 C57 1.396 . S
C56 H78 0.929 . S
C57 C52 1.373 1_455 S
C57 C56 1.396 . S
C57 H79 0.929 1_455 S
C58 O68 1.240 . S
C58 O69 1.289 . S
C59 O70 1.258 . S
C59 O71 1.256 . S
O60 La40 2.521 . S
O60 C42 1.261 1_554 S
O61 La40 2.628 1_556 S
O61 C42 1.243 . S
O62 La40 2.554 . S
O62 C49 1.240 . S
O63 La40 2.757 . S
O63 La41 2.482 1_554 S
O63 C49 1.289 . S
O64 La40 2.470 . S
O64 C50 1.258 . S
O65 La41 2.503 1_554 S
O65 C50 1.256 . S
O66 La41 2.521 . S
O66 C51 1.261 1_556 S
O67 La41 2.628 1_554 S
O67 C51 1.243 . S
O68 La41 2.554 . S
O68 C58 1.240 . S
O69 La40 2.482 1_556 S
O69 La41 2.757 . S
O69 C58 1.289 . S
O70 La41 2.470 . S
O70 C59 1.258 . S
O71 La40 2.503 1_556 S
O71 C59 1.256 . S
H72 C44 0.930 . S
H73 C45 0.930 . S
H74 C47 0.929 . S
H75 C48 0.929 . S
H76 C53 0.930 . S
H77 C54 0.930 . S
H78 C56 0.929 . S
H79 C57 0.929 1_655 S
La80 C82 2.928 1_554 S
La80 O100 2.521 . S
La80 O101 2.628 1_554 S
La80 O102 2.554 . S
La80 O103 2.757 1_565 S
La80 O104 2.470 1_565 S
La80 O109 2.482 1_564 S
La80 O111 2.503 1_554 S
La81 C91 2.928 1_556 S
La81 O103 2.482 1_556 S
La81 O105 2.503 1_556 S
La81 O106 2.521 . S
La81 O107 2.628 1_556 S
La81 O108 2.554 . S
La81 O109 2.757 . S
La81 O110 2.470 1_545 S
C82 La80 2.928 1_556 S
C82 C83 1.503 . S
C82 O100 1.261 1_556 S
C82 O101 1.243 . S
C83 C82 1.503 . S
C83 C84 1.394 1_556 S
C83 C88 1.373 . S
C84 C83 1.394 1_554 S
C84 C85 1.380 . S
C84 H112 0.930 . S
C85 C84 1.380 . S
C85 C86 1.376 1_554 S
C85 H113 0.930 . S
C86 C85 1.376 1_556 S
C86 C87 1.370 . S
C87 C86 1.370 . S
C87 C88 1.396 . S
C87 H114 0.929 . S
C88 C83 1.373 . S
C88 C87 1.396 . S
C88 H115 0.929 . S
C89 O102 1.240 . S
C89 O103 1.289 1_565 S
C90 O104 1.258 . S
C90 O105 1.256 . S
C91 La81 2.928 1_554 S
C91 C92 1.503 . S
C91 O106 1.261 1_554 S
C91 O107 1.243 . S
C92 C91 1.503 . S
C92 C93 1.394 1_554 S
C92 C97 1.373 . S
C93 C92 1.394 1_556 S
C93 C94 1.380 . S
C93 H116 0.930 . S
C94 C93 1.380 . S
C94 C95 1.376 1_556 S
C94 H117 0.930 . S
C95 C94 1.376 1_554 S
C95 C96 1.370 . S
C96 C95 1.370 . S
C96 C97 1.396 . S
C96 H118 0.929 . S
C97 C92 1.373 . S
C97 C96 1.396 . S
C97 H119 0.929 . S
C98 O108 1.240 . S
C98 O109 1.289 . S
C99 O110 1.258 . S
C99 O111 1.256 . S
O100 La80 2.521 . S
O100 C82 1.261 1_554 S
O101 La80 2.628 1_556 S
O101 C82 1.243 . S
O102 La80 2.554 . S
O102 C89 1.240 . S
O103 La80 2.757 1_545 S
O103 La81 2.482 1_554 S
O103 C89 1.289 1_545 S
O104 La80 2.470 1_545 S
O104 C90 1.258 . S
O105 La81 2.503 1_554 S
O105 C90 1.256 . S
O106 La81 2.521 . S
O106 C91 1.261 1_556 S
O107 La81 2.628 1_554 S
O107 C91 1.243 . S
O108 La81 2.554 . S
O108 C98 1.240 . S
O109 La80 2.482 1_546 S
O109 La81 2.757 . S
O109 C98 1.289 . S
O110 La81 2.470 1_565 S
O110 C99 1.258 . S
O111 La80 2.503 1_556 S
O111 C99 1.256 . S
H112 C84 0.930 . S
H113 C85 0.930 . S
H114 C87 0.929 . S
H115 C88 0.929 . S
H116 C93 0.930 . S
H117 C94 0.930 . S
H118 C96 0.929 . S
H119 C97 0.929 . S
La120 C122 2.928 . S
La120 O140 2.521 . S
La120 O141 2.628 . S
La120 O142 2.554 . S
La120 O143 2.757 . S
La120 O144 2.470 . S
La120 O149 2.482 . S
La120 O151 2.503 . S
La121 C131 2.928 . S
La121 O143 2.482 . S
La121 O145 2.503 . S
La121 O146 2.521 . S
La121 O147 2.628 . S
La121 O148 2.554 1_554 S
La121 O149 2.757 . S
La121 O150 2.470 . S
C122 La120 2.928 . S
C122 C123 1.503 . S
C122 O140 1.261 . S
C122 O141 1.243 . S
C123 C122 1.503 . S
C123 C124 1.394 . S
C123 C128 1.373 . S
C124 C123 1.394 . S
C124 C125 1.380 . S
C124 H152 0.930 . S
C125 C124 1.380 . S
C125 C126 1.376 . S
C125 H153 0.930 . S
C126 C125 1.376 . S
C126 C127 1.370 . S
C127 C126 1.370 . S
C127 C128 1.396 . S
C127 H154 0.929 1_554 S
C128 C123 1.373 . S
C128 C127 1.396 . S
C128 H155 0.929 1_554 S
C129 O142 1.240 . S
C129 O143 1.289 . S
C130 O144 1.258 . S
C130 O145 1.256 . S
C131 La121 2.928 . S
C131 C132 1.503 . S
C131 O146 1.261 . S
C131 O147 1.243 . S
C132 C131 1.503 . S
C132 C133 1.394 . S
C132 C137 1.373 . S
C133 C132 1.394 . S
C133 C134 1.380 . S
C133 H156 0.930 . S
C134 C133 1.380 . S
C134 C135 1.376 . S
C134 H157 0.930 . S
C135 C134 1.376 . S
C135 C136 1.370 . S
C136 C135 1.370 . S
C136 C137 1.396 . S
C136 H158 0.929 . S
C137 C132 1.373 . S
C137 C136 1.396 . S
C137 H159 0.929 . S
C138 O148 1.240 . S
C138 O149 1.289 1_556 S
C139 O150 1.258 . S
C139 O151 1.256 . S
O140 La120 2.521 . S
O140 C122 1.261 . S
O141 La120 2.628 . S
O141 C122 1.243 . S
O142 La120 2.554 . S
O142 C129 1.240 . S
O143 La120 2.757 . S
O143 La121 2.482 . S
O143 C129 1.289 . S
O144 La120 2.470 . S
O144 C130 1.258 . S
O145 La121 2.503 . S
O145 C130 1.256 . S
O146 La121 2.521 . S
O146 C131 1.261 . S
O147 La121 2.628 . S
O147 C131 1.243 . S
O148 La121 2.554 1_556 S
O148 C138 1.240 . S
O149 La120 2.482 . S
O149 La121 2.757 . S
O149 C138 1.289 1_554 S
O150 La121 2.470 . S
O150 C139 1.258 . S
O151 La120 2.503 . S
O151 C139 1.256 . S
H152 C124 0.930 . S
H153 C125 0.930 . S
H154 C127 0.929 1_556 S
H155 C128 0.929 1_556 S
H156 C133 0.930 . S
H157 C134 0.930 . S
H158 C136 0.929 . S
H159 C137 0.929 . S
La160 C162 2.928 . S
La160 O180 2.521 . S
La160 O181 2.628 . S
La160 O182 2.554 . S
La160 O183 2.757 . S
La160 O184 2.470 . S
La160 O189 2.482 . S
La160 O191 2.503 . S
La161 C171 2.928 . S
La161 O183 2.482 . S
La161 O185 2.503 . S
La161 O186 2.521 . S
La161 O187 2.628 . S
La161 O188 2.554 1_554 S
La161 O189 2.757 . S
La161 O190 2.470 . S
C162 La160 2.928 . S
C162 C163 1.503 . S
C162 O180 1.261 . S
C162 O181 1.243 . S
C163 C162 1.503 . S
C163 C164 1.394 . S
C163 C168 1.373 . S
C164 C163 1.394 . S
C164 C165 1.380 . S
C164 H192 0.930 . S
C165 C164 1.380 . S
C165 C166 1.376 . S
C165 H193 0.930 . S
C166 C165 1.376 . S
C166 C167 1.370 . S
C167 C166 1.370 . S
C167 C168 1.396 . S
C167 H194 0.929 1_554 S
C168 C163 1.373 . S
C168 C167 1.396 . S
C168 H195 0.929 1_554 S
C169 O182 1.240 . S
C169 O183 1.289 . S
C170 O184 1.258 . S
C170 O185 1.256 . S
C171 La161 2.928 . S
C171 C172 1.503 . S
C171 O186 1.261 . S
C171 O187 1.243 . S
C172 C171 1.503 . S
C172 C173 1.394 . S
C172 C177 1.373 . S
C173 C172 1.394 . S
C173 C174 1.380 . S
C173 H196 0.930 . S
C174 C173 1.380 . S
C174 C175 1.376 . S
C174 H197 0.930 . S
C175 C174 1.376 . S
C175 C176 1.370 . S
C176 C175 1.370 . S
C176 C177 1.396 . S
C176 H198 0.929 . S
C177 C172 1.373 . S
C177 C176 1.396 . S
C177 H199 0.929 . S
C178 O188 1.240 . S
C178 O189 1.289 1_556 S
C179 O190 1.258 . S
C179 O191 1.256 . S
O180 La160 2.521 . S
O180 C162 1.261 . S
O181 La160 2.628 . S
O181 C162 1.243 . S
O182 La160 2.554 . S
O182 C169 1.240 . S
O183 La160 2.757 . S
O183 La161 2.482 . S
O183 C169 1.289 . S
O184 La160 2.470 . S
O184 C170 1.258 . S
O185 La161 2.503 . S
O185 C170 1.256 . S
O186 La161 2.521 . S
O186 C171 1.261 . S
O187 La161 2.628 . S
O187 C171 1.243 . S
O188 La161 2.554 1_556 S
O188 C178 1.240 . S
O189 La160 2.482 . S
O189 La161 2.757 . S
O189 C178 1.289 1_554 S
O190 La161 2.470 . S
O190 C179 1.258 . S
O191 La160 2.503 . S
O191 C179 1.256 . S
H192 C164 0.930 . S
H193 C165 0.930 . S
H194 C167 0.929 1_556 S
H195 C168 0.929 1_556 S
H196 C173 0.930 . S
H197 C174 0.930 . S
H198 C176 0.929 . S
H199 C177 0.929 . S
La200 C202 2.928 . S
La200 O220 2.521 . S
La200 O221 2.628 . S
La200 O222 2.554 . S
La200 O223 2.757 . S
La200 O224 2.470 . S
La200 O229 2.482 . S
La200 O231 2.503 . S
La201 C211 2.928 . S
La201 O223 2.482 . S
La201 O225 2.503 . S
La201 O226 2.521 . S
La201 O227 2.628 . S
La201 O228 2.554 1_554 S
La201 O229 2.757 . S
La201 O230 2.470 . S
C202 La200 2.928 . S
C202 C203 1.503 . S
C202 O220 1.261 . S
C202 O221 1.243 . S
C203 C202 1.503 . S
C203 C204 1.394 . S
C203 C208 1.373 . S
C204 C203 1.394 . S
C204 C205 1.380 . S
C204 H232 0.930 . S
C205 C204 1.380 . S
C205 C206 1.376 . S
C205 H233 0.930 . S
C206 C205 1.376 . S
C206 C207 1.370 . S
C207 C206 1.370 . S
C207 C208 1.396 . S
C207 H234 0.929 1_554 S
C208 C203 1.373 . S
C208 C207 1.396 . S
C208 H235 0.929 1_554 S
C209 O222 1.240 . S
C209 O223 1.289 . S
C210 O224 1.258 . S
C210 O225 1.256 . S
C211 La201 2.928 . S
C211 C212 1.503 . S
C211 O226 1.261 . S
C211 O227 1.243 . S
C212 C211 1.503 . S
C212 C213 1.394 . S
C212 C217 1.373 . S
C213 C212 1.394 . S
C213 C214 1.380 . S
C213 H236 0.930 . S
C214 C213 1.380 . S
C214 C215 1.376 . S
C214 H237 0.930 . S
C215 C214 1.376 . S
C215 C216 1.370 . S
C216 C215 1.370 . S
C216 C217 1.396 . S
C216 H238 0.929 . S
C217 C212 1.373 . S
C217 C216 1.396 . S
C217 H239 0.929 . S
C218 O228 1.240 . S
C218 O229 1.289 1_556 S
C219 O230 1.258 . S
C219 O231 1.256 . S
O220 La200 2.521 . S
O220 C202 1.261 . S
O221 La200 2.628 . S
O221 C202 1.243 . S
O222 La200 2.554 . S
O222 C209 1.240 . S
O223 La200 2.757 . S
O223 La201 2.482 . S
O223 C209 1.289 . S
O224 La200 2.470 . S
O224 C210 1.258 . S
O225 La201 2.503 . S
O225 C210 1.256 . S
O226 La201 2.521 . S
O226 C211 1.261 . S
O227 La201 2.628 . S
O227 C211 1.243 . S
O228 La201 2.554 1_556 S
O228 C218 1.240 . S
O229 La200 2.482 . S
O229 La201 2.757 . S
O229 C218 1.289 1_554 S
O230 La201 2.470 . S
O230 C219 1.258 . S
O231 La200 2.503 . S
O231 C219 1.256 . S
H232 C204 0.930 . S
H233 C205 0.930 . S
H234 C207 0.929 1_556 S
H235 C208 0.929 1_556 S
H236 C213 0.930 . S
H237 C214 0.930 . S
H238 C216 0.929 . S
H239 C217 0.929 . S
La240 C242 2.928 . S
La240 O260 2.521 . S
La240 O261 2.628 . S
La240 O262 2.554 1_556 S
La240 O263 2.757 . S
La240 O264 2.470 . S
La240 O269 2.482 . S
La240 O271 2.503 . S
La241 C251 2.928 . S
La241 O263 2.482 . S
La241 O265 2.503 . S
La241 O266 2.521 . S
La241 O267 2.628 . S
La241 O268 2.554 . S
La241 O269 2.757 . S
La241 O270 2.470 . S
C242 La240 2.928 . S
C242 C243 1.503 . S
C242 O260 1.261 . S
C242 O261 1.243 . S
C243 C242 1.503 . S
C243 C244 1.394 1_565 S
C243 C248 1.373 1_565 S
C244 C243 1.394 1_545 S
C244 C245 1.380 . S
C244 H272 0.930 . S
C245 C244 1.380 . S
C245 C246 1.376 . S
C245 H273 0.930 . S
C246 C245 1.376 . S
C246 C247 1.370 . S
C247 C246 1.370 . S
C247 C248 1.396 . S
C247 H274 0.929 . S
C248 C243 1.373 1_545 S
C248 C247 1.396 . S
C248 H275 0.929 1_545 S
C249 O262 1.240 . S
C249 O263 1.289 1_554 S
C250 O264 1.258 . S
C250 O265 1.256 . S
C251 La241 2.928 . S
C251 C252 1.503 . S
C251 O266 1.261 . S
C251 O267 1.243 . S
C252 C251 1.503 . S
C252 C253 1.394 . S
C252 C257 1.373 . S
C253 C252 1.394 . S
C253 C254 1.380 . S
C253 H276 0.930 . S
C254 C253 1.380 . S
C254 C255 1.376 . S
C254 H277 0.930 . S
C255 C254 1.376 . S
C255 C256 1.370 . S
C256 C255 1.370 . S
C256 C257 1.396 . S
C256 H278 0.929 1_556 S
C257 C252 1.373 . S
C257 C256 1.396 . S
C257 H279 0.929 1_556 S
C258 O268 1.240 . S
C258 O269 1.289 . S
C259 O270 1.258 . S
C259 O271 1.256 . S
O260 La240 2.521 . S
O260 C242 1.261 . S
O261 La240 2.628 . S
O261 C242 1.243 . S
O262 La240 2.554 1_554 S
O262 C249 1.240 . S
O263 La240 2.757 . S
O263 La241 2.482 . S
O263 C249 1.289 1_556 S
O264 La240 2.470 . S
O264 C250 1.258 . S
O265 La241 2.503 . S
O265 C250 1.256 . S
O266 La241 2.521 . S
O266 C251 1.261 . S
O267 La241 2.628 . S
O267 C251 1.243 . S
O268 La241 2.554 . S
O268 C258 1.240 . S
O269 La240 2.482 . S
O269 La241 2.757 . S
O269 C258 1.289 . S
O270 La241 2.470 . S
O270 C259 1.258 . S
O271 La240 2.503 . S
O271 C259 1.256 . S
H272 C244 0.930 . S
H273 C245 0.930 . S
H274 C247 0.929 . S
H275 C248 0.929 1_565 S
H276 C253 0.930 . S
H277 C254 0.930 . S
H278 C256 0.929 1_554 S
H279 C257 0.929 1_554 S
La280 C282 2.928 . S
La280 O300 2.521 . S
La280 O301 2.628 . S
La280 O302 2.554 1_556 S
La280 O303 2.757 . S
La280 O304 2.470 . S
La280 O309 2.482 . S
La280 O311 2.503 . S
La281 C291 2.928 . S
La281 O303 2.482 . S
La281 O305 2.503 . S
La281 O306 2.521 . S
La281 O307 2.628 . S
La281 O308 2.554 . S
La281 O309 2.757 . S
La281 O310 2.470 . S
C282 La280 2.928 . S
C282 C283 1.503 . S
C282 O300 1.261 . S
C282 O301 1.243 . S
C283 C282 1.503 . S
C283 C284 1.394 1_455 S
C283 C288 1.373 . S
C284 C283 1.394 1_655 S
C284 C285 1.380 . S
C284 H312 0.930 1_655 S
C285 C284 1.380 . S
C285 C286 1.376 . S
C285 H313 0.930 . S
C286 C285 1.376 . S
C286 C287 1.370 . S
C287 C286 1.370 . S
C287 C288 1.396 1_655 S
C287 H314 0.929 . S
C288 C283 1.373 . S
C288 C287 1.396 1_455 S
C288 H315 0.929 . S
C289 O302 1.240 . S
C289 O303 1.289 1_554 S
C290 O304 1.258 . S
C290 O305 1.256 . S
C291 La281 2.928 . S
C291 C292 1.503 . S
C291 O306 1.261 . S
C291 O307 1.243 . S
C292 C291 1.503 . S
C292 C293 1.394 . S
C292 C297 1.373 . S
C293 C292 1.394 . S
C293 C294 1.380 . S
C293 H316 0.930 . S
C294 C293 1.380 . S
C294 C295 1.376 . S
C294 H317 0.930 . S
C295 C294 1.376 . S
C295 C296 1.370 . S
C296 C295 1.370 . S
C296 C297 1.396 . S
C296 H318 0.929 1_556 S
C297 C292 1.373 . S
C297 C296 1.396 . S
C297 H319 0.929 1_556 S
C298 O308 1.240 . S
C298 O309 1.289 . S
C299 O310 1.258 . S
C299 O311 1.256 . S
O300 La280 2.521 . S
O300 C282 1.261 . S
O301 La280 2.628 . S
O301 C282 1.243 . S
O302 La280 2.554 1_554 S
O302 C289 1.240 . S
O303 La280 2.757 . S
O303 La281 2.482 . S
O303 C289 1.289 1_556 S
O304 La280 2.470 . S
O304 C290 1.258 . S
O305 La281 2.503 . S
O305 C290 1.256 . S
O306 La281 2.521 . S
O306 C291 1.261 . S
O307 La281 2.628 . S
O307 C291 1.243 . S
O308 La281 2.554 . S
O308 C298 1.240 . S
O309 La280 2.482 . S
O309 La281 2.757 . S
O309 C298 1.289 . S
O310 La281 2.470 . S
O310 C299 1.258 . S
O311 La280 2.503 . S
O311 C299 1.256 . S
H312 C284 0.930 1_455 S
H313 C285 0.930 . S
H314 C287 0.929 . S
H315 C288 0.929 . S
H316 C293 0.930 . S
H317 C294 0.930 . S
H318 C296 0.929 1_554 S
H319 C297 0.929 1_554 S
La320 C322 2.928 . S
La320 O340 2.521 . S
La320 O341 2.628 . S
La320 O342 2.554 1_556 S
La320 O343 2.757 . S
La320 O344 2.470 . S
La320 O349 2.482 . S
La320 O351 2.503 . S
La321 C331 2.928 . S
La321 O343 2.482 . S
La321 O345 2.503 . S
La321 O346 2.521 . S
La321 O347 2.628 . S
La321 O348 2.554 . S
La321 O349 2.757 . S
La321 O350 2.470 . S
C322 La320 2.928 . S
C322 C323 1.503 . S
C322 O340 1.261 . S
C322 O341 1.243 . S
C323 C322 1.503 . S
C323 C324 1.394 . S
C323 C328 1.373 . S
C324 C323 1.394 . S
C324 C325 1.380 . S
C324 H352 0.930 . S
C325 C324 1.380 . S
C325 C326 1.376 . S
C325 H353 0.930 . S
C326 C325 1.376 . S
C326 C327 1.370 . S
C327 C326 1.370 . S
C327 C328 1.396 . S
C327 H354 0.929 . S
C328 C323 1.373 . S
C328 C327 1.396 . S
C328 H355 0.929 . S
C329 O342 1.240 . S
C329 O343 1.289 1_554 S
C330 O344 1.258 . S
C330 O345 1.256 . S
C331 La321 2.928 . S
C331 C332 1.503 . S
C331 O346 1.261 . S
C331 O347 1.243 . S
C332 C331 1.503 . S
C332 C333 1.394 . S
C332 C337 1.373 . S
C333 C332 1.394 . S
C333 C334 1.380 . S
C333 H356 0.930 . S
C334 C333 1.380 . S
C334 C335 1.376 . S
C334 H357 0.930 . S
C335 C334 1.376 . S
C335 C336 1.370 . S
C336 C335 1.370 . S
C336 C337 1.396 . S
C336 H358 0.929 1_556 S
C337 C332 1.373 . S
C337 C336 1.396 . S
C337 H359 0.929 1_556 S
C338 O348 1.240 . S
C338 O349 1.289 . S
C339 O350 1.258 . S
C339 O351 1.256 . S
O340 La320 2.521 . S
O340 C322 1.261 . S
O341 La320 2.628 . S
O341 C322 1.243 . S
O342 La320 2.554 1_554 S
O342 C329 1.240 . S
O343 La320 2.757 . S
O343 La321 2.482 . S
O343 C329 1.289 1_556 S
O344 La320 2.470 . S
O344 C330 1.258 . S
O345 La321 2.503 . S
O345 C330 1.256 . S
O346 La321 2.521 . S
O346 C331 1.261 . S
O347 La321 2.628 . S
O347 C331 1.243 . S
O348 La321 2.554 . S
O348 C338 1.240 . S
O349 La320 2.482 . S
O349 La321 2.757 . S
O349 C338 1.289 . S
O350 La321 2.470 . S
O350 C339 1.258 . S
O351 La320 2.503 . S
O351 C339 1.256 . S
H352 C324 0.930 . S
H353 C325 0.930 . S
H354 C327 0.929 . S
H355 C328 0.929 . S
H356 C333 0.930 . S
H357 C334 0.930 . S
H358 C336 0.929 1_554 S
H359 C337 0.929 1_554 S
C6 C290 2.048 . S
C46 C330 2.047 . S
C86 C250 2.048 . S
C166 C90 2.043 . S
C206 C10 2.045 . S
C50 C126 2.043 . S
C286 C210 2.046 . S
C326 C130 2.048 . S
C170 C246 2.045 . S
C95 C19 1.851 1_554 S
C59 C15 1.852 1_556 S
C55 C99 1.850 1_554 S
C139 C215 1.853 . S
C135 C179 1.850 . S
C175 C219 1.849 . S
C335 C259 1.852 . S
C299 C255 1.849 . S
C339 C295 1.852 . S
C18 C9 1.209 1_655 S
C58 C49 1.209 . S
C98 C89 1.210 1_545 S
C129 C138 1.209 . S
C169 C178 1.209 . S
C209 C218 1.209 . S
C258 C249 1.210 . S
C289 C298 1.210 . S
C338 C329 1.209 . S
