# Generated by pormake.
# Topology fcd, (5)-cn, num edge types: 1
# Building blocks:
#     Node 0, Type 0, BuildingBlock: XOMCOT_clean_sbu_1, # of connection points: 5
#     Node 1, Type 0, BuildingBlock: XOMCOT_clean_sbu_1, # of connection points: 5
#     Node 2, Type 0, BuildingBlock: XOMCOT_clean_sbu_1, # of connection points: 5
#     Node 3, Type 0, BuildingBlock: XOMCOT_clean_sbu_1, # of connection points: 5
#     Node 4, Type 0, BuildingBlock: XOMCOT_clean_sbu_1, # of connection points: 5
#     Node 5, Type 0, BuildingBlock: XOMCOT_clean_sbu_1, # of connection points: 5
#     Node 6, Type 0, BuildingBlock: XOMCOT_clean_sbu_1, # of connection points: 5
#     Node 7, Type 0, BuildingBlock: XOMCOT_clean_sbu_1, # of connection points: 5
#     Node 8, Type 0, BuildingBlock: XOMCOT_clean_sbu_1, # of connection points: 5
#     Node 9, Type 0, BuildingBlock: XOMCOT_clean_sbu_1, # of connection points: 5
#     Node 10, Type 0, BuildingBlock: XOMCOT_clean_sbu_1, # of connection points: 5
#     Node 11, Type 0, BuildingBlock: XOMCOT_clean_sbu_1, # of connection points: 5
#     Node 12, Type 0, BuildingBlock: XOMCOT_clean_sbu_1, # of connection points: 5
#     Node 13, Type 0, BuildingBlock: XOMCOT_clean_sbu_1, # of connection points: 5
#     Node 14, Type 0, BuildingBlock: XOMCOT_clean_sbu_1, # of connection points: 5
#     Node 15, Type 0, BuildingBlock: XOMCOT_clean_sbu_1, # of connection points: 5
#     Node 16, Type 0, BuildingBlock: XOMCOT_clean_sbu_1, # of connection points: 5
#     Node 17, Type 0, BuildingBlock: XOMCOT_clean_sbu_1, # of connection points: 5
#     Node 18, Type 0, BuildingBlock: XOMCOT_clean_sbu_1, # of connection points: 5
#     Node 19, Type 0, BuildingBlock: XOMCOT_clean_sbu_1, # of connection points: 5
#     Node 20, Type 0, BuildingBlock: XOMCOT_clean_sbu_1, # of connection points: 5
#     Node 21, Type 0, BuildingBlock: XOMCOT_clean_sbu_1, # of connection points: 5
#     Node 22, Type 0, BuildingBlock: XOMCOT_clean_sbu_1, # of connection points: 5
#     Node 23, Type 0, BuildingBlock: XOMCOT_clean_sbu_1, # of connection points: 5
#     Node 24, Type 0, BuildingBlock: XOMCOT_clean_sbu_1, # of connection points: 5
#     Node 25, Type 0, BuildingBlock: XOMCOT_clean_sbu_1, # of connection points: 5
#     Node 26, Type 0, BuildingBlock: XOMCOT_clean_sbu_1, # of connection points: 5
#     Node 27, Type 0, BuildingBlock: XOMCOT_clean_sbu_1, # of connection points: 5
#     Node 28, Type 0, BuildingBlock: XOMCOT_clean_sbu_1, # of connection points: 5
#     Node 29, Type 0, BuildingBlock: XOMCOT_clean_sbu_1, # of connection points: 5
#     Node 30, Type 0, BuildingBlock: XOMCOT_clean_sbu_1, # of connection points: 5
#     Node 31, Type 0, BuildingBlock: XOMCOT_clean_sbu_1, # of connection points: 5
#     Node 32, Type 0, BuildingBlock: XOMCOT_clean_sbu_1, # of connection points: 5
#     Node 33, Type 0, BuildingBlock: XOMCOT_clean_sbu_1, # of connection points: 5
#     Node 34, Type 0, BuildingBlock: XOMCOT_clean_sbu_1, # of connection points: 5
#     Node 35, Type 0, BuildingBlock: XOMCOT_clean_sbu_1, # of connection points: 5
#     Node 36, Type 0, BuildingBlock: XOMCOT_clean_sbu_1, # of connection points: 5
#     Node 37, Type 0, BuildingBlock: XOMCOT_clean_sbu_1, # of connection points: 5
#     Node 38, Type 0, BuildingBlock: XOMCOT_clean_sbu_1, # of connection points: 5
#     Node 39, Type 0, BuildingBlock: XOMCOT_clean_sbu_1, # of connection points: 5
#     Node 40, Type 0, BuildingBlock: XOMCOT_clean_sbu_1, # of connection points: 5
#     Node 41, Type 0, BuildingBlock: XOMCOT_clean_sbu_1, # of connection points: 5
#     Node 42, Type 0, BuildingBlock: XOMCOT_clean_sbu_1, # of connection points: 5
#     Node 43, Type 0, BuildingBlock: XOMCOT_clean_sbu_1, # of connection points: 5
#     Node 44, Type 0, BuildingBlock: XOMCOT_clean_sbu_1, # of connection points: 5
#     Node 45, Type 0, BuildingBlock: XOMCOT_clean_sbu_1, # of connection points: 5
#     Node 46, Type 0, BuildingBlock: XOMCOT_clean_sbu_1, # of connection points: 5
#     Node 47, Type 0, BuildingBlock: XOMCOT_clean_sbu_1, # of connection points: 5
#     Edge 48, Type (0, 0), BuildingBlock: XIVTED_clean_linker_0, # of connection points: 2
#     Edge 49, Type (0, 0), BuildingBlock: XIVTED_clean_linker_0, # of connection points: 2
#     Edge 50, Type (0, 0), BuildingBlock: XIVTED_clean_linker_0, # of connection points: 2
#     Edge 51, Type (0, 0), BuildingBlock: XIVTED_clean_linker_0, # of connection points: 2
#     Edge 52, Type (0, 0), BuildingBlock: XIVTED_clean_linker_0, # of connection points: 2
#     Edge 53, Type (0, 0), BuildingBlock: XIVTED_clean_linker_0, # of connection points: 2
#     Edge 54, Type (0, 0), BuildingBlock: XIVTED_clean_linker_0, # of connection points: 2
#     Edge 55, Type (0, 0), BuildingBlock: XIVTED_clean_linker_0, # of connection points: 2
#     Edge 56, Type (0, 0), BuildingBlock: XIVTED_clean_linker_0, # of connection points: 2
#     Edge 57, Type (0, 0), BuildingBlock: XIVTED_clean_linker_0, # of connection points: 2
#     Edge 58, Type (0, 0), BuildingBlock: XIVTED_clean_linker_0, # of connection points: 2
#     Edge 59, Type (0, 0), BuildingBlock: XIVTED_clean_linker_0, # of connection points: 2
#     Edge 60, Type (0, 0), BuildingBlock: XIVTED_clean_linker_0, # of connection points: 2
#     Edge 61, Type (0, 0), BuildingBlock: XIVTED_clean_linker_0, # of connection points: 2
#     Edge 62, Type (0, 0), BuildingBlock: XIVTED_clean_linker_0, # of connection points: 2
#     Edge 63, Type (0, 0), BuildingBlock: XIVTED_clean_linker_0, # of connection points: 2
#     Edge 64, Type (0, 0), BuildingBlock: XIVTED_clean_linker_0, # of connection points: 2
#     Edge 65, Type (0, 0), BuildingBlock: XIVTED_clean_linker_0, # of connection points: 2
#     Edge 66, Type (0, 0), BuildingBlock: XIVTED_clean_linker_0, # of connection points: 2
#     Edge 67, Type (0, 0), BuildingBlock: XIVTED_clean_linker_0, # of connection points: 2
#     Edge 68, Type (0, 0), BuildingBlock: XIVTED_clean_linker_0, # of connection points: 2
#     Edge 69, Type (0, 0), BuildingBlock: XIVTED_clean_linker_0, # of connection points: 2
#     Edge 70, Type (0, 0), BuildingBlock: XIVTED_clean_linker_0, # of connection points: 2
#     Edge 71, Type (0, 0), BuildingBlock: XIVTED_clean_linker_0, # of connection points: 2
#     Edge 72, Type (0, 0), BuildingBlock: XIVTED_clean_linker_0, # of connection points: 2
#     Edge 73, Type (0, 0), BuildingBlock: XIVTED_clean_linker_0, # of connection points: 2
#     Edge 74, Type (0, 0), BuildingBlock: XIVTED_clean_linker_0, # of connection points: 2
#     Edge 75, Type (0, 0), BuildingBlock: XIVTED_clean_linker_0, # of connection points: 2
#     Edge 76, Type (0, 0), BuildingBlock: XIVTED_clean_linker_0, # of connection points: 2
#     Edge 77, Type (0, 0), BuildingBlock: XIVTED_clean_linker_0, # of connection points: 2
#     Edge 78, Type (0, 0), BuildingBlock: XIVTED_clean_linker_0, # of connection points: 2
#     Edge 79, Type (0, 0), BuildingBlock: XIVTED_clean_linker_0, # of connection points: 2
#     Edge 80, Type (0, 0), BuildingBlock: XIVTED_clean_linker_0, # of connection points: 2
#     Edge 81, Type (0, 0), BuildingBlock: XIVTED_clean_linker_0, # of connection points: 2
#     Edge 82, Type (0, 0), BuildingBlock: XIVTED_clean_linker_0, # of connection points: 2
#     Edge 83, Type (0, 0), BuildingBlock: XIVTED_clean_linker_0, # of connection points: 2
#     Edge 84, Type (0, 0), BuildingBlock: XIVTED_clean_linker_0, # of connection points: 2
#     Edge 85, Type (0, 0), BuildingBlock: XIVTED_clean_linker_0, # of connection points: 2
#     Edge 86, Type (0, 0), BuildingBlock: XIVTED_clean_linker_0, # of connection points: 2
#     Edge 87, Type (0, 0), BuildingBlock: XIVTED_clean_linker_0, # of connection points: 2
#     Edge 88, Type (0, 0), BuildingBlock: XIVTED_clean_linker_0, # of connection points: 2
#     Edge 89, Type (0, 0), BuildingBlock: XIVTED_clean_linker_0, # of connection points: 2
#     Edge 90, Type (0, 0), BuildingBlock: XIVTED_clean_linker_0, # of connection points: 2
#     Edge 91, Type (0, 0), BuildingBlock: XIVTED_clean_linker_0, # of connection points: 2
#     Edge 92, Type (0, 0), BuildingBlock: XIVTED_clean_linker_0, # of connection points: 2
#     Edge 93, Type (0, 0), BuildingBlock: XIVTED_clean_linker_0, # of connection points: 2
#     Edge 94, Type (0, 0), BuildingBlock: XIVTED_clean_linker_0, # of connection points: 2
#     Edge 95, Type (0, 0), BuildingBlock: XIVTED_clean_linker_0, # of connection points: 2
#     Edge 96, Type (0, 0), BuildingBlock: XIVTED_clean_linker_0, # of connection points: 2
#     Edge 97, Type (0, 0), BuildingBlock: XIVTED_clean_linker_0, # of connection points: 2
#     Edge 98, Type (0, 0), BuildingBlock: XIVTED_clean_linker_0, # of connection points: 2
#     Edge 99, Type (0, 0), BuildingBlock: XIVTED_clean_linker_0, # of connection points: 2
#     Edge 100, Type (0, 0), BuildingBlock: XIVTED_clean_linker_0, # of connection points: 2
#     Edge 101, Type (0, 0), BuildingBlock: XIVTED_clean_linker_0, # of connection points: 2
#     Edge 102, Type (0, 0), BuildingBlock: XIVTED_clean_linker_0, # of connection points: 2
#     Edge 103, Type (0, 0), BuildingBlock: XIVTED_clean_linker_0, # of connection points: 2
#     Edge 104, Type (0, 0), BuildingBlock: XIVTED_clean_linker_0, # of connection points: 2
#     Edge 105, Type (0, 0), BuildingBlock: XIVTED_clean_linker_0, # of connection points: 2
#     Edge 106, Type (0, 0), BuildingBlock: XIVTED_clean_linker_0, # of connection points: 2
#     Edge 107, Type (0, 0), BuildingBlock: XIVTED_clean_linker_0, # of connection points: 2
#     Edge 108, Type (0, 0), BuildingBlock: XIVTED_clean_linker_0, # of connection points: 2
#     Edge 109, Type (0, 0), BuildingBlock: XIVTED_clean_linker_0, # of connection points: 2
#     Edge 110, Type (0, 0), BuildingBlock: XIVTED_clean_linker_0, # of connection points: 2
#     Edge 111, Type (0, 0), BuildingBlock: XIVTED_clean_linker_0, # of connection points: 2
#     Edge 112, Type (0, 0), BuildingBlock: XIVTED_clean_linker_0, # of connection points: 2
#     Edge 113, Type (0, 0), BuildingBlock: XIVTED_clean_linker_0, # of connection points: 2
#     Edge 114, Type (0, 0), BuildingBlock: XIVTED_clean_linker_0, # of connection points: 2
#     Edge 115, Type (0, 0), BuildingBlock: XIVTED_clean_linker_0, # of connection points: 2
#     Edge 116, Type (0, 0), BuildingBlock: XIVTED_clean_linker_0, # of connection points: 2
#     Edge 117, Type (0, 0), BuildingBlock: XIVTED_clean_linker_0, # of connection points: 2
#     Edge 118, Type (0, 0), BuildingBlock: XIVTED_clean_linker_0, # of connection points: 2
#     Edge 119, Type (0, 0), BuildingBlock: XIVTED_clean_linker_0, # of connection points: 2
#     Edge 120, Type (0, 0), BuildingBlock: XIVTED_clean_linker_0, # of connection points: 2
#     Edge 121, Type (0, 0), BuildingBlock: XIVTED_clean_linker_0, # of connection points: 2
#     Edge 122, Type (0, 0), BuildingBlock: XIVTED_clean_linker_0, # of connection points: 2
#     Edge 123, Type (0, 0), BuildingBlock: XIVTED_clean_linker_0, # of connection points: 2
#     Edge 124, Type (0, 0), BuildingBlock: XIVTED_clean_linker_0, # of connection points: 2
#     Edge 125, Type (0, 0), BuildingBlock: XIVTED_clean_linker_0, # of connection points: 2
#     Edge 126, Type (0, 0), BuildingBlock: XIVTED_clean_linker_0, # of connection points: 2
#     Edge 127, Type (0, 0), BuildingBlock: XIVTED_clean_linker_0, # of connection points: 2
#     Edge 128, Type (0, 0), BuildingBlock: XIVTED_clean_linker_0, # of connection points: 2
#     Edge 129, Type (0, 0), BuildingBlock: XIVTED_clean_linker_0, # of connection points: 2
#     Edge 130, Type (0, 0), BuildingBlock: XIVTED_clean_linker_0, # of connection points: 2
#     Edge 131, Type (0, 0), BuildingBlock: XIVTED_clean_linker_0, # of connection points: 2
#     Edge 132, Type (0, 0), BuildingBlock: XIVTED_clean_linker_0, # of connection points: 2
#     Edge 133, Type (0, 0), BuildingBlock: XIVTED_clean_linker_0, # of connection points: 2
#     Edge 134, Type (0, 0), BuildingBlock: XIVTED_clean_linker_0, # of connection points: 2
#     Edge 135, Type (0, 0), BuildingBlock: XIVTED_clean_linker_0, # of connection points: 2
#     Edge 136, Type (0, 0), BuildingBlock: XIVTED_clean_linker_0, # of connection points: 2
#     Edge 137, Type (0, 0), BuildingBlock: XIVTED_clean_linker_0, # of connection points: 2
#     Edge 138, Type (0, 0), BuildingBlock: XIVTED_clean_linker_0, # of connection points: 2
#     Edge 139, Type (0, 0), BuildingBlock: XIVTED_clean_linker_0, # of connection points: 2
#     Edge 140, Type (0, 0), BuildingBlock: XIVTED_clean_linker_0, # of connection points: 2
#     Edge 141, Type (0, 0), BuildingBlock: XIVTED_clean_linker_0, # of connection points: 2
#     Edge 142, Type (0, 0), BuildingBlock: XIVTED_clean_linker_0, # of connection points: 2
#     Edge 143, Type (0, 0), BuildingBlock: XIVTED_clean_linker_0, # of connection points: 2
#     Edge 144, Type (0, 0), BuildingBlock: XIVTED_clean_linker_0, # of connection points: 2
#     Edge 145, Type (0, 0), BuildingBlock: XIVTED_clean_linker_0, # of connection points: 2
#     Edge 146, Type (0, 0), BuildingBlock: XIVTED_clean_linker_0, # of connection points: 2
#     Edge 147, Type (0, 0), BuildingBlock: XIVTED_clean_linker_0, # of connection points: 2
#     Edge 148, Type (0, 0), BuildingBlock: XIVTED_clean_linker_0, # of connection points: 2
#     Edge 149, Type (0, 0), BuildingBlock: XIVTED_clean_linker_0, # of connection points: 2
#     Edge 150, Type (0, 0), BuildingBlock: XIVTED_clean_linker_0, # of connection points: 2
#     Edge 151, Type (0, 0), BuildingBlock: XIVTED_clean_linker_0, # of connection points: 2
#     Edge 152, Type (0, 0), BuildingBlock: XIVTED_clean_linker_0, # of connection points: 2
#     Edge 153, Type (0, 0), BuildingBlock: XIVTED_clean_linker_0, # of connection points: 2
#     Edge 154, Type (0, 0), BuildingBlock: XIVTED_clean_linker_0, # of connection points: 2
#     Edge 155, Type (0, 0), BuildingBlock: XIVTED_clean_linker_0, # of connection points: 2
#     Edge 156, Type (0, 0), BuildingBlock: XIVTED_clean_linker_0, # of connection points: 2
#     Edge 157, Type (0, 0), BuildingBlock: XIVTED_clean_linker_0, # of connection points: 2
#     Edge 158, Type (0, 0), BuildingBlock: XIVTED_clean_linker_0, # of connection points: 2
#     Edge 159, Type (0, 0), BuildingBlock: XIVTED_clean_linker_0, # of connection points: 2
#     Edge 160, Type (0, 0), BuildingBlock: XIVTED_clean_linker_0, # of connection points: 2
#     Edge 161, Type (0, 0), BuildingBlock: XIVTED_clean_linker_0, # of connection points: 2
#     Edge 162, Type (0, 0), BuildingBlock: XIVTED_clean_linker_0, # of connection points: 2
#     Edge 163, Type (0, 0), BuildingBlock: XIVTED_clean_linker_0, # of connection points: 2
#     Edge 164, Type (0, 0), BuildingBlock: XIVTED_clean_linker_0, # of connection points: 2
#     Edge 165, Type (0, 0), BuildingBlock: XIVTED_clean_linker_0, # of connection points: 2
#     Edge 166, Type (0, 0), BuildingBlock: XIVTED_clean_linker_0, # of connection points: 2
#     Edge 167, Type (0, 0), BuildingBlock: XIVTED_clean_linker_0, # of connection points: 2
# Relax obj value: 0.321
# Max RMSD: 0.263
# Mean RMSD: 0.263
data_MOF--net-fcd--node1-XOMCOT_clean_sbu_1--edge1-XIVTED_clean_linker_0
_symmetry_space_group_name_H-M    P1
_symmetry_Int_Tables_number       1
_symmetry_cell_setting            triclinic
loop_
_symmetry_equiv_pos_as_xyz
'x, y, z'
_cell_length_a     69.182547
_cell_length_b     69.185861
_cell_length_c     69.182293
_cell_angle_alpha  89.994932
_cell_angle_beta   89.971248
_cell_angle_gamma 90.019722
loop_
_atom_site_label
_atom_site_type_symbol
_atom_site_fract_x
_atom_site_fract_y
_atom_site_fract_z
_atom_type_partial_charge
C0 C 0.06541 0.16679 0.39831 0.0
C1 C 0.04901 0.17642 0.40413 0.0
N2 N 0.0503 0.19485 0.39799 0.0
N3 N 0.07694 0.17907 0.38852 0.0
C4 C 0.06739 0.19608 0.38866 0.0
H5 H 0.06842 0.15159 0.4004 0.0
Co6 Co 0.09914 0.1715 0.37551 0.0
C7 C 0.11249 0.2054 0.35282 0.0
O8 O 0.11818 0.19425 0.33858 0.0
N9 N 0.12191 0.16302 0.36256 0.0
C10 C 0.1432 0.14964 0.34227 0.0
C11 C 0.12397 0.15357 0.34551 0.0
C12 C 0.14024 0.1646 0.36926 0.0
N13 N 0.15332 0.15646 0.35735 0.0
O14 O 0.11344 0.17586 0.39866 0.0
H15 H 0.11242 0.14977 0.33576 0.0
H16 H 0.14415 0.17162 0.38265 0.0
O17 O 0.1043 0.19812 0.36769 0.0
C18 C 0.115 0.16092 0.40925 0.0
O19 O 0.1081 0.14446 0.40275 0.0
N20 N 0.08369 0.16616 0.35408 0.0
C21 C 0.04876 0.15426 0.33825 0.0
C22 C 0.05465 0.1736 0.33665 0.0
C23 C 0.0723 0.17934 0.34476 0.0
C24 C 0.07905 0.14704 0.35392 0.0
C25 C 0.06183 0.14072 0.34573 0.0
H26 H 0.07537 0.1946 0.34569 0.0
H27 H 0.08776 0.13693 0.36206 0.0
H28 H 0.07224 0.20882 0.38106 0.0
H29 H 0.03693 0.17024 0.41192 0.0
H30 H 0.1492 0.14188 0.33008 0.0
H31 H 0.04484 0.18451 0.33119 0.0
H32 H 0.05788 0.12562 0.3471 0.0
C33 C 0.93441 0.32505 0.40661 0.0
C34 C 0.95028 0.31421 0.41158 0.0
N35 N 0.94919 0.29715 0.40225 0.0
N36 N 0.92335 0.3149 0.39422 0.0
C37 C 0.93267 0.2979 0.39189 0.0
H38 H 0.93141 0.33967 0.41122 0.0
Co39 Co 0.90186 0.32512 0.38202 0.0
C40 C 0.88388 0.29335 0.3596 0.0
O41 O 0.87873 0.30545 0.3459 0.0
N42 N 0.87997 0.33624 0.37019 0.0
C43 C 0.85962 0.35591 0.35487 0.0
C44 C 0.87872 0.35121 0.35769 0.0
C45 C 0.86136 0.33211 0.37464 0.0
N46 N 0.84874 0.34388 0.36559 0.0
O47 O 0.8877 0.32207 0.40542 0.0
H48 H 0.89075 0.3588 0.35133 0.0
H49 H 0.85716 0.32111 0.38494 0.0
O50 O 0.89355 0.29935 0.37415 0.0
C51 C 0.88667 0.33713 0.41588 0.0
O52 O 0.89398 0.35335 0.40921 0.0
N53 N 0.91714 0.32891 0.35997 0.0
C54 C 0.95017 0.33634 0.33816 0.0
C55 C 0.94117 0.31821 0.33731 0.0
C56 C 0.92461 0.31474 0.34837 0.0
C57 C 0.92531 0.34682 0.36026 0.0
C58 C 0.94157 0.35099 0.34915 0.0
H59 H 0.91926 0.30014 0.34898 0.0
H60 H 0.92006 0.3575 0.37041 0.0
H61 H 0.92802 0.28672 0.38202 0.0
H62 H 0.96187 0.31867 0.4211 0.0
H63 H 0.85418 0.36752 0.3459 0.0
H64 H 0.94768 0.30645 0.32929 0.0
H65 H 0.9484 0.365 0.35064 0.0
C66 C 0.07113 0.82698 0.08972 0.0
C67 C 0.05444 0.81763 0.08429 0.0
N68 N 0.05438 0.79999 0.09253 0.0
N69 N 0.08146 0.81533 0.10141 0.0
C70 C 0.07095 0.79892 0.10275 0.0
H71 H 0.07518 0.84162 0.08602 0.0
Co72 Co 0.10342 0.82341 0.11441 0.0
C73 C 0.11611 0.79086 0.13916 0.0
O74 O 0.12174 0.80285 0.15274 0.0
N75 N 0.12602 0.83236 0.12733 0.0
C76 C 0.14704 0.84755 0.14659 0.0
C77 C 0.1278 0.84385 0.14311 0.0
C78 C 0.14452 0.82925 0.12171 0.0
N79 N 0.15744 0.83851 0.13294 0.0
O80 O 0.11814 0.81749 0.09188 0.0
H81 H 0.11605 0.84942 0.1517 0.0
H82 H 0.14867 0.82043 0.1095 0.0
O83 O 0.10808 0.79726 0.12381 0.0
C84 C 0.12319 0.83161 0.08124 0.0
O85 O 0.11927 0.84932 0.08687 0.0
N86 N 0.08761 0.83013 0.13519 0.0
C87 C 0.05321 0.84306 0.15141 0.0
C88 C 0.05931 0.82394 0.1543 0.0
C89 C 0.07664 0.81766 0.14591 0.0
C90 C 0.08267 0.84912 0.13378 0.0
C91 C 0.06572 0.85597 0.14209 0.0
H92 H 0.07982 0.80241 0.14618 0.0
H93 H 0.09104 0.85858 0.12455 0.0
H94 H 0.07474 0.78686 0.11193 0.0
H95 H 0.04308 0.82347 0.07526 0.0
H96 H 0.15288 0.85678 0.1578 0.0
H97 H 0.04988 0.81348 0.16115 0.0
H98 H 0.06155 0.87087 0.13964 0.0
C99 C 0.92924 0.67871 0.08151 0.0
C100 C 0.94536 0.68915 0.07629 0.0
N101 N 0.94708 0.70421 0.08852 0.0
N102 N 0.92093 0.68711 0.09698 0.0
C103 C 0.93207 0.70265 0.10089 0.0
H104 H 0.92423 0.66546 0.07489 0.0
Co105 Co 0.90054 0.67648 0.11069 0.0
C106 C 0.8871 0.70669 0.13829 0.0
O107 O 0.88124 0.69379 0.15092 0.0
N108 N 0.87968 0.66504 0.12418 0.0
C109 C 0.86099 0.64414 0.14002 0.0
C110 C 0.8797 0.6492 0.13563 0.0
C111 C 0.8607 0.66943 0.12213 0.0
N112 N 0.84905 0.65683 0.1314 0.0
O113 O 0.88371 0.68341 0.09 0.0
H114 H 0.89233 0.64118 0.13999 0.0
H115 H 0.85545 0.68108 0.11313 0.0
O116 O 0.89533 0.70139 0.12263 0.0
C117 C 0.87752 0.66989 0.07918 0.0
O118 O 0.88184 0.6519 0.08344 0.0
N119 N 0.9182 0.6689 0.1296 0.0
C120 C 0.95354 0.65695 0.14454 0.0
C121 C 0.9452 0.67436 0.15072 0.0
C122 C 0.92745 0.68023 0.1429 0.0
C123 C 0.92551 0.65134 0.12462 0.0
C124 C 0.94301 0.64496 0.1321 0.0
H125 H 0.92236 0.69457 0.14618 0.0
H126 H 0.91839 0.64291 0.11354 0.0
H127 H 0.9299 0.71205 0.11318 0.0
H128 H 0.95519 0.6858 0.06458 0.0
H129 H 0.85652 0.63171 0.14841 0.0
H130 H 0.95308 0.68411 0.1601 0.0
H131 H 0.94895 0.63138 0.12705 0.0
C132 C 0.40126 0.06361 0.16696 0.0
C133 C 0.4071 0.04693 0.17601 0.0
N134 N 0.40257 0.04832 0.1949 0.0
N135 N 0.39305 0.07547 0.18004 0.0
C136 C 0.39425 0.06586 0.19701 0.0
H137 H 0.40204 0.06652 0.15162 0.0
Co138 Co 0.38011 0.09802 0.17327 0.0
C139 C 0.35584 0.10651 0.20764 0.0
O140 O 0.34029 0.10802 0.19689 0.0
N141 N 0.36714 0.12123 0.16578 0.0
C142 C 0.34555 0.14299 0.15555 0.0
C143 C 0.34862 0.12386 0.15992 0.0
C144 C 0.37494 0.13918 0.1646 0.0
N145 N 0.3622 0.15254 0.15839 0.0
O146 O 0.40325 0.11205 0.17853 0.0
H147 H 0.33774 0.11271 0.15896 0.0
H148 H 0.38966 0.14269 0.16841 0.0
O149 O 0.37202 0.10211 0.19992 0.0
C150 C 0.41444 0.11238 0.16393 0.0
O151 O 0.40806 0.10523 0.14752 0.0
N152 N 0.3587 0.08275 0.16687 0.0
C153 C 0.34211 0.04947 0.15152 0.0
C154 C 0.34226 0.05255 0.17157 0.0
C155 C 0.35073 0.06933 0.17901 0.0
C156 C 0.35694 0.08081 0.14736 0.0
C157 C 0.34831 0.06448 0.13938 0.0
H158 H 0.35305 0.07016 0.19441 0.0
H159 H 0.36406 0.09104 0.1379 0.0
H160 H 0.38795 0.07097 0.21037 0.0
H161 H 0.41362 0.0345 0.1691 0.0
H162 H 0.33222 0.14932 0.15035 0.0
H163 H 0.33792 0.04123 0.18148 0.0
H164 H 0.34824 0.06281 0.12381 0.0
C165 C 0.59169 0.43028 0.17795 0.0
C166 C 0.5859 0.44611 0.18852 0.0
N167 N 0.59663 0.44685 0.20475 0.0
N168 N 0.60601 0.42117 0.18746 0.0
C169 C 0.60867 0.43153 0.20378 0.0
H170 H 0.58619 0.42593 0.16398 0.0
Co171 Co 0.61968 0.40047 0.17765 0.0
C172 C 0.64507 0.38688 0.20942 0.0
O173 O 0.65938 0.38341 0.19741 0.0
N174 N 0.6332 0.3792 0.16716 0.0
C175 C 0.64871 0.35933 0.14717 0.0
C176 C 0.64477 0.37833 0.15143 0.0
C177 C 0.63065 0.3605 0.17231 0.0
N178 N 0.63966 0.34813 0.16024 0.0
O179 O 0.59789 0.38439 0.18272 0.0
H180 H 0.6494 0.39049 0.14285 0.0
H181 H 0.62128 0.35597 0.18399 0.0
O182 O 0.62932 0.39422 0.20323 0.0
C183 C 0.58806 0.37798 0.16858 0.0
O184 O 0.59383 0.3816 0.15085 0.0
N185 N 0.6399 0.41744 0.17183 0.0
C186 C 0.66083 0.44966 0.1595 0.0
C187 C 0.66342 0.44219 0.17819 0.0
C188 C 0.6526 0.42616 0.1842 0.0
C189 C 0.6374 0.42443 0.15363 0.0
C190 C 0.64785 0.44028 0.14708 0.0
H191 H 0.65354 0.42189 0.19914 0.0
H192 H 0.6264 0.41815 0.14445 0.0
H193 H 0.61979 0.42843 0.21432 0.0
H194 H 0.57481 0.45637 0.18448 0.0
H195 H 0.65696 0.35416 0.13492 0.0
H196 H 0.67304 0.44917 0.18837 0.0
H197 H 0.64474 0.44587 0.13279 0.0
C198 C 0.41151 0.92717 0.32083 0.0
C199 C 0.41673 0.9436 0.31087 0.0
N200 N 0.40553 0.94491 0.295 0.0
N201 N 0.39711 0.91823 0.31127 0.0
C202 C 0.39376 0.92935 0.2956 0.0
H203 H 0.41756 0.92222 0.33436 0.0
Co204 Co 0.38433 0.89651 0.3202 0.0
C205 C 0.36044 0.88165 0.28763 0.0
O206 O 0.34754 0.87426 0.29943 0.0
N207 N 0.37164 0.87422 0.32997 0.0
C208 C 0.35286 0.85372 0.34638 0.0
C209 C 0.3565 0.87286 0.34233 0.0
C210 C 0.3768 0.85561 0.32676 0.0
N211 N 0.3658 0.84299 0.33669 0.0
O212 O 0.40679 0.88168 0.31443 0.0
H213 H 0.34859 0.88486 0.34837 0.0
H214 H 0.38847 0.85121 0.31734 0.0
O215 O 0.37484 0.89114 0.29424 0.0
C216 C 0.41745 0.87634 0.32841 0.0
O217 O 0.41204 0.88017 0.34621 0.0
N218 N 0.36348 0.91225 0.32667 0.0
C219 C 0.34141 0.94329 0.33977 0.0
C220 C 0.33861 0.93576 0.32112 0.0
C221 C 0.34994 0.92025 0.31474 0.0
C222 C 0.36588 0.91893 0.34499 0.0
C223 C 0.35492 0.93427 0.3519 0.0
H224 H 0.34866 0.91577 0.29988 0.0
H225 H 0.3772 0.9129 0.35394 0.0
H226 H 0.38241 0.92655 0.28524 0.0
H227 H 0.42787 0.95377 0.31501 0.0
H228 H 0.34208 0.84816 0.35627 0.0
H229 H 0.32842 0.94235 0.31123 0.0
H230 H 0.35807 0.93982 0.36619 0.0
C231 C 0.60359 0.56574 0.33213 0.0
C232 C 0.5969 0.54946 0.32291 0.0
N233 N 0.60158 0.55078 0.30405 0.0
N234 N 0.61249 0.57723 0.31918 0.0
C235 C 0.61085 0.56785 0.30213 0.0
H236 H 0.60284 0.5686 0.34748 0.0
Co237 Co 0.62644 0.59906 0.32615 0.0
C238 C 0.65009 0.60816 0.29169 0.0
O239 O 0.66574 0.60909 0.30237 0.0
N240 N 0.64045 0.62159 0.33387 0.0
C241 C 0.66258 0.64244 0.34489 0.0
C242 C 0.65883 0.62342 0.34045 0.0
C243 C 0.63349 0.63989 0.33454 0.0
N244 N 0.6465 0.65268 0.34131 0.0
O245 O 0.60362 0.61398 0.32214 0.0
H246 H 0.66916 0.61181 0.34186 0.0
H247 H 0.61917 0.64408 0.33 0.0
O248 O 0.6339 0.60373 0.29939 0.0
C249 C 0.59363 0.61529 0.33754 0.0
O250 O 0.60085 0.60815 0.3536 0.0
N251 N 0.64746 0.58287 0.33141 0.0
C252 C 0.66317 0.54845 0.34502 0.0
C253 C 0.66297 0.55246 0.32515 0.0
C254 C 0.65491 0.5698 0.31858 0.0
C255 C 0.64926 0.57993 0.35079 0.0
C256 C 0.65743 0.56299 0.35792 0.0
H257 H 0.65247 0.57139 0.30326 0.0
H258 H 0.64249 0.58988 0.36077 0.0
H259 H 0.61747 0.57275 0.28883 0.0
H260 H 0.58967 0.53735 0.32968 0.0
H261 H 0.67591 0.64822 0.3507 0.0
H262 H 0.66695 0.5415 0.31471 0.0
H263 H 0.65748 0.56052 0.37338 0.0
C264 C 0.17218 0.40389 0.06736 0.0
C265 C 0.18149 0.41004 0.05094 0.0
N266 N 0.20035 0.40544 0.05249 0.0
N267 N 0.18508 0.39552 0.07931 0.0
C268 C 0.20216 0.39681 0.06993 0.0
H269 H 0.1568 0.40464 0.07006 0.0
Co270 Co 0.17804 0.38248 0.10179 0.0
C271 C 0.21144 0.35536 0.10726 0.0
O272 O 0.20048 0.33989 0.10744 0.0
N273 N 0.17035 0.3695 0.12474 0.0
C274 C 0.16126 0.34749 0.14654 0.0
C275 C 0.16558 0.3507 0.12741 0.0
C276 C 0.1683 0.37742 0.14253 0.0
N277 N 0.16294 0.36437 0.15596 0.0
O278 O 0.1863 0.40437 0.11652 0.0
H279 H 0.16515 0.33979 0.11625 0.0
H280 H 0.17092 0.39244 0.14584 0.0
O281 O 0.20399 0.37203 0.1046 0.0
C282 C 0.17519 0.41899 0.11588 0.0
O283 O 0.15878 0.41776 0.10643 0.0
N284 N 0.16917 0.36219 0.08624 0.0
C285 C 0.15118 0.34539 0.05442 0.0
C286 C 0.17138 0.34524 0.05607 0.0
C287 C 0.18014 0.35389 0.07206 0.0
C288 C 0.14952 0.361 0.08564 0.0
C289 C 0.14022 0.35238 0.06999 0.0
H290 H 0.19561 0.35584 0.0718 0.0
H291 H 0.14099 0.36836 0.09648 0.0
H292 H 0.21542 0.39041 0.07519 0.0
H293 H 0.17473 0.41684 0.03859 0.0
H294 H 0.15696 0.33389 0.15297 0.0
H295 H 0.18041 0.34038 0.04424 0.0
H296 H 0.12458 0.35265 0.06936 0.0
C297 C 0.16881 0.6024 0.43623 0.0
C298 C 0.17856 0.59668 0.45257 0.0
N299 N 0.19699 0.60278 0.45109 0.0
N300 N 0.18101 0.6121 0.42454 0.0
C301 C 0.19811 0.61201 0.43394 0.0
H302 H 0.15359 0.60032 0.43338 0.0
Co303 Co 0.17314 0.62491 0.40235 0.0
C304 C 0.20728 0.64612 0.38722 0.0
O305 O 0.19631 0.66035 0.38117 0.0
N306 N 0.16429 0.63762 0.37963 0.0
C307 C 0.15055 0.65771 0.35841 0.0
C308 C 0.15481 0.65465 0.3776 0.0
C309 C 0.16551 0.63073 0.36135 0.0
N310 N 0.15716 0.64252 0.34832 0.0
O311 O 0.17625 0.60137 0.38839 0.0
H312 H 0.1512 0.6645 0.38914 0.0
H313 H 0.1725 0.61732 0.35744 0.0
O314 O 0.19985 0.63179 0.39621 0.0
C315 C 0.16075 0.59154 0.38734 0.0
O316 O 0.14478 0.59903 0.39439 0.0
N317 N 0.16898 0.64679 0.41752 0.0
C318 C 0.15908 0.6634 0.45268 0.0
C319 C 0.17808 0.66479 0.44574 0.0
C320 C 0.18282 0.65626 0.42799 0.0
C321 C 0.15014 0.64719 0.42317 0.0
C322 C 0.14481 0.65567 0.44058 0.0
H323 H 0.19789 0.65516 0.42414 0.0
H324 H 0.13954 0.63892 0.41518 0.0
H325 H 0.21082 0.61955 0.42893 0.0
H326 H 0.17247 0.58897 0.46475 0.0
H327 H 0.14277 0.66989 0.35242 0.0
H328 H 0.1895 0.67039 0.45487 0.0
H329 H 0.13 0.6543 0.44551 0.0
C330 C 0.82921 0.90373 0.43524 0.0
C331 C 0.81908 0.90995 0.45118 0.0
N332 N 0.80122 0.90223 0.45046 0.0
N333 N 0.81776 0.89226 0.42444 0.0
C334 C 0.80075 0.89169 0.43404 0.0
H335 H 0.84421 0.90676 0.43212 0.0
Co336 Co 0.82614 0.87894 0.40263 0.0
C337 C 0.79294 0.85425 0.39184 0.0
O338 O 0.80414 0.83899 0.39061 0.0
N339 N 0.83513 0.86562 0.38014 0.0
C340 C 0.84738 0.84418 0.35926 0.0
C341 C 0.84271 0.84763 0.37828 0.0
C342 C 0.83546 0.87266 0.36186 0.0
N343 N 0.84294 0.86006 0.34905 0.0
O344 O 0.82161 0.90174 0.38785 0.0
H345 H 0.84454 0.83731 0.38985 0.0
H346 H 0.83006 0.88669 0.35768 0.0
O347 O 0.79997 0.87049 0.39704 0.0
C348 C 0.83665 0.91229 0.38694 0.0
O349 O 0.85281 0.90563 0.39436 0.0
N350 N 0.83187 0.85795 0.41861 0.0
C351 C 0.84543 0.84148 0.45267 0.0
C352 C 0.8257 0.84065 0.44805 0.0
C353 C 0.81914 0.84911 0.43089 0.0
C354 C 0.85122 0.8573 0.42213 0.0
C355 C 0.85835 0.84875 0.43885 0.0
H356 H 0.80375 0.85052 0.42881 0.0
H357 H 0.86103 0.8651 0.41277 0.0
H358 H 0.78841 0.88326 0.42943 0.0
H359 H 0.82473 0.91868 0.46287 0.0
H360 H 0.85381 0.83116 0.35343 0.0
H361 H 0.81523 0.83544 0.45847 0.0
H362 H 0.87371 0.8495 0.44177 0.0
C363 C 0.32649 0.59196 0.56771 0.0
C364 C 0.31551 0.58682 0.55194 0.0
N365 N 0.29919 0.59745 0.55217 0.0
N366 N 0.31715 0.60577 0.57775 0.0
C367 C 0.30052 0.60876 0.56801 0.0
H368 H 0.34062 0.58639 0.57138 0.0
Co369 Co 0.32771 0.61849 0.5987 0.0
C370 C 0.29651 0.64278 0.61556 0.0
O371 O 0.30889 0.65626 0.6206 0.0
N372 N 0.33911 0.63089 0.62011 0.0
C373 C 0.35976 0.64566 0.63989 0.0
C374 C 0.35501 0.64222 0.62089 0.0
C375 C 0.33446 0.62779 0.63886 0.0
N376 N 0.34682 0.6365 0.65115 0.0
O377 O 0.32314 0.596 0.61392 0.0
H378 H 0.36327 0.64715 0.60862 0.0
H379 H 0.32273 0.6185 0.64344 0.0
O380 O 0.30225 0.62784 0.60632 0.0
C381 C 0.33703 0.58541 0.61958 0.0
O382 O 0.3549 0.59074 0.61597 0.0
N383 N 0.33269 0.63962 0.58245 0.0
C384 C 0.34089 0.6598 0.54857 0.0
C385 C 0.323 0.66204 0.55779 0.0
C386 C 0.31914 0.6518 0.57477 0.0
C387 C 0.35045 0.63803 0.57409 0.0
C388 C 0.35501 0.64829 0.55736 0.0
H389 H 0.30462 0.65231 0.58032 0.0
H390 H 0.36062 0.62751 0.5796 0.0
H391 H 0.29003 0.61967 0.57188 0.0
H392 H 0.31933 0.57626 0.54106 0.0
H393 H 0.3721 0.65381 0.645 0.0
H394 H 0.31164 0.67056 0.5512 0.0
H395 H 0.36881 0.64577 0.55039 0.0
C396 C 0.93422 0.82632 0.60129 0.0
C397 C 0.95067 0.81691 0.59535 0.0
N398 N 0.95027 0.79879 0.60249 0.0
N399 N 0.92346 0.81421 0.61209 0.0
C400 C 0.93355 0.7975 0.61251 0.0
H401 H 0.93057 0.84123 0.59839 0.0
Co402 Co 0.9011 0.82174 0.62473 0.0
C403 C 0.88703 0.78761 0.64598 0.0
O404 O 0.88285 0.79847 0.66097 0.0
N405 N 0.87813 0.83 0.63726 0.0
C406 C 0.85606 0.84339 0.65665 0.0
C407 C 0.87549 0.84015 0.65381 0.0
C408 C 0.85998 0.82726 0.63049 0.0
N409 N 0.84643 0.8354 0.64182 0.0
O410 O 0.88747 0.81886 0.60103 0.0
H411 H 0.88678 0.84504 0.66338 0.0
H412 H 0.85656 0.81942 0.61741 0.0
O413 O 0.89495 0.79507 0.63105 0.0
C414 C 0.88578 0.83445 0.59145 0.0
O415 O 0.89219 0.85059 0.59915 0.0
N416 N 0.91591 0.82569 0.64692 0.0
C417 C 0.94741 0.83639 0.66968 0.0
C418 C 0.94107 0.81711 0.66921 0.0
C419 C 0.92544 0.81197 0.65746 0.0
C420 C 0.92132 0.84456 0.64792 0.0
C421 C 0.93682 0.85028 0.65935 0.0
H422 H 0.92234 0.79682 0.65563 0.0
H423 H 0.91437 0.85505 0.63863 0.0
H424 H 0.9292 0.78494 0.62075 0.0
H425 H 0.96214 0.82305 0.58665 0.0
H426 H 0.84958 0.85155 0.66833 0.0
H427 H 0.94889 0.80588 0.67681 0.0
H428 H 0.94141 0.86522 0.65867 0.0
C429 C 0.06953 0.67119 0.60114 0.0
C430 C 0.05296 0.6802 0.59487 0.0
N431 N 0.05376 0.6989 0.60026 0.0
N432 N 0.08069 0.68412 0.61048 0.0
C433 C 0.07082 0.70093 0.60953 0.0
H434 H 0.07281 0.65597 0.59983 0.0
Co435 Co 0.10271 0.67748 0.6243 0.0
C436 C 0.11144 0.71206 0.64794 0.0
O437 O 0.11299 0.70141 0.66357 0.0
N438 N 0.12543 0.67017 0.63819 0.0
C439 C 0.14662 0.65929 0.66006 0.0
C440 C 0.12747 0.6633 0.65645 0.0
C441 C 0.14373 0.67018 0.6312 0.0
N442 N 0.15672 0.66348 0.64403 0.0
O443 O 0.11752 0.68196 0.60148 0.0
H444 H 0.11591 0.66135 0.66675 0.0
H445 H 0.14778 0.67509 0.61696 0.0
O446 O 0.10685 0.70424 0.63186 0.0
C447 C 0.11939 0.66667 0.59144 0.0
O448 O 0.11248 0.6504 0.59841 0.0
N449 N 0.08671 0.67172 0.64534 0.0
C450 C 0.05248 0.65717 0.66065 0.0
C451 C 0.05618 0.67711 0.66094 0.0
C452 C 0.07346 0.68416 0.65309 0.0
C453 C 0.0841 0.65226 0.64673 0.0
C454 C 0.06727 0.64466 0.6547 0.0
H455 H 0.07485 0.69956 0.65106 0.0
H456 H 0.09423 0.6426 0.63976 0.0
H457 H 0.07535 0.71408 0.61666 0.0
H458 H 0.04101 0.67336 0.58744 0.0
H459 H 0.15258 0.6533 0.67323 0.0
H460 H 0.04503 0.68727 0.66514 0.0
H461 H 0.06507 0.62916 0.65441 0.0
C462 C 0.92663 0.16952 0.89673 0.0
C463 C 0.94283 0.17938 0.90273 0.0
N464 N 0.94144 0.19778 0.89647 0.0
N465 N 0.91517 0.18161 0.88667 0.0
C466 C 0.92448 0.19877 0.88689 0.0
H467 H 0.92367 0.15433 0.89892 0.0
Co468 Co 0.89324 0.17382 0.87347 0.0
C469 C 0.88104 0.20752 0.85018 0.0
O470 O 0.87798 0.19653 0.83502 0.0
N471 N 0.87063 0.1654 0.86025 0.0
C472 C 0.84931 0.15169 0.84022 0.0
C473 C 0.8686 0.15536 0.84355 0.0
C474 C 0.85225 0.16779 0.86653 0.0
N475 N 0.83916 0.15937 0.85487 0.0
O476 O 0.87878 0.1783 0.89644 0.0
H477 H 0.88023 0.15079 0.83422 0.0
H478 H 0.84828 0.17555 0.87949 0.0
O479 O 0.88775 0.20018 0.86573 0.0
C480 C 0.87427 0.16394 0.90699 0.0
O481 O 0.87828 0.14638 0.90098 0.0
N482 N 0.909 0.16861 0.85214 0.0
C483 C 0.94428 0.15724 0.83661 0.0
C484 C 0.93816 0.17649 0.83503 0.0
C485 C 0.92042 0.18197 0.84306 0.0
C486 C 0.91392 0.14955 0.85198 0.0
C487 C 0.93136 0.1435 0.844 0.0
H488 H 0.91734 0.1972 0.84416 0.0
H489 H 0.90525 0.1393 0.86001 0.0
H490 H 0.91951 0.21147 0.87926 0.0
H491 H 0.95483 0.1734 0.91078 0.0
H492 H 0.84328 0.14344 0.82838 0.0
H493 H 0.94787 0.18757 0.82973 0.0
H494 H 0.93556 0.12848 0.84542 0.0
C495 C 0.05554 0.32948 0.90697 0.0
C496 C 0.03956 0.31853 0.91135 0.0
N497 N 0.04132 0.30132 0.90243 0.0
N498 N 0.06736 0.31923 0.89539 0.0
C499 C 0.05836 0.30208 0.89292 0.0
H500 H 0.05806 0.34425 0.91138 0.0
Co501 Co 0.08926 0.32959 0.88393 0.0
C502 C 0.10941 0.29742 0.86385 0.0
O503 O 0.11548 0.30913 0.85019 0.0
N504 N 0.11144 0.3409 0.87288 0.0
C505 C 0.13214 0.36037 0.85774 0.0
C506 C 0.11299 0.35546 0.85994 0.0
C507 C 0.12988 0.3373 0.87831 0.0
N508 N 0.14272 0.34891 0.86934 0.0
O509 O 0.10228 0.32767 0.90805 0.0
H510 H 0.1011 0.36252 0.85276 0.0
H511 H 0.13378 0.32666 0.88908 0.0
O512 O 0.09855 0.30374 0.87741 0.0
C513 C 0.10217 0.3428 0.91845 0.0
O514 O 0.09432 0.35863 0.91146 0.0
N515 N 0.07509 0.3322 0.86101 0.0
C516 C 0.04216 0.33722 0.83847 0.0
C517 C 0.05219 0.31963 0.83819 0.0
C518 C 0.0687 0.31737 0.84959 0.0
C519 C 0.06616 0.34973 0.86045 0.0
C520 C 0.04989 0.35269 0.84898 0.0
H521 H 0.07475 0.30309 0.85071 0.0
H522 H 0.07064 0.36096 0.87037 0.0
H523 H 0.06361 0.29079 0.88349 0.0
H524 H 0.02743 0.32305 0.92015 0.0
H525 H 0.1378 0.37161 0.84844 0.0
H526 H 0.04642 0.30728 0.83047 0.0
H527 H 0.0423 0.36634 0.84998 0.0
C528 C 0.59497 0.92914 0.83128 0.0
C529 C 0.58895 0.94537 0.82149 0.0
N530 N 0.59754 0.94547 0.80402 0.0
N531 N 0.60734 0.91913 0.82005 0.0
C532 C 0.60849 0.92934 0.80345 0.0
H533 H 0.59134 0.92535 0.846 0.0
Co534 Co 0.62192 0.89847 0.82886 0.0
C535 C 0.64662 0.88644 0.79607 0.0
O536 O 0.66139 0.88364 0.80767 0.0
N537 N 0.63635 0.87734 0.83839 0.0
C538 C 0.65402 0.85765 0.85674 0.0
C539 C 0.64964 0.87662 0.85271 0.0
C540 C 0.63328 0.85858 0.83376 0.0
N541 N 0.6436 0.84633 0.84486 0.0
O542 O 0.60032 0.88203 0.82459 0.0
H543 H 0.65539 0.88888 0.86041 0.0
H544 H 0.62278 0.85389 0.82316 0.0
O545 O 0.6307 0.89292 0.8028 0.0
C546 C 0.59023 0.87885 0.83961 0.0
O547 O 0.59634 0.88568 0.85625 0.0
N548 N 0.64182 0.91594 0.83416 0.0
C549 C 0.6541 0.95278 0.84437 0.0
C550 C 0.65812 0.94547 0.8259 0.0
C551 C 0.65168 0.92691 0.82097 0.0
C552 C 0.63948 0.92229 0.85264 0.0
C553 C 0.64572 0.94056 0.85813 0.0
H554 H 0.6525 0.92265 0.80601 0.0
H555 H 0.63067 0.91401 0.86257 0.0
H556 H 0.61817 0.92577 0.79169 0.0
H557 H 0.57943 0.95648 0.82701 0.0
H558 H 0.66366 0.85258 0.86797 0.0
H559 H 0.66422 0.95472 0.81483 0.0
H560 H 0.64226 0.94582 0.87247 0.0
C561 C 0.4052 0.56431 0.82564 0.0
C562 C 0.41067 0.54838 0.81505 0.0
N563 N 0.40053 0.54835 0.79842 0.0
N564 N 0.39166 0.57418 0.81574 0.0
C565 C 0.38918 0.56419 0.79917 0.0
H566 H 0.4103 0.56819 0.83989 0.0
Co567 Co 0.37835 0.59515 0.82543 0.0
C568 C 0.35467 0.61019 0.79285 0.0
O569 O 0.34013 0.61444 0.80432 0.0
N570 N 0.36522 0.61661 0.83586 0.0
C571 C 0.3499 0.63666 0.85583 0.0
C572 C 0.35356 0.61761 0.85151 0.0
C573 C 0.36819 0.63528 0.83085 0.0
N574 N 0.35925 0.64775 0.84287 0.0
O575 O 0.40072 0.61067 0.82114 0.0
H576 H 0.34867 0.60548 0.85999 0.0
H577 H 0.37776 0.63968 0.81928 0.0
O578 O 0.36975 0.60202 0.79964 0.0
C579 C 0.41068 0.61696 0.83524 0.0
O580 O 0.40484 0.61361 0.853 0.0
N581 N 0.3574 0.5787 0.83032 0.0
C582 C 0.33534 0.54654 0.84076 0.0
C583 C 0.33352 0.55478 0.82231 0.0
C584 C 0.34488 0.57076 0.81726 0.0
C585 C 0.35904 0.57108 0.84837 0.0
C586 C 0.34801 0.55523 0.85399 0.0
H587 H 0.34451 0.57556 0.80247 0.0
H588 H 0.36987 0.57674 0.85814 0.0
H589 H 0.37857 0.56787 0.78829 0.0
H590 H 0.42109 0.53754 0.81936 0.0
H591 H 0.34159 0.64193 0.868 0.0
H592 H 0.32413 0.54838 0.81155 0.0
H593 H 0.35049 0.54906 0.86816 0.0
C594 C 0.5964 0.06457 0.67635 0.0
C595 C 0.59046 0.0485 0.68639 0.0
N596 N 0.59852 0.04903 0.7041 0.0
N597 N 0.60815 0.07519 0.68765 0.0
C598 C 0.60905 0.06548 0.70457 0.0
H599 H 0.59306 0.0679 0.66145 0.0
Co600 Co 0.62181 0.09619 0.67832 0.0
C601 C 0.64152 0.11409 0.71164 0.0
O602 O 0.65687 0.11726 0.70089 0.0
N603 N 0.63513 0.11756 0.668 0.0
C604 C 0.65126 0.13755 0.64859 0.0
C605 C 0.64806 0.1185 0.65337 0.0
C606 C 0.63086 0.13622 0.67188 0.0
N607 N 0.64035 0.14864 0.66025 0.0
O608 O 0.59849 0.11085 0.67842 0.0
H609 H 0.6542 0.10631 0.64587 0.0
H610 H 0.62009 0.1406 0.68235 0.0
O611 O 0.62695 0.10522 0.70453 0.0
C612 C 0.59005 0.11292 0.66224 0.0
O613 O 0.59824 0.1057 0.64669 0.0
N614 N 0.64394 0.08049 0.67739 0.0
C615 C 0.66692 0.04766 0.67316 0.0
C616 C 0.66558 0.05703 0.69105 0.0
C617 C 0.65388 0.07336 0.69293 0.0
C618 C 0.64575 0.07194 0.65975 0.0
C619 C 0.65745 0.05575 0.6572 0.0
H620 H 0.65148 0.07878 0.7073 0.0
H621 H 0.63679 0.0768 0.64789 0.0
H622 H 0.61813 0.06973 0.71656 0.0
H623 H 0.58132 0.03706 0.68089 0.0
H624 H 0.6604 0.14279 0.63702 0.0
H625 H 0.67237 0.05095 0.70378 0.0
H626 H 0.65759 0.04861 0.64327 0.0
C627 C 0.39995 0.43096 0.66945 0.0
C628 C 0.40569 0.44699 0.67968 0.0
N629 N 0.39773 0.44605 0.69742 0.0
N630 N 0.3884 0.42001 0.68067 0.0
C631 C 0.38741 0.4295 0.6977 0.0
H632 H 0.40331 0.42786 0.6545 0.0
Co633 Co 0.37508 0.39875 0.67145 0.0
C634 C 0.35321 0.38226 0.70431 0.0
O635 O 0.33891 0.37754 0.69274 0.0
N636 N 0.36209 0.37705 0.66128 0.0
C637 C 0.34566 0.35679 0.64242 0.0
C638 C 0.34895 0.3759 0.64686 0.0
C639 C 0.36635 0.35841 0.66541 0.0
N640 N 0.35668 0.34584 0.65409 0.0
O641 O 0.39804 0.38387 0.6739 0.0
H642 H 0.34257 0.38799 0.63939 0.0
H643 H 0.37709 0.35413 0.67594 0.0
O644 O 0.36795 0.39121 0.69768 0.0
C645 C 0.40801 0.38204 0.65858 0.0
O646 O 0.40124 0.3893 0.64238 0.0
N647 N 0.35345 0.41474 0.66825 0.0
C648 C 0.33432 0.44955 0.66179 0.0
C649 C 0.3335 0.44061 0.67994 0.0
C650 C 0.34319 0.42316 0.68292 0.0
C651 C 0.35334 0.42271 0.65024 0.0
C652 C 0.34355 0.43992 0.64658 0.0
H653 H 0.34414 0.41791 0.69753 0.0
H654 H 0.3625 0.41665 0.63909 0.0
H655 H 0.37837 0.42503 0.70965 0.0
H656 H 0.41469 0.45864 0.67434 0.0
H657 H 0.33628 0.35141 0.63112 0.0
H658 H 0.32676 0.44784 0.69209 0.0
H659 H 0.34494 0.44661 0.63248 0.0
C660 C 0.82689 0.60393 0.92746 0.0
C661 C 0.81708 0.59788 0.94363 0.0
N662 N 0.7992 0.60558 0.94316 0.0
N663 N 0.81528 0.61538 0.91684 0.0
C664 C 0.79842 0.616 0.92667 0.0
H665 H 0.84181 0.6008 0.92399 0.0
Co666 Co 0.82407 0.62887 0.89551 0.0
C667 C 0.79061 0.64972 0.87928 0.0
O668 O 0.80165 0.66481 0.8759 0.0
N669 N 0.83382 0.64208 0.8737 0.0
C670 C 0.85255 0.65854 0.85332 0.0
C671 C 0.84794 0.65554 0.87243 0.0
C672 C 0.82996 0.63741 0.8551 0.0
N673 N 0.84127 0.64702 0.84247 0.0
O674 O 0.8227 0.60558 0.88089 0.0
H675 H 0.85521 0.66226 0.88445 0.0
H676 H 0.81981 0.62626 0.85092 0.0
O677 O 0.79767 0.63481 0.8876 0.0
C678 C 0.83854 0.59652 0.87875 0.0
O679 O 0.85452 0.60446 0.88526 0.0
N680 N 0.82632 0.65081 0.91133 0.0
C681 C 0.83252 0.67169 0.94523 0.0
C682 C 0.81418 0.67124 0.93665 0.0
C683 C 0.81132 0.66061 0.91971 0.0
C684 C 0.8444 0.65191 0.91905 0.0
C685 C 0.84792 0.66259 0.93575 0.0
H686 H 0.79668 0.65871 0.91486 0.0
H687 H 0.85583 0.64301 0.91317 0.0
H688 H 0.7862 0.62478 0.92241 0.0
H689 H 0.82281 0.58884 0.95503 0.0
H690 H 0.86381 0.66795 0.84789 0.0
H691 H 0.80187 0.67777 0.94379 0.0
H692 H 0.86217 0.66208 0.94221 0.0
C693 C 0.82965 0.39377 0.56668 0.0
C694 C 0.82019 0.39885 0.55001 0.0
N695 N 0.80133 0.39444 0.55208 0.0
N696 N 0.81687 0.38624 0.57931 0.0
C697 C 0.79968 0.38692 0.57005 0.0
H698 H 0.84504 0.39479 0.56917 0.0
Co699 Co 0.82439 0.3752 0.60268 0.0
C700 C 0.79202 0.34995 0.61483 0.0
O701 O 0.80404 0.33608 0.61956 0.0
N702 N 0.83275 0.36434 0.6266 0.0
C703 C 0.84497 0.34544 0.64977 0.0
C704 C 0.84171 0.34729 0.63026 0.0
C705 C 0.83106 0.37259 0.64429 0.0
N706 N 0.83835 0.36145 0.65849 0.0
O707 O 0.81733 0.39857 0.61543 0.0
H708 H 0.84528 0.33644 0.61964 0.0
H709 H 0.82433 0.3864 0.64701 0.0
O710 O 0.79833 0.36558 0.60728 0.0
C711 C 0.82957 0.41218 0.61389 0.0
O712 O 0.84593 0.40894 0.60483 0.0
N713 N 0.83213 0.3534 0.58878 0.0
C714 C 0.84728 0.33728 0.55525 0.0
C715 C 0.82754 0.33537 0.55953 0.0
C716 C 0.82017 0.3436 0.57647 0.0
C717 C 0.85159 0.35347 0.58586 0.0
C718 C 0.85953 0.34509 0.56939 0.0
H719 H 0.80468 0.34441 0.57811 0.0
H720 H 0.86077 0.36198 0.59523 0.0
H721 H 0.78643 0.38107 0.5759 0.0
H722 H 0.8268 0.40497 0.53722 0.0
H723 H 0.85187 0.33339 0.65697 0.0
H724 H 0.81754 0.32966 0.54892 0.0
H725 H 0.8749 0.34661 0.56678 0.0
C726 C 0.16673 0.10304 0.56974 0.0
C727 C 0.17609 0.09619 0.55358 0.0
N728 N 0.19357 0.1047 0.55263 0.0
N729 N 0.17832 0.11567 0.57898 0.0
C730 C 0.19463 0.11631 0.56826 0.0
H731 H 0.15216 0.0995 0.57417 0.0
Co732 Co 0.17097 0.12985 0.60052 0.0
C733 C 0.20523 0.15262 0.61172 0.0
O734 O 0.1944 0.16802 0.61418 0.0
N735 N 0.16301 0.14398 0.62278 0.0
C736 C 0.14949 0.16456 0.6437 0.0
C737 C 0.15322 0.16086 0.62448 0.0
C738 C 0.16521 0.13799 0.64129 0.0
N739 N 0.15687 0.14996 0.65415 0.0
O740 O 0.17431 0.10712 0.61572 0.0
H741 H 0.14877 0.16999 0.61264 0.0
H742 H 0.17266 0.12493 0.6455 0.0
O743 O 0.19767 0.1369 0.60567 0.0
C744 C 0.15855 0.09815 0.61878 0.0
O745 O 0.14235 0.10592 0.6126 0.0
N746 N 0.16631 0.15085 0.58412 0.0
C747 C 0.15458 0.16517 0.54844 0.0
C748 C 0.17393 0.16685 0.55426 0.0
C749 C 0.17958 0.15949 0.57227 0.0
C750 C 0.14719 0.15101 0.57945 0.0
C751 C 0.14096 0.15841 0.56183 0.0
H752 H 0.19483 0.15855 0.57531 0.0
H753 H 0.13698 0.14339 0.58852 0.0
H754 H 0.2069 0.12541 0.57157 0.0
H755 H 0.1702 0.08635 0.54295 0.0
H756 H 0.14132 0.17658 0.64948 0.0
H757 H 0.18491 0.17174 0.54422 0.0
H758 H 0.12586 0.15701 0.55794 0.0
C759 C 0.67096 0.402 0.43562 0.0
C760 C 0.68098 0.40754 0.45189 0.0
N761 N 0.69863 0.39934 0.45127 0.0
N762 N 0.68223 0.39035 0.42483 0.0
C763 C 0.69904 0.3891 0.43466 0.0
H764 H 0.65612 0.40555 0.43227 0.0
Co765 Co 0.67365 0.37682 0.40332 0.0
C766 C 0.70681 0.35307 0.39053 0.0
O767 O 0.69548 0.33823 0.38705 0.0
N768 N 0.66448 0.3634 0.38133 0.0
C769 C 0.64728 0.34557 0.36075 0.0
C770 C 0.65108 0.34922 0.3799 0.0
C771 C 0.66883 0.36775 0.36275 0.0
N772 N 0.65841 0.35733 0.35 0.0
O773 O 0.67777 0.39937 0.38811 0.0
H774 H 0.64395 0.34214 0.39182 0.0
H775 H 0.67881 0.37904 0.35858 0.0
O776 O 0.69978 0.36864 0.39748 0.0
C777 C 0.66273 0.40974 0.38623 0.0
O778 O 0.64632 0.40326 0.3933 0.0
N779 N 0.66847 0.35594 0.41961 0.0
C780 C 0.65747 0.34023 0.45489 0.0
C781 C 0.6763 0.33748 0.44794 0.0
C782 C 0.68163 0.34565 0.43019 0.0
C783 C 0.64975 0.35728 0.42555 0.0
C784 C 0.64385 0.34922 0.44296 0.0
H785 H 0.69674 0.34566 0.4264 0.0
H786 H 0.63981 0.36639 0.41765 0.0
H787 H 0.71093 0.37991 0.43036 0.0
H788 H 0.67552 0.41655 0.46345 0.0
H789 H 0.63679 0.33539 0.35518 0.0
H790 H 0.68727 0.33098 0.45702 0.0
H791 H 0.62921 0.35172 0.44794 0.0
C792 C 0.56649 0.6725 0.9028 0.0
C793 C 0.55067 0.68291 0.90882 0.0
N794 N 0.55098 0.7002 0.89986 0.0
N795 N 0.5767 0.68314 0.89009 0.0
C796 C 0.56703 0.70004 0.88874 0.0
H797 H 0.56986 0.65775 0.90672 0.0
Co798 Co 0.59697 0.67326 0.87569 0.0
C799 C 0.61248 0.70569 0.85264 0.0
O800 O 0.61446 0.69425 0.8376 0.0
N801 N 0.61771 0.66256 0.86155 0.0
C802 C 0.63694 0.64283 0.84489 0.0
C803 C 0.61807 0.64745 0.84915 0.0
C804 C 0.63657 0.66691 0.86437 0.0
N805 N 0.64854 0.65507 0.85456 0.0
O806 O 0.61309 0.6751 0.89793 0.0
H807 H 0.60565 0.63957 0.84404 0.0
H808 H 0.64148 0.67793 0.87434 0.0
O809 O 0.60508 0.69919 0.86827 0.0
C810 C 0.61578 0.65932 0.90696 0.0
O811 O 0.60843 0.64335 0.89977 0.0
N812 N 0.57981 0.67048 0.85487 0.0
C813 C 0.54493 0.66373 0.83592 0.0
C814 C 0.5536 0.68202 0.83524 0.0
C815 C 0.5711 0.68514 0.84486 0.0
C816 C 0.57183 0.65248 0.85501 0.0
C817 C 0.55464 0.64866 0.84526 0.0
H818 H 0.57627 0.69978 0.8458 0.0
H819 H 0.57801 0.64139 0.86414 0.0
H820 H 0.57094 0.71151 0.87885 0.0
H821 H 0.53951 0.67792 0.91859 0.0
H822 H 0.64175 0.63101 0.83584 0.0
H823 H 0.54625 0.69409 0.82852 0.0
H824 H 0.5481 0.63449 0.84663 0.0
C825 C 0.43284 0.82872 0.89265 0.0
C826 C 0.44918 0.81949 0.89912 0.0
N827 N 0.44831 0.80086 0.89351 0.0
N828 N 0.4217 0.81601 0.88298 0.0
C829 C 0.4314 0.79908 0.88391 0.0
H830 H 0.42966 0.84395 0.89411 0.0
Co831 Co 0.4 0.82339 0.86907 0.0
C832 C 0.38852 0.78909 0.84652 0.0
O833 O 0.38666 0.79974 0.83093 0.0
N834 N 0.37767 0.8316 0.85515 0.0
C835 C 0.35704 0.84419 0.83369 0.0
C836 C 0.37606 0.83962 0.83733 0.0
C837 C 0.35927 0.83145 0.86185 0.0
N838 N 0.34662 0.8392 0.84928 0.0
O839 O 0.38511 0.82027 0.89201 0.0
H840 H 0.38782 0.84206 0.82737 0.0
H841 H 0.35495 0.82577 0.87573 0.0
O842 O 0.3944 0.79671 0.86227 0.0
C843 C 0.38339 0.83581 0.90168 0.0
O844 O 0.39042 0.85186 0.89433 0.0
N845 N 0.41615 0.82764 0.84784 0.0
C846 C 0.45174 0.83888 0.83305 0.0
C847 C 0.44604 0.81946 0.83223 0.0
C848 C 0.42811 0.81405 0.83988 0.0
C849 C 0.42068 0.84677 0.84676 0.0
C850 C 0.4383 0.85274 0.83915 0.0
H851 H 0.42526 0.79884 0.8417 0.0
H852 H 0.41155 0.85725 0.85393 0.0
H853 H 0.42682 0.78603 0.87661 0.0
H854 H 0.46103 0.82611 0.9069 0.0
H855 H 0.35141 0.85117 0.82087 0.0
H856 H 0.45618 0.80833 0.82793 0.0
H857 H 0.44222 0.86788 0.84 0.0
C858 C 0.5637 0.32802 0.60198 0.0
C859 C 0.54746 0.31872 0.59533 0.0
N860 N 0.54867 0.29995 0.60038 0.0
N861 N 0.57508 0.31522 0.61122 0.0
C862 C 0.56564 0.29817 0.60987 0.0
H863 H 0.56672 0.34332 0.60082 0.0
Co864 Co 0.59708 0.32244 0.62472 0.0
C865 C 0.60795 0.2887 0.64807 0.0
O866 O 0.60973 0.29985 0.66333 0.0
N867 N 0.61984 0.33035 0.63816 0.0
C868 C 0.64153 0.34286 0.65861 0.0
C869 C 0.62219 0.33925 0.65547 0.0
C870 C 0.6381 0.32862 0.63132 0.0
N871 N 0.65138 0.33633 0.64323 0.0
O872 O 0.61159 0.31868 0.60168 0.0
H873 H 0.61075 0.34294 0.66541 0.0
H874 H 0.64189 0.32181 0.61779 0.0
O875 O 0.60226 0.29584 0.63203 0.0
C876 C 0.61369 0.33425 0.59215 0.0
O877 O 0.60679 0.35036 0.59948 0.0
N878 N 0.58131 0.32743 0.64607 0.0
C879 C 0.54635 0.34004 0.66132 0.0
C880 C 0.55126 0.32038 0.66193 0.0
C881 C 0.56887 0.3143 0.65407 0.0
C882 C 0.57752 0.34671 0.64718 0.0
C883 C 0.56028 0.35336 0.65509 0.0
H884 H 0.57109 0.29899 0.65212 0.0
H885 H 0.58694 0.35686 0.6399 0.0
H886 H 0.57052 0.28496 0.61667 0.0
H887 H 0.53552 0.32535 0.58773 0.0
H888 H 0.64779 0.35023 0.67091 0.0
H889 H 0.54074 0.30964 0.66631 0.0
H890 H 0.55704 0.36867 0.65445 0.0
C891 C 0.42889 0.17332 0.58697 0.0
C892 C 0.44472 0.18391 0.58113 0.0
N893 N 0.44497 0.20056 0.59124 0.0
N894 N 0.41933 0.18322 0.60074 0.0
C895 C 0.42938 0.19981 0.60293 0.0
H896 H 0.425 0.15899 0.58209 0.0
Co897 Co 0.39903 0.17344 0.61519 0.0
C898 C 0.3871 0.2053 0.64135 0.0
O899 O 0.38444 0.1934 0.65592 0.0
N900 N 0.3782 0.16313 0.62958 0.0
C901 C 0.35873 0.14349 0.64607 0.0
C902 C 0.37762 0.14758 0.6414 0.0
C903 C 0.35946 0.1684 0.62768 0.0
N904 N 0.34731 0.15653 0.63727 0.0
O905 O 0.38217 0.17877 0.59411 0.0
H906 H 0.38989 0.13903 0.64579 0.0
H907 H 0.35469 0.18003 0.61837 0.0
O908 O 0.39342 0.19895 0.62523 0.0
C909 C 0.37547 0.16461 0.58451 0.0
O910 O 0.37924 0.14689 0.59021 0.0
N911 N 0.41682 0.16729 0.63452 0.0
C912 C 0.45281 0.15602 0.64843 0.0
C913 C 0.44538 0.17433 0.65296 0.0
C914 C 0.42731 0.17982 0.64564 0.0
C915 C 0.42333 0.14902 0.63125 0.0
C916 C 0.44112 0.14298 0.63831 0.0
H917 H 0.42302 0.19471 0.64719 0.0
H918 H 0.41544 0.13966 0.62152 0.0
H919 H 0.42604 0.21063 0.61371 0.0
H920 H 0.45542 0.17952 0.57059 0.0
H921 H 0.35376 0.13141 0.65468 0.0
H922 H 0.45421 0.18489 0.66042 0.0
H923 H 0.44639 0.12873 0.63449 0.0
C924 C 0.90837 0.56232 0.67386 0.0
C925 C 0.91369 0.54666 0.68485 0.0
N926 N 0.90401 0.5475 0.70172 0.0
N927 N 0.8954 0.57295 0.68374 0.0
C928 C 0.89309 0.56364 0.70075 0.0
H929 H 0.91306 0.56536 0.65926 0.0
Co930 Co 0.88234 0.59356 0.67296 0.0
C931 C 0.85782 0.60993 0.70396 0.0
O932 O 0.84358 0.61258 0.69168 0.0
N933 N 0.86958 0.61458 0.66133 0.0
C934 C 0.85449 0.63408 0.64064 0.0
C935 C 0.85813 0.61515 0.6455 0.0
C936 C 0.87253 0.63337 0.66583 0.0
N937 N 0.86364 0.64549 0.65344 0.0
O938 O 0.9049 0.60904 0.67621 0.0
H939 H 0.85325 0.60282 0.63732 0.0
H940 H 0.88189 0.6381 0.67743 0.0
O941 O 0.87349 0.60191 0.69835 0.0
C942 C 0.91535 0.6105 0.66117 0.0
O943 O 0.90919 0.60258 0.64504 0.0
N944 N 0.86127 0.5771 0.66881 0.0
C945 C 0.83847 0.54528 0.65896 0.0
C946 C 0.83718 0.55357 0.67744 0.0
C947 C 0.84893 0.56937 0.6822 0.0
C948 C 0.86264 0.56918 0.65087 0.0
C949 C 0.8512 0.55356 0.64552 0.0
H950 H 0.84898 0.57423 0.69698 0.0
H951 H 0.87349 0.5745 0.64093 0.0
H952 H 0.8828 0.56794 0.71172 0.0
H953 H 0.92357 0.5353 0.68058 0.0
H954 H 0.84622 0.63904 0.62833 0.0
H955 H 0.82788 0.54737 0.68839 0.0
H956 H 0.85336 0.54724 0.63137 0.0
C957 C 0.0833 0.93488 0.67746 0.0
C958 C 0.07781 0.9502 0.68884 0.0
N959 N 0.09012 0.95135 0.70385 0.0
N960 N 0.09886 0.92624 0.68537 0.0
C961 C 0.10272 0.93664 0.70144 0.0
H962 H 0.07676 0.93079 0.66389 0.0
Co963 Co 0.11251 0.90603 0.67411 0.0
C964 C 0.13971 0.89224 0.70443 0.0
O965 O 0.15358 0.88877 0.69192 0.0
N966 N 0.12586 0.88547 0.66227 0.0
C967 C 0.14154 0.8667 0.64135 0.0
C968 C 0.13728 0.88545 0.64641 0.0
C969 C 0.12365 0.86653 0.66665 0.0
N970 N 0.13284 0.85482 0.65407 0.0
O971 O 0.09172 0.88912 0.68019 0.0
H972 H 0.14175 0.89808 0.63844 0.0
H973 H 0.11462 0.86136 0.67832 0.0
O974 O 0.12377 0.89959 0.69883 0.0
C975 C 0.07859 0.88743 0.66751 0.0
O976 O 0.08062 0.89627 0.65082 0.0
N977 N 0.13175 0.92376 0.66745 0.0
C978 C 0.1462 0.95979 0.65712 0.0
C979 C 0.15196 0.9511 0.67448 0.0
C980 C 0.14437 0.93301 0.67954 0.0
C981 C 0.12731 0.93143 0.64989 0.0
C982 C 0.13454 0.94932 0.64433 0.0
H983 H 0.14707 0.92774 0.69393 0.0
H984 H 0.11663 0.92438 0.64091 0.0
H985 H 0.11476 0.93378 0.71099 0.0
H986 H 0.0662 0.96025 0.68582 0.0
H987 H 0.14996 0.86217 0.62896 0.0
H988 H 0.16064 0.959 0.68485 0.0
H989 H 0.12974 0.95564 0.63083 0.0
C990 C 0.90404 0.43102 0.83193 0.0
C991 C 0.91019 0.44697 0.82174 0.0
N992 N 0.90016 0.44775 0.80509 0.0
N993 N 0.89016 0.42192 0.82176 0.0
C994 C 0.88815 0.43239 0.80544 0.0
H995 H 0.90891 0.42663 0.84612 0.0
Co996 Co 0.87593 0.40136 0.83111 0.0
C997 C 0.84969 0.38883 0.79946 0.0
O998 O 0.83611 0.38389 0.81179 0.0
N999 N 0.86195 0.38028 0.8413 0.0
C1000 C 0.84577 0.3606 0.86098 0.0
C1001 C 0.85028 0.37955 0.85696 0.0
C1002 C 0.864 0.36158 0.83595 0.0
N1003 N 0.85453 0.34932 0.84778 0.0
O1004 O 0.89698 0.38476 0.82486 0.0
H1005 H 0.84591 0.39176 0.8656 0.0
H1006 H 0.87323 0.35692 0.8242 0.0
O1007 O 0.86541 0.39644 0.80546 0.0
C1008 C 0.90739 0.37766 0.83821 0.0
O1009 O 0.90259 0.38065 0.85635 0.0
N1010 N 0.85653 0.4189 0.83787 0.0
C1011 C 0.843 0.45527 0.84838 0.0
C1012 C 0.83796 0.44726 0.83046 0.0
C1013 C 0.84504 0.42901 0.82536 0.0
C1014 C 0.86003 0.42581 0.85596 0.0
C1015 C 0.85319 0.44384 0.86162 0.0
H1016 H 0.84306 0.42432 0.81066 0.0
H1017 H 0.8699 0.41813 0.86534 0.0
H1018 H 0.87742 0.42947 0.79447 0.0
H1019 H 0.92104 0.45729 0.8263 0.0
H1020 H 0.83726 0.3555 0.87308 0.0
H1021 H 0.83036 0.45578 0.81975 0.0
H1022 H 0.85731 0.44949 0.87563 0.0
C1023 C 0.08905 0.07516 0.82654 0.0
C1024 C 0.0832 0.05929 0.81611 0.0
N1025 N 0.09432 0.05806 0.80018 0.0
N1026 N 0.10365 0.08399 0.81715 0.0
C1027 C 0.10655 0.07324 0.80112 0.0
H1028 H 0.08339 0.07964 0.84041 0.0
Co1029 Co 0.1172 0.105 0.82684 0.0
C1030 C 0.14049 0.12102 0.79448 0.0
O1031 O 0.15413 0.1267 0.80638 0.0
N1032 N 0.13058 0.12648 0.83739 0.0
C1033 C 0.15019 0.14594 0.85408 0.0
C1034 C 0.14641 0.12709 0.8489 0.0
C1035 C 0.12514 0.1452 0.83584 0.0
N1036 N 0.13662 0.1572 0.84598 0.0
O1037 O 0.09463 0.1204 0.82315 0.0
H1038 H 0.15471 0.11473 0.85355 0.0
H1039 H 0.11289 0.15014 0.82751 0.0
O1040 O 0.12578 0.11182 0.80083 0.0
C1041 C 0.08452 0.12252 0.83836 0.0
O1042 O 0.09128 0.11568 0.85475 0.0
N1043 N 0.13799 0.08851 0.8315 0.0
C1044 C 0.15379 0.05272 0.84028 0.0
C1045 C 0.15751 0.06134 0.82232 0.0
C1046 C 0.14935 0.07942 0.81812 0.0
C1047 C 0.13597 0.08114 0.84962 0.0
C1048 C 0.1439 0.06332 0.85439 0.0
H1049 H 0.15036 0.08475 0.80351 0.0
H1050 H 0.1264 0.08821 0.85977 0.0
H1051 H 0.11763 0.07623 0.7905 0.0
H1052 H 0.07215 0.04903 0.82031 0.0
H1053 H 0.16152 0.1509 0.86366 0.0
H1054 H 0.16486 0.05338 0.81102 0.0
H1055 H 0.14073 0.05706 0.8684 0.0
C1056 C 0.68411 0.91748 0.57946 0.0
C1057 C 0.6952 0.92324 0.56398 0.0
N1058 N 0.7071 0.90858 0.5592 0.0
N1059 N 0.68911 0.89935 0.58451 0.0
C1060 C 0.70315 0.89431 0.57192 0.0
H1061 H 0.67286 0.92582 0.58641 0.0
Co1062 Co 0.67735 0.88503 0.60387 0.0
C1063 C 0.70626 0.8557 0.6165 0.0
O1064 O 0.69288 0.84334 0.62185 0.0
N1065 N 0.66492 0.87099 0.62372 0.0
C1066 C 0.64262 0.85602 0.64147 0.0
C1067 C 0.6482 0.86092 0.62301 0.0
C1068 C 0.66929 0.87172 0.64278 0.0
N1069 N 0.65586 0.86298 0.6539 0.0
O1070 O 0.68484 0.90445 0.62194 0.0
H1071 H 0.63992 0.85806 0.61011 0.0
H1072 H 0.68152 0.87959 0.64853 0.0
O1073 O 0.70162 0.8718 0.60877 0.0
C1074 C 0.67163 0.91521 0.62883 0.0
O1075 O 0.6535 0.91167 0.62438 0.0
N1076 N 0.66924 0.86741 0.58513 0.0
C1077 C 0.65721 0.85409 0.54917 0.0
C1078 C 0.67374 0.84629 0.55796 0.0
C1079 C 0.67964 0.85327 0.57605 0.0
C1080 C 0.6524 0.87397 0.57739 0.0
C1081 C 0.64599 0.86736 0.55956 0.0
H1082 H 0.69338 0.84855 0.58161 0.0
H1083 H 0.64466 0.88553 0.58454 0.0
H1084 H 0.7103 0.88041 0.57198 0.0
H1085 H 0.69418 0.93692 0.55646 0.0
H1086 H 0.62944 0.84858 0.64544 0.0
H1087 H 0.68287 0.83618 0.55026 0.0
H1088 H 0.63303 0.87357 0.55336 0.0
C1089 C 0.66747 0.09747 0.93646 0.0
C1090 C 0.67854 0.09185 0.95197 0.0
N1091 N 0.69575 0.10088 0.95075 0.0
N1092 N 0.67763 0.11001 0.92556 0.0
C1093 C 0.69485 0.11173 0.93457 0.0
H1094 H 0.65268 0.09325 0.93363 0.0
Co1095 Co 0.6672 0.1233 0.90487 0.0
C1096 C 0.69933 0.14527 0.88662 0.0
O1097 O 0.68769 0.15955 0.88204 0.0
N1098 N 0.65583 0.13622 0.88383 0.0
C1099 C 0.63542 0.15175 0.86436 0.0
C1100 C 0.64041 0.14822 0.8833 0.0
C1101 C 0.65989 0.13275 0.86503 0.0
N1102 N 0.64774 0.14198 0.85293 0.0
O1103 O 0.6693 0.10045 0.88966 0.0
H1104 H 0.63265 0.15356 0.89572 0.0
H1105 H 0.6711 0.12292 0.86028 0.0
O1106 O 0.69299 0.13075 0.89613 0.0
C1107 C 0.65403 0.09049 0.88742 0.0
O1108 O 0.63776 0.09691 0.89482 0.0
N1109 N 0.66446 0.14486 0.92107 0.0
C1110 C 0.6592 0.16504 0.9555 0.0
C1111 C 0.67686 0.16601 0.94563 0.0
C1112 C 0.67924 0.15579 0.92837 0.0
C1113 C 0.64691 0.14467 0.93 0.0
C1114 C 0.64383 0.15497 0.94703 0.0
H1115 H 0.69355 0.15515 0.92231 0.0
H1116 H 0.63574 0.13504 0.92481 0.0
H1117 H 0.70611 0.12157 0.93 0.0
H1118 H 0.67415 0.08212 0.96342 0.0
H1119 H 0.6234 0.16044 0.8594 0.0
H1120 H 0.68914 0.17338 0.95196 0.0
H1121 H 0.63013 0.15345 0.95448 0.0
C1122 C 0.32737 0.39819 0.93339 0.0
C1123 C 0.31844 0.40508 0.94972 0.0
N1124 N 0.29934 0.40153 0.94823 0.0
N1125 N 0.31401 0.3904 0.92156 0.0
C1126 C 0.29703 0.39278 0.93092 0.0
H1127 H 0.34276 0.39806 0.93068 0.0
Co1128 Co 0.32027 0.37684 0.89917 0.0
C1129 C 0.28522 0.35221 0.89308 0.0
O1130 O 0.29531 0.33616 0.89257 0.0
N1131 N 0.32722 0.36328 0.87628 0.0
C1132 C 0.33564 0.3407 0.85481 0.0
C1133 C 0.33133 0.34429 0.87386 0.0
C1134 C 0.32956 0.37088 0.85838 0.0
N1135 N 0.33458 0.35749 0.84515 0.0
O1136 O 0.31394 0.39933 0.88445 0.0
H1137 H 0.33128 0.33349 0.88514 0.0
H1138 H 0.32742 0.38593 0.85485 0.0
O1139 O 0.2936 0.36837 0.89612 0.0
C1140 C 0.32676 0.4125 0.88501 0.0
O1141 O 0.3432 0.40901 0.89382 0.0
N1142 N 0.3274 0.35598 0.91483 0.0
C1143 C 0.34379 0.3388 0.94727 0.0
C1144 C 0.32364 0.33964 0.94518 0.0
C1145 C 0.31569 0.34846 0.92886 0.0
C1146 C 0.34692 0.35371 0.91584 0.0
C1147 C 0.35542 0.34484 0.93179 0.0
H1148 H 0.30035 0.35127 0.92879 0.0
H1149 H 0.35607 0.36047 0.9051 0.0
H1150 H 0.28342 0.3871 0.92574 0.0
H1151 H 0.32559 0.41167 0.96197 0.0
H1152 H 0.33954 0.32687 0.84861 0.0
H1153 H 0.31414 0.3355 0.95692 0.0
H1154 H 0.37104 0.34433 0.93276 0.0
C1155 C 0.82956 0.09607 0.06264 0.0
C1156 C 0.81854 0.09077 0.04698 0.0
N1157 N 0.80117 0.09942 0.04856 0.0
N1158 N 0.81921 0.10803 0.07399 0.0
C1159 C 0.80192 0.10971 0.06511 0.0
H1160 H 0.84445 0.09209 0.06525 0.0
Co1161 Co 0.8295 0.12101 0.09495 0.0
C1162 C 0.79742 0.14297 0.11309 0.0
O1163 O 0.80916 0.15721 0.11758 0.0
N1164 N 0.8407 0.13364 0.11632 0.0
C1165 C 0.86066 0.14908 0.13631 0.0
C1166 C 0.85584 0.14596 0.11725 0.0
C1167 C 0.83658 0.12962 0.135 0.0
N1168 N 0.8485 0.13873 0.14742 0.0
O1169 O 0.82731 0.09795 0.10981 0.0
H1170 H 0.86353 0.15184 0.10503 0.0
H1171 H 0.82553 0.11947 0.13941 0.0
O1172 O 0.80369 0.12838 0.10364 0.0
C1173 C 0.84269 0.08814 0.1119 0.0
O1174 O 0.85885 0.09476 0.10438 0.0
N1175 N 0.8324 0.14278 0.07908 0.0
C1176 C 0.83806 0.16293 0.04469 0.0
C1177 C 0.82021 0.16371 0.05423 0.0
C1178 C 0.81764 0.15352 0.07149 0.0
C1179 C 0.85012 0.1428 0.07048 0.0
C1180 C 0.85339 0.1531 0.05348 0.0
H1181 H 0.80322 0.15269 0.07727 0.0
H1182 H 0.86129 0.13328 0.07587 0.0
H1183 H 0.7905 0.11919 0.07001 0.0
H1184 H 0.82309 0.08157 0.03516 0.0
H1185 H 0.87246 0.15791 0.14154 0.0
H1186 H 0.80796 0.17089 0.04764 0.0
H1187 H 0.86724 0.15172 0.04629 0.0
C1188 C 0.43883 0.32519 0.09328 0.0
C1189 C 0.45468 0.31434 0.08826 0.0
N1190 N 0.45348 0.29719 0.09742 0.0
N1191 N 0.42765 0.31495 0.1055 0.0
C1192 C 0.43689 0.2979 0.10771 0.0
H1193 H 0.43596 0.33988 0.08882 0.0
Co1194 Co 0.40613 0.32521 0.11764 0.0
C1195 C 0.3873 0.29333 0.13924 0.0
O1196 O 0.38188 0.30539 0.15286 0.0
N1197 N 0.38423 0.33647 0.12939 0.0
C1198 C 0.36406 0.35606 0.14508 0.0
C1199 C 0.38308 0.35087 0.14257 0.0
C1200 C 0.36564 0.33318 0.12426 0.0
N1201 N 0.35313 0.34494 0.13348 0.0
O1202 O 0.39224 0.32278 0.09404 0.0
H1203 H 0.39514 0.35771 0.14966 0.0
H1204 H 0.36139 0.32278 0.11337 0.0
O1205 O 0.39739 0.29937 0.12497 0.0
C1206 C 0.39178 0.33791 0.08364 0.0
O1207 O 0.39954 0.35387 0.0904 0.0
N1208 N 0.42115 0.32838 0.13994 0.0
C1209 C 0.45371 0.33495 0.16265 0.0
C1210 C 0.44442 0.31695 0.16299 0.0
C1211 C 0.42811 0.31391 0.15147 0.0
C1212 C 0.42961 0.34615 0.1401 0.0
C1213 C 0.44564 0.34989 0.15166 0.0
H1214 H 0.42255 0.29941 0.15054 0.0
H1215 H 0.42472 0.35709 0.13004 0.0
H1216 H 0.43213 0.28663 0.11744 0.0
H1217 H 0.46633 0.31887 0.07885 0.0
H1218 H 0.35874 0.36737 0.15449 0.0
H1219 H 0.45053 0.30497 0.171 0.0
H1220 H 0.45272 0.36382 0.15057 0.0
C1221 C 0.56977 0.16706 0.10394 0.0
C1222 C 0.55345 0.17648 0.09758 0.0
N1223 N 0.55475 0.19517 0.10288 0.0
N1224 N 0.5812 0.17974 0.1133 0.0
C1225 C 0.57178 0.19679 0.11225 0.0
H1226 H 0.57282 0.1518 0.1025 0.0
Co1227 Co 0.60337 0.17276 0.12656 0.0
C1228 C 0.61231 0.20658 0.15139 0.0
O1229 O 0.6144 0.1956 0.16672 0.0
N1230 N 0.62634 0.16513 0.13986 0.0
C1231 C 0.64789 0.15359 0.16103 0.0
C1232 C 0.62865 0.15751 0.15778 0.0
C1233 C 0.64457 0.16571 0.13272 0.0
N1234 N 0.65777 0.1586 0.1451 0.0
O1235 O 0.61778 0.17889 0.10394 0.0
H1236 H 0.61723 0.15499 0.16811 0.0
H1237 H 0.64845 0.1714 0.11872 0.0
O1238 O 0.60732 0.19913 0.13527 0.0
C1239 C 0.62149 0.1652 0.09226 0.0
O1240 O 0.61688 0.14741 0.09708 0.0
N1241 N 0.58767 0.16592 0.14752 0.0
C1242 C 0.55393 0.15109 0.16375 0.0
C1243 C 0.55768 0.17102 0.16423 0.0
C1244 C 0.57466 0.1782 0.15592 0.0
C1245 C 0.58505 0.14644 0.14854 0.0
C1246 C 0.56849 0.1387 0.15699 0.0
H1247 H 0.57597 0.19363 0.15413 0.0
H1248 H 0.59498 0.13693 0.14109 0.0
H1249 H 0.57673 0.20991 0.11916 0.0
H1250 H 0.54142 0.16999 0.08997 0.0
H1251 H 0.65406 0.14712 0.17386 0.0
H1252 H 0.54674 0.18115 0.169 0.0
H1253 H 0.56632 0.1232 0.15656 0.0
C1254 C 0.43563 0.66781 0.40433 0.0
C1255 C 0.45197 0.67792 0.40956 0.0
N1256 N 0.45152 0.69522 0.40064 0.0
N1257 N 0.42504 0.67867 0.39213 0.0
C1258 C 0.43505 0.69531 0.39021 0.0
H1259 H 0.43193 0.65326 0.40869 0.0
Co1260 Co 0.40306 0.66996 0.37959 0.0
C1261 C 0.3892 0.70201 0.35463 0.0
O1262 O 0.38298 0.68979 0.34151 0.0
N1263 N 0.38045 0.66044 0.36721 0.0
C1264 C 0.35924 0.64458 0.34873 0.0
C1265 C 0.37854 0.64816 0.35207 0.0
C1266 C 0.36199 0.66409 0.37265 0.0
N1267 N 0.34895 0.65449 0.36186 0.0
O1268 O 0.38857 0.67612 0.40219 0.0
H1269 H 0.39026 0.64197 0.34385 0.0
H1270 H 0.35799 0.67365 0.38435 0.0
O1271 O 0.39784 0.69587 0.36975 0.0
C1272 C 0.38346 0.6623 0.41318 0.0
O1273 O 0.38704 0.64442 0.4079 0.0
N1274 N 0.41871 0.66313 0.35868 0.0
C1275 C 0.45367 0.6512 0.34287 0.0
C1276 C 0.44673 0.66992 0.33936 0.0
C1277 C 0.42913 0.6757 0.34753 0.0
C1278 C 0.42439 0.64439 0.36057 0.0
C1279 C 0.44167 0.63803 0.35251 0.0
H1280 H 0.42533 0.69079 0.34678 0.0
H1281 H 0.41643 0.63487 0.3701 0.0
H1282 H 0.43091 0.70689 0.38061 0.0
H1283 H 0.46333 0.67287 0.41904 0.0
H1284 H 0.35327 0.63493 0.33795 0.0
H1285 H 0.45572 0.68057 0.33221 0.0
H1286 H 0.44647 0.62341 0.35542 0.0
C1287 C 0.5672 0.82586 0.4043 0.0
C1288 C 0.55141 0.81508 0.40974 0.0
N1289 N 0.55264 0.79767 0.4011 0.0
N1290 N 0.57831 0.81531 0.39229 0.0
C1291 C 0.56915 0.79814 0.39069 0.0
H1292 H 0.57007 0.8407 0.40827 0.0
Co1293 Co 0.59946 0.82537 0.37937 0.0
C1294 C 0.61838 0.79282 0.35897 0.0
O1295 O 0.62312 0.80425 0.34456 0.0
N1296 N 0.62101 0.83637 0.36678 0.0
C1297 C 0.64094 0.85593 0.35073 0.0
C1298 C 0.62193 0.85086 0.35369 0.0
C1299 C 0.63969 0.83289 0.37141 0.0
N1300 N 0.65206 0.8446 0.36194 0.0
O1301 O 0.61374 0.82443 0.40291 0.0
H1302 H 0.60972 0.85795 0.34711 0.0
H1303 H 0.6441 0.82247 0.3822 0.0
O1304 O 0.60854 0.79937 0.37318 0.0
C1305 C 0.61537 0.84055 0.41158 0.0
O1306 O 0.60806 0.85607 0.40343 0.0
N1307 N 0.58413 0.82722 0.35715 0.0
C1308 C 0.55125 0.8324 0.33453 0.0
C1309 C 0.56073 0.81451 0.33489 0.0
C1310 C 0.5772 0.81217 0.34635 0.0
C1311 C 0.57547 0.84487 0.35627 0.0
C1312 C 0.55928 0.84791 0.34474 0.0
H1313 H 0.58293 0.79779 0.34788 0.0
H1314 H 0.5803 0.85629 0.36581 0.0
H1315 H 0.57386 0.78662 0.38125 0.0
H1316 H 0.53975 0.81983 0.41903 0.0
H1317 H 0.64612 0.86736 0.34138 0.0
H1318 H 0.55466 0.80211 0.3275 0.0
H1319 H 0.55206 0.8618 0.34531 0.0
C1320 C 0.0927 0.43377 0.33158 0.0
C1321 C 0.08719 0.45001 0.32145 0.0
N1322 N 0.09536 0.44921 0.30379 0.0
N1323 N 0.10436 0.42292 0.32038 0.0
C1324 C 0.10563 0.43264 0.30351 0.0
H1325 H 0.089 0.43038 0.34639 0.0
Co1326 Co 0.11744 0.40113 0.32878 0.0
C1327 C 0.14316 0.3892 0.29667 0.0
O1328 O 0.15687 0.38435 0.30886 0.0
N1329 N 0.13048 0.37865 0.33784 0.0
C1330 C 0.14966 0.35754 0.353 0.0
C1331 C 0.14594 0.37682 0.34974 0.0
C1332 C 0.12532 0.36015 0.33402 0.0
N1333 N 0.1365 0.34717 0.34323 0.0
O1334 O 0.09524 0.38616 0.32242 0.0
H1335 H 0.15415 0.38857 0.35587 0.0
H1336 H 0.11352 0.35605 0.32464 0.0
O1337 O 0.12738 0.39651 0.30287 0.0
C1338 C 0.08447 0.38071 0.33629 0.0
O1339 O 0.08972 0.38449 0.35414 0.0
N1340 N 0.13792 0.4172 0.3359 0.0
C1341 C 0.15308 0.45199 0.34919 0.0
C1342 C 0.15618 0.44613 0.33002 0.0
C1343 C 0.14834 0.42861 0.32357 0.0
C1344 C 0.13631 0.42193 0.35493 0.0
C1345 C 0.14413 0.43906 0.36197 0.0
H1346 H 0.14871 0.42562 0.30828 0.0
H1347 H 0.12728 0.41325 0.36429 0.0
H1348 H 0.11477 0.42831 0.29162 0.0
H1349 H 0.07813 0.46161 0.32675 0.0
H1350 H 0.16072 0.35162 0.36235 0.0
H1351 H 0.16276 0.45583 0.31964 0.0
H1352 H 0.14159 0.44295 0.37693 0.0
C1353 C 0.89895 0.06625 0.3289 0.0
C1354 C 0.90553 0.04998 0.3196 0.0
N1355 N 0.90043 0.05116 0.30084 0.0
N1356 N 0.88973 0.07765 0.31611 0.0
C1357 C 0.89102 0.06818 0.29907 0.0
H1358 H 0.90006 0.06921 0.34421 0.0
Co1359 Co 0.87604 0.09963 0.32321 0.0
C1360 C 0.85269 0.10921 0.28868 0.0
O1361 O 0.83689 0.11021 0.29913 0.0
N1362 N 0.86229 0.12229 0.33102 0.0
C1363 C 0.8402 0.14334 0.34172 0.0
C1364 C 0.8438 0.12431 0.33723 0.0
C1365 C 0.86948 0.14049 0.33199 0.0
N1366 N 0.85647 0.1534 0.33854 0.0
O1367 O 0.89898 0.11435 0.31911 0.0
H1368 H 0.83327 0.11283 0.3383 0.0
H1369 H 0.88395 0.14453 0.32778 0.0
O1370 O 0.8687 0.10449 0.29654 0.0
C1371 C 0.90935 0.11546 0.33426 0.0
O1372 O 0.90251 0.10818 0.35043 0.0
N1373 N 0.85483 0.0837 0.32848 0.0
C1374 C 0.83789 0.04989 0.34219 0.0
C1375 C 0.83837 0.05378 0.32229 0.0
C1376 C 0.84705 0.07081 0.31567 0.0
C1377 C 0.85287 0.0809 0.34786 0.0
C1378 C 0.84406 0.0643 0.35504 0.0
H1379 H 0.84956 0.07231 0.30035 0.0
H1380 H 0.85987 0.09071 0.35782 0.0
H1381 H 0.88414 0.07303 0.2859 0.0
H1382 H 0.91305 0.038 0.32627 0.0
H1383 H 0.8268 0.14924 0.34723 0.0
H1384 H 0.83407 0.0429 0.31189 0.0
H1385 H 0.84381 0.06193 0.37051 0.0
C1386 C 0.09731 0.5645 0.17273 0.0
C1387 C 0.09131 0.54873 0.18323 0.0
N1388 N 0.09961 0.5496 0.20082 0.0
N1389 N 0.10932 0.57525 0.18363 0.0
C1390 C 0.11043 0.56584 0.2007 0.0
H1391 H 0.09356 0.56769 0.1579 0.0
Co1392 Co 0.12231 0.59678 0.17451 0.0
C1393 C 0.14297 0.61416 0.20777 0.0
O1394 O 0.15718 0.6197 0.19647 0.0
N1395 N 0.1352 0.61888 0.1645 0.0
C1396 C 0.15492 0.63942 0.14927 0.0
C1397 C 0.15156 0.62034 0.15381 0.0
C1398 C 0.129 0.63737 0.16616 0.0
N1399 N 0.14057 0.65001 0.15693 0.0
O1400 O 0.09878 0.61105 0.17627 0.0
H1401 H 0.16067 0.60847 0.14946 0.0
H1402 H 0.11625 0.64169 0.17411 0.0
O1403 O 0.12879 0.60452 0.20088 0.0
C1404 C 0.09008 0.61275 0.16016 0.0
O1405 O 0.09828 0.60554 0.14461 0.0
N1406 N 0.1443 0.58144 0.17163 0.0
C1407 C 0.16853 0.55043 0.16292 0.0
C1408 C 0.16803 0.55819 0.18168 0.0
C1409 C 0.15567 0.57369 0.18581 0.0
C1410 C 0.14495 0.57433 0.15332 0.0
C1411 C 0.15713 0.55909 0.14856 0.0
H1412 H 0.1543 0.57832 0.20062 0.0
H1413 H 0.13513 0.57998 0.14254 0.0
H1414 H 0.11967 0.57029 0.21249 0.0
H1415 H 0.08173 0.53742 0.17823 0.0
H1416 H 0.16666 0.64503 0.14056 0.0
H1417 H 0.17637 0.55174 0.19324 0.0
H1418 H 0.15651 0.55327 0.13405 0.0
C1419 C 0.9072 0.93339 0.17172 0.0
C1420 C 0.91281 0.94978 0.18147 0.0
N1421 N 0.90509 0.94918 0.19935 0.0
N1422 N 0.89598 0.92252 0.18336 0.0
C1423 C 0.89506 0.93246 0.20014 0.0
H1424 H 0.91041 0.92997 0.15681 0.0
Co1425 Co 0.88264 0.90075 0.17513 0.0
C1426 C 0.85977 0.88684 0.20843 0.0
O1427 O 0.84539 0.88227 0.19694 0.0
N1428 N 0.86939 0.87843 0.16611 0.0
C1429 C 0.84935 0.8576 0.15173 0.0
C1430 C 0.85301 0.8768 0.15549 0.0
C1431 C 0.87526 0.85993 0.16858 0.0
N1432 N 0.86351 0.84711 0.15986 0.0
O1433 O 0.90565 0.88603 0.17862 0.0
H1434 H 0.84411 0.88864 0.15063 0.0
H1435 H 0.88798 0.85574 0.17662 0.0
O1436 O 0.87496 0.89483 0.2016 0.0
C1437 C 0.91501 0.88415 0.1629 0.0
O1438 O 0.90739 0.89112 0.14696 0.0
N1439 N 0.86138 0.91659 0.17042 0.0
C1440 C 0.84637 0.95222 0.15988 0.0
C1441 C 0.84395 0.94538 0.17879 0.0
C1442 C 0.85169 0.92737 0.18387 0.0
C1443 C 0.86204 0.92229 0.1516 0.0
C1444 C 0.85443 0.93998 0.14596 0.0
H1445 H 0.85203 0.92351 0.19897 0.0
H1446 H 0.87054 0.91407 0.14136 0.0
H1447 H 0.88621 0.92817 0.21229 0.0
H1448 H 0.92153 0.96141 0.17569 0.0
H1449 H 0.83761 0.85185 0.14314 0.0
H1450 H 0.83814 0.95471 0.18995 0.0
H1451 H 0.85671 0.94495 0.13128 0.0
C1452 C 0.31758 0.08456 0.43246 0.0
C1453 C 0.30537 0.08058 0.44762 0.0
N1454 N 0.29122 0.0939 0.44767 0.0
N1455 N 0.31102 0.10017 0.42281 0.0
C1456 C 0.29495 0.10561 0.43251 0.0
H1457 H 0.33071 0.07684 0.42909 0.0
Co1458 Co 0.32356 0.11171 0.402 0.0
C1459 C 0.29382 0.13541 0.38158 0.0
O1460 O 0.30672 0.14776 0.37514 0.0
N1461 N 0.33687 0.12275 0.38099 0.0
C1462 C 0.35888 0.13687 0.3622 0.0
C1463 C 0.35268 0.13424 0.38093 0.0
C1464 C 0.33385 0.11859 0.36213 0.0
N1465 N 0.34698 0.127 0.35041 0.0
O1466 O 0.31954 0.08879 0.3873 0.0
H1467 H 0.35973 0.14 0.39357 0.0
H1468 H 0.32249 0.1091 0.35709 0.0
O1469 O 0.29892 0.1214 0.39249 0.0
C1470 C 0.33316 0.07649 0.38758 0.0
O1471 O 0.34918 0.08064 0.39691 0.0
N1472 N 0.32811 0.13338 0.41756 0.0
C1473 C 0.33509 0.15591 0.45015 0.0
C1474 C 0.31833 0.15872 0.43914 0.0
C1475 C 0.3151 0.1473 0.42279 0.0
C1476 C 0.34488 0.13115 0.42762 0.0
C1477 C 0.34883 0.14248 0.44377 0.0
H1478 H 0.30134 0.14864 0.41567 0.0
H1479 H 0.35464 0.11954 0.4238 0.0
H1480 H 0.28629 0.11806 0.42874 0.0
H1481 H 0.3072 0.06923 0.45824 0.0
H1482 H 0.3713 0.14524 0.35766 0.0
H1483 H 0.30729 0.16879 0.44382 0.0
H1484 H 0.36174 0.13956 0.45212 0.0
C1485 C 0.3344 0.90097 0.05855 0.0
C1486 C 0.32437 0.90663 0.04236 0.0
N1487 N 0.30622 0.89974 0.04373 0.0
N1488 N 0.32264 0.89054 0.07006 0.0
C1489 C 0.30553 0.89011 0.06069 0.0
H1490 H 0.34952 0.90364 0.06142 0.0
Co1491 Co 0.33113 0.87775 0.09203 0.0
C1492 C 0.29823 0.85456 0.10673 0.0
O1493 O 0.30998 0.84071 0.11218 0.0
N1494 N 0.34055 0.86513 0.1145 0.0
C1495 C 0.35507 0.84541 0.13552 0.0
C1496 C 0.35121 0.8488 0.11631 0.0
C1497 C 0.33825 0.87132 0.13293 0.0
N1498 N 0.34701 0.85972 0.14586 0.0
O1499 O 0.32691 0.90085 0.10639 0.0
H1500 H 0.35587 0.83962 0.10459 0.0
H1501 H 0.33014 0.88404 0.137 0.0
O1502 O 0.30481 0.86951 0.0981 0.0
C1503 C 0.34175 0.91165 0.10737 0.0
O1504 O 0.35808 0.90531 0.10002 0.0
N1505 N 0.33625 0.85633 0.0765 0.0
C1506 C 0.34669 0.8402 0.04126 0.0
C1507 C 0.32781 0.83797 0.04831 0.0
C1508 C 0.32279 0.8463 0.06607 0.0
C1509 C 0.35505 0.85685 0.07071 0.0
C1510 C 0.36066 0.84861 0.05327 0.0
H1511 H 0.3077 0.84672 0.06996 0.0
H1512 H 0.36531 0.86557 0.07866 0.0
H1513 H 0.29313 0.88197 0.06559 0.0
H1514 H 0.33011 0.91489 0.03036 0.0
H1515 H 0.3635 0.83362 0.14139 0.0
H1516 H 0.3166 0.83183 0.03928 0.0
H1517 H 0.37539 0.85057 0.04831 0.0
C1518 C 0.67296 0.59429 0.06316 0.0
C1519 C 0.6831 0.58974 0.0467 0.0
N1520 N 0.70071 0.59796 0.04792 0.0
N1521 N 0.6841 0.60529 0.07475 0.0
C1522 C 0.70101 0.60717 0.06513 0.0
H1523 H 0.658 0.59076 0.06594 0.0
Co1524 Co 0.6748 0.61798 0.09654 0.0
C1525 C 0.70685 0.64312 0.10996 0.0
O1526 O 0.69492 0.65728 0.11416 0.0
N1527 N 0.66479 0.63051 0.1187 0.0
C1528 C 0.64669 0.64744 0.1393 0.0
C1529 C 0.65106 0.64437 0.12015 0.0
C1530 C 0.6687 0.62574 0.13728 0.0
N1531 N 0.65775 0.63562 0.15003 0.0
O1532 O 0.68036 0.59559 0.11153 0.0
H1533 H 0.64418 0.65166 0.10823 0.0
H1534 H 0.67886 0.61462 0.14144 0.0
O1535 O 0.70043 0.62753 0.10248 0.0
C1536 C 0.66721 0.58278 0.11151 0.0
O1537 O 0.65088 0.58631 0.1025 0.0
N1538 N 0.66848 0.63875 0.0805 0.0
C1539 C 0.65741 0.65362 0.04488 0.0
C1540 C 0.67589 0.65748 0.05221 0.0
C1541 C 0.68127 0.64972 0.07013 0.0
C1542 C 0.64995 0.63647 0.07427 0.0
C1543 C 0.64402 0.64402 0.05663 0.0
H1544 H 0.69627 0.65056 0.0742 0.0
H1545 H 0.64033 0.62691 0.08206 0.0
H1546 H 0.71278 0.61627 0.06993 0.0
H1547 H 0.67769 0.58157 0.03451 0.0
H1548 H 0.63597 0.65739 0.14485 0.0
H1549 H 0.68669 0.66453 0.04333 0.0
H1550 H 0.62964 0.64072 0.05139 0.0
C1551 C 0.1756 0.90829 0.92828 0.0
C1552 C 0.18654 0.91373 0.94396 0.0
N1553 N 0.20354 0.90427 0.94308 0.0
N1554 N 0.18563 0.89547 0.91762 0.0
C1555 C 0.20266 0.89339 0.92691 0.0
H1556 H 0.16096 0.91282 0.92521 0.0
Co1557 Co 0.17527 0.88218 0.89688 0.0
C1558 C 0.2072 0.86005 0.87883 0.0
O1559 O 0.19534 0.84587 0.87447 0.0
N1560 N 0.16401 0.86919 0.87573 0.0
C1561 C 0.14419 0.85282 0.85637 0.0
C1562 C 0.14926 0.85638 0.87526 0.0
C1563 C 0.16766 0.87305 0.8569 0.0
N1564 N 0.15579 0.86337 0.84487 0.0
O1565 O 0.17719 0.90517 0.88175 0.0
H1566 H 0.142 0.8504 0.88769 0.0
H1567 H 0.1783 0.88346 0.85211 0.0
O1568 O 0.20108 0.87476 0.8882 0.0
C1569 C 0.16145 0.91438 0.8795 0.0
O1570 O 0.14549 0.90705 0.88676 0.0
N1571 N 0.1725 0.86059 0.91304 0.0
C1572 C 0.16633 0.83914 0.94658 0.0
C1573 C 0.18425 0.83855 0.93715 0.0
C1574 C 0.18709 0.84942 0.92034 0.0
C1575 C 0.15481 0.86069 0.9217 0.0
C1576 C 0.15127 0.84976 0.93823 0.0
H1577 H 0.20152 0.85017 0.91456 0.0
H1578 H 0.14378 0.87048 0.91652 0.0
H1579 H 0.21375 0.88328 0.92257 0.0
H1580 H 0.18217 0.92356 0.95531 0.0
H1581 H 0.13254 0.84357 0.85151 0.0
H1582 H 0.19632 0.8308 0.94343 0.0
H1583 H 0.13739 0.85103 0.94537 0.0
H1584 H 0.16367 0.31912 0.34197 0.0
H1585 H 0.09204 0.23448 0.37032 0.0
H1586 H 0.10235 0.32876 0.34705 0.0
H1587 H 0.14068 0.22417 0.33265 0.0
H1588 H 0.09795 0.26932 0.36774 0.0
H1589 H 0.15792 0.28405 0.34422 0.0
C1590 C 0.14904 0.31378 0.34358 0.0
C1591 C 0.13344 0.32667 0.34421 0.0
C1592 C 0.10728 0.25937 0.36005 0.0
C1593 C 0.12682 0.287 0.34717 0.0
C1594 C 0.10397 0.23952 0.36157 0.0
C1595 C 0.11582 0.22644 0.35159 0.0
C1596 C 0.12285 0.2661 0.34891 0.0
C1597 C 0.1311 0.23379 0.34043 0.0
C1598 C 0.14576 0.29389 0.34478 0.0
C1599 C 0.1147 0.31919 0.34629 0.0
N1600 N 0.1343 0.25316 0.33952 0.0
N1601 N 0.11191 0.29982 0.34789 0.0
H1602 H 0.83123 0.18279 0.33312 0.0
H1603 H 0.90108 0.26274 0.37791 0.0
H1604 H 0.8891 0.16994 0.35224 0.0
H1605 H 0.85647 0.27672 0.33661 0.0
H1606 H 0.89398 0.22837 0.37333 0.0
H1607 H 0.83737 0.21727 0.33899 0.0
C1608 C 0.84517 0.18726 0.33864 0.0
C1609 C 0.85972 0.17361 0.34211 0.0
C1610 C 0.88576 0.23899 0.3653 0.0
C1611 C 0.86678 0.21275 0.34901 0.0
C1612 C 0.88975 0.25859 0.36794 0.0
C1613 C 0.87943 0.27258 0.35751 0.0
C1614 C 0.87112 0.2334 0.35242 0.0
C1615 C 0.86488 0.26639 0.34481 0.0
C1616 C 0.8487 0.20687 0.34189 0.0
C1617 C 0.8776 0.18008 0.34916 0.0
N1618 N 0.86109 0.24724 0.34267 0.0
N1619 N 0.88061 0.19919 0.35248 0.0
H1620 H 0.16728 0.67849 0.1583 0.0
H1621 H 0.0962 0.7609 0.12257 0.0
H1622 H 0.10652 0.66766 0.14993 0.0
H1623 H 0.14352 0.77326 0.16126 0.0
H1624 H 0.10213 0.72623 0.12704 0.0
H1625 H 0.16128 0.71329 0.15399 0.0
C1626 C 0.15272 0.6835 0.1555 0.0
C1627 C 0.13734 0.67036 0.15456 0.0
C1628 C 0.11115 0.73659 0.13455 0.0
C1629 C 0.13045 0.70974 0.14933 0.0
C1630 C 0.10783 0.75633 0.13197 0.0
C1631 C 0.11932 0.76993 0.14165 0.0
C1632 C 0.12637 0.7305 0.1465 0.0
C1633 C 0.13422 0.76323 0.15367 0.0
C1634 C 0.14929 0.70325 0.15315 0.0
C1635 C 0.11869 0.67745 0.15097 0.0
N1636 N 0.13744 0.74395 0.15563 0.0
N1637 N 0.11576 0.69668 0.1483 0.0
H1638 H 0.90759 0.73723 0.12379 0.0
H1639 H 0.83669 0.81867 0.16128 0.0
H1640 H 0.85976 0.72334 0.16139 0.0
H1641 H 0.89759 0.82927 0.15355 0.0
H1642 H 0.84259 0.78386 0.15683 0.0
H1643 H 0.90197 0.77161 0.12995 0.0
C1644 C 0.89593 0.74141 0.13335 0.0
C1645 C 0.88417 0.72744 0.14218 0.0
C1646 C 0.85464 0.79385 0.15623 0.0
C1647 C 0.87748 0.76665 0.14895 0.0
C1648 C 0.85127 0.81361 0.15866 0.0
C1649 C 0.86671 0.8267 0.15785 0.0
C1650 C 0.87348 0.78732 0.15247 0.0
C1651 C 0.88537 0.81954 0.15448 0.0
C1652 C 0.89278 0.761 0.1369 0.0
C1653 C 0.86924 0.73367 0.15443 0.0
N1654 N 0.88823 0.80033 0.1517 0.0
N1655 N 0.86618 0.75287 0.15732 0.0
H1656 H 0.32319 0.11219 0.22917 0.0
H1657 H 0.37973 0.12777 0.32878 0.0
H1658 H 0.38523 0.10771 0.23426 0.0
H1659 H 0.31787 0.12098 0.32492 0.0
H1660 H 0.3821 0.12295 0.29382 0.0
H1661 H 0.32105 0.1176 0.26394 0.0
C1662 C 0.33638 0.11233 0.23759 0.0
C1663 C 0.35443 0.10949 0.22876 0.0
C1664 C 0.36801 0.12251 0.30063 0.0
C1665 C 0.35206 0.11578 0.26865 0.0
C1666 C 0.36664 0.12541 0.32055 0.0
C1667 C 0.34857 0.12475 0.32978 0.0
C1668 C 0.35119 0.11908 0.28981 0.0
C1669 C 0.3321 0.12137 0.31844 0.0
C1670 C 0.33514 0.1154 0.25747 0.0
C1671 C 0.37101 0.10981 0.24045 0.0
N1672 N 0.3338 0.1187 0.29906 0.0
N1673 N 0.36944 0.11296 0.25979 0.0
H1674 H 0.6167 0.38541 0.23683 0.0
H1675 H 0.68749 0.36778 0.32587 0.0
H1676 H 0.67825 0.37833 0.22935 0.0
H1677 H 0.62667 0.35418 0.32737 0.0
H1678 H 0.68466 0.37487 0.29121 0.0
H1679 H 0.62028 0.37745 0.27103 0.0
C1680 C 0.63098 0.38224 0.24239 0.0
C1681 C 0.64721 0.3825 0.23021 0.0
C1682 C 0.67198 0.3702 0.29914 0.0
C1683 C 0.65139 0.37345 0.26936 0.0
C1684 C 0.67358 0.36623 0.31887 0.0
C1685 C 0.65731 0.36034 0.32945 0.0
C1686 C 0.65391 0.36858 0.29005 0.0
C1687 C 0.63963 0.35844 0.31971 0.0
C1688 C 0.633 0.3776 0.26189 0.0
C1689 C 0.66536 0.37822 0.23822 0.0
N1690 N 0.63836 0.3627 0.3006 0.0
N1691 N 0.66699 0.37395 0.25734 0.0
H1692 H 0.37577 0.9036 0.25844 0.0
H1693 H 0.34531 0.83252 0.17387 0.0
H1694 H 0.3402 0.85342 0.26899 0.0
H1695 H 0.35213 0.8937 0.16436 0.0
H1696 H 0.34824 0.83801 0.20885 0.0
H1697 H 0.37205 0.89841 0.22359 0.0
C1698 C 0.36719 0.89151 0.25343 0.0
C1699 C 0.3582 0.87897 0.26659 0.0
C1700 C 0.34903 0.85022 0.19907 0.0
C1701 C 0.3542 0.8728 0.22691 0.0
C1702 C 0.34746 0.84708 0.1792 0.0
C1703 C 0.34842 0.8627 0.16635 0.0
C1704 C 0.35203 0.86905 0.20601 0.0
C1705 C 0.35112 0.88134 0.17388 0.0
C1706 C 0.36503 0.88861 0.23359 0.0
C1707 C 0.34725 0.86352 0.25932 0.0
N1708 N 0.35301 0.88399 0.19324 0.0
N1709 N 0.34569 0.86076 0.23994 0.0
H1710 H 0.68277 0.61236 0.26984 0.0
H1711 H 0.62615 0.63943 0.17295 0.0
H1712 H 0.6205 0.6127 0.2657 0.0
H1713 H 0.68666 0.62445 0.17403 0.0
H1714 H 0.62419 0.63276 0.20759 0.0
H1715 H 0.68478 0.61944 0.23533 0.0
C1716 C 0.6695 0.61391 0.26168 0.0
C1717 C 0.65142 0.61195 0.2707 0.0
C1718 C 0.6379 0.63094 0.20025 0.0
C1719 C 0.65366 0.62019 0.23116 0.0
C1720 C 0.63907 0.63492 0.18051 0.0
C1721 C 0.65662 0.63252 0.17059 0.0
C1722 C 0.65443 0.62469 0.21022 0.0
C1723 C 0.67282 0.62632 0.18109 0.0
C1724 C 0.67068 0.61792 0.24196 0.0
C1725 C 0.63474 0.61406 0.25935 0.0
N1726 N 0.67136 0.62267 0.20034 0.0
N1727 N 0.63626 0.61816 0.24019 0.0
H1728 H 0.23283 0.32216 0.10994 0.0
H1729 H 0.33097 0.37714 0.13637 0.0
H1730 H 0.23804 0.38433 0.11194 0.0
H1731 H 0.3285 0.31634 0.1228 0.0
H1732 H 0.2964 0.3797 0.12972 0.0
H1733 H 0.26744 0.31944 0.11642 0.0
C1734 C 0.24125 0.33525 0.11169 0.0
C1735 C 0.2325 0.35351 0.11043 0.0
C1736 C 0.30341 0.36579 0.12819 0.0
C1737 C 0.27211 0.35047 0.11797 0.0
C1738 C 0.32312 0.36429 0.13215 0.0
C1739 C 0.33263 0.34649 0.13017 0.0
C1740 C 0.29307 0.34934 0.12233 0.0
C1741 C 0.32178 0.33037 0.12433 0.0
C1742 C 0.26102 0.33367 0.11538 0.0
C1743 C 0.24416 0.36995 0.11279 0.0
N1744 N 0.30256 0.33217 0.12067 0.0
N1745 N 0.26334 0.36804 0.11654 0.0
H1746 H 0.23637 0.62898 0.40799 0.0
H1747 H 0.32071 0.65487 0.33488 0.0
H1748 H 0.22599 0.66491 0.35809 0.0
H1749 H 0.33077 0.65149 0.39624 0.0
H1750 H 0.28569 0.65268 0.34092 0.0
H1751 H 0.2712 0.63109 0.40174 0.0
C1752 C 0.2414 0.63724 0.3957 0.0
C1753 C 0.2283 0.64688 0.3836 0.0
C1754 C 0.29561 0.65246 0.35302 0.0
C1755 C 0.26795 0.64904 0.37621 0.0
C1756 C 0.31548 0.65363 0.34958 0.0
C1757 C 0.32847 0.65348 0.36511 0.0
C1758 C 0.28884 0.65059 0.37207 0.0
C1759 C 0.32111 0.65188 0.38394 0.0
C1760 C 0.26124 0.6385 0.3922 0.0
C1761 C 0.23563 0.6574 0.36786 0.0
N1762 N 0.30176 0.65031 0.38691 0.0
N1763 N 0.25497 0.65808 0.36451 0.0
H1764 H 0.77216 0.82124 0.38528 0.0
H1765 H 0.67419 0.87689 0.3598 0.0
H1766 H 0.76633 0.88332 0.38803 0.0
H1767 H 0.67671 0.81567 0.37127 0.0
H1768 H 0.70877 0.87929 0.36674 0.0
H1769 H 0.73788 0.81873 0.37721 0.0
C1770 C 0.76368 0.83435 0.3842 0.0
C1771 C 0.77213 0.85252 0.38735 0.0
C1772 C 0.70176 0.86532 0.36771 0.0
C1773 C 0.73291 0.84974 0.37798 0.0
C1774 C 0.68207 0.86392 0.36358 0.0
C1775 C 0.67258 0.84605 0.36498 0.0
C1776 C 0.71208 0.8487 0.3731 0.0
C1777 C 0.68344 0.82975 0.37023 0.0
C1778 C 0.7441 0.8329 0.37962 0.0
C1779 C 0.76041 0.86901 0.38577 0.0
N1780 N 0.70263 0.83145 0.37407 0.0
N1781 N 0.74141 0.86722 0.38112 0.0
H1782 H 0.18622 0.66863 0.66924 0.0
H1783 H 0.26569 0.62491 0.59836 0.0
H1784 H 0.17315 0.65074 0.61102 0.0
H1785 H 0.28019 0.66619 0.64284 0.0
H1786 H 0.23141 0.62964 0.6057 0.0
H1787 H 0.22075 0.66322 0.6627 0.0
C1788 C 0.19066 0.6635 0.65514 0.0
C1789 C 0.17694 0.66024 0.6406 0.0
C1790 C 0.24212 0.63765 0.61382 0.0
C1791 C 0.21608 0.65384 0.63311 0.0
C1792 C 0.26167 0.63493 0.60969 0.0
C1793 C 0.27578 0.64528 0.61993 0.0
C1794 C 0.23669 0.65051 0.62854 0.0
C1795 C 0.26975 0.65806 0.63449 0.0
C1796 C 0.21028 0.66052 0.65138 0.0
C1797 C 0.18335 0.65367 0.62251 0.0
N1798 N 0.25063 0.66025 0.63846 0.0
N1799 N 0.20246 0.65057 0.6193 0.0
H1800 H 0.88948 0.76129 0.6165 0.0
H1801 H 0.86779 0.66998 0.68364 0.0
H1802 H 0.87617 0.7661 0.6773 0.0
H1803 H 0.86458 0.66804 0.62143 0.0
H1804 H 0.87327 0.70491 0.6819 0.0
H1805 H 0.88295 0.72658 0.61826 0.0
C1806 C 0.88521 0.75505 0.63022 0.0
C1807 C 0.88334 0.7666 0.64678 0.0
C1808 C 0.87125 0.69685 0.66864 0.0
C1809 C 0.87593 0.72695 0.64889 0.0
C1810 C 0.86821 0.67694 0.66964 0.0
C1811 C 0.86571 0.66615 0.65267 0.0
C1812 C 0.87206 0.70597 0.65051 0.0
C1813 C 0.8662 0.67586 0.63486 0.0
C1814 C 0.88141 0.73526 0.63119 0.0
C1815 C 0.87774 0.75776 0.66416 0.0
N1816 N 0.86946 0.69521 0.63424 0.0
N1817 N 0.8743 0.73844 0.66478 0.0
H1818 H 0.11789 0.73389 0.68028 0.0
H1819 H 0.13401 0.8324 0.62187 0.0
H1820 H 0.11288 0.73827 0.61822 0.0
H1821 H 0.1279 0.82982 0.68387 0.0
H1822 H 0.12932 0.79743 0.62029 0.0
H1823 H 0.1241 0.76859 0.68187 0.0
C1824 C 0.11808 0.74214 0.66697 0.0
C1825 C 0.11484 0.73314 0.64908 0.0
C1826 C 0.12905 0.80451 0.63425 0.0
C1827 C 0.12207 0.77291 0.65082 0.0
C1828 C 0.13191 0.82446 0.63518 0.0
C1829 C 0.13134 0.83407 0.65304 0.0
C1830 C 0.12572 0.79403 0.65132 0.0
C1831 C 0.12824 0.82303 0.66979 0.0
C1832 C 0.12162 0.76197 0.66791 0.0
C1833 C 0.11526 0.7446 0.63234 0.0
N1834 N 0.12556 0.80361 0.66852 0.0
N1835 N 0.11886 0.76388 0.63361 0.0
H1836 H 0.85416 0.32593 0.87923 0.0
H1837 H 0.87125 0.22914 0.81846 0.0
H1838 H 0.85943 0.32542 0.8171 0.0
H1839 H 0.88084 0.23351 0.87997 0.0
H1840 H 0.86349 0.26364 0.81762 0.0
H1841 H 0.85989 0.29112 0.87969 0.0
C1842 C 0.85625 0.31845 0.86565 0.0
C1843 C 0.85633 0.32859 0.84809 0.0
C1844 C 0.86732 0.25703 0.83128 0.0
C1845 C 0.86315 0.28876 0.84853 0.0
C1846 C 0.87174 0.23734 0.83178 0.0
C1847 C 0.87673 0.22843 0.84931 0.0
C1848 C 0.86769 0.26782 0.84846 0.0
C1849 C 0.87713 0.23978 0.86612 0.0
C1850 C 0.85973 0.2986 0.86594 0.0
C1851 C 0.85946 0.31817 0.83096 0.0
N1852 N 0.8726 0.25886 0.86529 0.0
N1853 N 0.86274 0.29881 0.8316 0.0
H1854 H 0.16367 0.18544 0.84725 0.0
H1855 H 0.08964 0.2671 0.87986 0.0
H1856 H 0.10249 0.17488 0.85228 0.0
H1857 H 0.13972 0.28049 0.84513 0.0
H1858 H 0.09681 0.23262 0.8762 0.0
H1859 H 0.1577 0.22014 0.85261 0.0
C1860 C 0.14903 0.19048 0.84956 0.0
C1861 C 0.13351 0.17746 0.84919 0.0
C1862 C 0.10622 0.24316 0.86944 0.0
C1863 C 0.12665 0.21667 0.85563 0.0
C1864 C 0.1022 0.2628 0.87158 0.0
C1865 C 0.11402 0.27664 0.86263 0.0
C1866 C 0.12241 0.23737 0.85867 0.0
C1867 C 0.13014 0.27025 0.85208 0.0
C1868 C 0.14563 0.21017 0.85253 0.0
C1869 C 0.11477 0.18457 0.85221 0.0
N1870 N 0.13394 0.25105 0.85046 0.0
N1871 N 0.11186 0.2037 0.85544 0.0
H1872 H 0.67912 0.87604 0.77588 0.0
H1873 H 0.62306 0.86412 0.67541 0.0
H1874 H 0.61813 0.88713 0.76865 0.0
H1875 H 0.68525 0.86479 0.67982 0.0
H1876 H 0.62083 0.86884 0.71029 0.0
H1877 H 0.6815 0.86879 0.74134 0.0
C1878 C 0.66623 0.87695 0.76705 0.0
C1879 C 0.6484 0.88225 0.77518 0.0
C1880 C 0.63498 0.86787 0.70365 0.0
C1881 C 0.65102 0.87382 0.73568 0.0
C1882 C 0.63626 0.86498 0.68374 0.0
C1883 C 0.65438 0.86408 0.67465 0.0
C1884 C 0.65193 0.86978 0.71464 0.0
C1885 C 0.671 0.86562 0.68621 0.0
C1886 C 0.66761 0.87281 0.74733 0.0
C1887 C 0.63219 0.88317 0.76301 0.0
N1888 N 0.66938 0.86842 0.7056 0.0
N1889 N 0.63388 0.87896 0.74391 0.0
H1890 H 0.31647 0.63207 0.67553 0.0
H1891 H 0.38365 0.60809 0.76608 0.0
H1892 H 0.3787 0.63525 0.67384 0.0
H1893 H 0.32307 0.62191 0.77197 0.0
H1894 H 0.38163 0.61544 0.73164 0.0
H1895 H 0.31809 0.62603 0.71042 0.0
C1896 C 0.33045 0.63154 0.68253 0.0
C1897 C 0.34747 0.63417 0.67181 0.0
C1898 C 0.36879 0.61692 0.74047 0.0
C1899 C 0.34946 0.62717 0.71157 0.0
C1900 C 0.3699 0.61265 0.76013 0.0
C1901 C 0.35349 0.61441 0.77194 0.0
C1902 C 0.3511 0.6228 0.73247 0.0
C1903 C 0.33608 0.62041 0.76341 0.0
C1904 C 0.33137 0.62818 0.70242 0.0
C1905 C 0.36522 0.63352 0.68159 0.0
N1906 N 0.33532 0.62431 0.74416 0.0
N1907 N 0.36576 0.62994 0.70088 0.0
H1908 H 0.67794 0.1374 0.82857 0.0
H1909 H 0.61151 0.11345 0.73755 0.0
H1910 H 0.61578 0.1415 0.83028 0.0
H1911 H 0.67233 0.1267 0.73287 0.0
H1912 H 0.61278 0.12173 0.77194 0.0
H1913 H 0.67628 0.13157 0.79372 0.0
C1914 C 0.66395 0.13712 0.82156 0.0
C1915 C 0.64698 0.1399 0.83227 0.0
C1916 C 0.62581 0.1229 0.76334 0.0
C1917 C 0.64492 0.13314 0.79251 0.0
C1918 C 0.62511 0.11812 0.74374 0.0
C1919 C 0.64185 0.11936 0.73233 0.0
C1920 C 0.64341 0.12873 0.77161 0.0
C1921 C 0.65907 0.12555 0.7411 0.0
C1922 C 0.663 0.13388 0.80169 0.0
C1923 C 0.62921 0.1396 0.82249 0.0
N1924 N 0.65943 0.12988 0.76023 0.0
N1925 N 0.62862 0.1361 0.80317 0.0
H1926 H 0.32604 0.33296 0.81594 0.0
H1927 H 0.37356 0.39875 0.73407 0.0
H1928 H 0.35069 0.38888 0.82815 0.0
H1929 H 0.32907 0.35666 0.72212 0.0
H1930 H 0.3696 0.39247 0.76871 0.0
H1931 H 0.33138 0.33855 0.78137 0.0
C1932 C 0.33269 0.34635 0.81132 0.0
C1933 C 0.33789 0.36051 0.82485 0.0
C1934 C 0.36073 0.38464 0.75846 0.0
C1935 C 0.3441 0.36696 0.78548 0.0
C1936 C 0.36302 0.38815 0.73872 0.0
C1937 C 0.35153 0.37829 0.72522 0.0
C1938 C 0.34712 0.37093 0.76469 0.0
C1939 C 0.33811 0.3647 0.73204 0.0
C1940 C 0.33562 0.34958 0.79163 0.0
C1941 C 0.34629 0.37771 0.81813 0.0
N1942 N 0.33633 0.36135 0.75131 0.0
N1943 N 0.34923 0.38043 0.79889 0.0
H1944 H 0.76955 0.68133 0.86839 0.0
H1945 H 0.67101 0.62299 0.85342 0.0
H1946 H 0.76416 0.62018 0.87963 0.0
H1947 H 0.67326 0.68492 0.86009 0.0
H1948 H 0.70598 0.6215 0.85855 0.0
H1949 H 0.73502 0.68268 0.86115 0.0
C1950 C 0.76113 0.66817 0.86929 0.0
C1951 C 0.76976 0.65062 0.87467 0.0
C1952 C 0.69883 0.63542 0.85883 0.0
C1953 C 0.73024 0.65207 0.86628 0.0
C1954 C 0.67891 0.63629 0.85573 0.0
C1955 C 0.66925 0.65412 0.85634 0.0
C1956 C 0.70919 0.65251 0.86234 0.0
C1957 C 0.68015 0.67088 0.85969 0.0
C1958 C 0.7414 0.66897 0.8652 0.0
C1959 C 0.7581 0.63403 0.87561 0.0
N1960 N 0.69955 0.66968 0.86253 0.0
N1961 N 0.73893 0.63515 0.8714 0.0
H1962 H 0.77526 0.32641 0.64164 0.0
H1963 H 0.66739 0.34621 0.60911 0.0
H1964 H 0.7615 0.3685 0.59771 0.0
H1965 H 0.68126 0.33177 0.66809 0.0
H1966 H 0.70195 0.34978 0.60212 0.0
H1967 H 0.74075 0.32342 0.64907 0.0
C1968 C 0.76497 0.33492 0.63347 0.0
C1969 C 0.77122 0.3477 0.61899 0.0
C1970 C 0.69741 0.34587 0.61659 0.0
C1971 C 0.73188 0.34421 0.62733 0.0
C1972 C 0.67778 0.34372 0.62054 0.0
C1973 C 0.67161 0.33864 0.63918 0.0
C1974 C 0.71096 0.34251 0.63128 0.0
C1975 C 0.68555 0.33578 0.65358 0.0
C1976 C 0.74534 0.3333 0.63782 0.0
C1977 C 0.7573 0.35851 0.60898 0.0
N1978 N 0.70466 0.33756 0.64929 0.0
N1979 N 0.73823 0.3564 0.61323 0.0
H1980 H 0.3242 0.12484 0.63817 0.0
H1981 H 0.22697 0.18463 0.62009 0.0
H1982 H 0.32306 0.18686 0.63183 0.0
H1983 H 0.23124 0.12279 0.61287 0.0
H1984 H 0.2615 0.18579 0.6275 0.0
H1985 H 0.28937 0.12393 0.63257 0.0
C1986 C 0.31659 0.13831 0.63586 0.0
C1987 C 0.32657 0.15597 0.63548 0.0
C1988 C 0.25487 0.17197 0.62427 0.0
C1989 C 0.28668 0.15499 0.6288 0.0
C1990 C 0.23515 0.17129 0.62005 0.0
C1991 C 0.22619 0.15358 0.61582 0.0
C1992 C 0.26569 0.15481 0.62444 0.0
C1993 C 0.23755 0.13677 0.61598 0.0
C1994 C 0.29672 0.13775 0.63247 0.0
C1995 C 0.31596 0.17293 0.63207 0.0
N1996 N 0.25669 0.13779 0.62028 0.0
N1997 N 0.29659 0.17202 0.62887 0.0
H1998 H 0.73344 0.38224 0.39106 0.0
H1999 H 0.82461 0.3139 0.373 0.0
H2000 H 0.72803 0.32079 0.38162 0.0
H2001 H 0.82595 0.37569 0.36491 0.0
H2002 H 0.78973 0.31583 0.37908 0.0
H2003 H 0.76805 0.37984 0.38455 0.0
C2004 C 0.73953 0.36823 0.38765 0.0
C2005 C 0.72781 0.35169 0.38684 0.0
C2006 C 0.79766 0.32894 0.37588 0.0
C2007 C 0.76745 0.34885 0.37944 0.0
C2008 C 0.81754 0.32786 0.37251 0.0
C2009 C 0.82815 0.34466 0.36842 0.0
C2010 C 0.78841 0.347 0.37543 0.0
C2011 C 0.81829 0.36237 0.36778 0.0
C2012 C 0.75928 0.36689 0.38386 0.0
C2013 C 0.73651 0.33392 0.38233 0.0
N2014 N 0.799 0.36309 0.37137 0.0
N2015 N 0.75584 0.33295 0.37887 0.0
H2016 H 0.6221 0.72599 0.82006 0.0
H2017 H 0.64611 0.82372 0.87677 0.0
H2018 H 0.6156 0.73226 0.88182 0.0
H2019 H 0.6355 0.82185 0.81538 0.0
H2020 H 0.63958 0.78904 0.87864 0.0
H2021 H 0.63119 0.76008 0.81792 0.0
C2022 C 0.62262 0.73452 0.83318 0.0
C2023 C 0.61803 0.72628 0.85115 0.0
C2024 C 0.63876 0.79621 0.86475 0.0
C2025 C 0.62856 0.76524 0.84878 0.0
C2026 C 0.64268 0.81596 0.86363 0.0
C2027 C 0.64133 0.82567 0.84588 0.0
C2028 C 0.63365 0.78604 0.84795 0.0
C2029 C 0.63651 0.81493 0.82936 0.0
C2030 C 0.62777 0.75398 0.83193 0.0
C2031 C 0.61894 0.73804 0.86766 0.0
N2032 N 0.63285 0.79567 0.83079 0.0
N2033 N 0.62416 0.75691 0.86608 0.0
H2034 H 0.35934 0.67078 0.87462 0.0
H2035 H 0.38004 0.76734 0.81461 0.0
H2036 H 0.36555 0.67181 0.81259 0.0
H2037 H 0.38661 0.76329 0.87654 0.0
H2038 H 0.37193 0.733 0.81358 0.0
H2039 H 0.36601 0.70543 0.87555 0.0
C2040 C 0.36186 0.67834 0.86116 0.0
C2041 C 0.36187 0.66839 0.84348 0.0
C2042 C 0.37517 0.73962 0.82738 0.0
C2043 C 0.36976 0.70803 0.84447 0.0
C2044 C 0.37979 0.75924 0.828 0.0
C2045 C 0.38403 0.76821 0.84569 0.0
C2046 C 0.37461 0.72891 0.8446 0.0
C2047 C 0.38349 0.75696 0.86257 0.0
C2048 C 0.36586 0.69809 0.86172 0.0
C2049 C 0.36558 0.6789 0.82653 0.0
N2050 N 0.3788 0.7379 0.86161 0.0
N2051 N 0.36936 0.69816 0.82743 0.0
H2052 H 0.6317 0.17317 0.68944 0.0
H2053 H 0.61087 0.26213 0.61882 0.0
H2054 H 0.64121 0.17075 0.62788 0.0
H2055 H 0.61578 0.26796 0.68077 0.0
H2056 H 0.61967 0.22799 0.62176 0.0
H2057 H 0.6238 0.20752 0.68652 0.0
C2058 C 0.63218 0.17991 0.67533 0.0
C2059 C 0.63712 0.16913 0.65889 0.0
C2060 C 0.61884 0.23677 0.63469 0.0
C2061 C 0.628 0.20833 0.65538 0.0
C2062 C 0.61373 0.25622 0.63304 0.0
C2063 C 0.61261 0.26792 0.64957 0.0
C2064 C 0.62267 0.22893 0.65302 0.0
C2065 C 0.61651 0.25951 0.66762 0.0
C2066 C 0.62774 0.1995 0.67366 0.0
C2067 C 0.6377 0.17858 0.64094 0.0
N2068 N 0.62131 0.24052 0.66887 0.0
N2069 N 0.63304 0.19762 0.63964 0.0
H2070 H 0.3855 0.23258 0.61287 0.0
H2071 H 0.36556 0.32149 0.68348 0.0
H2072 H 0.37839 0.22539 0.67447 0.0
H2073 H 0.35512 0.32338 0.62207 0.0
H2074 H 0.37284 0.28689 0.68079 0.0
H2075 H 0.37725 0.26669 0.61625 0.0
C2076 C 0.38226 0.23818 0.62713 0.0
C2077 C 0.38261 0.22609 0.64342 0.0
C2078 C 0.36882 0.29488 0.66794 0.0
C2079 C 0.37318 0.2652 0.64736 0.0
C2080 C 0.36475 0.31459 0.66946 0.0
C2081 C 0.35972 0.32529 0.65298 0.0
C2082 C 0.36814 0.28588 0.64976 0.0
C2083 C 0.35871 0.31564 0.63517 0.0
C2084 C 0.37745 0.25765 0.62903 0.0
C2085 C 0.37824 0.23418 0.66152 0.0
N2086 N 0.36304 0.29653 0.63401 0.0
N2087 N 0.37377 0.25327 0.66303 0.0
H2088 H 0.88577 0.61263 0.73181 0.0
H2089 H 0.81273 0.63704 0.81761 0.0
H2090 H 0.82455 0.62047 0.72263 0.0
H2091 H 0.87401 0.64786 0.82098 0.0
H2092 H 0.81656 0.62832 0.78345 0.0
H2093 H 0.8816 0.62269 0.76545 0.0
C2094 C 0.87145 0.61643 0.73687 0.0
C2095 C 0.85549 0.61573 0.72439 0.0
C2096 C 0.82913 0.63274 0.79165 0.0
C2097 C 0.85062 0.62717 0.76286 0.0
C2098 C 0.82696 0.63765 0.81111 0.0
C2099 C 0.84306 0.64322 0.82209 0.0
C2100 C 0.8476 0.63311 0.78322 0.0
C2101 C 0.86119 0.64389 0.81298 0.0
C2102 C 0.8691 0.62225 0.75604 0.0
C2103 C 0.83727 0.62086 0.73173 0.0
N2104 N 0.863 0.63873 0.79412 0.0
N2105 N 0.83531 0.62627 0.75052 0.0
H2106 H 0.18473 0.87099 0.81956 0.0
H2107 H 0.11215 0.89161 0.73262 0.0
H2108 H 0.12316 0.86201 0.82332 0.0
H2109 H 0.17318 0.88235 0.7234 0.0
H2110 H 0.11637 0.88352 0.76664 0.0
H2111 H 0.18128 0.87759 0.78487 0.0
C2112 C 0.17052 0.87035 0.81305 0.0
C2113 C 0.15421 0.86595 0.82429 0.0
C2114 C 0.12884 0.8832 0.75718 0.0
C2115 C 0.15013 0.87359 0.78482 0.0
C2116 C 0.12647 0.88792 0.73775 0.0
C2117 C 0.14235 0.88765 0.72513 0.0
C2118 C 0.14726 0.87839 0.76416 0.0
C2119 C 0.16054 0.88269 0.73262 0.0
C2120 C 0.16857 0.87403 0.79329 0.0
C2121 C 0.13613 0.86513 0.81515 0.0
N2122 N 0.16253 0.87834 0.7517 0.0
N2123 N 0.13456 0.86908 0.796 0.0
H2124 H 0.82579 0.36249 0.78241 0.0
H2125 H 0.84608 0.39621 0.67451 0.0
H2126 H 0.86734 0.40709 0.76909 0.0
H2127 H 0.8326 0.33701 0.68845 0.0
H2128 H 0.84817 0.40354 0.70919 0.0
H2129 H 0.82233 0.35597 0.74774 0.0
C2130 C 0.83405 0.37102 0.77219 0.0
C2131 C 0.84688 0.38535 0.77861 0.0
C2132 C 0.84473 0.38896 0.70461 0.0
C2133 C 0.84282 0.3781 0.73911 0.0
C2134 C 0.84344 0.38482 0.68492 0.0
C2135 C 0.83923 0.36599 0.67873 0.0
C2136 C 0.84136 0.37424 0.71816 0.0
C2137 C 0.83606 0.35166 0.69271 0.0
C2138 C 0.83214 0.36721 0.75247 0.0
C2139 C 0.85734 0.39588 0.76477 0.0
N2140 N 0.83705 0.3561 0.71183 0.0
N2141 N 0.85499 0.39213 0.74563 0.0
H2142 H 0.12367 0.10201 0.76409 0.0
H2143 H 0.15884 0.176 0.68331 0.0
H2144 H 0.16138 0.14985 0.77753 0.0
H2145 H 0.14876 0.11577 0.67105 0.0
H2146 H 0.15445 0.16923 0.71799 0.0
H2147 H 0.12735 0.10939 0.7296 0.0
C2148 C 0.13266 0.11408 0.75979 0.0
C2149 C 0.14234 0.12527 0.77365 0.0
C2150 C 0.15324 0.15753 0.70766 0.0
C2151 C 0.14632 0.13393 0.73439 0.0
C2152 C 0.15566 0.1614 0.68797 0.0
C2153 C 0.15431 0.14638 0.67445 0.0
C2154 C 0.14899 0.13861 0.71371 0.0
C2155 C 0.15018 0.12767 0.68111 0.0
C2156 C 0.1348 0.11823 0.74014 0.0
C2157 C 0.15382 0.14076 0.76729 0.0
N2158 N 0.14752 0.12432 0.70027 0.0
N2159 N 0.1554 0.14473 0.74811 0.0
H2160 H 0.72172 0.83188 0.64389 0.0
H2161 H 0.83005 0.84156 0.60699 0.0
H2162 H 0.73749 0.86936 0.59657 0.0
H2163 H 0.81678 0.83308 0.66727 0.0
H2164 H 0.79548 0.84546 0.60026 0.0
H2165 H 0.75615 0.82589 0.65006 0.0
C2166 C 0.73243 0.83869 0.6347 0.0
C2167 C 0.72682 0.85115 0.61972 0.0
C2168 C 0.80015 0.84268 0.61494 0.0
C2169 C 0.76596 0.84422 0.62656 0.0
C2170 C 0.81979 0.84033 0.61875 0.0
C2171 C 0.82615 0.837 0.6377 0.0
C2172 C 0.78679 0.8413 0.63013 0.0
C2173 C 0.81236 0.83576 0.65251 0.0
C2174 C 0.752 0.83536 0.6383 0.0
C2175 C 0.74123 0.85973 0.60832 0.0
N2176 N 0.79325 0.83779 0.6484 0.0
N2177 N 0.76017 0.85601 0.6119 0.0
H2178 H 0.80973 0.16179 0.8292 0.0
H2179 H 0.72979 0.12699 0.90401 0.0
H2180 H 0.82262 0.15154 0.88927 0.0
H2181 H 0.71589 0.16625 0.85757 0.0
H2182 H 0.76409 0.13008 0.8958 0.0
H2183 H 0.77507 0.15785 0.83643 0.0
C2184 C 0.80521 0.15866 0.84386 0.0
C2185 C 0.81889 0.15712 0.85871 0.0
C2186 C 0.75348 0.13799 0.88743 0.0
C2187 C 0.7797 0.15228 0.86696 0.0
C2188 C 0.73394 0.13619 0.89205 0.0
C2189 C 0.72002 0.14652 0.88155 0.0
C2190 C 0.75908 0.14982 0.87193 0.0
C2191 C 0.7262 0.15821 0.86615 0.0
C2192 C 0.78554 0.1565 0.84798 0.0
C2193 C 0.81243 0.15308 0.8775 0.0
N2194 N 0.74531 0.15947 0.86171 0.0
N2195 N 0.79329 0.15065 0.88108 0.0
H2196 H 0.26211 0.32023 0.89013 0.0
H2197 H 0.16619 0.38022 0.8666 0.0
H2198 H 0.26009 0.3826 0.88922 0.0
H2199 H 0.16623 0.31917 0.87925 0.0
H2200 H 0.20101 0.38115 0.8726 0.0
H2201 H 0.22732 0.31936 0.88429 0.0
C2202 C 0.25436 0.33375 0.88874 0.0
C2203 C 0.26405 0.35152 0.89015 0.0
C2204 C 0.1934 0.36755 0.87409 0.0
C2205 C 0.2242 0.35061 0.88333 0.0
C2206 C 0.17355 0.36698 0.87051 0.0
C2207 C 0.1633 0.34958 0.87244 0.0
C2208 C 0.20311 0.35056 0.87946 0.0
C2209 C 0.17353 0.33292 0.87782 0.0
C2210 C 0.23447 0.33324 0.88542 0.0
C2211 C 0.25322 0.36857 0.88825 0.0
N2212 N 0.19288 0.33381 0.88109 0.0
N2213 N 0.23388 0.36769 0.88486 0.0
H2214 H 0.76693 0.12375 0.09674 0.0
H2215 H 0.68754 0.16348 0.17004 0.0
H2216 H 0.78093 0.16516 0.14125 0.0
H2217 H 0.67391 0.14713 0.1115 0.0
H2218 H 0.72209 0.15901 0.16279 0.0
H2219 H 0.73267 0.12699 0.10507 0.0
C2220 C 0.76281 0.13346 0.1083 0.0
C2221 C 0.77676 0.14433 0.11823 0.0
C2222 C 0.71149 0.15641 0.15158 0.0
C2223 C 0.73773 0.14784 0.12798 0.0
C2224 C 0.69187 0.15886 0.15573 0.0
C2225 C 0.67799 0.15578 0.1413 0.0
C2226 C 0.71713 0.15043 0.13301 0.0
C2227 C 0.68424 0.14988 0.12292 0.0
C2228 C 0.74328 0.13533 0.113 0.0
C2229 C 0.77061 0.15666 0.13312 0.0
N2230 N 0.70335 0.14728 0.11932 0.0
N2231 N 0.75153 0.15802 0.13763 0.0
H2232 H 0.35957 0.27672 0.16181 0.0
H2233 H 0.39517 0.16879 0.14497 0.0
H2234 H 0.40503 0.26263 0.12145 0.0
H2235 H 0.33746 0.18228 0.16422 0.0
H2236 H 0.40107 0.20331 0.1395 0.0
H2237 H 0.35308 0.24221 0.16601 0.0
C2238 C 0.36819 0.26636 0.15383 0.0
C2239 C 0.3829 0.27254 0.14131 0.0
C2240 C 0.38711 0.19869 0.14487 0.0
C2241 C 0.37566 0.23309 0.14619 0.0
C2242 C 0.38379 0.17906 0.14812 0.0
C2243 C 0.36582 0.17275 0.15509 0.0
C2244 C 0.37245 0.21212 0.14893 0.0
C2245 C 0.35146 0.18658 0.15871 0.0
C2246 C 0.36442 0.2467 0.15618 0.0
C2247 C 0.39354 0.2585 0.13124 0.0
N2248 N 0.35513 0.20566 0.15574 0.0
N2249 N 0.38983 0.2394 0.13403 0.0
H2250 H 0.61312 0.23301 0.12195 0.0
H2251 H 0.6337 0.32381 0.19042 0.0
H2252 H 0.62012 0.22804 0.18377 0.0
H2253 H 0.63928 0.32535 0.12834 0.0
H2254 H 0.62689 0.2891 0.18855 0.0
H2255 H 0.62051 0.26743 0.12425 0.0
C2256 C 0.61615 0.23915 0.13603 0.0
C2257 C 0.61603 0.22759 0.15269 0.0
C2258 C 0.62973 0.29703 0.17536 0.0
C2259 C 0.62453 0.26704 0.15542 0.0
C2260 C 0.63357 0.31682 0.17642 0.0
C2261 C 0.63711 0.32748 0.15952 0.0
C2262 C 0.62922 0.28788 0.15724 0.0
C2263 C 0.6369 0.31769 0.14175 0.0
C2264 C 0.62045 0.25881 0.13732 0.0
C2265 C 0.62008 0.23638 0.17054 0.0
N2266 N 0.63289 0.29848 0.14107 0.0
N2267 N 0.62414 0.25559 0.17144 0.0
H2268 H 0.41041 0.73205 0.36931 0.0
H2269 H 0.33858 0.81497 0.3374 0.0
H2270 H 0.36079 0.7195 0.33368 0.0
H2271 H 0.40002 0.8247 0.34037 0.0
H2272 H 0.3443 0.78007 0.34139 0.0
H2273 H 0.40476 0.76666 0.36432 0.0
C2274 C 0.39833 0.73657 0.36048 0.0
C2275 C 0.38611 0.72292 0.35181 0.0
C2276 C 0.35649 0.78989 0.34108 0.0
C2277 C 0.3794 0.76233 0.34638 0.0
C2278 C 0.35323 0.80969 0.33888 0.0
C2279 C 0.36887 0.82255 0.33845 0.0
C2280 C 0.37547 0.78309 0.34338 0.0
C2281 C 0.38764 0.81514 0.34041 0.0
C2282 C 0.39517 0.75628 0.35758 0.0
C2283 C 0.37065 0.72958 0.34049 0.0
N2284 N 0.39043 0.79588 0.34301 0.0
N2285 N 0.3676 0.74885 0.33824 0.0
H2286 H 0.60143 0.76271 0.37837 0.0
H2287 H 0.67204 0.68189 0.33615 0.0
H2288 H 0.64646 0.77577 0.33717 0.0
H2289 H 0.61383 0.66944 0.3546 0.0
H2290 H 0.66597 0.71646 0.34164 0.0
H2291 H 0.60893 0.72826 0.37502 0.0
C2292 C 0.61297 0.75835 0.36872 0.0
C2293 C 0.62325 0.77208 0.35791 0.0
C2294 C 0.65456 0.70612 0.34449 0.0
C2295 C 0.63201 0.73284 0.35421 0.0
C2296 C 0.65805 0.68647 0.34146 0.0
C2297 C 0.64336 0.67291 0.3448 0.0
C2298 C 0.63639 0.71213 0.35128 0.0
C2299 C 0.62542 0.67951 0.3516 0.0
C2300 C 0.61718 0.73871 0.36677 0.0
C2301 C 0.63806 0.76563 0.34563 0.0
N2302 N 0.62245 0.69866 0.3547 0.0
N2303 N 0.64205 0.74646 0.34415 0.0
H2304 H 0.17183 0.34032 0.18544 0.0
H2305 H 0.12307 0.40537 0.26656 0.0
H2306 H 0.14738 0.39616 0.17263 0.0
H2307 H 0.16957 0.36572 0.27911 0.0
H2308 H 0.12793 0.39951 0.232 0.0
H2309 H 0.16707 0.34655 0.22001 0.0
C2310 C 0.16536 0.35383 0.18994 0.0
C2311 C 0.15999 0.36776 0.17625 0.0
C2312 C 0.13709 0.39217 0.24236 0.0
C2313 C 0.15443 0.37494 0.21558 0.0
C2314 C 0.13431 0.39547 0.26207 0.0
C2315 C 0.14601 0.3861 0.27574 0.0
C2316 C 0.15137 0.37911 0.23632 0.0
C2317 C 0.16032 0.37335 0.26907 0.0
C2318 C 0.16277 0.35743 0.20962 0.0
C2319 C 0.15185 0.38514 0.18279 0.0
N2320 N 0.1625 0.37011 0.24982 0.0
N2321 N 0.14917 0.3882 0.20201 0.0
H2322 H 0.82063 0.11598 0.26659 0.0
H2323 H 0.88028 0.13977 0.1704 0.0
H2324 H 0.88287 0.11269 0.26319 0.0
H2325 H 0.81853 0.13121 0.17145 0.0
H2326 H 0.88144 0.13297 0.20509 0.0
H2327 H 0.81956 0.12414 0.2323 0.0
C2328 C 0.83408 0.11694 0.25864 0.0
C2329 C 0.85187 0.11363 0.26779 0.0
C2330 C 0.86764 0.13262 0.19773 0.0
C2331 C 0.85073 0.12311 0.2285 0.0
C2332 C 0.86694 0.13667 0.17797 0.0
C2333 C 0.84928 0.13601 0.16803 0.0
C2334 C 0.85052 0.12802 0.20764 0.0
C2335 C 0.83247 0.13164 0.17852 0.0
C2336 C 0.83345 0.12161 0.23904 0.0
C2337 C 0.86883 0.11509 0.25672 0.0
N2338 N 0.8335 0.12782 0.19775 0.0
N2339 N 0.86784 0.11978 0.23766 0.0
H2340 H 0.12504 0.59524 0.23766 0.0
H2341 H 0.15964 0.66852 0.31924 0.0
H2342 H 0.16315 0.64307 0.22527 0.0
H2343 H 0.14893 0.60835 0.33131 0.0
H2344 H 0.1554 0.66193 0.28459 0.0
H2345 H 0.12805 0.60236 0.27228 0.0
C2346 C 0.13394 0.60728 0.24221 0.0
C2347 C 0.14397 0.61851 0.22862 0.0
C2348 C 0.154 0.6502 0.29486 0.0
C2349 C 0.14721 0.62685 0.26799 0.0
C2350 C 0.15632 0.65397 0.31454 0.0
C2351 C 0.15474 0.63892 0.32801 0.0
C2352 C 0.14962 0.63135 0.28872 0.0
C2353 C 0.1505 0.62026 0.32129 0.0
C2354 C 0.13571 0.61127 0.26192 0.0
C2355 C 0.15532 0.63395 0.2353 0.0
N2356 N 0.14795 0.61701 0.30209 0.0
N2357 N 0.15655 0.63774 0.25452 0.0
H2358 H 0.838 0.83442 0.31995 0.0
H2359 H 0.87934 0.90411 0.23827 0.0
H2360 H 0.85495 0.89312 0.3321 0.0
H2361 H 0.83661 0.86031 0.22609 0.0
H2362 H 0.87579 0.8973 0.2729 0.0
H2363 H 0.84275 0.84065 0.28529 0.0
C2364 C 0.84283 0.84856 0.31528 0.0
C2365 C 0.846 0.86333 0.32877 0.0
C2366 C 0.86722 0.88922 0.26259 0.0
C2367 C 0.85165 0.87046 0.28946 0.0
C2368 C 0.86927 0.89304 0.24287 0.0
C2369 C 0.85815 0.88284 0.22933 0.0
C2370 C 0.8543 0.8748 0.26871 0.0
C2371 C 0.84533 0.86863 0.23607 0.0
C2372 C 0.84543 0.85213 0.29558 0.0
C2373 C 0.85215 0.88146 0.32207 0.0
N2374 N 0.84384 0.86493 0.2553 0.0
N2375 N 0.8549 0.8845 0.30286 0.0
H2376 H 0.17033 0.14904 0.39167 0.0
H2377 H 0.27794 0.15665 0.35229 0.0
H2378 H 0.18243 0.15814 0.33122 0.0
H2379 H 0.26265 0.1215 0.40153 0.0
H2380 H 0.24347 0.16213 0.34605 0.0
H2381 H 0.20488 0.14397 0.39749 0.0
C2382 C 0.18033 0.15014 0.37967 0.0
C2383 C 0.17362 0.15403 0.36095 0.0
C2384 C 0.24773 0.1532 0.35819 0.0
C2385 C 0.21301 0.1483 0.36747 0.0
C2386 C 0.26735 0.15013 0.3618 0.0
C2387 C 0.27314 0.13862 0.37746 0.0
C2388 C 0.23389 0.14503 0.37056 0.0
C2389 C 0.25882 0.13043 0.38928 0.0
C2390 C 0.19997 0.14709 0.38296 0.0
C2391 C 0.18709 0.15504 0.34582 0.0
N2392 N 0.23984 0.13393 0.38568 0.0
N2393 N 0.20622 0.15232 0.34942 0.0
H2394 H 0.26812 0.87104 0.08693 0.0
H2395 H 0.186 0.83783 0.15958 0.0
H2396 H 0.28081 0.83366 0.13521 0.0
H2397 H 0.17508 0.84373 0.09855 0.0
H2398 H 0.22081 0.84183 0.15332 0.0
H2399 H 0.23351 0.86688 0.09337 0.0
C2400 C 0.26364 0.86203 0.09891 0.0
C2401 C 0.27732 0.85258 0.11049 0.0
C2402 C 0.21075 0.84218 0.14133 0.0
C2403 C 0.23793 0.84807 0.11809 0.0
C2404 C 0.191 0.83997 0.1449 0.0
C2405 C 0.17783 0.84032 0.12953 0.0
C2406 C 0.2172 0.84529 0.12234 0.0
C2407 C 0.18489 0.84313 0.11072 0.0
C2408 C 0.24393 0.85961 0.10251 0.0
C2409 C 0.27071 0.84106 0.12584 0.0
N2410 N 0.20411 0.8457 0.10765 0.0
N2411 N 0.25146 0.83924 0.1293 0.0
H2412 H 0.73469 0.61522 0.10768 0.0
H2413 H 0.82347 0.68628 0.12728 0.0
H2414 H 0.72686 0.67585 0.12024 0.0
H2415 H 0.82738 0.6242 0.13136 0.0
H2416 H 0.78845 0.68332 0.12242 0.0
H2417 H 0.76923 0.61878 0.11378 0.0
C2418 C 0.74023 0.62931 0.1117 0.0
C2419 C 0.72784 0.64526 0.11347 0.0
C2420 C 0.79698 0.67037 0.12451 0.0
C2421 C 0.76746 0.64944 0.12044 0.0
C2422 C 0.81694 0.67205 0.12721 0.0
C2423 C 0.82834 0.65547 0.12977 0.0
C2424 C 0.78844 0.65196 0.12409 0.0
C2425 C 0.81915 0.63738 0.1297 0.0
C2426 C 0.75996 0.6313 0.11526 0.0
C2427 C 0.73587 0.66315 0.11875 0.0
N2428 N 0.79978 0.6361 0.12677 0.0
N2429 N 0.75521 0.66478 0.12197 0.0
H2430 H 0.31722 0.83592 0.82368 0.0
H2431 H 0.23799 0.8783 0.89575 0.0
H2432 H 0.3303 0.85108 0.88266 0.0
H2433 H 0.22337 0.83785 0.85056 0.0
H2434 H 0.27229 0.87395 0.88797 0.0
H2435 H 0.28278 0.84199 0.8302 0.0
C2436 C 0.31279 0.84061 0.83794 0.0
C2437 C 0.32647 0.84287 0.8527 0.0
C2438 C 0.26152 0.86608 0.87976 0.0
C2439 C 0.28747 0.85007 0.86017 0.0
C2440 C 0.24199 0.8686 0.88413 0.0
C2441 C 0.22787 0.85829 0.87387 0.0
C2442 C 0.2669 0.85349 0.86478 0.0
C2443 C 0.23384 0.84592 0.85894 0.0
C2444 C 0.29324 0.84397 0.84168 0.0
C2445 C 0.32011 0.84892 0.87099 0.0
N2446 N 0.25293 0.84391 0.85477 0.0
N2447 N 0.30107 0.85242 0.8742 0.0
H2448 H 0.05608 0.23354 0.39946 0.0
H2449 H 0.94326 0.25879 0.39656 0.0
H2450 H 0.01136 0.19008 0.39954 0.0
H2451 H 0.98786 0.30101 0.40736 0.0
H2452 H 0.96796 0.23345 0.3959 0.0
H2453 H 0.03123 0.25861 0.40073 0.0
C2454 C 0.04103 0.22929 0.39973 0.0
C2455 C 0.03579 0.2097 0.39942 0.0
C2456 C 0.97232 0.24826 0.39849 0.0
C2457 C 0.00724 0.23829 0.40089 0.0
C2458 C 0.95824 0.26272 0.39876 0.0
C2459 C 0.96349 0.28203 0.4021 0.0
C2460 C 0.99182 0.25317 0.40138 0.0
C2461 C 0.98312 0.2863 0.40503 0.0
C2462 C 0.02684 0.24359 0.40055 0.0
C2463 C 0.01605 0.20499 0.40001 0.0
N2464 N 0.99655 0.27201 0.40453 0.0
N2465 N 0.00249 0.21919 0.40062 0.0
H2466 H 0.9444 0.74175 0.09918 0.0
H2467 H 0.05799 0.76103 0.09319 0.0
H2468 H 0.98479 0.69856 0.07954 0.0
H2469 H 0.01587 0.80687 0.09078 0.0
H2470 H 0.03164 0.73729 0.09234 0.0
H2471 H 0.97081 0.76538 0.10036 0.0
C2472 C 0.95884 0.73726 0.09516 0.0
C2473 C 0.96243 0.71824 0.08915 0.0
C2474 C 0.02819 0.75255 0.09194 0.0
C2475 C 0.99266 0.74504 0.09058 0.0
C2476 C 0.04319 0.76606 0.09252 0.0
C2477 C 0.03908 0.7859 0.09193 0.0
C2478 C 0.00894 0.75896 0.09111 0.0
C2479 C 0.01966 0.79171 0.09097 0.0
C2480 C 0.97387 0.75073 0.09574 0.0
C2481 C 0.98138 0.71315 0.084 0.0
N2482 N 0.0053 0.7783 0.0907 0.0
N2483 N 0.99583 0.72645 0.08493 0.0
H2484 H 0.40065 0.00964 0.18887 0.0
H2485 H 0.41512 0.98259 0.30029 0.0
H2486 H 0.40707 0.05254 0.23365 0.0
H2487 H 0.39608 0.94187 0.2571 0.0
H2488 H 0.41505 0.0081 0.27578 0.0
H2489 H 0.4019 0.98431 0.21336 0.0
C2490 C 0.40253 0.01373 0.20384 0.0
C2491 C 0.40385 0.03325 0.20922 0.0
C2492 C 0.41088 0.99358 0.27168 0.0
C2493 C 0.40508 0.00427 0.2374 0.0
C2494 C 0.41104 0.979 0.28563 0.0
C2495 C 0.40561 0.96007 0.28072 0.0
C2496 C 0.40544 0.98918 0.25263 0.0
C2497 C 0.40018 0.95629 0.26155 0.0
C2498 C 0.40307 0.99925 0.21785 0.0
C2499 C 0.40587 0.03769 0.22891 0.0
N2500 N 0.4003 0.97069 0.2482 0.0
N2501 N 0.40648 0.0233 0.2423 0.0
H2502 H 0.59725 0.5557 0.26541 0.0
H2503 H 0.60521 0.44271 0.24273 0.0
H2504 H 0.60159 0.51199 0.30964 0.0
H2505 H 0.58754 0.48473 0.20022 0.0
H2506 H 0.60562 0.4682 0.26723 0.0
H2507 H 0.59525 0.53017 0.24094 0.0
C2508 C 0.59775 0.54074 0.26995 0.0
C2509 C 0.59953 0.53596 0.28958 0.0
C2510 C 0.60156 0.47183 0.25255 0.0
C2511 C 0.59731 0.50671 0.26174 0.0
C2512 C 0.60144 0.45731 0.23856 0.0
C2513 C 0.59633 0.46161 0.21942 0.0
C2514 C 0.59676 0.49086 0.24734 0.0
C2515 C 0.59135 0.48075 0.21484 0.0
C2516 C 0.59651 0.52619 0.25602 0.0
C2517 C 0.59995 0.51633 0.29472 0.0
N2518 N 0.5918 0.49469 0.22867 0.0
N2519 N 0.59897 0.50244 0.28088 0.0
H2520 H 0.26054 0.40529 0.94341 0.0
H2521 H 0.23931 0.40703 0.05724 0.0
H2522 H 0.30506 0.40356 0.98707 0.0
H2523 H 0.19472 0.4071 0.01362 0.0
H2524 H 0.26371 0.40762 0.0317 0.0
H2525 H 0.23622 0.40782 0.96892 0.0
C2526 C 0.26522 0.40546 0.95833 0.0
C2527 C 0.28491 0.40416 0.96305 0.0
C2528 C 0.24857 0.40761 0.02773 0.0
C2529 C 0.25714 0.40716 0.99236 0.0
C2530 C 0.23463 0.40719 0.04232 0.0
C2531 C 0.2149 0.40697 0.03763 0.0
C2532 C 0.24276 0.40775 0.00827 0.0
C2533 C 0.20971 0.40749 0.018 0.0
C2534 C 0.25133 0.40699 0.9729 0.0
C2535 C 0.29012 0.40475 0.98267 0.0
N2536 N 0.22354 0.40777 0.00407 0.0
N2537 N 0.27633 0.40611 0.99658 0.0
H2538 H 0.23565 0.60067 0.44512 0.0
H2539 H 0.26126 0.60551 0.5577 0.0
H2540 H 0.19239 0.60197 0.49002 0.0
H2541 H 0.30284 0.59026 0.51381 0.0
H2542 H 0.23604 0.60657 0.53292 0.0
H2543 H 0.26082 0.59911 0.46993 0.0
C2544 C 0.23146 0.60064 0.4602 0.0
C2545 C 0.21191 0.60138 0.46552 0.0
C2546 C 0.25067 0.60291 0.52872 0.0
C2547 C 0.24057 0.59962 0.49397 0.0
C2548 C 0.26507 0.60242 0.54284 0.0
C2549 C 0.28415 0.59774 0.5378 0.0
C2550 C 0.25543 0.59892 0.50939 0.0
C2551 C 0.28828 0.59368 0.51836 0.0
C2552 C 0.24581 0.59965 0.47435 0.0
C2553 C 0.20727 0.60114 0.48528 0.0
N2554 N 0.27406 0.59445 0.50484 0.0
N2555 N 0.22149 0.60038 0.49879 0.0
H2556 H 0.77509 0.87464 0.46028 0.0
H2557 H 0.72697 0.93862 0.54381 0.0
H2558 H 0.7942 0.93222 0.47462 0.0
H2559 H 0.7177 0.87724 0.53813 0.0
H2560 H 0.74938 0.93743 0.51646 0.0
H2561 H 0.7515 0.87628 0.4866 0.0
C2562 C 0.77417 0.88771 0.46883 0.0
C2563 C 0.78661 0.90334 0.46525 0.0
C2564 C 0.74247 0.92422 0.52122 0.0
C2565 C 0.75979 0.90525 0.4955 0.0
C2566 C 0.72962 0.92491 0.53676 0.0
C2567 C 0.72052 0.908 0.54329 0.0
C2568 C 0.74611 0.90651 0.51198 0.0
C2569 C 0.72461 0.89057 0.53374 0.0
C2570 C 0.76082 0.88857 0.48396 0.0
C2571 C 0.785 0.91979 0.47701 0.0
N2572 N 0.73705 0.89028 0.51852 0.0
N2573 N 0.77183 0.92034 0.49158 0.0
H2574 H 0.98871 0.80494 0.59749 0.0
H2575 H 0.01505 0.69235 0.59897 0.0
H2576 H 0.94621 0.75976 0.60421 0.0
H2577 H 0.05769 0.73788 0.59871 0.0
H2578 H 0.98952 0.71669 0.59835 0.0
H2579 H 0.01397 0.78047 0.59551 0.0
C2580 C 0.98464 0.78986 0.59838 0.0
C2581 C 0.96527 0.78441 0.60099 0.0
C2582 C 0.00446 0.72137 0.59836 0.0
C2583 C 0.99424 0.75625 0.59893 0.0
C2584 C 0.01907 0.70746 0.59855 0.0
C2585 C 0.03857 0.71308 0.59888 0.0
C2586 C 0.00936 0.74106 0.59843 0.0
C2587 C 0.04286 0.7329 0.59868 0.0
C2588 C 0.99912 0.77588 0.59738 0.0
C2589 C 0.96096 0.76463 0.6024 0.0
N2590 N 0.02839 0.74617 0.59848 0.0
N2591 N 0.97533 0.75127 0.60134 0.0
H2592 H 0.93522 0.23641 0.89759 0.0
H2593 H 0.04788 0.26292 0.89763 0.0
H2594 H 0.9804 0.19348 0.89876 0.0
H2595 H 0.0024 0.30481 0.90566 0.0
H2596 H 0.02348 0.23728 0.89644 0.0
H2597 H 0.95976 0.26177 0.8991 0.0
C2598 C 0.95031 0.23233 0.89814 0.0
C2599 C 0.95576 0.21281 0.89807 0.0
C2600 C 0.01887 0.25209 0.89854 0.0
C2601 C 0.98397 0.24175 0.89984 0.0
C2602 C 0.03278 0.26672 0.8991 0.0
C2603 C 0.02719 0.28603 0.90185 0.0
C2604 C 0.99922 0.25682 0.90055 0.0
C2605 C 0.00741 0.29012 0.90384 0.0
C2606 C 0.96432 0.2468 0.8991 0.0
C2607 C 0.97554 0.20833 0.89904 0.0
N2608 N 0.99416 0.27566 0.90309 0.0
N2609 N 0.98893 0.22269 0.89979 0.0
H2610 H 0.59494 0.01052 0.69803 0.0
H2611 H 0.59321 0.98392 0.81044 0.0
H2612 H 0.60094 0.05322 0.74304 0.0
H2613 H 0.60087 0.94173 0.76521 0.0
H2614 H 0.59307 0.00955 0.78606 0.0
H2615 H 0.59417 0.98518 0.72254 0.0
C2616 C 0.59592 0.01458 0.7131 0.0
C2617 C 0.59789 0.03403 0.71852 0.0
C2618 C 0.59476 0.99468 0.78147 0.0
C2619 C 0.59717 0.00504 0.7467 0.0
C2620 C 0.59467 0.98004 0.79536 0.0
C2621 C 0.59697 0.96066 0.7898 0.0
C2622 C 0.59697 0.9899 0.76187 0.0
C2623 C 0.59919 0.95649 0.77009 0.0
C2624 C 0.59563 9e-05 0.72708 0.0
C2625 C 0.5995 0.0384 0.73826 0.0
N2626 N 0.59907 0.97097 0.75683 0.0
N2627 N 0.59903 0.02402 0.75166 0.0
H2628 H 0.39414 0.55343 0.76016 0.0
H2629 H 0.39652 0.4405 0.73617 0.0
H2630 H 0.40694 0.50995 0.80295 0.0
H2631 H 0.40039 0.4848 0.69248 0.0
H2632 H 0.39744 0.4656 0.76116 0.0
H2633 H 0.39353 0.52827 0.73529 0.0
C2634 C 0.39679 0.53858 0.7643 0.0
C2635 C 0.40064 0.53376 0.78361 0.0
C2636 C 0.39817 0.4698 0.7461 0.0
C2637 C 0.39993 0.50492 0.75532 0.0
C2638 C 0.39755 0.45551 0.73187 0.0
C2639 C 0.3985 0.46059 0.71226 0.0
C2640 C 0.39948 0.48933 0.74065 0.0
C2641 C 0.39993 0.48024 0.70743 0.0
C2642 C 0.39655 0.52425 0.75012 0.0
C2643 C 0.40416 0.51431 0.78819 0.0
N2644 N 0.40028 0.4939 0.72153 0.0
N2645 N 0.40361 0.50057 0.77416 0.0
H2646 H 0.76028 0.60753 0.93879 0.0
H2647 H 0.73948 0.60123 0.05252 0.0
H2648 H 0.80507 0.60124 0.98168 0.0
H2649 H 0.69493 0.59695 0.00914 0.0
H2650 H 0.76375 0.60329 0.02682 0.0
H2651 H 0.73599 0.60576 0.96449 0.0
C2652 C 0.76499 0.60582 0.9536 0.0
C2653 C 0.78471 0.60441 0.95808 0.0
C2654 C 0.74866 0.60183 0.02294 0.0
C2655 C 0.75707 0.60237 0.98755 0.0
C2656 C 0.73482 0.60074 0.0376 0.0
C2657 C 0.71518 0.5988 0.03297 0.0
C2658 C 0.74279 0.60116 0.0035 0.0
C2659 C 0.70993 0.59811 0.01338 0.0
C2660 C 0.75114 0.60471 0.96826 0.0
C2661 C 0.79003 0.60206 0.97753 0.0
N2662 N 0.72364 0.59935 0.99937 0.0
N2663 N 0.7763 0.60116 0.99154 0.0
H2664 H 0.69346 0.40413 0.48994 0.0
H2665 H 0.80627 0.39364 0.51316 0.0
H2666 H 0.73731 0.39524 0.44648 0.0
H2667 H 0.76254 0.39808 0.55745 0.0
H2668 H 0.78121 0.3958 0.48859 0.0
H2669 H 0.71851 0.40363 0.51483 0.0
C2670 C 0.70837 0.40226 0.4856 0.0
C2671 C 0.71329 0.39974 0.46606 0.0
C2672 C 0.77706 0.39634 0.50367 0.0
C2673 C 0.74203 0.39894 0.49453 0.0
C2674 C 0.79141 0.39525 0.51775 0.0
C2675 C 0.78655 0.39579 0.53746 0.0
C2676 C 0.75762 0.39802 0.50924 0.0
C2677 C 0.76694 0.39746 0.54246 0.0
C2678 C 0.72266 0.40183 0.49985 0.0
C2679 C 0.73283 0.39703 0.46135 0.0
N2680 N 0.75319 0.39855 0.52844 0.0
N2681 N 0.74647 0.39671 0.47547 0.0
H2682 H 0.27587 0.12718 0.46156 0.0
H2683 H 0.20122 0.0729 0.53122 0.0
H2684 H 0.27253 0.06514 0.46635 0.0
H2685 H 0.21738 0.1326 0.53881 0.0
H2686 H 0.2245 0.07034 0.50466 0.0
H2687 H 0.25142 0.13009 0.48709 0.0
C2688 C 0.26982 0.11419 0.46786 0.0
C2689 C 0.27618 0.09589 0.46189 0.0
C2690 C 0.22299 0.08399 0.51218 0.0
C2691 C 0.24838 0.09907 0.49105 0.0
C2692 C 0.20967 0.08546 0.52725 0.0
C2693 C 0.20748 0.10294 0.53727 0.0
C2694 C 0.23402 0.10021 0.5069 0.0
C2695 C 0.21885 0.11878 0.53165 0.0
C2696 C 0.25601 0.11584 0.48251 0.0
C2697 C 0.26811 0.0795 0.47069 0.0
N2698 N 0.23158 0.11707 0.51677 0.0
N2699 N 0.25458 0.08147 0.48479 0.0
H2700 H 0.48701 0.80701 0.89527 0.0
H2701 H 0.51253 0.69471 0.90546 0.0
H2702 H 0.4439 0.76195 0.89573 0.0
H2703 H 0.55524 0.7388 0.89446 0.0
H2704 H 0.48731 0.71939 0.90474 0.0
H2705 H 0.51224 0.78249 0.89774 0.0
C2706 C 0.48283 0.79196 0.89608 0.0
C2707 C 0.46329 0.78652 0.89538 0.0
C2708 C 0.5022 0.72369 0.90253 0.0
C2709 C 0.49217 0.75832 0.89801 0.0
C2710 C 0.51664 0.70962 0.9031 0.0
C2711 C 0.53605 0.71472 0.90009 0.0
C2712 C 0.50719 0.74305 0.89905 0.0
C2713 C 0.54045 0.73423 0.89671 0.0
C2714 C 0.49727 0.77795 0.89734 0.0
C2715 C 0.45878 0.76675 0.89609 0.0
N2716 N 0.52614 0.74769 0.89632 0.0
N2717 N 0.47311 0.75337 0.89742 0.0
H2718 H 0.44043 0.23872 0.5985 0.0
H2719 H 0.55381 0.26121 0.59676 0.0
H2720 H 0.4833 0.19581 0.58418 0.0
H2721 H 0.50989 0.3054 0.59882 0.0
H2722 H 0.52842 0.2367 0.59359 0.0
H2723 H 0.46591 0.26316 0.60006 0.0
C2724 C 0.45522 0.23446 0.59567 0.0
C2725 C 0.45976 0.21522 0.5912 0.0
C2726 C 0.52436 0.25178 0.59463 0.0
C2727 C 0.48903 0.24308 0.59298 0.0
C2728 C 0.53884 0.26574 0.59654 0.0
C2729 C 0.53397 0.28538 0.59799 0.0
C2730 C 0.50487 0.25748 0.59438 0.0
C2731 C 0.51433 0.29048 0.59747 0.0
C2732 C 0.46975 0.24842 0.59647 0.0
C2733 C 0.47915 0.21051 0.58745 0.0
N2734 N 0.50052 0.27662 0.59581 0.0
N2735 N 0.4931 0.22432 0.58855 0.0
H2736 H 0.90729 0.48593 0.81018 0.0
H2737 H 0.9078 0.50886 0.69723 0.0
H2738 H 0.89508 0.44306 0.76664 0.0
H2739 H 0.89953 0.5532 0.74023 0.0
H2740 H 0.90717 0.48442 0.72271 0.0
H2741 H 0.90843 0.51077 0.78491 0.0
C2742 C 0.90499 0.48176 0.79528 0.0
C2743 C 0.90113 0.46245 0.79043 0.0
C2744 C 0.90549 0.4995 0.72659 0.0
C2745 C 0.9024 0.49066 0.76157 0.0
C2746 C 0.90601 0.51345 0.71208 0.0
C2747 C 0.9038 0.53307 0.71668 0.0
C2748 C 0.90299 0.5052 0.74589 0.0
C2749 C 0.90117 0.5382 0.73612 0.0
C2750 C 0.90549 0.49592 0.78092 0.0
C2751 C 0.89796 0.45781 0.77096 0.0
N2752 N 0.90095 0.52435 0.75007 0.0
N2753 N 0.89877 0.4718 0.75721 0.0
H2754 H 0.12478 0.04365 0.78009 0.0
H2755 H 0.05956 0.97028 0.71916 0.0
H2756 H 0.06324 0.03766 0.78805 0.0
H2757 H 0.12173 0.96654 0.72144 0.0
H2758 H 0.06059 0.9966 0.74271 0.0
H2759 H 0.12397 0.01715 0.75663 0.0
C2760 C 0.11108 0.03686 0.77677 0.0
C2761 C 0.09403 0.04287 0.78598 0.0
C2762 C 0.07401 0.98998 0.73814 0.0
C2763 C 0.093 0.01251 0.75931 0.0
C2764 C 0.07342 0.97502 0.72465 0.0
C2765 C 0.09057 0.96622 0.71838 0.0
C2766 C 0.09191 0.99636 0.74527 0.0
C2767 C 0.10816 0.97278 0.72608 0.0
C2768 C 0.11065 0.02164 0.76352 0.0
C2769 C 0.07672 0.03336 0.78139 0.0
N2770 N 0.10839 0.98755 0.73904 0.0
N2771 N 0.07664 0.0187 0.76833 0.0
H2772 H 0.7628 0.10258 0.05567 0.0
H2773 H 0.73407 0.10496 0.94378 0.0
H2774 H 0.80435 0.09616 0.00963 0.0
H2775 H 0.69265 0.09593 0.9895 0.0
H2776 H 0.76009 0.10455 0.96778 0.0
H2777 H 0.7368 0.10292 0.03166 0.0
C2778 C 0.76643 0.10126 0.04051 0.0
C2779 C 0.78573 0.09924 0.03463 0.0
C2780 C 0.7453 0.10258 0.97254 0.0
C2781 C 0.75615 0.09967 0.0071 0.0
C2782 C 0.73047 0.10292 0.95887 0.0
C2783 C 0.7112 0.10038 0.96466 0.0
C2784 C 0.7408 0.09993 0.99217 0.0
C2785 C 0.70732 0.09765 0.98439 0.0
C2786 C 0.75161 0.10136 0.02683 0.0
C2787 C 0.78965 0.09745 0.0148 0.0
N2788 N 0.72198 0.09758 0.99745 0.0
N2789 N 0.775 0.0978 0.00174 0.0
H2790 H 0.56045 0.2338 0.0999 0.0
H2791 H 0.44756 0.2588 0.10304 0.0
H2792 H 0.51583 0.19026 0.10147 0.0
H2793 H 0.49215 0.30106 0.09224 0.0
H2794 H 0.47229 0.23348 0.10367 0.0
H2795 H 0.53554 0.25876 0.09809 0.0
C2796 C 0.54541 0.2295 0.09986 0.0
C2797 C 0.54021 0.20993 0.10084 0.0
C2798 C 0.47663 0.2483 0.10108 0.0
C2799 C 0.51159 0.2384 0.09876 0.0
C2800 C 0.46254 0.26275 0.10083 0.0
C2801 C 0.46778 0.28207 0.09752 0.0
C2802 C 0.49613 0.25323 0.09817 0.0
C2803 C 0.4874 0.28635 0.09455 0.0
C2804 C 0.53118 0.24374 0.09873 0.0
C2805 C 0.52048 0.20516 0.10051 0.0
N2806 N 0.50084 0.27207 0.09503 0.0
N2807 N 0.50688 0.2193 0.0996 0.0
H2808 H 0.55875 0.75909 0.39767 0.0
H2809 H 0.44598 0.73379 0.3971 0.0
H2810 H 0.51387 0.80173 0.40491 0.0
H2811 H 0.49024 0.69065 0.40513 0.0
H2812 H 0.47087 0.75888 0.39727 0.0
H2813 H 0.53403 0.73366 0.39773 0.0
C2814 C 0.5437 0.76308 0.39925 0.0
C2815 C 0.53835 0.78253 0.40139 0.0
C2816 C 0.47515 0.74393 0.39906 0.0
C2817 C 0.51005 0.75362 0.40142 0.0
C2818 C 0.46095 0.72961 0.39886 0.0
C2819 C 0.46605 0.71012 0.40114 0.0
C2820 C 0.49464 0.73873 0.40135 0.0
C2821 C 0.48567 0.70552 0.40357 0.0
C2822 C 0.52962 0.74859 0.39939 0.0
C2823 C 0.51866 0.78692 0.40352 0.0
N2824 N 0.49927 0.71971 0.40351 0.0
N2825 N 0.50523 0.7726 0.40339 0.0
H2826 H 0.10262 0.55575 0.23946 0.0
H2827 H 0.09741 0.44327 0.2652 0.0
H2828 H 0.09374 0.51106 0.1969 0.0
H2829 H 0.09222 0.48808 0.30822 0.0
H2830 H 0.09796 0.468 0.23997 0.0
H2831 H 0.10083 0.53124 0.26498 0.0
C2832 C 0.10032 0.54079 0.23549 0.0
C2833 C 0.09828 0.53544 0.21603 0.0
C2834 C 0.0966 0.47244 0.25492 0.0
C2835 C 0.09621 0.50737 0.24509 0.0
C2836 C 0.09638 0.45833 0.26931 0.0
C2837 C 0.09476 0.46364 0.28881 0.0
C2838 C 0.09542 0.49204 0.26005 0.0
C2839 C 0.09327 0.48336 0.29335 0.0
C2840 C 0.09918 0.52684 0.25005 0.0
C2841 C 0.09514 0.51587 0.21171 0.0
N2842 N 0.09376 0.49687 0.27907 0.0
N2843 N 0.0943 0.50254 0.2261 0.0
H2844 H 0.90906 0.98784 0.19368 0.0
H2845 H 0.90275 0.01239 0.30656 0.0
H2846 H 0.90231 0.94468 0.23819 0.0
H2847 H 0.90246 0.05594 0.26191 0.0
H2848 H 0.90507 0.98744 0.28179 0.0
H2849 H 0.9091 0.01296 0.21851 0.0
C2850 C 0.90778 0.98362 0.20869 0.0
C2851 C 0.90571 0.9641 0.21387 0.0
C2852 C 0.90455 0.00245 0.27739 0.0
C2853 C 0.90554 0.99283 0.24237 0.0
C2854 C 0.90338 0.01675 0.29155 0.0
C2855 C 0.90245 0.03634 0.28633 0.0
C2856 C 0.90486 0.00773 0.25779 0.0
C2857 C 0.90295 0.04103 0.26659 0.0
C2858 C 0.90766 0.99799 0.22285 0.0
C2859 C 0.90375 0.95954 0.23354 0.0
N2860 N 0.90413 0.02683 0.25304 0.0
N2861 N 0.90373 0.97379 0.24706 0.0
H2862 H 0.24183 0.89849 0.93712 0.0
H2863 H 0.26751 0.90001 0.04982 0.0
H2864 H 0.19972 0.90972 0.98172 0.0
H2865 H 0.31066 0.90197 0.00484 0.0
H2866 H 0.24224 0.90142 0.02511 0.0
H2867 H 0.26717 0.89761 0.9618 0.0
C2868 C 0.23793 0.90076 0.95211 0.0
C2869 C 0.21866 0.90425 0.95737 0.0
C2870 C 0.25724 0.90162 0.02066 0.0
C2871 C 0.24751 0.90324 0.98567 0.0
C2872 C 0.27165 0.90071 0.03474 0.0
C2873 C 0.29121 0.90094 0.02938 0.0
C2874 C 0.26242 0.90256 0.00104 0.0
C2875 C 0.29578 0.90204 0.00963 0.0
C2876 C 0.25239 0.90035 0.96617 0.0
C2877 C 0.21442 0.90726 0.97699 0.0
N2878 N 0.2815 0.90271 0.99618 0.0
N2879 N 0.2287 0.90659 0.99044 0.0
H2880 H 0.11892 0.13146 0.43492 0.0
H2881 H 0.16371 0.19341 0.52151 0.0
H2882 H 0.12947 0.19267 0.42867 0.0
H2883 H 0.13411 0.13888 0.52801 0.0
H2884 H 0.15561 0.19302 0.48674 0.0
H2885 H 0.12961 0.1333 0.46827 0.0
C2886 C 0.12359 0.14532 0.44052 0.0
C2887 C 0.12311 0.16198 0.42901 0.0
C2888 C 0.15082 0.18127 0.4959 0.0
C2889 C 0.13535 0.1642 0.46746 0.0
C2890 C 0.15542 0.18148 0.51566 0.0
C2891 C 0.14925 0.16634 0.5277 0.0
C2892 C 0.14041 0.16559 0.48823 0.0
C2893 C 0.13874 0.15111 0.5194 0.0
C2894 C 0.12964 0.14637 0.45965 0.0
C2895 C 0.12951 0.17949 0.43711 0.0
N2896 N 0.13475 0.15111 0.50026 0.0
N2897 N 0.13532 0.18018 0.45593 0.0
H2898 H 0.87041 0.30613 0.43498 0.0
H2899 H 0.87079 0.36198 0.53583 0.0
H2900 H 0.88655 0.36595 0.44259 0.0
H2901 H 0.83889 0.30885 0.52829 0.0
H2902 H 0.8799 0.36108 0.50206 0.0
H2903 H 0.86092 0.30483 0.46922 0.0
C2904 C 0.87184 0.319 0.44378 0.0
C2905 C 0.87936 0.33617 0.43593 0.0
C2906 C 0.871 0.34951 0.50773 0.0
C2907 C 0.86881 0.33467 0.47494 0.0
C2908 C 0.86601 0.34984 0.52716 0.0
C2909 C 0.85427 0.33529 0.53505 0.0
C2910 C 0.86423 0.33455 0.49587 0.0
C2911 C 0.848 0.32033 0.52281 0.0
C2912 C 0.86644 0.31822 0.46328 0.0
C2913 C 0.88088 0.35239 0.44797 0.0
N2914 N 0.85309 0.32032 0.50376 0.0
N2915 N 0.87579 0.35118 0.46684 0.0
H2916 H 0.18973 0.84654 0.97723 0.0
H2917 H 0.1184 0.80151 0.0561 0.0
H2918 H 0.1375 0.81635 0.96151 0.0
H2919 H 0.15023 0.85449 0.06427 0.0
H2920 H 0.13216 0.79879 0.02339 0.0
H2921 H 0.18234 0.84081 0.01137 0.0
C2922 C 0.17702 0.83817 0.98096 0.0
C2923 C 0.16415 0.83192 0.96659 0.0
C2924 C 0.13631 0.81082 0.03252 0.0
C2925 C 0.1556 0.8255 0.00548 0.0
C2926 C 0.12856 0.81234 0.05112 0.0
C2927 C 0.13308 0.82836 0.0627 0.0
C2928 C 0.14898 0.82516 0.02577 0.0
C2929 C 0.14623 0.84206 0.05564 0.0
C2930 C 0.17274 0.83508 0.00041 0.0
C2931 C 0.14771 0.82145 0.97221 0.0
N2932 N 0.15372 0.84016 0.0376 0.0
N2933 N 0.14381 0.81866 0.99128 0.0
H2934 H 0.86082 0.69484 0.96065 0.0
H2935 H 0.8499 0.64779 0.06219 0.0
H2936 H 0.81035 0.66161 0.97606 0.0
H2937 H 0.88087 0.70151 0.0557 0.0
H2938 H 0.83508 0.65287 0.03053 0.0
H2939 H 0.86842 0.69846 0.99512 0.0
C2940 C 0.8511 0.68875 0.97132 0.0
C2941 C 0.83496 0.67791 0.96555 0.0
C2942 C 0.84486 0.66373 0.03615 0.0
C2943 C 0.84378 0.68154 0.00476 0.0
C2944 C 0.85337 0.66078 0.05415 0.0
C2945 C 0.86666 0.6742 0.06142 0.0
C2946 C 0.85011 0.67994 0.02512 0.0
C2947 C 0.87063 0.69085 0.05054 0.0
C2948 C 0.85542 0.69082 0.99094 0.0
C2949 C 0.82285 0.67022 0.9799 0.0
N2950 N 0.86268 0.69308 0.03269 0.0
N2951 N 0.82772 0.67184 0.99883 0.0
H2952 H 0.43298 0.12974 0.19478 0.0
H2953 H 0.53528 0.12444 0.14169 0.0
H2954 H 0.44215 0.10999 0.13629 0.0
H2955 H 0.52654 0.16159 0.19109 0.0
H2956 H 0.50164 0.11498 0.14315 0.0
H2957 H 0.46744 0.13865 0.19658 0.0
C2958 C 0.44217 0.12737 0.18233 0.0
C2959 C 0.43468 0.11909 0.16536 0.0
C2960 C 0.50704 0.12511 0.1538 0.0
C2961 C 0.47387 0.12889 0.16745 0.0
C2962 C 0.52641 0.13033 0.15316 0.0
C2963 C 0.5339 0.14373 0.16642 0.0
C2964 C 0.49483 0.13332 0.16774 0.0
C2965 C 0.52136 0.15126 0.18056 0.0
C2966 C 0.46177 0.13242 0.18338 0.0
C2967 C 0.44721 0.11632 0.14967 0.0
N2968 N 0.50237 0.14597 0.18085 0.0
N2969 N 0.46613 0.12109 0.15115 0.0
H2970 H 0.46793 0.36397 0.18558 0.0
H2971 H 0.57196 0.35021 0.14594 0.0
H2972 H 0.48461 0.31169 0.15602 0.0
H2973 H 0.56265 0.38244 0.19849 0.0
H2974 H 0.53979 0.33592 0.14942 0.0
H2975 H 0.5022 0.37118 0.19131 0.0
C2976 C 0.47881 0.35379 0.18077 0.0
C2977 C 0.47352 0.33724 0.17032 0.0
C2978 C 0.54491 0.34587 0.16037 0.0
C2979 C 0.5125 0.34561 0.17629 0.0
C2980 C 0.56318 0.35409 0.15832 0.0
C2981 C 0.56981 0.36758 0.17188 0.0
C2982 C 0.533 0.35161 0.17578 0.0
C2983 C 0.55799 0.37206 0.18774 0.0
C2984 C 0.49831 0.35788 0.18403 0.0
C2985 C 0.48811 0.32453 0.16427 0.0
N2986 N 0.53993 0.36439 0.18907 0.0
N2987 N 0.50698 0.32919 0.16697 0.0
H2988 H 0.52072 0.80898 0.34236 0.0
H2989 H 0.44196 0.88049 0.29771 0.0
H2990 H 0.53636 0.86036 0.31068 0.0
H2991 H 0.43447 0.84919 0.35111 0.0
H2992 H 0.47429 0.86608 0.29426 0.0
H2993 H 0.48658 0.81629 0.33674 0.0
C2994 C 0.51698 0.82144 0.33365 0.0
C2995 C 0.53132 0.83415 0.32701 0.0
C2996 C 0.46539 0.86218 0.30654 0.0
C2997 C 0.49243 0.84264 0.32076 0.0
C2998 C 0.447 0.87032 0.30849 0.0
C2999 C 0.43575 0.86615 0.32484 0.0
C3000 C 0.47223 0.8495 0.3208 0.0
C3001 C 0.44287 0.85295 0.33845 0.0
C3002 C 0.49752 0.82569 0.33063 0.0
C3003 C 0.52567 0.85029 0.3161 0.0
N3004 N 0.4607 0.8451 0.33614 0.0
N3005 N 0.5066 0.8542 0.31344 0.0
H3006 H 0.57107 0.62244 0.36879 0.0
H3007 H 0.4773 0.65759 0.31113 0.0
H3008 H 0.57117 0.62665 0.30653 0.0
H3009 H 0.47752 0.63517 0.36934 0.0
H3010 H 0.51229 0.65081 0.30896 0.0
H3011 H 0.5375 0.63253 0.36919 0.0
C3012 C 0.56405 0.6256 0.35516 0.0
C3013 C 0.5739 0.62347 0.33758 0.0
C3014 C 0.50455 0.64731 0.32211 0.0
C3015 C 0.53516 0.63495 0.33793 0.0
C3016 C 0.48467 0.65115 0.32335 0.0
C3017 C 0.47445 0.64658 0.3403 0.0
C3018 C 0.51418 0.63928 0.3381 0.0
C3019 C 0.48467 0.63847 0.35581 0.0
C3020 C 0.54481 0.63131 0.3554 0.0
C3021 C 0.56405 0.62801 0.3204 0.0
N3022 N 0.50389 0.63515 0.35434 0.0
N3023 N 0.54511 0.63344 0.32097 0.0
H3024 H 0.18902 0.54068 0.13045 0.0
H3025 H 0.18754 0.42732 0.15261 0.0
H3026 H 0.1701 0.51766 0.18528 0.0
H3027 H 0.1759 0.45303 0.09709 0.0
H3028 H 0.19285 0.45996 0.1661 0.0
H3029 H 0.19694 0.50791 0.11988 0.0
C3030 C 0.18694 0.52879 0.14043 0.0
C3031 C 0.17842 0.53187 0.15859 0.0
C3032 C 0.18952 0.45833 0.15089 0.0
C3033 C 0.18759 0.49444 0.14662 0.0
C3034 C 0.18655 0.43982 0.14323 0.0
C3035 C 0.18113 0.43772 0.12383 0.0
C3036 C 0.18752 0.47456 0.13884 0.0
C3037 C 0.17987 0.4542 0.11219 0.0
C3038 C 0.19146 0.51013 0.13439 0.0
C3039 C 0.17652 0.51597 0.17111 0.0
N3040 N 0.18302 0.47195 0.11987 0.0
N3041 N 0.18074 0.49784 0.16477 0.0
H3042 H 0.12735 0.47419 0.36863 0.0
H3043 H 0.1912 0.57013 0.37291 0.0
H3044 H 0.18374 0.47678 0.34203 0.0
H3045 H 0.12993 0.56738 0.38454 0.0
H3046 H 0.19031 0.53599 0.36292 0.0
H3047 H 0.12987 0.50812 0.37683 0.0
C3048 C 0.14046 0.48185 0.36477 0.0
C3049 C 0.15552 0.47252 0.35492 0.0
C3050 C 0.17709 0.54298 0.36754 0.0
C3051 C 0.15829 0.51183 0.3639 0.0
C3052 C 0.17757 0.56242 0.37323 0.0
C3053 C 0.16063 0.57158 0.3797 0.0
C3054 C 0.15959 0.53272 0.36853 0.0
C3055 C 0.14338 0.56095 0.37979 0.0
C3056 C 0.14178 0.50136 0.36926 0.0
C3057 C 0.17185 0.48343 0.34973 0.0
N3058 N 0.14336 0.54212 0.37443 0.0
N3059 N 0.17287 0.50257 0.35437 0.0
H3060 H 0.86593 0.93834 0.38622 0.0
H3061 H 0.81028 0.0229 0.33149 0.0
H3062 H 0.80621 0.93136 0.36946 0.0
H3063 H 0.85999 0.03088 0.36834 0.0
H3064 H 0.80898 0.98871 0.3416 0.0
H3065 H 0.86489 0.97158 0.37519 0.0
C3066 C 0.85257 0.94377 0.38012 0.0
C3067 C 0.83608 0.93206 0.37889 0.0
C3068 C 0.81997 0.99811 0.34758 0.0
C3069 C 0.83478 0.97039 0.36625 0.0
C3070 C 0.82073 0.01754 0.34184 0.0
C3071 C 0.83509 0.02983 0.34928 0.0
C3072 C 0.83394 0.99098 0.36048 0.0
C3073 C 0.84837 0.02214 0.36254 0.0
C3074 C 0.85196 0.96284 0.37391 0.0
C3075 C 0.81922 0.93996 0.37075 0.0
N3076 N 0.84753 0.00326 0.36757 0.0
N3077 N 0.81897 0.95872 0.36471 0.0
H3078 H 0.34623 0.47937 0.68432 0.0
H3079 H 0.30524 0.56234 0.61551 0.0
H3080 H 0.31222 0.46667 0.63364 0.0
H3081 H 0.3601 0.566 0.64493 0.0
H3082 H 0.30073 0.52971 0.6288 0.0
H3083 H 0.34386 0.51387 0.67688 0.0
C3084 C 0.33775 0.4839 0.67196 0.0
C3085 C 0.32936 0.47022 0.65956 0.0
C3086 C 0.31361 0.53781 0.6325 0.0
C3087 C 0.3268 0.50952 0.65093 0.0
C3088 C 0.31617 0.55639 0.62502 0.0
C3089 C 0.33315 0.56673 0.62904 0.0
C3090 C 0.32793 0.5298 0.64439 0.0
C3091 C 0.3469 0.55839 0.64134 0.0
C3092 C 0.33659 0.50354 0.66763 0.0
C3093 C 0.3189 0.47683 0.64351 0.0
N3094 N 0.34399 0.54038 0.6486 0.0
N3095 N 0.31797 0.49607 0.63958 0.0
H3096 H 0.86934 0.86485 0.47307 0.0
H3097 H 0.86977 0.80425 0.57094 0.0
H3098 H 0.83586 0.81246 0.47856 0.0
H3099 H 0.88478 0.86467 0.56643 0.0
H3100 H 0.85962 0.80475 0.53685 0.0
H3101 H 0.8785 0.86229 0.50675 0.0
C3102 C 0.86418 0.85256 0.48129 0.0
C3103 C 0.85203 0.83867 0.47287 0.0
C3104 C 0.86504 0.81787 0.54345 0.0
C3105 C 0.86211 0.83596 0.51189 0.0
C3106 C 0.87083 0.81761 0.56284 0.0
C3107 C 0.87822 0.83443 0.5715 0.0
C3108 C 0.86693 0.83499 0.53271 0.0
C3109 C 0.87924 0.85134 0.56039 0.0
C3110 C 0.86921 0.85126 0.50065 0.0
C3111 C 0.8453 0.82343 0.4845 0.0
N3112 N 0.8738 0.85113 0.54159 0.0
N3113 N 0.85049 0.82242 0.50349 0.0
H3114 H 0.16573 0.6946 0.4769 0.0
H3115 H 0.12808 0.63568 0.56905 0.0
H3116 H 0.14365 0.63631 0.47594 0.0
H3117 H 0.13119 0.69801 0.56963 0.0
H3118 H 0.13983 0.63566 0.53602 0.0
H3119 H 0.15834 0.69623 0.51186 0.0
C3120 C 0.15931 0.68224 0.48404 0.0
C3121 C 0.1549 0.66545 0.47355 0.0
C3122 C 0.13801 0.64939 0.54333 0.0
C3123 C 0.14693 0.667 0.51314 0.0
C3124 C 0.13132 0.64941 0.56226 0.0
C3125 C 0.12838 0.66689 0.57205 0.0
C3126 C 0.14181 0.66697 0.53394 0.0
C3127 C 0.13313 0.68421 0.56252 0.0
C3128 C 0.15511 0.68316 0.50388 0.0
C3129 C 0.14684 0.6497 0.48341 0.0
N3130 N 0.1395 0.68384 0.54386 0.0
N3131 N 0.14315 0.65086 0.50258 0.0
H3132 H 0.84981 0.13972 0.92607 0.0
H3133 H 0.86593 0.18553 0.02779 0.0
H3134 H 0.87872 0.19471 0.93131 0.0
H3135 H 0.81473 0.15235 0.01499 0.0
H3136 H 0.87188 0.18904 0.99294 0.0
H3137 H 0.83768 0.14333 0.95913 0.0
C3138 C 0.85345 0.15262 0.93416 0.0
C3139 C 0.86532 0.1669 0.92608 0.0
C3140 C 0.85911 0.18139 0.9978 0.0
C3141 C 0.85182 0.17097 0.96387 0.0
C3142 C 0.85573 0.1794 0.01762 0.0
C3143 C 0.83979 0.16873 0.02419 0.0
C3144 C 0.84677 0.17215 0.9846 0.0
C3145 C 0.82706 0.16089 0.01049 0.0
C3146 C 0.84646 0.15473 0.95294 0.0
C3147 C 0.86955 0.18341 0.93708 0.0
N3148 N 0.83103 0.16243 0.99133 0.0
N3149 N 0.86309 0.18485 0.9556 0.0
H3150 H 0.09816 0.37075 0.94581 0.0
H3151 H 0.15928 0.31709 0.02742 0.0
H3152 H 0.12216 0.31384 0.93695 0.0
H3153 H 0.12269 0.36662 0.03754 0.0
H3154 H 0.14693 0.31539 0.99417 0.0
H3155 H 0.10871 0.36968 0.9793 0.0
C3156 C 0.10573 0.35803 0.95089 0.0
C3157 C 0.10929 0.34236 0.93855 0.0
C3158 C 0.14144 0.32643 0.00382 0.0
C3159 C 0.1214 0.34099 0.97706 0.0
C3160 C 0.14847 0.32741 0.02276 0.0
C3161 C 0.14195 0.34195 0.03535 0.0
C3162 C 0.12803 0.34026 0.99741 0.0
C3163 C 0.12792 0.35494 0.02855 0.0
C3164 C 0.11166 0.35737 0.97009 0.0
C3165 C 0.11911 0.32623 0.94601 0.0
N3166 N 0.12159 0.35387 0.01004 0.0
N3167 N 0.12491 0.32597 0.96481 0.0
H3168 H 0.47883 0.82989 0.80502 0.0
H3169 H 0.56523 0.87164 0.86906 0.0
H3170 H 0.4719 0.85875 0.85986 0.0
H3171 H 0.5712 0.86553 0.80722 0.0
H3172 H 0.53204 0.86041 0.86667 0.0
H3173 H 0.51372 0.83746 0.80606 0.0
C3174 C 0.48463 0.83793 0.81713 0.0
C3175 C 0.47247 0.84406 0.83218 0.0
C3176 C 0.54061 0.86144 0.85361 0.0
C3177 C 0.51201 0.85217 0.83373 0.0
C3178 C 0.55962 0.86778 0.85496 0.0
C3179 C 0.57095 0.86978 0.83828 0.0
C3180 C 0.53277 0.85697 0.83545 0.0
C3181 C 0.56289 0.86434 0.82043 0.0
C3182 C 0.50444 0.84219 0.81774 0.0
C3183 C 0.48066 0.85418 0.84772 0.0
N3184 N 0.54419 0.85827 0.81944 0.0
N3185 N 0.49987 0.85783 0.84811 0.0
H3186 H 0.51417 0.68535 0.84721 0.0
H3187 H 0.43469 0.61368 0.80403 0.0
H3188 H 0.52923 0.63544 0.81304 0.0
H3189 H 0.42848 0.64321 0.8586 0.0
H3190 H 0.46684 0.62828 0.80023 0.0
H3191 H 0.47995 0.67688 0.8439 0.0
C3192 C 0.51021 0.67295 0.83851 0.0
C3193 C 0.52447 0.66105 0.83036 0.0
C3194 C 0.45828 0.63171 0.81289 0.0
C3195 C 0.48553 0.65124 0.82671 0.0
C3196 C 0.43997 0.62347 0.81505 0.0
C3197 C 0.42907 0.62713 0.83176 0.0
C3198 C 0.46546 0.64398 0.82734 0.0
C3199 C 0.43656 0.63986 0.84562 0.0
C3200 C 0.49075 0.66803 0.8368 0.0
C3201 C 0.51862 0.64493 0.81955 0.0
N3202 N 0.45432 0.64783 0.84312 0.0
N3203 N 0.49954 0.64041 0.81811 0.0
H3204 H 0.56716 0.1268 0.69172 0.0
H3205 H 0.47755 0.14338 0.621 0.0
H3206 H 0.56902 0.11979 0.62974 0.0
H3207 H 0.47534 0.1591 0.68128 0.0
H3208 H 0.51146 0.13511 0.62455 0.0
H3209 H 0.53409 0.13937 0.68887 0.0
C3210 C 0.56069 0.12805 0.67752 0.0
C3211 C 0.5708 0.12207 0.66094 0.0
C3212 C 0.50368 0.14037 0.63707 0.0
C3213 C 0.53309 0.13631 0.65763 0.0
C3214 C 0.48425 0.14496 0.63507 0.0
C3215 C 0.47357 0.15157 0.65098 0.0
C3216 C 0.51264 0.14227 0.65516 0.0
C3217 C 0.48309 0.15388 0.66873 0.0
C3218 C 0.54184 0.13521 0.67592 0.0
C3219 C 0.56176 0.12405 0.64293 0.0
N3220 N 0.50212 0.14904 0.67042 0.0
N3221 N 0.54343 0.13087 0.64179 0.0
H3222 H 0.43367 0.37929 0.62891 0.0
H3223 H 0.51917 0.33039 0.68905 0.0
H3224 H 0.42713 0.36588 0.68953 0.0
H3225 H 0.52673 0.36268 0.63621 0.0
H3226 H 0.4846 0.33917 0.68885 0.0
H3227 H 0.46698 0.36827 0.63036 0.0
C3228 C 0.4392 0.3739 0.64253 0.0
C3229 C 0.42764 0.37368 0.65916 0.0
C3230 C 0.49396 0.34442 0.67744 0.0
C3231 C 0.46595 0.36109 0.66095 0.0
C3232 C 0.5136 0.33945 0.67757 0.0
C3233 C 0.52587 0.34612 0.66283 0.0
C3234 C 0.48662 0.35573 0.66224 0.0
C3235 C 0.51793 0.35762 0.64814 0.0
C3236 C 0.45828 0.36769 0.64337 0.0
C3237 C 0.43561 0.36641 0.67638 0.0
N3238 N 0.49886 0.36196 0.64819 0.0
N3239 N 0.45436 0.36044 0.67687 0.0
H3240 H 0.81119 0.47877 0.84269 0.0
H3241 H 0.87008 0.57395 0.87227 0.0
H3242 H 0.87071 0.47973 0.86125 0.0
H3243 H 0.8078 0.57352 0.86817 0.0
H3244 H 0.87059 0.53998 0.86333 0.0
H3245 H 0.80958 0.51401 0.84783 0.0
C3246 C 0.82384 0.48638 0.84792 0.0
C3247 C 0.84099 0.4763 0.85192 0.0
C3248 C 0.85678 0.54728 0.8643 0.0
C3249 C 0.8394 0.51633 0.85742 0.0
C3250 C 0.85649 0.56674 0.86934 0.0
C3251 C 0.83886 0.57655 0.87117 0.0
C3252 C 0.83933 0.53744 0.86105 0.0
C3253 C 0.82172 0.56646 0.86703 0.0
C3254 C 0.82293 0.50641 0.85083 0.0
C3255 C 0.85705 0.48681 0.85846 0.0
N3256 N 0.82236 0.54737 0.86227 0.0
N3257 N 0.85585 0.50619 0.86097 0.0
H3258 H 0.83541 0.4452 0.59413 0.0
H3259 H 0.83402 0.51334 0.68219 0.0
H3260 H 0.81373 0.42362 0.64842 0.0
H3261 H 0.82163 0.53446 0.62479 0.0
H3262 H 0.82582 0.48065 0.67148 0.0
H3263 H 0.83079 0.47822 0.60567 0.0
C3264 C 0.82952 0.44751 0.60846 0.0
C3265 C 0.82504 0.43184 0.62043 0.0
C3266 C 0.82444 0.49254 0.6614 0.0
C3267 C 0.82 0.46945 0.63386 0.0
C3268 C 0.82902 0.51125 0.66751 0.0
C3269 C 0.82892 0.52664 0.65424 0.0
C3270 C 0.82008 0.48925 0.64188 0.0
C3271 C 0.82246 0.52295 0.63536 0.0
C3272 C 0.82674 0.4663 0.61499 0.0
C3273 C 0.81733 0.43546 0.63883 0.0
N3274 N 0.81875 0.50458 0.62962 0.0
N3275 N 0.81542 0.45399 0.6452 0.0
H3276 H 0.11834 0.98612 0.65044 0.0
H3277 H 0.18916 0.0741 0.62736 0.0
H3278 H 0.1801 0.98098 0.65693 0.0
H3279 H 0.12701 0.0783 0.63105 0.0
H3280 H 0.1871 0.04066 0.63925 0.0
H3281 H 0.12202 0.02041 0.64401 0.0
C3282 C 0.13274 0.99229 0.6504 0.0
C3283 C 0.14898 0.98072 0.65385 0.0
C3284 C 0.17398 0.04902 0.63763 0.0
C3285 C 0.15339 0.02017 0.6466 0.0
C3286 C 0.17513 0.06809 0.63089 0.0
C3287 C 0.1582 0.0789 0.62798 0.0
C3288 C 0.15577 0.04084 0.64141 0.0
C3289 C 0.14043 0.07045 0.6328 0.0
C3290 C 0.13485 0.01192 0.64687 0.0
C3291 C 0.16727 0.98948 0.65415 0.0
N3292 N 0.13969 0.05194 0.63911 0.0
N3293 N 0.16904 0.00874 0.65033 0.0
H3294 H 0.64029 0.52996 0.37095 0.0
H3295 H 0.69379 0.42816 0.36925 0.0
H3296 H 0.68994 0.52067 0.33429 0.0
H3297 H 0.63416 0.43664 0.38563 0.0
H3298 H 0.69531 0.46222 0.35904 0.0
H3299 H 0.64113 0.49622 0.38031 0.0
C3300 C 0.65166 0.5209 0.36514 0.0
C3301 C 0.66524 0.52826 0.35199 0.0
C3302 C 0.68192 0.45649 0.36476 0.0
C3303 C 0.66591 0.4892 0.36231 0.0
C3304 C 0.68102 0.43711 0.37057 0.0
C3305 C 0.66384 0.42957 0.37838 0.0
C3306 C 0.66561 0.46834 0.36708 0.0
C3307 C 0.64772 0.44177 0.37975 0.0
C3308 C 0.65194 0.50151 0.37029 0.0
C3309 C 0.67923 0.51557 0.3445 0.0
N3310 N 0.64907 0.46054 0.37432 0.0
N3311 N 0.67925 0.49659 0.3498 0.0
H3312 H 0.62577 0.62769 0.92799 0.0
H3313 H 0.66121 0.68591 0.02161 0.0
H3314 H 0.62765 0.69005 0.92936 0.0
H3315 H 0.64497 0.62573 0.02067 0.0
H3316 H 0.65374 0.68793 0.98676 0.0
H3317 H 0.63829 0.62688 0.96078 0.0
C3318 C 0.62894 0.64124 0.93515 0.0
C3319 C 0.62542 0.65896 0.92601 0.0
C3320 C 0.65183 0.67433 0.99427 0.0
C3321 C 0.63966 0.65815 0.96379 0.0
C3322 C 0.65607 0.67319 0.01406 0.0
C3323 C 0.65327 0.65575 0.02401 0.0
C3324 C 0.64516 0.65779 0.98449 0.0
C3325 C 0.64684 0.63958 0.01363 0.0
C3326 C 0.63605 0.64078 0.95394 0.0
C3327 C 0.63004 0.67606 0.93596 0.0
N3328 N 0.64301 0.64101 0.9945 0.0
N3329 N 0.63679 0.67525 0.95444 0.0
H3330 H 0.33935 0.80906 0.01722 0.0
H3331 H 0.37616 0.86711 0.9242 0.0
H3332 H 0.36271 0.86688 0.01777 0.0
H3333 H 0.3713 0.80489 0.92381 0.0
H3334 H 0.3654 0.86746 0.9576 0.0
H3335 H 0.34605 0.80729 0.98217 0.0
C3336 C 0.34595 0.82128 0.00998 0.0
C3337 C 0.35087 0.83797 0.0204 0.0
C3338 C 0.36662 0.85369 0.95025 0.0
C3339 C 0.35806 0.83627 0.98066 0.0
C3340 C 0.37272 0.85348 0.93111 0.0
C3341 C 0.37488 0.83592 0.92126 0.0
C3342 C 0.36263 0.83621 0.95975 0.0
C3343 C 0.36995 0.81875 0.93095 0.0
C3344 C 0.34974 0.82028 0.99008 0.0
C3345 C 0.35914 0.85354 0.01039 0.0
N3346 N 0.36416 0.81929 0.94978 0.0
N3347 N 0.36242 0.85231 0.99115 0.0
H3348 H 0.62327 0.36578 0.57089 0.0
H3349 H 0.66161 0.30799 0.47822 0.0
H3350 H 0.62576 0.30343 0.56991 0.0
H3351 H 0.64389 0.36775 0.47877 0.0
H3352 H 0.6533 0.30577 0.51291 0.0
H3353 H 0.63625 0.36656 0.53833 0.0
C3354 C 0.62662 0.35221 0.56384 0.0
C3355 C 0.62317 0.3345 0.57304 0.0
C3356 C 0.65126 0.31931 0.50534 0.0
C3357 C 0.638 0.33528 0.5355 0.0
C3358 C 0.65599 0.32057 0.48566 0.0
C3359 C 0.65303 0.33796 0.47566 0.0
C3360 C 0.64395 0.33568 0.51494 0.0
C3361 C 0.64595 0.35395 0.48587 0.0
C3362 C 0.63403 0.35266 0.54519 0.0
C3363 C 0.62807 0.31739 0.56324 0.0
N3364 N 0.64166 0.35241 0.50488 0.0
N3365 N 0.63513 0.31818 0.54486 0.0
H3366 H 0.34701 0.14229 0.56923 0.0
H3367 H 0.30813 0.1554 0.4788 0.0
H3368 H 0.38042 0.1938 0.55843 0.0
H3369 H 0.36629 0.17418 0.46635 0.0
H3370 H 0.31376 0.16185 0.51314 0.0
H3371 H 0.33287 0.14509 0.53697 0.0
C3372 C 0.35106 0.15439 0.56016 0.0
C3373 C 0.36487 0.16781 0.56638 0.0
C3374 C 0.32516 0.16483 0.50283 0.0
C3375 C 0.3489 0.17109 0.52955 0.0
C3376 C 0.3219 0.16141 0.48324 0.0
C3377 C 0.33686 0.16411 0.4698 0.0
C3378 C 0.34349 0.17102 0.50894 0.0
C3379 C 0.35449 0.17172 0.47634 0.0
C3380 C 0.34287 0.1561 0.54184 0.0
C3381 C 0.36971 0.18323 0.55412 0.0
N3382 N 0.35739 0.17477 0.49552 0.0
N3383 N 0.36207 0.1842 0.53603 0.0
H3384 H 0.93324 0.6288 0.69177 0.0
H3385 H 0.03454 0.63157 0.63703 0.0
H3386 H 0.94208 0.61166 0.63241 0.0
H3387 H 0.02445 0.66656 0.6877 0.0
H3388 H 0.00116 0.62102 0.63792 0.0
H3389 H 0.9668 0.64058 0.69283 0.0
C3390 C 0.94216 0.62763 0.67896 0.0
C3391 C 0.93488 0.61915 0.66199 0.0
C3392 C 0.00618 0.63094 0.64894 0.0
C3393 C 0.97311 0.63229 0.66322 0.0
C3394 C 0.02537 0.63678 0.64861 0.0
C3395 C 0.03242 0.64976 0.66251 0.0
C3396 C 0.99374 0.63805 0.66327 0.0
C3397 C 0.0196 0.65648 0.67676 0.0
C3398 C 0.96126 0.63435 0.67959 0.0
C3399 C 0.94703 0.61802 0.64582 0.0
N3400 N 0.00081 0.65049 0.67684 0.0
N3401 N 0.96553 0.62437 0.6469 0.0
H3402 H 0.95782 0.87002 0.68812 0.0
H3403 H 0.07149 0.85222 0.68418 0.0
H3404 H 0.98102 0.81514 0.6694 0.0
H3405 H 0.04349 0.90356 0.66271 0.0
H3406 H 0.03935 0.83815 0.69109 0.0
H3407 H 0.99082 0.88195 0.6924 0.0
C3408 C 0.96978 0.86032 0.68532 0.0
C3409 C 0.96658 0.84172 0.67784 0.0
C3410 C 0.04039 0.85258 0.68511 0.0
C3411 C 0.00422 0.85517 0.68319 0.0
C3412 C 0.05857 0.86053 0.68114 0.0
C3413 C 0.0599 0.87886 0.67262 0.0
C3414 C 0.02372 0.86343 0.68113 0.0
C3415 C 0.04293 0.88923 0.66899 0.0
C3416 C 0.98856 0.86714 0.68782 0.0
C3417 C 0.9827 0.82961 0.67509 0.0
N3418 N 0.0255 0.8814 0.67334 0.0
N3419 N 0.00089 0.83666 0.67748 0.0
H3420 H 0.93052 0.38287 0.80664 0.0
H3421 H 0.01273 0.31258 0.84667 0.0
H3422 H 0.92559 0.34985 0.85931 0.0
H3423 H 0.02558 0.36518 0.81575 0.0
H3424 H 0.9782 0.31883 0.84234 0.0
H3425 H 0.96294 0.36926 0.80159 0.0
C3426 C 0.93611 0.37245 0.81691 0.0
C3427 C 0.92554 0.36759 0.83353 0.0
C3428 C 0.98861 0.32873 0.8361 0.0
C3429 C 0.96222 0.3519 0.8277 0.0
C3430 C 0.00829 0.32509 0.83837 0.0
C3431 C 0.02197 0.33844 0.83157 0.0
C3432 C 0.98262 0.34572 0.82682 0.0
C3433 C 0.01542 0.35462 0.82126 0.0
C3434 C 0.95456 0.36479 0.81405 0.0
C3435 C 0.93341 0.35413 0.84644 0.0
N3436 N 0.99615 0.35792 0.81932 0.0
N3437 N 0.95133 0.34677 0.84328 0.0
H3438 H 0.05993 0.12803 0.86848 0.0
H3439 H 0.97003 0.16657 0.8074 0.0
H3440 H 0.06392 0.13502 0.80658 0.0
H3441 H 0.96599 0.13768 0.86254 0.0
H3442 H 0.00511 0.15998 0.80711 0.0
H3443 H 0.02617 0.13752 0.8671 0.0
C3444 C 0.05375 0.13171 0.85457 0.0
C3445 C 0.06473 0.1305 0.83758 0.0
C3446 C 0.99641 0.15499 0.81914 0.0
C3447 C 0.02586 0.14132 0.83591 0.0
C3448 C 0.97648 0.15871 0.8193 0.0
C3449 C 0.96506 0.15234 0.83484 0.0
C3450 C 0.00487 0.14529 0.83485 0.0
C3451 C 0.97412 0.14243 0.85003 0.0
C3452 C 0.03441 0.13705 0.85379 0.0
C3453 C 0.05592 0.13565 0.82001 0.0
N3454 N 0.99343 0.13932 0.84968 0.0
N3455 N 0.0369 0.14076 0.81959 0.0
H3456 H 0.65939 0.01738 0.69708 0.0
H3457 H 0.70312 0.93871 0.62495 0.0
H3458 H 0.6912 0.03255 0.6456 0.0
H3459 H 0.65076 0.93119 0.65796 0.0
H3460 H 0.70756 0.97061 0.64002 0.0
H3461 H 0.66563 0.98326 0.6905 0.0
C3462 C 0.66825 0.01357 0.68474 0.0
C3463 C 0.67469 0.02778 0.67176 0.0
C3464 C 0.69535 0.96174 0.64422 0.0
C3465 C 0.68163 0.98882 0.66408 0.0
C3466 C 0.69286 0.94358 0.63574 0.0
C3467 C 0.67644 0.93253 0.64013 0.0
C3468 C 0.68152 0.96856 0.65741 0.0
C3469 C 0.66347 0.93945 0.65405 0.0
C3470 C 0.67164 0.9941 0.68092 0.0
C3471 C 0.68583 0.02198 0.65583 0.0
N3472 N 0.66624 0.95709 0.66215 0.0
N3473 N 0.68879 0.00288 0.65229 0.0
H3474 H 0.68575 0.07066 0.87381 0.0
H3475 H 0.62396 0.97508 0.85468 0.0
H3476 H 0.62372 0.06668 0.87946 0.0
H3477 H 0.68494 0.97811 0.84224 0.0
H3478 H 0.624 0.00932 0.8625 0.0
H3479 H 0.68624 0.03765 0.86081 0.0
C3480 C 0.67223 0.06293 0.87216 0.0
C3481 C 0.65467 0.07137 0.87791 0.0
C3482 C 0.63743 0.00264 0.85804 0.0
C3483 C 0.65517 0.03371 0.86316 0.0
C3484 C 0.63742 0.98305 0.85368 0.0
C3485 C 0.65455 0.97378 0.84819 0.0
C3486 C 0.65476 0.01315 0.85706 0.0
C3487 C 0.67149 0.9848 0.84662 0.0
C3488 C 0.67254 0.04411 0.86475 0.0
C3489 C 0.63762 0.06073 0.8754 0.0
N3490 N 0.67124 0.00395 0.85127 0.0
N3491 N 0.63832 0.04247 0.86835 0.0
H3492 H 0.33279 0.44525 0.90503 0.0
H3493 H 0.33094 0.51466 0.8174 0.0
H3494 H 0.31138 0.4244 0.85038 0.0
H3495 H 0.31968 0.53499 0.87533 0.0
H3496 H 0.32319 0.48179 0.82787 0.0
H3497 H 0.32854 0.47842 0.8938 0.0
C3498 C 0.32706 0.44775 0.89066 0.0
C3499 C 0.32253 0.43224 0.87851 0.0
C3500 C 0.32199 0.49355 0.83814 0.0
C3501 C 0.3179 0.47006 0.86545 0.0
C3502 C 0.32631 0.51237 0.83217 0.0
C3503 C 0.32635 0.52762 0.84561 0.0
C3504 C 0.31801 0.48998 0.8577 0.0
C3505 C 0.3204 0.52363 0.8646 0.0
C3506 C 0.32449 0.46664 0.88432 0.0
C3507 C 0.31501 0.43611 0.8601 0.0
N3508 N 0.31689 0.50515 0.87018 0.0
N3509 N 0.31328 0.45474 0.85391 0.0
H3510 H 0.8114 0.06791 0.12594 0.0
H3511 H 0.87601 0.97538 0.15049 0.0
H3512 H 0.87351 0.06527 0.12045 0.0
H3513 H 0.81443 0.97621 0.15987 0.0
H3514 H 0.87497 0.0093 0.14136 0.0
H3515 H 0.81171 0.03541 0.14021 0.0
C3516 C 0.8251 0.06058 0.12787 0.0
C3517 C 0.84245 0.06924 0.12183 0.0
C3518 C 0.86162 0.00222 0.14544 0.0
C3519 C 0.84288 0.0322 0.13806 0.0
C3520 C 0.86223 0.98284 0.1506 0.0
C3521 C 0.84523 0.97306 0.15561 0.0
C3522 C 0.84383 0.01197 0.14513 0.0
C3523 C 0.82779 0.98334 0.15592 0.0
C3524 C 0.82525 0.04205 0.136 0.0
C3525 C 0.85976 0.05913 0.12471 0.0
N3526 N 0.82748 0.0023 0.15051 0.0
N3527 N 0.8595 0.04116 0.13251 0.0
H3528 H 0.33406 0.31159 0.97489 0.0
H3529 H 0.39478 0.3659 0.05622 0.0
H3530 H 0.37258 0.35953 0.96415 0.0
H3531 H 0.37195 0.30854 0.06549 0.0
H3532 H 0.38405 0.36446 0.02282 0.0
H3533 H 0.3458 0.31036 0.00844 0.0
C3534 C 0.34515 0.32164 0.97949 0.0
C3535 C 0.35244 0.33558 0.96663 0.0
C3536 C 0.38139 0.35214 0.03211 0.0
C3537 C 0.36559 0.33447 0.00485 0.0
C3538 C 0.38741 0.353 0.05126 0.0
C3539 C 0.38429 0.3373 0.06367 0.0
C3540 C 0.37199 0.33552 0.02525 0.0
C3541 C 0.37469 0.32096 0.05637 0.0
C3542 C 0.35182 0.32093 0.99858 0.0
C3543 C 0.36677 0.34828 0.97335 0.0
N3544 N 0.3688 0.32049 0.03759 0.0
N3545 N 0.37272 0.34752 0.99199 0.0
H3546 H 0.61696 0.19699 0.06929 0.0
H3547 H 0.68339 0.15518 0.98476 0.0
H3548 H 0.64636 0.14212 0.07243 0.0
H3549 H 0.63124 0.18718 0.97291 0.0
H3550 H 0.67727 0.1587 0.01943 0.0
H3551 H 0.62928 0.20122 0.03617 0.0
C3552 C 0.6263 0.18603 0.06312 0.0
C3553 C 0.63056 0.1691 0.07342 0.0
C3554 C 0.66742 0.16531 0.00922 0.0
C3555 C 0.64485 0.17401 0.03603 0.0
C3556 C 0.67098 0.16349 0.98947 0.0
C3557 C 0.65777 0.17092 0.97601 0.0
C3558 C 0.65067 0.17483 0.01552 0.0
C3559 C 0.64171 0.18122 0.98289 0.0
C3560 C 0.63322 0.18843 0.04428 0.0
C3561 C 0.6426 0.15527 0.06483 0.0
N3562 N 0.63852 0.1828 0.00223 0.0
N3563 N 0.64935 0.15803 0.0466 0.0
H3564 H 0.38975 0.69262 0.43767 0.0
H3565 H 0.31713 0.65301 0.5181 0.0
H3566 H 0.35609 0.64055 0.43112 0.0
H3567 H 0.37133 0.67997 0.53301 0.0
H3568 H 0.3248 0.65736 0.48382 0.0
H3569 H 0.37666 0.69643 0.47056 0.0
C3570 C 0.37933 0.68222 0.44305 0.0
C3571 C 0.37407 0.66615 0.43187 0.0
C3572 C 0.33479 0.66269 0.49463 0.0
C3573 C 0.35894 0.6706 0.46897 0.0
C3574 C 0.33037 0.66039 0.51415 0.0
C3575 C 0.34365 0.66615 0.52834 0.0
C3576 C 0.35249 0.67101 0.4893 0.0
C3577 C 0.36078 0.67529 0.52245 0.0
C3578 C 0.37198 0.68436 0.46175 0.0
C3579 C 0.36064 0.65301 0.43943 0.0
N3580 N 0.36478 0.67738 0.50331 0.0
N3581 N 0.35352 0.65552 0.45754 0.0
H3582 H 0.62496 0.87326 0.43105 0.0
H3583 H 0.65614 0.81969 0.52888 0.0
H3584 H 0.62622 0.81108 0.43607 0.0
H3585 H 0.64946 0.88131 0.52217 0.0
H3586 H 0.64824 0.81559 0.49438 0.0
H3587 H 0.63725 0.87589 0.4638 0.0
C3588 C 0.62791 0.86012 0.43904 0.0
C3589 C 0.62438 0.84193 0.43088 0.0
C3590 C 0.64854 0.82998 0.50053 0.0
C3591 C 0.63839 0.84482 0.46866 0.0
C3592 C 0.65305 0.8323 0.52014 0.0
C3593 C 0.65305 0.85082 0.52843 0.0
C3594 C 0.64426 0.84633 0.48922 0.0
C3595 C 0.64912 0.86673 0.5165 0.0
C3596 C 0.63493 0.86162 0.4578 0.0
C3597 C 0.62868 0.8254 0.44187 0.0
N3598 N 0.64485 0.8641 0.49759 0.0
N3599 N 0.63533 0.82723 0.46032 0.0
H3600 H 0.06772 0.35299 0.35848 0.0
H3601 H 0.96467 0.36593 0.3161 0.0
H3602 H 0.05978 0.38537 0.30582 0.0
H3603 H 0.98121 0.31346 0.34538 0.0
H3604 H 0.999 0.37373 0.3115 0.0
H3605 H 0.03572 0.33859 0.3541 0.0
C3606 C 0.05926 0.35691 0.3459 0.0
C3607 C 0.06623 0.37044 0.33256 0.0
C3608 C 0.99507 0.36027 0.31847 0.0
C3609 C 0.02961 0.35433 0.32761 0.0
C3610 C 0.97555 0.35584 0.32108 0.0
C3611 C 0.97017 0.33905 0.33111 0.0
C3612 C 0.00921 0.34808 0.32644 0.0
C3613 C 0.98476 0.32647 0.33742 0.0
C3614 C 0.04109 0.34861 0.34334 0.0
C3615 C 0.05483 0.37495 0.31641 0.0
N3616 N 0.00364 0.33144 0.33535 0.0
N3617 N 0.03685 0.3672 0.31457 0.0
H3618 H 0.02734 0.13417 0.36401 0.0
H3619 H 0.92975 0.13009 0.30316 0.0
H3620 H 0.02297 0.16283 0.30878 0.0
H3621 H 0.93408 0.11918 0.36446 0.0
H3622 H 0.96376 0.14066 0.30315 0.0
H3623 H 0.99331 0.12616 0.36239 0.0
C3624 C 0.01924 0.13855 0.35134 0.0
C3625 C 0.02811 0.14888 0.33632 0.0
C3626 C 0.95712 0.13609 0.31657 0.0
C3627 C 0.9887 0.14008 0.33457 0.0
C3628 C 0.93776 0.13007 0.3166 0.0
C3629 C 0.92911 0.12359 0.33381 0.0
C3630 C 0.9678 0.1354 0.33383 0.0
C3631 C 0.94012 0.12389 0.35081 0.0
C3632 C -0.00031 0.13416 0.35054 0.0
C3633 C 0.01668 0.15471 0.32058 0.0
N3634 N 0.95886 0.12953 0.35033 0.0
N3635 N 0.9975 0.15012 0.32003 0.0
H3636 H 0.97345 0.6569 0.17921 0.0
H3637 H 0.07146 0.62336 0.12734 0.0
H3638 H 0.9806 0.64769 0.11796 0.0
H3639 H 0.06526 0.62364 0.18943 0.0
H3640 H 0.03907 0.63639 0.1243 0.0
H3641 H 0.0078 0.64847 0.18394 0.0
C3642 C 0.98226 0.65315 0.16681 0.0
C3643 C 0.97416 0.6526 0.14823 0.0
C3644 C 0.04472 0.63368 0.13864 0.0
C3645 C 0.01315 0.64325 0.15342 0.0
C3646 C 0.06328 0.62623 0.14039 0.0
C3647 C 0.071 0.62219 0.15866 0.0
C3648 C 0.03359 0.63707 0.15529 0.0
C3649 C 0.05978 0.62647 0.17505 0.0
C3650 C 0.00177 0.64834 0.1695 0.0
C3651 C 0.98615 0.64784 0.1326 0.0
N3652 N 0.04152 0.63354 0.17299 0.0
N3653 N 0.00495 0.64333 0.13556 0.0
H3654 H 0.02993 0.86066 0.12551 0.0
H3655 H 0.93741 0.87108 0.19327 0.0
H3656 H 0.02966 0.83722 0.1833 0.0
H3657 H 0.9372 0.87774 0.13121 0.0
H3658 H 0.97112 0.85979 0.1914 0.0
H3659 H 0.99611 0.86904 0.12894 0.0
C3660 C 0.02277 0.85751 0.13908 0.0
C3661 C 0.03271 0.84856 0.15429 0.0
C3662 C 0.96355 0.86359 0.17824 0.0
C3663 C 0.99359 0.85779 0.15821 0.0
C3664 C 0.94436 0.87001 0.17928 0.0
C3665 C 0.93455 0.87555 0.16238 0.0
C3666 C 0.97288 0.86289 0.16021 0.0
C3667 C 0.94419 0.87383 0.14464 0.0
C3668 C 0.00334 0.8621 0.14096 0.0
C3669 C 0.0225 0.84425 0.17131 0.0
N3670 N 0.9628 0.86782 0.14407 0.0
N3671 N 0.00343 0.84905 0.1729 0.0
H3672 H 0.31447 0.06563 0.35436 0.0
H3673 H 0.32803 0.95333 0.37574 0.0
H3674 H 0.34486 0.04299 0.40383 0.0
H3675 H 0.33498 0.97589 0.31793 0.0
H3676 H 0.32185 0.98612 0.38731 0.0
H3677 H 0.31089 0.03234 0.34193 0.0
C3678 C 0.3202 0.05363 0.36263 0.0
C3679 C 0.33018 0.0569 0.37997 0.0
C3680 C 0.32434 0.98375 0.37203 0.0
C3681 C 0.32556 0.01927 0.36636 0.0
C3682 C 0.32791 0.96509 0.3654 0.0
C3683 C 0.33256 0.96188 0.34591 0.0
C3684 C 0.3251 0.99928 0.35905 0.0
C3685 C 0.33156 0.97764 0.33309 0.0
C3686 C 0.31815 0.03478 0.35558 0.0
C3687 C 0.33733 0.04102 0.39025 0.0
N3688 N 0.3282 0.99577 0.33994 0.0
N3689 N 0.3348 0.02286 0.38334 0.0
H3690 H 0.364 0.03196 0.12402 0.0
H3691 H 0.31123 0.92948 0.1259 0.0
H3692 H 0.31526 0.02148 0.16162 0.0
H3693 H 0.36953 0.93933 0.10586 0.0
H3694 H 0.30963 0.96347 0.13634 0.0
H3695 H 0.36268 0.99865 0.11339 0.0
C3696 C 0.3527 0.02276 0.12977 0.0
C3697 C 0.33956 0.02967 0.14361 0.0
C3698 C 0.32275 0.95807 0.12972 0.0
C3699 C 0.3384 0.99101 0.13184 0.0
C3700 C 0.32369 0.93873 0.12378 0.0
C3701 C 0.34054 0.93158 0.11496 0.0
C3702 C 0.33867 0.97027 0.12654 0.0
C3703 C 0.35625 0.94415 0.11258 0.0
C3704 C 0.35215 0.00359 0.12388 0.0
C3705 C 0.32567 0.01675 0.15093 0.0
N3706 N 0.35487 0.96285 0.11821 0.0
N3707 N 0.32544 0.99797 0.14496 0.0
H3708 H 0.67495 0.45986 0.12389 0.0
H3709 H 0.68541 0.57259 0.14526 0.0
H3710 H 0.66589 0.48253 0.18135 0.0
H3711 H 0.65757 0.54894 0.09477 0.0
H3712 H 0.68953 0.53942 0.15792 0.0
H3713 H 0.68103 0.49269 0.11236 0.0
C3714 C 0.67458 0.47167 0.13416 0.0
C3715 C 0.66939 0.46846 0.15353 0.0
C3716 C 0.68274 0.54162 0.14398 0.0
C3717 C 0.67671 0.50592 0.14045 0.0
C3718 C 0.6804 0.5604 0.1368 0.0
C3719 C 0.67094 0.56332 0.11912 0.0
C3720 C 0.67614 0.52587 0.13301 0.0
C3721 C 0.66469 0.54721 0.10861 0.0
C3722 C 0.67809 0.49035 0.12757 0.0
C3723 C 0.66974 0.48429 0.16629 0.0
N3724 N 0.66747 0.52915 0.11567 0.0
N3725 N 0.67305 0.50243 0.15946 0.0
H3726 H 0.12974 0.93468 0.86844 0.0
H3727 H 0.18711 0.03073 0.83813 0.0
H3728 H 0.19205 0.9377 0.86908 0.0
H3729 H 0.12576 0.02705 0.84844 0.0
H3730 H 0.18979 0.99573 0.84478 0.0
H3731 H 0.12856 0.96746 0.85595 0.0
C3732 C 0.14322 0.94223 0.86585 0.0
C3733 C 0.16101 0.93352 0.87005 0.0
C3734 C 0.17577 0.00264 0.84549 0.0
C3735 C 0.15979 0.97134 0.85584 0.0
C3736 C 0.17426 0.02251 0.84169 0.0
C3737 C 0.15626 0.0317 0.84312 0.0
C3738 C 0.15909 0.99207 0.85041 0.0
C3739 C 0.13997 0.02053 0.8476 0.0
C3740 C 0.14255 0.961 0.85872 0.0
C3741 C 0.17802 0.94394 0.86614 0.0
N3742 N 0.14179 0.00138 0.85112 0.0
N3743 N 0.177 0.96243 0.85941 0.0
loop_
_geom_bond_atom_site_label_1
_geom_bond_atom_site_label_2
_geom_bond_distance
_geom_bond_site_symmetry_2
_ccdc_geom_bond_type
C0 C1 1.351 . S
C0 N3 1.368 . S
C0 H5 0.931 . S
C1 C0 1.351 . S
C1 N2 1.373 . S
C1 H29 0.930 . S
N2 C1 1.373 . S
N2 C4 1.340 . S
N3 C0 1.368 . S
N3 C4 1.321 . S
N3 Co6 2.135 . S
C4 N2 1.340 . S
C4 N3 1.321 . S
C4 H28 0.930 . S
H5 C0 0.931 . S
Co6 N3 2.135 . S
Co6 N9 2.121 . S
Co6 O14 2.055 . S
Co6 O17 2.039 . S
Co6 N20 2.140 . S
C7 O8 1.227 . S
C7 O17 1.265 . S
O8 C7 1.227 . S
N9 Co6 2.121 . S
N9 C11 1.375 . S
N9 C12 1.313 . S
C10 C11 1.338 . S
C10 N13 1.377 . S
C10 H30 0.930 . S
C11 N9 1.375 . S
C11 C10 1.338 . S
C11 H15 0.931 . S
C12 N9 1.313 . S
C12 N13 1.344 . S
C12 H16 0.930 . S
N13 C10 1.377 . S
N13 C12 1.344 . S
O14 Co6 2.055 . S
O14 C18 1.253 . S
H15 C11 0.931 . S
H16 C12 0.930 . S
O17 Co6 2.039 . S
O17 C7 1.265 . S
C18 O14 1.253 . S
C18 O19 1.227 . S
O19 C18 1.227 . S
N20 Co6 2.140 . S
N20 C23 1.346 . S
N20 C24 1.345 . S
C21 C22 1.387 . S
C21 C25 1.391 . S
C22 C21 1.387 . S
C22 C23 1.369 . S
C22 H31 0.929 . S
C23 N20 1.346 . S
C23 C22 1.369 . S
C23 H26 0.928 . S
C24 N20 1.345 . S
C24 C25 1.371 . S
C24 H27 0.931 . S
C25 C21 1.391 . S
C25 C24 1.371 . S
C25 H32 0.930 . S
H26 C23 0.928 . S
H27 C24 0.931 . S
H28 C4 0.930 . S
H29 C1 0.930 . S
H30 C10 0.930 . S
H31 C22 0.929 . S
H32 C25 0.930 . S
C33 C34 1.351 . S
C33 N36 1.368 . S
C33 H38 0.931 . S
C34 C33 1.351 . S
C34 N35 1.373 . S
C34 H62 0.930 . S
N35 C34 1.373 . S
N35 C37 1.340 . S
N36 C33 1.368 . S
N36 C37 1.321 . S
N36 Co39 2.135 . S
C37 N35 1.340 . S
C37 N36 1.321 . S
C37 H61 0.930 . S
H38 C33 0.931 . S
Co39 N36 2.135 . S
Co39 N42 2.121 . S
Co39 O47 2.055 . S
Co39 O50 2.039 . S
Co39 N53 2.140 . S
C40 O41 1.227 . S
C40 O50 1.265 . S
O41 C40 1.227 . S
N42 Co39 2.121 . S
N42 C44 1.375 . S
N42 C45 1.313 . S
C43 C44 1.338 . S
C43 N46 1.377 . S
C43 H63 0.930 . S
C44 N42 1.375 . S
C44 C43 1.338 . S
C44 H48 0.931 . S
C45 N42 1.313 . S
C45 N46 1.344 . S
C45 H49 0.930 . S
N46 C43 1.377 . S
N46 C45 1.344 . S
O47 Co39 2.055 . S
O47 C51 1.253 . S
H48 C44 0.931 . S
H49 C45 0.930 . S
O50 Co39 2.039 . S
O50 C40 1.265 . S
C51 O47 1.253 . S
C51 O52 1.227 . S
O52 C51 1.227 . S
N53 Co39 2.140 . S
N53 C56 1.346 . S
N53 C57 1.345 . S
C54 C55 1.387 . S
C54 C58 1.391 . S
C55 C54 1.387 . S
C55 C56 1.369 . S
C55 H64 0.929 . S
C56 N53 1.346 . S
C56 C55 1.369 . S
C56 H59 0.928 . S
C57 N53 1.345 . S
C57 C58 1.371 . S
C57 H60 0.931 . S
C58 C54 1.391 . S
C58 C57 1.371 . S
C58 H65 0.930 . S
H59 C56 0.928 . S
H60 C57 0.931 . S
H61 C37 0.930 . S
H62 C34 0.930 . S
H63 C43 0.930 . S
H64 C55 0.929 . S
H65 C58 0.930 . S
C66 C67 1.351 . S
C66 N69 1.368 . S
C66 H71 0.931 . S
C67 C66 1.351 . S
C67 N68 1.373 . S
C67 H95 0.930 . S
N68 C67 1.373 . S
N68 C70 1.340 . S
N69 C66 1.368 . S
N69 C70 1.321 . S
N69 Co72 2.135 . S
C70 N68 1.340 . S
C70 N69 1.321 . S
C70 H94 0.930 . S
H71 C66 0.931 . S
Co72 N69 2.135 . S
Co72 N75 2.121 . S
Co72 O80 2.055 . S
Co72 O83 2.039 . S
Co72 N86 2.140 . S
C73 O74 1.227 . S
C73 O83 1.265 . S
O74 C73 1.227 . S
N75 Co72 2.121 . S
N75 C77 1.375 . S
N75 C78 1.313 . S
C76 C77 1.338 . S
C76 N79 1.377 . S
C76 H96 0.930 . S
C77 N75 1.375 . S
C77 C76 1.338 . S
C77 H81 0.931 . S
C78 N75 1.313 . S
C78 N79 1.344 . S
C78 H82 0.930 . S
N79 C76 1.377 . S
N79 C78 1.344 . S
O80 Co72 2.055 . S
O80 C84 1.253 . S
H81 C77 0.931 . S
H82 C78 0.930 . S
O83 Co72 2.039 . S
O83 C73 1.265 . S
C84 O80 1.253 . S
C84 O85 1.227 . S
O85 C84 1.227 . S
N86 Co72 2.140 . S
N86 C89 1.346 . S
N86 C90 1.345 . S
C87 C88 1.387 . S
C87 C91 1.391 . S
C88 C87 1.387 . S
C88 C89 1.369 . S
C88 H97 0.929 . S
C89 N86 1.346 . S
C89 C88 1.369 . S
C89 H92 0.928 . S
C90 N86 1.345 . S
C90 C91 1.371 . S
C90 H93 0.931 . S
C91 C87 1.391 . S
C91 C90 1.371 . S
C91 H98 0.930 . S
H92 C89 0.928 . S
H93 C90 0.931 . S
H94 C70 0.930 . S
H95 C67 0.930 . S
H96 C76 0.930 . S
H97 C88 0.929 . S
H98 C91 0.930 . S
C99 C100 1.351 . S
C99 N102 1.368 . S
C99 H104 0.931 . S
C100 C99 1.351 . S
C100 N101 1.373 . S
C100 H128 0.930 . S
N101 C100 1.373 . S
N101 C103 1.340 . S
N102 C99 1.368 . S
N102 C103 1.321 . S
N102 Co105 2.135 . S
C103 N101 1.340 . S
C103 N102 1.321 . S
C103 H127 0.930 . S
H104 C99 0.931 . S
Co105 N102 2.135 . S
Co105 N108 2.121 . S
Co105 O113 2.055 . S
Co105 O116 2.039 . S
Co105 N119 2.140 . S
C106 O107 1.227 . S
C106 O116 1.265 . S
O107 C106 1.227 . S
N108 Co105 2.121 . S
N108 C110 1.375 . S
N108 C111 1.313 . S
C109 C110 1.338 . S
C109 N112 1.377 . S
C109 H129 0.930 . S
C110 N108 1.375 . S
C110 C109 1.338 . S
C110 H114 0.931 . S
C111 N108 1.313 . S
C111 N112 1.344 . S
C111 H115 0.930 . S
N112 C109 1.377 . S
N112 C111 1.344 . S
O113 Co105 2.055 . S
O113 C117 1.253 . S
H114 C110 0.931 . S
H115 C111 0.930 . S
O116 Co105 2.039 . S
O116 C106 1.265 . S
C117 O113 1.253 . S
C117 O118 1.227 . S
O118 C117 1.227 . S
N119 Co105 2.140 . S
N119 C122 1.346 . S
N119 C123 1.345 . S
C120 C121 1.387 . S
C120 C124 1.391 . S
C121 C120 1.387 . S
C121 C122 1.369 . S
C121 H130 0.929 . S
C122 N119 1.346 . S
C122 C121 1.369 . S
C122 H125 0.928 . S
C123 N119 1.345 . S
C123 C124 1.371 . S
C123 H126 0.931 . S
C124 C120 1.391 . S
C124 C123 1.371 . S
C124 H131 0.930 . S
H125 C122 0.928 . S
H126 C123 0.931 . S
H127 C103 0.930 . S
H128 C100 0.930 . S
H129 C109 0.930 . S
H130 C121 0.929 . S
H131 C124 0.930 . S
C132 C133 1.351 . S
C132 N135 1.368 . S
C132 H137 0.931 . S
C133 C132 1.351 . S
C133 N134 1.373 . S
C133 H161 0.930 . S
N134 C133 1.373 . S
N134 C136 1.340 . S
N135 C132 1.368 . S
N135 C136 1.321 . S
N135 Co138 2.135 . S
C136 N134 1.340 . S
C136 N135 1.321 . S
C136 H160 0.930 . S
H137 C132 0.931 . S
Co138 N135 2.135 . S
Co138 N141 2.121 . S
Co138 O146 2.055 . S
Co138 O149 2.039 . S
Co138 N152 2.140 . S
C139 O140 1.227 . S
C139 O149 1.265 . S
O140 C139 1.227 . S
N141 Co138 2.121 . S
N141 C143 1.375 . S
N141 C144 1.313 . S
C142 C143 1.338 . S
C142 N145 1.377 . S
C142 H162 0.930 . S
C143 N141 1.375 . S
C143 C142 1.338 . S
C143 H147 0.931 . S
C144 N141 1.313 . S
C144 N145 1.344 . S
C144 H148 0.930 . S
N145 C142 1.377 . S
N145 C144 1.344 . S
O146 Co138 2.055 . S
O146 C150 1.253 . S
H147 C143 0.931 . S
H148 C144 0.930 . S
O149 Co138 2.039 . S
O149 C139 1.265 . S
C150 O146 1.253 . S
C150 O151 1.227 . S
O151 C150 1.227 . S
N152 Co138 2.140 . S
N152 C155 1.346 . S
N152 C156 1.345 . S
C153 C154 1.387 . S
C153 C157 1.391 . S
C154 C153 1.387 . S
C154 C155 1.369 . S
C154 H163 0.929 . S
C155 N152 1.346 . S
C155 C154 1.369 . S
C155 H158 0.928 . S
C156 N152 1.345 . S
C156 C157 1.371 . S
C156 H159 0.931 . S
C157 C153 1.391 . S
C157 C156 1.371 . S
C157 H164 0.930 . S
H158 C155 0.928 . S
H159 C156 0.931 . S
H160 C136 0.930 . S
H161 C133 0.930 . S
H162 C142 0.930 . S
H163 C154 0.929 . S
H164 C157 0.930 . S
C165 C166 1.351 . S
C165 N168 1.368 . S
C165 H170 0.931 . S
C166 C165 1.351 . S
C166 N167 1.373 . S
C166 H194 0.930 . S
N167 C166 1.373 . S
N167 C169 1.340 . S
N168 C165 1.368 . S
N168 C169 1.321 . S
N168 Co171 2.135 . S
C169 N167 1.340 . S
C169 N168 1.321 . S
C169 H193 0.930 . S
H170 C165 0.931 . S
Co171 N168 2.135 . S
Co171 N174 2.121 . S
Co171 O179 2.055 . S
Co171 O182 2.039 . S
Co171 N185 2.140 . S
C172 O173 1.227 . S
C172 O182 1.265 . S
O173 C172 1.227 . S
N174 Co171 2.121 . S
N174 C176 1.375 . S
N174 C177 1.313 . S
C175 C176 1.338 . S
C175 N178 1.377 . S
C175 H195 0.930 . S
C176 N174 1.375 . S
C176 C175 1.338 . S
C176 H180 0.931 . S
C177 N174 1.313 . S
C177 N178 1.344 . S
C177 H181 0.930 . S
N178 C175 1.377 . S
N178 C177 1.344 . S
O179 Co171 2.055 . S
O179 C183 1.253 . S
H180 C176 0.931 . S
H181 C177 0.930 . S
O182 Co171 2.039 . S
O182 C172 1.265 . S
C183 O179 1.253 . S
C183 O184 1.227 . S
O184 C183 1.227 . S
N185 Co171 2.140 . S
N185 C188 1.346 . S
N185 C189 1.345 . S
C186 C187 1.387 . S
C186 C190 1.391 . S
C187 C186 1.387 . S
C187 C188 1.369 . S
C187 H196 0.929 . S
C188 N185 1.346 . S
C188 C187 1.369 . S
C188 H191 0.928 . S
C189 N185 1.345 . S
C189 C190 1.371 . S
C189 H192 0.931 . S
C190 C186 1.391 . S
C190 C189 1.371 . S
C190 H197 0.930 . S
H191 C188 0.928 . S
H192 C189 0.931 . S
H193 C169 0.930 . S
H194 C166 0.930 . S
H195 C175 0.930 . S
H196 C187 0.929 . S
H197 C190 0.930 . S
C198 C199 1.351 . S
C198 N201 1.368 . S
C198 H203 0.931 . S
C199 C198 1.351 . S
C199 N200 1.373 . S
C199 H227 0.930 . S
N200 C199 1.373 . S
N200 C202 1.340 . S
N201 C198 1.368 . S
N201 C202 1.321 . S
N201 Co204 2.135 . S
C202 N200 1.340 . S
C202 N201 1.321 . S
C202 H226 0.930 . S
H203 C198 0.931 . S
Co204 N201 2.135 . S
Co204 N207 2.121 . S
Co204 O212 2.055 . S
Co204 O215 2.039 . S
Co204 N218 2.140 . S
C205 O206 1.227 . S
C205 O215 1.265 . S
O206 C205 1.227 . S
N207 Co204 2.121 . S
N207 C209 1.375 . S
N207 C210 1.313 . S
C208 C209 1.338 . S
C208 N211 1.377 . S
C208 H228 0.930 . S
C209 N207 1.375 . S
C209 C208 1.338 . S
C209 H213 0.931 . S
C210 N207 1.313 . S
C210 N211 1.344 . S
C210 H214 0.930 . S
N211 C208 1.377 . S
N211 C210 1.344 . S
O212 Co204 2.055 . S
O212 C216 1.253 . S
H213 C209 0.931 . S
H214 C210 0.930 . S
O215 Co204 2.039 . S
O215 C205 1.265 . S
C216 O212 1.253 . S
C216 O217 1.227 . S
O217 C216 1.227 . S
N218 Co204 2.140 . S
N218 C221 1.346 . S
N218 C222 1.345 . S
C219 C220 1.387 . S
C219 C223 1.391 . S
C220 C219 1.387 . S
C220 C221 1.369 . S
C220 H229 0.929 . S
C221 N218 1.346 . S
C221 C220 1.369 . S
C221 H224 0.928 . S
C222 N218 1.345 . S
C222 C223 1.371 . S
C222 H225 0.931 . S
C223 C219 1.391 . S
C223 C222 1.371 . S
C223 H230 0.930 . S
H224 C221 0.928 . S
H225 C222 0.931 . S
H226 C202 0.930 . S
H227 C199 0.930 . S
H228 C208 0.930 . S
H229 C220 0.929 . S
H230 C223 0.930 . S
C231 C232 1.351 . S
C231 N234 1.368 . S
C231 H236 0.931 . S
C232 C231 1.351 . S
C232 N233 1.373 . S
C232 H260 0.930 . S
N233 C232 1.373 . S
N233 C235 1.340 . S
N234 C231 1.368 . S
N234 C235 1.321 . S
N234 Co237 2.135 . S
C235 N233 1.340 . S
C235 N234 1.321 . S
C235 H259 0.930 . S
H236 C231 0.931 . S
Co237 N234 2.135 . S
Co237 N240 2.121 . S
Co237 O245 2.055 . S
Co237 O248 2.039 . S
Co237 N251 2.140 . S
C238 O239 1.227 . S
C238 O248 1.265 . S
O239 C238 1.227 . S
N240 Co237 2.121 . S
N240 C242 1.375 . S
N240 C243 1.313 . S
C241 C242 1.338 . S
C241 N244 1.377 . S
C241 H261 0.930 . S
C242 N240 1.375 . S
C242 C241 1.338 . S
C242 H246 0.931 . S
C243 N240 1.313 . S
C243 N244 1.344 . S
C243 H247 0.930 . S
N244 C241 1.377 . S
N244 C243 1.344 . S
O245 Co237 2.055 . S
O245 C249 1.253 . S
H246 C242 0.931 . S
H247 C243 0.930 . S
O248 Co237 2.039 . S
O248 C238 1.265 . S
C249 O245 1.253 . S
C249 O250 1.227 . S
O250 C249 1.227 . S
N251 Co237 2.140 . S
N251 C254 1.346 . S
N251 C255 1.345 . S
C252 C253 1.387 . S
C252 C256 1.391 . S
C253 C252 1.387 . S
C253 C254 1.369 . S
C253 H262 0.929 . S
C254 N251 1.346 . S
C254 C253 1.369 . S
C254 H257 0.928 . S
C255 N251 1.345 . S
C255 C256 1.371 . S
C255 H258 0.931 . S
C256 C252 1.391 . S
C256 C255 1.371 . S
C256 H263 0.930 . S
H257 C254 0.928 . S
H258 C255 0.931 . S
H259 C235 0.930 . S
H260 C232 0.930 . S
H261 C241 0.930 . S
H262 C253 0.929 . S
H263 C256 0.930 . S
C264 C265 1.351 . S
C264 N267 1.368 . S
C264 H269 0.931 . S
C265 C264 1.351 . S
C265 N266 1.373 . S
C265 H293 0.930 . S
N266 C265 1.373 . S
N266 C268 1.340 . S
N267 C264 1.368 . S
N267 C268 1.321 . S
N267 Co270 2.135 . S
C268 N266 1.340 . S
C268 N267 1.321 . S
C268 H292 0.930 . S
H269 C264 0.931 . S
Co270 N267 2.135 . S
Co270 N273 2.121 . S
Co270 O278 2.055 . S
Co270 O281 2.039 . S
Co270 N284 2.140 . S
C271 O272 1.227 . S
C271 O281 1.265 . S
O272 C271 1.227 . S
N273 Co270 2.121 . S
N273 C275 1.375 . S
N273 C276 1.313 . S
C274 C275 1.338 . S
C274 N277 1.377 . S
C274 H294 0.930 . S
C275 N273 1.375 . S
C275 C274 1.338 . S
C275 H279 0.931 . S
C276 N273 1.313 . S
C276 N277 1.344 . S
C276 H280 0.930 . S
N277 C274 1.377 . S
N277 C276 1.344 . S
O278 Co270 2.055 . S
O278 C282 1.253 . S
H279 C275 0.931 . S
H280 C276 0.930 . S
O281 Co270 2.039 . S
O281 C271 1.265 . S
C282 O278 1.253 . S
C282 O283 1.227 . S
O283 C282 1.227 . S
N284 Co270 2.140 . S
N284 C287 1.346 . S
N284 C288 1.345 . S
C285 C286 1.387 . S
C285 C289 1.391 . S
C286 C285 1.387 . S
C286 C287 1.369 . S
C286 H295 0.929 . S
C287 N284 1.346 . S
C287 C286 1.369 . S
C287 H290 0.928 . S
C288 N284 1.345 . S
C288 C289 1.371 . S
C288 H291 0.931 . S
C289 C285 1.391 . S
C289 C288 1.371 . S
C289 H296 0.930 . S
H290 C287 0.928 . S
H291 C288 0.931 . S
H292 C268 0.930 . S
H293 C265 0.930 . S
H294 C274 0.930 . S
H295 C286 0.929 . S
H296 C289 0.930 . S
C297 C298 1.351 . S
C297 N300 1.368 . S
C297 H302 0.931 . S
C298 C297 1.351 . S
C298 N299 1.373 . S
C298 H326 0.930 . S
N299 C298 1.373 . S
N299 C301 1.340 . S
N300 C297 1.368 . S
N300 C301 1.321 . S
N300 Co303 2.135 . S
C301 N299 1.340 . S
C301 N300 1.321 . S
C301 H325 0.930 . S
H302 C297 0.931 . S
Co303 N300 2.135 . S
Co303 N306 2.121 . S
Co303 O311 2.055 . S
Co303 O314 2.039 . S
Co303 N317 2.140 . S
C304 O305 1.227 . S
C304 O314 1.265 . S
O305 C304 1.227 . S
N306 Co303 2.121 . S
N306 C308 1.375 . S
N306 C309 1.313 . S
C307 C308 1.338 . S
C307 N310 1.377 . S
C307 H327 0.930 . S
C308 N306 1.375 . S
C308 C307 1.338 . S
C308 H312 0.931 . S
C309 N306 1.313 . S
C309 N310 1.344 . S
C309 H313 0.930 . S
N310 C307 1.377 . S
N310 C309 1.344 . S
O311 Co303 2.055 . S
O311 C315 1.253 . S
H312 C308 0.931 . S
H313 C309 0.930 . S
O314 Co303 2.039 . S
O314 C304 1.265 . S
C315 O311 1.253 . S
C315 O316 1.227 . S
O316 C315 1.227 . S
N317 Co303 2.140 . S
N317 C320 1.346 . S
N317 C321 1.345 . S
C318 C319 1.387 . S
C318 C322 1.391 . S
C319 C318 1.387 . S
C319 C320 1.369 . S
C319 H328 0.929 . S
C320 N317 1.346 . S
C320 C319 1.369 . S
C320 H323 0.928 . S
C321 N317 1.345 . S
C321 C322 1.371 . S
C321 H324 0.931 . S
C322 C318 1.391 . S
C322 C321 1.371 . S
C322 H329 0.930 . S
H323 C320 0.928 . S
H324 C321 0.931 . S
H325 C301 0.930 . S
H326 C298 0.930 . S
H327 C307 0.930 . S
H328 C319 0.929 . S
H329 C322 0.930 . S
C330 C331 1.351 . S
C330 N333 1.368 . S
C330 H335 0.931 . S
C331 C330 1.351 . S
C331 N332 1.373 . S
C331 H359 0.930 . S
N332 C331 1.373 . S
N332 C334 1.340 . S
N333 C330 1.368 . S
N333 C334 1.321 . S
N333 Co336 2.135 . S
C334 N332 1.340 . S
C334 N333 1.321 . S
C334 H358 0.930 . S
H335 C330 0.931 . S
Co336 N333 2.135 . S
Co336 N339 2.121 . S
Co336 O344 2.055 . S
Co336 O347 2.039 . S
Co336 N350 2.140 . S
C337 O338 1.227 . S
C337 O347 1.265 . S
O338 C337 1.227 . S
N339 Co336 2.121 . S
N339 C341 1.375 . S
N339 C342 1.313 . S
C340 C341 1.338 . S
C340 N343 1.377 . S
C340 H360 0.930 . S
C341 N339 1.375 . S
C341 C340 1.338 . S
C341 H345 0.931 . S
C342 N339 1.313 . S
C342 N343 1.344 . S
C342 H346 0.930 . S
N343 C340 1.377 . S
N343 C342 1.344 . S
O344 Co336 2.055 . S
O344 C348 1.253 . S
H345 C341 0.931 . S
H346 C342 0.930 . S
O347 Co336 2.039 . S
O347 C337 1.265 . S
C348 O344 1.253 . S
C348 O349 1.227 . S
O349 C348 1.227 . S
N350 Co336 2.140 . S
N350 C353 1.346 . S
N350 C354 1.345 . S
C351 C352 1.387 . S
C351 C355 1.391 . S
C352 C351 1.387 . S
C352 C353 1.369 . S
C352 H361 0.929 . S
C353 N350 1.346 . S
C353 C352 1.369 . S
C353 H356 0.928 . S
C354 N350 1.345 . S
C354 C355 1.371 . S
C354 H357 0.931 . S
C355 C351 1.391 . S
C355 C354 1.371 . S
C355 H362 0.930 . S
H356 C353 0.928 . S
H357 C354 0.931 . S
H358 C334 0.930 . S
H359 C331 0.930 . S
H360 C340 0.930 . S
H361 C352 0.929 . S
H362 C355 0.930 . S
C363 C364 1.351 . S
C363 N366 1.368 . S
C363 H368 0.931 . S
C364 C363 1.351 . S
C364 N365 1.373 . S
C364 H392 0.930 . S
N365 C364 1.373 . S
N365 C367 1.340 . S
N366 C363 1.368 . S
N366 C367 1.321 . S
N366 Co369 2.135 . S
C367 N365 1.340 . S
C367 N366 1.321 . S
C367 H391 0.930 . S
H368 C363 0.931 . S
Co369 N366 2.135 . S
Co369 N372 2.121 . S
Co369 O377 2.055 . S
Co369 O380 2.039 . S
Co369 N383 2.140 . S
C370 O371 1.227 . S
C370 O380 1.265 . S
O371 C370 1.227 . S
N372 Co369 2.121 . S
N372 C374 1.375 . S
N372 C375 1.313 . S
C373 C374 1.338 . S
C373 N376 1.377 . S
C373 H393 0.930 . S
C374 N372 1.375 . S
C374 C373 1.338 . S
C374 H378 0.931 . S
C375 N372 1.313 . S
C375 N376 1.344 . S
C375 H379 0.930 . S
N376 C373 1.377 . S
N376 C375 1.344 . S
O377 Co369 2.055 . S
O377 C381 1.253 . S
H378 C374 0.931 . S
H379 C375 0.930 . S
O380 Co369 2.039 . S
O380 C370 1.265 . S
C381 O377 1.253 . S
C381 O382 1.227 . S
O382 C381 1.227 . S
N383 Co369 2.140 . S
N383 C386 1.346 . S
N383 C387 1.345 . S
C384 C385 1.387 . S
C384 C388 1.391 . S
C385 C384 1.387 . S
C385 C386 1.369 . S
C385 H394 0.929 . S
C386 N383 1.346 . S
C386 C385 1.369 . S
C386 H389 0.928 . S
C387 N383 1.345 . S
C387 C388 1.371 . S
C387 H390 0.931 . S
C388 C384 1.391 . S
C388 C387 1.371 . S
C388 H395 0.930 . S
H389 C386 0.928 . S
H390 C387 0.931 . S
H391 C367 0.930 . S
H392 C364 0.930 . S
H393 C373 0.930 . S
H394 C385 0.929 . S
H395 C388 0.930 . S
C396 C397 1.351 . S
C396 N399 1.368 . S
C396 H401 0.931 . S
C397 C396 1.351 . S
C397 N398 1.373 . S
C397 H425 0.930 . S
N398 C397 1.373 . S
N398 C400 1.340 . S
N399 C396 1.368 . S
N399 C400 1.321 . S
N399 Co402 2.135 . S
C400 N398 1.340 . S
C400 N399 1.321 . S
C400 H424 0.930 . S
H401 C396 0.931 . S
Co402 N399 2.135 . S
Co402 N405 2.121 . S
Co402 O410 2.055 . S
Co402 O413 2.039 . S
Co402 N416 2.140 . S
C403 O404 1.227 . S
C403 O413 1.265 . S
O404 C403 1.227 . S
N405 Co402 2.121 . S
N405 C407 1.375 . S
N405 C408 1.313 . S
C406 C407 1.338 . S
C406 N409 1.377 . S
C406 H426 0.930 . S
C407 N405 1.375 . S
C407 C406 1.338 . S
C407 H411 0.931 . S
C408 N405 1.313 . S
C408 N409 1.344 . S
C408 H412 0.930 . S
N409 C406 1.377 . S
N409 C408 1.344 . S
O410 Co402 2.055 . S
O410 C414 1.253 . S
H411 C407 0.931 . S
H412 C408 0.930 . S
O413 Co402 2.039 . S
O413 C403 1.265 . S
C414 O410 1.253 . S
C414 O415 1.227 . S
O415 C414 1.227 . S
N416 Co402 2.140 . S
N416 C419 1.346 . S
N416 C420 1.345 . S
C417 C418 1.387 . S
C417 C421 1.391 . S
C418 C417 1.387 . S
C418 C419 1.369 . S
C418 H427 0.929 . S
C419 N416 1.346 . S
C419 C418 1.369 . S
C419 H422 0.928 . S
C420 N416 1.345 . S
C420 C421 1.371 . S
C420 H423 0.931 . S
C421 C417 1.391 . S
C421 C420 1.371 . S
C421 H428 0.930 . S
H422 C419 0.928 . S
H423 C420 0.931 . S
H424 C400 0.930 . S
H425 C397 0.930 . S
H426 C406 0.930 . S
H427 C418 0.929 . S
H428 C421 0.930 . S
C429 C430 1.351 . S
C429 N432 1.368 . S
C429 H434 0.931 . S
C430 C429 1.351 . S
C430 N431 1.373 . S
C430 H458 0.930 . S
N431 C430 1.373 . S
N431 C433 1.340 . S
N432 C429 1.368 . S
N432 C433 1.321 . S
N432 Co435 2.135 . S
C433 N431 1.340 . S
C433 N432 1.321 . S
C433 H457 0.930 . S
H434 C429 0.931 . S
Co435 N432 2.135 . S
Co435 N438 2.121 . S
Co435 O443 2.055 . S
Co435 O446 2.039 . S
Co435 N449 2.140 . S
C436 O437 1.227 . S
C436 O446 1.265 . S
O437 C436 1.227 . S
N438 Co435 2.121 . S
N438 C440 1.375 . S
N438 C441 1.313 . S
C439 C440 1.338 . S
C439 N442 1.377 . S
C439 H459 0.930 . S
C440 N438 1.375 . S
C440 C439 1.338 . S
C440 H444 0.931 . S
C441 N438 1.313 . S
C441 N442 1.344 . S
C441 H445 0.930 . S
N442 C439 1.377 . S
N442 C441 1.344 . S
O443 Co435 2.055 . S
O443 C447 1.253 . S
H444 C440 0.931 . S
H445 C441 0.930 . S
O446 Co435 2.039 . S
O446 C436 1.265 . S
C447 O443 1.253 . S
C447 O448 1.227 . S
O448 C447 1.227 . S
N449 Co435 2.140 . S
N449 C452 1.346 . S
N449 C453 1.345 . S
C450 C451 1.387 . S
C450 C454 1.391 . S
C451 C450 1.387 . S
C451 C452 1.369 . S
C451 H460 0.929 . S
C452 N449 1.346 . S
C452 C451 1.369 . S
C452 H455 0.928 . S
C453 N449 1.345 . S
C453 C454 1.371 . S
C453 H456 0.931 . S
C454 C450 1.391 . S
C454 C453 1.371 . S
C454 H461 0.930 . S
H455 C452 0.928 . S
H456 C453 0.931 . S
H457 C433 0.930 . S
H458 C430 0.930 . S
H459 C439 0.930 . S
H460 C451 0.929 . S
H461 C454 0.930 . S
C462 C463 1.351 . S
C462 N465 1.368 . S
C462 H467 0.931 . S
C463 C462 1.351 . S
C463 N464 1.373 . S
C463 H491 0.930 . S
N464 C463 1.373 . S
N464 C466 1.340 . S
N465 C462 1.368 . S
N465 C466 1.321 . S
N465 Co468 2.135 . S
C466 N464 1.340 . S
C466 N465 1.321 . S
C466 H490 0.930 . S
H467 C462 0.931 . S
Co468 N465 2.135 . S
Co468 N471 2.121 . S
Co468 O476 2.055 . S
Co468 O479 2.039 . S
Co468 N482 2.140 . S
C469 O470 1.227 . S
C469 O479 1.265 . S
O470 C469 1.227 . S
N471 Co468 2.121 . S
N471 C473 1.375 . S
N471 C474 1.313 . S
C472 C473 1.338 . S
C472 N475 1.377 . S
C472 H492 0.930 . S
C473 N471 1.375 . S
C473 C472 1.338 . S
C473 H477 0.931 . S
C474 N471 1.313 . S
C474 N475 1.344 . S
C474 H478 0.930 . S
N475 C472 1.377 . S
N475 C474 1.344 . S
O476 Co468 2.055 . S
O476 C480 1.253 . S
H477 C473 0.931 . S
H478 C474 0.930 . S
O479 Co468 2.039 . S
O479 C469 1.265 . S
C480 O476 1.253 . S
C480 O481 1.227 . S
O481 C480 1.227 . S
N482 Co468 2.140 . S
N482 C485 1.346 . S
N482 C486 1.345 . S
C483 C484 1.387 . S
C483 C487 1.391 . S
C484 C483 1.387 . S
C484 C485 1.369 . S
C484 H493 0.929 . S
C485 N482 1.346 . S
C485 C484 1.369 . S
C485 H488 0.928 . S
C486 N482 1.345 . S
C486 C487 1.371 . S
C486 H489 0.931 . S
C487 C483 1.391 . S
C487 C486 1.371 . S
C487 H494 0.930 . S
H488 C485 0.928 . S
H489 C486 0.931 . S
H490 C466 0.930 . S
H491 C463 0.930 . S
H492 C472 0.930 . S
H493 C484 0.929 . S
H494 C487 0.930 . S
C495 C496 1.351 . S
C495 N498 1.368 . S
C495 H500 0.931 . S
C496 C495 1.351 . S
C496 N497 1.373 . S
C496 H524 0.930 . S
N497 C496 1.373 . S
N497 C499 1.340 . S
N498 C495 1.368 . S
N498 C499 1.321 . S
N498 Co501 2.135 . S
C499 N497 1.340 . S
C499 N498 1.321 . S
C499 H523 0.930 . S
H500 C495 0.931 . S
Co501 N498 2.135 . S
Co501 N504 2.121 . S
Co501 O509 2.055 . S
Co501 O512 2.039 . S
Co501 N515 2.140 . S
C502 O503 1.227 . S
C502 O512 1.265 . S
O503 C502 1.227 . S
N504 Co501 2.121 . S
N504 C506 1.375 . S
N504 C507 1.313 . S
C505 C506 1.338 . S
C505 N508 1.377 . S
C505 H525 0.930 . S
C506 N504 1.375 . S
C506 C505 1.338 . S
C506 H510 0.931 . S
C507 N504 1.313 . S
C507 N508 1.344 . S
C507 H511 0.930 . S
N508 C505 1.377 . S
N508 C507 1.344 . S
O509 Co501 2.055 . S
O509 C513 1.253 . S
H510 C506 0.931 . S
H511 C507 0.930 . S
O512 Co501 2.039 . S
O512 C502 1.265 . S
C513 O509 1.253 . S
C513 O514 1.227 . S
O514 C513 1.227 . S
N515 Co501 2.140 . S
N515 C518 1.346 . S
N515 C519 1.345 . S
C516 C517 1.387 . S
C516 C520 1.391 . S
C517 C516 1.387 . S
C517 C518 1.369 . S
C517 H526 0.929 . S
C518 N515 1.346 . S
C518 C517 1.369 . S
C518 H521 0.928 . S
C519 N515 1.345 . S
C519 C520 1.371 . S
C519 H522 0.931 . S
C520 C516 1.391 . S
C520 C519 1.371 . S
C520 H527 0.930 . S
H521 C518 0.928 . S
H522 C519 0.931 . S
H523 C499 0.930 . S
H524 C496 0.930 . S
H525 C505 0.930 . S
H526 C517 0.929 . S
H527 C520 0.930 . S
C528 C529 1.351 . S
C528 N531 1.368 . S
C528 H533 0.931 . S
C529 C528 1.351 . S
C529 N530 1.373 . S
C529 H557 0.930 . S
N530 C529 1.373 . S
N530 C532 1.340 . S
N531 C528 1.368 . S
N531 C532 1.321 . S
N531 Co534 2.135 . S
C532 N530 1.340 . S
C532 N531 1.321 . S
C532 H556 0.930 . S
H533 C528 0.931 . S
Co534 N531 2.135 . S
Co534 N537 2.121 . S
Co534 O542 2.055 . S
Co534 O545 2.039 . S
Co534 N548 2.140 . S
C535 O536 1.227 . S
C535 O545 1.265 . S
O536 C535 1.227 . S
N537 Co534 2.121 . S
N537 C539 1.375 . S
N537 C540 1.313 . S
C538 C539 1.338 . S
C538 N541 1.377 . S
C538 H558 0.930 . S
C539 N537 1.375 . S
C539 C538 1.338 . S
C539 H543 0.931 . S
C540 N537 1.313 . S
C540 N541 1.344 . S
C540 H544 0.930 . S
N541 C538 1.377 . S
N541 C540 1.344 . S
O542 Co534 2.055 . S
O542 C546 1.253 . S
H543 C539 0.931 . S
H544 C540 0.930 . S
O545 Co534 2.039 . S
O545 C535 1.265 . S
C546 O542 1.253 . S
C546 O547 1.227 . S
O547 C546 1.227 . S
N548 Co534 2.140 . S
N548 C551 1.346 . S
N548 C552 1.345 . S
C549 C550 1.387 . S
C549 C553 1.391 . S
C550 C549 1.387 . S
C550 C551 1.369 . S
C550 H559 0.929 . S
C551 N548 1.346 . S
C551 C550 1.369 . S
C551 H554 0.928 . S
C552 N548 1.345 . S
C552 C553 1.371 . S
C552 H555 0.931 . S
C553 C549 1.391 . S
C553 C552 1.371 . S
C553 H560 0.930 . S
H554 C551 0.928 . S
H555 C552 0.931 . S
H556 C532 0.930 . S
H557 C529 0.930 . S
H558 C538 0.930 . S
H559 C550 0.929 . S
H560 C553 0.930 . S
C561 C562 1.351 . S
C561 N564 1.368 . S
C561 H566 0.931 . S
C562 C561 1.351 . S
C562 N563 1.373 . S
C562 H590 0.930 . S
N563 C562 1.373 . S
N563 C565 1.340 . S
N564 C561 1.368 . S
N564 C565 1.321 . S
N564 Co567 2.135 . S
C565 N563 1.340 . S
C565 N564 1.321 . S
C565 H589 0.930 . S
H566 C561 0.931 . S
Co567 N564 2.135 . S
Co567 N570 2.121 . S
Co567 O575 2.055 . S
Co567 O578 2.039 . S
Co567 N581 2.140 . S
C568 O569 1.227 . S
C568 O578 1.265 . S
O569 C568 1.227 . S
N570 Co567 2.121 . S
N570 C572 1.375 . S
N570 C573 1.313 . S
C571 C572 1.338 . S
C571 N574 1.377 . S
C571 H591 0.930 . S
C572 N570 1.375 . S
C572 C571 1.338 . S
C572 H576 0.931 . S
C573 N570 1.313 . S
C573 N574 1.344 . S
C573 H577 0.930 . S
N574 C571 1.377 . S
N574 C573 1.344 . S
O575 Co567 2.055 . S
O575 C579 1.253 . S
H576 C572 0.931 . S
H577 C573 0.930 . S
O578 Co567 2.039 . S
O578 C568 1.265 . S
C579 O575 1.253 . S
C579 O580 1.227 . S
O580 C579 1.227 . S
N581 Co567 2.140 . S
N581 C584 1.346 . S
N581 C585 1.345 . S
C582 C583 1.387 . S
C582 C586 1.391 . S
C583 C582 1.387 . S
C583 C584 1.369 . S
C583 H592 0.929 . S
C584 N581 1.346 . S
C584 C583 1.369 . S
C584 H587 0.928 . S
C585 N581 1.345 . S
C585 C586 1.371 . S
C585 H588 0.931 . S
C586 C582 1.391 . S
C586 C585 1.371 . S
C586 H593 0.930 . S
H587 C584 0.928 . S
H588 C585 0.931 . S
H589 C565 0.930 . S
H590 C562 0.930 . S
H591 C571 0.930 . S
H592 C583 0.929 . S
H593 C586 0.930 . S
C594 C595 1.351 . S
C594 N597 1.368 . S
C594 H599 0.931 . S
C595 C594 1.351 . S
C595 N596 1.373 . S
C595 H623 0.930 . S
N596 C595 1.373 . S
N596 C598 1.340 . S
N597 C594 1.368 . S
N597 C598 1.321 . S
N597 Co600 2.135 . S
C598 N596 1.340 . S
C598 N597 1.321 . S
C598 H622 0.930 . S
H599 C594 0.931 . S
Co600 N597 2.135 . S
Co600 N603 2.121 . S
Co600 O608 2.055 . S
Co600 O611 2.039 . S
Co600 N614 2.140 . S
C601 O602 1.227 . S
C601 O611 1.265 . S
O602 C601 1.227 . S
N603 Co600 2.121 . S
N603 C605 1.375 . S
N603 C606 1.313 . S
C604 C605 1.338 . S
C604 N607 1.377 . S
C604 H624 0.930 . S
C605 N603 1.375 . S
C605 C604 1.338 . S
C605 H609 0.931 . S
C606 N603 1.313 . S
C606 N607 1.344 . S
C606 H610 0.930 . S
N607 C604 1.377 . S
N607 C606 1.344 . S
O608 Co600 2.055 . S
O608 C612 1.253 . S
H609 C605 0.931 . S
H610 C606 0.930 . S
O611 Co600 2.039 . S
O611 C601 1.265 . S
C612 O608 1.253 . S
C612 O613 1.227 . S
O613 C612 1.227 . S
N614 Co600 2.140 . S
N614 C617 1.346 . S
N614 C618 1.345 . S
C615 C616 1.387 . S
C615 C619 1.391 . S
C616 C615 1.387 . S
C616 C617 1.369 . S
C616 H625 0.929 . S
C617 N614 1.346 . S
C617 C616 1.369 . S
C617 H620 0.928 . S
C618 N614 1.345 . S
C618 C619 1.371 . S
C618 H621 0.931 . S
C619 C615 1.391 . S
C619 C618 1.371 . S
C619 H626 0.930 . S
H620 C617 0.928 . S
H621 C618 0.931 . S
H622 C598 0.930 . S
H623 C595 0.930 . S
H624 C604 0.930 . S
H625 C616 0.929 . S
H626 C619 0.930 . S
C627 C628 1.351 . S
C627 N630 1.368 . S
C627 H632 0.931 . S
C628 C627 1.351 . S
C628 N629 1.373 . S
C628 H656 0.930 . S
N629 C628 1.373 . S
N629 C631 1.340 . S
N630 C627 1.368 . S
N630 C631 1.321 . S
N630 Co633 2.135 . S
C631 N629 1.340 . S
C631 N630 1.321 . S
C631 H655 0.930 . S
H632 C627 0.931 . S
Co633 N630 2.135 . S
Co633 N636 2.121 . S
Co633 O641 2.055 . S
Co633 O644 2.039 . S
Co633 N647 2.140 . S
C634 O635 1.227 . S
C634 O644 1.265 . S
O635 C634 1.227 . S
N636 Co633 2.121 . S
N636 C638 1.375 . S
N636 C639 1.313 . S
C637 C638 1.338 . S
C637 N640 1.377 . S
C637 H657 0.930 . S
C638 N636 1.375 . S
C638 C637 1.338 . S
C638 H642 0.931 . S
C639 N636 1.313 . S
C639 N640 1.344 . S
C639 H643 0.930 . S
N640 C637 1.377 . S
N640 C639 1.344 . S
O641 Co633 2.055 . S
O641 C645 1.253 . S
H642 C638 0.931 . S
H643 C639 0.930 . S
O644 Co633 2.039 . S
O644 C634 1.265 . S
C645 O641 1.253 . S
C645 O646 1.227 . S
O646 C645 1.227 . S
N647 Co633 2.140 . S
N647 C650 1.346 . S
N647 C651 1.345 . S
C648 C649 1.387 . S
C648 C652 1.391 . S
C649 C648 1.387 . S
C649 C650 1.369 . S
C649 H658 0.929 . S
C650 N647 1.346 . S
C650 C649 1.369 . S
C650 H653 0.928 . S
C651 N647 1.345 . S
C651 C652 1.371 . S
C651 H654 0.931 . S
C652 C648 1.391 . S
C652 C651 1.371 . S
C652 H659 0.930 . S
H653 C650 0.928 . S
H654 C651 0.931 . S
H655 C631 0.930 . S
H656 C628 0.930 . S
H657 C637 0.930 . S
H658 C649 0.929 . S
H659 C652 0.930 . S
C660 C661 1.351 . S
C660 N663 1.368 . S
C660 H665 0.931 . S
C661 C660 1.351 . S
C661 N662 1.373 . S
C661 H689 0.930 . S
N662 C661 1.373 . S
N662 C664 1.340 . S
N663 C660 1.368 . S
N663 C664 1.321 . S
N663 Co666 2.135 . S
C664 N662 1.340 . S
C664 N663 1.321 . S
C664 H688 0.930 . S
H665 C660 0.931 . S
Co666 N663 2.135 . S
Co666 N669 2.121 . S
Co666 O674 2.055 . S
Co666 O677 2.039 . S
Co666 N680 2.140 . S
C667 O668 1.227 . S
C667 O677 1.265 . S
O668 C667 1.227 . S
N669 Co666 2.121 . S
N669 C671 1.375 . S
N669 C672 1.313 . S
C670 C671 1.338 . S
C670 N673 1.377 . S
C670 H690 0.930 . S
C671 N669 1.375 . S
C671 C670 1.338 . S
C671 H675 0.931 . S
C672 N669 1.313 . S
C672 N673 1.344 . S
C672 H676 0.930 . S
N673 C670 1.377 . S
N673 C672 1.344 . S
O674 Co666 2.055 . S
O674 C678 1.253 . S
H675 C671 0.931 . S
H676 C672 0.930 . S
O677 Co666 2.039 . S
O677 C667 1.265 . S
C678 O674 1.253 . S
C678 O679 1.227 . S
O679 C678 1.227 . S
N680 Co666 2.140 . S
N680 C683 1.346 . S
N680 C684 1.345 . S
C681 C682 1.387 . S
C681 C685 1.391 . S
C682 C681 1.387 . S
C682 C683 1.369 . S
C682 H691 0.929 . S
C683 N680 1.346 . S
C683 C682 1.369 . S
C683 H686 0.928 . S
C684 N680 1.345 . S
C684 C685 1.371 . S
C684 H687 0.931 . S
C685 C681 1.391 . S
C685 C684 1.371 . S
C685 H692 0.930 . S
H686 C683 0.928 . S
H687 C684 0.931 . S
H688 C664 0.930 . S
H689 C661 0.930 . S
H690 C670 0.930 . S
H691 C682 0.929 . S
H692 C685 0.930 . S
C693 C694 1.351 . S
C693 N696 1.368 . S
C693 H698 0.931 . S
C694 C693 1.351 . S
C694 N695 1.373 . S
C694 H722 0.930 . S
N695 C694 1.373 . S
N695 C697 1.340 . S
N696 C693 1.368 . S
N696 C697 1.321 . S
N696 Co699 2.135 . S
C697 N695 1.340 . S
C697 N696 1.321 . S
C697 H721 0.930 . S
H698 C693 0.931 . S
Co699 N696 2.135 . S
Co699 N702 2.121 . S
Co699 O707 2.055 . S
Co699 O710 2.039 . S
Co699 N713 2.140 . S
C700 O701 1.227 . S
C700 O710 1.265 . S
O701 C700 1.227 . S
N702 Co699 2.121 . S
N702 C704 1.375 . S
N702 C705 1.313 . S
C703 C704 1.338 . S
C703 N706 1.377 . S
C703 H723 0.930 . S
C704 N702 1.375 . S
C704 C703 1.338 . S
C704 H708 0.931 . S
C705 N702 1.313 . S
C705 N706 1.344 . S
C705 H709 0.930 . S
N706 C703 1.377 . S
N706 C705 1.344 . S
O707 Co699 2.055 . S
O707 C711 1.253 . S
H708 C704 0.931 . S
H709 C705 0.930 . S
O710 Co699 2.039 . S
O710 C700 1.265 . S
C711 O707 1.253 . S
C711 O712 1.227 . S
O712 C711 1.227 . S
N713 Co699 2.140 . S
N713 C716 1.346 . S
N713 C717 1.345 . S
C714 C715 1.387 . S
C714 C718 1.391 . S
C715 C714 1.387 . S
C715 C716 1.369 . S
C715 H724 0.929 . S
C716 N713 1.346 . S
C716 C715 1.369 . S
C716 H719 0.928 . S
C717 N713 1.345 . S
C717 C718 1.371 . S
C717 H720 0.931 . S
C718 C714 1.391 . S
C718 C717 1.371 . S
C718 H725 0.930 . S
H719 C716 0.928 . S
H720 C717 0.931 . S
H721 C697 0.930 . S
H722 C694 0.930 . S
H723 C703 0.930 . S
H724 C715 0.929 . S
H725 C718 0.930 . S
C726 C727 1.351 . S
C726 N729 1.368 . S
C726 H731 0.931 . S
C727 C726 1.351 . S
C727 N728 1.373 . S
C727 H755 0.930 . S
N728 C727 1.373 . S
N728 C730 1.340 . S
N729 C726 1.368 . S
N729 C730 1.321 . S
N729 Co732 2.135 . S
C730 N728 1.340 . S
C730 N729 1.321 . S
C730 H754 0.930 . S
H731 C726 0.931 . S
Co732 N729 2.135 . S
Co732 N735 2.121 . S
Co732 O740 2.055 . S
Co732 O743 2.039 . S
Co732 N746 2.140 . S
C733 O734 1.227 . S
C733 O743 1.265 . S
O734 C733 1.227 . S
N735 Co732 2.121 . S
N735 C737 1.375 . S
N735 C738 1.313 . S
C736 C737 1.338 . S
C736 N739 1.377 . S
C736 H756 0.930 . S
C737 N735 1.375 . S
C737 C736 1.338 . S
C737 H741 0.931 . S
C738 N735 1.313 . S
C738 N739 1.344 . S
C738 H742 0.930 . S
N739 C736 1.377 . S
N739 C738 1.344 . S
O740 Co732 2.055 . S
O740 C744 1.253 . S
H741 C737 0.931 . S
H742 C738 0.930 . S
O743 Co732 2.039 . S
O743 C733 1.265 . S
C744 O740 1.253 . S
C744 O745 1.227 . S
O745 C744 1.227 . S
N746 Co732 2.140 . S
N746 C749 1.346 . S
N746 C750 1.345 . S
C747 C748 1.387 . S
C747 C751 1.391 . S
C748 C747 1.387 . S
C748 C749 1.369 . S
C748 H757 0.929 . S
C749 N746 1.346 . S
C749 C748 1.369 . S
C749 H752 0.928 . S
C750 N746 1.345 . S
C750 C751 1.371 . S
C750 H753 0.931 . S
C751 C747 1.391 . S
C751 C750 1.371 . S
C751 H758 0.930 . S
H752 C749 0.928 . S
H753 C750 0.931 . S
H754 C730 0.930 . S
H755 C727 0.930 . S
H756 C736 0.930 . S
H757 C748 0.929 . S
H758 C751 0.930 . S
C759 C760 1.351 . S
C759 N762 1.368 . S
C759 H764 0.931 . S
C760 C759 1.351 . S
C760 N761 1.373 . S
C760 H788 0.930 . S
N761 C760 1.373 . S
N761 C763 1.340 . S
N762 C759 1.368 . S
N762 C763 1.321 . S
N762 Co765 2.135 . S
C763 N761 1.340 . S
C763 N762 1.321 . S
C763 H787 0.930 . S
H764 C759 0.931 . S
Co765 N762 2.135 . S
Co765 N768 2.121 . S
Co765 O773 2.055 . S
Co765 O776 2.039 . S
Co765 N779 2.140 . S
C766 O767 1.227 . S
C766 O776 1.265 . S
O767 C766 1.227 . S
N768 Co765 2.121 . S
N768 C770 1.375 . S
N768 C771 1.313 . S
C769 C770 1.338 . S
C769 N772 1.377 . S
C769 H789 0.930 . S
C770 N768 1.375 . S
C770 C769 1.338 . S
C770 H774 0.931 . S
C771 N768 1.313 . S
C771 N772 1.344 . S
C771 H775 0.930 . S
N772 C769 1.377 . S
N772 C771 1.344 . S
O773 Co765 2.055 . S
O773 C777 1.253 . S
H774 C770 0.931 . S
H775 C771 0.930 . S
O776 Co765 2.039 . S
O776 C766 1.265 . S
C777 O773 1.253 . S
C777 O778 1.227 . S
O778 C777 1.227 . S
N779 Co765 2.140 . S
N779 C782 1.346 . S
N779 C783 1.345 . S
C780 C781 1.387 . S
C780 C784 1.391 . S
C781 C780 1.387 . S
C781 C782 1.369 . S
C781 H790 0.929 . S
C782 N779 1.346 . S
C782 C781 1.369 . S
C782 H785 0.928 . S
C783 N779 1.345 . S
C783 C784 1.371 . S
C783 H786 0.931 . S
C784 C780 1.391 . S
C784 C783 1.371 . S
C784 H791 0.930 . S
H785 C782 0.928 . S
H786 C783 0.931 . S
H787 C763 0.930 . S
H788 C760 0.930 . S
H789 C769 0.930 . S
H790 C781 0.929 . S
H791 C784 0.930 . S
C792 C793 1.351 . S
C792 N795 1.368 . S
C792 H797 0.931 . S
C793 C792 1.351 . S
C793 N794 1.373 . S
C793 H821 0.930 . S
N794 C793 1.373 . S
N794 C796 1.340 . S
N795 C792 1.368 . S
N795 C796 1.321 . S
N795 Co798 2.135 . S
C796 N794 1.340 . S
C796 N795 1.321 . S
C796 H820 0.930 . S
H797 C792 0.931 . S
Co798 N795 2.135 . S
Co798 N801 2.121 . S
Co798 O806 2.055 . S
Co798 O809 2.039 . S
Co798 N812 2.140 . S
C799 O800 1.227 . S
C799 O809 1.265 . S
O800 C799 1.227 . S
N801 Co798 2.121 . S
N801 C803 1.375 . S
N801 C804 1.313 . S
C802 C803 1.338 . S
C802 N805 1.377 . S
C802 H822 0.930 . S
C803 N801 1.375 . S
C803 C802 1.338 . S
C803 H807 0.931 . S
C804 N801 1.313 . S
C804 N805 1.344 . S
C804 H808 0.930 . S
N805 C802 1.377 . S
N805 C804 1.344 . S
O806 Co798 2.055 . S
O806 C810 1.253 . S
H807 C803 0.931 . S
H808 C804 0.930 . S
O809 Co798 2.039 . S
O809 C799 1.265 . S
C810 O806 1.253 . S
C810 O811 1.227 . S
O811 C810 1.227 . S
N812 Co798 2.140 . S
N812 C815 1.346 . S
N812 C816 1.345 . S
C813 C814 1.387 . S
C813 C817 1.391 . S
C814 C813 1.387 . S
C814 C815 1.369 . S
C814 H823 0.929 . S
C815 N812 1.346 . S
C815 C814 1.369 . S
C815 H818 0.928 . S
C816 N812 1.345 . S
C816 C817 1.371 . S
C816 H819 0.931 . S
C817 C813 1.391 . S
C817 C816 1.371 . S
C817 H824 0.930 . S
H818 C815 0.928 . S
H819 C816 0.931 . S
H820 C796 0.930 . S
H821 C793 0.930 . S
H822 C802 0.930 . S
H823 C814 0.929 . S
H824 C817 0.930 . S
C825 C826 1.351 . S
C825 N828 1.368 . S
C825 H830 0.931 . S
C826 C825 1.351 . S
C826 N827 1.373 . S
C826 H854 0.930 . S
N827 C826 1.373 . S
N827 C829 1.340 . S
N828 C825 1.368 . S
N828 C829 1.321 . S
N828 Co831 2.135 . S
C829 N827 1.340 . S
C829 N828 1.321 . S
C829 H853 0.930 . S
H830 C825 0.931 . S
Co831 N828 2.135 . S
Co831 N834 2.121 . S
Co831 O839 2.055 . S
Co831 O842 2.039 . S
Co831 N845 2.140 . S
C832 O833 1.227 . S
C832 O842 1.265 . S
O833 C832 1.227 . S
N834 Co831 2.121 . S
N834 C836 1.375 . S
N834 C837 1.313 . S
C835 C836 1.338 . S
C835 N838 1.377 . S
C835 H855 0.930 . S
C836 N834 1.375 . S
C836 C835 1.338 . S
C836 H840 0.931 . S
C837 N834 1.313 . S
C837 N838 1.344 . S
C837 H841 0.930 . S
N838 C835 1.377 . S
N838 C837 1.344 . S
O839 Co831 2.055 . S
O839 C843 1.253 . S
H840 C836 0.931 . S
H841 C837 0.930 . S
O842 Co831 2.039 . S
O842 C832 1.265 . S
C843 O839 1.253 . S
C843 O844 1.227 . S
O844 C843 1.227 . S
N845 Co831 2.140 . S
N845 C848 1.346 . S
N845 C849 1.345 . S
C846 C847 1.387 . S
C846 C850 1.391 . S
C847 C846 1.387 . S
C847 C848 1.369 . S
C847 H856 0.929 . S
C848 N845 1.346 . S
C848 C847 1.369 . S
C848 H851 0.928 . S
C849 N845 1.345 . S
C849 C850 1.371 . S
C849 H852 0.931 . S
C850 C846 1.391 . S
C850 C849 1.371 . S
C850 H857 0.930 . S
H851 C848 0.928 . S
H852 C849 0.931 . S
H853 C829 0.930 . S
H854 C826 0.930 . S
H855 C835 0.930 . S
H856 C847 0.929 . S
H857 C850 0.930 . S
C858 C859 1.351 . S
C858 N861 1.368 . S
C858 H863 0.931 . S
C859 C858 1.351 . S
C859 N860 1.373 . S
C859 H887 0.930 . S
N860 C859 1.373 . S
N860 C862 1.340 . S
N861 C858 1.368 . S
N861 C862 1.321 . S
N861 Co864 2.135 . S
C862 N860 1.340 . S
C862 N861 1.321 . S
C862 H886 0.930 . S
H863 C858 0.931 . S
Co864 N861 2.135 . S
Co864 N867 2.121 . S
Co864 O872 2.055 . S
Co864 O875 2.039 . S
Co864 N878 2.140 . S
C865 O866 1.227 . S
C865 O875 1.265 . S
O866 C865 1.227 . S
N867 Co864 2.121 . S
N867 C869 1.375 . S
N867 C870 1.313 . S
C868 C869 1.338 . S
C868 N871 1.377 . S
C868 H888 0.930 . S
C869 N867 1.375 . S
C869 C868 1.338 . S
C869 H873 0.931 . S
C870 N867 1.313 . S
C870 N871 1.344 . S
C870 H874 0.930 . S
N871 C868 1.377 . S
N871 C870 1.344 . S
O872 Co864 2.055 . S
O872 C876 1.253 . S
H873 C869 0.931 . S
H874 C870 0.930 . S
O875 Co864 2.039 . S
O875 C865 1.265 . S
C876 O872 1.253 . S
C876 O877 1.227 . S
O877 C876 1.227 . S
N878 Co864 2.140 . S
N878 C881 1.346 . S
N878 C882 1.345 . S
C879 C880 1.387 . S
C879 C883 1.391 . S
C880 C879 1.387 . S
C880 C881 1.369 . S
C880 H889 0.929 . S
C881 N878 1.346 . S
C881 C880 1.369 . S
C881 H884 0.928 . S
C882 N878 1.345 . S
C882 C883 1.371 . S
C882 H885 0.931 . S
C883 C879 1.391 . S
C883 C882 1.371 . S
C883 H890 0.930 . S
H884 C881 0.928 . S
H885 C882 0.931 . S
H886 C862 0.930 . S
H887 C859 0.930 . S
H888 C868 0.930 . S
H889 C880 0.929 . S
H890 C883 0.930 . S
C891 C892 1.351 . S
C891 N894 1.368 . S
C891 H896 0.931 . S
C892 C891 1.351 . S
C892 N893 1.373 . S
C892 H920 0.930 . S
N893 C892 1.373 . S
N893 C895 1.340 . S
N894 C891 1.368 . S
N894 C895 1.321 . S
N894 Co897 2.135 . S
C895 N893 1.340 . S
C895 N894 1.321 . S
C895 H919 0.930 . S
H896 C891 0.931 . S
Co897 N894 2.135 . S
Co897 N900 2.121 . S
Co897 O905 2.055 . S
Co897 O908 2.039 . S
Co897 N911 2.140 . S
C898 O899 1.227 . S
C898 O908 1.265 . S
O899 C898 1.227 . S
N900 Co897 2.121 . S
N900 C902 1.375 . S
N900 C903 1.313 . S
C901 C902 1.338 . S
C901 N904 1.377 . S
C901 H921 0.930 . S
C902 N900 1.375 . S
C902 C901 1.338 . S
C902 H906 0.931 . S
C903 N900 1.313 . S
C903 N904 1.344 . S
C903 H907 0.930 . S
N904 C901 1.377 . S
N904 C903 1.344 . S
O905 Co897 2.055 . S
O905 C909 1.253 . S
H906 C902 0.931 . S
H907 C903 0.930 . S
O908 Co897 2.039 . S
O908 C898 1.265 . S
C909 O905 1.253 . S
C909 O910 1.227 . S
O910 C909 1.227 . S
N911 Co897 2.140 . S
N911 C914 1.346 . S
N911 C915 1.345 . S
C912 C913 1.387 . S
C912 C916 1.391 . S
C913 C912 1.387 . S
C913 C914 1.369 . S
C913 H922 0.929 . S
C914 N911 1.346 . S
C914 C913 1.369 . S
C914 H917 0.928 . S
C915 N911 1.345 . S
C915 C916 1.371 . S
C915 H918 0.931 . S
C916 C912 1.391 . S
C916 C915 1.371 . S
C916 H923 0.930 . S
H917 C914 0.928 . S
H918 C915 0.931 . S
H919 C895 0.930 . S
H920 C892 0.930 . S
H921 C901 0.930 . S
H922 C913 0.929 . S
H923 C916 0.930 . S
C924 C925 1.351 . S
C924 N927 1.368 . S
C924 H929 0.931 . S
C925 C924 1.351 . S
C925 N926 1.373 . S
C925 H953 0.930 . S
N926 C925 1.373 . S
N926 C928 1.340 . S
N927 C924 1.368 . S
N927 C928 1.321 . S
N927 Co930 2.135 . S
C928 N926 1.340 . S
C928 N927 1.321 . S
C928 H952 0.930 . S
H929 C924 0.931 . S
Co930 N927 2.135 . S
Co930 N933 2.121 . S
Co930 O938 2.055 . S
Co930 O941 2.039 . S
Co930 N944 2.140 . S
C931 O932 1.227 . S
C931 O941 1.265 . S
O932 C931 1.227 . S
N933 Co930 2.121 . S
N933 C935 1.375 . S
N933 C936 1.313 . S
C934 C935 1.338 . S
C934 N937 1.377 . S
C934 H954 0.930 . S
C935 N933 1.375 . S
C935 C934 1.338 . S
C935 H939 0.931 . S
C936 N933 1.313 . S
C936 N937 1.344 . S
C936 H940 0.930 . S
N937 C934 1.377 . S
N937 C936 1.344 . S
O938 Co930 2.055 . S
O938 C942 1.253 . S
H939 C935 0.931 . S
H940 C936 0.930 . S
O941 Co930 2.039 . S
O941 C931 1.265 . S
C942 O938 1.253 . S
C942 O943 1.227 . S
O943 C942 1.227 . S
N944 Co930 2.140 . S
N944 C947 1.346 . S
N944 C948 1.345 . S
C945 C946 1.387 . S
C945 C949 1.391 . S
C946 C945 1.387 . S
C946 C947 1.369 . S
C946 H955 0.929 . S
C947 N944 1.346 . S
C947 C946 1.369 . S
C947 H950 0.928 . S
C948 N944 1.345 . S
C948 C949 1.371 . S
C948 H951 0.931 . S
C949 C945 1.391 . S
C949 C948 1.371 . S
C949 H956 0.930 . S
H950 C947 0.928 . S
H951 C948 0.931 . S
H952 C928 0.930 . S
H953 C925 0.930 . S
H954 C934 0.930 . S
H955 C946 0.929 . S
H956 C949 0.930 . S
C957 C958 1.351 . S
C957 N960 1.368 . S
C957 H962 0.931 . S
C958 C957 1.351 . S
C958 N959 1.373 . S
C958 H986 0.930 . S
N959 C958 1.373 . S
N959 C961 1.340 . S
N960 C957 1.368 . S
N960 C961 1.321 . S
N960 Co963 2.135 . S
C961 N959 1.340 . S
C961 N960 1.321 . S
C961 H985 0.930 . S
H962 C957 0.931 . S
Co963 N960 2.135 . S
Co963 N966 2.121 . S
Co963 O971 2.055 . S
Co963 O974 2.039 . S
Co963 N977 2.140 . S
C964 O965 1.227 . S
C964 O974 1.265 . S
O965 C964 1.227 . S
N966 Co963 2.121 . S
N966 C968 1.375 . S
N966 C969 1.313 . S
C967 C968 1.338 . S
C967 N970 1.377 . S
C967 H987 0.930 . S
C968 N966 1.375 . S
C968 C967 1.338 . S
C968 H972 0.931 . S
C969 N966 1.313 . S
C969 N970 1.344 . S
C969 H973 0.930 . S
N970 C967 1.377 . S
N970 C969 1.344 . S
O971 Co963 2.055 . S
O971 C975 1.253 . S
H972 C968 0.931 . S
H973 C969 0.930 . S
O974 Co963 2.039 . S
O974 C964 1.265 . S
C975 O971 1.253 . S
C975 O976 1.227 . S
O976 C975 1.227 . S
N977 Co963 2.140 . S
N977 C980 1.346 . S
N977 C981 1.345 . S
C978 C979 1.387 . S
C978 C982 1.391 . S
C979 C978 1.387 . S
C979 C980 1.369 . S
C979 H988 0.929 . S
C980 N977 1.346 . S
C980 C979 1.369 . S
C980 H983 0.928 . S
C981 N977 1.345 . S
C981 C982 1.371 . S
C981 H984 0.931 . S
C982 C978 1.391 . S
C982 C981 1.371 . S
C982 H989 0.930 . S
H983 C980 0.928 . S
H984 C981 0.931 . S
H985 C961 0.930 . S
H986 C958 0.930 . S
H987 C967 0.930 . S
H988 C979 0.929 . S
H989 C982 0.930 . S
C990 C991 1.351 . S
C990 N993 1.368 . S
C990 H995 0.931 . S
C991 C990 1.351 . S
C991 N992 1.373 . S
C991 H1019 0.930 . S
N992 C991 1.373 . S
N992 C994 1.340 . S
N993 C990 1.368 . S
N993 C994 1.321 . S
N993 Co996 2.135 . S
C994 N992 1.340 . S
C994 N993 1.321 . S
C994 H1018 0.930 . S
H995 C990 0.931 . S
Co996 N993 2.135 . S
Co996 N999 2.121 . S
Co996 O1004 2.055 . S
Co996 O1007 2.039 . S
Co996 N1010 2.140 . S
C997 O998 1.227 . S
C997 O1007 1.265 . S
O998 C997 1.227 . S
N999 Co996 2.121 . S
N999 C1001 1.375 . S
N999 C1002 1.313 . S
C1000 C1001 1.338 . S
C1000 N1003 1.377 . S
C1000 H1020 0.930 . S
C1001 N999 1.375 . S
C1001 C1000 1.338 . S
C1001 H1005 0.931 . S
C1002 N999 1.313 . S
C1002 N1003 1.344 . S
C1002 H1006 0.930 . S
N1003 C1000 1.377 . S
N1003 C1002 1.344 . S
O1004 Co996 2.055 . S
O1004 C1008 1.253 . S
H1005 C1001 0.931 . S
H1006 C1002 0.930 . S
O1007 Co996 2.039 . S
O1007 C997 1.265 . S
C1008 O1004 1.253 . S
C1008 O1009 1.227 . S
O1009 C1008 1.227 . S
N1010 Co996 2.140 . S
N1010 C1013 1.346 . S
N1010 C1014 1.345 . S
C1011 C1012 1.387 . S
C1011 C1015 1.391 . S
C1012 C1011 1.387 . S
C1012 C1013 1.369 . S
C1012 H1021 0.929 . S
C1013 N1010 1.346 . S
C1013 C1012 1.369 . S
C1013 H1016 0.928 . S
C1014 N1010 1.345 . S
C1014 C1015 1.371 . S
C1014 H1017 0.931 . S
C1015 C1011 1.391 . S
C1015 C1014 1.371 . S
C1015 H1022 0.930 . S
H1016 C1013 0.928 . S
H1017 C1014 0.931 . S
H1018 C994 0.930 . S
H1019 C991 0.930 . S
H1020 C1000 0.930 . S
H1021 C1012 0.929 . S
H1022 C1015 0.930 . S
C1023 C1024 1.351 . S
C1023 N1026 1.368 . S
C1023 H1028 0.931 . S
C1024 C1023 1.351 . S
C1024 N1025 1.373 . S
C1024 H1052 0.930 . S
N1025 C1024 1.373 . S
N1025 C1027 1.340 . S
N1026 C1023 1.368 . S
N1026 C1027 1.321 . S
N1026 Co1029 2.135 . S
C1027 N1025 1.340 . S
C1027 N1026 1.321 . S
C1027 H1051 0.930 . S
H1028 C1023 0.931 . S
Co1029 N1026 2.135 . S
Co1029 N1032 2.121 . S
Co1029 O1037 2.055 . S
Co1029 O1040 2.039 . S
Co1029 N1043 2.140 . S
C1030 O1031 1.227 . S
C1030 O1040 1.265 . S
O1031 C1030 1.227 . S
N1032 Co1029 2.121 . S
N1032 C1034 1.375 . S
N1032 C1035 1.313 . S
C1033 C1034 1.338 . S
C1033 N1036 1.377 . S
C1033 H1053 0.930 . S
C1034 N1032 1.375 . S
C1034 C1033 1.338 . S
C1034 H1038 0.931 . S
C1035 N1032 1.313 . S
C1035 N1036 1.344 . S
C1035 H1039 0.930 . S
N1036 C1033 1.377 . S
N1036 C1035 1.344 . S
O1037 Co1029 2.055 . S
O1037 C1041 1.253 . S
H1038 C1034 0.931 . S
H1039 C1035 0.930 . S
O1040 Co1029 2.039 . S
O1040 C1030 1.265 . S
C1041 O1037 1.253 . S
C1041 O1042 1.227 . S
O1042 C1041 1.227 . S
N1043 Co1029 2.140 . S
N1043 C1046 1.346 . S
N1043 C1047 1.345 . S
C1044 C1045 1.387 . S
C1044 C1048 1.391 . S
C1045 C1044 1.387 . S
C1045 C1046 1.369 . S
C1045 H1054 0.929 . S
C1046 N1043 1.346 . S
C1046 C1045 1.369 . S
C1046 H1049 0.928 . S
C1047 N1043 1.345 . S
C1047 C1048 1.371 . S
C1047 H1050 0.931 . S
C1048 C1044 1.391 . S
C1048 C1047 1.371 . S
C1048 H1055 0.930 . S
H1049 C1046 0.928 . S
H1050 C1047 0.931 . S
H1051 C1027 0.930 . S
H1052 C1024 0.930 . S
H1053 C1033 0.930 . S
H1054 C1045 0.929 . S
H1055 C1048 0.930 . S
C1056 C1057 1.351 . S
C1056 N1059 1.368 . S
C1056 H1061 0.931 . S
C1057 C1056 1.351 . S
C1057 N1058 1.373 . S
C1057 H1085 0.930 . S
N1058 C1057 1.373 . S
N1058 C1060 1.340 . S
N1059 C1056 1.368 . S
N1059 C1060 1.321 . S
N1059 Co1062 2.135 . S
C1060 N1058 1.340 . S
C1060 N1059 1.321 . S
C1060 H1084 0.930 . S
H1061 C1056 0.931 . S
Co1062 N1059 2.135 . S
Co1062 N1065 2.121 . S
Co1062 O1070 2.055 . S
Co1062 O1073 2.039 . S
Co1062 N1076 2.140 . S
C1063 O1064 1.227 . S
C1063 O1073 1.265 . S
O1064 C1063 1.227 . S
N1065 Co1062 2.121 . S
N1065 C1067 1.375 . S
N1065 C1068 1.313 . S
C1066 C1067 1.338 . S
C1066 N1069 1.377 . S
C1066 H1086 0.930 . S
C1067 N1065 1.375 . S
C1067 C1066 1.338 . S
C1067 H1071 0.931 . S
C1068 N1065 1.313 . S
C1068 N1069 1.344 . S
C1068 H1072 0.930 . S
N1069 C1066 1.377 . S
N1069 C1068 1.344 . S
O1070 Co1062 2.055 . S
O1070 C1074 1.253 . S
H1071 C1067 0.931 . S
H1072 C1068 0.930 . S
O1073 Co1062 2.039 . S
O1073 C1063 1.265 . S
C1074 O1070 1.253 . S
C1074 O1075 1.227 . S
O1075 C1074 1.227 . S
N1076 Co1062 2.140 . S
N1076 C1079 1.346 . S
N1076 C1080 1.345 . S
C1077 C1078 1.387 . S
C1077 C1081 1.391 . S
C1078 C1077 1.387 . S
C1078 C1079 1.369 . S
C1078 H1087 0.929 . S
C1079 N1076 1.346 . S
C1079 C1078 1.369 . S
C1079 H1082 0.928 . S
C1080 N1076 1.345 . S
C1080 C1081 1.371 . S
C1080 H1083 0.931 . S
C1081 C1077 1.391 . S
C1081 C1080 1.371 . S
C1081 H1088 0.930 . S
H1082 C1079 0.928 . S
H1083 C1080 0.931 . S
H1084 C1060 0.930 . S
H1085 C1057 0.930 . S
H1086 C1066 0.930 . S
H1087 C1078 0.929 . S
H1088 C1081 0.930 . S
C1089 C1090 1.351 . S
C1089 N1092 1.368 . S
C1089 H1094 0.931 . S
C1090 C1089 1.351 . S
C1090 N1091 1.373 . S
C1090 H1118 0.930 . S
N1091 C1090 1.373 . S
N1091 C1093 1.340 . S
N1092 C1089 1.368 . S
N1092 C1093 1.321 . S
N1092 Co1095 2.135 . S
C1093 N1091 1.340 . S
C1093 N1092 1.321 . S
C1093 H1117 0.930 . S
H1094 C1089 0.931 . S
Co1095 N1092 2.135 . S
Co1095 N1098 2.121 . S
Co1095 O1103 2.055 . S
Co1095 O1106 2.039 . S
Co1095 N1109 2.140 . S
C1096 O1097 1.227 . S
C1096 O1106 1.265 . S
O1097 C1096 1.227 . S
N1098 Co1095 2.121 . S
N1098 C1100 1.375 . S
N1098 C1101 1.313 . S
C1099 C1100 1.338 . S
C1099 N1102 1.377 . S
C1099 H1119 0.930 . S
C1100 N1098 1.375 . S
C1100 C1099 1.338 . S
C1100 H1104 0.931 . S
C1101 N1098 1.313 . S
C1101 N1102 1.344 . S
C1101 H1105 0.930 . S
N1102 C1099 1.377 . S
N1102 C1101 1.344 . S
O1103 Co1095 2.055 . S
O1103 C1107 1.253 . S
H1104 C1100 0.931 . S
H1105 C1101 0.930 . S
O1106 Co1095 2.039 . S
O1106 C1096 1.265 . S
C1107 O1103 1.253 . S
C1107 O1108 1.227 . S
O1108 C1107 1.227 . S
N1109 Co1095 2.140 . S
N1109 C1112 1.346 . S
N1109 C1113 1.345 . S
C1110 C1111 1.387 . S
C1110 C1114 1.391 . S
C1111 C1110 1.387 . S
C1111 C1112 1.369 . S
C1111 H1120 0.929 . S
C1112 N1109 1.346 . S
C1112 C1111 1.369 . S
C1112 H1115 0.928 . S
C1113 N1109 1.345 . S
C1113 C1114 1.371 . S
C1113 H1116 0.931 . S
C1114 C1110 1.391 . S
C1114 C1113 1.371 . S
C1114 H1121 0.930 . S
H1115 C1112 0.928 . S
H1116 C1113 0.931 . S
H1117 C1093 0.930 . S
H1118 C1090 0.930 . S
H1119 C1099 0.930 . S
H1120 C1111 0.929 . S
H1121 C1114 0.930 . S
C1122 C1123 1.351 . S
C1122 N1125 1.368 . S
C1122 H1127 0.931 . S
C1123 C1122 1.351 . S
C1123 N1124 1.373 . S
C1123 H1151 0.930 . S
N1124 C1123 1.373 . S
N1124 C1126 1.340 . S
N1125 C1122 1.368 . S
N1125 C1126 1.321 . S
N1125 Co1128 2.135 . S
C1126 N1124 1.340 . S
C1126 N1125 1.321 . S
C1126 H1150 0.930 . S
H1127 C1122 0.931 . S
Co1128 N1125 2.135 . S
Co1128 N1131 2.121 . S
Co1128 O1136 2.055 . S
Co1128 O1139 2.039 . S
Co1128 N1142 2.140 . S
C1129 O1130 1.227 . S
C1129 O1139 1.265 . S
O1130 C1129 1.227 . S
N1131 Co1128 2.121 . S
N1131 C1133 1.375 . S
N1131 C1134 1.313 . S
C1132 C1133 1.338 . S
C1132 N1135 1.377 . S
C1132 H1152 0.930 . S
C1133 N1131 1.375 . S
C1133 C1132 1.338 . S
C1133 H1137 0.931 . S
C1134 N1131 1.313 . S
C1134 N1135 1.344 . S
C1134 H1138 0.930 . S
N1135 C1132 1.377 . S
N1135 C1134 1.344 . S
O1136 Co1128 2.055 . S
O1136 C1140 1.253 . S
H1137 C1133 0.931 . S
H1138 C1134 0.930 . S
O1139 Co1128 2.039 . S
O1139 C1129 1.265 . S
C1140 O1136 1.253 . S
C1140 O1141 1.227 . S
O1141 C1140 1.227 . S
N1142 Co1128 2.140 . S
N1142 C1145 1.346 . S
N1142 C1146 1.345 . S
C1143 C1144 1.387 . S
C1143 C1147 1.391 . S
C1144 C1143 1.387 . S
C1144 C1145 1.369 . S
C1144 H1153 0.929 . S
C1145 N1142 1.346 . S
C1145 C1144 1.369 . S
C1145 H1148 0.928 . S
C1146 N1142 1.345 . S
C1146 C1147 1.371 . S
C1146 H1149 0.931 . S
C1147 C1143 1.391 . S
C1147 C1146 1.371 . S
C1147 H1154 0.930 . S
H1148 C1145 0.928 . S
H1149 C1146 0.931 . S
H1150 C1126 0.930 . S
H1151 C1123 0.930 . S
H1152 C1132 0.930 . S
H1153 C1144 0.929 . S
H1154 C1147 0.930 . S
C1155 C1156 1.351 . S
C1155 N1158 1.368 . S
C1155 H1160 0.931 . S
C1156 C1155 1.351 . S
C1156 N1157 1.373 . S
C1156 H1184 0.930 . S
N1157 C1156 1.373 . S
N1157 C1159 1.340 . S
N1158 C1155 1.368 . S
N1158 C1159 1.321 . S
N1158 Co1161 2.135 . S
C1159 N1157 1.340 . S
C1159 N1158 1.321 . S
C1159 H1183 0.930 . S
H1160 C1155 0.931 . S
Co1161 N1158 2.135 . S
Co1161 N1164 2.121 . S
Co1161 O1169 2.055 . S
Co1161 O1172 2.039 . S
Co1161 N1175 2.140 . S
C1162 O1163 1.227 . S
C1162 O1172 1.265 . S
O1163 C1162 1.227 . S
N1164 Co1161 2.121 . S
N1164 C1166 1.375 . S
N1164 C1167 1.313 . S
C1165 C1166 1.338 . S
C1165 N1168 1.377 . S
C1165 H1185 0.930 . S
C1166 N1164 1.375 . S
C1166 C1165 1.338 . S
C1166 H1170 0.931 . S
C1167 N1164 1.313 . S
C1167 N1168 1.344 . S
C1167 H1171 0.930 . S
N1168 C1165 1.377 . S
N1168 C1167 1.344 . S
O1169 Co1161 2.055 . S
O1169 C1173 1.253 . S
H1170 C1166 0.931 . S
H1171 C1167 0.930 . S
O1172 Co1161 2.039 . S
O1172 C1162 1.265 . S
C1173 O1169 1.253 . S
C1173 O1174 1.227 . S
O1174 C1173 1.227 . S
N1175 Co1161 2.140 . S
N1175 C1178 1.346 . S
N1175 C1179 1.345 . S
C1176 C1177 1.387 . S
C1176 C1180 1.391 . S
C1177 C1176 1.387 . S
C1177 C1178 1.369 . S
C1177 H1186 0.929 . S
C1178 N1175 1.346 . S
C1178 C1177 1.369 . S
C1178 H1181 0.928 . S
C1179 N1175 1.345 . S
C1179 C1180 1.371 . S
C1179 H1182 0.931 . S
C1180 C1176 1.391 . S
C1180 C1179 1.371 . S
C1180 H1187 0.930 . S
H1181 C1178 0.928 . S
H1182 C1179 0.931 . S
H1183 C1159 0.930 . S
H1184 C1156 0.930 . S
H1185 C1165 0.930 . S
H1186 C1177 0.929 . S
H1187 C1180 0.930 . S
C1188 C1189 1.351 . S
C1188 N1191 1.368 . S
C1188 H1193 0.931 . S
C1189 C1188 1.351 . S
C1189 N1190 1.373 . S
C1189 H1217 0.930 . S
N1190 C1189 1.373 . S
N1190 C1192 1.340 . S
N1191 C1188 1.368 . S
N1191 C1192 1.321 . S
N1191 Co1194 2.135 . S
C1192 N1190 1.340 . S
C1192 N1191 1.321 . S
C1192 H1216 0.930 . S
H1193 C1188 0.931 . S
Co1194 N1191 2.135 . S
Co1194 N1197 2.121 . S
Co1194 O1202 2.055 . S
Co1194 O1205 2.039 . S
Co1194 N1208 2.140 . S
C1195 O1196 1.227 . S
C1195 O1205 1.265 . S
O1196 C1195 1.227 . S
N1197 Co1194 2.121 . S
N1197 C1199 1.375 . S
N1197 C1200 1.313 . S
C1198 C1199 1.338 . S
C1198 N1201 1.377 . S
C1198 H1218 0.930 . S
C1199 N1197 1.375 . S
C1199 C1198 1.338 . S
C1199 H1203 0.931 . S
C1200 N1197 1.313 . S
C1200 N1201 1.344 . S
C1200 H1204 0.930 . S
N1201 C1198 1.377 . S
N1201 C1200 1.344 . S
O1202 Co1194 2.055 . S
O1202 C1206 1.253 . S
H1203 C1199 0.931 . S
H1204 C1200 0.930 . S
O1205 Co1194 2.039 . S
O1205 C1195 1.265 . S
C1206 O1202 1.253 . S
C1206 O1207 1.227 . S
O1207 C1206 1.227 . S
N1208 Co1194 2.140 . S
N1208 C1211 1.346 . S
N1208 C1212 1.345 . S
C1209 C1210 1.387 . S
C1209 C1213 1.391 . S
C1210 C1209 1.387 . S
C1210 C1211 1.369 . S
C1210 H1219 0.929 . S
C1211 N1208 1.346 . S
C1211 C1210 1.369 . S
C1211 H1214 0.928 . S
C1212 N1208 1.345 . S
C1212 C1213 1.371 . S
C1212 H1215 0.931 . S
C1213 C1209 1.391 . S
C1213 C1212 1.371 . S
C1213 H1220 0.930 . S
H1214 C1211 0.928 . S
H1215 C1212 0.931 . S
H1216 C1192 0.930 . S
H1217 C1189 0.930 . S
H1218 C1198 0.930 . S
H1219 C1210 0.929 . S
H1220 C1213 0.930 . S
C1221 C1222 1.351 . S
C1221 N1224 1.368 . S
C1221 H1226 0.931 . S
C1222 C1221 1.351 . S
C1222 N1223 1.373 . S
C1222 H1250 0.930 . S
N1223 C1222 1.373 . S
N1223 C1225 1.340 . S
N1224 C1221 1.368 . S
N1224 C1225 1.321 . S
N1224 Co1227 2.135 . S
C1225 N1223 1.340 . S
C1225 N1224 1.321 . S
C1225 H1249 0.930 . S
H1226 C1221 0.931 . S
Co1227 N1224 2.135 . S
Co1227 N1230 2.121 . S
Co1227 O1235 2.055 . S
Co1227 O1238 2.039 . S
Co1227 N1241 2.140 . S
C1228 O1229 1.227 . S
C1228 O1238 1.265 . S
O1229 C1228 1.227 . S
N1230 Co1227 2.121 . S
N1230 C1232 1.375 . S
N1230 C1233 1.313 . S
C1231 C1232 1.338 . S
C1231 N1234 1.377 . S
C1231 H1251 0.930 . S
C1232 N1230 1.375 . S
C1232 C1231 1.338 . S
C1232 H1236 0.931 . S
C1233 N1230 1.313 . S
C1233 N1234 1.344 . S
C1233 H1237 0.930 . S
N1234 C1231 1.377 . S
N1234 C1233 1.344 . S
O1235 Co1227 2.055 . S
O1235 C1239 1.253 . S
H1236 C1232 0.931 . S
H1237 C1233 0.930 . S
O1238 Co1227 2.039 . S
O1238 C1228 1.265 . S
C1239 O1235 1.253 . S
C1239 O1240 1.227 . S
O1240 C1239 1.227 . S
N1241 Co1227 2.140 . S
N1241 C1244 1.346 . S
N1241 C1245 1.345 . S
C1242 C1243 1.387 . S
C1242 C1246 1.391 . S
C1243 C1242 1.387 . S
C1243 C1244 1.369 . S
C1243 H1252 0.929 . S
C1244 N1241 1.346 . S
C1244 C1243 1.369 . S
C1244 H1247 0.928 . S
C1245 N1241 1.345 . S
C1245 C1246 1.371 . S
C1245 H1248 0.931 . S
C1246 C1242 1.391 . S
C1246 C1245 1.371 . S
C1246 H1253 0.930 . S
H1247 C1244 0.928 . S
H1248 C1245 0.931 . S
H1249 C1225 0.930 . S
H1250 C1222 0.930 . S
H1251 C1231 0.930 . S
H1252 C1243 0.929 . S
H1253 C1246 0.930 . S
C1254 C1255 1.351 . S
C1254 N1257 1.368 . S
C1254 H1259 0.931 . S
C1255 C1254 1.351 . S
C1255 N1256 1.373 . S
C1255 H1283 0.930 . S
N1256 C1255 1.373 . S
N1256 C1258 1.340 . S
N1257 C1254 1.368 . S
N1257 C1258 1.321 . S
N1257 Co1260 2.135 . S
C1258 N1256 1.340 . S
C1258 N1257 1.321 . S
C1258 H1282 0.930 . S
H1259 C1254 0.931 . S
Co1260 N1257 2.135 . S
Co1260 N1263 2.121 . S
Co1260 O1268 2.055 . S
Co1260 O1271 2.039 . S
Co1260 N1274 2.140 . S
C1261 O1262 1.227 . S
C1261 O1271 1.265 . S
O1262 C1261 1.227 . S
N1263 Co1260 2.121 . S
N1263 C1265 1.375 . S
N1263 C1266 1.313 . S
C1264 C1265 1.338 . S
C1264 N1267 1.377 . S
C1264 H1284 0.930 . S
C1265 N1263 1.375 . S
C1265 C1264 1.338 . S
C1265 H1269 0.931 . S
C1266 N1263 1.313 . S
C1266 N1267 1.344 . S
C1266 H1270 0.930 . S
N1267 C1264 1.377 . S
N1267 C1266 1.344 . S
O1268 Co1260 2.055 . S
O1268 C1272 1.253 . S
H1269 C1265 0.931 . S
H1270 C1266 0.930 . S
O1271 Co1260 2.039 . S
O1271 C1261 1.265 . S
C1272 O1268 1.253 . S
C1272 O1273 1.227 . S
O1273 C1272 1.227 . S
N1274 Co1260 2.140 . S
N1274 C1277 1.346 . S
N1274 C1278 1.345 . S
C1275 C1276 1.387 . S
C1275 C1279 1.391 . S
C1276 C1275 1.387 . S
C1276 C1277 1.369 . S
C1276 H1285 0.929 . S
C1277 N1274 1.346 . S
C1277 C1276 1.369 . S
C1277 H1280 0.928 . S
C1278 N1274 1.345 . S
C1278 C1279 1.371 . S
C1278 H1281 0.931 . S
C1279 C1275 1.391 . S
C1279 C1278 1.371 . S
C1279 H1286 0.930 . S
H1280 C1277 0.928 . S
H1281 C1278 0.931 . S
H1282 C1258 0.930 . S
H1283 C1255 0.930 . S
H1284 C1264 0.930 . S
H1285 C1276 0.929 . S
H1286 C1279 0.930 . S
C1287 C1288 1.351 . S
C1287 N1290 1.368 . S
C1287 H1292 0.931 . S
C1288 C1287 1.351 . S
C1288 N1289 1.373 . S
C1288 H1316 0.930 . S
N1289 C1288 1.373 . S
N1289 C1291 1.340 . S
N1290 C1287 1.368 . S
N1290 C1291 1.321 . S
N1290 Co1293 2.135 . S
C1291 N1289 1.340 . S
C1291 N1290 1.321 . S
C1291 H1315 0.930 . S
H1292 C1287 0.931 . S
Co1293 N1290 2.135 . S
Co1293 N1296 2.121 . S
Co1293 O1301 2.055 . S
Co1293 O1304 2.039 . S
Co1293 N1307 2.140 . S
C1294 O1295 1.227 . S
C1294 O1304 1.265 . S
O1295 C1294 1.227 . S
N1296 Co1293 2.121 . S
N1296 C1298 1.375 . S
N1296 C1299 1.313 . S
C1297 C1298 1.338 . S
C1297 N1300 1.377 . S
C1297 H1317 0.930 . S
C1298 N1296 1.375 . S
C1298 C1297 1.338 . S
C1298 H1302 0.931 . S
C1299 N1296 1.313 . S
C1299 N1300 1.344 . S
C1299 H1303 0.930 . S
N1300 C1297 1.377 . S
N1300 C1299 1.344 . S
O1301 Co1293 2.055 . S
O1301 C1305 1.253 . S
H1302 C1298 0.931 . S
H1303 C1299 0.930 . S
O1304 Co1293 2.039 . S
O1304 C1294 1.265 . S
C1305 O1301 1.253 . S
C1305 O1306 1.227 . S
O1306 C1305 1.227 . S
N1307 Co1293 2.140 . S
N1307 C1310 1.346 . S
N1307 C1311 1.345 . S
C1308 C1309 1.387 . S
C1308 C1312 1.391 . S
C1309 C1308 1.387 . S
C1309 C1310 1.369 . S
C1309 H1318 0.929 . S
C1310 N1307 1.346 . S
C1310 C1309 1.369 . S
C1310 H1313 0.928 . S
C1311 N1307 1.345 . S
C1311 C1312 1.371 . S
C1311 H1314 0.931 . S
C1312 C1308 1.391 . S
C1312 C1311 1.371 . S
C1312 H1319 0.930 . S
H1313 C1310 0.928 . S
H1314 C1311 0.931 . S
H1315 C1291 0.930 . S
H1316 C1288 0.930 . S
H1317 C1297 0.930 . S
H1318 C1309 0.929 . S
H1319 C1312 0.930 . S
C1320 C1321 1.351 . S
C1320 N1323 1.368 . S
C1320 H1325 0.931 . S
C1321 C1320 1.351 . S
C1321 N1322 1.373 . S
C1321 H1349 0.930 . S
N1322 C1321 1.373 . S
N1322 C1324 1.340 . S
N1323 C1320 1.368 . S
N1323 C1324 1.321 . S
N1323 Co1326 2.135 . S
C1324 N1322 1.340 . S
C1324 N1323 1.321 . S
C1324 H1348 0.930 . S
H1325 C1320 0.931 . S
Co1326 N1323 2.135 . S
Co1326 N1329 2.121 . S
Co1326 O1334 2.055 . S
Co1326 O1337 2.039 . S
Co1326 N1340 2.140 . S
C1327 O1328 1.227 . S
C1327 O1337 1.265 . S
O1328 C1327 1.227 . S
N1329 Co1326 2.121 . S
N1329 C1331 1.375 . S
N1329 C1332 1.313 . S
C1330 C1331 1.338 . S
C1330 N1333 1.377 . S
C1330 H1350 0.930 . S
C1331 N1329 1.375 . S
C1331 C1330 1.338 . S
C1331 H1335 0.931 . S
C1332 N1329 1.313 . S
C1332 N1333 1.344 . S
C1332 H1336 0.930 . S
N1333 C1330 1.377 . S
N1333 C1332 1.344 . S
O1334 Co1326 2.055 . S
O1334 C1338 1.253 . S
H1335 C1331 0.931 . S
H1336 C1332 0.930 . S
O1337 Co1326 2.039 . S
O1337 C1327 1.265 . S
C1338 O1334 1.253 . S
C1338 O1339 1.227 . S
O1339 C1338 1.227 . S
N1340 Co1326 2.140 . S
N1340 C1343 1.346 . S
N1340 C1344 1.345 . S
C1341 C1342 1.387 . S
C1341 C1345 1.391 . S
C1342 C1341 1.387 . S
C1342 C1343 1.369 . S
C1342 H1351 0.929 . S
C1343 N1340 1.346 . S
C1343 C1342 1.369 . S
C1343 H1346 0.928 . S
C1344 N1340 1.345 . S
C1344 C1345 1.371 . S
C1344 H1347 0.931 . S
C1345 C1341 1.391 . S
C1345 C1344 1.371 . S
C1345 H1352 0.930 . S
H1346 C1343 0.928 . S
H1347 C1344 0.931 . S
H1348 C1324 0.930 . S
H1349 C1321 0.930 . S
H1350 C1330 0.930 . S
H1351 C1342 0.929 . S
H1352 C1345 0.930 . S
C1353 C1354 1.351 . S
C1353 N1356 1.368 . S
C1353 H1358 0.931 . S
C1354 C1353 1.351 . S
C1354 N1355 1.373 . S
C1354 H1382 0.930 . S
N1355 C1354 1.373 . S
N1355 C1357 1.340 . S
N1356 C1353 1.368 . S
N1356 C1357 1.321 . S
N1356 Co1359 2.135 . S
C1357 N1355 1.340 . S
C1357 N1356 1.321 . S
C1357 H1381 0.930 . S
H1358 C1353 0.931 . S
Co1359 N1356 2.135 . S
Co1359 N1362 2.121 . S
Co1359 O1367 2.055 . S
Co1359 O1370 2.039 . S
Co1359 N1373 2.140 . S
C1360 O1361 1.227 . S
C1360 O1370 1.265 . S
O1361 C1360 1.227 . S
N1362 Co1359 2.121 . S
N1362 C1364 1.375 . S
N1362 C1365 1.313 . S
C1363 C1364 1.338 . S
C1363 N1366 1.377 . S
C1363 H1383 0.930 . S
C1364 N1362 1.375 . S
C1364 C1363 1.338 . S
C1364 H1368 0.931 . S
C1365 N1362 1.313 . S
C1365 N1366 1.344 . S
C1365 H1369 0.930 . S
N1366 C1363 1.377 . S
N1366 C1365 1.344 . S
O1367 Co1359 2.055 . S
O1367 C1371 1.253 . S
H1368 C1364 0.931 . S
H1369 C1365 0.930 . S
O1370 Co1359 2.039 . S
O1370 C1360 1.265 . S
C1371 O1367 1.253 . S
C1371 O1372 1.227 . S
O1372 C1371 1.227 . S
N1373 Co1359 2.140 . S
N1373 C1376 1.346 . S
N1373 C1377 1.345 . S
C1374 C1375 1.387 . S
C1374 C1378 1.391 . S
C1375 C1374 1.387 . S
C1375 C1376 1.369 . S
C1375 H1384 0.929 . S
C1376 N1373 1.346 . S
C1376 C1375 1.369 . S
C1376 H1379 0.928 . S
C1377 N1373 1.345 . S
C1377 C1378 1.371 . S
C1377 H1380 0.931 . S
C1378 C1374 1.391 . S
C1378 C1377 1.371 . S
C1378 H1385 0.930 . S
H1379 C1376 0.928 . S
H1380 C1377 0.931 . S
H1381 C1357 0.930 . S
H1382 C1354 0.930 . S
H1383 C1363 0.930 . S
H1384 C1375 0.929 . S
H1385 C1378 0.930 . S
C1386 C1387 1.351 . S
C1386 N1389 1.368 . S
C1386 H1391 0.931 . S
C1387 C1386 1.351 . S
C1387 N1388 1.373 . S
C1387 H1415 0.930 . S
N1388 C1387 1.373 . S
N1388 C1390 1.340 . S
N1389 C1386 1.368 . S
N1389 C1390 1.321 . S
N1389 Co1392 2.135 . S
C1390 N1388 1.340 . S
C1390 N1389 1.321 . S
C1390 H1414 0.930 . S
H1391 C1386 0.931 . S
Co1392 N1389 2.135 . S
Co1392 N1395 2.121 . S
Co1392 O1400 2.055 . S
Co1392 O1403 2.039 . S
Co1392 N1406 2.140 . S
C1393 O1394 1.227 . S
C1393 O1403 1.265 . S
O1394 C1393 1.227 . S
N1395 Co1392 2.121 . S
N1395 C1397 1.375 . S
N1395 C1398 1.313 . S
C1396 C1397 1.338 . S
C1396 N1399 1.377 . S
C1396 H1416 0.930 . S
C1397 N1395 1.375 . S
C1397 C1396 1.338 . S
C1397 H1401 0.931 . S
C1398 N1395 1.313 . S
C1398 N1399 1.344 . S
C1398 H1402 0.930 . S
N1399 C1396 1.377 . S
N1399 C1398 1.344 . S
O1400 Co1392 2.055 . S
O1400 C1404 1.253 . S
H1401 C1397 0.931 . S
H1402 C1398 0.930 . S
O1403 Co1392 2.039 . S
O1403 C1393 1.265 . S
C1404 O1400 1.253 . S
C1404 O1405 1.227 . S
O1405 C1404 1.227 . S
N1406 Co1392 2.140 . S
N1406 C1409 1.346 . S
N1406 C1410 1.345 . S
C1407 C1408 1.387 . S
C1407 C1411 1.391 . S
C1408 C1407 1.387 . S
C1408 C1409 1.369 . S
C1408 H1417 0.929 . S
C1409 N1406 1.346 . S
C1409 C1408 1.369 . S
C1409 H1412 0.928 . S
C1410 N1406 1.345 . S
C1410 C1411 1.371 . S
C1410 H1413 0.931 . S
C1411 C1407 1.391 . S
C1411 C1410 1.371 . S
C1411 H1418 0.930 . S
H1412 C1409 0.928 . S
H1413 C1410 0.931 . S
H1414 C1390 0.930 . S
H1415 C1387 0.930 . S
H1416 C1396 0.930 . S
H1417 C1408 0.929 . S
H1418 C1411 0.930 . S
C1419 C1420 1.351 . S
C1419 N1422 1.368 . S
C1419 H1424 0.931 . S
C1420 C1419 1.351 . S
C1420 N1421 1.373 . S
C1420 H1448 0.930 . S
N1421 C1420 1.373 . S
N1421 C1423 1.340 . S
N1422 C1419 1.368 . S
N1422 C1423 1.321 . S
N1422 Co1425 2.135 . S
C1423 N1421 1.340 . S
C1423 N1422 1.321 . S
C1423 H1447 0.930 . S
H1424 C1419 0.931 . S
Co1425 N1422 2.135 . S
Co1425 N1428 2.121 . S
Co1425 O1433 2.055 . S
Co1425 O1436 2.039 . S
Co1425 N1439 2.140 . S
C1426 O1427 1.227 . S
C1426 O1436 1.265 . S
O1427 C1426 1.227 . S
N1428 Co1425 2.121 . S
N1428 C1430 1.375 . S
N1428 C1431 1.313 . S
C1429 C1430 1.338 . S
C1429 N1432 1.377 . S
C1429 H1449 0.930 . S
C1430 N1428 1.375 . S
C1430 C1429 1.338 . S
C1430 H1434 0.931 . S
C1431 N1428 1.313 . S
C1431 N1432 1.344 . S
C1431 H1435 0.930 . S
N1432 C1429 1.377 . S
N1432 C1431 1.344 . S
O1433 Co1425 2.055 . S
O1433 C1437 1.253 . S
H1434 C1430 0.931 . S
H1435 C1431 0.930 . S
O1436 Co1425 2.039 . S
O1436 C1426 1.265 . S
C1437 O1433 1.253 . S
C1437 O1438 1.227 . S
O1438 C1437 1.227 . S
N1439 Co1425 2.140 . S
N1439 C1442 1.346 . S
N1439 C1443 1.345 . S
C1440 C1441 1.387 . S
C1440 C1444 1.391 . S
C1441 C1440 1.387 . S
C1441 C1442 1.369 . S
C1441 H1450 0.929 . S
C1442 N1439 1.346 . S
C1442 C1441 1.369 . S
C1442 H1445 0.928 . S
C1443 N1439 1.345 . S
C1443 C1444 1.371 . S
C1443 H1446 0.931 . S
C1444 C1440 1.391 . S
C1444 C1443 1.371 . S
C1444 H1451 0.930 . S
H1445 C1442 0.928 . S
H1446 C1443 0.931 . S
H1447 C1423 0.930 . S
H1448 C1420 0.930 . S
H1449 C1429 0.930 . S
H1450 C1441 0.929 . S
H1451 C1444 0.930 . S
C1452 C1453 1.351 . S
C1452 N1455 1.368 . S
C1452 H1457 0.931 . S
C1453 C1452 1.351 . S
C1453 N1454 1.373 . S
C1453 H1481 0.930 . S
N1454 C1453 1.373 . S
N1454 C1456 1.340 . S
N1455 C1452 1.368 . S
N1455 C1456 1.321 . S
N1455 Co1458 2.135 . S
C1456 N1454 1.340 . S
C1456 N1455 1.321 . S
C1456 H1480 0.930 . S
H1457 C1452 0.931 . S
Co1458 N1455 2.135 . S
Co1458 N1461 2.121 . S
Co1458 O1466 2.055 . S
Co1458 O1469 2.039 . S
Co1458 N1472 2.140 . S
C1459 O1460 1.227 . S
C1459 O1469 1.265 . S
O1460 C1459 1.227 . S
N1461 Co1458 2.121 . S
N1461 C1463 1.375 . S
N1461 C1464 1.313 . S
C1462 C1463 1.338 . S
C1462 N1465 1.377 . S
C1462 H1482 0.930 . S
C1463 N1461 1.375 . S
C1463 C1462 1.338 . S
C1463 H1467 0.931 . S
C1464 N1461 1.313 . S
C1464 N1465 1.344 . S
C1464 H1468 0.930 . S
N1465 C1462 1.377 . S
N1465 C1464 1.344 . S
O1466 Co1458 2.055 . S
O1466 C1470 1.253 . S
H1467 C1463 0.931 . S
H1468 C1464 0.930 . S
O1469 Co1458 2.039 . S
O1469 C1459 1.265 . S
C1470 O1466 1.253 . S
C1470 O1471 1.227 . S
O1471 C1470 1.227 . S
N1472 Co1458 2.140 . S
N1472 C1475 1.346 . S
N1472 C1476 1.345 . S
C1473 C1474 1.387 . S
C1473 C1477 1.391 . S
C1474 C1473 1.387 . S
C1474 C1475 1.369 . S
C1474 H1483 0.929 . S
C1475 N1472 1.346 . S
C1475 C1474 1.369 . S
C1475 H1478 0.928 . S
C1476 N1472 1.345 . S
C1476 C1477 1.371 . S
C1476 H1479 0.931 . S
C1477 C1473 1.391 . S
C1477 C1476 1.371 . S
C1477 H1484 0.930 . S
H1478 C1475 0.928 . S
H1479 C1476 0.931 . S
H1480 C1456 0.930 . S
H1481 C1453 0.930 . S
H1482 C1462 0.930 . S
H1483 C1474 0.929 . S
H1484 C1477 0.930 . S
C1485 C1486 1.351 . S
C1485 N1488 1.368 . S
C1485 H1490 0.931 . S
C1486 C1485 1.351 . S
C1486 N1487 1.373 . S
C1486 H1514 0.930 . S
N1487 C1486 1.373 . S
N1487 C1489 1.340 . S
N1488 C1485 1.368 . S
N1488 C1489 1.321 . S
N1488 Co1491 2.135 . S
C1489 N1487 1.340 . S
C1489 N1488 1.321 . S
C1489 H1513 0.930 . S
H1490 C1485 0.931 . S
Co1491 N1488 2.135 . S
Co1491 N1494 2.121 . S
Co1491 O1499 2.055 . S
Co1491 O1502 2.039 . S
Co1491 N1505 2.140 . S
C1492 O1493 1.227 . S
C1492 O1502 1.265 . S
O1493 C1492 1.227 . S
N1494 Co1491 2.121 . S
N1494 C1496 1.375 . S
N1494 C1497 1.313 . S
C1495 C1496 1.338 . S
C1495 N1498 1.377 . S
C1495 H1515 0.930 . S
C1496 N1494 1.375 . S
C1496 C1495 1.338 . S
C1496 H1500 0.931 . S
C1497 N1494 1.313 . S
C1497 N1498 1.344 . S
C1497 H1501 0.930 . S
N1498 C1495 1.377 . S
N1498 C1497 1.344 . S
O1499 Co1491 2.055 . S
O1499 C1503 1.253 . S
H1500 C1496 0.931 . S
H1501 C1497 0.930 . S
O1502 Co1491 2.039 . S
O1502 C1492 1.265 . S
C1503 O1499 1.253 . S
C1503 O1504 1.227 . S
O1504 C1503 1.227 . S
N1505 Co1491 2.140 . S
N1505 C1508 1.346 . S
N1505 C1509 1.345 . S
C1506 C1507 1.387 . S
C1506 C1510 1.391 . S
C1507 C1506 1.387 . S
C1507 C1508 1.369 . S
C1507 H1516 0.929 . S
C1508 N1505 1.346 . S
C1508 C1507 1.369 . S
C1508 H1511 0.928 . S
C1509 N1505 1.345 . S
C1509 C1510 1.371 . S
C1509 H1512 0.931 . S
C1510 C1506 1.391 . S
C1510 C1509 1.371 . S
C1510 H1517 0.930 . S
H1511 C1508 0.928 . S
H1512 C1509 0.931 . S
H1513 C1489 0.930 . S
H1514 C1486 0.930 . S
H1515 C1495 0.930 . S
H1516 C1507 0.929 . S
H1517 C1510 0.930 . S
C1518 C1519 1.351 . S
C1518 N1521 1.368 . S
C1518 H1523 0.931 . S
C1519 C1518 1.351 . S
C1519 N1520 1.373 . S
C1519 H1547 0.930 . S
N1520 C1519 1.373 . S
N1520 C1522 1.340 . S
N1521 C1518 1.368 . S
N1521 C1522 1.321 . S
N1521 Co1524 2.135 . S
C1522 N1520 1.340 . S
C1522 N1521 1.321 . S
C1522 H1546 0.930 . S
H1523 C1518 0.931 . S
Co1524 N1521 2.135 . S
Co1524 N1527 2.121 . S
Co1524 O1532 2.055 . S
Co1524 O1535 2.039 . S
Co1524 N1538 2.140 . S
C1525 O1526 1.227 . S
C1525 O1535 1.265 . S
O1526 C1525 1.227 . S
N1527 Co1524 2.121 . S
N1527 C1529 1.375 . S
N1527 C1530 1.313 . S
C1528 C1529 1.338 . S
C1528 N1531 1.377 . S
C1528 H1548 0.930 . S
C1529 N1527 1.375 . S
C1529 C1528 1.338 . S
C1529 H1533 0.931 . S
C1530 N1527 1.313 . S
C1530 N1531 1.344 . S
C1530 H1534 0.930 . S
N1531 C1528 1.377 . S
N1531 C1530 1.344 . S
O1532 Co1524 2.055 . S
O1532 C1536 1.253 . S
H1533 C1529 0.931 . S
H1534 C1530 0.930 . S
O1535 Co1524 2.039 . S
O1535 C1525 1.265 . S
C1536 O1532 1.253 . S
C1536 O1537 1.227 . S
O1537 C1536 1.227 . S
N1538 Co1524 2.140 . S
N1538 C1541 1.346 . S
N1538 C1542 1.345 . S
C1539 C1540 1.387 . S
C1539 C1543 1.391 . S
C1540 C1539 1.387 . S
C1540 C1541 1.369 . S
C1540 H1549 0.929 . S
C1541 N1538 1.346 . S
C1541 C1540 1.369 . S
C1541 H1544 0.928 . S
C1542 N1538 1.345 . S
C1542 C1543 1.371 . S
C1542 H1545 0.931 . S
C1543 C1539 1.391 . S
C1543 C1542 1.371 . S
C1543 H1550 0.930 . S
H1544 C1541 0.928 . S
H1545 C1542 0.931 . S
H1546 C1522 0.930 . S
H1547 C1519 0.930 . S
H1548 C1528 0.930 . S
H1549 C1540 0.929 . S
H1550 C1543 0.930 . S
C1551 C1552 1.351 . S
C1551 N1554 1.368 . S
C1551 H1556 0.931 . S
C1552 C1551 1.351 . S
C1552 N1553 1.373 . S
C1552 H1580 0.930 . S
N1553 C1552 1.373 . S
N1553 C1555 1.340 . S
N1554 C1551 1.368 . S
N1554 C1555 1.321 . S
N1554 Co1557 2.135 . S
C1555 N1553 1.340 . S
C1555 N1554 1.321 . S
C1555 H1579 0.930 . S
H1556 C1551 0.931 . S
Co1557 N1554 2.135 . S
Co1557 N1560 2.121 . S
Co1557 O1565 2.055 . S
Co1557 O1568 2.039 . S
Co1557 N1571 2.140 . S
C1558 O1559 1.227 . S
C1558 O1568 1.265 . S
O1559 C1558 1.227 . S
N1560 Co1557 2.121 . S
N1560 C1562 1.375 . S
N1560 C1563 1.313 . S
C1561 C1562 1.338 . S
C1561 N1564 1.377 . S
C1561 H1581 0.930 . S
C1562 N1560 1.375 . S
C1562 C1561 1.338 . S
C1562 H1566 0.931 . S
C1563 N1560 1.313 . S
C1563 N1564 1.344 . S
C1563 H1567 0.930 . S
N1564 C1561 1.377 . S
N1564 C1563 1.344 . S
O1565 Co1557 2.055 . S
O1565 C1569 1.253 . S
H1566 C1562 0.931 . S
H1567 C1563 0.930 . S
O1568 Co1557 2.039 . S
O1568 C1558 1.265 . S
C1569 O1565 1.253 . S
C1569 O1570 1.227 . S
O1570 C1569 1.227 . S
N1571 Co1557 2.140 . S
N1571 C1574 1.346 . S
N1571 C1575 1.345 . S
C1572 C1573 1.387 . S
C1572 C1576 1.391 . S
C1573 C1572 1.387 . S
C1573 C1574 1.369 . S
C1573 H1582 0.929 . S
C1574 N1571 1.346 . S
C1574 C1573 1.369 . S
C1574 H1577 0.928 . S
C1575 N1571 1.345 . S
C1575 C1576 1.371 . S
C1575 H1578 0.931 . S
C1576 C1572 1.391 . S
C1576 C1575 1.371 . S
C1576 H1583 0.930 . S
H1577 C1574 0.928 . S
H1578 C1575 0.931 . S
H1579 C1555 0.930 . S
H1580 C1552 0.930 . S
H1581 C1561 0.930 . S
H1582 C1573 0.929 . S
H1583 C1576 0.930 . S
H1584 C1590 0.930 . S
H1585 C1594 0.930 . S
H1586 C1599 0.929 . S
H1587 C1597 0.929 . S
H1588 C1592 0.929 . S
H1589 C1598 0.929 . S
C1590 H1584 0.930 . S
C1590 C1591 1.367 . S
C1590 C1598 1.378 . S
C1591 C1590 1.367 . S
C1591 C1599 1.433 . S
C1592 H1588 0.929 . S
C1592 C1594 1.378 . S
C1592 C1596 1.350 . S
C1593 C1596 1.463 . S
C1593 C1598 1.350 . S
C1593 N1601 1.427 . S
C1594 H1585 0.930 . S
C1594 C1592 1.378 . S
C1594 C1595 1.367 . S
C1595 C1594 1.367 . S
C1595 C1597 1.433 . S
C1596 C1592 1.350 . S
C1596 C1593 1.463 . S
C1596 N1600 1.427 . S
C1597 H1587 0.929 . S
C1597 C1595 1.433 . S
C1597 N1600 1.384 . S
C1598 H1589 0.929 . S
C1598 C1590 1.378 . S
C1598 C1593 1.350 . S
C1599 H1586 0.929 . S
C1599 C1591 1.433 . S
C1599 N1601 1.384 . S
N1600 C1596 1.427 . S
N1600 C1597 1.384 . S
N1601 C1593 1.427 . S
N1601 C1599 1.384 . S
H1602 C1608 0.930 . S
H1603 C1612 0.930 . S
H1604 C1617 0.929 . S
H1605 C1615 0.929 . S
H1606 C1610 0.929 . S
H1607 C1616 0.929 . S
C1608 H1602 0.930 . S
C1608 C1609 1.367 . S
C1608 C1616 1.378 . S
C1609 C1608 1.367 . S
C1609 C1617 1.433 . S
C1610 H1606 0.929 . S
C1610 C1612 1.378 . S
C1610 C1614 1.350 . S
C1611 C1614 1.463 . S
C1611 C1616 1.350 . S
C1611 N1619 1.427 . S
C1612 H1603 0.930 . S
C1612 C1610 1.378 . S
C1612 C1613 1.367 . S
C1613 C1612 1.367 . S
C1613 C1615 1.433 . S
C1614 C1610 1.350 . S
C1614 C1611 1.463 . S
C1614 N1618 1.427 . S
C1615 H1605 0.929 . S
C1615 C1613 1.433 . S
C1615 N1618 1.384 . S
C1616 H1607 0.929 . S
C1616 C1608 1.378 . S
C1616 C1611 1.350 . S
C1617 H1604 0.929 . S
C1617 C1609 1.433 . S
C1617 N1619 1.384 . S
N1618 C1614 1.427 . S
N1618 C1615 1.384 . S
N1619 C1611 1.427 . S
N1619 C1617 1.384 . S
H1620 C1626 0.930 . S
H1621 C1630 0.930 . S
H1622 C1635 0.929 . S
H1623 C1633 0.929 . S
H1624 C1628 0.929 . S
H1625 C1634 0.929 . S
C1626 H1620 0.930 . S
C1626 C1627 1.367 . S
C1626 C1634 1.378 . S
C1627 C1626 1.367 . S
C1627 C1635 1.433 . S
C1628 H1624 0.929 . S
C1628 C1630 1.378 . S
C1628 C1632 1.350 . S
C1629 C1632 1.463 . S
C1629 C1634 1.350 . S
C1629 N1637 1.427 . S
C1630 H1621 0.930 . S
C1630 C1628 1.378 . S
C1630 C1631 1.367 . S
C1631 C1630 1.367 . S
C1631 C1633 1.433 . S
C1632 C1628 1.350 . S
C1632 C1629 1.463 . S
C1632 N1636 1.427 . S
C1633 H1623 0.929 . S
C1633 C1631 1.433 . S
C1633 N1636 1.384 . S
C1634 H1625 0.929 . S
C1634 C1626 1.378 . S
C1634 C1629 1.350 . S
C1635 H1622 0.929 . S
C1635 C1627 1.433 . S
C1635 N1637 1.384 . S
N1636 C1632 1.427 . S
N1636 C1633 1.384 . S
N1637 C1629 1.427 . S
N1637 C1635 1.384 . S
H1638 C1644 0.930 . S
H1639 C1648 0.930 . S
H1640 C1653 0.929 . S
H1641 C1651 0.929 . S
H1642 C1646 0.929 . S
H1643 C1652 0.929 . S
C1644 H1638 0.930 . S
C1644 C1645 1.367 . S
C1644 C1652 1.378 . S
C1645 C1644 1.367 . S
C1645 C1653 1.433 . S
C1646 H1642 0.929 . S
C1646 C1648 1.378 . S
C1646 C1650 1.350 . S
C1647 C1650 1.463 . S
C1647 C1652 1.350 . S
C1647 N1655 1.427 . S
C1648 H1639 0.930 . S
C1648 C1646 1.378 . S
C1648 C1649 1.367 . S
C1649 C1648 1.367 . S
C1649 C1651 1.433 . S
C1650 C1646 1.350 . S
C1650 C1647 1.463 . S
C1650 N1654 1.427 . S
C1651 H1641 0.929 . S
C1651 C1649 1.433 . S
C1651 N1654 1.384 . S
C1652 H1643 0.929 . S
C1652 C1644 1.378 . S
C1652 C1647 1.350 . S
C1653 H1640 0.929 . S
C1653 C1645 1.433 . S
C1653 N1655 1.384 . S
N1654 C1650 1.427 . S
N1654 C1651 1.384 . S
N1655 C1647 1.427 . S
N1655 C1653 1.384 . S
H1656 C1662 0.930 . S
H1657 C1666 0.930 . S
H1658 C1671 0.929 . S
H1659 C1669 0.929 . S
H1660 C1664 0.929 . S
H1661 C1670 0.929 . S
C1662 H1656 0.930 . S
C1662 C1663 1.367 . S
C1662 C1670 1.378 . S
C1663 C1662 1.367 . S
C1663 C1671 1.433 . S
C1664 H1660 0.929 . S
C1664 C1666 1.378 . S
C1664 C1668 1.350 . S
C1665 C1668 1.463 . S
C1665 C1670 1.350 . S
C1665 N1673 1.427 . S
C1666 H1657 0.930 . S
C1666 C1664 1.378 . S
C1666 C1667 1.367 . S
C1667 C1666 1.367 . S
C1667 C1669 1.433 . S
C1668 C1664 1.350 . S
C1668 C1665 1.463 . S
C1668 N1672 1.427 . S
C1669 H1659 0.929 . S
C1669 C1667 1.433 . S
C1669 N1672 1.384 . S
C1670 H1661 0.929 . S
C1670 C1662 1.378 . S
C1670 C1665 1.350 . S
C1671 H1658 0.929 . S
C1671 C1663 1.433 . S
C1671 N1673 1.384 . S
N1672 C1668 1.427 . S
N1672 C1669 1.384 . S
N1673 C1665 1.427 . S
N1673 C1671 1.384 . S
H1674 C1680 0.930 . S
H1675 C1684 0.930 . S
H1676 C1689 0.929 . S
H1677 C1687 0.929 . S
H1678 C1682 0.929 . S
H1679 C1688 0.929 . S
C1680 H1674 0.930 . S
C1680 C1681 1.367 . S
C1680 C1688 1.378 . S
C1681 C1680 1.367 . S
C1681 C1689 1.433 . S
C1682 H1678 0.929 . S
C1682 C1684 1.378 . S
C1682 C1686 1.350 . S
C1683 C1686 1.463 . S
C1683 C1688 1.350 . S
C1683 N1691 1.427 . S
C1684 H1675 0.930 . S
C1684 C1682 1.378 . S
C1684 C1685 1.367 . S
C1685 C1684 1.367 . S
C1685 C1687 1.433 . S
C1686 C1682 1.350 . S
C1686 C1683 1.463 . S
C1686 N1690 1.427 . S
C1687 H1677 0.929 . S
C1687 C1685 1.433 . S
C1687 N1690 1.384 . S
C1688 H1679 0.929 . S
C1688 C1680 1.378 . S
C1688 C1683 1.350 . S
C1689 H1676 0.929 . S
C1689 C1681 1.433 . S
C1689 N1691 1.384 . S
N1690 C1686 1.427 . S
N1690 C1687 1.384 . S
N1691 C1683 1.427 . S
N1691 C1689 1.384 . S
H1692 C1698 0.930 . S
H1693 C1702 0.930 . S
H1694 C1707 0.929 . S
H1695 C1705 0.929 . S
H1696 C1700 0.929 . S
H1697 C1706 0.929 . S
C1698 H1692 0.930 . S
C1698 C1699 1.367 . S
C1698 C1706 1.378 . S
C1699 C1698 1.367 . S
C1699 C1707 1.433 . S
C1700 H1696 0.929 . S
C1700 C1702 1.378 . S
C1700 C1704 1.350 . S
C1701 C1704 1.463 . S
C1701 C1706 1.350 . S
C1701 N1709 1.427 . S
C1702 H1693 0.930 . S
C1702 C1700 1.378 . S
C1702 C1703 1.367 . S
C1703 C1702 1.367 . S
C1703 C1705 1.433 . S
C1704 C1700 1.350 . S
C1704 C1701 1.463 . S
C1704 N1708 1.427 . S
C1705 H1695 0.929 . S
C1705 C1703 1.433 . S
C1705 N1708 1.384 . S
C1706 H1697 0.929 . S
C1706 C1698 1.378 . S
C1706 C1701 1.350 . S
C1707 H1694 0.929 . S
C1707 C1699 1.433 . S
C1707 N1709 1.384 . S
N1708 C1704 1.427 . S
N1708 C1705 1.384 . S
N1709 C1701 1.427 . S
N1709 C1707 1.384 . S
H1710 C1716 0.930 . S
H1711 C1720 0.930 . S
H1712 C1725 0.929 . S
H1713 C1723 0.929 . S
H1714 C1718 0.929 . S
H1715 C1724 0.929 . S
C1716 H1710 0.930 . S
C1716 C1717 1.367 . S
C1716 C1724 1.378 . S
C1717 C1716 1.367 . S
C1717 C1725 1.433 . S
C1718 H1714 0.929 . S
C1718 C1720 1.378 . S
C1718 C1722 1.350 . S
C1719 C1722 1.463 . S
C1719 C1724 1.350 . S
C1719 N1727 1.427 . S
C1720 H1711 0.930 . S
C1720 C1718 1.378 . S
C1720 C1721 1.367 . S
C1721 C1720 1.367 . S
C1721 C1723 1.433 . S
C1722 C1718 1.350 . S
C1722 C1719 1.463 . S
C1722 N1726 1.427 . S
C1723 H1713 0.929 . S
C1723 C1721 1.433 . S
C1723 N1726 1.384 . S
C1724 H1715 0.929 . S
C1724 C1716 1.378 . S
C1724 C1719 1.350 . S
C1725 H1712 0.929 . S
C1725 C1717 1.433 . S
C1725 N1727 1.384 . S
N1726 C1722 1.427 . S
N1726 C1723 1.384 . S
N1727 C1719 1.427 . S
N1727 C1725 1.384 . S
H1728 C1734 0.930 . S
H1729 C1738 0.930 . S
H1730 C1743 0.929 . S
H1731 C1741 0.929 . S
H1732 C1736 0.929 . S
H1733 C1742 0.929 . S
C1734 H1728 0.930 . S
C1734 C1735 1.367 . S
C1734 C1742 1.378 . S
C1735 C1734 1.367 . S
C1735 C1743 1.433 . S
C1736 H1732 0.929 . S
C1736 C1738 1.378 . S
C1736 C1740 1.350 . S
C1737 C1740 1.463 . S
C1737 C1742 1.350 . S
C1737 N1745 1.427 . S
C1738 H1729 0.930 . S
C1738 C1736 1.378 . S
C1738 C1739 1.367 . S
C1739 C1738 1.367 . S
C1739 C1741 1.433 . S
C1740 C1736 1.350 . S
C1740 C1737 1.463 . S
C1740 N1744 1.427 . S
C1741 H1731 0.929 . S
C1741 C1739 1.433 . S
C1741 N1744 1.384 . S
C1742 H1733 0.929 . S
C1742 C1734 1.378 . S
C1742 C1737 1.350 . S
C1743 H1730 0.929 . S
C1743 C1735 1.433 . S
C1743 N1745 1.384 . S
N1744 C1740 1.427 . S
N1744 C1741 1.384 . S
N1745 C1737 1.427 . S
N1745 C1743 1.384 . S
H1746 C1752 0.930 . S
H1747 C1756 0.930 . S
H1748 C1761 0.929 . S
H1749 C1759 0.929 . S
H1750 C1754 0.929 . S
H1751 C1760 0.929 . S
C1752 H1746 0.930 . S
C1752 C1753 1.367 . S
C1752 C1760 1.378 . S
C1753 C1752 1.367 . S
C1753 C1761 1.433 . S
C1754 H1750 0.929 . S
C1754 C1756 1.378 . S
C1754 C1758 1.350 . S
C1755 C1758 1.463 . S
C1755 C1760 1.350 . S
C1755 N1763 1.427 . S
C1756 H1747 0.930 . S
C1756 C1754 1.378 . S
C1756 C1757 1.367 . S
C1757 C1756 1.367 . S
C1757 C1759 1.433 . S
C1758 C1754 1.350 . S
C1758 C1755 1.463 . S
C1758 N1762 1.427 . S
C1759 H1749 0.929 . S
C1759 C1757 1.433 . S
C1759 N1762 1.384 . S
C1760 H1751 0.929 . S
C1760 C1752 1.378 . S
C1760 C1755 1.350 . S
C1761 H1748 0.929 . S
C1761 C1753 1.433 . S
C1761 N1763 1.384 . S
N1762 C1758 1.427 . S
N1762 C1759 1.384 . S
N1763 C1755 1.427 . S
N1763 C1761 1.384 . S
H1764 C1770 0.930 . S
H1765 C1774 0.930 . S
H1766 C1779 0.929 . S
H1767 C1777 0.929 . S
H1768 C1772 0.929 . S
H1769 C1778 0.929 . S
C1770 H1764 0.930 . S
C1770 C1771 1.367 . S
C1770 C1778 1.378 . S
C1771 C1770 1.367 . S
C1771 C1779 1.433 . S
C1772 H1768 0.929 . S
C1772 C1774 1.378 . S
C1772 C1776 1.350 . S
C1773 C1776 1.463 . S
C1773 C1778 1.350 . S
C1773 N1781 1.427 . S
C1774 H1765 0.930 . S
C1774 C1772 1.378 . S
C1774 C1775 1.367 . S
C1775 C1774 1.367 . S
C1775 C1777 1.433 . S
C1776 C1772 1.350 . S
C1776 C1773 1.463 . S
C1776 N1780 1.427 . S
C1777 H1767 0.929 . S
C1777 C1775 1.433 . S
C1777 N1780 1.384 . S
C1778 H1769 0.929 . S
C1778 C1770 1.378 . S
C1778 C1773 1.350 . S
C1779 H1766 0.929 . S
C1779 C1771 1.433 . S
C1779 N1781 1.384 . S
N1780 C1776 1.427 . S
N1780 C1777 1.384 . S
N1781 C1773 1.427 . S
N1781 C1779 1.384 . S
H1782 C1788 0.930 . S
H1783 C1792 0.930 . S
H1784 C1797 0.929 . S
H1785 C1795 0.929 . S
H1786 C1790 0.929 . S
H1787 C1796 0.929 . S
C1788 H1782 0.930 . S
C1788 C1789 1.367 . S
C1788 C1796 1.378 . S
C1789 C1788 1.367 . S
C1789 C1797 1.433 . S
C1790 H1786 0.929 . S
C1790 C1792 1.378 . S
C1790 C1794 1.350 . S
C1791 C1794 1.463 . S
C1791 C1796 1.350 . S
C1791 N1799 1.427 . S
C1792 H1783 0.930 . S
C1792 C1790 1.378 . S
C1792 C1793 1.367 . S
C1793 C1792 1.367 . S
C1793 C1795 1.433 . S
C1794 C1790 1.350 . S
C1794 C1791 1.463 . S
C1794 N1798 1.427 . S
C1795 H1785 0.929 . S
C1795 C1793 1.433 . S
C1795 N1798 1.384 . S
C1796 H1787 0.929 . S
C1796 C1788 1.378 . S
C1796 C1791 1.350 . S
C1797 H1784 0.929 . S
C1797 C1789 1.433 . S
C1797 N1799 1.384 . S
N1798 C1794 1.427 . S
N1798 C1795 1.384 . S
N1799 C1791 1.427 . S
N1799 C1797 1.384 . S
H1800 C1806 0.930 . S
H1801 C1810 0.930 . S
H1802 C1815 0.929 . S
H1803 C1813 0.929 . S
H1804 C1808 0.929 . S
H1805 C1814 0.929 . S
C1806 H1800 0.930 . S
C1806 C1807 1.367 . S
C1806 C1814 1.378 . S
C1807 C1806 1.367 . S
C1807 C1815 1.433 . S
C1808 H1804 0.929 . S
C1808 C1810 1.378 . S
C1808 C1812 1.350 . S
C1809 C1812 1.463 . S
C1809 C1814 1.350 . S
C1809 N1817 1.427 . S
C1810 H1801 0.930 . S
C1810 C1808 1.378 . S
C1810 C1811 1.367 . S
C1811 C1810 1.367 . S
C1811 C1813 1.433 . S
C1812 C1808 1.350 . S
C1812 C1809 1.463 . S
C1812 N1816 1.427 . S
C1813 H1803 0.929 . S
C1813 C1811 1.433 . S
C1813 N1816 1.384 . S
C1814 H1805 0.929 . S
C1814 C1806 1.378 . S
C1814 C1809 1.350 . S
C1815 H1802 0.929 . S
C1815 C1807 1.433 . S
C1815 N1817 1.384 . S
N1816 C1812 1.427 . S
N1816 C1813 1.384 . S
N1817 C1809 1.427 . S
N1817 C1815 1.384 . S
H1818 C1824 0.930 . S
H1819 C1828 0.930 . S
H1820 C1833 0.929 . S
H1821 C1831 0.929 . S
H1822 C1826 0.929 . S
H1823 C1832 0.929 . S
C1824 H1818 0.930 . S
C1824 C1825 1.367 . S
C1824 C1832 1.378 . S
C1825 C1824 1.367 . S
C1825 C1833 1.433 . S
C1826 H1822 0.929 . S
C1826 C1828 1.378 . S
C1826 C1830 1.350 . S
C1827 C1830 1.463 . S
C1827 C1832 1.350 . S
C1827 N1835 1.427 . S
C1828 H1819 0.930 . S
C1828 C1826 1.378 . S
C1828 C1829 1.367 . S
C1829 C1828 1.367 . S
C1829 C1831 1.433 . S
C1830 C1826 1.350 . S
C1830 C1827 1.463 . S
C1830 N1834 1.427 . S
C1831 H1821 0.929 . S
C1831 C1829 1.433 . S
C1831 N1834 1.384 . S
C1832 H1823 0.929 . S
C1832 C1824 1.378 . S
C1832 C1827 1.350 . S
C1833 H1820 0.929 . S
C1833 C1825 1.433 . S
C1833 N1835 1.384 . S
N1834 C1830 1.427 . S
N1834 C1831 1.384 . S
N1835 C1827 1.427 . S
N1835 C1833 1.384 . S
H1836 C1842 0.930 . S
H1837 C1846 0.930 . S
H1838 C1851 0.929 . S
H1839 C1849 0.929 . S
H1840 C1844 0.929 . S
H1841 C1850 0.929 . S
C1842 H1836 0.930 . S
C1842 C1843 1.367 . S
C1842 C1850 1.378 . S
C1843 C1842 1.367 . S
C1843 C1851 1.433 . S
C1844 H1840 0.929 . S
C1844 C1846 1.378 . S
C1844 C1848 1.350 . S
C1845 C1848 1.463 . S
C1845 C1850 1.350 . S
C1845 N1853 1.427 . S
C1846 H1837 0.930 . S
C1846 C1844 1.378 . S
C1846 C1847 1.367 . S
C1847 C1846 1.367 . S
C1847 C1849 1.433 . S
C1848 C1844 1.350 . S
C1848 C1845 1.463 . S
C1848 N1852 1.427 . S
C1849 H1839 0.929 . S
C1849 C1847 1.433 . S
C1849 N1852 1.384 . S
C1850 H1841 0.929 . S
C1850 C1842 1.378 . S
C1850 C1845 1.350 . S
C1851 H1838 0.929 . S
C1851 C1843 1.433 . S
C1851 N1853 1.384 . S
N1852 C1848 1.427 . S
N1852 C1849 1.384 . S
N1853 C1845 1.427 . S
N1853 C1851 1.384 . S
H1854 C1860 0.930 . S
H1855 C1864 0.930 . S
H1856 C1869 0.929 . S
H1857 C1867 0.929 . S
H1858 C1862 0.929 . S
H1859 C1868 0.929 . S
C1860 H1854 0.930 . S
C1860 C1861 1.367 . S
C1860 C1868 1.378 . S
C1861 C1860 1.367 . S
C1861 C1869 1.433 . S
C1862 H1858 0.929 . S
C1862 C1864 1.378 . S
C1862 C1866 1.350 . S
C1863 C1866 1.463 . S
C1863 C1868 1.350 . S
C1863 N1871 1.427 . S
C1864 H1855 0.930 . S
C1864 C1862 1.378 . S
C1864 C1865 1.367 . S
C1865 C1864 1.367 . S
C1865 C1867 1.433 . S
C1866 C1862 1.350 . S
C1866 C1863 1.463 . S
C1866 N1870 1.427 . S
C1867 H1857 0.929 . S
C1867 C1865 1.433 . S
C1867 N1870 1.384 . S
C1868 H1859 0.929 . S
C1868 C1860 1.378 . S
C1868 C1863 1.350 . S
C1869 H1856 0.929 . S
C1869 C1861 1.433 . S
C1869 N1871 1.384 . S
N1870 C1866 1.427 . S
N1870 C1867 1.384 . S
N1871 C1863 1.427 . S
N1871 C1869 1.384 . S
H1872 C1878 0.930 . S
H1873 C1882 0.930 . S
H1874 C1887 0.929 . S
H1875 C1885 0.929 . S
H1876 C1880 0.929 . S
H1877 C1886 0.929 . S
C1878 H1872 0.930 . S
C1878 C1879 1.367 . S
C1878 C1886 1.378 . S
C1879 C1878 1.367 . S
C1879 C1887 1.433 . S
C1880 H1876 0.929 . S
C1880 C1882 1.378 . S
C1880 C1884 1.350 . S
C1881 C1884 1.463 . S
C1881 C1886 1.350 . S
C1881 N1889 1.427 . S
C1882 H1873 0.930 . S
C1882 C1880 1.378 . S
C1882 C1883 1.367 . S
C1883 C1882 1.367 . S
C1883 C1885 1.433 . S
C1884 C1880 1.350 . S
C1884 C1881 1.463 . S
C1884 N1888 1.427 . S
C1885 H1875 0.929 . S
C1885 C1883 1.433 . S
C1885 N1888 1.384 . S
C1886 H1877 0.929 . S
C1886 C1878 1.378 . S
C1886 C1881 1.350 . S
C1887 H1874 0.929 . S
C1887 C1879 1.433 . S
C1887 N1889 1.384 . S
N1888 C1884 1.427 . S
N1888 C1885 1.384 . S
N1889 C1881 1.427 . S
N1889 C1887 1.384 . S
H1890 C1896 0.930 . S
H1891 C1900 0.930 . S
H1892 C1905 0.929 . S
H1893 C1903 0.929 . S
H1894 C1898 0.929 . S
H1895 C1904 0.929 . S
C1896 H1890 0.930 . S
C1896 C1897 1.367 . S
C1896 C1904 1.378 . S
C1897 C1896 1.367 . S
C1897 C1905 1.433 . S
C1898 H1894 0.929 . S
C1898 C1900 1.378 . S
C1898 C1902 1.350 . S
C1899 C1902 1.463 . S
C1899 C1904 1.350 . S
C1899 N1907 1.427 . S
C1900 H1891 0.930 . S
C1900 C1898 1.378 . S
C1900 C1901 1.367 . S
C1901 C1900 1.367 . S
C1901 C1903 1.433 . S
C1902 C1898 1.350 . S
C1902 C1899 1.463 . S
C1902 N1906 1.427 . S
C1903 H1893 0.929 . S
C1903 C1901 1.433 . S
C1903 N1906 1.384 . S
C1904 H1895 0.929 . S
C1904 C1896 1.378 . S
C1904 C1899 1.350 . S
C1905 H1892 0.929 . S
C1905 C1897 1.433 . S
C1905 N1907 1.384 . S
N1906 C1902 1.427 . S
N1906 C1903 1.384 . S
N1907 C1899 1.427 . S
N1907 C1905 1.384 . S
H1908 C1914 0.930 . S
H1909 C1918 0.930 . S
H1910 C1923 0.929 . S
H1911 C1921 0.929 . S
H1912 C1916 0.929 . S
H1913 C1922 0.929 . S
C1914 H1908 0.930 . S
C1914 C1915 1.367 . S
C1914 C1922 1.378 . S
C1915 C1914 1.367 . S
C1915 C1923 1.433 . S
C1916 H1912 0.929 . S
C1916 C1918 1.378 . S
C1916 C1920 1.350 . S
C1917 C1920 1.463 . S
C1917 C1922 1.350 . S
C1917 N1925 1.427 . S
C1918 H1909 0.930 . S
C1918 C1916 1.378 . S
C1918 C1919 1.367 . S
C1919 C1918 1.367 . S
C1919 C1921 1.433 . S
C1920 C1916 1.350 . S
C1920 C1917 1.463 . S
C1920 N1924 1.427 . S
C1921 H1911 0.929 . S
C1921 C1919 1.433 . S
C1921 N1924 1.384 . S
C1922 H1913 0.929 . S
C1922 C1914 1.378 . S
C1922 C1917 1.350 . S
C1923 H1910 0.929 . S
C1923 C1915 1.433 . S
C1923 N1925 1.384 . S
N1924 C1920 1.427 . S
N1924 C1921 1.384 . S
N1925 C1917 1.427 . S
N1925 C1923 1.384 . S
H1926 C1932 0.930 . S
H1927 C1936 0.930 . S
H1928 C1941 0.929 . S
H1929 C1939 0.929 . S
H1930 C1934 0.929 . S
H1931 C1940 0.929 . S
C1932 H1926 0.930 . S
C1932 C1933 1.367 . S
C1932 C1940 1.378 . S
C1933 C1932 1.367 . S
C1933 C1941 1.433 . S
C1934 H1930 0.929 . S
C1934 C1936 1.378 . S
C1934 C1938 1.350 . S
C1935 C1938 1.463 . S
C1935 C1940 1.350 . S
C1935 N1943 1.427 . S
C1936 H1927 0.930 . S
C1936 C1934 1.378 . S
C1936 C1937 1.367 . S
C1937 C1936 1.367 . S
C1937 C1939 1.433 . S
C1938 C1934 1.350 . S
C1938 C1935 1.463 . S
C1938 N1942 1.427 . S
C1939 H1929 0.929 . S
C1939 C1937 1.433 . S
C1939 N1942 1.384 . S
C1940 H1931 0.929 . S
C1940 C1932 1.378 . S
C1940 C1935 1.350 . S
C1941 H1928 0.929 . S
C1941 C1933 1.433 . S
C1941 N1943 1.384 . S
N1942 C1938 1.427 . S
N1942 C1939 1.384 . S
N1943 C1935 1.427 . S
N1943 C1941 1.384 . S
H1944 C1950 0.930 . S
H1945 C1954 0.930 . S
H1946 C1959 0.929 . S
H1947 C1957 0.929 . S
H1948 C1952 0.929 . S
H1949 C1958 0.929 . S
C1950 H1944 0.930 . S
C1950 C1951 1.367 . S
C1950 C1958 1.378 . S
C1951 C1950 1.367 . S
C1951 C1959 1.433 . S
C1952 H1948 0.929 . S
C1952 C1954 1.378 . S
C1952 C1956 1.350 . S
C1953 C1956 1.463 . S
C1953 C1958 1.350 . S
C1953 N1961 1.427 . S
C1954 H1945 0.930 . S
C1954 C1952 1.378 . S
C1954 C1955 1.367 . S
C1955 C1954 1.367 . S
C1955 C1957 1.433 . S
C1956 C1952 1.350 . S
C1956 C1953 1.463 . S
C1956 N1960 1.427 . S
C1957 H1947 0.929 . S
C1957 C1955 1.433 . S
C1957 N1960 1.384 . S
C1958 H1949 0.929 . S
C1958 C1950 1.378 . S
C1958 C1953 1.350 . S
C1959 H1946 0.929 . S
C1959 C1951 1.433 . S
C1959 N1961 1.384 . S
N1960 C1956 1.427 . S
N1960 C1957 1.384 . S
N1961 C1953 1.427 . S
N1961 C1959 1.384 . S
H1962 C1968 0.930 . S
H1963 C1972 0.930 . S
H1964 C1977 0.929 . S
H1965 C1975 0.929 . S
H1966 C1970 0.929 . S
H1967 C1976 0.929 . S
C1968 H1962 0.930 . S
C1968 C1969 1.367 . S
C1968 C1976 1.378 . S
C1969 C1968 1.367 . S
C1969 C1977 1.433 . S
C1970 H1966 0.929 . S
C1970 C1972 1.378 . S
C1970 C1974 1.350 . S
C1971 C1974 1.463 . S
C1971 C1976 1.350 . S
C1971 N1979 1.427 . S
C1972 H1963 0.930 . S
C1972 C1970 1.378 . S
C1972 C1973 1.367 . S
C1973 C1972 1.367 . S
C1973 C1975 1.433 . S
C1974 C1970 1.350 . S
C1974 C1971 1.463 . S
C1974 N1978 1.427 . S
C1975 H1965 0.929 . S
C1975 C1973 1.433 . S
C1975 N1978 1.384 . S
C1976 H1967 0.929 . S
C1976 C1968 1.378 . S
C1976 C1971 1.350 . S
C1977 H1964 0.929 . S
C1977 C1969 1.433 . S
C1977 N1979 1.384 . S
N1978 C1974 1.427 . S
N1978 C1975 1.384 . S
N1979 C1971 1.427 . S
N1979 C1977 1.384 . S
H1980 C1986 0.930 . S
H1981 C1990 0.930 . S
H1982 C1995 0.929 . S
H1983 C1993 0.929 . S
H1984 C1988 0.929 . S
H1985 C1994 0.929 . S
C1986 H1980 0.930 . S
C1986 C1987 1.367 . S
C1986 C1994 1.378 . S
C1987 C1986 1.367 . S
C1987 C1995 1.433 . S
C1988 H1984 0.929 . S
C1988 C1990 1.378 . S
C1988 C1992 1.350 . S
C1989 C1992 1.463 . S
C1989 C1994 1.350 . S
C1989 N1997 1.427 . S
C1990 H1981 0.930 . S
C1990 C1988 1.378 . S
C1990 C1991 1.367 . S
C1991 C1990 1.367 . S
C1991 C1993 1.433 . S
C1992 C1988 1.350 . S
C1992 C1989 1.463 . S
C1992 N1996 1.427 . S
C1993 H1983 0.929 . S
C1993 C1991 1.433 . S
C1993 N1996 1.384 . S
C1994 H1985 0.929 . S
C1994 C1986 1.378 . S
C1994 C1989 1.350 . S
C1995 H1982 0.929 . S
C1995 C1987 1.433 . S
C1995 N1997 1.384 . S
N1996 C1992 1.427 . S
N1996 C1993 1.384 . S
N1997 C1989 1.427 . S
N1997 C1995 1.384 . S
H1998 C2004 0.930 . S
H1999 C2008 0.930 . S
H2000 C2013 0.929 . S
H2001 C2011 0.929 . S
H2002 C2006 0.929 . S
H2003 C2012 0.929 . S
C2004 H1998 0.930 . S
C2004 C2005 1.367 . S
C2004 C2012 1.378 . S
C2005 C2004 1.367 . S
C2005 C2013 1.433 . S
C2006 H2002 0.929 . S
C2006 C2008 1.378 . S
C2006 C2010 1.350 . S
C2007 C2010 1.463 . S
C2007 C2012 1.350 . S
C2007 N2015 1.427 . S
C2008 H1999 0.930 . S
C2008 C2006 1.378 . S
C2008 C2009 1.367 . S
C2009 C2008 1.367 . S
C2009 C2011 1.433 . S
C2010 C2006 1.350 . S
C2010 C2007 1.463 . S
C2010 N2014 1.427 . S
C2011 H2001 0.929 . S
C2011 C2009 1.433 . S
C2011 N2014 1.384 . S
C2012 H2003 0.929 . S
C2012 C2004 1.378 . S
C2012 C2007 1.350 . S
C2013 H2000 0.929 . S
C2013 C2005 1.433 . S
C2013 N2015 1.384 . S
N2014 C2010 1.427 . S
N2014 C2011 1.384 . S
N2015 C2007 1.427 . S
N2015 C2013 1.384 . S
H2016 C2022 0.930 . S
H2017 C2026 0.930 . S
H2018 C2031 0.929 . S
H2019 C2029 0.929 . S
H2020 C2024 0.929 . S
H2021 C2030 0.929 . S
C2022 H2016 0.930 . S
C2022 C2023 1.367 . S
C2022 C2030 1.378 . S
C2023 C2022 1.367 . S
C2023 C2031 1.433 . S
C2024 H2020 0.929 . S
C2024 C2026 1.378 . S
C2024 C2028 1.350 . S
C2025 C2028 1.463 . S
C2025 C2030 1.350 . S
C2025 N2033 1.427 . S
C2026 H2017 0.930 . S
C2026 C2024 1.378 . S
C2026 C2027 1.367 . S
C2027 C2026 1.367 . S
C2027 C2029 1.433 . S
C2028 C2024 1.350 . S
C2028 C2025 1.463 . S
C2028 N2032 1.427 . S
C2029 H2019 0.929 . S
C2029 C2027 1.433 . S
C2029 N2032 1.384 . S
C2030 H2021 0.929 . S
C2030 C2022 1.378 . S
C2030 C2025 1.350 . S
C2031 H2018 0.929 . S
C2031 C2023 1.433 . S
C2031 N2033 1.384 . S
N2032 C2028 1.427 . S
N2032 C2029 1.384 . S
N2033 C2025 1.427 . S
N2033 C2031 1.384 . S
H2034 C2040 0.930 . S
H2035 C2044 0.930 . S
H2036 C2049 0.929 . S
H2037 C2047 0.929 . S
H2038 C2042 0.929 . S
H2039 C2048 0.929 . S
C2040 H2034 0.930 . S
C2040 C2041 1.367 . S
C2040 C2048 1.378 . S
C2041 C2040 1.367 . S
C2041 C2049 1.433 . S
C2042 H2038 0.929 . S
C2042 C2044 1.378 . S
C2042 C2046 1.350 . S
C2043 C2046 1.463 . S
C2043 C2048 1.350 . S
C2043 N2051 1.427 . S
C2044 H2035 0.930 . S
C2044 C2042 1.378 . S
C2044 C2045 1.367 . S
C2045 C2044 1.367 . S
C2045 C2047 1.433 . S
C2046 C2042 1.350 . S
C2046 C2043 1.463 . S
C2046 N2050 1.427 . S
C2047 H2037 0.929 . S
C2047 C2045 1.433 . S
C2047 N2050 1.384 . S
C2048 H2039 0.929 . S
C2048 C2040 1.378 . S
C2048 C2043 1.350 . S
C2049 H2036 0.929 . S
C2049 C2041 1.433 . S
C2049 N2051 1.384 . S
N2050 C2046 1.427 . S
N2050 C2047 1.384 . S
N2051 C2043 1.427 . S
N2051 C2049 1.384 . S
H2052 C2058 0.930 . S
H2053 C2062 0.930 . S
H2054 C2067 0.929 . S
H2055 C2065 0.929 . S
H2056 C2060 0.929 . S
H2057 C2066 0.929 . S
C2058 H2052 0.930 . S
C2058 C2059 1.367 . S
C2058 C2066 1.378 . S
C2059 C2058 1.367 . S
C2059 C2067 1.433 . S
C2060 H2056 0.929 . S
C2060 C2062 1.378 . S
C2060 C2064 1.350 . S
C2061 C2064 1.463 . S
C2061 C2066 1.350 . S
C2061 N2069 1.427 . S
C2062 H2053 0.930 . S
C2062 C2060 1.378 . S
C2062 C2063 1.367 . S
C2063 C2062 1.367 . S
C2063 C2065 1.433 . S
C2064 C2060 1.350 . S
C2064 C2061 1.463 . S
C2064 N2068 1.427 . S
C2065 H2055 0.929 . S
C2065 C2063 1.433 . S
C2065 N2068 1.384 . S
C2066 H2057 0.929 . S
C2066 C2058 1.378 . S
C2066 C2061 1.350 . S
C2067 H2054 0.929 . S
C2067 C2059 1.433 . S
C2067 N2069 1.384 . S
N2068 C2064 1.427 . S
N2068 C2065 1.384 . S
N2069 C2061 1.427 . S
N2069 C2067 1.384 . S
H2070 C2076 0.930 . S
H2071 C2080 0.930 . S
H2072 C2085 0.929 . S
H2073 C2083 0.929 . S
H2074 C2078 0.929 . S
H2075 C2084 0.929 . S
C2076 H2070 0.930 . S
C2076 C2077 1.367 . S
C2076 C2084 1.378 . S
C2077 C2076 1.367 . S
C2077 C2085 1.433 . S
C2078 H2074 0.929 . S
C2078 C2080 1.378 . S
C2078 C2082 1.350 . S
C2079 C2082 1.463 . S
C2079 C2084 1.350 . S
C2079 N2087 1.427 . S
C2080 H2071 0.930 . S
C2080 C2078 1.378 . S
C2080 C2081 1.367 . S
C2081 C2080 1.367 . S
C2081 C2083 1.433 . S
C2082 C2078 1.350 . S
C2082 C2079 1.463 . S
C2082 N2086 1.427 . S
C2083 H2073 0.929 . S
C2083 C2081 1.433 . S
C2083 N2086 1.384 . S
C2084 H2075 0.929 . S
C2084 C2076 1.378 . S
C2084 C2079 1.350 . S
C2085 H2072 0.929 . S
C2085 C2077 1.433 . S
C2085 N2087 1.384 . S
N2086 C2082 1.427 . S
N2086 C2083 1.384 . S
N2087 C2079 1.427 . S
N2087 C2085 1.384 . S
H2088 C2094 0.930 . S
H2089 C2098 0.930 . S
H2090 C2103 0.929 . S
H2091 C2101 0.929 . S
H2092 C2096 0.929 . S
H2093 C2102 0.929 . S
C2094 H2088 0.930 . S
C2094 C2095 1.367 . S
C2094 C2102 1.378 . S
C2095 C2094 1.367 . S
C2095 C2103 1.433 . S
C2096 H2092 0.929 . S
C2096 C2098 1.378 . S
C2096 C2100 1.350 . S
C2097 C2100 1.463 . S
C2097 C2102 1.350 . S
C2097 N2105 1.427 . S
C2098 H2089 0.930 . S
C2098 C2096 1.378 . S
C2098 C2099 1.367 . S
C2099 C2098 1.367 . S
C2099 C2101 1.433 . S
C2100 C2096 1.350 . S
C2100 C2097 1.463 . S
C2100 N2104 1.427 . S
C2101 H2091 0.929 . S
C2101 C2099 1.433 . S
C2101 N2104 1.384 . S
C2102 H2093 0.929 . S
C2102 C2094 1.378 . S
C2102 C2097 1.350 . S
C2103 H2090 0.929 . S
C2103 C2095 1.433 . S
C2103 N2105 1.384 . S
N2104 C2100 1.427 . S
N2104 C2101 1.384 . S
N2105 C2097 1.427 . S
N2105 C2103 1.384 . S
H2106 C2112 0.930 . S
H2107 C2116 0.930 . S
H2108 C2121 0.929 . S
H2109 C2119 0.929 . S
H2110 C2114 0.929 . S
H2111 C2120 0.929 . S
C2112 H2106 0.930 . S
C2112 C2113 1.367 . S
C2112 C2120 1.378 . S
C2113 C2112 1.367 . S
C2113 C2121 1.433 . S
C2114 H2110 0.929 . S
C2114 C2116 1.378 . S
C2114 C2118 1.350 . S
C2115 C2118 1.463 . S
C2115 C2120 1.350 . S
C2115 N2123 1.427 . S
C2116 H2107 0.930 . S
C2116 C2114 1.378 . S
C2116 C2117 1.367 . S
C2117 C2116 1.367 . S
C2117 C2119 1.433 . S
C2118 C2114 1.350 . S
C2118 C2115 1.463 . S
C2118 N2122 1.427 . S
C2119 H2109 0.929 . S
C2119 C2117 1.433 . S
C2119 N2122 1.384 . S
C2120 H2111 0.929 . S
C2120 C2112 1.378 . S
C2120 C2115 1.350 . S
C2121 H2108 0.929 . S
C2121 C2113 1.433 . S
C2121 N2123 1.384 . S
N2122 C2118 1.427 . S
N2122 C2119 1.384 . S
N2123 C2115 1.427 . S
N2123 C2121 1.384 . S
H2124 C2130 0.930 . S
H2125 C2134 0.930 . S
H2126 C2139 0.929 . S
H2127 C2137 0.929 . S
H2128 C2132 0.929 . S
H2129 C2138 0.929 . S
C2130 H2124 0.930 . S
C2130 C2131 1.367 . S
C2130 C2138 1.378 . S
C2131 C2130 1.367 . S
C2131 C2139 1.433 . S
C2132 H2128 0.929 . S
C2132 C2134 1.378 . S
C2132 C2136 1.350 . S
C2133 C2136 1.463 . S
C2133 C2138 1.350 . S
C2133 N2141 1.427 . S
C2134 H2125 0.930 . S
C2134 C2132 1.378 . S
C2134 C2135 1.367 . S
C2135 C2134 1.367 . S
C2135 C2137 1.433 . S
C2136 C2132 1.350 . S
C2136 C2133 1.463 . S
C2136 N2140 1.427 . S
C2137 H2127 0.929 . S
C2137 C2135 1.433 . S
C2137 N2140 1.384 . S
C2138 H2129 0.929 . S
C2138 C2130 1.378 . S
C2138 C2133 1.350 . S
C2139 H2126 0.929 . S
C2139 C2131 1.433 . S
C2139 N2141 1.384 . S
N2140 C2136 1.427 . S
N2140 C2137 1.384 . S
N2141 C2133 1.427 . S
N2141 C2139 1.384 . S
H2142 C2148 0.930 . S
H2143 C2152 0.930 . S
H2144 C2157 0.929 . S
H2145 C2155 0.929 . S
H2146 C2150 0.929 . S
H2147 C2156 0.929 . S
C2148 H2142 0.930 . S
C2148 C2149 1.367 . S
C2148 C2156 1.378 . S
C2149 C2148 1.367 . S
C2149 C2157 1.433 . S
C2150 H2146 0.929 . S
C2150 C2152 1.378 . S
C2150 C2154 1.350 . S
C2151 C2154 1.463 . S
C2151 C2156 1.350 . S
C2151 N2159 1.427 . S
C2152 H2143 0.930 . S
C2152 C2150 1.378 . S
C2152 C2153 1.367 . S
C2153 C2152 1.367 . S
C2153 C2155 1.433 . S
C2154 C2150 1.350 . S
C2154 C2151 1.463 . S
C2154 N2158 1.427 . S
C2155 H2145 0.929 . S
C2155 C2153 1.433 . S
C2155 N2158 1.384 . S
C2156 H2147 0.929 . S
C2156 C2148 1.378 . S
C2156 C2151 1.350 . S
C2157 H2144 0.929 . S
C2157 C2149 1.433 . S
C2157 N2159 1.384 . S
N2158 C2154 1.427 . S
N2158 C2155 1.384 . S
N2159 C2151 1.427 . S
N2159 C2157 1.384 . S
H2160 C2166 0.930 . S
H2161 C2170 0.930 . S
H2162 C2175 0.929 . S
H2163 C2173 0.929 . S
H2164 C2168 0.929 . S
H2165 C2174 0.929 . S
C2166 H2160 0.930 . S
C2166 C2167 1.367 . S
C2166 C2174 1.378 . S
C2167 C2166 1.367 . S
C2167 C2175 1.433 . S
C2168 H2164 0.929 . S
C2168 C2170 1.378 . S
C2168 C2172 1.350 . S
C2169 C2172 1.463 . S
C2169 C2174 1.350 . S
C2169 N2177 1.427 . S
C2170 H2161 0.930 . S
C2170 C2168 1.378 . S
C2170 C2171 1.367 . S
C2171 C2170 1.367 . S
C2171 C2173 1.433 . S
C2172 C2168 1.350 . S
C2172 C2169 1.463 . S
C2172 N2176 1.427 . S
C2173 H2163 0.929 . S
C2173 C2171 1.433 . S
C2173 N2176 1.384 . S
C2174 H2165 0.929 . S
C2174 C2166 1.378 . S
C2174 C2169 1.350 . S
C2175 H2162 0.929 . S
C2175 C2167 1.433 . S
C2175 N2177 1.384 . S
N2176 C2172 1.427 . S
N2176 C2173 1.384 . S
N2177 C2169 1.427 . S
N2177 C2175 1.384 . S
H2178 C2184 0.930 . S
H2179 C2188 0.930 . S
H2180 C2193 0.929 . S
H2181 C2191 0.929 . S
H2182 C2186 0.929 . S
H2183 C2192 0.929 . S
C2184 H2178 0.930 . S
C2184 C2185 1.367 . S
C2184 C2192 1.378 . S
C2185 C2184 1.367 . S
C2185 C2193 1.433 . S
C2186 H2182 0.929 . S
C2186 C2188 1.378 . S
C2186 C2190 1.350 . S
C2187 C2190 1.463 . S
C2187 C2192 1.350 . S
C2187 N2195 1.427 . S
C2188 H2179 0.930 . S
C2188 C2186 1.378 . S
C2188 C2189 1.367 . S
C2189 C2188 1.367 . S
C2189 C2191 1.433 . S
C2190 C2186 1.350 . S
C2190 C2187 1.463 . S
C2190 N2194 1.427 . S
C2191 H2181 0.929 . S
C2191 C2189 1.433 . S
C2191 N2194 1.384 . S
C2192 H2183 0.929 . S
C2192 C2184 1.378 . S
C2192 C2187 1.350 . S
C2193 H2180 0.929 . S
C2193 C2185 1.433 . S
C2193 N2195 1.384 . S
N2194 C2190 1.427 . S
N2194 C2191 1.384 . S
N2195 C2187 1.427 . S
N2195 C2193 1.384 . S
H2196 C2202 0.930 . S
H2197 C2206 0.930 . S
H2198 C2211 0.929 . S
H2199 C2209 0.929 . S
H2200 C2204 0.929 . S
H2201 C2210 0.929 . S
C2202 H2196 0.930 . S
C2202 C2203 1.367 . S
C2202 C2210 1.378 . S
C2203 C2202 1.367 . S
C2203 C2211 1.433 . S
C2204 H2200 0.929 . S
C2204 C2206 1.378 . S
C2204 C2208 1.350 . S
C2205 C2208 1.463 . S
C2205 C2210 1.350 . S
C2205 N2213 1.427 . S
C2206 H2197 0.930 . S
C2206 C2204 1.378 . S
C2206 C2207 1.367 . S
C2207 C2206 1.367 . S
C2207 C2209 1.433 . S
C2208 C2204 1.350 . S
C2208 C2205 1.463 . S
C2208 N2212 1.427 . S
C2209 H2199 0.929 . S
C2209 C2207 1.433 . S
C2209 N2212 1.384 . S
C2210 H2201 0.929 . S
C2210 C2202 1.378 . S
C2210 C2205 1.350 . S
C2211 H2198 0.929 . S
C2211 C2203 1.433 . S
C2211 N2213 1.384 . S
N2212 C2208 1.427 . S
N2212 C2209 1.384 . S
N2213 C2205 1.427 . S
N2213 C2211 1.384 . S
H2214 C2220 0.930 . S
H2215 C2224 0.930 . S
H2216 C2229 0.929 . S
H2217 C2227 0.929 . S
H2218 C2222 0.929 . S
H2219 C2228 0.929 . S
C2220 H2214 0.930 . S
C2220 C2221 1.367 . S
C2220 C2228 1.378 . S
C2221 C2220 1.367 . S
C2221 C2229 1.433 . S
C2222 H2218 0.929 . S
C2222 C2224 1.378 . S
C2222 C2226 1.350 . S
C2223 C2226 1.463 . S
C2223 C2228 1.350 . S
C2223 N2231 1.427 . S
C2224 H2215 0.930 . S
C2224 C2222 1.378 . S
C2224 C2225 1.367 . S
C2225 C2224 1.367 . S
C2225 C2227 1.433 . S
C2226 C2222 1.350 . S
C2226 C2223 1.463 . S
C2226 N2230 1.427 . S
C2227 H2217 0.929 . S
C2227 C2225 1.433 . S
C2227 N2230 1.384 . S
C2228 H2219 0.929 . S
C2228 C2220 1.378 . S
C2228 C2223 1.350 . S
C2229 H2216 0.929 . S
C2229 C2221 1.433 . S
C2229 N2231 1.384 . S
N2230 C2226 1.427 . S
N2230 C2227 1.384 . S
N2231 C2223 1.427 . S
N2231 C2229 1.384 . S
H2232 C2238 0.930 . S
H2233 C2242 0.930 . S
H2234 C2247 0.929 . S
H2235 C2245 0.929 . S
H2236 C2240 0.929 . S
H2237 C2246 0.929 . S
C2238 H2232 0.930 . S
C2238 C2239 1.367 . S
C2238 C2246 1.378 . S
C2239 C2238 1.367 . S
C2239 C2247 1.433 . S
C2240 H2236 0.929 . S
C2240 C2242 1.378 . S
C2240 C2244 1.350 . S
C2241 C2244 1.463 . S
C2241 C2246 1.350 . S
C2241 N2249 1.427 . S
C2242 H2233 0.930 . S
C2242 C2240 1.378 . S
C2242 C2243 1.367 . S
C2243 C2242 1.367 . S
C2243 C2245 1.433 . S
C2244 C2240 1.350 . S
C2244 C2241 1.463 . S
C2244 N2248 1.427 . S
C2245 H2235 0.929 . S
C2245 C2243 1.433 . S
C2245 N2248 1.384 . S
C2246 H2237 0.929 . S
C2246 C2238 1.378 . S
C2246 C2241 1.350 . S
C2247 H2234 0.929 . S
C2247 C2239 1.433 . S
C2247 N2249 1.384 . S
N2248 C2244 1.427 . S
N2248 C2245 1.384 . S
N2249 C2241 1.427 . S
N2249 C2247 1.384 . S
H2250 C2256 0.930 . S
H2251 C2260 0.930 . S
H2252 C2265 0.929 . S
H2253 C2263 0.929 . S
H2254 C2258 0.929 . S
H2255 C2264 0.929 . S
C2256 H2250 0.930 . S
C2256 C2257 1.367 . S
C2256 C2264 1.378 . S
C2257 C2256 1.367 . S
C2257 C2265 1.433 . S
C2258 H2254 0.929 . S
C2258 C2260 1.378 . S
C2258 C2262 1.350 . S
C2259 C2262 1.463 . S
C2259 C2264 1.350 . S
C2259 N2267 1.427 . S
C2260 H2251 0.930 . S
C2260 C2258 1.378 . S
C2260 C2261 1.367 . S
C2261 C2260 1.367 . S
C2261 C2263 1.433 . S
C2262 C2258 1.350 . S
C2262 C2259 1.463 . S
C2262 N2266 1.427 . S
C2263 H2253 0.929 . S
C2263 C2261 1.433 . S
C2263 N2266 1.384 . S
C2264 H2255 0.929 . S
C2264 C2256 1.378 . S
C2264 C2259 1.350 . S
C2265 H2252 0.929 . S
C2265 C2257 1.433 . S
C2265 N2267 1.384 . S
N2266 C2262 1.427 . S
N2266 C2263 1.384 . S
N2267 C2259 1.427 . S
N2267 C2265 1.384 . S
H2268 C2274 0.930 . S
H2269 C2278 0.930 . S
H2270 C2283 0.929 . S
H2271 C2281 0.929 . S
H2272 C2276 0.929 . S
H2273 C2282 0.929 . S
C2274 H2268 0.930 . S
C2274 C2275 1.367 . S
C2274 C2282 1.378 . S
C2275 C2274 1.367 . S
C2275 C2283 1.433 . S
C2276 H2272 0.929 . S
C2276 C2278 1.378 . S
C2276 C2280 1.350 . S
C2277 C2280 1.463 . S
C2277 C2282 1.350 . S
C2277 N2285 1.427 . S
C2278 H2269 0.930 . S
C2278 C2276 1.378 . S
C2278 C2279 1.367 . S
C2279 C2278 1.367 . S
C2279 C2281 1.433 . S
C2280 C2276 1.350 . S
C2280 C2277 1.463 . S
C2280 N2284 1.427 . S
C2281 H2271 0.929 . S
C2281 C2279 1.433 . S
C2281 N2284 1.384 . S
C2282 H2273 0.929 . S
C2282 C2274 1.378 . S
C2282 C2277 1.350 . S
C2283 H2270 0.929 . S
C2283 C2275 1.433 . S
C2283 N2285 1.384 . S
N2284 C2280 1.427 . S
N2284 C2281 1.384 . S
N2285 C2277 1.427 . S
N2285 C2283 1.384 . S
H2286 C2292 0.930 . S
H2287 C2296 0.930 . S
H2288 C2301 0.929 . S
H2289 C2299 0.929 . S
H2290 C2294 0.929 . S
H2291 C2300 0.929 . S
C2292 H2286 0.930 . S
C2292 C2293 1.367 . S
C2292 C2300 1.378 . S
C2293 C2292 1.367 . S
C2293 C2301 1.433 . S
C2294 H2290 0.929 . S
C2294 C2296 1.378 . S
C2294 C2298 1.350 . S
C2295 C2298 1.463 . S
C2295 C2300 1.350 . S
C2295 N2303 1.427 . S
C2296 H2287 0.930 . S
C2296 C2294 1.378 . S
C2296 C2297 1.367 . S
C2297 C2296 1.367 . S
C2297 C2299 1.433 . S
C2298 C2294 1.350 . S
C2298 C2295 1.463 . S
C2298 N2302 1.427 . S
C2299 H2289 0.929 . S
C2299 C2297 1.433 . S
C2299 N2302 1.384 . S
C2300 H2291 0.929 . S
C2300 C2292 1.378 . S
C2300 C2295 1.350 . S
C2301 H2288 0.929 . S
C2301 C2293 1.433 . S
C2301 N2303 1.384 . S
N2302 C2298 1.427 . S
N2302 C2299 1.384 . S
N2303 C2295 1.427 . S
N2303 C2301 1.384 . S
H2304 C2310 0.930 . S
H2305 C2314 0.930 . S
H2306 C2319 0.929 . S
H2307 C2317 0.929 . S
H2308 C2312 0.929 . S
H2309 C2318 0.929 . S
C2310 H2304 0.930 . S
C2310 C2311 1.367 . S
C2310 C2318 1.378 . S
C2311 C2310 1.367 . S
C2311 C2319 1.433 . S
C2312 H2308 0.929 . S
C2312 C2314 1.378 . S
C2312 C2316 1.350 . S
C2313 C2316 1.463 . S
C2313 C2318 1.350 . S
C2313 N2321 1.427 . S
C2314 H2305 0.930 . S
C2314 C2312 1.378 . S
C2314 C2315 1.367 . S
C2315 C2314 1.367 . S
C2315 C2317 1.433 . S
C2316 C2312 1.350 . S
C2316 C2313 1.463 . S
C2316 N2320 1.427 . S
C2317 H2307 0.929 . S
C2317 C2315 1.433 . S
C2317 N2320 1.384 . S
C2318 H2309 0.929 . S
C2318 C2310 1.378 . S
C2318 C2313 1.350 . S
C2319 H2306 0.929 . S
C2319 C2311 1.433 . S
C2319 N2321 1.384 . S
N2320 C2316 1.427 . S
N2320 C2317 1.384 . S
N2321 C2313 1.427 . S
N2321 C2319 1.384 . S
H2322 C2328 0.930 . S
H2323 C2332 0.930 . S
H2324 C2337 0.929 . S
H2325 C2335 0.929 . S
H2326 C2330 0.929 . S
H2327 C2336 0.929 . S
C2328 H2322 0.930 . S
C2328 C2329 1.367 . S
C2328 C2336 1.378 . S
C2329 C2328 1.367 . S
C2329 C2337 1.433 . S
C2330 H2326 0.929 . S
C2330 C2332 1.378 . S
C2330 C2334 1.350 . S
C2331 C2334 1.463 . S
C2331 C2336 1.350 . S
C2331 N2339 1.427 . S
C2332 H2323 0.930 . S
C2332 C2330 1.378 . S
C2332 C2333 1.367 . S
C2333 C2332 1.367 . S
C2333 C2335 1.433 . S
C2334 C2330 1.350 . S
C2334 C2331 1.463 . S
C2334 N2338 1.427 . S
C2335 H2325 0.929 . S
C2335 C2333 1.433 . S
C2335 N2338 1.384 . S
C2336 H2327 0.929 . S
C2336 C2328 1.378 . S
C2336 C2331 1.350 . S
C2337 H2324 0.929 . S
C2337 C2329 1.433 . S
C2337 N2339 1.384 . S
N2338 C2334 1.427 . S
N2338 C2335 1.384 . S
N2339 C2331 1.427 . S
N2339 C2337 1.384 . S
H2340 C2346 0.930 . S
H2341 C2350 0.930 . S
H2342 C2355 0.929 . S
H2343 C2353 0.929 . S
H2344 C2348 0.929 . S
H2345 C2354 0.929 . S
C2346 H2340 0.930 . S
C2346 C2347 1.367 . S
C2346 C2354 1.378 . S
C2347 C2346 1.367 . S
C2347 C2355 1.433 . S
C2348 H2344 0.929 . S
C2348 C2350 1.378 . S
C2348 C2352 1.350 . S
C2349 C2352 1.463 . S
C2349 C2354 1.350 . S
C2349 N2357 1.427 . S
C2350 H2341 0.930 . S
C2350 C2348 1.378 . S
C2350 C2351 1.367 . S
C2351 C2350 1.367 . S
C2351 C2353 1.433 . S
C2352 C2348 1.350 . S
C2352 C2349 1.463 . S
C2352 N2356 1.427 . S
C2353 H2343 0.929 . S
C2353 C2351 1.433 . S
C2353 N2356 1.384 . S
C2354 H2345 0.929 . S
C2354 C2346 1.378 . S
C2354 C2349 1.350 . S
C2355 H2342 0.929 . S
C2355 C2347 1.433 . S
C2355 N2357 1.384 . S
N2356 C2352 1.427 . S
N2356 C2353 1.384 . S
N2357 C2349 1.427 . S
N2357 C2355 1.384 . S
H2358 C2364 0.930 . S
H2359 C2368 0.930 . S
H2360 C2373 0.929 . S
H2361 C2371 0.929 . S
H2362 C2366 0.929 . S
H2363 C2372 0.929 . S
C2364 H2358 0.930 . S
C2364 C2365 1.367 . S
C2364 C2372 1.378 . S
C2365 C2364 1.367 . S
C2365 C2373 1.433 . S
C2366 H2362 0.929 . S
C2366 C2368 1.378 . S
C2366 C2370 1.350 . S
C2367 C2370 1.463 . S
C2367 C2372 1.350 . S
C2367 N2375 1.427 . S
C2368 H2359 0.930 . S
C2368 C2366 1.378 . S
C2368 C2369 1.367 . S
C2369 C2368 1.367 . S
C2369 C2371 1.433 . S
C2370 C2366 1.350 . S
C2370 C2367 1.463 . S
C2370 N2374 1.427 . S
C2371 H2361 0.929 . S
C2371 C2369 1.433 . S
C2371 N2374 1.384 . S
C2372 H2363 0.929 . S
C2372 C2364 1.378 . S
C2372 C2367 1.350 . S
C2373 H2360 0.929 . S
C2373 C2365 1.433 . S
C2373 N2375 1.384 . S
N2374 C2370 1.427 . S
N2374 C2371 1.384 . S
N2375 C2367 1.427 . S
N2375 C2373 1.384 . S
H2376 C2382 0.930 . S
H2377 C2386 0.930 . S
H2378 C2391 0.929 . S
H2379 C2389 0.929 . S
H2380 C2384 0.929 . S
H2381 C2390 0.929 . S
C2382 H2376 0.930 . S
C2382 C2383 1.367 . S
C2382 C2390 1.378 . S
C2383 C2382 1.367 . S
C2383 C2391 1.433 . S
C2384 H2380 0.929 . S
C2384 C2386 1.378 . S
C2384 C2388 1.350 . S
C2385 C2388 1.463 . S
C2385 C2390 1.350 . S
C2385 N2393 1.427 . S
C2386 H2377 0.930 . S
C2386 C2384 1.378 . S
C2386 C2387 1.367 . S
C2387 C2386 1.367 . S
C2387 C2389 1.433 . S
C2388 C2384 1.350 . S
C2388 C2385 1.463 . S
C2388 N2392 1.427 . S
C2389 H2379 0.929 . S
C2389 C2387 1.433 . S
C2389 N2392 1.384 . S
C2390 H2381 0.929 . S
C2390 C2382 1.378 . S
C2390 C2385 1.350 . S
C2391 H2378 0.929 . S
C2391 C2383 1.433 . S
C2391 N2393 1.384 . S
N2392 C2388 1.427 . S
N2392 C2389 1.384 . S
N2393 C2385 1.427 . S
N2393 C2391 1.384 . S
H2394 C2400 0.930 . S
H2395 C2404 0.930 . S
H2396 C2409 0.929 . S
H2397 C2407 0.929 . S
H2398 C2402 0.929 . S
H2399 C2408 0.929 . S
C2400 H2394 0.930 . S
C2400 C2401 1.367 . S
C2400 C2408 1.378 . S
C2401 C2400 1.367 . S
C2401 C2409 1.433 . S
C2402 H2398 0.929 . S
C2402 C2404 1.378 . S
C2402 C2406 1.350 . S
C2403 C2406 1.463 . S
C2403 C2408 1.350 . S
C2403 N2411 1.427 . S
C2404 H2395 0.930 . S
C2404 C2402 1.378 . S
C2404 C2405 1.367 . S
C2405 C2404 1.367 . S
C2405 C2407 1.433 . S
C2406 C2402 1.350 . S
C2406 C2403 1.463 . S
C2406 N2410 1.427 . S
C2407 H2397 0.929 . S
C2407 C2405 1.433 . S
C2407 N2410 1.384 . S
C2408 H2399 0.929 . S
C2408 C2400 1.378 . S
C2408 C2403 1.350 . S
C2409 H2396 0.929 . S
C2409 C2401 1.433 . S
C2409 N2411 1.384 . S
N2410 C2406 1.427 . S
N2410 C2407 1.384 . S
N2411 C2403 1.427 . S
N2411 C2409 1.384 . S
H2412 C2418 0.930 . S
H2413 C2422 0.930 . S
H2414 C2427 0.929 . S
H2415 C2425 0.929 . S
H2416 C2420 0.929 . S
H2417 C2426 0.929 . S
C2418 H2412 0.930 . S
C2418 C2419 1.367 . S
C2418 C2426 1.378 . S
C2419 C2418 1.367 . S
C2419 C2427 1.433 . S
C2420 H2416 0.929 . S
C2420 C2422 1.378 . S
C2420 C2424 1.350 . S
C2421 C2424 1.463 . S
C2421 C2426 1.350 . S
C2421 N2429 1.427 . S
C2422 H2413 0.930 . S
C2422 C2420 1.378 . S
C2422 C2423 1.367 . S
C2423 C2422 1.367 . S
C2423 C2425 1.433 . S
C2424 C2420 1.350 . S
C2424 C2421 1.463 . S
C2424 N2428 1.427 . S
C2425 H2415 0.929 . S
C2425 C2423 1.433 . S
C2425 N2428 1.384 . S
C2426 H2417 0.929 . S
C2426 C2418 1.378 . S
C2426 C2421 1.350 . S
C2427 H2414 0.929 . S
C2427 C2419 1.433 . S
C2427 N2429 1.384 . S
N2428 C2424 1.427 . S
N2428 C2425 1.384 . S
N2429 C2421 1.427 . S
N2429 C2427 1.384 . S
H2430 C2436 0.930 . S
H2431 C2440 0.930 . S
H2432 C2445 0.929 . S
H2433 C2443 0.929 . S
H2434 C2438 0.929 . S
H2435 C2444 0.929 . S
C2436 H2430 0.930 . S
C2436 C2437 1.367 . S
C2436 C2444 1.378 . S
C2437 C2436 1.367 . S
C2437 C2445 1.433 . S
C2438 H2434 0.929 . S
C2438 C2440 1.378 . S
C2438 C2442 1.350 . S
C2439 C2442 1.463 . S
C2439 C2444 1.350 . S
C2439 N2447 1.427 . S
C2440 H2431 0.930 . S
C2440 C2438 1.378 . S
C2440 C2441 1.367 . S
C2441 C2440 1.367 . S
C2441 C2443 1.433 . S
C2442 C2438 1.350 . S
C2442 C2439 1.463 . S
C2442 N2446 1.427 . S
C2443 H2433 0.929 . S
C2443 C2441 1.433 . S
C2443 N2446 1.384 . S
C2444 H2435 0.929 . S
C2444 C2436 1.378 . S
C2444 C2439 1.350 . S
C2445 H2432 0.929 . S
C2445 C2437 1.433 . S
C2445 N2447 1.384 . S
N2446 C2442 1.427 . S
N2446 C2443 1.384 . S
N2447 C2439 1.427 . S
N2447 C2445 1.384 . S
H2448 C2454 0.930 . S
H2449 C2458 0.930 . S
H2450 C2463 0.929 . S
H2451 C2461 0.929 . S
H2452 C2456 0.929 . S
H2453 C2462 0.929 . S
C2454 H2448 0.930 . S
C2454 C2455 1.367 . S
C2454 C2462 1.378 . S
C2455 C2454 1.367 . S
C2455 C2463 1.433 . S
C2456 H2452 0.929 . S
C2456 C2458 1.378 . S
C2456 C2460 1.350 . S
C2457 C2460 1.463 1_455 S
C2457 C2462 1.350 . S
C2457 N2465 1.427 . S
C2458 H2449 0.930 . S
C2458 C2456 1.378 . S
C2458 C2459 1.367 . S
C2459 C2458 1.367 . S
C2459 C2461 1.433 . S
C2460 C2456 1.350 . S
C2460 C2457 1.463 1_655 S
C2460 N2464 1.427 . S
C2461 H2451 0.929 . S
C2461 C2459 1.433 . S
C2461 N2464 1.384 . S
C2462 H2453 0.929 . S
C2462 C2454 1.378 . S
C2462 C2457 1.350 . S
C2463 H2450 0.929 . S
C2463 C2455 1.433 . S
C2463 N2465 1.384 . S
N2464 C2460 1.427 . S
N2464 C2461 1.384 . S
N2465 C2457 1.427 . S
N2465 C2463 1.384 . S
H2466 C2472 0.930 . S
H2467 C2476 0.930 . S
H2468 C2481 0.929 . S
H2469 C2479 0.929 . S
H2470 C2474 0.929 . S
H2471 C2480 0.929 . S
C2472 H2466 0.930 . S
C2472 C2473 1.367 . S
C2472 C2480 1.378 . S
C2473 C2472 1.367 . S
C2473 C2481 1.433 . S
C2474 H2470 0.929 . S
C2474 C2476 1.378 . S
C2474 C2478 1.350 . S
C2475 C2478 1.463 1_655 S
C2475 C2480 1.350 . S
C2475 N2483 1.427 . S
C2476 H2467 0.930 . S
C2476 C2474 1.378 . S
C2476 C2477 1.367 . S
C2477 C2476 1.367 . S
C2477 C2479 1.433 . S
C2478 C2474 1.350 . S
C2478 C2475 1.463 1_455 S
C2478 N2482 1.427 . S
C2479 H2469 0.929 . S
C2479 C2477 1.433 . S
C2479 N2482 1.384 . S
C2480 H2471 0.929 . S
C2480 C2472 1.378 . S
C2480 C2475 1.350 . S
C2481 H2468 0.929 . S
C2481 C2473 1.433 . S
C2481 N2483 1.384 . S
N2482 C2478 1.427 . S
N2482 C2479 1.384 . S
N2483 C2475 1.427 . S
N2483 C2481 1.384 . S
H2484 C2490 0.930 . S
H2485 C2494 0.930 . S
H2486 C2499 0.929 . S
H2487 C2497 0.929 . S
H2488 C2492 0.929 1_545 S
H2489 C2498 0.929 1_565 S
C2490 H2484 0.930 . S
C2490 C2491 1.367 . S
C2490 C2498 1.378 . S
C2491 C2490 1.367 . S
C2491 C2499 1.433 . S
C2492 H2488 0.929 1_565 S
C2492 C2494 1.378 . S
C2492 C2496 1.350 . S
C2493 C2496 1.463 1_545 S
C2493 C2498 1.350 . S
C2493 N2501 1.427 . S
C2494 H2485 0.930 . S
C2494 C2492 1.378 . S
C2494 C2495 1.367 . S
C2495 C2494 1.367 . S
C2495 C2497 1.433 . S
C2496 C2492 1.350 . S
C2496 C2493 1.463 1_565 S
C2496 N2500 1.427 . S
C2497 H2487 0.929 . S
C2497 C2495 1.433 . S
C2497 N2500 1.384 . S
C2498 H2489 0.929 1_545 S
C2498 C2490 1.378 . S
C2498 C2493 1.350 . S
C2499 H2486 0.929 . S
C2499 C2491 1.433 . S
C2499 N2501 1.384 . S
N2500 C2496 1.427 . S
N2500 C2497 1.384 . S
N2501 C2493 1.427 . S
N2501 C2499 1.384 . S
H2502 C2508 0.930 . S
H2503 C2512 0.930 . S
H2504 C2517 0.929 . S
H2505 C2515 0.929 . S
H2506 C2510 0.929 . S
H2507 C2516 0.929 . S
C2508 H2502 0.930 . S
C2508 C2509 1.367 . S
C2508 C2516 1.378 . S
C2509 C2508 1.367 . S
C2509 C2517 1.433 . S
C2510 H2506 0.929 . S
C2510 C2512 1.378 . S
C2510 C2514 1.350 . S
C2511 C2514 1.463 . S
C2511 C2516 1.350 . S
C2511 N2519 1.427 . S
C2512 H2503 0.930 . S
C2512 C2510 1.378 . S
C2512 C2513 1.367 . S
C2513 C2512 1.367 . S
C2513 C2515 1.433 . S
C2514 C2510 1.350 . S
C2514 C2511 1.463 . S
C2514 N2518 1.427 . S
C2515 H2505 0.929 . S
C2515 C2513 1.433 . S
C2515 N2518 1.384 . S
C2516 H2507 0.929 . S
C2516 C2508 1.378 . S
C2516 C2511 1.350 . S
C2517 H2504 0.929 . S
C2517 C2509 1.433 . S
C2517 N2519 1.384 . S
N2518 C2514 1.427 . S
N2518 C2515 1.384 . S
N2519 C2511 1.427 . S
N2519 C2517 1.384 . S
H2520 C2526 0.930 . S
H2521 C2530 0.930 . S
H2522 C2535 0.929 . S
H2523 C2533 0.929 . S
H2524 C2528 0.929 . S
H2525 C2534 0.929 . S
C2526 H2520 0.930 . S
C2526 C2527 1.367 . S
C2526 C2534 1.378 . S
C2527 C2526 1.367 . S
C2527 C2535 1.433 . S
C2528 H2524 0.929 . S
C2528 C2530 1.378 . S
C2528 C2532 1.350 . S
C2529 C2532 1.463 1_556 S
C2529 C2534 1.350 . S
C2529 N2537 1.427 . S
C2530 H2521 0.930 . S
C2530 C2528 1.378 . S
C2530 C2531 1.367 . S
C2531 C2530 1.367 . S
C2531 C2533 1.433 . S
C2532 C2528 1.350 . S
C2532 C2529 1.463 1_554 S
C2532 N2536 1.427 . S
C2533 H2523 0.929 . S
C2533 C2531 1.433 . S
C2533 N2536 1.384 . S
C2534 H2525 0.929 . S
C2534 C2526 1.378 . S
C2534 C2529 1.350 . S
C2535 H2522 0.929 . S
C2535 C2527 1.433 . S
C2535 N2537 1.384 . S
N2536 C2532 1.427 . S
N2536 C2533 1.384 . S
N2537 C2529 1.427 . S
N2537 C2535 1.384 . S
H2538 C2544 0.930 . S
H2539 C2548 0.930 . S
H2540 C2553 0.929 . S
H2541 C2551 0.929 . S
H2542 C2546 0.929 . S
H2543 C2552 0.929 . S
C2544 H2538 0.930 . S
C2544 C2545 1.367 . S
C2544 C2552 1.378 . S
C2545 C2544 1.367 . S
C2545 C2553 1.433 . S
C2546 H2542 0.929 . S
C2546 C2548 1.378 . S
C2546 C2550 1.350 . S
C2547 C2550 1.463 . S
C2547 C2552 1.350 . S
C2547 N2555 1.427 . S
C2548 H2539 0.930 . S
C2548 C2546 1.378 . S
C2548 C2549 1.367 . S
C2549 C2548 1.367 . S
C2549 C2551 1.433 . S
C2550 C2546 1.350 . S
C2550 C2547 1.463 . S
C2550 N2554 1.427 . S
C2551 H2541 0.929 . S
C2551 C2549 1.433 . S
C2551 N2554 1.384 . S
C2552 H2543 0.929 . S
C2552 C2544 1.378 . S
C2552 C2547 1.350 . S
C2553 H2540 0.929 . S
C2553 C2545 1.433 . S
C2553 N2555 1.384 . S
N2554 C2550 1.427 . S
N2554 C2551 1.384 . S
N2555 C2547 1.427 . S
N2555 C2553 1.384 . S
H2556 C2562 0.930 . S
H2557 C2566 0.930 . S
H2558 C2571 0.929 . S
H2559 C2569 0.929 . S
H2560 C2564 0.929 . S
H2561 C2570 0.929 . S
C2562 H2556 0.930 . S
C2562 C2563 1.367 . S
C2562 C2570 1.378 . S
C2563 C2562 1.367 . S
C2563 C2571 1.433 . S
C2564 H2560 0.929 . S
C2564 C2566 1.378 . S
C2564 C2568 1.350 . S
C2565 C2568 1.463 . S
C2565 C2570 1.350 . S
C2565 N2573 1.427 . S
C2566 H2557 0.930 . S
C2566 C2564 1.378 . S
C2566 C2567 1.367 . S
C2567 C2566 1.367 . S
C2567 C2569 1.433 . S
C2568 C2564 1.350 . S
C2568 C2565 1.463 . S
C2568 N2572 1.427 . S
C2569 H2559 0.929 . S
C2569 C2567 1.433 . S
C2569 N2572 1.384 . S
C2570 H2561 0.929 . S
C2570 C2562 1.378 . S
C2570 C2565 1.350 . S
C2571 H2558 0.929 . S
C2571 C2563 1.433 . S
C2571 N2573 1.384 . S
N2572 C2568 1.427 . S
N2572 C2569 1.384 . S
N2573 C2565 1.427 . S
N2573 C2571 1.384 . S
H2574 C2580 0.930 . S
H2575 C2584 0.930 . S
H2576 C2589 0.929 . S
H2577 C2587 0.929 . S
H2578 C2582 0.888 1_655 S
H2579 C2588 0.888 1_455 S
C2580 H2574 0.930 . S
C2580 C2581 1.367 . S
C2580 C2588 1.378 . S
C2581 C2580 1.367 . S
C2581 C2589 1.433 . S
C2582 H2578 0.888 1_455 S
C2582 C2584 1.378 . S
C2582 C2586 1.350 . S
C2583 C2586 1.463 1_655 S
C2583 C2588 1.350 . S
C2583 N2591 1.427 . S
C2584 H2575 0.930 . S
C2584 C2582 1.378 . S
C2584 C2585 1.367 . S
C2585 C2584 1.367 . S
C2585 C2587 1.433 . S
C2586 C2582 1.350 . S
C2586 C2583 1.463 1_455 S
C2586 N2590 1.427 . S
C2587 H2577 0.929 . S
C2587 C2585 1.433 . S
C2587 N2590 1.384 . S
C2588 H2579 0.888 1_655 S
C2588 C2580 1.378 . S
C2588 C2583 1.350 . S
C2589 H2576 0.929 . S
C2589 C2581 1.433 . S
C2589 N2591 1.384 . S
N2590 C2586 1.427 . S
N2590 C2587 1.384 . S
N2591 C2583 1.427 . S
N2591 C2589 1.384 . S
H2592 C2598 0.930 . S
H2593 C2602 0.930 . S
H2594 C2607 0.929 . S
H2595 C2605 0.929 . S
H2596 C2600 0.929 . S
H2597 C2606 0.929 . S
C2598 H2592 0.930 . S
C2598 C2599 1.367 . S
C2598 C2606 1.378 . S
C2599 C2598 1.367 . S
C2599 C2607 1.433 . S
C2600 H2596 0.929 . S
C2600 C2602 1.378 . S
C2600 C2604 1.350 . S
C2601 C2604 1.463 1_655 S
C2601 C2606 1.350 . S
C2601 N2609 1.427 . S
C2602 H2593 0.930 . S
C2602 C2600 1.378 . S
C2602 C2603 1.367 . S
C2603 C2602 1.367 . S
C2603 C2605 1.433 . S
C2604 C2600 1.350 . S
C2604 C2601 1.463 1_455 S
C2604 N2608 1.427 . S
C2605 H2595 0.929 . S
C2605 C2603 1.433 . S
C2605 N2608 1.384 . S
C2606 H2597 0.929 . S
C2606 C2598 1.378 . S
C2606 C2601 1.350 . S
C2607 H2594 0.929 . S
C2607 C2599 1.433 . S
C2607 N2609 1.384 . S
N2608 C2604 1.427 . S
N2608 C2605 1.384 . S
N2609 C2601 1.427 . S
N2609 C2607 1.384 . S
H2610 C2616 0.930 . S
H2611 C2620 0.930 . S
H2612 C2625 0.929 . S
H2613 C2623 0.929 . S
H2614 C2618 0.887 1_545 S
H2615 C2624 0.887 1_565 S
C2616 H2610 0.930 . S
C2616 C2617 1.367 . S
C2616 C2624 1.378 . S
C2617 C2616 1.367 . S
C2617 C2625 1.433 . S
C2618 H2614 0.887 1_565 S
C2618 C2620 1.378 . S
C2618 C2622 1.350 . S
C2619 C2622 1.463 1_545 S
C2619 C2624 1.350 . S
C2619 N2627 1.427 . S
C2620 H2611 0.930 . S
C2620 C2618 1.378 . S
C2620 C2621 1.367 . S
C2621 C2620 1.367 . S
C2621 C2623 1.433 . S
C2622 C2618 1.350 . S
C2622 C2619 1.463 1_565 S
C2622 N2626 1.427 . S
C2623 H2613 0.929 . S
C2623 C2621 1.433 . S
C2623 N2626 1.384 . S
C2624 H2615 0.887 1_545 S
C2624 C2616 1.378 . S
C2624 C2619 1.350 . S
C2625 H2612 0.929 . S
C2625 C2617 1.433 . S
C2625 N2627 1.384 . S
N2626 C2622 1.427 . S
N2626 C2623 1.384 . S
N2627 C2619 1.427 . S
N2627 C2625 1.384 . S
H2628 C2634 0.930 . S
H2629 C2638 0.930 . S
H2630 C2643 0.929 . S
H2631 C2641 0.929 . S
H2632 C2636 0.929 . S
H2633 C2642 0.929 . S
C2634 H2628 0.930 . S
C2634 C2635 1.367 . S
C2634 C2642 1.378 . S
C2635 C2634 1.367 . S
C2635 C2643 1.433 . S
C2636 H2632 0.929 . S
C2636 C2638 1.378 . S
C2636 C2640 1.350 . S
C2637 C2640 1.463 . S
C2637 C2642 1.350 . S
C2637 N2645 1.427 . S
C2638 H2629 0.930 . S
C2638 C2636 1.378 . S
C2638 C2639 1.367 . S
C2639 C2638 1.367 . S
C2639 C2641 1.433 . S
C2640 C2636 1.350 . S
C2640 C2637 1.463 . S
C2640 N2644 1.427 . S
C2641 H2631 0.929 . S
C2641 C2639 1.433 . S
C2641 N2644 1.384 . S
C2642 H2633 0.929 . S
C2642 C2634 1.378 . S
C2642 C2637 1.350 . S
C2643 H2630 0.929 . S
C2643 C2635 1.433 . S
C2643 N2645 1.384 . S
N2644 C2640 1.427 . S
N2644 C2641 1.384 . S
N2645 C2637 1.427 . S
N2645 C2643 1.384 . S
H2646 C2652 0.930 . S
H2647 C2656 0.930 . S
H2648 C2661 0.929 . S
H2649 C2659 0.929 . S
H2650 C2654 0.929 . S
H2651 C2660 0.929 . S
C2652 H2646 0.930 . S
C2652 C2653 1.367 . S
C2652 C2660 1.378 . S
C2653 C2652 1.367 . S
C2653 C2661 1.433 . S
C2654 H2650 0.929 . S
C2654 C2656 1.378 . S
C2654 C2658 1.350 . S
C2655 C2658 1.463 1_556 S
C2655 C2660 1.350 . S
C2655 N2663 1.427 . S
C2656 H2647 0.930 . S
C2656 C2654 1.378 . S
C2656 C2657 1.367 . S
C2657 C2656 1.367 . S
C2657 C2659 1.433 . S
C2658 C2654 1.350 . S
C2658 C2655 1.463 1_554 S
C2658 N2662 1.427 . S
C2659 H2649 0.929 . S
C2659 C2657 1.433 . S
C2659 N2662 1.384 . S
C2660 H2651 0.929 . S
C2660 C2652 1.378 . S
C2660 C2655 1.350 . S
C2661 H2648 0.929 . S
C2661 C2653 1.433 . S
C2661 N2663 1.384 . S
N2662 C2658 1.427 . S
N2662 C2659 1.384 . S
N2663 C2655 1.427 . S
N2663 C2661 1.384 . S
H2664 C2670 0.930 . S
H2665 C2674 0.930 . S
H2666 C2679 0.929 . S
H2667 C2677 0.929 . S
H2668 C2672 0.929 . S
H2669 C2678 0.929 . S
C2670 H2664 0.930 . S
C2670 C2671 1.367 . S
C2670 C2678 1.378 . S
C2671 C2670 1.367 . S
C2671 C2679 1.433 . S
C2672 H2668 0.929 . S
C2672 C2674 1.378 . S
C2672 C2676 1.350 . S
C2673 C2676 1.463 . S
C2673 C2678 1.350 . S
C2673 N2681 1.427 . S
C2674 H2665 0.930 . S
C2674 C2672 1.378 . S
C2674 C2675 1.367 . S
C2675 C2674 1.367 . S
C2675 C2677 1.433 . S
C2676 C2672 1.350 . S
C2676 C2673 1.463 . S
C2676 N2680 1.427 . S
C2677 H2667 0.929 . S
C2677 C2675 1.433 . S
C2677 N2680 1.384 . S
C2678 H2669 0.929 . S
C2678 C2670 1.378 . S
C2678 C2673 1.350 . S
C2679 H2666 0.929 . S
C2679 C2671 1.433 . S
C2679 N2681 1.384 . S
N2680 C2676 1.427 . S
N2680 C2677 1.384 . S
N2681 C2673 1.427 . S
N2681 C2679 1.384 . S
H2682 C2688 0.930 . S
H2683 C2692 0.930 . S
H2684 C2697 0.929 . S
H2685 C2695 0.929 . S
H2686 C2690 0.929 . S
H2687 C2696 0.929 . S
C2688 H2682 0.930 . S
C2688 C2689 1.367 . S
C2688 C2696 1.378 . S
C2689 C2688 1.367 . S
C2689 C2697 1.433 . S
C2690 H2686 0.929 . S
C2690 C2692 1.378 . S
C2690 C2694 1.350 . S
C2691 C2694 1.463 . S
C2691 C2696 1.350 . S
C2691 N2699 1.427 . S
C2692 H2683 0.930 . S
C2692 C2690 1.378 . S
C2692 C2693 1.367 . S
C2693 C2692 1.367 . S
C2693 C2695 1.433 . S
C2694 C2690 1.350 . S
C2694 C2691 1.463 . S
C2694 N2698 1.427 . S
C2695 H2685 0.929 . S
C2695 C2693 1.433 . S
C2695 N2698 1.384 . S
C2696 H2687 0.929 . S
C2696 C2688 1.378 . S
C2696 C2691 1.350 . S
C2697 H2684 0.929 . S
C2697 C2689 1.433 . S
C2697 N2699 1.384 . S
N2698 C2694 1.427 . S
N2698 C2695 1.384 . S
N2699 C2691 1.427 . S
N2699 C2697 1.384 . S
H2700 C2706 0.930 . S
H2701 C2710 0.930 . S
H2702 C2715 0.929 . S
H2703 C2713 0.929 . S
H2704 C2708 0.929 . S
H2705 C2714 0.929 . S
C2706 H2700 0.930 . S
C2706 C2707 1.367 . S
C2706 C2714 1.378 . S
C2707 C2706 1.367 . S
C2707 C2715 1.433 . S
C2708 H2704 0.929 . S
C2708 C2710 1.378 . S
C2708 C2712 1.350 . S
C2709 C2712 1.463 . S
C2709 C2714 1.350 . S
C2709 N2717 1.427 . S
C2710 H2701 0.930 . S
C2710 C2708 1.378 . S
C2710 C2711 1.367 . S
C2711 C2710 1.367 . S
C2711 C2713 1.433 . S
C2712 C2708 1.350 . S
C2712 C2709 1.463 . S
C2712 N2716 1.427 . S
C2713 H2703 0.929 . S
C2713 C2711 1.433 . S
C2713 N2716 1.384 . S
C2714 H2705 0.929 . S
C2714 C2706 1.378 . S
C2714 C2709 1.350 . S
C2715 H2702 0.929 . S
C2715 C2707 1.433 . S
C2715 N2717 1.384 . S
N2716 C2712 1.427 . S
N2716 C2713 1.384 . S
N2717 C2709 1.427 . S
N2717 C2715 1.384 . S
H2718 C2724 0.930 . S
H2719 C2728 0.930 . S
H2720 C2733 0.929 . S
H2721 C2731 0.929 . S
H2722 C2726 0.929 . S
H2723 C2732 0.929 . S
C2724 H2718 0.930 . S
C2724 C2725 1.367 . S
C2724 C2732 1.378 . S
C2725 C2724 1.367 . S
C2725 C2733 1.433 . S
C2726 H2722 0.929 . S
C2726 C2728 1.378 . S
C2726 C2730 1.350 . S
C2727 C2730 1.463 . S
C2727 C2732 1.350 . S
C2727 N2735 1.427 . S
C2728 H2719 0.930 . S
C2728 C2726 1.378 . S
C2728 C2729 1.367 . S
C2729 C2728 1.367 . S
C2729 C2731 1.433 . S
C2730 C2726 1.350 . S
C2730 C2727 1.463 . S
C2730 N2734 1.427 . S
C2731 H2721 0.929 . S
C2731 C2729 1.433 . S
C2731 N2734 1.384 . S
C2732 H2723 0.929 . S
C2732 C2724 1.378 . S
C2732 C2727 1.350 . S
C2733 H2720 0.929 . S
C2733 C2725 1.433 . S
C2733 N2735 1.384 . S
N2734 C2730 1.427 . S
N2734 C2731 1.384 . S
N2735 C2727 1.427 . S
N2735 C2733 1.384 . S
H2736 C2742 0.930 . S
H2737 C2746 0.930 . S
H2738 C2751 0.929 . S
H2739 C2749 0.929 . S
H2740 C2744 0.929 . S
H2741 C2750 0.929 . S
C2742 H2736 0.930 . S
C2742 C2743 1.367 . S
C2742 C2750 1.378 . S
C2743 C2742 1.367 . S
C2743 C2751 1.433 . S
C2744 H2740 0.929 . S
C2744 C2746 1.378 . S
C2744 C2748 1.350 . S
C2745 C2748 1.463 . S
C2745 C2750 1.350 . S
C2745 N2753 1.427 . S
C2746 H2737 0.930 . S
C2746 C2744 1.378 . S
C2746 C2747 1.367 . S
C2747 C2746 1.367 . S
C2747 C2749 1.433 . S
C2748 C2744 1.350 . S
C2748 C2745 1.463 . S
C2748 N2752 1.427 . S
C2749 H2739 0.929 . S
C2749 C2747 1.433 . S
C2749 N2752 1.384 . S
C2750 H2741 0.929 . S
C2750 C2742 1.378 . S
C2750 C2745 1.350 . S
C2751 H2738 0.929 . S
C2751 C2743 1.433 . S
C2751 N2753 1.384 . S
N2752 C2748 1.427 . S
N2752 C2749 1.384 . S
N2753 C2745 1.427 . S
N2753 C2751 1.384 . S
H2754 C2760 0.930 . S
H2755 C2764 0.930 . S
H2756 C2769 0.929 . S
H2757 C2767 0.929 . S
H2758 C2762 0.929 . S
H2759 C2768 0.929 . S
C2760 H2754 0.930 . S
C2760 C2761 1.367 . S
C2760 C2768 1.378 . S
C2761 C2760 1.367 . S
C2761 C2769 1.433 . S
C2762 H2758 0.929 . S
C2762 C2764 1.378 . S
C2762 C2766 1.350 . S
C2763 C2766 1.463 1_545 S
C2763 C2768 1.350 . S
C2763 N2771 1.427 . S
C2764 H2755 0.930 . S
C2764 C2762 1.378 . S
C2764 C2765 1.367 . S
C2765 C2764 1.367 . S
C2765 C2767 1.433 . S
C2766 C2762 1.350 . S
C2766 C2763 1.463 1_565 S
C2766 N2770 1.427 . S
C2767 H2757 0.929 . S
C2767 C2765 1.433 . S
C2767 N2770 1.384 . S
C2768 H2759 0.929 . S
C2768 C2760 1.378 . S
C2768 C2763 1.350 . S
C2769 H2756 0.929 . S
C2769 C2761 1.433 . S
C2769 N2771 1.384 . S
N2770 C2766 1.427 . S
N2770 C2767 1.384 . S
N2771 C2763 1.427 . S
N2771 C2769 1.384 . S
H2772 C2778 0.930 . S
H2773 C2782 0.930 . S
H2774 C2787 0.929 . S
H2775 C2785 0.929 . S
H2776 C2780 0.929 . S
H2777 C2786 0.929 . S
C2778 H2772 0.930 . S
C2778 C2779 1.367 . S
C2778 C2786 1.378 . S
C2779 C2778 1.367 . S
C2779 C2787 1.433 . S
C2780 H2776 0.929 . S
C2780 C2782 1.378 . S
C2780 C2784 1.350 . S
C2781 C2784 1.463 1_554 S
C2781 C2786 1.350 . S
C2781 N2789 1.427 . S
C2782 H2773 0.930 . S
C2782 C2780 1.378 . S
C2782 C2783 1.367 . S
C2783 C2782 1.367 . S
C2783 C2785 1.433 . S
C2784 C2780 1.350 . S
C2784 C2781 1.463 1_556 S
C2784 N2788 1.427 . S
C2785 H2775 0.929 . S
C2785 C2783 1.433 . S
C2785 N2788 1.384 . S
C2786 H2777 0.929 . S
C2786 C2778 1.378 . S
C2786 C2781 1.350 . S
C2787 H2774 0.929 . S
C2787 C2779 1.433 . S
C2787 N2789 1.384 . S
N2788 C2784 1.427 . S
N2788 C2785 1.384 . S
N2789 C2781 1.427 . S
N2789 C2787 1.384 . S
H2790 C2796 0.930 . S
H2791 C2800 0.930 . S
H2792 C2805 0.929 . S
H2793 C2803 0.929 . S
H2794 C2798 0.929 . S
H2795 C2804 0.929 . S
C2796 H2790 0.930 . S
C2796 C2797 1.367 . S
C2796 C2804 1.378 . S
C2797 C2796 1.367 . S
C2797 C2805 1.433 . S
C2798 H2794 0.929 . S
C2798 C2800 1.378 . S
C2798 C2802 1.350 . S
C2799 C2802 1.463 . S
C2799 C2804 1.350 . S
C2799 N2807 1.427 . S
C2800 H2791 0.930 . S
C2800 C2798 1.378 . S
C2800 C2801 1.367 . S
C2801 C2800 1.367 . S
C2801 C2803 1.433 . S
C2802 C2798 1.350 . S
C2802 C2799 1.463 . S
C2802 N2806 1.427 . S
C2803 H2793 0.929 . S
C2803 C2801 1.433 . S
C2803 N2806 1.384 . S
C2804 H2795 0.929 . S
C2804 C2796 1.378 . S
C2804 C2799 1.350 . S
C2805 H2792 0.929 . S
C2805 C2797 1.433 . S
C2805 N2807 1.384 . S
N2806 C2802 1.427 . S
N2806 C2803 1.384 . S
N2807 C2799 1.427 . S
N2807 C2805 1.384 . S
H2808 C2814 0.930 . S
H2809 C2818 0.930 . S
H2810 C2823 0.929 . S
H2811 C2821 0.929 . S
H2812 C2816 0.929 . S
H2813 C2822 0.929 . S
C2814 H2808 0.930 . S
C2814 C2815 1.367 . S
C2814 C2822 1.378 . S
C2815 C2814 1.367 . S
C2815 C2823 1.433 . S
C2816 H2812 0.929 . S
C2816 C2818 1.378 . S
C2816 C2820 1.350 . S
C2817 C2820 1.463 . S
C2817 C2822 1.350 . S
C2817 N2825 1.427 . S
C2818 H2809 0.930 . S
C2818 C2816 1.378 . S
C2818 C2819 1.367 . S
C2819 C2818 1.367 . S
C2819 C2821 1.433 . S
C2820 C2816 1.350 . S
C2820 C2817 1.463 . S
C2820 N2824 1.427 . S
C2821 H2811 0.929 . S
C2821 C2819 1.433 . S
C2821 N2824 1.384 . S
C2822 H2813 0.929 . S
C2822 C2814 1.378 . S
C2822 C2817 1.350 . S
C2823 H2810 0.929 . S
C2823 C2815 1.433 . S
C2823 N2825 1.384 . S
N2824 C2820 1.427 . S
N2824 C2821 1.384 . S
N2825 C2817 1.427 . S
N2825 C2823 1.384 . S
H2826 C2832 0.930 . S
H2827 C2836 0.930 . S
H2828 C2841 0.929 . S
H2829 C2839 0.929 . S
H2830 C2834 0.929 . S
H2831 C2840 0.929 . S
C2832 H2826 0.930 . S
C2832 C2833 1.367 . S
C2832 C2840 1.378 . S
C2833 C2832 1.367 . S
C2833 C2841 1.433 . S
C2834 H2830 0.929 . S
C2834 C2836 1.378 . S
C2834 C2838 1.350 . S
C2835 C2838 1.463 . S
C2835 C2840 1.350 . S
C2835 N2843 1.427 . S
C2836 H2827 0.930 . S
C2836 C2834 1.378 . S
C2836 C2837 1.367 . S
C2837 C2836 1.367 . S
C2837 C2839 1.433 . S
C2838 C2834 1.350 . S
C2838 C2835 1.463 . S
C2838 N2842 1.427 . S
C2839 H2829 0.929 . S
C2839 C2837 1.433 . S
C2839 N2842 1.384 . S
C2840 H2831 0.929 . S
C2840 C2832 1.378 . S
C2840 C2835 1.350 . S
C2841 H2828 0.929 . S
C2841 C2833 1.433 . S
C2841 N2843 1.384 . S
N2842 C2838 1.427 . S
N2842 C2839 1.384 . S
N2843 C2835 1.427 . S
N2843 C2841 1.384 . S
H2844 C2850 0.930 . S
H2845 C2854 0.930 . S
H2846 C2859 0.929 . S
H2847 C2857 0.929 . S
H2848 C2852 0.929 1_565 S
H2849 C2858 0.929 1_545 S
C2850 H2844 0.930 . S
C2850 C2851 1.367 . S
C2850 C2858 1.378 . S
C2851 C2850 1.367 . S
C2851 C2859 1.433 . S
C2852 H2848 0.929 1_545 S
C2852 C2854 1.378 . S
C2852 C2856 1.350 . S
C2853 C2856 1.463 1_565 S
C2853 C2858 1.350 . S
C2853 N2861 1.427 . S
C2854 H2845 0.930 . S
C2854 C2852 1.378 . S
C2854 C2855 1.367 . S
C2855 C2854 1.367 . S
C2855 C2857 1.433 . S
C2856 C2852 1.350 . S
C2856 C2853 1.463 1_545 S
C2856 N2860 1.427 . S
C2857 H2847 0.929 . S
C2857 C2855 1.433 . S
C2857 N2860 1.384 . S
C2858 H2849 0.929 1_565 S
C2858 C2850 1.378 . S
C2858 C2853 1.350 . S
C2859 H2846 0.929 . S
C2859 C2851 1.433 . S
C2859 N2861 1.384 . S
N2860 C2856 1.427 . S
N2860 C2857 1.384 . S
N2861 C2853 1.427 . S
N2861 C2859 1.384 . S
H2862 C2868 0.930 . S
H2863 C2872 0.930 . S
H2864 C2877 0.929 . S
H2865 C2875 0.929 . S
H2866 C2870 0.929 . S
H2867 C2876 0.929 . S
C2868 H2862 0.930 . S
C2868 C2869 1.367 . S
C2868 C2876 1.378 . S
C2869 C2868 1.367 . S
C2869 C2877 1.433 . S
C2870 H2866 0.929 . S
C2870 C2872 1.378 . S
C2870 C2874 1.350 . S
C2871 C2874 1.463 1_556 S
C2871 C2876 1.350 . S
C2871 N2879 1.427 . S
C2872 H2863 0.930 . S
C2872 C2870 1.378 . S
C2872 C2873 1.367 . S
C2873 C2872 1.367 . S
C2873 C2875 1.433 . S
C2874 C2870 1.350 . S
C2874 C2871 1.463 1_554 S
C2874 N2878 1.427 . S
C2875 H2865 0.929 . S
C2875 C2873 1.433 . S
C2875 N2878 1.384 . S
C2876 H2867 0.929 . S
C2876 C2868 1.378 . S
C2876 C2871 1.350 . S
C2877 H2864 0.929 . S
C2877 C2869 1.433 . S
C2877 N2879 1.384 . S
N2878 C2874 1.427 . S
N2878 C2875 1.384 . S
N2879 C2871 1.427 . S
N2879 C2877 1.384 . S
H2880 C2886 0.930 . S
H2881 C2890 0.930 . S
H2882 C2895 0.929 . S
H2883 C2893 0.929 . S
H2884 C2888 0.929 . S
H2885 C2894 0.929 . S
C2886 H2880 0.930 . S
C2886 C2887 1.367 . S
C2886 C2894 1.378 . S
C2887 C2886 1.367 . S
C2887 C2895 1.433 . S
C2888 H2884 0.929 . S
C2888 C2890 1.378 . S
C2888 C2892 1.350 . S
C2889 C2892 1.463 . S
C2889 C2894 1.350 . S
C2889 N2897 1.427 . S
C2890 H2881 0.930 . S
C2890 C2888 1.378 . S
C2890 C2891 1.367 . S
C2891 C2890 1.367 . S
C2891 C2893 1.433 . S
C2892 C2888 1.350 . S
C2892 C2889 1.463 . S
C2892 N2896 1.427 . S
C2893 H2883 0.929 . S
C2893 C2891 1.433 . S
C2893 N2896 1.384 . S
C2894 H2885 0.929 . S
C2894 C2886 1.378 . S
C2894 C2889 1.350 . S
C2895 H2882 0.929 . S
C2895 C2887 1.433 . S
C2895 N2897 1.384 . S
N2896 C2892 1.427 . S
N2896 C2893 1.384 . S
N2897 C2889 1.427 . S
N2897 C2895 1.384 . S
H2898 C2904 0.930 . S
H2899 C2908 0.930 . S
H2900 C2913 0.929 . S
H2901 C2911 0.929 . S
H2902 C2906 0.929 . S
H2903 C2912 0.929 . S
C2904 H2898 0.930 . S
C2904 C2905 1.367 . S
C2904 C2912 1.378 . S
C2905 C2904 1.367 . S
C2905 C2913 1.433 . S
C2906 H2902 0.929 . S
C2906 C2908 1.378 . S
C2906 C2910 1.350 . S
C2907 C2910 1.463 . S
C2907 C2912 1.350 . S
C2907 N2915 1.427 . S
C2908 H2899 0.930 . S
C2908 C2906 1.378 . S
C2908 C2909 1.367 . S
C2909 C2908 1.367 . S
C2909 C2911 1.433 . S
C2910 C2906 1.350 . S
C2910 C2907 1.463 . S
C2910 N2914 1.427 . S
C2911 H2901 0.929 . S
C2911 C2909 1.433 . S
C2911 N2914 1.384 . S
C2912 H2903 0.929 . S
C2912 C2904 1.378 . S
C2912 C2907 1.350 . S
C2913 H2900 0.929 . S
C2913 C2905 1.433 . S
C2913 N2915 1.384 . S
N2914 C2910 1.427 . S
N2914 C2911 1.384 . S
N2915 C2907 1.427 . S
N2915 C2913 1.384 . S
H2916 C2922 0.930 . S
H2917 C2926 0.930 . S
H2918 C2931 0.929 . S
H2919 C2929 0.929 . S
H2920 C2924 0.929 . S
H2921 C2930 0.929 . S
C2922 H2916 0.930 . S
C2922 C2923 1.367 . S
C2922 C2930 1.378 . S
C2923 C2922 1.367 . S
C2923 C2931 1.433 . S
C2924 H2920 0.929 . S
C2924 C2926 1.378 . S
C2924 C2928 1.350 . S
C2925 C2928 1.463 1_556 S
C2925 C2930 1.350 . S
C2925 N2933 1.427 . S
C2926 H2917 0.930 . S
C2926 C2924 1.378 . S
C2926 C2927 1.367 . S
C2927 C2926 1.367 . S
C2927 C2929 1.433 . S
C2928 C2924 1.350 . S
C2928 C2925 1.463 1_554 S
C2928 N2932 1.427 . S
C2929 H2919 0.929 . S
C2929 C2927 1.433 . S
C2929 N2932 1.384 . S
C2930 H2921 0.929 . S
C2930 C2922 1.378 . S
C2930 C2925 1.350 . S
C2931 H2918 0.929 . S
C2931 C2923 1.433 . S
C2931 N2933 1.384 . S
N2932 C2928 1.427 . S
N2932 C2929 1.384 . S
N2933 C2925 1.427 . S
N2933 C2931 1.384 . S
H2934 C2940 0.930 . S
H2935 C2944 0.930 . S
H2936 C2949 0.929 . S
H2937 C2947 0.929 . S
H2938 C2942 0.929 . S
H2939 C2948 0.929 . S
C2940 H2934 0.930 . S
C2940 C2941 1.367 . S
C2940 C2948 1.378 . S
C2941 C2940 1.367 . S
C2941 C2949 1.433 . S
C2942 H2938 0.929 . S
C2942 C2944 1.378 . S
C2942 C2946 1.350 . S
C2943 C2946 1.463 1_556 S
C2943 C2948 1.350 . S
C2943 N2951 1.427 . S
C2944 H2935 0.930 . S
C2944 C2942 1.378 . S
C2944 C2945 1.367 . S
C2945 C2944 1.367 . S
C2945 C2947 1.433 . S
C2946 C2942 1.350 . S
C2946 C2943 1.463 1_554 S
C2946 N2950 1.427 . S
C2947 H2937 0.929 . S
C2947 C2945 1.433 . S
C2947 N2950 1.384 . S
C2948 H2939 0.929 . S
C2948 C2940 1.378 . S
C2948 C2943 1.350 . S
C2949 H2936 0.929 . S
C2949 C2941 1.433 . S
C2949 N2951 1.384 . S
N2950 C2946 1.427 . S
N2950 C2947 1.384 . S
N2951 C2943 1.427 . S
N2951 C2949 1.384 . S
H2952 C2958 0.930 . S
H2953 C2962 0.930 . S
H2954 C2967 0.929 . S
H2955 C2965 0.929 . S
H2956 C2960 0.929 . S
H2957 C2966 0.929 . S
C2958 H2952 0.930 . S
C2958 C2959 1.367 . S
C2958 C2966 1.378 . S
C2959 C2958 1.367 . S
C2959 C2967 1.433 . S
C2960 H2956 0.929 . S
C2960 C2962 1.378 . S
C2960 C2964 1.350 . S
C2961 C2964 1.463 . S
C2961 C2966 1.350 . S
C2961 N2969 1.427 . S
C2962 H2953 0.930 . S
C2962 C2960 1.378 . S
C2962 C2963 1.367 . S
C2963 C2962 1.367 . S
C2963 C2965 1.433 . S
C2964 C2960 1.350 . S
C2964 C2961 1.463 . S
C2964 N2968 1.427 . S
C2965 H2955 0.929 . S
C2965 C2963 1.433 . S
C2965 N2968 1.384 . S
C2966 H2957 0.929 . S
C2966 C2958 1.378 . S
C2966 C2961 1.350 . S
C2967 H2954 0.929 . S
C2967 C2959 1.433 . S
C2967 N2969 1.384 . S
N2968 C2964 1.427 . S
N2968 C2965 1.384 . S
N2969 C2961 1.427 . S
N2969 C2967 1.384 . S
H2970 C2976 0.930 . S
H2971 C2980 0.930 . S
H2972 C2985 0.929 . S
H2973 C2983 0.929 . S
H2974 C2978 0.929 . S
H2975 C2984 0.929 . S
C2976 H2970 0.930 . S
C2976 C2977 1.367 . S
C2976 C2984 1.378 . S
C2977 C2976 1.367 . S
C2977 C2985 1.433 . S
C2978 H2974 0.929 . S
C2978 C2980 1.378 . S
C2978 C2982 1.350 . S
C2979 C2982 1.463 . S
C2979 C2984 1.350 . S
C2979 N2987 1.427 . S
C2980 H2971 0.930 . S
C2980 C2978 1.378 . S
C2980 C2981 1.367 . S
C2981 C2980 1.367 . S
C2981 C2983 1.433 . S
C2982 C2978 1.350 . S
C2982 C2979 1.463 . S
C2982 N2986 1.427 . S
C2983 H2973 0.929 . S
C2983 C2981 1.433 . S
C2983 N2986 1.384 . S
C2984 H2975 0.929 . S
C2984 C2976 1.378 . S
C2984 C2979 1.350 . S
C2985 H2972 0.929 . S
C2985 C2977 1.433 . S
C2985 N2987 1.384 . S
N2986 C2982 1.427 . S
N2986 C2983 1.384 . S
N2987 C2979 1.427 . S
N2987 C2985 1.384 . S
H2988 C2994 0.930 . S
H2989 C2998 0.930 . S
H2990 C3003 0.929 . S
H2991 C3001 0.929 . S
H2992 C2996 0.929 . S
H2993 C3002 0.929 . S
C2994 H2988 0.930 . S
C2994 C2995 1.367 . S
C2994 C3002 1.378 . S
C2995 C2994 1.367 . S
C2995 C3003 1.433 . S
C2996 H2992 0.929 . S
C2996 C2998 1.378 . S
C2996 C3000 1.350 . S
C2997 C3000 1.463 . S
C2997 C3002 1.350 . S
C2997 N3005 1.427 . S
C2998 H2989 0.930 . S
C2998 C2996 1.378 . S
C2998 C2999 1.367 . S
C2999 C2998 1.367 . S
C2999 C3001 1.433 . S
C3000 C2996 1.350 . S
C3000 C2997 1.463 . S
C3000 N3004 1.427 . S
C3001 H2991 0.929 . S
C3001 C2999 1.433 . S
C3001 N3004 1.384 . S
C3002 H2993 0.929 . S
C3002 C2994 1.378 . S
C3002 C2997 1.350 . S
C3003 H2990 0.929 . S
C3003 C2995 1.433 . S
C3003 N3005 1.384 . S
N3004 C3000 1.427 . S
N3004 C3001 1.384 . S
N3005 C2997 1.427 . S
N3005 C3003 1.384 . S
H3006 C3012 0.930 . S
H3007 C3016 0.930 . S
H3008 C3021 0.929 . S
H3009 C3019 0.929 . S
H3010 C3014 0.929 . S
H3011 C3020 0.929 . S
C3012 H3006 0.930 . S
C3012 C3013 1.367 . S
C3012 C3020 1.378 . S
C3013 C3012 1.367 . S
C3013 C3021 1.433 . S
C3014 H3010 0.929 . S
C3014 C3016 1.378 . S
C3014 C3018 1.350 . S
C3015 C3018 1.463 . S
C3015 C3020 1.350 . S
C3015 N3023 1.427 . S
C3016 H3007 0.930 . S
C3016 C3014 1.378 . S
C3016 C3017 1.367 . S
C3017 C3016 1.367 . S
C3017 C3019 1.433 . S
C3018 C3014 1.350 . S
C3018 C3015 1.463 . S
C3018 N3022 1.427 . S
C3019 H3009 0.929 . S
C3019 C3017 1.433 . S
C3019 N3022 1.384 . S
C3020 H3011 0.929 . S
C3020 C3012 1.378 . S
C3020 C3015 1.350 . S
C3021 H3008 0.929 . S
C3021 C3013 1.433 . S
C3021 N3023 1.384 . S
N3022 C3018 1.427 . S
N3022 C3019 1.384 . S
N3023 C3015 1.427 . S
N3023 C3021 1.384 . S
H3024 C3030 0.930 . S
H3025 C3034 0.930 . S
H3026 C3039 0.929 . S
H3027 C3037 0.929 . S
H3028 C3032 0.929 . S
H3029 C3038 0.929 . S
C3030 H3024 0.930 . S
C3030 C3031 1.367 . S
C3030 C3038 1.378 . S
C3031 C3030 1.367 . S
C3031 C3039 1.433 . S
C3032 H3028 0.929 . S
C3032 C3034 1.378 . S
C3032 C3036 1.350 . S
C3033 C3036 1.463 . S
C3033 C3038 1.350 . S
C3033 N3041 1.427 . S
C3034 H3025 0.930 . S
C3034 C3032 1.378 . S
C3034 C3035 1.367 . S
C3035 C3034 1.367 . S
C3035 C3037 1.433 . S
C3036 C3032 1.350 . S
C3036 C3033 1.463 . S
C3036 N3040 1.427 . S
C3037 H3027 0.929 . S
C3037 C3035 1.433 . S
C3037 N3040 1.384 . S
C3038 H3029 0.929 . S
C3038 C3030 1.378 . S
C3038 C3033 1.350 . S
C3039 H3026 0.929 . S
C3039 C3031 1.433 . S
C3039 N3041 1.384 . S
N3040 C3036 1.427 . S
N3040 C3037 1.384 . S
N3041 C3033 1.427 . S
N3041 C3039 1.384 . S
H3042 C3048 0.930 . S
H3043 C3052 0.930 . S
H3044 C3057 0.929 . S
H3045 C3055 0.929 . S
H3046 C3050 0.929 . S
H3047 C3056 0.929 . S
C3048 H3042 0.930 . S
C3048 C3049 1.367 . S
C3048 C3056 1.378 . S
C3049 C3048 1.367 . S
C3049 C3057 1.433 . S
C3050 H3046 0.929 . S
C3050 C3052 1.378 . S
C3050 C3054 1.350 . S
C3051 C3054 1.463 . S
C3051 C3056 1.350 . S
C3051 N3059 1.427 . S
C3052 H3043 0.930 . S
C3052 C3050 1.378 . S
C3052 C3053 1.367 . S
C3053 C3052 1.367 . S
C3053 C3055 1.433 . S
C3054 C3050 1.350 . S
C3054 C3051 1.463 . S
C3054 N3058 1.427 . S
C3055 H3045 0.929 . S
C3055 C3053 1.433 . S
C3055 N3058 1.384 . S
C3056 H3047 0.929 . S
C3056 C3048 1.378 . S
C3056 C3051 1.350 . S
C3057 H3044 0.929 . S
C3057 C3049 1.433 . S
C3057 N3059 1.384 . S
N3058 C3054 1.427 . S
N3058 C3055 1.384 . S
N3059 C3051 1.427 . S
N3059 C3057 1.384 . S
H3060 C3066 0.930 . S
H3061 C3070 0.930 . S
H3062 C3075 0.929 . S
H3063 C3073 0.929 . S
H3064 C3068 0.929 . S
H3065 C3074 0.929 . S
C3066 H3060 0.930 . S
C3066 C3067 1.367 . S
C3066 C3074 1.378 . S
C3067 C3066 1.367 . S
C3067 C3075 1.433 . S
C3068 H3064 0.929 . S
C3068 C3070 1.378 . S
C3068 C3072 1.350 . S
C3069 C3072 1.463 1_565 S
C3069 C3074 1.350 . S
C3069 N3077 1.427 . S
C3070 H3061 0.930 . S
C3070 C3068 1.378 . S
C3070 C3071 1.367 . S
C3071 C3070 1.367 . S
C3071 C3073 1.433 . S
C3072 C3068 1.350 . S
C3072 C3069 1.463 1_545 S
C3072 N3076 1.427 . S
C3073 H3063 0.929 . S
C3073 C3071 1.433 . S
C3073 N3076 1.384 . S
C3074 H3065 0.929 . S
C3074 C3066 1.378 . S
C3074 C3069 1.350 . S
C3075 H3062 0.929 . S
C3075 C3067 1.433 . S
C3075 N3077 1.384 . S
N3076 C3072 1.427 . S
N3076 C3073 1.384 . S
N3077 C3069 1.427 . S
N3077 C3075 1.384 . S
H3078 C3084 0.930 . S
H3079 C3088 0.930 . S
H3080 C3093 0.929 . S
H3081 C3091 0.929 . S
H3082 C3086 0.929 . S
H3083 C3092 0.929 . S
C3084 H3078 0.930 . S
C3084 C3085 1.367 . S
C3084 C3092 1.378 . S
C3085 C3084 1.367 . S
C3085 C3093 1.433 . S
C3086 H3082 0.929 . S
C3086 C3088 1.378 . S
C3086 C3090 1.350 . S
C3087 C3090 1.463 . S
C3087 C3092 1.350 . S
C3087 N3095 1.427 . S
C3088 H3079 0.930 . S
C3088 C3086 1.378 . S
C3088 C3089 1.367 . S
C3089 C3088 1.367 . S
C3089 C3091 1.433 . S
C3090 C3086 1.350 . S
C3090 C3087 1.463 . S
C3090 N3094 1.427 . S
C3091 H3081 0.929 . S
C3091 C3089 1.433 . S
C3091 N3094 1.384 . S
C3092 H3083 0.929 . S
C3092 C3084 1.378 . S
C3092 C3087 1.350 . S
C3093 H3080 0.929 . S
C3093 C3085 1.433 . S
C3093 N3095 1.384 . S
N3094 C3090 1.427 . S
N3094 C3091 1.384 . S
N3095 C3087 1.427 . S
N3095 C3093 1.384 . S
H3096 C3102 0.930 . S
H3097 C3106 0.930 . S
H3098 C3111 0.929 . S
H3099 C3109 0.929 . S
H3100 C3104 0.929 . S
H3101 C3110 0.929 . S
C3102 H3096 0.930 . S
C3102 C3103 1.367 . S
C3102 C3110 1.378 . S
C3103 C3102 1.367 . S
C3103 C3111 1.433 . S
C3104 H3100 0.929 . S
C3104 C3106 1.378 . S
C3104 C3108 1.350 . S
C3105 C3108 1.463 . S
C3105 C3110 1.350 . S
C3105 N3113 1.427 . S
C3106 H3097 0.930 . S
C3106 C3104 1.378 . S
C3106 C3107 1.367 . S
C3107 C3106 1.367 . S
C3107 C3109 1.433 . S
C3108 C3104 1.350 . S
C3108 C3105 1.463 . S
C3108 N3112 1.427 . S
C3109 H3099 0.929 . S
C3109 C3107 1.433 . S
C3109 N3112 1.384 . S
C3110 H3101 0.929 . S
C3110 C3102 1.378 . S
C3110 C3105 1.350 . S
C3111 H3098 0.929 . S
C3111 C3103 1.433 . S
C3111 N3113 1.384 . S
N3112 C3108 1.427 . S
N3112 C3109 1.384 . S
N3113 C3105 1.427 . S
N3113 C3111 1.384 . S
H3114 C3120 0.930 . S
H3115 C3124 0.930 . S
H3116 C3129 0.929 . S
H3117 C3127 0.929 . S
H3118 C3122 0.929 . S
H3119 C3128 0.929 . S
C3120 H3114 0.930 . S
C3120 C3121 1.367 . S
C3120 C3128 1.378 . S
C3121 C3120 1.367 . S
C3121 C3129 1.433 . S
C3122 H3118 0.929 . S
C3122 C3124 1.378 . S
C3122 C3126 1.350 . S
C3123 C3126 1.463 . S
C3123 C3128 1.350 . S
C3123 N3131 1.427 . S
C3124 H3115 0.930 . S
C3124 C3122 1.378 . S
C3124 C3125 1.367 . S
C3125 C3124 1.367 . S
C3125 C3127 1.433 . S
C3126 C3122 1.350 . S
C3126 C3123 1.463 . S
C3126 N3130 1.427 . S
C3127 H3117 0.929 . S
C3127 C3125 1.433 . S
C3127 N3130 1.384 . S
C3128 H3119 0.929 . S
C3128 C3120 1.378 . S
C3128 C3123 1.350 . S
C3129 H3116 0.929 . S
C3129 C3121 1.433 . S
C3129 N3131 1.384 . S
N3130 C3126 1.427 . S
N3130 C3127 1.384 . S
N3131 C3123 1.427 . S
N3131 C3129 1.384 . S
H3132 C3138 0.930 . S
H3133 C3142 0.930 . S
H3134 C3147 0.929 . S
H3135 C3145 0.929 . S
H3136 C3140 0.929 . S
H3137 C3146 0.929 . S
C3138 H3132 0.930 . S
C3138 C3139 1.367 . S
C3138 C3146 1.378 . S
C3139 C3138 1.367 . S
C3139 C3147 1.433 . S
C3140 H3136 0.929 . S
C3140 C3142 1.378 . S
C3140 C3144 1.350 . S
C3141 C3144 1.463 1_556 S
C3141 C3146 1.350 . S
C3141 N3149 1.427 . S
C3142 H3133 0.930 . S
C3142 C3140 1.378 . S
C3142 C3143 1.367 . S
C3143 C3142 1.367 . S
C3143 C3145 1.433 . S
C3144 C3140 1.350 . S
C3144 C3141 1.463 1_554 S
C3144 N3148 1.427 . S
C3145 H3135 0.929 . S
C3145 C3143 1.433 . S
C3145 N3148 1.384 . S
C3146 H3137 0.929 . S
C3146 C3138 1.378 . S
C3146 C3141 1.350 . S
C3147 H3134 0.929 . S
C3147 C3139 1.433 . S
C3147 N3149 1.384 . S
N3148 C3144 1.427 . S
N3148 C3145 1.384 . S
N3149 C3141 1.427 . S
N3149 C3147 1.384 . S
H3150 C3156 0.930 . S
H3151 C3160 0.930 . S
H3152 C3165 0.929 . S
H3153 C3163 0.929 . S
H3154 C3158 0.929 . S
H3155 C3164 0.929 . S
C3156 H3150 0.930 . S
C3156 C3157 1.367 . S
C3156 C3164 1.378 . S
C3157 C3156 1.367 . S
C3157 C3165 1.433 . S
C3158 H3154 0.929 . S
C3158 C3160 1.378 . S
C3158 C3162 1.350 . S
C3159 C3162 1.463 1_556 S
C3159 C3164 1.350 . S
C3159 N3167 1.427 . S
C3160 H3151 0.930 . S
C3160 C3158 1.378 . S
C3160 C3161 1.367 . S
C3161 C3160 1.367 . S
C3161 C3163 1.433 . S
C3162 C3158 1.350 . S
C3162 C3159 1.463 1_554 S
C3162 N3166 1.427 . S
C3163 H3153 0.929 . S
C3163 C3161 1.433 . S
C3163 N3166 1.384 . S
C3164 H3155 0.929 . S
C3164 C3156 1.378 . S
C3164 C3159 1.350 . S
C3165 H3152 0.929 . S
C3165 C3157 1.433 . S
C3165 N3167 1.384 . S
N3166 C3162 1.427 . S
N3166 C3163 1.384 . S
N3167 C3159 1.427 . S
N3167 C3165 1.384 . S
H3168 C3174 0.930 . S
H3169 C3178 0.930 . S
H3170 C3183 0.929 . S
H3171 C3181 0.929 . S
H3172 C3176 0.929 . S
H3173 C3182 0.929 . S
C3174 H3168 0.930 . S
C3174 C3175 1.367 . S
C3174 C3182 1.378 . S
C3175 C3174 1.367 . S
C3175 C3183 1.433 . S
C3176 H3172 0.929 . S
C3176 C3178 1.378 . S
C3176 C3180 1.350 . S
C3177 C3180 1.463 . S
C3177 C3182 1.350 . S
C3177 N3185 1.427 . S
C3178 H3169 0.930 . S
C3178 C3176 1.378 . S
C3178 C3179 1.367 . S
C3179 C3178 1.367 . S
C3179 C3181 1.433 . S
C3180 C3176 1.350 . S
C3180 C3177 1.463 . S
C3180 N3184 1.427 . S
C3181 H3171 0.929 . S
C3181 C3179 1.433 . S
C3181 N3184 1.384 . S
C3182 H3173 0.929 . S
C3182 C3174 1.378 . S
C3182 C3177 1.350 . S
C3183 H3170 0.929 . S
C3183 C3175 1.433 . S
C3183 N3185 1.384 . S
N3184 C3180 1.427 . S
N3184 C3181 1.384 . S
N3185 C3177 1.427 . S
N3185 C3183 1.384 . S
H3186 C3192 0.930 . S
H3187 C3196 0.930 . S
H3188 C3201 0.929 . S
H3189 C3199 0.929 . S
H3190 C3194 0.929 . S
H3191 C3200 0.929 . S
C3192 H3186 0.930 . S
C3192 C3193 1.367 . S
C3192 C3200 1.378 . S
C3193 C3192 1.367 . S
C3193 C3201 1.433 . S
C3194 H3190 0.929 . S
C3194 C3196 1.378 . S
C3194 C3198 1.350 . S
C3195 C3198 1.463 . S
C3195 C3200 1.350 . S
C3195 N3203 1.427 . S
C3196 H3187 0.930 . S
C3196 C3194 1.378 . S
C3196 C3197 1.367 . S
C3197 C3196 1.367 . S
C3197 C3199 1.433 . S
C3198 C3194 1.350 . S
C3198 C3195 1.463 . S
C3198 N3202 1.427 . S
C3199 H3189 0.929 . S
C3199 C3197 1.433 . S
C3199 N3202 1.384 . S
C3200 H3191 0.929 . S
C3200 C3192 1.378 . S
C3200 C3195 1.350 . S
C3201 H3188 0.929 . S
C3201 C3193 1.433 . S
C3201 N3203 1.384 . S
N3202 C3198 1.427 . S
N3202 C3199 1.384 . S
N3203 C3195 1.427 . S
N3203 C3201 1.384 . S
H3204 C3210 0.930 . S
H3205 C3214 0.930 . S
H3206 C3219 0.929 . S
H3207 C3217 0.929 . S
H3208 C3212 0.929 . S
H3209 C3218 0.929 . S
C3210 H3204 0.930 . S
C3210 C3211 1.367 . S
C3210 C3218 1.378 . S
C3211 C3210 1.367 . S
C3211 C3219 1.433 . S
C3212 H3208 0.929 . S
C3212 C3214 1.378 . S
C3212 C3216 1.350 . S
C3213 C3216 1.463 . S
C3213 C3218 1.350 . S
C3213 N3221 1.427 . S
C3214 H3205 0.930 . S
C3214 C3212 1.378 . S
C3214 C3215 1.367 . S
C3215 C3214 1.367 . S
C3215 C3217 1.433 . S
C3216 C3212 1.350 . S
C3216 C3213 1.463 . S
C3216 N3220 1.427 . S
C3217 H3207 0.929 . S
C3217 C3215 1.433 . S
C3217 N3220 1.384 . S
C3218 H3209 0.929 . S
C3218 C3210 1.378 . S
C3218 C3213 1.350 . S
C3219 H3206 0.929 . S
C3219 C3211 1.433 . S
C3219 N3221 1.384 . S
N3220 C3216 1.427 . S
N3220 C3217 1.384 . S
N3221 C3213 1.427 . S
N3221 C3219 1.384 . S
H3222 C3228 0.930 . S
H3223 C3232 0.930 . S
H3224 C3237 0.929 . S
H3225 C3235 0.929 . S
H3226 C3230 0.929 . S
H3227 C3236 0.929 . S
C3228 H3222 0.930 . S
C3228 C3229 1.367 . S
C3228 C3236 1.378 . S
C3229 C3228 1.367 . S
C3229 C3237 1.433 . S
C3230 H3226 0.929 . S
C3230 C3232 1.378 . S
C3230 C3234 1.350 . S
C3231 C3234 1.463 . S
C3231 C3236 1.350 . S
C3231 N3239 1.427 . S
C3232 H3223 0.930 . S
C3232 C3230 1.378 . S
C3232 C3233 1.367 . S
C3233 C3232 1.367 . S
C3233 C3235 1.433 . S
C3234 C3230 1.350 . S
C3234 C3231 1.463 . S
C3234 N3238 1.427 . S
C3235 H3225 0.929 . S
C3235 C3233 1.433 . S
C3235 N3238 1.384 . S
C3236 H3227 0.929 . S
C3236 C3228 1.378 . S
C3236 C3231 1.350 . S
C3237 H3224 0.929 . S
C3237 C3229 1.433 . S
C3237 N3239 1.384 . S
N3238 C3234 1.427 . S
N3238 C3235 1.384 . S
N3239 C3231 1.427 . S
N3239 C3237 1.384 . S
H3240 C3246 0.930 . S
H3241 C3250 0.930 . S
H3242 C3255 0.929 . S
H3243 C3253 0.929 . S
H3244 C3248 0.929 . S
H3245 C3254 0.929 . S
C3246 H3240 0.930 . S
C3246 C3247 1.367 . S
C3246 C3254 1.378 . S
C3247 C3246 1.367 . S
C3247 C3255 1.433 . S
C3248 H3244 0.929 . S
C3248 C3250 1.378 . S
C3248 C3252 1.350 . S
C3249 C3252 1.463 . S
C3249 C3254 1.350 . S
C3249 N3257 1.427 . S
C3250 H3241 0.930 . S
C3250 C3248 1.378 . S
C3250 C3251 1.367 . S
C3251 C3250 1.367 . S
C3251 C3253 1.433 . S
C3252 C3248 1.350 . S
C3252 C3249 1.463 . S
C3252 N3256 1.427 . S
C3253 H3243 0.929 . S
C3253 C3251 1.433 . S
C3253 N3256 1.384 . S
C3254 H3245 0.929 . S
C3254 C3246 1.378 . S
C3254 C3249 1.350 . S
C3255 H3242 0.929 . S
C3255 C3247 1.433 . S
C3255 N3257 1.384 . S
N3256 C3252 1.427 . S
N3256 C3253 1.384 . S
N3257 C3249 1.427 . S
N3257 C3255 1.384 . S
H3258 C3264 0.930 . S
H3259 C3268 0.930 . S
H3260 C3273 0.929 . S
H3261 C3271 0.929 . S
H3262 C3266 0.929 . S
H3263 C3272 0.929 . S
C3264 H3258 0.930 . S
C3264 C3265 1.367 . S
C3264 C3272 1.378 . S
C3265 C3264 1.367 . S
C3265 C3273 1.433 . S
C3266 H3262 0.929 . S
C3266 C3268 1.378 . S
C3266 C3270 1.350 . S
C3267 C3270 1.463 . S
C3267 C3272 1.350 . S
C3267 N3275 1.427 . S
C3268 H3259 0.930 . S
C3268 C3266 1.378 . S
C3268 C3269 1.367 . S
C3269 C3268 1.367 . S
C3269 C3271 1.433 . S
C3270 C3266 1.350 . S
C3270 C3267 1.463 . S
C3270 N3274 1.427 . S
C3271 H3261 0.929 . S
C3271 C3269 1.433 . S
C3271 N3274 1.384 . S
C3272 H3263 0.929 . S
C3272 C3264 1.378 . S
C3272 C3267 1.350 . S
C3273 H3260 0.929 . S
C3273 C3265 1.433 . S
C3273 N3275 1.384 . S
N3274 C3270 1.427 . S
N3274 C3271 1.384 . S
N3275 C3267 1.427 . S
N3275 C3273 1.384 . S
H3276 C3282 0.930 . S
H3277 C3286 0.930 . S
H3278 C3291 0.929 . S
H3279 C3289 0.929 . S
H3280 C3284 0.929 . S
H3281 C3290 0.919 1_545 S
C3282 H3276 0.930 . S
C3282 C3283 1.367 . S
C3282 C3290 1.378 . S
C3283 C3282 1.367 . S
C3283 C3291 1.433 . S
C3284 H3280 0.929 . S
C3284 C3286 1.378 . S
C3284 C3288 1.350 . S
C3285 C3288 1.463 1_565 S
C3285 C3290 1.350 . S
C3285 N3293 1.427 . S
C3286 H3277 0.930 . S
C3286 C3284 1.378 . S
C3286 C3287 1.367 . S
C3287 C3286 1.367 . S
C3287 C3289 1.433 . S
C3288 C3284 1.350 . S
C3288 C3285 1.463 1_545 S
C3288 N3292 1.427 . S
C3289 H3279 0.929 . S
C3289 C3287 1.433 . S
C3289 N3292 1.384 . S
C3290 H3281 0.919 1_565 S
C3290 C3282 1.378 . S
C3290 C3285 1.350 . S
C3291 H3278 0.929 . S
C3291 C3283 1.433 . S
C3291 N3293 1.384 . S
N3292 C3288 1.427 . S
N3292 C3289 1.384 . S
N3293 C3285 1.427 . S
N3293 C3291 1.384 . S
H3294 C3300 0.930 . S
H3295 C3304 0.930 . S
H3296 C3309 0.929 . S
H3297 C3307 0.929 . S
H3298 C3302 0.929 . S
H3299 C3308 0.929 . S
C3300 H3294 0.930 . S
C3300 C3301 1.367 . S
C3300 C3308 1.378 . S
C3301 C3300 1.367 . S
C3301 C3309 1.433 . S
C3302 H3298 0.929 . S
C3302 C3304 1.378 . S
C3302 C3306 1.350 . S
C3303 C3306 1.463 . S
C3303 C3308 1.350 . S
C3303 N3311 1.427 . S
C3304 H3295 0.930 . S
C3304 C3302 1.378 . S
C3304 C3305 1.367 . S
C3305 C3304 1.367 . S
C3305 C3307 1.433 . S
C3306 C3302 1.350 . S
C3306 C3303 1.463 . S
C3306 N3310 1.427 . S
C3307 H3297 0.929 . S
C3307 C3305 1.433 . S
C3307 N3310 1.384 . S
C3308 H3299 0.929 . S
C3308 C3300 1.378 . S
C3308 C3303 1.350 . S
C3309 H3296 0.929 . S
C3309 C3301 1.433 . S
C3309 N3311 1.384 . S
N3310 C3306 1.427 . S
N3310 C3307 1.384 . S
N3311 C3303 1.427 . S
N3311 C3309 1.384 . S
H3312 C3318 0.930 . S
H3313 C3322 0.930 . S
H3314 C3327 0.929 . S
H3315 C3325 0.929 . S
H3316 C3320 0.929 . S
H3317 C3326 0.929 . S
C3318 H3312 0.930 . S
C3318 C3319 1.367 . S
C3318 C3326 1.378 . S
C3319 C3318 1.367 . S
C3319 C3327 1.433 . S
C3320 H3316 0.929 . S
C3320 C3322 1.378 . S
C3320 C3324 1.350 . S
C3321 C3324 1.463 1_556 S
C3321 C3326 1.350 . S
C3321 N3329 1.427 . S
C3322 H3313 0.930 . S
C3322 C3320 1.378 . S
C3322 C3323 1.367 . S
C3323 C3322 1.367 . S
C3323 C3325 1.433 . S
C3324 C3320 1.350 . S
C3324 C3321 1.463 1_554 S
C3324 N3328 1.427 . S
C3325 H3315 0.929 . S
C3325 C3323 1.433 . S
C3325 N3328 1.384 . S
C3326 H3317 0.929 . S
C3326 C3318 1.378 . S
C3326 C3321 1.350 . S
C3327 H3314 0.929 . S
C3327 C3319 1.433 . S
C3327 N3329 1.384 . S
N3328 C3324 1.427 . S
N3328 C3325 1.384 . S
N3329 C3321 1.427 . S
N3329 C3327 1.384 . S
H3330 C3336 0.930 . S
H3331 C3340 0.930 . S
H3332 C3345 0.929 . S
H3333 C3343 0.929 . S
H3334 C3338 0.929 . S
H3335 C3344 0.929 . S
C3336 H3330 0.930 . S
C3336 C3337 1.367 . S
C3336 C3344 1.378 . S
C3337 C3336 1.367 . S
C3337 C3345 1.433 . S
C3338 H3334 0.929 . S
C3338 C3340 1.378 . S
C3338 C3342 1.350 . S
C3339 C3342 1.463 1_554 S
C3339 C3344 1.350 . S
C3339 N3347 1.427 . S
C3340 H3331 0.930 . S
C3340 C3338 1.378 . S
C3340 C3341 1.367 . S
C3341 C3340 1.367 . S
C3341 C3343 1.433 . S
C3342 C3338 1.350 . S
C3342 C3339 1.463 1_556 S
C3342 N3346 1.427 . S
C3343 H3333 0.929 . S
C3343 C3341 1.433 . S
C3343 N3346 1.384 . S
C3344 H3335 0.929 . S
C3344 C3336 1.378 . S
C3344 C3339 1.350 . S
C3345 H3332 0.929 . S
C3345 C3337 1.433 . S
C3345 N3347 1.384 . S
N3346 C3342 1.427 . S
N3346 C3343 1.384 . S
N3347 C3339 1.427 . S
N3347 C3345 1.384 . S
H3348 C3354 0.930 . S
H3349 C3358 0.930 . S
H3350 C3363 0.929 . S
H3351 C3361 0.929 . S
H3352 C3356 0.929 . S
H3353 C3362 0.929 . S
C3354 H3348 0.930 . S
C3354 C3355 1.367 . S
C3354 C3362 1.378 . S
C3355 C3354 1.367 . S
C3355 C3363 1.433 . S
C3356 H3352 0.929 . S
C3356 C3358 1.378 . S
C3356 C3360 1.350 . S
C3357 C3360 1.463 . S
C3357 C3362 1.350 . S
C3357 N3365 1.427 . S
C3358 H3349 0.930 . S
C3358 C3356 1.378 . S
C3358 C3359 1.367 . S
C3359 C3358 1.367 . S
C3359 C3361 1.433 . S
C3360 C3356 1.350 . S
C3360 C3357 1.463 . S
C3360 N3364 1.427 . S
C3361 H3351 0.929 . S
C3361 C3359 1.433 . S
C3361 N3364 1.384 . S
C3362 H3353 0.929 . S
C3362 C3354 1.378 . S
C3362 C3357 1.350 . S
C3363 H3350 0.929 . S
C3363 C3355 1.433 . S
C3363 N3365 1.384 . S
N3364 C3360 1.427 . S
N3364 C3361 1.384 . S
N3365 C3357 1.427 . S
N3365 C3363 1.384 . S
H3366 C3372 0.930 . S
H3367 C3376 0.930 . S
H3368 C3381 0.929 . S
H3369 C3379 0.929 . S
H3370 C3374 0.929 . S
H3371 C3380 0.929 . S
C3372 H3366 0.930 . S
C3372 C3373 1.367 . S
C3372 C3380 1.378 . S
C3373 C3372 1.367 . S
C3373 C3381 1.433 . S
C3374 H3370 0.929 . S
C3374 C3376 1.378 . S
C3374 C3378 1.350 . S
C3375 C3378 1.463 . S
C3375 C3380 1.350 . S
C3375 N3383 1.427 . S
C3376 H3367 0.930 . S
C3376 C3374 1.378 . S
C3376 C3377 1.367 . S
C3377 C3376 1.367 . S
C3377 C3379 1.433 . S
C3378 C3374 1.350 . S
C3378 C3375 1.463 . S
C3378 N3382 1.427 . S
C3379 H3369 0.929 . S
C3379 C3377 1.433 . S
C3379 N3382 1.384 . S
C3380 H3371 0.929 . S
C3380 C3372 1.378 . S
C3380 C3375 1.350 . S
C3381 H3368 0.929 . S
C3381 C3373 1.433 . S
C3381 N3383 1.384 . S
N3382 C3378 1.427 . S
N3382 C3379 1.384 . S
N3383 C3375 1.427 . S
N3383 C3381 1.384 . S
H3384 C3390 0.930 . S
H3385 C3394 0.930 . S
H3386 C3399 0.929 . S
H3387 C3397 0.929 . S
H3388 C3392 0.929 . S
H3389 C3398 0.929 . S
C3390 H3384 0.930 . S
C3390 C3391 1.367 . S
C3390 C3398 1.378 . S
C3391 C3390 1.367 . S
C3391 C3399 1.433 . S
C3392 H3388 0.929 . S
C3392 C3394 1.378 . S
C3392 C3396 1.350 . S
C3393 C3396 1.463 1_655 S
C3393 C3398 1.350 . S
C3393 N3401 1.427 . S
C3394 H3385 0.930 . S
C3394 C3392 1.378 . S
C3394 C3395 1.367 . S
C3395 C3394 1.367 . S
C3395 C3397 1.433 . S
C3396 C3392 1.350 . S
C3396 C3393 1.463 1_455 S
C3396 N3400 1.427 . S
C3397 H3387 0.929 . S
C3397 C3395 1.433 . S
C3397 N3400 1.384 . S
C3398 H3389 0.929 . S
C3398 C3390 1.378 . S
C3398 C3393 1.350 . S
C3399 H3386 0.929 . S
C3399 C3391 1.433 . S
C3399 N3401 1.384 . S
N3400 C3396 1.427 . S
N3400 C3397 1.384 . S
N3401 C3393 1.427 . S
N3401 C3399 1.384 . S
H3402 C3408 0.930 . S
H3403 C3412 0.930 . S
H3404 C3417 0.929 . S
H3405 C3415 0.929 . S
H3406 C3410 0.929 . S
H3407 C3416 0.929 . S
C3408 H3402 0.930 . S
C3408 C3409 1.367 . S
C3408 C3416 1.378 . S
C3409 C3408 1.367 . S
C3409 C3417 1.433 . S
C3410 H3406 0.929 . S
C3410 C3412 1.378 . S
C3410 C3414 1.350 . S
C3411 C3414 1.463 1_655 S
C3411 C3416 1.350 . S
C3411 N3419 1.427 . S
C3412 H3403 0.930 . S
C3412 C3410 1.378 . S
C3412 C3413 1.367 . S
C3413 C3412 1.367 . S
C3413 C3415 1.433 . S
C3414 C3410 1.350 . S
C3414 C3411 1.463 1_455 S
C3414 N3418 1.427 . S
C3415 H3405 0.929 . S
C3415 C3413 1.433 . S
C3415 N3418 1.384 . S
C3416 H3407 0.929 . S
C3416 C3408 1.378 . S
C3416 C3411 1.350 . S
C3417 H3404 0.929 . S
C3417 C3409 1.433 . S
C3417 N3419 1.384 . S
N3418 C3414 1.427 . S
N3418 C3415 1.384 . S
N3419 C3411 1.427 . S
N3419 C3417 1.384 . S
H3420 C3426 0.930 . S
H3421 C3430 0.930 . S
H3422 C3435 0.929 . S
H3423 C3433 0.929 . S
H3424 C3428 0.929 . S
H3425 C3434 0.929 . S
C3426 H3420 0.930 . S
C3426 C3427 1.367 . S
C3426 C3434 1.378 . S
C3427 C3426 1.367 . S
C3427 C3435 1.433 . S
C3428 H3424 0.929 . S
C3428 C3430 1.378 . S
C3428 C3432 1.350 . S
C3429 C3432 1.463 1_655 S
C3429 C3434 1.350 . S
C3429 N3437 1.427 . S
C3430 H3421 0.930 . S
C3430 C3428 1.378 . S
C3430 C3431 1.367 . S
C3431 C3430 1.367 . S
C3431 C3433 1.433 . S
C3432 C3428 1.350 . S
C3432 C3429 1.463 1_455 S
C3432 N3436 1.427 . S
C3433 H3423 0.929 . S
C3433 C3431 1.433 . S
C3433 N3436 1.384 . S
C3434 H3425 0.929 . S
C3434 C3426 1.378 . S
C3434 C3429 1.350 . S
C3435 H3422 0.929 . S
C3435 C3427 1.433 . S
C3435 N3437 1.384 . S
N3436 C3432 1.427 . S
N3436 C3433 1.384 . S
N3437 C3429 1.427 . S
N3437 C3435 1.384 . S
H3438 C3444 0.930 . S
H3439 C3448 0.930 . S
H3440 C3453 0.929 . S
H3441 C3451 0.929 . S
H3442 C3446 0.929 . S
H3443 C3452 0.929 . S
C3444 H3438 0.930 . S
C3444 C3445 1.367 . S
C3444 C3452 1.378 . S
C3445 C3444 1.367 . S
C3445 C3453 1.433 . S
C3446 H3442 0.929 . S
C3446 C3448 1.378 . S
C3446 C3450 1.350 . S
C3447 C3450 1.463 1_455 S
C3447 C3452 1.350 . S
C3447 N3455 1.427 . S
C3448 H3439 0.930 . S
C3448 C3446 1.378 . S
C3448 C3449 1.367 . S
C3449 C3448 1.367 . S
C3449 C3451 1.433 . S
C3450 C3446 1.350 . S
C3450 C3447 1.463 1_655 S
C3450 N3454 1.427 . S
C3451 H3441 0.929 . S
C3451 C3449 1.433 . S
C3451 N3454 1.384 . S
C3452 H3443 0.929 . S
C3452 C3444 1.378 . S
C3452 C3447 1.350 . S
C3453 H3440 0.929 . S
C3453 C3445 1.433 . S
C3453 N3455 1.384 . S
N3454 C3450 1.427 . S
N3454 C3451 1.384 . S
N3455 C3447 1.427 . S
N3455 C3453 1.384 . S
H3456 C3462 0.930 . S
H3457 C3466 0.930 . S
H3458 C3471 0.929 . S
H3459 C3469 0.929 . S
H3460 C3464 0.929 . S
H3461 C3470 0.977 . S
C3462 H3456 0.930 . S
C3462 C3463 1.367 . S
C3462 C3470 1.378 . S
C3463 C3462 1.367 . S
C3463 C3471 1.433 . S
C3464 H3460 0.929 . S
C3464 C3466 1.378 . S
C3464 C3468 1.350 . S
C3465 C3468 1.463 1_545 S
C3465 C3470 1.350 . S
C3465 N3473 1.427 . S
C3466 H3457 0.930 . S
C3466 C3464 1.378 . S
C3466 C3467 1.367 . S
C3467 C3466 1.367 . S
C3467 C3469 1.433 . S
C3468 C3464 1.350 . S
C3468 C3465 1.463 1_565 S
C3468 N3472 1.427 . S
C3469 H3459 0.929 . S
C3469 C3467 1.433 . S
C3469 N3472 1.384 . S
C3470 H3461 0.977 . S
C3470 C3462 1.378 . S
C3470 C3465 1.350 . S
C3471 H3458 0.929 . S
C3471 C3463 1.433 . S
C3471 N3473 1.384 . S
N3472 C3468 1.427 . S
N3472 C3469 1.384 . S
N3473 C3465 1.427 . S
N3473 C3471 1.384 . S
H3474 C3480 0.930 . S
H3475 C3484 0.930 . S
H3476 C3489 0.929 . S
H3477 C3487 0.929 . S
H3478 C3482 0.929 . S
H3479 C3488 0.929 . S
C3480 H3474 0.930 . S
C3480 C3481 1.367 . S
C3480 C3488 1.378 . S
C3481 C3480 1.367 . S
C3481 C3489 1.433 . S
C3482 H3478 0.929 . S
C3482 C3484 1.378 . S
C3482 C3486 1.350 . S
C3483 C3486 1.463 1_545 S
C3483 C3488 1.350 . S
C3483 N3491 1.427 . S
C3484 H3475 0.930 . S
C3484 C3482 1.378 . S
C3484 C3485 1.367 . S
C3485 C3484 1.367 . S
C3485 C3487 1.433 . S
C3486 C3482 1.350 . S
C3486 C3483 1.463 1_565 S
C3486 N3490 1.427 . S
C3487 H3477 0.929 . S
C3487 C3485 1.433 . S
C3487 N3490 1.384 . S
C3488 H3479 0.929 . S
C3488 C3480 1.378 . S
C3488 C3483 1.350 . S
C3489 H3476 0.929 . S
C3489 C3481 1.433 . S
C3489 N3491 1.384 . S
N3490 C3486 1.427 . S
N3490 C3487 1.384 . S
N3491 C3483 1.427 . S
N3491 C3489 1.384 . S
H3492 C3498 0.930 . S
H3493 C3502 0.930 . S
H3494 C3507 0.929 . S
H3495 C3505 0.929 . S
H3496 C3500 0.929 . S
H3497 C3506 0.929 . S
C3498 H3492 0.930 . S
C3498 C3499 1.367 . S
C3498 C3506 1.378 . S
C3499 C3498 1.367 . S
C3499 C3507 1.433 . S
C3500 H3496 0.929 . S
C3500 C3502 1.378 . S
C3500 C3504 1.350 . S
C3501 C3504 1.463 . S
C3501 C3506 1.350 . S
C3501 N3509 1.427 . S
C3502 H3493 0.930 . S
C3502 C3500 1.378 . S
C3502 C3503 1.367 . S
C3503 C3502 1.367 . S
C3503 C3505 1.433 . S
C3504 C3500 1.350 . S
C3504 C3501 1.463 . S
C3504 N3508 1.427 . S
C3505 H3495 0.929 . S
C3505 C3503 1.433 . S
C3505 N3508 1.384 . S
C3506 H3497 0.929 . S
C3506 C3498 1.378 . S
C3506 C3501 1.350 . S
C3507 H3494 0.929 . S
C3507 C3499 1.433 . S
C3507 N3509 1.384 . S
N3508 C3504 1.427 . S
N3508 C3505 1.384 . S
N3509 C3501 1.427 . S
N3509 C3507 1.384 . S
H3510 C3516 0.930 . S
H3511 C3520 0.930 . S
H3512 C3525 0.929 . S
H3513 C3523 0.929 . S
H3514 C3518 0.929 . S
H3515 C3524 0.929 . S
C3516 H3510 0.930 . S
C3516 C3517 1.367 . S
C3516 C3524 1.378 . S
C3517 C3516 1.367 . S
C3517 C3525 1.433 . S
C3518 H3514 0.929 . S
C3518 C3520 1.378 . S
C3518 C3522 1.350 . S
C3519 C3522 1.463 1_545 S
C3519 C3524 1.350 . S
C3519 N3527 1.427 . S
C3520 H3511 0.930 . S
C3520 C3518 1.378 . S
C3520 C3521 1.367 . S
C3521 C3520 1.367 . S
C3521 C3523 1.433 . S
C3522 C3518 1.350 . S
C3522 C3519 1.463 1_565 S
C3522 N3526 1.427 . S
C3523 H3513 0.929 . S
C3523 C3521 1.433 . S
C3523 N3526 1.384 . S
C3524 H3515 0.929 . S
C3524 C3516 1.378 . S
C3524 C3519 1.350 . S
C3525 H3512 0.929 . S
C3525 C3517 1.433 . S
C3525 N3527 1.384 . S
N3526 C3522 1.427 . S
N3526 C3523 1.384 . S
N3527 C3519 1.427 . S
N3527 C3525 1.384 . S
H3528 C3534 0.930 . S
H3529 C3538 0.930 . S
H3530 C3543 0.929 . S
H3531 C3541 0.929 . S
H3532 C3536 0.929 . S
H3533 C3542 0.929 . S
C3534 H3528 0.930 . S
C3534 C3535 1.367 . S
C3534 C3542 1.378 . S
C3535 C3534 1.367 . S
C3535 C3543 1.433 . S
C3536 H3532 0.929 . S
C3536 C3538 1.378 . S
C3536 C3540 1.350 . S
C3537 C3540 1.463 1_556 S
C3537 C3542 1.350 . S
C3537 N3545 1.427 . S
C3538 H3529 0.930 . S
C3538 C3536 1.378 . S
C3538 C3539 1.367 . S
C3539 C3538 1.367 . S
C3539 C3541 1.433 . S
C3540 C3536 1.350 . S
C3540 C3537 1.463 1_554 S
C3540 N3544 1.427 . S
C3541 H3531 0.929 . S
C3541 C3539 1.433 . S
C3541 N3544 1.384 . S
C3542 H3533 0.929 . S
C3542 C3534 1.378 . S
C3542 C3537 1.350 . S
C3543 H3530 0.929 . S
C3543 C3535 1.433 . S
C3543 N3545 1.384 . S
N3544 C3540 1.427 . S
N3544 C3541 1.384 . S
N3545 C3537 1.427 . S
N3545 C3543 1.384 . S
H3546 C3552 0.930 . S
H3547 C3556 0.930 . S
H3548 C3561 0.929 . S
H3549 C3559 0.929 . S
H3550 C3554 0.929 . S
H3551 C3560 0.929 . S
C3552 H3546 0.930 . S
C3552 C3553 1.367 . S
C3552 C3560 1.378 . S
C3553 C3552 1.367 . S
C3553 C3561 1.433 . S
C3554 H3550 0.929 . S
C3554 C3556 1.378 . S
C3554 C3558 1.350 . S
C3555 C3558 1.463 1_554 S
C3555 C3560 1.350 . S
C3555 N3563 1.427 . S
C3556 H3547 0.930 . S
C3556 C3554 1.378 . S
C3556 C3557 1.367 . S
C3557 C3556 1.367 . S
C3557 C3559 1.433 . S
C3558 C3554 1.350 . S
C3558 C3555 1.463 1_556 S
C3558 N3562 1.427 . S
C3559 H3549 0.929 . S
C3559 C3557 1.433 . S
C3559 N3562 1.384 . S
C3560 H3551 0.929 . S
C3560 C3552 1.378 . S
C3560 C3555 1.350 . S
C3561 H3548 0.929 . S
C3561 C3553 1.433 . S
C3561 N3563 1.384 . S
N3562 C3558 1.427 . S
N3562 C3559 1.384 . S
N3563 C3555 1.427 . S
N3563 C3561 1.384 . S
H3564 C3570 0.930 . S
H3565 C3574 0.930 . S
H3566 C3579 0.929 . S
H3567 C3577 0.929 . S
H3568 C3572 0.929 . S
H3569 C3578 0.929 . S
C3570 H3564 0.930 . S
C3570 C3571 1.367 . S
C3570 C3578 1.378 . S
C3571 C3570 1.367 . S
C3571 C3579 1.433 . S
C3572 H3568 0.929 . S
C3572 C3574 1.378 . S
C3572 C3576 1.350 . S
C3573 C3576 1.463 . S
C3573 C3578 1.350 . S
C3573 N3581 1.427 . S
C3574 H3565 0.930 . S
C3574 C3572 1.378 . S
C3574 C3575 1.367 . S
C3575 C3574 1.367 . S
C3575 C3577 1.433 . S
C3576 C3572 1.350 . S
C3576 C3573 1.463 . S
C3576 N3580 1.427 . S
C3577 H3567 0.929 . S
C3577 C3575 1.433 . S
C3577 N3580 1.384 . S
C3578 H3569 0.929 . S
C3578 C3570 1.378 . S
C3578 C3573 1.350 . S
C3579 H3566 0.929 . S
C3579 C3571 1.433 . S
C3579 N3581 1.384 . S
N3580 C3576 1.427 . S
N3580 C3577 1.384 . S
N3581 C3573 1.427 . S
N3581 C3579 1.384 . S
H3582 C3588 0.930 . S
H3583 C3592 0.930 . S
H3584 C3597 0.929 . S
H3585 C3595 0.929 . S
H3586 C3590 0.929 . S
H3587 C3596 0.929 . S
C3588 H3582 0.930 . S
C3588 C3589 1.367 . S
C3588 C3596 1.378 . S
C3589 C3588 1.367 . S
C3589 C3597 1.433 . S
C3590 H3586 0.929 . S
C3590 C3592 1.378 . S
C3590 C3594 1.350 . S
C3591 C3594 1.463 . S
C3591 C3596 1.350 . S
C3591 N3599 1.427 . S
C3592 H3583 0.930 . S
C3592 C3590 1.378 . S
C3592 C3593 1.367 . S
C3593 C3592 1.367 . S
C3593 C3595 1.433 . S
C3594 C3590 1.350 . S
C3594 C3591 1.463 . S
C3594 N3598 1.427 . S
C3595 H3585 0.929 . S
C3595 C3593 1.433 . S
C3595 N3598 1.384 . S
C3596 H3587 0.929 . S
C3596 C3588 1.378 . S
C3596 C3591 1.350 . S
C3597 H3584 0.929 . S
C3597 C3589 1.433 . S
C3597 N3599 1.384 . S
N3598 C3594 1.427 . S
N3598 C3595 1.384 . S
N3599 C3591 1.427 . S
N3599 C3597 1.384 . S
H3600 C3606 0.930 . S
H3601 C3610 0.930 . S
H3602 C3615 0.929 . S
H3603 C3613 0.929 . S
H3604 C3608 0.929 . S
H3605 C3614 0.929 . S
C3606 H3600 0.930 . S
C3606 C3607 1.367 . S
C3606 C3614 1.378 . S
C3607 C3606 1.367 . S
C3607 C3615 1.433 . S
C3608 H3604 0.929 . S
C3608 C3610 1.378 . S
C3608 C3612 1.350 . S
C3609 C3612 1.463 1_455 S
C3609 C3614 1.350 . S
C3609 N3617 1.427 . S
C3610 H3601 0.930 . S
C3610 C3608 1.378 . S
C3610 C3611 1.367 . S
C3611 C3610 1.367 . S
C3611 C3613 1.433 . S
C3612 C3608 1.350 . S
C3612 C3609 1.463 1_655 S
C3612 N3616 1.427 . S
C3613 H3603 0.929 . S
C3613 C3611 1.433 . S
C3613 N3616 1.384 . S
C3614 H3605 0.929 . S
C3614 C3606 1.378 . S
C3614 C3609 1.350 . S
C3615 H3602 0.929 . S
C3615 C3607 1.433 . S
C3615 N3617 1.384 . S
N3616 C3612 1.427 . S
N3616 C3613 1.384 . S
N3617 C3609 1.427 . S
N3617 C3615 1.384 . S
H3618 C3624 0.930 . S
H3619 C3628 0.930 . S
H3620 C3633 0.929 . S
H3621 C3631 0.929 . S
H3622 C3626 0.929 . S
H3623 C3632 0.929 . S
C3624 H3618 0.930 . S
C3624 C3625 1.367 . S
C3624 C3632 1.378 . S
C3625 C3624 1.367 . S
C3625 C3633 1.433 . S
C3626 H3622 0.929 . S
C3626 C3628 1.378 . S
C3626 C3630 1.350 . S
C3627 C3630 1.463 1_455 S
C3627 C3632 1.350 . S
C3627 N3635 1.427 . S
C3628 H3619 0.930 . S
C3628 C3626 1.378 . S
C3628 C3629 1.367 . S
C3629 C3628 1.367 . S
C3629 C3631 1.433 . S
C3630 C3626 1.350 . S
C3630 C3627 1.463 1_655 S
C3630 N3634 1.427 . S
C3631 H3621 0.929 . S
C3631 C3629 1.433 . S
C3631 N3634 1.384 . S
C3632 H3623 0.929 . S
C3632 C3624 1.378 . S
C3632 C3627 1.350 . S
C3633 H3620 0.929 . S
C3633 C3625 1.433 . S
C3633 N3635 1.384 . S
N3634 C3630 1.427 . S
N3634 C3631 1.384 . S
N3635 C3627 1.427 . S
N3635 C3633 1.384 . S
H3636 C3642 0.930 . S
H3637 C3646 0.930 . S
H3638 C3651 0.929 . S
H3639 C3649 0.929 . S
H3640 C3644 0.929 . S
H3641 C3650 0.929 . S
C3642 H3636 0.930 . S
C3642 C3643 1.367 . S
C3642 C3650 1.378 . S
C3643 C3642 1.367 . S
C3643 C3651 1.433 . S
C3644 H3640 0.929 . S
C3644 C3646 1.378 . S
C3644 C3648 1.350 . S
C3645 C3648 1.463 1_655 S
C3645 C3650 1.350 . S
C3645 N3653 1.427 . S
C3646 H3637 0.930 . S
C3646 C3644 1.378 . S
C3646 C3647 1.367 . S
C3647 C3646 1.367 . S
C3647 C3649 1.433 . S
C3648 C3644 1.350 . S
C3648 C3645 1.463 1_455 S
C3648 N3652 1.427 . S
C3649 H3639 0.929 . S
C3649 C3647 1.433 . S
C3649 N3652 1.384 . S
C3650 H3641 0.929 . S
C3650 C3642 1.378 . S
C3650 C3645 1.350 . S
C3651 H3638 0.929 . S
C3651 C3643 1.433 . S
C3651 N3653 1.384 . S
N3652 C3648 1.427 . S
N3652 C3649 1.384 . S
N3653 C3645 1.427 . S
N3653 C3651 1.384 . S
H3654 C3660 0.930 . S
H3655 C3664 0.930 . S
H3656 C3669 0.929 . S
H3657 C3667 0.929 . S
H3658 C3662 0.929 . S
H3659 C3668 0.963 . S
C3660 H3654 0.930 . S
C3660 C3661 1.367 . S
C3660 C3668 1.378 . S
C3661 C3660 1.367 . S
C3661 C3669 1.433 . S
C3662 H3658 0.929 . S
C3662 C3664 1.378 . S
C3662 C3666 1.350 . S
C3663 C3666 1.463 1_455 S
C3663 C3668 1.350 . S
C3663 N3671 1.427 . S
C3664 H3655 0.930 . S
C3664 C3662 1.378 . S
C3664 C3665 1.367 . S
C3665 C3664 1.367 . S
C3665 C3667 1.433 . S
C3666 C3662 1.350 . S
C3666 C3663 1.463 1_655 S
C3666 N3670 1.427 . S
C3667 H3657 0.929 . S
C3667 C3665 1.433 . S
C3667 N3670 1.384 . S
C3668 H3659 0.963 . S
C3668 C3660 1.378 . S
C3668 C3663 1.350 . S
C3669 H3656 0.929 . S
C3669 C3661 1.433 . S
C3669 N3671 1.384 . S
N3670 C3666 1.427 . S
N3670 C3667 1.384 . S
N3671 C3663 1.427 . S
N3671 C3669 1.384 . S
H3672 C3678 0.930 . S
H3673 C3682 0.930 . S
H3674 C3687 0.929 . S
H3675 C3685 0.929 . S
H3676 C3680 0.929 . S
H3677 C3686 0.929 . S
C3678 H3672 0.930 . S
C3678 C3679 1.367 . S
C3678 C3686 1.378 . S
C3679 C3678 1.367 . S
C3679 C3687 1.433 . S
C3680 H3676 0.929 . S
C3680 C3682 1.378 . S
C3680 C3684 1.350 . S
C3681 C3684 1.463 1_545 S
C3681 C3686 1.350 . S
C3681 N3689 1.427 . S
C3682 H3673 0.930 . S
C3682 C3680 1.378 . S
C3682 C3683 1.367 . S
C3683 C3682 1.367 . S
C3683 C3685 1.433 . S
C3684 C3680 1.350 . S
C3684 C3681 1.463 1_565 S
C3684 N3688 1.427 . S
C3685 H3675 0.929 . S
C3685 C3683 1.433 . S
C3685 N3688 1.384 . S
C3686 H3677 0.929 . S
C3686 C3678 1.378 . S
C3686 C3681 1.350 . S
C3687 H3674 0.929 . S
C3687 C3679 1.433 . S
C3687 N3689 1.384 . S
N3688 C3684 1.427 . S
N3688 C3685 1.384 . S
N3689 C3681 1.427 . S
N3689 C3687 1.384 . S
H3690 C3696 0.930 . S
H3691 C3700 0.930 . S
H3692 C3705 0.929 . S
H3693 C3703 0.929 . S
H3694 C3698 0.929 . S
H3695 C3704 0.929 . S
C3696 H3690 0.930 . S
C3696 C3697 1.367 . S
C3696 C3704 1.378 . S
C3697 C3696 1.367 . S
C3697 C3705 1.433 . S
C3698 H3694 0.929 . S
C3698 C3700 1.378 . S
C3698 C3702 1.350 . S
C3699 C3702 1.463 1_545 S
C3699 C3704 1.350 . S
C3699 N3707 1.427 . S
C3700 H3691 0.930 . S
C3700 C3698 1.378 . S
C3700 C3701 1.367 . S
C3701 C3700 1.367 . S
C3701 C3703 1.433 . S
C3702 C3698 1.350 . S
C3702 C3699 1.463 1_565 S
C3702 N3706 1.427 . S
C3703 H3693 0.929 . S
C3703 C3701 1.433 . S
C3703 N3706 1.384 . S
C3704 H3695 0.929 . S
C3704 C3696 1.378 . S
C3704 C3699 1.350 . S
C3705 H3692 0.929 . S
C3705 C3697 1.433 . S
C3705 N3707 1.384 . S
N3706 C3702 1.427 . S
N3706 C3703 1.384 . S
N3707 C3699 1.427 . S
N3707 C3705 1.384 . S
H3708 C3714 0.930 . S
H3709 C3718 0.930 . S
H3710 C3723 0.929 . S
H3711 C3721 0.929 . S
H3712 C3716 0.929 . S
H3713 C3722 0.929 . S
C3714 H3708 0.930 . S
C3714 C3715 1.367 . S
C3714 C3722 1.378 . S
C3715 C3714 1.367 . S
C3715 C3723 1.433 . S
C3716 H3712 0.929 . S
C3716 C3718 1.378 . S
C3716 C3720 1.350 . S
C3717 C3720 1.463 . S
C3717 C3722 1.350 . S
C3717 N3725 1.427 . S
C3718 H3709 0.930 . S
C3718 C3716 1.378 . S
C3718 C3719 1.367 . S
C3719 C3718 1.367 . S
C3719 C3721 1.433 . S
C3720 C3716 1.350 . S
C3720 C3717 1.463 . S
C3720 N3724 1.427 . S
C3721 H3711 0.929 . S
C3721 C3719 1.433 . S
C3721 N3724 1.384 . S
C3722 H3713 0.929 . S
C3722 C3714 1.378 . S
C3722 C3717 1.350 . S
C3723 H3710 0.929 . S
C3723 C3715 1.433 . S
C3723 N3725 1.384 . S
N3724 C3720 1.427 . S
N3724 C3721 1.384 . S
N3725 C3717 1.427 . S
N3725 C3723 1.384 . S
H3726 C3732 0.930 . S
H3727 C3736 0.930 . S
H3728 C3741 0.929 . S
H3729 C3739 0.929 . S
H3730 C3734 0.929 . S
H3731 C3740 0.929 . S
C3732 H3726 0.930 . S
C3732 C3733 1.367 . S
C3732 C3740 1.378 . S
C3733 C3732 1.367 . S
C3733 C3741 1.433 . S
C3734 H3730 0.929 . S
C3734 C3736 1.378 . S
C3734 C3738 1.350 . S
C3735 C3738 1.463 1_565 S
C3735 C3740 1.350 . S
C3735 N3743 1.427 . S
C3736 H3727 0.930 . S
C3736 C3734 1.378 . S
C3736 C3737 1.367 . S
C3737 C3736 1.367 . S
C3737 C3739 1.433 . S
C3738 C3734 1.350 . S
C3738 C3735 1.463 1_545 S
C3738 N3742 1.427 . S
C3739 H3729 0.929 . S
C3739 C3737 1.433 . S
C3739 N3742 1.384 . S
C3740 H3731 0.929 . S
C3740 C3732 1.378 . S
C3740 C3735 1.350 . S
C3741 H3728 0.929 . S
C3741 C3733 1.433 . S
C3741 N3743 1.384 . S
N3742 C3738 1.427 . S
N3742 C3739 1.384 . S
N3743 C3735 1.427 . S
N3743 C3741 1.384 . S
C1591 N1333 1.376 . S
C1595 C7 1.388 . S
C1609 N1366 1.377 . S
C1613 C40 1.387 . S
C1627 N1399 1.376 . S
C1631 C73 1.388 . S
C1645 C106 1.387 . S
C1649 N1432 1.379 . S
C1663 C139 1.388 . S
C1667 N1465 1.380 . S
C1681 C172 1.394 . S
C1685 N772 1.378 . S
C1699 C205 1.387 . S
C1703 N1498 1.378 . S
C1717 C238 1.387 . S
C1721 N1531 1.380 . S
C1735 C271 1.389 . S
C1739 N1201 1.383 . S
C1753 C304 1.387 . S
C1757 N1267 1.377 . S
C1771 C337 1.388 . S
C1775 N1300 1.381 . S
C1789 N442 1.379 . S
C1793 C370 1.387 . S
C1807 C403 1.393 . S
C1811 N937 1.377 . S
C1825 C436 1.395 . S
C1829 N970 1.389 . S
C1843 N1003 1.387 . S
C1847 C469 1.392 . S
C1861 N1036 1.377 . S
C1865 C502 1.387 . S
C1879 C535 1.391 . S
C1883 N1069 1.385 . S
C1897 N376 1.376 . S
C1901 C568 1.391 . S
C1915 N1102 1.379 . S
C1919 C601 1.395 . S
C1933 N1135 1.377 . S
C1937 C634 1.387 . S
C1951 C667 1.393 . S
C1955 N805 1.387 . S
C1969 C700 1.399 . S
C1973 N871 1.387 . S
C1987 N904 1.385 . S
C1991 C733 1.390 . S
C2005 C766 1.397 . S
C2009 N46 1.382 . S
C2023 C799 1.393 . S
C2027 N541 1.387 . S
C2041 N574 1.390 . S
C2045 C832 1.398 . S
C2059 N607 1.384 . S
C2063 C865 1.398 . S
C2077 C898 1.393 . S
C2081 N640 1.378 . S
C2095 C931 1.398 . S
C2099 N673 1.384 . S
C2113 N1564 1.378 . S
C2117 C964 1.393 . S
C2131 C997 1.399 . S
C2135 N706 1.387 . S
C2149 C1030 1.387 . S
C2153 N739 1.377 . S
C2167 C1063 1.399 . S
C2171 N409 1.389 . S
C2185 N475 1.378 . S
C2189 C1096 1.387 . S
C2203 C1129 1.389 . S
C2207 N508 1.382 . S
C2221 C1162 1.387 . S
C2225 N1234 1.379 . S
C2239 C1195 1.397 . S
C2243 N145 1.390 . S
C2257 C1228 1.398 . S
C2261 N178 1.383 . S
C2275 C1261 1.387 . S
C2279 N211 1.378 . S
C2293 C1294 1.387 . S
C2297 N244 1.376 . S
C2311 N277 1.376 . S
C2315 C1327 1.387 . S
C2329 C1360 1.391 . S
C2333 N1168 1.385 . S
C2347 C1393 1.388 . S
C2351 N310 1.376 . S
C2365 N343 1.377 . S
C2369 C1426 1.387 . S
C2383 N13 1.387 . S
C2387 C1459 1.399 . S
C2401 C1492 1.387 . S
C2405 N79 1.377 . S
C2419 C1525 1.399 . S
C2423 N112 1.386 . S
C2437 N838 1.378 . S
C2441 C1558 1.387 . S
C2455 N2 0.297 . S
C2459 N35 0.311 . S
C2473 N101 0.308 . S
C2477 N68 0.303 . S
C2491 N134 0.293 . S
C2495 N200 0.291 . S
C2509 N233 0.301 . S
C2513 N167 0.309 . S
C2527 N1124 0.293 . S
C2531 N266 0.312 . S
C2545 N299 0.291 . S
C2549 N365 0.312 . S
C2563 N332 0.309 . S
C2567 N1058 0.285 . S
C2581 N398 0.285 . S
C2585 N431 0.302 . S
C2599 N464 0.312 . S
C2603 N497 0.295 . S
C2617 N596 0.302 . S
C2621 N530 0.285 . S
C2635 N563 0.299 . S
C2639 N629 0.310 . S
C2653 N662 0.312 . S
C2657 N1520 0.293 . S
C2671 N761 0.303 . S
C2675 N695 0.285 . S
C2689 N1454 0.310 . S
C2693 N728 0.285 . S
C2707 N827 0.288 . S
C2711 N794 0.296 . S
C2725 N893 0.290 . S
C2729 N860 0.312 . S
C2743 N992 0.290 . S
C2747 N926 0.294 . S
C2761 N1025 0.309 . S
C2765 N959 0.285 . S
C2779 N1157 0.294 . S
C2783 N1091 0.312 . S
C2797 N1223 0.312 . S
C2801 N1190 0.292 . S
C2815 N1289 0.309 . S
C2819 N1256 0.302 . S
C2833 N1388 0.299 . S
C2837 N1322 0.310 . S
C2851 N1421 0.301 . S
C2855 N1355 0.285 . S
C2869 N1553 0.296 . S
C2873 N1487 0.312 . S
C2887 C18 1.091 . S
C2891 C747 1.055 . S
C2905 C51 1.093 . S
C2909 C714 1.052 . S
C2923 C1572 1.055 . S
C2927 C84 1.092 . S
C2941 C681 1.060 . S
C2945 C117 1.091 . S
C2959 C150 1.093 . S
C2963 C1242 1.049 . S
C2977 C1209 1.059 . S
C2981 C183 1.091 . S
C2995 C1308 1.051 . S
C2999 C216 1.093 . S
C3013 C249 1.090 . S
C3017 C1275 1.064 . S
C3031 C1407 1.065 . S
C3035 C282 1.091 . S
C3049 C1341 1.045 . S
C3053 C315 1.093 . S
C3067 C348 1.092 . S
C3071 C1374 1.051 . S
C3085 C648 1.059 . S
C3089 C381 1.092 . S
C3103 C351 1.045 . S
C3107 C414 1.093 . S
C3121 C318 1.065 . S
C3125 C447 1.090 . S
C3139 C480 1.090 . S
C3143 C1176 1.065 . S
C3157 C513 1.091 . S
C3161 C285 1.066 . S
C3175 C846 1.063 . S
C3179 C546 1.090 . S
C3193 C813 1.045 . S
C3197 C579 1.093 . S
C3211 C612 1.092 . S
C3215 C912 1.057 . S
C3229 C645 1.090 . S
C3233 C879 1.066 . S
C3247 C1011 1.054 . S
C3251 C678 1.091 . S
C3265 C711 1.092 . S
C3269 C945 1.046 . S
C3283 C978 1.045 . S
C3287 C744 1.093 . S
C3301 C252 1.047 . S
C3305 C777 1.093 . S
C3319 C810 1.090 . S
C3323 C1539 1.065 . S
C3337 C1506 1.058 . S
C3341 C843 1.091 . S
C3355 C876 1.090 . S
C3359 C780 1.065 . S
C3373 C909 1.093 . S
C3377 C1473 1.045 . S
C3391 C942 1.091 . S
C3395 C450 1.063 . S
C3409 C417 1.065 . S
C3413 C975 1.091 . S
C3427 C1008 1.091 . S
C3431 C516 1.062 . S
C3445 C1041 1.091 . S
C3449 C483 1.059 . S
C3463 C615 1.046 . S
C3467 C1074 1.092 . S
C3481 C1107 1.091 . S
C3485 C549 1.064 . S
C3499 C1140 1.092 . S
C3503 C582 1.046 . S
C3517 C1173 1.091 . S
C3521 C1440 1.064 . S
C3535 C1143 1.065 . S
C3539 C1206 1.090 . S
C3553 C1239 1.092 . S
C3557 C1110 1.054 . S
C3571 C1272 1.093 . S
C3575 C384 1.050 . S
C3589 C1305 1.092 . S
C3593 C1077 1.050 . S
C3607 C1338 1.092 . S
C3611 C54 1.051 . S
C3625 C21 1.046 . S
C3629 C1371 1.093 . S
C3643 C120 1.065 . S
C3647 C1404 1.090 . S
C3661 C87 1.046 . S
C3665 C1437 1.093 . S
C3679 C1470 1.091 . S
C3683 C219 1.066 . S
C3697 C153 1.059 . S
C3701 C1503 1.092 . S
C3715 C186 1.065 . S
C3719 C1536 1.091 . S
C3733 C1569 1.092 . S
C3737 C1044 1.047 . S
