# Generated by pormake.
# Topology uoy, (4)-cn, num edge types: 1
# Building blocks:
#     Node 0, Type 0, BuildingBlock: KUFVIS_clean_sbu_0, # of connection points: 4
#     Node 1, Type 0, BuildingBlock: KUFVIS_clean_sbu_0, # of connection points: 4
#     Node 2, Type 0, BuildingBlock: KUFVIS_clean_sbu_0, # of connection points: 4
#     Node 3, Type 0, BuildingBlock: KUFVIS_clean_sbu_0, # of connection points: 4
#     Node 4, Type 0, BuildingBlock: KUFVIS_clean_sbu_0, # of connection points: 4
#     Node 5, Type 0, BuildingBlock: KUFVIS_clean_sbu_0, # of connection points: 4
#     Node 6, Type 0, BuildingBlock: KUFVIS_clean_sbu_0, # of connection points: 4
#     Node 7, Type 0, BuildingBlock: KUFVIS_clean_sbu_0, # of connection points: 4
#     Node 8, Type 0, BuildingBlock: KUFVIS_clean_sbu_0, # of connection points: 4
#     Node 9, Type 0, BuildingBlock: KUFVIS_clean_sbu_0, # of connection points: 4
#     Node 10, Type 0, BuildingBlock: KUFVIS_clean_sbu_0, # of connection points: 4
#     Node 11, Type 0, BuildingBlock: KUFVIS_clean_sbu_0, # of connection points: 4
#     Node 12, Type 0, BuildingBlock: KUFVIS_clean_sbu_0, # of connection points: 4
#     Node 13, Type 0, BuildingBlock: KUFVIS_clean_sbu_0, # of connection points: 4
#     Node 14, Type 0, BuildingBlock: KUFVIS_clean_sbu_0, # of connection points: 4
#     Node 15, Type 0, BuildingBlock: KUFVIS_clean_sbu_0, # of connection points: 4
#     Edge 16, Type (0, 0), BuildingBlock: OJICUG_clean_linker_0, # of connection points: 2
#     Edge 17, Type (0, 0), BuildingBlock: OJICUG_clean_linker_0, # of connection points: 2
#     Edge 18, Type (0, 0), BuildingBlock: OJICUG_clean_linker_0, # of connection points: 2
#     Edge 19, Type (0, 0), BuildingBlock: OJICUG_clean_linker_0, # of connection points: 2
#     Edge 20, Type (0, 0), BuildingBlock: OJICUG_clean_linker_0, # of connection points: 2
#     Edge 21, Type (0, 0), BuildingBlock: OJICUG_clean_linker_0, # of connection points: 2
#     Edge 22, Type (0, 0), BuildingBlock: OJICUG_clean_linker_0, # of connection points: 2
#     Edge 23, Type (0, 0), BuildingBlock: OJICUG_clean_linker_0, # of connection points: 2
#     Edge 24, Type (0, 0), BuildingBlock: OJICUG_clean_linker_0, # of connection points: 2
#     Edge 25, Type (0, 0), BuildingBlock: OJICUG_clean_linker_0, # of connection points: 2
#     Edge 26, Type (0, 0), BuildingBlock: OJICUG_clean_linker_0, # of connection points: 2
#     Edge 27, Type (0, 0), BuildingBlock: OJICUG_clean_linker_0, # of connection points: 2
#     Edge 28, Type (0, 0), BuildingBlock: OJICUG_clean_linker_0, # of connection points: 2
#     Edge 29, Type (0, 0), BuildingBlock: OJICUG_clean_linker_0, # of connection points: 2
#     Edge 30, Type (0, 0), BuildingBlock: OJICUG_clean_linker_0, # of connection points: 2
#     Edge 31, Type (0, 0), BuildingBlock: OJICUG_clean_linker_0, # of connection points: 2
#     Edge 32, Type (0, 0), BuildingBlock: OJICUG_clean_linker_0, # of connection points: 2
#     Edge 33, Type (0, 0), BuildingBlock: OJICUG_clean_linker_0, # of connection points: 2
#     Edge 34, Type (0, 0), BuildingBlock: OJICUG_clean_linker_0, # of connection points: 2
#     Edge 35, Type (0, 0), BuildingBlock: OJICUG_clean_linker_0, # of connection points: 2
#     Edge 36, Type (0, 0), BuildingBlock: OJICUG_clean_linker_0, # of connection points: 2
#     Edge 37, Type (0, 0), BuildingBlock: OJICUG_clean_linker_0, # of connection points: 2
#     Edge 38, Type (0, 0), BuildingBlock: OJICUG_clean_linker_0, # of connection points: 2
#     Edge 39, Type (0, 0), BuildingBlock: OJICUG_clean_linker_0, # of connection points: 2
#     Edge 40, Type (0, 0), BuildingBlock: OJICUG_clean_linker_0, # of connection points: 2
#     Edge 41, Type (0, 0), BuildingBlock: OJICUG_clean_linker_0, # of connection points: 2
#     Edge 42, Type (0, 0), BuildingBlock: OJICUG_clean_linker_0, # of connection points: 2
#     Edge 43, Type (0, 0), BuildingBlock: OJICUG_clean_linker_0, # of connection points: 2
#     Edge 44, Type (0, 0), BuildingBlock: OJICUG_clean_linker_0, # of connection points: 2
#     Edge 45, Type (0, 0), BuildingBlock: OJICUG_clean_linker_0, # of connection points: 2
#     Edge 46, Type (0, 0), BuildingBlock: OJICUG_clean_linker_0, # of connection points: 2
#     Edge 47, Type (0, 0), BuildingBlock: OJICUG_clean_linker_0, # of connection points: 2
# Relax obj value: 0.051
# Max RMSD: 0.078
# Mean RMSD: 0.078
data_MOF--net-uoy--node1-KUFVIS_clean_sbu_0--edge1-OJICUG_clean_linker_0
_symmetry_space_group_name_H-M    P1
_symmetry_Int_Tables_number       1
_symmetry_cell_setting            triclinic
loop_
_symmetry_equiv_pos_as_xyz
'x, y, z'
_cell_length_a     20.204958
_cell_length_b     20.204499
_cell_length_c     75.228411
_cell_angle_alpha  90.01418
_cell_angle_beta   89.992478
_cell_angle_gamma 89.998027
loop_
_atom_site_label
_atom_site_type_symbol
_atom_site_fract_x
_atom_site_fract_y
_atom_site_fract_z
_atom_type_partial_charge
Mn0 Mn 0.27976 0.11558 0.19123 0.0
Mn1 Mn 0.16955 0.23498 0.20252 0.0
C2 C 0.27651 0.15456 0.22007 0.0
C3 C 0.38318 0.07427 0.18196 0.0
C4 C 0.1304 0.09364 0.19499 0.0
O5 O 0.25747 0.1587 0.16758 0.0
O6 O 0.18531 0.239 0.17631 0.0
C7 C 0.21779 0.36781 0.19237 0.0
N8 N 0.20104 0.32517 0.20567 0.0
C9 C 0.18102 0.43121 0.22548 0.0
C10 C 0.19867 0.46813 0.21064 0.0
C11 C 0.21751 0.43708 0.19472 0.0
C12 C 0.18302 0.34823 0.22176 0.0
H13 H 0.22995 0.34903 0.17935 0.0
C14 C 0.21937 0.20809 0.16446 0.0
O15 O 0.3291 0.04052 0.18015 0.0
O16 O 0.3769 0.13403 0.18814 0.0
N17 N 0.1545 0.23 0.2277 0.0
C18 C 0.13073 0.17743 0.23701 0.0
C19 C 0.12304 0.17952 0.25548 0.0
C20 C 0.13596 0.23604 0.26563 0.0
C21 C 0.15153 0.29863 0.25735 0.0
C22 C 0.16776 0.28751 0.23561 0.0
H23 H 0.12021 0.13126 0.23041 0.0
O24 O 0.29629 0.09483 0.21652 0.0
O25 O 0.25663 0.1907 0.20658 0.0
O26 O 0.18795 0.07047 0.19219 0.0
O27 O 0.12091 0.15338 0.19903 0.0
C28 C 0.14853 0.42637 0.265 0.0
C29 C 0.16604 0.47208 0.2449 0.0
H30 H 0.19975 0.52161 0.21146 0.0
H31 H 0.23131 0.46797 0.18356 0.0
H32 H 0.1075 0.13483 0.26225 0.0
H33 H 0.12944 0.22871 0.27974 0.0
H34 H 0.13685 0.44963 0.27958 0.0
H35 H 0.15605 0.45682 0.25664 0.0
Mn36 Mn 0.9081 0.77921 0.44114 0.0
Mn37 Mn 0.78893 0.66866 0.45236 0.0
C38 C 0.86897 0.77586 0.46995 0.0
C39 C 0.94926 0.8827 0.43189 0.0
C40 C 0.93039 0.62992 0.44485 0.0
O41 O 0.86515 0.7568 0.41747 0.0
O42 O 0.78487 0.68455 0.42616 0.0
C43 C 0.65591 0.71635 0.44222 0.0
N44 N 0.69862 0.6998 0.45552 0.0
C45 C 0.59267 0.67925 0.47532 0.0
C46 C 0.55568 0.69673 0.46047 0.0
C47 C 0.58664 0.71573 0.44456 0.0
C48 C 0.67564 0.68162 0.4716 0.0
H49 H 0.67464 0.72861 0.42919 0.0
C50 C 0.81579 0.71869 0.41432 0.0
O51 O 0.9831 0.82868 0.43009 0.0
O52 O 0.88947 0.87632 0.43804 0.0
N53 N 0.79397 0.65356 0.47754 0.0
C54 C 0.84664 0.62999 0.48684 0.0
C55 C 0.84459 0.62231 0.50531 0.0
C56 C 0.78804 0.63504 0.51547 0.0
C57 C 0.72538 0.65035 0.50718 0.0
C58 C 0.73643 0.66662 0.48545 0.0
H59 H 0.89284 0.61965 0.48024 0.0
O60 O 0.92866 0.7958 0.46644 0.0
O61 O 0.83295 0.75588 0.45645 0.0
O62 O 0.95348 0.68754 0.44213 0.0
O63 O 0.87065 0.62025 0.44884 0.0
C64 C 0.59765 0.64681 0.51483 0.0
C65 C 0.55187 0.6641 0.49473 0.0
H66 H 0.5022 0.69756 0.46129 0.0
H67 H 0.55568 0.72938 0.4334 0.0
H68 H 0.88935 0.60695 0.51208 0.0
H69 H 0.7954 0.62856 0.52958 0.0
H70 H 0.57445 0.63503 0.52941 0.0
H71 H 0.56718 0.65419 0.50647 0.0
Mn72 Mn 0.24349 0.40828 0.69113 0.0
Mn73 Mn 0.35391 0.28905 0.70238 0.0
C74 C 0.24673 0.36917 0.71995 0.0
C75 C 0.14006 0.44959 0.68188 0.0
C76 C 0.39281 0.43046 0.69489 0.0
O77 O 0.26585 0.36523 0.66746 0.0
O78 O 0.33816 0.28506 0.67618 0.0
C79 C 0.30607 0.15613 0.69217 0.0
N80 N 0.32265 0.19877 0.70549 0.0
C81 C 0.34296 0.09272 0.72526 0.0
C82 C 0.32547 0.05581 0.7104 0.0
C83 C 0.30657 0.08685 0.69449 0.0
C84 C 0.34073 0.17571 0.72157 0.0
H85 H 0.29387 0.17492 0.67915 0.0
C86 C 0.30402 0.31589 0.66433 0.0
O87 O 0.19412 0.48336 0.68009 0.0
O88 O 0.14636 0.38979 0.68803 0.0
N89 N 0.3689 0.29399 0.72756 0.0
C90 C 0.39247 0.34661 0.73689 0.0
C91 C 0.40008 0.34449 0.75536 0.0
C92 C 0.38726 0.2879 0.76549 0.0
C93 C 0.37191 0.22529 0.75718 0.0
C94 C 0.35576 0.23643 0.73545 0.0
H95 H 0.40287 0.39283 0.73031 0.0
O96 O 0.22691 0.42889 0.71643 0.0
O97 O 0.26671 0.33313 0.70645 0.0
O98 O 0.33523 0.45355 0.69212 0.0
O99 O 0.40241 0.37074 0.69891 0.0
C100 C 0.37521 0.09753 0.76479 0.0
C101 C 0.35795 0.05184 0.74467 0.0
H102 H 0.32454 1.00232 0.7112 0.0
H103 H 0.29291 0.05595 0.68332 0.0
H104 H 0.41545 0.3892 0.76215 0.0
H105 H 0.39369 0.2952 0.77961 0.0
H106 H 0.38688 0.07426 0.77936 0.0
H107 H 0.36783 0.06709 0.75641 0.0
Mn108 Mn 0.61428 0.74366 0.94124 0.0
Mn109 Mn 0.7336 0.85401 0.95248 0.0
C110 C 0.65347 0.74691 0.97006 0.0
C111 C 0.57297 0.64023 0.93197 0.0
C112 C 0.59219 0.893 0.94502 0.0
O113 O 0.65728 0.76597 0.91757 0.0
O114 O 0.73746 0.83828 0.92627 0.0
C115 C 0.86643 0.80603 0.94223 0.0
N116 N 0.82387 0.82268 0.95556 0.0
C117 C 0.93004 0.84298 0.97529 0.0
C118 C 0.96686 0.82543 0.96041 0.0
C119 C 0.93571 0.8065 0.94452 0.0
C120 C 0.84703 0.84078 0.97163 0.0
H121 H 0.84755 0.7938 0.92922 0.0
C122 C 0.70659 0.80414 0.91443 0.0
O123 O 0.53919 0.6943 0.93019 0.0
O124 O 0.63275 0.64652 0.93813 0.0
N125 N 0.7288 0.869 0.97767 0.0
C126 C 0.67624 0.89262 0.98701 0.0
C127 C 0.67848 0.90029 0.00549 0.0
C128 C 0.73513 0.8875 0.01559 0.0
C129 C 0.79769 0.87211 0.00726 0.0
C130 C 0.7864 0.85588 0.98553 0.0
H131 H 0.62998 0.90301 0.98045 0.0
O132 O 0.59372 0.72711 0.96655 0.0
O133 O 0.68948 0.76685 0.95655 0.0
O134 O 0.56908 0.83544 0.94222 0.0
O135 O 0.65192 0.90254 0.94905 0.0
C136 C 0.92549 0.8754 0.01481 0.0
C137 C 0.97105 0.85804 0.99467 0.0
H138 H 0.02035 0.82448 0.96119 0.0
H139 H 0.96654 0.79278 0.93334 0.0
H140 H 0.63381 0.91568 0.01229 0.0
H141 H 0.72792 0.89399 0.02971 0.0
H142 H 0.94885 0.88712 0.02937 0.0
H143 H 0.95587 0.86797 0.00642 0.0
Mn144 Mn 0.27904 0.40776 0.06694 0.0
Mn145 Mn 0.16871 0.28834 0.05575 0.0
C146 C 0.27566 0.3686 0.03813 0.0
C147 C 0.38248 0.44908 0.07618 0.0
C148 C 0.12969 0.42976 0.06325 0.0
O149 O 0.25678 0.3648 0.09061 0.0
O150 O 0.18473 0.28432 0.08195 0.0
C151 C 0.2168 0.15544 0.06587 0.0
N152 N 0.20006 0.1981 0.05258 0.0
C153 C 0.17964 0.09208 0.03279 0.0
C154 C 0.19731 0.05514 0.04763 0.0
C155 C 0.21634 0.08617 0.06353 0.0
C156 C 0.18186 0.17507 0.0365 0.0
H157 H 0.22908 0.17421 0.07889 0.0
C158 C 0.21883 0.31534 0.09377 0.0
O159 O 0.32842 0.48286 0.07798 0.0
O160 O 0.37617 0.38929 0.07003 0.0
N161 N 0.15349 0.29333 0.03057 0.0
C162 C 0.12974 0.34594 0.02128 0.0
C163 C 0.12194 0.34385 1.00281 0.0
C164 C 0.13472 0.28731 0.99265 0.0
C165 C 0.15023 0.22469 1.00093 0.0
C166 C 0.16663 0.2358 0.02265 0.0
H167 H 0.11933 0.39212 0.02788 0.0
O168 O 0.29552 0.42832 0.04163 0.0
O169 O 0.2558 0.33255 0.05163 0.0
O170 O 0.18727 0.45295 0.06596 0.0
O171 O 0.12014 0.36997 0.05927 0.0
C172 C 0.14691 0.09695 0.99329 0.0
C173 C 0.16444 0.05123 0.01338 0.0
H174 H 0.19827 1.00166 0.04681 0.0
H175 H 0.23013 0.05525 0.07468 0.0
H176 H 0.10644 0.38857 0.99605 0.0
H177 H 0.12814 0.29465 0.97854 0.0
H178 H 0.13507 0.07371 0.97872 0.0
H179 H 0.15441 0.0665 1.00165 0.0
Mn180 Mn 0.61584 0.77905 0.31688 0.0
Mn181 Mn 0.73533 0.66891 0.3056 0.0
C182 C 0.65492 0.77587 0.28805 0.0
C183 C 0.57444 0.88242 0.32616 0.0
C184 C 0.59399 0.62967 0.3131 0.0
O185 O 0.65892 0.75677 0.34053 0.0
O186 O 0.73928 0.68466 0.33181 0.0
C187 C 0.86813 0.71711 0.31578 0.0
N188 N 0.82552 0.70042 0.30247 0.0
C189 C 0.93161 0.6804 0.28268 0.0
C190 C 0.96849 0.698 0.29754 0.0
C191 C 0.9374 0.71681 0.31345 0.0
C192 C 0.84861 0.68242 0.28638 0.0
H193 H 0.84932 0.72925 0.32881 0.0
C194 C 0.70834 0.71872 0.34366 0.0
O195 O 0.54072 0.82833 0.32794 0.0
O196 O 0.63421 0.87619 0.31998 0.0
N197 N 0.73041 0.65392 0.28041 0.0
C198 C 0.67785 0.63018 0.27109 0.0
C199 C 0.67998 0.62255 0.25261 0.0
C200 C 0.73653 0.63551 0.24248 0.0
C201 C 0.7991 0.65104 0.25078 0.0
C202 C 0.78793 0.66721 0.27251 0.0
H203 H 0.63167 0.61965 0.27768 0.0
O204 O 0.59516 0.79559 0.29158 0.0
O205 O 0.69102 0.75598 0.30154 0.0
O206 O 0.57079 0.68721 0.3159 0.0
O207 O 0.65374 0.62023 0.30906 0.0
C208 C 0.92686 0.64802 0.24315 0.0
C209 C 0.97252 0.66546 0.26327 0.0
H210 H 0.02197 0.69906 0.29673 0.0
H211 H 0.96827 0.73056 0.32462 0.0
H212 H 0.63531 0.60705 0.24584 0.0
H213 H 0.72923 0.62903 0.22836 0.0
H214 H 0.95014 0.63638 0.22858 0.0
H215 H 0.95729 0.65551 0.25152 0.0
Mn216 Mn 0.24388 0.11478 0.56699 0.0
Mn217 Mn 0.35435 0.23398 0.55576 0.0
C218 C 0.24721 0.15389 0.53817 0.0
C219 C 0.14041 0.07355 0.57624 0.0
C220 C 0.39319 0.09254 0.56325 0.0
O221 O 0.26619 0.15782 0.59066 0.0
O222 O 0.33849 0.23801 0.58196 0.0
C223 C 0.30656 0.36694 0.56595 0.0
N224 N 0.32316 0.32428 0.55264 0.0
C225 C 0.34364 0.4303 0.53287 0.0
C226 C 0.32613 0.46724 0.54773 0.0
C227 C 0.30714 0.43622 0.56363 0.0
C228 C 0.34133 0.34731 0.53656 0.0
H229 H 0.29429 0.34817 0.57897 0.0
C230 C 0.30431 0.20719 0.5938 0.0
O231 O 0.19445 0.03975 0.57804 0.0
O232 O 0.14676 0.13333 0.57008 0.0
N233 N 0.36942 0.22901 0.53058 0.0
C234 C 0.39299 0.17636 0.52126 0.0
C235 C 0.40066 0.17848 0.50278 0.0
C236 C 0.38793 0.23507 0.49265 0.0
C237 C 0.3726 0.2977 0.50096 0.0
C238 C 0.35637 0.28658 0.52269 0.0
H239 H 0.40333 0.13014 0.52784 0.0
O240 O 0.22735 0.09418 0.54169 0.0
O241 O 0.26716 0.18993 0.55167 0.0
O242 O 0.3356 0.06946 0.56601 0.0
O243 O 0.4028 0.15228 0.55924 0.0
C244 C 0.37604 0.42545 0.49335 0.0
C245 C 0.35874 0.47117 0.51347 0.0
H246 H 0.32525 0.52072 0.54692 0.0
H247 H 0.29346 0.46713 0.5748 0.0
H248 H 0.41602 0.13375 0.496 0.0
H249 H 0.3944 0.22776 0.47853 0.0
H250 H 0.38779 0.4487 0.47878 0.0
H251 H 0.36865 0.4559 0.50172 0.0
Mn252 Mn 0.90722 0.74394 0.81705 0.0
Mn253 Mn 0.78801 0.85443 0.80582 0.0
C254 C 0.86816 0.74729 0.78823 0.0
C255 C 0.94842 0.64046 0.82629 0.0
C256 C 0.92943 0.89324 0.81334 0.0
O257 O 0.86418 0.7663 0.84071 0.0
O258 O 0.78389 0.8385 0.83201 0.0
C259 C 0.65501 0.80661 0.81594 0.0
N260 N 0.69774 0.82322 0.80265 0.0
C261 C 0.59181 0.84367 0.78284 0.0
C262 C 0.5548 0.82614 0.79768 0.0
C263 C 0.58575 0.80716 0.8136 0.0
C264 C 0.67477 0.84138 0.78657 0.0
H265 H 0.67372 0.79436 0.82897 0.0
C266 C 0.81477 0.80436 0.84385 0.0
O267 O 0.98223 0.69449 0.82809 0.0
O268 O 0.88864 0.64682 0.82013 0.0
N269 N 0.79309 0.86955 0.78064 0.0
C270 C 0.84576 0.89317 0.77135 0.0
C271 C 0.84374 0.90087 0.75287 0.0
C272 C 0.78722 0.8881 0.74271 0.0
C273 C 0.72456 0.87272 0.75099 0.0
C274 C 0.73558 0.85645 0.77272 0.0
H275 H 0.89194 0.90354 0.77795 0.0
O276 O 0.92786 0.72738 0.79175 0.0
O277 O 0.8321 0.76724 0.80172 0.0
O278 O 0.95254 0.83563 0.81606 0.0
O279 O 0.86969 0.90289 0.80935 0.0
C280 C 0.59685 0.87613 0.74333 0.0
C281 C 0.55104 0.85879 0.76342 0.0
H282 H 0.50132 0.82525 0.79686 0.0
H283 H 0.55478 0.79348 0.82475 0.0
H284 H 0.8885 0.91626 0.74611 0.0
H285 H 0.79461 0.89459 0.7286 0.0
H286 H 0.57367 0.8879 0.72875 0.0
H287 H 0.56636 0.86872 0.75169 0.0
Mn288 Mn 0.77848 0.61555 0.69124 0.0
Mn289 Mn 0.66831 0.73505 0.70249 0.0
C290 C 0.77515 0.65453 0.72007 0.0
C291 C 0.88191 0.57422 0.68198 0.0
C292 C 0.62909 0.59371 0.69497 0.0
O293 O 0.7563 0.65866 0.66758 0.0
O294 O 0.68419 0.73905 0.67628 0.0
C295 C 0.71664 0.86785 0.69235 0.0
N296 N 0.69985 0.82522 0.70565 0.0
C297 C 0.67987 0.93127 0.72546 0.0
C298 C 0.69757 0.96817 0.71062 0.0
C299 C 0.71641 0.93712 0.6947 0.0
C300 C 0.68183 0.84828 0.72174 0.0
H301 H 0.72881 0.84907 0.67933 0.0
C302 C 0.71828 0.70809 0.66444 0.0
O303 O 0.82784 0.54047 0.68017 0.0
O304 O 0.87561 0.63397 0.68817 0.0
N305 N 0.65319 0.73008 0.72768 0.0
C306 C 0.62934 0.67753 0.73697 0.0
C307 C 0.62162 0.67962 0.75545 0.0
C308 C 0.63459 0.73611 0.7656 0.0
C309 C 0.65023 0.7987 0.75732 0.0
C310 C 0.66649 0.78757 0.73559 0.0
H311 H 0.61878 0.63137 0.73037 0.0
O312 O 0.7949 0.5948 0.71653 0.0
O313 O 0.75534 0.69068 0.70658 0.0
O314 O 0.68663 0.57049 0.69218 0.0
O315 O 0.61964 0.65346 0.699 0.0
C316 C 0.64731 0.92644 0.76498 0.0
C317 C 0.66489 0.97214 0.74488 0.0
H318 H 0.69869 0.02165 0.71144 0.0
H319 H 0.73024 0.96801 0.68355 0.0
H320 H 0.60603 0.63494 0.76221 0.0
H321 H 0.62804 0.72878 0.77971 0.0
H322 H 0.63562 0.94969 0.77955 0.0
H323 H 0.65487 0.95688 0.75662 0.0
Mn324 Mn 0.40705 0.27867 0.94111 0.0
Mn325 Mn 0.28763 0.16847 0.95238 0.0
C326 C 0.3681 0.27543 0.96994 0.0
C327 C 0.44835 0.38209 0.93185 0.0
C328 C 0.42898 0.12932 0.94483 0.0
O329 O 0.36392 0.25636 0.91746 0.0
O330 O 0.28347 0.18437 0.92618 0.0
C331 C 0.15471 0.21662 0.9423 0.0
N332 N 0.19745 0.19993 0.95558 0.0
C333 C 0.09156 0.17986 0.97544 0.0
C334 C 0.05453 0.19747 0.96061 0.0
C335 C 0.08546 0.2163 0.94468 0.0
C336 C 0.17451 0.1819 0.97168 0.0
H337 H 0.17339 0.22877 0.92926 0.0
C338 C 0.31442 0.2184 0.91432 0.0
O339 O 0.48211 0.32801 0.93004 0.0
O340 O 0.38859 0.3758 0.93802 0.0
N341 N 0.29277 0.15337 0.97756 0.0
C342 C 0.34541 0.1296 0.98683 0.0
C343 C 0.34346 0.12194 0.00531 0.0
C344 C 0.28703 0.1349 0.01549 0.0
C345 C 0.22437 0.15046 0.00724 0.0
C346 C 0.23534 0.16666 0.9855 0.0
H347 H 0.39153 0.11907 0.98022 0.0
O348 O 0.42782 0.29522 0.9664 0.0
O349 O 0.33194 0.25555 0.95646 0.0
O350 O 0.45219 0.18688 0.94208 0.0
O351 O 0.36921 0.11983 0.94884 0.0
C352 C 0.09669 0.14744 0.01495 0.0
C353 C 0.05084 0.1649 0.99487 0.0
H354 H 1.00106 0.19853 0.96146 0.0
H355 H 0.05448 0.23006 0.93354 0.0
H356 H 0.3882 0.10641 0.01205 0.0
H357 H 0.29447 0.12841 0.0296 0.0
H358 H 0.07355 0.13577 0.02954 0.0
H359 H 0.06619 0.15493 0.00661 0.0
Mn360 Mn 0.74477 0.90834 0.19113 0.0
Mn361 Mn 0.85511 0.78899 0.20235 0.0
C362 C 0.74804 0.8692 0.21994 0.0
C363 C 0.64133 0.94965 0.18189 0.0
C364 C 0.8941 0.93041 0.19487 0.0
O365 O 0.76707 0.86533 0.16746 0.0
O366 O 0.83924 0.785 0.17615 0.0
C367 C 0.80718 0.65608 0.19216 0.0
N368 N 0.8238 0.69873 0.20547 0.0
C369 C 0.84409 0.59269 0.22525 0.0
C370 C 0.82655 0.55577 0.21039 0.0
C371 C 0.80765 0.58681 0.19448 0.0
C372 C 0.84189 0.67568 0.22155 0.0
H373 H 0.79498 0.67486 0.17914 0.0
C374 C 0.80511 0.8159 0.16431 0.0
O375 O 0.69539 0.98343 0.1801 0.0
O376 O 0.64764 0.88986 0.18804 0.0
N377 N 0.87016 0.79394 0.22753 0.0
C378 C 0.8938 0.84655 0.23685 0.0
C379 C 0.90144 0.84443 0.25533 0.0
C380 C 0.88859 0.78787 0.26546 0.0
C381 C 0.87318 0.72526 0.25716 0.0
C382 C 0.85699 0.7364 0.23542 0.0
H383 H 0.90424 0.89275 0.23027 0.0
O384 O 0.72823 0.92893 0.21644 0.0
O385 O 0.76796 0.83315 0.20644 0.0
O386 O 0.83653 0.95356 0.19212 0.0
O387 O 0.90365 0.87065 0.19887 0.0
C388 C 0.87644 0.59751 0.26477 0.0
C389 C 0.8591 0.55181 0.24465 0.0
H390 H 0.82561 0.50228 0.2112 0.0
H391 H 0.79396 0.55591 0.18332 0.0
H392 H 0.91686 0.88914 0.26211 0.0
H393 H 0.89505 0.79518 0.27958 0.0
H394 H 0.88814 0.57425 0.27934 0.0
H395 H 0.86902 0.56707 0.2564 0.0
Mn396 Mn 0.11535 0.2442 0.44122 0.0
Mn397 Mn 0.23488 0.35423 0.45252 0.0
C398 C 0.15433 0.24735 0.47006 0.0
C399 C 0.0739 0.14084 0.43195 0.0
C400 C 0.0936 0.3936 0.44502 0.0
O401 O 0.15856 0.2664 0.41757 0.0
O402 O 0.23887 0.33851 0.42631 0.0
C403 C 0.36764 0.30587 0.44233 0.0
N404 N 0.32503 0.32263 0.45565 0.0
C405 C 0.43112 0.3425 0.47544 0.0
C406 C 0.468 0.32485 0.46058 0.0
C407 C 0.43691 0.30608 0.44467 0.0
C408 C 0.34813 0.34059 0.47173 0.0
H409 H 0.34883 0.29375 0.42931 0.0
C410 C 0.20799 0.30445 0.41445 0.0
O411 O 0.04022 0.19496 0.43014 0.0
O412 O 0.13366 0.14705 0.43813 0.0
N413 N 0.22995 0.36921 0.47771 0.0
C414 C 0.1774 0.393 0.48703 0.0
C415 C 0.17952 0.40062 0.5055 0.0
C416 C 0.23605 0.38762 0.51564 0.0
C417 C 0.29862 0.37202 0.50734 0.0
C418 C 0.28745 0.35588 0.4856 0.0
H419 H 0.13123 0.40357 0.48045 0.0
O420 O 0.09456 0.22771 0.46652 0.0
O421 O 0.19049 0.2672 0.45657 0.0
O422 O 0.07038 0.3361 0.44218 0.0
O423 O 0.15333 0.40298 0.44907 0.0
C424 C 0.42637 0.37486 0.51497 0.0
C425 C 0.47203 0.35737 0.49485 0.0
H426 H 0.52147 0.3237 0.46139 0.0
H427 H 0.46777 0.29228 0.4335 0.0
H428 H 0.13486 0.41617 0.51228 0.0
H429 H 0.22874 0.3941 0.52976 0.0
H430 H 0.44965 0.38646 0.52954 0.0
H431 H 0.45679 0.36733 0.50659 0.0
Mn432 Mn 0.77889 0.90756 0.56694 0.0
Mn433 Mn 0.66884 0.788 0.55567 0.0
C434 C 0.7757 0.86854 0.53811 0.0
C435 C 0.88226 0.94896 0.5762 0.0
C436 C 0.62951 0.92932 0.56318 0.0
O437 O 0.75661 0.86449 0.59059 0.0
O438 O 0.68462 0.78403 0.58188 0.0
C439 C 0.71728 0.65524 0.56582 0.0
N440 N 0.70048 0.69785 0.55252 0.0
C441 C 0.6807 0.59177 0.53271 0.0
C442 C 0.6984 0.55489 0.54755 0.0
C443 C 0.71715 0.58597 0.56347 0.0
C444 C 0.68255 0.67476 0.53643 0.0
H445 H 0.72938 0.67405 0.57885 0.0
C446 C 0.71861 0.81504 0.59373 0.0
O447 O 0.82817 0.98269 0.578 0.0
O448 O 0.87602 0.88918 0.57003 0.0
N449 N 0.6538 0.79293 0.53048 0.0
C450 C 0.62991 0.84545 0.52118 0.0
C451 C 0.62224 0.84335 0.50271 0.0
C452 C 0.63529 0.78686 0.49256 0.0
C453 C 0.65098 0.72429 0.50084 0.0
C454 C 0.66718 0.73545 0.52257 0.0
H455 H 0.61929 0.8916 0.52778 0.0
O456 O 0.79543 0.92828 0.54164 0.0
O457 O 0.75585 0.8324 0.5516 0.0
O458 O 0.68703 0.95257 0.56596 0.0
O459 O 0.62009 0.86955 0.55916 0.0
C460 C 0.64823 0.59655 0.49319 0.0
C461 C 0.6658 0.55087 0.51329 0.0
H462 H 0.69958 0.50141 0.54673 0.0
H463 H 0.73098 0.5551 0.57463 0.0
H464 H 0.60662 0.888 0.49594 0.0
H465 H 0.62877 0.79417 0.47844 0.0
H466 H 0.6366 0.57327 0.47861 0.0
H467 H 0.6558 0.56611 0.50155 0.0
Mn468 Mn 0.11446 0.27893 0.81688 0.0
Mn469 Mn 0.23397 0.16883 0.80559 0.0
C470 C 0.15354 0.27579 0.78805 0.0
C471 C 0.07305 0.38231 0.82616 0.0
C472 C 0.09264 0.12955 0.81307 0.0
O473 O 0.15756 0.25667 0.84053 0.0
O474 O 0.23787 0.18451 0.83181 0.0
C475 C 0.36672 0.21709 0.81581 0.0
N476 N 0.32415 0.20038 0.80249 0.0
C477 C 0.4303 0.18043 0.78271 0.0
C478 C 0.46713 0.19804 0.79758 0.0
C479 C 0.436 0.21682 0.81349 0.0
C480 C 0.3473 0.18241 0.7864 0.0
H481 H 0.34787 0.22921 0.82883 0.0
C482 C 0.20693 0.21856 0.84366 0.0
O483 O 0.03933 0.32821 0.82795 0.0
O484 O 0.13282 0.37607 0.81998 0.0
N485 N 0.22911 0.15389 0.7804 0.0
C486 C 0.17658 0.13015 0.77107 0.0
C487 C 0.17877 0.12253 0.7526 0.0
C488 C 0.23533 0.1355 0.74247 0.0
C489 C 0.29789 0.15103 0.75079 0.0
C490 C 0.28665 0.16719 0.77252 0.0
H491 H 0.13038 0.11961 0.77765 0.0
O492 O 0.09377 0.29547 0.79158 0.0
O493 O 0.18965 0.2559 0.80154 0.0
O494 O 0.06943 0.18706 0.81591 0.0
O495 O 0.15238 0.12015 0.80903 0.0
C496 C 0.42566 0.14809 0.74318 0.0
C497 C 0.47127 0.16553 0.76331 0.0
H498 H 0.52061 0.19913 0.79678 0.0
H499 H 0.46684 0.23059 0.82466 0.0
H500 H 0.13411 0.10703 0.74581 0.0
H501 H 0.22808 0.12903 0.72835 0.0
H502 H 0.44899 0.13646 0.72861 0.0
H503 H 0.45606 0.15558 0.75156 0.0
Mn504 Mn 0.74403 0.61501 0.06698 0.0
Mn505 Mn 0.85426 0.73433 0.05566 0.0
C506 C 0.74719 0.65396 0.03814 0.0
C507 C 0.64062 0.57371 0.07625 0.0
C508 C 0.89338 0.59299 0.06317 0.0
O509 O 0.76635 0.65821 0.09063 0.0
O510 O 0.83864 0.73833 0.08187 0.0
C511 C 0.80618 0.86717 0.06587 0.0
N512 N 0.82281 0.82454 0.05255 0.0
C513 C 0.84272 0.93059 0.03275 0.0
C514 C 0.8252 0.9675 0.04762 0.0
C515 C 0.80648 0.93644 0.06354 0.0
C516 C 0.84073 0.84761 0.03646 0.0
H517 H 0.7941 0.84838 0.0789 0.0
C518 C 0.80454 0.70754 0.09374 0.0
O519 O 0.69469 0.53997 0.07806 0.0
O520 O 0.64691 0.63347 0.07008 0.0
N521 N 0.86915 0.72937 0.03047 0.0
C522 C 0.89281 0.67679 0.02115 0.0
C523 C 0.90034 0.6789 1.00267 0.0
C524 C 0.88735 0.73544 0.99254 0.0
C525 C 0.87188 0.79803 1.00084 0.0
C526 C 0.85586 0.78689 0.02259 0.0
H527 H 0.90334 0.6306 0.02773 0.0
O528 O 0.72747 0.59423 0.04169 0.0
O529 O 0.76713 0.69011 0.05162 0.0
O530 O 0.83585 0.56987 0.06601 0.0
O531 O 0.90287 0.65269 0.05911 0.0
C532 C 0.87482 0.92578 0.99321 0.0
C533 C 0.85751 0.97147 0.01334 0.0
H534 H 0.82413 0.02098 0.04681 0.0
H535 H 0.79278 0.96733 0.07471 0.0
H536 H 0.91579 0.63421 0.99588 0.0
H537 H 0.89374 0.72812 0.97842 0.0
H538 H 0.88636 0.94904 0.97863 0.0
H539 H 0.86738 0.95622 1.00159 0.0
Mn540 Mn 0.4086 0.24405 0.31706 0.0
Mn541 Mn 0.28935 0.35448 0.30582 0.0
C542 C 0.36955 0.24737 0.28823 0.0
C543 C 0.44982 0.14057 0.3263 0.0
C544 C 0.43078 0.39336 0.31332 0.0
O545 O 0.36555 0.26639 0.34072 0.0
O546 O 0.28529 0.33861 0.33202 0.0
C547 C 0.1564 0.30658 0.31597 0.0
N548 N 0.1991 0.32321 0.30267 0.0
C549 C 0.09312 0.34357 0.28287 0.0
C550 C 0.05615 0.32601 0.29772 0.0
C551 C 0.08714 0.30707 0.31363 0.0
C552 C 0.17609 0.34134 0.28659 0.0
H553 H 0.17515 0.29434 0.32899 0.0
C554 C 0.31616 0.30448 0.34386 0.0
O555 O 0.48362 0.19461 0.3281 0.0
O556 O 0.39004 0.14693 0.32014 0.0
N557 N 0.29438 0.36957 0.28064 0.0
C558 C 0.34702 0.39322 0.27134 0.0
C559 C 0.34497 0.40091 0.25287 0.0
C560 C 0.28843 0.38812 0.24271 0.0
C561 C 0.22579 0.3727 0.251 0.0
C562 C 0.23686 0.35645 0.27273 0.0
H563 H 0.39321 0.40361 0.27793 0.0
O564 O 0.42925 0.2275 0.29175 0.0
O565 O 0.33347 0.26731 0.30173 0.0
O566 O 0.4539 0.33578 0.31608 0.0
O567 O 0.37103 0.40296 0.30933 0.0
C568 C 0.09806 0.37602 0.24336 0.0
C569 C 0.0523 0.35865 0.26346 0.0
H570 H 1.00267 0.32508 0.2969 0.0
H571 H 0.0562 0.29336 0.32479 0.0
H572 H 0.3897 0.41633 0.2461 0.0
H573 H 0.29578 0.39461 0.2286 0.0
H574 H 0.07485 0.38776 0.22878 0.0
H575 H 0.0676 0.36859 0.25172 0.0
C576 C 0.15797 0.27377 0.12044 0.0
C577 C 0.21795 0.28907 0.11196 0.0
H578 H 0.11144 0.23729 0.14419 0.0
C579 C 0.27796 0.27677 0.12073 0.0
H580 H 0.1112 0.28279 0.11382 0.0
C581 C 0.27813 0.24863 0.13766 0.0
C582 C 0.21826 0.2344 0.14628 0.0
H583 H 0.32476 0.28767 0.11433 0.0
H584 H 0.32503 0.23918 0.14417 0.0
C585 C 0.1581 0.24781 0.13768 0.0
C586 C 0.77557 0.65762 0.38755 0.0
C587 C 0.78947 0.7177 0.39615 0.0
H588 H 0.74012 0.61091 0.36371 0.0
C589 C 0.77568 0.77765 0.38751 0.0
H590 H 0.78573 0.61089 0.39407 0.0
C591 C 0.74748 0.77764 0.37059 0.0
C592 C 0.73467 0.7177 0.36184 0.0
H593 H 0.78551 0.8245 0.39401 0.0
H594 H 0.73691 0.8245 0.36419 0.0
C595 C 0.74954 0.65763 0.37031 0.0
C596 C 0.24523 0.24676 0.62067 0.0
C597 C 0.30522 0.23372 0.61196 0.0
H598 H 0.19826 0.28534 0.64401 0.0
C599 C 0.36524 0.2488 0.62043 0.0
H600 H 0.19841 0.23606 0.61426 0.0
C601 C 0.36517 0.27526 0.63763 0.0
C602 C 0.30506 0.28938 0.64617 0.0
H603 H 0.412 0.23926 0.61386 0.0
H604 H 0.41187 0.28555 0.64414 0.0
C605 C 0.24514 0.27538 0.63754 0.0
C606 C 0.77567 0.74533 0.87077 0.0
C607 C 0.78832 0.8053 0.86202 0.0
H608 H 0.73755 0.69838 0.89416 0.0
C609 C 0.77302 0.86533 0.87047 0.0
H610 H 0.78655 0.6985 0.86438 0.0
C611 C 0.74674 0.86528 0.88768 0.0
C612 C 0.733 0.80517 0.89627 0.0
H613 H 0.78228 0.91208 0.86387 0.0
H614 H 0.73626 0.91198 0.89418 0.0
C615 C 0.74722 0.74525 0.88766 0.0
C616 C 0.6574 0.77409 0.6204 0.0
C617 C 0.71751 0.78883 0.61192 0.0
H618 H 0.61056 0.73815 0.64417 0.0
C619 C 0.77741 0.77609 0.62069 0.0
H620 H 0.61071 0.78347 0.61378 0.0
C621 C 0.77734 0.74806 0.63763 0.0
C622 C 0.71736 0.73439 0.64627 0.0
H623 H 0.8243 0.78657 0.61429 0.0
H624 H 0.82417 0.73826 0.64415 0.0
C625 C 0.65731 0.74824 0.63766 0.0
C626 C 0.27222 0.1574 0.88775 0.0
C627 C 0.28808 0.21741 0.89614 0.0
H628 H 0.23524 0.11074 0.86407 0.0
C629 C 0.27627 0.27736 0.88729 0.0
H630 H 0.28085 0.11068 0.89442 0.0
C631 C 0.24807 0.27744 0.87037 0.0
C632 C 0.23329 0.21754 0.86183 0.0
H633 H 0.28761 0.32419 0.89362 0.0
H634 H 0.23901 0.3243 0.86379 0.0
C635 C 0.24619 0.15743 0.87051 0.0
C636 C 0.74579 0.74863 0.12048 0.0
C637 C 0.80566 0.73405 0.11189 0.0
H638 H 0.69917 0.78827 0.14374 0.0
C639 C 0.86581 0.74747 0.12049 0.0
H640 H 0.69889 0.73919 0.11396 0.0
C641 C 0.86595 0.7738 0.1377 0.0
C642 C 0.80598 0.78945 0.14614 0.0
H643 H 0.91248 0.73671 0.11401 0.0
H644 H 0.91272 0.7828 0.14432 0.0
C645 C 0.74597 0.77712 0.13737 0.0
C646 C 0.24884 0.36553 0.38776 0.0
C647 C 0.23447 0.30545 0.39629 0.0
H648 H 0.28486 0.41227 0.36399 0.0
C649 C 0.24803 0.2455 0.38762 0.0
H650 H 0.23887 0.41225 0.39431 0.0
C651 C 0.27646 0.24551 0.37072 0.0
C652 C 0.28974 0.30547 0.36203 0.0
H653 H 0.23785 0.19864 0.39407 0.0
H654 H 0.28683 0.19866 0.36428 0.0
C655 C 0.2751 0.36554 0.37055 0.0
C656 C 0.34463 0.2315 0.23842 0.0
C657 C 0.295 0.18313 0.23748 0.0
H658 H 0.41231 0.28402 0.25533 0.0
C659 C 0.2728 0.15403 0.25335 0.0
H660 H 0.36651 0.25113 0.22638 0.0
C661 C 0.29243 0.17944 0.26988 0.0
C662 C 0.34091 0.22896 0.27082 0.0
H663 H 0.23976 0.11187 0.25297 0.0
H664 H 0.27275 0.1576 0.28192 0.0
C665 C 0.37007 0.25109 0.25495 0.0
C666 C 0.79168 0.84364 0.4883 0.0
C667 C 0.84027 0.79422 0.48736 0.0
H668 H 0.73886 0.91111 0.5052 0.0
C669 C 0.86946 0.77216 0.50323 0.0
H670 H 0.77196 0.86542 0.47625 0.0
C671 C 0.84396 0.7917 0.51976 0.0
C672 C 0.79423 0.83997 0.52069 0.0
H673 H 0.91177 0.73931 0.50285 0.0
H674 H 0.86588 0.77212 0.5318 0.0
C675 C 0.77198 0.86902 0.50482 0.0
C676 C 0.17866 0.29199 0.73825 0.0
C677 C 0.22819 0.34048 0.73735 0.0
H678 H 0.11101 0.23923 0.75511 0.0
C679 C 0.25024 0.36955 0.75324 0.0
H680 H 0.1569 0.27237 0.72619 0.0
C681 C 0.23056 0.34402 0.76975 0.0
C682 C 0.18218 0.29439 0.77065 0.0
H683 H 0.28318 0.41178 0.75289 0.0
H684 H 0.25014 0.36584 0.78181 0.0
C685 C 0.15316 0.27227 0.75476 0.0
C686 C 0.67882 0.73089 0.01985 0.0
C687 C 0.7285 0.68255 0.02075 0.0
H688 H 0.61095 0.78342 1.00301 0.0
C689 C 0.75056 0.65349 0.00485 0.0
H690 H 0.65705 0.75049 0.03192 0.0
C691 C 0.73074 0.67892 0.98835 0.0
C692 C 0.68221 0.72841 0.98745 0.0
H693 H 0.78363 0.61135 0.0052 0.0
H694 H 0.75033 0.65712 0.97628 0.0
C695 C 0.65319 0.75049 1.00335 0.0
C696 C 0.27175 0.36905 0.00484 0.0
C697 C 0.29397 0.33992 0.02071 0.0
H698 H 0.27153 0.36543 0.97628 0.0
C699 C 0.34346 0.29141 0.01975 0.0
H700 H 0.23882 0.4113 0.00524 0.0
C701 C 0.36876 0.27173 1.00322 0.0
C702 C 0.33957 0.29391 0.98736 0.0
H703 H 0.36536 0.27175 0.03179 0.0
H704 H 0.41092 0.2387 1.00282 0.0
C705 C 0.29122 0.34356 0.98831 0.0
C706 C 0.73195 0.84406 0.26974 0.0
C707 C 0.68356 0.79444 0.27065 0.0
H708 H 0.78457 0.91179 0.25288 0.0
C709 C 0.65451 0.77232 0.25476 0.0
H710 H 0.75155 0.86587 0.2818 0.0
C711 C 0.67999 0.79203 0.23825 0.0
C712 C 0.72954 0.8405 0.23734 0.0
H713 H 0.61235 0.7393 0.25511 0.0
H714 H 0.6582 0.77241 0.22619 0.0
C715 C 0.75162 0.86957 0.25323 0.0
C716 C 0.15385 0.25089 0.50335 0.0
C717 C 0.18289 0.22872 0.48746 0.0
H718 H 0.15749 0.2508 0.53192 0.0
C719 C 0.23122 0.17903 0.48837 0.0
H720 H 0.11173 0.28398 0.50299 0.0
C721 C 0.25081 0.15349 0.50488 0.0
C722 C 0.22874 0.1826 0.52077 0.0
H723 H 0.25081 0.15719 0.47632 0.0
H724 H 0.28371 0.11122 0.50524 0.0
C725 C 0.17927 0.23114 0.51986 0.0
C726 C 0.77137 0.65403 0.75335 0.0
C727 C 0.79362 0.68311 0.73748 0.0
H728 H 0.77129 0.65761 0.78192 0.0
C729 C 0.84328 0.73145 0.73842 0.0
H730 H 0.7383 0.61189 0.75296 0.0
C731 C 0.86872 0.75102 0.75495 0.0
C732 C 0.83952 0.7289 0.77082 0.0
H733 H 0.86518 0.75106 0.72638 0.0
H734 H 0.91097 0.78392 0.75533 0.0
C735 C 0.791 0.67942 0.76987 0.0
C736 C 0.07497 0.98211 0.19347 0.0
C737 C 0.07044 0.05122 0.1939 0.0
H738 H 0.0231 0.89014 0.19342 0.0
C739 C 1.00692 0.08066 0.19381 0.0
H740 H 0.12277 0.95783 0.19349 0.0
C741 C 0.94947 0.04201 0.1937 0.0
C742 C 0.95402 0.97289 0.19382 0.0
H743 H 1.00133 0.13397 0.19397 0.0
H744 H 0.90167 0.06627 0.19391 0.0
C745 C 0.01752 0.94345 0.1935 0.0
C746 C 0.98219 0.44915 0.44309 0.0
C747 C 0.05125 0.45364 0.44394 0.0
H748 H 0.89024 0.50108 0.44266 0.0
C749 C 0.08069 0.51716 0.44423 0.0
H750 H 0.95791 0.40137 0.44279 0.0
C751 C 0.04205 0.57462 0.44408 0.0
C752 C 0.97294 0.57008 0.44378 0.0
H753 H 0.13397 0.52276 0.44473 0.0
H754 H 0.06627 0.6224 0.4446 0.0
C755 C 0.94354 0.50661 0.44307 0.0
C756 C 0.44813 0.54209 0.69387 0.0
C757 C 0.45269 0.47298 0.69382 0.0
H758 H 0.49997 0.63405 0.69429 0.0
C759 C 0.51618 0.44356 0.69332 0.0
H760 H 0.40033 0.56633 0.69423 0.0
C761 C 0.57362 0.48222 0.69329 0.0
C762 C 0.5691 0.55131 0.6939 0.0
H763 H 0.52174 0.39024 0.69309 0.0
H764 H 0.62142 0.45794 0.69316 0.0
C765 C 0.50558 0.58075 0.69398 0.0
C766 C 0.44199 1.00587 0.94351 0.0
C767 C 0.47143 0.06938 0.94379 0.0
H768 H 0.45637 0.90062 0.94355 0.0
C769 C 0.54054 0.07391 0.94366 0.0
H770 H 0.38867 1.00031 0.94344 0.0
C771 C 0.57919 0.01646 0.94379 0.0
C772 C 0.54975 0.95295 0.94392 0.0
H773 H 0.56481 0.12171 0.94383 0.0
H774 H 0.6325 0.02205 0.94394 0.0
C775 C 0.48064 0.94842 0.94351 0.0
C776 C 1.00627 0.44279 0.06467 0.0
C777 C 0.06977 0.47223 0.06431 0.0
H778 H 0.90102 0.45718 0.06471 0.0
C779 C 0.07431 0.54135 0.06441 0.0
H780 H 1.0007 0.38948 0.06476 0.0
C781 C 0.01686 0.58 0.06431 0.0
C782 C 0.95334 0.55056 0.06425 0.0
H783 H 0.1221 0.56561 0.06418 0.0
H784 H 0.02245 0.63331 0.06413 0.0
C785 C 0.94881 0.48145 0.0647 0.0
C786 C 0.58105 0.50616 0.31416 0.0
C787 C 0.55161 0.56968 0.31419 0.0
H788 H 0.56666 0.40091 0.314 0.0
C789 C 0.48252 0.5742 0.3148 0.0
H790 H 0.63436 0.50056 0.31386 0.0
C791 C 0.44387 0.51675 0.31482 0.0
C792 C 0.47329 0.45325 0.31437 0.0
H793 H 0.45824 0.622 0.3149 0.0
H794 H 0.39055 0.52231 0.31504 0.0
C795 C 0.54241 0.44871 0.31431 0.0
C796 C 0.57403 0.04081 0.56474 0.0
C797 C 0.56951 0.97171 0.56425 0.0
H798 H 0.52215 0.13278 0.56485 0.0
C799 C 0.506 0.94226 0.56427 0.0
H800 H 0.62182 0.06509 0.56479 0.0
C801 C 0.44854 0.98091 0.56437 0.0
C802 C 0.45308 0.05003 0.56432 0.0
H803 H 0.50041 0.88895 0.56405 0.0
H804 H 0.40074 0.95666 0.5641 0.0
C805 C 0.51658 0.07946 0.56471 0.0
C806 C 0.07971 1.00599 0.81381 0.0
C807 C 0.05028 0.06952 0.81416 0.0
H808 H 0.06529 0.90075 0.81343 0.0
C809 C 0.98124 0.074 0.8151 0.0
H810 H 0.13298 1.00038 0.81324 0.0
C811 C 0.94259 0.01654 0.81515 0.0
C812 C 0.97198 0.95308 0.81439 0.0
H813 H 0.95697 0.12179 0.81544 0.0
H814 H 0.88929 0.02207 0.81563 0.0
C815 C 0.04108 0.94854 0.814 0.0
C816 C 0.51734 0.94286 0.17893 0.0
C817 C 0.5754 0.98108 0.17925 0.0
H818 H 0.41126 0.94233 0.17907 0.0
C819 C 0.56954 0.05055 0.17877 0.0
H820 H 0.52004 0.88933 0.17929 0.0
C821 C 0.50716 0.08106 0.17897 0.0
C822 C 0.4491 0.04284 0.17929 0.0
H823 H 0.61323 0.08159 0.17908 0.0
H824 H 0.50446 0.13459 0.17936 0.0
C825 C 0.45495 0.97337 0.17876 0.0
C826 C 0.0501 0.95452 0.42869 0.0
C827 C 0.98064 0.94866 0.42925 0.0
H828 H 0.13415 0.01958 0.42923 0.0
C829 C 0.94242 1.00674 0.42899 0.0
H830 H 0.08114 0.91082 0.42895 0.0
C831 C 0.97294 0.06912 0.42883 0.0
C832 C 0.04241 0.07496 0.42928 0.0
H833 H 0.8889 1.00404 0.42941 0.0
H834 H 0.94192 0.11282 0.42919 0.0
C835 C 0.08062 0.01689 0.42889 0.0
C836 C 0.01609 0.44285 0.67882 0.0
C837 C 0.07415 0.48106 0.67926 0.0
H838 H 0.91001 0.44233 0.67887 0.0
C839 C 0.0683 0.55054 0.67889 0.0
H840 H 0.0188 0.38932 0.67909 0.0
C841 C 1.00592 0.58105 0.6791 0.0
C842 C 0.94785 0.54283 0.67931 0.0
H843 H 0.11199 0.58157 0.6793 0.0
H844 H 1.00323 0.63456 0.67959 0.0
C845 C 0.95371 0.47337 0.67866 0.0
C846 C 0.44158 0.50608 0.92891 0.0
C847 C 0.4798 0.44801 0.92922 0.0
H848 H 0.44105 0.61215 0.92908 0.0
C849 C 0.54927 0.45387 0.92874 0.0
H850 H 0.38806 0.50338 0.92927 0.0
C851 C 0.57978 0.51625 0.92895 0.0
C852 C 0.54156 0.57431 0.92929 0.0
H853 H 0.5803 0.41017 0.92904 0.0
H854 H 0.6333 0.51894 0.92935 0.0
C855 C 0.47209 0.56846 0.92876 0.0
C856 C 0.56885 0.47279 0.07938 0.0
C857 C 0.5747 0.54227 0.07889 0.0
H858 H 0.50377 0.38875 0.07879 0.0
C859 C 0.51663 0.58048 0.0792 0.0
H860 H 0.61255 0.44176 0.07908 0.0
C861 C 0.45425 0.54997 0.07937 0.0
C862 C 0.4484 0.4805 0.07885 0.0
H863 H 0.51932 0.63401 0.07883 0.0
H864 H 0.41056 0.58101 0.07905 0.0
C865 C 0.50647 0.44228 0.07918 0.0
C866 C 0.55069 0.06876 0.32944 0.0
C867 C 0.48122 0.07462 0.32892 0.0
H868 H 0.63473 1.00368 0.32885 0.0
C869 C 0.443 0.01655 0.32919 0.0
H870 H 0.58173 0.11245 0.32917 0.0
C871 C 0.47352 0.95416 0.32934 0.0
C872 C 0.54299 0.94832 0.32884 0.0
H873 H 0.38948 0.01925 0.3288 0.0
H874 H 0.44249 0.91047 0.32898 0.0
C875 C 0.5812 1.00638 0.32922 0.0
C876 C 0.95402 0.04987 0.57937 0.0
C877 C 0.94817 0.9804 0.57887 0.0
H878 H 0.01911 0.13391 0.57882 0.0
C879 C 1.00623 0.94218 0.5792 0.0
H880 H 0.91032 0.08091 0.57906 0.0
C881 C 0.06861 0.97269 0.57939 0.0
C882 C 0.07447 0.04216 0.57889 0.0
H883 H 1.00353 0.88866 0.57882 0.0
H884 H 0.1123 0.94164 0.57909 0.0
C885 C 0.01641 0.08038 0.5792 0.0
C886 C 0.0493 0.56865 0.8294 0.0
C887 C 0.97983 0.57451 0.82891 0.0
H888 H 0.13334 0.50358 0.82878 0.0
C889 C 0.94161 0.51644 0.82922 0.0
H890 H 0.08034 0.61234 0.82909 0.0
C891 C 0.97213 0.45406 0.82937 0.0
C892 C 0.0416 0.44821 0.82884 0.0
H893 H 0.88809 0.51915 0.82886 0.0
H894 H 0.9411 0.41036 0.82905 0.0
C895 C 0.07981 0.50627 0.82918 0.0
loop_
_geom_bond_atom_site_label_1
_geom_bond_atom_site_label_2
_geom_bond_distance
_geom_bond_site_symmetry_2
_ccdc_geom_bond_type
Mn0 O5 2.095 . S
Mn0 O15 2.162 . S
Mn0 O16 2.297 . S
Mn0 O24 2.385 . S
Mn0 O25 2.209 . S
Mn0 O26 2.094 . S
Mn1 O6 2.121 . S
Mn1 N8 2.257 . S
Mn1 N17 2.282 . S
Mn1 O25 2.215 . S
Mn1 O27 2.117 . S
C2 O24 1.234 . S
C2 O25 1.283 . S
C3 O15 1.281 . S
C3 O16 1.236 . S
C4 O26 1.240 . S
C4 O27 1.264 . S
O5 Mn0 2.095 . S
O5 C14 1.250 . S
O6 Mn1 2.121 . S
O6 C14 1.258 . S
C7 N8 1.326 . S
C7 C11 1.460 . S
C7 H13 0.929 . S
N8 Mn1 2.257 . S
N8 C7 1.326 . S
N8 C12 1.362 . S
C9 C10 1.258 . S
C9 C12 1.431 . S
C9 C29 1.449 . S
C10 C9 1.258 . S
C10 C11 1.477 . S
C10 H30 0.931 . S
C11 C7 1.460 . S
C11 C10 1.477 . S
C11 H31 0.930 . S
C12 N8 1.362 . S
C12 C9 1.431 . S
C12 C22 1.476 . S
H13 C7 0.929 . S
C14 O5 1.250 . S
C14 O6 1.258 . S
O15 Mn0 2.162 . S
O15 C3 1.281 . S
O16 Mn0 2.297 . S
O16 C3 1.236 . S
N17 Mn1 2.282 . S
N17 C18 1.328 . S
N17 C22 1.318 . S
C18 N17 1.328 . S
C18 C19 1.457 . S
C18 H23 0.929 . S
C19 C18 1.457 . S
C19 C20 1.291 . S
C19 H32 0.931 . S
C20 C19 1.291 . S
C20 C21 1.373 . S
C20 H33 0.929 . S
C21 C20 1.373 . S
C21 C22 1.396 . S
C21 C28 1.403 . S
C22 C12 1.476 . S
C22 N17 1.318 . S
C22 C21 1.396 . S
H23 C18 0.929 . S
O24 Mn0 2.385 . S
O24 C2 1.234 . S
O25 Mn0 2.209 . S
O25 Mn1 2.215 . S
O25 C2 1.283 . S
O26 Mn0 2.094 . S
O26 C4 1.240 . S
O27 Mn1 2.117 . S
O27 C4 1.264 . S
C28 C21 1.403 . S
C28 C29 1.399 . S
C28 H34 0.929 . S
C29 C9 1.449 . S
C29 C28 1.399 . S
C29 H35 0.930 . S
H30 C10 0.931 . S
H31 C11 0.930 . S
H32 C19 0.931 . S
H33 C20 0.929 . S
H34 C28 0.929 . S
H35 C29 0.930 . S
Mn36 O41 2.095 . S
Mn36 O51 2.162 . S
Mn36 O52 2.297 . S
Mn36 O60 2.385 . S
Mn36 O61 2.209 . S
Mn36 O62 2.094 . S
Mn37 O42 2.121 . S
Mn37 N44 2.257 . S
Mn37 N53 2.282 . S
Mn37 O61 2.215 . S
Mn37 O63 2.117 . S
C38 O60 1.234 . S
C38 O61 1.283 . S
C39 O51 1.281 . S
C39 O52 1.236 . S
C40 O62 1.240 . S
C40 O63 1.264 . S
O41 Mn36 2.095 . S
O41 C50 1.250 . S
O42 Mn37 2.121 . S
O42 C50 1.258 . S
C43 N44 1.326 . S
C43 C47 1.460 . S
C43 H49 0.929 . S
N44 Mn37 2.257 . S
N44 C43 1.326 . S
N44 C48 1.362 . S
C45 C46 1.258 . S
C45 C48 1.431 . S
C45 C65 1.449 . S
C46 C45 1.258 . S
C46 C47 1.477 . S
C46 H66 0.931 . S
C47 C43 1.460 . S
C47 C46 1.477 . S
C47 H67 0.930 . S
C48 N44 1.362 . S
C48 C45 1.431 . S
C48 C58 1.476 . S
H49 C43 0.929 . S
C50 O41 1.250 . S
C50 O42 1.258 . S
O51 Mn36 2.162 . S
O51 C39 1.281 . S
O52 Mn36 2.297 . S
O52 C39 1.236 . S
N53 Mn37 2.282 . S
N53 C54 1.328 . S
N53 C58 1.318 . S
C54 N53 1.328 . S
C54 C55 1.457 . S
C54 H59 0.929 . S
C55 C54 1.457 . S
C55 C56 1.291 . S
C55 H68 0.931 . S
C56 C55 1.291 . S
C56 C57 1.373 . S
C56 H69 0.929 . S
C57 C56 1.373 . S
C57 C58 1.396 . S
C57 C64 1.403 . S
C58 C48 1.476 . S
C58 N53 1.318 . S
C58 C57 1.396 . S
H59 C54 0.929 . S
O60 Mn36 2.385 . S
O60 C38 1.234 . S
O61 Mn36 2.209 . S
O61 Mn37 2.215 . S
O61 C38 1.283 . S
O62 Mn36 2.094 . S
O62 C40 1.240 . S
O63 Mn37 2.117 . S
O63 C40 1.264 . S
C64 C57 1.403 . S
C64 C65 1.399 . S
C64 H70 0.929 . S
C65 C45 1.449 . S
C65 C64 1.399 . S
C65 H71 0.930 . S
H66 C46 0.931 . S
H67 C47 0.930 . S
H68 C55 0.931 . S
H69 C56 0.929 . S
H70 C64 0.929 . S
H71 C65 0.930 . S
Mn72 O77 2.095 . S
Mn72 O87 2.162 . S
Mn72 O88 2.297 . S
Mn72 O96 2.385 . S
Mn72 O97 2.209 . S
Mn72 O98 2.094 . S
Mn73 O78 2.121 . S
Mn73 N80 2.257 . S
Mn73 N89 2.282 . S
Mn73 O97 2.215 . S
Mn73 O99 2.117 . S
C74 O96 1.234 . S
C74 O97 1.283 . S
C75 O87 1.281 . S
C75 O88 1.236 . S
C76 O98 1.240 . S
C76 O99 1.264 . S
O77 Mn72 2.095 . S
O77 C86 1.250 . S
O78 Mn73 2.121 . S
O78 C86 1.258 . S
C79 N80 1.326 . S
C79 C83 1.460 . S
C79 H85 0.929 . S
N80 Mn73 2.257 . S
N80 C79 1.326 . S
N80 C84 1.362 . S
C81 C82 1.258 . S
C81 C84 1.431 . S
C81 C101 1.449 . S
C82 C81 1.258 . S
C82 C83 1.477 . S
C82 H102 0.931 . S
C83 C79 1.460 . S
C83 C82 1.477 . S
C83 H103 0.930 . S
C84 N80 1.362 . S
C84 C81 1.431 . S
C84 C94 1.476 . S
H85 C79 0.929 . S
C86 O77 1.250 . S
C86 O78 1.258 . S
O87 Mn72 2.162 . S
O87 C75 1.281 . S
O88 Mn72 2.297 . S
O88 C75 1.236 . S
N89 Mn73 2.282 . S
N89 C90 1.328 . S
N89 C94 1.318 . S
C90 N89 1.328 . S
C90 C91 1.457 . S
C90 H95 0.929 . S
C91 C90 1.457 . S
C91 C92 1.291 . S
C91 H104 0.931 . S
C92 C91 1.291 . S
C92 C93 1.373 . S
C92 H105 0.929 . S
C93 C92 1.373 . S
C93 C94 1.396 . S
C93 C100 1.403 . S
C94 C84 1.476 . S
C94 N89 1.318 . S
C94 C93 1.396 . S
H95 C90 0.929 . S
O96 Mn72 2.385 . S
O96 C74 1.234 . S
O97 Mn72 2.209 . S
O97 Mn73 2.215 . S
O97 C74 1.283 . S
O98 Mn72 2.094 . S
O98 C76 1.240 . S
O99 Mn73 2.117 . S
O99 C76 1.264 . S
C100 C93 1.403 . S
C100 C101 1.399 . S
C100 H106 0.929 . S
C101 C81 1.449 . S
C101 C100 1.399 . S
C101 H107 0.930 . S
H102 C82 0.931 . S
H103 C83 0.930 . S
H104 C91 0.931 . S
H105 C92 0.929 . S
H106 C100 0.929 . S
H107 C101 0.930 . S
Mn108 O113 2.095 . S
Mn108 O123 2.162 . S
Mn108 O124 2.297 . S
Mn108 O132 2.385 . S
Mn108 O133 2.209 . S
Mn108 O134 2.094 . S
Mn109 O114 2.121 . S
Mn109 N116 2.257 . S
Mn109 N125 2.282 . S
Mn109 O133 2.215 . S
Mn109 O135 2.117 . S
C110 O132 1.234 . S
C110 O133 1.283 . S
C111 O123 1.281 . S
C111 O124 1.236 . S
C112 O134 1.240 . S
C112 O135 1.264 . S
O113 Mn108 2.095 . S
O113 C122 1.250 . S
O114 Mn109 2.121 . S
O114 C122 1.258 . S
C115 N116 1.326 . S
C115 C119 1.460 . S
C115 H121 0.929 . S
N116 Mn109 2.257 . S
N116 C115 1.326 . S
N116 C120 1.362 . S
C117 C118 1.258 . S
C117 C120 1.431 . S
C117 C137 1.449 . S
C118 C117 1.258 . S
C118 C119 1.477 . S
C118 H138 0.931 . S
C119 C115 1.460 . S
C119 C118 1.477 . S
C119 H139 0.930 . S
C120 N116 1.362 . S
C120 C117 1.431 . S
C120 C130 1.476 . S
H121 C115 0.929 . S
C122 O113 1.250 . S
C122 O114 1.258 . S
O123 Mn108 2.162 . S
O123 C111 1.281 . S
O124 Mn108 2.297 . S
O124 C111 1.236 . S
N125 Mn109 2.282 . S
N125 C126 1.328 . S
N125 C130 1.318 . S
C126 N125 1.328 . S
C126 C127 1.457 . S
C126 H131 0.929 . S
C127 C126 1.457 . S
C127 C128 1.291 1_556 S
C127 H140 0.931 1_556 S
C128 C127 1.291 1_554 S
C128 C129 1.373 1_554 S
C128 H141 0.929 . S
C129 C128 1.373 1_556 S
C129 C130 1.396 . S
C129 C136 1.403 1_556 S
C130 C120 1.476 . S
C130 N125 1.318 . S
C130 C129 1.396 . S
H131 C126 0.929 . S
O132 Mn108 2.385 . S
O132 C110 1.234 . S
O133 Mn108 2.209 . S
O133 Mn109 2.215 . S
O133 C110 1.283 . S
O134 Mn108 2.094 . S
O134 C112 1.240 . S
O135 Mn109 2.117 . S
O135 C112 1.264 . S
C136 C129 1.403 1_554 S
C136 C137 1.399 1_554 S
C136 H142 0.929 . S
C137 C117 1.449 . S
C137 C136 1.399 1_556 S
C137 H143 0.953 . S
H138 C118 0.931 . S
H139 C119 0.930 . S
H140 C127 0.931 1_554 S
H141 C128 0.929 . S
H142 C136 0.929 . S
H143 C137 0.953 . S
Mn144 O149 2.095 . S
Mn144 O159 2.162 . S
Mn144 O160 2.297 . S
Mn144 O168 2.385 . S
Mn144 O169 2.209 . S
Mn144 O170 2.094 . S
Mn145 O150 2.121 . S
Mn145 N152 2.257 . S
Mn145 N161 2.282 . S
Mn145 O169 2.215 . S
Mn145 O171 2.117 . S
C146 O168 1.234 . S
C146 O169 1.283 . S
C147 O159 1.281 . S
C147 O160 1.236 . S
C148 O170 1.240 . S
C148 O171 1.264 . S
O149 Mn144 2.095 . S
O149 C158 1.250 . S
O150 Mn145 2.121 . S
O150 C158 1.258 . S
C151 N152 1.326 . S
C151 C155 1.460 . S
C151 H157 0.929 . S
N152 Mn145 2.257 . S
N152 C151 1.326 . S
N152 C156 1.362 . S
C153 C154 1.258 . S
C153 C156 1.431 . S
C153 C173 1.449 . S
C154 C153 1.258 . S
C154 C155 1.477 . S
C154 H174 0.931 . S
C155 C151 1.460 . S
C155 C154 1.477 . S
C155 H175 0.930 . S
C156 N152 1.362 . S
C156 C153 1.431 . S
C156 C166 1.476 . S
H157 C151 0.929 . S
C158 O149 1.250 . S
C158 O150 1.258 . S
O159 Mn144 2.162 . S
O159 C147 1.281 . S
O160 Mn144 2.297 . S
O160 C147 1.236 . S
N161 Mn145 2.282 . S
N161 C162 1.328 . S
N161 C166 1.318 . S
C162 N161 1.328 . S
C162 C163 1.457 . S
C162 H167 0.929 . S
C163 C162 1.457 . S
C163 C164 1.291 1_554 S
C163 H176 0.931 1_554 S
C164 C163 1.291 1_556 S
C164 C165 1.373 1_556 S
C164 H177 0.929 . S
C165 C164 1.373 1_554 S
C165 C166 1.396 . S
C165 C172 1.403 1_554 S
C166 C156 1.476 . S
C166 N161 1.318 . S
C166 C165 1.396 . S
H167 C162 0.929 . S
O168 Mn144 2.385 . S
O168 C146 1.234 . S
O169 Mn144 2.209 . S
O169 Mn145 2.215 . S
O169 C146 1.283 . S
O170 Mn144 2.094 . S
O170 C148 1.240 . S
O171 Mn145 2.117 . S
O171 C148 1.264 . S
C172 C165 1.403 1_556 S
C172 C173 1.399 1_556 S
C172 H178 0.929 . S
C173 C153 1.449 . S
C173 C172 1.399 1_554 S
C173 H179 0.953 . S
H174 C154 0.931 . S
H175 C155 0.930 . S
H176 C163 0.931 1_556 S
H177 C164 0.929 . S
H178 C172 0.929 . S
H179 C173 0.953 . S
Mn180 O185 2.095 . S
Mn180 O195 2.162 . S
Mn180 O196 2.297 . S
Mn180 O204 2.385 . S
Mn180 O205 2.209 . S
Mn180 O206 2.094 . S
Mn181 O186 2.121 . S
Mn181 N188 2.257 . S
Mn181 N197 2.282 . S
Mn181 O205 2.215 . S
Mn181 O207 2.117 . S
C182 O204 1.234 . S
C182 O205 1.283 . S
C183 O195 1.281 . S
C183 O196 1.236 . S
C184 O206 1.240 . S
C184 O207 1.264 . S
O185 Mn180 2.095 . S
O185 C194 1.250 . S
O186 Mn181 2.121 . S
O186 C194 1.258 . S
C187 N188 1.326 . S
C187 C191 1.460 . S
C187 H193 0.929 . S
N188 Mn181 2.257 . S
N188 C187 1.326 . S
N188 C192 1.362 . S
C189 C190 1.258 . S
C189 C192 1.431 . S
C189 C209 1.449 . S
C190 C189 1.258 . S
C190 C191 1.477 . S
C190 H210 0.931 . S
C191 C187 1.460 . S
C191 C190 1.477 . S
C191 H211 0.930 . S
C192 N188 1.362 . S
C192 C189 1.431 . S
C192 C202 1.476 . S
H193 C187 0.929 . S
C194 O185 1.250 . S
C194 O186 1.258 . S
O195 Mn180 2.162 . S
O195 C183 1.281 . S
O196 Mn180 2.297 . S
O196 C183 1.236 . S
N197 Mn181 2.282 . S
N197 C198 1.328 . S
N197 C202 1.318 . S
C198 N197 1.328 . S
C198 C199 1.457 . S
C198 H203 0.929 . S
C199 C198 1.457 . S
C199 C200 1.291 . S
C199 H212 0.931 . S
C200 C199 1.291 . S
C200 C201 1.373 . S
C200 H213 0.929 . S
C201 C200 1.373 . S
C201 C202 1.396 . S
C201 C208 1.403 . S
C202 C192 1.476 . S
C202 N197 1.318 . S
C202 C201 1.396 . S
H203 C198 0.929 . S
O204 Mn180 2.385 . S
O204 C182 1.234 . S
O205 Mn180 2.209 . S
O205 Mn181 2.215 . S
O205 C182 1.283 . S
O206 Mn180 2.094 . S
O206 C184 1.240 . S
O207 Mn181 2.117 . S
O207 C184 1.264 . S
C208 C201 1.403 . S
C208 C209 1.399 . S
C208 H214 0.929 . S
C209 C189 1.449 . S
C209 C208 1.399 . S
C209 H215 0.930 . S
H210 C190 0.931 . S
H211 C191 0.930 . S
H212 C199 0.931 . S
H213 C200 0.929 . S
H214 C208 0.929 . S
H215 C209 0.930 . S
Mn216 O221 2.095 . S
Mn216 O231 2.162 . S
Mn216 O232 2.297 . S
Mn216 O240 2.385 . S
Mn216 O241 2.209 . S
Mn216 O242 2.094 . S
Mn217 O222 2.121 . S
Mn217 N224 2.257 . S
Mn217 N233 2.282 . S
Mn217 O241 2.215 . S
Mn217 O243 2.117 . S
C218 O240 1.234 . S
C218 O241 1.283 . S
C219 O231 1.281 . S
C219 O232 1.236 . S
C220 O242 1.240 . S
C220 O243 1.264 . S
O221 Mn216 2.095 . S
O221 C230 1.250 . S
O222 Mn217 2.121 . S
O222 C230 1.258 . S
C223 N224 1.326 . S
C223 C227 1.460 . S
C223 H229 0.929 . S
N224 Mn217 2.257 . S
N224 C223 1.326 . S
N224 C228 1.362 . S
C225 C226 1.258 . S
C225 C228 1.431 . S
C225 C245 1.449 . S
C226 C225 1.258 . S
C226 C227 1.477 . S
C226 H246 0.931 . S
C227 C223 1.460 . S
C227 C226 1.477 . S
C227 H247 0.930 . S
C228 N224 1.362 . S
C228 C225 1.431 . S
C228 C238 1.476 . S
H229 C223 0.929 . S
C230 O221 1.250 . S
C230 O222 1.258 . S
O231 Mn216 2.162 . S
O231 C219 1.281 . S
O232 Mn216 2.297 . S
O232 C219 1.236 . S
N233 Mn217 2.282 . S
N233 C234 1.328 . S
N233 C238 1.318 . S
C234 N233 1.328 . S
C234 C235 1.457 . S
C234 H239 0.929 . S
C235 C234 1.457 . S
C235 C236 1.291 . S
C235 H248 0.931 . S
C236 C235 1.291 . S
C236 C237 1.373 . S
C236 H249 0.929 . S
C237 C236 1.373 . S
C237 C238 1.396 . S
C237 C244 1.403 . S
C238 C228 1.476 . S
C238 N233 1.318 . S
C238 C237 1.396 . S
H239 C234 0.929 . S
O240 Mn216 2.385 . S
O240 C218 1.234 . S
O241 Mn216 2.209 . S
O241 Mn217 2.215 . S
O241 C218 1.283 . S
O242 Mn216 2.094 . S
O242 C220 1.240 . S
O243 Mn217 2.117 . S
O243 C220 1.264 . S
C244 C237 1.403 . S
C244 C245 1.399 . S
C244 H250 0.929 . S
C245 C225 1.449 . S
C245 C244 1.399 . S
C245 H251 0.930 . S
H246 C226 0.931 . S
H247 C227 0.930 . S
H248 C235 0.931 . S
H249 C236 0.929 . S
H250 C244 0.929 . S
H251 C245 0.930 . S
Mn252 O257 2.095 . S
Mn252 O267 2.162 . S
Mn252 O268 2.297 . S
Mn252 O276 2.385 . S
Mn252 O277 2.209 . S
Mn252 O278 2.094 . S
Mn253 O258 2.121 . S
Mn253 N260 2.257 . S
Mn253 N269 2.282 . S
Mn253 O277 2.215 . S
Mn253 O279 2.117 . S
C254 O276 1.234 . S
C254 O277 1.283 . S
C255 O267 1.281 . S
C255 O268 1.236 . S
C256 O278 1.240 . S
C256 O279 1.264 . S
O257 Mn252 2.095 . S
O257 C266 1.250 . S
O258 Mn253 2.121 . S
O258 C266 1.258 . S
C259 N260 1.326 . S
C259 C263 1.460 . S
C259 H265 0.929 . S
N260 Mn253 2.257 . S
N260 C259 1.326 . S
N260 C264 1.362 . S
C261 C262 1.258 . S
C261 C264 1.431 . S
C261 C281 1.449 . S
C262 C261 1.258 . S
C262 C263 1.477 . S
C262 H282 0.931 . S
C263 C259 1.460 . S
C263 C262 1.477 . S
C263 H283 0.930 . S
C264 N260 1.362 . S
C264 C261 1.431 . S
C264 C274 1.476 . S
H265 C259 0.929 . S
C266 O257 1.250 . S
C266 O258 1.258 . S
O267 Mn252 2.162 . S
O267 C255 1.281 . S
O268 Mn252 2.297 . S
O268 C255 1.236 . S
N269 Mn253 2.282 . S
N269 C270 1.328 . S
N269 C274 1.318 . S
C270 N269 1.328 . S
C270 C271 1.457 . S
C270 H275 0.929 . S
C271 C270 1.457 . S
C271 C272 1.291 . S
C271 H284 0.931 . S
C272 C271 1.291 . S
C272 C273 1.373 . S
C272 H285 0.929 . S
C273 C272 1.373 . S
C273 C274 1.396 . S
C273 C280 1.403 . S
C274 C264 1.476 . S
C274 N269 1.318 . S
C274 C273 1.396 . S
H275 C270 0.929 . S
O276 Mn252 2.385 . S
O276 C254 1.234 . S
O277 Mn252 2.209 . S
O277 Mn253 2.215 . S
O277 C254 1.283 . S
O278 Mn252 2.094 . S
O278 C256 1.240 . S
O279 Mn253 2.117 . S
O279 C256 1.264 . S
C280 C273 1.403 . S
C280 C281 1.399 . S
C280 H286 0.929 . S
C281 C261 1.449 . S
C281 C280 1.399 . S
C281 H287 0.930 . S
H282 C262 0.931 . S
H283 C263 0.930 . S
H284 C271 0.931 . S
H285 C272 0.929 . S
H286 C280 0.929 . S
H287 C281 0.930 . S
Mn288 O293 2.095 . S
Mn288 O303 2.162 . S
Mn288 O304 2.297 . S
Mn288 O312 2.385 . S
Mn288 O313 2.209 . S
Mn288 O314 2.094 . S
Mn289 O294 2.121 . S
Mn289 N296 2.257 . S
Mn289 N305 2.282 . S
Mn289 O313 2.215 . S
Mn289 O315 2.117 . S
C290 O312 1.234 . S
C290 O313 1.283 . S
C291 O303 1.281 . S
C291 O304 1.236 . S
C292 O314 1.240 . S
C292 O315 1.264 . S
O293 Mn288 2.095 . S
O293 C302 1.250 . S
O294 Mn289 2.121 . S
O294 C302 1.258 . S
C295 N296 1.326 . S
C295 C299 1.460 . S
C295 H301 0.929 . S
N296 Mn289 2.257 . S
N296 C295 1.326 . S
N296 C300 1.362 . S
C297 C298 1.258 . S
C297 C300 1.431 . S
C297 C317 1.449 . S
C298 C297 1.258 . S
C298 C299 1.477 . S
C298 H318 0.931 . S
C299 C295 1.460 . S
C299 C298 1.477 . S
C299 H319 0.930 . S
C300 N296 1.362 . S
C300 C297 1.431 . S
C300 C310 1.476 . S
H301 C295 0.929 . S
C302 O293 1.250 . S
C302 O294 1.258 . S
O303 Mn288 2.162 . S
O303 C291 1.281 . S
O304 Mn288 2.297 . S
O304 C291 1.236 . S
N305 Mn289 2.282 . S
N305 C306 1.328 . S
N305 C310 1.318 . S
C306 N305 1.328 . S
C306 C307 1.457 . S
C306 H311 0.929 . S
C307 C306 1.457 . S
C307 C308 1.291 . S
C307 H320 0.931 . S
C308 C307 1.291 . S
C308 C309 1.373 . S
C308 H321 0.929 . S
C309 C308 1.373 . S
C309 C310 1.396 . S
C309 C316 1.403 . S
C310 C300 1.476 . S
C310 N305 1.318 . S
C310 C309 1.396 . S
H311 C306 0.929 . S
O312 Mn288 2.385 . S
O312 C290 1.234 . S
O313 Mn288 2.209 . S
O313 Mn289 2.215 . S
O313 C290 1.283 . S
O314 Mn288 2.094 . S
O314 C292 1.240 . S
O315 Mn289 2.117 . S
O315 C292 1.264 . S
C316 C309 1.403 . S
C316 C317 1.399 . S
C316 H322 0.929 . S
C317 C297 1.449 . S
C317 C316 1.399 . S
C317 H323 0.930 . S
H318 C298 0.931 . S
H319 C299 0.930 . S
H320 C307 0.931 . S
H321 C308 0.929 . S
H322 C316 0.929 . S
H323 C317 0.930 . S
Mn324 O329 2.095 . S
Mn324 O339 2.162 . S
Mn324 O340 2.297 . S
Mn324 O348 2.385 . S
Mn324 O349 2.209 . S
Mn324 O350 2.094 . S
Mn325 O330 2.121 . S
Mn325 N332 2.257 . S
Mn325 N341 2.282 . S
Mn325 O349 2.215 . S
Mn325 O351 2.117 . S
C326 O348 1.234 . S
C326 O349 1.283 . S
C327 O339 1.281 . S
C327 O340 1.236 . S
C328 O350 1.240 . S
C328 O351 1.264 . S
O329 Mn324 2.095 . S
O329 C338 1.250 . S
O330 Mn325 2.121 . S
O330 C338 1.258 . S
C331 N332 1.326 . S
C331 C335 1.460 . S
C331 H337 0.929 . S
N332 Mn325 2.257 . S
N332 C331 1.326 . S
N332 C336 1.362 . S
C333 C334 1.258 . S
C333 C336 1.431 . S
C333 C353 1.449 . S
C334 C333 1.258 . S
C334 C335 1.477 . S
C334 H354 0.931 . S
C335 C331 1.460 . S
C335 C334 1.477 . S
C335 H355 0.930 . S
C336 N332 1.362 . S
C336 C333 1.431 . S
C336 C346 1.476 . S
H337 C331 0.929 . S
C338 O329 1.250 . S
C338 O330 1.258 . S
O339 Mn324 2.162 . S
O339 C327 1.281 . S
O340 Mn324 2.297 . S
O340 C327 1.236 . S
N341 Mn325 2.282 . S
N341 C342 1.328 . S
N341 C346 1.318 . S
C342 N341 1.328 . S
C342 C343 1.457 . S
C342 H347 0.929 . S
C343 C342 1.457 . S
C343 C344 1.291 1_556 S
C343 H356 0.931 1_556 S
C344 C343 1.291 1_554 S
C344 C345 1.373 1_554 S
C344 H357 0.929 . S
C345 C344 1.373 1_556 S
C345 C346 1.396 . S
C345 C352 1.403 1_556 S
C346 C336 1.476 . S
C346 N341 1.318 . S
C346 C345 1.396 . S
H347 C342 0.929 . S
O348 Mn324 2.385 . S
O348 C326 1.234 . S
O349 Mn324 2.209 . S
O349 Mn325 2.215 . S
O349 C326 1.283 . S
O350 Mn324 2.094 . S
O350 C328 1.240 . S
O351 Mn325 2.117 . S
O351 C328 1.264 . S
C352 C345 1.403 1_554 S
C352 C353 1.399 1_554 S
C352 H358 0.929 . S
C353 C333 1.449 . S
C353 C352 1.399 1_556 S
C353 H359 0.953 . S
H354 C334 0.931 . S
H355 C335 0.930 . S
H356 C343 0.931 1_554 S
H357 C344 0.929 . S
H358 C352 0.929 . S
H359 C353 0.953 . S
Mn360 O365 2.095 . S
Mn360 O375 2.162 . S
Mn360 O376 2.297 . S
Mn360 O384 2.385 . S
Mn360 O385 2.209 . S
Mn360 O386 2.094 . S
Mn361 O366 2.121 . S
Mn361 N368 2.257 . S
Mn361 N377 2.282 . S
Mn361 O385 2.215 . S
Mn361 O387 2.117 . S
C362 O384 1.234 . S
C362 O385 1.283 . S
C363 O375 1.281 . S
C363 O376 1.236 . S
C364 O386 1.240 . S
C364 O387 1.264 . S
O365 Mn360 2.095 . S
O365 C374 1.250 . S
O366 Mn361 2.121 . S
O366 C374 1.258 . S
C367 N368 1.326 . S
C367 C371 1.460 . S
C367 H373 0.929 . S
N368 Mn361 2.257 . S
N368 C367 1.326 . S
N368 C372 1.362 . S
C369 C370 1.258 . S
C369 C372 1.431 . S
C369 C389 1.449 . S
C370 C369 1.258 . S
C370 C371 1.477 . S
C370 H390 0.931 . S
C371 C367 1.460 . S
C371 C370 1.477 . S
C371 H391 0.930 . S
C372 N368 1.362 . S
C372 C369 1.431 . S
C372 C382 1.476 . S
H373 C367 0.929 . S
C374 O365 1.250 . S
C374 O366 1.258 . S
O375 Mn360 2.162 . S
O375 C363 1.281 . S
O376 Mn360 2.297 . S
O376 C363 1.236 . S
N377 Mn361 2.282 . S
N377 C378 1.328 . S
N377 C382 1.318 . S
C378 N377 1.328 . S
C378 C379 1.457 . S
C378 H383 0.929 . S
C379 C378 1.457 . S
C379 C380 1.291 . S
C379 H392 0.931 . S
C380 C379 1.291 . S
C380 C381 1.373 . S
C380 H393 0.929 . S
C381 C380 1.373 . S
C381 C382 1.396 . S
C381 C388 1.403 . S
C382 C372 1.476 . S
C382 N377 1.318 . S
C382 C381 1.396 . S
H383 C378 0.929 . S
O384 Mn360 2.385 . S
O384 C362 1.234 . S
O385 Mn360 2.209 . S
O385 Mn361 2.215 . S
O385 C362 1.283 . S
O386 Mn360 2.094 . S
O386 C364 1.240 . S
O387 Mn361 2.117 . S
O387 C364 1.264 . S
C388 C381 1.403 . S
C388 C389 1.399 . S
C388 H394 0.929 . S
C389 C369 1.449 . S
C389 C388 1.399 . S
C389 H395 0.930 . S
H390 C370 0.931 . S
H391 C371 0.930 . S
H392 C379 0.931 . S
H393 C380 0.929 . S
H394 C388 0.929 . S
H395 C389 0.930 . S
Mn396 O401 2.095 . S
Mn396 O411 2.162 . S
Mn396 O412 2.297 . S
Mn396 O420 2.385 . S
Mn396 O421 2.209 . S
Mn396 O422 2.094 . S
Mn397 O402 2.121 . S
Mn397 N404 2.257 . S
Mn397 N413 2.282 . S
Mn397 O421 2.215 . S
Mn397 O423 2.117 . S
C398 O420 1.234 . S
C398 O421 1.283 . S
C399 O411 1.281 . S
C399 O412 1.236 . S
C400 O422 1.240 . S
C400 O423 1.264 . S
O401 Mn396 2.095 . S
O401 C410 1.250 . S
O402 Mn397 2.121 . S
O402 C410 1.258 . S
C403 N404 1.326 . S
C403 C407 1.460 . S
C403 H409 0.929 . S
N404 Mn397 2.257 . S
N404 C403 1.326 . S
N404 C408 1.362 . S
C405 C406 1.258 . S
C405 C408 1.431 . S
C405 C425 1.449 . S
C406 C405 1.258 . S
C406 C407 1.477 . S
C406 H426 0.931 . S
C407 C403 1.460 . S
C407 C406 1.477 . S
C407 H427 0.930 . S
C408 N404 1.362 . S
C408 C405 1.431 . S
C408 C418 1.476 . S
H409 C403 0.929 . S
C410 O401 1.250 . S
C410 O402 1.258 . S
O411 Mn396 2.162 . S
O411 C399 1.281 . S
O412 Mn396 2.297 . S
O412 C399 1.236 . S
N413 Mn397 2.282 . S
N413 C414 1.328 . S
N413 C418 1.318 . S
C414 N413 1.328 . S
C414 C415 1.457 . S
C414 H419 0.929 . S
C415 C414 1.457 . S
C415 C416 1.291 . S
C415 H428 0.931 . S
C416 C415 1.291 . S
C416 C417 1.373 . S
C416 H429 0.929 . S
C417 C416 1.373 . S
C417 C418 1.396 . S
C417 C424 1.403 . S
C418 C408 1.476 . S
C418 N413 1.318 . S
C418 C417 1.396 . S
H419 C414 0.929 . S
O420 Mn396 2.385 . S
O420 C398 1.234 . S
O421 Mn396 2.209 . S
O421 Mn397 2.215 . S
O421 C398 1.283 . S
O422 Mn396 2.094 . S
O422 C400 1.240 . S
O423 Mn397 2.117 . S
O423 C400 1.264 . S
C424 C417 1.403 . S
C424 C425 1.399 . S
C424 H430 0.929 . S
C425 C405 1.449 . S
C425 C424 1.399 . S
C425 H431 0.930 . S
H426 C406 0.931 . S
H427 C407 0.930 . S
H428 C415 0.931 . S
H429 C416 0.929 . S
H430 C424 0.929 . S
H431 C425 0.930 . S
Mn432 O437 2.095 . S
Mn432 O447 2.162 . S
Mn432 O448 2.297 . S
Mn432 O456 2.385 . S
Mn432 O457 2.209 . S
Mn432 O458 2.094 . S
Mn433 O438 2.121 . S
Mn433 N440 2.257 . S
Mn433 N449 2.282 . S
Mn433 O457 2.215 . S
Mn433 O459 2.117 . S
C434 O456 1.234 . S
C434 O457 1.283 . S
C435 O447 1.281 . S
C435 O448 1.236 . S
C436 O458 1.240 . S
C436 O459 1.264 . S
O437 Mn432 2.095 . S
O437 C446 1.250 . S
O438 Mn433 2.121 . S
O438 C446 1.258 . S
C439 N440 1.326 . S
C439 C443 1.460 . S
C439 H445 0.929 . S
N440 Mn433 2.257 . S
N440 C439 1.326 . S
N440 C444 1.362 . S
C441 C442 1.258 . S
C441 C444 1.431 . S
C441 C461 1.449 . S
C442 C441 1.258 . S
C442 C443 1.477 . S
C442 H462 0.931 . S
C443 C439 1.460 . S
C443 C442 1.477 . S
C443 H463 0.930 . S
C444 N440 1.362 . S
C444 C441 1.431 . S
C444 C454 1.476 . S
H445 C439 0.929 . S
C446 O437 1.250 . S
C446 O438 1.258 . S
O447 Mn432 2.162 . S
O447 C435 1.281 . S
O448 Mn432 2.297 . S
O448 C435 1.236 . S
N449 Mn433 2.282 . S
N449 C450 1.328 . S
N449 C454 1.318 . S
C450 N449 1.328 . S
C450 C451 1.457 . S
C450 H455 0.929 . S
C451 C450 1.457 . S
C451 C452 1.291 . S
C451 H464 0.931 . S
C452 C451 1.291 . S
C452 C453 1.373 . S
C452 H465 0.929 . S
C453 C452 1.373 . S
C453 C454 1.396 . S
C453 C460 1.403 . S
C454 C444 1.476 . S
C454 N449 1.318 . S
C454 C453 1.396 . S
H455 C450 0.929 . S
O456 Mn432 2.385 . S
O456 C434 1.234 . S
O457 Mn432 2.209 . S
O457 Mn433 2.215 . S
O457 C434 1.283 . S
O458 Mn432 2.094 . S
O458 C436 1.240 . S
O459 Mn433 2.117 . S
O459 C436 1.264 . S
C460 C453 1.403 . S
C460 C461 1.399 . S
C460 H466 0.929 . S
C461 C441 1.449 . S
C461 C460 1.399 . S
C461 H467 0.930 . S
H462 C442 0.931 . S
H463 C443 0.930 . S
H464 C451 0.931 . S
H465 C452 0.929 . S
H466 C460 0.929 . S
H467 C461 0.930 . S
Mn468 O473 2.095 . S
Mn468 O483 2.162 . S
Mn468 O484 2.297 . S
Mn468 O492 2.385 . S
Mn468 O493 2.209 . S
Mn468 O494 2.094 . S
Mn469 O474 2.121 . S
Mn469 N476 2.257 . S
Mn469 N485 2.282 . S
Mn469 O493 2.215 . S
Mn469 O495 2.117 . S
C470 O492 1.234 . S
C470 O493 1.283 . S
C471 O483 1.281 . S
C471 O484 1.236 . S
C472 O494 1.240 . S
C472 O495 1.264 . S
O473 Mn468 2.095 . S
O473 C482 1.250 . S
O474 Mn469 2.121 . S
O474 C482 1.258 . S
C475 N476 1.326 . S
C475 C479 1.460 . S
C475 H481 0.929 . S
N476 Mn469 2.257 . S
N476 C475 1.326 . S
N476 C480 1.362 . S
C477 C478 1.258 . S
C477 C480 1.431 . S
C477 C497 1.449 . S
C478 C477 1.258 . S
C478 C479 1.477 . S
C478 H498 0.931 . S
C479 C475 1.460 . S
C479 C478 1.477 . S
C479 H499 0.930 . S
C480 N476 1.362 . S
C480 C477 1.431 . S
C480 C490 1.476 . S
H481 C475 0.929 . S
C482 O473 1.250 . S
C482 O474 1.258 . S
O483 Mn468 2.162 . S
O483 C471 1.281 . S
O484 Mn468 2.297 . S
O484 C471 1.236 . S
N485 Mn469 2.282 . S
N485 C486 1.328 . S
N485 C490 1.318 . S
C486 N485 1.328 . S
C486 C487 1.457 . S
C486 H491 0.929 . S
C487 C486 1.457 . S
C487 C488 1.291 . S
C487 H500 0.931 . S
C488 C487 1.291 . S
C488 C489 1.373 . S
C488 H501 0.929 . S
C489 C488 1.373 . S
C489 C490 1.396 . S
C489 C496 1.403 . S
C490 C480 1.476 . S
C490 N485 1.318 . S
C490 C489 1.396 . S
H491 C486 0.929 . S
O492 Mn468 2.385 . S
O492 C470 1.234 . S
O493 Mn468 2.209 . S
O493 Mn469 2.215 . S
O493 C470 1.283 . S
O494 Mn468 2.094 . S
O494 C472 1.240 . S
O495 Mn469 2.117 . S
O495 C472 1.264 . S
C496 C489 1.403 . S
C496 C497 1.399 . S
C496 H502 0.929 . S
C497 C477 1.449 . S
C497 C496 1.399 . S
C497 H503 0.930 . S
H498 C478 0.931 . S
H499 C479 0.930 . S
H500 C487 0.931 . S
H501 C488 0.929 . S
H502 C496 0.929 . S
H503 C497 0.930 . S
Mn504 O509 2.095 . S
Mn504 O519 2.162 . S
Mn504 O520 2.297 . S
Mn504 O528 2.385 . S
Mn504 O529 2.209 . S
Mn504 O530 2.094 . S
Mn505 O510 2.121 . S
Mn505 N512 2.257 . S
Mn505 N521 2.282 . S
Mn505 O529 2.215 . S
Mn505 O531 2.117 . S
C506 O528 1.234 . S
C506 O529 1.283 . S
C507 O519 1.281 . S
C507 O520 1.236 . S
C508 O530 1.240 . S
C508 O531 1.264 . S
O509 Mn504 2.095 . S
O509 C518 1.250 . S
O510 Mn505 2.121 . S
O510 C518 1.258 . S
C511 N512 1.326 . S
C511 C515 1.460 . S
C511 H517 0.929 . S
N512 Mn505 2.257 . S
N512 C511 1.326 . S
N512 C516 1.362 . S
C513 C514 1.258 . S
C513 C516 1.431 . S
C513 C533 1.449 . S
C514 C513 1.258 . S
C514 C515 1.477 . S
C514 H534 0.931 . S
C515 C511 1.460 . S
C515 C514 1.477 . S
C515 H535 0.930 . S
C516 N512 1.362 . S
C516 C513 1.431 . S
C516 C526 1.476 . S
H517 C511 0.929 . S
C518 O509 1.250 . S
C518 O510 1.258 . S
O519 Mn504 2.162 . S
O519 C507 1.281 . S
O520 Mn504 2.297 . S
O520 C507 1.236 . S
N521 Mn505 2.282 . S
N521 C522 1.328 . S
N521 C526 1.318 . S
C522 N521 1.328 . S
C522 C523 1.457 . S
C522 H527 0.929 . S
C523 C522 1.457 . S
C523 C524 1.291 1_554 S
C523 H536 0.931 1_554 S
C524 C523 1.291 1_556 S
C524 C525 1.373 1_556 S
C524 H537 0.929 . S
C525 C524 1.373 1_554 S
C525 C526 1.396 . S
C525 C532 1.403 1_554 S
C526 C516 1.476 . S
C526 N521 1.318 . S
C526 C525 1.396 . S
H527 C522 0.929 . S
O528 Mn504 2.385 . S
O528 C506 1.234 . S
O529 Mn504 2.209 . S
O529 Mn505 2.215 . S
O529 C506 1.283 . S
O530 Mn504 2.094 . S
O530 C508 1.240 . S
O531 Mn505 2.117 . S
O531 C508 1.264 . S
C532 C525 1.403 1_556 S
C532 C533 1.399 1_556 S
C532 H538 0.929 . S
C533 C513 1.449 . S
C533 C532 1.399 1_554 S
C533 H539 0.953 . S
H534 C514 0.931 . S
H535 C515 0.930 . S
H536 C523 0.931 1_556 S
H537 C524 0.929 . S
H538 C532 0.929 . S
H539 C533 0.953 . S
Mn540 O545 2.095 . S
Mn540 O555 2.162 . S
Mn540 O556 2.297 . S
Mn540 O564 2.385 . S
Mn540 O565 2.209 . S
Mn540 O566 2.094 . S
Mn541 O546 2.121 . S
Mn541 N548 2.257 . S
Mn541 N557 2.282 . S
Mn541 O565 2.215 . S
Mn541 O567 2.117 . S
C542 O564 1.234 . S
C542 O565 1.283 . S
C543 O555 1.281 . S
C543 O556 1.236 . S
C544 O566 1.240 . S
C544 O567 1.264 . S
O545 Mn540 2.095 . S
O545 C554 1.250 . S
O546 Mn541 2.121 . S
O546 C554 1.258 . S
C547 N548 1.326 . S
C547 C551 1.460 . S
C547 H553 0.929 . S
N548 Mn541 2.257 . S
N548 C547 1.326 . S
N548 C552 1.362 . S
C549 C550 1.258 . S
C549 C552 1.431 . S
C549 C569 1.449 . S
C550 C549 1.258 . S
C550 C551 1.477 . S
C550 H570 0.931 . S
C551 C547 1.460 . S
C551 C550 1.477 . S
C551 H571 0.930 . S
C552 N548 1.362 . S
C552 C549 1.431 . S
C552 C562 1.476 . S
H553 C547 0.929 . S
C554 O545 1.250 . S
C554 O546 1.258 . S
O555 Mn540 2.162 . S
O555 C543 1.281 . S
O556 Mn540 2.297 . S
O556 C543 1.236 . S
N557 Mn541 2.282 . S
N557 C558 1.328 . S
N557 C562 1.318 . S
C558 N557 1.328 . S
C558 C559 1.457 . S
C558 H563 0.929 . S
C559 C558 1.457 . S
C559 C560 1.291 . S
C559 H572 0.931 . S
C560 C559 1.291 . S
C560 C561 1.373 . S
C560 H573 0.929 . S
C561 C560 1.373 . S
C561 C562 1.396 . S
C561 C568 1.403 . S
C562 C552 1.476 . S
C562 N557 1.318 . S
C562 C561 1.396 . S
H563 C558 0.929 . S
O564 Mn540 2.385 . S
O564 C542 1.234 . S
O565 Mn540 2.209 . S
O565 Mn541 2.215 . S
O565 C542 1.283 . S
O566 Mn540 2.094 . S
O566 C544 1.240 . S
O567 Mn541 2.117 . S
O567 C544 1.264 . S
C568 C561 1.403 . S
C568 C569 1.399 . S
C568 H574 0.929 . S
C569 C549 1.449 . S
C569 C568 1.399 . S
C569 H575 0.930 . S
H570 C550 0.931 . S
H571 C551 0.930 . S
H572 C559 0.931 . S
H573 C560 0.929 . S
H574 C568 0.929 . S
H575 C569 0.930 . S
C576 C577 1.387 . S
C576 H580 0.950 . S
C576 C585 1.390 . S
C577 C576 1.387 . S
C577 C579 1.387 . S
H578 C585 0.950 . S
C579 C577 1.387 . S
C579 C581 1.390 . S
C579 H583 0.950 . S
H580 C576 0.950 . S
C581 C579 1.390 . S
C581 C582 1.387 . S
C581 H584 0.950 . S
C582 C581 1.387 . S
C582 C585 1.387 . S
H583 C579 0.950 . S
H584 C581 0.950 . S
C585 C576 1.390 . S
C585 H578 0.950 . S
C585 C582 1.387 . S
C586 C587 1.387 . S
C586 H590 0.950 . S
C586 C595 1.390 . S
C587 C586 1.387 . S
C587 C589 1.387 . S
H588 C595 0.950 . S
C589 C587 1.387 . S
C589 C591 1.390 . S
C589 H593 0.950 . S
H590 C586 0.950 . S
C591 C589 1.390 . S
C591 C592 1.387 . S
C591 H594 0.950 . S
C592 C591 1.387 . S
C592 C595 1.387 . S
H593 C589 0.950 . S
H594 C591 0.950 . S
C595 C586 1.390 . S
C595 H588 0.950 . S
C595 C592 1.387 . S
C596 C597 1.387 . S
C596 H600 0.950 . S
C596 C605 1.390 . S
C597 C596 1.387 . S
C597 C599 1.387 . S
H598 C605 0.950 . S
C599 C597 1.387 . S
C599 C601 1.390 . S
C599 H603 0.950 . S
H600 C596 0.950 . S
C601 C599 1.390 . S
C601 C602 1.387 . S
C601 H604 0.950 . S
C602 C601 1.387 . S
C602 C605 1.387 . S
H603 C599 0.950 . S
H604 C601 0.950 . S
C605 C596 1.390 . S
C605 H598 0.950 . S
C605 C602 1.387 . S
C606 C607 1.387 . S
C606 H610 0.950 . S
C606 C615 1.390 . S
C607 C606 1.387 . S
C607 C609 1.387 . S
H608 C615 0.950 . S
C609 C607 1.387 . S
C609 C611 1.390 . S
C609 H613 0.950 . S
H610 C606 0.950 . S
C611 C609 1.390 . S
C611 C612 1.387 . S
C611 H614 0.950 . S
C612 C611 1.387 . S
C612 C615 1.387 . S
H613 C609 0.950 . S
H614 C611 0.950 . S
C615 C606 1.390 . S
C615 H608 0.950 . S
C615 C612 1.387 . S
C616 C617 1.387 . S
C616 H620 0.950 . S
C616 C625 1.390 . S
C617 C616 1.387 . S
C617 C619 1.387 . S
H618 C625 0.950 . S
C619 C617 1.387 . S
C619 C621 1.390 . S
C619 H623 0.950 . S
H620 C616 0.950 . S
C621 C619 1.390 . S
C621 C622 1.387 . S
C621 H624 0.950 . S
C622 C621 1.387 . S
C622 C625 1.387 . S
H623 C619 0.950 . S
H624 C621 0.950 . S
C625 C616 1.390 . S
C625 H618 0.950 . S
C625 C622 1.387 . S
C626 C627 1.387 . S
C626 H630 0.950 . S
C626 C635 1.390 . S
C627 C626 1.387 . S
C627 C629 1.387 . S
H628 C635 0.950 . S
C629 C627 1.387 . S
C629 C631 1.390 . S
C629 H633 0.950 . S
H630 C626 0.950 . S
C631 C629 1.390 . S
C631 C632 1.387 . S
C631 H634 0.950 . S
C632 C631 1.387 . S
C632 C635 1.387 . S
H633 C629 0.950 . S
H634 C631 0.950 . S
C635 C626 1.390 . S
C635 H628 0.950 . S
C635 C632 1.387 . S
C636 C637 1.387 . S
C636 H640 0.950 . S
C636 C645 1.390 . S
C637 C636 1.387 . S
C637 C639 1.387 . S
H638 C645 0.950 . S
C639 C637 1.387 . S
C639 C641 1.390 . S
C639 H643 0.950 . S
H640 C636 0.950 . S
C641 C639 1.390 . S
C641 C642 1.387 . S
C641 H644 0.950 . S
C642 C641 1.387 . S
C642 C645 1.387 . S
H643 C639 0.950 . S
H644 C641 0.950 . S
C645 C636 1.390 . S
C645 H638 0.950 . S
C645 C642 1.387 . S
C646 C647 1.387 . S
C646 H650 0.950 . S
C646 C655 1.390 . S
C647 C646 1.387 . S
C647 C649 1.387 . S
H648 C655 0.950 . S
C649 C647 1.387 . S
C649 C651 1.390 . S
C649 H653 0.950 . S
H650 C646 0.950 . S
C651 C649 1.390 . S
C651 C652 1.387 . S
C651 H654 0.950 . S
C652 C651 1.387 . S
C652 C655 1.387 . S
H653 C649 0.950 . S
H654 C651 0.950 . S
C655 C646 1.390 . S
C655 H648 0.950 . S
C655 C652 1.387 . S
C656 C657 1.387 . S
C656 H660 0.950 . S
C656 C665 1.390 . S
C657 C656 1.387 . S
C657 C659 1.387 . S
H658 C665 0.950 . S
C659 C657 1.387 . S
C659 C661 1.390 . S
C659 H663 0.950 . S
H660 C656 0.950 . S
C661 C659 1.390 . S
C661 C662 1.387 . S
C661 H664 0.950 . S
C662 C661 1.387 . S
C662 C665 1.387 . S
H663 C659 0.950 . S
H664 C661 0.950 . S
C665 C656 1.390 . S
C665 H658 0.950 . S
C665 C662 1.387 . S
C666 C667 1.387 . S
C666 H670 0.950 . S
C666 C675 1.390 . S
C667 C666 1.387 . S
C667 C669 1.387 . S
H668 C675 0.950 . S
C669 C667 1.387 . S
C669 C671 1.390 . S
C669 H673 0.950 . S
H670 C666 0.950 . S
C671 C669 1.390 . S
C671 C672 1.387 . S
C671 H674 0.950 . S
C672 C671 1.387 . S
C672 C675 1.387 . S
H673 C669 0.950 . S
H674 C671 0.950 . S
C675 C666 1.390 . S
C675 H668 0.950 . S
C675 C672 1.387 . S
C676 C677 1.387 . S
C676 H680 0.950 . S
C676 C685 1.390 . S
C677 C676 1.387 . S
C677 C679 1.387 . S
H678 C685 0.950 . S
C679 C677 1.387 . S
C679 C681 1.390 . S
C679 H683 0.950 . S
H680 C676 0.950 . S
C681 C679 1.390 . S
C681 C682 1.387 . S
C681 H684 0.950 . S
C682 C681 1.387 . S
C682 C685 1.387 . S
H683 C679 0.950 . S
H684 C681 0.950 . S
C685 C676 1.390 . S
C685 H678 0.950 . S
C685 C682 1.387 . S
C686 C687 1.387 . S
C686 H690 0.950 . S
C686 C695 1.390 1_554 S
C687 C686 1.387 . S
C687 C689 1.387 . S
H688 C695 0.950 . S
C689 C687 1.387 . S
C689 C691 1.390 1_554 S
C689 H693 0.950 . S
H690 C686 0.950 . S
C691 C689 1.390 1_556 S
C691 C692 1.387 . S
C691 H694 0.950 . S
C692 C691 1.387 . S
C692 C695 1.387 . S
H693 C689 0.950 . S
H694 C691 0.950 . S
C695 C686 1.390 1_556 S
C695 H688 0.950 . S
C695 C692 1.387 . S
C696 C697 1.387 . S
C696 H700 0.950 . S
C696 C705 1.390 1_554 S
C697 C696 1.387 . S
C697 C699 1.387 . S
H698 C705 0.950 . S
C699 C697 1.387 . S
C699 C701 1.390 1_554 S
C699 H703 0.950 . S
H700 C696 0.950 . S
C701 C699 1.390 1_556 S
C701 C702 1.387 . S
C701 H704 0.950 . S
C702 C701 1.387 . S
C702 C705 1.387 . S
H703 C699 0.950 . S
H704 C701 0.950 . S
C705 C696 1.390 1_556 S
C705 H698 0.950 . S
C705 C702 1.387 . S
C706 C707 1.387 . S
C706 H710 0.950 . S
C706 C715 1.390 . S
C707 C706 1.387 . S
C707 C709 1.387 . S
H708 C715 0.950 . S
C709 C707 1.387 . S
C709 C711 1.390 . S
C709 H713 0.950 . S
H710 C706 0.950 . S
C711 C709 1.390 . S
C711 C712 1.387 . S
C711 H714 0.950 . S
C712 C711 1.387 . S
C712 C715 1.387 . S
H713 C709 0.950 . S
H714 C711 0.950 . S
C715 C706 1.390 . S
C715 H708 0.950 . S
C715 C712 1.387 . S
C716 C717 1.387 . S
C716 H720 0.950 . S
C716 C725 1.390 . S
C717 C716 1.387 . S
C717 C719 1.387 . S
H718 C725 0.950 . S
C719 C717 1.387 . S
C719 C721 1.390 . S
C719 H723 0.950 . S
H720 C716 0.950 . S
C721 C719 1.390 . S
C721 C722 1.387 . S
C721 H724 0.950 . S
C722 C721 1.387 . S
C722 C725 1.387 . S
H723 C719 0.950 . S
H724 C721 0.950 . S
C725 C716 1.390 . S
C725 H718 0.950 . S
C725 C722 1.387 . S
C726 C727 1.387 . S
C726 H730 0.950 . S
C726 C735 1.390 . S
C727 C726 1.387 . S
C727 C729 1.387 . S
H728 C735 0.950 . S
C729 C727 1.387 . S
C729 C731 1.390 . S
C729 H733 0.950 . S
H730 C726 0.950 . S
C731 C729 1.390 . S
C731 C732 1.387 . S
C731 H734 0.950 . S
C732 C731 1.387 . S
C732 C735 1.387 . S
H733 C729 0.950 . S
H734 C731 0.950 . S
C735 C726 1.390 . S
C735 H728 0.950 . S
C735 C732 1.387 . S
C736 C737 1.387 . S
C736 H740 0.950 . S
C736 C745 1.390 1_445 S
C737 C736 1.387 . S
C737 C739 1.387 . S
H738 C745 0.950 . S
C739 C737 1.387 . S
C739 C741 1.390 1_445 S
C739 H743 0.950 . S
H740 C736 0.950 . S
C741 C739 1.390 1_665 S
C741 C742 1.387 . S
C741 H744 0.950 . S
C742 C741 1.387 . S
C742 C745 1.387 . S
H743 C739 0.950 . S
H744 C741 0.950 . S
C745 C736 1.390 1_665 S
C745 H738 0.950 . S
C745 C742 1.387 . S
C746 C747 1.387 . S
C746 H750 0.950 . S
C746 C755 1.390 1_455 S
C747 C746 1.387 . S
C747 C749 1.387 . S
H748 C755 0.950 . S
C749 C747 1.387 . S
C749 C751 1.390 1_455 S
C749 H753 0.950 . S
H750 C746 0.950 . S
C751 C749 1.390 1_655 S
C751 C752 1.387 . S
C751 H754 0.950 . S
C752 C751 1.387 . S
C752 C755 1.387 . S
H753 C749 0.950 . S
H754 C751 0.950 . S
C755 C746 1.390 1_655 S
C755 H748 0.950 . S
C755 C752 1.387 . S
C756 C757 1.387 . S
C756 H760 0.950 . S
C756 C765 1.390 . S
C757 C756 1.387 . S
C757 C759 1.387 . S
H758 C765 0.950 . S
C759 C757 1.387 . S
C759 C761 1.390 . S
C759 H763 0.950 . S
H760 C756 0.950 . S
C761 C759 1.390 . S
C761 C762 1.387 . S
C761 H764 0.950 . S
C762 C761 1.387 . S
C762 C765 1.387 . S
H763 C759 0.950 . S
H764 C761 0.950 . S
C765 C756 1.390 . S
C765 H758 0.950 . S
C765 C762 1.387 . S
C766 C767 1.387 . S
C766 H770 0.950 . S
C766 C775 1.390 1_545 S
C767 C766 1.387 . S
C767 C769 1.387 . S
H768 C775 0.950 . S
C769 C767 1.387 . S
C769 C771 1.390 1_545 S
C769 H773 0.950 . S
H770 C766 0.950 . S
C771 C769 1.390 1_565 S
C771 C772 1.387 . S
C771 H774 0.950 . S
C772 C771 1.387 . S
C772 C775 1.387 . S
H773 C769 0.950 . S
H774 C771 0.950 . S
C775 C766 1.390 1_565 S
C775 H768 0.950 . S
C775 C772 1.387 . S
C776 C777 1.387 . S
C776 H780 0.950 . S
C776 C785 1.390 1_455 S
C777 C776 1.387 . S
C777 C779 1.387 . S
H778 C785 0.950 . S
C779 C777 1.387 . S
C779 C781 1.390 1_455 S
C779 H783 0.950 . S
H780 C776 0.950 . S
C781 C779 1.390 1_655 S
C781 C782 1.387 . S
C781 H784 0.950 . S
C782 C781 1.387 . S
C782 C785 1.387 . S
H783 C779 0.950 . S
H784 C781 0.950 . S
C785 C776 1.390 1_655 S
C785 H778 0.950 . S
C785 C782 1.387 . S
C786 C787 1.387 . S
C786 H790 0.950 . S
C786 C795 1.390 . S
C787 C786 1.387 . S
C787 C789 1.387 . S
H788 C795 0.950 . S
C789 C787 1.387 . S
C789 C791 1.390 . S
C789 H793 0.950 . S
H790 C786 0.950 . S
C791 C789 1.390 . S
C791 C792 1.387 . S
C791 H794 0.950 . S
C792 C791 1.387 . S
C792 C795 1.387 . S
H793 C789 0.950 . S
H794 C791 0.950 . S
C795 C786 1.390 . S
C795 H788 0.950 . S
C795 C792 1.387 . S
C796 C797 1.387 . S
C796 H800 0.950 . S
C796 C805 1.390 1_565 S
C797 C796 1.387 . S
C797 C799 1.387 . S
H798 C805 0.950 . S
C799 C797 1.387 . S
C799 C801 1.390 1_565 S
C799 H803 0.950 . S
H800 C796 0.950 . S
C801 C799 1.390 1_545 S
C801 C802 1.387 . S
C801 H804 0.950 . S
C802 C801 1.387 . S
C802 C805 1.387 . S
H803 C799 0.950 . S
H804 C801 0.950 . S
C805 C796 1.390 1_545 S
C805 H798 0.950 . S
C805 C802 1.387 . S
C806 C807 1.387 . S
C806 H810 0.950 . S
C806 C815 1.390 1_445 S
C807 C806 1.387 . S
C807 C809 1.387 . S
H808 C815 0.950 . S
C809 C807 1.387 . S
C809 C811 1.390 1_445 S
C809 H813 0.950 . S
H810 C806 0.950 . S
C811 C809 1.390 1_665 S
C811 C812 1.387 . S
C811 H814 0.950 . S
C812 C811 1.387 . S
C812 C815 1.387 . S
H813 C809 0.950 . S
H814 C811 0.950 . S
C815 C806 1.390 1_665 S
C815 H808 0.950 . S
C815 C812 1.387 . S
C816 C817 1.387 . S
C816 H820 0.950 . S
C816 C825 1.390 1_565 S
C817 C816 1.387 . S
C817 C819 1.387 . S
H818 C825 0.950 . S
C819 C817 1.387 . S
C819 C821 1.390 1_565 S
C819 H823 0.950 . S
H820 C816 0.950 . S
C821 C819 1.390 1_545 S
C821 C822 1.387 . S
C821 H824 0.950 . S
C822 C821 1.387 . S
C822 C825 1.387 . S
H823 C819 0.950 . S
H824 C821 0.950 . S
C825 C816 1.390 1_545 S
C825 H818 0.950 . S
C825 C822 1.387 . S
C826 C827 1.387 . S
C826 H830 0.950 . S
C826 C835 1.390 1_665 S
C827 C826 1.387 . S
C827 C829 1.387 . S
H828 C835 0.950 . S
C829 C827 1.387 . S
C829 C831 1.390 1_665 S
C829 H833 0.950 . S
H830 C826 0.950 . S
C831 C829 1.390 1_445 S
C831 C832 1.387 . S
C831 H834 0.950 . S
C832 C831 1.387 . S
C832 C835 1.387 . S
H833 C829 0.950 . S
H834 C831 0.950 . S
C835 C826 1.390 1_445 S
C835 H828 0.950 . S
C835 C832 1.387 . S
C836 C837 1.387 . S
C836 H840 0.950 . S
C836 C845 1.390 1_455 S
C837 C836 1.387 . S
C837 C839 1.387 . S
H838 C845 0.950 . S
C839 C837 1.387 . S
C839 C841 1.390 1_455 S
C839 H843 0.950 . S
H840 C836 0.950 . S
C841 C839 1.390 1_655 S
C841 C842 1.387 . S
C841 H844 0.950 . S
C842 C841 1.387 . S
C842 C845 1.387 . S
H843 C839 0.950 . S
H844 C841 0.950 . S
C845 C836 1.390 1_655 S
C845 H838 0.950 . S
C845 C842 1.387 . S
C846 C847 1.387 . S
C846 H850 0.950 . S
C846 C855 1.390 . S
C847 C846 1.387 . S
C847 C849 1.387 . S
H848 C855 0.950 . S
C849 C847 1.387 . S
C849 C851 1.390 . S
C849 H853 0.950 . S
H850 C846 0.950 . S
C851 C849 1.390 . S
C851 C852 1.387 . S
C851 H854 0.950 . S
C852 C851 1.387 . S
C852 C855 1.387 . S
H853 C849 0.950 . S
H854 C851 0.950 . S
C855 C846 1.390 . S
C855 H848 0.950 . S
C855 C852 1.387 . S
C856 C857 1.387 . S
C856 H860 0.950 . S
C856 C865 1.390 . S
C857 C856 1.387 . S
C857 C859 1.387 . S
H858 C865 0.950 . S
C859 C857 1.387 . S
C859 C861 1.390 . S
C859 H863 0.950 . S
H860 C856 0.950 . S
C861 C859 1.390 . S
C861 C862 1.387 . S
C861 H864 0.950 . S
C862 C861 1.387 . S
C862 C865 1.387 . S
H863 C859 0.950 . S
H864 C861 0.950 . S
C865 C856 1.390 . S
C865 H858 0.950 . S
C865 C862 1.387 . S
C866 C867 1.387 . S
C866 H870 0.950 . S
C866 C875 1.390 1_545 S
C867 C866 1.387 . S
C867 C869 1.387 . S
H868 C875 0.950 . S
C869 C867 1.387 . S
C869 C871 1.390 1_545 S
C869 H873 0.950 . S
H870 C866 0.950 . S
C871 C869 1.390 1_565 S
C871 C872 1.387 . S
C871 H874 0.950 . S
C872 C871 1.387 . S
C872 C875 1.387 . S
H873 C869 0.950 . S
H874 C871 0.950 . S
C875 C866 1.390 1_565 S
C875 H868 0.950 . S
C875 C872 1.387 . S
C876 C877 1.387 . S
C876 H880 0.950 . S
C876 C885 1.390 1_665 S
C877 C876 1.387 . S
C877 C879 1.387 . S
H878 C885 0.950 . S
C879 C877 1.387 . S
C879 C881 1.390 1_665 S
C879 H883 0.950 . S
H880 C876 0.950 . S
C881 C879 1.390 1_445 S
C881 C882 1.387 . S
C881 H884 0.950 . S
C882 C881 1.387 . S
C882 C885 1.387 . S
H883 C879 0.950 . S
H884 C881 0.950 . S
C885 C876 1.390 1_445 S
C885 H878 0.950 . S
C885 C882 1.387 . S
C886 C887 1.387 . S
C886 H890 0.950 . S
C886 C895 1.390 1_655 S
C887 C886 1.387 . S
C887 C889 1.387 . S
H888 C895 0.950 . S
C889 C887 1.387 . S
C889 C891 1.390 1_655 S
C889 H893 0.950 . S
H890 C886 0.950 . S
C891 C889 1.390 1_455 S
C891 C892 1.387 . S
C891 H894 0.950 . S
C892 C891 1.387 . S
C892 C895 1.387 . S
H893 C889 0.950 . S
H894 C891 0.950 . S
C895 C886 1.390 1_455 S
C895 H888 0.950 . S
C895 C892 1.387 . S
C577 C158 1.356 . S
C582 C14 1.356 . S
C587 C50 1.356 . S
C592 C194 1.356 . S
C597 C230 1.356 . S
C602 C86 1.356 . S
C607 C266 1.356 . S
C612 C122 1.356 . S
C617 C446 1.356 . S
C622 C302 1.356 . S
C627 C338 1.356 . S
C632 C482 1.356 . S
C637 C518 1.356 . S
C642 C374 1.356 . S
C647 C410 1.356 . S
C652 C554 1.356 . S
C657 C2 1.385 . S
C662 C542 1.385 . S
C667 C38 1.384 . S
C672 C434 1.384 . S
C677 C74 1.385 . S
C682 C470 1.386 . S
C687 C506 1.384 . S
C692 C110 1.384 . S
C697 C146 1.386 . S
C702 C326 1.384 . S
C707 C182 1.384 . S
C712 C362 1.386 . S
C717 C398 1.386 . S
C722 C218 1.384 . S
C727 C290 1.384 . S
C732 C254 1.383 . S
C737 C4 1.604 . S
C742 C364 1.604 . S
C747 C400 1.604 . S
C752 C40 1.604 . S
C757 C76 1.604 . S
C762 C292 1.604 . S
C767 C328 1.604 . S
C772 C112 1.604 . S
C777 C148 1.604 . S
C782 C508 1.604 . S
C787 C184 1.604 . S
C792 C544 1.604 . S
C797 C436 1.604 . S
C802 C220 1.604 . S
C807 C472 1.604 . S
C812 C256 1.604 . S
C817 C363 1.425 . S
C822 C3 1.425 . S
C827 C39 1.425 . S
C832 C399 1.425 . S
C837 C75 1.425 . S
C842 C291 1.425 . S
C847 C327 1.425 . S
C852 C111 1.425 . S
C857 C507 1.425 . S
C862 C147 1.425 . S
C867 C543 1.425 . S
C872 C183 1.425 . S
C877 C435 1.425 . S
C882 C219 1.425 . S
C887 C255 1.425 . S
C892 C471 1.425 . S
