# Generated by pormake.
# Topology wkl, (6)-cn, num edge types: 1
# Building blocks:
#     Node 0, Type 0, BuildingBlock: IZENUY_clean_sbu_0, # of connection points: 6
#     Node 1, Type 0, BuildingBlock: IZENUY_clean_sbu_0, # of connection points: 6
#     Node 2, Type 0, BuildingBlock: IZENUY_clean_sbu_0, # of connection points: 6
#     Node 3, Type 0, BuildingBlock: IZENUY_clean_sbu_0, # of connection points: 6
#     Node 4, Type 0, BuildingBlock: IZENUY_clean_sbu_0, # of connection points: 6
#     Node 5, Type 0, BuildingBlock: IZENUY_clean_sbu_0, # of connection points: 6
#     Node 6, Type 0, BuildingBlock: IZENUY_clean_sbu_0, # of connection points: 6
#     Node 7, Type 0, BuildingBlock: IZENUY_clean_sbu_0, # of connection points: 6
#     Node 8, Type 0, BuildingBlock: IZENUY_clean_sbu_0, # of connection points: 6
#     Node 9, Type 0, BuildingBlock: IZENUY_clean_sbu_0, # of connection points: 6
#     Node 10, Type 0, BuildingBlock: IZENUY_clean_sbu_0, # of connection points: 6
#     Node 11, Type 0, BuildingBlock: IZENUY_clean_sbu_0, # of connection points: 6
#     Edge 12, Type (0, 0), None
#     Edge 13, Type (0, 0), None
#     Edge 14, Type (0, 0), None
#     Edge 15, Type (0, 0), None
#     Edge 16, Type (0, 0), None
#     Edge 17, Type (0, 0), None
#     Edge 18, Type (0, 0), None
#     Edge 19, Type (0, 0), None
#     Edge 20, Type (0, 0), None
#     Edge 21, Type (0, 0), None
#     Edge 22, Type (0, 0), None
#     Edge 23, Type (0, 0), None
#     Edge 24, Type (0, 0), None
#     Edge 25, Type (0, 0), None
#     Edge 26, Type (0, 0), None
#     Edge 27, Type (0, 0), None
#     Edge 28, Type (0, 0), None
#     Edge 29, Type (0, 0), None
#     Edge 30, Type (0, 0), None
#     Edge 31, Type (0, 0), None
#     Edge 32, Type (0, 0), None
#     Edge 33, Type (0, 0), None
#     Edge 34, Type (0, 0), None
#     Edge 35, Type (0, 0), None
#     Edge 36, Type (0, 0), None
#     Edge 37, Type (0, 0), None
#     Edge 38, Type (0, 0), None
#     Edge 39, Type (0, 0), None
#     Edge 40, Type (0, 0), None
#     Edge 41, Type (0, 0), None
#     Edge 42, Type (0, 0), None
#     Edge 43, Type (0, 0), None
#     Edge 44, Type (0, 0), None
#     Edge 45, Type (0, 0), None
#     Edge 46, Type (0, 0), None
#     Edge 47, Type (0, 0), None
# Relax obj value: 0.386
# Max RMSD: 0.287
# Mean RMSD: 0.287
data_MOF--net-wkl--node1-IZENUY_clean_sbu_0--edge1-none
_symmetry_space_group_name_H-M    P1
_symmetry_Int_Tables_number       1
_symmetry_cell_setting            triclinic
loop_
_symmetry_equiv_pos_as_xyz
'x, y, z'
_cell_length_a     33.0586
_cell_length_b     33.059327
_cell_length_c     6.6802657
_cell_angle_alpha  90.005399
_cell_angle_beta   89.990032
_cell_angle_gamma 120.00172
loop_
_atom_site_label
_atom_site_type_symbol
_atom_site_fract_x
_atom_site_fract_y
_atom_site_fract_z
_atom_type_partial_charge
Fe0 Fe 0.52816 0.1216 0.25079 0.0
Fe1 Fe 0.54993 0.19743 0.94662 0.0
O2 O 0.50898 0.15209 0.101 0.0
Fe3 Fe 0.44969 0.13821 0.10277 0.0
O4 O 0.45211 0.15097 0.36735 0.0
O5 O 0.48811 0.11317 0.45821 0.0
O6 O 0.57012 0.17538 0.37466 0.0
C7 C 0.60666 0.20398 0.28445 0.0
C8 C 0.44512 0.05061 0.10226 0.0
O9 O 0.60279 0.2114 0.10065 0.0
C10 C 0.47102 0.15271 0.7074 0.0
O11 O 0.57101 0.12457 0.06287 0.0
O12 O 0.55759 0.15596 0.80013 0.0
O13 O 0.42511 0.0742 0.13842 0.0
O14 O 0.48806 0.06753 0.13435 0.0
C15 C 0.50331 0.23696 0.11678 0.0
O16 O 0.50598 0.19103 0.76073 0.0
O17 O 0.44459 0.12469 0.83764 0.0
C18 C 0.57308 0.13145 0.8745 0.0
O19 O 0.54245 0.23953 0.08997 0.0
O20 O 0.46526 0.20019 0.06849 0.0
C21 C 0.4686 0.13674 0.50116 0.0
Fe22 Fe 0.3375 0.43661 0.26922 0.0
Fe23 Fe 0.43258 0.51508 0.41726 0.0
O24 O 0.38291 0.4959 0.26747 0.0
Fe25 Fe 0.37854 0.53686 0.11309 0.0
O26 O 0.32896 0.52938 0.25646 0.0
O27 O 0.29109 0.45219 0.23496 0.0
O28 O 0.32717 0.43904 0.53381 0.0
C29 C 0.35789 0.45552 0.66762 0.0
C30 C 0.34433 0.45794 0.87387 0.0
O31 O 0.40096 0.47504 0.62469 0.0
C32 C 0.46767 0.56 1.04098 0.0
O33 O 0.37692 0.41203 0.30485 0.0
O34 O 0.44656 0.47498 0.30084 0.0
O35 O 0.34099 0.49291 0.92719 0.0
O36 O 0.34592 0.43151 1.00408 0.0
C37 C 0.42872 0.59359 0.45094 0.0
O38 O 0.47247 0.55793 0.22934 0.0
O39 O 0.42767 0.54451 0.96661 0.0
C40 C 0.42054 0.43204 0.26877 0.0
O41 O 0.42077 0.55705 0.54114 0.0
O42 O 0.41742 0.58971 0.26714 0.0
C43 C 0.29238 0.49025 0.28327 0.0
Fe44 Fe 0.94355 0.41955 0.58394 0.0
Fe45 Fe 0.86772 0.36548 0.2798 0.0
O46 O 0.91306 0.36987 0.43415 0.0
Fe47 Fe 0.92695 0.32447 0.43586 0.0
O48 O 0.9142 0.31414 0.70044 0.0
O49 O 0.95197 0.38793 0.79135 0.0
O50 O 0.88976 0.40772 0.70784 0.0
C51 C 0.86117 0.41567 0.61766 0.0
C52 C 1.01455 0.40751 0.43539 0.0
O53 O 0.85374 0.40436 0.43386 0.0
C54 C 0.91245 0.3313 1.04052 0.0
O55 O 0.94057 0.45943 0.39604 0.0
O56 O 0.90918 0.41461 0.1333 0.0
O57 O 0.99096 0.3639 0.4715 0.0
O58 O 0.99763 0.43353 0.4675 0.0
C59 C 0.82821 0.27933 0.44998 0.0
O60 O 0.87413 0.32793 0.09389 0.0
O61 O 0.94048 0.3329 0.17072 0.0
C62 C 0.9337 0.45462 0.20768 0.0
O63 O 0.82563 0.3159 0.42318 0.0
O64 O 0.86497 0.27805 0.4016 0.0
C65 C 0.92842 0.34486 0.83427 0.0
Fe66 Fe 0.62856 0.91388 0.6025 0.0
Fe67 Fe 0.55008 0.93049 0.75063 0.0
O68 O 0.56927 0.9 0.60079 0.0
Fe69 Fe 0.52831 0.85466 0.44643 0.0
O70 O 0.53579 0.81257 0.58977 0.0
O71 O 0.61298 0.8519 0.56821 0.0
O72 O 0.62613 0.90113 0.86707 0.0
C73 C 0.60964 0.91535 1.00092 0.0
C74 C 0.60722 0.89937 0.20716 0.0
O75 O 0.59012 0.9389 0.95804 0.0
C76 C 0.50516 0.92064 0.37438 0.0
O77 O 0.65314 0.97789 0.63817 0.0
O78 O 0.59019 0.98457 0.63422 0.0
O79 O 0.57226 0.86106 0.26049 0.0
O80 O 0.63366 0.9274 0.33737 0.0
C81 C 0.47157 0.84811 0.7843 0.0
O82 O 0.50723 0.92752 0.56274 0.0
O83 O 0.52065 0.89613 0.29997 0.0
C84 C 0.63313 1.00149 0.60211 0.0
O85 O 0.50811 0.8767 0.87449 0.0
O86 O 0.47545 0.84069 0.6005 0.0
C87 C 0.57493 0.81513 0.61658 0.0
Fe88 Fe 0.69969 0.51526 0.61306 0.0
Fe89 Fe 0.74072 0.6155 0.76919 0.0
O90 O 0.69531 0.55621 0.76746 0.0
Fe91 Fe 0.64563 0.53703 0.91729 0.0
O92 O 0.65745 0.49506 1.04113 0.0
O93 O 0.66081 0.4624 0.7671 0.0
O94 O 0.74927 0.52274 0.75639 0.0
C95 C 0.78584 0.56188 0.78325 0.0
C96 C 0.61056 0.4921 0.54102 0.0
O97 O 0.78713 0.59993 0.73489 0.0
C98 C 0.65768 0.62007 0.76876 0.0
O99 O 0.73725 0.55921 0.42715 0.0
O100 O 0.7323 0.6206 0.50407 0.0
O101 O 0.60575 0.49417 0.72939 0.0
O102 O 0.65057 0.5076 0.46661 0.0
C103 C 0.72032 0.59659 0.1676 0.0
O104 O 0.70129 0.64008 0.80487 0.0
O105 O 0.63166 0.57712 0.80089 0.0
C106 C 0.73388 0.59417 0.37383 0.0
O107 O 0.75105 0.61308 1.03376 0.0
O108 O 0.67725 0.57707 0.12472 0.0
C109 C 0.64951 0.45852 0.95091 0.0
Fe110 Fe 0.15127 0.72767 0.93595 0.0
Fe111 Fe 0.13466 0.63259 0.08398 0.0
O112 O 0.16515 0.68226 0.93417 0.0
Fe113 Fe 0.21049 0.68665 0.77976 0.0
O114 O 0.25259 0.73623 0.92311 0.0
O115 O 0.21326 0.77409 0.90166 0.0
O116 O 0.16402 0.738 0.20052 0.0
C117 C 0.1498 0.70728 0.33435 0.0
C118 C 0.16578 0.72085 0.54058 0.0
O119 O 0.12624 0.66421 0.29144 0.0
C120 C 0.14451 0.59752 0.70768 0.0
O121 O 0.08726 0.68824 0.97161 0.0
O122 O 0.08058 0.61861 0.9676 0.0
O123 O 0.2041 0.7242 0.59387 0.0
O124 O 0.13775 0.71925 0.67082 0.0
C125 C 0.21704 0.63647 0.11757 0.0
O126 O 0.13763 0.59271 0.89605 0.0
O127 O 0.16902 0.63752 0.63329 0.0
C128 C 0.06366 0.64463 0.93549 0.0
O129 O 0.18845 0.64441 0.20781 0.0
O130 O 0.22447 0.64777 0.93377 0.0
C131 C 0.25002 0.7728 0.94998 0.0
Fe132 Fe 0.92695 0.6155 0.86594 0.0
Fe133 Fe 0.94356 0.53703 0.71782 0.0
O134 O 0.91306 0.55621 0.86766 0.0
Fe135 Fe 0.86772 0.51526 1.02208 0.0
O136 O 0.82563 0.52274 0.87875 0.0
O137 O 0.86496 0.59993 0.90025 0.0
O138 O 0.9142 0.61308 0.60137 0.0
C139 C 0.92843 0.59659 0.46753 0.0
C140 C 0.91244 0.59417 0.26129 0.0
O141 O 0.95199 0.57708 0.51042 0.0
C142 C 0.93372 0.49213 0.09407 0.0
O143 O 0.99096 0.64008 0.83026 0.0
O144 O 0.99763 0.57713 0.83427 0.0
O145 O 0.87412 0.55921 0.208 0.0
O146 O 0.94047 0.6206 0.13106 0.0
C147 C 0.86117 0.45855 0.68421 0.0
O148 O 0.94058 0.49417 0.9057 0.0
O149 O 0.90918 0.5076 0.16852 0.0
C150 C 1.01455 0.62007 0.8664 0.0
O151 O 0.88979 0.49507 0.59392 0.0
O152 O 0.85374 0.4624 0.86804 0.0
C153 C 0.8282 0.56188 0.85188 0.0
Fe154 Fe 0.33752 0.9139 1.03269 0.0
Fe155 Fe 0.43261 0.93051 0.88455 0.0
O156 O 0.38293 0.90001 1.03439 0.0
Fe157 Fe 0.37854 0.85467 0.18878 0.0
O158 O 0.32895 0.81258 1.04544 0.0
O159 O 0.2911 0.85192 0.06698 0.0
O160 O 0.32719 0.90114 0.76812 0.0
C161 C 0.35791 0.91538 0.63427 0.0
C162 C 0.34435 0.89939 0.42804 0.0
O163 O 0.40099 0.93894 0.67717 0.0
C164 C 0.46766 0.92066 0.26078 0.0
O165 O 0.37696 0.9779 0.99703 0.0
O166 O 0.44658 0.98458 1.00103 0.0
O167 O 0.34099 0.86108 0.37471 0.0
O168 O 0.34595 0.92742 0.29783 0.0
C169 C 0.42869 0.84812 0.85088 0.0
O170 O 0.47249 0.92753 0.07241 0.0
O171 O 0.42766 0.89613 0.33523 0.0
C172 C 0.42056 1.0015 1.03317 0.0
O173 O 0.42079 0.87673 0.76061 0.0
O174 O 0.41741 0.84069 1.0347 0.0
C175 C 0.29239 0.81515 1.01859 0.0
Fe176 Fe 0.44968 0.32445 0.1993 0.0
Fe177 Fe 0.52814 0.41954 1.05119 0.0
O178 O 0.50897 0.36986 0.20101 0.0
Fe179 Fe 0.54992 0.36549 0.35539 0.0
O180 O 0.54245 0.3159 0.21205 0.0
O181 O 0.46525 0.27804 0.23359 0.0
O182 O 0.4521 0.31412 0.93473 0.0
C183 C 0.46858 0.34484 0.80089 0.0
C184 C 0.47101 0.33128 0.59465 0.0
O185 O 0.48809 0.38791 0.84381 0.0
C186 C 0.57304 0.4546 0.42742 0.0
O187 O 0.42509 0.36387 0.16365 0.0
O188 O 0.48804 0.4335 0.16769 0.0
O189 O 0.50597 0.32793 0.54132 0.0
O190 O 0.44457 0.33288 0.46444 0.0
C191 C 0.60662 0.41564 1.01749 0.0
O192 O 0.57101 0.45943 0.23905 0.0
O193 O 0.55758 0.41461 0.50186 0.0
C194 C 0.4451 0.40748 0.19976 0.0
O195 O 0.57011 0.40773 0.92724 0.0
O196 O 0.60278 0.40436 0.20132 0.0
C197 C 0.5033 0.27933 0.18526 0.0
Fe198 Fe 0.15127 0.43664 0.36583 0.0
Fe199 Fe 0.13466 0.51511 0.21778 0.0
O200 O 0.16515 0.49593 0.36757 0.0
Fe201 Fe 0.21049 0.53688 0.52197 0.0
O202 O 0.25259 0.5294 0.3786 0.0
O203 O 0.21325 0.4522 0.40011 0.0
O204 O 0.16403 0.43907 0.10124 0.0
C205 C 0.14979 0.45555 0.96743 0.0
C206 C 0.16577 0.45797 0.76118 0.0
O207 O 0.12623 0.47506 1.01038 0.0
C208 C 0.14449 0.56 0.59404 0.0
O209 O 0.08726 0.41206 0.33017 0.0
O210 O 0.08059 0.47502 0.33427 0.0
O211 O 0.20409 0.49293 0.70787 0.0
O212 O 0.13774 0.43154 0.63096 0.0
C213 C 0.21705 0.59358 0.18411 0.0
O214 O 0.13764 0.55797 0.40568 0.0
O215 O 0.16903 0.54454 0.66846 0.0
C216 C 0.06367 0.43207 0.36634 0.0
O217 O 0.18844 0.55707 0.09384 0.0
O218 O 0.22448 0.58974 0.36793 0.0
C219 C 0.25002 0.49025 0.35178 0.0
Fe220 Fe 0.74073 0.13822 0.53259 0.0
Fe221 Fe 0.64564 0.12159 0.38457 0.0
O222 O 0.69531 0.15209 0.53437 0.0
Fe223 Fe 0.69969 0.19742 0.68881 0.0
O224 O 0.74927 0.23953 0.54545 0.0
O225 O 0.78714 0.2002 0.56686 0.0
O226 O 0.75106 0.15097 0.26801 0.0
C227 C 0.72034 0.13673 0.1342 0.0
C228 C 0.7339 0.15272 0.92796 0.0
O229 O 0.67727 0.11317 0.17714 0.0
C230 C 0.61058 0.13142 0.76086 0.0
O231 O 0.7013 0.0742 0.49693 0.0
O232 O 0.63167 0.06752 0.50101 0.0
O233 O 0.73725 0.19103 0.87467 0.0
O234 O 0.7323 0.12469 0.79772 0.0
C235 C 0.64955 0.20398 0.35098 0.0
O236 O 0.60575 0.12456 0.57249 0.0
O237 O 0.65057 0.15595 0.83528 0.0
C238 C 0.65769 0.0506 0.53308 0.0
O239 O 0.65745 0.17537 0.26068 0.0
O240 O 0.66082 0.2114 0.5348 0.0
C241 C 0.78585 0.23696 0.51856 0.0
Fe242 Fe 0.62855 0.72765 0.69916 0.0
Fe243 Fe 0.55009 0.63256 0.55109 0.0
O244 O 0.56926 0.68224 0.70092 0.0
Fe245 Fe 0.52831 0.68662 0.85536 0.0
O246 O 0.53579 0.7362 0.71203 0.0
O247 O 0.61298 0.77406 0.73347 0.0
O248 O 0.62613 0.73798 0.43459 0.0
C249 C 0.60964 0.70726 0.30076 0.0
C250 C 0.60722 0.72082 0.09453 0.0
O251 O 0.59014 0.66419 0.34368 0.0
C252 C 0.50519 0.5975 0.92735 0.0
O253 O 0.65314 0.68822 0.66348 0.0
O254 O 0.59018 0.61859 0.66754 0.0
O255 O 0.57226 0.72417 1.04126 0.0
O256 O 0.63365 0.71923 0.96429 0.0
C257 C 0.47161 0.63647 0.51749 0.0
O258 O 0.50722 0.59268 0.73898 0.0
O259 O 0.52065 0.6375 1.0018 0.0
C260 C 0.63312 0.64462 0.69965 0.0
O261 O 0.50813 0.64437 0.4272 0.0
O262 O 0.47545 0.64774 0.70132 0.0
C263 C 0.57493 0.77277 0.68515 0.0
loop_
_geom_bond_atom_site_label_1
_geom_bond_atom_site_label_2
_geom_bond_distance
_geom_bond_site_symmetry_2
_ccdc_geom_bond_type
Fe0 O2 1.918 . S
Fe0 O5 1.997 . S
Fe0 O6 2.002 . S
Fe0 O11 1.976 1_554 S
Fe0 O14 1.996 . S
Fe1 O2 1.918 1_556 S
Fe1 O9 1.997 1_556 S
Fe1 O12 1.996 . S
Fe1 O16 1.976 . S
Fe1 O19 2.002 . S
O2 Fe0 1.918 . S
O2 Fe1 1.918 1_554 S
O2 Fe3 1.918 . S
Fe3 O2 1.918 . S
Fe3 O4 2.002 . S
Fe3 O13 1.976 1_554 S
Fe3 O17 1.996 1_554 S
Fe3 O20 1.997 . S
O4 Fe3 2.002 . S
O4 C21 1.295 . S
O5 Fe0 1.997 . S
O5 C21 1.235 . S
O6 Fe0 2.002 . S
O6 C7 1.295 . S
C7 O6 1.295 . S
C7 O9 1.235 . S
C8 O13 1.287 1_554 S
C8 O14 1.255 . S
O9 Fe1 1.997 1_554 S
O9 C7 1.235 . S
C10 O16 1.287 . S
C10 O17 1.255 . S
O11 Fe0 1.976 1_556 S
O11 C18 1.287 . S
O12 Fe1 1.996 . S
O12 C18 1.255 . S
O13 Fe3 1.976 1_556 S
O13 C8 1.287 1_556 S
O14 Fe0 1.996 . S
O14 C8 1.255 . S
C15 O19 1.295 1_554 S
C15 O20 1.235 . S
O16 Fe1 1.976 . S
O16 C10 1.287 . S
O17 Fe3 1.996 1_556 S
O17 C10 1.255 . S
C18 O11 1.287 . S
C18 O12 1.255 . S
O19 Fe1 2.002 . S
O19 C15 1.295 1_556 S
O20 Fe3 1.997 . S
O20 C15 1.235 . S
C21 O4 1.295 . S
C21 O5 1.235 . S
Fe22 O24 1.918 . S
Fe22 O27 1.997 . S
Fe22 O28 2.002 . S
Fe22 O33 1.976 . S
Fe22 O36 1.996 1_554 S
Fe23 O24 1.918 . S
Fe23 O31 1.997 . S
Fe23 O34 1.996 . S
Fe23 O38 1.976 . S
Fe23 O41 2.002 . S
O24 Fe22 1.918 . S
O24 Fe23 1.918 . S
O24 Fe25 1.918 . S
Fe25 O24 1.918 . S
Fe25 O26 2.002 . S
Fe25 O35 1.976 1_554 S
Fe25 O39 1.996 1_554 S
Fe25 O42 1.997 . S
O26 Fe25 2.002 . S
O26 C43 1.295 . S
O27 Fe22 1.997 . S
O27 C43 1.235 . S
O28 Fe22 2.002 . S
O28 C29 1.295 . S
C29 O28 1.295 . S
C29 O31 1.235 . S
C30 O35 1.287 . S
C30 O36 1.255 . S
O31 Fe23 1.997 . S
O31 C29 1.235 . S
C32 O38 1.287 1_556 S
C32 O39 1.255 . S
O33 Fe22 1.976 . S
O33 C40 1.287 . S
O34 Fe23 1.996 . S
O34 C40 1.255 . S
O35 Fe25 1.976 1_556 S
O35 C30 1.287 . S
O36 Fe22 1.996 1_556 S
O36 C30 1.255 . S
C37 O41 1.295 . S
C37 O42 1.235 . S
O38 Fe23 1.976 . S
O38 C32 1.287 1_554 S
O39 Fe25 1.996 1_556 S
O39 C32 1.255 . S
C40 O33 1.287 . S
C40 O34 1.255 . S
O41 Fe23 2.002 . S
O41 C37 1.295 . S
O42 Fe25 1.997 . S
O42 C37 1.235 . S
C43 O26 1.295 . S
C43 O27 1.235 . S
Fe44 O46 1.918 . S
Fe44 O49 1.997 . S
Fe44 O50 2.002 . S
Fe44 O55 1.976 . S
Fe44 O58 1.996 . S
Fe45 O46 1.918 . S
Fe45 O53 1.997 . S
Fe45 O56 1.996 . S
Fe45 O60 1.976 . S
Fe45 O63 2.002 . S
O46 Fe44 1.918 . S
O46 Fe45 1.918 . S
O46 Fe47 1.918 . S
Fe47 O46 1.918 . S
Fe47 O48 2.002 . S
Fe47 O57 1.976 . S
Fe47 O61 1.996 . S
Fe47 O64 1.997 . S
O48 Fe47 2.002 . S
O48 C65 1.295 . S
O49 Fe44 1.997 . S
O49 C65 1.235 . S
O50 Fe44 2.002 . S
O50 C51 1.295 . S
C51 O50 1.295 . S
C51 O53 1.235 . S
C52 O57 1.287 . S
C52 O58 1.255 . S
O53 Fe45 1.997 . S
O53 C51 1.235 . S
C54 O60 1.287 1_556 S
C54 O61 1.255 1_556 S
O55 Fe44 1.976 . S
O55 C62 1.287 . S
O56 Fe45 1.996 . S
O56 C62 1.255 . S
O57 Fe47 1.976 . S
O57 C52 1.287 . S
O58 Fe44 1.996 . S
O58 C52 1.255 . S
C59 O63 1.295 . S
C59 O64 1.235 . S
O60 Fe45 1.976 . S
O60 C54 1.287 1_554 S
O61 Fe47 1.996 . S
O61 C54 1.255 1_554 S
C62 O55 1.287 . S
C62 O56 1.255 . S
O63 Fe45 2.002 . S
O63 C59 1.295 . S
O64 Fe47 1.997 . S
O64 C59 1.235 . S
C65 O48 1.295 . S
C65 O49 1.235 . S
Fe66 O68 1.918 . S
Fe66 O71 1.997 . S
Fe66 O72 2.002 . S
Fe66 O77 1.976 . S
Fe66 O80 1.996 . S
Fe67 O68 1.918 . S
Fe67 O75 1.997 . S
Fe67 O78 1.996 . S
Fe67 O82 1.976 . S
Fe67 O85 2.002 . S
O68 Fe66 1.918 . S
O68 Fe67 1.918 . S
O68 Fe69 1.918 . S
Fe69 O68 1.918 . S
Fe69 O70 2.002 . S
Fe69 O79 1.976 . S
Fe69 O83 1.996 . S
Fe69 O86 1.997 . S
O70 Fe69 2.002 . S
O70 C87 1.295 . S
O71 Fe66 1.997 . S
O71 C87 1.235 . S
O72 Fe66 2.002 . S
O72 C73 1.295 . S
C73 O72 1.295 . S
C73 O75 1.235 . S
C74 O79 1.287 . S
C74 O80 1.255 . S
O75 Fe67 1.997 . S
O75 C73 1.235 . S
C76 O82 1.287 . S
C76 O83 1.255 . S
O77 Fe66 1.976 . S
O77 C84 1.287 . S
O78 Fe67 1.996 . S
O78 C84 1.255 . S
O79 Fe69 1.976 . S
O79 C74 1.287 . S
O80 Fe66 1.996 . S
O80 C74 1.255 . S
C81 O85 1.295 . S
C81 O86 1.235 . S
O82 Fe67 1.976 . S
O82 C76 1.287 . S
O83 Fe69 1.996 . S
O83 C76 1.255 . S
C84 O77 1.287 . S
C84 O78 1.255 . S
O85 Fe67 2.002 . S
O85 C81 1.295 . S
O86 Fe69 1.997 . S
O86 C81 1.235 . S
C87 O70 1.295 . S
C87 O71 1.235 . S
Fe88 O90 1.918 . S
Fe88 O93 1.997 . S
Fe88 O94 2.002 . S
Fe88 O99 1.976 . S
Fe88 O102 1.996 . S
Fe89 O90 1.918 . S
Fe89 O97 1.997 . S
Fe89 O100 1.996 . S
Fe89 O104 1.976 . S
Fe89 O107 2.002 . S
O90 Fe88 1.918 . S
O90 Fe89 1.918 . S
O90 Fe91 1.918 . S
Fe91 O90 1.918 . S
Fe91 O92 2.002 . S
Fe91 O101 1.976 . S
Fe91 O105 1.996 . S
Fe91 O108 1.997 1_556 S
O92 Fe91 2.002 . S
O92 C109 1.295 . S
O93 Fe88 1.997 . S
O93 C109 1.235 . S
O94 Fe88 2.002 . S
O94 C95 1.295 . S
C95 O94 1.295 . S
C95 O97 1.235 . S
C96 O101 1.287 . S
C96 O102 1.255 . S
O97 Fe89 1.997 . S
O97 C95 1.235 . S
C98 O104 1.287 . S
C98 O105 1.255 . S
O99 Fe88 1.976 . S
O99 C106 1.287 . S
O100 Fe89 1.996 . S
O100 C106 1.255 . S
O101 Fe91 1.976 . S
O101 C96 1.287 . S
O102 Fe88 1.996 . S
O102 C96 1.255 . S
C103 O107 1.295 1_554 S
C103 O108 1.235 . S
O104 Fe89 1.976 . S
O104 C98 1.287 . S
O105 Fe91 1.996 . S
O105 C98 1.255 . S
C106 O99 1.287 . S
C106 O100 1.255 . S
O107 Fe89 2.002 . S
O107 C103 1.295 1_556 S
O108 Fe91 1.997 1_554 S
O108 C103 1.235 . S
C109 O92 1.295 . S
C109 O93 1.235 . S
Fe110 O112 1.918 . S
Fe110 O115 1.997 . S
Fe110 O116 2.002 1_556 S
Fe110 O121 1.976 . S
Fe110 O124 1.996 . S
Fe111 O112 1.918 . S
Fe111 O119 1.997 1_556 S
Fe111 O122 1.996 . S
Fe111 O126 1.976 . S
Fe111 O129 2.002 1_556 S
O112 Fe110 1.918 . S
O112 Fe111 1.918 . S
O112 Fe113 1.918 . S
Fe113 O112 1.918 . S
Fe113 O114 2.002 . S
Fe113 O123 1.976 . S
Fe113 O127 1.996 . S
Fe113 O130 1.997 . S
O114 Fe113 2.002 . S
O114 C131 1.295 . S
O115 Fe110 1.997 . S
O115 C131 1.235 . S
O116 Fe110 2.002 1_554 S
O116 C117 1.295 . S
C117 O116 1.295 . S
C117 O119 1.235 . S
C118 O123 1.287 . S
C118 O124 1.255 . S
O119 Fe111 1.997 1_554 S
O119 C117 1.235 . S
C120 O126 1.287 . S
C120 O127 1.255 . S
O121 Fe110 1.976 . S
O121 C128 1.287 . S
O122 Fe111 1.996 . S
O122 C128 1.255 . S
O123 Fe113 1.976 . S
O123 C118 1.287 . S
O124 Fe110 1.996 . S
O124 C118 1.255 . S
C125 O129 1.295 . S
C125 O130 1.235 1_554 S
O126 Fe111 1.976 . S
O126 C120 1.287 . S
O127 Fe113 1.996 . S
O127 C120 1.255 . S
C128 O121 1.287 . S
C128 O122 1.255 . S
O129 Fe111 2.002 1_554 S
O129 C125 1.295 . S
O130 Fe113 1.997 . S
O130 C125 1.235 1_556 S
C131 O114 1.295 . S
C131 O115 1.235 . S
Fe132 O134 1.918 . S
Fe132 O137 1.997 . S
Fe132 O138 2.002 . S
Fe132 O143 1.976 . S
Fe132 O146 1.996 1_556 S
Fe133 O134 1.918 . S
Fe133 O141 1.997 . S
Fe133 O144 1.996 . S
Fe133 O148 1.976 . S
Fe133 O151 2.002 . S
O134 Fe132 1.918 . S
O134 Fe133 1.918 . S
O134 Fe135 1.918 . S
Fe135 O134 1.918 . S
Fe135 O136 2.002 . S
Fe135 O145 1.976 1_556 S
Fe135 O149 1.996 1_556 S
Fe135 O152 1.997 . S
O136 Fe135 2.002 . S
O136 C153 1.295 . S
O137 Fe132 1.997 . S
O137 C153 1.235 . S
O138 Fe132 2.002 . S
O138 C139 1.295 . S
C139 O138 1.295 . S
C139 O141 1.235 . S
C140 O145 1.287 . S
C140 O146 1.255 . S
O141 Fe133 1.997 . S
O141 C139 1.235 . S
C142 O148 1.287 1_554 S
C142 O149 1.255 . S
O143 Fe132 1.976 . S
O143 C150 1.287 . S
O144 Fe133 1.996 . S
O144 C150 1.255 . S
O145 Fe135 1.976 1_554 S
O145 C140 1.287 . S
O146 Fe132 1.996 1_554 S
O146 C140 1.255 . S
C147 O151 1.295 . S
C147 O152 1.235 . S
O148 Fe133 1.976 . S
O148 C142 1.287 1_556 S
O149 Fe135 1.996 1_554 S
O149 C142 1.255 . S
C150 O143 1.287 . S
C150 O144 1.255 . S
O151 Fe133 2.002 . S
O151 C147 1.295 . S
O152 Fe135 1.997 . S
O152 C147 1.235 . S
C153 O136 1.295 . S
C153 O137 1.235 . S
Fe154 O156 1.918 . S
Fe154 O159 1.997 1_554 S
Fe154 O160 2.002 1_554 S
Fe154 O165 1.976 . S
Fe154 O168 1.996 . S
Fe155 O156 1.918 1_556 S
Fe155 O163 1.997 . S
Fe155 O166 1.996 . S
Fe155 O170 1.976 1_556 S
Fe155 O173 2.002 . S
O156 Fe154 1.918 . S
O156 Fe155 1.918 1_554 S
O156 Fe157 1.918 . S
Fe157 O156 1.918 . S
Fe157 O158 2.002 . S
Fe157 O167 1.976 . S
Fe157 O171 1.996 . S
Fe157 O174 1.997 1_554 S
O158 Fe157 2.002 . S
O158 C175 1.295 1_554 S
O159 Fe154 1.997 1_556 S
O159 C175 1.235 . S
O160 Fe154 2.002 1_556 S
O160 C161 1.295 . S
C161 O160 1.295 . S
C161 O163 1.235 . S
C162 O167 1.287 . S
C162 O168 1.255 . S
O163 Fe155 1.997 . S
O163 C161 1.235 . S
C164 O170 1.287 . S
C164 O171 1.255 . S
O165 Fe154 1.976 . S
O165 C172 1.287 . S
O166 Fe155 1.996 . S
O166 C172 1.255 1_556 S
O167 Fe157 1.976 . S
O167 C162 1.287 . S
O168 Fe154 1.996 . S
O168 C162 1.255 . S
C169 O173 1.295 . S
C169 O174 1.235 . S
O170 Fe155 1.976 1_554 S
O170 C164 1.287 . S
O171 Fe157 1.996 . S
O171 C164 1.255 . S
C172 O165 1.287 . S
C172 O166 1.255 1_554 S
O173 Fe155 2.002 . S
O173 C169 1.295 . S
O174 Fe157 1.997 1_556 S
O174 C169 1.235 . S
C175 O158 1.295 1_556 S
C175 O159 1.235 . S
Fe176 O178 1.918 . S
Fe176 O181 1.997 . S
Fe176 O182 2.002 1_554 S
Fe176 O187 1.976 . S
Fe176 O190 1.996 . S
Fe177 O178 1.918 . S
Fe177 O185 1.997 1_554 S
Fe177 O188 1.996 . S
Fe177 O192 1.976 . S
Fe177 O195 2.002 1_554 S
O178 Fe176 1.918 . S
O178 Fe177 1.918 . S
O178 Fe179 1.918 . S
Fe179 O178 1.918 . S
Fe179 O180 2.002 . S
Fe179 O189 1.976 . S
Fe179 O193 1.996 . S
Fe179 O196 1.997 . S
O180 Fe179 2.002 . S
O180 C197 1.295 . S
O181 Fe176 1.997 . S
O181 C197 1.235 . S
O182 Fe176 2.002 1_556 S
O182 C183 1.295 . S
C183 O182 1.295 . S
C183 O185 1.235 . S
C184 O189 1.287 . S
C184 O190 1.255 . S
O185 Fe177 1.997 1_556 S
O185 C183 1.235 . S
C186 O192 1.287 . S
C186 O193 1.255 . S
O187 Fe176 1.976 . S
O187 C194 1.287 . S
O188 Fe177 1.996 . S
O188 C194 1.255 . S
O189 Fe179 1.976 . S
O189 C184 1.287 . S
O190 Fe176 1.996 . S
O190 C184 1.255 . S
C191 O195 1.295 . S
C191 O196 1.235 1_556 S
O192 Fe177 1.976 . S
O192 C186 1.287 . S
O193 Fe179 1.996 . S
O193 C186 1.255 . S
C194 O187 1.287 . S
C194 O188 1.255 . S
O195 Fe177 2.002 1_556 S
O195 C191 1.295 . S
O196 Fe179 1.997 . S
O196 C191 1.235 1_554 S
C197 O180 1.295 . S
C197 O181 1.235 . S
Fe198 O200 1.918 . S
Fe198 O203 1.997 . S
Fe198 O204 2.002 . S
Fe198 O209 1.976 . S
Fe198 O212 1.996 . S
Fe199 O200 1.918 . S
Fe199 O207 1.997 1_554 S
Fe199 O210 1.996 . S
Fe199 O214 1.976 . S
Fe199 O217 2.002 . S
O200 Fe198 1.918 . S
O200 Fe199 1.918 . S
O200 Fe201 1.918 . S
Fe201 O200 1.918 . S
Fe201 O202 2.002 . S
Fe201 O211 1.976 . S
Fe201 O215 1.996 . S
Fe201 O218 1.997 . S
O202 Fe201 2.002 . S
O202 C219 1.295 . S
O203 Fe198 1.997 . S
O203 C219 1.235 . S
O204 Fe198 2.002 . S
O204 C205 1.295 1_554 S
C205 O204 1.295 1_556 S
C205 O207 1.235 . S
C206 O211 1.287 . S
C206 O212 1.255 . S
O207 Fe199 1.997 1_556 S
O207 C205 1.235 . S
C208 O214 1.287 . S
C208 O215 1.255 . S
O209 Fe198 1.976 . S
O209 C216 1.287 . S
O210 Fe199 1.996 . S
O210 C216 1.255 . S
O211 Fe201 1.976 . S
O211 C206 1.287 . S
O212 Fe198 1.996 . S
O212 C206 1.255 . S
C213 O217 1.295 . S
C213 O218 1.235 . S
O214 Fe199 1.976 . S
O214 C208 1.287 . S
O215 Fe201 1.996 . S
O215 C208 1.255 . S
C216 O209 1.287 . S
C216 O210 1.255 . S
O217 Fe199 2.002 . S
O217 C213 1.295 . S
O218 Fe201 1.997 . S
O218 C213 1.235 . S
C219 O202 1.295 . S
C219 O203 1.235 . S
Fe220 O222 1.918 . S
Fe220 O225 1.997 . S
Fe220 O226 2.002 . S
Fe220 O231 1.976 . S
Fe220 O234 1.996 . S
Fe221 O222 1.918 . S
Fe221 O229 1.997 . S
Fe221 O232 1.996 . S
Fe221 O236 1.976 . S
Fe221 O239 2.002 . S
O222 Fe220 1.918 . S
O222 Fe221 1.918 . S
O222 Fe223 1.918 . S
Fe223 O222 1.918 . S
Fe223 O224 2.002 . S
Fe223 O233 1.976 . S
Fe223 O237 1.996 . S
Fe223 O240 1.997 . S
O224 Fe223 2.002 . S
O224 C241 1.295 . S
O225 Fe220 1.997 . S
O225 C241 1.235 . S
O226 Fe220 2.002 . S
O226 C227 1.295 . S
C227 O226 1.295 . S
C227 O229 1.235 . S
C228 O233 1.287 . S
C228 O234 1.255 . S
O229 Fe221 1.997 . S
O229 C227 1.235 . S
C230 O236 1.287 . S
C230 O237 1.255 . S
O231 Fe220 1.976 . S
O231 C238 1.287 . S
O232 Fe221 1.996 . S
O232 C238 1.255 . S
O233 Fe223 1.976 . S
O233 C228 1.287 . S
O234 Fe220 1.996 . S
O234 C228 1.255 . S
C235 O239 1.295 . S
C235 O240 1.235 . S
O236 Fe221 1.976 . S
O236 C230 1.287 . S
O237 Fe223 1.996 . S
O237 C230 1.255 . S
C238 O231 1.287 . S
C238 O232 1.255 . S
O239 Fe221 2.002 . S
O239 C235 1.295 . S
O240 Fe223 1.997 . S
O240 C235 1.235 . S
C241 O224 1.295 . S
C241 O225 1.235 . S
Fe242 O244 1.918 . S
Fe242 O247 1.997 . S
Fe242 O248 2.002 . S
Fe242 O253 1.976 . S
Fe242 O256 1.996 . S
Fe243 O244 1.918 . S
Fe243 O251 1.997 . S
Fe243 O254 1.996 . S
Fe243 O258 1.976 . S
Fe243 O261 2.002 . S
O244 Fe242 1.918 . S
O244 Fe243 1.918 . S
O244 Fe245 1.918 . S
Fe245 O244 1.918 . S
Fe245 O246 2.002 . S
Fe245 O255 1.976 1_556 S
Fe245 O259 1.996 . S
Fe245 O262 1.997 . S
O246 Fe245 2.002 . S
O246 C263 1.295 . S
O247 Fe242 1.997 . S
O247 C263 1.235 . S
O248 Fe242 2.002 . S
O248 C249 1.295 . S
C249 O248 1.295 . S
C249 O251 1.235 . S
C250 O255 1.287 . S
C250 O256 1.255 1_554 S
O251 Fe243 1.997 . S
O251 C249 1.235 . S
C252 O258 1.287 . S
C252 O259 1.255 . S
O253 Fe242 1.976 . S
O253 C260 1.287 . S
O254 Fe243 1.996 . S
O254 C260 1.255 . S
O255 Fe245 1.976 1_554 S
O255 C250 1.287 . S
O256 Fe242 1.996 . S
O256 C250 1.255 1_556 S
C257 O261 1.295 . S
C257 O262 1.235 . S
O258 Fe243 1.976 . S
O258 C252 1.287 . S
O259 Fe245 1.996 . S
O259 C252 1.255 . S
C260 O253 1.287 . S
C260 O254 1.255 . S
O261 Fe243 2.002 . S
O261 C257 1.295 . S
O262 Fe245 1.997 . S
O262 C257 1.235 . S
C263 O246 1.295 . S
C263 O247 1.235 . S
C10 C21 2.317 . S
C30 C29 2.317 . S
C65 C54 2.317 . S
C74 C73 2.317 1_554 S
C103 C106 2.317 . S
C118 C117 2.317 . S
C140 C139 2.317 . S
C161 C162 2.317 . S
C183 C184 2.317 . S
C205 C206 2.317 . S
C228 C227 2.317 1_556 S
C249 C250 2.317 . S
C8 C172 1.546 1_545 S
C194 C40 1.546 . S
C216 C52 1.546 1_455 S
C84 C238 1.546 1_565 S
C98 C260 1.547 . S
C128 C150 1.546 1_455 S
C18 C230 1.155 . S
C32 C252 1.155 . S
C142 C62 1.155 . S
C76 C164 1.155 . S
C96 C186 1.155 . S
C208 C120 1.155 . S
C15 C197 1.227 . S
C219 C43 1.226 . S
C241 C59 1.226 . S
C87 C263 1.227 . S
C153 C95 1.227 . S
C131 C175 1.226 . S
C7 C235 1.648 . S
C37 C257 1.647 . S
C51 C147 1.647 . S
C169 C81 1.647 . S
C109 C191 1.647 . S
C213 C125 1.647 . S
