# Generated by pormake.
# Topology smc, (6)-cn, num edge types: 1
# Building blocks:
#     Node 0, Type 0, BuildingBlock: BETFEN_clean_sbu_0, # of connection points: 6
#     Node 1, Type 0, BuildingBlock: BETFEN_clean_sbu_0, # of connection points: 6
#     Node 2, Type 0, BuildingBlock: BETFEN_clean_sbu_0, # of connection points: 6
#     Node 3, Type 0, BuildingBlock: BETFEN_clean_sbu_0, # of connection points: 6
#     Node 4, Type 0, BuildingBlock: BETFEN_clean_sbu_0, # of connection points: 6
#     Node 5, Type 0, BuildingBlock: BETFEN_clean_sbu_0, # of connection points: 6
#     Node 6, Type 0, BuildingBlock: BETFEN_clean_sbu_0, # of connection points: 6
#     Node 7, Type 0, BuildingBlock: BETFEN_clean_sbu_0, # of connection points: 6
#     Node 8, Type 0, BuildingBlock: BETFEN_clean_sbu_0, # of connection points: 6
#     Edge 9, Type (0, 0), BuildingBlock: CIFDUS_clean_linker_0, # of connection points: 2
#     Edge 10, Type (0, 0), BuildingBlock: CIFDUS_clean_linker_0, # of connection points: 2
#     Edge 11, Type (0, 0), BuildingBlock: CIFDUS_clean_linker_0, # of connection points: 2
#     Edge 12, Type (0, 0), BuildingBlock: CIFDUS_clean_linker_0, # of connection points: 2
#     Edge 13, Type (0, 0), BuildingBlock: CIFDUS_clean_linker_0, # of connection points: 2
#     Edge 14, Type (0, 0), BuildingBlock: CIFDUS_clean_linker_0, # of connection points: 2
#     Edge 15, Type (0, 0), BuildingBlock: CIFDUS_clean_linker_0, # of connection points: 2
#     Edge 16, Type (0, 0), BuildingBlock: CIFDUS_clean_linker_0, # of connection points: 2
#     Edge 17, Type (0, 0), BuildingBlock: CIFDUS_clean_linker_0, # of connection points: 2
#     Edge 18, Type (0, 0), BuildingBlock: CIFDUS_clean_linker_0, # of connection points: 2
#     Edge 19, Type (0, 0), BuildingBlock: CIFDUS_clean_linker_0, # of connection points: 2
#     Edge 20, Type (0, 0), BuildingBlock: CIFDUS_clean_linker_0, # of connection points: 2
#     Edge 21, Type (0, 0), BuildingBlock: CIFDUS_clean_linker_0, # of connection points: 2
#     Edge 22, Type (0, 0), BuildingBlock: CIFDUS_clean_linker_0, # of connection points: 2
#     Edge 23, Type (0, 0), BuildingBlock: CIFDUS_clean_linker_0, # of connection points: 2
#     Edge 24, Type (0, 0), BuildingBlock: CIFDUS_clean_linker_0, # of connection points: 2
#     Edge 25, Type (0, 0), BuildingBlock: CIFDUS_clean_linker_0, # of connection points: 2
#     Edge 26, Type (0, 0), BuildingBlock: CIFDUS_clean_linker_0, # of connection points: 2
#     Edge 27, Type (0, 0), BuildingBlock: CIFDUS_clean_linker_0, # of connection points: 2
#     Edge 28, Type (0, 0), BuildingBlock: CIFDUS_clean_linker_0, # of connection points: 2
#     Edge 29, Type (0, 0), BuildingBlock: CIFDUS_clean_linker_0, # of connection points: 2
#     Edge 30, Type (0, 0), BuildingBlock: CIFDUS_clean_linker_0, # of connection points: 2
#     Edge 31, Type (0, 0), BuildingBlock: CIFDUS_clean_linker_0, # of connection points: 2
#     Edge 32, Type (0, 0), BuildingBlock: CIFDUS_clean_linker_0, # of connection points: 2
#     Edge 33, Type (0, 0), BuildingBlock: CIFDUS_clean_linker_0, # of connection points: 2
#     Edge 34, Type (0, 0), BuildingBlock: CIFDUS_clean_linker_0, # of connection points: 2
#     Edge 35, Type (0, 0), BuildingBlock: CIFDUS_clean_linker_0, # of connection points: 2
# Relax obj value: 0.188
# Max RMSD: 0.324
# Mean RMSD: 0.324
data_MOF--net-smc--node1-BETFEN_clean_sbu_0--edge1-CIFDUS_clean_linker_0
_symmetry_space_group_name_H-M    P1
_symmetry_Int_Tables_number       1
_symmetry_cell_setting            triclinic
loop_
_symmetry_equiv_pos_as_xyz
'x, y, z'
_cell_length_a     36.178199
_cell_length_b     36.139764
_cell_length_c     34.238444
_cell_angle_alpha  90.306451
_cell_angle_beta   90.095419
_cell_angle_gamma 119.97265
loop_
_atom_site_label
_atom_site_type_symbol
_atom_site_fract_x
_atom_site_fract_y
_atom_site_fract_z
_atom_type_partial_charge
Pr0 Pr 1.01464 0.4687 0.03696 0.0
Pr1 Pr 0.07094 0.43709 1.01357 0.0
C2 C 0.971 0.51045 0.04824 0.0
C3 C 0.93318 0.51607 0.04846 0.0
C4 C 0.92042 0.5261 0.08379 0.0
C5 C 0.89047 0.53983 0.08411 0.0
C6 C 0.87279 0.54419 0.04901 0.0
C7 C 0.8839 0.53184 1.01381 0.0
C8 C 0.91376 0.51796 1.01353 0.0
C9 C 0.05774 0.45682 0.10034 0.0
C10 C 0.96785 0.36749 0.03619 0.0
C11 C 0.12658 0.40832 1.0065 0.0
C12 C 0.17382 0.42825 1.00616 0.0
C13 C 0.19377 0.4245 0.97248 0.0
C14 C 0.23819 0.44358 0.97071 0.0
C15 C 0.26405 0.46682 1.00272 0.0
C16 C 0.24417 0.47122 0.03632 0.0
C17 C 0.19952 0.45207 0.03806 0.0
C18 C 1.02407 0.43865 0.94846 0.0
C19 C 0.11102 0.54051 1.01054 0.0
O20 O 0.98837 0.50985 1.01495 0.0
O21 O 0.97624 0.48851 0.07571 0.0
O22 O 0.07457 0.47465 0.06846 0.0
O23 O 1.01756 0.44516 0.10049 0.0
O24 O 1.00716 0.3731 0.03421 0.0
O25 O 0.96108 0.39955 0.03138 0.0
O26 O 0.10799 0.4075 0.03952 0.0
O27 O 0.10969 0.41687 0.97662 0.0
O28 O 1.00919 0.42654 0.98247 0.0
O29 O 0.06527 0.45549 0.94923 0.0
O30 O 0.07075 0.53 1.01005 0.0
O31 O 0.12143 0.51084 1.01623 0.0
H32 H 0.935 0.52509 0.11113 0.0
H33 H 0.88191 0.54793 0.11184 0.0
H34 H 0.87112 0.5348 0.98613 0.0
H35 H 0.92299 0.51057 0.98578 0.0
H36 H 0.17491 0.40675 0.94731 0.0
H37 H 0.25233 0.44007 0.9441 0.0
H38 H 0.26301 0.48856 0.06162 0.0
H39 H 0.18526 0.45578 0.06443 0.0
Pr40 Pr 0.58438 0.55258 0.03847 0.0
Pr41 Pr 0.62339 0.64225 1.01701 0.0
C42 C 0.54988 0.46801 0.05187 0.0
C43 C 0.54423 0.42464 0.04767 0.0
C44 C 0.53238 0.39832 0.08057 0.0
C45 C 0.5189 0.35479 0.07692 0.0
C46 C 0.51734 0.33627 0.04014 0.0
C47 C 0.53189 0.36357 1.00743 0.0
C48 C 0.54476 0.40712 1.01108 0.0
C49 C 0.59264 0.60853 0.10127 0.0
C50 C 0.68843 0.60225 0.03015 0.0
C51 C 0.65008 0.72671 1.01466 0.0
C52 C 0.62626 0.75075 1.01438 0.0
C53 C 0.62525 0.77234 0.9807 0.0
C54 C 0.60152 0.79351 0.97977 0.0
C55 C 0.5782 0.79397 1.0126 0.0
C56 C 0.57961 0.77257 0.0464 0.0
C57 C 0.60312 0.75126 0.04725 0.0
C58 C 0.61309 0.59421 0.94894 0.0
C59 C 0.51978 0.58172 1.01234 0.0
O60 O 0.53857 0.4837 0.02291 0.0
O61 O 0.58028 0.49702 0.07385 0.0
O62 O 0.62006 0.61369 0.07646 0.0
O63 O 0.55771 0.57293 0.0941 0.0
O64 O 0.68753 0.63811 0.02316 0.0
O65 O 0.65322 0.5656 0.03543 0.0
O66 O 0.64874 0.70671 0.04675 0.0
O67 O 0.64724 0.70445 0.98345 0.0
O68 O 0.62388 0.5869 0.98207 0.0
O69 O 0.59992 0.62153 0.95281 0.0
O70 O 0.53 0.55284 1.00347 0.0
O71 O 0.54971 0.61856 0.02669 0.0
H72 H 0.53142 0.411 0.10907 0.0
H73 H 0.50771 0.33549 0.10293 0.0
H74 H 0.5326 0.35128 0.97872 0.0
H75 H 0.55385 0.42674 0.98516 0.0
H76 H 0.6425 0.7725 0.95482 0.0
H77 H 0.60099 0.80893 0.95293 0.0
H78 H 0.56292 0.77261 0.0726 0.0
H79 H 0.60295 0.73504 0.07382 0.0
Pr80 Pr 0.50758 0.04851 0.03242 0.0
Pr81 Pr 0.41847 0.99015 1.01485 0.0
C82 C 0.59386 0.09437 0.03622 0.0
C83 C 0.63571 0.13387 0.0421 0.0
C84 C 0.65527 0.144 0.07914 0.0
C85 C 0.69781 0.17641 0.08358 0.0
C86 C 0.72202 0.19919 0.05104 0.0
C87 C 0.70198 0.19029 1.01423 0.0
C88 C 0.65931 0.158 1.00981 0.0
C89 C 0.4576 1.00488 0.09858 0.0
C90 C 0.45175 0.09257 0.04379 0.0
C91 C 0.3338 0.93375 1.01158 0.0
C92 C 0.30533 0.88687 1.01243 0.0
C93 C 0.26842 0.86847 0.98921 0.0
C94 C 0.24153 0.82418 0.988 0.0
C95 C 0.25068 0.79699 1.01022 0.0
C96 C 0.28821 0.81549 0.03305 0.0
C97 C 0.31537 0.86002 0.03402 0.0
C98 C 0.45847 0.0395 0.94845 0.0
C99 C 0.48438 0.95452 1.00112 0.0
O100 O 0.57216 0.08935 1.00414 0.0
O101 O 0.56982 0.075 0.06629 0.0
O102 O 0.45734 0.98816 0.06594 0.0
O103 O 0.48519 0.0455 0.0981 0.0
O104 O 0.41873 0.05269 0.04175 0.0
O105 O 0.49053 0.10103 0.0358 0.0
O106 O 0.35357 0.95319 0.04384 0.0
O107 O 0.3578 0.94859 0.98074 0.0
O108 O 0.4648 0.05351 0.98335 0.0
O109 O 0.43583 0.99808 0.94831 0.0
O110 O 0.5109 0.99535 0.99662 0.0
O111 O 0.44568 0.94218 1.01417 0.0
H112 H 0.63831 0.12571 0.10455 0.0
H113 H 0.71232 0.18232 0.11232 0.0
H114 H 0.71953 0.2078 0.98871 0.0
H115 H 0.64537 0.15085 0.9808 0.0
H116 H 0.26049 0.88845 0.97169 0.0
H117 H 0.21354 0.8112 0.96936 0.0
H118 H 0.29624 0.79567 0.05064 0.0
H119 H 0.34417 0.87336 0.05151 0.0
Pr120 Pr 0.67776 0.80065 0.36489 0.0
Pr121 Pr 0.73478 0.76803 0.35266 0.0
C122 C 0.6329 0.84202 0.36837 0.0
C123 C 0.59781 0.85159 0.36345 0.0
C124 C 0.58049 0.85988 0.3968 0.0
C125 C 0.55211 0.87535 0.39329 0.0
C126 C 0.54092 0.88348 0.35635 0.0
C127 C 0.557 0.87394 0.32285 0.0
C128 C 0.58516 0.85799 0.32635 0.0
C129 C 0.70713 0.78276 0.43544 0.0
C130 C 0.63141 0.70013 0.3644 0.0
C131 C 0.79203 0.74097 0.34977 0.0
C132 C 0.83955 0.76457 0.34719 0.0
C133 C 0.85959 0.7706 0.3107 0.0
C134 C 0.90409 0.79481 0.30746 0.0
C135 C 0.92992 0.81336 0.34068 0.0
C136 C 0.90993 0.80701 0.37727 0.0
C137 C 0.86536 0.783 0.38049 0.0
C138 C 0.69859 0.77293 0.2811 0.0
C139 C 0.77716 0.87103 0.3507 0.0
O140 O 0.6562 0.84404 0.33844 0.0
O141 O 0.63214 0.81713 0.39626 0.0
O142 O 0.73043 0.80263 0.4067 0.0
O143 O 0.66805 0.77285 0.42832 0.0
O144 O 0.66988 0.70657 0.37372 0.0
O145 O 0.62698 0.73148 0.35051 0.0
O146 O 0.77481 0.74373 0.38242 0.0
O147 O 0.77156 0.74279 0.31913 0.0
O148 O 0.67839 0.75918 0.3127 0.0
O149 O 0.7393 0.79085 0.28783 0.0
O150 O 0.73817 0.86174 0.34241 0.0
O151 O 0.78476 0.84084 0.36212 0.0
H152 H 0.58999 0.85573 0.42574 0.0
H153 H 0.53975 0.8821 0.41952 0.0
H154 H 0.54796 0.87906 0.29407 0.0
H155 H 0.59789 0.8518 0.30009 0.0
H156 H 0.84081 0.75682 0.28444 0.0
H157 H 0.91832 0.79843 0.27892 0.0
H158 H 0.92875 0.82109 0.40345 0.0
H159 H 0.85116 0.77928 0.40907 0.0
Pr160 Pr 0.25736 0.88812 0.36841 0.0
Pr161 Pr 0.28769 0.97493 0.34561 0.0
C162 C 0.23162 0.80447 0.3717 0.0
C163 C 0.2175 0.75849 0.37359 0.0
C164 C 0.22017 0.74028 0.40871 0.0
C165 C 0.20406 0.69616 0.41127 0.0
C166 C 0.18334 0.66877 0.37909 0.0
C167 C 0.18208 0.6878 0.34353 0.0
C168 C 0.19947 0.73213 0.34074 0.0
C169 C 0.26645 0.94159 0.43312 0.0
C170 C 0.35522 0.94195 0.37929 0.0
C171 C 0.31364 0.05885 0.34076 0.0
C172 C 0.29092 0.08341 0.34478 0.0
C173 C 0.3006 0.11722 0.31923 0.0
C174 C 0.27688 0.13825 0.31971 0.0
C175 C 0.24279 0.12629 0.346 0.0
C176 C 0.23315 0.09221 0.37164 0.0
C177 C 0.25677 0.07092 0.3709 0.0
C178 C 0.29334 0.9312 0.28044 0.0
C179 C 0.18285 0.90743 0.34364 0.0
O180 O 0.25775 0.82935 0.34475 0.0
O181 O 0.21863 0.82302 0.3967 0.0
O182 O 0.25031 0.94152 0.40023 0.0
O183 O 0.27656 0.9118 0.43344 0.0
O184 O 0.35241 0.97036 0.35656 0.0
O185 O 0.32147 0.91434 0.39763 0.0
O186 O 0.31929 0.04169 0.37227 0.0
O187 O 0.30241 0.03345 0.31039 0.0
O188 O 0.3022 0.92643 0.31549 0.0
O189 O 0.27176 0.95123 0.28094 0.0
O190 O 0.19342 0.87779 0.34405 0.0
O191 O 0.21254 0.94803 0.34726 0.0
H192 H 0.23464 0.76019 0.43429 0.0
H193 H 0.20774 0.68379 0.43879 0.0
H194 H 0.16639 0.66866 0.31794 0.0
H195 H 0.19725 0.74562 0.31325 0.0
H196 H 0.32608 0.12684 0.2982 0.0
H197 H 0.28489 0.16344 0.29876 0.0
H198 H 0.20753 0.08208 0.39254 0.0
H199 H 0.24798 0.04433 0.39044 0.0
Pr200 Pr 0.16957 0.38406 0.37727 0.0
Pr201 Pr 0.08011 0.31996 0.34706 0.0
C202 C 0.25336 0.43835 0.38641 0.0
C203 C 0.29711 0.47417 0.38305 0.0
C204 C 0.32825 0.4751 0.40795 0.0
C205 C 0.37121 0.50528 0.40284 0.0
C206 C 0.38401 0.53569 0.37286 0.0
C207 C 0.35211 0.53597 0.34916 0.0
C208 C 0.30901 0.50514 0.35397 0.0
C209 C 0.12045 0.33314 0.44148 0.0
C210 C 0.10538 0.42227 0.37006 0.0
C211 C 0.99683 0.2618 0.33638 0.0
C212 C 0.97055 0.21476 0.33664 0.0
C213 C 0.93574 0.19436 0.31103 0.0
C214 C 0.91192 0.14975 0.30897 0.0
C215 C 0.92256 0.1244 0.33235 0.0
C216 C 0.95732 0.14511 0.35842 0.0
C217 C 0.98113 0.18984 0.36047 0.0
C218 C 0.13054 0.37147 0.28584 0.0
C219 C 0.15279 0.29088 0.34696 0.0
O220 O 0.23797 0.40841 0.35949 0.0
O221 O 0.22472 0.44188 0.40687 0.0
O222 O 0.10933 0.3307 0.4065 0.0
O223 O 0.16015 0.3624 0.4443 0.0
O224 O 0.07494 0.38326 0.35895 0.0
O225 O 0.14465 0.43118 0.37706 0.0
O226 O 1.01261 0.28098 0.36983 0.0
O227 O 1.02394 0.27802 0.30771 0.0
O228 O 0.13137 0.38403 0.32084 0.0
O229 O 0.11101 0.32992 0.28538 0.0
O230 O 0.17908 0.33226 0.34634 0.0
O231 O 0.11158 0.27585 0.35286 0.0
H232 H 0.31951 0.45127 0.43052 0.0
H233 H 0.39437 0.50329 0.42139 0.0
H234 H 0.36039 0.55947 0.32641 0.0
H235 H 0.28522 0.5049 0.33455 0.0
H236 H 0.92718 0.21298 0.29225 0.0
H237 H 0.885 0.13517 0.28907 0.0
H238 H 0.96686 0.12685 0.37657 0.0
H239 H 1.00822 0.20492 0.3802 0.0
Pr240 Pr 0.34405 0.13901 0.69842 0.0
Pr241 Pr 0.39997 0.10419 0.68015 0.0
C242 C 0.30036 0.18175 0.70146 0.0
C243 C 0.25996 0.18305 0.70126 0.0
C244 C 0.24154 0.18489 0.73674 0.0
C245 C 0.20773 0.19315 0.7373 0.0
C246 C 0.19155 0.20016 0.70243 0.0
C247 C 0.20909 0.19721 0.66677 0.0
C248 C 0.24294 0.18868 0.66618 0.0
C249 C 0.38178 0.12467 0.76537 0.0
C250 C 0.29491 0.03627 0.69785 0.0
C251 C 0.45813 0.07838 0.67447 0.0
C252 C 0.50542 0.10153 0.67734 0.0
C253 C 0.52882 0.08793 0.65485 0.0
C254 C 0.57356 0.11138 0.65466 0.0
C255 C 0.59621 0.14916 0.67704 0.0
C256 C 0.5725 0.16279 0.69946 0.0
C257 C 0.52767 0.13933 0.69952 0.0
C258 C 0.35811 0.10801 0.61205 0.0
C259 C 0.44238 0.20791 0.67861 0.0
O260 O 0.31365 0.17333 0.66894 0.0
O261 O 0.311 0.16819 0.73252 0.0
O262 O 0.40049 0.14185 0.73386 0.0
O263 O 0.34188 0.11412 0.76288 0.0
O264 O 0.33371 0.04028 0.6969 0.0
O265 O 0.28992 0.06965 0.69407 0.0
O266 O 0.4366 0.07423 0.70645 0.0
O267 O 0.44273 0.08817 0.64431 0.0
O268 O 0.34105 0.09649 0.64539 0.0
O269 O 0.39903 0.12347 0.61507 0.0
O270 O 0.40311 0.19879 0.67203 0.0
O271 O 0.44997 0.17748 0.68946 0.0
H272 H 0.25424 0.18149 0.7643 0.0
H273 H 0.19521 0.19557 0.76532 0.0
H274 H 0.19691 0.20186 0.63942 0.0
H275 H 0.25663 0.18786 0.63831 0.0
H276 H 0.51244 0.05945 0.63683 0.0
H277 H 0.59035 0.10018 0.63631 0.0
H278 H 0.58854 0.19141 0.7173 0.0
H279 H 0.51037 0.15098 0.71662 0.0
Pr280 Pr 0.92661 0.22445 0.70303 0.0
Pr281 Pr 0.95153 0.31121 0.67719 0.0
C282 C 0.90786 0.14282 0.7034 0.0
C283 C 0.89703 0.09768 0.70394 0.0
C284 C 0.8606 0.06734 0.7238 0.0
C285 C 0.84661 0.02382 0.71997 0.0
C286 C 0.8688 1.00962 0.69622 0.0
C287 C 0.90677 0.04031 0.6782 0.0
C288 C 0.9207 0.08391 0.68197 0.0
C289 C 0.92672 0.26872 0.7719 0.0
C290 C 1.02631 0.28623 0.70533 0.0
C291 C 0.97572 0.39455 0.66905 0.0
C292 C 0.95488 0.4208 0.67442 0.0
C293 C 0.94285 0.4357 0.6416 0.0
C294 C 0.9228 0.46011 0.64602 0.0
C295 C 0.91488 0.47073 0.6834 0.0
C296 C 0.92666 0.45565 0.71624 0.0
C297 C 0.94625 0.43083 0.71185 0.0
C298 C 0.94891 0.26172 0.61341 0.0
C299 C 0.85036 0.23911 0.67607 0.0
O300 O 0.94478 0.17361 0.69126 0.0
O301 O 0.88111 0.15479 0.71558 0.0
O302 O 0.93568 0.28414 0.73805 0.0
O303 O 0.91518 0.22851 0.77063 0.0
O304 O 1.01899 0.31229 0.68329 0.0
O305 O 0.99497 0.25499 0.72393 0.0
O306 O 0.98448 0.37946 0.70022 0.0
O307 O 0.96145 0.36713 0.64017 0.0
O308 O 0.96414 0.26161 0.64687 0.0
O309 O 0.92826 0.28259 0.61477 0.0
O310 O 0.86664 0.21445 0.67001 0.0
O311 O 0.87622 0.2795 0.68575 0.0
H312 H 0.84193 0.0771 0.74122 0.0
H313 H 0.8172 1.00132 0.73419 0.0
H314 H 0.92529 0.03066 0.66043 0.0
H315 H 0.94908 0.10667 0.6665 0.0
H316 H 0.94914 0.42864 0.61238 0.0
H317 H 0.9146 0.47172 0.62019 0.0
H318 H 0.92076 0.46316 0.74543 0.0
H319 H 0.95476 0.41971 0.73781 0.0
Pr320 Pr 0.83264 0.71131 0.70257 0.0
Pr321 Pr 0.74226 0.65729 0.67876 0.0
C322 C 0.91603 0.76494 0.71839 0.0
C323 C 0.96163 0.79905 0.71867 0.0
C324 C 0.98255 0.81736 0.75411 0.0
C325 C 1.02676 0.84582 0.75519 0.0
C326 C 0.05141 0.85639 0.72082 0.0
C327 C 0.02982 0.83877 0.6852 0.0
C328 C 0.98563 0.81075 0.68415 0.0
C329 C 0.77302 0.6695 0.76435 0.0
C330 C 0.7793 0.76128 0.69052 0.0
C331 C 0.65801 0.60044 0.67774 0.0
C332 C 0.6335 0.55316 0.67345 0.0
C333 C 0.59794 0.53358 0.64853 0.0
C334 C 0.57459 0.48896 0.64453 0.0
C335 C 0.58629 0.46268 0.6653 0.0
C336 C 0.62212 0.48255 0.6902 0.0
C337 C 0.64544 0.52714 0.69416 0.0
C338 C 0.79068 0.69368 0.6112 0.0
C339 C 0.80489 0.61551 0.67995 0.0
O340 O 0.90198 0.7367 0.69007 0.0
O341 O 0.88611 0.76623 0.73878 0.0
O342 O 0.77075 0.68966 0.73607 0.0
O343 O 0.8084 0.66858 0.76189 0.0
O344 O 0.74384 0.72341 0.68842 0.0
O345 O 0.81748 0.76521 0.69087 0.0
O346 O 0.68039 0.6151 0.70986 0.0
O347 O 0.67815 0.62269 0.64694 0.0
O348 O 0.79779 0.71246 0.64417 0.0
O349 O 0.76336 0.65331 0.61539 0.0
O350 O 0.83553 0.65469 0.67457 0.0
O351 O 0.7664 0.6079 0.68939 0.0
H352 H 0.96485 0.80884 0.78121 0.0
H353 H 0.04152 0.85924 0.78314 0.0
H354 H 0.04705 0.84526 0.65799 0.0
H355 H 0.97045 0.79721 0.65632 0.0
H356 H 0.58808 0.55281 0.63222 0.0
H357 H 0.54692 0.47507 0.62549 0.0
H358 H 0.63267 0.46375 0.70626 0.0
H359 H 0.67297 0.54121 0.71342 0.0
H360 H 0.45452 0.50864 0.98283 0.0
H361 H 0.48134 0.62657 0.03922 0.0
H362 H 0.40456 0.60176 0.04152 0.0
H363 H 0.3292 0.54495 0.02881 0.0
H364 H 0.30514 0.42704 0.97391 0.0
H365 H 0.38135 0.45352 0.9699 0.0
C366 C 0.44384 0.52925 0.99548 0.0
C367 C 0.47388 0.56952 1.01083 0.0
C368 C 0.3999 0.51459 0.99713 0.0
C369 C 0.45906 0.59555 0.02699 0.0
C370 C 0.41509 0.58122 0.0285 0.0
C371 C 0.3407 0.52505 1.01613 0.0
C372 C 0.31118 0.48408 1.00134 0.0
C373 C 0.38509 0.54052 1.01399 0.0
C374 C 0.32684 0.4589 0.98483 0.0
C375 C 0.37054 0.47394 0.98269 0.0
H376 H 0.45663 0.8742 0.03228 0.0
H377 H 0.55204 0.96882 0.95675 0.0
H378 H 0.58867 0.92797 0.95322 0.0
H379 H 0.59711 0.86821 0.97471 0.0
H380 H 0.50169 0.7717 0.04888 0.0
H381 H 0.46258 0.81056 0.0502 0.0
C382 C 0.4849 0.88537 1.01442 0.0
C383 C 0.50131 0.92472 0.9948 0.0
C384 C 0.50656 0.86172 1.01278 0.0
C385 C 0.53848 0.93882 0.97226 0.0
C386 C 0.55972 0.9155 0.97029 0.0
C387 C 0.56738 0.85503 0.99065 0.0
C388 C 0.55294 0.8169 1.01186 0.0
C389 C 0.54456 0.8773 0.99094 0.0
C390 C 0.5145 0.80129 0.03286 0.0
C391 C 0.49172 0.82339 0.03338 0.0
H392 H 0.26808 0.7307 1.00984 0.0
H393 H 0.16394 0.75692 1.01136 0.0
H394 H 0.11275 0.68088 1.00926 0.0
H395 H 0.09682 0.60722 1.00783 0.0
H396 H 0.19895 0.57824 1.00913 0.0
H397 H 0.25149 0.65495 1.00933 0.0
C398 C 0.2342 0.71975 1.00999 0.0
C399 C 0.22011 0.74988 1.01027 0.0
C400 C 0.20448 0.67544 1.00915 0.0
C401 C 0.17595 0.73484 1.01026 0.0
C402 C 0.1465 0.6912 1.00929 0.0
C403 C 0.13055 0.61739 1.00789 0.0
C404 C 0.14377 0.58672 1.00825 0.0
C405 C 0.16035 0.66128 1.00862 0.0
C406 C 0.18775 0.60098 1.00865 0.0
C407 C 0.21782 0.64491 1.00891 0.0
H408 H 0.43115 0.13881 0.99577 0.0
H409 H 0.47174 0.13354 0.11278 0.0
H410 H 0.49789 0.2098 0.12175 0.0
H411 H 0.51711 0.27917 0.09354 0.0
H412 H 0.47379 0.2846 0.97707 0.0
H413 H 0.44273 0.20769 0.97016 0.0
C414 C 0.4437 0.15401 0.02386 0.0
C415 C 0.4481 0.13022 0.05407 0.0
C416 C 0.46004 0.19837 0.0283 0.0
C417 C 0.46635 0.15076 0.08971 0.0
C418 C 0.48225 0.19463 0.09449 0.0
C419 C 0.50004 0.26381 0.06688 0.0
C420 C 0.49845 0.28865 0.03587 0.0
C421 C 0.48051 0.21902 0.06354 0.0
C422 C 0.47695 0.26725 1.00127 0.0
C423 C 0.45837 0.22286 0.99743 0.0
H424 H 0.78811 0.20897 1.0051 0.0
H425 H 0.76003 0.26064 0.10742 0.0
H426 H 0.83575 0.31241 0.11581 0.0
H427 H 0.90899 0.34668 0.09129 0.0
H428 H 0.93807 0.29733 0.98838 0.0
H429 H 0.86317 0.24041 0.98328 0.0
C430 C 0.79861 0.23164 0.02917 0.0
C431 C 0.76831 0.23101 0.0555 0.0
C432 C 0.84243 0.26125 0.03401 0.0
C433 C 0.78256 0.26023 0.08686 0.0
C434 C 0.82588 0.28984 0.09171 0.0
C435 C 0.89915 0.32236 0.06866 0.0
C436 C 0.92907 0.32551 0.04075 0.0
C437 C 0.856 0.29082 0.06534 0.0
C438 C 0.9159 0.29474 1.01086 0.0
C439 C 0.8729 0.26272 1.00757 0.0
H440 H 0.80279 0.52108 1.00345 0.0
H441 H 0.8787 0.61024 0.09419 0.0
H442 H 0.83179 0.64085 0.09378 0.0
H443 H 0.76588 0.63954 0.06955 0.0
H444 H 0.69259 0.54966 0.97866 0.0
H445 H 0.7424 0.5237 0.97602 0.0
C446 C 0.80972 0.54774 0.02269 0.0
C447 C 0.84424 0.56303 0.04887 0.0
C448 C 0.78329 0.56584 1.02174 0.0
C449 C 0.85184 0.59706 0.07418 0.0
C450 C 0.82528 0.61501 0.07369 0.0
C451 C 0.76203 0.61562 0.04817 0.0
C452 C 0.72633 0.5978 0.02313 0.0
C453 C 0.7906 0.59953 0.04769 0.0
C454 C 0.72075 0.5654 0.99678 0.0
C455 C 0.74882 0.54975 0.99587 0.0
H456 H 0.98842 0.80989 0.3882 0.0
H457 H 0.97859 0.8723 0.28501 0.0
H458 H 0.0563 0.90995 0.27777 0.0
H459 H 0.12776 0.92276 0.29944 0.0
H460 H 0.13513 0.85745 0.40156 0.0
H461 H 0.05837 0.82425 0.41091 0.0
C462 C 1.00323 0.83221 0.36444 0.0
C463 C 0.97749 0.83811 0.33724 0.0
C464 C 0.04786 0.85347 0.36028 0.0
C465 C 0.99746 0.86667 0.3062 0.0
C466 C 0.04201 0.88842 0.30213 0.0
C467 C 0.11247 0.90186 0.32402 0.0
C468 C 0.13708 0.89279 0.34995 0.0
C469 C 0.06767 0.88181 0.32879 0.0
C470 C 0.11682 0.865 0.38131 0.0
C471 C 0.07288 0.84586 0.38664 0.0
H472 H 0.11679 0.20266 0.35698 0.0
H473 H 0.23426 0.31668 0.32639 0.0
H474 H 0.2713 0.27676 0.32423 0.0
H475 H 0.27277 0.21113 0.33345 0.0
H476 H 0.15665 0.09463 0.36037 0.0
H477 H 0.11761 0.1338 0.36218 0.0
C478 C 0.15032 0.21859 0.34943 0.0
C479 C 0.17234 0.26301 0.34217 0.0
C480 C 0.17224 0.19511 0.34801 0.0
C481 C 0.216 0.28282 0.33247 0.0
C482 C 0.2376 0.25997 0.33121 0.0
C483 C 0.23876 0.19382 0.33903 0.0
C484 C 0.21808 0.14972 0.34673 0.0
C485 C 0.21629 0.21631 0.3393 0.0
C486 C 0.17399 0.12864 0.35492 0.0
C487 C 0.15141 0.15104 0.35564 0.0
H488 H 0.90045 0.0651 0.39062 0.0
H489 H 0.88913 0.07584 0.26613 0.0
H490 H 0.84461 0.99855 0.26051 0.0
H491 H 0.80554 0.92765 0.29135 0.0
H492 H 0.82103 0.91602 0.41455 0.0
H493 H 0.86752 0.99365 0.42028 0.0
C494 C 0.88889 0.05062 0.36213 0.0
C495 C 0.89769 0.07672 0.32899 0.0
C496 C 0.86397 1.00582 0.35886 0.0
C497 C 0.88196 0.05697 0.29241 0.0
C498 C 0.85673 1.0126 0.28904 0.0
C499 C 0.81995 0.9422 0.31921 0.0
C500 C 0.81055 0.91642 0.3524 0.0
C501 C 0.84703 0.98673 0.32211 0.0
C502 C 0.82873 0.93537 0.38851 0.0
C503 C 0.85495 0.97973 0.39182 0.0
H504 H 0.16673 0.60764 0.32192 0.0
H505 H 0.14993 0.62005 0.44551 0.0
H506 H 0.11838 0.54357 0.453 0.0
H507 H 0.09999 0.47302 0.42552 0.0
H508 H 0.11 0.45998 0.30164 0.0
H509 H 0.13719 0.5362 0.29302 0.0
C510 C 0.15526 0.59403 0.35046 0.0
C511 C 0.16201 0.62089 0.3831 0.0
C512 C 0.13472 0.54928 0.35449 0.0
C513 C 0.14725 0.60138 0.41978 0.0
C514 C 0.12826 0.55714 0.42416 0.0
C515 C 0.10586 0.48653 0.39645 0.0
C516 C 0.10145 0.46048 0.3641 0.0
C517 C 0.12217 0.53076 0.39182 0.0
C518 C 0.11114 0.47882 0.32676 0.0
C519 C 0.12779 0.52275 0.32196 0.0
H520 H 0.45089 0.57097 0.42536 0.0
H521 H 0.42248 0.56548 0.30198 0.0
H522 H 0.49788 0.61105 0.28821 0.0
H523 H 0.57142 0.65495 0.31112 0.0
H524 H 0.60123 0.65894 0.43332 0.0
H525 H 0.52582 0.60902 0.44743 0.0
C526 C 0.46101 0.57889 0.39531 0.0
C527 C 0.4304 0.56473 0.36488 0.0
C528 C 0.50483 0.60392 0.38727 0.0
C529 C 0.44468 0.57657 0.32629 0.0
C530 C 0.48803 0.60213 0.3182 0.0
C531 C 0.56157 0.64357 0.34061 0.0
C532 C 0.59172 0.65977 0.37106 0.0
C533 C 0.51828 0.61604 0.34842 0.0
C534 C 0.57867 0.64577 0.40932 0.0
C535 C 0.53546 0.61798 0.41741 0.0
H536 H 0.43923 0.98528 0.34907 0.0
H537 H 0.34424 0.86499 0.3992 0.0
H538 H 0.39083 0.83684 0.39362 0.0
H539 H 0.45934 0.84473 0.37833 0.0
H540 H 0.55759 0.96156 0.32864 0.0
H541 H 0.50996 0.99203 0.33059 0.0
C542 C 0.42906 0.95322 0.35909 0.0
C543 C 0.3882 0.92856 0.37564 0.0
C544 C 0.45682 0.93601 0.3561 0.0
C545 C 0.3756 0.88631 0.38749 0.0
C546 C 0.40224 0.86936 0.38411 0.0
C547 C 0.47015 0.87676 0.36765 0.0
C548 C 0.51161 0.90089 0.35345 0.0
C549 C 0.44296 0.89388 0.36908 0.0
C550 C 0.52541 0.94231 0.33949 0.0
C551 C 0.49826 0.95977 0.34084 0.0
H552 H 0.79837 0.27591 0.67888 0.0
H553 H 0.79416 0.15437 0.67178 0.0
H554 H 0.7172 0.11704 0.67206 0.0
H555 H 0.6503 0.11717 0.67518 0.0
H556 H 0.65086 0.23672 0.67953 0.0
H557 H 0.72903 0.27579 0.68002 0.0
C558 C 0.78057 0.24133 0.67722 0.0
C559 C 0.80272 0.21842 0.67509 0.0
C560 C 0.73523 0.21927 0.67713 0.0
C561 C 0.77869 0.1734 0.67308 0.0
C562 C 0.73428 0.15165 0.67338 0.0
C563 C 0.66727 0.1518 0.67567 0.0
C564 C 0.64421 0.17365 0.67722 0.0
C565 C 0.71217 0.17411 0.67537 0.0
C566 C 0.66739 0.21869 0.67882 0.0
C567 C 0.7123 0.2412 0.67884 0.0
H568 H 0.84386 0.46537 0.64858 0.0
H569 H 0.94636 0.54169 0.72902 0.0
H570 H 0.92049 0.59215 0.73575 0.0
H571 H 0.87059 0.61631 0.71707 0.0
H572 H 0.76512 0.53908 0.64013 0.0
H573 H 0.79007 0.48724 0.63356 0.0
C574 C 0.86036 0.49301 0.66763 0.0
C575 C 0.8971 0.49983 0.68822 0.0
C576 C 0.84477 0.52169 0.67192 0.0
C577 C 0.91792 0.53556 0.71309 0.0
C578 C 0.90324 0.56452 0.71683 0.0
C579 C 0.85282 0.58783 0.6992 0.0
C580 C 0.81612 0.58136 0.6791 0.0
C581 C 0.86694 0.55809 0.69623 0.0
C582 C 0.79321 0.54439 0.65616 0.0
C583 C 0.80767 0.51498 0.65225 0.0
H584 H 0.56786 0.40128 0.72116 0.0
H585 H 0.54868 0.41586 0.59892 0.0
H586 H 0.50414 0.3387 0.59182 0.0
H587 H 0.46711 0.26672 0.62096 0.0
H588 H 0.49055 0.2513 0.74144 0.0
H589 H 0.53714 0.32879 0.74851 0.0
C590 C 0.55459 0.38772 0.69276 0.0
C591 C 0.56124 0.41494 0.66082 0.0
C592 C 0.52962 0.34292 0.68855 0.0
C593 C 0.54325 0.39621 0.62441 0.0
C594 C 0.51798 0.35188 0.62016 0.0
C595 C 0.48323 0.2804 0.64847 0.0
C596 C 0.47594 0.25346 0.68051 0.0
C597 C 0.51041 0.32492 0.65211 0.0
C598 C 0.49649 0.27142 0.71617 0.0
C599 C 0.52279 0.31574 0.72029 0.0
H600 H 0.80409 0.82133 0.63581 0.0
H601 H 0.75966 0.79215 0.75424 0.0
H602 H 0.78511 0.8679 0.76739 0.0
H603 H 0.82646 0.94285 0.74667 0.0
H604 H 0.86964 0.97142 0.62728 0.0
H605 H 0.83927 0.89558 0.61329 0.0
C606 C 0.79828 0.83152 0.6639 0.0
C607 C 0.77875 0.80138 0.69365 0.0
C608 C 0.81414 0.87509 0.67143 0.0
C609 C 0.77298 0.81477 0.73052 0.0
C610 C 0.78838 0.85813 0.73822 0.0
C611 C 0.82866 0.93256 0.7174 0.0
C612 C 0.85078 0.96313 0.68825 0.0
C613 C 0.81003 0.88868 0.70915 0.0
C614 C 0.85387 0.94893 0.65067 0.0
C615 C 0.83594 0.90544 0.64241 0.0
H616 H 0.10384 0.91122 0.6644 0.0
H617 H 0.10816 0.86594 0.77987 0.0
H618 H 0.18527 0.91371 0.78224 0.0
H619 H 0.2518 0.97308 0.75275 0.0
H620 H 0.24608 1.00972 0.63448 0.0
H621 H 0.16991 0.95979 0.63157 0.0
C622 C 0.12133 0.91059 0.68986 0.0
C623 C 0.09924 0.88486 0.72203 0.0
C624 C 0.16604 0.93665 0.69043 0.0
C625 C 0.12344 0.88608 0.75494 0.0
C626 C 0.16793 0.9131 0.75618 0.0
C627 C 0.23417 0.96852 0.72581 0.0
C628 C 0.2549 0.99479 0.69354 0.0
C629 C 0.1897 0.93899 0.72421 0.0
C630 C 0.23117 0.9894 0.65933 0.0
C631 C 0.18735 0.9612 0.65784 0.0
H632 H 0.18524 0.26342 0.66318 0.0
H633 H 0.11949 0.16081 0.74543 0.0
H634 H 0.06687 0.18276 0.75643 0.0
H635 H 0.04147 0.23151 0.7456 0.0
H636 H 0.09809 0.32927 0.65758 0.0
H637 H 0.15408 0.31022 0.64745 0.0
C638 C 0.15909 0.2457 0.68316 0.0
C639 C 0.1569 0.21103 0.70419 0.0
C640 C 0.12838 0.25846 0.68927 0.0
C641 C 0.12263 0.18817 0.7297 0.0
C642 C 0.09255 0.20076 0.73606 0.0
C643 C 0.06593 0.24925 0.72409 0.0
C644 C 0.06552 0.28241 0.70271 0.0
C645 C 0.09572 0.2363 0.7167 0.0
C646 C 0.09791 0.30434 0.67513 0.0
C647 C 0.12949 0.2929 0.66892 0.0
H648 H 0.17037 0.41639 0.21795 0.0
H649 H 0.05397 0.36576 0.2841 0.0
H650 H 1.02207 0.38884 0.2343 0.0
H651 H 1.02501 0.42023 0.17042 0.0
H652 H 0.14026 0.47242 0.10286 0.0
H653 H 0.17446 0.45202 0.15387 0.0
C654 C 0.13827 0.41094 0.22152 0.0
C655 C 0.11489 0.38981 0.25521 0.0
C656 C 0.11957 0.42421 0.19212 0.0
C657 C 0.07301 0.38248 0.25896 0.0
C658 C 0.05453 0.39549 0.23028 0.0
C659 C 0.05773 0.42743 0.1669 0.0
C660 C 0.07983 0.44739 0.13251 0.0
C661 C 0.07721 0.41594 0.19655 0.0
C662 C 0.12232 0.45664 0.12877 0.0
C663 C 0.14192 0.44502 0.15807 0.0
H664 H 0.61838 0.70469 0.26452 0.0
H665 H 0.73902 0.79067 0.21102 0.0
H666 H 0.71613 0.74834 0.15093 0.0
H667 H 0.66493 0.6838 0.11534 0.0
H668 H 0.54357 0.59695 0.16694 0.0
H669 H 0.56376 0.64206 0.22604 0.0
C670 C 0.63939 0.7145 0.23953 0.0
C671 C 0.68068 0.75093 0.24268 0.0
C672 C 0.62613 0.68936 0.20486 0.0
C673 C 0.70728 0.76298 0.20974 0.0
C674 C 0.69425 0.73855 0.17532 0.0
C675 C 0.64247 0.67493 0.13919 0.0
C676 C 0.60268 0.63685 0.13649 0.0
C677 C 0.65423 0.70118 0.17284 0.0
C678 C 0.57435 0.62595 0.16805 0.0
C679 C 0.58597 0.65183 0.2019 0.0
H680 H 0.45256 0.0373 0.16976 0.0
H681 H 0.38997 0.92285 0.09964 0.0
H682 H 0.33368 0.88887 0.14875 0.0
H683 H 0.30013 0.89268 0.21175 0.0
H684 H 0.36595 1.00682 0.28224 0.0
H685 H 0.42257 0.03923 0.23386 0.0
C686 C 0.4268 1.00478 0.16529 0.0
C687 C 0.4254 0.98299 0.13048 0.0
C688 C 0.39478 0.98515 0.19416 0.0
C689 C 0.39174 0.94069 0.12571 0.0
C690 C 0.35947 0.92117 0.15397 0.0
C691 C 0.3271 0.92441 0.21661 0.0
C692 C 0.32861 0.94715 0.2509 0.0
C693 C 0.36025 0.94317 0.18831 0.0
C694 C 0.36392 0.9884 0.25644 0.0
C695 C 0.39638 1.00713 0.22859 0.0
H696 H 0.42816 1.01163 0.87422 0.0
H697 H 0.47643 0.12298 0.9486 0.0
H698 H 0.45796 0.15964 0.89896 0.0
H699 H 0.42423 0.1589 0.83487 0.0
H700 H 0.3748 0.04653 0.76202 0.0
H701 H 0.39787 1.01207 0.80972 0.0
C702 C 0.43535 0.04419 0.8794 0.0
C703 C 0.45379 0.06428 0.91544 0.0
C704 C 0.42421 0.06508 0.85069 0.0
C705 C 0.4625 0.10653 0.92132 0.0
C706 C 0.45168 0.12755 0.89288 0.0
C707 C 0.4189 0.12702 0.8294 0.0
C708 C 0.39813 0.10549 0.79452 0.0
C709 C 0.4319 0.10698 0.85757 0.0
C710 C 0.39107 0.06403 0.78819 0.0
C711 C 0.40417 0.0442 0.81565 0.0
H712 H 0.98258 0.35246 0.94071 0.0
H713 H 1.01584 0.46692 0.87658 0.0
H714 H 0.98575 0.42443 0.8166 0.0
H715 H 0.95474 0.3547 0.78123 0.0
H716 H 0.9244 0.24106 0.84608 0.0
H717 H 0.94858 0.28287 0.90643 0.0
C718 C 0.98228 0.36795 0.91378 0.0
C719 C 1.0007 0.41279 0.91332 0.0
C720 C 0.96598 0.34334 0.87924 0.0
C721 C 1.00143 0.43251 0.87786 0.0
C722 C 0.98442 0.40816 0.8435 0.0
C723 C 0.95288 0.33903 0.80866 0.0
C724 C 0.93745 0.29453 0.80888 0.0
C725 C 0.96731 0.36356 0.84361 0.0
C726 C 0.93565 0.27499 0.84482 0.0
C727 C 0.94968 0.29899 0.87948 0.0
H728 H 0.75026 0.60764 0.82344 0.0
H729 H 0.7253 0.70514 0.78012 0.0
H730 H 0.67194 0.68819 0.82983 0.0
H731 H 0.63292 0.64798 0.88684 0.0
H732 H 0.6513 0.54685 0.93004 0.0
H733 H 0.70601 0.56277 0.88006 0.0
C734 C 0.73339 0.62532 0.8252 0.0
C735 C 0.74259 0.6581 0.79791 0.0
C736 C 0.70124 0.61478 0.85409 0.0
C737 C 0.71949 0.67996 0.80048 0.0
C738 C 0.68859 0.67023 0.82901 0.0
C739 C 0.64826 0.62881 0.88518 0.0
C740 C 0.63876 0.597 0.91334 0.0
C741 C 0.6791 0.6378 0.85597 0.0
C742 C 0.65915 0.57261 0.90992 0.0
C743 C 0.69028 0.58159 0.88103 0.0
H744 H 0.78742 0.80425 0.4663 0.0
H745 H 0.65247 0.71682 0.4798 0.0
H746 H 0.66675 0.68106 0.53249 0.0
H747 H 0.71627 0.67391 0.5757 0.0
H748 H 0.85099 0.76343 0.56926 0.0
H749 H 0.83831 0.79887 0.51358 0.0
C750 C 0.76125 0.7774 0.48085 0.0
C751 C 0.71874 0.76324 0.46853 0.0
C752 C 0.76966 0.75711 0.51253 0.0
C753 C 0.68538 0.72859 0.4882 0.0
C754 C 0.6935 0.70791 0.51852 0.0
C755 C 0.74312 0.70081 0.56186 0.0
C756 C 0.78476 0.71506 0.57609 0.0
C757 C 0.73536 0.72171 0.53091 0.0
C758 C 0.81873 0.75111 0.55852 0.0
C759 C 0.81137 0.77149 0.52672 0.0
H760 H 0.23177 0.97472 0.48538 0.0
H761 H 0.35129 0.99309 0.44147 0.0
H762 H 0.3903 0.04948 0.48954 0.0
H763 H 0.39094 0.08908 0.54807 0.0
H764 H 0.27262 0.07116 0.59461 0.0
H765 H 0.23298 0.01974 0.54207 0.0
C766 C 0.26635 0.99168 0.48599 0.0
C767 C 0.28856 0.97964 0.45958 0.0
C768 C 0.28891 0.02398 0.51467 0.0
C769 C 0.33336 1.00158 0.46123 0.0
C770 C 0.35577 0.0339 0.48888 0.0
C771 C 0.35654 0.07469 0.54641 0.0
C772 C 0.33486 0.08372 0.57587 0.0
C773 C 0.33397 0.04478 0.51632 0.0
C774 C 0.29018 0.06441 0.57285 0.0
C775 C 0.26747 0.03493 0.5427 0.0
H776 H 1.02889 0.27133 0.60534 0.0
H777 H 0.92253 0.25989 0.53848 0.0
H778 H 0.96479 0.27724 0.47869 0.0
H779 H 0.03432 0.30247 0.44608 0.0
H780 H 0.1421 0.31926 0.51386 0.0
H781 H 0.09729 0.29296 0.57211 0.0
C782 C 1.01456 0.27158 0.57757 0.0
C783 C 0.9722 0.26382 0.57657 0.0
C784 C 0.03968 0.28311 0.5433 0.0
C785 C 0.95475 0.26524 0.54022 0.0
C786 C 0.97908 0.27551 0.50596 0.0
C787 C 0.04775 0.29953 0.4734 0.0
C788 C 0.09155 0.31257 0.47543 0.0
C789 C 1.02191 0.28547 0.5072 0.0
C790 C 0.10857 0.30944 0.5114 0.0
C791 C 0.08291 0.29442 0.54479 0.0
loop_
_geom_bond_atom_site_label_1
_geom_bond_atom_site_label_2
_geom_bond_distance
_geom_bond_site_symmetry_2
_ccdc_geom_bond_type
Pr0 C2 2.880 . S
Pr0 O20 2.562 1_554 S
Pr0 O21 2.490 . S
Pr0 O22 2.695 1_655 S
Pr0 O23 2.512 . S
Pr0 O25 2.437 . S
Pr0 O28 2.436 1_554 S
Pr0 O30 2.435 1_654 S
Pr1 C11 2.880 . S
Pr1 O22 2.436 1_556 S
Pr1 O24 2.438 1_456 S
Pr1 O26 2.562 1_556 S
Pr1 O27 2.490 . S
Pr1 O28 2.695 1_455 S
Pr1 O29 2.512 . S
Pr1 O31 2.437 . S
C2 Pr0 2.880 . S
C2 C3 1.491 . S
C2 O20 1.254 1_554 S
C2 O21 1.225 . S
C3 C2 1.491 . S
C3 C4 1.392 . S
C3 C8 1.356 1_554 S
C4 C3 1.392 . S
C4 C5 1.368 . S
C4 H32 0.929 . S
C5 C4 1.368 . S
C5 C6 1.386 . S
C5 H33 0.929 . S
C6 C5 1.386 . S
C6 C7 1.373 1_554 S
C7 C6 1.373 1_556 S
C7 C8 1.409 . S
C7 H34 0.931 . S
C8 C3 1.356 1_556 S
C8 C7 1.409 . S
C8 H35 0.930 . S
C9 O22 1.270 . S
C9 O23 1.248 1_455 S
C10 O24 1.267 . S
C10 O25 1.278 . S
C11 Pr1 2.880 . S
C11 C12 1.491 . S
C11 O26 1.254 1_556 S
C11 O27 1.225 . S
C12 C11 1.491 . S
C12 C13 1.392 . S
C12 C17 1.356 1_556 S
C13 C12 1.392 . S
C13 C14 1.368 . S
C13 H36 0.929 . S
C14 C13 1.368 . S
C14 C15 1.386 . S
C14 H37 0.929 . S
C15 C14 1.386 . S
C15 C16 1.373 1_556 S
C16 C15 1.373 1_554 S
C16 C17 1.409 . S
C16 H38 0.931 . S
C17 C12 1.356 1_554 S
C17 C16 1.409 . S
C17 H39 0.930 . S
C18 O28 1.270 . S
C18 O29 1.248 1_655 S
C19 O30 1.271 . S
C19 O31 1.278 . S
O20 Pr0 2.562 1_556 S
O20 C2 1.254 1_556 S
O21 Pr0 2.490 . S
O21 C2 1.225 . S
O22 Pr0 2.695 1_455 S
O22 Pr1 2.436 1_554 S
O22 C9 1.270 . S
O23 Pr0 2.512 . S
O23 C9 1.248 1_655 S
O24 Pr1 2.438 1_654 S
O24 C10 1.267 . S
O25 Pr0 2.437 . S
O25 C10 1.278 . S
O26 Pr1 2.562 1_554 S
O26 C11 1.254 1_554 S
O27 Pr1 2.490 . S
O27 C11 1.225 . S
O28 Pr0 2.436 1_556 S
O28 Pr1 2.695 1_655 S
O28 C18 1.270 . S
O29 Pr1 2.512 . S
O29 C18 1.248 1_455 S
O30 Pr0 2.435 1_456 S
O30 C19 1.271 . S
O31 Pr1 2.437 . S
O31 C19 1.278 . S
H32 C4 0.929 . S
H33 C5 0.929 . S
H34 C7 0.931 . S
H35 C8 0.930 . S
H36 C13 0.929 . S
H37 C14 0.929 . S
H38 C16 0.931 . S
H39 C17 0.930 . S
Pr40 C42 2.880 . S
Pr40 O60 2.562 1_554 S
Pr40 O61 2.490 . S
Pr40 O62 2.695 . S
Pr40 O63 2.512 . S
Pr40 O65 2.437 . S
Pr40 O68 2.436 1_554 S
Pr40 O70 2.435 1_554 S
Pr41 C51 2.880 . S
Pr41 O62 2.436 1_556 S
Pr41 O64 2.438 1_556 S
Pr41 O66 2.562 1_556 S
Pr41 O67 2.490 . S
Pr41 O68 2.695 . S
Pr41 O69 2.512 . S
Pr41 O71 2.437 . S
C42 Pr40 2.880 . S
C42 C43 1.491 . S
C42 O60 1.254 1_554 S
C42 O61 1.225 . S
C43 C42 1.491 . S
C43 C44 1.392 . S
C43 C48 1.356 1_554 S
C44 C43 1.392 . S
C44 C45 1.368 . S
C44 H72 0.929 . S
C45 C44 1.368 . S
C45 C46 1.386 . S
C45 H73 0.929 . S
C46 C45 1.386 . S
C46 C47 1.373 1_554 S
C47 C46 1.373 1_556 S
C47 C48 1.409 . S
C47 H74 0.931 . S
C48 C43 1.356 1_556 S
C48 C47 1.409 . S
C48 H75 0.930 . S
C49 O62 1.270 . S
C49 O63 1.248 . S
C50 O64 1.267 . S
C50 O65 1.278 . S
C51 Pr41 2.880 . S
C51 C52 1.491 . S
C51 O66 1.254 1_556 S
C51 O67 1.225 . S
C52 C51 1.491 . S
C52 C53 1.392 . S
C52 C57 1.356 1_556 S
C53 C52 1.392 . S
C53 C54 1.368 . S
C53 H76 0.929 . S
C54 C53 1.368 . S
C54 C55 1.386 . S
C54 H77 0.929 . S
C55 C54 1.386 . S
C55 C56 1.373 1_556 S
C56 C55 1.373 1_554 S
C56 C57 1.409 . S
C56 H78 0.931 . S
C57 C52 1.356 1_554 S
C57 C56 1.409 . S
C57 H79 0.930 . S
C58 O68 1.270 . S
C58 O69 1.248 . S
C59 O70 1.271 . S
C59 O71 1.278 . S
O60 Pr40 2.562 1_556 S
O60 C42 1.254 1_556 S
O61 Pr40 2.490 . S
O61 C42 1.225 . S
O62 Pr40 2.695 . S
O62 Pr41 2.436 1_554 S
O62 C49 1.270 . S
O63 Pr40 2.512 . S
O63 C49 1.248 . S
O64 Pr41 2.438 1_554 S
O64 C50 1.267 . S
O65 Pr40 2.437 . S
O65 C50 1.278 . S
O66 Pr41 2.562 1_554 S
O66 C51 1.254 1_554 S
O67 Pr41 2.490 . S
O67 C51 1.225 . S
O68 Pr40 2.436 1_556 S
O68 Pr41 2.695 . S
O68 C58 1.270 . S
O69 Pr41 2.512 . S
O69 C58 1.248 . S
O70 Pr40 2.435 1_556 S
O70 C59 1.271 . S
O71 Pr41 2.437 . S
O71 C59 1.278 . S
H72 C44 0.929 . S
H73 C45 0.929 . S
H74 C47 0.931 . S
H75 C48 0.930 . S
H76 C53 0.929 . S
H77 C54 0.929 . S
H78 C56 0.931 . S
H79 C57 0.930 . S
Pr80 C82 2.880 . S
Pr80 O100 2.562 1_554 S
Pr80 O101 2.490 . S
Pr80 O102 2.695 1_545 S
Pr80 O103 2.512 . S
Pr80 O105 2.437 . S
Pr80 O108 2.436 1_554 S
Pr80 O110 2.435 1_544 S
Pr81 C91 2.880 . S
Pr81 O102 2.436 1_556 S
Pr81 O104 2.438 1_566 S
Pr81 O106 2.562 1_556 S
Pr81 O107 2.490 . S
Pr81 O108 2.695 1_565 S
Pr81 O109 2.512 . S
Pr81 O111 2.437 . S
C82 Pr80 2.880 . S
C82 C83 1.491 . S
C82 O100 1.254 1_554 S
C82 O101 1.225 . S
C83 C82 1.491 . S
C83 C84 1.392 . S
C83 C88 1.356 1_554 S
C84 C83 1.392 . S
C84 C85 1.368 . S
C84 H112 0.929 . S
C85 C84 1.368 . S
C85 C86 1.386 . S
C85 H113 0.929 . S
C86 C85 1.386 . S
C86 C87 1.373 1_554 S
C87 C86 1.373 1_556 S
C87 C88 1.409 . S
C87 H114 0.931 . S
C88 C83 1.356 1_556 S
C88 C87 1.409 . S
C88 H115 0.930 . S
C89 O102 1.270 . S
C89 O103 1.248 1_565 S
C90 O104 1.267 . S
C90 O105 1.278 . S
C91 Pr81 2.880 . S
C91 C92 1.491 . S
C91 O106 1.254 1_556 S
C91 O107 1.225 . S
C92 C91 1.491 . S
C92 C93 1.392 . S
C92 C97 1.356 1_556 S
C93 C92 1.392 . S
C93 C94 1.368 . S
C93 H116 0.929 . S
C94 C93 1.368 . S
C94 C95 1.386 . S
C94 H117 0.929 . S
C95 C94 1.386 . S
C95 C96 1.373 1_556 S
C96 C95 1.373 1_554 S
C96 C97 1.409 . S
C96 H118 0.931 . S
C97 C92 1.356 1_554 S
C97 C96 1.409 . S
C97 H119 0.930 . S
C98 O108 1.270 . S
C98 O109 1.248 1_545 S
C99 O110 1.271 . S
C99 O111 1.278 . S
O100 Pr80 2.562 1_556 S
O100 C82 1.254 1_556 S
O101 Pr80 2.490 . S
O101 C82 1.225 . S
O102 Pr80 2.695 1_565 S
O102 Pr81 2.436 1_554 S
O102 C89 1.270 . S
O103 Pr80 2.512 . S
O103 C89 1.248 1_545 S
O104 Pr81 2.438 1_544 S
O104 C90 1.267 . S
O105 Pr80 2.437 . S
O105 C90 1.278 . S
O106 Pr81 2.562 1_554 S
O106 C91 1.254 1_554 S
O107 Pr81 2.490 . S
O107 C91 1.225 . S
O108 Pr80 2.436 1_556 S
O108 Pr81 2.695 1_545 S
O108 C98 1.270 . S
O109 Pr81 2.512 . S
O109 C98 1.248 1_565 S
O110 Pr80 2.435 1_566 S
O110 C99 1.271 . S
O111 Pr81 2.437 . S
O111 C99 1.278 . S
H112 C84 0.929 . S
H113 C85 0.929 . S
H114 C87 0.931 . S
H115 C88 0.930 . S
H116 C93 0.929 . S
H117 C94 0.929 . S
H118 C96 0.931 . S
H119 C97 0.930 . S
Pr120 C122 2.880 . S
Pr120 O140 2.562 . S
Pr120 O141 2.490 . S
Pr120 O142 2.695 . S
Pr120 O143 2.512 . S
Pr120 O145 2.437 . S
Pr120 O148 2.436 . S
Pr120 O150 2.438 . S
Pr121 C131 2.880 . S
Pr121 O142 2.436 . S
Pr121 O144 2.438 . S
Pr121 O146 2.562 . S
Pr121 O147 2.490 . S
Pr121 O148 2.695 . S
Pr121 O149 2.512 . S
Pr121 O151 2.437 . S
C122 Pr120 2.880 . S
C122 C123 1.491 . S
C122 O140 1.254 . S
C122 O141 1.225 . S
C123 C122 1.491 . S
C123 C124 1.392 . S
C123 C128 1.356 . S
C124 C123 1.392 . S
C124 C125 1.368 . S
C124 H152 0.929 . S
C125 C124 1.368 . S
C125 C126 1.386 . S
C125 H153 0.929 . S
C126 C125 1.386 . S
C126 C127 1.373 . S
C127 C126 1.373 . S
C127 C128 1.409 . S
C127 H154 0.931 . S
C128 C123 1.356 . S
C128 C127 1.409 . S
C128 H155 0.930 . S
C129 O142 1.270 . S
C129 O143 1.248 . S
C130 O144 1.267 . S
C130 O145 1.278 . S
C131 Pr121 2.880 . S
C131 C132 1.491 . S
C131 O146 1.254 . S
C131 O147 1.225 . S
C132 C131 1.491 . S
C132 C133 1.392 . S
C132 C137 1.356 . S
C133 C132 1.392 . S
C133 C134 1.368 . S
C133 H156 0.929 . S
C134 C133 1.368 . S
C134 C135 1.386 . S
C134 H157 0.929 . S
C135 C134 1.386 . S
C135 C136 1.373 . S
C136 C135 1.373 . S
C136 C137 1.409 . S
C136 H158 0.931 . S
C137 C132 1.356 . S
C137 C136 1.409 . S
C137 H159 0.930 . S
C138 O148 1.270 . S
C138 O149 1.248 . S
C139 O150 1.267 . S
C139 O151 1.278 . S
O140 Pr120 2.562 . S
O140 C122 1.254 . S
O141 Pr120 2.490 . S
O141 C122 1.225 . S
O142 Pr120 2.695 . S
O142 Pr121 2.436 . S
O142 C129 1.270 . S
O143 Pr120 2.512 . S
O143 C129 1.248 . S
O144 Pr121 2.438 . S
O144 C130 1.267 . S
O145 Pr120 2.437 . S
O145 C130 1.278 . S
O146 Pr121 2.562 . S
O146 C131 1.254 . S
O147 Pr121 2.490 . S
O147 C131 1.225 . S
O148 Pr120 2.436 . S
O148 Pr121 2.695 . S
O148 C138 1.270 . S
O149 Pr121 2.512 . S
O149 C138 1.248 . S
O150 Pr120 2.438 . S
O150 C139 1.267 . S
O151 Pr121 2.437 . S
O151 C139 1.278 . S
H152 C124 0.929 . S
H153 C125 0.929 . S
H154 C127 0.931 . S
H155 C128 0.930 . S
H156 C133 0.929 . S
H157 C134 0.929 . S
H158 C136 0.931 . S
H159 C137 0.930 . S
Pr160 C162 2.880 . S
Pr160 O180 2.562 . S
Pr160 O181 2.490 . S
Pr160 O182 2.695 . S
Pr160 O183 2.512 . S
Pr160 O185 2.437 . S
Pr160 O188 2.436 . S
Pr160 O190 2.438 . S
Pr161 C171 2.880 1_565 S
Pr161 O182 2.436 . S
Pr161 O184 2.438 . S
Pr161 O186 2.562 . S
Pr161 O187 2.490 1_565 S
Pr161 O188 2.695 . S
Pr161 O189 2.512 . S
Pr161 O191 2.437 . S
C162 Pr160 2.880 . S
C162 C163 1.491 . S
C162 O180 1.254 . S
C162 O181 1.225 . S
C163 C162 1.491 . S
C163 C164 1.392 . S
C163 C168 1.356 . S
C164 C163 1.392 . S
C164 C165 1.368 . S
C164 H192 0.929 . S
C165 C164 1.368 . S
C165 C166 1.386 . S
C165 H193 0.929 . S
C166 C165 1.386 . S
C166 C167 1.373 . S
C167 C166 1.373 . S
C167 C168 1.409 . S
C167 H194 0.931 . S
C168 C163 1.356 . S
C168 C167 1.409 . S
C168 H195 0.930 . S
C169 O182 1.270 . S
C169 O183 1.248 . S
C170 O184 1.267 . S
C170 O185 1.278 . S
C171 Pr161 2.880 1_545 S
C171 C172 1.491 . S
C171 O186 1.254 1_545 S
C171 O187 1.225 . S
C172 C171 1.491 . S
C172 C173 1.392 . S
C172 C177 1.356 . S
C173 C172 1.392 . S
C173 C174 1.368 . S
C173 H196 0.929 . S
C174 C173 1.368 . S
C174 C175 1.386 . S
C174 H197 0.929 . S
C175 C174 1.386 . S
C175 C176 1.373 . S
C176 C175 1.373 . S
C176 C177 1.409 . S
C176 H198 0.931 . S
C177 C172 1.356 . S
C177 C176 1.409 . S
C177 H199 0.930 . S
C178 O188 1.270 . S
C178 O189 1.248 . S
C179 O190 1.267 . S
C179 O191 1.278 . S
O180 Pr160 2.562 . S
O180 C162 1.254 . S
O181 Pr160 2.490 . S
O181 C162 1.225 . S
O182 Pr160 2.695 . S
O182 Pr161 2.436 . S
O182 C169 1.270 . S
O183 Pr160 2.512 . S
O183 C169 1.248 . S
O184 Pr161 2.438 . S
O184 C170 1.267 . S
O185 Pr160 2.437 . S
O185 C170 1.278 . S
O186 Pr161 2.562 . S
O186 C171 1.254 1_565 S
O187 Pr161 2.490 1_545 S
O187 C171 1.225 . S
O188 Pr160 2.436 . S
O188 Pr161 2.695 . S
O188 C178 1.270 . S
O189 Pr161 2.512 . S
O189 C178 1.248 . S
O190 Pr160 2.438 . S
O190 C179 1.267 . S
O191 Pr161 2.437 . S
O191 C179 1.278 . S
H192 C164 0.929 . S
H193 C165 0.929 . S
H194 C167 0.931 . S
H195 C168 0.930 . S
H196 C173 0.929 . S
H197 C174 0.929 . S
H198 C176 0.931 . S
H199 C177 0.930 . S
Pr200 C202 2.880 . S
Pr200 O220 2.562 . S
Pr200 O221 2.490 . S
Pr200 O222 2.695 . S
Pr200 O223 2.512 . S
Pr200 O225 2.437 . S
Pr200 O228 2.436 . S
Pr200 O230 2.438 . S
Pr201 C211 2.880 1_455 S
Pr201 O222 2.436 . S
Pr201 O224 2.438 . S
Pr201 O226 2.562 . S
Pr201 O227 2.490 1_455 S
Pr201 O228 2.695 . S
Pr201 O229 2.512 . S
Pr201 O231 2.437 . S
C202 Pr200 2.880 . S
C202 C203 1.491 . S
C202 O220 1.254 . S
C202 O221 1.225 . S
C203 C202 1.491 . S
C203 C204 1.392 . S
C203 C208 1.356 . S
C204 C203 1.392 . S
C204 C205 1.368 . S
C204 H232 0.929 . S
C205 C204 1.368 . S
C205 C206 1.386 . S
C205 H233 0.929 . S
C206 C205 1.386 . S
C206 C207 1.373 . S
C207 C206 1.373 . S
C207 C208 1.409 . S
C207 H234 0.931 . S
C208 C203 1.356 . S
C208 C207 1.409 . S
C208 H235 0.930 . S
C209 O222 1.270 . S
C209 O223 1.248 . S
C210 O224 1.267 . S
C210 O225 1.278 . S
C211 Pr201 2.880 1_655 S
C211 C212 1.491 . S
C211 O226 1.254 1_655 S
C211 O227 1.225 . S
C212 C211 1.491 . S
C212 C213 1.392 . S
C212 C217 1.356 . S
C213 C212 1.392 . S
C213 C214 1.368 . S
C213 H236 0.929 . S
C214 C213 1.368 . S
C214 C215 1.386 . S
C214 H237 0.929 . S
C215 C214 1.386 . S
C215 C216 1.373 . S
C216 C215 1.373 . S
C216 C217 1.409 . S
C216 H238 0.931 . S
C217 C212 1.356 . S
C217 C216 1.409 . S
C217 H239 0.930 . S
C218 O228 1.270 . S
C218 O229 1.248 . S
C219 O230 1.267 . S
C219 O231 1.278 . S
O220 Pr200 2.562 . S
O220 C202 1.254 . S
O221 Pr200 2.490 . S
O221 C202 1.225 . S
O222 Pr200 2.695 . S
O222 Pr201 2.436 . S
O222 C209 1.270 . S
O223 Pr200 2.512 . S
O223 C209 1.248 . S
O224 Pr201 2.438 . S
O224 C210 1.267 . S
O225 Pr200 2.437 . S
O225 C210 1.278 . S
O226 Pr201 2.562 . S
O226 C211 1.254 1_455 S
O227 Pr201 2.490 1_655 S
O227 C211 1.225 . S
O228 Pr200 2.436 . S
O228 Pr201 2.695 . S
O228 C218 1.270 . S
O229 Pr201 2.512 . S
O229 C218 1.248 . S
O230 Pr200 2.438 . S
O230 C219 1.267 . S
O231 Pr201 2.437 . S
O231 C219 1.278 . S
H232 C204 0.929 . S
H233 C205 0.929 . S
H234 C207 0.931 . S
H235 C208 0.930 . S
H236 C213 0.929 . S
H237 C214 0.929 . S
H238 C216 0.931 . S
H239 C217 0.930 . S
Pr240 C242 2.880 . S
Pr240 O260 2.562 . S
Pr240 O261 2.490 . S
Pr240 O262 2.695 . S
Pr240 O263 2.512 . S
Pr240 O265 2.437 . S
Pr240 O268 2.436 . S
Pr240 O270 2.438 . S
Pr241 C251 2.880 . S
Pr241 O262 2.436 . S
Pr241 O264 2.438 . S
Pr241 O266 2.562 . S
Pr241 O267 2.490 . S
Pr241 O268 2.695 . S
Pr241 O269 2.512 . S
Pr241 O271 2.437 . S
C242 Pr240 2.880 . S
C242 C243 1.491 . S
C242 O260 1.254 . S
C242 O261 1.225 . S
C243 C242 1.491 . S
C243 C244 1.392 . S
C243 C248 1.356 . S
C244 C243 1.392 . S
C244 C245 1.368 . S
C244 H272 0.929 . S
C245 C244 1.368 . S
C245 C246 1.386 . S
C245 H273 0.929 . S
C246 C245 1.386 . S
C246 C247 1.373 . S
C247 C246 1.373 . S
C247 C248 1.409 . S
C247 H274 0.931 . S
C248 C243 1.356 . S
C248 C247 1.409 . S
C248 H275 0.930 . S
C249 O262 1.270 . S
C249 O263 1.248 . S
C250 O264 1.267 . S
C250 O265 1.278 . S
C251 Pr241 2.880 . S
C251 C252 1.491 . S
C251 O266 1.254 . S
C251 O267 1.225 . S
C252 C251 1.491 . S
C252 C253 1.392 . S
C252 C257 1.356 . S
C253 C252 1.392 . S
C253 C254 1.368 . S
C253 H276 0.929 . S
C254 C253 1.368 . S
C254 C255 1.386 . S
C254 H277 0.929 . S
C255 C254 1.386 . S
C255 C256 1.373 . S
C256 C255 1.373 . S
C256 C257 1.409 . S
C256 H278 0.931 . S
C257 C252 1.356 . S
C257 C256 1.409 . S
C257 H279 0.930 . S
C258 O268 1.270 . S
C258 O269 1.248 . S
C259 O270 1.267 . S
C259 O271 1.278 . S
O260 Pr240 2.562 . S
O260 C242 1.254 . S
O261 Pr240 2.490 . S
O261 C242 1.225 . S
O262 Pr240 2.695 . S
O262 Pr241 2.436 . S
O262 C249 1.270 . S
O263 Pr240 2.512 . S
O263 C249 1.248 . S
O264 Pr241 2.438 . S
O264 C250 1.267 . S
O265 Pr240 2.437 . S
O265 C250 1.278 . S
O266 Pr241 2.562 . S
O266 C251 1.254 . S
O267 Pr241 2.490 . S
O267 C251 1.225 . S
O268 Pr240 2.436 . S
O268 Pr241 2.695 . S
O268 C258 1.270 . S
O269 Pr241 2.512 . S
O269 C258 1.248 . S
O270 Pr240 2.438 . S
O270 C259 1.267 . S
O271 Pr241 2.437 . S
O271 C259 1.278 . S
H272 C244 0.929 . S
H273 C245 0.929 . S
H274 C247 0.931 . S
H275 C248 0.930 . S
H276 C253 0.929 . S
H277 C254 0.929 . S
H278 C256 0.931 . S
H279 C257 0.930 . S
Pr280 C282 2.880 . S
Pr280 O300 2.562 . S
Pr280 O301 2.490 . S
Pr280 O302 2.695 . S
Pr280 O303 2.512 . S
Pr280 O305 2.437 . S
Pr280 O308 2.436 . S
Pr280 O310 2.438 . S
Pr281 C291 2.880 . S
Pr281 O302 2.436 . S
Pr281 O304 2.438 . S
Pr281 O306 2.562 . S
Pr281 O307 2.490 . S
Pr281 O308 2.695 . S
Pr281 O309 2.512 . S
Pr281 O311 2.437 . S
C282 Pr280 2.880 . S
C282 C283 1.491 . S
C282 O300 1.254 . S
C282 O301 1.225 . S
C283 C282 1.491 . S
C283 C284 1.392 . S
C283 C288 1.356 . S
C284 C283 1.392 . S
C284 C285 1.368 . S
C284 H312 0.929 . S
C285 C284 1.368 . S
C285 C286 1.386 1_545 S
C285 H313 0.929 1_545 S
C286 C285 1.386 1_565 S
C286 C287 1.373 1_565 S
C287 C286 1.373 1_545 S
C287 C288 1.409 . S
C287 H314 0.931 . S
C288 C283 1.356 . S
C288 C287 1.409 . S
C288 H315 0.930 . S
C289 O302 1.270 . S
C289 O303 1.248 . S
C290 O304 1.267 . S
C290 O305 1.278 . S
C291 Pr281 2.880 . S
C291 C292 1.491 . S
C291 O306 1.254 . S
C291 O307 1.225 . S
C292 C291 1.491 . S
C292 C293 1.392 . S
C292 C297 1.356 . S
C293 C292 1.392 . S
C293 C294 1.368 . S
C293 H316 0.929 . S
C294 C293 1.368 . S
C294 C295 1.386 . S
C294 H317 0.929 . S
C295 C294 1.386 . S
C295 C296 1.373 . S
C296 C295 1.373 . S
C296 C297 1.409 . S
C296 H318 0.931 . S
C297 C292 1.356 . S
C297 C296 1.409 . S
C297 H319 0.930 . S
C298 O308 1.270 . S
C298 O309 1.248 . S
C299 O310 1.267 . S
C299 O311 1.278 . S
O300 Pr280 2.562 . S
O300 C282 1.254 . S
O301 Pr280 2.490 . S
O301 C282 1.225 . S
O302 Pr280 2.695 . S
O302 Pr281 2.436 . S
O302 C289 1.270 . S
O303 Pr280 2.512 . S
O303 C289 1.248 . S
O304 Pr281 2.438 . S
O304 C290 1.267 . S
O305 Pr280 2.437 . S
O305 C290 1.278 . S
O306 Pr281 2.562 . S
O306 C291 1.254 . S
O307 Pr281 2.490 . S
O307 C291 1.225 . S
O308 Pr280 2.436 . S
O308 Pr281 2.695 . S
O308 C298 1.270 . S
O309 Pr281 2.512 . S
O309 C298 1.248 . S
O310 Pr280 2.438 . S
O310 C299 1.267 . S
O311 Pr281 2.437 . S
O311 C299 1.278 . S
H312 C284 0.929 . S
H313 C285 0.929 1_565 S
H314 C287 0.931 . S
H315 C288 0.930 . S
H316 C293 0.929 . S
H317 C294 0.929 . S
H318 C296 0.931 . S
H319 C297 0.930 . S
Pr320 C322 2.880 . S
Pr320 O340 2.562 . S
Pr320 O341 2.490 . S
Pr320 O342 2.695 . S
Pr320 O343 2.512 . S
Pr320 O345 2.437 . S
Pr320 O348 2.436 . S
Pr320 O350 2.438 . S
Pr321 C331 2.880 . S
Pr321 O342 2.436 . S
Pr321 O344 2.438 . S
Pr321 O346 2.562 . S
Pr321 O347 2.490 . S
Pr321 O348 2.695 . S
Pr321 O349 2.512 . S
Pr321 O351 2.437 . S
C322 Pr320 2.880 . S
C322 C323 1.491 . S
C322 O340 1.254 . S
C322 O341 1.225 . S
C323 C322 1.491 . S
C323 C324 1.392 . S
C323 C328 1.356 . S
C324 C323 1.392 . S
C324 C325 1.368 1_655 S
C324 H352 0.929 . S
C325 C324 1.368 1_455 S
C325 C326 1.386 . S
C325 H353 0.929 . S
C326 C325 1.386 . S
C326 C327 1.373 1_455 S
C327 C326 1.373 1_655 S
C327 C328 1.409 . S
C327 H354 0.931 . S
C328 C323 1.356 . S
C328 C327 1.409 . S
C328 H355 0.930 . S
C329 O342 1.270 . S
C329 O343 1.248 . S
C330 O344 1.267 . S
C330 O345 1.278 . S
C331 Pr321 2.880 . S
C331 C332 1.491 . S
C331 O346 1.254 . S
C331 O347 1.225 . S
C332 C331 1.491 . S
C332 C333 1.392 . S
C332 C337 1.356 . S
C333 C332 1.392 . S
C333 C334 1.368 . S
C333 H356 0.929 . S
C334 C333 1.368 . S
C334 C335 1.386 . S
C334 H357 0.929 . S
C335 C334 1.386 . S
C335 C336 1.373 . S
C336 C335 1.373 . S
C336 C337 1.409 . S
C336 H358 0.931 . S
C337 C332 1.356 . S
C337 C336 1.409 . S
C337 H359 0.930 . S
C338 O348 1.270 . S
C338 O349 1.248 . S
C339 O350 1.267 . S
C339 O351 1.278 . S
O340 Pr320 2.562 . S
O340 C322 1.254 . S
O341 Pr320 2.490 . S
O341 C322 1.225 . S
O342 Pr320 2.695 . S
O342 Pr321 2.436 . S
O342 C329 1.270 . S
O343 Pr320 2.512 . S
O343 C329 1.248 . S
O344 Pr321 2.438 . S
O344 C330 1.267 . S
O345 Pr320 2.437 . S
O345 C330 1.278 . S
O346 Pr321 2.562 . S
O346 C331 1.254 . S
O347 Pr321 2.490 . S
O347 C331 1.225 . S
O348 Pr320 2.436 . S
O348 Pr321 2.695 . S
O348 C338 1.270 . S
O349 Pr321 2.512 . S
O349 C338 1.248 . S
O350 Pr320 2.438 . S
O350 C339 1.267 . S
O351 Pr321 2.437 . S
O351 C339 1.278 . S
H352 C324 0.929 . S
H353 C325 0.929 . S
H354 C327 0.931 . S
H355 C328 0.930 . S
H356 C333 0.929 . S
H357 C334 0.929 . S
H358 C336 0.931 . S
H359 C337 0.930 . S
H360 C366 0.930 . S
H361 C369 0.930 . S
H362 C370 0.930 . S
H363 C371 0.930 . S
H364 C374 0.930 . S
H365 C375 0.930 . S
C366 H360 0.930 . S
C366 C367 1.355 . S
C366 C368 1.415 . S
C367 C366 1.355 . S
C367 C369 1.419 1_556 S
C368 C366 1.415 . S
C368 C373 1.418 1_556 S
C368 C375 1.409 . S
C369 H361 0.930 . S
C369 C367 1.419 1_554 S
C369 C370 1.362 . S
C370 H362 0.930 . S
C370 C369 1.362 . S
C370 C373 1.415 . S
C371 H363 0.930 . S
C371 C372 1.355 1_554 S
C371 C373 1.416 . S
C372 C371 1.355 1_556 S
C372 C374 1.419 . S
C373 C368 1.418 1_554 S
C373 C370 1.415 . S
C373 C371 1.416 . S
C374 H364 0.930 . S
C374 C372 1.419 . S
C374 C375 1.362 . S
C375 H365 0.930 . S
C375 C368 1.409 . S
C375 C374 1.362 . S
H376 C382 0.930 . S
H377 C385 0.930 . S
H378 C386 0.930 . S
H379 C387 0.930 . S
H380 C390 0.930 . S
H381 C391 0.930 . S
C382 H376 0.930 . S
C382 C383 1.355 1_554 S
C382 C384 1.415 . S
C383 C382 1.355 1_556 S
C383 C385 1.419 . S
C384 C382 1.415 . S
C384 C389 1.425 1_554 S
C384 C391 1.409 . S
C385 H377 0.930 . S
C385 C383 1.419 . S
C385 C386 1.362 . S
C386 H378 0.930 . S
C386 C385 1.362 . S
C386 C389 1.409 . S
C387 H379 0.930 . S
C387 C388 1.355 . S
C387 C389 1.415 . S
C388 C387 1.355 . S
C388 C390 1.419 1_556 S
C389 C384 1.425 1_556 S
C389 C386 1.409 . S
C389 C387 1.415 . S
C390 H380 0.930 . S
C390 C388 1.419 1_554 S
C390 C391 1.362 . S
C391 H381 0.930 . S
C391 C384 1.409 . S
C391 C390 1.362 . S
H392 C398 0.930 . S
H393 C401 0.930 . S
H394 C402 0.930 1_554 S
H395 C403 0.930 1_554 S
H396 C406 0.930 . S
H397 C407 0.930 . S
C398 H392 0.930 . S
C398 C399 1.355 . S
C398 C400 1.415 . S
C399 C398 1.355 . S
C399 C401 1.419 . S
C400 C398 1.415 . S
C400 C405 1.425 . S
C400 C407 1.409 . S
C401 H393 0.930 . S
C401 C399 1.419 . S
C401 C402 1.362 . S
C402 H394 0.930 1_556 S
C402 C401 1.362 . S
C402 C405 1.409 . S
C403 H395 0.930 1_556 S
C403 C404 1.355 . S
C403 C405 1.415 . S
C404 C403 1.355 . S
C404 C406 1.419 . S
C405 C400 1.425 . S
C405 C402 1.409 . S
C405 C403 1.415 . S
C406 H396 0.930 . S
C406 C404 1.419 . S
C406 C407 1.362 . S
C407 H397 0.930 . S
C407 C400 1.409 . S
C407 C406 1.362 . S
H408 C414 0.935 . S
H409 C417 0.930 . S
H410 C418 0.930 . S
H411 C419 0.930 . S
H412 C422 0.930 . S
H413 C423 0.930 . S
C414 H408 0.935 . S
C414 C415 1.351 1_556 S
C414 C416 1.413 1_556 S
C415 C414 1.351 1_554 S
C415 C417 1.419 . S
C416 C414 1.413 1_554 S
C416 C421 1.425 . S
C416 C423 1.409 1_554 S
C417 H409 0.930 . S
C417 C415 1.419 . S
C417 C418 1.362 . S
C418 H410 0.930 . S
C418 C417 1.362 . S
C418 C421 1.409 . S
C419 H411 0.930 . S
C419 C420 1.355 . S
C419 C421 1.415 . S
C420 C419 1.355 . S
C420 C422 1.419 1_554 S
C421 C416 1.425 . S
C421 C418 1.409 . S
C421 C419 1.415 . S
C422 H412 0.930 . S
C422 C420 1.419 1_556 S
C422 C423 1.362 . S
C423 H413 0.930 . S
C423 C416 1.409 1_556 S
C423 C422 1.362 . S
H424 C430 0.930 . S
H425 C433 0.930 . S
H426 C434 0.930 . S
H427 C435 0.930 . S
H428 C438 0.930 . S
H429 C439 0.930 . S
C430 H424 0.930 . S
C430 C431 1.355 1_556 S
C430 C432 1.415 . S
C431 C430 1.355 1_554 S
C431 C433 1.419 . S
C432 C430 1.415 . S
C432 C437 1.425 1_556 S
C432 C439 1.409 . S
C433 H425 0.930 . S
C433 C431 1.419 . S
C433 C434 1.362 . S
C434 H426 0.930 . S
C434 C433 1.362 . S
C434 C437 1.409 . S
C435 H427 0.930 . S
C435 C436 1.355 . S
C435 C437 1.415 . S
C436 C435 1.355 . S
C436 C438 1.419 1_554 S
C437 C432 1.425 1_554 S
C437 C434 1.409 . S
C437 C435 1.415 . S
C438 H428 0.930 . S
C438 C436 1.419 1_556 S
C438 C439 1.362 . S
C439 H429 0.930 . S
C439 C432 1.409 . S
C439 C438 1.362 . S
H440 C446 0.930 . S
H441 C449 0.930 . S
H442 C450 0.930 . S
H443 C451 0.930 . S
H444 C454 0.930 1_556 S
H445 C455 0.930 1_556 S
C446 H440 0.930 . S
C446 C447 1.355 . S
C446 C448 1.415 . S
C447 C446 1.355 . S
C447 C449 1.419 . S
C448 C446 1.415 . S
C448 C453 1.425 . S
C448 C455 1.409 . S
C449 H441 0.930 . S
C449 C447 1.419 . S
C449 C450 1.362 . S
C450 H442 0.930 . S
C450 C449 1.362 . S
C450 C453 1.409 . S
C451 H443 0.930 . S
C451 C452 1.355 . S
C451 C453 1.415 . S
C452 C451 1.355 . S
C452 C454 1.419 . S
C453 C448 1.425 . S
C453 C450 1.409 . S
C453 C451 1.415 . S
C454 H444 0.930 1_554 S
C454 C452 1.419 . S
C454 C455 1.362 . S
C455 H445 0.930 1_554 S
C455 C448 1.409 . S
C455 C454 1.362 . S
H456 C462 0.930 . S
H457 C465 0.930 . S
H458 C466 0.930 . S
H459 C467 0.930 . S
H460 C470 0.930 . S
H461 C471 0.930 . S
C462 H456 0.930 . S
C462 C463 1.355 . S
C462 C464 1.415 1_655 S
C463 C462 1.355 . S
C463 C465 1.419 . S
C464 C462 1.415 1_455 S
C464 C469 1.425 . S
C464 C471 1.409 . S
C465 H457 0.930 . S
C465 C463 1.419 . S
C465 C466 1.362 1_655 S
C466 H458 0.930 . S
C466 C465 1.362 1_455 S
C466 C469 1.409 . S
C467 H459 0.930 . S
C467 C468 1.355 . S
C467 C469 1.415 . S
C468 C467 1.355 . S
C468 C470 1.419 . S
C469 C464 1.425 . S
C469 C466 1.409 . S
C469 C467 1.415 . S
C470 H460 0.930 . S
C470 C468 1.419 . S
C470 C471 1.362 . S
C471 H461 0.930 . S
C471 C464 1.409 . S
C471 C470 1.362 . S
H472 C478 0.930 . S
H473 C481 0.930 . S
H474 C482 0.930 . S
H475 C483 0.930 . S
H476 C486 0.930 . S
H477 C487 0.930 . S
C478 H472 0.930 . S
C478 C479 1.355 . S
C478 C480 1.415 . S
C479 C478 1.355 . S
C479 C481 1.419 . S
C480 C478 1.415 . S
C480 C485 1.425 . S
C480 C487 1.409 . S
C481 H473 0.930 . S
C481 C479 1.419 . S
C481 C482 1.362 . S
C482 H474 0.930 . S
C482 C481 1.362 . S
C482 C485 1.409 . S
C483 H475 0.930 . S
C483 C484 1.355 . S
C483 C485 1.415 . S
C484 C483 1.355 . S
C484 C486 1.419 . S
C485 C480 1.425 . S
C485 C482 1.409 . S
C485 C483 1.415 . S
C486 H476 0.930 . S
C486 C484 1.419 . S
C486 C487 1.362 . S
C487 H477 0.930 . S
C487 C480 1.409 . S
C487 C486 1.362 . S
H488 C494 0.930 . S
H489 C497 0.930 . S
H490 C498 0.930 . S
H491 C499 0.930 . S
H492 C502 0.930 . S
H493 C503 0.930 . S
C494 H488 0.930 . S
C494 C495 1.355 . S
C494 C496 1.415 1_545 S
C495 C494 1.355 . S
C495 C497 1.419 . S
C496 C494 1.415 1_565 S
C496 C501 1.425 . S
C496 C503 1.409 . S
C497 H489 0.930 . S
C497 C495 1.419 . S
C497 C498 1.362 1_545 S
C498 H490 0.930 . S
C498 C497 1.362 1_565 S
C498 C501 1.409 . S
C499 H491 0.930 . S
C499 C500 1.355 . S
C499 C501 1.415 . S
C500 C499 1.355 . S
C500 C502 1.419 . S
C501 C496 1.425 . S
C501 C498 1.409 . S
C501 C499 1.415 . S
C502 H492 0.930 . S
C502 C500 1.419 . S
C502 C503 1.362 . S
C503 H493 0.930 . S
C503 C496 1.409 . S
C503 C502 1.362 . S
H504 C510 0.930 . S
H505 C513 0.930 . S
H506 C514 0.930 . S
H507 C515 0.930 . S
H508 C518 0.930 . S
H509 C519 0.930 . S
C510 H504 0.930 . S
C510 C511 1.355 . S
C510 C512 1.415 . S
C511 C510 1.355 . S
C511 C513 1.419 . S
C512 C510 1.415 . S
C512 C517 1.425 . S
C512 C519 1.409 . S
C513 H505 0.930 . S
C513 C511 1.419 . S
C513 C514 1.362 . S
C514 H506 0.930 . S
C514 C513 1.362 . S
C514 C517 1.409 . S
C515 H507 0.930 . S
C515 C516 1.355 . S
C515 C517 1.415 . S
C516 C515 1.355 . S
C516 C518 1.419 . S
C517 C512 1.425 . S
C517 C514 1.409 . S
C517 C515 1.415 . S
C518 H508 0.930 . S
C518 C516 1.419 . S
C518 C519 1.362 . S
C519 H509 0.930 . S
C519 C512 1.409 . S
C519 C518 1.362 . S
H520 C526 0.930 . S
H521 C529 0.930 . S
H522 C530 0.930 . S
H523 C531 0.930 . S
H524 C534 0.930 . S
H525 C535 0.930 . S
C526 H520 0.930 . S
C526 C527 1.355 . S
C526 C528 1.415 . S
C527 C526 1.355 . S
C527 C529 1.419 . S
C528 C526 1.415 . S
C528 C533 1.425 . S
C528 C535 1.409 . S
C529 H521 0.930 . S
C529 C527 1.419 . S
C529 C530 1.362 . S
C530 H522 0.930 . S
C530 C529 1.362 . S
C530 C533 1.409 . S
C531 H523 0.930 . S
C531 C532 1.355 . S
C531 C533 1.415 . S
C532 C531 1.355 . S
C532 C534 1.419 . S
C533 C528 1.425 . S
C533 C530 1.409 . S
C533 C531 1.415 . S
C534 H524 0.930 . S
C534 C532 1.419 . S
C534 C535 1.362 . S
C535 H525 0.930 . S
C535 C528 1.409 . S
C535 C534 1.362 . S
H536 C542 0.930 . S
H537 C545 0.930 . S
H538 C546 0.930 . S
H539 C547 0.930 . S
H540 C550 0.930 . S
H541 C551 0.930 . S
C542 H536 0.930 . S
C542 C543 1.355 . S
C542 C544 1.415 . S
C543 C542 1.355 . S
C543 C545 1.419 . S
C544 C542 1.415 . S
C544 C549 1.425 . S
C544 C551 1.409 . S
C545 H537 0.930 . S
C545 C543 1.419 . S
C545 C546 1.362 . S
C546 H538 0.930 . S
C546 C545 1.362 . S
C546 C549 1.409 . S
C547 H539 0.930 . S
C547 C548 1.355 . S
C547 C549 1.415 . S
C548 C547 1.355 . S
C548 C550 1.419 . S
C549 C544 1.425 . S
C549 C546 1.409 . S
C549 C547 1.415 . S
C550 H540 0.930 . S
C550 C548 1.419 . S
C550 C551 1.362 . S
C551 H541 0.930 . S
C551 C544 1.409 . S
C551 C550 1.362 . S
H552 C558 0.930 . S
H553 C561 0.930 . S
H554 C562 0.930 . S
H555 C563 0.930 . S
H556 C566 0.930 . S
H557 C567 0.930 . S
C558 H552 0.930 . S
C558 C559 1.355 . S
C558 C560 1.415 . S
C559 C558 1.355 . S
C559 C561 1.419 . S
C560 C558 1.415 . S
C560 C565 1.425 . S
C560 C567 1.409 . S
C561 H553 0.930 . S
C561 C559 1.419 . S
C561 C562 1.362 . S
C562 H554 0.930 . S
C562 C561 1.362 . S
C562 C565 1.409 . S
C563 H555 0.930 . S
C563 C564 1.355 . S
C563 C565 1.415 . S
C564 C563 1.355 . S
C564 C566 1.419 . S
C565 C560 1.425 . S
C565 C562 1.409 . S
C565 C563 1.415 . S
C566 H556 0.930 . S
C566 C564 1.419 . S
C566 C567 1.362 . S
C567 H557 0.930 . S
C567 C560 1.409 . S
C567 C566 1.362 . S
H568 C574 0.930 . S
H569 C577 0.930 . S
H570 C578 0.930 . S
H571 C579 0.930 . S
H572 C582 0.930 . S
H573 C583 0.930 . S
C574 H568 0.930 . S
C574 C575 1.355 . S
C574 C576 1.415 . S
C575 C574 1.355 . S
C575 C577 1.419 . S
C576 C574 1.415 . S
C576 C581 1.425 . S
C576 C583 1.409 . S
C577 H569 0.930 . S
C577 C575 1.419 . S
C577 C578 1.362 . S
C578 H570 0.930 . S
C578 C577 1.362 . S
C578 C581 1.409 . S
C579 H571 0.930 . S
C579 C580 1.355 . S
C579 C581 1.415 . S
C580 C579 1.355 . S
C580 C582 1.419 . S
C581 C576 1.425 . S
C581 C578 1.409 . S
C581 C579 1.415 . S
C582 H572 0.930 . S
C582 C580 1.419 . S
C582 C583 1.362 . S
C583 H573 0.930 . S
C583 C576 1.409 . S
C583 C582 1.362 . S
H584 C590 0.930 . S
H585 C593 0.930 . S
H586 C594 0.930 . S
H587 C595 0.930 . S
H588 C598 0.930 . S
H589 C599 0.930 . S
C590 H584 0.930 . S
C590 C591 1.355 . S
C590 C592 1.415 . S
C591 C590 1.355 . S
C591 C593 1.419 . S
C592 C590 1.415 . S
C592 C597 1.425 . S
C592 C599 1.409 . S
C593 H585 0.930 . S
C593 C591 1.419 . S
C593 C594 1.362 . S
C594 H586 0.930 . S
C594 C593 1.362 . S
C594 C597 1.409 . S
C595 H587 0.930 . S
C595 C596 1.355 . S
C595 C597 1.415 . S
C596 C595 1.355 . S
C596 C598 1.419 . S
C597 C592 1.425 . S
C597 C594 1.409 . S
C597 C595 1.415 . S
C598 H588 0.930 . S
C598 C596 1.419 . S
C598 C599 1.362 . S
C599 H589 0.930 . S
C599 C592 1.409 . S
C599 C598 1.362 . S
H600 C606 0.930 . S
H601 C609 0.930 . S
H602 C610 0.930 . S
H603 C611 0.930 . S
H604 C614 0.930 . S
H605 C615 0.930 . S
C606 H600 0.930 . S
C606 C607 1.355 . S
C606 C608 1.415 . S
C607 C606 1.355 . S
C607 C609 1.419 . S
C608 C606 1.415 . S
C608 C613 1.425 . S
C608 C615 1.409 . S
C609 H601 0.930 . S
C609 C607 1.419 . S
C609 C610 1.362 . S
C610 H602 0.930 . S
C610 C609 1.362 . S
C610 C613 1.409 . S
C611 H603 0.930 . S
C611 C612 1.355 . S
C611 C613 1.415 . S
C612 C611 1.355 . S
C612 C614 1.419 . S
C613 C608 1.425 . S
C613 C610 1.409 . S
C613 C611 1.415 . S
C614 H604 0.930 . S
C614 C612 1.419 . S
C614 C615 1.362 . S
C615 H605 0.930 . S
C615 C608 1.409 . S
C615 C614 1.362 . S
H616 C622 0.930 . S
H617 C625 0.930 . S
H618 C626 0.930 . S
H619 C627 0.930 . S
H620 C630 0.930 . S
H621 C631 0.930 . S
C622 H616 0.930 . S
C622 C623 1.355 . S
C622 C624 1.415 . S
C623 C622 1.355 . S
C623 C625 1.419 . S
C624 C622 1.415 . S
C624 C629 1.425 . S
C624 C631 1.409 1_565 S
C625 H617 0.930 . S
C625 C623 1.419 . S
C625 C626 1.362 . S
C626 H618 0.930 . S
C626 C625 1.362 . S
C626 C629 1.409 . S
C627 H619 0.930 . S
C627 C628 1.355 1_565 S
C627 C629 1.415 . S
C628 C627 1.355 1_545 S
C628 C630 1.419 . S
C629 C624 1.425 . S
C629 C626 1.409 . S
C629 C627 1.415 . S
C630 H620 0.930 . S
C630 C628 1.419 . S
C630 C631 1.362 . S
C631 H621 0.930 . S
C631 C624 1.409 1_545 S
C631 C630 1.362 . S
H632 C638 0.930 . S
H633 C641 0.930 . S
H634 C642 0.930 . S
H635 C643 0.930 . S
H636 C646 0.930 . S
H637 C647 0.930 . S
C638 H632 0.930 . S
C638 C639 1.355 . S
C638 C640 1.415 . S
C639 C638 1.355 . S
C639 C641 1.419 . S
C640 C638 1.415 . S
C640 C645 1.425 . S
C640 C647 1.409 . S
C641 H633 0.930 . S
C641 C639 1.419 . S
C641 C642 1.362 1_455 S
C642 H634 0.930 . S
C642 C641 1.362 1_655 S
C642 C645 1.409 1_655 S
C643 H635 0.930 . S
C643 C644 1.355 . S
C643 C645 1.415 1_655 S
C644 C643 1.355 . S
C644 C646 1.419 1_655 S
C645 C640 1.425 . S
C645 C642 1.409 1_455 S
C645 C643 1.415 1_455 S
C646 H636 0.930 . S
C646 C644 1.419 1_455 S
C646 C647 1.362 . S
C647 H637 0.930 . S
C647 C640 1.409 . S
C647 C646 1.362 . S
H648 C654 0.930 . S
H649 C657 0.930 . S
H650 C658 0.930 . S
H651 C659 0.930 . S
H652 C662 0.930 . S
H653 C663 0.930 . S
C654 H648 0.930 . S
C654 C655 1.355 . S
C654 C656 1.415 . S
C655 C654 1.355 . S
C655 C657 1.419 . S
C656 C654 1.415 . S
C656 C661 1.425 . S
C656 C663 1.409 . S
C657 H649 0.930 . S
C657 C655 1.419 . S
C657 C658 1.362 . S
C658 H650 0.930 . S
C658 C657 1.362 . S
C658 C661 1.409 . S
C659 H651 0.930 . S
C659 C660 1.355 . S
C659 C661 1.415 . S
C660 C659 1.355 . S
C660 C662 1.419 . S
C661 C656 1.425 . S
C661 C658 1.409 . S
C661 C659 1.415 . S
C662 H652 0.930 . S
C662 C660 1.419 . S
C662 C663 1.362 . S
C663 H653 0.930 . S
C663 C656 1.409 . S
C663 C662 1.362 . S
H664 C670 0.930 . S
H665 C673 0.930 . S
H666 C674 0.930 . S
H667 C675 0.930 . S
H668 C678 0.930 . S
H669 C679 0.930 . S
C670 H664 0.930 . S
C670 C671 1.355 . S
C670 C672 1.415 . S
C671 C670 1.355 . S
C671 C673 1.419 . S
C672 C670 1.415 . S
C672 C677 1.425 . S
C672 C679 1.409 . S
C673 H665 0.930 . S
C673 C671 1.419 . S
C673 C674 1.362 . S
C674 H666 0.930 . S
C674 C673 1.362 . S
C674 C677 1.409 . S
C675 H667 0.930 . S
C675 C676 1.355 . S
C675 C677 1.415 . S
C676 C675 1.355 . S
C676 C678 1.419 . S
C677 C672 1.425 . S
C677 C674 1.409 . S
C677 C675 1.415 . S
C678 H668 0.930 . S
C678 C676 1.419 . S
C678 C679 1.362 . S
C679 H669 0.930 . S
C679 C672 1.409 . S
C679 C678 1.362 . S
H680 C686 0.930 . S
H681 C689 0.930 . S
H682 C690 0.930 . S
H683 C691 0.930 . S
H684 C694 0.930 . S
H685 C695 0.930 . S
C686 H680 0.930 . S
C686 C687 1.355 . S
C686 C688 1.415 . S
C687 C686 1.355 . S
C687 C689 1.419 . S
C688 C686 1.415 . S
C688 C693 1.425 . S
C688 C695 1.409 . S
C689 H681 0.930 . S
C689 C687 1.419 . S
C689 C690 1.362 . S
C690 H682 0.930 . S
C690 C689 1.362 . S
C690 C693 1.409 . S
C691 H683 0.930 . S
C691 C692 1.355 . S
C691 C693 1.415 . S
C692 C691 1.355 . S
C692 C694 1.419 . S
C693 C688 1.425 . S
C693 C690 1.409 . S
C693 C691 1.415 . S
C694 H684 0.930 . S
C694 C692 1.419 . S
C694 C695 1.362 . S
C695 H685 0.930 . S
C695 C688 1.409 . S
C695 C694 1.362 . S
H696 C702 0.930 . S
H697 C705 0.930 . S
H698 C706 0.930 . S
H699 C707 0.930 . S
H700 C710 0.930 . S
H701 C711 0.930 . S
C702 H696 0.930 . S
C702 C703 1.355 . S
C702 C704 1.415 . S
C703 C702 1.355 . S
C703 C705 1.419 . S
C704 C702 1.415 . S
C704 C709 1.425 . S
C704 C711 1.409 . S
C705 H697 0.930 . S
C705 C703 1.419 . S
C705 C706 1.362 . S
C706 H698 0.930 . S
C706 C705 1.362 . S
C706 C709 1.409 . S
C707 H699 0.930 . S
C707 C708 1.355 . S
C707 C709 1.415 . S
C708 C707 1.355 . S
C708 C710 1.419 . S
C709 C704 1.425 . S
C709 C706 1.409 . S
C709 C707 1.415 . S
C710 H700 0.930 . S
C710 C708 1.419 . S
C710 C711 1.362 . S
C711 H701 0.930 . S
C711 C704 1.409 . S
C711 C710 1.362 . S
H712 C718 0.930 . S
H713 C721 0.930 . S
H714 C722 0.930 . S
H715 C723 0.930 . S
H716 C726 0.930 . S
H717 C727 0.930 . S
C718 H712 0.930 . S
C718 C719 1.355 . S
C718 C720 1.415 . S
C719 C718 1.355 . S
C719 C721 1.419 . S
C720 C718 1.415 . S
C720 C725 1.425 . S
C720 C727 1.409 . S
C721 H713 0.930 . S
C721 C719 1.419 . S
C721 C722 1.362 . S
C722 H714 0.930 . S
C722 C721 1.362 . S
C722 C725 1.409 . S
C723 H715 0.930 . S
C723 C724 1.355 . S
C723 C725 1.415 . S
C724 C723 1.355 . S
C724 C726 1.419 . S
C725 C720 1.425 . S
C725 C722 1.409 . S
C725 C723 1.415 . S
C726 H716 0.930 . S
C726 C724 1.419 . S
C726 C727 1.362 . S
C727 H717 0.930 . S
C727 C720 1.409 . S
C727 C726 1.362 . S
H728 C734 0.930 . S
H729 C737 0.930 . S
H730 C738 0.930 . S
H731 C739 0.930 . S
H732 C742 0.930 . S
H733 C743 0.930 . S
C734 H728 0.930 . S
C734 C735 1.355 . S
C734 C736 1.415 . S
C735 C734 1.355 . S
C735 C737 1.419 . S
C736 C734 1.415 . S
C736 C741 1.425 . S
C736 C743 1.409 . S
C737 H729 0.930 . S
C737 C735 1.419 . S
C737 C738 1.362 . S
C738 H730 0.930 . S
C738 C737 1.362 . S
C738 C741 1.409 . S
C739 H731 0.930 . S
C739 C740 1.355 . S
C739 C741 1.415 . S
C740 C739 1.355 . S
C740 C742 1.419 . S
C741 C736 1.425 . S
C741 C738 1.409 . S
C741 C739 1.415 . S
C742 H732 0.930 . S
C742 C740 1.419 . S
C742 C743 1.362 . S
C743 H733 0.930 . S
C743 C736 1.409 . S
C743 C742 1.362 . S
H744 C750 0.930 . S
H745 C753 0.930 . S
H746 C754 0.930 . S
H747 C755 0.930 . S
H748 C758 0.930 . S
H749 C759 0.930 . S
C750 H744 0.930 . S
C750 C751 1.355 . S
C750 C752 1.415 . S
C751 C750 1.355 . S
C751 C753 1.419 . S
C752 C750 1.415 . S
C752 C757 1.425 . S
C752 C759 1.409 . S
C753 H745 0.930 . S
C753 C751 1.419 . S
C753 C754 1.362 . S
C754 H746 0.930 . S
C754 C753 1.362 . S
C754 C757 1.409 . S
C755 H747 0.930 . S
C755 C756 1.355 . S
C755 C757 1.415 . S
C756 C755 1.355 . S
C756 C758 1.419 . S
C757 C752 1.425 . S
C757 C754 1.409 . S
C757 C755 1.415 . S
C758 H748 0.930 . S
C758 C756 1.419 . S
C758 C759 1.362 . S
C759 H749 0.930 . S
C759 C752 1.409 . S
C759 C758 1.362 . S
H760 C766 0.930 . S
H761 C769 0.930 . S
H762 C770 0.930 . S
H763 C771 0.930 . S
H764 C774 0.930 . S
H765 C775 0.930 . S
C766 H760 0.930 . S
C766 C767 1.355 . S
C766 C768 1.415 . S
C767 C766 1.355 . S
C767 C769 1.419 . S
C768 C766 1.415 . S
C768 C773 1.425 1_565 S
C768 C775 1.409 . S
C769 H761 0.930 . S
C769 C767 1.419 . S
C769 C770 1.362 1_565 S
C770 H762 0.930 . S
C770 C769 1.362 1_545 S
C770 C773 1.409 . S
C771 H763 0.930 . S
C771 C772 1.355 . S
C771 C773 1.415 . S
C772 C771 1.355 . S
C772 C774 1.419 . S
C773 C768 1.425 1_545 S
C773 C770 1.409 . S
C773 C771 1.415 . S
C774 H764 0.930 . S
C774 C772 1.419 . S
C774 C775 1.362 1_545 S
C775 H765 0.930 . S
C775 C768 1.409 . S
C775 C774 1.362 1_565 S
H776 C782 0.930 . S
H777 C785 0.930 . S
H778 C786 0.930 . S
H779 C787 0.930 . S
H780 C790 0.930 . S
H781 C791 0.930 . S
C782 H776 0.930 . S
C782 C783 1.355 . S
C782 C784 1.415 1_655 S
C783 C782 1.355 . S
C783 C785 1.419 . S
C784 C782 1.415 1_455 S
C784 C789 1.425 . S
C784 C791 1.409 . S
C785 H777 0.930 . S
C785 C783 1.419 . S
C785 C786 1.362 . S
C786 H778 0.930 . S
C786 C785 1.362 . S
C786 C789 1.409 1_655 S
C787 H779 0.930 . S
C787 C788 1.355 . S
C787 C789 1.415 . S
C788 C787 1.355 . S
C788 C790 1.419 . S
C789 C784 1.425 . S
C789 C786 1.409 1_455 S
C789 C787 1.415 . S
C790 H780 0.930 . S
C790 C788 1.419 . S
C790 C791 1.362 . S
C791 H781 0.930 . S
C791 C784 1.409 . S
C791 C790 1.362 . S
C367 C59 1.496 . S
C372 C15 1.535 . S
C383 C99 1.409 . S
C388 C55 1.484 . S
C399 C95 1.535 . S
C404 C19 1.496 . S
C415 C90 1.647 . S
C420 C46 1.575 . S
C431 C86 1.608 . S
C436 C10 1.674 . S
C447 C6 1.575 . S
C452 C50 1.648 . S
C463 C135 1.490 . S
C468 C179 1.421 . S
C479 C219 1.419 . S
C484 C175 1.489 . S
C495 C215 1.505 . S
C500 C139 1.446 . S
C511 C166 1.578 . S
C516 C210 1.651 . S
C527 C206 1.620 . S
C532 C130 1.669 . S
C543 C170 1.650 . S
C548 C126 1.577 . S
C559 C299 1.423 . S
C564 C255 1.491 . S
C575 C295 1.528 . S
C580 C339 1.484 . S
C591 C335 1.510 . S
C596 C259 1.456 . S
C607 C330 1.650 . S
C612 C286 1.586 . S
C623 C326 1.580 . S
C628 C250 1.653 . S
C639 C246 1.648 . S
C644 C290 1.696 . S
C655 C218 2.231 . S
C660 C9 2.616 . S
C671 C138 2.255 . S
C676 C49 2.630 . S
C687 C89 2.621 . S
C692 C178 2.234 . S
C703 C98 2.243 . S
C708 C249 2.612 . S
C719 C18 2.314 . S
C724 C289 2.632 . S
C735 C329 2.613 . S
C740 C58 2.259 . S
C751 C129 2.620 . S
C756 C338 2.294 . S
C767 C169 2.612 . S
C772 C258 2.252 . S
C783 C298 2.250 . S
C788 C209 2.628 . S
