# Generated by pormake.
# Topology sml, (6)-cn, num edge types: 1
# Building blocks:
#     Node 0, Type 0, BuildingBlock: PAMTUU_clean_sbu_0, # of connection points: 6
#     Node 1, Type 0, BuildingBlock: PAMTUU_clean_sbu_0, # of connection points: 6
#     Node 2, Type 0, BuildingBlock: PAMTUU_clean_sbu_0, # of connection points: 6
#     Node 3, Type 0, BuildingBlock: PAMTUU_clean_sbu_0, # of connection points: 6
#     Node 4, Type 0, BuildingBlock: PAMTUU_clean_sbu_0, # of connection points: 6
#     Node 5, Type 0, BuildingBlock: PAMTUU_clean_sbu_0, # of connection points: 6
#     Edge 6, Type (0, 0), BuildingBlock: MIFKUJ_clean_linker_0, # of connection points: 2
#     Edge 7, Type (0, 0), BuildingBlock: MIFKUJ_clean_linker_0, # of connection points: 2
#     Edge 8, Type (0, 0), BuildingBlock: MIFKUJ_clean_linker_0, # of connection points: 2
#     Edge 9, Type (0, 0), BuildingBlock: MIFKUJ_clean_linker_0, # of connection points: 2
#     Edge 10, Type (0, 0), BuildingBlock: MIFKUJ_clean_linker_0, # of connection points: 2
#     Edge 11, Type (0, 0), BuildingBlock: MIFKUJ_clean_linker_0, # of connection points: 2
#     Edge 12, Type (0, 0), BuildingBlock: MIFKUJ_clean_linker_0, # of connection points: 2
#     Edge 13, Type (0, 0), BuildingBlock: MIFKUJ_clean_linker_0, # of connection points: 2
#     Edge 14, Type (0, 0), BuildingBlock: MIFKUJ_clean_linker_0, # of connection points: 2
#     Edge 15, Type (0, 0), BuildingBlock: MIFKUJ_clean_linker_0, # of connection points: 2
#     Edge 16, Type (0, 0), BuildingBlock: MIFKUJ_clean_linker_0, # of connection points: 2
#     Edge 17, Type (0, 0), BuildingBlock: MIFKUJ_clean_linker_0, # of connection points: 2
#     Edge 18, Type (0, 0), BuildingBlock: MIFKUJ_clean_linker_0, # of connection points: 2
#     Edge 19, Type (0, 0), BuildingBlock: MIFKUJ_clean_linker_0, # of connection points: 2
#     Edge 20, Type (0, 0), BuildingBlock: MIFKUJ_clean_linker_0, # of connection points: 2
#     Edge 21, Type (0, 0), BuildingBlock: MIFKUJ_clean_linker_0, # of connection points: 2
#     Edge 22, Type (0, 0), BuildingBlock: MIFKUJ_clean_linker_0, # of connection points: 2
#     Edge 23, Type (0, 0), BuildingBlock: MIFKUJ_clean_linker_0, # of connection points: 2
# Relax obj value: 0.155
# Max RMSD: 0.211
# Mean RMSD: 0.211
data_MOF--net-sml--node1-PAMTUU_clean_sbu_0--edge1-MIFKUJ_clean_linker_0
_symmetry_space_group_name_H-M    P1
_symmetry_Int_Tables_number       1
_symmetry_cell_setting            triclinic
loop_
_symmetry_equiv_pos_as_xyz
'x, y, z'
_cell_length_a     44.783053
_cell_length_b     44.779111
_cell_length_c     29.739229
_cell_angle_alpha  90.132714
_cell_angle_beta   89.914881
_cell_angle_gamma 119.85877
loop_
_atom_site_label
_atom_site_type_symbol
_atom_site_fract_x
_atom_site_fract_y
_atom_site_fract_z
_atom_type_partial_charge
Tb0 Tb 0.21598 0.42281 0.05412 0.0
Tb1 Tb 0.17295 0.41673 0.96023 0.0
C2 C 0.25038 0.46977 0.97063 0.0
C3 C 0.23924 0.42507 0.17501 0.0
C4 C 0.22442 0.41992 0.26786 0.0
C5 C 0.25839 0.43265 0.25262 0.0
C6 C 0.26568 0.43518 0.20663 0.0
C7 C 0.20524 0.41223 0.18983 0.0
C8 C 0.19786 0.40956 0.23593 0.0
C9 C 0.24777 0.4291 0.12684 0.0
O10 O 0.17853 0.43784 0.07099 0.0
O11 O 0.17459 0.45798 1.00174 0.0
O12 O 0.13427 0.38643 0.0097 0.0
O13 O 0.16734 0.37454 0.05778 0.0
O14 O 0.16435 0.44228 0.90712 0.0
O15 O 0.13639 0.38678 0.911 0.0
O16 O 0.18829 0.37766 0.95713 0.0
O17 O 0.23569 0.40241 1.00337 0.0
O18 O 0.24642 0.46932 0.01441 0.0
O19 O 0.22705 0.44614 0.94454 0.0
C20 C 0.17118 0.45718 0.04575 0.0
O21 O 0.23359 0.40108 0.10257 0.0
O22 O 0.24656 0.45435 0.10687 0.0
C23 C 0.13724 0.36846 0.04249 0.0
C24 C 0.15053 0.41155 0.83852 0.0
C25 C 0.16323 0.40908 0.74578 0.0
C26 C 0.12951 0.39677 0.76179 0.0
C27 C 0.12327 0.39806 0.80767 0.0
C28 C 0.18421 0.42335 0.82294 0.0
C29 C 0.19049 0.42222 0.77698 0.0
C30 C 0.14341 0.41362 0.88653 0.0
C31 C 0.21772 0.3811 0.9709 0.0
H32 H 0.27935 0.4405 0.2763 0.0
H33 H 0.29207 0.44523 0.19574 0.0
H34 H 0.18452 0.40458 0.16578 0.0
H35 H 0.17152 0.40005 0.24658 0.0
H36 H 0.10797 0.38686 0.73871 0.0
H37 H 0.09712 0.38885 0.81904 0.0
H38 H 0.20566 0.43368 0.84622 0.0
H39 H 0.21669 0.43159 0.76586 0.0
Tb40 Tb 0.7914 0.21616 0.38348 0.0
Tb41 Tb 0.74645 0.17625 0.2901 0.0
C42 C 0.78307 0.25609 0.30301 0.0
C43 C 0.81373 0.23841 0.50448 0.0
C44 C 0.79978 0.22749 0.59775 0.0
C45 C 0.82751 0.25854 0.58174 0.0
C46 C 0.83439 0.26388 0.53563 0.0
C47 C 0.7858 0.20747 0.52003 0.0
C48 C 0.77892 0.20206 0.56622 0.0
C49 C 0.82186 0.24444 0.4561 0.0
O50 O 0.73846 0.20405 0.3933 0.0
O51 O 0.70869 0.15898 0.34388 0.0
O52 O 0.75597 0.1393 0.32491 0.0
O53 O 0.76614 0.16174 0.39686 0.0
O54 O 0.70814 0.16816 0.24284 0.0
O55 O 0.73871 0.14349 0.23541 0.0
O56 O 0.80006 0.20528 0.27118 0.0
O57 O 0.82653 0.20973 0.33921 0.0
O58 O 0.80408 0.25595 0.3336 0.0
O59 O 0.75434 0.22811 0.29217 0.0
C60 C 0.71006 0.17651 0.38009 0.0
O61 O 0.82564 0.22102 0.43488 0.0
O62 O 0.80366 0.25431 0.4328 0.0
C63 C 0.75931 0.13675 0.36837 0.0
C64 C 0.72182 0.15918 0.16885 0.0
C65 C 0.73439 0.17477 0.07614 0.0
C66 C 0.70645 0.14325 0.09057 0.0
C67 C 0.70027 0.13559 0.1364 0.0
C68 C 0.74958 0.19081 0.15491 0.0
C69 C 0.75579 0.19856 0.10898 0.0
C70 C 0.716 0.14961 0.21678 0.0
C71 C 0.82688 0.21047 0.29499 0.0
H72 H 0.84377 0.27895 0.60483 0.0
H73 H 0.85595 0.28799 0.52427 0.0
H74 H 0.76948 0.18744 0.49649 0.0
H75 H 0.75764 0.17773 0.5773 0.0
H76 H 0.68976 0.12404 0.06643 0.0
H77 H 0.67891 0.11091 0.1465 0.0
H78 H 0.76663 0.20933 0.17952 0.0
H79 H 0.7773 0.22321 0.09924 0.0
Tb80 Tb 0.5734 0.79573 0.72202 0.0
Tb81 Tb 0.57804 0.75774 0.62777 0.0
C82 C 0.52977 0.78909 0.63448 0.0
C83 C 0.5728 0.81645 0.84414 0.0
C84 C 0.5796 0.80865 0.93719 0.0
C85 C 0.55843 0.82137 0.92158 0.0
C86 C 0.55514 0.82527 0.87555 0.0
C87 C 0.5936 0.80324 0.85931 0.0
C88 C 0.59708 0.79951 0.90546 0.0
C89 C 0.56899 0.82122 0.79593 0.0
O90 O 0.55183 0.74144 0.73509 0.0
O91 O 0.53157 0.72213 0.6643 0.0
O92 O 0.60314 0.74483 0.6799 0.0
O93 O 0.62035 0.79262 0.72429 0.0
O94 O 0.55344 0.72224 0.57558 0.0
O95 O 0.60887 0.75115 0.57965 0.0
O96 O 0.61865 0.81155 0.62616 0.0
O97 O 0.59554 0.83604 0.67254 0.0
O98 O 0.53093 0.78906 0.67883 0.0
O99 O 0.55072 0.78394 0.60902 0.0
C100 C 0.52998 0.7176 0.70797 0.0
O101 O 0.59688 0.83403 0.77145 0.0
O102 O 0.54286 0.79574 0.77574 0.0
C103 C 0.62332 0.76621 0.71091 0.0
C104 C 0.58425 0.73903 0.50701 0.0
C105 C 0.58741 0.75354 0.41408 0.0
C106 C 0.60586 0.7385 0.43215 0.0
C107 C 0.60421 0.73127 0.47812 0.0
C108 C 0.56621 0.75455 0.48934 0.0
C109 C 0.5676 0.76152 0.4433 0.0
C110 C 0.58234 0.73054 0.55523 0.0
C111 C 0.61632 0.83822 0.64008 0.0
H112 H 0.54404 0.82799 0.94492 0.0
H113 H 0.53871 0.83519 0.86445 0.0
H114 H 0.60731 0.79605 0.83554 0.0
H115 H 0.61384 0.78996 0.9163 0.0
H116 H 0.62179 0.7325 0.41079 0.0
H117 H 0.61851 0.71951 0.49114 0.0
H118 H 0.5508 0.76103 0.51101 0.0
H119 H 0.5528 0.77279 0.43054 0.0
Tb120 Tb 0.77639 0.57072 0.05407 0.0
Tb121 Tb 0.82082 0.57786 0.96057 0.0
C122 C 0.74226 0.52588 0.96748 0.0
C123 C 0.75308 0.56927 0.17526 0.0
C124 C 0.76734 0.57411 0.26844 0.0
C125 C 0.7332 0.55874 0.25274 0.0
C126 C 0.72619 0.55637 0.20665 0.0
C127 C 0.78725 0.58478 0.19053 0.0
C128 C 0.79432 0.58729 0.23675 0.0
C129 C 0.74488 0.56557 0.12689 0.0
O130 O 0.81091 0.55163 0.06979 0.0
O131 O 0.81711 0.53463 0.99904 0.0
O132 O 0.85864 0.60394 0.01266 0.0
O133 O 0.82601 0.61786 0.05867 0.0
O134 O 0.83106 0.55403 0.90663 0.0
O135 O 0.85756 0.60939 0.91241 0.0
O136 O 0.80834 0.619 0.96161 0.0
O137 O 0.75889 0.5933 1.00384 0.0
O138 O 0.74376 0.52643 0.01169 0.0
O139 O 0.76713 0.54911 0.94265 0.0
C140 C 0.81882 0.53329 0.04308 0.0
O141 O 0.76002 0.59357 0.10277 0.0
O142 O 0.74498 0.53974 0.10671 0.0
C143 C 0.85593 0.62199 0.04564 0.0
C144 C 0.84376 0.58573 0.83918 0.0
C145 C 0.82982 0.5883 0.74695 0.0
C146 C 0.8639 0.60217 0.76237 0.0
C147 C 0.87076 0.60079 0.80801 0.0
C148 C 0.80974 0.57259 0.82421 0.0
C149 C 0.80283 0.57365 0.77852 0.0
C150 C 0.85135 0.58323 0.88685 0.0
C151 C 0.77891 0.61616 0.97417 0.0
H152 H 0.71183 0.54877 0.27613 0.0
H153 H 0.69967 0.54432 0.19548 0.0
H154 H 0.80838 0.59471 0.16674 0.0
H155 H 0.82087 0.59896 0.24762 0.0
H156 H 0.88527 0.61327 0.73898 0.0
H157 H 0.89718 0.6111 0.81889 0.0
H158 H 0.78849 0.56116 0.84777 0.0
H159 H 0.77633 0.5631 0.76792 0.0
Tb160 Tb 0.19998 0.7714 0.39511 0.0
Tb161 Tb 0.23552 0.81749 0.30218 0.0
C162 C 0.21009 0.73896 0.3067 0.0
C163 C 0.18227 0.74707 0.5163 0.0
C164 C 0.19241 0.76184 0.6094 0.0
C165 C 0.17193 0.72777 0.594 0.0
C166 C 0.16694 0.72051 0.54794 0.0
C167 C 0.20276 0.78113 0.53125 0.0
C168 C 0.20773 0.78847 0.5774 0.0
C169 C 0.17709 0.73869 0.46797 0.0
O170 O 0.25228 0.81003 0.41112 0.0
O171 O 0.2757 0.81553 0.34111 0.0
O172 O 0.24189 0.85452 0.35371 0.0
O173 O 0.19745 0.81838 0.40073 0.0
O174 O 0.27063 0.82923 0.24921 0.0
O175 O 0.23976 0.85373 0.25383 0.0
O176 O 0.18138 0.80247 0.30232 0.0
O177 O 0.15846 0.75387 0.34666 0.0
O178 O 0.21272 0.74052 0.35077 0.0
O179 O 0.21109 0.76402 0.28292 0.0
C180 C 0.27886 0.81865 0.38499 0.0
O181 O 0.16168 0.75193 0.44509 0.0
O182 O 0.20361 0.74119 0.4464 0.0
C183 C 0.21998 0.84933 0.38637 0.0
C184 C 0.25209 0.84139 0.18103 0.0
C185 C 0.23772 0.82741 0.08829 0.0
C186 C 0.26037 0.86109 0.1035 0.0
C187 C 0.26751 0.86796 0.14939 0.0
C188 C 0.22901 0.80781 0.16623 0.0
C189 C 0.22198 0.80086 0.12029 0.0
C190 C 0.26099 0.84886 0.22906 0.0
C191 C 0.1551 0.77356 0.31674 0.0
H192 H 0.15934 0.70669 0.61757 0.0
H193 H 0.15106 0.69406 0.53702 0.0
H194 H 0.21501 0.80199 0.50725 0.0
H195 H 0.22397 0.81493 0.58798 0.0
H196 H 0.27323 0.88206 0.07981 0.0
H197 H 0.28543 0.89401 0.16013 0.0
H198 H 0.21665 0.78695 0.19017 0.0
H199 H 0.2041 0.77473 0.10984 0.0
Tb200 Tb 0.40948 0.18023 0.72525 0.0
Tb201 Tb 0.42082 0.22581 0.63191 0.0
C202 C 0.4492 0.17568 0.64128 0.0
C203 C 0.40277 0.15568 0.8463 0.0
C204 C 0.40375 0.17021 0.93906 0.0
C205 C 0.41415 0.14704 0.92366 0.0
C206 C 0.41364 0.13987 0.87779 0.0
C207 C 0.3921 0.17865 0.86132 0.0
C208 C 0.39236 0.18566 0.90733 0.0
C209 C 0.404 0.14879 0.79804 0.0
O210 O 0.43928 0.23372 0.74371 0.0
O211 O 0.46532 0.25492 0.67572 0.0
O212 O 0.39848 0.24535 0.68019 0.0
O213 O 0.37271 0.19849 0.72765 0.0
O214 O 0.45467 0.25472 0.58005 0.0
O215 O 0.40297 0.2467 0.5824 0.0
O216 O 0.37053 0.17995 0.62625 0.0
O217 O 0.3767 0.14342 0.67525 0.0
O218 O 0.45011 0.17963 0.68512 0.0
O219 O 0.4318 0.18525 0.61561 0.0
C220 C 0.46398 0.25773 0.71962 0.0
O221 O 0.37782 0.14404 0.77358 0.0
O222 O 0.43318 0.16862 0.77797 0.0
C223 C 0.3763 0.22759 0.71201 0.0
C224 C 0.42665 0.2491 0.51045 0.0
C225 C 0.4194 0.2339 0.4174 0.0
C226 C 0.41337 0.25965 0.43486 0.0
C227 C 0.41706 0.26721 0.4809 0.0
C228 C 0.43212 0.22292 0.49333 0.0
C229 C 0.42866 0.2155 0.44721 0.0
C230 C 0.43109 0.25812 0.55873 0.0
C231 C 0.36062 0.14906 0.64229 0.0
H232 H 0.42251 0.13422 0.94711 0.0
H233 H 0.42201 0.12211 0.86684 0.0
H234 H 0.38386 0.19138 0.8375 0.0
H235 H 0.38427 0.20365 0.91794 0.0
H236 H 0.4065 0.27448 0.41277 0.0
H237 H 0.41268 0.28746 0.4934 0.0
H238 H 0.4393 0.20836 0.5155 0.0
H239 H 0.43311 0.19526 0.43488 0.0
H240 H 0.37925 0.28892 0.69391 0.0
H241 H 0.35137 0.31541 0.73568 0.0
H242 H 0.30138 0.22591 0.82102 0.0
H243 H 0.32936 0.19938 0.78004 0.0
H244 H 0.28615 0.29922 0.75326 0.0
H245 H 0.30506 0.25267 0.92872 0.0
H246 H 0.34631 0.23945 0.96614 0.0
H247 H 0.42513 0.30443 0.87266 0.0
H248 H 0.38459 0.31844 0.83519 0.0
H249 H 0.18545 0.32718 0.91223 0.0
H250 H 0.21196 0.30139 0.86616 0.0
H251 H 0.31107 0.37112 0.92431 0.0
H252 H 0.28462 0.39617 0.97144 0.0
H253 H 0.30542 0.31183 0.91819 0.0
H254 H 0.28784 0.38385 0.81752 0.0
H255 H 0.25669 0.40797 0.77704 0.0
H256 H 0.19032 0.30934 0.71699 0.0
H257 H 0.22096 0.28454 0.75741 0.0
C258 C 0.36206 0.2747 0.72128 0.0
C259 C 0.35681 0.24218 0.73393 0.0
C260 C 0.34608 0.28985 0.74498 0.0
C261 C 0.32474 0.27277 0.78173 0.0
C262 C 0.3182 0.23968 0.79313 0.0
C263 C 0.33417 0.22455 0.76956 0.0
C264 C 0.31064 0.29014 0.8097 0.0
C265 C 0.29021 0.30193 0.78934 0.0
C266 C 0.31709 0.29473 0.85646 0.0
C267 C 0.34163 0.28633 0.87889 0.0
C268 C 0.33121 0.2642 0.91625 0.0
C269 C 0.35448 0.2566 0.93749 0.0
C270 C 0.38831 0.27114 0.92182 0.0
C271 C 0.39891 0.29318 0.88476 0.0
C272 C 0.37578 0.30091 0.86347 0.0
C273 C 0.21284 0.33679 0.91545 0.0
C274 C 0.23294 0.36365 0.9455 0.0
C275 C 0.22799 0.32222 0.88886 0.0
C276 C 0.26359 0.33471 0.89126 0.0
C277 C 0.28355 0.36105 0.92191 0.0
C278 C 0.26836 0.3753 0.9489 0.0
C279 C 0.28011 0.32028 0.86204 0.0
C280 C 0.30111 0.30902 0.88216 0.0
C281 C 0.27537 0.3176 0.8148 0.0
C282 C 0.25648 0.33224 0.7909 0.0
C283 C 0.26639 0.36721 0.79603 0.0
C284 C 0.24886 0.38103 0.773 0.0
C285 C 0.22145 0.36017 0.74455 0.0
C286 C 0.21152 0.32545 0.7391 0.0
C287 C 0.229 0.31151 0.76199 0.0
H288 H 0.20801 0.37092 0.72656 0.0
H289 H 0.40633 0.26538 0.93845 0.0
H290 H 0.13255 0.34169 0.12649 0.0
H291 H 0.08027 0.30906 0.1711 0.0
H292 H 0.01883 0.30777 0.05866 0.0
H293 H 0.07091 0.34084 0.01412 0.0
H294 H 0.00363 0.3309 0.13262 0.0
H295 H 0.0183 0.23464 0.09379 0.0
H296 H 0.04963 0.2025 0.08774 0.0
H297 H 0.06172 0.20614 0.2312 0.0
H298 H 0.03084 0.23872 0.23806 0.0
H299 H 0.83735 0.21668 0.20447 0.0
H300 H 0.89163 0.23824 0.16454 0.0
H301 H 0.94425 0.24831 0.28981 0.0
H302 H 0.88972 0.2266 0.33061 0.0
H303 H 0.96575 0.22151 0.21497 0.0
H304 H 0.94919 0.31633 0.25333 0.0
H305 H 0.91571 0.3463 0.25891 0.0
H306 H 0.90657 0.34477 0.11513 0.0
H307 H 0.93944 0.31412 0.10871 0.0
C308 C 0.10786 0.33381 0.11094 0.0
C309 C 0.10582 0.344 0.06688 0.0
C310 C 0.07801 0.31516 0.13649 0.0
C311 C 0.04572 0.30607 0.11816 0.0
C312 C 0.04356 0.31475 0.07348 0.0
C313 C 0.07333 0.33357 0.04806 0.0
C314 C 0.01439 0.28991 0.14638 0.0
C315 C -0.00485 0.30676 0.15014 0.0
C316 C 0.00403 0.25904 0.17043 0.0
C317 C 0.02258 0.23944 0.16639 0.0
C318 C 0.0279 0.22885 0.12402 0.0
C319 C 0.04552 0.2105 0.12045 0.0
C320 C 0.05775 0.20237 0.15905 0.0
C321 C 0.05229 0.2125 0.20132 0.0
C322 C 0.0347 0.23088 0.20507 0.0
C323 C 0.8603 0.22311 0.22371 0.0
C324 C 0.85929 0.22036 0.27086 0.0
C325 C 0.89128 0.23537 0.20074 0.0
C326 C 0.92181 0.24516 0.2244 0.0
C327 C 0.92081 0.24087 0.27115 0.0
C328 C 0.88971 0.22864 0.29433 0.0
C329 C 0.95489 0.26218 0.2002 0.0
C330 C 0.97445 0.24569 0.19747 0.0
C331 C 0.96562 0.29341 0.17697 0.0
C332 C 0.94656 0.31263 0.18057 0.0
C333 C 0.93985 0.32215 0.2229 0.0
C334 C 0.92099 0.33927 0.22622 0.0
C335 C 0.90897 0.34736 0.18741 0.0
C336 C 0.91588 0.33844 0.14517 0.0
C337 C 0.93465 0.3212 0.14167 0.0
H338 H 0.89439 0.36062 0.1901 0.0
H339 H 0.07137 0.18815 0.15622 0.0
H340 H 0.71384 0.07301 0.33596 0.0
H341 H 0.69085 0.01877 0.37745 0.0
H342 H 0.76407 0.07134 0.48394 0.0
H343 H 0.78629 0.12563 0.44345 0.0
H344 H 0.70947 0.97645 0.41679 0.0
H345 H 0.72025 0.05334 0.58245 0.0
H346 H 0.72206 0.10778 0.60233 0.0
H347 H 0.67058 0.10399 0.479 0.0
H348 H 0.66736 0.04912 0.45917 0.0
H349 H 0.67741 0.86446 0.59559 0.0
H350 H 0.70316 0.9149 0.54641 0.0
H351 H 0.61836 0.93236 0.57434 0.0
H352 H 0.59367 0.88324 0.62525 0.0
H353 H 0.67119 0.99007 0.56853 0.0
H354 H 0.6224 0.89191 0.47744 0.0
H355 H 0.60914 0.83464 0.45069 0.0
H356 H 0.71462 0.87472 0.41159 0.0
H357 H 0.7288 0.93228 0.43939 0.0
C358 C 0.72561 0.0727 0.36763 0.0
C359 C 0.75126 0.10338 0.38715 0.0
C360 C 0.71254 0.04176 0.39117 0.0
C361 C 0.72529 0.04142 0.43409 0.0
C362 C 0.7535 0.07138 0.45119 0.0
C363 C 0.76611 0.10229 0.42814 0.0
C364 C 0.7064 0.01146 0.46375 0.0
C365 C 0.7012 0.97929 0.45004 0.0
C366 C 0.69374 0.015 0.50592 0.0
C367 C 0.69406 0.04728 0.519 0.0
C368 C 0.70906 0.06397 0.55975 0.0
C369 C 0.71033 0.09495 0.57101 0.0
C370 C 0.69669 0.1095 0.54178 0.0
C371 C 0.68148 0.09296 0.50143 0.0
C372 C 0.67977 0.06182 0.49028 0.0
C373 C 0.66466 0.87946 0.59163 0.0
C374 C 0.63373 0.87018 0.6141 0.0
C375 C 0.67917 0.90804 0.56336 0.0
C376 C 0.66226 0.92692 0.55593 0.0
C377 C 0.63186 0.9182 0.57952 0.0
C378 C 0.61782 0.89018 0.60864 0.0
C379 C 0.67579 0.95515 0.52266 0.0
C380 C 0.67958 0.98704 0.53545 0.0
C381 C 0.68505 0.95073 0.47857 0.0
C382 C 0.67673 0.91637 0.46093 0.0
C383 C 0.64286 0.8885 0.46344 0.0
C384 C 0.63517 0.85594 0.44809 0.0
C385 C 0.66101 0.85096 0.42945 0.0
C386 C 0.69463 0.8786 0.42609 0.0
C387 C 0.70253 0.91122 0.4417 0.0
H388 H 0.65499 0.8257 0.41756 0.0
H389 H 0.69762 0.13342 0.55053 0.0
H390 H 0.63798 0.71551 0.69053 0.0
H391 H 0.67127 0.69695 0.73527 0.0
H392 H 0.69698 0.78014 0.82874 0.0
H393 H 0.66311 0.79862 0.78457 0.0
H394 H 0.73471 0.72107 0.76406 0.0
H395 H 0.68712 0.74715 0.93535 0.0
H396 H 0.63658 0.74916 0.9649 0.0
H397 H 0.57487 0.68519 0.85595 0.0
H398 H 0.62473 0.68218 0.82636 0.0
H399 H 0.81763 0.67727 0.93083 0.0
H400 H 0.79673 0.7097 0.88788 0.0
H401 H 0.69201 0.63389 0.92123 0.0
H402 H 0.71282 0.60235 0.96574 0.0
H403 H 0.69619 0.69213 0.92252 0.0
H404 H 0.72932 0.63331 0.8188 0.0
H405 H 0.76718 0.61479 0.78331 0.0
H406 H 0.83858 0.71934 0.7467 0.0
H407 H 0.8012 0.73857 0.78247 0.0
C408 C 0.65105 0.73019 0.72029 0.0
C409 C 0.64746 0.75822 0.73441 0.0
C410 C 0.6703 0.71966 0.74562 0.0
C411 C 0.68621 0.73693 0.78553 0.0
C412 C 0.68451 0.76626 0.79825 0.0
C413 C 0.66519 0.77679 0.77294 0.0
C414 C 0.70158 0.72217 0.81585 0.0
C415 C 0.72666 0.7151 0.79887 0.0
C416 C 0.68985 0.713 0.86061 0.0
C417 C 0.65984 0.71493 0.87827 0.0
C418 C 0.66276 0.73352 0.91774 0.0
C419 C 0.63421 0.73476 0.93454 0.0
C420 C 0.6026 0.71738 0.91218 0.0
C421 C 0.59941 0.69872 0.87309 0.0
C422 C 0.62781 0.69726 0.8563 0.0
C423 C 0.79019 0.66781 0.92936 0.0
C424 C 0.7668 0.63727 0.95139 0.0
C425 C 0.77828 0.68624 0.90469 0.0
C426 C 0.74279 0.6739 0.90071 0.0
C427 C 0.71952 0.64397 0.92391 0.0
C428 C 0.73143 0.62592 0.94928 0.0
C429 C 0.72965 0.69125 0.87098 0.0
C430 C 0.70491 0.69878 0.88804 0.0
C431 C 0.74007 0.69875 0.82545 0.0
C432 C 0.76267 0.68743 0.8038 0.0
C433 C 0.75323 0.6524 0.80349 0.0
C434 C 0.77459 0.64176 0.78328 0.0
C435 C 0.80537 0.66588 0.76292 0.0
C436 C 0.81477 0.70069 0.76259 0.0
C437 C 0.79349 0.71148 0.78279 0.0
H438 H 0.82187 0.65758 0.7473 0.0
H439 H 0.58048 0.71819 0.92514 0.0
H440 H 0.13525 0.81304 0.27051 0.0
H441 H 0.08153 0.79385 0.2298 0.0
H442 H 0.04504 0.68974 0.27477 0.0
H443 H 0.09864 0.7089 0.31643 0.0
H444 H 0.06086 0.75115 0.16148 0.0
H445 H 0.95672 0.64639 0.27722 0.0
H446 H 0.94375 0.63532 0.3581 0.0
H447 H 0.00246 0.74378 0.38543 0.0
H448 H 0.01533 0.75556 0.30467 0.0
H449 H 0.91893 0.62688 0.04058 0.0
H450 H 0.96809 0.65947 0.08969 0.0
H451 H 0.91252 0.70116 0.15988 0.0
H452 H 0.86254 0.66765 0.11156 0.0
H453 H 0.94148 0.67914 0.21762 0.0
H454 H 0.98003 0.7513 0.08767 0.0
H455 H 0.99257 0.76516 1.00721 0.0
H456 H 0.06483 0.72858 0.00976 0.0
H457 H 0.05236 0.71403 0.09007 0.0
C458 C 0.11562 0.78612 0.27226 0.0
C459 C 0.1212 0.76239 0.29638 0.0
C460 C 0.08495 0.77524 0.24902 0.0
C461 C 0.05934 0.74045 0.24937 0.0
C462 C 0.06431 0.71683 0.27466 0.0
C463 C 0.09496 0.72777 0.29829 0.0
C464 C 0.02898 0.72846 0.2199 0.0
C465 C 0.03472 0.73562 0.1738 0.0
C466 C -0.00505 0.70862 0.23618 0.0
C467 C 0.98725 0.70181 0.28487 0.0
C468 C 0.96676 0.66789 0.30045 0.0
C469 C 0.95943 0.66149 0.34629 0.0
C470 C 0.97236 0.68882 0.3769 0.0
C471 C 0.99257 0.72262 0.36171 0.0
C472 C -6e-05 0.72917 0.31591 0.0
C473 C 0.91725 0.64334 0.06599 0.0
C474 C 0.88686 0.64476 0.0721 0.0
C475 C 0.94546 0.66205 0.09399 0.0
C476 C 0.94409 0.68305 0.12806 0.0
C477 C 0.91407 0.68512 0.1337 0.0
C478 C 0.88563 0.66609 0.10596 0.0
C479 C 0.97346 0.70133 0.15914 0.0
C480 C 0.96758 0.69514 0.20545 0.0
C481 C 0.0074 0.72254 0.14318 0.0
C482 C 0.01509 0.7314 0.09486 0.0
C483 C -0.00157 0.74601 0.07101 0.0
C484 C 0.00555 0.75402 0.02543 0.0
C485 C 0.02944 0.74771 1.00337 0.0
C486 C 0.04632 0.73345 0.02688 0.0
C487 C 0.03927 0.72536 0.07245 0.0
H488 H 0.03491 0.75392 0.96809 0.0
H489 H 0.96666 0.6838 0.41237 0.0
H490 H 0.31646 0.08623 0.67744 0.0
H491 H 0.27817 0.03391 0.63549 0.0
H492 H 0.30634 0.09208 0.51191 0.0
H493 H 0.34339 0.14467 0.55394 0.0
H494 H 0.24222 0.04058 0.50604 0.0
H495 H 0.35147 0.05458 0.54869 0.0
H496 H 0.39828 0.06448 0.60089 0.0
H497 H 0.32975 0.97216 0.67261 0.0
H498 H 0.28236 0.96201 0.62119 0.0
H499 H 0.25122 0.91634 0.35866 0.0
H500 H 0.2613 0.96643 0.40366 0.0
H501 H 0.20584 0.89973 0.51452 0.0
H502 H 0.19517 0.84958 0.46987 0.0
H503 H 0.27776 0.95297 0.52937 0.0
H504 H 0.17025 0.93746 0.47232 0.0
H505 H 0.12915 0.93043 0.41253 0.0
H506 H 0.2021 0.02889 0.3578 0.0
H507 H 0.24386 0.0363 0.41689 0.0
C508 C 0.31375 0.08791 0.64148 0.0
C509 C 0.33317 0.11921 0.61872 0.0
C510 C 0.29192 0.05811 0.61759 0.0
C511 C 0.29017 0.05906 0.57052 0.0
C512 C 0.30742 0.0908 0.54821 0.0
C513 C 0.32867 0.12078 0.57223 0.0
C514 C 0.27442 0.02677 0.54423 0.0
C515 C 0.24997 0.02141 0.51105 0.0
C516 C 0.28477 0.00191 0.55068 0.0
C517 C 0.31328 0.00776 0.58145 0.0
C518 C 0.34633 0.03652 0.57579 0.0
C519 C 0.37297 0.04217 0.60521 0.0
C520 C 0.36696 0.01901 0.64013 0.0
C521 C 0.33433 0.99011 0.64561 0.0
C522 C 0.30757 0.9844 0.61634 0.0
C523 C 0.24066 0.91234 0.39233 0.0
C524 C 0.22266 0.87914 0.41089 0.0
C525 C 0.24621 0.94087 0.41778 0.0
C526 C 0.23412 0.93652 0.46213 0.0
C527 C 0.21506 0.90338 0.48015 0.0
C528 C 0.20906 0.87484 0.45457 0.0
C529 C 0.24538 0.96665 0.49157 0.0
C530 C 0.26943 0.97178 0.52504 0.0
C531 C 0.23545 0.99163 0.48426 0.0
C532 C 0.2103 0.9873 0.44885 0.0
C533 C 0.17766 0.95748 0.44731 0.0
C534 C 0.15421 0.95346 0.41359 0.0
C535 C 0.16303 0.97916 0.38133 0.0
C536 C 0.1953 0.00899 0.3828 0.0
C537 C 0.21886 0.01313 0.41644 0.0
H538 H 0.14485 0.97599 0.35525 0.0
H539 H 0.38761 0.02341 0.66287 0.0
H540 H 0.12621 0.35817 0.68413 0.0
H541 H 0.1359 0.35924 0.60297 0.0
H542 H 0.2251 0.46043 0.61507 0.0
H543 H 0.21524 0.45974 0.69588 0.0
H544 H 0.18413 0.45678 0.54472 0.0
H545 H 0.236 0.39293 0.59961 0.0
H546 H 0.23838 0.34719 0.64265 0.0
H547 H 0.15502 0.27013 0.56427 0.0
H548 H 0.15197 0.31548 0.52093 0.0
H549 H 0.26056 0.46831 0.33217 0.0
H550 H 0.24935 0.46486 0.41299 0.0
H551 H 0.16004 0.36432 0.39542 0.0
H552 H 0.1716 0.36729 0.31443 0.0
H553 H 0.19956 0.36678 0.46814 0.0
H554 H 0.1504 0.43285 0.41066 0.0
H555 H 0.15125 0.47997 0.3669 0.0
H556 H 0.23209 0.55449 0.45085 0.0
H557 H 0.23221 0.5078 0.4946 0.0
C558 C 0.1478 0.38072 0.66951 0.0
C559 C 0.16989 0.40896 0.69665 0.0
C560 C 0.15344 0.3812 0.62314 0.0
C561 C 0.18128 0.40991 0.60292 0.0
C562 C 0.20341 0.43804 0.62989 0.0
C563 C 0.19791 0.43748 0.67625 0.0
C564 C 0.18726 0.41068 0.55362 0.0
C565 C 0.18787 0.43731 0.52805 0.0
C566 C 0.19155 0.38496 0.53173 0.0
C567 C 0.19352 0.35759 0.55733 0.0
C568 C 0.21801 0.36622 0.59175 0.0
C569 C 0.21952 0.34037 0.61617 0.0
C570 C 0.19676 0.30577 0.60635 0.0
C571 C 0.17259 0.29695 0.5719 0.0
C572 C 0.171 0.32272 0.54733 0.0
C573 C 0.23868 0.44533 0.34553 0.0
C574 C 0.21701 0.41803 0.31688 0.0
C575 C 0.23216 0.4435 0.3917 0.0
C576 C 0.20371 0.41443 0.41024 0.0
C577 C 0.18212 0.38701 0.38183 0.0
C578 C 0.18858 0.38887 0.33554 0.0
C579 C 0.19646 0.41289 0.45925 0.0
C580 C 0.19563 0.38613 0.48478 0.0
C581 C 0.19219 0.43864 0.48115 0.0
C582 C 0.1915 0.46679 0.4557 0.0
C583 C 0.1685 0.45928 0.41965 0.0
C584 C 0.1688 0.48592 0.39484 0.0
C585 C 0.19176 0.5202 0.40603 0.0
C586 C 0.21435 0.52792 0.44219 0.0
C587 C 0.21423 0.50137 0.46703 0.0
H588 H 0.192 0.54078 0.38671 0.0
H589 H 0.19792 0.28579 0.62537 0.0
H590 H 0.68773 0.15952 1.00782 0.0
H591 H 0.69904 0.16885 0.92723 0.0
H592 H 0.80812 0.2166 0.95219 0.0
H593 H 0.79703 0.20697 0.03294 0.0
H594 H 0.79423 0.25227 0.89012 0.0
H595 H 0.76339 0.13451 0.91364 0.0
H596 H 0.72714 0.07493 0.94036 0.0
H597 H 0.64432 0.06325 0.85583 0.0
H598 H 0.67993 0.12298 0.82908 0.0
H599 H 0.84659 0.24587 0.66647 0.0
H600 H 0.83538 0.23786 0.74717 0.0
H601 H 0.72616 0.18778 0.72199 0.0
H602 H 0.73716 0.19587 0.64107 0.0
H603 H 0.74012 0.15349 0.78433 0.0
H604 H 0.77123 0.27134 0.76044 0.0
H605 H 0.80758 0.33098 0.73395 0.0
H606 H 0.88999 0.3426 0.81924 0.0
H607 H 0.8543 0.28283 0.84578 0.0
C608 C 0.71415 0.1718 0.99626 0.0
C609 C 0.74143 0.18222 0.02708 0.0
C610 C 0.72057 0.17719 0.95007 0.0
C611 C 0.75442 0.19301 0.93346 0.0
C612 C 0.78178 0.20432 0.96414 0.0
C613 C 0.77538 0.1989 0.01039 0.0
C614 C 0.76119 0.19743 0.88412 0.0
C615 C 0.78276 0.23061 0.86706 0.0
C616 C 0.74565 0.1693 0.85379 0.0
C617 C 0.72421 0.13334 0.8697 0.0
C618 C 0.73735 0.11934 0.90102 0.0
C619 C 0.71694 0.08552 0.91613 0.0
C620 C 0.68342 0.06535 0.8999 0.0
C621 C 0.67028 0.07893 0.86843 0.0
C622 C 0.69057 0.11275 0.85326 0.0
C623 C 0.82016 0.23346 0.67801 0.0
C624 C 0.79281 0.2218 0.64707 0.0
C625 C 0.81378 0.22884 0.72428 0.0
C626 C 0.77992 0.21266 0.74087 0.0
C627 C 0.75252 0.20039 0.7101 0.0
C628 C 0.75887 0.20495 0.66376 0.0
C629 C 0.77313 0.20837 0.79025 0.0
C630 C 0.75157 0.17519 0.80734 0.0
C631 C 0.78869 0.23651 0.82061 0.0
C632 C 0.8102 0.27248 0.80475 0.0
C633 C 0.79721 0.28651 0.77327 0.0
C634 C 0.81767 0.32036 0.75829 0.0
C635 C 0.8511 0.34053 0.77481 0.0
C636 C 0.86411 0.32692 0.80643 0.0
C637 C 0.84376 0.29307 0.82147 0.0
H638 H 0.86691 0.36674 0.76318 0.0
H639 H 0.66766 0.03916 0.91162 0.0
H640 H 0.59111 0.80998 0.37248 0.0
H641 H 0.59202 0.82083 0.29196 0.0
H642 H 0.58691 0.72388 0.26361 0.0
H643 H 0.5862 0.71292 0.34419 0.0
H644 H 0.63224 0.77285 0.20919 0.0
H645 H 0.51559 0.7332 0.25487 0.0
H646 H 0.46941 0.73291 0.30046 0.0
H647 H 0.50089 0.83596 0.25775 0.0
H648 H 0.54759 0.83704 0.21236 0.0
H649 H 0.58164 0.75571 0.98071 0.0
H650 H 0.58472 0.74798 0.06122 0.0
H651 H 0.58883 0.8449 0.08621 0.0
H652 H 0.58522 0.85252 1.0054 0.0
H653 H 0.5451 0.79719 0.14249 0.0
H654 H 0.66131 0.83567 0.0947 0.0
H655 H 0.70546 0.83394 0.04687 0.0
H656 H 0.67337 0.73135 0.0922 0.0
H657 H 0.6287 0.7323 0.13988 0.0
C658 C 0.59006 0.79088 0.3492 0.0
C659 C 0.58855 0.76054 0.36495 0.0
C660 C 0.5906 0.79714 0.30309 0.0
C661 C 0.58914 0.77299 0.27164 0.0
C662 C 0.58814 0.74293 0.2872 0.0
C663 C 0.58781 0.73675 0.33333 0.0
C664 C 0.5882 0.77883 0.22256 0.0
C665 C 0.61297 0.77783 0.19455 0.0
C666 C 0.56346 0.78595 0.20346 0.0
C667 C 0.53531 0.78532 0.23059 0.0
C668 C 0.51284 0.7559 0.25547 0.0
C669 C 0.48654 0.75558 0.28123 0.0
C670 C 0.48228 0.78444 0.2821 0.0
C671 C 0.50425 0.81365 0.2571 0.0
C672 C 0.53062 0.81412 0.23133 0.0
C673 C 0.58347 0.77554 1.00313 0.0
C674 C 0.583 0.80464 0.98636 0.0
C675 C 0.58528 0.7711 0.04933 0.0
C676 C 0.58738 0.79603 0.07989 0.0
C677 C 0.58714 0.82525 0.06333 0.0
C678 C 0.585 0.82953 0.01709 0.0
C679 C 0.58918 0.79131 0.12911 0.0
C680 C 0.56452 0.79245 0.15715 0.0
C681 C 0.61394 0.78419 0.14817 0.0
C682 C 0.6415 0.78397 0.12062 0.0
C683 C 0.66359 0.8127 0.09435 0.0
C684 C 0.6887 0.81185 0.06726 0.0
C685 C 0.69215 0.78252 0.06641 0.0
C686 C 0.67063 0.75404 0.09286 0.0
C687 C 0.64545 0.75474 0.11999 0.0
H688 H 0.71154 0.78188 0.04531 0.0
H689 H 0.4619 0.78414 0.30206 0.0
H690 H 0.77873 0.53628 0.69748 0.0
H691 H 0.76821 0.53515 0.61671 0.0
H692 H 0.85415 0.63836 0.60441 0.0
H693 H 0.86424 0.64005 0.68553 0.0
H694 H 0.80008 0.63011 0.55446 0.0
H695 H 0.86211 0.56933 0.57456 0.0
H696 H 0.87361 0.52542 0.607 0.0
H697 H 0.77703 0.44517 0.55601 0.0
H698 H 0.76471 0.48864 0.52381 0.0
H699 H 0.81791 0.6282 0.31627 0.0
H700 H 0.8288 0.63143 0.39731 0.0
H701 H 0.74366 0.52813 0.41313 0.0
H702 H 0.73317 0.5244 0.33213 0.0
H703 H 0.79828 0.5372 0.46119 0.0
H704 H 0.73573 0.59744 0.44187 0.0
H705 H 0.72355 0.64098 0.40976 0.0
H706 H 0.82037 0.72182 0.4593 0.0
H707 H 0.83335 0.67871 0.49118 0.0
C708 C 0.79514 0.55894 0.67775 0.0
C709 C 0.82248 0.5882 0.69803 0.0
C710 C 0.78929 0.55812 0.63144 0.0
C711 C 0.81071 0.58647 0.60428 0.0
C712 C 0.8374 0.61609 0.62458 0.0
C713 C 0.84331 0.61691 0.67092 0.0
C714 C 0.80558 0.585 0.55465 0.0
C715 C 0.80017 0.61007 0.53398 0.0
C716 C 0.80495 0.55845 0.52795 0.0
C717 C 0.81234 0.53225 0.54716 0.0
C718 C 0.8432 0.54232 0.57057 0.0
C719 C 0.84988 0.51752 0.58887 0.0
C720 C 0.82602 0.48253 0.58367 0.0
C721 C 0.79546 0.47228 0.56007 0.0
C722 C 0.78863 0.49699 0.54176 0.0
C723 C 0.80169 0.60606 0.33694 0.0
C724 C 0.77453 0.5761 0.31766 0.0
C725 C 0.80775 0.60805 0.38335 0.0
C726 C 0.78678 0.58017 0.41149 0.0
C727 C 0.76008 0.55004 0.39221 0.0
C728 C 0.75395 0.54806 0.34589 0.0
C729 C 0.79266 0.58225 0.46098 0.0
C730 C 0.79824 0.55729 0.48164 0.0
C731 C 0.79338 0.60886 0.48764 0.0
C732 C 0.78567 0.63484 0.46848 0.0
C733 C 0.75456 0.62449 0.44557 0.0
C734 C 0.74749 0.6491 0.42748 0.0
C735 C 0.77122 0.68415 0.43237 0.0
C736 C 0.80204 0.69466 0.45547 0.0
C737 C 0.80926 0.67015 0.47358 0.0
H738 H 0.76569 0.70316 0.41837 0.0
H739 H 0.83125 0.46336 0.59786 0.0
H740 H 0.20346 0.72535 0.67485 0.0
H741 H 0.21011 0.73658 0.75568 0.0
H742 H 0.2001 0.82664 0.73664 0.0
H743 H 0.19331 0.81551 0.65561 0.0
H744 H 0.25111 0.83992 0.79441 0.0
H745 H 0.13317 0.7512 0.77807 0.0
H746 H 0.08552 0.69503 0.75314 0.0
H747 H 0.12648 0.64298 0.83089 0.0
H748 H 0.17466 0.69887 0.8558 0.0
H749 H 0.22698 0.86517 0.02441 0.0
H750 H 0.21851 0.85416 0.94356 0.0
H751 H 0.22543 0.76211 0.95998 0.0
H752 H 0.23361 0.77284 0.04095 0.0
H753 H 0.17529 0.75016 0.90333 0.0
H754 H 0.29362 0.83849 0.91871 0.0
H755 H 0.34161 0.8945 0.94351 0.0
H756 H 0.30038 0.94709 0.86743 0.0
H757 H 0.25187 0.89135 0.84267 0.0
C758 C 0.20238 0.74741 0.68783 0.0
C759 C 0.19758 0.76937 0.65862 0.0
C760 C 0.20623 0.75382 0.73414 0.0
C761 C 0.2051 0.78218 0.75249 0.0
C762 C 0.20102 0.80457 0.72337 0.0
C763 C 0.19725 0.79822 0.67697 0.0
C764 C 0.20826 0.78851 0.80198 0.0
C765 C 0.2342 0.82046 0.81818 0.0
C766 C 0.18675 0.76288 0.83321 0.0
C767 C 0.1577 0.72924 0.81846 0.0
C768 C 0.13216 0.72778 0.78959 0.0
C769 C 0.10503 0.69599 0.7755 0.0
C770 C 0.10302 0.66545 0.79033 0.0
C771 C 0.12809 0.66665 0.81938 0.0
C772 C 0.1553 0.69838 0.83353 0.0
C773 C 0.22685 0.84266 0.0108 0.0
C774 C 0.2312 0.82001 0.03922 0.0
C775 C 0.22202 0.83639 0.9645 0.0
C776 C 0.22189 0.80758 0.94538 0.0
C777 C 0.22547 0.78453 0.97381 0.0
C778 C 0.23007 0.79066 0.02017 0.0
C779 C 0.21822 0.80155 0.89581 0.0
C780 C 0.19218 0.76966 0.87958 0.0
C781 C 0.23969 0.8272 0.86455 0.0
C782 C 0.26893 0.86074 0.8792 0.0
C783 C 0.29466 0.862 0.90754 0.0
C784 C 0.32197 0.89369 0.92154 0.0
C785 C 0.324 0.92433 0.90715 0.0
C786 C 0.29876 0.92333 0.87861 0.0
C787 C 0.27136 0.8917 0.86455 0.0
H788 H 0.34516 0.94884 0.91803 0.0
H789 H 0.082 0.64087 0.77939 0.0
H790 H 0.46384 0.22461 0.36387 0.0
H791 H 0.46016 0.2143 0.28268 0.0
H792 H 0.36565 0.2177 0.27808 0.0
H793 H 0.36891 0.22741 0.35952 0.0
H794 H 0.36169 0.16447 0.22763 0.0
H795 H 0.43926 0.28574 0.24361 0.0
H796 H 0.49 0.33775 0.273 0.0
H797 H 0.55663 0.30438 0.21587 0.0
H798 H 0.50622 0.25187 0.18669 0.0
H799 H 0.3568 0.1785 0.98943 0.0
H800 H 0.35887 0.19042 0.0701 0.0
H801 H 0.45558 0.19173 0.08022 0.0
H802 H 0.45417 0.18078 0.99954 0.0
H803 H 0.45741 0.24352 0.1278 0.0
H804 H 0.38081 0.12188 0.11391 0.0
H805 H 0.3306 0.06914 0.08505 0.0
H806 H 0.26279 0.10235 0.13857 0.0
H807 H 0.31268 0.15557 0.16722 0.0
C808 C 0.44207 0.22274 0.34566 0.0
C809 C 0.41667 0.2268 0.36817 0.0
C810 C 0.44015 0.21718 0.29917 0.0
C811 C 0.4128 0.21558 0.27415 0.0
C812 C 0.38704 0.21895 0.29664 0.0
C813 C 0.38906 0.22472 0.34312 0.0
C814 C 0.41123 0.21061 0.22451 0.0
C815 C 0.38239 0.18204 0.20572 0.0
C816 C 0.43856 0.2331 0.19597 0.0
C817 C 0.46893 0.2647 0.21335 0.0
C818 C 0.46471 0.28934 0.23763 0.0
C819 C 0.49341 0.31894 0.2542 0.0
C820 C 0.52651 0.32432 0.24641 0.0
C821 C 0.53097 0.30015 0.22193 0.0
C822 C 0.50234 0.27048 0.20534 0.0
C823 C 0.37867 0.18164 0.00872 0.0
C824 C 0.40516 0.17834 0.98797 0.0
C825 C 0.37968 0.18817 0.05495 0.0
C826 C 0.40716 0.19151 0.08143 0.0
C827 C 0.43402 0.18908 0.06061 0.0
C828 C 0.433 0.18249 0.01448 0.0
C829 C 0.40793 0.19728 0.13088 0.0
C830 C 0.43664 0.22601 0.14966 0.0
C831 C 0.38054 0.17485 0.15942 0.0
C832 C 0.3505 0.14288 0.14227 0.0
C833 C 0.35521 0.11808 0.11919 0.0
C834 C 0.32681 0.08808 0.10293 0.0
C835 C 0.29353 0.08245 0.10985 0.0
C836 C 0.28859 0.10678 0.13316 0.0
C837 C 0.31692 0.13686 0.14944 0.0
H838 H 0.27157 0.05919 0.09726 0.0
H839 H 0.5487 0.34726 0.25925 0.0
H840 H 0.18358 0.5205 0.01802 0.0
H841 H 0.1807 0.56408 0.06495 0.0
H842 H 0.13555 0.49026 0.1725 0.0
H843 H 0.13922 0.44704 0.12634 0.0
H844 H 0.13307 0.57275 0.1124 0.0
H845 H 0.17459 0.53066 0.2716 0.0
H846 H 0.20192 0.49669 0.29347 0.0
H847 H 0.25659 0.52133 0.168 0.0
H848 H 0.23013 0.55598 0.14575 0.0
H849 H 0.18547 0.67416 0.34133 0.0
H850 H 0.16976 0.6212 0.29917 0.0
H851 H 0.20508 0.68 0.17648 0.0
H852 H 0.21986 0.7325 0.21788 0.0
H853 H 0.20472 0.59986 0.25003 0.0
H854 H 0.15633 0.63699 0.08922 0.0
H855 H 0.12846 0.67084 0.06965 0.0
H856 H 0.08507 0.65499 0.20221 0.0
H857 H 0.11221 0.62059 0.22236 0.0
C858 C 0.17223 0.51339 0.05122 0.0
C859 C 0.16218 0.4807 0.06891 0.0
C860 C 0.17062 0.53825 0.078 0.0
C861 C 0.15872 0.53057 0.12255 0.0
C862 C 0.14554 0.4969 0.13858 0.0
C863 C 0.1476 0.47226 0.11214 0.0
C864 C 0.16353 0.55854 0.15351 0.0
C865 C 0.14886 0.57885 0.14237 0.0
C866 C 0.18325 0.56567 0.19343 0.0
C867 C 0.20002 0.54558 0.2068 0.0
C868 C 0.19256 0.52895 0.24876 0.0
C869 C 0.2079 0.50958 0.26123 0.0
C870 C 0.23089 0.5068 0.23208 0.0
C871 C 0.2387 0.52346 0.19048 0.0
C872 C 0.22355 0.54297 0.17794 0.0
C873 C 0.19003 0.67573 0.3054 0.0
C874 C 0.20353 0.70737 0.2828 0.0
C875 C 0.18098 0.6455 0.28138 0.0
C876 C 0.18546 0.64657 0.23454 0.0
C877 C 0.20042 0.6784 0.21239 0.0
C878 C 0.20904 0.70844 0.23617 0.0
C879 C 0.17488 0.61463 0.20844 0.0
C880 C 0.18846 0.59353 0.22048 0.0
C881 C 0.15386 0.60655 0.16968 0.0
C882 C 0.13654 0.62637 0.15737 0.0
C883 C 0.14063 0.64049 0.11409 0.0
C884 C 0.125 0.65983 0.10292 0.0
C885 C 0.10507 0.66512 0.13469 0.0
C886 C 0.10059 0.65095 0.17765 0.0
C887 C 0.11611 0.63154 0.18897 0.0
H888 H 0.09305 0.68017 0.126 0.0
H889 H 0.2428 0.49188 0.2418 0.0
H890 H 0.70705 0.18662 0.46977 0.0
H891 H 0.65577 0.17048 0.51536 0.0
H892 H 0.59146 0.12416 0.39912 0.0
H893 H 0.64277 0.13947 0.35333 0.0
H894 H 0.5852 0.17818 0.44363 0.0
H895 H 0.57626 0.07004 0.47615 0.0
H896 H 0.59379 0.02819 0.49958 0.0
H897 H 0.62485 0.07772 0.62837 0.0
H898 H 0.60724 0.11973 0.60583 0.0
H899 H 0.43671 0.14372 0.56022 0.0
H900 H 0.47483 0.12979 0.51769 0.0
H901 H 0.54613 0.16385 0.62888 0.0
H902 H 0.50747 0.17707 0.67228 0.0
H903 H 0.5444 0.10886 0.58337 0.0
H904 H 0.55494 0.21898 0.54726 0.0
H905 H 0.53375 0.25786 0.52342 0.0
H906 H 0.49991 0.20368 0.39786 0.0
H907 H 0.5202 0.16405 0.42135 0.0
C908 C 0.68196 0.17272 0.45397 0.0
C909 C 0.67886 0.16477 0.40784 0.0
C910 C 0.65271 0.16314 0.4802 0.0
C911 C 0.61991 0.14597 0.46061 0.0
C912 C 0.61662 0.13713 0.41484 0.0
C913 C 0.64588 0.14603 0.38875 0.0
C914 C 0.58997 0.14209 0.48643 0.0
C915 C 0.5757 0.1624 0.47362 0.0
C916 C 0.57839 0.12222 0.52613 0.0
C917 C 0.59064 0.09818 0.53918 0.0
C918 C 0.5871 0.0722 0.50933 0.0
C919 C 0.59675 0.04825 0.52259 0.0
C920 C 0.61028 0.05021 0.5655 0.0
C921 C 0.61421 0.07614 0.59522 0.0
C922 C 0.60428 0.09995 0.58228 0.0
C923 C 0.46023 0.14769 0.57595 0.0
C924 C 0.46952 0.1621 0.61922 0.0
C925 C 0.48193 0.13965 0.55163 0.0
C926 C 0.51365 0.14654 0.56975 0.0
C927 C 0.52181 0.15849 0.61424 0.0
C928 C 0.49979 0.16612 0.63893 0.0
C929 C 0.53976 0.14509 0.54058 0.0
C930 C 0.55356 0.12419 0.553 0.0
C931 C 0.55102 0.16445 0.50032 0.0
C932 C 0.53879 0.18834 0.48625 0.0
C933 C 0.5427 0.21518 0.51473 0.0
C934 C 0.53086 0.23737 0.50127 0.0
C935 C 0.51548 0.23326 0.45915 0.0
C936 C 0.51179 0.20686 0.43049 0.0
C937 C 0.52343 0.18451 0.44387 0.0
H938 H 0.50652 0.25058 0.44868 0.0
H939 H 0.61792 0.03177 0.57559 0.0
H940 H 0.2883 0.53795 0.99336 0.0
H941 H 0.3362 0.58327 0.94998 0.0
H942 H 0.33195 0.50616 0.85856 0.0
H943 H 0.28347 0.46152 0.90024 0.0
H944 H 0.39815 0.60228 0.92452 0.0
H945 H 0.33682 0.52834 0.75436 0.0
H946 H 0.27809 0.49287 0.72393 0.0
H947 H 0.23946 0.53742 0.81942 0.0
H948 H 0.29784 0.57339 0.84997 0.0
H949 H 0.53124 0.67561 0.77214 0.0
H950 H 0.4823 0.63353 0.81642 0.0
H951 H 0.41401 0.65482 0.73764 0.0
H952 H 0.46271 0.69475 0.69112 0.0
H953 H 0.3796 0.59463 0.7593 0.0
H954 H 0.44579 0.69278 0.84342 0.0
H955 H 0.49722 0.74191 0.8767 0.0
H956 H 0.51473 0.67265 0.95722 0.0
H957 H 0.46368 0.62295 0.92382 0.0
C958 C 0.29801 0.53087 0.96426 0.0
C959 C 0.28203 0.49655 0.94949 0.0
C960 C 0.32531 0.55665 0.9396 0.0
C961 C 0.33705 0.54815 0.9004 0.0
C962 C 0.32265 0.51344 0.8879 0.0
C963 C 0.29505 0.48796 0.91177 0.0
C964 C 0.36283 0.57516 0.87057 0.0
C965 C 0.3942 0.6007 0.88843 0.0
C966 C 0.35672 0.57471 0.82381 0.0
C967 C 0.3217 0.55338 0.80464 0.0
C968 C 0.31582 0.5307 0.76866 0.0
C969 C 0.28256 0.51047 0.75144 0.0
C970 C 0.25509 0.51294 0.76977 0.0
C971 C 0.26075 0.53553 0.80532 0.0
C972 C 0.29388 0.55578 0.82261 0.0
C973 C 0.50554 0.67035 0.7636 0.0
C974 C 0.50039 0.68797 0.72834 0.0
C975 C 0.47769 0.64677 0.78923 0.0
C976 C 0.44455 0.6418 0.78141 0.0
C977 C 0.43925 0.65821 0.74453 0.0
C978 C 0.467 0.68091 0.71786 0.0
C979 C 0.41595 0.62068 0.81288 0.0
C980 C 0.38379 0.59639 0.79534 0.0
C981 C 0.42035 0.62446 0.8602 0.0
C982 C 0.45101 0.65409 0.88085 0.0
C983 C 0.46072 0.68797 0.86801 0.0
C984 C 0.48977 0.71592 0.88689 0.0
C985 C 0.50915 0.71035 0.91902 0.0
C986 C 0.4996 0.67685 0.93233 0.0
C987 C 0.47059 0.64877 0.91345 0.0
H988 H 0.5315 0.73202 0.93363 0.0
H989 H 0.22938 0.49748 0.7565 0.0
H990 H 0.83094 0.32234 0.32517 0.0
H991 H 0.84895 0.37418 0.27958 0.0
H992 H 0.77817 0.31241 0.17519 0.0
H993 H 0.75963 0.26075 0.22052 0.0
H994 H 0.84754 0.36412 0.14516 0.0
H995 H 0.75184 0.34984 0.23882 0.0
H996 H 0.72255 0.34366 0.31134 0.0
H997 H 0.80678 0.44025 0.356 0.0
H998 H 0.83681 0.44672 0.28391 0.0
H999 H 0.80619 0.4703 0.01342 0.0
H1000 H 0.81342 0.42786 0.05665 0.0
H1001 H 0.86253 0.50231 0.16316 0.0
H1002 H 0.85399 0.5441 0.12089 0.0
H1003 H 0.81322 0.44821 0.19644 0.0
H1004 H 0.90553 0.46864 0.10006 0.0
H1005 H 0.9372 0.47613 0.0293 0.0
H1006 H 0.8655 0.37184 0.99157 0.0
H1007 H 0.83303 0.36384 0.06178 0.0
C1008 C 0.81917 0.31988 0.29257 0.0
C1009 C 0.7935 0.28762 0.2767 0.0
C1010 C 0.82961 0.3494 0.26656 0.0
C1011 C 0.81487 0.34691 0.22414 0.0
C1012 C 0.78988 0.31469 0.20781 0.0
C1013 C 0.77905 0.28532 0.23401 0.0
C1014 C 0.82368 0.37803 0.19774 0.0
C1015 C 0.84013 0.38265 0.15609 0.0
C1016 C 0.81479 0.40246 0.21295 0.0
C1017 C 0.79677 0.39851 0.25628 0.0
C1018 C 0.76428 0.36957 0.2643 0.0
C1019 C 0.74751 0.36605 0.30528 0.0
C1020 C 0.76285 0.39148 0.33833 0.0
C1021 C 0.79497 0.42052 0.33042 0.0
C1022 C 0.81187 0.42413 0.28952 0.0
C1023 C 0.81927 0.47775 0.04556 0.0
C1024 C 0.82912 0.51016 0.0642 0.0
C1025 C 0.82358 0.45359 0.07018 0.0
C1026 C 0.83853 0.46187 0.11326 0.0
C1027 C 0.8507 0.49523 0.13021 0.0
C1028 C 0.8458 0.51906 0.10607 0.0
C1029 C 0.83707 0.43464 0.14304 0.0
C1030 C 0.82165 0.43046 0.18549 0.0
C1031 C 0.84745 0.411 0.1287 0.0
C1032 C 0.86664 0.41575 0.08609 0.0
C1033 C 0.89629 0.44739 0.07649 0.0
C1034 C 0.91444 0.45171 0.0365 0.0
C1035 C 0.90332 0.42451 1.00591 0.0
C1036 C 0.87406 0.3929 0.01528 0.0
C1037 C 0.85579 0.38845 0.0552 0.0
H1038 H 0.91743 0.4279 0.97498 0.0
H1039 H 0.74981 0.38874 0.37002 0.0
H1040 H 0.33055 0.80869 0.3541 0.0
H1041 H 0.37964 0.81478 0.39781 0.0
H1042 H 0.35149 0.85868 0.50783 0.0
H1043 H 0.30182 0.8518 0.4649 0.0
H1044 H 0.43297 0.88449 0.48196 0.0
H1045 H 0.32009 0.79041 0.53284 0.0
H1046 H 0.2619 0.74264 0.51525 0.0
H1047 H 0.30581 0.69298 0.43769 0.0
H1048 H 0.36428 0.74089 0.45418 0.0
H1049 H 0.50321 0.82922 0.66362 0.0
H1050 H 0.46464 0.84342 0.62146 0.0
H1051 H 0.46215 0.77895 0.51188 0.0
H1052 H 0.50083 0.76521 0.5531 0.0
H1053 H 0.39636 0.76763 0.54138 0.0
H1054 H 0.50918 0.85744 0.49809 0.0
H1055 H 0.5678 0.90601 0.51052 0.0
H1056 H 0.5261 0.96478 0.57031 0.0
H1057 H 0.46713 0.91618 0.55913 0.0
C1058 C 0.33547 0.82064 0.38701 0.0
C1059 C 0.31225 0.82932 0.40648 0.0
C1060 C 0.36354 0.82424 0.4118 0.0
C1061 C 0.36899 0.83719 0.45586 0.0
C1062 C 0.34773 0.84891 0.47371 0.0
C1063 C 0.31926 0.84465 0.44934 0.0
C1064 C 0.39201 0.83182 0.48586 0.0
C1065 C 0.42498 0.85918 0.49567 0.0
C1066 C 0.38141 0.79866 0.50305 0.0
C1067 C 0.34644 0.76931 0.49436 0.0
C1068 C 0.31729 0.7694 0.5118 0.0
C1069 C 0.28428 0.74231 0.50205 0.0
C1070 C 0.28016 0.71483 0.47527 0.0
C1071 C 0.30905 0.71432 0.45837 0.0
C1072 C 0.34212 0.74142 0.46791 0.0
C1073 C 0.49415 0.81795 0.63068 0.0
C1074 C 0.50488 0.79614 0.61153 0.0
C1075 C 0.47244 0.82625 0.60661 0.0
C1076 C 0.46087 0.81233 0.5636 0.0
C1077 C 0.47097 0.78997 0.545 0.0
C1078 C 0.49305 0.78221 0.56855 0.0
C1079 C 0.43765 0.82029 0.53777 0.0
C1080 C 0.40442 0.7932 0.5285 0.0
C1081 C 0.44822 0.85375 0.52128 0.0
C1082 C 0.48368 0.88291 0.52842 0.0
C1083 C 0.51246 0.8805 0.5145 0.0
C1084 C 0.54578 0.90808 0.5212 0.0
C1085 C 0.55068 0.93841 0.54138 0.0
C1086 C 0.52226 0.94121 0.55483 0.0
C1087 C 0.48888 0.91364 0.54835 0.0
H1088 H 0.57649 0.95978 0.54642 0.0
H1089 H 0.25459 0.69389 0.46771 0.0
H1090 H 0.67673 0.4868 1.00053 0.0
H1091 H 0.62601 0.44353 0.95952 0.0
H1092 H 0.68871 0.46032 0.84152 0.0
H1093 H 0.73881 0.50412 0.88156 0.0
H1094 H 0.63137 0.45689 0.81797 0.0
H1095 H 0.66201 0.38912 0.91481 0.0
H1096 H 0.67336 0.37051 0.98771 0.0
H1097 H 0.57127 0.34167 0.03234 0.0
H1098 H 0.55948 0.36052 0.95989 0.0
H1099 H 0.52909 0.30428 0.6911 0.0
H1100 H 0.57372 0.3526 0.73417 0.0
H1101 H 0.50234 0.32937 0.84399 0.0
H1102 H 0.45818 0.28075 0.80186 0.0
H1103 H 0.56044 0.33757 0.87443 0.0
H1104 H 0.52805 0.4008 0.7754 0.0
H1105 H 0.51636 0.41896 0.70242 0.0
H1106 H 0.62105 0.45614 0.66175 0.0
H1107 H 0.63326 0.43777 0.73425 0.0
C1108 C 0.67959 0.48109 0.9659 0.0
C1109 C 0.71166 0.4988 0.94422 0.0
C1110 C 0.65067 0.45637 0.94253 0.0
C1111 C 0.65362 0.44847 0.89752 0.0
C1112 C 0.68573 0.46609 0.87609 0.0
C1113 C 0.71439 0.49108 0.8991 0.0
C1114 C 0.62356 0.4219 0.87225 0.0
C1115 C 0.61603 0.4307 0.83013 0.0
C1116 C 0.60291 0.38801 0.88868 0.0
C1117 C 0.61 0.37658 0.93214 0.0
C1118 C 0.64208 0.37904 0.9403 0.0
C1119 C 0.64857 0.36841 0.98151 0.0
C1120 C 0.62309 0.35501 0.01468 0.0
C1121 C 0.59101 0.35211 1.00665 0.0
C1122 C 0.5844 0.36275 0.96552 0.0
C1123 C 0.5229 0.30976 0.72423 0.0
C1124 C 0.49033 0.28861 0.74327 0.0
C1125 C 0.54833 0.33742 0.74874 0.0
C1126 C 0.54128 0.34469 0.79224 0.0
C1127 C 0.50841 0.32414 0.81063 0.0
C1128 C 0.48322 0.29635 0.78646 0.0
C1129 C 0.56863 0.37239 0.81977 0.0
C1130 C 0.57559 0.36381 0.86236 0.0
C1131 C 0.58874 0.40646 0.80374 0.0
C1132 C 0.58148 0.41763 0.76014 0.0
C1133 C 0.54851 0.41261 0.75077 0.0
C1134 C 0.54181 0.42298 0.7095 0.0
C1135 C 0.56792 0.43862 0.67743 0.0
C1136 C 0.60084 0.44399 0.6866 0.0
C1137 C 0.60767 0.43364 0.7278 0.0
H1138 H 0.56268 0.44663 0.6455 0.0
H1139 H 0.62817 0.3468 0.04656 0.0
loop_
_geom_bond_atom_site_label_1
_geom_bond_atom_site_label_2
_geom_bond_distance
_geom_bond_site_symmetry_2
_ccdc_geom_bond_type
Tb0 C9 2.764 . S
Tb0 O10 2.325 . S
Tb0 O13 2.303 . S
Tb0 O17 2.322 1_554 S
Tb0 O18 2.349 . S
Tb0 O21 2.415 . S
Tb0 O22 2.399 . S
Tb1 O11 2.322 1_556 S
Tb1 O12 2.349 . S
Tb1 O14 2.415 . S
Tb1 O15 2.399 . S
Tb1 O16 2.325 . S
Tb1 O19 2.303 . S
Tb1 C30 2.764 . S
C2 O18 1.261 1_556 S
C2 O19 1.257 . S
C3 C6 1.358 . S
C3 C7 1.332 . S
C3 C9 1.504 . S
C4 C5 1.373 . S
C4 C8 1.308 . S
C5 C4 1.373 . S
C5 C6 1.429 . S
C5 H32 0.932 . S
C6 C3 1.358 . S
C6 C5 1.429 . S
C6 H33 0.930 . S
C7 C3 1.332 . S
C7 C8 1.394 . S
C7 H34 0.932 . S
C8 C4 1.308 . S
C8 C7 1.394 . S
C8 H35 0.929 . S
C9 Tb0 2.764 . S
C9 C3 1.504 . S
C9 O21 1.239 . S
C9 O22 1.263 . S
O10 Tb0 2.325 . S
O10 C20 1.236 . S
O11 Tb1 2.322 1_554 S
O11 C20 1.257 . S
O12 Tb1 2.349 . S
O12 C23 1.261 1_556 S
O13 Tb0 2.303 . S
O13 C23 1.257 . S
O14 Tb1 2.415 . S
O14 C30 1.239 . S
O15 Tb1 2.399 . S
O15 C30 1.263 . S
O16 Tb1 2.325 . S
O16 C31 1.236 . S
O17 Tb0 2.322 1_556 S
O17 C31 1.257 . S
O18 Tb0 2.349 . S
O18 C2 1.261 1_554 S
O19 Tb1 2.303 . S
O19 C2 1.257 . S
C20 O10 1.236 . S
C20 O11 1.257 . S
O21 Tb0 2.415 . S
O21 C9 1.239 . S
O22 Tb0 2.399 . S
O22 C9 1.263 . S
C23 O12 1.261 1_554 S
C23 O13 1.257 . S
C24 C27 1.358 . S
C24 C28 1.332 . S
C24 C30 1.504 . S
C25 C26 1.373 . S
C25 C29 1.308 . S
C26 C25 1.373 . S
C26 C27 1.429 . S
C26 H36 0.932 . S
C27 C24 1.358 . S
C27 C26 1.429 . S
C27 H37 0.930 . S
C28 C24 1.332 . S
C28 C29 1.394 . S
C28 H38 0.932 . S
C29 C25 1.308 . S
C29 C28 1.394 . S
C29 H39 0.929 . S
C30 Tb1 2.764 . S
C30 O14 1.239 . S
C30 O15 1.263 . S
C30 C24 1.504 . S
C31 O16 1.236 . S
C31 O17 1.257 . S
H32 C5 0.932 . S
H33 C6 0.930 . S
H34 C7 0.932 . S
H35 C8 0.929 . S
H36 C26 0.932 . S
H37 C27 0.930 . S
H38 C28 0.932 . S
H39 C29 0.929 . S
Tb40 C49 2.764 . S
Tb40 O50 2.325 . S
Tb40 O53 2.303 . S
Tb40 O57 2.322 . S
Tb40 O58 2.349 . S
Tb40 O61 2.415 . S
Tb40 O62 2.399 . S
Tb41 O51 2.322 . S
Tb41 O52 2.349 . S
Tb41 O54 2.415 . S
Tb41 O55 2.399 . S
Tb41 O56 2.325 . S
Tb41 O59 2.303 . S
Tb41 C70 2.764 . S
C42 O58 1.261 . S
C42 O59 1.257 . S
C43 C46 1.358 . S
C43 C47 1.332 . S
C43 C49 1.504 . S
C44 C45 1.373 . S
C44 C48 1.308 . S
C45 C44 1.373 . S
C45 C46 1.429 . S
C45 H72 0.932 . S
C46 C43 1.358 . S
C46 C45 1.429 . S
C46 H73 0.930 . S
C47 C43 1.332 . S
C47 C48 1.394 . S
C47 H74 0.932 . S
C48 C44 1.308 . S
C48 C47 1.394 . S
C48 H75 0.929 . S
C49 Tb40 2.764 . S
C49 C43 1.504 . S
C49 O61 1.239 . S
C49 O62 1.263 . S
O50 Tb40 2.325 . S
O50 C60 1.236 . S
O51 Tb41 2.322 . S
O51 C60 1.257 . S
O52 Tb41 2.349 . S
O52 C63 1.261 . S
O53 Tb40 2.303 . S
O53 C63 1.257 . S
O54 Tb41 2.415 . S
O54 C70 1.239 . S
O55 Tb41 2.399 . S
O55 C70 1.263 . S
O56 Tb41 2.325 . S
O56 C71 1.236 . S
O57 Tb40 2.322 . S
O57 C71 1.257 . S
O58 Tb40 2.349 . S
O58 C42 1.261 . S
O59 Tb41 2.303 . S
O59 C42 1.257 . S
C60 O50 1.236 . S
C60 O51 1.257 . S
O61 Tb40 2.415 . S
O61 C49 1.239 . S
O62 Tb40 2.399 . S
O62 C49 1.263 . S
C63 O52 1.261 . S
C63 O53 1.257 . S
C64 C67 1.358 . S
C64 C68 1.332 . S
C64 C70 1.504 . S
C65 C66 1.373 . S
C65 C69 1.308 . S
C66 C65 1.373 . S
C66 C67 1.429 . S
C66 H76 0.932 . S
C67 C64 1.358 . S
C67 C66 1.429 . S
C67 H77 0.930 . S
C68 C64 1.332 . S
C68 C69 1.394 . S
C68 H78 0.932 . S
C69 C65 1.308 . S
C69 C68 1.394 . S
C69 H79 0.929 . S
C70 Tb41 2.764 . S
C70 O54 1.239 . S
C70 O55 1.263 . S
C70 C64 1.504 . S
C71 O56 1.236 . S
C71 O57 1.257 . S
H72 C45 0.932 . S
H73 C46 0.930 . S
H74 C47 0.932 . S
H75 C48 0.929 . S
H76 C66 0.932 . S
H77 C67 0.930 . S
H78 C68 0.932 . S
H79 C69 0.929 . S
Tb80 C89 2.764 . S
Tb80 O90 2.325 . S
Tb80 O93 2.303 . S
Tb80 O97 2.322 . S
Tb80 O98 2.349 . S
Tb80 O101 2.415 . S
Tb80 O102 2.399 . S
Tb81 O91 2.322 . S
Tb81 O92 2.349 . S
Tb81 O94 2.415 . S
Tb81 O95 2.399 . S
Tb81 O96 2.325 . S
Tb81 O99 2.303 . S
Tb81 C110 2.764 . S
C82 O98 1.261 . S
C82 O99 1.257 . S
C83 C86 1.358 . S
C83 C87 1.332 . S
C83 C89 1.504 . S
C84 C85 1.373 . S
C84 C88 1.308 . S
C85 C84 1.373 . S
C85 C86 1.429 . S
C85 H112 0.932 . S
C86 C83 1.358 . S
C86 C85 1.429 . S
C86 H113 0.930 . S
C87 C83 1.332 . S
C87 C88 1.394 . S
C87 H114 0.932 . S
C88 C84 1.308 . S
C88 C87 1.394 . S
C88 H115 0.929 . S
C89 Tb80 2.764 . S
C89 C83 1.504 . S
C89 O101 1.239 . S
C89 O102 1.263 . S
O90 Tb80 2.325 . S
O90 C100 1.236 . S
O91 Tb81 2.322 . S
O91 C100 1.257 . S
O92 Tb81 2.349 . S
O92 C103 1.261 . S
O93 Tb80 2.303 . S
O93 C103 1.257 . S
O94 Tb81 2.415 . S
O94 C110 1.239 . S
O95 Tb81 2.399 . S
O95 C110 1.263 . S
O96 Tb81 2.325 . S
O96 C111 1.236 . S
O97 Tb80 2.322 . S
O97 C111 1.257 . S
O98 Tb80 2.349 . S
O98 C82 1.261 . S
O99 Tb81 2.303 . S
O99 C82 1.257 . S
C100 O90 1.236 . S
C100 O91 1.257 . S
O101 Tb80 2.415 . S
O101 C89 1.239 . S
O102 Tb80 2.399 . S
O102 C89 1.263 . S
C103 O92 1.261 . S
C103 O93 1.257 . S
C104 C107 1.358 . S
C104 C108 1.332 . S
C104 C110 1.504 . S
C105 C106 1.373 . S
C105 C109 1.308 . S
C106 C105 1.373 . S
C106 C107 1.429 . S
C106 H116 0.932 . S
C107 C104 1.358 . S
C107 C106 1.429 . S
C107 H117 0.930 . S
C108 C104 1.332 . S
C108 C109 1.394 . S
C108 H118 0.932 . S
C109 C105 1.308 . S
C109 C108 1.394 . S
C109 H119 0.929 . S
C110 Tb81 2.764 . S
C110 O94 1.239 . S
C110 O95 1.263 . S
C110 C104 1.504 . S
C111 O96 1.236 . S
C111 O97 1.257 . S
H112 C85 0.932 . S
H113 C86 0.930 . S
H114 C87 0.932 . S
H115 C88 0.929 . S
H116 C106 0.932 . S
H117 C107 0.930 . S
H118 C108 0.932 . S
H119 C109 0.929 . S
Tb120 C129 2.764 . S
Tb120 O130 2.325 . S
Tb120 O133 2.303 . S
Tb120 O137 2.322 1_554 S
Tb120 O138 2.349 . S
Tb120 O141 2.415 . S
Tb120 O142 2.399 . S
Tb121 O131 2.322 1_556 S
Tb121 O132 2.349 . S
Tb121 O134 2.415 . S
Tb121 O135 2.399 . S
Tb121 O136 2.325 . S
Tb121 O139 2.303 . S
Tb121 C150 2.764 . S
C122 O138 1.261 1_556 S
C122 O139 1.257 . S
C123 C126 1.358 . S
C123 C127 1.332 . S
C123 C129 1.504 . S
C124 C125 1.373 . S
C124 C128 1.308 . S
C125 C124 1.373 . S
C125 C126 1.429 . S
C125 H152 0.932 . S
C126 C123 1.358 . S
C126 C125 1.429 . S
C126 H153 0.930 . S
C127 C123 1.332 . S
C127 C128 1.394 . S
C127 H154 0.932 . S
C128 C124 1.308 . S
C128 C127 1.394 . S
C128 H155 0.929 . S
C129 Tb120 2.764 . S
C129 C123 1.504 . S
C129 O141 1.239 . S
C129 O142 1.263 . S
O130 Tb120 2.325 . S
O130 C140 1.236 . S
O131 Tb121 2.322 1_554 S
O131 C140 1.257 . S
O132 Tb121 2.349 . S
O132 C143 1.261 1_556 S
O133 Tb120 2.303 . S
O133 C143 1.257 . S
O134 Tb121 2.415 . S
O134 C150 1.239 . S
O135 Tb121 2.399 . S
O135 C150 1.263 . S
O136 Tb121 2.325 . S
O136 C151 1.236 . S
O137 Tb120 2.322 1_556 S
O137 C151 1.257 . S
O138 Tb120 2.349 . S
O138 C122 1.261 1_554 S
O139 Tb121 2.303 . S
O139 C122 1.257 . S
C140 O130 1.236 . S
C140 O131 1.257 . S
O141 Tb120 2.415 . S
O141 C129 1.239 . S
O142 Tb120 2.399 . S
O142 C129 1.263 . S
C143 O132 1.261 1_554 S
C143 O133 1.257 . S
C144 C147 1.358 . S
C144 C148 1.332 . S
C144 C150 1.504 . S
C145 C146 1.373 . S
C145 C149 1.308 . S
C146 C145 1.373 . S
C146 C147 1.429 . S
C146 H156 0.932 . S
C147 C144 1.358 . S
C147 C146 1.429 . S
C147 H157 0.930 . S
C148 C144 1.332 . S
C148 C149 1.394 . S
C148 H158 0.932 . S
C149 C145 1.308 . S
C149 C148 1.394 . S
C149 H159 0.929 . S
C150 Tb121 2.764 . S
C150 O134 1.239 . S
C150 O135 1.263 . S
C150 C144 1.504 . S
C151 O136 1.236 . S
C151 O137 1.257 . S
H152 C125 0.932 . S
H153 C126 0.930 . S
H154 C127 0.932 . S
H155 C128 0.929 . S
H156 C146 0.932 . S
H157 C147 0.930 . S
H158 C148 0.932 . S
H159 C149 0.929 . S
Tb160 C169 2.764 . S
Tb160 O170 2.325 . S
Tb160 O173 2.303 . S
Tb160 O177 2.322 . S
Tb160 O178 2.349 . S
Tb160 O181 2.415 . S
Tb160 O182 2.399 . S
Tb161 O171 2.322 . S
Tb161 O172 2.349 . S
Tb161 O174 2.415 . S
Tb161 O175 2.399 . S
Tb161 O176 2.325 . S
Tb161 O179 2.303 . S
Tb161 C190 2.764 . S
C162 O178 1.261 . S
C162 O179 1.257 . S
C163 C166 1.358 . S
C163 C167 1.332 . S
C163 C169 1.504 . S
C164 C165 1.373 . S
C164 C168 1.308 . S
C165 C164 1.373 . S
C165 C166 1.429 . S
C165 H192 0.932 . S
C166 C163 1.358 . S
C166 C165 1.429 . S
C166 H193 0.930 . S
C167 C163 1.332 . S
C167 C168 1.394 . S
C167 H194 0.932 . S
C168 C164 1.308 . S
C168 C167 1.394 . S
C168 H195 0.929 . S
C169 Tb160 2.764 . S
C169 C163 1.504 . S
C169 O181 1.239 . S
C169 O182 1.263 . S
O170 Tb160 2.325 . S
O170 C180 1.236 . S
O171 Tb161 2.322 . S
O171 C180 1.257 . S
O172 Tb161 2.349 . S
O172 C183 1.261 . S
O173 Tb160 2.303 . S
O173 C183 1.257 . S
O174 Tb161 2.415 . S
O174 C190 1.239 . S
O175 Tb161 2.399 . S
O175 C190 1.263 . S
O176 Tb161 2.325 . S
O176 C191 1.236 . S
O177 Tb160 2.322 . S
O177 C191 1.257 . S
O178 Tb160 2.349 . S
O178 C162 1.261 . S
O179 Tb161 2.303 . S
O179 C162 1.257 . S
C180 O170 1.236 . S
C180 O171 1.257 . S
O181 Tb160 2.415 . S
O181 C169 1.239 . S
O182 Tb160 2.399 . S
O182 C169 1.263 . S
C183 O172 1.261 . S
C183 O173 1.257 . S
C184 C187 1.358 . S
C184 C188 1.332 . S
C184 C190 1.504 . S
C185 C186 1.373 . S
C185 C189 1.308 . S
C186 C185 1.373 . S
C186 C187 1.429 . S
C186 H196 0.932 . S
C187 C184 1.358 . S
C187 C186 1.429 . S
C187 H197 0.930 . S
C188 C184 1.332 . S
C188 C189 1.394 . S
C188 H198 0.932 . S
C189 C185 1.308 . S
C189 C188 1.394 . S
C189 H199 0.929 . S
C190 Tb161 2.764 . S
C190 O174 1.239 . S
C190 O175 1.263 . S
C190 C184 1.504 . S
C191 O176 1.236 . S
C191 O177 1.257 . S
H192 C165 0.932 . S
H193 C166 0.930 . S
H194 C167 0.932 . S
H195 C168 0.929 . S
H196 C186 0.932 . S
H197 C187 0.930 . S
H198 C188 0.932 . S
H199 C189 0.929 . S
Tb200 C209 2.764 . S
Tb200 O210 2.325 . S
Tb200 O213 2.303 . S
Tb200 O217 2.322 . S
Tb200 O218 2.349 . S
Tb200 O221 2.415 . S
Tb200 O222 2.399 . S
Tb201 O211 2.322 . S
Tb201 O212 2.349 . S
Tb201 O214 2.415 . S
Tb201 O215 2.399 . S
Tb201 O216 2.325 . S
Tb201 O219 2.303 . S
Tb201 C230 2.764 . S
C202 O218 1.261 . S
C202 O219 1.257 . S
C203 C206 1.358 . S
C203 C207 1.332 . S
C203 C209 1.504 . S
C204 C205 1.373 . S
C204 C208 1.308 . S
C205 C204 1.373 . S
C205 C206 1.429 . S
C205 H232 0.932 . S
C206 C203 1.358 . S
C206 C205 1.429 . S
C206 H233 0.930 . S
C207 C203 1.332 . S
C207 C208 1.394 . S
C207 H234 0.932 . S
C208 C204 1.308 . S
C208 C207 1.394 . S
C208 H235 0.929 . S
C209 Tb200 2.764 . S
C209 C203 1.504 . S
C209 O221 1.239 . S
C209 O222 1.263 . S
O210 Tb200 2.325 . S
O210 C220 1.236 . S
O211 Tb201 2.322 . S
O211 C220 1.257 . S
O212 Tb201 2.349 . S
O212 C223 1.261 . S
O213 Tb200 2.303 . S
O213 C223 1.257 . S
O214 Tb201 2.415 . S
O214 C230 1.239 . S
O215 Tb201 2.399 . S
O215 C230 1.263 . S
O216 Tb201 2.325 . S
O216 C231 1.236 . S
O217 Tb200 2.322 . S
O217 C231 1.257 . S
O218 Tb200 2.349 . S
O218 C202 1.261 . S
O219 Tb201 2.303 . S
O219 C202 1.257 . S
C220 O210 1.236 . S
C220 O211 1.257 . S
O221 Tb200 2.415 . S
O221 C209 1.239 . S
O222 Tb200 2.399 . S
O222 C209 1.263 . S
C223 O212 1.261 . S
C223 O213 1.257 . S
C224 C227 1.358 . S
C224 C228 1.332 . S
C224 C230 1.504 . S
C225 C226 1.373 . S
C225 C229 1.308 . S
C226 C225 1.373 . S
C226 C227 1.429 . S
C226 H236 0.932 . S
C227 C224 1.358 . S
C227 C226 1.429 . S
C227 H237 0.930 . S
C228 C224 1.332 . S
C228 C229 1.394 . S
C228 H238 0.932 . S
C229 C225 1.308 . S
C229 C228 1.394 . S
C229 H239 0.929 . S
C230 Tb201 2.764 . S
C230 O214 1.239 . S
C230 O215 1.263 . S
C230 C224 1.504 . S
C231 O216 1.236 . S
C231 O217 1.257 . S
H232 C205 0.932 . S
H233 C206 0.930 . S
H234 C207 0.932 . S
H235 C208 0.929 . S
H236 C226 0.932 . S
H237 C227 0.930 . S
H238 C228 0.932 . S
H239 C229 0.929 . S
H240 C258 0.951 . S
H241 C260 0.951 . S
H242 C262 0.950 . S
H243 C263 0.950 . S
H244 C265 0.950 . S
H245 C268 0.950 . S
H246 C269 0.950 . S
H247 C271 0.950 . S
H248 C272 0.950 . S
H249 C273 0.951 . S
H250 C275 0.951 . S
H251 C277 0.950 . S
H252 C278 0.950 . S
H253 C280 0.950 . S
H254 C283 0.950 . S
H255 C284 0.950 . S
H256 C286 0.950 . S
H257 C287 0.950 . S
C258 H240 0.951 . S
C258 C259 1.366 . S
C258 C260 1.388 . S
C259 C258 1.366 . S
C259 C263 1.385 . S
C260 H241 0.951 . S
C260 C258 1.388 . S
C260 C261 1.366 . S
C261 C260 1.366 . S
C261 C262 1.414 . S
C261 C264 1.499 . S
C262 H242 0.950 . S
C262 C261 1.414 . S
C262 C263 1.374 . S
C263 H243 0.950 . S
C263 C259 1.385 . S
C263 C262 1.374 . S
C264 C261 1.499 . S
C264 C265 1.373 . S
C264 C266 1.389 . S
C265 H244 0.950 . S
C265 C264 1.373 . S
C265 C281 1.377 . S
C266 C264 1.389 . S
C266 C267 1.524 . S
C266 C280 1.377 . S
C267 C266 1.524 . S
C267 C268 1.397 . S
C267 C272 1.363 . S
C268 H245 0.950 . S
C268 C267 1.397 . S
C268 C269 1.334 . S
C269 H246 0.950 . S
C269 C268 1.334 . S
C269 C270 1.287 . S
C270 C269 1.287 . S
C270 C271 1.524 . S
C270 H289 0.913 . S
C271 H247 0.950 . S
C271 C270 1.524 . S
C271 C272 1.415 . S
C272 H248 0.950 . S
C272 C267 1.363 . S
C272 C271 1.415 . S
C273 H249 0.951 . S
C273 C274 1.366 . S
C273 C275 1.388 . S
C274 C273 1.366 . S
C274 C278 1.385 . S
C275 H250 0.951 . S
C275 C273 1.388 . S
C275 C276 1.366 . S
C276 C275 1.366 . S
C276 C277 1.414 . S
C276 C279 1.499 . S
C277 H251 0.950 . S
C277 C276 1.414 . S
C277 C278 1.374 . S
C278 H252 0.950 . S
C278 C274 1.385 . S
C278 C277 1.374 . S
C279 C276 1.499 . S
C279 C280 1.373 . S
C279 C281 1.389 . S
C280 H253 0.950 . S
C280 C266 1.377 . S
C280 C279 1.373 . S
C281 C265 1.377 . S
C281 C279 1.389 . S
C281 C282 1.524 . S
C282 C281 1.524 . S
C282 C283 1.397 . S
C282 C287 1.363 . S
C283 H254 0.950 . S
C283 C282 1.397 . S
C283 C284 1.334 . S
C284 H255 0.950 . S
C284 C283 1.334 . S
C284 C285 1.287 . S
C285 C284 1.287 . S
C285 C286 1.524 . S
C285 H288 0.999 . S
C286 H256 0.950 . S
C286 C285 1.524 . S
C286 C287 1.415 . S
C287 H257 0.950 . S
C287 C282 1.363 . S
C287 C286 1.415 . S
H288 C285 0.999 . S
H289 C270 0.913 . S
H290 C308 0.951 . S
H291 C310 0.951 . S
H292 C312 0.950 . S
H293 C313 0.950 . S
H294 C315 0.950 . S
H295 C318 0.950 . S
H296 C319 0.950 . S
H297 C321 0.950 . S
H298 C322 0.950 . S
H299 C323 0.951 . S
H300 C325 0.951 . S
H301 C327 0.950 . S
H302 C328 0.950 . S
H303 C330 0.950 . S
H304 C333 0.950 . S
H305 C334 0.950 . S
H306 C336 0.950 . S
H307 C337 0.950 . S
C308 H290 0.951 . S
C308 C309 1.366 . S
C308 C310 1.388 . S
C309 C308 1.366 . S
C309 C313 1.385 . S
C310 H291 0.951 . S
C310 C308 1.388 . S
C310 C311 1.366 . S
C311 C310 1.366 . S
C311 C312 1.414 . S
C311 C314 1.499 . S
C312 H292 0.950 . S
C312 C311 1.414 . S
C312 C313 1.374 . S
C313 H293 0.950 . S
C313 C309 1.385 . S
C313 C312 1.374 . S
C314 C311 1.499 . S
C314 C315 1.373 . S
C314 C316 1.389 . S
C315 H294 0.950 . S
C315 C314 1.373 . S
C315 C331 1.377 1_455 S
C316 C314 1.389 . S
C316 C317 1.524 . S
C316 C330 1.377 1_455 S
C317 C316 1.524 . S
C317 C318 1.397 . S
C317 C322 1.363 . S
C318 H295 0.950 . S
C318 C317 1.397 . S
C318 C319 1.334 . S
C319 H296 0.950 . S
C319 C318 1.334 . S
C319 C320 1.287 . S
C320 C319 1.287 . S
C320 C321 1.524 . S
C320 H339 0.913 . S
C321 H297 0.950 . S
C321 C320 1.524 . S
C321 C322 1.415 . S
C322 H298 0.950 . S
C322 C317 1.363 . S
C322 C321 1.415 . S
C323 H299 0.951 . S
C323 C324 1.366 . S
C323 C325 1.388 . S
C324 C323 1.366 . S
C324 C328 1.385 . S
C325 H300 0.951 . S
C325 C323 1.388 . S
C325 C326 1.366 . S
C326 C325 1.366 . S
C326 C327 1.414 . S
C326 C329 1.499 . S
C327 H301 0.950 . S
C327 C326 1.414 . S
C327 C328 1.374 . S
C328 H302 0.950 . S
C328 C324 1.385 . S
C328 C327 1.374 . S
C329 C326 1.499 . S
C329 C330 1.373 . S
C329 C331 1.389 . S
C330 H303 0.950 . S
C330 C316 1.377 1_655 S
C330 C329 1.373 . S
C331 C315 1.377 1_655 S
C331 C329 1.389 . S
C331 C332 1.524 . S
C332 C331 1.524 . S
C332 C333 1.397 . S
C332 C337 1.363 . S
C333 H304 0.950 . S
C333 C332 1.397 . S
C333 C334 1.334 . S
C334 H305 0.950 . S
C334 C333 1.334 . S
C334 C335 1.287 . S
C335 C334 1.287 . S
C335 C336 1.524 . S
C335 H338 0.999 . S
C336 H306 0.950 . S
C336 C335 1.524 . S
C336 C337 1.415 . S
C337 H307 0.950 . S
C337 C332 1.363 . S
C337 C336 1.415 . S
H338 C335 0.999 . S
H339 C320 0.913 . S
H340 C358 0.951 . S
H341 C360 0.951 . S
H342 C362 0.950 . S
H343 C363 0.950 . S
H344 C365 0.950 . S
H345 C368 0.950 . S
H346 C369 0.950 . S
H347 C371 0.950 . S
H348 C372 0.950 . S
H349 C373 0.951 . S
H350 C375 0.951 . S
H351 C377 0.950 . S
H352 C378 0.950 . S
H353 C380 0.950 . S
H354 C383 0.950 . S
H355 C384 0.950 . S
H356 C386 0.950 . S
H357 C387 0.950 . S
C358 H340 0.951 . S
C358 C359 1.366 . S
C358 C360 1.388 . S
C359 C358 1.366 . S
C359 C363 1.385 . S
C360 H341 0.951 . S
C360 C358 1.388 . S
C360 C361 1.366 . S
C361 C360 1.366 . S
C361 C362 1.414 . S
C361 C364 1.499 . S
C362 H342 0.950 . S
C362 C361 1.414 . S
C362 C363 1.374 . S
C363 H343 0.950 . S
C363 C359 1.385 . S
C363 C362 1.374 . S
C364 C361 1.499 . S
C364 C365 1.373 . S
C364 C366 1.389 . S
C365 H344 0.950 . S
C365 C364 1.373 . S
C365 C381 1.377 1_545 S
C366 C364 1.389 . S
C366 C367 1.524 . S
C366 C380 1.377 1_545 S
C367 C366 1.524 . S
C367 C368 1.397 . S
C367 C372 1.363 . S
C368 H345 0.950 . S
C368 C367 1.397 . S
C368 C369 1.334 . S
C369 H346 0.950 . S
C369 C368 1.334 . S
C369 C370 1.287 . S
C370 C369 1.287 . S
C370 C371 1.524 . S
C370 H389 0.913 . S
C371 H347 0.950 . S
C371 C370 1.524 . S
C371 C372 1.415 . S
C372 H348 0.950 . S
C372 C367 1.363 . S
C372 C371 1.415 . S
C373 H349 0.951 . S
C373 C374 1.366 . S
C373 C375 1.388 . S
C374 C373 1.366 . S
C374 C378 1.385 . S
C375 H350 0.951 . S
C375 C373 1.388 . S
C375 C376 1.366 . S
C376 C375 1.366 . S
C376 C377 1.414 . S
C376 C379 1.499 . S
C377 H351 0.950 . S
C377 C376 1.414 . S
C377 C378 1.374 . S
C378 H352 0.950 . S
C378 C374 1.385 . S
C378 C377 1.374 . S
C379 C376 1.499 . S
C379 C380 1.373 . S
C379 C381 1.389 . S
C380 H353 0.950 . S
C380 C366 1.377 1_565 S
C380 C379 1.373 . S
C381 C365 1.377 1_565 S
C381 C379 1.389 . S
C381 C382 1.524 . S
C382 C381 1.524 . S
C382 C383 1.397 . S
C382 C387 1.363 . S
C383 H354 0.950 . S
C383 C382 1.397 . S
C383 C384 1.334 . S
C384 H355 0.950 . S
C384 C383 1.334 . S
C384 C385 1.287 . S
C385 C384 1.287 . S
C385 C386 1.524 . S
C385 H388 0.999 . S
C386 H356 0.950 . S
C386 C385 1.524 . S
C386 C387 1.415 . S
C387 H357 0.950 . S
C387 C382 1.363 . S
C387 C386 1.415 . S
H388 C385 0.999 . S
H389 C370 0.913 . S
H390 C408 0.951 . S
H391 C410 0.951 . S
H392 C412 0.950 . S
H393 C413 0.950 . S
H394 C415 0.950 . S
H395 C418 0.950 . S
H396 C419 0.950 . S
H397 C421 0.950 . S
H398 C422 0.950 . S
H399 C423 0.951 . S
H400 C425 0.951 . S
H401 C427 0.950 . S
H402 C428 0.950 . S
H403 C430 0.950 . S
H404 C433 0.950 . S
H405 C434 0.950 . S
H406 C436 0.950 . S
H407 C437 0.950 . S
C408 H390 0.951 . S
C408 C409 1.366 . S
C408 C410 1.388 . S
C409 C408 1.366 . S
C409 C413 1.385 . S
C410 H391 0.951 . S
C410 C408 1.388 . S
C410 C411 1.366 . S
C411 C410 1.366 . S
C411 C412 1.414 . S
C411 C414 1.499 . S
C412 H392 0.950 . S
C412 C411 1.414 . S
C412 C413 1.374 . S
C413 H393 0.950 . S
C413 C409 1.385 . S
C413 C412 1.374 . S
C414 C411 1.499 . S
C414 C415 1.373 . S
C414 C416 1.389 . S
C415 H394 0.950 . S
C415 C414 1.373 . S
C415 C431 1.377 . S
C416 C414 1.389 . S
C416 C417 1.524 . S
C416 C430 1.377 . S
C417 C416 1.524 . S
C417 C418 1.397 . S
C417 C422 1.363 . S
C418 H395 0.950 . S
C418 C417 1.397 . S
C418 C419 1.334 . S
C419 H396 0.950 . S
C419 C418 1.334 . S
C419 C420 1.287 . S
C420 C419 1.287 . S
C420 C421 1.524 . S
C420 H439 0.913 . S
C421 H397 0.950 . S
C421 C420 1.524 . S
C421 C422 1.415 . S
C422 H398 0.950 . S
C422 C417 1.363 . S
C422 C421 1.415 . S
C423 H399 0.951 . S
C423 C424 1.366 . S
C423 C425 1.388 . S
C424 C423 1.366 . S
C424 C428 1.385 . S
C425 H400 0.951 . S
C425 C423 1.388 . S
C425 C426 1.366 . S
C426 C425 1.366 . S
C426 C427 1.414 . S
C426 C429 1.499 . S
C427 H401 0.950 . S
C427 C426 1.414 . S
C427 C428 1.374 . S
C428 H402 0.950 . S
C428 C424 1.385 . S
C428 C427 1.374 . S
C429 C426 1.499 . S
C429 C430 1.373 . S
C429 C431 1.389 . S
C430 H403 0.950 . S
C430 C416 1.377 . S
C430 C429 1.373 . S
C431 C415 1.377 . S
C431 C429 1.389 . S
C431 C432 1.524 . S
C432 C431 1.524 . S
C432 C433 1.397 . S
C432 C437 1.363 . S
C433 H404 0.950 . S
C433 C432 1.397 . S
C433 C434 1.334 . S
C434 H405 0.950 . S
C434 C433 1.334 . S
C434 C435 1.287 . S
C435 C434 1.287 . S
C435 C436 1.524 . S
C435 H438 0.999 . S
C436 H406 0.950 . S
C436 C435 1.524 . S
C436 C437 1.415 . S
C437 H407 0.950 . S
C437 C432 1.363 . S
C437 C436 1.415 . S
H438 C435 0.999 . S
H439 C420 0.913 . S
H440 C458 0.951 . S
H441 C460 0.951 . S
H442 C462 0.950 . S
H443 C463 0.950 . S
H444 C465 0.950 . S
H445 C468 0.950 . S
H446 C469 0.950 1_455 S
H447 C471 0.950 . S
H448 C472 0.950 . S
H449 C473 0.951 . S
H450 C475 0.951 . S
H451 C477 0.950 . S
H452 C478 0.950 . S
H453 C480 0.950 . S
H454 C483 0.950 1_655 S
H455 C484 0.950 1_655 S
H456 C486 0.950 1_556 S
H457 C487 0.950 . S
C458 H440 0.951 . S
C458 C459 1.366 . S
C458 C460 1.388 . S
C459 C458 1.366 . S
C459 C463 1.385 . S
C460 H441 0.951 . S
C460 C458 1.388 . S
C460 C461 1.366 . S
C461 C460 1.366 . S
C461 C462 1.414 . S
C461 C464 1.499 . S
C462 H442 0.950 . S
C462 C461 1.414 . S
C462 C463 1.374 . S
C463 H443 0.950 . S
C463 C459 1.385 . S
C463 C462 1.374 . S
C464 C461 1.499 . S
C464 C465 1.373 . S
C464 C466 1.389 1_455 S
C465 H444 0.950 . S
C465 C464 1.373 . S
C465 C481 1.377 . S
C466 C464 1.389 1_655 S
C466 C467 1.524 . S
C466 C480 1.377 . S
C467 C466 1.524 . S
C467 C468 1.397 1_655 S
C467 C472 1.363 . S
C468 H445 0.950 . S
C468 C467 1.397 1_455 S
C468 C469 1.334 1_455 S
C469 H446 0.950 1_655 S
C469 C468 1.334 1_655 S
C469 C470 1.287 . S
C470 C469 1.287 . S
C470 C471 1.524 . S
C470 H489 0.913 . S
C471 H447 0.950 . S
C471 C470 1.524 . S
C471 C472 1.415 . S
C472 H448 0.950 . S
C472 C467 1.363 . S
C472 C471 1.415 . S
C473 H449 0.951 . S
C473 C474 1.366 . S
C473 C475 1.388 . S
C474 C473 1.366 . S
C474 C478 1.385 . S
C475 H450 0.951 . S
C475 C473 1.388 . S
C475 C476 1.366 . S
C476 C475 1.366 . S
C476 C477 1.414 . S
C476 C479 1.499 . S
C477 H451 0.950 . S
C477 C476 1.414 . S
C477 C478 1.374 . S
C478 H452 0.950 . S
C478 C474 1.385 . S
C478 C477 1.374 . S
C479 C476 1.499 . S
C479 C480 1.373 . S
C479 C481 1.389 1_655 S
C480 H453 0.950 . S
C480 C466 1.377 . S
C480 C479 1.373 . S
C481 C465 1.377 . S
C481 C479 1.389 1_455 S
C481 C482 1.524 . S
C482 C481 1.524 . S
C482 C483 1.397 . S
C482 C487 1.363 . S
C483 H454 0.950 1_455 S
C483 C482 1.397 . S
C483 C484 1.334 1_554 S
C484 H455 0.950 1_455 S
C484 C483 1.334 1_556 S
C484 C485 1.287 . S
C485 C484 1.287 . S
C485 C486 1.524 1_556 S
C485 H488 0.999 . S
C486 H456 0.950 1_554 S
C486 C485 1.524 1_554 S
C486 C487 1.415 . S
C487 H457 0.950 . S
C487 C482 1.363 . S
C487 C486 1.415 . S
H488 C485 0.999 . S
H489 C470 0.913 . S
H490 C508 0.951 . S
H491 C510 0.951 . S
H492 C512 0.950 . S
H493 C513 0.950 . S
H494 C515 0.950 . S
H495 C518 0.950 . S
H496 C519 0.950 . S
H497 C521 0.950 . S
H498 C522 0.950 . S
H499 C523 0.951 . S
H500 C525 0.951 . S
H501 C527 0.950 . S
H502 C528 0.950 . S
H503 C530 0.950 . S
H504 C533 0.950 . S
H505 C534 0.950 . S
H506 C536 0.950 . S
H507 C537 0.950 . S
C508 H490 0.951 . S
C508 C509 1.366 . S
C508 C510 1.388 . S
C509 C508 1.366 . S
C509 C513 1.385 . S
C510 H491 0.951 . S
C510 C508 1.388 . S
C510 C511 1.366 . S
C511 C510 1.366 . S
C511 C512 1.414 . S
C511 C514 1.499 . S
C512 H492 0.950 . S
C512 C511 1.414 . S
C512 C513 1.374 . S
C513 H493 0.950 . S
C513 C509 1.385 . S
C513 C512 1.374 . S
C514 C511 1.499 . S
C514 C515 1.373 . S
C514 C516 1.365 1_545 S
C515 H494 0.950 . S
C515 C514 1.373 . S
C515 C531 1.377 . S
C516 C514 1.365 1_565 S
C516 C517 1.533 . S
C516 C530 1.395 . S
C517 C516 1.533 . S
C517 C518 1.397 1_565 S
C517 C522 1.363 . S
C518 H495 0.950 . S
C518 C517 1.397 1_545 S
C518 C519 1.334 . S
C519 H496 0.950 . S
C519 C518 1.334 . S
C519 C520 1.287 1_545 S
C520 C519 1.287 1_565 S
C520 C521 1.524 . S
C520 H539 0.913 . S
C521 H497 0.950 . S
C521 C520 1.524 . S
C521 C522 1.415 . S
C522 H498 0.950 . S
C522 C517 1.363 . S
C522 C521 1.415 . S
C523 H499 0.951 . S
C523 C524 1.366 . S
C523 C525 1.388 . S
C524 C523 1.366 . S
C524 C528 1.385 . S
C525 H500 0.951 . S
C525 C523 1.388 . S
C525 C526 1.366 . S
C526 C525 1.366 . S
C526 C527 1.414 . S
C526 C529 1.499 . S
C527 H501 0.950 . S
C527 C526 1.414 . S
C527 C528 1.374 . S
C528 H502 0.950 . S
C528 C524 1.385 . S
C528 C527 1.374 . S
C529 C526 1.499 . S
C529 C530 1.373 . S
C529 C531 1.389 1_565 S
C530 H503 0.950 . S
C530 C516 1.395 . S
C530 C529 1.373 . S
C531 C515 1.377 . S
C531 C529 1.389 1_545 S
C531 C532 1.524 . S
C532 C531 1.524 . S
C532 C533 1.397 1_545 S
C532 C537 1.363 . S
C533 H504 0.950 . S
C533 C532 1.397 1_565 S
C533 C534 1.334 . S
C534 H505 0.950 . S
C534 C533 1.334 . S
C534 C535 1.287 1_565 S
C535 C534 1.287 1_545 S
C535 C536 1.524 . S
C535 H538 0.999 . S
C536 H506 0.950 . S
C536 C535 1.524 . S
C536 C537 1.415 . S
C537 H507 0.950 . S
C537 C532 1.363 . S
C537 C536 1.415 . S
H538 C535 0.999 . S
H539 C520 0.913 . S
H540 C558 0.951 . S
H541 C560 0.951 . S
H542 C562 0.950 . S
H543 C563 0.950 . S
H544 C565 0.950 . S
H545 C568 0.950 . S
H546 C569 0.950 . S
H547 C571 0.950 . S
H548 C572 0.950 . S
H549 C573 0.951 . S
H550 C575 0.951 . S
H551 C577 0.950 . S
H552 C578 0.950 . S
H553 C580 0.950 . S
H554 C583 0.950 . S
H555 C584 0.950 . S
H556 C586 0.950 . S
H557 C587 0.950 . S
C558 H540 0.951 . S
C558 C559 1.366 . S
C558 C560 1.388 . S
C559 C558 1.366 . S
C559 C563 1.385 . S
C560 H541 0.951 . S
C560 C558 1.388 . S
C560 C561 1.366 . S
C561 C560 1.366 . S
C561 C562 1.414 . S
C561 C564 1.499 . S
C562 H542 0.950 . S
C562 C561 1.414 . S
C562 C563 1.374 . S
C563 H543 0.950 . S
C563 C559 1.385 . S
C563 C562 1.374 . S
C564 C561 1.499 . S
C564 C565 1.373 . S
C564 C566 1.389 . S
C565 H544 0.950 . S
C565 C564 1.373 . S
C565 C581 1.377 . S
C566 C564 1.389 . S
C566 C567 1.524 . S
C566 C580 1.377 . S
C567 C566 1.524 . S
C567 C568 1.397 . S
C567 C572 1.363 . S
C568 H545 0.950 . S
C568 C567 1.397 . S
C568 C569 1.334 . S
C569 H546 0.950 . S
C569 C568 1.334 . S
C569 C570 1.287 . S
C570 C569 1.287 . S
C570 C571 1.524 . S
C570 H589 0.913 . S
C571 H547 0.950 . S
C571 C570 1.524 . S
C571 C572 1.415 . S
C572 H548 0.950 . S
C572 C567 1.363 . S
C572 C571 1.415 . S
C573 H549 0.951 . S
C573 C574 1.366 . S
C573 C575 1.388 . S
C574 C573 1.366 . S
C574 C578 1.385 . S
C575 H550 0.951 . S
C575 C573 1.388 . S
C575 C576 1.366 . S
C576 C575 1.366 . S
C576 C577 1.414 . S
C576 C579 1.499 . S
C577 H551 0.950 . S
C577 C576 1.414 . S
C577 C578 1.374 . S
C578 H552 0.950 . S
C578 C574 1.385 . S
C578 C577 1.374 . S
C579 C576 1.499 . S
C579 C580 1.373 . S
C579 C581 1.389 . S
C580 H553 0.950 . S
C580 C566 1.377 . S
C580 C579 1.373 . S
C581 C565 1.377 . S
C581 C579 1.389 . S
C581 C582 1.524 . S
C582 C581 1.524 . S
C582 C583 1.397 . S
C582 C587 1.363 . S
C583 H554 0.950 . S
C583 C582 1.397 . S
C583 C584 1.334 . S
C584 H555 0.950 . S
C584 C583 1.334 . S
C584 C585 1.287 . S
C585 C584 1.287 . S
C585 C586 1.524 . S
C585 H588 0.999 . S
C586 H556 0.950 . S
C586 C585 1.524 . S
C586 C587 1.415 . S
C587 H557 0.950 . S
C587 C582 1.363 . S
C587 C586 1.415 . S
H588 C585 0.999 . S
H589 C570 0.913 . S
H590 C608 0.951 . S
H591 C610 0.951 . S
H592 C612 0.950 . S
H593 C613 0.950 1_554 S
H594 C615 0.950 . S
H595 C618 0.950 . S
H596 C619 0.950 . S
H597 C621 0.950 . S
H598 C622 0.950 . S
H599 C623 0.951 . S
H600 C625 0.951 . S
H601 C627 0.950 . S
H602 C628 0.950 . S
H603 C630 0.950 . S
H604 C633 0.950 . S
H605 C634 0.950 . S
H606 C636 0.950 . S
H607 C637 0.950 . S
C608 H590 0.951 . S
C608 C609 1.366 1_556 S
C608 C610 1.388 . S
C609 C608 1.366 1_554 S
C609 C613 1.385 1_554 S
C610 H591 0.951 . S
C610 C608 1.388 . S
C610 C611 1.366 . S
C611 C610 1.366 . S
C611 C612 1.414 . S
C611 C614 1.499 . S
C612 H592 0.950 . S
C612 C611 1.414 . S
C612 C613 1.374 . S
C613 H593 0.950 1_556 S
C613 C609 1.385 1_556 S
C613 C612 1.374 . S
C614 C611 1.499 . S
C614 C615 1.373 . S
C614 C616 1.389 . S
C615 H594 0.950 . S
C615 C614 1.373 . S
C615 C631 1.377 . S
C616 C614 1.389 . S
C616 C617 1.524 . S
C616 C630 1.377 . S
C617 C616 1.524 . S
C617 C618 1.397 . S
C617 C622 1.363 . S
C618 H595 0.950 . S
C618 C617 1.397 . S
C618 C619 1.334 . S
C619 H596 0.950 . S
C619 C618 1.334 . S
C619 C620 1.287 . S
C620 C619 1.287 . S
C620 C621 1.524 . S
C620 H639 0.913 . S
C621 H597 0.950 . S
C621 C620 1.524 . S
C621 C622 1.415 . S
C622 H598 0.950 . S
C622 C617 1.363 . S
C622 C621 1.415 . S
C623 H599 0.951 . S
C623 C624 1.366 . S
C623 C625 1.388 . S
C624 C623 1.366 . S
C624 C628 1.385 . S
C625 H600 0.951 . S
C625 C623 1.388 . S
C625 C626 1.366 . S
C626 C625 1.366 . S
C626 C627 1.414 . S
C626 C629 1.499 . S
C627 H601 0.950 . S
C627 C626 1.414 . S
C627 C628 1.374 . S
C628 H602 0.950 . S
C628 C624 1.385 . S
C628 C627 1.374 . S
C629 C626 1.499 . S
C629 C630 1.373 . S
C629 C631 1.389 . S
C630 H603 0.950 . S
C630 C616 1.377 . S
C630 C629 1.373 . S
C631 C615 1.377 . S
C631 C629 1.389 . S
C631 C632 1.524 . S
C632 C631 1.524 . S
C632 C633 1.397 . S
C632 C637 1.363 . S
C633 H604 0.950 . S
C633 C632 1.397 . S
C633 C634 1.334 . S
C634 H605 0.950 . S
C634 C633 1.334 . S
C634 C635 1.287 . S
C635 C634 1.287 . S
C635 C636 1.524 . S
C635 H638 0.999 . S
C636 H606 0.950 . S
C636 C635 1.524 . S
C636 C637 1.415 . S
C637 H607 0.950 . S
C637 C632 1.363 . S
C637 C636 1.415 . S
H638 C635 0.999 . S
H639 C620 0.913 . S
H640 C658 0.951 . S
H641 C660 0.951 . S
H642 C662 0.950 . S
H643 C663 0.950 . S
H644 C665 0.950 . S
H645 C668 0.950 . S
H646 C669 0.950 . S
H647 C671 0.950 . S
H648 C672 0.950 . S
H649 C673 0.951 1_556 S
H650 C675 0.951 . S
H651 C677 0.950 . S
H652 C678 0.950 . S
H653 C680 0.950 . S
H654 C683 0.950 . S
H655 C684 0.950 . S
H656 C686 0.950 . S
H657 C687 0.950 . S
C658 H640 0.951 . S
C658 C659 1.366 . S
C658 C660 1.388 . S
C659 C658 1.366 . S
C659 C663 1.385 . S
C660 H641 0.951 . S
C660 C658 1.388 . S
C660 C661 1.366 . S
C661 C660 1.366 . S
C661 C662 1.414 . S
C661 C664 1.499 . S
C662 H642 0.950 . S
C662 C661 1.414 . S
C662 C663 1.374 . S
C663 H643 0.950 . S
C663 C659 1.385 . S
C663 C662 1.374 . S
C664 C661 1.499 . S
C664 C665 1.373 . S
C664 C666 1.389 . S
C665 H644 0.950 . S
C665 C664 1.373 . S
C665 C681 1.377 . S
C666 C664 1.389 . S
C666 C667 1.524 . S
C666 C680 1.377 . S
C667 C666 1.524 . S
C667 C668 1.397 . S
C667 C672 1.363 . S
C668 H645 0.950 . S
C668 C667 1.397 . S
C668 C669 1.334 . S
C669 H646 0.950 . S
C669 C668 1.334 . S
C669 C670 1.287 . S
C670 C669 1.287 . S
C670 C671 1.524 . S
C670 H689 0.913 . S
C671 H647 0.950 . S
C671 C670 1.524 . S
C671 C672 1.415 . S
C672 H648 0.950 . S
C672 C667 1.363 . S
C672 C671 1.415 . S
C673 H649 0.951 1_554 S
C673 C674 1.366 1_554 S
C673 C675 1.388 . S
C674 C673 1.366 1_556 S
C674 C678 1.385 1_556 S
C675 H650 0.951 . S
C675 C673 1.388 . S
C675 C676 1.366 . S
C676 C675 1.366 . S
C676 C677 1.414 . S
C676 C679 1.499 . S
C677 H651 0.950 . S
C677 C676 1.414 . S
C677 C678 1.374 . S
C678 H652 0.950 . S
C678 C674 1.385 1_554 S
C678 C677 1.374 . S
C679 C676 1.499 . S
C679 C680 1.373 . S
C679 C681 1.389 . S
C680 H653 0.950 . S
C680 C666 1.377 . S
C680 C679 1.373 . S
C681 C665 1.377 . S
C681 C679 1.389 . S
C681 C682 1.524 . S
C682 C681 1.524 . S
C682 C683 1.397 . S
C682 C687 1.363 . S
C683 H654 0.950 . S
C683 C682 1.397 . S
C683 C684 1.334 . S
C684 H655 0.950 . S
C684 C683 1.334 . S
C684 C685 1.287 . S
C685 C684 1.287 . S
C685 C686 1.524 . S
C685 H688 0.999 . S
C686 H656 0.950 . S
C686 C685 1.524 . S
C686 C687 1.415 . S
C687 H657 0.950 . S
C687 C682 1.363 . S
C687 C686 1.415 . S
H688 C685 0.999 . S
H689 C670 0.913 . S
H690 C708 0.951 . S
H691 C710 0.951 . S
H692 C712 0.950 . S
H693 C713 0.950 . S
H694 C715 0.950 . S
H695 C718 0.950 . S
H696 C719 0.950 . S
H697 C721 0.950 . S
H698 C722 0.950 . S
H699 C723 0.951 . S
H700 C725 0.951 . S
H701 C727 0.950 . S
H702 C728 0.950 . S
H703 C730 0.950 . S
H704 C733 0.950 . S
H705 C734 0.950 . S
H706 C736 0.950 . S
H707 C737 0.950 . S
C708 H690 0.951 . S
C708 C709 1.366 . S
C708 C710 1.388 . S
C709 C708 1.366 . S
C709 C713 1.385 . S
C710 H691 0.951 . S
C710 C708 1.388 . S
C710 C711 1.366 . S
C711 C710 1.366 . S
C711 C712 1.414 . S
C711 C714 1.499 . S
C712 H692 0.950 . S
C712 C711 1.414 . S
C712 C713 1.374 . S
C713 H693 0.950 . S
C713 C709 1.385 . S
C713 C712 1.374 . S
C714 C711 1.499 . S
C714 C715 1.373 . S
C714 C716 1.389 . S
C715 H694 0.950 . S
C715 C714 1.373 . S
C715 C731 1.377 . S
C716 C714 1.389 . S
C716 C717 1.524 . S
C716 C730 1.377 . S
C717 C716 1.524 . S
C717 C718 1.397 . S
C717 C722 1.363 . S
C718 H695 0.950 . S
C718 C717 1.397 . S
C718 C719 1.334 . S
C719 H696 0.950 . S
C719 C718 1.334 . S
C719 C720 1.287 . S
C720 C719 1.287 . S
C720 C721 1.524 . S
C720 H739 0.913 . S
C721 H697 0.950 . S
C721 C720 1.524 . S
C721 C722 1.415 . S
C722 H698 0.950 . S
C722 C717 1.363 . S
C722 C721 1.415 . S
C723 H699 0.951 . S
C723 C724 1.366 . S
C723 C725 1.388 . S
C724 C723 1.366 . S
C724 C728 1.385 . S
C725 H700 0.951 . S
C725 C723 1.388 . S
C725 C726 1.366 . S
C726 C725 1.366 . S
C726 C727 1.414 . S
C726 C729 1.499 . S
C727 H701 0.950 . S
C727 C726 1.414 . S
C727 C728 1.374 . S
C728 H702 0.950 . S
C728 C724 1.385 . S
C728 C727 1.374 . S
C729 C726 1.499 . S
C729 C730 1.373 . S
C729 C731 1.389 . S
C730 H703 0.950 . S
C730 C716 1.377 . S
C730 C729 1.373 . S
C731 C715 1.377 . S
C731 C729 1.389 . S
C731 C732 1.524 . S
C732 C731 1.524 . S
C732 C733 1.397 . S
C732 C737 1.363 . S
C733 H704 0.950 . S
C733 C732 1.397 . S
C733 C734 1.334 . S
C734 H705 0.950 . S
C734 C733 1.334 . S
C734 C735 1.287 . S
C735 C734 1.287 . S
C735 C736 1.524 . S
C735 H738 0.999 . S
C736 H706 0.950 . S
C736 C735 1.524 . S
C736 C737 1.415 . S
C737 H707 0.950 . S
C737 C732 1.363 . S
C737 C736 1.415 . S
H738 C735 0.999 . S
H739 C720 0.913 . S
H740 C758 0.951 . S
H741 C760 0.951 . S
H742 C762 0.950 . S
H743 C763 0.950 . S
H744 C765 0.950 . S
H745 C768 0.950 . S
H746 C769 0.950 . S
H747 C771 0.950 . S
H748 C772 0.950 . S
H749 C773 0.951 . S
H750 C775 0.951 . S
H751 C777 0.950 . S
H752 C778 0.950 . S
H753 C780 0.950 . S
H754 C783 0.950 . S
H755 C784 0.950 . S
H756 C786 0.950 . S
H757 C787 0.950 . S
C758 H740 0.951 . S
C758 C759 1.366 . S
C758 C760 1.388 . S
C759 C758 1.366 . S
C759 C763 1.385 . S
C760 H741 0.951 . S
C760 C758 1.388 . S
C760 C761 1.366 . S
C761 C760 1.366 . S
C761 C762 1.414 . S
C761 C764 1.499 . S
C762 H742 0.950 . S
C762 C761 1.414 . S
C762 C763 1.374 . S
C763 H743 0.950 . S
C763 C759 1.385 . S
C763 C762 1.374 . S
C764 C761 1.499 . S
C764 C765 1.373 . S
C764 C766 1.389 . S
C765 H744 0.950 . S
C765 C764 1.373 . S
C765 C781 1.377 . S
C766 C764 1.389 . S
C766 C767 1.524 . S
C766 C780 1.377 . S
C767 C766 1.524 . S
C767 C768 1.397 . S
C767 C772 1.363 . S
C768 H745 0.950 . S
C768 C767 1.397 . S
C768 C769 1.334 . S
C769 H746 0.950 . S
C769 C768 1.334 . S
C769 C770 1.287 . S
C770 C769 1.287 . S
C770 C771 1.524 . S
C770 H789 0.913 . S
C771 H747 0.950 . S
C771 C770 1.524 . S
C771 C772 1.415 . S
C772 H748 0.950 . S
C772 C767 1.363 . S
C772 C771 1.415 . S
C773 H749 0.951 . S
C773 C774 1.366 1_556 S
C773 C775 1.388 . S
C774 C773 1.366 1_554 S
C774 C778 1.385 . S
C775 H750 0.951 . S
C775 C773 1.388 . S
C775 C776 1.366 . S
C776 C775 1.366 . S
C776 C777 1.414 . S
C776 C779 1.499 . S
C777 H751 0.950 . S
C777 C776 1.414 . S
C777 C778 1.374 1_556 S
C778 H752 0.950 . S
C778 C774 1.385 . S
C778 C777 1.374 1_554 S
C779 C776 1.499 . S
C779 C780 1.373 . S
C779 C781 1.389 . S
C780 H753 0.950 . S
C780 C766 1.377 . S
C780 C779 1.373 . S
C781 C765 1.377 . S
C781 C779 1.389 . S
C781 C782 1.524 . S
C782 C781 1.524 . S
C782 C783 1.397 . S
C782 C787 1.363 . S
C783 H754 0.950 . S
C783 C782 1.397 . S
C783 C784 1.334 . S
C784 H755 0.950 . S
C784 C783 1.334 . S
C784 C785 1.287 . S
C785 C784 1.287 . S
C785 C786 1.524 . S
C785 H788 0.999 . S
C786 H756 0.950 . S
C786 C785 1.524 . S
C786 C787 1.415 . S
C787 H757 0.950 . S
C787 C782 1.363 . S
C787 C786 1.415 . S
H788 C785 0.999 . S
H789 C770 0.913 . S
H790 C808 0.951 . S
H791 C810 0.951 . S
H792 C812 0.950 . S
H793 C813 0.950 . S
H794 C815 0.950 . S
H795 C818 0.950 . S
H796 C819 0.950 . S
H797 C821 0.950 . S
H798 C822 0.950 . S
H799 C823 0.941 1_556 S
H800 C825 0.951 . S
H801 C827 0.950 . S
H802 C828 0.950 . S
H803 C830 0.950 . S
H804 C833 0.950 . S
H805 C834 0.950 . S
H806 C836 0.950 . S
H807 C837 0.950 . S
C808 H790 0.951 . S
C808 C809 1.366 . S
C808 C810 1.388 . S
C809 C808 1.366 . S
C809 C813 1.385 . S
C810 H791 0.951 . S
C810 C808 1.388 . S
C810 C811 1.366 . S
C811 C810 1.366 . S
C811 C812 1.414 . S
C811 C814 1.499 . S
C812 H792 0.950 . S
C812 C811 1.414 . S
C812 C813 1.374 . S
C813 H793 0.950 . S
C813 C809 1.385 . S
C813 C812 1.374 . S
C814 C811 1.499 . S
C814 C815 1.373 . S
C814 C816 1.389 . S
C815 H794 0.950 . S
C815 C814 1.373 . S
C815 C831 1.377 . S
C816 C814 1.389 . S
C816 C817 1.524 . S
C816 C830 1.377 . S
C817 C816 1.524 . S
C817 C818 1.397 . S
C817 C822 1.363 . S
C818 H795 0.950 . S
C818 C817 1.397 . S
C818 C819 1.334 . S
C819 H796 0.950 . S
C819 C818 1.334 . S
C819 C820 1.287 . S
C820 C819 1.287 . S
C820 C821 1.524 . S
C820 H839 0.913 . S
C821 H797 0.950 . S
C821 C820 1.524 . S
C821 C822 1.415 . S
C822 H798 0.950 . S
C822 C817 1.363 . S
C822 C821 1.415 . S
C823 H799 0.941 1_554 S
C823 C824 1.362 1_554 S
C823 C825 1.402 . S
C824 C823 1.362 1_556 S
C824 C828 1.385 1_556 S
C825 H800 0.951 . S
C825 C823 1.402 . S
C825 C826 1.366 . S
C826 C825 1.366 . S
C826 C827 1.414 . S
C826 C829 1.499 . S
C827 H801 0.950 . S
C827 C826 1.414 . S
C827 C828 1.374 . S
C828 H802 0.950 . S
C828 C824 1.385 1_554 S
C828 C827 1.374 . S
C829 C826 1.499 . S
C829 C830 1.373 . S
C829 C831 1.389 . S
C830 H803 0.950 . S
C830 C816 1.377 . S
C830 C829 1.373 . S
C831 C815 1.377 . S
C831 C829 1.389 . S
C831 C832 1.524 . S
C832 C831 1.524 . S
C832 C833 1.397 . S
C832 C837 1.363 . S
C833 H804 0.950 . S
C833 C832 1.397 . S
C833 C834 1.334 . S
C834 H805 0.950 . S
C834 C833 1.334 . S
C834 C835 1.287 . S
C835 C834 1.287 . S
C835 C836 1.524 . S
C835 H838 0.999 . S
C836 H806 0.950 . S
C836 C835 1.524 . S
C836 C837 1.415 . S
C837 H807 0.950 . S
C837 C832 1.363 . S
C837 C836 1.415 . S
H838 C835 0.999 . S
H839 C820 0.913 . S
H840 C858 0.951 . S
H841 C860 0.951 . S
H842 C862 0.950 . S
H843 C863 0.950 . S
H844 C865 0.950 . S
H845 C868 0.950 . S
H846 C869 0.950 . S
H847 C871 0.950 . S
H848 C872 0.950 . S
H849 C873 0.951 . S
H850 C875 0.951 . S
H851 C877 0.950 . S
H852 C878 0.950 . S
H853 C880 0.950 . S
H854 C883 0.950 . S
H855 C884 0.950 . S
H856 C886 0.950 . S
H857 C887 0.950 . S
C858 H840 0.951 . S
C858 C859 1.366 . S
C858 C860 1.388 . S
C859 C858 1.366 . S
C859 C863 1.385 . S
C860 H841 0.951 . S
C860 C858 1.388 . S
C860 C861 1.366 . S
C861 C860 1.366 . S
C861 C862 1.414 . S
C861 C864 1.499 . S
C862 H842 0.950 . S
C862 C861 1.414 . S
C862 C863 1.374 . S
C863 H843 0.950 . S
C863 C859 1.385 . S
C863 C862 1.374 . S
C864 C861 1.499 . S
C864 C865 1.373 . S
C864 C866 1.389 . S
C865 H844 0.950 . S
C865 C864 1.373 . S
C865 C881 1.377 . S
C866 C864 1.389 . S
C866 C867 1.524 . S
C866 C880 1.377 . S
C867 C866 1.524 . S
C867 C868 1.397 . S
C867 C872 1.363 . S
C868 H845 0.950 . S
C868 C867 1.397 . S
C868 C869 1.334 . S
C869 H846 0.950 . S
C869 C868 1.334 . S
C869 C870 1.287 . S
C870 C869 1.287 . S
C870 C871 1.524 . S
C870 H889 0.913 . S
C871 H847 0.950 . S
C871 C870 1.524 . S
C871 C872 1.415 . S
C872 H848 0.950 . S
C872 C867 1.363 . S
C872 C871 1.415 . S
C873 H849 0.951 . S
C873 C874 1.366 . S
C873 C875 1.388 . S
C874 C873 1.366 . S
C874 C878 1.385 . S
C875 H850 0.951 . S
C875 C873 1.388 . S
C875 C876 1.366 . S
C876 C875 1.366 . S
C876 C877 1.414 . S
C876 C879 1.499 . S
C877 H851 0.950 . S
C877 C876 1.414 . S
C877 C878 1.374 . S
C878 H852 0.950 . S
C878 C874 1.385 . S
C878 C877 1.374 . S
C879 C876 1.499 . S
C879 C880 1.373 . S
C879 C881 1.389 . S
C880 H853 0.950 . S
C880 C866 1.377 . S
C880 C879 1.373 . S
C881 C865 1.377 . S
C881 C879 1.389 . S
C881 C882 1.524 . S
C882 C881 1.524 . S
C882 C883 1.397 . S
C882 C887 1.363 . S
C883 H854 0.950 . S
C883 C882 1.397 . S
C883 C884 1.334 . S
C884 H855 0.950 . S
C884 C883 1.334 . S
C884 C885 1.287 . S
C885 C884 1.287 . S
C885 C886 1.524 . S
C885 H888 0.999 . S
C886 H856 0.950 . S
C886 C885 1.524 . S
C886 C887 1.415 . S
C887 H857 0.950 . S
C887 C882 1.363 . S
C887 C886 1.415 . S
H888 C885 0.999 . S
H889 C870 0.913 . S
H890 C908 0.951 . S
H891 C910 0.951 . S
H892 C912 0.950 . S
H893 C913 0.950 . S
H894 C915 0.950 . S
H895 C918 0.950 . S
H896 C919 0.950 . S
H897 C921 0.950 . S
H898 C922 0.950 . S
H899 C923 0.951 . S
H900 C925 0.951 . S
H901 C927 0.950 . S
H902 C928 0.950 . S
H903 C930 0.950 . S
H904 C933 0.950 . S
H905 C934 0.950 . S
H906 C936 0.950 . S
H907 C937 0.950 . S
C908 H890 0.951 . S
C908 C909 1.366 . S
C908 C910 1.388 . S
C909 C908 1.366 . S
C909 C913 1.385 . S
C910 H891 0.951 . S
C910 C908 1.388 . S
C910 C911 1.366 . S
C911 C910 1.366 . S
C911 C912 1.414 . S
C911 C914 1.499 . S
C912 H892 0.950 . S
C912 C911 1.414 . S
C912 C913 1.374 . S
C913 H893 0.950 . S
C913 C909 1.385 . S
C913 C912 1.374 . S
C914 C911 1.499 . S
C914 C915 1.373 . S
C914 C916 1.389 . S
C915 H894 0.950 . S
C915 C914 1.373 . S
C915 C931 1.377 . S
C916 C914 1.389 . S
C916 C917 1.524 . S
C916 C930 1.377 . S
C917 C916 1.524 . S
C917 C918 1.397 . S
C917 C922 1.363 . S
C918 H895 0.950 . S
C918 C917 1.397 . S
C918 C919 1.334 . S
C919 H896 0.950 . S
C919 C918 1.334 . S
C919 C920 1.287 . S
C920 C919 1.287 . S
C920 C921 1.524 . S
C920 H939 0.913 . S
C921 H897 0.950 . S
C921 C920 1.524 . S
C921 C922 1.415 . S
C922 H898 0.950 . S
C922 C917 1.363 . S
C922 C921 1.415 . S
C923 H899 0.951 . S
C923 C924 1.366 . S
C923 C925 1.388 . S
C924 C923 1.366 . S
C924 C928 1.385 . S
C925 H900 0.951 . S
C925 C923 1.388 . S
C925 C926 1.366 . S
C926 C925 1.366 . S
C926 C927 1.414 . S
C926 C929 1.499 . S
C927 H901 0.950 . S
C927 C926 1.414 . S
C927 C928 1.374 . S
C928 H902 0.950 . S
C928 C924 1.385 . S
C928 C927 1.374 . S
C929 C926 1.499 . S
C929 C930 1.373 . S
C929 C931 1.389 . S
C930 H903 0.950 . S
C930 C916 1.377 . S
C930 C929 1.373 . S
C931 C915 1.377 . S
C931 C929 1.389 . S
C931 C932 1.524 . S
C932 C931 1.524 . S
C932 C933 1.397 . S
C932 C937 1.363 . S
C933 H904 0.950 . S
C933 C932 1.397 . S
C933 C934 1.334 . S
C934 H905 0.950 . S
C934 C933 1.334 . S
C934 C935 1.287 . S
C935 C934 1.287 . S
C935 C936 1.524 . S
C935 H938 0.999 . S
C936 H906 0.950 . S
C936 C935 1.524 . S
C936 C937 1.415 . S
C937 H907 0.950 . S
C937 C932 1.363 . S
C937 C936 1.415 . S
H938 C935 0.999 . S
H939 C920 0.913 . S
H940 C958 0.951 . S
H941 C960 0.951 . S
H942 C962 0.950 . S
H943 C963 0.950 . S
H944 C965 0.950 . S
H945 C968 0.950 . S
H946 C969 0.950 . S
H947 C971 0.950 . S
H948 C972 0.950 . S
H949 C973 0.951 . S
H950 C975 0.951 . S
H951 C977 0.950 . S
H952 C978 0.950 . S
H953 C980 0.950 . S
H954 C983 0.950 . S
H955 C984 0.950 . S
H956 C986 0.950 . S
H957 C987 0.950 . S
C958 H940 0.951 . S
C958 C959 1.366 . S
C958 C960 1.388 . S
C959 C958 1.366 . S
C959 C963 1.385 . S
C960 H941 0.951 . S
C960 C958 1.388 . S
C960 C961 1.366 . S
C961 C960 1.366 . S
C961 C962 1.414 . S
C961 C964 1.499 . S
C962 H942 0.950 . S
C962 C961 1.414 . S
C962 C963 1.374 . S
C963 H943 0.950 . S
C963 C959 1.385 . S
C963 C962 1.374 . S
C964 C961 1.499 . S
C964 C965 1.373 . S
C964 C966 1.389 . S
C965 H944 0.950 . S
C965 C964 1.373 . S
C965 C981 1.377 . S
C966 C964 1.389 . S
C966 C967 1.524 . S
C966 C980 1.377 . S
C967 C966 1.524 . S
C967 C968 1.397 . S
C967 C972 1.363 . S
C968 H945 0.950 . S
C968 C967 1.397 . S
C968 C969 1.334 . S
C969 H946 0.950 . S
C969 C968 1.334 . S
C969 C970 1.287 . S
C970 C969 1.287 . S
C970 C971 1.524 . S
C970 H989 0.913 . S
C971 H947 0.950 . S
C971 C970 1.524 . S
C971 C972 1.415 . S
C972 H948 0.950 . S
C972 C967 1.363 . S
C972 C971 1.415 . S
C973 H949 0.951 . S
C973 C974 1.366 . S
C973 C975 1.388 . S
C974 C973 1.366 . S
C974 C978 1.385 . S
C975 H950 0.951 . S
C975 C973 1.388 . S
C975 C976 1.366 . S
C976 C975 1.366 . S
C976 C977 1.414 . S
C976 C979 1.499 . S
C977 H951 0.950 . S
C977 C976 1.414 . S
C977 C978 1.374 . S
C978 H952 0.950 . S
C978 C974 1.385 . S
C978 C977 1.374 . S
C979 C976 1.499 . S
C979 C980 1.373 . S
C979 C981 1.389 . S
C980 H953 0.950 . S
C980 C966 1.377 . S
C980 C979 1.373 . S
C981 C965 1.377 . S
C981 C979 1.389 . S
C981 C982 1.524 . S
C982 C981 1.524 . S
C982 C983 1.397 . S
C982 C987 1.363 . S
C983 H954 0.950 . S
C983 C982 1.397 . S
C983 C984 1.334 . S
C984 H955 0.950 . S
C984 C983 1.334 . S
C984 C985 1.287 . S
C985 C984 1.287 . S
C985 C986 1.524 . S
C985 H988 0.999 . S
C986 H956 0.950 . S
C986 C985 1.524 . S
C986 C987 1.415 . S
C987 H957 0.950 . S
C987 C982 1.363 . S
C987 C986 1.415 . S
H988 C985 0.999 . S
H989 C970 0.913 . S
H990 C1008 0.951 . S
H991 C1010 0.951 . S
H992 C1012 0.950 . S
H993 C1013 0.950 . S
H994 C1015 0.950 . S
H995 C1018 0.950 . S
H996 C1019 0.950 . S
H997 C1021 0.950 . S
H998 C1022 0.950 . S
H999 C1023 0.951 . S
H1000 C1025 0.951 . S
H1001 C1027 0.950 . S
H1002 C1028 0.950 . S
H1003 C1030 0.950 . S
H1004 C1033 0.950 . S
H1005 C1034 0.950 . S
H1006 C1036 0.950 . S
H1007 C1037 0.950 . S
C1008 H990 0.951 . S
C1008 C1009 1.366 . S
C1008 C1010 1.388 . S
C1009 C1008 1.366 . S
C1009 C1013 1.385 . S
C1010 H991 0.951 . S
C1010 C1008 1.388 . S
C1010 C1011 1.366 . S
C1011 C1010 1.366 . S
C1011 C1012 1.414 . S
C1011 C1014 1.499 . S
C1012 H992 0.950 . S
C1012 C1011 1.414 . S
C1012 C1013 1.374 . S
C1013 H993 0.950 . S
C1013 C1009 1.385 . S
C1013 C1012 1.374 . S
C1014 C1011 1.499 . S
C1014 C1015 1.373 . S
C1014 C1016 1.389 . S
C1015 H994 0.950 . S
C1015 C1014 1.373 . S
C1015 C1031 1.377 . S
C1016 C1014 1.389 . S
C1016 C1017 1.524 . S
C1016 C1030 1.377 . S
C1017 C1016 1.524 . S
C1017 C1018 1.397 . S
C1017 C1022 1.363 . S
C1018 H995 0.950 . S
C1018 C1017 1.397 . S
C1018 C1019 1.334 . S
C1019 H996 0.950 . S
C1019 C1018 1.334 . S
C1019 C1020 1.287 . S
C1020 C1019 1.287 . S
C1020 C1021 1.524 . S
C1020 H1039 0.913 . S
C1021 H997 0.950 . S
C1021 C1020 1.524 . S
C1021 C1022 1.415 . S
C1022 H998 0.950 . S
C1022 C1017 1.363 . S
C1022 C1021 1.415 . S
C1023 H999 0.951 . S
C1023 C1024 1.366 . S
C1023 C1025 1.388 . S
C1024 C1023 1.366 . S
C1024 C1028 1.385 . S
C1025 H1000 0.951 . S
C1025 C1023 1.388 . S
C1025 C1026 1.366 . S
C1026 C1025 1.366 . S
C1026 C1027 1.414 . S
C1026 C1029 1.499 . S
C1027 H1001 0.950 . S
C1027 C1026 1.414 . S
C1027 C1028 1.374 . S
C1028 H1002 0.950 . S
C1028 C1024 1.385 . S
C1028 C1027 1.374 . S
C1029 C1026 1.499 . S
C1029 C1030 1.373 . S
C1029 C1031 1.389 . S
C1030 H1003 0.950 . S
C1030 C1016 1.377 . S
C1030 C1029 1.373 . S
C1031 C1015 1.377 . S
C1031 C1029 1.389 . S
C1031 C1032 1.524 . S
C1032 C1031 1.524 . S
C1032 C1033 1.397 . S
C1032 C1037 1.363 . S
C1033 H1004 0.950 . S
C1033 C1032 1.397 . S
C1033 C1034 1.334 . S
C1034 H1005 0.950 . S
C1034 C1033 1.334 . S
C1034 C1035 1.287 . S
C1035 C1034 1.287 . S
C1035 C1036 1.524 . S
C1035 H1038 0.999 . S
C1036 H1006 0.950 . S
C1036 C1035 1.524 . S
C1036 C1037 1.415 . S
C1037 H1007 0.950 . S
C1037 C1032 1.363 . S
C1037 C1036 1.415 . S
H1038 C1035 0.999 . S
H1039 C1020 0.913 . S
H1040 C1058 0.951 . S
H1041 C1060 0.951 . S
H1042 C1062 0.950 . S
H1043 C1063 0.950 . S
H1044 C1065 0.950 . S
H1045 C1068 0.950 . S
H1046 C1069 0.950 . S
H1047 C1071 0.950 . S
H1048 C1072 0.950 . S
H1049 C1073 0.951 . S
H1050 C1075 0.951 . S
H1051 C1077 0.950 . S
H1052 C1078 0.950 . S
H1053 C1080 0.950 . S
H1054 C1083 0.950 . S
H1055 C1084 0.950 . S
H1056 C1086 0.950 . S
H1057 C1087 0.950 . S
C1058 H1040 0.951 . S
C1058 C1059 1.366 . S
C1058 C1060 1.388 . S
C1059 C1058 1.366 . S
C1059 C1063 1.385 . S
C1060 H1041 0.951 . S
C1060 C1058 1.388 . S
C1060 C1061 1.366 . S
C1061 C1060 1.366 . S
C1061 C1062 1.414 . S
C1061 C1064 1.499 . S
C1062 H1042 0.950 . S
C1062 C1061 1.414 . S
C1062 C1063 1.374 . S
C1063 H1043 0.950 . S
C1063 C1059 1.385 . S
C1063 C1062 1.374 . S
C1064 C1061 1.499 . S
C1064 C1065 1.373 . S
C1064 C1066 1.389 . S
C1065 H1044 0.950 . S
C1065 C1064 1.373 . S
C1065 C1081 1.377 . S
C1066 C1064 1.389 . S
C1066 C1067 1.524 . S
C1066 C1080 1.377 . S
C1067 C1066 1.524 . S
C1067 C1068 1.397 . S
C1067 C1072 1.363 . S
C1068 H1045 0.950 . S
C1068 C1067 1.397 . S
C1068 C1069 1.334 . S
C1069 H1046 0.950 . S
C1069 C1068 1.334 . S
C1069 C1070 1.287 . S
C1070 C1069 1.287 . S
C1070 C1071 1.524 . S
C1070 H1089 0.913 . S
C1071 H1047 0.950 . S
C1071 C1070 1.524 . S
C1071 C1072 1.415 . S
C1072 H1048 0.950 . S
C1072 C1067 1.363 . S
C1072 C1071 1.415 . S
C1073 H1049 0.951 . S
C1073 C1074 1.366 . S
C1073 C1075 1.388 . S
C1074 C1073 1.366 . S
C1074 C1078 1.385 . S
C1075 H1050 0.951 . S
C1075 C1073 1.388 . S
C1075 C1076 1.366 . S
C1076 C1075 1.366 . S
C1076 C1077 1.414 . S
C1076 C1079 1.499 . S
C1077 H1051 0.950 . S
C1077 C1076 1.414 . S
C1077 C1078 1.374 . S
C1078 H1052 0.950 . S
C1078 C1074 1.385 . S
C1078 C1077 1.374 . S
C1079 C1076 1.499 . S
C1079 C1080 1.373 . S
C1079 C1081 1.389 . S
C1080 H1053 0.950 . S
C1080 C1066 1.377 . S
C1080 C1079 1.373 . S
C1081 C1065 1.377 . S
C1081 C1079 1.389 . S
C1081 C1082 1.524 . S
C1082 C1081 1.524 . S
C1082 C1083 1.397 . S
C1082 C1087 1.363 . S
C1083 H1054 0.950 . S
C1083 C1082 1.397 . S
C1083 C1084 1.334 . S
C1084 H1055 0.950 . S
C1084 C1083 1.334 . S
C1084 C1085 1.287 . S
C1085 C1084 1.287 . S
C1085 C1086 1.524 . S
C1085 H1088 0.999 . S
C1086 H1056 0.950 . S
C1086 C1085 1.524 . S
C1086 C1087 1.415 . S
C1087 H1057 0.950 . S
C1087 C1082 1.363 . S
C1087 C1086 1.415 . S
H1088 C1085 0.999 . S
H1089 C1070 0.913 . S
H1090 C1108 0.951 . S
H1091 C1110 0.951 . S
H1092 C1112 0.950 . S
H1093 C1113 0.950 . S
H1094 C1115 0.950 . S
H1095 C1118 0.950 . S
H1096 C1119 0.950 . S
H1097 C1121 0.950 . S
H1098 C1122 0.950 . S
H1099 C1123 0.951 . S
H1100 C1125 0.951 . S
H1101 C1127 0.950 . S
H1102 C1128 0.950 . S
H1103 C1130 0.950 . S
H1104 C1133 0.950 . S
H1105 C1134 0.950 . S
H1106 C1136 0.950 . S
H1107 C1137 0.950 . S
C1108 H1090 0.951 . S
C1108 C1109 1.366 . S
C1108 C1110 1.388 . S
C1109 C1108 1.366 . S
C1109 C1113 1.385 . S
C1110 H1091 0.951 . S
C1110 C1108 1.388 . S
C1110 C1111 1.366 . S
C1111 C1110 1.366 . S
C1111 C1112 1.414 . S
C1111 C1114 1.499 . S
C1112 H1092 0.950 . S
C1112 C1111 1.414 . S
C1112 C1113 1.374 . S
C1113 H1093 0.950 . S
C1113 C1109 1.385 . S
C1113 C1112 1.374 . S
C1114 C1111 1.499 . S
C1114 C1115 1.373 . S
C1114 C1116 1.389 . S
C1115 H1094 0.950 . S
C1115 C1114 1.373 . S
C1115 C1131 1.377 . S
C1116 C1114 1.389 . S
C1116 C1117 1.524 . S
C1116 C1130 1.377 . S
C1117 C1116 1.524 . S
C1117 C1118 1.397 . S
C1117 C1122 1.363 . S
C1118 H1095 0.950 . S
C1118 C1117 1.397 . S
C1118 C1119 1.334 1_556 S
C1119 H1096 0.950 . S
C1119 C1118 1.334 1_554 S
C1119 C1120 1.287 . S
C1120 C1119 1.287 . S
C1120 C1121 1.524 1_554 S
C1120 H1139 0.913 . S
C1121 H1097 0.950 . S
C1121 C1120 1.524 1_556 S
C1121 C1122 1.415 . S
C1122 H1098 0.950 . S
C1122 C1117 1.363 . S
C1122 C1121 1.415 . S
C1123 H1099 0.951 . S
C1123 C1124 1.366 . S
C1123 C1125 1.388 . S
C1124 C1123 1.366 . S
C1124 C1128 1.385 . S
C1125 H1100 0.951 . S
C1125 C1123 1.388 . S
C1125 C1126 1.366 . S
C1126 C1125 1.366 . S
C1126 C1127 1.414 . S
C1126 C1129 1.499 . S
C1127 H1101 0.950 . S
C1127 C1126 1.414 . S
C1127 C1128 1.374 . S
C1128 H1102 0.950 . S
C1128 C1124 1.385 . S
C1128 C1127 1.374 . S
C1129 C1126 1.499 . S
C1129 C1130 1.373 . S
C1129 C1131 1.389 . S
C1130 H1103 0.950 . S
C1130 C1116 1.377 . S
C1130 C1129 1.373 . S
C1131 C1115 1.377 . S
C1131 C1129 1.389 . S
C1131 C1132 1.524 . S
C1132 C1131 1.524 . S
C1132 C1133 1.397 . S
C1132 C1137 1.363 . S
C1133 H1104 0.950 . S
C1133 C1132 1.397 . S
C1133 C1134 1.334 . S
C1134 H1105 0.950 . S
C1134 C1133 1.334 . S
C1134 C1135 1.287 . S
C1135 C1134 1.287 . S
C1135 C1136 1.524 . S
C1135 H1138 0.999 . S
C1136 H1106 0.950 . S
C1136 C1135 1.524 . S
C1136 C1137 1.415 . S
C1137 H1107 0.950 . S
C1137 C1132 1.363 . S
C1137 C1136 1.415 . S
H1138 C1135 0.999 . S
H1139 C1120 0.913 . S
C259 C223 1.321 . S
C274 C31 1.342 . S
C309 C23 1.321 . S
C324 C71 1.343 . S
C359 C63 1.321 . S
C374 C111 1.342 . S
C409 C103 1.321 . S
C424 C151 1.342 . S
C459 C191 1.343 . S
C474 C143 1.322 . S
C509 C231 1.342 . S
C524 C183 1.321 . S
C559 C25 1.186 . S
C574 C4 1.186 . S
C609 C65 1.185 . S
C624 C44 1.185 . S
C659 C105 1.187 . S
C674 C84 1.187 . S
C709 C145 1.186 . S
C724 C124 1.186 . S
C759 C164 1.185 . S
C774 C185 1.185 . S
C809 C225 1.186 . S
C824 C204 1.186 . S
C859 C20 1.565 . S
C874 C162 1.574 . S
C909 C60 1.564 . S
C924 C202 1.574 . S
C959 C2 1.574 . S
C974 C100 1.564 . S
C1009 C42 1.574 . S
C1024 C140 1.564 . S
C1059 C180 1.565 . S
C1074 C82 1.574 . S
C1109 C122 1.574 . S
C1124 C220 1.565 . S
