# Generated by pormake.
# Topology fob, (5)-cn, num edge types: 1
# Building blocks:
#     Node 0, Type 0, BuildingBlock: BEQFEK_clean_sbu_0, # of connection points: 5
#     Node 1, Type 0, BuildingBlock: BEQFEK_clean_sbu_0, # of connection points: 5
#     Node 2, Type 0, BuildingBlock: BEQFEK_clean_sbu_0, # of connection points: 5
#     Node 3, Type 0, BuildingBlock: BEQFEK_clean_sbu_0, # of connection points: 5
#     Node 4, Type 0, BuildingBlock: BEQFEK_clean_sbu_0, # of connection points: 5
#     Node 5, Type 0, BuildingBlock: BEQFEK_clean_sbu_0, # of connection points: 5
#     Node 6, Type 0, BuildingBlock: BEQFEK_clean_sbu_0, # of connection points: 5
#     Node 7, Type 0, BuildingBlock: BEQFEK_clean_sbu_0, # of connection points: 5
#     Node 8, Type 0, BuildingBlock: BEQFEK_clean_sbu_0, # of connection points: 5
#     Node 9, Type 0, BuildingBlock: BEQFEK_clean_sbu_0, # of connection points: 5
#     Node 10, Type 0, BuildingBlock: BEQFEK_clean_sbu_0, # of connection points: 5
#     Node 11, Type 0, BuildingBlock: BEQFEK_clean_sbu_0, # of connection points: 5
#     Node 12, Type 0, BuildingBlock: BEQFEK_clean_sbu_0, # of connection points: 5
#     Node 13, Type 0, BuildingBlock: BEQFEK_clean_sbu_0, # of connection points: 5
#     Node 14, Type 0, BuildingBlock: BEQFEK_clean_sbu_0, # of connection points: 5
#     Node 15, Type 0, BuildingBlock: BEQFEK_clean_sbu_0, # of connection points: 5
#     Edge 16, Type (0, 0), None
#     Edge 17, Type (0, 0), None
#     Edge 18, Type (0, 0), None
#     Edge 19, Type (0, 0), None
#     Edge 20, Type (0, 0), None
#     Edge 21, Type (0, 0), None
#     Edge 22, Type (0, 0), None
#     Edge 23, Type (0, 0), None
#     Edge 24, Type (0, 0), None
#     Edge 25, Type (0, 0), None
#     Edge 26, Type (0, 0), None
#     Edge 27, Type (0, 0), None
#     Edge 28, Type (0, 0), None
#     Edge 29, Type (0, 0), None
#     Edge 30, Type (0, 0), None
#     Edge 31, Type (0, 0), None
#     Edge 32, Type (0, 0), None
#     Edge 33, Type (0, 0), None
#     Edge 34, Type (0, 0), None
#     Edge 35, Type (0, 0), None
#     Edge 36, Type (0, 0), None
#     Edge 37, Type (0, 0), None
#     Edge 38, Type (0, 0), None
#     Edge 39, Type (0, 0), None
#     Edge 40, Type (0, 0), None
#     Edge 41, Type (0, 0), None
#     Edge 42, Type (0, 0), None
#     Edge 43, Type (0, 0), None
#     Edge 44, Type (0, 0), None
#     Edge 45, Type (0, 0), None
#     Edge 46, Type (0, 0), None
#     Edge 47, Type (0, 0), None
#     Edge 48, Type (0, 0), None
#     Edge 49, Type (0, 0), None
#     Edge 50, Type (0, 0), None
#     Edge 51, Type (0, 0), None
#     Edge 52, Type (0, 0), None
#     Edge 53, Type (0, 0), None
#     Edge 54, Type (0, 0), None
#     Edge 55, Type (0, 0), None
# Relax obj value: 0.065
# Max RMSD: 0.157
# Mean RMSD: 0.157
data_MOF--net-fob--node1-BEQFEK_clean_sbu_0--edge1-none
_symmetry_space_group_name_H-M    P1
_symmetry_Int_Tables_number       1
_symmetry_cell_setting            triclinic
loop_
_symmetry_equiv_pos_as_xyz
'x, y, z'
_cell_length_a     10.256345
_cell_length_b     43.834284
_cell_length_c     25.859079
_cell_angle_alpha  89.999155
_cell_angle_beta   84.706813
_cell_angle_gamma 90.000723
loop_
_atom_site_label
_atom_site_type_symbol
_atom_site_fract_x
_atom_site_fract_y
_atom_site_fract_z
_atom_type_partial_charge
Co0 Co 0.02123 0.07711 0.46288 0.0
Co1 Co 0.06807 0.14911 0.45972 0.0
C2 C 0.25556 0.10443 0.40252 0.0
O3 O 0.19868 0.07982 0.41969 0.0
O4 O 0.21211 0.13089 0.41577 0.0
C5 C -0.01514 0.0128 0.50129 0.0
O6 O 0.10636 0.01265 0.51349 0.0
C7 C 0.19047 0.21008 0.4768 0.0
C8 C 0.01555 0.23459 0.5115 0.0
C9 C 0.14976 0.23724 0.50129 0.0
N10 N 0.08517 0.19188 0.47453 0.0
N11 N -0.01905 0.20704 0.49442 0.0
C12 C 0.32795 0.2009 0.45902 0.0
H13 H 0.33123 0.1777 0.44212 0.0
H14 H 0.38912 0.20153 0.49223 0.0
H15 H 0.37017 0.21736 0.42945 0.0
C16 C 0.01168 0.09025 0.57625 0.0
N17 N 0.02013 0.09938 0.52619 0.0
N18 N 0.05727 0.12806 0.52383 0.0
C19 C 0.08684 0.13702 0.57122 0.0
C20 C 0.05702 0.11355 0.60617 0.0
C21 C -0.05391 0.06154 0.59604 0.0
H22 H 0.86518 0.05562 0.57225 0.0
H23 H 0.01805 0.0427 0.59389 0.0
H24 H 0.90567 0.06417 0.63712 0.0
O25 O 0.901 0.0948 0.41793 0.0
O26 O 0.91213 0.14527 0.41928 0.0
H27 H 0.09792 0.18533 0.58191 0.0
H28 H 0.20861 0.16387 0.61827 0.0
C29 C 0.16324 0.16517 0.58104 0.0
H30 H 0.24266 0.16796 0.54948 0.0
H31 H 0.88656 0.19794 0.49872 0.0
O32 O -0.05856 0.0358 0.4784 0.0
C33 C 0.86443 0.1207 0.403 0.0
Co34 Co 0.10917 0.07711 0.80568 0.0
Co35 Co 0.06234 0.14911 0.80884 0.0
C36 C 0.87485 0.10443 0.86606 0.0
O37 O 0.93173 0.07982 0.84888 0.0
O38 O 0.91831 0.13089 0.8528 0.0
C39 C 0.14556 0.0128 0.76728 0.0
O40 O 0.02406 0.01264 0.75508 0.0
C41 C 0.93994 0.21008 0.79177 0.0
C42 C 0.11485 0.23459 0.75705 0.0
C43 C -0.01936 0.23724 0.76727 0.0
N44 N 0.04524 0.19188 0.79404 0.0
N45 N 0.14946 0.20704 0.77414 0.0
C46 C 0.80247 0.2009 0.80956 0.0
H47 H 0.79919 0.1777 0.82647 0.0
H48 H 0.74127 0.20153 0.77635 0.0
H49 H 0.76026 0.21737 0.83913 0.0
C50 C 0.11866 0.09025 0.69232 0.0
N51 N 0.11024 0.09938 0.74237 0.0
N52 N 0.07311 0.12806 0.74474 0.0
C53 C 0.04351 0.13701 0.69735 0.0
C54 C 0.07329 0.11355 0.6624 0.0
C55 C 0.18424 0.06154 0.67252 0.0
H56 H 0.26516 0.05562 0.69631 0.0
H57 H 0.11228 0.0427 0.67468 0.0
H58 H 0.22464 0.06417 0.63144 0.0
O59 O 0.22941 0.0948 0.85063 0.0
O60 O 0.21829 0.14527 0.84927 0.0
H61 H 0.03244 0.18533 0.68666 0.0
H62 H 0.92173 0.16387 0.65031 0.0
C63 C -0.03288 0.16517 0.68753 0.0
H64 H 0.8877 0.16796 0.7191 0.0
H65 H 0.24384 0.19793 0.76983 0.0
O66 O 0.18898 0.0358 0.79016 0.0
C67 C 0.26599 0.1207 0.86555 0.0
Co68 Co 0.8592 0.92309 0.55568 0.0
Co69 Co 0.81235 0.85109 0.55884 0.0
C70 C 0.62486 0.89576 0.61605 0.0
O71 O 0.68174 0.92038 0.59887 0.0
O72 O 0.66831 0.86931 0.6028 0.0
C73 C 0.89556 0.9874 0.51728 0.0
O74 O 0.77407 0.98755 0.50507 0.0
C75 C 0.68996 0.79012 0.54176 0.0
C76 C 0.86487 0.76561 0.50706 0.0
C77 C 0.73066 0.76295 0.51727 0.0
N78 N 0.79525 0.80832 0.54404 0.0
N79 N 0.89948 0.79316 0.52415 0.0
C80 C 0.55248 0.7993 0.55955 0.0
H81 H 0.54919 0.8225 0.57645 0.0
H82 H 0.4913 0.79867 0.52633 0.0
H83 H 0.51026 0.78283 0.58911 0.0
C84 C 0.86874 0.90995 0.44232 0.0
N85 N 0.86029 0.90082 0.49237 0.0
N86 N 0.82315 0.87214 0.49474 0.0
C87 C 0.79358 0.86318 0.44734 0.0
C88 C 0.8234 0.88665 0.4124 0.0
C89 C 0.93432 0.93866 0.42252 0.0
H90 H 0.01524 0.94458 0.44632 0.0
H91 H 0.86236 0.9575 0.42468 0.0
H92 H -0.02526 0.93603 0.38145 0.0
O93 O -0.02058 0.9054 0.60064 0.0
O94 O -0.0317 0.85493 0.59928 0.0
H95 H 0.7825 0.81487 0.43666 0.0
H96 H 0.67181 0.83633 0.4003 0.0
C97 C 0.71718 0.83503 0.43753 0.0
H98 H 0.63776 0.83224 0.46909 0.0
H99 H -0.00614 0.80226 0.51984 0.0
O100 O 0.93899 0.9644 0.54017 0.0
C101 C 0.016 0.8795 0.61556 0.0
Co102 Co 0.77121 0.92309 0.21289 0.0
Co103 Co 0.81805 0.85109 0.20973 0.0
C104 C 0.00553 0.89576 0.15251 0.0
O105 O -0.05135 0.92038 0.16969 0.0
O106 O -0.03793 0.86931 0.16576 0.0
C107 C 0.73484 0.9874 0.25129 0.0
O108 O 0.85634 0.98756 0.26349 0.0
C109 C -0.05955 0.79012 0.2268 0.0
C110 C 0.76555 0.76561 0.26152 0.0
C111 C 0.89975 0.76296 0.2513 0.0
N112 N 0.83515 0.80832 0.22453 0.0
N113 N 0.73093 0.79316 0.24444 0.0
C114 C 0.07792 0.7993 0.209 0.0
H115 H 0.0812 0.8225 0.19209 0.0
H116 H 0.13912 0.79867 0.2422 0.0
H117 H 0.12011 0.78283 0.17943 0.0
C118 C 0.76174 0.90995 0.32625 0.0
N119 N 0.77015 0.90082 0.2762 0.0
N120 N 0.80729 0.87213 0.27383 0.0
C121 C 0.8369 0.86318 0.32122 0.0
C122 C 0.80712 0.88665 0.35616 0.0
C123 C 0.69617 0.93866 0.34605 0.0
H124 H 0.61524 0.94458 0.32226 0.0
H125 H 0.76813 0.9575 0.34389 0.0
H126 H 0.65577 0.93603 0.38713 0.0
O127 O 0.65097 0.90539 0.16794 0.0
O128 O 0.66209 0.85492 0.1693 0.0
H129 H 0.84797 0.81487 0.3319 0.0
H130 H -0.04131 0.83633 0.36825 0.0
C131 C 0.9133 0.83503 0.33103 0.0
H132 H -0.0073 0.83224 0.29946 0.0
H133 H 0.63655 0.80227 0.24875 0.0
O134 O 0.69141 0.96439 0.22841 0.0
C135 C 0.61438 0.8795 0.15302 0.0
Co136 Co 0.02122 0.57711 0.96288 0.0
Co137 Co 0.06806 0.64911 0.95972 0.0
C138 C 0.25555 0.60443 0.90251 0.0
O139 O 0.19867 0.57982 0.91969 0.0
O140 O 0.2121 0.63089 0.91576 0.0
C141 C -0.01516 0.5128 1.00129 0.0
O142 O 0.10634 0.51264 0.01349 0.0
C143 C 0.19045 0.71008 0.9768 0.0
C144 C 0.01553 0.73459 0.0115 0.0
C145 C 0.14974 0.73724 1.00129 0.0
N146 N 0.08516 0.69188 0.97452 0.0
N147 N -0.01907 0.70704 0.99442 0.0
C148 C 0.32793 0.7009 0.95901 0.0
H149 H 0.33122 0.6777 0.94211 0.0
H150 H 0.38911 0.70153 0.99222 0.0
H151 H 0.37015 0.71737 0.92945 0.0
C152 C 0.01168 0.59025 0.07625 0.0
N153 N 0.02013 0.59938 0.02619 0.0
N154 N 0.05727 0.62806 0.02382 0.0
C155 C 0.08685 0.63701 0.07122 0.0
C156 C 0.05703 0.61355 0.10616 0.0
C157 C -0.0539 0.56154 0.09604 0.0
H158 H 0.86519 0.55562 0.07225 0.0
H159 H 0.01807 0.5427 0.09389 0.0
H160 H 0.90569 0.56417 0.13712 0.0
O161 O 0.90099 0.5948 0.91792 0.0
O162 O 0.91211 0.64527 0.91928 0.0
H163 H 0.09792 0.68533 0.0819 0.0
H164 H 0.20861 0.66387 0.11826 0.0
C165 C 0.16324 0.66517 0.08103 0.0
H166 H 0.24266 0.66796 0.04947 0.0
H167 H 0.88655 0.69793 0.99872 0.0
O168 O -0.05858 0.5358 0.9784 0.0
C169 C 0.86441 0.6207 0.903 0.0
Co170 Co 0.10919 0.57711 0.30567 0.0
Co171 Co 0.06234 0.64911 0.30884 0.0
C172 C 0.87486 0.60443 0.36605 0.0
O173 O 0.93174 0.57982 0.34887 0.0
O174 O 0.91832 0.63089 0.3528 0.0
C175 C 0.14556 0.5128 0.26727 0.0
O176 O 0.02406 0.51264 0.25508 0.0
C177 C 0.93991 0.71007 0.29174 0.0
C178 C 0.11482 0.73459 0.25705 0.0
C179 C -0.0194 0.73723 0.26722 0.0
N180 N 0.04522 0.69188 0.29404 0.0
N181 N 0.14944 0.70705 0.27415 0.0
C182 C 0.80243 0.70089 0.30952 0.0
H183 H 0.79915 0.67768 0.32639 0.0
H184 H 0.74124 0.70154 0.27631 0.0
H185 H 0.76023 0.71734 0.33911 0.0
C186 C 0.11868 0.59025 0.19231 0.0
N187 N 0.11025 0.59938 0.24237 0.0
N188 N 0.07311 0.62807 0.24473 0.0
C189 C 0.04351 0.63702 0.19734 0.0
C190 C 0.0733 0.61355 0.1624 0.0
C191 C 0.18426 0.56154 0.17252 0.0
H192 H 0.26518 0.55562 0.19631 0.0
H193 H 0.1123 0.5427 0.17467 0.0
H194 H 0.22466 0.56417 0.13144 0.0
O195 O 0.22942 0.59481 0.35063 0.0
O196 O 0.2183 0.64528 0.34927 0.0
H197 H 0.03242 0.68533 0.18666 0.0
H198 H 0.92175 0.66387 0.15029 0.0
C199 C -0.03289 0.66517 0.18753 0.0
H200 H 0.88768 0.66795 0.21908 0.0
H201 H 0.24384 0.69795 0.26987 0.0
O202 O 0.18898 0.53581 0.29016 0.0
C203 C 0.266 0.6207 0.36555 0.0
Co204 Co 0.85917 0.42309 0.05568 0.0
Co205 Co 0.81232 0.35109 0.05884 0.0
C206 C 0.62483 0.39576 0.11605 0.0
O207 O 0.68172 0.42038 0.09887 0.0
O208 O 0.66829 0.36931 0.1028 0.0
C209 C 0.89554 0.4874 0.01728 0.0
O210 O 0.77404 0.48755 1.00507 0.0
C211 C 0.68993 0.29012 0.04177 0.0
C212 C 0.86485 0.26561 1.00706 0.0
C213 C 0.73064 0.26296 0.01727 0.0
N214 N 0.79523 0.30832 0.04404 0.0
N215 N 0.89945 0.29316 0.02414 0.0
C216 C 0.55245 0.2993 0.05955 0.0
H217 H 0.54917 0.3225 0.07646 0.0
H218 H 0.49127 0.29866 0.02634 0.0
H219 H 0.51024 0.28283 0.08912 0.0
C220 C 0.8687 0.40995 0.94232 0.0
N221 N 0.86025 0.40082 0.99237 0.0
N222 N 0.82311 0.37214 0.99474 0.0
C223 C 0.79354 0.36318 0.94735 0.0
C224 C 0.82336 0.38665 0.9124 0.0
C225 C 0.93429 0.43866 0.92252 0.0
H226 H 0.0152 0.44458 0.94632 0.0
H227 H 0.86233 0.4575 0.92467 0.0
H228 H -0.02529 0.43603 0.88145 0.0
O229 O -0.0206 0.4054 0.10064 0.0
O230 O -0.03173 0.35493 0.09928 0.0
H231 H 0.78246 0.31487 0.93666 0.0
H232 H 0.67177 0.33633 0.9003 0.0
C233 C 0.71714 0.33503 0.93753 0.0
H234 H 0.63772 0.33224 0.96909 0.0
H235 H -0.00616 0.30227 0.01984 0.0
O236 O 0.93896 0.4644 0.04017 0.0
C237 C 0.01597 0.3795 0.11556 0.0
Co238 Co 0.77123 0.42308 0.71289 0.0
Co239 Co 0.81807 0.35109 0.70972 0.0
C240 C 0.00556 0.39577 0.65251 0.0
O241 O -0.05132 0.42038 0.66969 0.0
O242 O -0.0379 0.36931 0.66576 0.0
C243 C 0.73484 0.4874 0.75129 0.0
O244 O 0.85634 0.48756 0.76349 0.0
C245 C -0.0595 0.29013 0.72682 0.0
C246 C 0.76558 0.26561 0.76151 0.0
C247 C 0.89981 0.26297 0.75134 0.0
N248 N 0.83519 0.30832 0.72452 0.0
N249 N 0.73096 0.29315 0.7444 0.0
C250 C 0.07798 0.29931 0.70905 0.0
H251 H 0.08127 0.32252 0.69218 0.0
H252 H 0.13917 0.29866 0.74226 0.0
H253 H 0.12019 0.28286 0.67946 0.0
C254 C 0.76172 0.40995 0.82625 0.0
N255 N 0.77016 0.40082 0.77619 0.0
N256 N 0.80729 0.37213 0.77383 0.0
C257 C 0.83688 0.36318 0.82122 0.0
C258 C 0.80709 0.38665 0.85616 0.0
C259 C 0.69614 0.43866 0.84604 0.0
H260 H 0.61522 0.44458 0.82225 0.0
H261 H 0.7681 0.4575 0.84389 0.0
H262 H 0.65573 0.43603 0.88712 0.0
O263 O 0.651 0.40539 0.66793 0.0
O264 O 0.66212 0.35492 0.66929 0.0
H265 H 0.84797 0.31487 0.8319 0.0
H266 H -0.04137 0.33633 0.86827 0.0
C267 C 0.91328 0.33503 0.83104 0.0
H268 H -0.00728 0.33225 0.79949 0.0
H269 H 0.63656 0.30225 0.74868 0.0
O270 O 0.69143 0.46439 0.7284 0.0
C271 C 0.61442 0.3795 0.65301 0.0
Co272 Co 0.52123 0.07711 0.96288 0.0
Co273 Co 0.56809 0.14911 0.95972 0.0
C274 C 0.75558 0.10443 0.90252 0.0
O275 O 0.69869 0.07982 0.91969 0.0
O276 O 0.71212 0.13089 0.91577 0.0
C277 C 0.48485 0.0128 1.00129 0.0
O278 O 0.60634 0.01264 0.0135 0.0
C279 C 0.69051 0.21007 0.97683 0.0
C280 C 0.51558 0.23459 0.0115 0.0
C281 C 0.64981 0.23723 1.00134 0.0
N282 N 0.5852 0.19188 0.97452 0.0
N283 N 0.48097 0.20705 0.99439 0.0
C284 C 0.82799 0.20088 0.95907 0.0
H285 H 0.83128 0.17767 0.9422 0.0
H286 H 0.88916 0.20154 0.99228 0.0
H287 H 0.87022 0.21734 0.92948 0.0
C288 C 0.51167 0.09025 0.07625 0.0
N289 N 0.52014 0.09938 0.02619 0.0
N290 N 0.55728 0.12806 0.02383 0.0
C291 C 0.58684 0.13701 0.07122 0.0
C292 C 0.557 0.11355 0.10617 0.0
C293 C 0.44608 0.06154 0.09604 0.0
H294 H 0.36517 0.05562 0.07224 0.0
H295 H 0.51803 0.0427 0.09389 0.0
H296 H 0.40565 0.06417 0.13712 0.0
O297 O 0.40101 0.0948 0.91793 0.0
O298 O 0.41214 0.14527 0.91928 0.0
H299 H 0.59793 0.18533 0.0819 0.0
H300 H 0.70858 0.16387 0.11828 0.0
C301 C 0.66323 0.16517 0.08105 0.0
H302 H 0.74268 0.16795 0.0495 0.0
H303 H 0.38657 0.19795 0.99867 0.0
O304 O 0.44144 0.0358 0.9784 0.0
C305 C 0.36444 0.1207 0.903 0.0
Co306 Co 0.60916 0.07711 0.30568 0.0
Co307 Co 0.56232 0.14911 0.30884 0.0
C308 C 0.37484 0.10443 0.36606 0.0
O309 O 0.43172 0.07982 0.34888 0.0
O310 O 0.4183 0.13089 0.3528 0.0
C311 C 0.64553 0.0128 0.26728 0.0
O312 O 0.52403 0.01264 0.25508 0.0
C313 C 0.43993 0.21008 0.29177 0.0
C314 C 0.61484 0.23459 0.25705 0.0
C315 C 0.48063 0.23724 0.26727 0.0
N316 N 0.54523 0.19188 0.29404 0.0
N317 N 0.64945 0.20704 0.27414 0.0
C318 C 0.30245 0.2009 0.30956 0.0
H319 H 0.29917 0.1777 0.32647 0.0
H320 H 0.24127 0.20153 0.27635 0.0
H321 H 0.26025 0.21737 0.33913 0.0
C322 C 0.61864 0.09025 0.19232 0.0
N323 N 0.61022 0.09938 0.24237 0.0
N324 N 0.57309 0.12806 0.24474 0.0
C325 C 0.54348 0.13701 0.19735 0.0
C326 C 0.57326 0.11355 0.16241 0.0
C327 C 0.68422 0.06154 0.17252 0.0
H328 H 0.76514 0.05562 0.19631 0.0
H329 H 0.61226 0.0427 0.17468 0.0
H330 H 0.72463 0.06417 0.13144 0.0
O331 O 0.7294 0.0948 0.35063 0.0
O332 O 0.71828 0.14527 0.34927 0.0
H333 H 0.53241 0.18533 0.18667 0.0
H334 H 0.42171 0.16387 0.15031 0.0
C335 C 0.46709 0.16517 0.18754 0.0
H336 H 0.38768 0.16795 0.2191 0.0
H337 H 0.74383 0.19793 0.26983 0.0
O338 O 0.68895 0.0358 0.29017 0.0
C339 C 0.76598 0.1207 0.36555 0.0
Co340 Co 0.35915 0.92309 0.05568 0.0
Co341 Co 0.3123 0.85109 0.05885 0.0
C342 C 0.1248 0.89576 0.11605 0.0
O343 O 0.18169 0.92038 0.09888 0.0
O344 O 0.16826 0.86931 0.1028 0.0
C345 C 0.39554 0.9874 0.01728 0.0
O346 O 0.27405 0.98755 1.00507 0.0
C347 C 0.18987 0.79013 0.04173 0.0
C348 C 0.3648 0.76561 1.00707 0.0
C349 C 0.23057 0.76297 0.01723 0.0
N350 N 0.29518 0.80832 0.04405 0.0
N351 N 0.39942 0.79315 0.02418 0.0
C352 C 0.05238 0.79932 0.05949 0.0
H353 H 0.04909 0.82253 0.07635 0.0
H354 H -0.00878 0.79866 0.02627 0.0
H355 H 0.01015 0.78287 0.08908 0.0
C356 C 0.36873 0.90995 0.94232 0.0
N357 N 0.36025 0.90082 0.99238 0.0
N358 N 0.32311 0.87214 0.99474 0.0
C359 C 0.29356 0.86318 0.94734 0.0
C360 C 0.3234 0.88665 0.9124 0.0
C361 C 0.43433 0.93866 0.92253 0.0
H362 H 0.51523 0.94458 0.94633 0.0
H363 H 0.36237 0.9575 0.92468 0.0
H364 H 0.47476 0.93603 0.88146 0.0
O365 O 0.47937 0.90539 0.10064 0.0
O366 O 0.46824 0.85492 0.09929 0.0
H367 H 0.28248 0.81487 0.93666 0.0
H368 H 0.17184 0.83633 0.90028 0.0
C369 C 0.21717 0.83503 0.93752 0.0
H370 H 0.13772 0.83225 0.96906 0.0
H371 H 0.49382 0.80225 0.01991 0.0
O372 O 0.43895 0.9644 0.04017 0.0
C373 C 0.51594 0.8795 0.11557 0.0
Co374 Co 0.27126 0.92309 0.71289 0.0
Co375 Co 0.3181 0.85109 0.70972 0.0
C376 C 0.50558 0.89576 0.65251 0.0
O377 O 0.44871 0.92038 0.66968 0.0
O378 O 0.46213 0.86931 0.66576 0.0
C379 C 0.23488 0.9874 0.75129 0.0
O380 O 0.35638 0.98756 0.76349 0.0
C381 C 0.44048 0.79012 0.7268 0.0
C382 C 0.26557 0.76561 0.76151 0.0
C383 C 0.39977 0.76296 0.75129 0.0
N384 N 0.33519 0.80832 0.72453 0.0
N385 N 0.23096 0.79316 0.74443 0.0
C386 C 0.57796 0.7993 0.70901 0.0
H387 H 0.58125 0.8225 0.6921 0.0
H388 H 0.63915 0.79866 0.74222 0.0
H389 H 0.62017 0.78283 0.67944 0.0
C390 C 0.26177 0.90995 0.82625 0.0
N391 N 0.2702 0.90082 0.77619 0.0
N392 N 0.30733 0.87214 0.77383 0.0
C393 C 0.33694 0.86319 0.82122 0.0
C394 C 0.30715 0.88665 0.85616 0.0
C395 C 0.19619 0.93866 0.84604 0.0
H396 H 0.11527 0.94458 0.82225 0.0
H397 H 0.26815 0.9575 0.84389 0.0
H398 H 0.15578 0.93603 0.88712 0.0
O399 O 0.15102 0.9054 0.66793 0.0
O400 O 0.16214 0.85493 0.66929 0.0
H401 H 0.348 0.81487 0.8319 0.0
H402 H 0.4587 0.83633 0.86826 0.0
C403 C 0.41332 0.83503 0.83103 0.0
H404 H 0.49274 0.83224 0.79947 0.0
H405 H 0.13658 0.80227 0.74873 0.0
O406 O 0.19146 0.9644 0.7284 0.0
C407 C 0.11444 0.8795 0.65301 0.0
Co408 Co 0.52124 0.57711 0.46288 0.0
Co409 Co 0.5681 0.64911 0.45972 0.0
C410 C 0.75559 0.60443 0.40251 0.0
O411 O 0.6987 0.57982 0.41968 0.0
O412 O 0.71213 0.63089 0.41576 0.0
C413 C 0.48486 0.5128 0.50128 0.0
O414 O 0.60635 0.51265 0.51349 0.0
C415 C 0.69053 0.71007 0.47683 0.0
C416 C 0.5156 0.73459 0.5115 0.0
C417 C 0.64983 0.73723 0.50134 0.0
N418 N 0.58522 0.69188 0.47452 0.0
N419 N 0.48099 0.70705 0.4944 0.0
C420 C 0.82801 0.70088 0.45906 0.0
H421 H 0.8313 0.67768 0.44219 0.0
H422 H 0.88918 0.70154 0.49227 0.0
H423 H 0.87023 0.71734 0.42947 0.0
C424 C 0.51169 0.59025 0.57624 0.0
N425 N 0.52015 0.59938 0.52619 0.0
N426 N 0.5573 0.62806 0.52382 0.0
C427 C 0.58686 0.63701 0.57122 0.0
C428 C 0.55703 0.61355 0.60616 0.0
C429 C 0.44609 0.56154 0.59603 0.0
H430 H 0.36518 0.55562 0.57223 0.0
H431 H 0.51804 0.5427 0.59389 0.0
H432 H 0.40565 0.56417 0.63711 0.0
O433 O 0.40102 0.59481 0.41792 0.0
O434 O 0.41215 0.64528 0.41928 0.0
H435 H 0.59796 0.68533 0.5819 0.0
H436 H 0.70861 0.66386 0.61828 0.0
C437 C 0.66326 0.66517 0.58104 0.0
H438 H 0.74271 0.66795 0.54949 0.0
H439 H 0.38659 0.69795 0.49867 0.0
O440 O 0.44145 0.5358 0.47839 0.0
C441 C 0.36445 0.6207 0.403 0.0
Co442 Co 0.60915 0.57711 0.80568 0.0
Co443 Co 0.56231 0.6491 0.80884 0.0
C444 C 0.37483 0.60443 0.86605 0.0
O445 O 0.4317 0.57982 0.84888 0.0
O446 O 0.41828 0.63089 0.8528 0.0
C447 C 0.64553 0.5128 0.76728 0.0
O448 O 0.52403 0.51264 0.75508 0.0
C449 C 0.4399 0.71007 0.79174 0.0
C450 C 0.61483 0.73459 0.75706 0.0
C451 C 0.4806 0.73723 0.76722 0.0
N452 N 0.54521 0.69188 0.79404 0.0
N453 N 0.64944 0.70705 0.77416 0.0
C454 C 0.30242 0.70088 0.80951 0.0
H455 H 0.29913 0.67768 0.82638 0.0
H456 H 0.24124 0.70154 0.7763 0.0
H457 H 0.26021 0.71734 0.8391 0.0
C458 C 0.61865 0.59025 0.69231 0.0
N459 N 0.61022 0.59937 0.74237 0.0
N460 N 0.57309 0.62806 0.74474 0.0
C461 C 0.54349 0.63701 0.69734 0.0
C462 C 0.57328 0.61355 0.6624 0.0
C463 C 0.68423 0.56153 0.67252 0.0
H464 H 0.76515 0.55562 0.69631 0.0
H465 H 0.61226 0.5427 0.67467 0.0
H466 H 0.72464 0.56416 0.63144 0.0
O467 O 0.72939 0.5948 0.85063 0.0
O468 O 0.71827 0.64527 0.84927 0.0
H469 H 0.53242 0.68533 0.68667 0.0
H470 H 0.42176 0.66387 0.65029 0.0
C471 C 0.46711 0.66517 0.68752 0.0
H472 H 0.38766 0.66795 0.71908 0.0
H473 H 0.74384 0.69794 0.76988 0.0
O474 O 0.68895 0.5358 0.79016 0.0
C475 C 0.76597 0.6207 0.86555 0.0
Co476 Co 0.35917 0.42309 0.55568 0.0
Co477 Co 0.31232 0.35109 0.55884 0.0
C478 C 0.12484 0.39577 0.61605 0.0
O479 O 0.18172 0.42038 0.59888 0.0
O480 O 0.16829 0.36931 0.6028 0.0
C481 C 0.39555 0.4874 0.51727 0.0
O482 O 0.27406 0.48756 0.50507 0.0
C483 C 0.1899 0.29013 0.54174 0.0
C484 C 0.36482 0.26561 0.50706 0.0
C485 C 0.2306 0.26297 0.51722 0.0
N486 N 0.29521 0.30832 0.54404 0.0
N487 N 0.39944 0.29315 0.52416 0.0
C488 C 0.05241 0.29931 0.55951 0.0
H489 H 0.04913 0.32252 0.57638 0.0
H490 H -0.00876 0.29866 0.5263 0.0
H491 H 0.01021 0.28286 0.5891 0.0
C492 C 0.36872 0.40995 0.44232 0.0
N493 N 0.36026 0.40082 0.49237 0.0
N494 N 0.32311 0.37214 0.49474 0.0
C495 C 0.29354 0.36319 0.44734 0.0
C496 C 0.32337 0.38665 0.4124 0.0
C497 C 0.43431 0.43866 0.42252 0.0
H498 H 0.51522 0.44458 0.44632 0.0
H499 H 0.36236 0.4575 0.42467 0.0
H500 H 0.47474 0.43603 0.38145 0.0
O501 O 0.4794 0.40539 0.60064 0.0
O502 O 0.46827 0.35493 0.59928 0.0
H503 H 0.28244 0.31487 0.43666 0.0
H504 H 0.17179 0.33634 0.40029 0.0
C505 C 0.21714 0.33503 0.43752 0.0
H506 H 0.13769 0.33225 0.46908 0.0
H507 H 0.49383 0.30225 0.51989 0.0
O508 O 0.43897 0.4644 0.54017 0.0
C509 C 0.51598 0.3795 0.61556 0.0
Co510 Co 0.27124 0.42309 0.21288 0.0
Co511 Co 0.31807 0.35109 0.20972 0.0
C512 C 0.50556 0.39577 0.15251 0.0
O513 O 0.44868 0.42038 0.16968 0.0
O514 O 0.4621 0.36931 0.16576 0.0
C515 C 0.23487 0.4874 0.25128 0.0
O516 O 0.35637 0.48756 0.26348 0.0
C517 C 0.44049 0.29013 0.22683 0.0
C518 C 0.26557 0.26561 0.26151 0.0
C519 C 0.3998 0.26297 0.25134 0.0
N520 N 0.33519 0.30832 0.22452 0.0
N521 N 0.23096 0.29315 0.24441 0.0
C522 C 0.57798 0.29931 0.20906 0.0
H523 H 0.58126 0.32252 0.19218 0.0
H524 H 0.63916 0.29866 0.24226 0.0
H525 H 0.62018 0.28286 0.17946 0.0
C526 C 0.26174 0.40995 0.32625 0.0
N527 N 0.27017 0.40082 0.27619 0.0
N528 N 0.3073 0.37214 0.27383 0.0
C529 C 0.3369 0.36319 0.32122 0.0
C530 C 0.30711 0.38665 0.35616 0.0
C531 C 0.19617 0.43866 0.34604 0.0
H532 H 0.11525 0.44458 0.32225 0.0
H533 H 0.26813 0.4575 0.34388 0.0
H534 H 0.15576 0.43604 0.38712 0.0
O535 O 0.151 0.4054 0.16793 0.0
O536 O 0.16212 0.35493 0.16929 0.0
H537 H 0.34797 0.31487 0.3319 0.0
H538 H 0.45864 0.33633 0.36827 0.0
C539 C 0.41329 0.33503 0.33104 0.0
H540 H 0.49273 0.33225 0.29948 0.0
H541 H 0.13656 0.30225 0.24868 0.0
O542 O 0.19144 0.4644 0.2284 0.0
C543 C 0.11441 0.3795 0.15301 0.0
loop_
_geom_bond_atom_site_label_1
_geom_bond_atom_site_label_2
_geom_bond_distance
_geom_bond_site_symmetry_2
_ccdc_geom_bond_type
Co0 O3 1.970 . S
Co0 N17 1.989 . S
Co0 O25 1.967 1_455 S
Co0 O32 1.920 . S
Co1 O4 1.966 . S
Co1 N10 2.022 . S
Co1 N18 1.993 . S
Co1 O26 1.941 1_455 S
C2 O3 1.258 . S
C2 O4 1.263 . S
O3 Co0 1.970 . S
O3 C2 1.258 . S
O4 Co1 1.966 . S
O4 C2 1.263 . S
C5 O6 1.235 . S
C5 O32 1.289 . S
O6 C5 1.235 . S
C7 C9 1.400 . S
C7 N10 1.351 . S
C7 C12 1.501 . S
C8 C9 1.387 . S
C8 N11 1.341 . S
C9 C7 1.400 . S
C9 C8 1.387 . S
N10 Co1 2.022 . S
N10 C7 1.351 . S
N10 N11 1.365 . S
N11 C8 1.341 . S
N11 N10 1.365 . S
N11 H31 0.862 1_455 S
C12 C7 1.501 . S
C12 H13 0.961 . S
C12 H14 0.961 . S
C12 H15 0.960 . S
H13 C12 0.961 . S
H14 C12 0.961 . S
H15 C12 0.960 . S
C16 N17 1.342 . S
C16 C20 1.401 . S
C16 C21 1.499 . S
N17 Co0 1.989 . S
N17 C16 1.342 . S
N17 N18 1.388 . S
N18 Co1 1.993 . S
N18 N17 1.388 . S
N18 C19 1.346 . S
C19 N18 1.346 . S
C19 C20 1.396 . S
C19 C29 1.510 . S
C20 C16 1.401 . S
C20 C19 1.396 . S
C21 C16 1.499 . S
C21 H22 0.959 . S
C21 H23 0.960 . S
C21 H24 0.961 1_455 S
H22 C21 0.959 . S
H23 C21 0.960 . S
H24 C21 0.961 1_655 S
O25 Co0 1.967 1_655 S
O25 C33 1.258 . S
O26 Co1 1.941 1_655 S
O26 C33 1.266 . S
H27 C29 0.959 . S
H28 C29 0.961 . S
C29 C19 1.510 . S
C29 H27 0.959 . S
C29 H28 0.961 . S
C29 H30 0.960 . S
H30 C29 0.960 . S
H31 N11 0.862 1_655 S
O32 Co0 1.920 . S
O32 C5 1.289 . S
C33 O25 1.258 . S
C33 O26 1.266 . S
Co34 O37 1.970 1_455 S
Co34 N51 1.989 . S
Co34 O59 1.967 . S
Co34 O66 1.920 . S
Co35 O38 1.966 1_455 S
Co35 N44 2.022 . S
Co35 N52 1.993 . S
Co35 O60 1.941 . S
C36 O37 1.258 . S
C36 O38 1.263 . S
O37 Co34 1.970 1_655 S
O37 C36 1.258 . S
O38 Co35 1.966 1_655 S
O38 C36 1.263 . S
C39 O40 1.235 1_455 S
C39 O66 1.289 . S
O40 C39 1.235 1_655 S
C41 C43 1.400 . S
C41 N44 1.351 1_655 S
C41 C46 1.501 . S
C42 C43 1.387 1_455 S
C42 N45 1.341 . S
C43 C41 1.400 . S
C43 C42 1.387 1_655 S
N44 Co35 2.022 . S
N44 C41 1.351 1_455 S
N44 N45 1.365 . S
N45 C42 1.341 . S
N45 N44 1.365 . S
N45 H65 0.862 . S
C46 C41 1.501 . S
C46 H47 0.961 . S
C46 H48 0.961 . S
C46 H49 0.960 . S
H47 C46 0.961 . S
H48 C46 0.961 . S
H49 C46 0.960 . S
C50 N51 1.342 . S
C50 C54 1.401 . S
C50 C55 1.499 . S
N51 Co34 1.989 . S
N51 C50 1.342 . S
N51 N52 1.388 . S
N52 Co35 1.993 . S
N52 N51 1.388 . S
N52 C53 1.346 . S
C53 N52 1.346 . S
C53 C54 1.396 . S
C53 C63 1.510 . S
C54 C50 1.401 . S
C54 C53 1.396 . S
C55 C50 1.499 . S
C55 H56 0.959 . S
C55 H57 0.960 . S
C55 H58 0.961 . S
H56 C55 0.959 . S
H57 C55 0.960 . S
H58 C55 0.961 . S
O59 Co34 1.967 . S
O59 C67 1.258 . S
O60 Co35 1.941 . S
O60 C67 1.266 . S
H61 C63 0.959 . S
H62 C63 0.961 . S
C63 C53 1.510 . S
C63 H61 0.959 . S
C63 H62 0.961 . S
C63 H64 0.960 . S
H64 C63 0.960 . S
H65 N45 0.862 . S
O66 Co34 1.920 . S
O66 C39 1.289 . S
C67 O59 1.258 . S
C67 O60 1.266 . S
Co68 O71 1.970 . S
Co68 N85 1.989 . S
Co68 O93 1.967 1_655 S
Co68 O100 1.920 . S
Co69 O72 1.966 . S
Co69 N78 2.022 . S
Co69 N86 1.993 . S
Co69 O94 1.941 1_655 S
C70 O71 1.258 . S
C70 O72 1.263 . S
O71 Co68 1.970 . S
O71 C70 1.258 . S
O72 Co69 1.966 . S
O72 C70 1.263 . S
C73 O74 1.235 . S
C73 O100 1.289 . S
O74 C73 1.235 . S
C75 C77 1.400 . S
C75 N78 1.351 . S
C75 C80 1.501 . S
C76 C77 1.387 . S
C76 N79 1.341 . S
C77 C75 1.400 . S
C77 C76 1.387 . S
N78 Co69 2.022 . S
N78 C75 1.351 . S
N78 N79 1.365 . S
N79 C76 1.341 . S
N79 N78 1.365 . S
N79 H99 0.862 1_655 S
C80 C75 1.501 . S
C80 H81 0.961 . S
C80 H82 0.961 . S
C80 H83 0.960 . S
H81 C80 0.961 . S
H82 C80 0.961 . S
H83 C80 0.960 . S
C84 N85 1.342 . S
C84 C88 1.401 . S
C84 C89 1.499 . S
N85 Co68 1.989 . S
N85 C84 1.342 . S
N85 N86 1.388 . S
N86 Co69 1.993 . S
N86 N85 1.388 . S
N86 C87 1.346 . S
C87 N86 1.346 . S
C87 C88 1.396 . S
C87 C97 1.510 . S
C88 C84 1.401 . S
C88 C87 1.396 . S
C89 C84 1.499 . S
C89 H90 0.959 . S
C89 H91 0.960 . S
C89 H92 0.961 1_655 S
H90 C89 0.959 . S
H91 C89 0.960 . S
H92 C89 0.961 1_455 S
O93 Co68 1.967 1_455 S
O93 C101 1.258 . S
O94 Co69 1.941 1_455 S
O94 C101 1.266 . S
H95 C97 0.959 . S
H96 C97 0.961 . S
C97 C87 1.510 . S
C97 H95 0.959 . S
C97 H96 0.961 . S
C97 H98 0.960 . S
H98 C97 0.960 . S
H99 N79 0.862 1_455 S
O100 Co68 1.920 . S
O100 C73 1.289 . S
C101 O93 1.258 . S
C101 O94 1.266 . S
Co102 O105 1.970 1_655 S
Co102 N119 1.989 . S
Co102 O127 1.967 . S
Co102 O134 1.920 . S
Co103 O106 1.966 1_655 S
Co103 N112 2.022 . S
Co103 N120 1.993 . S
Co103 O128 1.941 . S
C104 O105 1.258 . S
C104 O106 1.263 . S
O105 Co102 1.970 1_455 S
O105 C104 1.258 . S
O106 Co103 1.966 1_455 S
O106 C104 1.263 . S
C107 O108 1.235 1_655 S
C107 O134 1.289 . S
O108 C107 1.235 1_455 S
C109 C111 1.400 . S
C109 N112 1.351 1_455 S
C109 C114 1.501 . S
C110 C111 1.387 1_655 S
C110 N113 1.341 . S
C111 C109 1.400 . S
C111 C110 1.387 1_455 S
N112 Co103 2.022 . S
N112 C109 1.351 1_655 S
N112 N113 1.365 . S
N113 C110 1.341 . S
N113 N112 1.365 . S
N113 H133 0.862 . S
C114 C109 1.501 . S
C114 H115 0.961 . S
C114 H116 0.961 . S
C114 H117 0.960 . S
H115 C114 0.961 . S
H116 C114 0.961 . S
H117 C114 0.960 . S
C118 N119 1.342 . S
C118 C122 1.401 . S
C118 C123 1.499 . S
N119 Co102 1.989 . S
N119 C118 1.342 . S
N119 N120 1.388 . S
N120 Co103 1.993 . S
N120 N119 1.388 . S
N120 C121 1.346 . S
C121 N120 1.346 . S
C121 C122 1.396 . S
C121 C131 1.510 . S
C122 C118 1.401 . S
C122 C121 1.396 . S
C123 C118 1.499 . S
C123 H124 0.959 . S
C123 H125 0.960 . S
C123 H126 0.961 . S
H124 C123 0.959 . S
H125 C123 0.960 . S
H126 C123 0.961 . S
O127 Co102 1.967 . S
O127 C135 1.258 . S
O128 Co103 1.941 . S
O128 C135 1.266 . S
H129 C131 0.959 . S
H130 C131 0.961 . S
C131 C121 1.510 . S
C131 H129 0.959 . S
C131 H130 0.961 . S
C131 H132 0.960 . S
H132 C131 0.960 . S
H133 N113 0.862 . S
O134 Co102 1.920 . S
O134 C107 1.289 . S
C135 O127 1.258 . S
C135 O128 1.266 . S
Co136 O139 1.970 . S
Co136 N153 1.989 1_556 S
Co136 O161 1.967 1_455 S
Co136 O168 1.920 . S
Co137 O140 1.966 . S
Co137 N146 2.022 . S
Co137 N154 1.993 1_556 S
Co137 O162 1.941 1_455 S
C138 O139 1.258 . S
C138 O140 1.263 . S
O139 Co136 1.970 . S
O139 C138 1.258 . S
O140 Co137 1.966 . S
O140 C138 1.263 . S
C141 O142 1.235 . S
C141 O168 1.289 . S
O142 C141 1.235 . S
C143 C145 1.400 . S
C143 N146 1.351 . S
C143 C148 1.501 . S
C144 C145 1.387 1_554 S
C144 N147 1.341 1_554 S
C145 C143 1.400 . S
C145 C144 1.387 1_556 S
N146 Co137 2.022 . S
N146 C143 1.351 . S
N146 N147 1.365 . S
N147 C144 1.341 1_556 S
N147 N146 1.365 . S
N147 H167 0.862 1_455 S
C148 C143 1.501 . S
C148 H149 0.961 . S
C148 H150 0.961 . S
C148 H151 0.960 . S
H149 C148 0.961 . S
H150 C148 0.961 . S
H151 C148 0.960 . S
C152 N153 1.342 . S
C152 C156 1.401 . S
C152 C157 1.499 . S
N153 Co136 1.989 1_554 S
N153 C152 1.342 . S
N153 N154 1.388 . S
N154 Co137 1.993 1_554 S
N154 N153 1.388 . S
N154 C155 1.346 . S
C155 N154 1.346 . S
C155 C156 1.396 . S
C155 C165 1.510 . S
C156 C152 1.401 . S
C156 C155 1.396 . S
C157 C152 1.499 . S
C157 H158 0.959 . S
C157 H159 0.960 . S
C157 H160 0.961 1_455 S
H158 C157 0.959 . S
H159 C157 0.960 . S
H160 C157 0.961 1_655 S
O161 Co136 1.967 1_655 S
O161 C169 1.258 . S
O162 Co137 1.941 1_655 S
O162 C169 1.266 . S
H163 C165 0.959 . S
H164 C165 0.961 . S
C165 C155 1.510 . S
C165 H163 0.959 . S
C165 H164 0.961 . S
C165 H166 0.960 . S
H166 C165 0.960 . S
H167 N147 0.862 1_655 S
O168 Co136 1.920 . S
O168 C141 1.289 . S
C169 O161 1.258 . S
C169 O162 1.266 . S
Co170 O173 1.970 1_455 S
Co170 N187 1.989 . S
Co170 O195 1.967 . S
Co170 O202 1.920 . S
Co171 O174 1.966 1_455 S
Co171 N180 2.022 . S
Co171 N188 1.993 . S
Co171 O196 1.941 . S
C172 O173 1.258 . S
C172 O174 1.263 . S
O173 Co170 1.970 1_655 S
O173 C172 1.258 . S
O174 Co171 1.966 1_655 S
O174 C172 1.263 . S
C175 O176 1.235 1_455 S
C175 O202 1.289 . S
O176 C175 1.235 1_655 S
C177 C179 1.400 . S
C177 N180 1.351 1_655 S
C177 C182 1.501 . S
C178 C179 1.387 1_455 S
C178 N181 1.341 . S
C179 C177 1.400 . S
C179 C178 1.387 1_655 S
N180 Co171 2.022 . S
N180 C177 1.351 1_455 S
N180 N181 1.365 . S
N181 C178 1.341 . S
N181 N180 1.365 . S
N181 H201 0.862 . S
C182 C177 1.501 . S
C182 H183 0.961 . S
C182 H184 0.961 . S
C182 H185 0.960 . S
H183 C182 0.961 . S
H184 C182 0.961 . S
H185 C182 0.960 . S
C186 N187 1.342 . S
C186 C190 1.401 . S
C186 C191 1.499 . S
N187 Co170 1.989 . S
N187 C186 1.342 . S
N187 N188 1.388 . S
N188 Co171 1.993 . S
N188 N187 1.388 . S
N188 C189 1.346 . S
C189 N188 1.346 . S
C189 C190 1.396 . S
C189 C199 1.510 . S
C190 C186 1.401 . S
C190 C189 1.396 . S
C191 C186 1.499 . S
C191 H192 0.959 . S
C191 H193 0.960 . S
C191 H194 0.961 . S
H192 C191 0.959 . S
H193 C191 0.960 . S
H194 C191 0.961 . S
O195 Co170 1.967 . S
O195 C203 1.258 . S
O196 Co171 1.941 . S
O196 C203 1.266 . S
H197 C199 0.959 . S
H198 C199 0.961 . S
C199 C189 1.510 . S
C199 H197 0.959 . S
C199 H198 0.961 . S
C199 H200 0.960 . S
H200 C199 0.960 . S
H201 N181 0.862 . S
O202 Co170 1.920 . S
O202 C175 1.289 . S
C203 O195 1.258 . S
C203 O196 1.266 . S
Co204 O207 1.970 . S
Co204 N221 1.989 1_554 S
Co204 O229 1.967 1_655 S
Co204 O236 1.920 . S
Co205 O208 1.966 . S
Co205 N214 2.022 . S
Co205 N222 1.993 1_554 S
Co205 O230 1.941 1_655 S
C206 O207 1.258 . S
C206 O208 1.263 . S
O207 Co204 1.970 . S
O207 C206 1.258 . S
O208 Co205 1.966 . S
O208 C206 1.263 . S
C209 O210 1.235 . S
C209 O236 1.289 . S
O210 C209 1.235 . S
C211 C213 1.400 . S
C211 N214 1.351 . S
C211 C216 1.501 . S
C212 C213 1.387 1_556 S
C212 N215 1.341 1_556 S
C213 C211 1.400 . S
C213 C212 1.387 1_554 S
N214 Co205 2.022 . S
N214 C211 1.351 . S
N214 N215 1.365 . S
N215 C212 1.341 1_554 S
N215 N214 1.365 . S
N215 H235 0.862 1_655 S
C216 C211 1.501 . S
C216 H217 0.961 . S
C216 H218 0.961 . S
C216 H219 0.960 . S
H217 C216 0.961 . S
H218 C216 0.961 . S
H219 C216 0.960 . S
C220 N221 1.342 . S
C220 C224 1.401 . S
C220 C225 1.499 . S
N221 Co204 1.989 1_556 S
N221 C220 1.342 . S
N221 N222 1.388 . S
N222 Co205 1.993 1_556 S
N222 N221 1.388 . S
N222 C223 1.346 . S
C223 N222 1.346 . S
C223 C224 1.396 . S
C223 C233 1.510 . S
C224 C220 1.401 . S
C224 C223 1.396 . S
C225 C220 1.499 . S
C225 H226 0.959 . S
C225 H227 0.960 . S
C225 H228 0.961 1_655 S
H226 C225 0.959 . S
H227 C225 0.960 . S
H228 C225 0.961 1_455 S
O229 Co204 1.967 1_455 S
O229 C237 1.258 . S
O230 Co205 1.941 1_455 S
O230 C237 1.266 . S
H231 C233 0.959 . S
H232 C233 0.961 . S
C233 C223 1.510 . S
C233 H231 0.959 . S
C233 H232 0.961 . S
C233 H234 0.960 . S
H234 C233 0.960 . S
H235 N215 0.862 1_455 S
O236 Co204 1.920 . S
O236 C209 1.289 . S
C237 O229 1.258 . S
C237 O230 1.266 . S
Co238 O241 1.970 1_655 S
Co238 N255 1.989 . S
Co238 O263 1.967 . S
Co238 O270 1.920 . S
Co239 O242 1.966 1_655 S
Co239 N248 2.022 . S
Co239 N256 1.993 . S
Co239 O264 1.941 . S
C240 O241 1.258 . S
C240 O242 1.263 . S
O241 Co238 1.970 1_455 S
O241 C240 1.258 . S
O242 Co239 1.966 1_455 S
O242 C240 1.263 . S
C243 O244 1.235 1_655 S
C243 O270 1.289 . S
O244 C243 1.235 1_455 S
C245 C247 1.400 . S
C245 N248 1.351 1_455 S
C245 C250 1.501 . S
C246 C247 1.387 1_655 S
C246 N249 1.341 . S
C247 C245 1.400 . S
C247 C246 1.387 1_455 S
N248 Co239 2.022 . S
N248 C245 1.351 1_655 S
N248 N249 1.365 . S
N249 C246 1.341 . S
N249 N248 1.365 . S
N249 H269 0.862 . S
C250 C245 1.501 . S
C250 H251 0.961 . S
C250 H252 0.961 . S
C250 H253 0.960 . S
H251 C250 0.961 . S
H252 C250 0.961 . S
H253 C250 0.960 . S
C254 N255 1.342 . S
C254 C258 1.401 . S
C254 C259 1.499 . S
N255 Co238 1.989 . S
N255 C254 1.342 . S
N255 N256 1.388 . S
N256 Co239 1.993 . S
N256 N255 1.388 . S
N256 C257 1.346 . S
C257 N256 1.346 . S
C257 C258 1.396 . S
C257 C267 1.510 . S
C258 C254 1.401 . S
C258 C257 1.396 . S
C259 C254 1.499 . S
C259 H260 0.959 . S
C259 H261 0.960 . S
C259 H262 0.961 . S
H260 C259 0.959 . S
H261 C259 0.960 . S
H262 C259 0.961 . S
O263 Co238 1.967 . S
O263 C271 1.258 . S
O264 Co239 1.941 . S
O264 C271 1.266 . S
H265 C267 0.959 . S
H266 C267 0.961 . S
C267 C257 1.510 . S
C267 H265 0.959 . S
C267 H266 0.961 . S
C267 H268 0.960 . S
H268 C267 0.960 . S
H269 N249 0.862 . S
O270 Co238 1.920 . S
O270 C243 1.289 . S
C271 O263 1.258 . S
C271 O264 1.266 . S
Co272 O275 1.970 . S
Co272 N289 1.989 1_556 S
Co272 O297 1.967 . S
Co272 O304 1.920 . S
Co273 O276 1.966 . S
Co273 N282 2.022 . S
Co273 N290 1.993 1_556 S
Co273 O298 1.941 . S
C274 O275 1.258 . S
C274 O276 1.263 . S
O275 Co272 1.970 . S
O275 C274 1.258 . S
O276 Co273 1.966 . S
O276 C274 1.263 . S
C277 O278 1.235 . S
C277 O304 1.289 . S
O278 C277 1.235 . S
C279 C281 1.400 . S
C279 N282 1.351 . S
C279 C284 1.501 . S
C280 C281 1.387 1_554 S
C280 N283 1.341 1_554 S
C281 C279 1.400 . S
C281 C280 1.387 1_556 S
N282 Co273 2.022 . S
N282 C279 1.351 . S
N282 N283 1.365 . S
N283 C280 1.341 1_556 S
N283 N282 1.365 . S
N283 H303 0.862 . S
C284 C279 1.501 . S
C284 H285 0.961 . S
C284 H286 0.961 . S
C284 H287 0.960 . S
H285 C284 0.961 . S
H286 C284 0.961 . S
H287 C284 0.960 . S
C288 N289 1.342 . S
C288 C292 1.401 . S
C288 C293 1.499 . S
N289 Co272 1.989 1_554 S
N289 C288 1.342 . S
N289 N290 1.388 . S
N290 Co273 1.993 1_554 S
N290 N289 1.388 . S
N290 C291 1.346 . S
C291 N290 1.346 . S
C291 C292 1.396 . S
C291 C301 1.510 . S
C292 C288 1.401 . S
C292 C291 1.396 . S
C293 C288 1.499 . S
C293 H294 0.959 . S
C293 H295 0.960 . S
C293 H296 0.961 . S
H294 C293 0.959 . S
H295 C293 0.960 . S
H296 C293 0.961 . S
O297 Co272 1.967 . S
O297 C305 1.258 . S
O298 Co273 1.941 . S
O298 C305 1.266 . S
H299 C301 0.959 . S
H300 C301 0.961 . S
C301 C291 1.510 . S
C301 H299 0.959 . S
C301 H300 0.961 . S
C301 H302 0.960 . S
H302 C301 0.960 . S
H303 N283 0.862 . S
O304 Co272 1.920 . S
O304 C277 1.289 . S
C305 O297 1.258 . S
C305 O298 1.266 . S
Co306 O309 1.970 . S
Co306 N323 1.989 . S
Co306 O331 1.967 . S
Co306 O338 1.920 . S
Co307 O310 1.966 . S
Co307 N316 2.022 . S
Co307 N324 1.993 . S
Co307 O332 1.941 . S
C308 O309 1.258 . S
C308 O310 1.263 . S
O309 Co306 1.970 . S
O309 C308 1.258 . S
O310 Co307 1.966 . S
O310 C308 1.263 . S
C311 O312 1.235 . S
C311 O338 1.289 . S
O312 C311 1.235 . S
C313 C315 1.400 . S
C313 N316 1.351 . S
C313 C318 1.501 . S
C314 C315 1.387 . S
C314 N317 1.341 . S
C315 C313 1.400 . S
C315 C314 1.387 . S
N316 Co307 2.022 . S
N316 C313 1.351 . S
N316 N317 1.365 . S
N317 C314 1.341 . S
N317 N316 1.365 . S
N317 H337 0.862 . S
C318 C313 1.501 . S
C318 H319 0.961 . S
C318 H320 0.961 . S
C318 H321 0.960 . S
H319 C318 0.961 . S
H320 C318 0.961 . S
H321 C318 0.960 . S
C322 N323 1.342 . S
C322 C326 1.401 . S
C322 C327 1.499 . S
N323 Co306 1.989 . S
N323 C322 1.342 . S
N323 N324 1.388 . S
N324 Co307 1.993 . S
N324 N323 1.388 . S
N324 C325 1.346 . S
C325 N324 1.346 . S
C325 C326 1.396 . S
C325 C335 1.510 . S
C326 C322 1.401 . S
C326 C325 1.396 . S
C327 C322 1.499 . S
C327 H328 0.959 . S
C327 H329 0.960 . S
C327 H330 0.961 . S
H328 C327 0.959 . S
H329 C327 0.960 . S
H330 C327 0.961 . S
O331 Co306 1.967 . S
O331 C339 1.258 . S
O332 Co307 1.941 . S
O332 C339 1.266 . S
H333 C335 0.959 . S
H334 C335 0.961 . S
C335 C325 1.510 . S
C335 H333 0.959 . S
C335 H334 0.961 . S
C335 H336 0.960 . S
H336 C335 0.960 . S
H337 N317 0.862 . S
O338 Co306 1.920 . S
O338 C311 1.289 . S
C339 O331 1.258 . S
C339 O332 1.266 . S
Co340 O343 1.970 . S
Co340 N357 1.989 1_554 S
Co340 O365 1.967 . S
Co340 O372 1.920 . S
Co341 O344 1.966 . S
Co341 N350 2.022 . S
Co341 N358 1.993 1_554 S
Co341 O366 1.941 . S
C342 O343 1.258 . S
C342 O344 1.263 . S
O343 Co340 1.970 . S
O343 C342 1.258 . S
O344 Co341 1.966 . S
O344 C342 1.263 . S
C345 O346 1.235 . S
C345 O372 1.289 . S
O346 C345 1.235 . S
C347 C349 1.400 . S
C347 N350 1.351 . S
C347 C352 1.501 . S
C348 C349 1.387 1_556 S
C348 N351 1.341 1_556 S
C349 C347 1.400 . S
C349 C348 1.387 1_554 S
N350 Co341 2.022 . S
N350 C347 1.351 . S
N350 N351 1.365 . S
N351 C348 1.341 1_554 S
N351 N350 1.365 . S
N351 H371 0.862 . S
C352 C347 1.501 . S
C352 H353 0.961 . S
C352 H354 0.961 . S
C352 H355 0.960 . S
H353 C352 0.961 . S
H354 C352 0.961 . S
H355 C352 0.960 . S
C356 N357 1.342 . S
C356 C360 1.401 . S
C356 C361 1.499 . S
N357 Co340 1.989 1_556 S
N357 C356 1.342 . S
N357 N358 1.388 . S
N358 Co341 1.993 1_556 S
N358 N357 1.388 . S
N358 C359 1.346 . S
C359 N358 1.346 . S
C359 C360 1.396 . S
C359 C369 1.510 . S
C360 C356 1.401 . S
C360 C359 1.396 . S
C361 C356 1.499 . S
C361 H362 0.959 . S
C361 H363 0.960 . S
C361 H364 0.961 . S
H362 C361 0.959 . S
H363 C361 0.960 . S
H364 C361 0.961 . S
O365 Co340 1.967 . S
O365 C373 1.258 . S
O366 Co341 1.941 . S
O366 C373 1.266 . S
H367 C369 0.959 . S
H368 C369 0.961 . S
C369 C359 1.510 . S
C369 H367 0.959 . S
C369 H368 0.961 . S
C369 H370 0.960 . S
H370 C369 0.960 . S
H371 N351 0.862 . S
O372 Co340 1.920 . S
O372 C345 1.289 . S
C373 O365 1.258 . S
C373 O366 1.266 . S
Co374 O377 1.970 . S
Co374 N391 1.989 . S
Co374 O399 1.967 . S
Co374 O406 1.920 . S
Co375 O378 1.966 . S
Co375 N384 2.022 . S
Co375 N392 1.993 . S
Co375 O400 1.941 . S
C376 O377 1.258 . S
C376 O378 1.263 . S
O377 Co374 1.970 . S
O377 C376 1.258 . S
O378 Co375 1.966 . S
O378 C376 1.263 . S
C379 O380 1.235 . S
C379 O406 1.289 . S
O380 C379 1.235 . S
C381 C383 1.400 . S
C381 N384 1.351 . S
C381 C386 1.501 . S
C382 C383 1.387 . S
C382 N385 1.341 . S
C383 C381 1.400 . S
C383 C382 1.387 . S
N384 Co375 2.022 . S
N384 C381 1.351 . S
N384 N385 1.365 . S
N385 C382 1.341 . S
N385 N384 1.365 . S
N385 H405 0.862 . S
C386 C381 1.501 . S
C386 H387 0.961 . S
C386 H388 0.961 . S
C386 H389 0.960 . S
H387 C386 0.961 . S
H388 C386 0.961 . S
H389 C386 0.960 . S
C390 N391 1.342 . S
C390 C394 1.401 . S
C390 C395 1.499 . S
N391 Co374 1.989 . S
N391 C390 1.342 . S
N391 N392 1.388 . S
N392 Co375 1.993 . S
N392 N391 1.388 . S
N392 C393 1.346 . S
C393 N392 1.346 . S
C393 C394 1.396 . S
C393 C403 1.510 . S
C394 C390 1.401 . S
C394 C393 1.396 . S
C395 C390 1.499 . S
C395 H396 0.959 . S
C395 H397 0.960 . S
C395 H398 0.961 . S
H396 C395 0.959 . S
H397 C395 0.960 . S
H398 C395 0.961 . S
O399 Co374 1.967 . S
O399 C407 1.258 . S
O400 Co375 1.941 . S
O400 C407 1.266 . S
H401 C403 0.959 . S
H402 C403 0.961 . S
C403 C393 1.510 . S
C403 H401 0.959 . S
C403 H402 0.961 . S
C403 H404 0.960 . S
H404 C403 0.960 . S
H405 N385 0.862 . S
O406 Co374 1.920 . S
O406 C379 1.289 . S
C407 O399 1.258 . S
C407 O400 1.266 . S
Co408 O411 1.970 . S
Co408 N425 1.989 . S
Co408 O433 1.967 . S
Co408 O440 1.920 . S
Co409 O412 1.966 . S
Co409 N418 2.022 . S
Co409 N426 1.993 . S
Co409 O434 1.941 . S
C410 O411 1.258 . S
C410 O412 1.263 . S
O411 Co408 1.970 . S
O411 C410 1.258 . S
O412 Co409 1.966 . S
O412 C410 1.263 . S
C413 O414 1.235 . S
C413 O440 1.289 . S
O414 C413 1.235 . S
C415 C417 1.400 . S
C415 N418 1.351 . S
C415 C420 1.501 . S
C416 C417 1.387 . S
C416 N419 1.341 . S
C417 C415 1.400 . S
C417 C416 1.387 . S
N418 Co409 2.022 . S
N418 C415 1.351 . S
N418 N419 1.365 . S
N419 C416 1.341 . S
N419 N418 1.365 . S
N419 H439 0.862 . S
C420 C415 1.501 . S
C420 H421 0.961 . S
C420 H422 0.961 . S
C420 H423 0.960 . S
H421 C420 0.961 . S
H422 C420 0.961 . S
H423 C420 0.960 . S
C424 N425 1.342 . S
C424 C428 1.401 . S
C424 C429 1.499 . S
N425 Co408 1.989 . S
N425 C424 1.342 . S
N425 N426 1.388 . S
N426 Co409 1.993 . S
N426 N425 1.388 . S
N426 C427 1.346 . S
C427 N426 1.346 . S
C427 C428 1.396 . S
C427 C437 1.510 . S
C428 C424 1.401 . S
C428 C427 1.396 . S
C429 C424 1.499 . S
C429 H430 0.959 . S
C429 H431 0.960 . S
C429 H432 0.961 . S
H430 C429 0.959 . S
H431 C429 0.960 . S
H432 C429 0.961 . S
O433 Co408 1.967 . S
O433 C441 1.258 . S
O434 Co409 1.941 . S
O434 C441 1.266 . S
H435 C437 0.959 . S
H436 C437 0.961 . S
C437 C427 1.510 . S
C437 H435 0.959 . S
C437 H436 0.961 . S
C437 H438 0.960 . S
H438 C437 0.960 . S
H439 N419 0.862 . S
O440 Co408 1.920 . S
O440 C413 1.289 . S
C441 O433 1.258 . S
C441 O434 1.266 . S
Co442 O445 1.970 . S
Co442 N459 1.989 . S
Co442 O467 1.967 . S
Co442 O474 1.920 . S
Co443 O446 1.966 . S
Co443 N452 2.022 . S
Co443 N460 1.993 . S
Co443 O468 1.941 . S
C444 O445 1.258 . S
C444 O446 1.263 . S
O445 Co442 1.970 . S
O445 C444 1.258 . S
O446 Co443 1.966 . S
O446 C444 1.263 . S
C447 O448 1.235 . S
C447 O474 1.289 . S
O448 C447 1.235 . S
C449 C451 1.400 . S
C449 N452 1.351 . S
C449 C454 1.501 . S
C450 C451 1.387 . S
C450 N453 1.341 . S
C451 C449 1.400 . S
C451 C450 1.387 . S
N452 Co443 2.022 . S
N452 C449 1.351 . S
N452 N453 1.365 . S
N453 C450 1.341 . S
N453 N452 1.365 . S
N453 H473 0.862 . S
C454 C449 1.501 . S
C454 H455 0.961 . S
C454 H456 0.961 . S
C454 H457 0.960 . S
H455 C454 0.961 . S
H456 C454 0.961 . S
H457 C454 0.960 . S
C458 N459 1.342 . S
C458 C462 1.401 . S
C458 C463 1.499 . S
N459 Co442 1.989 . S
N459 C458 1.342 . S
N459 N460 1.388 . S
N460 Co443 1.993 . S
N460 N459 1.388 . S
N460 C461 1.346 . S
C461 N460 1.346 . S
C461 C462 1.396 . S
C461 C471 1.510 . S
C462 C458 1.401 . S
C462 C461 1.396 . S
C463 C458 1.499 . S
C463 H464 0.959 . S
C463 H465 0.960 . S
C463 H466 0.961 . S
H464 C463 0.959 . S
H465 C463 0.960 . S
H466 C463 0.961 . S
O467 Co442 1.967 . S
O467 C475 1.258 . S
O468 Co443 1.941 . S
O468 C475 1.266 . S
H469 C471 0.959 . S
H470 C471 0.961 . S
C471 C461 1.510 . S
C471 H469 0.959 . S
C471 H470 0.961 . S
C471 H472 0.960 . S
H472 C471 0.960 . S
H473 N453 0.862 . S
O474 Co442 1.920 . S
O474 C447 1.289 . S
C475 O467 1.258 . S
C475 O468 1.266 . S
Co476 O479 1.970 . S
Co476 N493 1.989 . S
Co476 O501 1.967 . S
Co476 O508 1.920 . S
Co477 O480 1.966 . S
Co477 N486 2.022 . S
Co477 N494 1.993 . S
Co477 O502 1.941 . S
C478 O479 1.258 . S
C478 O480 1.263 . S
O479 Co476 1.970 . S
O479 C478 1.258 . S
O480 Co477 1.966 . S
O480 C478 1.263 . S
C481 O482 1.235 . S
C481 O508 1.289 . S
O482 C481 1.235 . S
C483 C485 1.400 . S
C483 N486 1.351 . S
C483 C488 1.501 . S
C484 C485 1.387 . S
C484 N487 1.341 . S
C485 C483 1.400 . S
C485 C484 1.387 . S
N486 Co477 2.022 . S
N486 C483 1.351 . S
N486 N487 1.365 . S
N487 C484 1.341 . S
N487 N486 1.365 . S
N487 H507 0.862 . S
C488 C483 1.501 . S
C488 H489 0.961 . S
C488 H490 0.961 . S
C488 H491 0.960 . S
H489 C488 0.961 . S
H490 C488 0.961 . S
H491 C488 0.960 . S
C492 N493 1.342 . S
C492 C496 1.401 . S
C492 C497 1.499 . S
N493 Co476 1.989 . S
N493 C492 1.342 . S
N493 N494 1.388 . S
N494 Co477 1.993 . S
N494 N493 1.388 . S
N494 C495 1.346 . S
C495 N494 1.346 . S
C495 C496 1.396 . S
C495 C505 1.510 . S
C496 C492 1.401 . S
C496 C495 1.396 . S
C497 C492 1.499 . S
C497 H498 0.959 . S
C497 H499 0.960 . S
C497 H500 0.961 . S
H498 C497 0.959 . S
H499 C497 0.960 . S
H500 C497 0.961 . S
O501 Co476 1.967 . S
O501 C509 1.258 . S
O502 Co477 1.941 . S
O502 C509 1.266 . S
H503 C505 0.959 . S
H504 C505 0.961 . S
C505 C495 1.510 . S
C505 H503 0.959 . S
C505 H504 0.961 . S
C505 H506 0.960 . S
H506 C505 0.960 . S
H507 N487 0.862 . S
O508 Co476 1.920 . S
O508 C481 1.289 . S
C509 O501 1.258 . S
C509 O502 1.266 . S
Co510 O513 1.970 . S
Co510 N527 1.989 . S
Co510 O535 1.967 . S
Co510 O542 1.920 . S
Co511 O514 1.966 . S
Co511 N520 2.022 . S
Co511 N528 1.993 . S
Co511 O536 1.941 . S
C512 O513 1.258 . S
C512 O514 1.263 . S
O513 Co510 1.970 . S
O513 C512 1.258 . S
O514 Co511 1.966 . S
O514 C512 1.263 . S
C515 O516 1.235 . S
C515 O542 1.289 . S
O516 C515 1.235 . S
C517 C519 1.400 . S
C517 N520 1.351 . S
C517 C522 1.501 . S
C518 C519 1.387 . S
C518 N521 1.341 . S
C519 C517 1.400 . S
C519 C518 1.387 . S
N520 Co511 2.022 . S
N520 C517 1.351 . S
N520 N521 1.365 . S
N521 C518 1.341 . S
N521 N520 1.365 . S
N521 H541 0.862 . S
C522 C517 1.501 . S
C522 H523 0.961 . S
C522 H524 0.961 . S
C522 H525 0.960 . S
H523 C522 0.961 . S
H524 C522 0.961 . S
H525 C522 0.960 . S
C526 N527 1.342 . S
C526 C530 1.401 . S
C526 C531 1.499 . S
N527 Co510 1.989 . S
N527 C526 1.342 . S
N527 N528 1.388 . S
N528 Co511 1.993 . S
N528 N527 1.388 . S
N528 C529 1.346 . S
C529 N528 1.346 . S
C529 C530 1.396 . S
C529 C539 1.510 . S
C530 C526 1.401 . S
C530 C529 1.396 . S
C531 C526 1.499 . S
C531 H532 0.959 . S
C531 H533 0.960 . S
C531 H534 0.961 . S
H532 C531 0.959 . S
H533 C531 0.960 . S
H534 C531 0.961 . S
O535 Co510 1.967 . S
O535 C543 1.258 . S
O536 Co511 1.941 . S
O536 C543 1.266 . S
H537 C539 0.959 . S
H538 C539 0.961 . S
C539 C529 1.510 . S
C539 H537 0.959 . S
C539 H538 0.961 . S
C539 H540 0.960 . S
H540 C539 0.960 . S
H541 N521 0.862 . S
O542 Co510 1.920 . S
O542 C515 1.289 . S
C543 O535 1.258 . S
C543 O536 1.266 . S
C9 C485 1.424 . S
C73 C5 3.050 1_665 S
C39 C379 3.050 1_545 S
C247 C43 1.425 1_455 S
C77 C417 1.424 . S
C107 C311 3.050 1_565 S
C111 C179 1.424 1_455 S
C349 C145 1.424 1_554 S
C209 C141 3.050 1_654 S
C175 C515 3.050 . S
C281 C213 1.424 1_556 S
C447 C243 3.050 . S
C277 C345 3.050 1_546 S
C519 C315 1.424 . S
C383 C451 1.425 . S
C413 C481 3.050 . S
C2 C308 1.450 . S
C339 C33 1.530 . S
C67 C305 1.530 . S
C36 C274 1.450 . S
C376 C70 1.450 . S
C407 C101 1.530 . S
C135 C373 1.530 . S
C104 C342 1.450 . S
C138 C444 1.450 . S
C475 C169 1.530 . S
C203 C441 1.530 . S
C410 C172 1.450 . S
C512 C206 1.450 . S
C237 C543 1.530 . S
C271 C509 1.530 . S
C240 C478 1.450 . S
C54 C20 1.375 . S
C88 C122 1.375 . S
C156 C190 1.375 . S
C224 C258 1.375 . S
C326 C292 1.375 . S
C394 C360 1.375 . S
C428 C462 1.375 . S
C530 C496 1.375 . S
