# Generated by pormake.
# Topology noy, (5)-cn, num edge types: 1
# Building blocks:
#     Node 0, Type 0, BuildingBlock: XOMCOT_clean_sbu_0, # of connection points: 5
#     Node 1, Type 0, BuildingBlock: XOMCOT_clean_sbu_0, # of connection points: 5
#     Node 2, Type 0, BuildingBlock: XOMCOT_clean_sbu_0, # of connection points: 5
#     Node 3, Type 0, BuildingBlock: XOMCOT_clean_sbu_0, # of connection points: 5
#     Node 4, Type 0, BuildingBlock: XOMCOT_clean_sbu_0, # of connection points: 5
#     Node 5, Type 0, BuildingBlock: XOMCOT_clean_sbu_0, # of connection points: 5
#     Node 6, Type 0, BuildingBlock: XOMCOT_clean_sbu_0, # of connection points: 5
#     Node 7, Type 0, BuildingBlock: XOMCOT_clean_sbu_0, # of connection points: 5
#     Edge 8, Type (0, 0), BuildingBlock: MIFKUJ_clean_linker_0, # of connection points: 2
#     Edge 9, Type (0, 0), BuildingBlock: MIFKUJ_clean_linker_0, # of connection points: 2
#     Edge 10, Type (0, 0), BuildingBlock: MIFKUJ_clean_linker_0, # of connection points: 2
#     Edge 11, Type (0, 0), BuildingBlock: MIFKUJ_clean_linker_0, # of connection points: 2
#     Edge 12, Type (0, 0), BuildingBlock: MIFKUJ_clean_linker_0, # of connection points: 2
#     Edge 13, Type (0, 0), BuildingBlock: MIFKUJ_clean_linker_0, # of connection points: 2
#     Edge 14, Type (0, 0), BuildingBlock: MIFKUJ_clean_linker_0, # of connection points: 2
#     Edge 15, Type (0, 0), BuildingBlock: MIFKUJ_clean_linker_0, # of connection points: 2
#     Edge 16, Type (0, 0), BuildingBlock: MIFKUJ_clean_linker_0, # of connection points: 2
#     Edge 17, Type (0, 0), BuildingBlock: MIFKUJ_clean_linker_0, # of connection points: 2
#     Edge 18, Type (0, 0), BuildingBlock: MIFKUJ_clean_linker_0, # of connection points: 2
#     Edge 19, Type (0, 0), BuildingBlock: MIFKUJ_clean_linker_0, # of connection points: 2
#     Edge 20, Type (0, 0), BuildingBlock: MIFKUJ_clean_linker_0, # of connection points: 2
#     Edge 21, Type (0, 0), BuildingBlock: MIFKUJ_clean_linker_0, # of connection points: 2
#     Edge 22, Type (0, 0), BuildingBlock: MIFKUJ_clean_linker_0, # of connection points: 2
#     Edge 23, Type (0, 0), BuildingBlock: MIFKUJ_clean_linker_0, # of connection points: 2
#     Edge 24, Type (0, 0), BuildingBlock: MIFKUJ_clean_linker_0, # of connection points: 2
#     Edge 25, Type (0, 0), BuildingBlock: MIFKUJ_clean_linker_0, # of connection points: 2
#     Edge 26, Type (0, 0), BuildingBlock: MIFKUJ_clean_linker_0, # of connection points: 2
#     Edge 27, Type (0, 0), BuildingBlock: MIFKUJ_clean_linker_0, # of connection points: 2
# Relax obj value: 0.201
# Max RMSD: 0.217
# Mean RMSD: 0.217
data_MOF--net-noy--node1-XOMCOT_clean_sbu_0--edge1-MIFKUJ_clean_linker_0
_symmetry_space_group_name_H-M    P1
_symmetry_Int_Tables_number       1
_symmetry_cell_setting            triclinic
loop_
_symmetry_equiv_pos_as_xyz
'x, y, z'
_cell_length_a     61.688756
_cell_length_b     60.486862
_cell_length_c     25.429739
_cell_angle_alpha  90.121278
_cell_angle_beta   89.928929
_cell_angle_gamma 90.025499
loop_
_atom_site_label
_atom_site_type_symbol
_atom_site_fract_x
_atom_site_fract_y
_atom_site_fract_z
_atom_type_partial_charge
Co0 Co 0.31363 0.37557 0.31267 0.0
C1 C 0.32022 0.40954 0.22818 0.0
C2 C 0.29532 0.38592 0.20989 0.0
C3 C 0.29622 0.40114 0.17017 0.0
N4 N 0.31037 0.391 0.24627 0.0
N5 N 0.31168 0.41616 0.18165 0.0
H6 H 0.33267 0.41842 0.24948 0.0
H7 H 0.28388 0.37243 0.21251 0.0
C8 C 0.30823 0.32864 0.27615 0.0
O9 O 0.32624 0.32364 0.30097 0.0
N10 N 0.31547 0.35998 0.38019 0.0
C11 C 0.3252 0.36705 0.4248 0.0
C12 C 0.31916 0.35373 0.46601 0.0
C13 C 0.30278 0.34292 0.39621 0.0
N14 N 0.30502 0.33853 0.44808 0.0
C15 C 0.35955 0.37267 0.32558 0.0
C16 C 0.36945 0.35521 0.22804 0.0
C17 C 0.38644 0.36075 0.26238 0.0
C18 C 0.38112 0.3693 0.31189 0.0
C19 C 0.34786 0.35883 0.24354 0.0
N20 N 0.34308 0.36706 0.29243 0.0
H21 H 0.35633 0.3809 0.36208 0.0
H22 H 0.33501 0.35549 0.21575 0.0
H23 H 0.33471 0.38194 0.42887 0.0
H24 H 0.29088 0.33489 0.37159 0.0
O25 O 0.32097 0.40286 0.34683 0.0
O26 O 0.28745 0.39022 0.33861 0.0
O27 O 0.3006 0.34828 0.27866 0.0
C28 C 0.30049 0.40553 0.35637 0.0
H29 H 0.28595 0.40128 0.13569 0.0
H30 H 0.32419 0.35567 0.50651 0.0
H31 H 0.37282 0.34896 0.18894 0.0
H32 H 0.39361 0.37391 0.33975 0.0
Co33 Co 0.69235 0.63535 0.81788 0.0
C34 C 0.68208 0.60174 0.73545 0.0
C35 C 0.71218 0.61877 0.72199 0.0
C36 C 0.70998 0.6026 0.6844 0.0
N37 N 0.69478 0.61823 0.754 0.0
N38 N 0.69111 0.592 0.69281 0.0
H39 H 0.66724 0.59628 0.7541 0.0
H40 H 0.72601 0.62957 0.7271 0.0
C41 C 0.70096 0.68222 0.78393 0.0
O42 O 0.68602 0.68888 0.81726 0.0
N43 N 0.69103 0.65267 0.88268 0.0
C44 C 0.67471 0.65472 0.91779 0.0
C45 C 0.68104 0.66889 0.95725 0.0
C46 C 0.70736 0.66506 0.90271 0.0
N47 N 0.70152 0.67546 0.94766 0.0
C48 C 0.64623 0.63282 0.82633 0.0
C49 C 0.63542 0.66224 0.74789 0.0
C50 C 0.61889 0.65355 0.7798 0.0
C51 C 0.62457 0.63811 0.81817 0.0
C52 C 0.65714 0.65649 0.75769 0.0
N53 N 0.66245 0.64309 0.79908 0.0
H54 H 0.64982 0.62069 0.856 0.0
H55 H 0.6695 0.66277 0.73168 0.0
H56 H 0.65926 0.64652 0.91625 0.0
H57 H 0.72298 0.66695 0.88379 0.0
O58 O 0.68615 0.60895 0.85716 0.0
O59 O 0.7192 0.62174 0.84313 0.0
O60 O 0.70508 0.66159 0.77886 0.0
C61 C 0.70681 0.6067 0.86428 0.0
H62 H 0.72163 0.59845 0.65404 0.0
H63 H 0.67137 0.67377 0.99088 0.0
H64 H 0.63166 0.67357 0.7163 0.0
H65 H 0.6123 0.63005 0.84191 0.0
Co66 Co 0.31589 0.6329 0.68859 0.0
C67 C 0.32419 0.60011 0.77444 0.0
C68 C 0.29472 0.61863 0.78456 0.0
C69 C 0.2958 0.60299 0.82342 0.0
N70 N 0.31242 0.61688 0.7538 0.0
N71 N 0.31422 0.59133 0.81708 0.0
H72 H 0.33898 0.59375 0.75721 0.0
H73 H 0.28139 0.62986 0.77776 0.0
C74 C 0.30577 0.68028 0.7193 0.0
O75 O 0.32067 0.68747 0.68658 0.0
N76 N 0.31825 0.64903 0.62241 0.0
C77 C 0.33408 0.64815 0.5858 0.0
C78 C 0.32848 0.66141 0.54412 0.0
C79 C 0.30284 0.66219 0.60112 0.0
N80 N 0.30888 0.67042 0.55381 0.0
C81 C 0.3621 0.63109 0.68438 0.0
C82 C 0.37131 0.66187 0.76134 0.0
C83 C 0.38845 0.65293 0.73171 0.0
C84 C 0.38354 0.63684 0.69404 0.0
C85 C 0.34983 0.65561 0.75012 0.0
N86 N 0.34534 0.64141 0.70956 0.0
H87 H 0.35917 0.61826 0.65588 0.0
H88 H 0.33701 0.66211 0.7745 0.0
H89 H 0.34848 0.63816 0.58756 0.0
H90 H 0.28765 0.66592 0.62048 0.0
O91 O 0.32307 0.60585 0.65291 0.0
O92 O 0.2897 0.61851 0.66146 0.0
O93 O 0.30225 0.65954 0.72429 0.0
C94 C 0.30261 0.60311 0.64379 0.0
H95 H 0.28367 0.59997 0.85339 0.0
H96 H 0.33798 0.66377 0.50878 0.0
H97 H 0.37442 0.67375 0.79233 0.0
H98 H 0.39626 0.62853 0.67219 0.0
Co99 Co 0.69159 0.38042 0.19045 0.0
C100 C 0.68399 0.41172 0.28329 0.0
C101 C 0.71633 0.39911 0.2762 0.0
C102 C 0.71555 0.41285 0.31903 0.0
N103 N 0.69657 0.39809 0.25371 0.0
N104 N 0.69523 0.42077 0.32376 0.0
H105 H 0.66707 0.41494 0.27648 0.0
H106 H 0.73047 0.39032 0.26218 0.0
C107 C 0.70004 0.34861 0.27641 0.0
O108 O 0.68611 0.36035 0.30386 0.0
N109 N 0.68813 0.36289 0.12733 0.0
C110 C 0.67333 0.36575 0.08907 0.0
C111 C 0.67791 0.35129 0.04852 0.0
C112 C 0.70144 0.34673 0.10983 0.0
N113 N 0.69556 0.33934 0.06169 0.0
C114 C 0.64681 0.38945 0.20876 0.0
C115 C 0.633 0.34635 0.22116 0.0
C116 C 0.61749 0.36336 0.22142 0.0
C117 C 0.62479 0.38512 0.21498 0.0
C118 C 0.65506 0.35145 0.21476 0.0
N119 N 0.66184 0.37292 0.21026 0.0
H120 H 0.6516 0.40623 0.20055 0.0
H121 H 0.66651 0.33803 0.21135 0.0
H122 H 0.66044 0.37786 0.09005 0.0
H123 H 0.71563 0.34113 0.13091 0.0
O124 O 0.6851 0.40685 0.15189 0.0
O125 O 0.71813 0.39329 0.16077 0.0
O126 O 0.70396 0.3537 0.22841 0.0
C127 C 0.70563 0.40891 0.14259 0.0
H128 H 0.7291 0.417 0.3442 0.0
H129 H 0.66904 0.34978 0.01199 0.0
H130 H 0.62815 0.32922 0.22498 0.0
H131 H 0.6135 0.39878 0.2124 0.0
Co132 Co 0.81415 0.87835 0.31558 0.0
C133 C 0.82185 0.90862 0.22377 0.0
C134 C 0.80173 0.88085 0.20433 0.0
C135 C 0.80392 0.89372 0.1605 0.0
N136 N 0.81304 0.88997 0.24421 0.0
N137 N 0.81634 0.91139 0.17251 0.0
H138 H 0.83144 0.92023 0.24629 0.0
H139 H 0.79207 0.86599 0.20645 0.0
C140 C 0.80936 0.82967 0.28951 0.0
O141 O 0.82687 0.82511 0.31682 0.0
N142 N 0.81402 0.86641 0.38726 0.0
C143 C 0.8219 0.87587 0.43153 0.0
C144 C 0.81558 0.86361 0.47454 0.0
C145 C 0.80221 0.84902 0.40487 0.0
N146 N 0.80328 0.84665 0.45759 0.0
C147 C 0.85948 0.87646 0.33807 0.0
C148 C 0.8723 0.8524 0.25107 0.0
C149 C 0.88812 0.85901 0.28766 0.0
C150 C 0.88135 0.87149 0.33115 0.0
C151 C 0.85045 0.85794 0.25936 0.0
N152 N 0.84413 0.86907 0.30371 0.0
H153 H 0.85509 0.88701 0.37036 0.0
H154 H 0.83863 0.85318 0.23014 0.0
H155 H 0.83066 0.89132 0.43338 0.0
H156 H 0.79176 0.83904 0.38044 0.0
O157 O 0.8203 0.90754 0.34209 0.0
O158 O 0.78724 0.89383 0.33253 0.0
O159 O 0.802 0.84943 0.28791 0.0
C160 C 0.79954 0.91034 0.3469 0.0
H161 H 0.79662 0.89029 0.12269 0.0
H162 H 0.81937 0.86719 0.51522 0.0
H163 H 0.87668 0.84299 0.21639 0.0
H164 H 0.89292 0.87804 0.35914 0.0
Co165 Co 0.18997 0.13153 0.81381 0.0
C166 C 0.17937 0.09868 0.7297 0.0
C167 C 0.20679 0.11908 0.71068 0.0
C168 C 0.20311 0.10495 0.66938 0.0
N169 N 0.19181 0.11539 0.74823 0.0
N170 N 0.18593 0.09213 0.68125 0.0
H171 H 0.16587 0.09154 0.75096 0.0
H172 H 0.2198 0.131 0.71334 0.0
C173 C 0.1997 0.1788 0.78222 0.0
O174 O 0.18543 0.18599 0.81663 0.0
N175 N 0.18906 0.1479 0.88001 0.0
C176 C 0.17319 0.14856 0.9166 0.0
C177 C 0.17938 0.16242 0.95676 0.0
C178 C 0.2051 0.16072 0.89996 0.0
N179 N 0.19937 0.17019 0.94617 0.0
C180 C 0.14385 0.12983 0.82273 0.0
C181 C 0.1334 0.1608 0.74746 0.0
C182 C 0.11681 0.15193 0.77886 0.0
C183 C 0.12229 0.13572 0.81556 0.0
C184 C 0.15504 0.15443 0.75625 0.0
N185 N 0.1602 0.1402 0.79616 0.0
H186 H 0.14722 0.11702 0.85086 0.0
H187 H 0.16742 0.16087 0.73055 0.0
H188 H 0.1582 0.1395 0.91559 0.0
H189 H 0.22037 0.16363 0.88012 0.0
O190 O 0.18324 0.10474 0.85094 0.0
O191 O 0.21655 0.11692 0.83798 0.0
O192 O 0.20309 0.15806 0.77667 0.0
C193 C 0.2038 0.10198 0.85838 0.0
H194 H 0.21275 0.10371 0.63388 0.0
H195 H 0.16995 0.16629 0.99151 0.0
H196 H 0.12977 0.17273 0.71704 0.0
H197 H 0.10993 0.1275 0.83869 0.0
Co198 Co 0.81366 0.1344 0.69208 0.0
C199 C 0.82144 0.10014 0.77493 0.0
C200 C 0.79123 0.11752 0.78357 0.0
C201 C 0.79215 0.10135 0.82116 0.0
N202 N 0.80947 0.1168 0.75452 0.0
N203 N 0.81106 0.09043 0.81578 0.0
H204 H 0.83678 0.09462 0.75892 0.0
H205 H 0.77775 0.12855 0.77653 0.0
C206 C 0.80361 0.18119 0.72715 0.0
O207 O 0.81845 0.18873 0.69473 0.0
N208 N 0.81673 0.15225 0.62869 0.0
C209 C 0.83427 0.15535 0.5977 0.0
C210 C 0.82906 0.17002 0.55844 0.0
C211 C 0.80088 0.16452 0.60632 0.0
N212 N 0.80812 0.17585 0.56401 0.0
C213 C 0.85981 0.13086 0.69064 0.0
C214 C 0.86937 0.16133 0.76806 0.0
C215 C 0.88641 0.15205 0.73874 0.0
C216 C 0.88133 0.13606 0.70099 0.0
C217 C 0.8478 0.15564 0.75616 0.0
N218 N 0.84318 0.14166 0.71524 0.0
H219 H 0.85672 0.11864 0.66074 0.0
H220 H 0.83504 0.1625 0.78011 0.0
H221 H 0.84989 0.14773 0.60232 0.0
H222 H 0.78464 0.16589 0.62218 0.0
O223 O 0.82048 0.1083 0.65187 0.0
O224 O 0.78729 0.12129 0.66242 0.0
O225 O 0.80026 0.16037 0.7312 0.0
C226 C 0.80001 0.10636 0.64192 0.0
H227 H 0.77967 0.09754 0.84973 0.0
H228 H 0.83988 0.17597 0.52804 0.0
H229 H 0.87262 0.17316 0.7991 0.0
H230 H 0.89396 0.12764 0.6791 0.0
Co231 Co 0.19289 0.87634 0.19424 0.0
C232 C 0.18157 0.9068 0.28278 0.0
C233 C 0.20717 0.88423 0.30255 0.0
C234 C 0.20295 0.89726 0.34561 0.0
N235 N 0.19363 0.88997 0.26332 0.0
N236 N 0.18692 0.91143 0.33323 0.0
H237 H 0.16917 0.91539 0.26074 0.0
H238 H 0.21956 0.87165 0.3001 0.0
C239 C 0.19946 0.82876 0.22585 0.0
O240 O 0.18231 0.82324 0.19815 0.0
N241 N 0.1933 0.86259 0.12431 0.0
C242 C 0.18434 0.8705 0.07968 0.0
C243 C 0.1909 0.85778 0.03772 0.0
C244 C 0.20607 0.84567 0.10777 0.0
N245 N 0.20458 0.84212 0.05533 0.0
C246 C 0.14751 0.87253 0.17375 0.0
C247 C 0.13583 0.8503 0.26415 0.0
C248 C 0.11963 0.85573 0.22755 0.0
C249 C 0.12582 0.86727 0.18228 0.0
C250 C 0.15753 0.85601 0.25405 0.0
N251 N 0.16328 0.86624 0.20811 0.0
H252 H 0.15133 0.88258 0.14033 0.0
H253 H 0.16966 0.85233 0.28337 0.0
H254 H 0.17472 0.88534 0.07655 0.0
H255 H 0.21732 0.83696 0.13277 0.0
O256 O 0.18554 0.90442 0.1639 0.0
O257 O 0.21915 0.89251 0.17487 0.0
O258 O 0.20619 0.84877 0.22612 0.0
C259 C 0.20613 0.90809 0.15862 0.0
H260 H 0.21147 0.89683 0.38281 0.0
H261 H 0.18626 0.86028 0.99715 0.0
H262 H 0.13184 0.84177 0.30027 0.0
H263 H 0.1139 0.87297 0.15418 0.0
H264 H 0.41844 0.39092 0.27933 0.0
H265 H 0.457 0.38718 0.26221 0.0
H266 H 0.44604 0.32331 0.19122 0.0
H267 H 0.40705 0.32663 0.21037 0.0
H268 H 0.48021 0.32175 0.25626 0.0
H269 H 0.45961 0.36792 0.1151 0.0
H270 H 0.44136 0.39896 0.07073 0.0
H271 H 0.47871 0.44526 0.16123 0.0
H272 H 0.49697 0.41452 0.20677 0.0
H273 H 0.59421 0.32909 0.17715 0.0
H274 H 0.55469 0.32448 0.1758 0.0
H275 H 0.54748 0.3832 0.27051 0.0
H276 H 0.58675 0.38752 0.27372 0.0
H277 H 0.52235 0.3831 0.1769 0.0
H278 H 0.53906 0.33531 0.32493 0.0
H279 H 0.55701 0.3036 0.3673 0.0
H280 H 0.52692 0.25931 0.25719 0.0
H281 H 0.50901 0.29083 0.2137 0.0
C282 C 0.42415 0.37601 0.26017 0.0
C283 C 0.40965 0.35896 0.24671 0.0
C284 C 0.44625 0.374 0.24983 0.0
C285 C 0.45449 0.35507 0.22484 0.0
C286 C 0.44006 0.3381 0.2104 0.0
C287 C 0.41779 0.34009 0.22095 0.0
C288 C 0.47829 0.35304 0.2161 0.0
C289 C 0.48938 0.33492 0.23777 0.0
C290 C 0.49036 0.37025 0.19223 0.0
C291 C 0.47959 0.38887 0.16456 0.0
C292 C 0.46385 0.38472 0.12578 0.0
C293 C 0.45351 0.40227 0.10039 0.0
C294 C 0.45885 0.42407 0.1132 0.0
C295 C 0.47459 0.42837 0.15134 0.0
C296 C 0.48497 0.41088 0.1769 0.0
C297 C 0.58426 0.34074 0.1987 0.0
C298 C 0.59374 0.35883 0.2251 0.0
C299 C 0.56165 0.33816 0.19755 0.0
C300 C 0.54815 0.35363 0.22261 0.0
C301 C 0.55758 0.37122 0.25037 0.0
C302 C 0.58007 0.37368 0.252 0.0
C303 C 0.52416 0.35225 0.21866 0.0
C304 C 0.5131 0.36974 0.19442 0.0
C305 C 0.51217 0.33435 0.23948 0.0
C306 C 0.52293 0.31544 0.26565 0.0
C307 C 0.53644 0.31883 0.30943 0.0
C308 C 0.54657 0.30089 0.33372 0.0
C309 C 0.54317 0.27946 0.31484 0.0
C310 C 0.52958 0.27592 0.27171 0.0
C311 C 0.51943 0.29381 0.24724 0.0
H312 H 0.55102 0.26558 0.33371 0.0
H313 H 0.45081 0.43763 0.09352 0.0
H314 H 0.59042 0.66398 0.85776 0.0
H315 H 0.55132 0.66932 0.8508 0.0
H316 H 0.55553 0.66298 0.68216 0.0
H317 H 0.59493 0.65753 0.68893 0.0
H318 H 0.52569 0.69555 0.71486 0.0
H319 H 0.54166 0.61926 0.75179 0.0
H320 H 0.55862 0.58872 0.80092 0.0
H321 H 0.52467 0.60851 0.94081 0.0
H322 H 0.50777 0.63939 0.89267 0.0
H323 H 0.41865 0.66144 0.65619 0.0
H324 H 0.45746 0.66711 0.66736 0.0
H325 H 0.44949 0.66559 0.8359 0.0
H326 H 0.41046 0.6591 0.82478 0.0
H327 H 0.48133 0.63911 0.80696 0.0
H328 H 0.46316 0.71393 0.76894 0.0
H329 H 0.44633 0.74465 0.72027 0.0
H330 H 0.48398 0.72823 0.58354 0.0
H331 H 0.50082 0.6972 0.63115 0.0
C332 C 0.58307 0.66388 0.81909 0.0
C333 C 0.59572 0.65996 0.77392 0.0
C334 C 0.56072 0.66698 0.81519 0.0
C335 C 0.55043 0.66614 0.76608 0.0
C336 C 0.56314 0.66361 0.7205 0.0
C337 C 0.58563 0.66053 0.72438 0.0
C338 C 0.52635 0.66637 0.76304 0.0
C339 C 0.51595 0.6831 0.73448 0.0
C340 C 0.51365 0.65046 0.78987 0.0
C341 C 0.52363 0.63177 0.81876 0.0
C342 C 0.53794 0.6172 0.79313 0.0
C343 C 0.54753 0.59982 0.82078 0.0
C344 C 0.54277 0.59671 0.87399 0.0
C345 C 0.52837 0.61095 0.89962 0.0
C346 C 0.51877 0.62839 0.87216 0.0
C347 C 0.42511 0.66246 0.69572 0.0
C348 C 0.41147 0.65959 0.73962 0.0
C349 C 0.44732 0.66595 0.70205 0.0
C350 C 0.45648 0.66696 0.75248 0.0
C351 C 0.44281 0.66492 0.79656 0.0
C352 C 0.42048 0.66138 0.79021 0.0
C353 C 0.48048 0.66832 0.75866 0.0
C354 C 0.49095 0.65176 0.7877 0.0
C355 C 0.49318 0.68442 0.73232 0.0
C356 C 0.48313 0.70312 0.70354 0.0
C357 C 0.46773 0.71676 0.72837 0.0
C358 C 0.45821 0.73425 0.70099 0.0
C359 C 0.46405 0.73837 0.64881 0.0
C360 C 0.47946 0.72502 0.62395 0.0
C361 C 0.48902 0.70749 0.65114 0.0
H362 H 0.45666 0.75192 0.62768 0.0
H363 H 0.5502 0.58324 0.89533 0.0
H364 H 0.08942 0.8428 0.15491 0.0
H365 H 0.05027 0.8398 0.16652 0.0
H366 H 0.05728 0.85327 0.33209 0.0
H367 H 0.09659 0.85718 0.32061 0.0
H368 H 0.02592 0.81774 0.30248 0.0
H369 H 0.04379 0.89397 0.26524 0.0
H370 H 0.06127 0.9237 0.21428 0.0
H371 H 0.02542 0.90442 0.07699 0.0
H372 H 0.00798 0.87432 0.12697 0.0
H373 H 0.91827 0.84923 0.36339 0.0
H374 H 0.95724 0.84514 0.35304 0.0
H375 H 0.9506 0.85177 0.18494 0.0
H376 H 0.91159 0.85743 0.19534 0.0
H377 H 0.98235 0.87593 0.21487 0.0
H378 H 0.96325 0.80095 0.24903 0.0
H379 H 0.94617 0.76984 0.29598 0.0
H380 H 0.98404 0.78446 0.43329 0.0
H381 H 1.00114 0.81586 0.3874 0.0
C382 C 0.08272 0.84516 0.19391 0.0
C383 C 0.09622 0.85064 0.23666 0.0
C384 C 0.06032 0.84327 0.20047 0.0
C385 C 0.05087 0.84654 0.25001 0.0
C386 C 0.0643 0.85067 0.29349 0.0
C387 C 0.08679 0.85282 0.28687 0.0
C388 C 0.0269 0.84717 0.25529 0.0
C389 C 0.01633 0.83058 0.28397 0.0
C390 C 0.01444 0.86354 0.22966 0.0
C391 C 0.02476 0.88176 0.1997 0.0
C392 C 0.03978 0.89595 0.22407 0.0
C393 C 0.04965 0.91288 0.19538 0.0
C394 C 0.04451 0.9159 0.14239 0.0
C395 C 0.02942 0.90203 0.11802 0.0
C396 C 0.01952 0.88504 0.14651 0.0
C397 C 0.92502 0.84995 0.32411 0.0
C398 C 0.91165 0.85391 0.28026 0.0
C399 C 0.94739 0.84724 0.31819 0.0
C400 C 0.957 0.84787 0.26812 0.0
C401 C 0.94364 0.85118 0.22404 0.0
C402 C 0.92124 0.85418 0.23 0.0
C403 C 0.98104 0.84641 0.2622 0.0
C404 C 0.99175 0.86293 0.23335 0.0
C405 C 0.99356 0.82978 0.28716 0.0
C406 C 0.98334 0.81089 0.3149 0.0
C407 C 0.96782 0.79764 0.28937 0.0
C408 C 0.95815 0.77993 0.31577 0.0
C409 C 0.96398 0.77521 0.36762 0.0
C410 C 0.97952 0.78815 0.39314 0.0
C411 C 0.98923 0.80589 0.36693 0.0
H412 H 0.95648 0.7615 0.38799 0.0
H413 H 0.05217 0.92903 0.12025 0.0
H414 H 0.08891 0.16187 0.85828 0.0
H415 H 0.04981 0.16748 0.85291 0.0
H416 H 0.0531 0.16316 0.68381 0.0
H417 H 0.09252 0.15741 0.68898 0.0
H418 H 0.02329 0.19543 0.72045 0.0
H419 H 0.03979 0.1187 0.74935 0.0
H420 H 0.05722 0.08741 0.79465 0.0
H421 H 0.02424 0.10457 0.93782 0.0
H422 H 0.00687 0.1362 0.89353 0.0
H423 H 0.91617 0.16117 0.66281 0.0
H424 H 0.95502 0.16691 0.67304 0.0
H425 H 0.94799 0.16371 0.84168 0.0
H426 H 0.90887 0.15731 0.83144 0.0
H427 H 0.97979 0.13733 0.80906 0.0
H428 H 0.96102 0.21261 0.77853 0.0
H429 H 0.94372 0.24398 0.73327 0.0
H430 H 0.98054 0.22993 0.59376 0.0
H431 H 0.99785 0.19827 0.63793 0.0
C432 C 0.08137 0.16232 0.81986 0.0
C433 C 0.09375 0.15883 0.77406 0.0
C434 C 0.05902 0.16557 0.81687 0.0
C435 C 0.04848 0.16534 0.76805 0.0
C436 C 0.06092 0.16332 0.72192 0.0
C437 C 0.08342 0.16007 0.72489 0.0
C438 C 0.02439 0.16549 0.76587 0.0
C439 C 0.01374 0.18263 0.7393 0.0
C440 C 0.01194 0.14909 0.79168 0.0
C441 C 0.0222 0.12995 0.81827 0.0
C442 C 0.03638 0.11591 0.7906 0.0
C443 C 0.04624 0.0981 0.81607 0.0
C444 C 0.04189 0.09404 0.86912 0.0
C445 C 0.02762 0.10775 0.89675 0.0
C446 C 0.01776 0.12562 0.87148 0.0
C447 C 0.92284 0.16185 0.70216 0.0
C448 C 0.90947 0.15857 0.74634 0.0
C449 C 0.94507 0.16537 0.70797 0.0
C450 C 0.9545 0.16592 0.75814 0.0
C451 C 0.94108 0.16341 0.80254 0.0
C452 C 0.91872 0.1599 0.79672 0.0
C453 C 0.97851 0.16731 0.76356 0.0
C454 C 0.98923 0.15033 0.7906 0.0
C455 C 0.99096 0.18387 0.73816 0.0
C456 C 0.98062 0.20294 0.71145 0.0
C457 C 0.96531 0.2161 0.73806 0.0
C458 C 0.95553 0.23395 0.71263 0.0
C459 C 0.961 0.23892 0.66064 0.0
C460 C 0.97631 0.22606 0.63402 0.0
C461 C 0.98614 0.20817 0.65927 0.0
H462 H 0.9534 0.25275 0.64102 0.0
H463 H 0.04953 0.08024 0.88877 0.0
H464 H 0.28847 0.55719 0.8413 0.0
H465 H 0.29537 0.52861 0.90688 0.0
H466 H 0.35993 0.55416 0.93022 0.0
H467 H 0.353 0.58285 0.86322 0.0
H468 H 0.3567 0.5062 0.93753 0.0
H469 H 0.32431 0.57054 0.01319 0.0
H470 H 0.29815 0.60128 0.01801 0.0
H471 H 0.2456 0.55495 0.02931 0.0
H472 H 0.27142 0.52391 0.02364 0.0
H473 H 0.35012 0.43835 0.17343 0.0
H474 H 0.35768 0.47052 0.11692 0.0
H475 H 0.2912 0.47003 0.0644 0.0
H476 H 0.28352 0.43897 0.12143 0.0
H477 H 0.30328 0.51062 0.08325 0.0
H478 H 0.3353 0.44702 0.9913 0.0
H479 H 0.36115 0.416 0.98485 0.0
H480 H 0.41437 0.46093 0.00595 0.0
H481 H 0.38878 0.49219 0.01297 0.0
C482 C 0.30428 0.55641 0.85966 0.0
C483 C 0.32013 0.57229 0.84776 0.0
C484 C 0.30822 0.54012 0.89714 0.0
C485 C 0.32801 0.53952 0.9243 0.0
C486 C 0.34452 0.55438 0.90989 0.0
C487 C 0.3406 0.57069 0.87168 0.0
C488 C 0.33016 0.5247 0.9707 0.0
C489 C 0.34533 0.50739 0.96998 0.0
C490 C 0.3154 0.52626 0.01322 0.0
C491 C 0.29982 0.54489 0.01777 0.0
C492 C 0.30717 0.5669 0.01644 0.0
C493 C 0.2924 0.58438 0.01932 0.0
C494 C 0.27023 0.58007 0.02392 0.0
C495 C 0.26278 0.55826 0.02577 0.0
C496 C 0.27749 0.54072 0.0228 0.0
C497 C 0.33714 0.44534 0.15022 0.0
C498 C 0.3163 0.43584 0.15142 0.0
C499 C 0.3415 0.46359 0.11759 0.0
C500 C 0.32507 0.47259 0.08571 0.0
C501 C 0.3042 0.46344 0.08831 0.0
C502 C 0.29987 0.44543 0.12068 0.0
C503 C 0.32901 0.49135 0.04884 0.0
C504 C 0.315 0.5096 0.05149 0.0
C505 C 0.34483 0.49058 0.00835 0.0
C506 C 0.36015 0.47187 1.0032 0.0
C507 C 0.35251 0.45025 0.99479 0.0
C508 C 0.36711 0.43264 0.991 0.0
C509 C 0.38938 0.43648 0.99514 0.0
C510 C 0.39711 0.45797 1.00283 0.0
C511 C 0.38257 0.47564 0.00666 0.0
H512 H 0.40066 0.42283 0.9923 0.0
H513 H 0.25881 0.59363 0.0261 0.0
H514 H 0.71098 0.42511 0.4224 0.0
H515 H 0.70138 0.45294 0.48728 0.0
H516 H 0.6524 0.47866 0.38307 0.0
H517 H 0.66269 0.4511 0.31643 0.0
H518 H 0.67533 0.51147 0.42261 0.0
H519 H 0.63851 0.45078 0.49795 0.0
H520 H 0.63295 0.41259 0.52881 0.0
H521 H 0.68339 0.42102 0.64331 0.0
H522 H 0.6895 0.45916 0.61265 0.0
H523 H 0.65463 0.58757 0.63523 0.0
H524 H 0.64617 0.55677 0.57473 0.0
H525 H 0.70372 0.52265 0.62635 0.0
H526 H 0.71226 0.55354 0.68543 0.0
H527 H 0.6667 0.49449 0.61231 0.0
H528 H 0.70726 0.55243 0.52191 0.0
H529 H 0.71254 0.5906 0.49047 0.0
H530 H 0.6529 0.58684 0.40396 0.0
H531 H 0.64712 0.54872 0.4356 0.0
C532 C 0.69816 0.43665 0.41304 0.0
C533 C 0.68777 0.43596 0.36386 0.0
C534 C 0.69245 0.45242 0.45065 0.0
C535 C 0.67593 0.46779 0.44059 0.0
C536 C 0.66512 0.46691 0.39194 0.0
C537 C 0.67091 0.45106 0.354 0.0
C538 C 0.67127 0.48554 0.47982 0.0
C539 C 0.67282 0.50771 0.46386 0.0
C540 C 0.66817 0.48078 0.5339 0.0
C541 C 0.66452 0.45785 0.55279 0.0
C542 C 0.64852 0.44446 0.5295 0.0
C543 C 0.64526 0.42282 0.54699 0.0
C544 C 0.65783 0.41438 0.58796 0.0
C545 C 0.67366 0.42759 0.61159 0.0
C546 C 0.677 0.44924 0.59423 0.0
C547 C 0.66506 0.57319 0.63429 0.0
C548 C 0.68399 0.5727 0.66481 0.0
C549 C 0.66034 0.55572 0.59973 0.0
C550 C 0.67437 0.53745 0.59597 0.0
C551 C 0.69262 0.5365 0.62877 0.0
C552 C 0.69751 0.55408 0.6624 0.0
C553 C 0.6714 0.52015 0.55504 0.0
C554 C 0.66852 0.49813 0.57079 0.0
C555 C 0.67309 0.52503 0.50078 0.0
C556 C 0.67661 0.54788 0.48169 0.0
C557 C 0.69517 0.55983 0.49659 0.0
C558 C 0.69828 0.58143 0.47866 0.0
C559 C 0.68303 0.59117 0.44539 0.0
C560 C 0.66467 0.5793 0.42985 0.0
C561 C 0.66147 0.5577 0.44777 0.0
H562 H 0.68546 0.60789 0.43151 0.0
H563 H 0.65528 0.39762 0.60143 0.0
H564 H 0.68489 0.58418 0.93867 0.0
H565 H 0.69632 0.55162 0.98727 0.0
H566 H 0.75838 0.55321 0.90918 0.0
H567 H 0.74699 0.5865 0.86026 0.0
H568 H 0.73592 0.50988 0.91067 0.0
H569 H 0.76085 0.56471 0.02925 0.0
H570 H 0.75933 0.59942 0.08011 0.0
H571 H 0.70429 0.57518 0.16594 0.0
H572 H 0.70523 0.54046 0.11503 0.0
H573 H 0.7449 0.41599 0.09196 0.0
H574 H 0.75635 0.45002 0.04591 0.0
H575 H 0.69591 0.48109 0.0886 0.0
H576 H 0.68445 0.44765 0.13324 0.0
H577 H 0.7317 0.50842 0.10548 0.0
H578 H 0.70155 0.4595 0.97023 0.0
H579 H 0.70116 0.42522 0.91752 0.0
H580 H 0.76573 0.43879 0.8631 0.0
H581 H 0.76658 0.47304 0.91612 0.0
C582 C 0.70106 0.57778 0.93198 0.0
C583 C 0.71506 0.58791 0.89566 0.0
C584 C 0.7076 0.55917 0.95995 0.0
C585 C 0.72823 0.55002 0.95207 0.0
C586 C 0.74241 0.56007 0.91593 0.0
C587 C 0.73595 0.5791 0.88831 0.0
C588 C 0.73408 0.52959 0.98118 0.0
C589 C 0.73576 0.50959 0.95333 0.0
C590 C 0.73365 0.52918 0.03681 0.0
C591 C 0.7331 0.54995 0.06814 0.0
C592 C 0.74834 0.56681 0.05875 0.0
C593 C 0.74758 0.5865 0.08762 0.0
C594 C 0.73172 0.58951 0.12621 0.0
C595 C 0.71659 0.57282 0.13607 0.0
C596 C 0.71725 0.55311 0.10727 0.0
C597 C 0.73419 0.43016 0.09155 0.0
C598 C 0.71373 0.42908 0.1159 0.0
C599 C 0.74071 0.44955 0.06528 0.0
C600 C 0.72698 0.46814 0.06395 0.0
C601 C 0.70683 0.46707 0.0893 0.0
C602 C 0.70024 0.4478 0.11455 0.0
C603 C 0.73262 0.4887 0.03495 0.0
C604 C 0.73289 0.50875 0.06293 0.0
C605 C 0.73481 0.48913 0.97954 0.0
C606 C 0.73426 0.46862 0.94768 0.0
C607 C 0.71574 0.45506 0.9474 0.0
C608 C 0.71541 0.43567 0.9174 0.0
C609 C 0.73344 0.42978 0.88714 0.0
C610 C 0.7518 0.44333 0.88668 0.0
C611 C 0.75222 0.46273 0.91669 0.0
H612 H 0.73316 0.41477 0.86393 0.0
H613 H 0.73115 0.60477 0.14849 0.0
H614 H 0.25993 0.42507 0.36202 0.0
H615 H 0.24994 0.45816 0.41382 0.0
H616 H 0.31501 0.46145 0.47521 0.0
H617 H 0.32501 0.42912 0.42384 0.0
H618 H 0.28349 0.4671 0.55263 0.0
H619 H 0.30141 0.49335 0.37634 0.0
H620 H 0.29594 0.4954 0.2804 0.0
H621 H 0.23092 0.51865 0.30456 0.0
H622 H 0.23593 0.51642 0.40074 0.0
H623 H 0.32699 0.56774 0.61682 0.0
H624 H 0.31603 0.53427 0.57142 0.0
H625 H 0.25056 0.5587 0.5603 0.0
H626 H 0.26154 0.59285 0.60671 0.0
H627 H 0.26911 0.53839 0.463 0.0
H628 H 0.25633 0.52065 0.64263 0.0
H629 H 0.26483 0.52021 0.73734 0.0
H630 H 0.32173 0.48138 0.70684 0.0
H631 H 0.31381 0.48191 0.61184 0.0
C632 C 0.27197 0.43285 0.38689 0.0
C633 C 0.29327 0.42459 0.38862 0.0
C634 C 0.26629 0.45173 0.41632 0.0
C635 C 0.28175 0.46226 0.44844 0.0
C636 C 0.30278 0.45358 0.45098 0.0
C637 C 0.3085 0.43513 0.42123 0.0
C638 C 0.27688 0.48281 0.4785 0.0
C639 C 0.28007 0.48265 0.53315 0.0
C640 C 0.27191 0.50303 0.45331 0.0
C641 C 0.26893 0.5044 0.39562 0.0
C642 C 0.28588 0.49869 0.36117 0.0
C643 C 0.28288 0.49992 0.30677 0.0
C644 C 0.26306 0.50707 0.28639 0.0
C645 C 0.24623 0.51306 0.3204 0.0
C646 C 0.24914 0.5118 0.37484 0.0
C647 C 0.31021 0.56618 0.60485 0.0
C648 C 0.29511 0.583 0.61563 0.0
C649 C 0.30397 0.54693 0.57888 0.0
C650 C 0.28246 0.54388 0.56286 0.0
C651 C 0.26725 0.56073 0.57251 0.0
C652 C 0.27351 0.58014 0.59914 0.0
C653 C 0.2765 0.52271 0.53677 0.0
C654 C 0.27151 0.52274 0.48292 0.0
C655 C 0.27992 0.5023 0.56263 0.0
C656 C 0.28447 0.50136 0.61999 0.0
C657 C 0.2707 0.51208 0.65607 0.0
C658 C 0.27542 0.51182 0.70983 0.0
C659 C 0.29381 0.50078 0.72809 0.0
C660 C 0.30747 0.48991 0.69264 0.0
C661 C 0.30285 0.49015 0.63882 0.0
H662 H 0.29746 0.50065 0.76972 0.0
H663 H 0.26078 0.50803 0.24427 0.0
H664 H 0.84932 0.08305 0.86516 0.0
H665 H 0.85666 0.05349 0.92941 0.0
H666 H 0.79363 0.02544 0.89788 0.0
H667 H 0.78627 0.05508 0.83542 0.0
H668 H 0.79856 0.03059 0.99901 0.0
H669 H 0.84237 1.00106 0.8573 0.0
H670 H 0.87179 1.00196 0.79157 0.0
H671 H 0.91863 0.01131 0.91442 0.0
H672 H 0.88943 0.01075 0.98086 0.0
H673 H 0.79289 0.92396 0.08752 0.0
H674 H 0.7994 0.95498 0.02991 0.0
H675 H 0.85543 0.97346 0.12102 0.0
H676 H 0.84946 0.9414 0.17894 0.0
H677 H 0.85968 0.97732 1.00316 0.0
H678 H 0.8137 1.00037 0.14553 0.0
H679 H 0.78317 0.99395 0.20606 0.0
H680 H 0.73874 0.99469 0.07619 0.0
H681 H 0.76914 1.00029 0.01458 0.0
C682 C 0.83735 0.07023 0.87138 0.0
C683 C 0.81721 0.07131 0.84579 0.0
C684 C 0.84148 0.0534 0.9081 0.0
C685 C 0.82561 0.03728 0.91895 0.0
C686 C 0.80602 0.03779 0.89089 0.0
C687 C 0.80184 0.05464 0.85501 0.0
C688 C 0.82838 0.02061 0.96155 0.0
C689 C 0.81197 0.01899 0.99972 0.0
C690 C 0.84618 1.00582 0.96384 0.0
C691 C 0.8637 1.00615 0.92396 0.0
C692 C 0.85893 1.00351 0.87025 0.0
C693 C 0.87556 1.00391 0.83288 0.0
C694 C 0.89705 0.00677 0.84879 0.0
C695 C 0.90196 0.00915 0.90214 0.0
C696 C 0.88538 0.00878 0.93967 0.0
C697 C 0.80694 0.93414 0.09515 0.0
C698 C 0.8207 0.92994 0.13815 0.0
C699 C 0.81056 0.95206 0.06204 0.0
C700 C 0.82783 0.96659 0.07119 0.0
C701 C 0.84202 0.96237 0.11318 0.0
C702 C 0.83844 0.94421 0.14659 0.0
C703 C 0.82947 0.98697 0.03885 0.0
C704 C 0.84663 0.98933 1.00297 0.0
C705 C 0.81223 1.00238 0.03808 0.0
C706 C 0.79375 1.00065 0.07538 0.0
C707 C 0.79743 0.99913 0.12984 0.0
C708 C 0.78014 0.99556 0.16434 0.0
C709 C 0.75901 0.9939 0.14498 0.0
C710 C 0.75512 0.99597 0.09111 0.0
C711 C 0.77239 0.99931 0.05636 0.0
H712 H 0.74565 0.991 0.1717 0.0
H713 H 0.90991 0.00707 0.81981 0.0
H714 H 0.18132 0.09235 0.57609 0.0
H715 H 0.17366 0.06058 0.51944 0.0
H716 H 0.16546 0.0195 0.65647 0.0
H717 H 0.17307 0.05152 0.71343 0.0
H718 H 0.19556 1.00315 0.58479 0.0
H719 H 0.12266 0.02981 0.58079 0.0
H720 H 0.09379 0.05756 0.56962 0.0
H721 H 0.11288 0.06712 0.40883 0.0
H722 H 0.14209 0.03965 0.41923 0.0
H723 H 0.17774 0.90788 0.43617 0.0
H724 H 0.17003 0.93808 0.49745 0.0
H725 H 0.17128 0.98447 0.36877 0.0
H726 H 0.17831 0.95392 0.30705 0.0
H727 H 0.14185 0.9971 0.44034 0.0
H728 H 0.21641 0.97513 0.44465 0.0
H729 H 0.24698 0.94913 0.45296 0.0
H730 H 0.2269 0.93312 0.61008 0.0
H731 H 0.196 0.9588 0.6024 0.0
C732 C 0.17746 0.07662 0.59407 0.0
C733 C 0.17785 0.07433 0.64906 0.0
C734 C 0.17297 0.05851 0.56172 0.0
C735 C 0.16892 0.03765 0.58366 0.0
C736 C 0.16845 0.03547 0.63872 0.0
C737 C 0.17266 0.05374 0.67121 0.0
C738 C 0.16751 0.01789 0.54891 0.0
C739 C 0.18349 1.00156 0.554 0.0
C740 C 0.1523 0.01629 0.50741 0.0
C741 C 0.13469 0.03277 0.50094 0.0
C742 C 0.12083 0.03795 0.54316 0.0
C743 C 0.10438 0.05361 0.53695 0.0
C744 C 0.10153 0.06413 0.48858 0.0
C745 C 0.11511 0.05897 0.44629 0.0
C746 C 0.1316 0.04333 0.45231 0.0
C747 C 0.17596 0.92449 0.42096 0.0
C748 C 0.17882 0.92866 0.36709 0.0
C749 C 0.17163 0.94175 0.45595 0.0
C750 C 0.17064 0.96367 0.43802 0.0
C751 C 0.17209 0.96772 0.38365 0.0
C752 C 0.17607 0.95031 0.34838 0.0
C753 C 0.16988 0.98232 0.47638 0.0
C754 C 0.15368 0.99852 0.47168 0.0
C755 C 0.18513 0.98407 0.51788 0.0
C756 C 0.20376 0.9687 0.52274 0.0
C757 C 0.21843 0.96594 0.48083 0.0
C758 C 0.23582 0.95128 0.48544 0.0
C759 C 0.23885 0.93943 0.53196 0.0
C760 C 0.22451 0.94227 0.57403 0.0
C761 C 0.20706 0.95689 0.56958 0.0
H762 H 0.25233 0.92808 0.53546 0.0
H763 H 0.08878 0.07625 0.48385 0.0
H764 H 0.1798 0.07794 0.92613 0.0
H765 H 0.19073 0.04655 0.97929 0.0
H766 H 0.25572 0.05116 0.91779 0.0
H767 H 0.24483 0.08335 0.86415 0.0
H768 H 0.2342 1.00564 0.91957 0.0
H769 H 0.25335 0.06526 0.0331 0.0
H770 H 0.24818 0.10121 0.07722 0.0
H771 H 0.1917 0.07616 0.15598 0.0
H772 H 0.19631 0.04017 0.11166 0.0
H773 H 0.24528 0.91713 0.11009 0.0
H774 H 0.25504 0.95113 0.06214 0.0
H775 H 0.19331 0.97972 0.10391 0.0
H776 H 0.18361 0.94623 0.15117 0.0
H777 H 0.22553 0.0098 0.11336 0.0
H778 H 0.2012 0.95503 0.98586 0.0
H779 H 0.20343 0.91927 0.93936 0.0
H780 H 0.26755 0.93534 0.8857 0.0
H781 H 0.2658 0.97108 0.93264 0.0
C782 C 0.19647 0.0724 0.92369 0.0
C783 C 0.21145 0.08316 0.89079 0.0
C784 C 0.20269 0.05443 0.95431 0.0
C785 C 0.22403 0.04654 0.95269 0.0
C786 C 0.23915 0.05703 0.91962 0.0
C787 C 0.23296 0.07543 0.88925 0.0
C788 C 0.22982 0.02727 0.98607 0.0
C789 C 0.23305 0.0066 0.96209 0.0
C790 C 0.22787 0.02847 0.04145 0.0
C791 C 0.22516 0.05001 0.06886 0.0
C792 C 0.23975 0.06745 0.05958 0.0
C793 C 0.23692 0.08784 0.08466 0.0
C794 C 0.21961 0.09097 0.11935 0.0
C795 C 0.20512 0.0737 0.12912 0.0
C796 C 0.20785 0.05329 0.10409 0.0
C797 C 0.23399 0.93084 0.10956 0.0
C798 C 0.21364 0.92897 0.13416 0.0
C799 C 0.23952 0.9502 0.08199 0.0
C800 C 0.22485 0.96799 0.07915 0.0
C801 C 0.20494 0.96632 0.10556 0.0
C802 C 0.19937 0.94706 0.13241 0.0
C803 C 0.22922 0.98805 0.04682 0.0
C804 C 0.22764 0.00888 0.07105 0.0
C805 C 0.2325 0.98695 0.9917 0.0
C806 C 0.2335 0.96555 0.96334 0.0
C807 C 0.21584 0.95084 0.96453 0.0
C808 C 0.21701 0.9306 0.93804 0.0
C809 C 0.23565 0.925 0.90975 0.0
C810 C 0.25315 0.93967 0.90776 0.0
C811 C 0.25208 0.95991 0.93431 0.0
H812 H 0.23652 0.90932 0.88925 0.0
H813 H 0.21745 0.10677 0.13871 0.0
H814 H 0.76288 0.08131 0.65123 0.0
H815 H 0.75363 0.04792 0.59979 0.0
H816 H 0.81096 0.05724 0.50518 0.0
H817 H 0.82048 0.08985 0.55698 0.0
H818 H 0.77138 0.04668 0.44733 0.0
H819 H 0.81494 0.02301 0.59707 0.0
H820 H 0.82194 0.0196 0.69218 0.0
H821 H 0.76218 0.98409 0.71162 0.0
H822 H 0.75467 0.98763 0.61665 0.0
H823 H 0.81669 0.9512 0.33612 0.0
H824 H 0.8066 0.98499 0.38277 0.0
H825 H 0.75409 0.9504 0.45875 0.0
H826 H 0.76397 0.91637 0.41076 0.0
H827 H 0.78089 0.97304 0.52962 0.0
H828 H 0.74072 0.99017 0.3776 0.0
H829 H 0.73046 0.99659 0.28522 0.0
H830 H 0.78085 0.04515 0.27041 0.0
H831 H 0.79167 0.03881 0.36244 0.0
C832 C 0.77324 0.07634 0.6189 0.0
C833 C 0.79236 0.08811 0.60794 0.0
C834 C 0.76804 0.05726 0.58979 0.0
C835 C 0.78166 0.0501 0.54872 0.0
C836 C 0.80021 0.06247 0.53656 0.0
C837 C 0.80564 0.08108 0.56624 0.0
C838 C 0.77752 0.02926 0.51927 0.0
C839 C 0.77344 0.03054 0.46517 0.0
C840 C 0.77945 0.00823 0.54307 0.0
C841 C 0.7841 1.00586 0.59994 0.0
C842 C 0.8032 0.01467 0.62172 0.0
C843 C 0.80728 0.01268 0.67557 0.0
C844 C 0.79247 1.00171 0.70797 0.0
C845 C 0.7736 0.99263 0.68651 0.0
C846 C 0.76943 0.99463 0.63267 0.0
C847 C 0.80271 0.95089 0.36194 0.0
C848 C 0.79107 0.93119 0.3697 0.0
C849 C 0.7969 0.97024 0.3885 0.0
C850 C 0.77952 0.97033 0.42419 0.0
C851 C 0.7675 0.95077 0.43121 0.0
C852 C 0.77305 0.9314 0.4036 0.0
C853 C 0.77548 0.99042 0.45686 0.0
C854 C 0.77822 0.98906 0.51167 0.0
C855 C 0.77222 0.01143 0.43368 0.0
C856 C 0.76703 0.01397 0.37702 0.0
C857 C 0.74985 1.00197 0.35445 0.0
C858 C 0.74385 1.00568 0.30221 0.0
C859 C 0.75487 0.02141 0.27219 0.0
C860 C 0.77223 0.03309 0.29389 0.0
C861 C 0.7783 0.02944 0.34608 0.0
H862 H 0.74995 0.0246 0.23212 0.0
H863 H 0.79565 1.0002 0.74966 0.0
H864 H 0.32532 0.29032 0.23686 0.0
H865 H 0.30764 0.26313 0.17966 0.0
H866 H 0.24862 0.30122 0.18434 0.0
H867 H 0.26632 0.32876 0.24073 0.0
H868 H 0.24385 0.25367 0.20234 0.0
H869 H 0.27613 0.3052 0.08049 0.0
H870 H 0.30632 0.32677 0.04299 0.0
H871 H 0.34077 0.26679 0.00845 0.0
H872 H 0.31091 0.24486 0.04657 0.0
H873 H 0.18268 0.20404 1.00234 0.0
H874 H 0.20226 0.23036 0.05735 0.0
H875 H 0.26272 0.19899 0.01573 0.0
H876 H 0.24302 0.17282 0.95918 0.0
H877 H 0.26831 0.24195 0.01837 0.0
H878 H 0.23733 0.18993 0.13696 0.0
H879 H 0.20856 0.16709 0.17671 0.0
H880 H 0.17367 0.22566 0.22098 0.0
H881 H 0.20209 0.24887 0.1808 0.0
C882 C 0.30855 0.29288 0.22595 0.0
C883 C 0.29721 0.31171 0.24339 0.0
C884 C 0.29851 0.27736 0.19308 0.0
C885 C 0.27686 0.28021 0.17762 0.0
C886 C 0.26535 0.29873 0.19582 0.0
C887 C 0.2755 0.31447 0.22792 0.0
C888 C 0.26624 0.26389 0.14225 0.0
C889 C 0.249 0.25126 0.16191 0.0
C890 C 0.27349 0.26025 0.09013 0.0
C891 C 0.2914 0.2734 0.06694 0.0
C892 C 0.29024 0.29662 0.06537 0.0
C893 C 0.30727 0.30891 0.04391 0.0
C894 C 0.32548 0.29816 0.02349 0.0
C895 C 0.32667 0.27509 0.02437 0.0
C896 C 0.30969 0.26272 0.04588 0.0
C897 C 0.20014 0.20266 0.00508 0.0
C898 C 0.21128 0.18615 0.977 0.0
C899 C 0.21135 0.21772 0.03665 0.0
C900 C 0.23397 0.21639 0.0419 0.0
C901 C 0.24526 0.2003 0.01267 0.0
C902 C 0.23402 0.18536 0.98036 0.0
C903 C 0.24564 0.23176 0.07816 0.0
C904 C 0.26314 0.24422 0.0588 0.0
C905 C 0.23884 0.23502 0.13094 0.0
C906 C 0.22176 0.22113 0.15547 0.0
C907 C 0.22345 0.19794 0.15486 0.0
C908 C 0.20722 0.18493 0.17751 0.0
C909 C 0.18928 0.19492 0.20126 0.0
C910 C 0.18756 0.21795 0.20252 0.0
C911 C 0.20374 0.23104 0.17987 0.0
H912 H 0.17672 0.18481 0.21877 0.0
H913 H 0.33865 0.3077 0.00687 0.0
H914 H 0.70337 0.72694 0.79784 0.0
H915 H 0.72083 0.75414 0.74104 0.0
H916 H 0.74034 0.70211 0.63472 0.0
H917 H 0.7236 0.67469 0.69268 0.0
H918 H 0.77185 0.72961 0.6423 0.0
H919 H 0.69653 0.73837 0.6088 0.0
H920 H 0.65785 0.7438 0.62964 0.0
H921 H 0.67227 0.80697 0.6986 0.0
H922 H 0.7111 0.80178 0.67884 0.0
H923 H 0.79509 0.8042 0.43004 0.0
H924 H 0.77766 0.77567 0.48395 0.0
H925 H 0.77003 0.82266 0.61034 0.0
H926 H 0.78749 0.85121 0.55665 0.0
H927 H 0.73211 0.79715 0.58843 0.0
H928 H 0.80879 0.78625 0.61952 0.0
H929 H 0.84661 0.77972 0.5921 0.0
H930 H 0.82783 0.71879 0.51811 0.0
H931 H 0.78982 0.72512 0.54448 0.0
C932 C 0.71138 0.72127 0.76237 0.0
C933 C 0.71197 0.69864 0.74969 0.0
C934 C 0.72128 0.73689 0.72966 0.0
C935 C 0.73157 0.73034 0.68277 0.0
C936 C 0.73248 0.70768 0.67048 0.0
C937 C 0.72286 0.69199 0.70365 0.0
C938 C 0.74147 0.74713 0.64692 0.0
C939 C 0.76299 0.74419 0.62999 0.0
C940 C 0.73011 0.76636 0.63088 0.0
C941 C 0.70676 0.76958 0.64278 0.0
C942 C 0.69148 0.75335 0.62876 0.0
C943 C 0.66952 0.75639 0.64033 0.0
C944 C 0.66261 0.77569 0.66554 0.0
C945 C 0.67765 0.79201 0.67913 0.0
C946 C 0.69963 0.78904 0.66772 0.0
C947 C 0.78959 0.80847 0.4692 0.0
C948 C 0.79272 0.82995 0.48912 0.0
C949 C 0.77974 0.79213 0.50006 0.0
C950 C 0.77265 0.797 0.5513 0.0
C951 C 0.77542 0.81852 0.57096 0.0
C952 C 0.78553 0.83478 0.54039 0.0
C953 C 0.76241 0.77965 0.58455 0.0
C954 C 0.74085 0.7825 0.60081 0.0
C955 C 0.77356 0.76015 0.59902 0.0
C956 C 0.79643 0.75627 0.58351 0.0
C957 C 0.8127 0.77155 0.59703 0.0
C958 C 0.83417 0.76787 0.58175 0.0
C959 C 0.83961 0.74888 0.55326 0.0
C960 C 0.82359 0.7335 0.54012 0.0
C961 C 0.80208 0.73712 0.55526 0.0
H962 H 0.85625 0.74606 0.54146 0.0
H963 H 0.6456 0.77802 0.67445 0.0
H964 H 0.21976 0.8021 0.08744 0.0
H965 H 0.2372 0.77373 0.03299 0.0
H966 H 0.23224 0.81635 0.89776 0.0
H967 H 0.215 0.84464 0.95171 0.0
H968 H 0.21908 0.77615 0.87322 0.0
H969 H 0.27973 0.8073 0.96434 0.0
H970 H 0.30207 0.81831 0.04026 0.0
H971 H 0.30677 0.75052 0.08851 0.0
H972 H 0.28372 0.73917 0.01413 0.0
H973 H 0.29606 0.72363 0.69974 0.0
H974 H 0.27788 0.74999 0.75868 0.0
H975 H 0.27228 0.6994 0.8771 0.0
H976 H 0.28981 0.67281 0.81785 0.0
H977 H 0.29018 0.74178 0.91245 0.0
H978 H 0.23055 0.71082 0.81859 0.0
H979 H 0.20839 0.70015 0.74216 0.0
H980 H 0.20216 0.76834 0.6982 0.0
H981 H 0.2251 0.77938 0.77302 0.0
C982 C 0.22262 0.80553 0.04627 0.0
C983 C 0.21581 0.82568 0.02404 0.0
C984 C 0.23258 0.78926 0.0151 0.0
C985 C 0.23611 0.79286 0.96112 0.0
C986 C 0.22958 0.81306 0.93913 0.0
C987 C 0.21962 0.82925 0.97013 0.0
C988 C 0.24605 0.77552 0.92687 0.0
C989 C 0.23478 0.76887 0.8815 0.0
C990 C 0.26626 0.7655 0.93837 0.0
C991 C 0.27968 0.77241 0.98399 0.0
C992 C 0.28519 0.79476 0.99163 0.0
C993 C 0.29799 0.80108 0.03444 0.0
C994 C 0.30569 0.78515 0.06946 0.0
C995 C 0.30064 0.76287 0.06165 0.0
C996 C 0.28764 0.7565 0.01927 0.0
C997 C 0.29086 0.71812 0.73826 0.0
C998 C 0.29433 0.69615 0.75415 0.0
C999 C 0.28045 0.73317 0.77182 0.0
C1000 C 0.27374 0.72665 0.82228 0.0
C1001 C 0.27732 0.70477 0.83835 0.0
C1002 C 0.28724 0.68958 0.80435 0.0
C1003 C 0.26333 0.74277 0.85864 0.0
C1004 C 0.27449 0.74911 0.90434 0.0
C1005 C 0.24307 0.75262 0.84733 0.0
C1006 C 0.22991 0.74591 0.80107 0.0
C1007 C 0.22488 0.72353 0.79203 0.0
C1008 C 0.21212 0.71741 0.749 0.0
C1009 C 0.20397 0.73354 0.71515 0.0
C1010 C 0.20856 0.75583 0.7243 0.0
C1011 C 0.22154 0.76203 0.76686 0.0
H1012 H 0.19402 0.72878 0.68197 0.0
H1013 H 0.31567 0.79005 0.10247 0.0
H1014 H 0.70818 0.34418 0.38049 0.0
H1015 H 0.72626 0.31389 0.42545 0.0
H1016 H 0.73426 0.27982 0.27728 0.0
H1017 H 0.71712 0.31097 0.23162 0.0
H1018 H 0.7177 0.27447 0.44284 0.0
H1019 H 0.77714 0.24524 0.28044 0.0
H1020 H 0.79743 0.26066 0.20525 0.0
H1021 H 0.79685 0.32481 0.2779 0.0
H1022 H 0.7768 0.30972 0.35374 0.0
H1023 H 0.76587 0.17504 0.53488 0.0
H1024 H 0.74681 0.20268 0.48168 0.0
H1025 H 0.80538 0.24161 0.47314 0.0
H1026 H 0.82451 0.21361 0.52416 0.0
H1027 H 0.78795 0.24328 0.38378 0.0
H1028 H 0.761 0.25389 0.55826 0.0
H1029 H 0.7442 0.24306 0.64243 0.0
H1030 H 0.68579 0.22475 0.56155 0.0
H1031 H 0.70238 0.23518 0.47677 0.0
C1032 C 0.71388 0.33028 0.35737 0.0
C1033 C 0.71129 0.32999 0.30247 0.0
C1034 C 0.72416 0.31286 0.38322 0.0
C1035 C 0.73183 0.29446 0.35505 0.0
C1036 C 0.72896 0.29397 0.30006 0.0
C1037 C 0.71909 0.31173 0.27391 0.0
C1038 C 0.74278 0.27601 0.38376 0.0
C1039 C 0.73305 0.26766 0.4297 0.0
C1040 C 0.76302 0.26721 0.3676 0.0
C1041 C 0.77525 0.27639 0.32241 0.0
C1042 C 0.7814 0.26262 0.28039 0.0
C1043 C 0.79285 0.2713 0.23766 0.0
C1044 C 0.79835 0.29371 0.2367 0.0
C1045 C 0.7925 0.30747 0.27858 0.0
C1046 C 0.78108 0.29887 0.32141 0.0
C1047 C 0.77458 0.18953 0.52159 0.0
C1048 C 0.79666 0.19216 0.53354 0.0
C1049 C 0.7637 0.20537 0.49129 0.0
C1050 C 0.77454 0.22448 0.47365 0.0
C1051 C 0.79662 0.22703 0.48574 0.0
C1052 C 0.80756 0.21102 0.51504 0.0
C1053 C 0.76301 0.24198 0.44313 0.0
C1054 C 0.77256 0.25004 0.39672 0.0
C1055 C 0.7431 0.25123 0.46019 0.0
C1056 C 0.73301 0.24508 0.51111 0.0
C1057 C 0.74462 0.24741 0.55839 0.0
C1058 C 0.73514 0.24136 0.60621 0.0
C1059 C 0.71396 0.23317 0.60731 0.0
C1060 C 0.70221 0.23107 0.56061 0.0
C1061 C 0.71164 0.23705 0.51267 0.0
H1062 H 0.70664 0.22849 0.64437 0.0
H1063 H 0.8072 0.3004 0.20357 0.0
H1064 H 0.74497 0.67532 0.96472 0.0
H1065 H 0.7655 0.70103 0.02085 0.0
H1066 H 0.70661 0.73653 0.05587 0.0
H1067 H 0.68616 0.71098 1.0002 0.0
H1068 H 0.74222 0.76431 0.03236 0.0
H1069 H 0.72488 0.70113 0.14234 0.0
H1070 H 0.72511 0.66131 0.16304 0.0
H1071 H 0.79471 0.66123 0.16104 0.0
H1072 H 0.79488 0.70101 0.13952 0.0
H1073 H 0.76805 0.82947 0.25111 0.0
H1074 H 0.75142 0.80225 0.19275 0.0
H1075 H 0.81029 0.76376 0.19465 0.0
H1076 H 0.8267 0.79054 0.25509 0.0
H1077 H 0.77773 0.73679 0.19452 0.0
H1078 H 0.79653 0.79929 0.09062 0.0
H1079 H 0.79793 0.8388 0.06716 0.0
H1080 H 0.72864 0.84004 0.05179 0.0
H1081 H 0.72677 0.80063 0.07617 0.0
C1082 C 0.7365 0.68873 0.98408 0.0
C1083 C 0.71394 0.69103 0.97844 0.0
C1084 C 0.74819 0.70333 0.01628 0.0
C1085 C 0.73754 0.72062 0.04282 0.0
C1086 C 0.71515 0.72331 0.03588 0.0
C1087 C 0.70346 0.70859 1.00439 0.0
C1088 C 0.74944 0.73564 0.07909 0.0
C1089 C 0.74986 0.75836 0.06803 0.0
C1090 C 0.75999 0.72776 0.12475 0.0
C1091 C 0.75988 0.70398 0.13878 0.0
C1092 C 0.74023 0.69258 0.14597 0.0
C1093 C 0.74028 0.67003 0.15789 0.0
C1094 C 0.75991 0.65873 0.16319 0.0
C1095 C 0.77952 0.66999 0.15683 0.0
C1096 C 0.77955 0.69255 0.14481 0.0
C1097 C 0.77741 0.81511 0.23948 0.0
C1098 C 0.79875 0.81224 0.2575 0.0
C1099 C 0.76792 0.7996 0.20576 0.0
C1100 C 0.77975 0.78116 0.188 0.0
C1101 C 0.80083 0.77787 0.20743 0.0
C1102 C 0.8102 0.7932 0.24201 0.0
C1103 C 0.77024 0.76568 0.14841 0.0
C1104 C 0.77029 0.74284 0.15871 0.0
C1105 C 0.76043 0.77342 0.10149 0.0
C1106 C 0.7615 0.79702 0.08565 0.0
C1107 C 0.78158 0.80801 0.08251 0.0
C1108 C 0.78245 0.83039 0.06906 0.0
C1109 C 0.76338 0.84193 0.05809 0.0
C1110 C 0.7434 0.83109 0.06036 0.0
C1111 C 0.74242 0.80872 0.07396 0.0
H1112 H 0.76409 0.85927 0.04775 0.0
H1113 H 0.75992 0.64126 0.17232 0.0
H1114 H 0.21414 0.17149 0.68206 0.0
H1115 H 0.23084 0.19799 0.62205 0.0
H1116 H 0.22724 0.2484 0.7422 0.0
H1117 H 0.20937 0.22216 0.80123 0.0
H1118 H 0.21714 0.26633 0.65616 0.0
H1119 H 0.27648 0.21874 0.70376 0.0
H1120 H 0.29551 0.18316 0.7142 0.0
H1121 H 0.29074 0.17128 0.54808 0.0
H1122 H 0.27145 0.20667 0.53674 0.0
H1123 H 0.2941 0.34131 0.55135 0.0
H1124 H 0.27553 0.31351 0.60422 0.0
H1125 H 0.27064 0.27098 0.46848 0.0
H1126 H 0.28963 0.29875 0.41523 0.0
H1127 H 0.28433 0.24856 0.55747 0.0
H1128 H 0.22664 0.298 0.51123 0.0
H1129 H 0.20873 0.33426 0.50284 0.0
H1130 H 0.21197 0.34338 0.67015 0.0
H1131 H 0.23017 0.3073 0.67948 0.0
C1132 C 0.21704 0.18819 0.69577 0.0
C1133 C 0.21059 0.1947 0.74654 0.0
C1134 C 0.22671 0.20336 0.66144 0.0
C1135 C 0.23083 0.22523 0.67764 0.0
C1136 C 0.22433 0.23169 0.72848 0.0
C1137 C 0.21417 0.21666 0.76236 0.0
C1138 C 0.24148 0.24148 0.64154 0.0
C1139 C 0.23201 0.26246 0.63526 0.0
C1140 C 0.2606 0.23645 0.61279 0.0
C1141 C 0.27234 0.21525 0.6195 0.0
C1142 C 0.27938 0.20848 0.66951 0.0
C1143 C 0.29022 0.18835 0.67558 0.0
C1144 C 0.29428 0.17494 0.63185 0.0
C1145 C 0.28756 0.18167 0.58193 0.0
C1146 C 0.27669 0.20176 0.57565 0.0
C1147 C 0.28922 0.32602 0.53266 0.0
C1148 C 0.29344 0.32227 0.47895 0.0
C1149 C 0.27841 0.31018 0.56292 0.0
C1150 C 0.27151 0.29019 0.54032 0.0
C1151 C 0.27575 0.2863 0.48678 0.0
C1152 C 0.28647 0.30225 0.4563 0.0
C1153 C 0.26014 0.27334 0.573 0.0
C1154 C 0.26946 0.2523 0.57846 0.0
C1155 C 0.24103 0.27838 0.60148 0.0
C1156 C 0.22993 0.30002 0.59599 0.0
C1157 C 0.22367 0.30781 0.5462 0.0
C1158 C 0.21344 0.32832 0.54128 0.0
C1159 C 0.20926 0.34114 0.58592 0.0
C1160 C 0.21524 0.33344 0.6356 0.0
C1161 C 0.22549 0.31295 0.64073 0.0
H1162 H 0.20134 0.35701 0.58203 0.0
H1163 H 0.30267 0.15937 0.63664 0.0
H1164 H 0.78624 0.17319 0.82432 0.0
H1165 H 0.76821 0.19947 0.88299 0.0
H1166 H 0.77541 0.25065 0.76615 0.0
H1167 H 0.79459 0.22467 0.70879 0.0
H1168 H 0.78334 0.26819 0.85345 0.0
H1169 H 0.72498 0.22211 0.79599 0.0
H1170 H 0.7054 0.18722 0.77963 0.0
H1171 H 0.70573 0.17298 0.94499 0.0
H1172 H 0.72557 0.20767 0.96227 0.0
H1173 H 0.70074 0.34 0.95608 0.0
H1174 H 0.71932 0.31241 0.90149 0.0
H1175 H 0.73339 0.27389 0.0397 0.0
H1176 H 0.71513 0.30176 0.09472 0.0
H1177 H 0.71451 0.24995 0.94471 0.0
H1178 H 0.7728 0.29866 0.99809 0.0
H1179 H 0.79003 0.33516 0.00914 0.0
H1180 H 0.78656 0.34607 0.84256 0.0
H1181 H 0.769 0.30975 0.83063 0.0
C1182 C 0.78389 0.19003 0.81111 0.0
C1183 C 0.7918 0.19685 0.76188 0.0
C1184 C 0.77343 0.20507 0.8446 0.0
C1185 C 0.76999 0.22711 0.82897 0.0
C1186 C 0.77782 0.23384 0.77952 0.0
C1187 C 0.78874 0.21894 0.74658 0.0
C1188 C 0.75869 0.24328 0.86437 0.0
C1189 C 0.76815 0.26417 0.87272 0.0
C1190 C 0.73896 0.2382 0.89057 0.0
C1191 C 0.72695 0.21738 0.88035 0.0
C1192 C 0.72101 0.21147 0.82882 0.0
C1193 C 0.70984 0.19174 0.81939 0.0
C1194 C 0.70438 0.17787 0.86123 0.0
C1195 C 0.71 0.18373 0.91261 0.0
C1196 C 0.72119 0.20343 0.92226 0.0
C1197 C 0.70771 0.32561 0.97479 0.0
C1198 C 0.70646 0.32302 0.02967 0.0
C1199 C 0.71838 0.30991 0.94361 0.0
C1200 C 0.72772 0.2911 0.96653 0.0
C1201 C 0.72627 0.28828 0.02124 0.0
C1202 C 0.71596 0.30424 0.05261 0.0
C1203 C 0.73919 0.27458 0.93318 0.0
C1204 C 0.72973 0.25375 0.92529 0.0
C1205 C 0.75862 0.27985 0.90649 0.0
C1206 C 0.76939 0.30158 0.91354 0.0
C1207 C 0.77554 0.30892 0.96388 0.0
C1208 C 0.7854 0.32957 0.97029 0.0
C1209 C 0.78933 0.34296 0.9266 0.0
C1210 C 0.78348 0.3357 0.87638 0.0
C1211 C 0.77359 0.31507 0.86976 0.0
H1212 H 0.79696 0.35894 0.93164 0.0
H1213 H 0.69574 0.16259 0.85385 0.0
H1214 H 0.24054 0.83023 0.26644 0.0
H1215 H 0.25819 0.80278 0.32301 0.0
H1216 H 0.20053 0.7626 0.31928 0.0
H1217 H 0.18295 0.78959 0.2615 0.0
H1218 H 0.22945 0.77813 0.43059 0.0
H1219 H 0.22509 0.736 0.26237 0.0
H1220 H 0.2302 0.73472 0.16614 0.0
H1221 H 0.29681 0.75389 0.1848 0.0
H1222 H 0.29194 0.75553 0.28109 0.0
H1223 H 0.26545 0.67892 0.553 0.0
H1224 H 0.24632 0.70556 0.49772 0.0
H1225 H 0.30671 0.72395 0.42429 0.0
H1226 H 0.32594 0.69761 0.47949 0.0
H1227 H 0.27601 0.71994 0.3515 0.0
H1228 H 0.2837 0.75691 0.51575 0.0
H1229 H 0.28115 0.761 0.61203 0.0
H1230 H 0.21182 0.7558 0.60337 0.0
H1231 H 0.21399 0.75126 0.50713 0.0
C1232 C 0.23164 0.81551 0.27749 0.0
C1233 C 0.21039 0.81202 0.25915 0.0
C1234 C 0.24172 0.79991 0.30993 0.0
C1235 C 0.23062 0.78074 0.32535 0.0
C1236 C 0.20934 0.77731 0.30775 0.0
C1237 C 0.19939 0.79269 0.27449 0.0
C1238 C 0.24153 0.76398 0.3586 0.0
C1239 C 0.23935 0.76516 0.41345 0.0
C1240 C 0.25501 0.74762 0.33625 0.0
C1241 C 0.25811 0.74607 0.27868 0.0
C1242 C 0.24077 0.74007 0.24583 0.0
C1243 C 0.24362 0.73925 0.19133 0.0
C1244 C 0.2638 0.74426 0.16932 0.0
C1245 C 0.28118 0.75002 0.20182 0.0
C1246 C 0.27839 0.75088 0.25636 0.0
C1247 C 0.27472 0.6887 0.5254 0.0
C1248 C 0.29732 0.68597 0.5209 0.0
C1249 C 0.26373 0.70393 0.49364 0.0
C1250 C 0.27507 0.71689 0.45692 0.0
C1251 C 0.29755 0.71407 0.45202 0.0
C1252 C 0.30854 0.69888 0.48367 0.0
C1253 C 0.26362 0.7336 0.42401 0.0
C1254 C 0.2659 0.73264 0.36904 0.0
C1255 C 0.25047 0.75037 0.4465 0.0
C1256 C 0.24902 0.75351 0.50428 0.0
C1257 C 0.26792 0.75648 0.53443 0.0
C1258 C 0.26655 0.75889 0.589 0.0
C1259 C 0.24636 0.75859 0.61386 0.0
C1260 C 0.22747 0.75598 0.58415 0.0
C1261 C 0.22875 0.75349 0.52955 0.0
H1262 H 0.2454 0.76046 0.6561 0.0
H1263 H 0.26593 0.74361 0.12712 0.0
loop_
_geom_bond_atom_site_label_1
_geom_bond_atom_site_label_2
_geom_bond_distance
_geom_bond_site_symmetry_2
_ccdc_geom_bond_type
Co0 N4 2.148 . S
Co0 N10 2.128 . S
Co0 N20 2.194 . S
Co0 O25 2.351 . S
Co0 O26 2.155 . S
Co0 O27 2.096 . S
C1 N4 1.301 . S
C1 N5 1.328 . S
C1 H6 0.930 . S
C2 C3 1.333 . S
C2 N4 1.317 . S
C2 H7 0.930 . S
C3 C2 1.333 . S
C3 N5 1.350 . S
C3 H29 0.931 . S
N4 Co0 2.148 . S
N4 C1 1.301 . S
N4 C2 1.317 . S
N5 C1 1.328 . S
N5 C3 1.350 . S
H6 C1 0.930 . S
H7 C2 0.930 . S
C8 O9 1.224 . S
C8 O27 1.247 . S
O9 C8 1.224 . S
N10 Co0 2.128 . S
N10 C11 1.355 . S
N10 C13 1.311 . S
C11 N10 1.355 . S
C11 C12 1.363 . S
C11 H23 0.929 . S
C12 C11 1.363 . S
C12 N14 1.375 . S
C12 H30 0.931 . S
C13 N10 1.311 . S
C13 N14 1.347 . S
C13 H24 0.929 . S
N14 C12 1.375 . S
N14 C13 1.347 . S
C15 C18 1.365 . S
C15 N20 1.328 . S
C15 H21 0.929 . S
C16 C17 1.362 . S
C16 C19 1.378 . S
C16 H31 0.929 . S
C17 C16 1.362 . S
C17 C18 1.366 . S
C18 C15 1.365 . S
C18 C17 1.366 . S
C18 H32 0.930 . S
C19 C16 1.378 . S
C19 N20 1.315 . S
C19 H22 0.930 . S
N20 Co0 2.194 . S
N20 C15 1.328 . S
N20 C19 1.315 . S
H21 C15 0.929 . S
H22 C19 0.930 . S
H23 C11 0.929 . S
H24 C13 0.929 . S
O25 Co0 2.351 . S
O25 C28 1.244 . S
O26 Co0 2.155 . S
O26 C28 1.240 . S
O27 Co0 2.096 . S
O27 C8 1.247 . S
C28 O25 1.244 . S
C28 O26 1.240 . S
H29 C3 0.931 . S
H30 C12 0.931 . S
H31 C16 0.929 . S
H32 C18 0.930 . S
Co33 N37 2.148 . S
Co33 N43 2.128 . S
Co33 N53 2.194 . S
Co33 O58 2.351 . S
Co33 O59 2.155 . S
Co33 O60 2.096 . S
C34 N37 1.301 . S
C34 N38 1.328 . S
C34 H39 0.930 . S
C35 C36 1.333 . S
C35 N37 1.317 . S
C35 H40 0.930 . S
C36 C35 1.333 . S
C36 N38 1.350 . S
C36 H62 0.931 . S
N37 Co33 2.148 . S
N37 C34 1.301 . S
N37 C35 1.317 . S
N38 C34 1.328 . S
N38 C36 1.350 . S
H39 C34 0.930 . S
H40 C35 0.930 . S
C41 O42 1.224 . S
C41 O60 1.247 . S
O42 C41 1.224 . S
N43 Co33 2.128 . S
N43 C44 1.355 . S
N43 C46 1.311 . S
C44 N43 1.355 . S
C44 C45 1.363 . S
C44 H56 0.929 . S
C45 C44 1.363 . S
C45 N47 1.375 . S
C45 H63 0.931 . S
C46 N43 1.311 . S
C46 N47 1.347 . S
C46 H57 0.929 . S
N47 C45 1.375 . S
N47 C46 1.347 . S
C48 C51 1.365 . S
C48 N53 1.328 . S
C48 H54 0.929 . S
C49 C50 1.362 . S
C49 C52 1.378 . S
C49 H64 0.929 . S
C50 C49 1.362 . S
C50 C51 1.366 . S
C51 C48 1.365 . S
C51 C50 1.366 . S
C51 H65 0.930 . S
C52 C49 1.378 . S
C52 N53 1.315 . S
C52 H55 0.930 . S
N53 Co33 2.194 . S
N53 C48 1.328 . S
N53 C52 1.315 . S
H54 C48 0.929 . S
H55 C52 0.930 . S
H56 C44 0.929 . S
H57 C46 0.929 . S
O58 Co33 2.351 . S
O58 C61 1.244 . S
O59 Co33 2.155 . S
O59 C61 1.240 . S
O60 Co33 2.096 . S
O60 C41 1.247 . S
C61 O58 1.244 . S
C61 O59 1.240 . S
H62 C36 0.931 . S
H63 C45 0.931 . S
H64 C49 0.929 . S
H65 C51 0.930 . S
Co66 N70 2.148 . S
Co66 N76 2.128 . S
Co66 N86 2.194 . S
Co66 O91 2.351 . S
Co66 O92 2.155 . S
Co66 O93 2.096 . S
C67 N70 1.301 . S
C67 N71 1.328 . S
C67 H72 0.930 . S
C68 C69 1.333 . S
C68 N70 1.317 . S
C68 H73 0.930 . S
C69 C68 1.333 . S
C69 N71 1.350 . S
C69 H95 0.931 . S
N70 Co66 2.148 . S
N70 C67 1.301 . S
N70 C68 1.317 . S
N71 C67 1.328 . S
N71 C69 1.350 . S
H72 C67 0.930 . S
H73 C68 0.930 . S
C74 O75 1.224 . S
C74 O93 1.247 . S
O75 C74 1.224 . S
N76 Co66 2.128 . S
N76 C77 1.355 . S
N76 C79 1.311 . S
C77 N76 1.355 . S
C77 C78 1.363 . S
C77 H89 0.929 . S
C78 C77 1.363 . S
C78 N80 1.375 . S
C78 H96 0.931 . S
C79 N76 1.311 . S
C79 N80 1.347 . S
C79 H90 0.929 . S
N80 C78 1.375 . S
N80 C79 1.347 . S
C81 C84 1.365 . S
C81 N86 1.328 . S
C81 H87 0.929 . S
C82 C83 1.362 . S
C82 C85 1.378 . S
C82 H97 0.929 . S
C83 C82 1.362 . S
C83 C84 1.366 . S
C84 C81 1.365 . S
C84 C83 1.366 . S
C84 H98 0.930 . S
C85 C82 1.378 . S
C85 N86 1.315 . S
C85 H88 0.930 . S
N86 Co66 2.194 . S
N86 C81 1.328 . S
N86 C85 1.315 . S
H87 C81 0.929 . S
H88 C85 0.930 . S
H89 C77 0.929 . S
H90 C79 0.929 . S
O91 Co66 2.351 . S
O91 C94 1.244 . S
O92 Co66 2.155 . S
O92 C94 1.240 . S
O93 Co66 2.096 . S
O93 C74 1.247 . S
C94 O91 1.244 . S
C94 O92 1.240 . S
H95 C69 0.931 . S
H96 C78 0.931 . S
H97 C82 0.929 . S
H98 C84 0.930 . S
Co99 N103 2.148 . S
Co99 N109 2.128 . S
Co99 N119 2.194 . S
Co99 O124 2.351 . S
Co99 O125 2.155 . S
Co99 O126 2.096 . S
C100 N103 1.301 . S
C100 N104 1.328 . S
C100 H105 0.930 . S
C101 C102 1.333 . S
C101 N103 1.317 . S
C101 H106 0.930 . S
C102 C101 1.333 . S
C102 N104 1.350 . S
C102 H128 0.931 . S
N103 Co99 2.148 . S
N103 C100 1.301 . S
N103 C101 1.317 . S
N104 C100 1.328 . S
N104 C102 1.350 . S
H105 C100 0.930 . S
H106 C101 0.930 . S
C107 O108 1.224 . S
C107 O126 1.247 . S
O108 C107 1.224 . S
N109 Co99 2.128 . S
N109 C110 1.355 . S
N109 C112 1.311 . S
C110 N109 1.355 . S
C110 C111 1.363 . S
C110 H122 0.929 . S
C111 C110 1.363 . S
C111 N113 1.375 . S
C111 H129 0.931 . S
C112 N109 1.311 . S
C112 N113 1.347 . S
C112 H123 0.929 . S
N113 C111 1.375 . S
N113 C112 1.347 . S
C114 C117 1.365 . S
C114 N119 1.328 . S
C114 H120 0.929 . S
C115 C116 1.362 . S
C115 C118 1.378 . S
C115 H130 0.929 . S
C116 C115 1.362 . S
C116 C117 1.366 . S
C117 C114 1.365 . S
C117 C116 1.366 . S
C117 H131 0.930 . S
C118 C115 1.378 . S
C118 N119 1.315 . S
C118 H121 0.930 . S
N119 Co99 2.194 . S
N119 C114 1.328 . S
N119 C118 1.315 . S
H120 C114 0.929 . S
H121 C118 0.930 . S
H122 C110 0.929 . S
H123 C112 0.929 . S
O124 Co99 2.351 . S
O124 C127 1.244 . S
O125 Co99 2.155 . S
O125 C127 1.240 . S
O126 Co99 2.096 . S
O126 C107 1.247 . S
C127 O124 1.244 . S
C127 O125 1.240 . S
H128 C102 0.931 . S
H129 C111 0.931 . S
H130 C115 0.929 . S
H131 C117 0.930 . S
Co132 N136 2.148 . S
Co132 N142 2.128 . S
Co132 N152 2.194 . S
Co132 O157 2.351 . S
Co132 O158 2.155 . S
Co132 O159 2.096 . S
C133 N136 1.301 . S
C133 N137 1.328 . S
C133 H138 0.930 . S
C134 C135 1.333 . S
C134 N136 1.317 . S
C134 H139 0.930 . S
C135 C134 1.333 . S
C135 N137 1.350 . S
C135 H161 0.931 . S
N136 Co132 2.148 . S
N136 C133 1.301 . S
N136 C134 1.317 . S
N137 C133 1.328 . S
N137 C135 1.350 . S
H138 C133 0.930 . S
H139 C134 0.930 . S
C140 O141 1.224 . S
C140 O159 1.247 . S
O141 C140 1.224 . S
N142 Co132 2.128 . S
N142 C143 1.355 . S
N142 C145 1.311 . S
C143 N142 1.355 . S
C143 C144 1.363 . S
C143 H155 0.929 . S
C144 C143 1.363 . S
C144 N146 1.375 . S
C144 H162 0.931 . S
C145 N142 1.311 . S
C145 N146 1.347 . S
C145 H156 0.929 . S
N146 C144 1.375 . S
N146 C145 1.347 . S
C147 C150 1.365 . S
C147 N152 1.328 . S
C147 H153 0.929 . S
C148 C149 1.362 . S
C148 C151 1.378 . S
C148 H163 0.929 . S
C149 C148 1.362 . S
C149 C150 1.366 . S
C150 C147 1.365 . S
C150 C149 1.366 . S
C150 H164 0.930 . S
C151 C148 1.378 . S
C151 N152 1.315 . S
C151 H154 0.930 . S
N152 Co132 2.194 . S
N152 C147 1.328 . S
N152 C151 1.315 . S
H153 C147 0.929 . S
H154 C151 0.930 . S
H155 C143 0.929 . S
H156 C145 0.929 . S
O157 Co132 2.351 . S
O157 C160 1.244 . S
O158 Co132 2.155 . S
O158 C160 1.240 . S
O159 Co132 2.096 . S
O159 C140 1.247 . S
C160 O157 1.244 . S
C160 O158 1.240 . S
H161 C135 0.931 . S
H162 C144 0.931 . S
H163 C148 0.929 . S
H164 C150 0.930 . S
Co165 N169 2.148 . S
Co165 N175 2.128 . S
Co165 N185 2.194 . S
Co165 O190 2.351 . S
Co165 O191 2.155 . S
Co165 O192 2.096 . S
C166 N169 1.301 . S
C166 N170 1.328 . S
C166 H171 0.930 . S
C167 C168 1.333 . S
C167 N169 1.317 . S
C167 H172 0.930 . S
C168 C167 1.333 . S
C168 N170 1.350 . S
C168 H194 0.931 . S
N169 Co165 2.148 . S
N169 C166 1.301 . S
N169 C167 1.317 . S
N170 C166 1.328 . S
N170 C168 1.350 . S
H171 C166 0.930 . S
H172 C167 0.930 . S
C173 O174 1.224 . S
C173 O192 1.247 . S
O174 C173 1.224 . S
N175 Co165 2.128 . S
N175 C176 1.355 . S
N175 C178 1.311 . S
C176 N175 1.355 . S
C176 C177 1.363 . S
C176 H188 0.929 . S
C177 C176 1.363 . S
C177 N179 1.375 . S
C177 H195 0.931 . S
C178 N175 1.311 . S
C178 N179 1.347 . S
C178 H189 0.929 . S
N179 C177 1.375 . S
N179 C178 1.347 . S
C180 C183 1.365 . S
C180 N185 1.328 . S
C180 H186 0.929 . S
C181 C182 1.362 . S
C181 C184 1.378 . S
C181 H196 0.929 . S
C182 C181 1.362 . S
C182 C183 1.366 . S
C183 C180 1.365 . S
C183 C182 1.366 . S
C183 H197 0.930 . S
C184 C181 1.378 . S
C184 N185 1.315 . S
C184 H187 0.930 . S
N185 Co165 2.194 . S
N185 C180 1.328 . S
N185 C184 1.315 . S
H186 C180 0.929 . S
H187 C184 0.930 . S
H188 C176 0.929 . S
H189 C178 0.929 . S
O190 Co165 2.351 . S
O190 C193 1.244 . S
O191 Co165 2.155 . S
O191 C193 1.240 . S
O192 Co165 2.096 . S
O192 C173 1.247 . S
C193 O190 1.244 . S
C193 O191 1.240 . S
H194 C168 0.931 . S
H195 C177 0.931 . S
H196 C181 0.929 . S
H197 C183 0.930 . S
Co198 N202 2.148 . S
Co198 N208 2.128 . S
Co198 N218 2.194 . S
Co198 O223 2.351 . S
Co198 O224 2.155 . S
Co198 O225 2.096 . S
C199 N202 1.301 . S
C199 N203 1.328 . S
C199 H204 0.930 . S
C200 C201 1.333 . S
C200 N202 1.317 . S
C200 H205 0.930 . S
C201 C200 1.333 . S
C201 N203 1.350 . S
C201 H227 0.931 . S
N202 Co198 2.148 . S
N202 C199 1.301 . S
N202 C200 1.317 . S
N203 C199 1.328 . S
N203 C201 1.350 . S
H204 C199 0.930 . S
H205 C200 0.930 . S
C206 O207 1.224 . S
C206 O225 1.247 . S
O207 C206 1.224 . S
N208 Co198 2.128 . S
N208 C209 1.355 . S
N208 C211 1.311 . S
C209 N208 1.355 . S
C209 C210 1.363 . S
C209 H221 0.929 . S
C210 C209 1.363 . S
C210 N212 1.375 . S
C210 H228 0.931 . S
C211 N208 1.311 . S
C211 N212 1.347 . S
C211 H222 0.929 . S
N212 C210 1.375 . S
N212 C211 1.347 . S
C213 C216 1.365 . S
C213 N218 1.328 . S
C213 H219 0.929 . S
C214 C215 1.362 . S
C214 C217 1.378 . S
C214 H229 0.929 . S
C215 C214 1.362 . S
C215 C216 1.366 . S
C216 C213 1.365 . S
C216 C215 1.366 . S
C216 H230 0.930 . S
C217 C214 1.378 . S
C217 N218 1.315 . S
C217 H220 0.930 . S
N218 Co198 2.194 . S
N218 C213 1.328 . S
N218 C217 1.315 . S
H219 C213 0.929 . S
H220 C217 0.930 . S
H221 C209 0.929 . S
H222 C211 0.929 . S
O223 Co198 2.351 . S
O223 C226 1.244 . S
O224 Co198 2.155 . S
O224 C226 1.240 . S
O225 Co198 2.096 . S
O225 C206 1.247 . S
C226 O223 1.244 . S
C226 O224 1.240 . S
H227 C201 0.931 . S
H228 C210 0.931 . S
H229 C214 0.929 . S
H230 C216 0.930 . S
Co231 N235 2.148 . S
Co231 N241 2.128 . S
Co231 N251 2.194 . S
Co231 O256 2.351 . S
Co231 O257 2.155 . S
Co231 O258 2.096 . S
C232 N235 1.301 . S
C232 N236 1.328 . S
C232 H237 0.930 . S
C233 C234 1.333 . S
C233 N235 1.317 . S
C233 H238 0.930 . S
C234 C233 1.333 . S
C234 N236 1.350 . S
C234 H260 0.931 . S
N235 Co231 2.148 . S
N235 C232 1.301 . S
N235 C233 1.317 . S
N236 C232 1.328 . S
N236 C234 1.350 . S
H237 C232 0.930 . S
H238 C233 0.930 . S
C239 O240 1.224 . S
C239 O258 1.247 . S
O240 C239 1.224 . S
N241 Co231 2.128 . S
N241 C242 1.355 . S
N241 C244 1.311 . S
C242 N241 1.355 . S
C242 C243 1.363 . S
C242 H254 0.929 . S
C243 C242 1.363 . S
C243 N245 1.375 . S
C243 H261 0.931 . S
C244 N241 1.311 . S
C244 N245 1.347 . S
C244 H255 0.929 . S
N245 C243 1.375 . S
N245 C244 1.347 . S
C246 C249 1.365 . S
C246 N251 1.328 . S
C246 H252 0.929 . S
C247 C248 1.362 . S
C247 C250 1.378 . S
C247 H262 0.929 . S
C248 C247 1.362 . S
C248 C249 1.366 . S
C249 C246 1.365 . S
C249 C248 1.366 . S
C249 H263 0.930 . S
C250 C247 1.378 . S
C250 N251 1.315 . S
C250 H253 0.930 . S
N251 Co231 2.194 . S
N251 C246 1.328 . S
N251 C250 1.315 . S
H252 C246 0.929 . S
H253 C250 0.930 . S
H254 C242 0.929 . S
H255 C244 0.929 . S
O256 Co231 2.351 . S
O256 C259 1.244 . S
O257 Co231 2.155 . S
O257 C259 1.240 . S
O258 Co231 2.096 . S
O258 C239 1.247 . S
C259 O256 1.244 . S
C259 O257 1.240 . S
H260 C234 0.931 . S
H261 C243 0.931 . S
H262 C247 0.929 . S
H263 C249 0.930 . S
H264 C282 0.951 . S
H265 C284 0.951 . S
H266 C286 0.950 . S
H267 C287 0.950 . S
H268 C289 0.950 . S
H269 C292 0.950 . S
H270 C293 0.950 . S
H271 C295 0.950 . S
H272 C296 0.950 . S
H273 C297 0.951 . S
H274 C299 0.951 . S
H275 C301 0.950 . S
H276 C302 0.950 . S
H277 C304 0.950 . S
H278 C307 0.950 . S
H279 C308 0.950 . S
H280 C310 0.950 . S
H281 C311 0.950 . S
C282 H264 0.951 . S
C282 C283 1.366 . S
C282 C284 1.388 . S
C283 C282 1.366 . S
C283 C287 1.385 . S
C284 H265 0.951 . S
C284 C282 1.388 . S
C284 C285 1.366 . S
C285 C284 1.366 . S
C285 C286 1.414 . S
C285 C288 1.499 . S
C286 H266 0.950 . S
C286 C285 1.414 . S
C286 C287 1.374 . S
C287 H267 0.950 . S
C287 C283 1.385 . S
C287 C286 1.374 . S
C288 C285 1.499 . S
C288 C289 1.373 . S
C288 C290 1.389 . S
C289 H268 0.950 . S
C289 C288 1.373 . S
C289 C305 1.377 . S
C290 C288 1.389 . S
C290 C291 1.524 . S
C290 C304 1.377 . S
C291 C290 1.524 . S
C291 C292 1.397 . S
C291 C296 1.363 . S
C292 H269 0.950 . S
C292 C291 1.397 . S
C292 C293 1.334 . S
C293 H270 0.950 . S
C293 C292 1.334 . S
C293 C294 1.287 . S
C294 C293 1.287 . S
C294 C295 1.524 . S
C294 H313 0.913 . S
C295 H271 0.950 . S
C295 C294 1.524 . S
C295 C296 1.415 . S
C296 H272 0.950 . S
C296 C291 1.363 . S
C296 C295 1.415 . S
C297 H273 0.951 . S
C297 C298 1.366 . S
C297 C299 1.388 . S
C298 C297 1.366 . S
C298 C302 1.385 . S
C299 H274 0.951 . S
C299 C297 1.388 . S
C299 C300 1.366 . S
C300 C299 1.366 . S
C300 C301 1.414 . S
C300 C303 1.499 . S
C301 H275 0.950 . S
C301 C300 1.414 . S
C301 C302 1.374 . S
C302 H276 0.950 . S
C302 C298 1.385 . S
C302 C301 1.374 . S
C303 C300 1.499 . S
C303 C304 1.373 . S
C303 C305 1.389 . S
C304 H277 0.950 . S
C304 C290 1.377 . S
C304 C303 1.373 . S
C305 C289 1.377 . S
C305 C303 1.389 . S
C305 C306 1.524 . S
C306 C305 1.524 . S
C306 C307 1.397 . S
C306 C311 1.363 . S
C307 H278 0.950 . S
C307 C306 1.397 . S
C307 C308 1.334 . S
C308 H279 0.950 . S
C308 C307 1.334 . S
C308 C309 1.287 . S
C309 C308 1.287 . S
C309 C310 1.524 . S
C309 H312 0.999 . S
C310 H280 0.950 . S
C310 C309 1.524 . S
C310 C311 1.415 . S
C311 H281 0.950 . S
C311 C306 1.363 . S
C311 C310 1.415 . S
H312 C309 0.999 . S
H313 C294 0.913 . S
H314 C332 0.951 . S
H315 C334 0.951 . S
H316 C336 0.950 . S
H317 C337 0.950 . S
H318 C339 0.950 . S
H319 C342 0.950 . S
H320 C343 0.950 . S
H321 C345 0.950 . S
H322 C346 0.950 . S
H323 C347 0.951 . S
H324 C349 0.951 . S
H325 C351 0.950 . S
H326 C352 0.950 . S
H327 C354 0.950 . S
H328 C357 0.950 . S
H329 C358 0.950 . S
H330 C360 0.950 . S
H331 C361 0.950 . S
C332 H314 0.951 . S
C332 C333 1.366 . S
C332 C334 1.388 . S
C333 C332 1.366 . S
C333 C337 1.385 . S
C334 H315 0.951 . S
C334 C332 1.388 . S
C334 C335 1.366 . S
C335 C334 1.366 . S
C335 C336 1.414 . S
C335 C338 1.499 . S
C336 H316 0.950 . S
C336 C335 1.414 . S
C336 C337 1.374 . S
C337 H317 0.950 . S
C337 C333 1.385 . S
C337 C336 1.374 . S
C338 C335 1.499 . S
C338 C339 1.373 . S
C338 C340 1.389 . S
C339 H318 0.950 . S
C339 C338 1.373 . S
C339 C355 1.377 . S
C340 C338 1.389 . S
C340 C341 1.524 . S
C340 C354 1.377 . S
C341 C340 1.524 . S
C341 C342 1.397 . S
C341 C346 1.363 . S
C342 H319 0.950 . S
C342 C341 1.397 . S
C342 C343 1.334 . S
C343 H320 0.950 . S
C343 C342 1.334 . S
C343 C344 1.287 . S
C344 C343 1.287 . S
C344 C345 1.524 . S
C344 H363 0.913 . S
C345 H321 0.950 . S
C345 C344 1.524 . S
C345 C346 1.415 . S
C346 H322 0.950 . S
C346 C341 1.363 . S
C346 C345 1.415 . S
C347 H323 0.951 . S
C347 C348 1.366 . S
C347 C349 1.388 . S
C348 C347 1.366 . S
C348 C352 1.385 . S
C349 H324 0.951 . S
C349 C347 1.388 . S
C349 C350 1.366 . S
C350 C349 1.366 . S
C350 C351 1.414 . S
C350 C353 1.499 . S
C351 H325 0.950 . S
C351 C350 1.414 . S
C351 C352 1.374 . S
C352 H326 0.950 . S
C352 C348 1.385 . S
C352 C351 1.374 . S
C353 C350 1.499 . S
C353 C354 1.373 . S
C353 C355 1.389 . S
C354 H327 0.950 . S
C354 C340 1.377 . S
C354 C353 1.373 . S
C355 C339 1.377 . S
C355 C353 1.389 . S
C355 C356 1.524 . S
C356 C355 1.524 . S
C356 C357 1.397 . S
C356 C361 1.363 . S
C357 H328 0.950 . S
C357 C356 1.397 . S
C357 C358 1.334 . S
C358 H329 0.950 . S
C358 C357 1.334 . S
C358 C359 1.287 . S
C359 C358 1.287 . S
C359 C360 1.524 . S
C359 H362 0.999 . S
C360 H330 0.950 . S
C360 C359 1.524 . S
C360 C361 1.415 . S
C361 H331 0.950 . S
C361 C356 1.363 . S
C361 C360 1.415 . S
H362 C359 0.999 . S
H363 C344 0.913 . S
H364 C382 0.951 . S
H365 C384 0.951 . S
H366 C386 0.950 . S
H367 C387 0.950 . S
H368 C389 0.950 . S
H369 C392 0.950 . S
H370 C393 0.950 . S
H371 C395 0.950 . S
H372 C396 0.950 1_655 S
H373 C397 0.951 . S
H374 C399 0.951 . S
H375 C401 0.950 . S
H376 C402 0.950 . S
H377 C404 0.950 . S
H378 C407 0.950 . S
H379 C408 0.950 . S
H380 C410 0.950 . S
H381 C411 0.950 1_455 S
C382 H364 0.951 . S
C382 C383 1.366 . S
C382 C384 1.388 . S
C383 C382 1.366 . S
C383 C387 1.385 . S
C384 H365 0.951 . S
C384 C382 1.388 . S
C384 C385 1.366 . S
C385 C384 1.366 . S
C385 C386 1.414 . S
C385 C388 1.499 . S
C386 H366 0.950 . S
C386 C385 1.414 . S
C386 C387 1.374 . S
C387 H367 0.950 . S
C387 C383 1.385 . S
C387 C386 1.374 . S
C388 C385 1.499 . S
C388 C389 1.373 . S
C388 C390 1.389 . S
C389 H368 0.950 . S
C389 C388 1.373 . S
C389 C405 1.377 1_455 S
C390 C388 1.389 . S
C390 C391 1.524 . S
C390 C404 1.377 1_455 S
C391 C390 1.524 . S
C391 C392 1.397 . S
C391 C396 1.363 . S
C392 H369 0.950 . S
C392 C391 1.397 . S
C392 C393 1.334 . S
C393 H370 0.950 . S
C393 C392 1.334 . S
C393 C394 1.287 . S
C394 C393 1.287 . S
C394 C395 1.524 . S
C394 H413 0.913 . S
C395 H371 0.950 . S
C395 C394 1.524 . S
C395 C396 1.415 . S
C396 H372 0.950 1_455 S
C396 C391 1.363 . S
C396 C395 1.415 . S
C397 H373 0.951 . S
C397 C398 1.366 . S
C397 C399 1.388 . S
C398 C397 1.366 . S
C398 C402 1.385 . S
C399 H374 0.951 . S
C399 C397 1.388 . S
C399 C400 1.366 . S
C400 C399 1.366 . S
C400 C401 1.414 . S
C400 C403 1.499 . S
C401 H375 0.950 . S
C401 C400 1.414 . S
C401 C402 1.374 . S
C402 H376 0.950 . S
C402 C398 1.385 . S
C402 C401 1.374 . S
C403 C400 1.499 . S
C403 C404 1.373 . S
C403 C405 1.389 . S
C404 H377 0.950 . S
C404 C390 1.377 1_655 S
C404 C403 1.373 . S
C405 C389 1.377 1_655 S
C405 C403 1.389 . S
C405 C406 1.524 . S
C406 C405 1.524 . S
C406 C407 1.397 . S
C406 C411 1.363 . S
C407 H378 0.950 . S
C407 C406 1.397 . S
C407 C408 1.334 . S
C408 H379 0.950 . S
C408 C407 1.334 . S
C408 C409 1.287 . S
C409 C408 1.287 . S
C409 C410 1.524 . S
C409 H412 0.999 . S
C410 H380 0.950 . S
C410 C409 1.524 . S
C410 C411 1.415 . S
C411 H381 0.950 1_655 S
C411 C406 1.363 . S
C411 C410 1.415 . S
H412 C409 0.999 . S
H413 C394 0.913 . S
H414 C432 0.951 . S
H415 C434 0.951 . S
H416 C436 0.950 . S
H417 C437 0.950 . S
H418 C439 0.950 . S
H419 C442 0.950 . S
H420 C443 0.950 . S
H421 C445 0.950 . S
H422 C446 0.987 . S
H423 C447 0.951 . S
H424 C449 0.951 . S
H425 C451 0.950 . S
H426 C452 0.950 . S
H427 C454 0.950 . S
H428 C457 0.950 . S
H429 C458 0.950 . S
H430 C460 0.950 . S
H431 C461 0.987 . S
C432 H414 0.951 . S
C432 C433 1.366 . S
C432 C434 1.388 . S
C433 C432 1.366 . S
C433 C437 1.385 . S
C434 H415 0.951 . S
C434 C432 1.388 . S
C434 C435 1.366 . S
C435 C434 1.366 . S
C435 C436 1.414 . S
C435 C438 1.499 . S
C436 H416 0.950 . S
C436 C435 1.414 . S
C436 C437 1.374 . S
C437 H417 0.950 . S
C437 C433 1.385 . S
C437 C436 1.374 . S
C438 C435 1.499 . S
C438 C439 1.373 . S
C438 C440 1.389 . S
C439 H418 0.950 . S
C439 C438 1.373 . S
C439 C455 1.377 1_455 S
C440 C438 1.389 . S
C440 C441 1.524 . S
C440 C454 1.377 1_455 S
C441 C440 1.524 . S
C441 C442 1.397 . S
C441 C446 1.363 . S
C442 H419 0.950 . S
C442 C441 1.397 . S
C442 C443 1.334 . S
C443 H420 0.950 . S
C443 C442 1.334 . S
C443 C444 1.287 . S
C444 C443 1.287 . S
C444 C445 1.524 . S
C444 H463 0.913 . S
C445 H421 0.950 . S
C445 C444 1.524 . S
C445 C446 1.415 . S
C446 H422 0.987 . S
C446 C441 1.363 . S
C446 C445 1.415 . S
C447 H423 0.951 . S
C447 C448 1.366 . S
C447 C449 1.388 . S
C448 C447 1.366 . S
C448 C452 1.385 . S
C449 H424 0.951 . S
C449 C447 1.388 . S
C449 C450 1.366 . S
C450 C449 1.366 . S
C450 C451 1.414 . S
C450 C453 1.499 . S
C451 H425 0.950 . S
C451 C450 1.414 . S
C451 C452 1.374 . S
C452 H426 0.950 . S
C452 C448 1.385 . S
C452 C451 1.374 . S
C453 C450 1.499 . S
C453 C454 1.373 . S
C453 C455 1.389 . S
C454 H427 0.950 . S
C454 C440 1.377 1_655 S
C454 C453 1.373 . S
C455 C439 1.377 1_655 S
C455 C453 1.389 . S
C455 C456 1.524 . S
C456 C455 1.524 . S
C456 C457 1.397 . S
C456 C461 1.363 . S
C457 H428 0.950 . S
C457 C456 1.397 . S
C457 C458 1.334 . S
C458 H429 0.950 . S
C458 C457 1.334 . S
C458 C459 1.287 . S
C459 C458 1.287 . S
C459 C460 1.524 . S
C459 H462 0.999 . S
C460 H430 0.950 . S
C460 C459 1.524 . S
C460 C461 1.415 . S
C461 H431 0.987 . S
C461 C456 1.363 . S
C461 C460 1.415 . S
H462 C459 0.999 . S
H463 C444 0.913 . S
H464 C482 0.951 . S
H465 C484 0.951 . S
H466 C486 0.950 . S
H467 C487 0.950 . S
H468 C489 0.950 . S
H469 C492 0.947 1_554 S
H470 C493 0.950 . S
H471 C495 0.950 . S
H472 C496 0.950 . S
H473 C497 0.951 . S
H474 C499 0.951 . S
H475 C501 0.950 . S
H476 C502 0.950 . S
H477 C504 0.950 . S
H478 C507 0.947 1_556 S
H479 C508 0.950 . S
H480 C510 0.950 . S
H481 C511 0.950 . S
C482 H464 0.951 . S
C482 C483 1.366 . S
C482 C484 1.388 . S
C483 C482 1.366 . S
C483 C487 1.385 . S
C484 H465 0.951 . S
C484 C482 1.388 . S
C484 C485 1.366 . S
C485 C484 1.366 . S
C485 C486 1.414 . S
C485 C488 1.499 . S
C486 H466 0.950 . S
C486 C485 1.414 . S
C486 C487 1.374 . S
C487 H467 0.950 . S
C487 C483 1.385 . S
C487 C486 1.374 . S
C488 C485 1.499 . S
C488 C489 1.373 . S
C488 C490 1.389 . S
C489 H468 0.950 . S
C489 C488 1.373 . S
C489 C505 1.377 1_556 S
C490 C488 1.389 . S
C490 C491 1.524 . S
C490 C504 1.377 1_556 S
C491 C490 1.524 . S
C491 C492 1.397 . S
C491 C496 1.363 . S
C492 H469 0.947 1_556 S
C492 C491 1.397 . S
C492 C493 1.334 . S
C493 H470 0.950 . S
C493 C492 1.334 . S
C493 C494 1.287 . S
C494 C493 1.287 . S
C494 C495 1.524 . S
C494 H513 0.913 . S
C495 H471 0.950 . S
C495 C494 1.524 . S
C495 C496 1.415 . S
C496 H472 0.950 . S
C496 C491 1.363 . S
C496 C495 1.415 . S
C497 H473 0.951 . S
C497 C498 1.366 . S
C497 C499 1.388 . S
C498 C497 1.366 . S
C498 C502 1.385 . S
C499 H474 0.951 . S
C499 C497 1.388 . S
C499 C500 1.366 . S
C500 C499 1.366 . S
C500 C501 1.414 . S
C500 C503 1.499 . S
C501 H475 0.950 . S
C501 C500 1.414 . S
C501 C502 1.374 . S
C502 H476 0.950 . S
C502 C498 1.385 . S
C502 C501 1.374 . S
C503 C500 1.499 . S
C503 C504 1.373 . S
C503 C505 1.389 . S
C504 H477 0.950 . S
C504 C490 1.377 1_554 S
C504 C503 1.373 . S
C505 C489 1.377 1_554 S
C505 C503 1.389 . S
C505 C506 1.524 . S
C506 C505 1.524 . S
C506 C507 1.397 . S
C506 C511 1.363 . S
C507 H478 0.947 1_554 S
C507 C506 1.397 . S
C507 C508 1.334 . S
C508 H479 0.950 . S
C508 C507 1.334 . S
C508 C509 1.287 . S
C509 C508 1.287 . S
C509 C510 1.524 . S
C509 H512 0.999 . S
C510 H480 0.950 . S
C510 C509 1.524 . S
C510 C511 1.415 . S
C511 H481 0.950 . S
C511 C506 1.363 . S
C511 C510 1.415 . S
H512 C509 0.999 . S
H513 C494 0.913 . S
H514 C532 0.951 . S
H515 C534 0.951 . S
H516 C536 0.950 . S
H517 C537 0.950 . S
H518 C539 0.950 . S
H519 C542 0.950 . S
H520 C543 0.950 . S
H521 C545 0.950 . S
H522 C546 0.950 . S
H523 C547 0.951 . S
H524 C549 0.951 . S
H525 C551 0.950 . S
H526 C552 0.950 . S
H527 C554 0.950 . S
H528 C557 0.950 . S
H529 C558 0.950 . S
H530 C560 0.950 . S
H531 C561 0.950 . S
C532 H514 0.951 . S
C532 C533 1.366 . S
C532 C534 1.388 . S
C533 C532 1.366 . S
C533 C537 1.385 . S
C534 H515 0.951 . S
C534 C532 1.388 . S
C534 C535 1.366 . S
C535 C534 1.366 . S
C535 C536 1.414 . S
C535 C538 1.499 . S
C536 H516 0.950 . S
C536 C535 1.414 . S
C536 C537 1.374 . S
C537 H517 0.950 . S
C537 C533 1.385 . S
C537 C536 1.374 . S
C538 C535 1.499 . S
C538 C539 1.373 . S
C538 C540 1.389 . S
C539 H518 0.950 . S
C539 C538 1.373 . S
C539 C555 1.377 . S
C540 C538 1.389 . S
C540 C541 1.524 . S
C540 C554 1.377 . S
C541 C540 1.524 . S
C541 C542 1.397 . S
C541 C546 1.363 . S
C542 H519 0.950 . S
C542 C541 1.397 . S
C542 C543 1.334 . S
C543 H520 0.950 . S
C543 C542 1.334 . S
C543 C544 1.287 . S
C544 C543 1.287 . S
C544 C545 1.524 . S
C544 H563 0.913 . S
C545 H521 0.950 . S
C545 C544 1.524 . S
C545 C546 1.415 . S
C546 H522 0.950 . S
C546 C541 1.363 . S
C546 C545 1.415 . S
C547 H523 0.951 . S
C547 C548 1.366 . S
C547 C549 1.388 . S
C548 C547 1.366 . S
C548 C552 1.385 . S
C549 H524 0.951 . S
C549 C547 1.388 . S
C549 C550 1.366 . S
C550 C549 1.366 . S
C550 C551 1.414 . S
C550 C553 1.499 . S
C551 H525 0.950 . S
C551 C550 1.414 . S
C551 C552 1.374 . S
C552 H526 0.950 . S
C552 C548 1.385 . S
C552 C551 1.374 . S
C553 C550 1.499 . S
C553 C554 1.373 . S
C553 C555 1.389 . S
C554 H527 0.950 . S
C554 C540 1.377 . S
C554 C553 1.373 . S
C555 C539 1.377 . S
C555 C553 1.389 . S
C555 C556 1.524 . S
C556 C555 1.524 . S
C556 C557 1.397 . S
C556 C561 1.363 . S
C557 H528 0.950 . S
C557 C556 1.397 . S
C557 C558 1.334 . S
C558 H529 0.950 . S
C558 C557 1.334 . S
C558 C559 1.287 . S
C559 C558 1.287 . S
C559 C560 1.524 . S
C559 H562 0.999 . S
C560 H530 0.950 . S
C560 C559 1.524 . S
C560 C561 1.415 . S
C561 H531 0.950 . S
C561 C556 1.363 . S
C561 C560 1.415 . S
H562 C559 0.999 . S
H563 C544 0.913 . S
H564 C582 0.951 . S
H565 C584 0.951 . S
H566 C586 0.950 . S
H567 C587 0.950 . S
H568 C589 0.950 . S
H569 C592 0.950 1_556 S
H570 C593 0.950 . S
H571 C595 0.950 . S
H572 C596 0.950 . S
H573 C597 0.951 . S
H574 C599 0.951 . S
H575 C601 0.950 . S
H576 C602 0.950 . S
H577 C604 0.950 . S
H578 C607 0.950 1_554 S
H579 C608 0.950 . S
H580 C610 0.950 . S
H581 C611 0.950 . S
C582 H564 0.951 . S
C582 C583 1.366 . S
C582 C584 1.388 . S
C583 C582 1.366 . S
C583 C587 1.385 . S
C584 H565 0.951 . S
C584 C582 1.388 . S
C584 C585 1.366 . S
C585 C584 1.366 . S
C585 C586 1.414 . S
C585 C588 1.499 . S
C586 H566 0.950 . S
C586 C585 1.414 . S
C586 C587 1.374 . S
C587 H567 0.950 . S
C587 C583 1.385 . S
C587 C586 1.374 . S
C588 C585 1.499 . S
C588 C589 1.373 . S
C588 C590 1.389 1_556 S
C589 H568 0.950 . S
C589 C588 1.373 . S
C589 C605 1.377 . S
C590 C588 1.389 1_554 S
C590 C591 1.524 . S
C590 C604 1.377 . S
C591 C590 1.524 . S
C591 C592 1.397 . S
C591 C596 1.363 . S
C592 H569 0.950 1_554 S
C592 C591 1.397 . S
C592 C593 1.334 . S
C593 H570 0.950 . S
C593 C592 1.334 . S
C593 C594 1.287 . S
C594 C593 1.287 . S
C594 C595 1.524 . S
C594 H613 0.913 . S
C595 H571 0.950 . S
C595 C594 1.524 . S
C595 C596 1.415 . S
C596 H572 0.950 . S
C596 C591 1.363 . S
C596 C595 1.415 . S
C597 H573 0.951 . S
C597 C598 1.366 . S
C597 C599 1.388 . S
C598 C597 1.366 . S
C598 C602 1.385 . S
C599 H574 0.951 . S
C599 C597 1.388 . S
C599 C600 1.366 . S
C600 C599 1.366 . S
C600 C601 1.414 . S
C600 C603 1.499 . S
C601 H575 0.950 . S
C601 C600 1.414 . S
C601 C602 1.374 . S
C602 H576 0.950 . S
C602 C598 1.385 . S
C602 C601 1.374 . S
C603 C600 1.499 . S
C603 C604 1.373 . S
C603 C605 1.389 1_554 S
C604 H577 0.950 . S
C604 C590 1.377 . S
C604 C603 1.373 . S
C605 C589 1.377 . S
C605 C603 1.389 1_556 S
C605 C606 1.524 . S
C606 C605 1.524 . S
C606 C607 1.397 . S
C606 C611 1.363 . S
C607 H578 0.950 1_556 S
C607 C606 1.397 . S
C607 C608 1.334 . S
C608 H579 0.950 . S
C608 C607 1.334 . S
C608 C609 1.287 . S
C609 C608 1.287 . S
C609 C610 1.524 . S
C609 H612 0.999 . S
C610 H580 0.950 . S
C610 C609 1.524 . S
C610 C611 1.415 . S
C611 H581 0.950 . S
C611 C606 1.363 . S
C611 C610 1.415 . S
H612 C609 0.999 . S
H613 C594 0.913 . S
H614 C632 0.951 . S
H615 C634 0.951 . S
H616 C636 0.950 . S
H617 C637 0.950 . S
H618 C639 0.950 . S
H619 C642 0.950 . S
H620 C643 0.950 . S
H621 C645 0.950 . S
H622 C646 0.950 . S
H623 C647 0.951 . S
H624 C649 0.951 . S
H625 C651 0.950 . S
H626 C652 0.950 . S
H627 C654 0.950 . S
H628 C657 0.950 . S
H629 C658 0.950 . S
H630 C660 0.950 . S
H631 C661 0.950 . S
C632 H614 0.951 . S
C632 C633 1.366 . S
C632 C634 1.388 . S
C633 C632 1.366 . S
C633 C637 1.385 . S
C634 H615 0.951 . S
C634 C632 1.388 . S
C634 C635 1.366 . S
C635 C634 1.366 . S
C635 C636 1.414 . S
C635 C638 1.499 . S
C636 H616 0.950 . S
C636 C635 1.414 . S
C636 C637 1.374 . S
C637 H617 0.950 . S
C637 C633 1.385 . S
C637 C636 1.374 . S
C638 C635 1.499 . S
C638 C639 1.373 . S
C638 C640 1.389 . S
C639 H618 0.950 . S
C639 C638 1.373 . S
C639 C655 1.377 . S
C640 C638 1.389 . S
C640 C641 1.524 . S
C640 C654 1.377 . S
C641 C640 1.524 . S
C641 C642 1.397 . S
C641 C646 1.363 . S
C642 H619 0.950 . S
C642 C641 1.397 . S
C642 C643 1.334 . S
C643 H620 0.950 . S
C643 C642 1.334 . S
C643 C644 1.287 . S
C644 C643 1.287 . S
C644 C645 1.524 . S
C644 H663 0.913 . S
C645 H621 0.950 . S
C645 C644 1.524 . S
C645 C646 1.415 . S
C646 H622 0.950 . S
C646 C641 1.363 . S
C646 C645 1.415 . S
C647 H623 0.951 . S
C647 C648 1.366 . S
C647 C649 1.388 . S
C648 C647 1.366 . S
C648 C652 1.385 . S
C649 H624 0.951 . S
C649 C647 1.388 . S
C649 C650 1.366 . S
C650 C649 1.366 . S
C650 C651 1.414 . S
C650 C653 1.499 . S
C651 H625 0.950 . S
C651 C650 1.414 . S
C651 C652 1.374 . S
C652 H626 0.950 . S
C652 C648 1.385 . S
C652 C651 1.374 . S
C653 C650 1.499 . S
C653 C654 1.373 . S
C653 C655 1.389 . S
C654 H627 0.950 . S
C654 C640 1.377 . S
C654 C653 1.373 . S
C655 C639 1.377 . S
C655 C653 1.389 . S
C655 C656 1.524 . S
C656 C655 1.524 . S
C656 C657 1.397 . S
C656 C661 1.363 . S
C657 H628 0.950 . S
C657 C656 1.397 . S
C657 C658 1.334 . S
C658 H629 0.950 . S
C658 C657 1.334 . S
C658 C659 1.287 . S
C659 C658 1.287 . S
C659 C660 1.524 . S
C659 H662 0.999 . S
C660 H630 0.950 . S
C660 C659 1.524 . S
C660 C661 1.415 . S
C661 H631 0.950 . S
C661 C656 1.363 . S
C661 C660 1.415 . S
H662 C659 0.999 . S
H663 C644 0.913 . S
H664 C682 0.951 . S
H665 C684 0.951 . S
H666 C686 0.950 . S
H667 C687 0.950 . S
H668 C689 0.950 . S
H669 C692 0.943 1_565 S
H670 C693 0.951 . S
H671 C695 0.950 . S
H672 C696 0.959 . S
H673 C697 0.951 . S
H674 C699 0.951 . S
H675 C701 0.950 . S
H676 C702 0.950 . S
H677 C704 0.950 . S
H678 C707 0.943 1_545 S
H679 C708 0.951 . S
H680 C710 0.950 . S
H681 C711 0.959 . S
C682 H664 0.951 . S
C682 C683 1.366 . S
C682 C684 1.388 . S
C683 C682 1.366 . S
C683 C687 1.385 . S
C684 H665 0.951 . S
C684 C682 1.388 . S
C684 C685 1.366 . S
C685 C684 1.366 . S
C685 C686 1.414 . S
C685 C688 1.499 . S
C686 H666 0.950 . S
C686 C685 1.414 . S
C686 C687 1.374 . S
C687 H667 0.950 . S
C687 C683 1.385 . S
C687 C686 1.374 . S
C688 C685 1.499 . S
C688 C689 1.373 . S
C688 C690 1.389 . S
C689 H668 0.950 . S
C689 C688 1.373 . S
C689 C705 1.377 1_546 S
C690 C688 1.389 . S
C690 C691 1.524 . S
C690 C704 1.377 1_546 S
C691 C690 1.524 . S
C691 C692 1.397 . S
C691 C696 1.363 . S
C692 H669 0.943 1_545 S
C692 C691 1.397 . S
C692 C693 1.334 . S
C693 H670 0.951 . S
C693 C692 1.334 . S
C693 C694 1.287 . S
C694 C693 1.287 . S
C694 C695 1.524 . S
C694 H713 0.913 . S
C695 H671 0.950 . S
C695 C694 1.524 . S
C695 C696 1.415 . S
C696 H672 0.959 . S
C696 C691 1.363 . S
C696 C695 1.415 . S
C697 H673 0.951 . S
C697 C698 1.366 . S
C697 C699 1.388 . S
C698 C697 1.366 . S
C698 C702 1.385 . S
C699 H674 0.951 . S
C699 C697 1.388 . S
C699 C700 1.366 . S
C700 C699 1.366 . S
C700 C701 1.414 . S
C700 C703 1.499 . S
C701 H675 0.950 . S
C701 C700 1.414 . S
C701 C702 1.374 . S
C702 H676 0.950 . S
C702 C698 1.385 . S
C702 C701 1.374 . S
C703 C700 1.499 . S
C703 C704 1.373 . S
C703 C705 1.389 . S
C704 H677 0.950 . S
C704 C690 1.377 1_564 S
C704 C703 1.373 . S
C705 C689 1.377 1_564 S
C705 C703 1.389 . S
C705 C706 1.524 . S
C706 C705 1.524 . S
C706 C707 1.397 . S
C706 C711 1.363 . S
C707 H678 0.943 1_565 S
C707 C706 1.397 . S
C707 C708 1.334 . S
C708 H679 0.951 . S
C708 C707 1.334 . S
C708 C709 1.287 . S
C709 C708 1.287 . S
C709 C710 1.524 . S
C709 H712 0.999 . S
C710 H680 0.950 . S
C710 C709 1.524 . S
C710 C711 1.415 . S
C711 H681 0.959 . S
C711 C706 1.363 . S
C711 C710 1.415 . S
H712 C709 0.999 . S
H713 C694 0.913 . S
H714 C732 0.951 . S
H715 C734 0.951 . S
H716 C736 0.950 . S
H717 C737 0.950 . S
H718 C739 0.953 . S
H719 C742 0.950 . S
H720 C743 0.950 . S
H721 C745 0.950 . S
H722 C746 0.950 . S
H723 C747 0.951 . S
H724 C749 0.951 . S
H725 C751 0.950 . S
H726 C752 0.950 . S
H727 C754 0.953 . S
H728 C757 0.950 . S
H729 C758 0.950 . S
H730 C760 0.950 . S
H731 C761 0.950 . S
C732 H714 0.951 . S
C732 C733 1.366 . S
C732 C734 1.388 . S
C733 C732 1.366 . S
C733 C737 1.385 . S
C734 H715 0.951 . S
C734 C732 1.388 . S
C734 C735 1.366 . S
C735 C734 1.366 . S
C735 C736 1.414 . S
C735 C738 1.499 . S
C736 H716 0.950 . S
C736 C735 1.414 . S
C736 C737 1.374 . S
C737 H717 0.950 . S
C737 C733 1.385 . S
C737 C736 1.374 . S
C738 C735 1.499 . S
C738 C739 1.406 . S
C738 C740 1.389 . S
C739 H718 0.953 . S
C739 C738 1.406 . S
C739 C755 1.344 1_545 S
C740 C738 1.389 . S
C740 C741 1.524 . S
C740 C754 1.344 1_545 S
C741 C740 1.524 . S
C741 C742 1.397 . S
C741 C746 1.363 . S
C742 H719 0.950 . S
C742 C741 1.397 . S
C742 C743 1.334 . S
C743 H720 0.950 . S
C743 C742 1.334 . S
C743 C744 1.287 . S
C744 C743 1.287 . S
C744 C745 1.524 . S
C744 H763 0.913 . S
C745 H721 0.950 . S
C745 C744 1.524 . S
C745 C746 1.415 . S
C746 H722 0.950 . S
C746 C741 1.363 . S
C746 C745 1.415 . S
C747 H723 0.951 . S
C747 C748 1.366 . S
C747 C749 1.388 . S
C748 C747 1.366 . S
C748 C752 1.385 . S
C749 H724 0.951 . S
C749 C747 1.388 . S
C749 C750 1.366 . S
C750 C749 1.366 . S
C750 C751 1.414 . S
C750 C753 1.499 . S
C751 H725 0.950 . S
C751 C750 1.414 . S
C751 C752 1.374 . S
C752 H726 0.950 . S
C752 C748 1.385 . S
C752 C751 1.374 . S
C753 C750 1.499 . S
C753 C754 1.406 . S
C753 C755 1.389 . S
C754 H727 0.953 . S
C754 C740 1.344 1_565 S
C754 C753 1.406 . S
C755 C739 1.344 1_565 S
C755 C753 1.389 . S
C755 C756 1.524 . S
C756 C755 1.524 . S
C756 C757 1.397 . S
C756 C761 1.363 . S
C757 H728 0.950 . S
C757 C756 1.397 . S
C757 C758 1.334 . S
C758 H729 0.950 . S
C758 C757 1.334 . S
C758 C759 1.287 . S
C759 C758 1.287 . S
C759 C760 1.524 . S
C759 H762 0.999 . S
C760 H730 0.950 . S
C760 C759 1.524 . S
C760 C761 1.415 . S
C761 H731 0.950 . S
C761 C756 1.363 . S
C761 C760 1.415 . S
H762 C759 0.999 . S
H763 C744 0.913 . S
H764 C782 0.951 . S
H765 C784 0.951 . S
H766 C786 0.950 . S
H767 C787 0.950 . S
H768 C789 0.950 . S
H769 C792 0.950 1_556 S
H770 C793 0.950 . S
H771 C795 0.950 . S
H772 C796 0.950 . S
H773 C797 0.951 . S
H774 C799 0.951 . S
H775 C801 0.950 . S
H776 C802 0.950 . S
H777 C804 0.950 . S
H778 C807 0.950 1_554 S
H779 C808 0.950 . S
H780 C810 0.950 . S
H781 C811 0.950 . S
C782 H764 0.951 . S
C782 C783 1.366 . S
C782 C784 1.388 . S
C783 C782 1.366 . S
C783 C787 1.385 . S
C784 H765 0.951 . S
C784 C782 1.388 . S
C784 C785 1.366 . S
C785 C784 1.366 . S
C785 C786 1.414 . S
C785 C788 1.499 . S
C786 H766 0.950 . S
C786 C785 1.414 . S
C786 C787 1.374 . S
C787 H767 0.950 . S
C787 C783 1.385 . S
C787 C786 1.374 . S
C788 C785 1.499 . S
C788 C789 1.386 . S
C788 C790 1.389 1_556 S
C789 H768 0.950 . S
C789 C788 1.386 . S
C789 C805 1.364 1_545 S
C790 C788 1.389 1_554 S
C790 C791 1.524 . S
C790 C804 1.364 1_545 S
C791 C790 1.524 . S
C791 C792 1.397 . S
C791 C796 1.363 . S
C792 H769 0.950 1_554 S
C792 C791 1.397 . S
C792 C793 1.334 . S
C793 H770 0.950 . S
C793 C792 1.334 . S
C793 C794 1.287 . S
C794 C793 1.287 . S
C794 C795 1.524 . S
C794 H813 0.913 . S
C795 H771 0.950 . S
C795 C794 1.524 . S
C795 C796 1.415 . S
C796 H772 0.950 . S
C796 C791 1.363 . S
C796 C795 1.415 . S
C797 H773 0.951 . S
C797 C798 1.366 . S
C797 C799 1.388 . S
C798 C797 1.366 . S
C798 C802 1.385 . S
C799 H774 0.951 . S
C799 C797 1.388 . S
C799 C800 1.366 . S
C800 C799 1.366 . S
C800 C801 1.414 . S
C800 C803 1.499 . S
C801 H775 0.950 . S
C801 C800 1.414 . S
C801 C802 1.374 . S
C802 H776 0.950 . S
C802 C798 1.385 . S
C802 C801 1.374 . S
C803 C800 1.499 . S
C803 C804 1.386 . S
C803 C805 1.389 1_554 S
C804 H777 0.950 . S
C804 C790 1.364 1_565 S
C804 C803 1.386 . S
C805 C789 1.364 1_565 S
C805 C803 1.389 1_556 S
C805 C806 1.524 . S
C806 C805 1.524 . S
C806 C807 1.397 . S
C806 C811 1.363 . S
C807 H778 0.950 1_556 S
C807 C806 1.397 . S
C807 C808 1.334 . S
C808 H779 0.950 . S
C808 C807 1.334 . S
C808 C809 1.287 . S
C809 C808 1.287 . S
C809 C810 1.524 . S
C809 H812 0.999 . S
C810 H780 0.950 . S
C810 C809 1.524 . S
C810 C811 1.415 . S
C811 H781 0.950 . S
C811 C806 1.363 . S
C811 C810 1.415 . S
H812 C809 0.999 . S
H813 C794 0.913 . S
H814 C832 0.951 . S
H815 C834 0.951 . S
H816 C836 0.950 . S
H817 C837 0.950 . S
H818 C839 0.950 . S
H819 C842 0.950 . S
H820 C843 0.950 . S
H821 C845 0.950 . S
H822 C846 0.950 . S
H823 C847 0.951 . S
H824 C849 0.951 . S
H825 C851 0.950 . S
H826 C852 0.950 . S
H827 C854 0.950 . S
H828 C857 0.950 . S
H829 C858 0.950 . S
H830 C860 0.950 . S
H831 C861 0.950 . S
C832 H814 0.951 . S
C832 C833 1.366 . S
C832 C834 1.388 . S
C833 C832 1.366 . S
C833 C837 1.385 . S
C834 H815 0.951 . S
C834 C832 1.388 . S
C834 C835 1.366 . S
C835 C834 1.366 . S
C835 C836 1.414 . S
C835 C838 1.499 . S
C836 H816 0.950 . S
C836 C835 1.414 . S
C836 C837 1.374 . S
C837 H817 0.950 . S
C837 C833 1.385 . S
C837 C836 1.374 . S
C838 C835 1.499 . S
C838 C839 1.373 . S
C838 C840 1.357 1_545 S
C839 H818 0.950 . S
C839 C838 1.373 . S
C839 C855 1.408 . S
C840 C838 1.357 1_565 S
C840 C841 1.528 . S
C840 C854 1.408 . S
C841 C840 1.528 . S
C841 C842 1.397 1_565 S
C841 C846 1.363 . S
C842 H819 0.950 . S
C842 C841 1.397 1_545 S
C842 C843 1.334 . S
C843 H820 0.950 . S
C843 C842 1.334 . S
C843 C844 1.287 1_545 S
C844 C843 1.287 1_565 S
C844 C845 1.524 . S
C844 H863 0.913 . S
C845 H821 0.950 . S
C845 C844 1.524 . S
C845 C846 1.415 . S
C846 H822 0.950 . S
C846 C841 1.363 . S
C846 C845 1.415 . S
C847 H823 0.951 . S
C847 C848 1.366 . S
C847 C849 1.388 . S
C848 C847 1.366 . S
C848 C852 1.385 . S
C849 H824 0.951 . S
C849 C847 1.388 . S
C849 C850 1.366 . S
C850 C849 1.366 . S
C850 C851 1.414 . S
C850 C853 1.499 . S
C851 H825 0.950 . S
C851 C850 1.414 . S
C851 C852 1.374 . S
C852 H826 0.950 . S
C852 C848 1.385 . S
C852 C851 1.374 . S
C853 C850 1.499 . S
C853 C854 1.373 . S
C853 C855 1.357 1_565 S
C854 H827 0.950 . S
C854 C840 1.408 . S
C854 C853 1.373 . S
C855 C839 1.408 . S
C855 C853 1.357 1_545 S
C855 C856 1.528 . S
C856 C855 1.528 . S
C856 C857 1.397 1_545 S
C856 C861 1.363 . S
C857 H828 0.950 . S
C857 C856 1.397 1_565 S
C857 C858 1.334 . S
C858 H829 0.950 . S
C858 C857 1.334 . S
C858 C859 1.287 1_565 S
C859 C858 1.287 1_545 S
C859 C860 1.524 . S
C859 H862 0.999 . S
C860 H830 0.950 . S
C860 C859 1.524 . S
C860 C861 1.415 . S
C861 H831 0.950 . S
C861 C856 1.363 . S
C861 C860 1.415 . S
H862 C859 0.999 . S
H863 C844 0.913 . S
H864 C882 0.951 . S
H865 C884 0.951 . S
H866 C886 0.950 . S
H867 C887 0.950 . S
H868 C889 0.950 . S
H869 C892 0.950 . S
H870 C893 0.950 . S
H871 C895 0.950 . S
H872 C896 0.950 . S
H873 C897 0.951 . S
H874 C899 0.951 1_554 S
H875 C901 0.950 . S
H876 C902 0.950 . S
H877 C904 0.950 1_556 S
H878 C907 0.950 . S
H879 C908 0.950 . S
H880 C910 0.950 . S
H881 C911 0.950 . S
C882 H864 0.951 . S
C882 C883 1.366 . S
C882 C884 1.388 . S
C883 C882 1.366 . S
C883 C887 1.385 . S
C884 H865 0.951 . S
C884 C882 1.388 . S
C884 C885 1.366 . S
C885 C884 1.366 . S
C885 C886 1.414 . S
C885 C888 1.499 . S
C886 H866 0.950 . S
C886 C885 1.414 . S
C886 C887 1.374 . S
C887 H867 0.950 . S
C887 C883 1.385 . S
C887 C886 1.374 . S
C888 C885 1.499 . S
C888 C889 1.373 . S
C888 C890 1.389 . S
C889 H868 0.950 . S
C889 C888 1.373 . S
C889 C905 1.377 . S
C890 C888 1.389 . S
C890 C891 1.524 . S
C890 C904 1.377 . S
C891 C890 1.524 . S
C891 C892 1.397 . S
C891 C896 1.363 1_554 S
C892 H869 0.950 . S
C892 C891 1.397 . S
C892 C893 1.334 . S
C893 H870 0.950 . S
C893 C892 1.334 . S
C893 C894 1.287 1_554 S
C894 C893 1.287 1_556 S
C894 C895 1.524 . S
C894 H913 0.913 . S
C895 H871 0.950 . S
C895 C894 1.524 . S
C895 C896 1.415 . S
C896 H872 0.950 . S
C896 C891 1.363 1_556 S
C896 C895 1.415 . S
C897 H873 0.951 . S
C897 C898 1.366 . S
C897 C899 1.388 . S
C898 C897 1.366 . S
C898 C902 1.385 . S
C899 H874 0.951 1_556 S
C899 C897 1.388 . S
C899 C900 1.366 . S
C900 C899 1.366 . S
C900 C901 1.414 . S
C900 C903 1.499 1_556 S
C901 H875 0.950 . S
C901 C900 1.414 . S
C901 C902 1.374 . S
C902 H876 0.950 . S
C902 C898 1.385 . S
C902 C901 1.374 . S
C903 C900 1.499 1_554 S
C903 C904 1.373 . S
C903 C905 1.389 . S
C904 H877 0.950 1_554 S
C904 C890 1.377 . S
C904 C903 1.373 . S
C905 C889 1.377 . S
C905 C903 1.389 . S
C905 C906 1.524 . S
C906 C905 1.524 . S
C906 C907 1.397 . S
C906 C911 1.363 . S
C907 H878 0.950 . S
C907 C906 1.397 . S
C907 C908 1.334 . S
C908 H879 0.950 . S
C908 C907 1.334 . S
C908 C909 1.287 . S
C909 C908 1.287 . S
C909 C910 1.524 . S
C909 H912 0.999 . S
C910 H880 0.950 . S
C910 C909 1.524 . S
C910 C911 1.415 . S
C911 H881 0.950 . S
C911 C906 1.363 . S
C911 C910 1.415 . S
H912 C909 0.999 . S
H913 C894 0.913 . S
H914 C932 0.951 . S
H915 C934 0.951 . S
H916 C936 0.950 . S
H917 C937 0.950 . S
H918 C939 0.950 . S
H919 C942 0.950 . S
H920 C943 0.950 . S
H921 C945 0.950 . S
H922 C946 0.950 . S
H923 C947 0.951 . S
H924 C949 0.951 . S
H925 C951 0.950 . S
H926 C952 0.950 . S
H927 C954 0.950 . S
H928 C957 0.950 . S
H929 C958 0.950 . S
H930 C960 0.950 . S
H931 C961 0.950 . S
C932 H914 0.951 . S
C932 C933 1.366 . S
C932 C934 1.388 . S
C933 C932 1.366 . S
C933 C937 1.385 . S
C934 H915 0.951 . S
C934 C932 1.388 . S
C934 C935 1.366 . S
C935 C934 1.366 . S
C935 C936 1.414 . S
C935 C938 1.499 . S
C936 H916 0.950 . S
C936 C935 1.414 . S
C936 C937 1.374 . S
C937 H917 0.950 . S
C937 C933 1.385 . S
C937 C936 1.374 . S
C938 C935 1.499 . S
C938 C939 1.373 . S
C938 C940 1.389 . S
C939 H918 0.950 . S
C939 C938 1.373 . S
C939 C955 1.377 . S
C940 C938 1.389 . S
C940 C941 1.524 . S
C940 C954 1.377 . S
C941 C940 1.524 . S
C941 C942 1.397 . S
C941 C946 1.363 . S
C942 H919 0.950 . S
C942 C941 1.397 . S
C942 C943 1.334 . S
C943 H920 0.950 . S
C943 C942 1.334 . S
C943 C944 1.287 . S
C944 C943 1.287 . S
C944 C945 1.524 . S
C944 H963 0.913 . S
C945 H921 0.950 . S
C945 C944 1.524 . S
C945 C946 1.415 . S
C946 H922 0.950 . S
C946 C941 1.363 . S
C946 C945 1.415 . S
C947 H923 0.951 . S
C947 C948 1.366 . S
C947 C949 1.388 . S
C948 C947 1.366 . S
C948 C952 1.385 . S
C949 H924 0.951 . S
C949 C947 1.388 . S
C949 C950 1.366 . S
C950 C949 1.366 . S
C950 C951 1.414 . S
C950 C953 1.499 . S
C951 H925 0.950 . S
C951 C950 1.414 . S
C951 C952 1.374 . S
C952 H926 0.950 . S
C952 C948 1.385 . S
C952 C951 1.374 . S
C953 C950 1.499 . S
C953 C954 1.373 . S
C953 C955 1.389 . S
C954 H927 0.950 . S
C954 C940 1.377 . S
C954 C953 1.373 . S
C955 C939 1.377 . S
C955 C953 1.389 . S
C955 C956 1.524 . S
C956 C955 1.524 . S
C956 C957 1.397 . S
C956 C961 1.363 . S
C957 H928 0.950 . S
C957 C956 1.397 . S
C957 C958 1.334 . S
C958 H929 0.950 . S
C958 C957 1.334 . S
C958 C959 1.287 . S
C959 C958 1.287 . S
C959 C960 1.524 . S
C959 H962 0.999 . S
C960 H930 0.950 . S
C960 C959 1.524 . S
C960 C961 1.415 . S
C961 H931 0.950 . S
C961 C956 1.363 . S
C961 C960 1.415 . S
H962 C959 0.999 . S
H963 C944 0.913 . S
H964 C982 0.951 . S
H965 C984 0.951 . S
H966 C986 0.950 . S
H967 C987 0.950 . S
H968 C989 0.950 . S
H969 C992 0.950 . S
H970 C993 0.950 . S
H971 C995 0.950 . S
H972 C996 0.950 . S
H973 C997 0.951 . S
H974 C999 0.951 . S
H975 C1001 0.950 . S
H976 C1002 0.950 . S
H977 C1004 0.950 . S
H978 C1007 0.950 . S
H979 C1008 0.950 . S
H980 C1010 0.950 . S
H981 C1011 0.950 . S
C982 H964 0.951 . S
C982 C983 1.366 . S
C982 C984 1.388 . S
C983 C982 1.366 . S
C983 C987 1.385 . S
C984 H965 0.951 . S
C984 C982 1.388 . S
C984 C985 1.366 . S
C985 C984 1.366 . S
C985 C986 1.414 1_554 S
C985 C988 1.499 1_554 S
C986 H966 0.950 . S
C986 C985 1.414 1_556 S
C986 C987 1.374 1_556 S
C987 H967 0.950 . S
C987 C983 1.385 . S
C987 C986 1.374 1_554 S
C988 C985 1.499 1_556 S
C988 C989 1.373 . S
C988 C990 1.389 . S
C989 H968 0.950 . S
C989 C988 1.373 . S
C989 C1005 1.377 . S
C990 C988 1.389 . S
C990 C991 1.524 . S
C990 C1004 1.377 . S
C991 C990 1.524 . S
C991 C992 1.397 . S
C991 C996 1.363 1_556 S
C992 H969 0.950 . S
C992 C991 1.397 . S
C992 C993 1.334 . S
C993 H970 0.950 . S
C993 C992 1.334 . S
C993 C994 1.287 1_556 S
C994 C993 1.287 1_554 S
C994 C995 1.524 . S
C994 H1013 0.913 . S
C995 H971 0.950 . S
C995 C994 1.524 . S
C995 C996 1.415 . S
C996 H972 0.950 . S
C996 C991 1.363 1_554 S
C996 C995 1.415 . S
C997 H973 0.951 . S
C997 C998 1.366 . S
C997 C999 1.388 . S
C998 C997 1.366 . S
C998 C1002 1.385 . S
C999 H974 0.951 . S
C999 C997 1.388 . S
C999 C1000 1.366 . S
C1000 C999 1.366 . S
C1000 C1001 1.414 . S
C1000 C1003 1.499 . S
C1001 H975 0.950 . S
C1001 C1000 1.414 . S
C1001 C1002 1.374 . S
C1002 H976 0.950 . S
C1002 C998 1.385 . S
C1002 C1001 1.374 . S
C1003 C1000 1.499 . S
C1003 C1004 1.373 . S
C1003 C1005 1.389 . S
C1004 H977 0.950 . S
C1004 C990 1.377 . S
C1004 C1003 1.373 . S
C1005 C989 1.377 . S
C1005 C1003 1.389 . S
C1005 C1006 1.524 . S
C1006 C1005 1.524 . S
C1006 C1007 1.397 . S
C1006 C1011 1.363 . S
C1007 H978 0.950 . S
C1007 C1006 1.397 . S
C1007 C1008 1.334 . S
C1008 H979 0.950 . S
C1008 C1007 1.334 . S
C1008 C1009 1.287 . S
C1009 C1008 1.287 . S
C1009 C1010 1.524 . S
C1009 H1012 0.999 . S
C1010 H980 0.950 . S
C1010 C1009 1.524 . S
C1010 C1011 1.415 . S
C1011 H981 0.950 . S
C1011 C1006 1.363 . S
C1011 C1010 1.415 . S
H1012 C1009 0.999 . S
H1013 C994 0.913 . S
H1014 C1032 0.951 . S
H1015 C1034 0.951 . S
H1016 C1036 0.950 . S
H1017 C1037 0.950 . S
H1018 C1039 0.950 . S
H1019 C1042 0.950 . S
H1020 C1043 0.950 . S
H1021 C1045 0.950 . S
H1022 C1046 0.950 . S
H1023 C1047 0.951 . S
H1024 C1049 0.951 . S
H1025 C1051 0.950 . S
H1026 C1052 0.950 . S
H1027 C1054 0.950 . S
H1028 C1057 0.950 . S
H1029 C1058 0.950 . S
H1030 C1060 0.950 . S
H1031 C1061 0.950 . S
C1032 H1014 0.951 . S
C1032 C1033 1.366 . S
C1032 C1034 1.388 . S
C1033 C1032 1.366 . S
C1033 C1037 1.385 . S
C1034 H1015 0.951 . S
C1034 C1032 1.388 . S
C1034 C1035 1.366 . S
C1035 C1034 1.366 . S
C1035 C1036 1.414 . S
C1035 C1038 1.499 . S
C1036 H1016 0.950 . S
C1036 C1035 1.414 . S
C1036 C1037 1.374 . S
C1037 H1017 0.950 . S
C1037 C1033 1.385 . S
C1037 C1036 1.374 . S
C1038 C1035 1.499 . S
C1038 C1039 1.373 . S
C1038 C1040 1.389 . S
C1039 H1018 0.950 . S
C1039 C1038 1.373 . S
C1039 C1055 1.377 . S
C1040 C1038 1.389 . S
C1040 C1041 1.524 . S
C1040 C1054 1.377 . S
C1041 C1040 1.524 . S
C1041 C1042 1.397 . S
C1041 C1046 1.363 . S
C1042 H1019 0.950 . S
C1042 C1041 1.397 . S
C1042 C1043 1.334 . S
C1043 H1020 0.950 . S
C1043 C1042 1.334 . S
C1043 C1044 1.287 . S
C1044 C1043 1.287 . S
C1044 C1045 1.524 . S
C1044 H1063 0.913 . S
C1045 H1021 0.950 . S
C1045 C1044 1.524 . S
C1045 C1046 1.415 . S
C1046 H1022 0.950 . S
C1046 C1041 1.363 . S
C1046 C1045 1.415 . S
C1047 H1023 0.951 . S
C1047 C1048 1.366 . S
C1047 C1049 1.388 . S
C1048 C1047 1.366 . S
C1048 C1052 1.385 . S
C1049 H1024 0.951 . S
C1049 C1047 1.388 . S
C1049 C1050 1.366 . S
C1050 C1049 1.366 . S
C1050 C1051 1.414 . S
C1050 C1053 1.499 . S
C1051 H1025 0.950 . S
C1051 C1050 1.414 . S
C1051 C1052 1.374 . S
C1052 H1026 0.950 . S
C1052 C1048 1.385 . S
C1052 C1051 1.374 . S
C1053 C1050 1.499 . S
C1053 C1054 1.373 . S
C1053 C1055 1.389 . S
C1054 H1027 0.950 . S
C1054 C1040 1.377 . S
C1054 C1053 1.373 . S
C1055 C1039 1.377 . S
C1055 C1053 1.389 . S
C1055 C1056 1.524 . S
C1056 C1055 1.524 . S
C1056 C1057 1.397 . S
C1056 C1061 1.363 . S
C1057 H1028 0.950 . S
C1057 C1056 1.397 . S
C1057 C1058 1.334 . S
C1058 H1029 0.950 . S
C1058 C1057 1.334 . S
C1058 C1059 1.287 . S
C1059 C1058 1.287 . S
C1059 C1060 1.524 . S
C1059 H1062 0.999 . S
C1060 H1030 0.950 . S
C1060 C1059 1.524 . S
C1060 C1061 1.415 . S
C1061 H1031 0.950 . S
C1061 C1056 1.363 . S
C1061 C1060 1.415 . S
H1062 C1059 0.999 . S
H1063 C1044 0.913 . S
H1064 C1082 0.951 . S
H1065 C1084 0.951 . S
H1066 C1086 0.950 1_554 S
H1067 C1087 0.950 . S
H1068 C1089 0.950 . S
H1069 C1092 0.950 . S
H1070 C1093 0.950 . S
H1071 C1095 0.950 . S
H1072 C1096 0.950 . S
H1073 C1097 0.951 . S
H1074 C1099 0.951 . S
H1075 C1101 0.950 . S
H1076 C1102 0.950 . S
H1077 C1104 0.950 . S
H1078 C1107 0.950 . S
H1079 C1108 0.950 . S
H1080 C1110 0.950 . S
H1081 C1111 0.950 . S
C1082 H1064 0.951 . S
C1082 C1083 1.366 . S
C1082 C1084 1.388 . S
C1083 C1082 1.366 . S
C1083 C1087 1.385 . S
C1084 H1065 0.951 . S
C1084 C1082 1.388 . S
C1084 C1085 1.366 . S
C1085 C1084 1.366 . S
C1085 C1086 1.414 . S
C1085 C1088 1.499 1_556 S
C1086 H1066 0.950 1_556 S
C1086 C1085 1.414 . S
C1086 C1087 1.374 . S
C1087 H1067 0.950 . S
C1087 C1083 1.385 . S
C1087 C1086 1.374 . S
C1088 C1085 1.499 1_554 S
C1088 C1089 1.373 . S
C1088 C1090 1.389 . S
C1089 H1068 0.950 . S
C1089 C1088 1.373 . S
C1089 C1105 1.377 . S
C1090 C1088 1.389 . S
C1090 C1091 1.524 . S
C1090 C1104 1.377 . S
C1091 C1090 1.524 . S
C1091 C1092 1.397 . S
C1091 C1096 1.363 . S
C1092 H1069 0.950 . S
C1092 C1091 1.397 . S
C1092 C1093 1.334 . S
C1093 H1070 0.950 . S
C1093 C1092 1.334 . S
C1093 C1094 1.287 . S
C1094 C1093 1.287 . S
C1094 C1095 1.524 . S
C1094 H1113 0.913 . S
C1095 H1071 0.950 . S
C1095 C1094 1.524 . S
C1095 C1096 1.415 . S
C1096 H1072 0.950 . S
C1096 C1091 1.363 . S
C1096 C1095 1.415 . S
C1097 H1073 0.951 . S
C1097 C1098 1.366 . S
C1097 C1099 1.388 . S
C1098 C1097 1.366 . S
C1098 C1102 1.385 . S
C1099 H1074 0.951 . S
C1099 C1097 1.388 . S
C1099 C1100 1.366 . S
C1100 C1099 1.366 . S
C1100 C1101 1.414 . S
C1100 C1103 1.499 . S
C1101 H1075 0.950 . S
C1101 C1100 1.414 . S
C1101 C1102 1.374 . S
C1102 H1076 0.950 . S
C1102 C1098 1.385 . S
C1102 C1101 1.374 . S
C1103 C1100 1.499 . S
C1103 C1104 1.373 . S
C1103 C1105 1.389 . S
C1104 H1077 0.950 . S
C1104 C1090 1.377 . S
C1104 C1103 1.373 . S
C1105 C1089 1.377 . S
C1105 C1103 1.389 . S
C1105 C1106 1.524 . S
C1106 C1105 1.524 . S
C1106 C1107 1.397 . S
C1106 C1111 1.363 . S
C1107 H1078 0.950 . S
C1107 C1106 1.397 . S
C1107 C1108 1.334 . S
C1108 H1079 0.950 . S
C1108 C1107 1.334 . S
C1108 C1109 1.287 . S
C1109 C1108 1.287 . S
C1109 C1110 1.524 . S
C1109 H1112 0.999 . S
C1110 H1080 0.950 . S
C1110 C1109 1.524 . S
C1110 C1111 1.415 . S
C1111 H1081 0.950 . S
C1111 C1106 1.363 . S
C1111 C1110 1.415 . S
H1112 C1109 0.999 . S
H1113 C1094 0.913 . S
H1114 C1132 0.951 . S
H1115 C1134 0.951 . S
H1116 C1136 0.950 . S
H1117 C1137 0.950 . S
H1118 C1139 0.950 . S
H1119 C1142 0.950 . S
H1120 C1143 0.950 . S
H1121 C1145 0.950 . S
H1122 C1146 0.950 . S
H1123 C1147 0.951 . S
H1124 C1149 0.951 . S
H1125 C1151 0.950 . S
H1126 C1152 0.950 . S
H1127 C1154 0.950 . S
H1128 C1157 0.950 . S
H1129 C1158 0.950 . S
H1130 C1160 0.950 . S
H1131 C1161 0.950 . S
C1132 H1114 0.951 . S
C1132 C1133 1.366 . S
C1132 C1134 1.388 . S
C1133 C1132 1.366 . S
C1133 C1137 1.385 . S
C1134 H1115 0.951 . S
C1134 C1132 1.388 . S
C1134 C1135 1.366 . S
C1135 C1134 1.366 . S
C1135 C1136 1.414 . S
C1135 C1138 1.499 . S
C1136 H1116 0.950 . S
C1136 C1135 1.414 . S
C1136 C1137 1.374 . S
C1137 H1117 0.950 . S
C1137 C1133 1.385 . S
C1137 C1136 1.374 . S
C1138 C1135 1.499 . S
C1138 C1139 1.373 . S
C1138 C1140 1.389 . S
C1139 H1118 0.950 . S
C1139 C1138 1.373 . S
C1139 C1155 1.377 . S
C1140 C1138 1.389 . S
C1140 C1141 1.524 . S
C1140 C1154 1.377 . S
C1141 C1140 1.524 . S
C1141 C1142 1.397 . S
C1141 C1146 1.363 . S
C1142 H1119 0.950 . S
C1142 C1141 1.397 . S
C1142 C1143 1.334 . S
C1143 H1120 0.950 . S
C1143 C1142 1.334 . S
C1143 C1144 1.287 . S
C1144 C1143 1.287 . S
C1144 C1145 1.524 . S
C1144 H1163 0.913 . S
C1145 H1121 0.950 . S
C1145 C1144 1.524 . S
C1145 C1146 1.415 . S
C1146 H1122 0.950 . S
C1146 C1141 1.363 . S
C1146 C1145 1.415 . S
C1147 H1123 0.951 . S
C1147 C1148 1.366 . S
C1147 C1149 1.388 . S
C1148 C1147 1.366 . S
C1148 C1152 1.385 . S
C1149 H1124 0.951 . S
C1149 C1147 1.388 . S
C1149 C1150 1.366 . S
C1150 C1149 1.366 . S
C1150 C1151 1.414 . S
C1150 C1153 1.499 . S
C1151 H1125 0.950 . S
C1151 C1150 1.414 . S
C1151 C1152 1.374 . S
C1152 H1126 0.950 . S
C1152 C1148 1.385 . S
C1152 C1151 1.374 . S
C1153 C1150 1.499 . S
C1153 C1154 1.373 . S
C1153 C1155 1.389 . S
C1154 H1127 0.950 . S
C1154 C1140 1.377 . S
C1154 C1153 1.373 . S
C1155 C1139 1.377 . S
C1155 C1153 1.389 . S
C1155 C1156 1.524 . S
C1156 C1155 1.524 . S
C1156 C1157 1.397 . S
C1156 C1161 1.363 . S
C1157 H1128 0.950 . S
C1157 C1156 1.397 . S
C1157 C1158 1.334 . S
C1158 H1129 0.950 . S
C1158 C1157 1.334 . S
C1158 C1159 1.287 . S
C1159 C1158 1.287 . S
C1159 C1160 1.524 . S
C1159 H1162 0.999 . S
C1160 H1130 0.950 . S
C1160 C1159 1.524 . S
C1160 C1161 1.415 . S
C1161 H1131 0.950 . S
C1161 C1156 1.363 . S
C1161 C1160 1.415 . S
H1162 C1159 0.999 . S
H1163 C1144 0.913 . S
H1164 C1182 0.951 . S
H1165 C1184 0.951 . S
H1166 C1186 0.950 . S
H1167 C1187 0.950 . S
H1168 C1189 0.950 . S
H1169 C1192 0.950 . S
H1170 C1193 0.950 . S
H1171 C1195 0.950 1_554 S
H1172 C1196 0.950 1_554 S
H1173 C1197 0.951 . S
H1174 C1199 0.951 . S
H1175 C1201 0.950 . S
H1176 C1202 0.950 . S
H1177 C1204 0.954 . S
H1178 C1207 0.950 . S
H1179 C1208 0.950 . S
H1180 C1210 0.950 . S
H1181 C1211 0.950 . S
C1182 H1164 0.951 . S
C1182 C1183 1.366 . S
C1182 C1184 1.388 . S
C1183 C1182 1.366 . S
C1183 C1187 1.385 . S
C1184 H1165 0.951 . S
C1184 C1182 1.388 . S
C1184 C1185 1.366 . S
C1185 C1184 1.366 . S
C1185 C1186 1.414 . S
C1185 C1188 1.499 . S
C1186 H1166 0.950 . S
C1186 C1185 1.414 . S
C1186 C1187 1.374 . S
C1187 H1167 0.950 . S
C1187 C1183 1.385 . S
C1187 C1186 1.374 . S
C1188 C1185 1.499 . S
C1188 C1189 1.373 . S
C1188 C1190 1.389 . S
C1189 H1168 0.950 . S
C1189 C1188 1.373 . S
C1189 C1205 1.377 . S
C1190 C1188 1.389 . S
C1190 C1191 1.524 . S
C1190 C1204 1.377 . S
C1191 C1190 1.524 . S
C1191 C1192 1.397 . S
C1191 C1196 1.363 . S
C1192 H1169 0.950 . S
C1192 C1191 1.397 . S
C1192 C1193 1.334 . S
C1193 H1170 0.950 . S
C1193 C1192 1.334 . S
C1193 C1194 1.287 . S
C1194 C1193 1.287 . S
C1194 C1195 1.524 . S
C1194 H1213 0.913 . S
C1195 H1171 0.950 1_556 S
C1195 C1194 1.524 . S
C1195 C1196 1.415 . S
C1196 H1172 0.950 1_556 S
C1196 C1191 1.363 . S
C1196 C1195 1.415 . S
C1197 H1173 0.951 . S
C1197 C1198 1.366 . S
C1197 C1199 1.388 1_554 S
C1198 C1197 1.366 . S
C1198 C1202 1.385 . S
C1199 H1174 0.951 . S
C1199 C1197 1.388 1_556 S
C1199 C1200 1.366 1_556 S
C1200 C1199 1.366 1_554 S
C1200 C1201 1.414 . S
C1200 C1203 1.499 1_554 S
C1201 H1175 0.950 . S
C1201 C1200 1.414 . S
C1201 C1202 1.374 . S
C1202 H1176 0.950 . S
C1202 C1198 1.385 . S
C1202 C1201 1.374 . S
C1203 C1200 1.499 1_556 S
C1203 C1204 1.373 . S
C1203 C1205 1.389 . S
C1204 H1177 0.954 . S
C1204 C1190 1.377 . S
C1204 C1203 1.373 . S
C1205 C1189 1.377 . S
C1205 C1203 1.389 . S
C1205 C1206 1.524 . S
C1206 C1205 1.524 . S
C1206 C1207 1.397 . S
C1206 C1211 1.363 . S
C1207 H1178 0.950 . S
C1207 C1206 1.397 . S
C1207 C1208 1.334 . S
C1208 H1179 0.950 . S
C1208 C1207 1.334 . S
C1208 C1209 1.287 . S
C1209 C1208 1.287 . S
C1209 C1210 1.524 . S
C1209 H1212 0.999 . S
C1210 H1180 0.950 . S
C1210 C1209 1.524 . S
C1210 C1211 1.415 . S
C1211 H1181 0.950 . S
C1211 C1206 1.363 . S
C1211 C1210 1.415 . S
H1212 C1209 0.999 . S
H1213 C1194 0.913 . S
H1214 C1232 0.951 . S
H1215 C1234 0.951 . S
H1216 C1236 0.950 . S
H1217 C1237 0.950 . S
H1218 C1239 0.950 . S
H1219 C1242 0.950 . S
H1220 C1243 0.950 . S
H1221 C1245 0.950 . S
H1222 C1246 0.950 . S
H1223 C1247 0.951 . S
H1224 C1249 0.951 . S
H1225 C1251 0.950 . S
H1226 C1252 0.950 . S
H1227 C1254 0.950 . S
H1228 C1257 0.950 . S
H1229 C1258 0.950 . S
H1230 C1260 0.950 . S
H1231 C1261 0.950 . S
C1232 H1214 0.951 . S
C1232 C1233 1.366 . S
C1232 C1234 1.388 . S
C1233 C1232 1.366 . S
C1233 C1237 1.385 . S
C1234 H1215 0.951 . S
C1234 C1232 1.388 . S
C1234 C1235 1.366 . S
C1235 C1234 1.366 . S
C1235 C1236 1.414 . S
C1235 C1238 1.499 . S
C1236 H1216 0.950 . S
C1236 C1235 1.414 . S
C1236 C1237 1.374 . S
C1237 H1217 0.950 . S
C1237 C1233 1.385 . S
C1237 C1236 1.374 . S
C1238 C1235 1.499 . S
C1238 C1239 1.373 . S
C1238 C1240 1.389 . S
C1239 H1218 0.950 . S
C1239 C1238 1.373 . S
C1239 C1255 1.377 . S
C1240 C1238 1.389 . S
C1240 C1241 1.524 . S
C1240 C1254 1.377 . S
C1241 C1240 1.524 . S
C1241 C1242 1.397 . S
C1241 C1246 1.363 . S
C1242 H1219 0.950 . S
C1242 C1241 1.397 . S
C1242 C1243 1.334 . S
C1243 H1220 0.950 . S
C1243 C1242 1.334 . S
C1243 C1244 1.287 . S
C1244 C1243 1.287 . S
C1244 C1245 1.524 . S
C1244 H1263 0.913 . S
C1245 H1221 0.950 . S
C1245 C1244 1.524 . S
C1245 C1246 1.415 . S
C1246 H1222 0.950 . S
C1246 C1241 1.363 . S
C1246 C1245 1.415 . S
C1247 H1223 0.951 . S
C1247 C1248 1.366 . S
C1247 C1249 1.388 . S
C1248 C1247 1.366 . S
C1248 C1252 1.385 . S
C1249 H1224 0.951 . S
C1249 C1247 1.388 . S
C1249 C1250 1.366 . S
C1250 C1249 1.366 . S
C1250 C1251 1.414 . S
C1250 C1253 1.499 . S
C1251 H1225 0.950 . S
C1251 C1250 1.414 . S
C1251 C1252 1.374 . S
C1252 H1226 0.950 . S
C1252 C1248 1.385 . S
C1252 C1251 1.374 . S
C1253 C1250 1.499 . S
C1253 C1254 1.373 . S
C1253 C1255 1.389 . S
C1254 H1227 0.950 . S
C1254 C1240 1.377 . S
C1254 C1253 1.373 . S
C1255 C1239 1.377 . S
C1255 C1253 1.389 . S
C1255 C1256 1.524 . S
C1256 C1255 1.524 . S
C1256 C1257 1.397 . S
C1256 C1261 1.363 . S
C1257 H1228 0.950 . S
C1257 C1256 1.397 . S
C1257 C1258 1.334 . S
C1258 H1229 0.950 . S
C1258 C1257 1.334 . S
C1258 C1259 1.287 . S
C1259 C1258 1.287 . S
C1259 C1260 1.524 . S
C1259 H1262 0.999 . S
C1260 H1230 0.950 . S
C1260 C1259 1.524 . S
C1260 C1261 1.415 . S
C1261 H1231 0.950 . S
C1261 C1256 1.363 . S
C1261 C1260 1.415 . S
H1262 C1259 0.999 . S
H1263 C1244 0.913 . S
C283 C17 1.462 . S
C298 C116 1.462 . S
C333 C50 1.462 . S
C348 C83 1.462 . S
C383 C248 1.462 . S
C398 C149 1.462 . S
C433 C182 1.462 . S
C448 C215 1.462 . S
C483 N71 1.110 . S
C498 N5 1.109 . S
C533 N104 1.109 . S
C548 N38 1.110 . S
C583 C61 1.421 . S
C598 C127 1.422 . S
C633 C28 1.422 . S
C648 C94 1.421 . S
C683 N203 1.108 . S
C698 N137 1.109 . S
C733 N170 1.109 . S
C748 N236 1.110 . S
C783 C193 1.421 . S
C798 C259 1.422 . S
C833 C226 1.422 . S
C848 C160 1.421 . S
C883 C8 1.274 . S
C898 N179 1.272 . S
C933 C41 1.274 . S
C948 N146 1.271 . S
C983 N245 1.272 . S
C998 C74 1.273 . S
C1033 C107 1.273 . S
C1048 N212 1.271 . S
C1083 N47 1.272 . S
C1098 C140 1.274 . S
C1133 C173 1.274 . S
C1148 N14 1.272 . S
C1183 C206 1.274 . S
C1198 N113 1.272 . S
C1233 C239 1.274 . S
C1248 N80 1.271 . S
