# Generated by pormake.
# Topology crb, (4)-cn, num edge types: 1
# Building blocks:
#     Node 0, Type 0, BuildingBlock: QUQFOY_clean_sbu_3, # of connection points: 4
#     Node 1, Type 0, BuildingBlock: QUQFOY_clean_sbu_3, # of connection points: 4
#     Node 2, Type 0, BuildingBlock: QUQFOY_clean_sbu_3, # of connection points: 4
#     Node 3, Type 0, BuildingBlock: QUQFOY_clean_sbu_3, # of connection points: 4
#     Node 4, Type 0, BuildingBlock: QUQFOY_clean_sbu_3, # of connection points: 4
#     Node 5, Type 0, BuildingBlock: QUQFOY_clean_sbu_3, # of connection points: 4
#     Node 6, Type 0, BuildingBlock: QUQFOY_clean_sbu_3, # of connection points: 4
#     Node 7, Type 0, BuildingBlock: QUQFOY_clean_sbu_3, # of connection points: 4
#     Edge 8, Type (0, 0), BuildingBlock: TEMPAE_clean_linker_10, # of connection points: 2
#     Edge 9, Type (0, 0), BuildingBlock: TEMPAE_clean_linker_10, # of connection points: 2
#     Edge 10, Type (0, 0), BuildingBlock: TEMPAE_clean_linker_10, # of connection points: 2
#     Edge 11, Type (0, 0), BuildingBlock: TEMPAE_clean_linker_10, # of connection points: 2
#     Edge 12, Type (0, 0), BuildingBlock: TEMPAE_clean_linker_10, # of connection points: 2
#     Edge 13, Type (0, 0), BuildingBlock: TEMPAE_clean_linker_10, # of connection points: 2
#     Edge 14, Type (0, 0), BuildingBlock: TEMPAE_clean_linker_10, # of connection points: 2
#     Edge 15, Type (0, 0), BuildingBlock: TEMPAE_clean_linker_10, # of connection points: 2
#     Edge 16, Type (0, 0), BuildingBlock: TEMPAE_clean_linker_10, # of connection points: 2
#     Edge 17, Type (0, 0), BuildingBlock: TEMPAE_clean_linker_10, # of connection points: 2
#     Edge 18, Type (0, 0), BuildingBlock: TEMPAE_clean_linker_10, # of connection points: 2
#     Edge 19, Type (0, 0), BuildingBlock: TEMPAE_clean_linker_10, # of connection points: 2
#     Edge 20, Type (0, 0), BuildingBlock: TEMPAE_clean_linker_10, # of connection points: 2
#     Edge 21, Type (0, 0), BuildingBlock: TEMPAE_clean_linker_10, # of connection points: 2
#     Edge 22, Type (0, 0), BuildingBlock: TEMPAE_clean_linker_10, # of connection points: 2
#     Edge 23, Type (0, 0), BuildingBlock: TEMPAE_clean_linker_10, # of connection points: 2
# Relax obj value: 0.113
# Max RMSD: 0.155
# Mean RMSD: 0.155
data_MOF--net-crb--node1-QUQFOY_clean_sbu_3--edge1-TEMPAE_clean_linker_10
_symmetry_space_group_name_H-M    P1
_symmetry_Int_Tables_number       1
_symmetry_cell_setting            triclinic
loop_
_symmetry_equiv_pos_as_xyz
'x, y, z'
_cell_length_a     45.570902
_cell_length_b     45.107402
_cell_length_c     24.445614
_cell_angle_alpha  90.045954
_cell_angle_beta   90.004329
_cell_angle_gamma 90.09895
loop_
_atom_site_label
_atom_site_type_symbol
_atom_site_fract_x
_atom_site_fract_y
_atom_site_fract_z
_atom_type_partial_charge
C0 C 0.38194 0.32939 0.10248 0.0
O1 O 0.38066 0.34249 0.14843 0.0
Cd2 Cd 0.33502 0.35499 0.1916 0.0
O3 O 0.35859 0.32206 0.07733 0.0
Cd4 Cd 0.30525 0.32539 0.0888 0.0
C5 C 0.30732 0.40032 0.09326 0.0
O6 O 0.30438 0.3115 0.18458 0.0
O7 O 0.26268 0.32382 0.14904 0.0
O8 O 0.30121 0.27807 0.04098 0.0
C9 C 0.27678 0.31372 0.18965 0.0
O10 O 0.31825 0.39835 0.14102 0.0
C11 C 0.28466 0.28816 0.00359 0.0
O12 O 0.30155 0.37722 0.06559 0.0
O13 O 0.27754 0.3153 0.0067 0.0
C14 C 0.58267 0.30692 0.94305 0.0
O15 O 0.59071 0.31796 0.89763 0.0
Cd16 Cd 0.6414 0.32297 0.86963 0.0
O17 O 0.6015 0.29933 0.97877 0.0
Cd18 Cd 0.65449 0.30211 0.99058 0.0
C19 C 0.66029 0.37534 0.9607 0.0
O20 O 0.66673 0.28016 0.90354 0.0
O21 O 0.70347 0.29617 0.95095 0.0
O22 O 0.65432 0.26053 0.05463 0.0
C23 C 0.69428 0.28255 0.90893 0.0
O24 O 0.6596 0.36908 0.90997 0.0
C25 C 0.66552 0.27555 0.0934 0.0
O26 O 0.65612 0.35557 -0.00318 0.0
O27 O 0.6711 0.30263 0.08397 0.0
C28 C 0.59665 0.65368 0.09107 0.0
O29 O 0.60167 0.6473 0.14079 0.0
Cd30 Cd 0.6507 0.63903 0.17433 0.0
O31 O 0.61749 0.65807 0.05746 0.0
Cd32 Cd 0.6711 0.66036 0.05535 0.0
C33 C 0.67256 0.58692 0.08146 0.0
O34 O 0.67735 0.68184 0.14474 0.0
O35 O 0.71733 0.66759 0.10517 0.0
O36 O 0.6681 0.70365 -0.00364 0.0
C37 C 0.7051 0.68046 0.14527 0.0
O38 O 0.66701 0.5925 0.13147 0.0
C39 C 0.68364 0.69238 0.95857 0.0
O40 O 0.67362 0.60745 0.04601 0.0
O41 O 0.69311 0.66623 0.96607 0.0
C42 C 0.39089 0.66558 0.94818 0.0
O43 O 0.38509 0.66514 0.89739 0.0
Cd44 Cd 0.33528 0.66184 0.86505 0.0
O45 O 0.37064 0.66734 0.98379 0.0
Cd46 Cd 0.31744 0.67358 0.99043 0.0
C47 C 0.30834 0.60418 0.94157 0.0
O48 O 0.30985 0.70219 0.9084 0.0
O49 O 0.27071 0.68688 0.94981 0.0
O50 O 0.32229 0.71201 0.05945 0.0
C51 C 0.28205 0.70162 0.91107 0.0
O52 O 0.31763 0.61282 0.89507 0.0
C53 C 0.30876 0.69744 0.0961 0.0
O54 O 0.30684 0.62187 0.98189 0.0
O55 O 0.2997 0.67171 0.08341 0.0
C56 C 0.88662 0.82099 0.59079 0.0
O57 O 0.88233 0.83087 0.63879 0.0
Cd58 Cd 0.83432 0.84025 0.67508 0.0
O59 O 0.86518 0.8156 0.55892 0.0
Cd60 Cd 0.81141 0.81826 0.55712 0.0
C61 C 0.81215 0.89227 0.5827 0.0
O62 O 0.80504 0.79836 0.6478 0.0
O63 O 0.76525 0.81167 0.6064 0.0
O64 O 0.81144 0.77437 0.49912 0.0
C65 C 0.77728 0.80003 0.64789 0.0
O66 O 0.82054 0.88669 0.63125 0.0
C67 C 0.79749 0.78657 0.46022 0.0
O68 O 0.80806 0.87157 0.54822 0.0
O69 O 0.79003 0.81345 0.46676 0.0
C70 C 0.09184 0.81431 0.44451 0.0
O71 O 0.09815 0.82262 0.39627 0.0
Cd72 Cd 0.1477 0.82915 0.3641 0.0
O73 O 0.11186 0.80976 0.47976 0.0
Cd74 Cd 0.16528 0.81284 0.4879 0.0
C75 C 0.16947 0.88507 0.44741 0.0
O76 O 0.17527 0.78847 0.40223 0.0
O77 O 0.21318 0.80332 0.44803 0.0
O78 O 0.16581 0.77311 0.55516 0.0
C79 C 0.20297 0.78995 0.40658 0.0
O80 O 0.16243 0.87772 0.3989 0.0
C81 C 0.17694 0.78905 0.59271 0.0
O82 O 0.17081 0.86593 0.4854 0.0
O83 O 0.18219 0.81598 0.5813 0.0
C84 C 0.0915 0.16158 0.60664 0.0
O85 O 0.09339 0.14895 0.65291 0.0
Cd86 Cd 0.13914 0.137 0.69584 0.0
O87 O 0.11447 0.16871 0.58007 0.0
Cd88 Cd 0.16808 0.16541 0.58906 0.0
C89 C 0.16613 0.09047 0.59828 0.0
O90 O 0.16971 0.18001 0.68417 0.0
O91 O 0.21121 0.16759 0.64801 0.0
O92 O 0.17229 0.21238 0.54028 0.0
C93 C 0.1973 0.17764 0.6889 0.0
O94 O 0.15549 0.09322 0.64614 0.0
C95 C 0.18826 0.20192 0.50235 0.0
O96 O 0.17171 0.11306 0.56908 0.0
O97 O 0.19484 0.17463 0.50528 0.0
C98 C 0.89059 0.17553 0.4446 0.0
O99 O 0.88432 0.16686 0.39654 0.0
Cd100 Cd 0.83487 0.1581 0.36585 0.0
O101 O 0.87056 0.17958 0.48008 0.0
Cd102 Cd 0.81723 0.17542 0.48978 0.0
C103 C 0.8156 0.10259 0.45294 0.0
O104 O 0.80556 0.19774 0.40293 0.0
O105 O 0.76873 0.18117 0.4496 0.0
O106 O 0.81561 0.21658 0.55452 0.0
C107 C 0.77802 0.19438 0.40727 0.0
O108 O 0.82211 0.10972 0.40406 0.0
C109 C 0.80554 0.20095 0.59348 0.0
O110 O 0.81368 0.12204 0.49039 0.0
O111 O 0.80123 0.17363 0.58386 0.0
C112 C 0.28446 0.433 0.02272 0.0
C113 C 0.30305 0.42969 0.06806 0.0
C114 C 0.28165 0.46047 -0.00361 0.0
C115 C 0.29829 0.48488 0.01532 0.0
C116 C 0.31694 0.48169 0.06128 0.0
C117 C 0.31886 0.45418 0.08744 0.0
C118 C 0.26105 0.46334 0.94831 0.0
C119 C 0.33528 0.50722 0.0823 0.0
C120 C 0.31841 0.55056 0.92694 0.0
C121 C 0.30143 0.57279 0.95121 0.0
C122 C 0.31637 0.52116 0.94516 0.0
C123 C 0.29642 0.51401 0.98763 0.0
C124 C 0.27735 0.53595 0.00854 0.0
C125 C 0.28035 0.56523 0.99052 0.0
C126 C 0.33727 0.49837 0.92228 0.0
C127 C 0.25526 0.52901 0.05278 0.0
H128 H 0.27208 0.41411 0.00779 0.0
H129 H 0.33343 0.45165 0.12217 0.0
H130 H 0.24494 0.48126 0.95609 0.0
H131 H 0.27355 0.46959 0.91113 0.0
H132 H 0.24892 0.44244 0.9399 0.0
H133 H 0.34917 0.50082 0.11771 0.0
H134 H 0.34975 0.51563 0.04924 0.0
H135 H 0.32085 0.52576 0.09501 0.0
H136 H 0.33479 0.5565 0.89668 0.0
H137 H 0.26698 0.58246 0.0088 0.0
H138 H 0.32548 0.47756 0.91208 0.0
H139 H 0.35401 0.4929 0.95366 0.0
H140 H 0.34874 0.50648 0.88507 0.0
H141 H 0.24327 0.50821 0.04329 0.0
H142 H 0.23908 0.54718 0.05815 0.0
H143 H 0.26685 0.52568 0.09221 0.0
C144 C 0.43583 0.33837 0.09492 0.0
C145 C 0.41065 0.32348 0.07676 0.0
C146 C 0.46294 0.33401 0.06921 0.0
C147 C 0.46495 0.31392 0.02483 0.0
C148 C 0.43973 0.29849 0.00675 0.0
C149 C 0.41278 0.3036 0.03272 0.0
C150 C 0.4894 0.35109 0.08925 0.0
C151 C 0.44122 0.27656 0.96011 0.0
C152 C 0.53117 0.32487 0.93347 0.0
C153 C 0.55131 0.30539 0.95751 0.0
C154 C 0.50243 0.32707 0.95356 0.0
C155 C 0.49368 0.30899 -0.002 0.0
C156 C 0.51334 0.28788 0.01989 0.0
C157 C 0.54204 0.2865 -0.00036 0.0
C158 C 0.48207 0.34998 0.9295 0.0
C159 C 0.50458 0.26781 0.06657 0.0
H160 H 0.43426 0.35393 0.1287 0.0
H161 H 0.39341 0.29194 0.01866 0.0
H162 H 0.50659 0.33548 0.10334 0.0
H163 H 0.4989 0.36427 0.05526 0.0
H164 H 0.48396 0.36634 0.12347 0.0
H165 H 0.41961 0.26618 0.95137 0.0
H166 H 0.44911 0.28777 0.9225 0.0
H167 H 0.45721 0.25881 0.96988 0.0
H168 H 0.53831 0.33958 0.90102 0.0
H169 H 0.5575 0.27117 0.01791 0.0
H170 H 0.47797 0.36765 0.96017 0.0
H171 H 0.46055 0.33988 0.91927 0.0
H172 H 0.49128 0.36037 0.89205 0.0
H173 H 0.50169 0.28116 0.10432 0.0
H174 H 0.52127 0.25044 0.07469 0.0
H175 H 0.48327 0.25688 0.05771 0.0
C176 C 0.68701 0.42346 0.95542 0.0
C177 C 0.66477 0.40606 0.97843 0.0
C178 C 0.69156 0.45268 0.97327 0.0
C179 C 0.67257 0.46491 0.0132 0.0
C180 C 0.64996 0.44734 0.03617 0.0
C181 C 0.64673 0.41788 0.01923 0.0
C182 C 0.71655 0.47048 0.94939 0.0
C183 C 0.62858 0.4599 0.07733 0.0
C184 C 0.68953 0.53476 0.09376 0.0
C185 C 0.67467 0.55606 0.06282 0.0
C186 C 0.69042 0.50508 0.07649 0.0
C187 C 0.67499 0.49658 0.02864 0.0
C188 C 0.66006 0.51816 -0.00272 0.0
C189 C 0.66057 0.54777 0.01426 0.0
C190 C 0.70744 0.48279 0.10977 0.0
C191 C 0.64246 0.50982 0.94717 0.0
H192 H 0.70114 0.414 0.9243 0.0
H193 H 0.62946 0.40428 0.0367 0.0
H194 H 0.70777 0.48918 0.925 0.0
H195 H 0.73008 0.48015 0.9827 0.0
H196 H 0.73089 0.45685 0.92262 0.0
H197 H 0.61208 0.44328 0.09079 0.0
H198 H 0.64051 0.46813 0.11385 0.0
H199 H 0.61685 0.47908 0.05922 0.0
H200 H 0.70058 0.54136 0.13112 0.0
H201 H 0.64884 0.56431 0.99072 0.0
H202 H 0.72212 0.4697 0.0828 0.0
H203 H 0.69208 0.467 0.12954 0.0
H204 H 0.72088 0.49354 0.14213 0.0
H205 H 0.65662 0.49842 0.9169 0.0
H206 H 0.63232 0.52939 0.92717 0.0
H207 H 0.62476 0.49409 0.95876 0.0
C208 C 0.42848 0.64267 0.00739 0.0
C209 C 0.42131 0.66336 0.96697 0.0
C210 C 0.4572 0.64054 0.02726 0.0
C211 C 0.4788 0.66046 0.00773 0.0
C212 C 0.4715 0.68168 0.96727 0.0
C213 C 0.44282 0.68248 0.94648 0.0
C214 C 0.46445 0.61689 0.06881 0.0
C215 C 0.49378 0.70388 0.94684 0.0
C216 C 0.54518 0.67138 0.09916 0.0
C217 C 0.56642 0.65511 0.0709 0.0
C218 C 0.51662 0.67394 0.07829 0.0
C219 C 0.50911 0.65885 0.02938 0.0
C220 C 0.53044 0.64179 0.00155 0.0
C221 C 0.55907 0.64063 0.02214 0.0
C222 C 0.49465 0.6931 0.10804 0.0
C223 C 0.52294 0.62447 0.95049 0.0
H224 H 0.41165 0.62785 0.02283 0.0
H225 H 0.43694 0.69865 0.91559 0.0
H226 H 0.48285 0.60302 0.05372 0.0
H227 H 0.47172 0.62729 0.10763 0.0
H228 H 0.4454 0.60225 0.07765 0.0
H229 H 0.48423 0.71963 0.91682 0.0
H230 H 0.50282 0.71669 0.98178 0.0
H231 H 0.51241 0.69221 0.92719 0.0
H232 H 0.55116 0.68276 0.13664 0.0
H233 H 0.57565 0.6279 0.0007 0.0
H234 H 0.47592 0.6794 0.12223 0.0
H235 H 0.4857 0.71008 0.07979 0.0
H236 H 0.50444 0.7045 0.144 0.0
H237 H 0.50445 0.60909 0.95893 0.0
H238 H 0.54184 0.61138 0.93506 0.0
H239 H 0.51567 0.63976 0.91771 0.0
C240 C 0.78989 0.9305 0.52199 0.0
C241 C 0.809 0.92325 0.56485 0.0
C242 C 0.78817 0.95963 0.50231 0.0
C243 C 0.80663 0.98166 0.52506 0.0
C244 C 0.82577 0.97448 0.56869 0.0
C245 C 0.82641 0.94539 0.58859 0.0
C246 C 0.76688 0.96676 0.45686 0.0
C247 C 0.84621 -0.0027 0.59324 0.0
C248 C 0.82721 0.04906 0.44102 0.0
C249 C 0.81112 0.07128 0.46741 0.0
C250 C 0.82548 0.01955 0.45866 0.0
C251 C 0.8066 0.01215 0.50261 0.0
C252 C 0.78914 0.0343 0.52741 0.0
C253 C 0.79196 0.06374 0.51002 0.0
C254 C 0.84488 -0.00342 0.43202 0.0
C255 C 0.76815 0.02706 0.57331 0.0
H256 H 0.77627 0.91338 0.50387 0.0
H257 H 0.8414 0.93973 0.62139 0.0
H258 H 0.75266 0.9856 0.46898 0.0
H259 H 0.7791 0.97367 0.41975 0.0
H260 H 0.75272 0.94753 0.44617 0.0
H261 H 0.85987 0.98801 0.62672 0.0
H262 H 0.86098 0.00621 0.56109 0.0
H263 H 0.83343 0.01621 0.60972 0.0
H264 H 0.84215 0.05498 0.40827 0.0
H265 H 0.77928 0.08094 0.53003 0.0
H266 H 0.83152 0.97763 0.41727 0.0
H267 H 0.86062 0.98777 0.46259 0.0
H268 H 0.85749 0.00575 0.397 0.0
H269 H 0.7539 0.0081 0.56169 0.0
H270 H 0.75401 0.04621 0.58422 0.0
H271 H 0.78066 0.02036 0.6102 0.0
C272 C 0.05346 0.79276 0.50504 0.0
C273 C 0.06096 0.81147 0.46146 0.0
C274 C 0.02469 0.79178 0.52509 0.0
C275 C 0.0032 0.8105 0.50179 0.0
C276 C 0.01048 0.8289 0.45687 0.0
C277 C 0.03929 0.82889 0.43677 0.0
C278 C 0.01749 0.77133 0.57213 0.0
C279 C 0.9882 0.84952 0.43163 0.0
C280 C 0.92231 0.79706 0.52751 0.0
C281 C 0.91675 0.81693 0.5704 0.0
C282 C 0.95057 0.79415 0.50561 0.0
C283 C 0.97353 0.81207 0.5263 0.0
C284 C 0.96808 0.83199 0.56991 0.0
C285 C 0.93977 0.83392 0.59192 0.0
C286 C 0.95581 0.77214 0.46007 0.0
C287 C -0.00802 0.85181 0.59237 0.0
H288 H 0.07018 0.77907 0.52385 0.0
H289 H 0.04513 0.84351 0.40329 0.0
H290 H 0.01208 0.78458 0.60899 0.0
H291 H -0.00207 0.75767 0.56219 0.0
H292 H 0.03601 0.75632 0.58228 0.0
H293 H -0.00287 0.8616 0.3957 0.0
H294 H 0.96849 0.83692 0.41858 0.0
H295 H 0.98096 0.866 0.46253 0.0
H296 H 0.90454 0.78374 0.5111 0.0
H297 H 0.93544 0.84946 0.62479 0.0
H298 H 0.97389 0.75688 0.47135 0.0
H299 H 0.96267 0.78398 0.42242 0.0
H300 H 0.93593 0.75878 0.45065 0.0
H301 H 0.01047 0.83821 0.60774 0.0
H302 H 0.98405 0.86617 0.62621 0.0
H303 H 0.00073 0.86616 0.5593 0.0
C304 C 0.15345 0.03687 0.59379 0.0
C305 C 0.17042 0.06067 0.57496 0.0
C306 C 0.15557 0.0089 0.56934 0.0
C307 C 0.17567 0.00452 0.52593 0.0
C308 C 0.19348 0.02824 0.50773 0.0
C309 C 0.19038 0.05622 0.53207 0.0
C310 C 0.13587 0.98418 0.58927 0.0
C311 C 0.21567 0.02408 0.46251 0.0
C312 C 0.19351 0.92369 0.50438 0.0
C313 C 0.17452 0.91637 0.46135 0.0
C314 C 0.19564 0.95288 0.52341 0.0
C315 C 0.17771 0.97498 0.49975 0.0
C316 C 0.15951 0.96797 0.45457 0.0
C317 C 0.15841 0.93869 0.4354 0.0
C318 C 0.21592 0.95971 0.57065 0.0
C319 C 0.13973 0.99091 0.42891 0.0
H320 H 0.13782 0.04034 0.6266 0.0
H321 H 0.20364 0.0746 0.51767 0.0
H322 H 0.12234 0.97566 0.55492 0.0
H323 H 0.14932 0.96545 0.6045 0.0
H324 H 0.12099 0.99148 0.62264 0.0
H325 H 0.22865 0.04451 0.45468 0.0
H326 H 0.23097 0.00586 0.47317 0.0
H327 H 0.20437 0.01759 0.42414 0.0
H328 H 0.20623 0.90641 0.52402 0.0
H329 H 0.14362 0.93295 0.40227 0.0
H330 H 0.20277 0.96409 0.60799 0.0
H331 H 0.22899 0.97995 0.56206 0.0
H332 H 0.23117 0.94112 0.57934 0.0
H333 H 0.1225 -0.00258 0.45866 0.0
H334 H 0.12885 0.98253 0.39125 0.0
H335 H 0.15234 0.01118 0.41855 0.0
C336 C 0.94333 0.16172 0.43618 0.0
C337 C 0.92146 0.17866 0.46151 0.0
C338 C 0.97191 0.16108 0.45732 0.0
C339 C 0.97877 0.1783 0.50408 0.0
C340 C 0.95725 0.19692 0.52758 0.0
C341 C 0.92871 0.19663 0.50635 0.0
C342 C -0.00576 0.14064 0.43166 0.0
C343 C 0.96398 0.21611 0.57667 0.0
C344 C 0.0382 0.15005 0.59867 0.0
C345 C 0.06245 0.16691 0.58205 0.0
C346 C 0.01086 0.15353 0.57338 0.0
C347 C 0.0076 0.17481 0.5313 0.0
C348 C 0.03181 0.19242 0.51521 0.0
C349 C 0.05909 0.18803 0.54044 0.0
C350 C 0.98558 0.13404 0.59105 0.0
C351 C 0.0289 0.21576 0.47131 0.0
H352 H 0.93772 0.14771 0.40165 0.0
H353 H 0.91187 0.20999 0.52563 0.0
H354 H 0.01485 0.15283 0.42278 0.0
H355 H -0.00027 0.12263 0.46079 0.0
H356 H 0.98609 0.13048 0.39313 0.0
H357 H 0.9459 0.23183 0.58592 0.0
H358 H 0.96756 0.20189 0.61305 0.0
H359 H 0.98444 0.22894 0.56983 0.0
H360 H 0.04078 0.13354 0.63051 0.0
H361 H 0.07778 0.20123 0.52773 0.0
H362 H 0.97725 0.12119 0.55555 0.0
H363 H 0.96723 0.14791 0.60622 0.0
H364 H -0.00808 0.11825 0.62384 0.0
H365 H 0.02249 0.20526 0.43204 0.0
H366 H 0.04963 0.2283 0.46494 0.0
H367 H 0.0113 0.23164 0.48236 0.0
C368 C 0.19642 0.25149 0.45933 0.0
C369 C 0.19891 0.22054 0.45694 0.0
C370 C 0.20748 0.26934 0.4171 0.0
C371 C 0.22098 0.2558 0.37138 0.0
C372 C 0.22289 0.22454 0.36818 0.0
C373 C 0.21198 0.20729 0.4112 0.0
C374 C 0.20533 0.30264 0.42194 0.0
C375 C 0.23686 0.2093 0.31968 0.0
C376 C 0.23146 0.29629 0.23714 0.0
C377 C 0.26166 0.30222 0.23851 0.0
C378 C 0.21757 0.28213 0.28114 0.0
C379 C 0.23428 0.27413 0.32763 0.0
C380 C 0.26443 0.28151 0.33036 0.0
C381 C 0.27782 0.29532 0.28555 0.0
C382 C 0.18541 0.27437 0.2767 0.0
C383 C 0.28286 0.27367 0.37962 0.0
H384 H 0.18633 0.26181 0.49468 0.0
H385 H 0.21374 0.18335 0.40898 0.0
H386 H 0.22767 0.31242 0.42342 0.0
H387 H 0.19419 0.31196 0.38547 0.0
H388 H 0.19315 0.30964 0.45912 0.0
H389 H 0.23533 0.18476 0.32237 0.0
H390 H 0.22615 0.21659 0.28124 0.0
H391 H 0.26037 0.21559 0.31694 0.0
H392 H 0.21891 0.3016 0.20079 0.0
H393 H 0.30112 0.30015 0.28692 0.0
H394 H 0.17342 0.2818 0.31373 0.0
H395 H 0.18288 0.24994 0.27401 0.0
H396 H 0.17498 0.2845 0.24014 0.0
H397 H 0.27208 0.28148 0.41768 0.0
H398 H 0.30522 0.28344 0.37744 0.0
H399 H 0.28496 0.24922 0.38264 0.0
C400 C 0.68233 0.27991 0.18979 0.0
C401 C 0.67414 0.26187 0.14564 0.0
C402 C 0.69524 0.26773 0.23654 0.0
C403 C 0.70033 0.23683 0.23874 0.0
C404 C 0.69017 0.21826 0.19604 0.0
C405 C 0.67701 0.23104 0.14991 0.0
C406 C 0.70538 0.2882 0.28172 0.0
C407 C 0.69521 0.18519 0.1971 0.0
C408 C 0.7692 0.21477 0.31431 0.0
C409 C 0.75788 0.20453 0.36408 0.0
C410 C 0.75054 0.22477 0.27285 0.0
C411 C 0.71984 0.22474 0.28164 0.0
C412 C 0.7082 0.21423 0.33163 0.0
C413 C 0.72742 0.20411 0.37234 0.0
C414 C 0.76376 0.23569 0.21985 0.0
C415 C 0.67558 0.21416 0.34239 0.0
H416 H 0.67973 0.30375 0.18692 0.0
H417 H 0.67056 0.21702 0.11591 0.0
H418 H 0.69904 0.27927 0.3223 0.0
H419 H 0.72967 0.28988 0.2809 0.0
H420 H 0.69613 0.31085 0.27738 0.0
H421 H 0.6824 0.17351 0.16495 0.0
H422 H 0.71885 0.18061 0.19034 0.0
H423 H 0.68925 0.17585 0.23756 0.0
H424 H 0.79272 0.21496 0.30764 0.0
H425 H 0.7186 0.19622 0.41086 0.0
H426 H 0.75836 0.25944 0.21389 0.0
H427 H 0.75431 0.22328 0.18481 0.0
H428 H 0.788 0.23321 0.21889 0.0
H429 H 0.66715 0.23721 0.34162 0.0
H430 H 0.67001 0.2041 0.38254 0.0
H431 H 0.66396 0.20173 0.30972 0.0
C432 C 0.7918 0.73904 0.40894 0.0
C433 C 0.78924 0.76999 0.41054 0.0
C434 C 0.78133 0.72283 0.36402 0.0
C435 C 0.7683 0.73805 0.31968 0.0
C436 C 0.76715 0.7694 0.31979 0.0
C437 C 0.77749 0.785 0.36544 0.0
C438 C 0.78276 0.6894 0.36537 0.0
C439 C 0.75371 0.7864 0.27287 0.0
C440 C 0.75221 0.69866 0.1857 0.0
C441 C 0.72204 0.69328 0.19085 0.0
C442 C 0.76787 0.71278 0.2278 0.0
C443 C 0.75294 0.72129 0.27609 0.0
C444 C 0.72269 0.71499 0.28209 0.0
C445 C 0.70758 0.70121 0.23925 0.0
C446 C 0.80007 0.71941 0.21999 0.0
C447 C 0.70608 0.72343 0.33328 0.0
H448 H 0.80098 0.72735 0.44368 0.0
H449 H 0.77579 0.80897 0.36624 0.0
H450 H 0.76026 0.68023 0.36965 0.0
H451 H 0.79193 0.6807 0.32653 0.0
H452 H 0.79631 0.68113 0.3999 0.0
H453 H 0.75736 0.81067 0.27663 0.0
H454 H 0.76299 0.77877 0.23335 0.0
H455 H 0.72972 0.7822 0.27159 0.0
H456 H 0.76341 0.6926 0.14822 0.0
H457 H 0.68429 0.69685 0.24355 0.0
H458 H 0.81295 0.7107 0.25494 0.0
H459 H 0.80352 0.74376 0.21889 0.0
H460 H 0.80882 0.70971 0.18153 0.0
H461 H 0.7171 0.71408 0.36986 0.0
H462 H 0.68299 0.71548 0.33257 0.0
H463 H 0.70597 0.7479 0.33795 0.0
C464 C 0.21073 0.76838 0.31431 0.0
C465 C 0.22231 0.77682 0.365 0.0
C466 C 0.22861 0.75573 0.27419 0.0
C467 C 0.25873 0.75106 0.28544 0.0
C468 C 0.2706 0.75944 0.33662 0.0
C469 C 0.25222 0.77248 0.37583 0.0
C470 C 0.21523 0.74732 0.21975 0.0
C471 C 0.30253 0.75434 0.35007 0.0
C472 C 0.28989 0.69304 0.19124 0.0
C473 C 0.30137 0.71076 0.14931 0.0
C474 C 0.27806 0.70589 0.23845 0.0
C475 C 0.27738 0.73714 0.24315 0.0
C476 C 0.29094 0.75502 0.20286 0.0
C477 C 0.30299 0.74154 0.15639 0.0
C478 C 0.26432 0.68612 0.28121 0.0
C479 C 0.29054 0.78843 0.20648 0.0
H480 H 0.18764 0.77187 0.30577 0.0
H481 H 0.26117 0.77888 0.4152 0.0
H482 H 0.22706 0.7587 0.18607 0.0
H483 H 0.21748 0.72311 0.21294 0.0
H484 H 0.19161 0.75318 0.21716 0.0
H485 H 0.30835 0.76237 0.39166 0.0
H486 H 0.3076 0.73033 0.34747 0.0
H487 H 0.31668 0.76579 0.3198 0.0
H488 H 0.28902 0.66917 0.18619 0.0
H489 H 0.31202 0.75529 0.12414 0.0
H490 H 0.24007 0.68756 0.27825 0.0
H491 H 0.27064 0.69344 0.32292 0.0
H492 H 0.27079 0.66255 0.27591 0.0
H493 H 0.26792 0.7965 0.19876 0.0
H494 H 0.30546 0.79886 0.17612 0.0
H495 H 0.29694 0.79595 0.248 0.0
C496 C 0.18753 0.74566 0.65243 0.0
C497 C 0.18567 0.77644 0.6458 0.0
C498 C 0.20014 0.73348 0.69957 0.0
C499 C 0.21073 0.75262 0.74104 0.0
C500 C 0.20692 0.78361 0.7363 0.0
C501 C 0.19457 0.7952 0.68844 0.0
C502 C 0.20394 0.70029 0.70324 0.0
C503 C 0.21748 0.80464 0.78022 0.0
C504 C 0.23335 0.71818 0.87593 0.0
C505 C 0.26378 0.71567 0.86878 0.0
C506 C 0.2157 0.7307 0.83506 0.0
C507 C 0.22887 0.74049 0.78591 0.0
C508 C 0.25961 0.73825 0.77875 0.0
C509 C 0.27673 0.72601 0.82048 0.0
C510 C 0.18304 0.73321 0.84423 0.0
C511 C 0.27439 0.74833 0.72663 0.0
H512 H 0.18055 0.73109 0.6196 0.0
H513 H 0.19281 0.81902 0.6837 0.0
H514 H 0.22758 0.69473 0.69966 0.0
H515 H 0.19629 0.69199 0.74348 0.0
H516 H 0.19181 0.68839 0.67044 0.0
H517 H 0.20922 0.82754 0.77384 0.0
H518 H 0.2104 0.79689 0.82121 0.0
H519 H 0.24182 0.80529 0.78018 0.0
H520 H 0.22331 0.71035 0.91344 0.0
H521 H 0.30024 0.72404 0.81479 0.0
H522 H 0.17113 0.71962 0.81354 0.0
H523 H 0.1759 0.75651 0.8386 0.0
H524 H 0.17644 0.72576 0.88576 0.0
H525 H 0.26535 0.73587 0.69126 0.0
H526 H 0.29854 0.74504 0.7277 0.0
H527 H 0.2699 0.77217 0.71947 0.0
C528 C 0.27744 0.23851 0.96015 0.0
C529 C 0.2742 0.2694 0.95823 0.0
C530 C 0.26677 0.22056 0.91766 0.0
C531 C 0.25291 0.23396 0.87221 0.0
C532 C 0.25025 0.26517 0.86951 0.0
C533 C 0.26078 0.2825 0.91275 0.0
C534 C 0.26971 0.18731 0.92193 0.0
C535 C 0.23587 0.28027 0.82131 0.0
C536 C 0.24266 0.19461 0.73677 0.0
C537 C 0.21252 0.18843 0.73816 0.0
C538 C 0.25655 0.20831 0.78131 0.0
C539 C 0.23989 0.21555 0.82829 0.0
C540 C 0.20985 0.20773 0.83107 0.0
C541 C 0.19646 0.19442 0.78575 0.0
C542 C 0.28859 0.21654 0.77683 0.0
C543 C 0.19148 0.21475 0.88085 0.0
H544 H 0.28783 0.22832 -0.0047 0.0
H545 H 0.25847 0.3064 0.91088 0.0
H546 H 0.2476 0.177 0.92357 0.0
H547 H 0.28091 0.17839 0.88516 0.0
H548 H 0.2822 0.18047 0.95883 0.0
H549 H 0.23686 0.30482 0.82435 0.0
H550 H 0.24668 0.27336 0.78269 0.0
H551 H 0.2125 0.27347 0.81859 0.0
H552 H 0.25513 0.18997 0.69999 0.0
H553 H 0.17321 0.18933 0.78713 0.0
H554 H 0.30073 0.20931 0.8138 0.0
H555 H 0.29074 0.24101 0.77418 0.0
H556 H 0.29912 0.20658 0.7402 0.0
H557 H 0.20263 0.20698 0.91854 0.0
H558 H 0.16936 0.20441 0.87877 0.0
H559 H 0.18875 0.23911 0.8845 0.0
C560 C 0.70301 0.2614 0.81653 0.0
C561 C 0.71441 0.27166 0.86627 0.0
C562 C 0.72153 0.25095 0.77525 0.0
C563 C 0.75221 0.25052 0.78415 0.0
C564 C 0.76395 0.26085 0.83425 0.0
C565 C 0.74484 0.27146 0.87481 0.0
C566 C 0.70819 0.24024 0.72216 0.0
C567 C 0.79655 0.26041 0.84512 0.0
C568 C 0.78889 0.19579 0.68997 0.0
C569 C 0.79698 0.21416 0.64626 0.0
C570 C 0.77636 0.20768 0.73743 0.0
C571 C 0.77159 0.2386 0.7408 0.0
C572 C 0.78166 0.25745 0.6985 0.0
C573 C 0.79439 0.24497 0.65166 0.0
C574 C 0.76629 0.18691 0.7821 0.0
C575 C 0.77693 0.29055 0.70074 0.0
H576 H 0.67951 0.26164 0.80964 0.0
H577 H 0.75371 0.27933 0.91333 0.0
H578 H 0.71759 0.25279 0.68728 0.0
H579 H 0.71353 0.21651 0.71576 0.0
H580 H 0.68395 0.24277 0.72138 0.0
H581 H 0.80218 0.26977 0.88584 0.0
H582 H 0.80478 0.2373 0.84302 0.0
H583 H 0.8083 0.27324 0.8132 0.0
H584 H 0.79127 0.17196 0.68628 0.0
H585 H 0.80081 0.25926 0.61808 0.0
H586 H 0.74199 0.18526 0.78135 0.0
H587 H 0.77269 0.19555 0.8229 0.0
H588 H 0.7755 0.16429 0.77708 0.0
H589 H 0.75329 0.29541 0.6946 0.0
H590 H 0.78966 0.3024 0.66872 0.0
H591 H 0.78321 0.29949 0.74137 0.0
C592 C 0.6879 0.74016 0.90779 0.0
C593 C 0.69167 0.70934 0.90929 0.0
C594 C 0.69854 0.75687 0.86369 0.0
C595 C 0.71294 0.74226 0.82008 0.0
C596 C 0.71523 0.71099 0.81994 0.0
C597 C 0.70471 0.69489 0.86479 0.0
C598 C 0.69586 0.79022 0.86526 0.0
C599 C 0.73008 0.69461 0.77369 0.0
C600 C 0.72997 0.78157 0.68674 0.0
C601 C 0.75994 0.78764 0.69328 0.0
C602 C 0.714 0.76744 0.72833 0.0
C603 C 0.7284 0.75965 0.77753 0.0
C604 C 0.75836 0.76686 0.7851 0.0
C605 C 0.77382 0.78061 0.7427 0.0
C606 C 0.68213 0.75984 0.71882 0.0
C607 C 0.77435 0.75922 0.83736 0.0
H608 H 0.67774 0.7514 0.94212 0.0
H609 H 0.70734 0.67101 0.86553 0.0
H610 H 0.7179 0.8002 0.87134 0.0
H611 H 0.68723 0.79869 0.82584 0.0
H612 H 0.68128 0.79787 0.89882 0.0
H613 H 0.72731 0.67021 0.77706 0.0
H614 H 0.72117 0.70195 0.73371 0.0
H615 H 0.75391 0.69974 0.77384 0.0
H616 H 0.71921 0.78697 0.64848 0.0
H617 H 0.79693 0.78556 0.74804 0.0
H618 H 0.66849 0.76781 0.75339 0.0
H619 H 0.67952 0.7354 0.7168 0.0
H620 H 0.6736 0.76957 0.68025 0.0
H621 H 0.76228 0.76809 0.8732 0.0
H622 H 0.79708 0.76817 0.83808 0.0
H623 H 0.77543 0.73478 0.84206 0.0
loop_
_geom_bond_atom_site_label_1
_geom_bond_atom_site_label_2
_geom_bond_distance
_geom_bond_site_symmetry_2
_ccdc_geom_bond_type
C0 O1 1.306 . S
C0 O3 1.160 1_554 S
O1 C0 1.306 . S
O1 Cd2 2.228 . S
Cd2 O1 2.228 . S
Cd2 O6 2.273 . S
Cd2 O10 2.277 . S
O3 C0 1.160 1_556 S
O3 Cd4 2.203 1_556 S
Cd4 O3 2.203 1_554 S
Cd4 O6 2.411 . S
Cd4 O7 2.333 . S
Cd4 O8 2.352 1_554 S
Cd4 O12 2.277 . S
Cd4 O13 2.356 1_554 S
C5 O10 1.209 . S
C5 O12 1.226 . S
O6 Cd2 2.273 . S
O6 Cd4 2.411 . S
O6 C9 1.320 . S
O7 Cd4 2.333 . S
O7 C9 1.214 . S
O8 Cd4 2.352 1_556 S
O8 C11 1.258 . S
C9 O6 1.320 . S
C9 O7 1.214 . S
O10 Cd2 2.277 . S
O10 C5 1.209 . S
C11 O8 1.258 . S
C11 O13 1.282 . S
O12 Cd4 2.277 . S
O12 C5 1.226 . S
O13 Cd4 2.356 1_556 S
O13 C11 1.282 . S
C14 O15 1.306 . S
C14 O17 1.160 . S
O15 C14 1.306 . S
O15 Cd16 2.228 1_554 S
Cd16 O15 2.228 1_556 S
Cd16 O20 2.273 . S
Cd16 O24 2.277 . S
O17 C14 1.160 . S
O17 Cd18 2.203 . S
Cd18 O17 2.203 . S
Cd18 O20 2.411 1_554 S
Cd18 O21 2.333 . S
Cd18 O22 2.352 . S
Cd18 O26 2.277 . S
Cd18 O27 2.356 . S
C19 O24 1.209 1_554 S
C19 O26 1.226 . S
O20 Cd16 2.273 . S
O20 Cd18 2.411 1_556 S
O20 C23 1.320 . S
O21 Cd18 2.333 . S
O21 C23 1.214 1_554 S
O22 Cd18 2.352 . S
O22 C25 1.258 . S
C23 O20 1.320 . S
C23 O21 1.214 1_556 S
O24 Cd16 2.277 . S
O24 C19 1.209 1_556 S
C25 O22 1.258 . S
C25 O27 1.282 . S
O26 Cd18 2.277 . S
O26 C19 1.226 . S
O27 Cd18 2.356 . S
O27 C25 1.282 . S
C28 O29 1.306 . S
C28 O31 1.160 1_554 S
O29 C28 1.306 . S
O29 Cd30 2.228 . S
Cd30 O29 2.228 . S
Cd30 O34 2.273 . S
Cd30 O38 2.277 . S
O31 C28 1.160 1_556 S
O31 Cd32 2.203 1_556 S
Cd32 O31 2.203 1_554 S
Cd32 O34 2.411 . S
Cd32 O35 2.333 . S
Cd32 O36 2.352 1_554 S
Cd32 O40 2.277 . S
Cd32 O41 2.356 1_554 S
C33 O38 1.209 . S
C33 O40 1.226 . S
O34 Cd30 2.273 . S
O34 Cd32 2.411 . S
O34 C37 1.320 . S
O35 Cd32 2.333 . S
O35 C37 1.214 . S
O36 Cd32 2.352 1_556 S
O36 C39 1.258 . S
C37 O34 1.320 . S
C37 O35 1.214 . S
O38 Cd30 2.277 . S
O38 C33 1.209 . S
C39 O36 1.258 . S
C39 O41 1.282 . S
O40 Cd32 2.277 . S
O40 C33 1.226 . S
O41 Cd32 2.356 1_556 S
O41 C39 1.282 . S
C42 O43 1.306 . S
C42 O45 1.160 . S
O43 C42 1.306 . S
O43 Cd44 2.228 1_554 S
Cd44 O43 2.228 1_556 S
Cd44 O48 2.273 . S
Cd44 O52 2.277 . S
O45 C42 1.160 . S
O45 Cd46 2.203 . S
Cd46 O45 2.203 . S
Cd46 O48 2.411 1_554 S
Cd46 O49 2.333 . S
Cd46 O50 2.352 . S
Cd46 O54 2.277 . S
Cd46 O55 2.356 . S
C47 O52 1.209 1_554 S
C47 O54 1.226 . S
O48 Cd44 2.273 . S
O48 Cd46 2.411 1_556 S
O48 C51 1.320 . S
O49 Cd46 2.333 . S
O49 C51 1.214 1_554 S
O50 Cd46 2.352 . S
O50 C53 1.258 . S
C51 O48 1.320 . S
C51 O49 1.214 1_556 S
O52 Cd44 2.277 . S
O52 C47 1.209 1_556 S
C53 O50 1.258 . S
C53 O55 1.282 . S
O54 Cd46 2.277 . S
O54 C47 1.226 . S
O55 Cd46 2.356 . S
O55 C53 1.282 . S
C56 O57 1.306 . S
C56 O59 1.160 . S
O57 C56 1.306 . S
O57 Cd58 2.228 . S
Cd58 O57 2.228 . S
Cd58 O62 2.273 . S
Cd58 O66 2.277 . S
O59 C56 1.160 . S
O59 Cd60 2.203 . S
Cd60 O59 2.203 . S
Cd60 O62 2.411 . S
Cd60 O63 2.333 . S
Cd60 O64 2.352 . S
Cd60 O68 2.277 . S
Cd60 O69 2.356 . S
C61 O66 1.209 . S
C61 O68 1.226 . S
O62 Cd58 2.273 . S
O62 Cd60 2.411 . S
O62 C65 1.320 . S
O63 Cd60 2.333 . S
O63 C65 1.214 . S
O64 Cd60 2.352 . S
O64 C67 1.258 . S
C65 O62 1.320 . S
C65 O63 1.214 . S
O66 Cd58 2.277 . S
O66 C61 1.209 . S
C67 O64 1.258 . S
C67 O69 1.282 . S
O68 Cd60 2.277 . S
O68 C61 1.226 . S
O69 Cd60 2.356 . S
O69 C67 1.282 . S
C70 O71 1.306 . S
C70 O73 1.160 . S
O71 C70 1.306 . S
O71 Cd72 2.228 . S
Cd72 O71 2.228 . S
Cd72 O76 2.273 . S
Cd72 O80 2.277 . S
O73 C70 1.160 . S
O73 Cd74 2.203 . S
Cd74 O73 2.203 . S
Cd74 O76 2.411 . S
Cd74 O77 2.333 . S
Cd74 O78 2.352 . S
Cd74 O82 2.277 . S
Cd74 O83 2.356 . S
C75 O80 1.209 . S
C75 O82 1.226 . S
O76 Cd72 2.273 . S
O76 Cd74 2.411 . S
O76 C79 1.320 . S
O77 Cd74 2.333 . S
O77 C79 1.214 . S
O78 Cd74 2.352 . S
O78 C81 1.258 . S
C79 O76 1.320 . S
C79 O77 1.214 . S
O80 Cd72 2.277 . S
O80 C75 1.209 . S
C81 O78 1.258 . S
C81 O83 1.282 . S
O82 Cd74 2.277 . S
O82 C75 1.226 . S
O83 Cd74 2.356 . S
O83 C81 1.282 . S
C84 O85 1.306 . S
C84 O87 1.160 . S
O85 C84 1.306 . S
O85 Cd86 2.228 . S
Cd86 O85 2.228 . S
Cd86 O90 2.273 . S
Cd86 O94 2.277 . S
O87 C84 1.160 . S
O87 Cd88 2.203 . S
Cd88 O87 2.203 . S
Cd88 O90 2.411 . S
Cd88 O91 2.333 . S
Cd88 O92 2.352 . S
Cd88 O96 2.277 . S
Cd88 O97 2.356 . S
C89 O94 1.209 . S
C89 O96 1.226 . S
O90 Cd86 2.273 . S
O90 Cd88 2.411 . S
O90 C93 1.320 . S
O91 Cd88 2.333 . S
O91 C93 1.214 . S
O92 Cd88 2.352 . S
O92 C95 1.258 . S
C93 O90 1.320 . S
C93 O91 1.214 . S
O94 Cd86 2.277 . S
O94 C89 1.209 . S
C95 O92 1.258 . S
C95 O97 1.282 . S
O96 Cd88 2.277 . S
O96 C89 1.226 . S
O97 Cd88 2.356 . S
O97 C95 1.282 . S
C98 O99 1.306 . S
C98 O101 1.160 . S
O99 C98 1.306 . S
O99 Cd100 2.228 . S
Cd100 O99 2.228 . S
Cd100 O104 2.273 . S
Cd100 O108 2.277 . S
O101 C98 1.160 . S
O101 Cd102 2.203 . S
Cd102 O101 2.203 . S
Cd102 O104 2.411 . S
Cd102 O105 2.333 . S
Cd102 O106 2.352 . S
Cd102 O110 2.277 . S
Cd102 O111 2.356 . S
C103 O108 1.209 . S
C103 O110 1.226 . S
O104 Cd100 2.273 . S
O104 Cd102 2.411 . S
O104 C107 1.320 . S
O105 Cd102 2.333 . S
O105 C107 1.214 . S
O106 Cd102 2.352 . S
O106 C109 1.258 . S
C107 O104 1.320 . S
C107 O105 1.214 . S
O108 Cd100 2.277 . S
O108 C103 1.209 . S
C109 O106 1.258 . S
C109 O111 1.282 . S
O110 Cd102 2.277 . S
O110 C103 1.226 . S
O111 Cd102 2.356 . S
O111 C109 1.282 . S
C112 C113 1.391 1_556 S
C112 C114 1.394 . S
C112 H128 0.931 . S
C113 C112 1.391 1_554 S
C113 C117 1.376 . S
C114 C112 1.394 . S
C114 C115 1.369 1_556 S
C114 C118 1.531 . S
C115 C114 1.369 1_554 S
C115 C116 1.410 . S
C115 C123 1.503 . S
C116 C115 1.410 . S
C116 C117 1.392 . S
C116 C119 1.511 . S
C117 C113 1.376 . S
C117 C116 1.392 . S
C117 H129 0.929 . S
C118 C114 1.531 . S
C118 H130 0.960 . S
C118 H131 0.962 . S
C118 H132 0.960 . S
C119 C116 1.511 . S
C119 H133 0.961 . S
C119 H134 0.961 . S
C119 H135 0.961 . S
C120 C121 1.370 . S
C120 C122 1.363 . S
C120 H136 0.931 . S
C121 C120 1.370 . S
C121 C125 1.408 . S
C122 C120 1.363 . S
C122 C123 1.370 . S
C122 C126 1.524 . S
C123 C115 1.503 . S
C123 C122 1.370 . S
C123 C124 1.403 . S
C124 C123 1.403 . S
C124 C125 1.404 . S
C124 C127 1.539 . S
C125 C121 1.408 . S
C125 C124 1.404 . S
C125 H137 0.930 . S
C126 C122 1.524 . S
C126 H138 0.956 1_554 S
C126 H139 0.961 . S
C126 H140 0.961 . S
C127 C124 1.539 . S
C127 H141 0.958 . S
C127 H142 0.961 . S
C127 H143 0.960 . S
H128 C112 0.931 . S
H129 C117 0.929 . S
H130 C118 0.960 . S
H131 C118 0.962 . S
H132 C118 0.960 . S
H133 C119 0.961 . S
H134 C119 0.961 . S
H135 C119 0.961 . S
H136 C120 0.931 . S
H137 C125 0.930 . S
H138 C126 0.956 1_556 S
H139 C126 0.961 . S
H140 C126 0.961 . S
H141 C127 0.958 . S
H142 C127 0.961 . S
H143 C127 0.960 . S
C144 C145 1.391 . S
C144 C146 1.394 . S
C144 H160 0.931 . S
C145 C144 1.391 . S
C145 C149 1.376 1_554 S
C146 C144 1.394 . S
C146 C147 1.369 . S
C146 C150 1.531 . S
C147 C146 1.369 . S
C147 C148 1.410 1_554 S
C147 C155 1.503 . S
C148 C147 1.410 1_556 S
C148 C149 1.392 . S
C148 C151 1.511 . S
C149 C145 1.376 1_556 S
C149 C148 1.392 . S
C149 H161 0.929 . S
C150 C146 1.531 . S
C150 H162 0.960 . S
C150 H163 0.962 . S
C150 H164 0.960 . S
C151 C148 1.511 . S
C151 H165 0.961 . S
C151 H166 0.961 . S
C151 H167 0.961 . S
C152 C153 1.370 . S
C152 C154 1.363 . S
C152 H168 0.931 . S
C153 C152 1.370 . S
C153 C157 1.408 . S
C154 C152 1.363 . S
C154 C155 1.370 . S
C154 C158 1.524 1_554 S
C155 C147 1.503 . S
C155 C154 1.370 . S
C155 C156 1.403 . S
C156 C155 1.403 . S
C156 C157 1.404 . S
C156 C159 1.539 . S
C157 C153 1.408 . S
C157 C156 1.404 . S
C157 H169 0.930 . S
C158 C154 1.524 1_556 S
C158 H170 0.947 1_556 S
C158 H171 0.961 . S
C158 H172 0.961 . S
C159 C156 1.539 . S
C159 H173 0.958 . S
C159 H174 0.961 . S
C159 H175 0.960 . S
H160 C144 0.931 . S
H161 C149 0.929 . S
H162 C150 0.960 . S
H163 C150 0.962 . S
H164 C150 0.960 . S
H165 C151 0.961 . S
H166 C151 0.961 . S
H167 C151 0.961 . S
H168 C152 0.931 . S
H169 C157 0.930 . S
H170 C158 0.947 1_554 S
H171 C158 0.961 . S
H172 C158 0.961 . S
H173 C159 0.958 . S
H174 C159 0.961 . S
H175 C159 0.960 . S
C176 C177 1.390 1_556 S
C176 C178 1.393 1_556 S
C176 H192 0.932 . S
C177 C176 1.390 1_554 S
C177 C181 1.376 . S
C178 C176 1.393 1_554 S
C178 C179 1.369 . S
C178 C182 1.531 1_554 S
C179 C178 1.369 . S
C179 C180 1.410 . S
C179 C187 1.503 . S
C180 C179 1.410 . S
C180 C181 1.392 . S
C180 C183 1.511 . S
C181 C177 1.376 . S
C181 C180 1.392 . S
C181 H193 0.929 . S
C182 C178 1.531 1_556 S
C182 H194 0.960 . S
C182 H195 0.962 1_556 S
C182 H196 0.960 . S
C183 C180 1.511 . S
C183 H197 0.961 . S
C183 H198 0.961 . S
C183 H199 0.961 . S
C184 C185 1.370 . S
C184 C186 1.363 . S
C184 H200 0.931 . S
C185 C184 1.370 . S
C185 C189 1.408 1_554 S
C186 C184 1.363 . S
C186 C187 1.370 . S
C186 C190 1.524 . S
C187 C179 1.503 . S
C187 C186 1.370 . S
C187 C188 1.403 1_554 S
C188 C187 1.403 1_556 S
C188 C189 1.404 . S
C188 C191 1.539 . S
C189 C185 1.408 1_556 S
C189 C188 1.404 . S
C189 H201 0.930 . S
C190 C186 1.524 . S
C190 H202 0.956 . S
C190 H203 0.961 . S
C190 H204 0.961 . S
C191 C188 1.539 . S
C191 H205 0.958 . S
C191 H206 0.961 . S
C191 H207 0.960 . S
H192 C176 0.932 . S
H193 C181 0.929 . S
H194 C182 0.960 . S
H195 C182 0.962 1_554 S
H196 C182 0.960 . S
H197 C183 0.961 . S
H198 C183 0.961 . S
H199 C183 0.961 . S
H200 C184 0.931 . S
H201 C189 0.930 . S
H202 C190 0.956 . S
H203 C190 0.961 . S
H204 C190 0.961 . S
H205 C191 0.958 . S
H206 C191 0.961 . S
H207 C191 0.960 . S
C208 C209 1.391 . S
C208 C210 1.394 . S
C208 H224 0.931 . S
C209 C208 1.391 . S
C209 C213 1.376 . S
C210 C208 1.394 . S
C210 C211 1.369 . S
C210 C214 1.531 . S
C211 C210 1.369 . S
C211 C212 1.410 1_554 S
C211 C219 1.503 . S
C212 C211 1.410 1_556 S
C212 C213 1.392 1_556 S
C212 C215 1.511 . S
C213 C209 1.376 . S
C213 C212 1.392 1_554 S
C213 H225 0.929 1_554 S
C214 C210 1.531 . S
C214 H226 0.960 . S
C214 H227 0.962 . S
C214 H228 0.960 . S
C215 C212 1.511 . S
C215 H229 0.961 . S
C215 H230 0.961 . S
C215 H231 0.961 . S
C216 C217 1.370 . S
C216 C218 1.363 . S
C216 H232 0.931 . S
C217 C216 1.370 . S
C217 C221 1.408 1_554 S
C218 C216 1.363 . S
C218 C219 1.370 . S
C218 C222 1.524 . S
C219 C211 1.503 . S
C219 C218 1.370 . S
C219 C220 1.403 1_554 S
C220 C219 1.403 1_556 S
C220 C221 1.404 . S
C220 C223 1.539 . S
C221 C217 1.408 1_556 S
C221 C220 1.404 . S
C221 H233 0.930 . S
C222 C218 1.524 . S
C222 H234 0.956 . S
C222 H235 0.961 . S
C222 H236 0.961 . S
C223 C220 1.539 . S
C223 H237 0.958 . S
C223 H238 0.961 . S
C223 H239 0.960 . S
H224 C208 0.931 . S
H225 C213 0.929 1_556 S
H226 C214 0.960 . S
H227 C214 0.962 . S
H228 C214 0.960 . S
H229 C215 0.961 . S
H230 C215 0.961 . S
H231 C215 0.961 . S
H232 C216 0.931 . S
H233 C221 0.930 . S
H234 C222 0.956 . S
H235 C222 0.961 . S
H236 C222 0.961 . S
H237 C223 0.958 . S
H238 C223 0.961 . S
H239 C223 0.960 . S
C240 C241 1.391 . S
C240 C242 1.394 . S
C240 H256 0.931 . S
C241 C240 1.391 . S
C241 C245 1.376 . S
C242 C240 1.394 . S
C242 C243 1.369 . S
C242 C246 1.531 . S
C243 C242 1.369 . S
C243 C244 1.410 . S
C243 C251 1.503 1_565 S
C244 C243 1.410 . S
C244 C245 1.392 . S
C244 C247 1.511 . S
C245 C241 1.376 . S
C245 C244 1.392 . S
C245 H257 0.929 . S
C246 C242 1.531 . S
C246 H258 0.960 1_565 S
C246 H259 0.962 . S
C246 H260 0.960 . S
C247 C244 1.511 . S
C247 H261 0.961 . S
C247 H262 0.961 1_565 S
C247 H263 0.961 . S
C248 C249 1.370 . S
C248 C250 1.363 . S
C248 H264 0.931 . S
C249 C248 1.370 . S
C249 C253 1.408 . S
C250 C248 1.363 . S
C250 C251 1.370 . S
C250 C254 1.524 . S
C251 C243 1.503 1_545 S
C251 C250 1.370 . S
C251 C252 1.403 . S
C252 C251 1.403 . S
C252 C253 1.404 . S
C252 C255 1.539 . S
C253 C249 1.408 . S
C253 C252 1.404 . S
C253 H265 0.930 . S
C254 C250 1.524 . S
C254 H266 0.956 1_545 S
C254 H267 0.961 1_545 S
C254 H268 0.961 . S
C255 C252 1.539 . S
C255 H269 0.958 . S
C255 H270 0.961 . S
C255 H271 0.960 . S
H256 C240 0.931 . S
H257 C245 0.929 . S
H258 C246 0.960 1_545 S
H259 C246 0.962 . S
H260 C246 0.960 . S
H261 C247 0.961 . S
H262 C247 0.961 1_545 S
H263 C247 0.961 . S
H264 C248 0.931 . S
H265 C253 0.930 . S
H266 C254 0.956 1_565 S
H267 C254 0.961 1_565 S
H268 C254 0.961 . S
H269 C255 0.958 . S
H270 C255 0.961 . S
H271 C255 0.960 . S
C272 C273 1.391 . S
C272 C274 1.394 . S
C272 H288 0.931 . S
C273 C272 1.391 . S
C273 C277 1.376 . S
C274 C272 1.394 . S
C274 C275 1.369 . S
C274 C278 1.531 . S
C275 C274 1.369 . S
C275 C276 1.410 . S
C275 C283 1.503 1_455 S
C276 C275 1.410 . S
C276 C277 1.392 . S
C276 C279 1.511 . S
C277 C273 1.376 . S
C277 C276 1.392 . S
C277 H289 0.929 . S
C278 C274 1.531 . S
C278 H290 0.960 1_455 S
C278 H291 0.962 . S
C278 H292 0.960 . S
C279 C276 1.511 . S
C279 H293 0.961 . S
C279 H294 0.961 . S
C279 H295 0.961 . S
C280 C281 1.370 . S
C280 C282 1.363 . S
C280 H296 0.931 . S
C281 C280 1.370 . S
C281 C285 1.408 . S
C282 C280 1.363 . S
C282 C283 1.370 . S
C282 C286 1.524 . S
C283 C275 1.503 1_655 S
C283 C282 1.370 . S
C283 C284 1.403 . S
C284 C283 1.403 . S
C284 C285 1.404 . S
C284 C287 1.539 . S
C285 C281 1.408 . S
C285 C284 1.404 . S
C285 H297 0.930 . S
C286 C282 1.524 . S
C286 H298 0.956 . S
C286 H299 0.961 1_655 S
C286 H300 0.961 . S
C287 C284 1.539 . S
C287 H301 0.958 . S
C287 H302 0.961 . S
C287 H303 0.970 . S
H288 C272 0.931 . S
H289 C277 0.929 . S
H290 C278 0.960 1_655 S
H291 C278 0.962 . S
H292 C278 0.960 . S
H293 C279 0.961 . S
H294 C279 0.961 . S
H295 C279 0.961 . S
H296 C280 0.931 . S
H297 C285 0.930 . S
H298 C286 0.956 . S
H299 C286 0.961 1_455 S
H300 C286 0.961 . S
H301 C287 0.958 . S
H302 C287 0.961 . S
H303 C287 0.970 . S
C304 C305 1.391 . S
C304 C306 1.394 . S
C304 H320 0.931 . S
C305 C304 1.391 . S
C305 C309 1.376 . S
C306 C304 1.394 . S
C306 C307 1.369 . S
C306 C310 1.531 . S
C307 C306 1.369 . S
C307 C308 1.410 . S
C307 C315 1.503 1_545 S
C308 C307 1.410 . S
C308 C309 1.392 . S
C308 C311 1.511 . S
C309 C305 1.376 . S
C309 C308 1.392 . S
C309 H321 0.929 . S
C310 C306 1.531 . S
C310 H322 0.960 1_545 S
C310 H323 0.962 . S
C310 H324 0.960 . S
C311 C308 1.511 . S
C311 H325 0.961 . S
C311 H326 0.961 . S
C311 H327 0.961 . S
C312 C313 1.370 . S
C312 C314 1.363 . S
C312 H328 0.931 . S
C313 C312 1.370 . S
C313 C317 1.408 . S
C314 C312 1.363 . S
C314 C315 1.370 . S
C314 C318 1.524 . S
C315 C307 1.503 1_565 S
C315 C314 1.370 . S
C315 C316 1.403 . S
C316 C315 1.403 . S
C316 C317 1.404 . S
C316 C319 1.539 . S
C317 C313 1.408 . S
C317 C316 1.404 . S
C317 H329 0.930 . S
C318 C314 1.524 . S
C318 H330 0.956 . S
C318 H331 0.961 1_565 S
C318 H332 0.961 . S
C319 C316 1.539 . S
C319 H333 0.958 . S
C319 H334 0.961 . S
C319 H335 0.960 1_565 S
H320 C304 0.931 . S
H321 C309 0.929 . S
H322 C310 0.960 1_565 S
H323 C310 0.962 . S
H324 C310 0.960 . S
H325 C311 0.961 . S
H326 C311 0.961 . S
H327 C311 0.961 . S
H328 C312 0.931 . S
H329 C317 0.930 . S
H330 C318 0.956 . S
H331 C318 0.961 1_545 S
H332 C318 0.961 . S
H333 C319 0.958 . S
H334 C319 0.961 . S
H335 C319 0.960 1_545 S
C336 C337 1.391 . S
C336 C338 1.394 . S
C336 H352 0.931 . S
C337 C336 1.391 . S
C337 C341 1.376 . S
C338 C336 1.394 . S
C338 C339 1.369 . S
C338 C342 1.531 . S
C339 C338 1.369 . S
C339 C340 1.410 . S
C339 C347 1.503 1_655 S
C340 C339 1.410 . S
C340 C341 1.392 . S
C340 C343 1.511 . S
C341 C337 1.376 . S
C341 C340 1.392 . S
C341 H353 0.929 . S
C342 C338 1.531 . S
C342 H354 0.960 . S
C342 H355 0.962 . S
C342 H356 0.960 . S
C343 C340 1.511 . S
C343 H357 0.961 . S
C343 H358 0.961 1_655 S
C343 H359 0.961 . S
C344 C345 1.370 . S
C344 C346 1.363 . S
C344 H360 0.931 . S
C345 C344 1.370 . S
C345 C349 1.408 . S
C346 C344 1.363 . S
C346 C347 1.370 . S
C346 C350 1.524 . S
C347 C339 1.503 1_455 S
C347 C346 1.370 . S
C347 C348 1.403 . S
C348 C347 1.403 . S
C348 C349 1.404 . S
C348 C351 1.539 . S
C349 C345 1.408 . S
C349 C348 1.404 . S
C349 H361 0.930 . S
C350 C346 1.524 . S
C350 H362 0.956 . S
C350 H363 0.961 . S
C350 H364 0.961 . S
C351 C348 1.539 . S
C351 H365 0.958 . S
C351 H366 0.961 . S
C351 H367 0.960 1_455 S
H352 C336 0.931 . S
H353 C341 0.929 . S
H354 C342 0.960 . S
H355 C342 0.962 . S
H356 C342 0.960 . S
H357 C343 0.961 . S
H358 C343 0.961 1_455 S
H359 C343 0.961 . S
H360 C344 0.931 . S
H361 C349 0.930 . S
H362 C350 0.956 . S
H363 C350 0.961 . S
H364 C350 0.961 . S
H365 C351 0.958 . S
H366 C351 0.961 . S
H367 C351 0.960 1_655 S
C368 C369 1.391 . S
C368 C370 1.394 . S
C368 H384 0.931 . S
C369 C368 1.391 . S
C369 C373 1.376 . S
C370 C368 1.394 . S
C370 C371 1.369 . S
C370 C374 1.531 . S
C371 C370 1.369 . S
C371 C372 1.410 . S
C371 C379 1.503 . S
C372 C371 1.410 . S
C372 C373 1.392 . S
C372 C375 1.511 . S
C373 C369 1.376 . S
C373 C372 1.392 . S
C373 H385 0.929 . S
C374 C370 1.531 . S
C374 H386 0.960 . S
C374 H387 0.962 . S
C374 H388 0.960 . S
C375 C372 1.511 . S
C375 H389 0.961 . S
C375 H390 0.961 . S
C375 H391 0.961 . S
C376 C377 1.370 . S
C376 C378 1.363 . S
C376 H392 0.931 . S
C377 C376 1.370 . S
C377 C381 1.408 . S
C378 C376 1.363 . S
C378 C379 1.370 . S
C378 C382 1.524 . S
C379 C371 1.503 . S
C379 C378 1.370 . S
C379 C380 1.403 . S
C380 C379 1.403 . S
C380 C381 1.404 . S
C380 C383 1.539 . S
C381 C377 1.408 . S
C381 C380 1.404 . S
C381 H393 0.930 . S
C382 C378 1.524 . S
C382 H394 0.956 . S
C382 H395 0.961 . S
C382 H396 0.961 . S
C383 C380 1.539 . S
C383 H397 0.958 . S
C383 H398 0.961 . S
C383 H399 0.960 . S
H384 C368 0.931 . S
H385 C373 0.929 . S
H386 C374 0.960 . S
H387 C374 0.962 . S
H388 C374 0.960 . S
H389 C375 0.961 . S
H390 C375 0.961 . S
H391 C375 0.961 . S
H392 C376 0.931 . S
H393 C381 0.930 . S
H394 C382 0.956 . S
H395 C382 0.961 . S
H396 C382 0.961 . S
H397 C383 0.958 . S
H398 C383 0.961 . S
H399 C383 0.960 . S
C400 C401 1.391 . S
C400 C402 1.394 . S
C400 H416 0.931 . S
C401 C400 1.391 . S
C401 C405 1.376 . S
C402 C400 1.394 . S
C402 C403 1.369 . S
C402 C406 1.531 . S
C403 C402 1.369 . S
C403 C404 1.410 . S
C403 C411 1.503 . S
C404 C403 1.410 . S
C404 C405 1.392 . S
C404 C407 1.511 . S
C405 C401 1.376 . S
C405 C404 1.392 . S
C405 H417 0.929 . S
C406 C402 1.531 . S
C406 H418 0.960 . S
C406 H419 0.962 . S
C406 H420 0.960 . S
C407 C404 1.511 . S
C407 H421 0.961 . S
C407 H422 0.961 . S
C407 H423 0.961 . S
C408 C409 1.370 . S
C408 C410 1.363 . S
C408 H424 0.931 . S
C409 C408 1.370 . S
C409 C413 1.408 . S
C410 C408 1.363 . S
C410 C411 1.370 . S
C410 C414 1.524 . S
C411 C403 1.503 . S
C411 C410 1.370 . S
C411 C412 1.403 . S
C412 C411 1.403 . S
C412 C413 1.404 . S
C412 C415 1.539 . S
C413 C409 1.408 . S
C413 C412 1.404 . S
C413 H425 0.930 . S
C414 C410 1.524 . S
C414 H426 0.956 . S
C414 H427 0.961 . S
C414 H428 0.961 . S
C415 C412 1.539 . S
C415 H429 0.958 . S
C415 H430 0.961 . S
C415 H431 0.960 . S
H416 C400 0.931 . S
H417 C405 0.929 . S
H418 C406 0.960 . S
H419 C406 0.962 . S
H420 C406 0.960 . S
H421 C407 0.961 . S
H422 C407 0.961 . S
H423 C407 0.961 . S
H424 C408 0.931 . S
H425 C413 0.930 . S
H426 C414 0.956 . S
H427 C414 0.961 . S
H428 C414 0.961 . S
H429 C415 0.958 . S
H430 C415 0.961 . S
H431 C415 0.960 . S
C432 C433 1.391 . S
C432 C434 1.394 . S
C432 H448 0.931 . S
C433 C432 1.391 . S
C433 C437 1.376 . S
C434 C432 1.394 . S
C434 C435 1.369 . S
C434 C438 1.531 . S
C435 C434 1.369 . S
C435 C436 1.410 . S
C435 C443 1.503 . S
C436 C435 1.410 . S
C436 C437 1.392 . S
C436 C439 1.511 . S
C437 C433 1.376 . S
C437 C436 1.392 . S
C437 H449 0.929 . S
C438 C434 1.531 . S
C438 H450 0.960 . S
C438 H451 0.962 . S
C438 H452 0.960 . S
C439 C436 1.511 . S
C439 H453 0.961 . S
C439 H454 0.961 . S
C439 H455 0.961 . S
C440 C441 1.370 . S
C440 C442 1.363 . S
C440 H456 0.931 . S
C441 C440 1.370 . S
C441 C445 1.408 . S
C442 C440 1.363 . S
C442 C443 1.370 . S
C442 C446 1.524 . S
C443 C435 1.503 . S
C443 C442 1.370 . S
C443 C444 1.403 . S
C444 C443 1.403 . S
C444 C445 1.404 . S
C444 C447 1.539 . S
C445 C441 1.408 . S
C445 C444 1.404 . S
C445 H457 0.930 . S
C446 C442 1.524 . S
C446 H458 0.956 . S
C446 H459 0.961 . S
C446 H460 0.961 . S
C447 C444 1.539 . S
C447 H461 0.958 . S
C447 H462 0.961 . S
C447 H463 0.960 . S
H448 C432 0.931 . S
H449 C437 0.929 . S
H450 C438 0.960 . S
H451 C438 0.962 . S
H452 C438 0.960 . S
H453 C439 0.961 . S
H454 C439 0.961 . S
H455 C439 0.961 . S
H456 C440 0.931 . S
H457 C445 0.930 . S
H458 C446 0.956 . S
H459 C446 0.961 . S
H460 C446 0.961 . S
H461 C447 0.958 . S
H462 C447 0.961 . S
H463 C447 0.960 . S
C464 C465 1.391 . S
C464 C466 1.394 . S
C464 H480 0.931 . S
C465 C464 1.391 . S
C465 C469 1.376 . S
C466 C464 1.394 . S
C466 C467 1.369 . S
C466 C470 1.531 . S
C467 C466 1.369 . S
C467 C468 1.410 . S
C467 C475 1.503 . S
C468 C467 1.410 . S
C468 C469 1.392 . S
C468 C471 1.511 . S
C469 C465 1.376 . S
C469 C468 1.392 . S
C469 H481 0.929 . S
C470 C466 1.531 . S
C470 H482 0.960 . S
C470 H483 0.962 . S
C470 H484 0.960 . S
C471 C468 1.511 . S
C471 H485 0.961 . S
C471 H486 0.961 . S
C471 H487 0.961 . S
C472 C473 1.370 . S
C472 C474 1.363 . S
C472 H488 0.931 . S
C473 C472 1.370 . S
C473 C477 1.408 . S
C474 C472 1.363 . S
C474 C475 1.370 . S
C474 C478 1.524 . S
C475 C467 1.503 . S
C475 C474 1.370 . S
C475 C476 1.403 . S
C476 C475 1.403 . S
C476 C477 1.404 . S
C476 C479 1.539 . S
C477 C473 1.408 . S
C477 C476 1.404 . S
C477 H489 0.930 . S
C478 C474 1.524 . S
C478 H490 0.956 . S
C478 H491 0.961 . S
C478 H492 0.961 . S
C479 C476 1.539 . S
C479 H493 0.958 . S
C479 H494 0.961 . S
C479 H495 0.960 . S
H480 C464 0.931 . S
H481 C469 0.929 . S
H482 C470 0.960 . S
H483 C470 0.962 . S
H484 C470 0.960 . S
H485 C471 0.961 . S
H486 C471 0.961 . S
H487 C471 0.961 . S
H488 C472 0.931 . S
H489 C477 0.930 . S
H490 C478 0.956 . S
H491 C478 0.961 . S
H492 C478 0.961 . S
H493 C479 0.958 . S
H494 C479 0.961 . S
H495 C479 0.960 . S
C496 C497 1.391 . S
C496 C498 1.394 . S
C496 H512 0.931 . S
C497 C496 1.391 . S
C497 C501 1.376 . S
C498 C496 1.394 . S
C498 C499 1.369 . S
C498 C502 1.531 . S
C499 C498 1.369 . S
C499 C500 1.410 . S
C499 C507 1.503 . S
C500 C499 1.410 . S
C500 C501 1.392 . S
C500 C503 1.511 . S
C501 C497 1.376 . S
C501 C500 1.392 . S
C501 H513 0.929 . S
C502 C498 1.531 . S
C502 H514 0.960 . S
C502 H515 0.962 . S
C502 H516 0.960 . S
C503 C500 1.511 . S
C503 H517 0.961 . S
C503 H518 0.961 . S
C503 H519 0.961 . S
C504 C505 1.370 . S
C504 C506 1.363 . S
C504 H520 0.931 . S
C505 C504 1.370 . S
C505 C509 1.408 . S
C506 C504 1.363 . S
C506 C507 1.370 . S
C506 C510 1.524 . S
C507 C499 1.503 . S
C507 C506 1.370 . S
C507 C508 1.403 . S
C508 C507 1.403 . S
C508 C509 1.404 . S
C508 C511 1.539 . S
C509 C505 1.408 . S
C509 C508 1.404 . S
C509 H521 0.930 . S
C510 C506 1.524 . S
C510 H522 0.956 . S
C510 H523 0.961 . S
C510 H524 0.961 . S
C511 C508 1.539 . S
C511 H525 0.958 . S
C511 H526 0.961 . S
C511 H527 0.960 . S
H512 C496 0.931 . S
H513 C501 0.929 . S
H514 C502 0.960 . S
H515 C502 0.962 . S
H516 C502 0.960 . S
H517 C503 0.961 . S
H518 C503 0.961 . S
H519 C503 0.961 . S
H520 C504 0.931 . S
H521 C509 0.930 . S
H522 C510 0.956 . S
H523 C510 0.961 . S
H524 C510 0.961 . S
H525 C511 0.958 . S
H526 C511 0.961 . S
H527 C511 0.960 . S
C528 C529 1.391 . S
C528 C530 1.394 . S
C528 H544 0.931 . S
C529 C528 1.391 . S
C529 C533 1.376 . S
C530 C528 1.394 . S
C530 C531 1.369 . S
C530 C534 1.531 . S
C531 C530 1.369 . S
C531 C532 1.410 . S
C531 C539 1.503 . S
C532 C531 1.410 . S
C532 C533 1.392 . S
C532 C535 1.511 . S
C533 C529 1.376 . S
C533 C532 1.392 . S
C533 H545 0.929 . S
C534 C530 1.531 . S
C534 H546 0.960 . S
C534 H547 0.962 . S
C534 H548 0.960 . S
C535 C532 1.511 . S
C535 H549 0.961 . S
C535 H550 0.961 . S
C535 H551 0.961 . S
C536 C537 1.370 . S
C536 C538 1.363 . S
C536 H552 0.931 . S
C537 C536 1.370 . S
C537 C541 1.408 . S
C538 C536 1.363 . S
C538 C539 1.370 . S
C538 C542 1.524 . S
C539 C531 1.503 . S
C539 C538 1.370 . S
C539 C540 1.403 . S
C540 C539 1.403 . S
C540 C541 1.404 . S
C540 C543 1.539 . S
C541 C537 1.408 . S
C541 C540 1.404 . S
C541 H553 0.930 . S
C542 C538 1.524 . S
C542 H554 0.956 . S
C542 H555 0.961 . S
C542 H556 0.961 . S
C543 C540 1.539 . S
C543 H557 0.958 . S
C543 H558 0.961 . S
C543 H559 0.960 . S
H544 C528 0.931 . S
H545 C533 0.929 . S
H546 C534 0.960 . S
H547 C534 0.962 . S
H548 C534 0.960 . S
H549 C535 0.961 . S
H550 C535 0.961 . S
H551 C535 0.961 . S
H552 C536 0.931 . S
H553 C541 0.930 . S
H554 C542 0.956 . S
H555 C542 0.961 . S
H556 C542 0.961 . S
H557 C543 0.958 . S
H558 C543 0.961 . S
H559 C543 0.960 . S
C560 C561 1.391 . S
C560 C562 1.394 . S
C560 H576 0.931 . S
C561 C560 1.391 . S
C561 C565 1.376 . S
C562 C560 1.394 . S
C562 C563 1.369 . S
C562 C566 1.531 . S
C563 C562 1.369 . S
C563 C564 1.410 . S
C563 C571 1.503 . S
C564 C563 1.410 . S
C564 C565 1.392 . S
C564 C567 1.511 . S
C565 C561 1.376 . S
C565 C564 1.392 . S
C565 H577 0.929 . S
C566 C562 1.531 . S
C566 H578 0.960 . S
C566 H579 0.962 . S
C566 H580 0.960 . S
C567 C564 1.511 . S
C567 H581 0.961 . S
C567 H582 0.961 . S
C567 H583 0.961 . S
C568 C569 1.370 . S
C568 C570 1.363 . S
C568 H584 0.931 . S
C569 C568 1.370 . S
C569 C573 1.408 . S
C570 C568 1.363 . S
C570 C571 1.370 . S
C570 C574 1.524 . S
C571 C563 1.503 . S
C571 C570 1.370 . S
C571 C572 1.403 . S
C572 C571 1.403 . S
C572 C573 1.404 . S
C572 C575 1.539 . S
C573 C569 1.408 . S
C573 C572 1.404 . S
C573 H585 0.930 . S
C574 C570 1.524 . S
C574 H586 0.956 . S
C574 H587 0.961 . S
C574 H588 0.961 . S
C575 C572 1.539 . S
C575 H589 0.958 . S
C575 H590 0.961 . S
C575 H591 0.960 . S
H576 C560 0.931 . S
H577 C565 0.929 . S
H578 C566 0.960 . S
H579 C566 0.962 . S
H580 C566 0.960 . S
H581 C567 0.961 . S
H582 C567 0.961 . S
H583 C567 0.961 . S
H584 C568 0.931 . S
H585 C573 0.930 . S
H586 C574 0.956 . S
H587 C574 0.961 . S
H588 C574 0.961 . S
H589 C575 0.958 . S
H590 C575 0.961 . S
H591 C575 0.960 . S
C592 C593 1.391 . S
C592 C594 1.394 . S
C592 H608 0.931 . S
C593 C592 1.391 . S
C593 C597 1.376 . S
C594 C592 1.394 . S
C594 C595 1.369 . S
C594 C598 1.531 . S
C595 C594 1.369 . S
C595 C596 1.410 . S
C595 C603 1.503 . S
C596 C595 1.410 . S
C596 C597 1.392 . S
C596 C599 1.511 . S
C597 C593 1.376 . S
C597 C596 1.392 . S
C597 H609 0.929 . S
C598 C594 1.531 . S
C598 H610 0.960 . S
C598 H611 0.962 . S
C598 H612 0.960 . S
C599 C596 1.511 . S
C599 H613 0.961 . S
C599 H614 0.961 . S
C599 H615 0.961 . S
C600 C601 1.370 . S
C600 C602 1.363 . S
C600 H616 0.931 . S
C601 C600 1.370 . S
C601 C605 1.408 . S
C602 C600 1.363 . S
C602 C603 1.370 . S
C602 C606 1.524 . S
C603 C595 1.503 . S
C603 C602 1.370 . S
C603 C604 1.403 . S
C604 C603 1.403 . S
C604 C605 1.404 . S
C604 C607 1.539 . S
C605 C601 1.408 . S
C605 C604 1.404 . S
C605 H617 0.930 . S
C606 C602 1.524 . S
C606 H618 0.956 . S
C606 H619 0.961 . S
C606 H620 0.961 . S
C607 C604 1.539 . S
C607 H621 0.958 . S
C607 H622 0.961 . S
C607 H623 0.960 . S
H608 C592 0.931 . S
H609 C597 0.929 . S
H610 C598 0.960 . S
H611 C598 0.962 . S
H612 C598 0.960 . S
H613 C599 0.961 . S
H614 C599 0.961 . S
H615 C599 0.961 . S
H616 C600 0.931 . S
H617 C605 0.930 . S
H618 C606 0.956 . S
H619 C606 0.961 . S
H620 C606 0.961 . S
H621 C607 0.958 . S
H622 C607 0.961 . S
H623 C607 0.960 . S
C113 C5 1.538 . S
C121 C47 1.536 . S
C145 C0 1.486 . S
C153 C14 1.506 . S
C177 C19 1.543 . S
C185 C33 1.530 . S
C209 C42 1.473 . S
C217 C28 1.503 . S
C241 C61 1.546 . S
C249 C103 1.530 . S
C273 C70 1.490 . S
C281 C56 1.495 . S
C305 C89 1.523 . S
C313 C75 1.537 . S
C337 C98 1.484 . S
C345 C84 1.507 . S
C369 C95 1.488 . S
C377 C9 1.496 . S
C401 C25 1.494 . S
C409 C107 1.495 . S
C433 C67 1.487 . S
C441 C37 1.496 . S
C465 C79 1.491 . S
C473 C53 1.487 . S
C497 C81 1.472 . S
C505 C51 1.494 . S
C529 C11 1.480 . S
C537 C93 1.495 . S
C561 C23 1.491 . S
C569 C109 1.487 . S
C593 C39 1.462 . S
C601 C65 1.491 . S
