# Generated by pormake.
# Topology lcy-e, (6)-cn, num edge types: 1
# Building blocks:
#     Node 0, Type 0, BuildingBlock: CIFDUS_clean_sbu_1, # of connection points: 6
#     Node 1, Type 0, BuildingBlock: CIFDUS_clean_sbu_1, # of connection points: 6
#     Node 2, Type 0, BuildingBlock: CIFDUS_clean_sbu_1, # of connection points: 6
#     Node 3, Type 0, BuildingBlock: CIFDUS_clean_sbu_1, # of connection points: 6
#     Node 4, Type 0, BuildingBlock: CIFDUS_clean_sbu_1, # of connection points: 6
#     Node 5, Type 0, BuildingBlock: CIFDUS_clean_sbu_1, # of connection points: 6
#     Node 6, Type 0, BuildingBlock: CIFDUS_clean_sbu_1, # of connection points: 6
#     Node 7, Type 0, BuildingBlock: CIFDUS_clean_sbu_1, # of connection points: 6
#     Node 8, Type 0, BuildingBlock: CIFDUS_clean_sbu_1, # of connection points: 6
#     Node 9, Type 0, BuildingBlock: CIFDUS_clean_sbu_1, # of connection points: 6
#     Node 10, Type 0, BuildingBlock: CIFDUS_clean_sbu_1, # of connection points: 6
#     Node 11, Type 0, BuildingBlock: CIFDUS_clean_sbu_1, # of connection points: 6
#     Edge 12, Type (0, 0), BuildingBlock: CIFDUS_clean_linker_0, # of connection points: 2
#     Edge 13, Type (0, 0), BuildingBlock: CIFDUS_clean_linker_0, # of connection points: 2
#     Edge 14, Type (0, 0), BuildingBlock: CIFDUS_clean_linker_0, # of connection points: 2
#     Edge 15, Type (0, 0), BuildingBlock: CIFDUS_clean_linker_0, # of connection points: 2
#     Edge 16, Type (0, 0), BuildingBlock: CIFDUS_clean_linker_0, # of connection points: 2
#     Edge 17, Type (0, 0), BuildingBlock: CIFDUS_clean_linker_0, # of connection points: 2
#     Edge 18, Type (0, 0), BuildingBlock: CIFDUS_clean_linker_0, # of connection points: 2
#     Edge 19, Type (0, 0), BuildingBlock: CIFDUS_clean_linker_0, # of connection points: 2
#     Edge 20, Type (0, 0), BuildingBlock: CIFDUS_clean_linker_0, # of connection points: 2
#     Edge 21, Type (0, 0), BuildingBlock: CIFDUS_clean_linker_0, # of connection points: 2
#     Edge 22, Type (0, 0), BuildingBlock: CIFDUS_clean_linker_0, # of connection points: 2
#     Edge 23, Type (0, 0), BuildingBlock: CIFDUS_clean_linker_0, # of connection points: 2
#     Edge 24, Type (0, 0), BuildingBlock: CIFDUS_clean_linker_0, # of connection points: 2
#     Edge 25, Type (0, 0), BuildingBlock: CIFDUS_clean_linker_0, # of connection points: 2
#     Edge 26, Type (0, 0), BuildingBlock: CIFDUS_clean_linker_0, # of connection points: 2
#     Edge 27, Type (0, 0), BuildingBlock: CIFDUS_clean_linker_0, # of connection points: 2
#     Edge 28, Type (0, 0), BuildingBlock: CIFDUS_clean_linker_0, # of connection points: 2
#     Edge 29, Type (0, 0), BuildingBlock: CIFDUS_clean_linker_0, # of connection points: 2
#     Edge 30, Type (0, 0), BuildingBlock: CIFDUS_clean_linker_0, # of connection points: 2
#     Edge 31, Type (0, 0), BuildingBlock: CIFDUS_clean_linker_0, # of connection points: 2
#     Edge 32, Type (0, 0), BuildingBlock: CIFDUS_clean_linker_0, # of connection points: 2
#     Edge 33, Type (0, 0), BuildingBlock: CIFDUS_clean_linker_0, # of connection points: 2
#     Edge 34, Type (0, 0), BuildingBlock: CIFDUS_clean_linker_0, # of connection points: 2
#     Edge 35, Type (0, 0), BuildingBlock: CIFDUS_clean_linker_0, # of connection points: 2
#     Edge 36, Type (0, 0), BuildingBlock: CIFDUS_clean_linker_0, # of connection points: 2
#     Edge 37, Type (0, 0), BuildingBlock: CIFDUS_clean_linker_0, # of connection points: 2
#     Edge 38, Type (0, 0), BuildingBlock: CIFDUS_clean_linker_0, # of connection points: 2
#     Edge 39, Type (0, 0), BuildingBlock: CIFDUS_clean_linker_0, # of connection points: 2
#     Edge 40, Type (0, 0), BuildingBlock: CIFDUS_clean_linker_0, # of connection points: 2
#     Edge 41, Type (0, 0), BuildingBlock: CIFDUS_clean_linker_0, # of connection points: 2
#     Edge 42, Type (0, 0), BuildingBlock: CIFDUS_clean_linker_0, # of connection points: 2
#     Edge 43, Type (0, 0), BuildingBlock: CIFDUS_clean_linker_0, # of connection points: 2
#     Edge 44, Type (0, 0), BuildingBlock: CIFDUS_clean_linker_0, # of connection points: 2
#     Edge 45, Type (0, 0), BuildingBlock: CIFDUS_clean_linker_0, # of connection points: 2
#     Edge 46, Type (0, 0), BuildingBlock: CIFDUS_clean_linker_0, # of connection points: 2
#     Edge 47, Type (0, 0), BuildingBlock: CIFDUS_clean_linker_0, # of connection points: 2
# Relax obj value: 0.275
# Max RMSD: 0.264
# Mean RMSD: 0.264
data_MOF--net-lcy-e--node1-CIFDUS_clean_sbu_1--edge1-CIFDUS_clean_linker_0
_symmetry_space_group_name_H-M    P1
_symmetry_Int_Tables_number       1
_symmetry_cell_setting            triclinic
loop_
_symmetry_equiv_pos_as_xyz
'x, y, z'
_cell_length_a     31.75987
_cell_length_b     31.689433
_cell_length_c     31.745622
_cell_angle_alpha  90.121919
_cell_angle_beta   89.746263
_cell_angle_gamma 90.048019
loop_
_atom_site_label
_atom_site_type_symbol
_atom_site_fract_x
_atom_site_fract_y
_atom_site_fract_z
_atom_type_partial_charge
O0 O 0.08478 0.14932 0.43419 0.0
Mn1 Mn 0.12723 0.19935 0.44762 0.0
O2 O 0.022 0.18101 0.42196 0.0
Mn3 Mn 0.0382 0.23697 0.42694 0.0
O4 O 0.167 0.25038 0.46361 0.0
O5 O 0.16238 0.15961 0.48054 0.0
Mn6 Mn 0.21628 0.17093 0.47825 0.0
O7 O 0.16444 0.18524 0.3943 0.0
O8 O 0.21871 0.22333 0.50357 0.0
O9 O 0.09305 0.2154 0.50193 0.0
O10 O 0.03868 0.25657 0.48195 0.0
O11 O 0.21004 0.12215 0.51039 0.0
O12 O 0.22868 0.16957 0.42117 0.0
C13 C 0.08359 0.26105 0.38166 0.0
C14 C 0.04479 0.14815 0.42635 0.0
C15 C 0.1969 0.25442 0.49079 0.0
C16 C 0.17036 0.12749 0.50347 0.0
C17 C 0.2039 0.17601 0.39024 0.0
C18 C 0.06269 0.24112 0.5101 0.0
O19 O 0.0918 0.23749 0.41323 0.0
O20 O 0.04423 0.27096 0.37917 0.0
O21 O 0.10413 0.8325 0.68681 0.0
Mn22 Mn 0.05409 0.87436 0.699 0.0
O23 O 0.07058 0.77028 0.67461 0.0
Mn24 Mn 0.01494 0.78793 0.67446 0.0
O25 O 0.0017 0.91268 0.7124 0.0
O26 O 0.09054 0.90615 0.73885 0.0
Mn27 Mn 0.07506 0.95877 0.74341 0.0
O28 O 0.07168 0.9164 0.65107 0.0
O29 O 0.02083 0.95645 0.76436 0.0
O30 O 0.03635 0.83745 0.74945 0.0
O31 O 0.9906 0.78854 0.72801 0.0
O32 O 0.12315 0.95279 0.77588 0.0
O33 O 0.07895 0.97719 0.68831 0.0
C34 C 0.9948 0.83277 0.62727 0.0
C35 C 0.10393 0.79212 0.68068 0.0
C36 C 0.99259 0.93868 0.74227 0.0
C37 C 0.1222 0.91423 0.76252 0.0
C38 C 0.0778 0.95674 0.65347 0.0
C39 C 0.00823 0.80967 0.75725 0.0
O40 O 0.01839 0.84122 0.659 0.0
O41 O 0.98372 0.79358 0.6252 0.0
O42 O 0.34311 0.82734 0.89774 0.0
Mn43 Mn 0.37666 0.80375 0.94833 0.0
O44 O 0.27929 0.81277 0.92223 0.0
Mn45 Mn 0.29331 0.81673 0.97887 0.0
O46 O 0.40834 0.77956 4e-05 0.0
O47 O 0.40968 0.76771 0.90697 0.0
Mn48 Mn 0.46205 0.76461 0.92554 0.0
O49 O 0.42107 0.85305 0.94268 0.0
O50 O 0.46068 0.73803 0.9772 0.0
O51 O 0.33712 0.75031 0.95537 0.0
O52 O 0.292 0.76632 0.00615 0.0
O53 O 0.46103 0.73399 0.87644 0.0
O54 O 0.48207 0.81924 0.92753 0.0
C55 C 0.32022 0.87402 0.99834 0.0
C56 C 0.30355 0.82314 0.89222 0.0
C57 C 0.43678 0.75172 0.00634 0.0
C58 C 0.42147 0.74388 0.87575 0.0
C59 C 0.46126 0.8526 0.93612 0.0
C60 C 0.31242 0.7389 0.98551 0.0
O61 O 0.34344 0.8404 0.99134 0.0
O62 O 0.27984 0.86781 0.99876 0.0
O63 O 0.42777 0.09042 0.14045 0.0
Mn64 Mn 0.44517 0.12578 0.19362 0.0
O65 O 0.42892 0.02515 0.16835 0.0
Mn66 Mn 0.4291 0.0413 0.22453 0.0
O67 O 0.46305 0.15682 0.24902 0.0
O68 O 0.48375 0.16004 0.1567 0.0
Mn69 Mn 0.4908 0.20975 0.18015 0.0
O70 O 0.39776 0.17153 0.18452 0.0
O71 O 0.51545 0.20038 0.23161 0.0
O72 O 0.49818 0.0874 0.20319 0.0
O73 O 0.48007 0.04123 0.25145 0.0
O74 O 0.52059 0.21129 0.13027 0.0
O75 O 0.43684 0.2316 0.18359 0.0
C76 C 0.3763 0.06915 0.2524 0.0
C77 C 0.42621 0.04988 0.13689 0.0
C78 C 0.49451 0.18012 0.25908 0.0
C79 C 0.50633 0.17332 0.12545 0.0
C80 C 0.40141 0.21233 0.18453 0.0
C81 C 0.50816 0.06245 0.23311 0.0
O82 O 0.40301 0.09116 0.22959 0.0
O83 O 0.38412 0.0292 0.25641 0.0
O84 O 0.66865 0.31243 0.59708 0.0
Mn85 Mn 0.6275 0.29881 0.5479 0.0
O86 O 0.72938 0.32992 0.56381 0.0
Mn87 Mn 0.71045 0.33151 0.5086 0.0
O88 O 0.58893 0.28467 0.49695 0.0
O89 O 0.59871 0.25641 0.58468 0.0
Mn90 Mn 0.54489 0.25261 0.57252 0.0
O91 O 0.58426 0.34468 0.56821 0.0
O92 O 0.54409 0.23394 0.51721 0.0
O93 O 0.66776 0.25073 0.52584 0.0
O94 O 0.71299 0.28059 0.48053 0.0
O95 O 0.55426 0.21786 0.61868 0.0
O96 O 0.52455 0.30714 0.57956 0.0
C97 C 0.66289 0.37681 0.49165 0.0
C98 C 0.70812 0.32184 0.59715 0.0
C99 C 0.56209 0.25558 0.48854 0.0
C100 C 0.59272 0.23091 0.61563 0.0
C101 C 0.54453 0.34212 0.57673 0.0
C102 C 0.69519 0.2481 0.49591 0.0
O103 O 0.65634 0.34269 0.5127 0.0
O104 O 0.70185 0.38206 0.48078 0.0
O105 O 0.93891 0.41933 0.85246 0.0
Mn106 Mn 0.94924 0.37796 0.80116 0.0
O107 O 0.91245 0.47912 0.8236 0.0
Mn108 Mn 0.91475 0.46414 0.76738 0.0
O109 O 0.9608 0.33926 0.74838 0.0
O110 O 0.98982 0.34528 0.83584 0.0
Mn111 Mn 0.99112 0.29183 0.82105 0.0
O112 O 0.90173 0.33655 0.82144 0.0
O113 O 0.01175 0.29392 0.76669 0.0
O114 O 0.99793 0.41746 0.77919 0.0
O115 O 0.96762 0.47093 0.74362 0.0
O116 O 0.02267 0.29703 0.87 0.0
O117 O 0.93534 0.27369 0.82532 0.0
C118 C 0.87474 0.41403 0.74445 0.0
C119 C 0.92544 0.45775 0.85502 0.0
C120 C 0.99014 0.31286 0.73891 0.0
C121 C 0.01091 0.33605 0.86896 0.0
C122 C 0.90183 0.2961 0.82649 0.0
C123 C 3e-05 0.45019 0.75511 0.0
O124 O 0.90744 0.40944 0.76737 0.0
O125 O 0.86662 0.45299 0.73572 0.0
O126 O 0.91813 0.6548 0.06466 0.0
Mn127 Mn 0.87157 0.70054 0.05262 0.0
O128 O 0.97676 0.69558 0.06723 0.0
Mn129 Mn 0.95267 0.74887 0.06811 0.0
O130 O 0.82995 0.75077 0.03887 0.0
O131 O 0.84039 0.65789 0.01703 0.0
Mn132 Mn 0.78768 0.6756 0.01517 0.0
O133 O 0.8341 0.6813 0.10315 0.0
O134 O 0.78928 0.72664 0.98752 0.0
O135 O 0.9044 0.71795 0.99845 0.0
O136 O 0.94562 0.772 0.0153 0.0
O137 O 0.78884 0.62574 0.98556 0.0
O138 O 0.77045 0.67574 0.07151 0.0
C139 C 0.91468 0.76602 0.1211 0.0
C140 C 0.95862 0.65953 0.06611 0.0
C141 C 0.80703 0.75708 0.00624 0.0
C142 C 0.82825 0.62524 0.9957 0.0
C143 C 0.79391 0.67521 0.10423 0.0
C144 C 0.92725 0.74946 0.98785 0.0
O145 O 0.90239 0.74144 0.09078 0.0
O146 O 0.95247 0.78069 0.11652 0.0
O147 O 0.59525 0.66448 0.31677 0.0
Mn148 Mn 0.54441 0.62691 0.29901 0.0
O149 O 0.56597 0.72927 0.32628 0.0
Mn150 Mn 0.50898 0.71614 0.32098 0.0
O151 O 0.49105 0.59351 0.28114 0.0
O152 O 0.58151 0.59032 0.26337 0.0
Mn153 Mn 0.56409 0.53726 0.26471 0.0
O154 O 0.55542 0.58694 0.35007 0.0
O155 O 0.51008 0.53739 0.2426 0.0
O156 O 0.53402 0.66475 0.24671 0.0
O157 O 0.48913 0.71599 0.26605 0.0
O158 O 0.6125 0.53899 0.23147 0.0
O159 O 0.56708 0.52255 0.32127 0.0
C160 C 0.48411 0.67105 0.36656 0.0
C161 C 0.59769 0.70435 0.32473 0.0
C162 C 0.48218 0.56273 0.25654 0.0
C163 C 0.61275 0.5789 0.24008 0.0
C164 C 0.56309 0.54714 0.35302 0.0
C165 C 0.50795 0.69422 0.23794 0.0
O166 O 0.50746 0.66257 0.33472 0.0
O167 O 0.47493 0.71068 0.36908 0.0
O168 O 0.17523 0.39843 0.16066 0.0
Mn169 Mn 0.1946 0.44771 0.12158 0.0
O170 O 0.16742 0.43321 0.22279 0.0
Mn171 Mn 0.16894 0.48909 0.20479 0.0
O172 O 0.21417 0.49987 0.08683 0.0
O173 O 0.23447 0.40877 0.09177 0.0
Mn174 Mn 0.24327 0.42645 0.03999 0.0
O175 O 0.14916 0.43536 0.07538 0.0
O176 O 0.26674 0.47983 0.04445 0.0
O177 O 0.24358 0.4606 0.16345 0.0
O178 O 0.22213 0.51306 0.20498 0.0
O179 O 0.27305 0.37643 0.04579 0.0
O180 O 0.18977 0.42725 0.01679 0.0
C181 C 0.1212 0.50846 0.16123 0.0
C182 C 0.1693 0.39917 0.20095 0.0
C183 C 0.24518 0.50861 0.06237 0.0
C184 C 0.25754 0.37635 0.08351 0.0
C185 C 0.15397 0.43135 0.03507 0.0
C186 C 0.25145 0.49116 0.18873 0.0
O187 O 0.15357 0.48571 0.15162 0.0
O188 O 0.11996 0.52014 0.20027 0.0
O189 O 0.68276 0.09531 0.83799 0.0
Mn190 Mn 0.69898 0.04753 0.88085 0.0
O191 O 0.67798 0.06089 0.77558 0.0
Mn192 Mn 0.68086 0.00537 0.79429 0.0
O193 O 0.71676 0.99795 0.92125 0.0
O194 O 0.73309 0.0893 0.91345 0.0
Mn195 Mn 0.73039 0.07986 0.96793 0.0
O196 O 0.64625 0.06023 0.91906 0.0
O197 O 0.75293 0.02647 0.9751 0.0
O198 O 0.75289 0.03313 0.84582 0.0
O199 O 0.7351 0.98479 0.79725 0.0
O200 O 0.76275 0.1283 0.96038 0.0
O201 O 0.67362 0.08253 0.9811 0.0
C202 C 0.63116 0.98645 0.83741 0.0
C203 C 0.67827 0.09478 0.79754 0.0
C204 C 0.74019 0.99458 0.95414 0.0
C205 C 0.75576 0.1222 0.92074 0.0
C206 C 0.6426 0.07211 0.95781 0.0
C207 C 0.76264 0.0047 0.81857 0.0
O208 O 0.66436 0.00736 0.84728 0.0
O209 O 0.6313 0.97421 0.79853 0.0
O210 O 0.81929 0.90729 0.33205 0.0
Mn211 Mn 0.80171 0.95441 0.3752 0.0
O212 O 0.81005 0.94305 0.27207 0.0
Mn213 Mn 0.81589 0.99765 0.29297 0.0
O214 O 0.7822 0.00387 0.41566 0.0
O215 O 0.76618 0.91017 0.40495 0.0
Mn216 Mn 0.7645 0.92493 0.45841 0.0
O217 O 0.85274 0.94019 0.41526 0.0
O218 O 0.73742 0.97582 0.46201 0.0
O219 O 0.74789 0.9691 0.33914 0.0
O220 O 0.76476 0.024 0.2987 0.0
O221 O 0.73416 0.87616 0.45577 0.0
O222 O 0.81951 0.92473 0.47645 0.0
C223 C 0.8731 0.00748 0.32621 0.0
C224 C 0.81532 0.90858 0.29178 0.0
C225 C 0.7532 0.00772 0.44386 0.0
C226 C 0.74332 0.87797 0.416 0.0
C227 C 0.853 0.93107 0.45498 0.0
C228 C 0.73712 0.00102 0.31651 0.0
O229 O 0.83743 0.99874 0.34483 0.0
O230 O 0.86936 0.0175 0.28684 0.0
O231 O 0.34586 0.56411 0.5824 0.0
Mn232 Mn 0.29509 0.54814 0.62163 0.0
O233 O 0.31578 0.57735 0.5194 0.0
Mn234 Mn 0.25983 0.57645 0.53637 0.0
O235 O 0.24261 0.53088 0.65913 0.0
O236 O 0.33259 0.50856 0.65271 0.0
Mn237 Mn 0.32054 0.50653 0.7067 0.0
O238 O 0.3131 0.59574 0.66412 0.0
O239 O 0.26694 0.48429 0.70658 0.0
O240 O 0.27729 0.49784 0.58118 0.0
O241 O 0.23409 0.52497 0.53282 0.0
O242 O 0.36796 0.47304 0.69818 0.0
O243 O 0.32598 0.56183 0.72543 0.0
C244 C 0.23994 0.62451 0.57927 0.0
C245 C 0.34803 0.5729 0.54283 0.0
C246 C 0.23685 0.50108 0.68625 0.0
C247 C 0.36412 0.48414 0.65925 0.0
C248 C 0.32305 0.59544 0.70351 0.0
C249 C 0.25016 0.4935 0.55134 0.0
O250 O 0.25991 0.59062 0.59011 0.0
O251 O 0.23027 0.62604 0.53971 0.0
H252 H 0.19249 0.33095 0.4523 0.0
H253 H 0.22477 0.27162 0.5697 0.0
H254 H 0.24467 0.33995 0.59942 0.0
H255 H 0.25408 0.41703 0.59151 0.0
H256 H 0.22095 0.47527 0.47334 0.0
H257 H 0.20042 0.40726 0.44465 0.0
C258 C 0.20326 0.33306 0.48447 0.0
C259 C 0.20705 0.29635 0.50862 0.0
C260 C 0.21497 0.37236 0.50124 0.0
C261 C 0.22196 0.2995 0.55022 0.0
C262 C 0.2333 0.33855 0.56731 0.0
C263 C 0.24251 0.4147 0.55948 0.0
C264 C 0.23901 0.45124 0.53478 0.0
C265 C 0.23033 0.37525 0.54297 0.0
C266 C 0.22367 0.44774 0.49333 0.0
C267 C 0.21191 0.40881 0.47672 0.0
H268 H 0.79789 0.97628 0.74617 0.0
H269 H 0.82774 0.01341 0.87343 0.0
H270 H 0.90181 0.99585 0.86128 0.0
H271 H 0.95761 0.96807 0.8149 0.0
H272 H 0.92899 0.9402 0.68556 0.0
H273 H 0.85459 0.95466 0.69813 0.0
C274 C 0.82062 0.98039 0.77127 0.0
C275 C 0.80745 0.99557 0.81075 0.0
C276 C 0.86311 0.97107 0.76383 0.0
C277 C 0.83726 0.00164 0.84276 0.0
C278 C 0.87952 0.99151 0.83589 0.0
C279 C 0.93505 0.96519 0.78951 0.0
C280 C 0.94821 0.95043 0.74979 0.0
C281 C 0.89274 0.97594 0.79662 0.0
C282 C 0.9189 0.94805 0.71699 0.0
C283 C 0.87658 0.95744 0.72401 0.0
H284 H 0.25347 0.70547 0.03749 0.0
H285 H 0.35454 0.6707 0.95295 0.0
H286 H 0.34316 0.59615 0.96958 0.0
H287 H 0.30475 0.54103 0.00884 0.0
H288 H 0.2037 0.57737 0.09307 0.0
H289 H 0.215 0.65114 0.07569 0.0
C290 C 0.27306 0.68167 0.02258 0.0
C291 C 0.30481 0.69366 0.99403 0.0
C292 C 0.26644 0.6391 0.03231 0.0
C293 C 0.32974 0.6623 0.97493 0.0
C294 C 0.32335 0.61969 0.98453 0.0
C295 C 0.28531 0.56508 0.02353 0.0
C296 C 0.25355 0.55349 0.05238 0.0
C297 C 0.29187 0.60774 0.01334 0.0
C298 C 0.22852 0.58518 0.0709 0.0
C299 C 0.23487 0.62749 0.06095 0.0
H300 H 0.54224 0.99791 0.27782 0.0
H301 H 0.57412 0.11485 0.21588 0.0
H302 H 0.64741 0.10707 0.23773 0.0
H303 H 0.70247 0.06675 0.27374 0.0
H304 H 0.67064 0.9492 0.33477 0.0
H305 H 0.59728 0.95764 0.31395 0.0
C306 C 0.56524 0.02167 0.26901 0.0
C307 C 0.5528 0.05677 0.24498 0.0
C308 C 0.60731 0.01693 0.28155 0.0
C309 C 0.58299 0.08725 0.23386 0.0
C310 C 0.62485 0.08294 0.24653 0.0
C311 C 0.6795 0.043 0.28264 0.0
C312 C 0.69217 0.00742 0.30587 0.0
C313 C 0.63738 0.04786 0.27028 0.0
C314 C 0.66185 0.97705 0.31715 0.0
C315 C 0.61986 0.98175 0.30511 0.0
H316 H 0.67374 0.17069 0.52661 0.0
H317 H 0.74648 0.23102 0.42855 0.0
H318 H 0.77065 0.16246 0.4034 0.0
H319 H 0.77251 0.08498 0.41006 0.0
H320 H 0.70026 0.02557 0.50922 0.0
H321 H 0.67516 0.09392 0.53303 0.0
C322 C 0.69492 0.16894 0.49981 0.0
C323 C 0.70849 0.20612 0.47993 0.0
C324 C 0.70912 0.1294 0.48565 0.0
C325 C 0.7357 0.20301 0.44486 0.0
C326 C 0.74961 0.16375 0.43035 0.0
C327 C 0.75136 0.087 0.4369 0.0
C328 C 0.73852 0.05001 0.45772 0.0
C329 C 0.73682 0.12668 0.45071 0.0
C330 C 0.7108 0.05335 0.49237 0.0
C331 C 0.6963 0.09252 0.50616 0.0
H332 H 0.07284 0.40545 0.7455 0.0
H333 H 0.02026 0.53008 0.73113 0.0
H334 H 0.08782 0.5566 0.70581 0.0
H335 H 0.16288 0.54503 0.68922 0.0
H336 H 0.2154 0.42057 0.70433 0.0
H337 H 0.14706 0.39336 0.7268 0.0
C338 C 0.07626 0.43842 0.73697 0.0
C339 C 0.04157 0.46569 0.74036 0.0
C340 C 0.11523 0.45353 0.72208 0.0
C341 C 0.0464 0.50827 0.72866 0.0
C342 C 0.08506 0.52355 0.71414 0.0
C343 C 0.15911 0.51192 0.69701 0.0
C344 C 0.19411 0.48498 0.69547 0.0
C345 C 0.11977 0.49653 0.71073 0.0
C346 C 0.18894 0.4421 0.70581 0.0
C347 C 0.1499 0.42647 0.71872 0.0
H348 H 0.76432 0.92539 0.9088 0.0
H349 H 0.74204 0.96924 0.03555 0.0
H350 H 0.76242 0.90044 0.06351 0.0
H351 H 0.78656 0.82719 0.05205 0.0
H352 H 0.80858 0.78321 0.92534 0.0
H353 H 0.78983 0.85256 0.8974 0.0
C354 C 0.76377 0.91966 0.94248 0.0
C355 C 0.75157 0.95221 0.97007 0.0
C356 C 0.7762 0.88012 0.95843 0.0
C357 C 0.75154 0.94467 0.01371 0.0
C358 C 0.76322 0.90535 0.02974 0.0
C359 C 0.78753 0.83306 0.0184 0.0
C360 C 0.79873 0.80025 0.99074 0.0
C361 C 0.77581 0.87283 0.00247 0.0
C362 C 0.79961 0.808 0.94716 0.0
C363 C 0.78884 0.8476 0.93116 0.0
H364 H 0.4436 0.48903 0.23681 0.0
H365 H 0.4212 0.62267 0.24977 0.0
H366 H 0.3474 0.61263 0.23043 0.0
H367 H 0.28905 0.56551 0.20959 0.0
H368 H 0.31166 0.43189 0.19923 0.0
H369 H 0.38529 0.44204 0.21801 0.0
C370 C 0.42256 0.51593 0.23524 0.0
C371 C 0.43774 0.55645 0.2446 0.0
C372 C 0.38015 0.50988 0.22468 0.0
C373 C 0.41009 0.59105 0.24294 0.0
C374 C 0.36793 0.58537 0.23184 0.0
C375 C 0.31017 0.53872 0.21165 0.0
C376 C 0.2953 0.49805 0.20218 0.0
C377 C 0.35255 0.54488 0.22276 0.0
C378 C 0.32282 0.46355 0.20503 0.0
C379 C 0.36483 0.46933 0.21613 0.0
H380 H 0.53457 0.24729 0.29264 0.0
H381 H 0.47528 0.12936 0.32603 0.0
H382 H 0.49028 0.14264 0.40052 0.0
H383 H 0.52058 0.18786 0.4558 0.0
H384 H 0.5796 0.30575 0.42109 0.0
H385 H 0.56378 0.29252 0.34736 0.0
C386 C 0.52513 0.22431 0.31615 0.0
C387 C 0.50405 0.18732 0.30392 0.0
C388 C 0.53348 0.23231 0.35865 0.0
C389 C 0.49147 0.15815 0.33479 0.0
C390 C 0.50005 0.16572 0.3773 0.0
C391 C 0.52983 0.21072 0.43212 0.0
C392 C 0.55131 0.2477 0.44402 0.0
C393 C 0.52098 0.20276 0.38957 0.0
C394 C 0.56321 0.27694 0.4129 0.0
C395 C 0.55423 0.26941 0.37066 0.0
H396 H 0.99223 0.23295 0.5572 0.0
H397 H 0.11842 0.2828 0.55903 0.0
H398 H 0.10626 0.31233 0.6295 0.0
H399 H 0.05987 0.32243 0.69133 0.0
H400 H 0.93391 0.27204 0.68977 0.0
H401 H 0.94574 0.24333 0.6189 0.0
C402 C 0.01703 0.24995 0.57341 0.0
C403 C 0.05628 0.25533 0.55369 0.0
C404 C 0.00981 0.26651 0.61387 0.0
C405 C 0.08831 0.2776 0.57437 0.0
C406 C 0.08124 0.29469 0.6144 0.0
C407 C 0.03503 0.30553 0.67505 0.0
C408 C 0.99596 0.2997 0.69498 0.0
C409 C 0.04218 0.28918 0.63451 0.0
C410 C 0.96388 0.27755 0.67427 0.0
C411 C 0.97077 0.26092 0.63403 0.0
H412 H 0.95 0.75467 0.79002 0.0
H413 H 0.04188 0.84889 0.82553 0.0
H414 H 0.02408 0.83937 0.89917 0.0
H415 H 0.983 0.80476 0.95391 0.0
H416 H 0.89137 0.70994 0.92015 0.0
H417 H 0.90843 0.71954 0.84569 0.0
C418 C 0.96612 0.77305 0.81387 0.0
C419 C 0.99716 0.80242 0.80199 0.0
C420 C 0.95573 0.76756 0.85662 0.0
C421 C 0.01778 0.82599 0.83346 0.0
C422 C 0.00763 0.82069 0.87578 0.0
C423 C 0.96651 0.78633 0.93033 0.0
C424 C 0.93593 0.75678 0.94266 0.0
C425 C 0.97664 0.7917 0.88771 0.0
C426 C 0.91509 0.733 0.91157 0.0
C427 C 0.92485 0.73839 0.86894 0.0
H428 H 0.43418 0.6967 0.1965 0.0
H429 H 0.56786 0.71431 0.1808 0.0
H430 H 0.55791 0.732 0.10647 0.0
H431 H 0.51079 0.74372 0.04645 0.0
H432 H 0.37698 0.72679 0.06202 0.0
H433 H 0.38717 0.70613 0.13562 0.0
C434 C 0.46093 0.70455 0.1766 0.0
C435 C 0.50156 0.70465 0.19359 0.0
C436 C 0.45494 0.71414 0.13397 0.0
C437 C 0.53634 0.71406 0.16791 0.0
C438 C 0.53065 0.72413 0.12558 0.0
C439 C 0.48404 0.73515 0.06603 0.0
C440 C 0.44328 0.73682 0.04943 0.0
C441 C 0.4901 0.72431 0.10831 0.0
C442 C 0.40859 0.72607 0.07472 0.0
C443 C 0.4144 0.71433 0.11663 0.0
H444 H 0.08395 0.25127 0.29718 0.0
H445 H 0.1504 0.30937 0.39968 0.0
H446 H 0.19014 0.35339 0.35022 0.0
H447 H 0.19559 0.38345 0.27952 0.0
H448 H 0.12772 0.32727 0.17629 0.0
H449 H 0.10016 0.27266 0.22376 0.0
C450 C 0.10828 0.27255 0.30828 0.0
C451 C 0.11483 0.27733 0.35177 0.0
C452 C 0.13035 0.29799 0.27949 0.0
C453 C 0.14595 0.3049 0.36628 0.0
C454 C 0.16812 0.3303 0.33799 0.0
C455 C 0.17551 0.35863 0.2672 0.0
C456 C 0.16264 0.35985 0.22484 0.0
C457 C 0.15914 0.32834 0.29477 0.0
C458 C 0.13759 0.32711 0.2089 0.0
C459 C 0.12157 0.29622 0.23613 0.0
H460 H 0.00849 0.84919 0.54376 0.0
H461 H 0.93156 0.88102 0.65064 0.0
H462 H 0.88678 0.9254 0.60678 0.0
H463 H 0.86333 0.94488 0.53732 0.0
H464 H 0.93093 0.90266 0.42698 0.0
H465 H 0.98679 0.87404 0.47223 0.0
C466 C 0.98277 0.86723 0.55729 0.0
C467 C 0.97454 0.86465 0.60086 0.0
C468 C 0.95548 0.89023 0.53093 0.0
C469 C 0.94009 0.88601 0.61801 0.0
C470 C 0.91401 0.91026 0.59264 0.0
C471 C 0.89064 0.93001 0.52294 0.0
C472 C 0.89255 0.92501 0.47886 0.0
C473 C 0.92069 0.91148 0.54898 0.0
C474 C 0.92858 0.90668 0.46079 0.0
C475 C 0.96018 0.88984 0.48675 0.0
H476 H 0.28806 0.65363 0.75764 0.0
H477 H 0.40336 0.6163 0.69598 0.0
H478 H 0.44383 0.66102 0.74332 0.0
H479 H 0.44737 0.70468 0.80563 0.0
H480 H 0.33398 0.74305 0.87012 0.0
H481 H 0.29149 0.70593 0.81712 0.0
C482 C 0.32182 0.65696 0.75359 0.0
C483 C 0.34278 0.63275 0.72264 0.0
C484 C 0.34513 0.68279 0.78143 0.0
C485 C 0.38661 0.6359 0.71852 0.0
C486 C 0.40979 0.66099 0.74598 0.0
C487 C 0.4133 0.70551 0.80807 0.0
C488 C 0.39394 0.72658 0.84206 0.0
C489 C 0.3895 0.68367 0.77809 0.0
C490 C 0.34974 0.72734 0.84429 0.0
C491 C 0.32549 0.70577 0.81409 0.0
H492 H 0.52799 0.0904 0.11187 0.0
H493 H 0.50137 0.20762 0.04877 0.0
H494 H 0.53289 0.18103 0.98401 0.0
H495 H 0.58283 0.13187 0.95146 0.0
H496 H 0.61378 0.01631 0.01487 0.0
H497 H 0.56523 0.03377 0.07236 0.0
C498 C 0.52769 0.10929 0.08341 0.0
C499 C 0.51306 0.15108 0.08511 0.0
C500 C 0.54724 0.09418 0.04628 0.0
C501 C 0.51301 0.17548 0.0482 0.0
C502 C 0.53117 0.16038 0.01114 0.0
C503 C 0.57706 0.10957 0.97674 0.0
C504 C 0.60143 0.07291 0.97901 0.0
C505 C 0.55054 0.12079 0.01052 0.0
C506 C 0.59474 0.04456 0.01241 0.0
C507 C 0.5675 0.05488 0.04562 0.0
H508 H 0.58727 0.2378 0.69988 0.0
H509 H 0.66774 0.1923 0.60025 0.0
H510 H 0.707 0.14951 0.65094 0.0
H511 H 0.70876 0.1155 0.72077 0.0
H512 H 0.62861 0.16149 0.8207 0.0
H513 H 0.59967 0.21493 0.77319 0.0
C514 C 0.61446 0.2197 0.68968 0.0
C515 C 0.62459 0.21776 0.64652 0.0
C516 C 0.63649 0.19507 0.71901 0.0
C517 C 0.65968 0.19435 0.63336 0.0
C518 C 0.68177 0.16959 0.66231 0.0
C519 C 0.6858 0.13805 0.73244 0.0
C520 C 0.67018 0.13417 0.77393 0.0
C521 C 0.66906 0.16821 0.7048 0.0
C522 C 0.64097 0.16382 0.78893 0.0
C523 C 0.62417 0.19407 0.76162 0.0
H524 H 0.07902 0.38925 0.04194 0.0
H525 H 0.1491 0.47452 0.9626 0.0
H526 H 0.10251 0.4597 0.90372 0.0
H527 H 0.05274 0.41031 0.87091 0.0
H528 H 0.98612 0.32122 0.94865 0.0
H529 H 0.01863 0.35059 0.01188 0.0
C530 C 0.08284 0.40578 0.01228 0.0
C531 C 0.11769 0.43226 0.00629 0.0
C532 C 0.05661 0.39604 0.97791 0.0
C533 C 0.12263 0.45347 0.96764 0.0
C534 C 0.09613 0.44492 0.93385 0.0
C535 C 0.04406 0.39877 0.90193 0.0
C536 C 0.0175 0.36371 0.90545 0.0
C537 C 0.06453 0.41444 0.93791 0.0
C538 C 0.00674 0.3483 0.94553 0.0
C539 C 0.02563 0.36479 0.98162 0.0
H540 H 0.87299 0.84465 0.2954 0.0
H541 H 0.76494 0.88833 0.22663 0.0
H542 H 0.78133 0.84028 0.16868 0.0
H543 H 0.83476 0.79696 0.1316 0.0
H544 H 0.94472 0.75652 0.19929 0.0
H545 H 0.91903 0.79075 0.26329 0.0
C546 C 0.85219 0.84232 0.26848 0.0
C547 C 0.81813 0.87026 0.26509 0.0
C548 C 0.86261 0.81545 0.23446 0.0
C549 C 0.79163 0.86729 0.22975 0.0
C550 C 0.80111 0.83998 0.19641 0.0
C551 C 0.85208 0.79426 0.16085 0.0
C552 C 0.89158 0.77441 0.16078 0.0
C553 C 0.83777 0.81548 0.19741 0.0
C554 C 0.91418 0.77174 0.19868 0.0
C555 C 0.89967 0.79159 0.23527 0.0
H556 H 0.38131 0.5402 0.47171 0.0
H557 H 0.40251 0.63331 0.56838 0.0
H558 H 0.452 0.67056 0.52226 0.0
H559 H 0.47764 0.68356 0.4501 0.0
H560 H 0.45737 0.58999 0.35367 0.0
H561 H 0.41967 0.54538 0.40404 0.0
C562 C 0.39828 0.56761 0.48319 0.0
C563 C 0.38845 0.5842 0.52317 0.0
C564 C 0.42604 0.58915 0.45621 0.0
C565 C 0.41013 0.61981 0.53789 0.0
C566 C 0.43787 0.64143 0.51127 0.0
C567 C 0.46576 0.65292 0.44047 0.0
C568 C 0.46958 0.64025 0.39818 0.0
C569 C 0.44426 0.62755 0.46968 0.0
C570 C 0.45476 0.60037 0.386 0.0
C571 C 0.43298 0.57499 0.4148 0.0
H572 H 0.21035 0.10058 0.35549 0.0
H573 H 0.24413 0.23052 0.33681 0.0
H574 H 0.30049 0.20943 0.28769 0.0
H575 H 0.34793 0.15224 0.26027 0.0
H576 H 0.31426 0.02264 0.28671 0.0
H577 H 0.25139 0.04519 0.32284 0.0
C578 C 0.22878 0.1243 0.33901 0.0
C579 C 0.22261 0.16688 0.34882 0.0
C580 C 0.26261 0.11179 0.31343 0.0
C581 C 0.24768 0.19747 0.32872 0.0
C582 C 0.2805 0.18532 0.30139 0.0
C583 C 0.32648 0.12908 0.27342 0.0
C584 C 0.33651 0.08577 0.271 0.0
C585 C 0.28965 0.14231 0.29514 0.0
C586 C 0.3081 0.05622 0.28829 0.0
C587 C 0.27167 0.06897 0.30893 0.0
H588 H 0.14295 0.04756 0.48912 0.0
H589 H 0.13147 0.15441 0.57261 0.0
H590 H 0.09739 0.1103 0.62551 0.0
H591 H 0.07935 0.04142 0.65057 0.0
H592 H 0.0917 0.93169 0.57043 0.0
H593 H 0.11473 0.97752 0.51215 0.0
C594 C 0.1313 0.06117 0.51829 0.0
C595 C 0.13881 0.10401 0.52716 0.0
C596 C 0.11217 0.0353 0.54883 0.0
C597 C 0.12477 0.12169 0.56508 0.0
C598 C 0.1058 0.0964 0.59539 0.0
C599 C 0.08685 0.02699 0.62044 0.0
C600 C 0.08528 0.98281 0.6154 0.0
C601 C 0.10071 0.05307 0.58803 0.0
C602 C 0.09369 0.96544 0.57551 0.0
C603 C 0.10691 0.99163 0.5423 0.0
H604 H 0.20419 0.9322 0.76712 0.0
H605 H 0.11536 0.83039 0.78184 0.0
H606 H 0.16922 0.78785 0.81695 0.0
H607 H 0.2364 0.78654 0.85561 0.0
H608 H 0.32418 0.88956 0.84212 0.0
H609 H 0.27639 0.9245 0.79311 0.0
C610 C 0.19708 0.90022 0.77707 0.0
C611 C 0.15597 0.8845 0.77283 0.0
C612 C 0.22792 0.87649 0.79755 0.0
C613 C 0.14688 0.843 0.78502 0.0
C614 C 0.17757 0.81889 0.80533 0.0
C615 C 0.24559 0.81595 0.8407 0.0
C616 C 0.28329 0.83592 0.85273 0.0
C617 C 0.21748 0.83624 0.81355 0.0
C618 C 0.29534 0.87368 0.83315 0.0
C619 C 0.26778 0.89387 0.8056 0.0
H620 H 0.34872 0.03669 0.10903 0.0
H621 H 0.47867 0.01178 0.08021 0.0
H622 H 0.45799 0.95463 0.032 0.0
H623 H 0.40221 0.90512 0.00619 0.0
H624 H 0.27265 0.93152 0.03954 0.0
H625 H 0.2939 0.9932 0.07833 0.0
C626 C 0.37234 0.01999 0.09063 0.0
C627 C 0.41494 0.02912 0.09704 0.0
C628 C 0.36028 0.986 0.06496 0.0
C629 C 0.44552 0.00604 0.07464 0.0
C630 C 0.43369 0.9728 0.04778 0.0
C631 C 0.3787 0.92467 0.02144 0.0
C632 C 0.33584 0.91301 0.0197 0.0
C633 C 0.39108 0.96129 0.04399 0.0
C634 C 0.3059 0.93909 0.03993 0.0
C635 C 0.3179 0.97483 0.06227 0.0
H636 H 0.79184 0.40112 0.75428 0.0
H637 H 0.90234 0.353 0.69158 0.0
H638 H 0.85836 0.31164 0.64387 0.0
H639 H 0.78909 0.30211 0.61146 0.0
H640 H 0.67819 0.35246 0.67209 0.0
H641 H 0.72139 0.37898 0.73021 0.0
C642 C 0.80607 0.38016 0.7312 0.0
C643 C 0.84999 0.37956 0.72639 0.0
C644 C 0.78046 0.35753 0.70326 0.0
C645 C 0.86857 0.35292 0.69635 0.0
C646 C 0.84338 0.32987 0.66867 0.0
C647 C 0.77429 0.31795 0.63801 0.0
C648 C 0.73083 0.32647 0.6372 0.0
C649 C 0.79937 0.33378 0.67054 0.0
C650 C 0.71169 0.34603 0.67199 0.0
C651 C 0.73642 0.36146 0.70495 0.0
H652 H 0.87407 0.45053 0.92304 0.0
H653 H 0.97822 0.52141 0.87268 0.0
H654 H 0.96214 0.58039 0.91975 0.0
H655 H 0.908 0.6174 0.96264 0.0
H656 H 0.80258 0.54627 0.01059 0.0
H657 H 0.82994 0.48199 0.97855 0.0
C658 C 0.89453 0.47795 0.92416 0.0
C659 C 0.9273 0.48166 0.89476 0.0
C660 C 0.88415 0.51237 0.95036 0.0
C661 C 0.95306 0.5178 0.89559 0.0
C662 C 0.94348 0.55183 0.92206 0.0
C663 C 0.89212 0.58745 0.96742 0.0
C664 C 0.85307 0.58654 0.9883 0.0
C665 C 0.90755 0.55046 0.94779 0.0
C666 C 0.83251 0.54767 0.9941 0.0
C667 C 0.84801 0.51087 0.97563 0.0
H668 H 0.72896 0.71024 0.14737 0.0
H669 H 0.81079 0.60197 0.143 0.0
H670 H 0.76194 0.56258 0.18783 0.0
H671 H 0.6916 0.55595 0.21918 0.0
H672 H 0.61062 0.66468 0.22696 0.0
H673 H 0.66367 0.70739 0.1906 0.0
C674 C 0.73683 0.67868 0.15793 0.0
C675 C 0.77356 0.65908 0.14257 0.0
C676 C 0.70838 0.65618 0.18352 0.0
C677 C 0.78322 0.61793 0.15545 0.0
C678 C 0.75496 0.59521 0.18047 0.0
C679 C 0.68581 0.58919 0.2135 0.0
C680 C 0.64678 0.60694 0.22478 0.0
C681 C 0.71675 0.61352 0.19326 0.0
C682 C 0.64005 0.65016 0.21805 0.0
C683 C 0.67045 0.67456 0.19722 0.0
H684 H 0.67445 0.4602 0.4843 0.0
H685 H 0.57957 0.36375 0.47258 0.0
H686 H 0.53455 0.41267 0.4335 0.0
H687 H 0.53001 0.47786 0.39046 0.0
H688 H 0.62465 0.57433 0.40444 0.0
H689 H 0.66191 0.53076 0.45559 0.0
C690 C 0.64338 0.45027 0.47419 0.0
C691 C 0.63071 0.40817 0.48004 0.0
C692 C 0.61796 0.47852 0.45191 0.0
C693 C 0.59018 0.3958 0.46774 0.0
C694 C 0.56459 0.42375 0.44524 0.0
C695 C 0.55778 0.48993 0.40623 0.0
C696 C 0.57482 0.52902 0.39385 0.0
C697 C 0.57918 0.46447 0.43532 0.0
C698 C 0.61084 0.54454 0.41401 0.0
C699 C 0.63241 0.51938 0.44279 0.0
H700 H 0.30052 0.37604 0.15657 0.0
H701 H 0.23392 0.29565 0.07057 0.0
H702 H 0.26672 0.23322 0.10154 0.0
H703 H 0.32682 0.20409 0.14154 0.0
H704 H 0.39433 0.28594 0.22637 0.0
H705 H 0.34878 0.34471 0.20827 0.0
C706 C 0.29167 0.34474 0.14631 0.0
C707 C 0.2648 0.34028 0.11175 0.0
C708 C 0.31187 0.30916 0.16335 0.0
C709 C 0.25449 0.29963 0.09742 0.0
C710 C 0.27357 0.26397 0.11485 0.0
C711 C 0.33025 0.23425 0.15736 0.0
C712 C 0.36441 0.24081 0.1845 0.0
C713 C 0.30421 0.26853 0.14618 0.0
C714 C 0.36858 0.28023 0.20478 0.0
C715 C 0.34266 0.31406 0.19432 0.0
H716 H 0.88009 0.21727 0.80203 0.0
H717 H 0.83572 0.32322 0.87515 0.0
H718 H 0.78078 0.27877 0.90658 0.0
H719 H 0.75447 0.20707 0.92233 0.0
H720 H 0.79885 0.10142 0.84905 0.0
H721 H 0.8444 0.14842 0.80807 0.0
C722 C 0.85774 0.23085 0.82416 0.0
C723 C 0.86243 0.27325 0.83698 0.0
C724 C 0.82662 0.20501 0.84229 0.0
C725 C 0.83288 0.29069 0.86499 0.0
C726 C 0.80171 0.26516 0.88319 0.0
C727 C 0.77319 0.19465 0.89646 0.0
C728 C 0.77345 0.15091 0.88865 0.0
C729 C 0.79958 0.22189 0.87346 0.0
C730 C 0.79767 0.13498 0.85519 0.0
C731 C 0.82412 0.16185 0.83214 0.0
H732 H 0.12174 0.5543 0.08917 0.0
H733 H 0.04047 0.48591 0.17367 0.0
H734 H 0.97876 0.52157 0.14497 0.0
H735 H 0.9505 0.58375 0.10753 0.0
H736 H 0.03319 0.65439 0.02585 0.0
H737 H 0.09104 0.60669 0.04118 0.0
C738 C 0.09031 0.54599 0.09985 0.0
C739 C 0.08545 0.5177 0.13337 0.0
C740 C 0.05511 0.56807 0.08447 0.0
C741 C 0.04474 0.50764 0.14769 0.0
C742 C 0.00948 0.52836 0.13161 0.0
C743 C 0.98072 0.58764 0.09198 0.0
C744 C 0.98774 0.62301 0.06637 0.0
C745 C 0.01451 0.56046 0.10173 0.0
C746 C 0.02719 0.62774 0.04638 0.0
C747 C 0.06044 0.60051 0.05515 0.0
H748 H 0.7217 0.79984 0.43873 0.0
H749 H 0.73026 0.88078 0.33 0.0
H750 H 0.6914 0.82836 0.28821 0.0
H751 H 0.6443 0.76544 0.28731 0.0
H752 H 0.63606 0.68653 0.3974 0.0
H753 H 0.6853 0.73254 0.43448 0.0
C754 C 0.71573 0.80581 0.40564 0.0
C755 C 0.72813 0.84438 0.38756 0.0
C756 C 0.69304 0.77606 0.38241 0.0
C757 C 0.72085 0.85138 0.34459 0.0
C758 C 0.69838 0.82154 0.32087 0.0
C759 C 0.65494 0.75751 0.31873 0.0
C760 C 0.63737 0.72247 0.33959 0.0
C761 C 0.6829 0.78454 0.33999 0.0
C762 C 0.65025 0.7127 0.38056 0.0
C763 C 0.67787 0.73933 0.4019 0.0
H764 H 0.46302 0.35219 0.55715 0.0
H765 H 0.56856 0.41856 0.6109 0.0
H766 H 0.52112 0.47513 0.63475 0.0
H767 H 0.44788 0.49739 0.65193 0.0
H768 H 0.34352 0.43021 0.59724 0.0
H769 H 0.39226 0.38186 0.56198 0.0
C770 C 0.47583 0.37935 0.57358 0.0
C771 C 0.51899 0.38063 0.58354 0.0
C772 C 0.44847 0.41121 0.58725 0.0
C773 C 0.53534 0.41656 0.60357 0.0
C774 C 0.50818 0.44873 0.61732 0.0
C775 C 0.43612 0.47325 0.63074 0.0
C776 C 0.3924 0.46721 0.62678 0.0
C777 C 0.46445 0.44533 0.611 0.0
C778 C 0.3771 0.43572 0.59991 0.0
C779 C 0.40495 0.40778 0.58029 0.0
H780 H 0.20862 0.63131 0.65965 0.0
H781 H 0.2577 0.70351 0.55558 0.0
H782 H 0.22724 0.76785 0.58441 0.0
H783 H 0.17205 0.79923 0.62907 0.0
H784 H 0.12092 0.72715 0.73202 0.0
H785 H 0.1672 0.66804 0.71489 0.0
C786 C 0.21407 0.66147 0.64444 0.0
C787 C 0.23454 0.66271 0.60526 0.0
C788 C 0.19537 0.69849 0.6607 0.0
C789 C 0.24138 0.70187 0.58559 0.0
C790 C 0.2238 0.73871 0.60192 0.0
C791 C 0.17274 0.77145 0.64896 0.0
C792 C 0.14305 0.76724 0.68138 0.0
C793 C 0.19852 0.73695 0.63802 0.0
C794 C 0.14366 0.73085 0.70673 0.0
C795 C 0.16977 0.69682 0.69667 0.0
H796 H 0.45489 0.92377 0.88884 0.0
H797 H 0.52752 0.86532 0.98679 0.0
H798 H 0.58767 0.91037 0.97035 0.0
H799 H 0.62443 0.95285 0.91626 0.0
H800 H 0.55248 0.00778 0.81571 0.0
H801 H 0.48746 0.97939 0.84551 0.0
C802 C 0.4831 0.92262 0.90794 0.0
C803 C 0.48699 0.89124 0.93868 0.0
C804 C 0.51828 0.94755 0.89711 0.0
C805 C 0.52395 0.88947 0.96294 0.0
C806 C 0.55859 0.91485 0.95318 0.0
C807 C 0.59426 0.95993 0.90202 0.0
C808 C 0.59306 0.98169 0.86362 0.0
C809 C 0.55702 0.94203 0.91852 0.0
C810 C 0.55396 0.99056 0.84512 0.0
C811 C 0.51679 0.97415 0.86201 0.0
H812 H 0.88886 0.0319 0.40895 0.0
H813 H 0.94922 0.0068 0.28952 0.0
H814 H 0.01286 0.04201 0.31295 0.0
H815 H 0.04651 0.09172 0.36193 0.0
H816 H 0.9875 0.11773 0.48135 0.0
H817 H 0.92962 0.06968 0.46433 0.0
C818 C 0.91645 0.03281 0.38874 0.0
C819 C 0.9138 0.01738 0.3472 0.0
C820 C 0.95352 0.05367 0.40238 0.0
C821 C 0.95004 0.01894 0.32145 0.0
C822 C 0.98663 0.03924 0.33474 0.0
C823 C 0.02207 0.08517 0.38499 0.0
C824 C 0.02153 0.10782 0.42299 0.0
C825 C 0.98814 0.05842 0.3744 0.0
C826 C 0.98888 0.10008 0.4521 0.0
C827 C 0.9554 0.07304 0.44211 0.0
loop_
_geom_bond_atom_site_label_1
_geom_bond_atom_site_label_2
_geom_bond_distance
_geom_bond_site_symmetry_2
_ccdc_geom_bond_type
O0 Mn1 2.163 . S
O0 C14 1.244 . S
Mn1 O0 2.163 . S
Mn1 O4 2.160 . S
Mn1 O5 2.221 . S
Mn1 O7 2.163 . S
Mn1 O9 2.160 . S
Mn1 O19 2.221 . S
O2 Mn3 2.087 . S
O2 C14 1.256 . S
Mn3 O2 2.087 . S
Mn3 O10 2.089 . S
Mn3 O19 2.290 . S
Mn3 O20 2.251 . S
O4 Mn1 2.160 . S
O4 C15 1.239 . S
O5 Mn1 2.221 . S
O5 Mn6 2.290 . S
O5 C16 1.278 . S
Mn6 O5 2.290 . S
Mn6 O8 2.089 . S
Mn6 O11 2.251 . S
Mn6 O12 2.087 . S
O7 Mn1 2.163 . S
O7 C17 1.244 . S
O8 Mn6 2.089 . S
O8 C15 1.256 . S
O9 Mn1 2.160 . S
O9 C18 1.239 . S
O10 Mn3 2.089 . S
O10 C18 1.256 . S
O11 Mn6 2.251 . S
O11 C16 1.241 . S
O12 Mn6 2.087 . S
O12 C17 1.256 . S
C13 O19 1.278 . S
C13 O20 1.241 . S
C14 O0 1.244 . S
C14 O2 1.256 . S
C15 O4 1.239 . S
C15 O8 1.256 . S
C16 O5 1.278 . S
C16 O11 1.241 . S
C17 O7 1.244 . S
C17 O12 1.256 . S
C18 O9 1.239 . S
C18 O10 1.256 . S
O19 Mn1 2.221 . S
O19 Mn3 2.290 . S
O19 C13 1.278 . S
O20 Mn3 2.251 . S
O20 C13 1.241 . S
O21 Mn22 2.163 . S
O21 C35 1.244 . S
Mn22 O21 2.163 . S
Mn22 O25 2.160 1_455 S
Mn22 O26 2.221 . S
Mn22 O28 2.163 . S
Mn22 O30 2.160 . S
Mn22 O40 2.221 1_455 S
O23 Mn24 2.087 . S
O23 C35 1.256 . S
Mn24 O23 2.087 . S
Mn24 O31 2.089 . S
Mn24 O40 2.290 1_455 S
Mn24 O41 2.251 1_455 S
O25 Mn22 2.160 1_655 S
O25 C36 1.239 . S
O26 Mn22 2.221 . S
O26 Mn27 2.290 . S
O26 C37 1.278 . S
Mn27 O26 2.290 . S
Mn27 O29 2.089 . S
Mn27 O32 2.251 . S
Mn27 O33 2.087 . S
O28 Mn22 2.163 . S
O28 C38 1.244 . S
O29 Mn27 2.089 . S
O29 C36 1.256 1_455 S
O30 Mn22 2.160 . S
O30 C39 1.239 . S
O31 Mn24 2.089 . S
O31 C39 1.256 . S
O32 Mn27 2.251 . S
O32 C37 1.241 . S
O33 Mn27 2.087 . S
O33 C38 1.256 . S
C34 O40 1.278 . S
C34 O41 1.241 . S
C35 O21 1.244 . S
C35 O23 1.256 . S
C36 O25 1.239 . S
C36 O29 1.256 1_655 S
C37 O26 1.278 . S
C37 O32 1.241 . S
C38 O28 1.244 . S
C38 O33 1.256 . S
C39 O30 1.239 . S
C39 O31 1.256 . S
O40 Mn22 2.221 1_655 S
O40 Mn24 2.290 1_655 S
O40 C34 1.278 . S
O41 Mn24 2.251 1_655 S
O41 C34 1.241 . S
O42 Mn43 2.163 . S
O42 C56 1.244 . S
Mn43 O42 2.163 . S
Mn43 O46 2.160 1_556 S
Mn43 O47 2.221 . S
Mn43 O49 2.163 . S
Mn43 O51 2.160 . S
Mn43 O61 2.221 1_556 S
O44 Mn45 2.087 . S
O44 C56 1.256 . S
Mn45 O44 2.087 . S
Mn45 O52 2.089 . S
Mn45 O61 2.290 1_556 S
Mn45 O62 2.251 1_556 S
O46 Mn43 2.160 1_554 S
O46 C57 1.239 . S
O47 Mn43 2.221 . S
O47 Mn48 2.290 . S
O47 C58 1.278 . S
Mn48 O47 2.290 . S
Mn48 O50 2.089 . S
Mn48 O53 2.251 . S
Mn48 O54 2.087 . S
O49 Mn43 2.163 . S
O49 C59 1.244 . S
O50 Mn48 2.089 . S
O50 C57 1.256 1_556 S
O51 Mn43 2.160 . S
O51 C60 1.239 . S
O52 Mn45 2.089 . S
O52 C60 1.256 . S
O53 Mn48 2.251 . S
O53 C58 1.241 . S
O54 Mn48 2.087 . S
O54 C59 1.256 . S
C55 O61 1.278 . S
C55 O62 1.241 . S
C56 O42 1.244 . S
C56 O44 1.256 . S
C57 O46 1.239 . S
C57 O50 1.256 1_554 S
C58 O47 1.278 . S
C58 O53 1.241 . S
C59 O49 1.244 . S
C59 O54 1.256 . S
C60 O51 1.239 . S
C60 O52 1.256 . S
O61 Mn43 2.221 1_554 S
O61 Mn45 2.290 1_554 S
O61 C55 1.278 . S
O62 Mn45 2.251 1_554 S
O62 C55 1.241 . S
O63 Mn64 2.163 . S
O63 C77 1.244 . S
Mn64 O63 2.163 . S
Mn64 O67 2.160 . S
Mn64 O68 2.221 . S
Mn64 O70 2.163 . S
Mn64 O72 2.160 . S
Mn64 O82 2.221 . S
O65 Mn66 2.087 . S
O65 C77 1.256 . S
Mn66 O65 2.087 . S
Mn66 O73 2.089 . S
Mn66 O82 2.290 . S
Mn66 O83 2.251 . S
O67 Mn64 2.160 . S
O67 C78 1.239 . S
O68 Mn64 2.221 . S
O68 Mn69 2.290 . S
O68 C79 1.278 . S
Mn69 O68 2.290 . S
Mn69 O71 2.089 . S
Mn69 O74 2.251 . S
Mn69 O75 2.087 . S
O70 Mn64 2.163 . S
O70 C80 1.244 . S
O71 Mn69 2.089 . S
O71 C78 1.256 . S
O72 Mn64 2.160 . S
O72 C81 1.239 . S
O73 Mn66 2.089 . S
O73 C81 1.256 . S
O74 Mn69 2.251 . S
O74 C79 1.241 . S
O75 Mn69 2.087 . S
O75 C80 1.256 . S
C76 O82 1.278 . S
C76 O83 1.241 . S
C77 O63 1.244 . S
C77 O65 1.256 . S
C78 O67 1.239 . S
C78 O71 1.256 . S
C79 O68 1.278 . S
C79 O74 1.241 . S
C80 O70 1.244 . S
C80 O75 1.256 . S
C81 O72 1.239 . S
C81 O73 1.256 . S
O82 Mn64 2.221 . S
O82 Mn66 2.290 . S
O82 C76 1.278 . S
O83 Mn66 2.251 . S
O83 C76 1.241 . S
O84 Mn85 2.163 . S
O84 C98 1.244 . S
Mn85 O84 2.163 . S
Mn85 O88 2.160 . S
Mn85 O89 2.221 . S
Mn85 O91 2.163 . S
Mn85 O93 2.160 . S
Mn85 O103 2.221 . S
O86 Mn87 2.087 . S
O86 C98 1.256 . S
Mn87 O86 2.087 . S
Mn87 O94 2.089 . S
Mn87 O103 2.290 . S
Mn87 O104 2.251 . S
O88 Mn85 2.160 . S
O88 C99 1.239 . S
O89 Mn85 2.221 . S
O89 Mn90 2.290 . S
O89 C100 1.278 . S
Mn90 O89 2.290 . S
Mn90 O92 2.089 . S
Mn90 O95 2.251 . S
Mn90 O96 2.087 . S
O91 Mn85 2.163 . S
O91 C101 1.244 . S
O92 Mn90 2.089 . S
O92 C99 1.256 . S
O93 Mn85 2.160 . S
O93 C102 1.239 . S
O94 Mn87 2.089 . S
O94 C102 1.256 . S
O95 Mn90 2.251 . S
O95 C100 1.241 . S
O96 Mn90 2.087 . S
O96 C101 1.256 . S
C97 O103 1.278 . S
C97 O104 1.241 . S
C98 O84 1.244 . S
C98 O86 1.256 . S
C99 O88 1.239 . S
C99 O92 1.256 . S
C100 O89 1.278 . S
C100 O95 1.241 . S
C101 O91 1.244 . S
C101 O96 1.256 . S
C102 O93 1.239 . S
C102 O94 1.256 . S
O103 Mn85 2.221 . S
O103 Mn87 2.290 . S
O103 C97 1.278 . S
O104 Mn87 2.251 . S
O104 C97 1.241 . S
O105 Mn106 2.163 . S
O105 C119 1.244 . S
Mn106 O105 2.163 . S
Mn106 O109 2.160 . S
Mn106 O110 2.221 1_655 S
Mn106 O112 2.163 . S
Mn106 O114 2.160 1_655 S
Mn106 O124 2.221 . S
O107 Mn108 2.087 . S
O107 C119 1.256 . S
Mn108 O107 2.087 . S
Mn108 O115 2.089 . S
Mn108 O124 2.290 . S
Mn108 O125 2.251 . S
O109 Mn106 2.160 . S
O109 C120 1.239 . S
O110 Mn106 2.221 1_455 S
O110 Mn111 2.290 1_455 S
O110 C121 1.278 . S
Mn111 O110 2.290 1_655 S
Mn111 O113 2.089 . S
Mn111 O116 2.251 1_655 S
Mn111 O117 2.087 . S
O112 Mn106 2.163 . S
O112 C122 1.244 . S
O113 Mn111 2.089 . S
O113 C120 1.256 . S
O114 Mn106 2.160 1_455 S
O114 C123 1.239 . S
O115 Mn108 2.089 . S
O115 C123 1.256 1_655 S
O116 Mn111 2.251 1_455 S
O116 C121 1.241 . S
O117 Mn111 2.087 . S
O117 C122 1.256 . S
C118 O124 1.278 . S
C118 O125 1.241 . S
C119 O105 1.244 . S
C119 O107 1.256 . S
C120 O109 1.239 . S
C120 O113 1.256 . S
C121 O110 1.278 . S
C121 O116 1.241 . S
C122 O112 1.244 . S
C122 O117 1.256 . S
C123 O114 1.239 . S
C123 O115 1.256 1_455 S
O124 Mn106 2.221 . S
O124 Mn108 2.290 . S
O124 C118 1.278 . S
O125 Mn108 2.251 . S
O125 C118 1.241 . S
O126 Mn127 2.163 . S
O126 C140 1.244 . S
Mn127 O126 2.163 . S
Mn127 O130 2.160 . S
Mn127 O131 2.221 1_554 S
Mn127 O133 2.163 . S
Mn127 O135 2.160 1_554 S
Mn127 O145 2.221 . S
O128 Mn129 2.087 . S
O128 C140 1.256 . S
Mn129 O128 2.087 . S
Mn129 O136 2.089 . S
Mn129 O145 2.290 . S
Mn129 O146 2.251 . S
O130 Mn127 2.160 . S
O130 C141 1.239 . S
O131 Mn127 2.221 1_556 S
O131 Mn132 2.290 1_556 S
O131 C142 1.278 . S
Mn132 O131 2.290 1_554 S
Mn132 O134 2.089 . S
Mn132 O137 2.251 1_554 S
Mn132 O138 2.087 . S
O133 Mn127 2.163 . S
O133 C143 1.244 . S
O134 Mn132 2.089 . S
O134 C141 1.256 . S
O135 Mn127 2.160 1_556 S
O135 C144 1.239 . S
O136 Mn129 2.089 . S
O136 C144 1.256 1_554 S
O137 Mn132 2.251 1_556 S
O137 C142 1.241 . S
O138 Mn132 2.087 . S
O138 C143 1.256 . S
C139 O145 1.278 . S
C139 O146 1.241 . S
C140 O126 1.244 . S
C140 O128 1.256 . S
C141 O130 1.239 . S
C141 O134 1.256 . S
C142 O131 1.278 . S
C142 O137 1.241 . S
C143 O133 1.244 . S
C143 O138 1.256 . S
C144 O135 1.239 . S
C144 O136 1.256 1_556 S
O145 Mn127 2.221 . S
O145 Mn129 2.290 . S
O145 C139 1.278 . S
O146 Mn129 2.251 . S
O146 C139 1.241 . S
O147 Mn148 2.163 . S
O147 C161 1.244 . S
Mn148 O147 2.163 . S
Mn148 O151 2.160 . S
Mn148 O152 2.221 . S
Mn148 O154 2.163 . S
Mn148 O156 2.160 . S
Mn148 O166 2.221 . S
O149 Mn150 2.087 . S
O149 C161 1.256 . S
Mn150 O149 2.087 . S
Mn150 O157 2.089 . S
Mn150 O166 2.290 . S
Mn150 O167 2.251 . S
O151 Mn148 2.160 . S
O151 C162 1.239 . S
O152 Mn148 2.221 . S
O152 Mn153 2.290 . S
O152 C163 1.278 . S
Mn153 O152 2.290 . S
Mn153 O155 2.089 . S
Mn153 O158 2.251 . S
Mn153 O159 2.087 . S
O154 Mn148 2.163 . S
O154 C164 1.244 . S
O155 Mn153 2.089 . S
O155 C162 1.256 . S
O156 Mn148 2.160 . S
O156 C165 1.239 . S
O157 Mn150 2.089 . S
O157 C165 1.256 . S
O158 Mn153 2.251 . S
O158 C163 1.241 . S
O159 Mn153 2.087 . S
O159 C164 1.256 . S
C160 O166 1.278 . S
C160 O167 1.241 . S
C161 O147 1.244 . S
C161 O149 1.256 . S
C162 O151 1.239 . S
C162 O155 1.256 . S
C163 O152 1.278 . S
C163 O158 1.241 . S
C164 O154 1.244 . S
C164 O159 1.256 . S
C165 O156 1.239 . S
C165 O157 1.256 . S
O166 Mn148 2.221 . S
O166 Mn150 2.290 . S
O166 C160 1.278 . S
O167 Mn150 2.251 . S
O167 C160 1.241 . S
O168 Mn169 2.163 . S
O168 C182 1.244 . S
Mn169 O168 2.163 . S
Mn169 O172 2.160 . S
Mn169 O173 2.221 . S
Mn169 O175 2.163 . S
Mn169 O177 2.160 . S
Mn169 O187 2.221 . S
O170 Mn171 2.087 . S
O170 C182 1.256 . S
Mn171 O170 2.087 . S
Mn171 O178 2.089 . S
Mn171 O187 2.290 . S
Mn171 O188 2.251 . S
O172 Mn169 2.160 . S
O172 C183 1.239 . S
O173 Mn169 2.221 . S
O173 Mn174 2.290 . S
O173 C184 1.278 . S
Mn174 O173 2.290 . S
Mn174 O176 2.089 . S
Mn174 O179 2.251 . S
Mn174 O180 2.087 . S
O175 Mn169 2.163 . S
O175 C185 1.244 . S
O176 Mn174 2.089 . S
O176 C183 1.256 . S
O177 Mn169 2.160 . S
O177 C186 1.239 . S
O178 Mn171 2.089 . S
O178 C186 1.256 . S
O179 Mn174 2.251 . S
O179 C184 1.241 . S
O180 Mn174 2.087 . S
O180 C185 1.256 . S
C181 O187 1.278 . S
C181 O188 1.241 . S
C182 O168 1.244 . S
C182 O170 1.256 . S
C183 O172 1.239 . S
C183 O176 1.256 . S
C184 O173 1.278 . S
C184 O179 1.241 . S
C185 O175 1.244 . S
C185 O180 1.256 . S
C186 O177 1.239 . S
C186 O178 1.256 . S
O187 Mn169 2.221 . S
O187 Mn171 2.290 . S
O187 C181 1.278 . S
O188 Mn171 2.251 . S
O188 C181 1.241 . S
O189 Mn190 2.163 . S
O189 C203 1.244 . S
Mn190 O189 2.163 . S
Mn190 O193 2.160 1_545 S
Mn190 O194 2.221 . S
Mn190 O196 2.163 . S
Mn190 O198 2.160 . S
Mn190 O208 2.221 1_545 S
O191 Mn192 2.087 . S
O191 C203 1.256 . S
Mn192 O191 2.087 . S
Mn192 O199 2.089 . S
Mn192 O208 2.290 1_545 S
Mn192 O209 2.251 1_545 S
O193 Mn190 2.160 1_565 S
O193 C204 1.239 . S
O194 Mn190 2.221 . S
O194 Mn195 2.290 . S
O194 C205 1.278 . S
Mn195 O194 2.290 . S
Mn195 O197 2.089 . S
Mn195 O200 2.251 . S
Mn195 O201 2.087 . S
O196 Mn190 2.163 . S
O196 C206 1.244 . S
O197 Mn195 2.089 . S
O197 C204 1.256 1_545 S
O198 Mn190 2.160 . S
O198 C207 1.239 . S
O199 Mn192 2.089 . S
O199 C207 1.256 . S
O200 Mn195 2.251 . S
O200 C205 1.241 . S
O201 Mn195 2.087 . S
O201 C206 1.256 . S
C202 O208 1.278 . S
C202 O209 1.241 . S
C203 O189 1.244 . S
C203 O191 1.256 . S
C204 O193 1.239 . S
C204 O197 1.256 1_565 S
C205 O194 1.278 . S
C205 O200 1.241 . S
C206 O196 1.244 . S
C206 O201 1.256 . S
C207 O198 1.239 . S
C207 O199 1.256 . S
O208 Mn190 2.221 1_565 S
O208 Mn192 2.290 1_565 S
O208 C202 1.278 . S
O209 Mn192 2.251 1_565 S
O209 C202 1.241 . S
O210 Mn211 2.163 . S
O210 C224 1.244 . S
Mn211 O210 2.163 . S
Mn211 O214 2.160 1_565 S
Mn211 O215 2.221 . S
Mn211 O217 2.163 . S
Mn211 O219 2.160 . S
Mn211 O229 2.221 1_565 S
O212 Mn213 2.087 . S
O212 C224 1.256 . S
Mn213 O212 2.087 . S
Mn213 O220 2.089 . S
Mn213 O229 2.290 1_565 S
Mn213 O230 2.251 1_565 S
O214 Mn211 2.160 1_545 S
O214 C225 1.239 . S
O215 Mn211 2.221 . S
O215 Mn216 2.290 . S
O215 C226 1.278 . S
Mn216 O215 2.290 . S
Mn216 O218 2.089 . S
Mn216 O221 2.251 . S
Mn216 O222 2.087 . S
O217 Mn211 2.163 . S
O217 C227 1.244 . S
O218 Mn216 2.089 . S
O218 C225 1.256 1_565 S
O219 Mn211 2.160 . S
O219 C228 1.239 . S
O220 Mn213 2.089 . S
O220 C228 1.256 . S
O221 Mn216 2.251 . S
O221 C226 1.241 . S
O222 Mn216 2.087 . S
O222 C227 1.256 . S
C223 O229 1.278 . S
C223 O230 1.241 . S
C224 O210 1.244 . S
C224 O212 1.256 . S
C225 O214 1.239 . S
C225 O218 1.256 1_545 S
C226 O215 1.278 . S
C226 O221 1.241 . S
C227 O217 1.244 . S
C227 O222 1.256 . S
C228 O219 1.239 . S
C228 O220 1.256 . S
O229 Mn211 2.221 1_545 S
O229 Mn213 2.290 1_545 S
O229 C223 1.278 . S
O230 Mn213 2.251 1_545 S
O230 C223 1.241 . S
O231 Mn232 2.163 . S
O231 C245 1.244 . S
Mn232 O231 2.163 . S
Mn232 O235 2.160 . S
Mn232 O236 2.221 . S
Mn232 O238 2.163 . S
Mn232 O240 2.160 . S
Mn232 O250 2.221 . S
O233 Mn234 2.087 . S
O233 C245 1.256 . S
Mn234 O233 2.087 . S
Mn234 O241 2.089 . S
Mn234 O250 2.290 . S
Mn234 O251 2.251 . S
O235 Mn232 2.160 . S
O235 C246 1.239 . S
O236 Mn232 2.221 . S
O236 Mn237 2.290 . S
O236 C247 1.278 . S
Mn237 O236 2.290 . S
Mn237 O239 2.089 . S
Mn237 O242 2.251 . S
Mn237 O243 2.087 . S
O238 Mn232 2.163 . S
O238 C248 1.244 . S
O239 Mn237 2.089 . S
O239 C246 1.256 . S
O240 Mn232 2.160 . S
O240 C249 1.239 . S
O241 Mn234 2.089 . S
O241 C249 1.256 . S
O242 Mn237 2.251 . S
O242 C247 1.241 . S
O243 Mn237 2.087 . S
O243 C248 1.256 . S
C244 O250 1.278 . S
C244 O251 1.241 . S
C245 O231 1.244 . S
C245 O233 1.256 . S
C246 O235 1.239 . S
C246 O239 1.256 . S
C247 O236 1.278 . S
C247 O242 1.241 . S
C248 O238 1.244 . S
C248 O243 1.256 . S
C249 O240 1.239 . S
C249 O241 1.256 . S
O250 Mn232 2.221 . S
O250 Mn234 2.290 . S
O250 C244 1.278 . S
O251 Mn234 2.251 . S
O251 C244 1.241 . S
H252 C258 0.930 . S
H253 C261 0.930 . S
H254 C262 0.930 . S
H255 C263 0.930 . S
H256 C266 0.930 . S
H257 C267 0.930 . S
C258 H252 0.930 . S
C258 C259 1.355 . S
C258 C260 1.415 . S
C259 C258 1.355 . S
C259 C261 1.419 . S
C260 C258 1.415 . S
C260 C265 1.425 . S
C260 C267 1.409 . S
C261 H253 0.930 . S
C261 C259 1.419 . S
C261 C262 1.362 . S
C262 H254 0.930 . S
C262 C261 1.362 . S
C262 C265 1.409 . S
C263 H255 0.930 . S
C263 C264 1.355 . S
C263 C265 1.415 . S
C264 C263 1.355 . S
C264 C266 1.419 . S
C265 C260 1.425 . S
C265 C262 1.409 . S
C265 C263 1.415 . S
C266 H256 0.930 . S
C266 C264 1.419 . S
C266 C267 1.362 . S
C267 H257 0.930 . S
C267 C260 1.409 . S
C267 C266 1.362 . S
H268 C274 0.930 . S
H269 C277 0.930 . S
H270 C278 0.930 . S
H271 C279 0.930 . S
H272 C282 0.930 . S
H273 C283 0.930 . S
C274 H268 0.930 . S
C274 C275 1.355 1_565 S
C274 C276 1.415 . S
C275 C274 1.355 1_545 S
C275 C277 1.419 . S
C276 C274 1.415 . S
C276 C281 1.425 . S
C276 C283 1.409 . S
C277 H269 0.930 . S
C277 C275 1.419 . S
C277 C278 1.362 . S
C278 H270 0.930 . S
C278 C277 1.362 . S
C278 C281 1.409 1_545 S
C279 H271 0.930 . S
C279 C280 1.355 . S
C279 C281 1.415 . S
C280 C279 1.355 . S
C280 C282 1.419 . S
C281 C276 1.425 . S
C281 C278 1.409 1_565 S
C281 C279 1.415 . S
C282 H272 0.930 . S
C282 C280 1.419 . S
C282 C283 1.362 . S
C283 H273 0.930 . S
C283 C276 1.409 . S
C283 C282 1.362 . S
H284 C290 0.930 . S
H285 C293 0.930 . S
H286 C294 0.930 . S
H287 C295 0.930 1_556 S
H288 C298 0.930 . S
H289 C299 0.930 . S
C290 H284 0.930 . S
C290 C291 1.355 1_554 S
C290 C292 1.415 . S
C291 C290 1.355 1_556 S
C291 C293 1.419 . S
C292 C290 1.415 . S
C292 C297 1.425 . S
C292 C299 1.409 . S
C293 H285 0.930 . S
C293 C291 1.419 . S
C293 C294 1.362 . S
C294 H286 0.930 . S
C294 C293 1.362 . S
C294 C297 1.409 1_556 S
C295 H287 0.930 1_554 S
C295 C296 1.355 . S
C295 C297 1.415 . S
C296 C295 1.355 . S
C296 C298 1.419 . S
C297 C292 1.425 . S
C297 C294 1.409 1_554 S
C297 C295 1.415 . S
C298 H288 0.930 . S
C298 C296 1.419 . S
C298 C299 1.362 . S
C299 H289 0.930 . S
C299 C292 1.409 . S
C299 C298 1.362 . S
H300 C306 0.930 . S
H301 C309 0.930 . S
H302 C310 0.930 . S
H303 C311 0.930 . S
H304 C314 0.930 . S
H305 C315 0.930 . S
C306 H300 0.930 . S
C306 C307 1.355 1_565 S
C306 C308 1.415 . S
C307 C306 1.355 1_545 S
C307 C309 1.419 . S
C308 C306 1.415 . S
C308 C313 1.425 1_565 S
C308 C315 1.409 . S
C309 H301 0.930 . S
C309 C307 1.419 . S
C309 C310 1.362 . S
C310 H302 0.930 . S
C310 C309 1.362 . S
C310 C313 1.409 . S
C311 H303 0.930 . S
C311 C312 1.355 1_545 S
C311 C313 1.415 . S
C312 C311 1.355 1_565 S
C312 C314 1.419 . S
C313 C308 1.425 1_545 S
C313 C310 1.409 . S
C313 C311 1.415 . S
C314 H304 0.930 . S
C314 C312 1.419 . S
C314 C315 1.362 . S
C315 H305 0.930 . S
C315 C308 1.409 . S
C315 C314 1.362 . S
H316 C322 0.930 . S
H317 C325 0.930 . S
H318 C326 0.930 . S
H319 C327 0.930 . S
H320 C330 0.930 . S
H321 C331 0.930 . S
C322 H316 0.930 . S
C322 C323 1.355 . S
C322 C324 1.415 . S
C323 C322 1.355 . S
C323 C325 1.419 . S
C324 C322 1.415 . S
C324 C329 1.425 . S
C324 C331 1.409 . S
C325 H317 0.930 . S
C325 C323 1.419 . S
C325 C326 1.362 . S
C326 H318 0.930 . S
C326 C325 1.362 . S
C326 C329 1.409 . S
C327 H319 0.930 . S
C327 C328 1.355 . S
C327 C329 1.415 . S
C328 C327 1.355 . S
C328 C330 1.419 . S
C329 C324 1.425 . S
C329 C326 1.409 . S
C329 C327 1.415 . S
C330 H320 0.930 . S
C330 C328 1.419 . S
C330 C331 1.362 . S
C331 H321 0.930 . S
C331 C324 1.409 . S
C331 C330 1.362 . S
H332 C338 0.930 . S
H333 C341 0.930 . S
H334 C342 0.930 . S
H335 C343 0.930 . S
H336 C346 0.930 . S
H337 C347 0.930 . S
C338 H332 0.930 . S
C338 C339 1.355 . S
C338 C340 1.415 . S
C339 C338 1.355 . S
C339 C341 1.419 . S
C340 C338 1.415 . S
C340 C345 1.425 . S
C340 C347 1.409 . S
C341 H333 0.930 . S
C341 C339 1.419 . S
C341 C342 1.362 . S
C342 H334 0.930 . S
C342 C341 1.362 . S
C342 C345 1.409 . S
C343 H335 0.930 . S
C343 C344 1.355 . S
C343 C345 1.415 . S
C344 C343 1.355 . S
C344 C346 1.419 . S
C345 C340 1.425 . S
C345 C342 1.409 . S
C345 C343 1.415 . S
C346 H336 0.930 . S
C346 C344 1.419 . S
C346 C347 1.362 . S
C347 H337 0.930 . S
C347 C340 1.409 . S
C347 C346 1.362 . S
H348 C354 0.930 . S
H349 C357 0.930 . S
H350 C358 0.930 . S
H351 C359 0.930 . S
H352 C362 0.930 . S
H353 C363 0.930 . S
C354 H348 0.930 . S
C354 C355 1.355 . S
C354 C356 1.415 . S
C355 C354 1.355 . S
C355 C357 1.419 1_556 S
C356 C354 1.415 . S
C356 C361 1.425 1_556 S
C356 C363 1.409 . S
C357 H349 0.930 . S
C357 C355 1.419 1_554 S
C357 C358 1.362 . S
C358 H350 0.930 . S
C358 C357 1.362 . S
C358 C361 1.409 . S
C359 H351 0.930 . S
C359 C360 1.352 1_554 S
C359 C361 1.415 . S
C360 C359 1.352 1_556 S
C360 C362 1.424 . S
C361 C356 1.425 1_554 S
C361 C358 1.409 . S
C361 C359 1.415 . S
C362 H352 0.930 . S
C362 C360 1.424 . S
C362 C363 1.362 . S
C363 H353 0.930 . S
C363 C356 1.409 . S
C363 C362 1.362 . S
H364 C370 0.930 . S
H365 C373 0.930 . S
H366 C374 0.930 . S
H367 C375 0.930 . S
H368 C378 0.930 . S
H369 C379 0.930 . S
C370 H364 0.930 . S
C370 C371 1.355 . S
C370 C372 1.415 . S
C371 C370 1.355 . S
C371 C373 1.419 . S
C372 C370 1.415 . S
C372 C377 1.425 . S
C372 C379 1.409 . S
C373 H365 0.930 . S
C373 C371 1.419 . S
C373 C374 1.362 . S
C374 H366 0.930 . S
C374 C373 1.362 . S
C374 C377 1.409 . S
C375 H367 0.930 . S
C375 C376 1.355 . S
C375 C377 1.415 . S
C376 C375 1.355 . S
C376 C378 1.419 . S
C377 C372 1.425 . S
C377 C374 1.409 . S
C377 C375 1.415 . S
C378 H368 0.930 . S
C378 C376 1.419 . S
C378 C379 1.362 . S
C379 H369 0.930 . S
C379 C372 1.409 . S
C379 C378 1.362 . S
H380 C386 0.930 . S
H381 C389 0.930 . S
H382 C390 0.930 . S
H383 C391 0.930 . S
H384 C394 0.930 . S
H385 C395 0.930 . S
C386 H380 0.930 . S
C386 C387 1.355 . S
C386 C388 1.415 . S
C387 C386 1.355 . S
C387 C389 1.419 . S
C388 C386 1.415 . S
C388 C393 1.425 . S
C388 C395 1.409 . S
C389 H381 0.930 . S
C389 C387 1.419 . S
C389 C390 1.362 . S
C390 H382 0.930 . S
C390 C389 1.362 . S
C390 C393 1.409 . S
C391 H383 0.930 . S
C391 C392 1.355 . S
C391 C393 1.415 . S
C392 C391 1.355 . S
C392 C394 1.419 . S
C393 C388 1.425 . S
C393 C390 1.409 . S
C393 C391 1.415 . S
C394 H384 0.930 . S
C394 C392 1.419 . S
C394 C395 1.362 . S
C395 H385 0.930 . S
C395 C388 1.409 . S
C395 C394 1.362 . S
H396 C402 0.930 1_655 S
H397 C405 0.930 . S
H398 C406 0.930 . S
H399 C407 0.930 . S
H400 C410 0.930 . S
H401 C411 0.930 . S
C402 H396 0.930 1_455 S
C402 C403 1.355 . S
C402 C404 1.414 1_455 S
C403 C402 1.355 . S
C403 C405 1.419 . S
C404 C402 1.414 1_655 S
C404 C409 1.412 1_655 S
C404 C411 1.423 . S
C405 H397 0.930 . S
C405 C403 1.419 . S
C405 C406 1.362 . S
C406 H398 0.930 . S
C406 C405 1.362 . S
C406 C409 1.409 . S
C407 H399 0.930 . S
C407 C408 1.355 1_455 S
C407 C409 1.415 . S
C408 C407 1.355 1_655 S
C408 C410 1.419 . S
C409 C404 1.412 1_455 S
C409 C406 1.409 . S
C409 C407 1.415 . S
C410 H400 0.930 . S
C410 C408 1.419 . S
C410 C411 1.362 . S
C411 H401 0.930 . S
C411 C404 1.423 . S
C411 C410 1.362 . S
H412 C418 0.930 . S
H413 C421 0.930 . S
H414 C422 0.930 . S
H415 C423 0.930 1_455 S
H416 C426 0.930 . S
H417 C427 0.930 . S
C418 H412 0.930 . S
C418 C419 1.355 1_655 S
C418 C420 1.415 . S
C419 C418 1.355 1_455 S
C419 C421 1.419 . S
C420 C418 1.415 . S
C420 C425 1.424 . S
C420 C427 1.409 . S
C421 H413 0.930 . S
C421 C419 1.419 . S
C421 C422 1.362 . S
C422 H414 0.930 . S
C422 C421 1.362 . S
C422 C425 1.410 1_455 S
C423 H415 0.930 1_655 S
C423 C424 1.355 . S
C423 C425 1.415 . S
C424 C423 1.355 . S
C424 C426 1.419 . S
C425 C420 1.424 . S
C425 C422 1.410 1_655 S
C425 C423 1.415 . S
C426 H416 0.930 . S
C426 C424 1.419 . S
C426 C427 1.362 . S
C427 H417 0.930 . S
C427 C420 1.409 . S
C427 C426 1.362 . S
H428 C434 0.930 . S
H429 C437 0.930 . S
H430 C438 0.930 . S
H431 C439 0.930 . S
H432 C442 0.930 . S
H433 C443 0.930 . S
C434 H428 0.930 . S
C434 C435 1.355 . S
C434 C436 1.415 . S
C435 C434 1.355 . S
C435 C437 1.419 . S
C436 C434 1.415 . S
C436 C441 1.425 . S
C436 C443 1.409 . S
C437 H429 0.930 . S
C437 C435 1.419 . S
C437 C438 1.362 . S
C438 H430 0.930 . S
C438 C437 1.362 . S
C438 C441 1.409 . S
C439 H431 0.930 . S
C439 C440 1.355 . S
C439 C441 1.415 . S
C440 C439 1.355 . S
C440 C442 1.419 . S
C441 C436 1.425 . S
C441 C438 1.409 . S
C441 C439 1.415 . S
C442 H432 0.930 . S
C442 C440 1.419 . S
C442 C443 1.362 . S
C443 H433 0.930 . S
C443 C436 1.409 . S
C443 C442 1.362 . S
H444 C450 0.930 . S
H445 C453 0.930 . S
H446 C454 0.930 . S
H447 C455 0.930 . S
H448 C458 0.930 . S
H449 C459 0.930 . S
C450 H444 0.930 . S
C450 C451 1.355 . S
C450 C452 1.415 . S
C451 C450 1.355 . S
C451 C453 1.419 . S
C452 C450 1.415 . S
C452 C457 1.425 . S
C452 C459 1.409 . S
C453 H445 0.930 . S
C453 C451 1.419 . S
C453 C454 1.362 . S
C454 H446 0.930 . S
C454 C453 1.362 . S
C454 C457 1.409 . S
C455 H447 0.930 . S
C455 C456 1.355 . S
C455 C457 1.415 . S
C456 C455 1.355 . S
C456 C458 1.419 . S
C457 C452 1.425 . S
C457 C454 1.409 . S
C457 C455 1.415 . S
C458 H448 0.930 . S
C458 C456 1.419 . S
C458 C459 1.362 . S
C459 H449 0.930 . S
C459 C452 1.409 . S
C459 C458 1.362 . S
H460 C466 0.930 1_455 S
H461 C469 0.930 . S
H462 C470 0.930 . S
H463 C471 0.930 . S
H464 C474 0.930 . S
H465 C475 0.930 . S
C466 H460 0.930 1_655 S
C466 C467 1.355 . S
C466 C468 1.415 . S
C467 C466 1.355 . S
C467 C469 1.419 . S
C468 C466 1.415 . S
C468 C473 1.425 . S
C468 C475 1.409 . S
C469 H461 0.930 . S
C469 C467 1.419 . S
C469 C470 1.362 . S
C470 H462 0.930 . S
C470 C469 1.362 . S
C470 C473 1.409 . S
C471 H463 0.930 . S
C471 C472 1.355 . S
C471 C473 1.415 . S
C472 C471 1.355 . S
C472 C474 1.419 . S
C473 C468 1.425 . S
C473 C470 1.409 . S
C473 C471 1.415 . S
C474 H464 0.930 . S
C474 C472 1.419 . S
C474 C475 1.362 . S
C475 H465 0.930 . S
C475 C468 1.409 . S
C475 C474 1.362 . S
H476 C482 0.930 . S
H477 C485 0.930 . S
H478 C486 0.930 . S
H479 C487 0.930 . S
H480 C490 0.930 . S
H481 C491 0.930 . S
C482 H476 0.930 . S
C482 C483 1.355 . S
C482 C484 1.415 . S
C483 C482 1.355 . S
C483 C485 1.419 . S
C484 C482 1.415 . S
C484 C489 1.425 . S
C484 C491 1.409 . S
C485 H477 0.930 . S
C485 C483 1.419 . S
C485 C486 1.362 . S
C486 H478 0.930 . S
C486 C485 1.362 . S
C486 C489 1.409 . S
C487 H479 0.930 . S
C487 C488 1.355 . S
C487 C489 1.415 . S
C488 C487 1.355 . S
C488 C490 1.419 . S
C489 C484 1.425 . S
C489 C486 1.409 . S
C489 C487 1.415 . S
C490 H480 0.930 . S
C490 C488 1.419 . S
C490 C491 1.362 . S
C491 H481 0.930 . S
C491 C484 1.409 . S
C491 C490 1.362 . S
H492 C498 0.930 . S
H493 C501 0.930 . S
H494 C502 0.930 . S
H495 C503 0.930 . S
H496 C506 0.927 1_556 S
H497 C507 0.930 . S
C498 H492 0.930 . S
C498 C499 1.355 . S
C498 C500 1.415 . S
C499 C498 1.355 . S
C499 C501 1.419 . S
C500 C498 1.415 . S
C500 C505 1.425 . S
C500 C507 1.409 . S
C501 H493 0.930 . S
C501 C499 1.419 . S
C501 C502 1.362 . S
C502 H494 0.930 . S
C502 C501 1.362 . S
C502 C505 1.409 . S
C503 H495 0.930 . S
C503 C504 1.355 . S
C503 C505 1.415 1_556 S
C504 C503 1.355 . S
C504 C506 1.419 1_556 S
C505 C500 1.425 . S
C505 C502 1.409 . S
C505 C503 1.415 1_554 S
C506 H496 0.927 1_554 S
C506 C504 1.419 1_554 S
C506 C507 1.362 . S
C507 H497 0.930 . S
C507 C500 1.409 . S
C507 C506 1.362 . S
H508 C514 0.930 . S
H509 C517 0.930 . S
H510 C518 0.930 . S
H511 C519 0.930 . S
H512 C522 0.930 . S
H513 C523 0.930 . S
C514 H508 0.930 . S
C514 C515 1.355 . S
C514 C516 1.415 . S
C515 C514 1.355 . S
C515 C517 1.419 . S
C516 C514 1.415 . S
C516 C521 1.425 . S
C516 C523 1.409 . S
C517 H509 0.930 . S
C517 C515 1.419 . S
C517 C518 1.362 . S
C518 H510 0.930 . S
C518 C517 1.362 . S
C518 C521 1.409 . S
C519 H511 0.930 . S
C519 C520 1.355 . S
C519 C521 1.415 . S
C520 C519 1.355 . S
C520 C522 1.419 . S
C521 C516 1.425 . S
C521 C518 1.409 . S
C521 C519 1.415 . S
C522 H512 0.930 . S
C522 C520 1.419 . S
C522 C523 1.362 . S
C523 H513 0.930 . S
C523 C516 1.409 . S
C523 C522 1.362 . S
H524 C530 0.930 . S
H525 C533 0.930 . S
H526 C534 0.930 . S
H527 C535 0.930 . S
H528 C538 0.930 1_655 S
H529 C539 0.930 1_554 S
C530 H524 0.930 . S
C530 C531 1.355 . S
C530 C532 1.415 1_554 S
C531 C530 1.355 . S
C531 C533 1.419 1_554 S
C532 C530 1.415 1_556 S
C532 C537 1.425 . S
C532 C539 1.409 . S
C533 H525 0.930 . S
C533 C531 1.419 1_556 S
C533 C534 1.362 . S
C534 H526 0.930 . S
C534 C533 1.362 . S
C534 C537 1.409 . S
C535 H527 0.930 . S
C535 C536 1.355 . S
C535 C537 1.415 . S
C536 C535 1.355 . S
C536 C538 1.419 . S
C537 C532 1.425 . S
C537 C534 1.409 . S
C537 C535 1.415 . S
C538 H528 0.930 1_455 S
C538 C536 1.419 . S
C538 C539 1.362 . S
C539 H529 0.930 1_556 S
C539 C532 1.409 . S
C539 C538 1.362 . S
H540 C546 0.930 . S
H541 C549 0.930 . S
H542 C550 0.930 . S
H543 C551 0.930 . S
H544 C554 0.930 . S
H545 C555 0.930 . S
C546 H540 0.930 . S
C546 C547 1.355 . S
C546 C548 1.415 . S
C547 C546 1.355 . S
C547 C549 1.419 . S
C548 C546 1.415 . S
C548 C553 1.425 . S
C548 C555 1.409 . S
C549 H541 0.930 . S
C549 C547 1.419 . S
C549 C550 1.362 . S
C550 H542 0.930 . S
C550 C549 1.362 . S
C550 C553 1.409 . S
C551 H543 0.930 . S
C551 C552 1.355 . S
C551 C553 1.415 . S
C552 C551 1.355 . S
C552 C554 1.419 . S
C553 C548 1.425 . S
C553 C550 1.409 . S
C553 C551 1.415 . S
C554 H544 0.930 . S
C554 C552 1.419 . S
C554 C555 1.362 . S
C555 H545 0.930 . S
C555 C548 1.409 . S
C555 C554 1.362 . S
H556 C562 0.930 . S
H557 C565 0.930 . S
H558 C566 0.930 . S
H559 C567 0.930 . S
H560 C570 0.930 . S
H561 C571 0.930 . S
C562 H556 0.930 . S
C562 C563 1.355 . S
C562 C564 1.415 . S
C563 C562 1.355 . S
C563 C565 1.419 . S
C564 C562 1.415 . S
C564 C569 1.425 . S
C564 C571 1.409 . S
C565 H557 0.930 . S
C565 C563 1.419 . S
C565 C566 1.362 . S
C566 H558 0.930 . S
C566 C565 1.362 . S
C566 C569 1.409 . S
C567 H559 0.930 . S
C567 C568 1.355 . S
C567 C569 1.415 . S
C568 C567 1.355 . S
C568 C570 1.419 . S
C569 C564 1.425 . S
C569 C566 1.409 . S
C569 C567 1.415 . S
C570 H560 0.930 . S
C570 C568 1.419 . S
C570 C571 1.362 . S
C571 H561 0.930 . S
C571 C564 1.409 . S
C571 C570 1.362 . S
H572 C578 0.930 . S
H573 C581 0.930 . S
H574 C582 0.930 . S
H575 C583 0.930 . S
H576 C586 0.930 . S
H577 C587 0.930 . S
C578 H572 0.930 . S
C578 C579 1.355 . S
C578 C580 1.415 . S
C579 C578 1.355 . S
C579 C581 1.419 . S
C580 C578 1.415 . S
C580 C585 1.425 . S
C580 C587 1.409 . S
C581 H573 0.930 . S
C581 C579 1.419 . S
C581 C582 1.362 . S
C582 H574 0.930 . S
C582 C581 1.362 . S
C582 C585 1.409 . S
C583 H575 0.930 . S
C583 C584 1.355 . S
C583 C585 1.415 . S
C584 C583 1.355 . S
C584 C586 1.419 . S
C585 C580 1.425 . S
C585 C582 1.409 . S
C585 C583 1.415 . S
C586 H576 0.930 . S
C586 C584 1.419 . S
C586 C587 1.362 . S
C587 H577 0.930 . S
C587 C580 1.409 . S
C587 C586 1.362 . S
H588 C594 0.930 . S
H589 C597 0.930 . S
H590 C598 0.930 . S
H591 C599 0.930 . S
H592 C602 0.930 . S
H593 C603 0.930 . S
C594 H588 0.930 . S
C594 C595 1.355 . S
C594 C596 1.415 . S
C595 C594 1.355 . S
C595 C597 1.419 . S
C596 C594 1.415 . S
C596 C601 1.425 . S
C596 C603 1.409 . S
C597 H589 0.930 . S
C597 C595 1.419 . S
C597 C598 1.362 . S
C598 H590 0.930 . S
C598 C597 1.362 . S
C598 C601 1.409 . S
C599 H591 0.930 . S
C599 C600 1.355 1_545 S
C599 C601 1.415 . S
C600 C599 1.355 1_565 S
C600 C602 1.419 . S
C601 C596 1.425 . S
C601 C598 1.409 . S
C601 C599 1.415 . S
C602 H592 0.930 . S
C602 C600 1.419 . S
C602 C603 1.362 1_565 S
C603 H593 0.930 . S
C603 C596 1.409 . S
C603 C602 1.362 1_545 S
H604 C610 0.930 . S
H605 C613 0.930 . S
H606 C614 0.930 . S
H607 C615 0.930 . S
H608 C618 0.930 . S
H609 C619 0.930 . S
C610 H604 0.930 . S
C610 C611 1.355 . S
C610 C612 1.415 . S
C611 C610 1.355 . S
C611 C613 1.419 . S
C612 C610 1.415 . S
C612 C617 1.425 . S
C612 C619 1.409 . S
C613 H605 0.930 . S
C613 C611 1.419 . S
C613 C614 1.362 . S
C614 H606 0.930 . S
C614 C613 1.362 . S
C614 C617 1.409 . S
C615 H607 0.930 . S
C615 C616 1.355 . S
C615 C617 1.415 . S
C616 C615 1.355 . S
C616 C618 1.419 . S
C617 C612 1.425 . S
C617 C614 1.409 . S
C617 C615 1.415 . S
C618 H608 0.930 . S
C618 C616 1.419 . S
C618 C619 1.362 . S
C619 H609 0.930 . S
C619 C612 1.409 . S
C619 C618 1.362 . S
H620 C626 0.930 . S
H621 C629 0.930 . S
H622 C630 0.930 . S
H623 C631 0.930 . S
H624 C634 0.930 . S
H625 C635 0.930 . S
C626 H620 0.930 . S
C626 C627 1.355 . S
C626 C628 1.415 1_545 S
C627 C626 1.355 . S
C627 C629 1.419 . S
C628 C626 1.415 1_565 S
C628 C633 1.425 . S
C628 C635 1.409 . S
C629 H621 0.930 . S
C629 C627 1.419 . S
C629 C630 1.362 1_545 S
C630 H622 0.930 . S
C630 C629 1.362 1_565 S
C630 C633 1.409 . S
C631 H623 0.930 . S
C631 C632 1.355 . S
C631 C633 1.415 . S
C632 C631 1.355 . S
C632 C634 1.419 . S
C633 C628 1.425 . S
C633 C630 1.409 . S
C633 C631 1.415 . S
C634 H624 0.930 . S
C634 C632 1.419 . S
C634 C635 1.362 . S
C635 H625 0.930 . S
C635 C628 1.409 . S
C635 C634 1.362 . S
H636 C642 0.930 . S
H637 C645 0.930 . S
H638 C646 0.930 . S
H639 C647 0.930 . S
H640 C650 0.930 . S
H641 C651 0.930 . S
C642 H636 0.930 . S
C642 C643 1.355 . S
C642 C644 1.415 . S
C643 C642 1.355 . S
C643 C645 1.419 . S
C644 C642 1.415 . S
C644 C649 1.425 . S
C644 C651 1.409 . S
C645 H637 0.930 . S
C645 C643 1.419 . S
C645 C646 1.362 . S
C646 H638 0.930 . S
C646 C645 1.362 . S
C646 C649 1.409 . S
C647 H639 0.930 . S
C647 C648 1.355 . S
C647 C649 1.415 . S
C648 C647 1.355 . S
C648 C650 1.419 . S
C649 C644 1.425 . S
C649 C646 1.409 . S
C649 C647 1.415 . S
C650 H640 0.930 . S
C650 C648 1.419 . S
C650 C651 1.362 . S
C651 H641 0.930 . S
C651 C644 1.409 . S
C651 C650 1.362 . S
H652 C658 0.930 . S
H653 C661 0.930 . S
H654 C662 0.930 . S
H655 C663 0.930 . S
H656 C666 0.911 1_554 S
H657 C667 0.930 . S
C658 H652 0.930 . S
C658 C659 1.355 . S
C658 C660 1.415 . S
C659 C658 1.355 . S
C659 C661 1.419 . S
C660 C658 1.415 . S
C660 C665 1.425 . S
C660 C667 1.409 . S
C661 H653 0.930 . S
C661 C659 1.419 . S
C661 C662 1.362 . S
C662 H654 0.930 . S
C662 C661 1.362 . S
C662 C665 1.409 . S
C663 H655 0.930 . S
C663 C664 1.355 . S
C663 C665 1.415 . S
C664 C663 1.355 . S
C664 C666 1.419 . S
C665 C660 1.425 . S
C665 C662 1.409 . S
C665 C663 1.415 . S
C666 H656 0.911 1_556 S
C666 C664 1.419 . S
C666 C667 1.362 . S
C667 H657 0.930 . S
C667 C660 1.409 . S
C667 C666 1.362 . S
H668 C674 0.930 . S
H669 C677 0.930 . S
H670 C678 0.930 . S
H671 C679 0.930 . S
H672 C682 0.930 . S
H673 C683 0.930 . S
C674 H668 0.930 . S
C674 C675 1.355 . S
C674 C676 1.415 . S
C675 C674 1.355 . S
C675 C677 1.419 . S
C676 C674 1.415 . S
C676 C681 1.425 . S
C676 C683 1.409 . S
C677 H669 0.930 . S
C677 C675 1.419 . S
C677 C678 1.362 . S
C678 H670 0.930 . S
C678 C677 1.362 . S
C678 C681 1.409 . S
C679 H671 0.930 . S
C679 C680 1.355 . S
C679 C681 1.415 . S
C680 C679 1.355 . S
C680 C682 1.419 . S
C681 C676 1.425 . S
C681 C678 1.409 . S
C681 C679 1.415 . S
C682 H672 0.930 . S
C682 C680 1.419 . S
C682 C683 1.362 . S
C683 H673 0.930 . S
C683 C676 1.409 . S
C683 C682 1.362 . S
H684 C690 0.930 . S
H685 C693 0.930 . S
H686 C694 0.930 . S
H687 C695 0.930 . S
H688 C698 0.930 . S
H689 C699 0.930 . S
C690 H684 0.930 . S
C690 C691 1.355 . S
C690 C692 1.415 . S
C691 C690 1.355 . S
C691 C693 1.419 . S
C692 C690 1.415 . S
C692 C697 1.425 . S
C692 C699 1.409 . S
C693 H685 0.930 . S
C693 C691 1.419 . S
C693 C694 1.362 . S
C694 H686 0.930 . S
C694 C693 1.362 . S
C694 C697 1.409 . S
C695 H687 0.930 . S
C695 C696 1.355 . S
C695 C697 1.415 . S
C696 C695 1.355 . S
C696 C698 1.419 . S
C697 C692 1.425 . S
C697 C694 1.409 . S
C697 C695 1.415 . S
C698 H688 0.930 . S
C698 C696 1.419 . S
C698 C699 1.362 . S
C699 H689 0.930 . S
C699 C692 1.409 . S
C699 C698 1.362 . S
H700 C706 0.930 . S
H701 C709 0.930 . S
H702 C710 0.930 . S
H703 C711 0.930 . S
H704 C714 0.930 . S
H705 C715 0.930 . S
C706 H700 0.930 . S
C706 C707 1.355 . S
C706 C708 1.415 . S
C707 C706 1.355 . S
C707 C709 1.419 . S
C708 C706 1.415 . S
C708 C713 1.425 . S
C708 C715 1.409 . S
C709 H701 0.930 . S
C709 C707 1.419 . S
C709 C710 1.362 . S
C710 H702 0.930 . S
C710 C709 1.362 . S
C710 C713 1.409 . S
C711 H703 0.930 . S
C711 C712 1.355 . S
C711 C713 1.415 . S
C712 C711 1.355 . S
C712 C714 1.419 . S
C713 C708 1.425 . S
C713 C710 1.409 . S
C713 C711 1.415 . S
C714 H704 0.930 . S
C714 C712 1.419 . S
C714 C715 1.362 . S
C715 H705 0.930 . S
C715 C708 1.409 . S
C715 C714 1.362 . S
H716 C722 0.930 . S
H717 C725 0.930 . S
H718 C726 0.930 . S
H719 C727 0.930 . S
H720 C730 0.930 . S
H721 C731 0.930 . S
C722 H716 0.930 . S
C722 C723 1.355 . S
C722 C724 1.415 . S
C723 C722 1.355 . S
C723 C725 1.419 . S
C724 C722 1.415 . S
C724 C729 1.425 . S
C724 C731 1.409 . S
C725 H717 0.930 . S
C725 C723 1.419 . S
C725 C726 1.362 . S
C726 H718 0.930 . S
C726 C725 1.362 . S
C726 C729 1.409 . S
C727 H719 0.930 . S
C727 C728 1.355 . S
C727 C729 1.415 . S
C728 C727 1.355 . S
C728 C730 1.419 . S
C729 C724 1.425 . S
C729 C726 1.409 . S
C729 C727 1.415 . S
C730 H720 0.930 . S
C730 C728 1.419 . S
C730 C731 1.362 . S
C731 H721 0.930 . S
C731 C724 1.409 . S
C731 C730 1.362 . S
H732 C738 0.930 . S
H733 C741 0.930 . S
H734 C742 0.930 1_655 S
H735 C743 0.930 . S
H736 C746 0.930 . S
H737 C747 0.930 . S
C738 H732 0.930 . S
C738 C739 1.355 . S
C738 C740 1.415 . S
C739 C738 1.355 . S
C739 C741 1.419 . S
C740 C738 1.415 . S
C740 C745 1.425 . S
C740 C747 1.409 . S
C741 H733 0.930 . S
C741 C739 1.419 . S
C741 C742 1.362 . S
C742 H734 0.930 1_455 S
C742 C741 1.362 . S
C742 C745 1.409 . S
C743 H735 0.930 . S
C743 C744 1.355 . S
C743 C745 1.415 1_655 S
C744 C743 1.355 . S
C744 C746 1.419 1_655 S
C745 C740 1.425 . S
C745 C742 1.409 . S
C745 C743 1.415 1_455 S
C746 H736 0.930 . S
C746 C744 1.419 1_455 S
C746 C747 1.362 . S
C747 H737 0.930 . S
C747 C740 1.409 . S
C747 C746 1.362 . S
H748 C754 0.930 . S
H749 C757 0.930 . S
H750 C758 0.930 . S
H751 C759 0.930 . S
H752 C762 0.930 . S
H753 C763 0.930 . S
C754 H748 0.930 . S
C754 C755 1.355 . S
C754 C756 1.415 . S
C755 C754 1.355 . S
C755 C757 1.419 . S
C756 C754 1.415 . S
C756 C761 1.425 . S
C756 C763 1.409 . S
C757 H749 0.930 . S
C757 C755 1.419 . S
C757 C758 1.362 . S
C758 H750 0.930 . S
C758 C757 1.362 . S
C758 C761 1.409 . S
C759 H751 0.930 . S
C759 C760 1.355 . S
C759 C761 1.415 . S
C760 C759 1.355 . S
C760 C762 1.419 . S
C761 C756 1.425 . S
C761 C758 1.409 . S
C761 C759 1.415 . S
C762 H752 0.930 . S
C762 C760 1.419 . S
C762 C763 1.362 . S
C763 H753 0.930 . S
C763 C756 1.409 . S
C763 C762 1.362 . S
H764 C770 0.930 . S
H765 C773 0.930 . S
H766 C774 0.930 . S
H767 C775 0.930 . S
H768 C778 0.930 . S
H769 C779 0.930 . S
C770 H764 0.930 . S
C770 C771 1.355 . S
C770 C772 1.415 . S
C771 C770 1.355 . S
C771 C773 1.419 . S
C772 C770 1.415 . S
C772 C777 1.425 . S
C772 C779 1.409 . S
C773 H765 0.930 . S
C773 C771 1.419 . S
C773 C774 1.362 . S
C774 H766 0.930 . S
C774 C773 1.362 . S
C774 C777 1.409 . S
C775 H767 0.930 . S
C775 C776 1.355 . S
C775 C777 1.415 . S
C776 C775 1.355 . S
C776 C778 1.419 . S
C777 C772 1.425 . S
C777 C774 1.409 . S
C777 C775 1.415 . S
C778 H768 0.930 . S
C778 C776 1.419 . S
C778 C779 1.362 . S
C779 H769 0.930 . S
C779 C772 1.409 . S
C779 C778 1.362 . S
H780 C786 0.930 . S
H781 C789 0.930 . S
H782 C790 0.930 . S
H783 C791 0.930 . S
H784 C794 0.930 . S
H785 C795 0.930 . S
C786 H780 0.930 . S
C786 C787 1.355 . S
C786 C788 1.415 . S
C787 C786 1.355 . S
C787 C789 1.419 . S
C788 C786 1.415 . S
C788 C793 1.425 . S
C788 C795 1.409 . S
C789 H781 0.930 . S
C789 C787 1.419 . S
C789 C790 1.362 . S
C790 H782 0.930 . S
C790 C789 1.362 . S
C790 C793 1.409 . S
C791 H783 0.930 . S
C791 C792 1.355 . S
C791 C793 1.415 . S
C792 C791 1.355 . S
C792 C794 1.419 . S
C793 C788 1.425 . S
C793 C790 1.409 . S
C793 C791 1.415 . S
C794 H784 0.930 . S
C794 C792 1.419 . S
C794 C795 1.362 . S
C795 H785 0.930 . S
C795 C788 1.409 . S
C795 C794 1.362 . S
H796 C802 0.930 . S
H797 C805 0.930 . S
H798 C806 0.930 . S
H799 C807 0.930 . S
H800 C810 0.930 1_545 S
H801 C811 0.930 . S
C802 H796 0.930 . S
C802 C803 1.355 . S
C802 C804 1.415 . S
C803 C802 1.355 . S
C803 C805 1.419 . S
C804 C802 1.415 . S
C804 C809 1.425 . S
C804 C811 1.409 . S
C805 H797 0.930 . S
C805 C803 1.419 . S
C805 C806 1.362 . S
C806 H798 0.930 . S
C806 C805 1.362 . S
C806 C809 1.409 . S
C807 H799 0.930 . S
C807 C808 1.355 . S
C807 C809 1.415 . S
C808 C807 1.355 . S
C808 C810 1.419 . S
C809 C804 1.425 . S
C809 C806 1.409 . S
C809 C807 1.415 . S
C810 H800 0.930 1_565 S
C810 C808 1.419 . S
C810 C811 1.362 . S
C811 H801 0.930 . S
C811 C804 1.409 . S
C811 C810 1.362 . S
H812 C818 0.930 . S
H813 C821 0.930 . S
H814 C822 0.930 . S
H815 C823 0.930 . S
H816 C826 0.930 1_455 S
H817 C827 0.930 . S
C818 H812 0.930 . S
C818 C819 1.355 . S
C818 C820 1.415 . S
C819 C818 1.355 . S
C819 C821 1.419 . S
C820 C818 1.415 . S
C820 C825 1.425 . S
C820 C827 1.409 . S
C821 H813 0.930 . S
C821 C819 1.419 . S
C821 C822 1.362 . S
C822 H814 0.930 . S
C822 C821 1.362 . S
C822 C825 1.409 . S
C823 H815 0.930 . S
C823 C824 1.355 . S
C823 C825 1.415 1_455 S
C824 C823 1.355 . S
C824 C826 1.419 1_455 S
C825 C820 1.425 . S
C825 C822 1.409 . S
C825 C823 1.415 1_655 S
C826 H816 0.930 1_655 S
C826 C824 1.419 1_655 S
C826 C827 1.362 . S
C827 H817 0.930 . S
C827 C820 1.409 . S
C827 C826 1.362 . S
C259 C15 1.561 . S
C264 C249 1.571 . S
C275 C207 1.543 . S
C280 C36 1.559 . S
C291 C60 1.544 . S
C296 C183 1.556 . S
C307 C81 1.543 . S
C312 C228 1.562 . S
C323 C102 1.567 . S
C328 C225 1.566 . S
C339 C123 1.571 . S
C344 C246 1.550 . S
C355 C204 1.566 . S
C360 C141 1.544 1_556 S
C371 C162 1.545 . S
C376 C186 1.566 . S
C387 C78 1.544 . S
C392 C99 1.561 . S
C403 C18 1.550 . S
C408 C120 1.571 . S
C419 C39 1.545 . S
C424 C144 1.553 . S
C435 C165 1.562 . S
C440 C57 1.543 . S
C451 C13 1.207 . S
C456 C182 1.264 . S
C467 C34 1.194 . S
C472 C227 1.269 . S
C483 C248 1.201 . S
C488 C58 1.230 . S
C499 C79 1.126 . S
C504 C206 1.250 . S
C515 C100 1.227 . S
C520 C203 1.251 . S
C531 C185 1.197 . S
C536 C121 1.195 . S
C547 C224 1.217 . S
C552 C139 1.146 . S
C563 C245 1.244 . S
C568 C160 1.235 . S
C579 C17 1.243 . S
C584 C76 1.127 . S
C595 C16 1.164 . S
C600 C38 1.273 . S
C611 C37 1.244 . S
C616 C56 1.223 . S
C627 C77 1.246 . S
C632 C55 1.127 . S
C643 C118 1.203 . S
C648 C98 1.266 . S
C659 C119 1.212 . S
C664 C142 1.153 . S
C675 C143 1.216 . S
C680 C163 1.243 . S
C691 C97 1.237 . S
C696 C164 1.206 . S
C707 C184 1.164 . S
C712 C80 1.206 . S
C723 C122 1.268 . S
C728 C205 1.199 . S
C739 C181 1.156 . S
C744 C140 1.210 . S
C755 C226 1.217 . S
C760 C161 1.197 . S
C771 C101 1.271 . S
C776 C247 1.148 . S
C787 C244 1.127 . S
C792 C35 1.240 . S
C803 C59 1.196 . S
C808 C202 1.200 . S
C819 C223 1.128 . S
C824 C14 1.256 . S
