# Generated by pormake.
# Topology fcm, (5)-cn, num edge types: 1
# Building blocks:
#     Node 0, Type 0, BuildingBlock: XOMCOT_clean_sbu_1, # of connection points: 5
#     Node 1, Type 0, BuildingBlock: XOMCOT_clean_sbu_1, # of connection points: 5
#     Node 2, Type 0, BuildingBlock: XOMCOT_clean_sbu_1, # of connection points: 5
#     Node 3, Type 0, BuildingBlock: XOMCOT_clean_sbu_1, # of connection points: 5
#     Node 4, Type 0, BuildingBlock: XOMCOT_clean_sbu_1, # of connection points: 5
#     Node 5, Type 0, BuildingBlock: XOMCOT_clean_sbu_1, # of connection points: 5
#     Node 6, Type 0, BuildingBlock: XOMCOT_clean_sbu_1, # of connection points: 5
#     Node 7, Type 0, BuildingBlock: XOMCOT_clean_sbu_1, # of connection points: 5
#     Node 8, Type 0, BuildingBlock: XOMCOT_clean_sbu_1, # of connection points: 5
#     Node 9, Type 0, BuildingBlock: XOMCOT_clean_sbu_1, # of connection points: 5
#     Node 10, Type 0, BuildingBlock: XOMCOT_clean_sbu_1, # of connection points: 5
#     Node 11, Type 0, BuildingBlock: XOMCOT_clean_sbu_1, # of connection points: 5
#     Node 12, Type 0, BuildingBlock: XOMCOT_clean_sbu_1, # of connection points: 5
#     Node 13, Type 0, BuildingBlock: XOMCOT_clean_sbu_1, # of connection points: 5
#     Node 14, Type 0, BuildingBlock: XOMCOT_clean_sbu_1, # of connection points: 5
#     Node 15, Type 0, BuildingBlock: XOMCOT_clean_sbu_1, # of connection points: 5
#     Node 16, Type 0, BuildingBlock: XOMCOT_clean_sbu_1, # of connection points: 5
#     Node 17, Type 0, BuildingBlock: XOMCOT_clean_sbu_1, # of connection points: 5
#     Node 18, Type 0, BuildingBlock: XOMCOT_clean_sbu_1, # of connection points: 5
#     Node 19, Type 0, BuildingBlock: XOMCOT_clean_sbu_1, # of connection points: 5
#     Node 20, Type 0, BuildingBlock: XOMCOT_clean_sbu_1, # of connection points: 5
#     Node 21, Type 0, BuildingBlock: XOMCOT_clean_sbu_1, # of connection points: 5
#     Node 22, Type 0, BuildingBlock: XOMCOT_clean_sbu_1, # of connection points: 5
#     Node 23, Type 0, BuildingBlock: XOMCOT_clean_sbu_1, # of connection points: 5
#     Node 24, Type 0, BuildingBlock: XOMCOT_clean_sbu_1, # of connection points: 5
#     Node 25, Type 0, BuildingBlock: XOMCOT_clean_sbu_1, # of connection points: 5
#     Node 26, Type 0, BuildingBlock: XOMCOT_clean_sbu_1, # of connection points: 5
#     Node 27, Type 0, BuildingBlock: XOMCOT_clean_sbu_1, # of connection points: 5
#     Node 28, Type 0, BuildingBlock: XOMCOT_clean_sbu_1, # of connection points: 5
#     Node 29, Type 0, BuildingBlock: XOMCOT_clean_sbu_1, # of connection points: 5
#     Node 30, Type 0, BuildingBlock: XOMCOT_clean_sbu_1, # of connection points: 5
#     Node 31, Type 0, BuildingBlock: XOMCOT_clean_sbu_1, # of connection points: 5
#     Node 32, Type 0, BuildingBlock: XOMCOT_clean_sbu_1, # of connection points: 5
#     Node 33, Type 0, BuildingBlock: XOMCOT_clean_sbu_1, # of connection points: 5
#     Node 34, Type 0, BuildingBlock: XOMCOT_clean_sbu_1, # of connection points: 5
#     Node 35, Type 0, BuildingBlock: XOMCOT_clean_sbu_1, # of connection points: 5
#     Node 36, Type 0, BuildingBlock: XOMCOT_clean_sbu_1, # of connection points: 5
#     Node 37, Type 0, BuildingBlock: XOMCOT_clean_sbu_1, # of connection points: 5
#     Node 38, Type 0, BuildingBlock: XOMCOT_clean_sbu_1, # of connection points: 5
#     Node 39, Type 0, BuildingBlock: XOMCOT_clean_sbu_1, # of connection points: 5
#     Node 40, Type 0, BuildingBlock: XOMCOT_clean_sbu_1, # of connection points: 5
#     Node 41, Type 0, BuildingBlock: XOMCOT_clean_sbu_1, # of connection points: 5
#     Node 42, Type 0, BuildingBlock: XOMCOT_clean_sbu_1, # of connection points: 5
#     Node 43, Type 0, BuildingBlock: XOMCOT_clean_sbu_1, # of connection points: 5
#     Node 44, Type 0, BuildingBlock: XOMCOT_clean_sbu_1, # of connection points: 5
#     Node 45, Type 0, BuildingBlock: XOMCOT_clean_sbu_1, # of connection points: 5
#     Node 46, Type 0, BuildingBlock: XOMCOT_clean_sbu_1, # of connection points: 5
#     Node 47, Type 0, BuildingBlock: XOMCOT_clean_sbu_1, # of connection points: 5
#     Edge 48, Type (0, 0), BuildingBlock: CIFDUS_clean_linker_0, # of connection points: 2
#     Edge 49, Type (0, 0), BuildingBlock: CIFDUS_clean_linker_0, # of connection points: 2
#     Edge 50, Type (0, 0), BuildingBlock: CIFDUS_clean_linker_0, # of connection points: 2
#     Edge 51, Type (0, 0), BuildingBlock: CIFDUS_clean_linker_0, # of connection points: 2
#     Edge 52, Type (0, 0), BuildingBlock: CIFDUS_clean_linker_0, # of connection points: 2
#     Edge 53, Type (0, 0), BuildingBlock: CIFDUS_clean_linker_0, # of connection points: 2
#     Edge 54, Type (0, 0), BuildingBlock: CIFDUS_clean_linker_0, # of connection points: 2
#     Edge 55, Type (0, 0), BuildingBlock: CIFDUS_clean_linker_0, # of connection points: 2
#     Edge 56, Type (0, 0), BuildingBlock: CIFDUS_clean_linker_0, # of connection points: 2
#     Edge 57, Type (0, 0), BuildingBlock: CIFDUS_clean_linker_0, # of connection points: 2
#     Edge 58, Type (0, 0), BuildingBlock: CIFDUS_clean_linker_0, # of connection points: 2
#     Edge 59, Type (0, 0), BuildingBlock: CIFDUS_clean_linker_0, # of connection points: 2
#     Edge 60, Type (0, 0), BuildingBlock: CIFDUS_clean_linker_0, # of connection points: 2
#     Edge 61, Type (0, 0), BuildingBlock: CIFDUS_clean_linker_0, # of connection points: 2
#     Edge 62, Type (0, 0), BuildingBlock: CIFDUS_clean_linker_0, # of connection points: 2
#     Edge 63, Type (0, 0), BuildingBlock: CIFDUS_clean_linker_0, # of connection points: 2
#     Edge 64, Type (0, 0), BuildingBlock: CIFDUS_clean_linker_0, # of connection points: 2
#     Edge 65, Type (0, 0), BuildingBlock: CIFDUS_clean_linker_0, # of connection points: 2
#     Edge 66, Type (0, 0), BuildingBlock: CIFDUS_clean_linker_0, # of connection points: 2
#     Edge 67, Type (0, 0), BuildingBlock: CIFDUS_clean_linker_0, # of connection points: 2
#     Edge 68, Type (0, 0), BuildingBlock: CIFDUS_clean_linker_0, # of connection points: 2
#     Edge 69, Type (0, 0), BuildingBlock: CIFDUS_clean_linker_0, # of connection points: 2
#     Edge 70, Type (0, 0), BuildingBlock: CIFDUS_clean_linker_0, # of connection points: 2
#     Edge 71, Type (0, 0), BuildingBlock: CIFDUS_clean_linker_0, # of connection points: 2
#     Edge 72, Type (0, 0), BuildingBlock: CIFDUS_clean_linker_0, # of connection points: 2
#     Edge 73, Type (0, 0), BuildingBlock: CIFDUS_clean_linker_0, # of connection points: 2
#     Edge 74, Type (0, 0), BuildingBlock: CIFDUS_clean_linker_0, # of connection points: 2
#     Edge 75, Type (0, 0), BuildingBlock: CIFDUS_clean_linker_0, # of connection points: 2
#     Edge 76, Type (0, 0), BuildingBlock: CIFDUS_clean_linker_0, # of connection points: 2
#     Edge 77, Type (0, 0), BuildingBlock: CIFDUS_clean_linker_0, # of connection points: 2
#     Edge 78, Type (0, 0), BuildingBlock: CIFDUS_clean_linker_0, # of connection points: 2
#     Edge 79, Type (0, 0), BuildingBlock: CIFDUS_clean_linker_0, # of connection points: 2
#     Edge 80, Type (0, 0), BuildingBlock: CIFDUS_clean_linker_0, # of connection points: 2
#     Edge 81, Type (0, 0), BuildingBlock: CIFDUS_clean_linker_0, # of connection points: 2
#     Edge 82, Type (0, 0), BuildingBlock: CIFDUS_clean_linker_0, # of connection points: 2
#     Edge 83, Type (0, 0), BuildingBlock: CIFDUS_clean_linker_0, # of connection points: 2
#     Edge 84, Type (0, 0), BuildingBlock: CIFDUS_clean_linker_0, # of connection points: 2
#     Edge 85, Type (0, 0), BuildingBlock: CIFDUS_clean_linker_0, # of connection points: 2
#     Edge 86, Type (0, 0), BuildingBlock: CIFDUS_clean_linker_0, # of connection points: 2
#     Edge 87, Type (0, 0), BuildingBlock: CIFDUS_clean_linker_0, # of connection points: 2
#     Edge 88, Type (0, 0), BuildingBlock: CIFDUS_clean_linker_0, # of connection points: 2
#     Edge 89, Type (0, 0), BuildingBlock: CIFDUS_clean_linker_0, # of connection points: 2
#     Edge 90, Type (0, 0), BuildingBlock: CIFDUS_clean_linker_0, # of connection points: 2
#     Edge 91, Type (0, 0), BuildingBlock: CIFDUS_clean_linker_0, # of connection points: 2
#     Edge 92, Type (0, 0), BuildingBlock: CIFDUS_clean_linker_0, # of connection points: 2
#     Edge 93, Type (0, 0), BuildingBlock: CIFDUS_clean_linker_0, # of connection points: 2
#     Edge 94, Type (0, 0), BuildingBlock: CIFDUS_clean_linker_0, # of connection points: 2
#     Edge 95, Type (0, 0), BuildingBlock: CIFDUS_clean_linker_0, # of connection points: 2
#     Edge 96, Type (0, 0), BuildingBlock: CIFDUS_clean_linker_0, # of connection points: 2
#     Edge 97, Type (0, 0), BuildingBlock: CIFDUS_clean_linker_0, # of connection points: 2
#     Edge 98, Type (0, 0), BuildingBlock: CIFDUS_clean_linker_0, # of connection points: 2
#     Edge 99, Type (0, 0), BuildingBlock: CIFDUS_clean_linker_0, # of connection points: 2
#     Edge 100, Type (0, 0), BuildingBlock: CIFDUS_clean_linker_0, # of connection points: 2
#     Edge 101, Type (0, 0), BuildingBlock: CIFDUS_clean_linker_0, # of connection points: 2
#     Edge 102, Type (0, 0), BuildingBlock: CIFDUS_clean_linker_0, # of connection points: 2
#     Edge 103, Type (0, 0), BuildingBlock: CIFDUS_clean_linker_0, # of connection points: 2
#     Edge 104, Type (0, 0), BuildingBlock: CIFDUS_clean_linker_0, # of connection points: 2
#     Edge 105, Type (0, 0), BuildingBlock: CIFDUS_clean_linker_0, # of connection points: 2
#     Edge 106, Type (0, 0), BuildingBlock: CIFDUS_clean_linker_0, # of connection points: 2
#     Edge 107, Type (0, 0), BuildingBlock: CIFDUS_clean_linker_0, # of connection points: 2
#     Edge 108, Type (0, 0), BuildingBlock: CIFDUS_clean_linker_0, # of connection points: 2
#     Edge 109, Type (0, 0), BuildingBlock: CIFDUS_clean_linker_0, # of connection points: 2
#     Edge 110, Type (0, 0), BuildingBlock: CIFDUS_clean_linker_0, # of connection points: 2
#     Edge 111, Type (0, 0), BuildingBlock: CIFDUS_clean_linker_0, # of connection points: 2
#     Edge 112, Type (0, 0), BuildingBlock: CIFDUS_clean_linker_0, # of connection points: 2
#     Edge 113, Type (0, 0), BuildingBlock: CIFDUS_clean_linker_0, # of connection points: 2
#     Edge 114, Type (0, 0), BuildingBlock: CIFDUS_clean_linker_0, # of connection points: 2
#     Edge 115, Type (0, 0), BuildingBlock: CIFDUS_clean_linker_0, # of connection points: 2
#     Edge 116, Type (0, 0), BuildingBlock: CIFDUS_clean_linker_0, # of connection points: 2
#     Edge 117, Type (0, 0), BuildingBlock: CIFDUS_clean_linker_0, # of connection points: 2
#     Edge 118, Type (0, 0), BuildingBlock: CIFDUS_clean_linker_0, # of connection points: 2
#     Edge 119, Type (0, 0), BuildingBlock: CIFDUS_clean_linker_0, # of connection points: 2
#     Edge 120, Type (0, 0), BuildingBlock: CIFDUS_clean_linker_0, # of connection points: 2
#     Edge 121, Type (0, 0), BuildingBlock: CIFDUS_clean_linker_0, # of connection points: 2
#     Edge 122, Type (0, 0), BuildingBlock: CIFDUS_clean_linker_0, # of connection points: 2
#     Edge 123, Type (0, 0), BuildingBlock: CIFDUS_clean_linker_0, # of connection points: 2
#     Edge 124, Type (0, 0), BuildingBlock: CIFDUS_clean_linker_0, # of connection points: 2
#     Edge 125, Type (0, 0), BuildingBlock: CIFDUS_clean_linker_0, # of connection points: 2
#     Edge 126, Type (0, 0), BuildingBlock: CIFDUS_clean_linker_0, # of connection points: 2
#     Edge 127, Type (0, 0), BuildingBlock: CIFDUS_clean_linker_0, # of connection points: 2
#     Edge 128, Type (0, 0), BuildingBlock: CIFDUS_clean_linker_0, # of connection points: 2
#     Edge 129, Type (0, 0), BuildingBlock: CIFDUS_clean_linker_0, # of connection points: 2
#     Edge 130, Type (0, 0), BuildingBlock: CIFDUS_clean_linker_0, # of connection points: 2
#     Edge 131, Type (0, 0), BuildingBlock: CIFDUS_clean_linker_0, # of connection points: 2
#     Edge 132, Type (0, 0), BuildingBlock: CIFDUS_clean_linker_0, # of connection points: 2
#     Edge 133, Type (0, 0), BuildingBlock: CIFDUS_clean_linker_0, # of connection points: 2
#     Edge 134, Type (0, 0), BuildingBlock: CIFDUS_clean_linker_0, # of connection points: 2
#     Edge 135, Type (0, 0), BuildingBlock: CIFDUS_clean_linker_0, # of connection points: 2
#     Edge 136, Type (0, 0), BuildingBlock: CIFDUS_clean_linker_0, # of connection points: 2
#     Edge 137, Type (0, 0), BuildingBlock: CIFDUS_clean_linker_0, # of connection points: 2
#     Edge 138, Type (0, 0), BuildingBlock: CIFDUS_clean_linker_0, # of connection points: 2
#     Edge 139, Type (0, 0), BuildingBlock: CIFDUS_clean_linker_0, # of connection points: 2
#     Edge 140, Type (0, 0), BuildingBlock: CIFDUS_clean_linker_0, # of connection points: 2
#     Edge 141, Type (0, 0), BuildingBlock: CIFDUS_clean_linker_0, # of connection points: 2
#     Edge 142, Type (0, 0), BuildingBlock: CIFDUS_clean_linker_0, # of connection points: 2
#     Edge 143, Type (0, 0), BuildingBlock: CIFDUS_clean_linker_0, # of connection points: 2
#     Edge 144, Type (0, 0), BuildingBlock: CIFDUS_clean_linker_0, # of connection points: 2
#     Edge 145, Type (0, 0), BuildingBlock: CIFDUS_clean_linker_0, # of connection points: 2
#     Edge 146, Type (0, 0), BuildingBlock: CIFDUS_clean_linker_0, # of connection points: 2
#     Edge 147, Type (0, 0), BuildingBlock: CIFDUS_clean_linker_0, # of connection points: 2
#     Edge 148, Type (0, 0), BuildingBlock: CIFDUS_clean_linker_0, # of connection points: 2
#     Edge 149, Type (0, 0), BuildingBlock: CIFDUS_clean_linker_0, # of connection points: 2
#     Edge 150, Type (0, 0), BuildingBlock: CIFDUS_clean_linker_0, # of connection points: 2
#     Edge 151, Type (0, 0), BuildingBlock: CIFDUS_clean_linker_0, # of connection points: 2
#     Edge 152, Type (0, 0), BuildingBlock: CIFDUS_clean_linker_0, # of connection points: 2
#     Edge 153, Type (0, 0), BuildingBlock: CIFDUS_clean_linker_0, # of connection points: 2
#     Edge 154, Type (0, 0), BuildingBlock: CIFDUS_clean_linker_0, # of connection points: 2
#     Edge 155, Type (0, 0), BuildingBlock: CIFDUS_clean_linker_0, # of connection points: 2
#     Edge 156, Type (0, 0), BuildingBlock: CIFDUS_clean_linker_0, # of connection points: 2
#     Edge 157, Type (0, 0), BuildingBlock: CIFDUS_clean_linker_0, # of connection points: 2
#     Edge 158, Type (0, 0), BuildingBlock: CIFDUS_clean_linker_0, # of connection points: 2
#     Edge 159, Type (0, 0), BuildingBlock: CIFDUS_clean_linker_0, # of connection points: 2
#     Edge 160, Type (0, 0), BuildingBlock: CIFDUS_clean_linker_0, # of connection points: 2
#     Edge 161, Type (0, 0), BuildingBlock: CIFDUS_clean_linker_0, # of connection points: 2
#     Edge 162, Type (0, 0), BuildingBlock: CIFDUS_clean_linker_0, # of connection points: 2
#     Edge 163, Type (0, 0), BuildingBlock: CIFDUS_clean_linker_0, # of connection points: 2
#     Edge 164, Type (0, 0), BuildingBlock: CIFDUS_clean_linker_0, # of connection points: 2
#     Edge 165, Type (0, 0), BuildingBlock: CIFDUS_clean_linker_0, # of connection points: 2
#     Edge 166, Type (0, 0), BuildingBlock: CIFDUS_clean_linker_0, # of connection points: 2
#     Edge 167, Type (0, 0), BuildingBlock: CIFDUS_clean_linker_0, # of connection points: 2
# Relax obj value: 0.351
# Max RMSD: 0.277
# Mean RMSD: 0.277
data_MOF--net-fcm--node1-XOMCOT_clean_sbu_1--edge1-CIFDUS_clean_linker_0
_symmetry_space_group_name_H-M    P1
_symmetry_Int_Tables_number       1
_symmetry_cell_setting            triclinic
loop_
_symmetry_equiv_pos_as_xyz
'x, y, z'
_cell_length_a     61.975
_cell_length_b     61.93188
_cell_length_c     61.977609
_cell_angle_alpha  89.948453
_cell_angle_beta   89.988666
_cell_angle_gamma 90.112736
loop_
_atom_site_label
_atom_site_type_symbol
_atom_site_fract_x
_atom_site_fract_y
_atom_site_fract_z
_atom_type_partial_charge
C0 C 0.99567 0.04328 0.33385 0.0
C1 C 0.99185 0.03808 0.31276 0.0
N2 N 0.01066 0.03213 0.30372 0.0
N3 N 0.01684 0.04081 0.3382 0.0
C4 C 0.02562 0.03374 0.31952 0.0
H5 H 0.98377 0.04899 0.34523 0.0
Co6 Co 0.02821 0.0487 0.36482 0.0
C7 C 0.07381 0.05894 0.35781 0.0
O8 O 0.07113 0.07494 0.37143 0.0
N9 N 0.03873 0.05645 0.3924 0.0
C10 C 0.04416 0.0719 0.42438 0.0
C11 C 0.03578 0.07468 0.40406 0.0
C12 C 0.04932 0.04305 0.40601 0.0
N13 N 0.05251 0.05193 0.42559 0.0
O14 O 0.02745 0.01909 0.37343 0.0
H15 H 0.02787 0.08916 0.39859 0.0
H16 H 0.0538 0.02668 0.40199 0.0
O17 O 0.058 0.04622 0.35372 0.0
C18 C 0.00867 0.01627 0.38135 0.0
O19 O 0.99575 0.03303 0.38272 0.0
N20 N 0.02588 0.07746 0.35607 0.0
C21 C 0.00214 0.10408 0.32925 0.0
C22 C 0.02362 0.09918 0.32421 0.0
C23 C 0.03516 0.08539 0.33766 0.0
C24 C 0.00647 0.08517 0.36289 0.0
C25 C 0.99428 0.09859 0.34973 0.0
H26 H 0.04975 0.07862 0.33116 0.0
H27 H -0.00132 0.0779 0.37673 0.0
H28 H 0.04263 0.03046 0.31733 0.0
H29 H 0.97637 0.03852 0.30469 0.0
H30 H 0.04381 0.08359 0.43735 0.0
H31 H 0.03043 0.10353 0.3087 0.0
H32 H 0.97775 0.10184 0.35432 0.0
C33 C 0.19496 0.74301 0.57896 0.0
C34 C 0.19904 0.73741 0.55798 0.0
N35 N 0.2079 0.75454 0.54784 0.0
N36 N 0.20107 0.76363 0.58221 0.0
C37 C 0.20903 0.77027 0.56299 0.0
H38 H 0.18808 0.73262 0.59119 0.0
Co39 Co 0.19831 0.777 0.60894 0.0
C40 C 0.19252 0.82329 0.60114 0.0
O41 O 0.17851 0.82268 0.61703 0.0
N42 N 0.19612 0.78972 0.63656 0.0
C43 C 0.18655 0.80187 0.669 0.0
C44 C 0.18005 0.79003 0.65136 0.0
C45 C 0.21225 0.8012 0.64583 0.0
N46 N 0.20682 0.80869 0.66541 0.0
O47 O 0.22848 0.77292 0.61372 0.0
H48 H 0.16439 0.78266 0.64959 0.0
H49 H 0.22758 0.80457 0.63816 0.0
O50 O 0.20257 0.80595 0.59585 0.0
C51 C 0.22935 0.75494 0.62373 0.0
O52 O 0.21114 0.74462 0.62732 0.0
N53 N 0.16844 0.77796 0.60431 0.0
C54 C 0.13292 0.75907 0.58487 0.0
C55 C 0.14113 0.77855 0.57694 0.0
C56 C 0.1593 0.78757 0.58665 0.0
C57 C 0.15861 0.76074 0.61391 0.0
C58 C 0.14064 0.75107 0.6045 0.0
H59 H 0.16765 0.79993 0.5777 0.0
H60 H 0.16666 0.75235 0.62692 0.0
H61 H 0.21544 0.78628 0.56016 0.0
H62 H 0.19616 0.72168 0.55094 0.0
H63 H 0.1772 0.80511 0.68339 0.0
H64 H 0.13585 0.7848 0.56148 0.0
H65 H 0.13486 0.73578 0.61079 0.0
C66 C 0.50027 0.95805 0.83671 0.0
C67 C 0.50451 0.96597 0.81653 0.0
N68 N 0.4856 0.97085 0.80694 0.0
N69 N 0.47881 0.9579 0.84 0.0
C70 C 0.47021 0.96586 0.82164 0.0
H71 H 0.51214 0.95289 0.8484 0.0
Co72 Co 0.46711 0.94865 0.86587 0.0
C73 C 0.42263 0.9334 0.85756 0.0
O74 O 0.42531 0.91998 0.87372 0.0
N75 N 0.45622 0.93992 0.89313 0.0
C76 C 0.45206 0.92542 0.92576 0.0
C77 C 0.46092 0.92263 0.90563 0.0
C78 C 0.44392 0.95258 0.90601 0.0
N79 N 0.4416 0.94443 0.92601 0.0
O80 O 0.46381 0.97802 0.87421 0.0
H81 H 0.47071 0.90904 0.90102 0.0
H82 H 0.43785 0.96825 0.90134 0.0
O83 O 0.43762 0.94699 0.85291 0.0
C84 C 0.48123 0.98244 0.88421 0.0
O85 O 0.4959 0.96733 0.88645 0.0
N86 N 0.47337 0.92037 0.85742 0.0
C87 C 0.49728 0.88996 0.83485 0.0
C88 C 0.47692 0.89621 0.82746 0.0
C89 C 0.46549 0.91189 0.83866 0.0
C90 C 0.49241 0.91307 0.86571 0.0
C91 C 0.50452 0.89757 0.85483 0.0
H92 H 0.4522 0.91926 0.83034 0.0
H93 H 0.49953 0.92117 0.87943 0.0
H94 H 0.45306 0.96788 0.81911 0.0
H95 H 0.52041 0.96845 0.80975 0.0
H96 H 0.45394 0.91468 0.93942 0.0
H97 H 0.47103 0.89092 0.81187 0.0
H98 H 0.52045 0.89352 0.86075 0.0
C99 C 0.29792 0.2489 0.07599 0.0
C100 C 0.28764 0.25376 0.05695 0.0
N101 N 0.27229 0.23877 0.05365 0.0
N102 N 0.28943 0.23061 0.0844 0.0
C103 C 0.27327 0.22535 0.07075 0.0
H104 H 0.31091 0.25809 0.08311 0.0
Co105 Co 0.29761 0.21756 0.11057 0.0
C106 C 0.29208 0.17595 0.08287 0.0
O107 O 0.29008 0.18475 0.06373 0.0
N108 N 0.30541 0.20451 0.1371 0.0
C109 C 0.32216 0.18466 0.162 0.0
C110 C 0.32397 0.19413 0.142 0.0
C111 C 0.29251 0.20071 0.15437 0.0
N112 N 0.30228 0.1887 0.16964 0.0
O113 O 0.26821 0.21979 0.11996 0.0
H114 H 0.33775 0.1926 0.13142 0.0
H115 H 0.27603 0.20617 0.15577 0.0
O116 O 0.29438 0.1879 0.09957 0.0
C117 C 0.26794 0.23931 0.12673 0.0
O118 O 0.28609 0.25035 0.12637 0.0
N119 N 0.32654 0.21887 0.10187 0.0
C120 C 0.35784 0.24196 0.07999 0.0
C121 C 0.34997 0.22252 0.07146 0.0
C122 C 0.33427 0.21102 0.08281 0.0
C123 C 0.33686 0.23544 0.11204 0.0
C124 C 0.35277 0.24726 0.10135 0.0
H125 H 0.32659 0.19777 0.07477 0.0
H126 H 0.33051 0.24158 0.12708 0.0
H127 H 0.26244 0.21184 0.07317 0.0
H128 H 0.29172 0.26671 0.04592 0.0
H129 H 0.33419 0.17474 0.16987 0.0
H130 H 0.35395 0.2177 0.05514 0.0
H131 H 0.35858 0.26211 0.10855 0.0
C132 C 0.00147 0.95437 0.16736 0.0
C133 C -0.00113 0.96264 0.1877 0.0
N134 N 0.0185 0.96766 0.19548 0.0
N135 N 0.02265 0.95426 0.16233 0.0
C136 C 0.0327 0.96243 0.17988 0.0
H137 H 0.98866 0.94945 0.15659 0.0
Co138 Co 0.0331 0.94668 0.13534 0.0
C139 C 0.07684 0.93015 0.1423 0.0
O140 O 0.07252 0.91613 0.127 0.0
N141 N 0.04321 0.93979 0.10743 0.0
C142 C 0.04863 0.92647 0.07456 0.0
C143 C 0.03746 0.92395 0.09359 0.0
C144 C 0.05782 0.95172 0.09632 0.0
N145 N 0.0614 0.94401 0.07629 0.0
O146 O 0.03567 0.97681 0.12859 0.0
H147 H 0.02588 0.91134 0.09677 0.0
H148 H 0.06583 0.96578 0.10291 0.0
O149 O 0.06286 0.94467 0.14697 0.0
C150 C 0.01709 0.98117 0.12085 0.0
O151 O 0.00337 0.96525 0.11784 0.0
N152 N 0.02711 0.91773 0.14234 0.0
C153 C 0.00013 0.89314 0.16836 0.0
C154 C 0.02205 0.89517 0.17339 0.0
C155 C 0.03523 0.90795 0.16043 0.0
C156 C 0.00687 0.91261 0.13532 0.0
C157 C 0.993 0.90034 0.14816 0.0
H158 H 0.05041 0.91263 0.16734 0.0
H159 H 0.0 0.92128 0.12184 0.0
H160 H 0.04986 0.96554 0.18081 0.0
H161 H 0.98371 0.96538 0.19593 0.0
H162 H 0.04701 0.91644 0.06037 0.0
H163 H 0.02828 0.88942 0.18868 0.0
H164 H 0.97615 0.89922 0.14364 0.0
C165 C 0.27958 0.74851 0.40506 0.0
C166 C 0.26996 0.74408 0.42453 0.0
N167 N 0.26645 0.76291 0.43477 0.0
N168 N 0.28203 0.77003 0.40295 0.0
C169 C 0.27392 0.77843 0.42137 0.0
H170 H 0.28472 0.73677 0.39323 0.0
Co171 Co 0.29483 0.78259 0.37888 0.0
C172 C 0.30516 0.82718 0.39004 0.0
O173 O 0.32341 0.82375 0.37985 0.0
N174 N 0.30715 0.79495 0.35348 0.0
C175 C 0.32581 0.80262 0.32367 0.0
C176 C 0.32589 0.79138 0.34292 0.0
C177 C 0.29612 0.80848 0.34027 0.0
N178 N 0.30691 0.81319 0.32195 0.0
O179 O 0.26739 0.78242 0.36496 0.0
H180 H 0.33872 0.78098 0.34838 0.0
H181 H 0.28023 0.81466 0.34396 0.0
O182 O 0.29097 0.81208 0.39106 0.0
C183 C 0.26852 0.76567 0.35299 0.0
O184 O 0.28665 0.75468 0.35268 0.0
N185 N 0.32157 0.77905 0.39268 0.0
C186 C 0.34643 0.75528 0.42171 0.0
C187 C 0.33842 0.77562 0.42741 0.0
C188 C 0.32554 0.78696 0.4129 0.0
C189 C 0.3313 0.76045 0.38611 0.0
C190 C 0.34385 0.74832 0.40033 0.0
H191 H 0.31627 0.80007 0.4194 0.0
H192 H 0.32677 0.75328 0.37087 0.0
H193 H 0.27346 0.79552 0.42494 0.0
H194 H 0.2662 0.72822 0.43087 0.0
H195 H 0.33841 0.80242 0.31158 0.0
H196 H 0.34011 0.78172 0.4437 0.0
H197 H 0.34936 0.73255 0.39524 0.0
C198 C 0.50526 0.04412 0.66387 0.0
C199 C 0.51213 0.03574 0.68319 0.0
N200 N 0.49559 0.02477 0.69205 0.0
N201 N 0.48451 0.03839 0.66059 0.0
C202 C 0.47901 0.02663 0.6781 0.0
H203 H 0.51495 0.05334 0.65263 0.0
Co204 Co 0.46913 0.04404 0.63559 0.0
C205 C 0.42374 0.04959 0.64839 0.0
O206 O 0.42308 0.0658 0.63475 0.0
N207 N 0.45399 0.04916 0.60965 0.0
C208 C 0.44054 0.06154 0.57872 0.0
C209 C 0.45324 0.06641 0.59627 0.0
C210 C 0.44156 0.03412 0.59979 0.0
N211 N 0.43332 0.04116 0.58096 0.0
O212 O 0.47197 0.0143 0.62777 0.0
H213 H 0.46134 0.08162 0.59871 0.0
H214 H 0.43851 0.01821 0.60633 0.0
O215 O 0.44129 0.03894 0.65088 0.0
C216 C 0.49029 0.01287 0.61847 0.0
O217 O 0.5017 0.0306 0.61584 0.0
N218 N 0.46961 0.07332 0.643 0.0
C219 C 0.49004 0.10772 0.66318 0.0
C220 C 0.47164 0.09842 0.67238 0.0
C221 C 0.46198 0.08079 0.66229 0.0
C222 C 0.48606 0.08384 0.63279 0.0
C223 C 0.4965 0.1012 0.64258 0.0
H224 H 0.451 0.07133 0.67177 0.0
H225 H 0.49321 0.07682 0.61851 0.0
H226 H 0.46351 0.01883 0.68018 0.0
H227 H 0.5281 0.03735 0.69009 0.0
H228 H 0.43744 0.07197 0.56505 0.0
H229 H 0.46676 0.10256 0.68865 0.0
H230 H 0.51101 0.10773 0.6353 0.0
C231 C 0.21206 0.25253 0.90459 0.0
C232 C 0.21702 0.26054 0.92459 0.0
N233 N 0.21958 0.2438 0.93825 0.0
N234 N 0.21151 0.2308 0.90545 0.0
C235 C 0.21621 0.22589 0.92617 0.0
H236 H 0.20851 0.262 0.89038 0.0
Co237 Co 0.20274 0.21425 0.88202 0.0
C238 C 0.19636 0.16997 0.89714 0.0
O239 O 0.17884 0.16985 0.88521 0.0
N240 N 0.19424 0.19835 0.85764 0.0
C241 C 0.17999 0.18808 0.82637 0.0
C242 C 0.17708 0.20071 0.84441 0.0
C243 C 0.20706 0.18394 0.84747 0.0
N244 N 0.1989 0.17762 0.82838 0.0
O245 O 0.23156 0.21517 0.87116 0.0
H246 H 0.16383 0.21169 0.84692 0.0
H247 H 0.2229 0.17936 0.85321 0.0
O248 O 0.20819 0.18698 0.89787 0.0
C249 C 0.2322 0.23106 0.85806 0.0
O250 O 0.2141 0.24117 0.85365 0.0
N251 N 0.17451 0.21652 0.8924 0.0
C252 C 0.15033 0.24345 0.91855 0.0
C253 C 0.15576 0.22267 0.92558 0.0
C254 C 0.16824 0.20952 0.91239 0.0
C255 C 0.16599 0.23498 0.884 0.0
C256 C 0.15394 0.24887 0.8969 0.0
H257 H 0.17551 0.19579 0.92005 0.0
H258 H 0.17192 0.24107 0.86876 0.0
H259 H 0.21639 0.20958 0.93242 0.0
H260 H 0.21875 0.27744 0.92865 0.0
H261 H 0.16959 0.18752 0.81235 0.0
H262 H 0.15273 0.21767 0.94207 0.0
H263 H 0.15011 0.26478 0.89076 0.0
C264 C 0.33543 0.98267 0.04505 0.0
C265 C 0.31513 0.97752 0.03764 0.0
N266 N 0.30546 0.99585 0.03097 0.0
N267 N 0.33848 0.00414 0.0432 0.0
C268 C 0.32009 0.01168 0.03437 0.0
H269 H 0.34708 0.97156 0.05175 0.0
Co270 Co 0.36275 0.01952 0.05191 0.0
C271 C 0.34607 0.06051 0.06836 0.0
O272 O 0.35801 0.05713 0.08554 0.0
N273 N 0.38781 0.03552 0.06008 0.0
C274 C 0.41751 0.04931 0.07502 0.0
C275 C 0.40048 0.03531 0.07786 0.0
C276 C 0.39742 0.05022 0.04698 0.0
N277 N 0.41564 0.05854 0.05545 0.0
O278 O 0.37019 0.02321 0.02215 0.0
H279 H 0.39786 0.02576 0.09217 0.0
H280 H 0.39119 0.05484 0.03135 0.0
O281 O 0.3461 0.04664 0.05302 0.0
C282 C 0.38321 0.00743 0.01974 0.0
O283 O 0.3873 0.99518 0.03658 0.0
N284 N 0.35615 0.01197 0.08044 0.0
C285 C 0.34095 0.98119 0.10933 0.0
C286 C 0.32801 -0.00121 0.10359 0.0
C287 C 0.33594 0.01415 0.08905 0.0
C288 C 0.3693 0.99562 0.08714 0.0
C289 C 0.36215 0.98026 0.1019 0.0
H290 H 0.32473 0.02576 0.0825 0.0
H291 H 0.38446 0.99282 0.07901 0.0
H292 H 0.31754 0.02848 0.03039 0.0
H293 H 0.30794 0.96159 0.03764 0.0
H294 H 0.43063 0.05193 0.08625 0.0
H295 H 0.31129 -0.00049 0.10864 0.0
H296 H 0.37227 0.96648 0.10558 0.0
C297 C 0.25505 0.08549 0.2981 0.0
C298 C 0.26001 0.06682 0.2873 0.0
N299 N 0.24457 0.06319 0.27247 0.0
N300 N 0.23621 0.09341 0.29058 0.0
C301 C 0.23084 0.08 0.27425 0.0
H302 H 0.26468 0.09254 0.31074 0.0
Co303 Co 0.22139 0.11804 0.30005 0.0
C304 C 0.18364 0.08534 0.29728 0.0
O305 O 0.19531 0.06767 0.29736 0.0
N306 N 0.20672 0.14277 0.30887 0.0
C307 C 0.19536 0.17325 0.32392 0.0
C308 C 0.20992 0.15656 0.32543 0.0
C309 C 0.19022 0.15141 0.29761 0.0
N310 N 0.18308 0.16999 0.30629 0.0
O311 O 0.22069 0.12817 0.27079 0.0
H312 H 0.22236 0.15516 0.33753 0.0
H313 H 0.18379 0.14432 0.28301 0.0
O314 O 0.19292 0.10385 0.29783 0.0
C315 C 0.23812 0.13906 0.26908 0.0
O316 O 0.25024 0.14116 0.28637 0.0
N317 N 0.22492 0.10925 0.32886 0.0
C318 C 0.24702 0.08725 0.36066 0.0
C319 C 0.2261 0.08085 0.35496 0.0
C320 C 0.215 0.09247 0.33919 0.0
C321 C 0.24356 0.11771 0.33692 0.0
C322 C 0.25489 0.10701 0.35307 0.0
H323 H 0.19946 0.08665 0.33435 0.0
H324 H 0.25131 0.13101 0.32866 0.0
H325 H 0.21668 0.08218 0.26427 0.0
H326 H 0.27345 0.05626 0.29082 0.0
H327 H 0.19459 0.18721 0.33438 0.0
H328 H 0.21928 0.06594 0.36111 0.0
H329 H 0.27099 0.1125 0.35718 0.0
C330 C 0.15916 0.01068 0.5406 0.0
C331 C 0.17728 0.01951 0.53124 0.0
N332 N 0.189 0.00332 0.5228 0.0
N333 N 0.15949 0.98908 0.53794 0.0
C334 C 0.1779 0.98508 0.52707 0.0
H335 H 0.14639 0.01943 0.54862 0.0
Co336 Co 0.1377 0.97062 0.54683 0.0
C337 C 0.16457 0.92885 0.53261 0.0
O338 O 0.17234 0.92792 0.51292 0.0
N339 N 0.11512 0.9521 0.55561 0.0
C340 C 0.08778 0.93706 0.57346 0.0
C341 C 0.10657 0.94874 0.57541 0.0
C342 C 0.10154 0.94157 0.54209 0.0
N343 N 0.08453 0.9328 0.55242 0.0
O344 O 0.12554 0.97289 0.51887 0.0
H345 H 0.11278 0.95515 0.59035 0.0
H346 H 0.1031 0.94163 0.52472 0.0
O347 O 0.15386 0.94546 0.53833 0.0
C348 C 0.11144 0.98779 0.51901 0.0
O349 O 0.10693 0.9972 0.53747 0.0
N350 N 0.1496 0.97114 0.57432 0.0
C351 C 0.17417 0.99353 0.60426 0.0
C352 C 0.18239 0.97493 0.5943 0.0
C353 C 0.16987 0.964 0.5791 0.0
C354 C 0.14045 0.98739 0.58595 0.0
C355 C 0.15242 -0.00123 0.60117 0.0
H356 H 0.17761 0.95189 0.56937 0.0
H357 H 0.12478 0.99349 0.58127 0.0
H358 H 0.18286 0.96926 0.52177 0.0
H359 H 0.18148 0.03647 0.53065 0.0
H360 H 0.07679 0.933 0.58643 0.0
H361 H 0.1991 0.9703 0.59648 0.0
H362 H 0.1455 0.01312 0.60833 0.0
C363 C 0.23709 0.92008 0.79502 0.0
C364 C 0.2337 0.94048 0.78708 0.0
N365 N 0.25242 0.94768 0.77875 0.0
N366 N 0.25784 0.91444 0.79162 0.0
C367 C 0.26683 0.93167 0.78172 0.0
H368 H 0.22494 0.90967 0.80203 0.0
Co369 Co 0.26901 0.88704 0.79671 0.0
C370 C 0.31582 0.89234 0.80588 0.0
O371 O 0.31571 0.87405 0.81656 0.0
N372 N 0.2795 0.85869 0.80139 0.0
C373 C 0.28607 0.82584 0.81449 0.0
C374 C 0.27773 0.84583 0.819 0.0
C375 C 0.28932 0.84599 0.78653 0.0
N376 N 0.29324 0.82596 0.79403 0.0
O377 O 0.26992 0.88235 0.76633 0.0
H378 H 0.27088 0.85035 0.83433 0.0
H379 H 0.29304 0.85103 0.77025 0.0
O380 O 0.29851 0.89925 0.79702 0.0
C381 C 0.25086 0.87631 0.76152 0.0
O382 O 0.23652 0.87439 0.77701 0.0
N383 N 0.26526 0.89177 0.82609 0.0
C384 C 0.24292 0.91149 0.85925 0.0
C385 C 0.26411 0.91786 0.85447 0.0
C386 C 0.27504 0.90787 0.83754 0.0
C387 C 0.24583 0.88362 0.83249 0.0
C388 C 0.23441 0.89314 0.84925 0.0
H389 H 0.28985 0.91513 0.83206 0.0
H390 H 0.23792 0.87149 0.82273 0.0
H391 H 0.28324 0.93208 0.77575 0.0
H392 H 0.21856 0.94918 0.78697 0.0
H393 H 0.28664 0.81219 0.8254 0.0
H394 H 0.27105 0.93219 0.86174 0.0
H395 H 0.21807 0.88785 0.85256 0.0
C396 C 0.32844 0.00727 0.44328 0.0
C397 C 0.30819 0.01166 0.45102 0.0
N398 N 0.30121 0.99446 0.4625 0.0
N399 N 0.3343 0.98734 0.44964 0.0
C400 C 0.31748 0.97994 0.46131 0.0
H401 H 0.33862 0.01828 0.43435 0.0
Co402 Co 0.36133 0.97506 0.44555 0.0
C403 C 0.35438 0.92873 0.43897 0.0
O404 O 0.3694 0.92966 0.42405 0.0
N405 N 0.38912 0.96316 0.44225 0.0
C406 C 0.42344 0.9564 0.4341 0.0
C407 C 0.40493 0.96678 0.42762 0.0
C408 C 0.39847 0.95027 0.45724 0.0
N409 N 0.41927 0.94608 0.45273 0.0
O410 O 0.36673 0.978 0.47575 0.0
H411 H 0.40365 0.97675 0.41343 0.0
H412 H 0.39042 0.94482 0.47176 0.0
O413 O 0.34894 0.94582 0.44921 0.0
C414 C 0.37295 0.99745 0.47831 0.0
O415 O 0.37465 0.00994 0.46124 0.0
N416 N 0.35599 0.97518 0.41577 0.0
C417 C 0.3339 0.99621 0.38308 0.0
C418 C 0.32692 0.97594 0.39025 0.0
C419 C 0.33811 0.96573 0.40689 0.0
C420 C 0.36466 0.99324 0.40659 0.0
C421 C 0.35402 0.00387 0.38992 0.0
H422 H 0.33007 0.95254 0.41476 0.0
H423 H 0.37759 0.00171 0.41468 0.0
H424 H 0.31759 0.96442 0.46926 0.0
H425 H 0.29981 0.0268 0.44895 0.0
H426 H 0.43893 0.95684 0.42603 0.0
H427 H 0.31127 0.96968 0.38555 0.0
H428 H 0.3598 0.01959 0.3848 0.0
C429 C 0.24126 0.08645 0.69472 0.0
C430 C 0.23326 0.06669 0.70084 0.0
N431 N 0.24918 0.05552 0.71063 0.0
N432 N 0.26214 0.08781 0.70053 0.0
C433 C 0.26655 0.0688 0.71018 0.0
H434 H 0.23236 0.09919 0.68679 0.0
Co435 Co 0.27905 0.11211 0.69636 0.0
C436 C 0.32439 0.09836 0.69578 0.0
O437 O 0.32682 0.11188 0.67965 0.0
N438 N 0.29567 0.1375 0.69278 0.0
C439 C 0.31104 0.16851 0.68281 0.0
C440 C 0.29861 0.15125 0.67606 0.0
C441 C 0.30649 0.14677 0.70932 0.0
N442 N 0.31573 0.16562 0.7038 0.0
O443 O 0.27292 0.12059 0.72542 0.0
H444 H 0.29188 0.1493 0.66012 0.0
H445 H 0.30739 0.14 0.72539 0.0
O446 O 0.30579 0.09607 0.70465 0.0
C447 C 0.25727 0.1338 0.72337 0.0
O448 O 0.25008 0.13786 0.70383 0.0
N449 N 0.28159 0.10422 0.66729 0.0
C450 C 0.26205 0.08208 0.63366 0.0
C451 C 0.2801 0.0734 0.64394 0.0
C452 C 0.28933 0.08451 0.66115 0.0
C453 C 0.26601 0.11415 0.65533 0.0
C454 C 0.25577 0.10321 0.63851 0.0
H455 H 0.29977 0.07542 0.67146 0.0
H456 H 0.25896 0.12904 0.66105 0.0
H457 H 0.28218 0.06488 0.71679 0.0
H458 H 0.21677 0.06137 0.69872 0.0
H459 H 0.31544 0.18254 0.67333 0.0
H460 H 0.28488 0.05684 0.64101 0.0
H461 H 0.24154 0.11016 0.63112 0.0
C462 C 0.1668 0.99071 0.94741 0.0
C463 C 0.1847 0.98062 0.95561 0.0
N464 N 0.19203 0.99227 0.97244 0.0
N465 N 0.16303 0.00902 0.95859 0.0
C466 C 0.17818 0.00903 0.97423 0.0
H467 H 0.1573 0.98499 0.93401 0.0
Co468 Co 0.14093 0.02912 0.95345 0.0
C469 C 0.17802 0.06255 0.96192 0.0
O470 O 0.19536 0.05049 0.96342 0.0
N471 N 0.11905 0.04935 0.94834 0.0
C472 C 0.10308 0.0795 0.93708 0.0
C473 C 0.11941 0.06508 0.93318 0.0
C474 C 0.1022 0.05454 0.96114 0.0
N475 N 0.0924 0.07292 0.9548 0.0
O476 O 0.13293 0.0272 0.98335 0.0
H477 H 0.13162 0.06689 0.92085 0.0
H478 H 0.09804 0.04592 0.97572 0.0
O479 O 0.15965 0.05383 0.95845 0.0
C480 C 0.12234 0.00956 0.98497 0.0
O481 O 0.11885 0.9983 0.96733 0.0
N482 N 0.14762 0.02866 0.92409 0.0
C483 C 0.16362 0.00689 0.88897 0.0
C484 C 0.17513 0.02435 0.89759 0.0
C485 C 0.1669 0.035 0.91551 0.0
C486 C 0.13429 0.01516 0.91294 0.0
C487 C 0.14209 0.00383 0.89513 0.0
H488 H 0.17732 0.04611 0.92376 0.0
H489 H 0.11898 0.01048 0.91994 0.0
H490 H 0.17896 0.02117 0.98674 0.0
H491 H 0.1921 0.96621 0.94911 0.0
H492 H 0.09983 0.09409 0.92803 0.0
H493 H 0.19164 0.02747 0.89271 0.0
H494 H 0.13265 0.9906 0.88865 0.0
C495 C 0.25152 0.92626 0.18789 0.0
C496 C 0.25995 0.94492 0.19612 0.0
N497 N 0.2483 0.95042 0.21346 0.0
N498 N 0.23456 0.91954 0.20006 0.0
C499 C 0.23314 0.93486 0.21567 0.0
H500 H 0.25789 0.91838 0.17387 0.0
Co501 Co 0.21641 0.89469 0.19563 0.0
C502 C 0.18475 0.92275 0.2038 0.0
O503 O 0.1944 0.93149 0.18706 0.0
N504 N 0.19852 0.87094 0.19105 0.0
C505 C 0.176 0.84801 0.1751 0.0
C506 C 0.18764 0.86676 0.17266 0.0
C507 C 0.19276 0.85484 0.20467 0.0
N508 N 0.1792 0.84062 0.19525 0.0
O509 O 0.22997 0.87982 0.22078 0.0
H510 H 0.18792 0.87675 0.15838 0.0
H511 H 0.1986 0.85331 0.22105 0.0
O512 O 0.19393 0.90683 0.2132 0.0
C513 C 0.24876 0.88146 0.22938 0.0
O514 O 0.26293 0.89491 0.22115 0.0
N515 N 0.23604 0.88343 0.1757 0.0
C516 C 0.26712 0.88467 0.14379 0.0
C517 C 0.24627 0.89227 0.13957 0.0
C518 C 0.23102 0.89176 0.15597 0.0
C519 C 0.25441 0.87163 0.1784 0.0
C520 C 0.27059 0.87249 0.16262 0.0
H521 H 0.21629 0.90087 0.15399 0.0
H522 H 0.25759 0.86317 0.19324 0.0
H523 H 0.22122 0.93473 0.22842 0.0
H524 H 0.27327 0.95412 0.18947 0.0
H525 H 0.16588 0.84042 0.16304 0.0
H526 H 0.24278 0.9017 0.12526 0.0
H527 H 0.28632 0.86575 0.16609 0.0
C528 C 0.03897 0.33405 0.99021 0.0
C529 C 0.03106 0.31396 0.98501 0.0
N530 N 0.02526 0.3039 0.00342 0.0
N531 N 0.03821 0.33665 0.01178 0.0
C532 C 0.02976 0.31802 0.01941 0.0
H533 H 0.04484 0.34609 0.97899 0.0
Co534 Co 0.04644 0.3618 0.02598 0.0
C535 C 0.06049 0.34802 0.06875 0.0
O536 O 0.07763 0.36024 0.06607 0.0
N537 N 0.05428 0.38807 0.0403 0.0
C538 C 0.06971 0.41932 0.04947 0.0
C539 C 0.07287 0.39962 0.03982 0.0
C540 C 0.04044 0.40098 0.05129 0.0
N541 N 0.04923 0.42017 0.05649 0.0
O542 O 0.01684 0.36898 0.02834 0.0
H543 H 0.08782 0.39464 0.03248 0.0
H544 H 0.02368 0.39715 0.05425 0.0
O545 O 0.04621 0.34691 0.0539 0.0
C546 C 0.01353 0.38176 0.01258 0.0
O547 O 0.02994 0.38753 0.00042 0.0
N548 N 0.07506 0.35476 0.02017 0.0
C549 C 0.10615 0.33714 0.99324 0.0
C550 C 0.09996 0.32638 0.0122 0.0
C551 C 0.08407 0.33532 0.02532 0.0
C552 C 0.08239 0.36624 0.00286 0.0
C553 C 0.09831 0.35796 0.98943 0.0
H554 H 0.07707 0.32514 0.0376 0.0
H555 H 0.07414 0.38083 0.99801 0.0
H556 H 0.02651 0.31503 0.0363 0.0
H557 H 0.02983 0.30722 0.96895 0.0
H558 H 0.0813 0.43239 0.05041 0.0
H559 H 0.10517 0.31001 0.01541 0.0
H560 H 0.10266 0.36673 0.97494 0.0
C561 C 0.52841 0.16072 0.00382 0.0
C562 C 0.5192 0.18032 0.00832 0.0
N563 N 0.51392 0.18974 0.98949 0.0
N564 N 0.52881 0.15781 0.98227 0.0
C565 C 0.51994 0.17583 0.9739 0.0
H566 H 0.53434 0.14923 0.01553 0.0
Co567 Co 0.53898 0.13294 0.96939 0.0
C568 C 0.55192 0.1444 0.92538 0.0
O569 O 0.56954 0.13328 0.92919 0.0
N570 N 0.54853 0.10715 0.95682 0.0
C571 C 0.5605 0.07391 0.95034 0.0
C572 C 0.56302 0.09207 0.963 0.0
C573 C 0.53763 0.09783 0.94041 0.0
N574 N 0.54464 0.07785 0.9361 0.0
O575 O 0.5099 0.12237 0.96792 0.0
H576 H 0.57377 0.09336 0.97662 0.0
H577 H 0.52374 0.10504 0.93265 0.0
O578 O 0.53749 0.14629 0.94014 0.0
C579 C 0.50743 0.11259 0.98588 0.0
O580 O 0.52422 0.1107 -0.0013 0.0
N581 N 0.56701 0.14324 0.97423 0.0
C582 C 0.59223 0.1693 0.00066 0.0
C583 C 0.5868 0.17606 0.9798 0.0
C584 C 0.57369 0.16305 0.96703 0.0
C585 C 0.57476 0.13525 0.99321 0.0
C586 C 0.58744 0.14803 0.00674 0.0
H587 H 0.56636 0.17067 0.9533 0.0
H588 H 0.56805 0.12056 -0.0002 0.0
H589 H 0.51745 0.17855 0.95683 0.0
H590 H 0.51661 0.18717 0.02417 0.0
H591 H 0.56869 0.05861 0.95228 0.0
H592 H 0.59045 0.1923 0.97438 0.0
H593 H 0.59103 0.14222 0.02283 0.0
C594 C 0.0763 0.29449 0.25306 0.0
C595 C 0.05688 0.28526 0.25851 0.0
N596 N 0.05185 0.27069 0.24327 0.0
N597 N 0.08328 0.28618 0.23413 0.0
C598 C 0.06836 0.27107 0.22913 0.0
H599 H 0.08484 0.30615 0.26273 0.0
Co600 Co 0.10946 0.29171 0.21957 0.0
C601 C 0.07775 0.29106 0.18149 0.0
O602 O 0.06027 0.29496 0.1928 0.0
N603 N 0.13562 0.29668 0.20495 0.0
C604 C 0.1582 0.30791 0.17936 0.0
C605 C 0.13973 0.31266 0.19067 0.0
C606 C 0.15209 0.28261 0.20214 0.0
N607 N 0.16584 0.2888 0.1864 0.0
O608 O 0.11539 0.2615 0.22056 0.0
H609 H 0.12909 0.32604 0.1873 0.0
H610 H 0.15345 0.26748 0.21067 0.0
O611 O 0.09602 0.28945 0.191 0.0
C612 C 0.12175 0.25843 0.23991 0.0
O613 O 0.12307 0.2752 0.25285 0.0
N614 N 0.10436 0.32153 0.22138 0.0
C615 C 0.08232 0.35383 0.24232 0.0
C616 C 0.07796 0.34947 0.22054 0.0
C617 C 0.08943 0.33316 0.21016 0.0
C618 C 0.11241 0.32935 0.24026 0.0
C619 C 0.1014 0.34557 0.25129 0.0
H620 H 0.08489 0.32895 0.19401 0.0
H621 H 0.12486 0.32043 0.24861 0.0
H622 H 0.06947 0.26061 0.21519 0.0
H623 H 0.04697 0.28932 0.27231 0.0
H624 H 0.16447 0.31707 0.16586 0.0
H625 H 0.06428 0.35672 0.21245 0.0
H626 H 0.10584 0.34887 0.26786 0.0
C627 C 0.96498 0.83813 0.50649 0.0
C628 C 0.97359 0.81808 0.51034 0.0
N629 N 0.97765 0.80864 0.4912 0.0
N630 N 0.96361 0.84131 0.48503 0.0
C631 C 0.97144 0.82306 0.47608 0.0
H632 H 0.95995 0.84968 0.51855 0.0
Co633 Co 0.95324 0.8665 0.47271 0.0
C634 C 0.93591 0.85502 0.43015 0.0
O635 O 0.92074 0.86919 0.43428 0.0
N636 N 0.94342 0.89278 0.46054 0.0
C637 C 0.92777 0.92411 0.45256 0.0
C638 C 0.92668 0.90594 0.4653 0.0
C639 C 0.95429 0.90339 0.44484 0.0
N640 N 0.94526 0.9225 0.4398 0.0
O641 O 0.98249 0.876 0.469 0.0
H642 H 0.9145 0.90303 0.47736 0.0
H643 H 0.96874 0.8972 0.43727 0.0
O644 O 0.95136 0.85238 0.44374 0.0
C645 C 0.98497 0.88724 0.48612 0.0
O646 O 0.96811 0.88994 0.4987 0.0
N647 N 0.92541 0.85738 0.48001 0.0
C648 C 0.89504 0.83632 0.50533 0.0
C649 C 0.90157 0.82739 0.48574 0.0
C650 C 0.91732 0.83785 0.47363 0.0
C651 C 0.91818 0.86678 0.49856 0.0
C652 C 0.90286 0.85654 0.51147 0.0
H653 H 0.92498 0.82865 0.46109 0.0
H654 H 0.9262 0.88098 0.50477 0.0
H655 H 0.97284 0.82046 0.45888 0.0
H656 H 0.97634 0.81087 0.52602 0.0
H657 H 0.91699 0.93782 0.45329 0.0
H658 H 0.89661 0.81121 0.48124 0.0
H659 H 0.89874 0.86335 0.52703 0.0
C660 C 0.90117 0.21129 0.25764 0.0
C661 C 0.92035 0.2179 0.26663 0.0
N662 N 0.93501 0.22025 0.25069 0.0
N663 N 0.90364 0.20952 0.23614 0.0
C664 C 0.92436 0.21505 0.23237 0.0
H665 H 0.88635 0.20785 0.26621 0.0
Co666 Co 0.88221 0.20025 0.21748 0.0
C667 C 0.90288 0.19024 0.17585 0.0
O668 O 0.89025 0.17323 0.175 0.0
N669 N 0.85986 0.19124 0.19891 0.0
C670 C 0.83217 0.17513 0.1827 0.0
C671 C 0.84739 0.1733 0.19872 0.0
C672 C 0.85191 0.20356 0.18277 0.0
N673 N 0.835 0.19427 0.17278 0.0
O674 O 0.87271 0.2295 0.21497 0.0
H675 H 0.8487 0.15982 0.20964 0.0
H676 H 0.85827 0.2193 0.17858 0.0
O677 O 0.90191 0.20298 0.19214 0.0
C678 C 0.85708 0.23095 0.22829 0.0
O679 O 0.85061 0.21322 0.23807 0.0
N680 N 0.89071 0.17198 0.22321 0.0
C681 C 0.90898 0.14142 0.25039 0.0
C682 C 0.9204 0.14918 0.23248 0.0
C683 C 0.91117 0.16485 0.21944 0.0
C684 C 0.87861 0.16295 0.23925 0.0
C685 C 0.88734 0.14737 0.25292 0.0
H686 H 0.92182 0.17356 0.20899 0.0
H687 H 0.8631 0.16983 0.24326 0.0
H688 H 0.93158 0.21478 0.21652 0.0
H689 H 0.92306 0.22097 0.28359 0.0
H690 H 0.81934 0.16373 0.17937 0.0
H691 H 0.93739 0.14568 0.23037 0.0
H692 H 0.87806 0.14188 0.26669 0.0
C693 C 0.45652 0.669 0.4936 0.0
C694 C 0.46302 0.68973 0.48925 0.0
N695 N 0.47126 0.69833 0.50746 0.0
N696 N 0.46049 0.66448 0.5145 0.0
C697 C 0.46959 0.6826 0.52252 0.0
H698 H 0.44963 0.65779 0.48214 0.0
Co699 Co 0.45511 0.63797 0.52769 0.0
C700 C 0.44455 0.64712 0.57301 0.0
O701 O 0.43084 0.63096 0.5724 0.0
N702 N 0.4504 0.61062 0.54063 0.0
C703 C 0.44004 0.57704 0.54845 0.0
C704 C 0.43484 0.59558 0.53743 0.0
C705 C 0.46458 0.6008 0.5541 0.0
N706 N 0.45874 0.58041 0.55888 0.0
O707 O 0.4854 0.63257 0.52813 0.0
H708 H 0.42076 0.59739 0.52742 0.0
H709 H 0.47947 0.60811 0.55958 0.0
O710 O 0.4556 0.65198 0.55626 0.0
C711 C 0.48881 0.62464 0.50946 0.0
O712 O 0.4723 0.62208 0.4964 0.0
N713 N 0.42558 0.64308 0.52405 0.0
C714 C 0.39554 0.66355 0.49789 0.0
C715 C 0.40051 0.67194 0.51832 0.0
C716 C 0.41566 0.66141 0.53125 0.0
C717 C 0.41864 0.6333 0.5056 0.0
C718 C 0.40325 0.64303 0.49249 0.0
H719 H 0.42171 0.67 0.54506 0.0
H720 H 0.42751 0.61977 0.49912 0.0
H721 H 0.47493 0.68421 0.53905 0.0
H722 H 0.46229 0.69759 0.47367 0.0
H723 H 0.43107 0.56201 0.54837 0.0
H724 H 0.39502 0.68783 0.52308 0.0
H725 H 0.39962 0.63587 0.47697 0.0
C726 C 0.08352 0.71369 0.23775 0.0
C727 C 0.06456 0.72276 0.23083 0.0
N728 N 0.05402 0.73023 0.24823 0.0
N729 N 0.08493 0.71562 0.25938 0.0
C730 C 0.0666 0.72571 0.26539 0.0
H731 H 0.09582 0.70661 0.22762 0.0
Co732 Co 0.10936 0.70764 0.27443 0.0
C733 C 0.09675 0.69866 0.31904 0.0
O734 O 0.10889 0.68138 0.31751 0.0
N735 N 0.13494 0.70015 0.28901 0.0
C736 C 0.16738 0.68786 0.29818 0.0
C737 C 0.14907 0.68377 0.2863 0.0
C738 C 0.1449 0.71364 0.30299 0.0
N739 N 0.1647 0.70675 0.30853 0.0
O740 O 0.11865 0.73718 0.2738 0.0
H741 H 0.147 0.67015 0.27569 0.0
H742 H 0.13838 0.72908 0.30787 0.0
O743 O 0.09462 0.71133 0.30276 0.0
C744 C 0.1302 0.73926 0.25688 0.0
O745 O 0.13409 0.72191 0.24532 0.0
N746 N 0.10033 0.67888 0.27185 0.0
C747 C 0.07865 0.64649 0.24962 0.0
C748 C 0.06986 0.65521 0.2685 0.0
C749 C 0.08073 0.67177 0.27913 0.0
C750 C 0.10994 0.66906 0.25467 0.0
C751 C 0.09952 0.65255 0.24349 0.0
H752 H 0.0718 0.68065 0.29106 0.0
H753 H 0.12429 0.67608 0.24764 0.0
H754 H 0.06295 0.73044 0.28179 0.0
H755 H 0.05904 0.72406 0.21431 0.0
H756 H 0.18194 0.67824 0.29835 0.0
H757 H 0.05362 0.65108 0.27352 0.0
H758 H 0.10659 0.64661 0.22866 0.0
C759 C 0.41742 0.2999 0.74369 0.0
C760 C 0.43527 0.28973 0.73544 0.0
N761 N 0.44116 0.27434 0.74949 0.0
N762 N 0.41231 0.29117 0.76305 0.0
C763 C 0.42688 0.27523 0.76584 0.0
H764 H 0.40838 0.3124 0.73564 0.0
Co765 Co 0.38725 0.29721 0.77882 0.0
C766 C 0.41926 0.29319 0.81752 0.0
O767 O 0.43764 0.29062 0.80735 0.0
N768 N 0.36187 0.30312 0.7943 0.0
C769 C 0.33798 0.31821 0.81648 0.0
C770 C 0.35763 0.32071 0.80651 0.0
C771 C 0.34461 0.29007 0.7974 0.0
N772 N 0.32996 0.29885 0.81082 0.0
O773 O 0.38059 0.26697 0.77851 0.0
H774 H 0.36841 0.33427 0.80872 0.0
H775 H 0.34274 0.27428 0.79025 0.0
O776 O 0.40172 0.29533 0.80684 0.0
C777 C 0.37305 0.26353 0.75965 0.0
O778 O 0.37035 0.28003 0.74658 0.0
N779 N 0.39327 0.32671 0.77652 0.0
C780 C 0.40993 0.3626 0.75591 0.0
C781 C 0.41948 0.35502 0.77492 0.0
C782 C 0.41098 0.33676 0.78495 0.0
C783 C 0.38172 0.33616 0.76038 0.0
C784 C 0.38994 0.35414 0.74958 0.0
H785 H 0.42017 0.32964 0.79777 0.0
H786 H 0.36777 0.32791 0.75387 0.0
H787 H 0.42663 0.26396 0.77919 0.0
H788 H 0.44344 0.29344 0.72044 0.0
H789 H 0.33055 0.32935 0.82769 0.0
H790 H 0.43497 0.3612 0.78023 0.0
H791 H 0.38217 0.35966 0.73493 0.0
C792 C 0.4944 0.53222 0.83494 0.0
C793 C 0.48989 0.52366 0.81504 0.0
N794 N 0.50868 0.51827 0.80557 0.0
N795 N 0.51592 0.53221 0.83804 0.0
C796 C 0.52425 0.52365 0.81984 0.0
H797 H 0.48274 0.53831 0.84638 0.0
Co798 Co 0.52873 0.54264 0.86295 0.0
C799 C 0.57354 0.55271 0.85264 0.0
O800 O 0.57056 0.57085 0.86316 0.0
N801 N 0.54113 0.55276 0.88875 0.0
C802 C 0.55011 0.56959 0.91912 0.0
C803 C 0.53774 0.57065 0.90074 0.0
C804 C 0.55566 0.54124 0.90017 0.0
N805 N 0.56131 0.55099 0.91875 0.0
O806 O 0.52851 0.51397 0.87427 0.0
H807 H 0.52684 0.58362 0.89687 0.0
H808 H 0.56195 0.52586 0.89487 0.0
O809 O 0.55799 0.5392 0.85052 0.0
C810 C 0.51053 0.51292 0.8842 0.0
O811 O 0.49904 0.53061 0.88619 0.0
N812 N 0.52558 0.57034 0.85184 0.0
C813 C 0.50112 0.5972 0.82577 0.0
C814 C 0.5217 0.5906 0.81916 0.0
C815 C 0.53349 0.57665 0.83223 0.0
C816 C 0.5069 0.57893 0.85956 0.0
C817 C 0.49444 0.59251 0.84685 0.0
H818 H 0.54702 0.56861 0.82497 0.0
H819 H 0.49983 0.57253 0.87417 0.0
H820 H 0.54133 0.52129 0.8171 0.0
H821 H 0.47404 0.52195 0.8079 0.0
H822 H 0.55015 0.58125 0.93213 0.0
H823 H 0.52754 0.59406 0.80305 0.0
H824 H 0.47852 0.59684 0.85256 0.0
C825 C 0.70571 0.24208 0.07884 0.0
C826 C 0.71291 0.23785 0.05832 0.0
N827 N 0.72183 0.25604 0.05036 0.0
N828 N 0.71008 0.26285 0.08375 0.0
C829 C 0.7199 0.27096 0.06607 0.0
H830 H 0.69808 0.23068 0.08965 0.0
Co831 Co 0.70526 0.27586 0.11034 0.0
C832 C 0.69174 0.31996 0.09934 0.0
O833 O 0.67519 0.31765 0.11232 0.0
N834 N 0.70088 0.28893 0.13785 0.0
C835 C 0.68771 0.30276 0.16848 0.0
C836 C 0.68265 0.29242 0.14948 0.0
C837 C 0.71672 0.29722 0.15044 0.0
N838 N 0.70914 0.30555 0.1689 0.0
O839 O 0.73567 0.27718 0.11429 0.0
H840 H 0.66647 0.28831 0.14447 0.0
H841 H 0.73364 0.29756 0.14632 0.0
O842 O 0.70502 0.30446 0.09659 0.0
C843 C 0.74075 0.25838 0.12087 0.0
O844 O 0.7253 0.24413 0.12392 0.0
N845 N 0.67578 0.27136 0.10633 0.0
C846 C 0.64319 0.24486 0.09075 0.0
C847 C 0.64891 0.26382 0.07967 0.0
C848 C 0.66544 0.27682 0.08766 0.0
C849 C 0.66865 0.25445 0.11852 0.0
C850 C 0.65207 0.24116 0.11119 0.0
H851 H 0.672 0.28903 0.0771 0.0
H852 H 0.67768 0.24957 0.13264 0.0
H853 H 0.72616 0.28724 0.06498 0.0
H854 H 0.71169 0.22259 0.04989 0.0
H855 H 0.67663 0.30769 0.18105 0.0
H856 H 0.6428 0.2671 0.06364 0.0
H857 H 0.64798 0.2268 0.12032 0.0
C858 C 0.00767 0.45846 0.33144 0.0
C859 C 0.01177 0.46589 0.31092 0.0
N860 N 0.99307 0.47302 0.30247 0.0
N861 N 0.98651 0.46097 0.33582 0.0
C862 C 0.97804 0.46991 0.31787 0.0
H863 H 0.01934 0.45177 0.34254 0.0
Co864 Co 0.97316 0.45454 0.36181 0.0
C865 C 0.92879 0.44291 0.35135 0.0
O866 O 0.93153 0.42648 0.36446 0.0
N867 N 0.95958 0.44894 0.38865 0.0
C868 C 0.94688 0.43748 0.4204 0.0
C869 C 0.95942 0.43219 0.40275 0.0
C870 C 0.94689 0.46393 0.39811 0.0
N871 N 0.9393 0.45756 0.41734 0.0
O872 O 0.97408 0.48462 0.36864 0.0
H873 H 0.96766 0.41702 0.4006 0.0
H874 H 0.94306 0.47943 0.39106 0.0
O875 O 0.94425 0.45634 0.34822 0.0
C876 C 0.99178 0.48597 0.37909 0.0
O877 O 0.00275 0.46811 0.38236 0.0
N878 N 0.97604 0.42521 0.35516 0.0
C879 C 0.0027 0.39582 0.33432 0.0
C880 C 0.98339 0.40267 0.32466 0.0
C881 C 0.97024 0.41741 0.33536 0.0
C882 C 0.99313 0.41646 0.36589 0.0
C883 C 0.00643 0.40136 0.35593 0.0
H884 H 0.95789 0.42526 0.32597 0.0
H885 H -0.00142 0.42362 0.38083 0.0
H886 H 0.96131 0.47457 0.31624 0.0
H887 H 0.02723 0.46598 0.3028 0.0
H888 H 0.94406 0.42766 0.43458 0.0
H889 H 0.97987 0.39913 0.30792 0.0
H890 H 0.0209 0.39613 0.36419 0.0
C891 C 0.80179 0.75716 0.57858 0.0
C892 C 0.79598 0.76088 0.55749 0.0
N893 N 0.78466 0.74368 0.55031 0.0
N894 N 0.79441 0.73761 0.58464 0.0
C895 C 0.78385 0.72992 0.56725 0.0
H896 H 0.81097 0.76793 0.58879 0.0
Co897 Co 0.7981 0.72459 0.61137 0.0
C898 C 0.80665 0.67914 0.6019 0.0
O899 O 0.82213 0.68017 0.61633 0.0
N900 N 0.80109 0.71145 0.63876 0.0
C901 C 0.8108 0.69865 0.67097 0.0
C902 C 0.81741 0.7104 0.65328 0.0
C903 C 0.78491 0.70013 0.64812 0.0
N904 N 0.79031 0.69244 0.66762 0.0
O905 O 0.76781 0.72735 0.61628 0.0
H906 H 0.83326 0.71733 0.65136 0.0
H907 H 0.7694 0.69718 0.6407 0.0
O908 O 0.79491 0.69575 0.59824 0.0
C909 C 0.76574 0.74585 0.62504 0.0
O910 O 0.78321 0.75761 0.62779 0.0
N911 N 0.82794 0.7251 0.60662 0.0
C912 C 0.86357 0.74576 0.58922 0.0
C913 C 0.85535 0.72714 0.57944 0.0
C914 C 0.83725 0.71712 0.58827 0.0
C915 C 0.83737 0.74176 0.61751 0.0
C916 C 0.85554 0.75213 0.60926 0.0
H917 H 0.82899 0.70545 0.57835 0.0
H918 H 0.82901 0.74911 0.63094 0.0
H919 H 0.77543 0.71463 0.56723 0.0
H920 H 0.80008 0.77511 0.54823 0.0
H921 H 0.82016 0.69528 0.68534 0.0
H922 H 0.8608 0.72237 0.56354 0.0
H923 H 0.8611 0.76692 0.61678 0.0
C924 C 0.48989 0.45706 0.65675 0.0
C925 C 0.48256 0.46311 0.67673 0.0
N926 N 0.49979 0.46726 0.68932 0.0
N927 N 0.51162 0.45733 0.65671 0.0
C928 C 0.51725 0.46376 0.67674 0.0
H929 H 0.48002 0.45209 0.64324 0.0
Co930 Co 0.52745 0.44733 0.63351 0.0
C931 C 0.5714 0.43963 0.64846 0.0
O932 O 0.57006 0.42107 0.63834 0.0
N933 N 0.54303 0.43746 0.60901 0.0
C934 C 0.552 0.42116 0.57831 0.0
C935 C 0.54175 0.41874 0.59784 0.0
C936 C 0.55505 0.45053 0.59622 0.0
N937 N 0.56008 0.44131 0.57724 0.0
O938 O 0.52697 0.47589 0.6216 0.0
H939 H 0.5329 0.40455 0.60266 0.0
H940 H 0.55833 0.46732 0.59978 0.0
O941 O 0.55523 0.45254 0.64862 0.0
C942 C 0.51191 0.47562 0.60756 0.0
O943 O 0.50144 0.45743 0.60432 0.0
N944 N 0.52435 0.41951 0.64488 0.0
C945 C 0.4986 0.39159 0.66873 0.0
C946 C 0.51766 0.39994 0.67759 0.0
C947 C 0.53031 0.41406 0.66543 0.0
C948 C 0.50705 0.40972 0.63543 0.0
C949 C 0.49412 0.39539 0.64696 0.0
H950 H 0.54272 0.42288 0.67383 0.0
H951 H 0.50134 0.41537 0.61994 0.0
H952 H 0.53376 0.46489 0.68231 0.0
H953 H 0.46584 0.46427 0.68162 0.0
H954 H 0.55214 0.40953 0.56528 0.0
H955 H 0.52148 0.39742 0.69447 0.0
H956 H 0.4793 0.38959 0.6397 0.0
C957 C 0.7798 0.23781 0.90075 0.0
C958 C 0.77276 0.23055 0.92043 0.0
N959 N 0.77251 0.24739 0.93416 0.0
N960 N 0.784 0.25911 0.90203 0.0
C961 C 0.77923 0.26461 0.92255 0.0
H962 H 0.78235 0.22808 0.8865 0.0
Co963 Co 0.79666 0.27379 0.87943 0.0
C964 C 0.8074 0.3173 0.89431 0.0
O965 O 0.82577 0.31469 0.88405 0.0
N966 N 0.8091 0.2881 0.85554 0.0
C967 C 0.82699 0.29565 0.82539 0.0
C968 C 0.82743 0.28421 0.84447 0.0
C969 C 0.79819 0.30237 0.84314 0.0
N970 N 0.80833 0.3068 0.82441 0.0
O971 O 0.76885 0.27585 0.86623 0.0
H972 H 0.83977 0.27285 0.84914 0.0
H973 H 0.78213 0.30794 0.84697 0.0
O974 O 0.79334 0.30203 0.89426 0.0
C975 C 0.768 0.26178 0.85123 0.0
O976 O 0.78536 0.25048 0.84679 0.0
N977 N 0.82346 0.26826 0.89233 0.0
C978 C 0.84431 0.24005 0.92035 0.0
C979 C 0.83988 0.26131 0.92666 0.0
C980 C 0.82907 0.27507 0.91258 0.0
C981 C 0.83057 0.24879 0.88494 0.0
C982 C 0.8409 0.23432 0.89874 0.0
H983 H 0.82259 0.28958 0.9195 0.0
H984 H 0.82506 0.24298 0.86944 0.0
H985 H 0.78159 0.28062 0.92912 0.0
H986 H 0.76825 0.21412 0.92435 0.0
H987 H 0.83898 0.29478 0.81273 0.0
H988 H 0.84273 0.26659 0.94307 0.0
H989 H 0.84393 0.21805 0.89313 0.0
C990 C 0.00502 0.53854 0.15488 0.0
C991 C 0.01304 0.53268 0.17463 0.0
N992 N 0.99628 0.52856 0.18787 0.0
N993 N 0.98331 0.53816 0.15557 0.0
C994 C 0.97836 0.53193 0.17587 0.0
H995 H 0.01441 0.54309 0.14089 0.0
Co996 Co 0.96734 0.54673 0.13195 0.0
C997 C 0.92294 0.55427 0.1456 0.0
O998 O 0.92403 0.57216 0.13426 0.0
N999 N 0.95193 0.55506 0.10702 0.0
C1000 C 0.93997 0.57052 0.07693 0.0
C1001 C 0.95355 0.57275 0.09434 0.0
C1002 C 0.93733 0.54237 0.09686 0.0
N1003 N 0.92985 0.55131 0.07851 0.0
O1004 O 0.96778 0.51762 0.12176 0.0
H1005 H 0.96412 0.58632 0.09709 0.0
H1006 H 0.93233 0.52672 0.10283 0.0
O1007 O 0.9395 0.54196 0.14723 0.0
C1008 C 0.9828 0.51623 0.10779 0.0
O1009 O 0.99311 0.53398 0.10231 0.0
N1010 N 0.96994 0.57517 0.14195 0.0
C1011 C 0.99146 0.60758 0.1643 0.0
C1012 C 0.97243 0.59872 0.17258 0.0
C1013 C 0.96223 0.58206 0.16146 0.0
C1014 C 0.98744 0.58503 0.13288 0.0
C1015 C -0.00152 0.60132 0.1438 0.0
H1016 H 0.95013 0.57309 0.17011 0.0
H1017 H 0.99453 0.57835 0.11842 0.0
H1018 H 0.96203 0.53045 0.18186 0.0
H1019 H 0.02993 0.5313 0.17879 0.0
H1020 H 0.93832 0.58182 0.0637 0.0
H1021 H 0.96706 0.60267 0.18875 0.0
H1022 H 0.01346 0.60753 0.13721 0.0
C1023 C 0.70073 0.753 0.4132 0.0
C1024 C 0.7115 0.7622 0.43024 0.0
N1025 N 0.7266 0.74819 0.43701 0.0
N1026 N 0.70875 0.73309 0.40945 0.0
C1027 C 0.7249 0.73089 0.42388 0.0
H1028 H 0.688 0.76054 0.40402 0.0
Co1029 Co 0.7004 0.71489 0.38695 0.0
C1030 C 0.70777 0.678 0.42098 0.0
O1031 O 0.71245 0.68799 0.43905 0.0
N1032 N 0.69212 0.69662 0.364 0.0
C1033 C 0.6748 0.67267 0.34341 0.0
C1034 C 0.67355 0.68532 0.36161 0.0
C1035 C 0.70443 0.69018 0.34717 0.0
N1036 N 0.69436 0.67569 0.33451 0.0
O1037 O 0.72966 0.71418 0.37769 0.0
H1038 H 0.66005 0.68566 0.37264 0.0
H1039 H 0.72062 0.69576 0.34409 0.0
O1040 O 0.70376 0.68882 0.4039 0.0
C1041 C 0.73221 0.73081 0.36584 0.0
O1042 O 0.71555 0.74329 0.36192 0.0
N1043 N 0.67173 0.71792 0.39548 0.0
C1044 C 0.63648 0.73891 0.41276 0.0
C1045 C 0.64553 0.72126 0.42356 0.0
C1046 C 0.66346 0.71106 0.41472 0.0
C1047 C 0.6611 0.73285 0.38335 0.0
C1048 C 0.64345 0.74385 0.39186 0.0
H1049 H 0.67178 0.69944 0.42453 0.0
H1050 H 0.66805 0.73821 0.36825 0.0
H1051 H 0.73567 0.71719 0.42439 0.0
H1052 H 0.70818 0.77779 0.43739 0.0
H1053 H 0.66254 0.66168 0.33751 0.0
H1054 H 0.64058 0.71721 0.43984 0.0
H1055 H 0.63683 0.75753 0.3832 0.0
C1056 C 0.82555 0.49705 0.54614 0.0
C1057 C 0.80634 0.49082 0.5372 0.0
N1058 N 0.80051 0.50563 0.5224 0.0
N1059 N 0.83186 0.51609 0.53756 0.0
C1060 C 0.81673 0.5203 0.52239 0.0
H1061 H 0.83472 0.48743 0.5573 0.0
Co1062 Co 0.85841 0.53033 0.54258 0.0
C1063 C 0.82729 0.56874 0.54154 0.0
O1064 O 0.8098 0.55728 0.54511 0.0
N1065 N 0.88519 0.5441 0.54685 0.0
C1066 C 0.9173 0.55454 0.55905 0.0
C1067 C 0.89867 0.54349 0.56396 0.0
C1068 C 0.89596 0.55594 0.5319 0.0
N1069 N 0.91567 0.56222 0.53877 0.0
O1070 O 0.86432 0.52837 0.51245 0.0
H1071 H 0.89562 0.53519 0.57897 0.0
H1072 H 0.88986 0.55916 0.51588 0.0
O1073 O 0.8456 0.55929 0.53991 0.0
C1074 C 0.87054 0.50894 0.5098 0.0
O1075 O 0.87175 0.49614 0.52667 0.0
N1076 N 0.85333 0.52937 0.57252 0.0
C1077 C 0.83082 0.50991 0.60564 0.0
C1078 C 0.82726 0.53176 0.60076 0.0
C1079 C 0.83905 0.54141 0.58413 0.0
C1080 C 0.86051 0.51021 0.58057 0.0
C1081 C 0.84935 0.50002 0.59723 0.0
H1082 H 0.83517 0.55769 0.57967 0.0
H1083 H 0.8724 0.5011 0.57164 0.0
H1084 H 0.81766 0.53402 0.51164 0.0
H1085 H 0.79779 0.47607 0.54102 0.0
H1086 H 0.93115 0.55644 0.56952 0.0
H1087 H 0.81403 0.54054 0.60803 0.0
H1088 H 0.85321 0.48336 0.60081 0.0
C1089 C 0.75652 0.58515 0.79036 0.0
C1090 C 0.76106 0.56505 0.7822 0.0
N1091 N 0.74243 0.55604 0.77555 0.0
N1092 N 0.73513 0.58879 0.7888 0.0
C1093 C 0.72695 0.57075 0.77972 0.0
H1094 H 0.76806 0.59641 0.79706 0.0
Co1095 Co 0.72159 0.61419 0.79735 0.0
C1096 C 0.67801 0.60115 0.80993 0.0
O1097 O 0.68078 0.61231 0.82769 0.0
N1098 N 0.70806 0.64062 0.80552 0.0
C1099 C 0.69601 0.66985 0.82265 0.0
C1100 C 0.70659 0.65051 0.82493 0.0
C1101 C 0.69796 0.6544 0.79185 0.0
N1102 N 0.69073 0.67239 0.80174 0.0
O1103 O 0.72039 0.62238 0.76785 0.0
H1104 H 0.71242 0.64417 0.84005 0.0
H1105 H 0.69635 0.65165 0.77473 0.0
O1106 O 0.6931 0.60014 0.79589 0.0
C1107 C 0.73866 0.6314 0.76501 0.0
O1108 O 0.75133 0.63435 0.78175 0.0
N1109 N 0.72629 0.60593 0.82594 0.0
C1110 C 0.75404 0.58444 0.85376 0.0
C1111 C 0.73458 0.57481 0.84726 0.0
C1112 C 0.72094 0.58579 0.8332 0.0
C1113 C 0.74375 0.61649 0.83424 0.0
C1114 C 0.75768 0.60615 0.84851 0.0
H1115 H 0.70836 0.57654 0.82553 0.0
H1116 H 0.74858 0.63188 0.82753 0.0
H1117 H 0.71006 0.5685 0.77592 0.0
H1118 H 0.7768 0.55752 0.78149 0.0
H1119 H 0.6925 0.6811 0.83552 0.0
H1120 H 0.73122 0.55796 0.85051 0.0
H1121 H 0.77235 0.6143 0.85343 0.0
C1122 C 0.65697 0.50519 0.04298 0.0
C1123 C 0.67608 0.51283 0.03487 0.0
N1124 N 0.6873 0.49591 0.02734 0.0
N1125 N 0.6561 0.48356 0.04045 0.0
C1126 C 0.67495 0.4783 0.0309 0.0
H1127 H 0.64414 0.51493 0.04963 0.0
Co1128 Co 0.63148 0.46764 0.04677 0.0
C1129 C 0.64385 0.42254 0.0532 0.0
O1130 O 0.63052 0.42238 0.06966 0.0
N1131 N 0.60585 0.45247 0.05252 0.0
C1132 C 0.57434 0.4404 0.06481 0.0
C1133 C 0.59191 0.45332 0.06925 0.0
C1134 C 0.59639 0.43896 0.03823 0.0
N1135 N 0.57719 0.43151 0.04518 0.0
O1136 O 0.62381 0.46893 0.01716 0.0
H1137 H 0.59394 0.46298 0.08359 0.0
H1138 H 0.60342 0.43475 0.02283 0.0
O1139 O 0.64691 0.43996 0.04243 0.0
C1140 C 0.61321 0.48634 0.01481 0.0
O1141 O 0.60887 0.49801 0.03196 0.0
N1142 N 0.63901 0.46924 0.07594 0.0
C1143 C 0.66433 0.49569 0.10141 0.0
C1144 C 0.67118 0.47474 0.0965 0.0
C1145 C 0.65838 0.4618 0.08338 0.0
C1146 C 0.63032 0.4876 0.08439 0.0
C1147 C 0.64288 0.50133 0.09709 0.0
H1148 H 0.66603 0.44793 0.07647 0.0
H1149 H 0.61546 0.49389 0.07776 0.0
H1150 H 0.67908 0.46218 0.02562 0.0
H1151 H 0.68114 0.52956 0.03401 0.0
H1152 H 0.56016 0.43848 0.07483 0.0
H1153 H 0.68745 0.46955 0.10018 0.0
H1154 H 0.63688 0.51734 0.10065 0.0
C1155 C 0.74534 0.41635 0.29475 0.0
C1156 C 0.74096 0.43669 0.28718 0.0
N1157 N 0.75947 0.44533 0.27975 0.0
N1158 N 0.76651 0.41217 0.29211 0.0
C1159 C 0.77478 0.43019 0.28297 0.0
H1160 H 0.73371 0.40504 0.30124 0.0
Co1161 Co 0.7786 0.38546 0.29796 0.0
C1162 C 0.82405 0.3926 0.30847 0.0
O1163 O 0.82194 0.37818 0.32384 0.0
N1164 N 0.79021 0.35751 0.30334 0.0
C1165 C 0.79651 0.32443 0.31604 0.0
C1166 C 0.78834 0.34445 0.3208 0.0
C1167 C 0.80027 0.34501 0.28848 0.0
N1168 N 0.80385 0.32481 0.29565 0.0
O1169 O 0.77884 0.37977 0.26792 0.0
H1170 H 0.78115 0.34868 0.33604 0.0
H1171 H 0.80386 0.3501 0.27218 0.0
O1172 O 0.80787 0.3978 0.29678 0.0
C1173 C 0.76098 0.37051 0.26373 0.0
O1174 O 0.74744 0.36649 0.27953 0.0
N1175 N 0.77538 0.39133 0.32725 0.0
C1176 C 0.75218 0.41108 0.35992 0.0
C1177 C 0.77244 0.41916 0.35389 0.0
C1178 C 0.78377 0.40915 0.33721 0.0
C1179 C 0.75682 0.38207 0.33463 0.0
C1180 C 0.74515 0.39146 0.35128 0.0
H1181 H 0.79741 0.41761 0.33048 0.0
H1182 H 0.74957 0.36891 0.32573 0.0
H1183 H 0.79141 0.43185 0.27789 0.0
H1184 H 0.72532 0.44445 0.28687 0.0
H1185 H 0.79642 0.31043 0.32652 0.0
H1186 H 0.77812 0.43457 0.35993 0.0
H1187 H 0.7295 0.38485 0.35549 0.0
C1188 C 0.82731 0.50014 0.95001 0.0
C1189 C 0.80846 0.50634 0.95976 0.0
N1190 N 0.80316 0.49139 0.97467 0.0
N1191 N 0.8338 0.48108 0.95831 0.0
C1192 C 0.81923 0.4767 0.97392 0.0
H1193 H 0.83593 0.50951 0.93816 0.0
Co1194 Co 0.85918 0.46571 0.95203 0.0
C1195 C 0.82571 0.42892 0.9531 0.0
O1196 O 0.80881 0.44115 0.94938 0.0
N1197 N 0.88434 0.45065 0.94611 0.0
C1198 C 0.90578 0.42338 0.93716 0.0
C1199 C 0.88619 0.43305 0.93338 0.0
C1200 C 0.90322 0.4518 0.95685 0.0
N1201 N 0.91633 0.43523 0.95196 0.0
O1202 O 0.86626 0.46623 0.98224 0.0
H1203 H 0.87345 0.42665 0.92331 0.0
H1204 H 0.90664 0.46335 0.96946 0.0
O1205 O 0.84448 0.43753 0.95463 0.0
C1206 C 0.87286 0.48544 0.98592 0.0
O1207 O 0.87391 0.49902 0.96963 0.0
N1208 N 0.85351 0.46779 0.92248 0.0
C1209 C 0.83227 0.48948 0.8903 0.0
C1210 C 0.82719 0.46779 0.89451 0.0
C1211 C 0.83825 0.45702 0.91084 0.0
C1212 C 0.86234 0.48632 0.9146 0.0
C1213 C 0.85174 0.49774 0.89839 0.0
H1214 H 0.83309 0.44103 0.91512 0.0
H1215 H 0.87513 0.4942 0.9235 0.0
H1216 H 0.82026 0.46263 0.98419 0.0
H1217 H 0.79961 0.52095 0.95623 0.0
H1218 H 0.91131 0.40817 0.93059 0.0
H1219 H 0.81312 0.46025 0.88735 0.0
H1220 H 0.85676 0.51418 0.89513 0.0
C1221 C 0.73788 0.58874 0.207 0.0
C1222 C 0.73117 0.5687 0.21362 0.0
N1223 N 0.74865 0.55723 0.21959 0.0
N1224 N 0.7595 0.59003 0.20875 0.0
C1225 C 0.76566 0.57062 0.21657 0.0
H1226 H 0.72763 0.60159 0.20115 0.0
Co1227 Co 0.77504 0.61447 0.20079 0.0
C1228 C 0.81786 0.59889 0.18847 0.0
O1229 O 0.81586 0.61036 0.17079 0.0
N1230 N 0.79042 0.64002 0.193 0.0
C1231 C 0.80286 0.66931 0.17608 0.0
C1232 C 0.79234 0.64996 0.1736 0.0
C1233 C 0.80049 0.65366 0.20685 0.0
N1234 N 0.80782 0.67166 0.19704 0.0
O1235 O 0.77643 0.62223 0.2305 0.0
H1236 H 0.78643 0.64388 0.15841 0.0
H1237 H 0.80158 0.65114 0.22406 0.0
O1238 O 0.80259 0.5985 0.20238 0.0
C1239 C 0.75915 0.63308 0.23322 0.0
O1240 O 0.74747 0.63779 0.21615 0.0
N1241 N 0.76999 0.60704 0.17208 0.0
C1242 C 0.742 0.58881 0.14229 0.0
C1243 C 0.76069 0.57777 0.14867 0.0
C1244 C 0.77438 0.58705 0.1639 0.0
C1245 C 0.75322 0.61888 0.16415 0.0
C1246 C 0.73912 0.61016 0.14902 0.0
H1247 H 0.78628 0.57677 0.17131 0.0
H1248 H 0.74909 0.63409 0.17164 0.0
H1249 H 0.78228 0.56629 0.21961 0.0
H1250 H 0.71461 0.56317 0.21424 0.0
H1251 H 0.80612 0.68101 0.1635 0.0
H1252 H 0.7632 0.56105 0.14424 0.0
H1253 H 0.72485 0.61914 0.14447 0.0
C1254 C 0.65228 0.48689 0.45834 0.0
C1255 C 0.67117 0.47931 0.46703 0.0
N1256 N 0.68353 0.49641 0.47225 0.0
N1257 N 0.65271 0.50864 0.45822 0.0
C1258 C 0.67203 0.51405 0.46672 0.0
H1259 H 0.63885 0.47721 0.45278 0.0
Co1260 Co 0.62944 0.52475 0.44905 0.0
C1261 C 0.64505 0.56806 0.43882 0.0
O1262 O 0.63289 0.56661 0.42151 0.0
N1263 N 0.60503 0.54052 0.44029 0.0
C1264 C 0.57527 0.5534 0.425 0.0
C1265 C 0.59185 0.53877 0.42302 0.0
C1266 C 0.59605 0.55622 0.45246 0.0
N1267 N 0.57794 0.56427 0.44361 0.0
O1268 O 0.61958 0.52573 0.47824 0.0
H1269 H 0.5937 0.52749 0.40992 0.0
H1270 H 0.60273 0.56163 0.46765 0.0
O1271 O 0.64568 0.55224 0.45222 0.0
C1272 C 0.60562 0.5107 0.48012 0.0
O1273 O 0.59981 0.50021 0.46261 0.0
N1274 N 0.63907 0.52062 0.4207 0.0
C1275 C 0.66134 0.49551 0.39109 0.0
C1276 C 0.67025 0.51484 0.3986 0.0
C1277 C 0.65913 0.52688 0.41387 0.0
C1278 C 0.62919 0.50318 0.41153 0.0
C1279 C 0.64001 0.49042 0.3965 0.0
H1280 H 0.66826 0.53907 0.42222 0.0
H1281 H 0.61419 0.49725 0.41821 0.0
H1282 H 0.67727 0.53049 0.46954 0.0
H1283 H 0.67542 0.46255 0.46958 0.0
H1284 H 0.56185 0.55528 0.41398 0.0
H1285 H 0.68678 0.51916 0.39481 0.0
H1286 H 0.63277 0.47535 0.39132 0.0
C1287 C 0.75896 0.40848 0.71002 0.0
C1288 C 0.76662 0.42833 0.71614 0.0
N1289 N 0.74967 0.44088 0.72138 0.0
N1290 N 0.73727 0.40843 0.71135 0.0
C1291 C 0.73201 0.42835 0.71843 0.0
H1292 H 0.76856 0.39498 0.70461 0.0
Co1293 Co 0.72089 0.38481 0.70302 0.0
C1294 C 0.67726 0.3999 0.6942 0.0
O1295 O 0.67875 0.38838 0.67648 0.0
N1296 N 0.70478 0.36005 0.69524 0.0
C1297 C 0.69451 0.32769 0.68347 0.0
C1298 C 0.7073 0.34542 0.67927 0.0
C1299 C 0.68996 0.35101 0.70854 0.0
N1300 N 0.68365 0.33134 0.70188 0.0
O1301 O 0.72184 0.37466 0.73224 0.0
H1302 H 0.71857 0.34662 0.66608 0.0
H1303 H 0.68519 0.35796 0.72384 0.0
O1304 O 0.69326 0.40074 0.70737 0.0
C1305 C 0.73783 0.36166 0.73234 0.0
O1306 O 0.74718 0.35731 0.7138 0.0
N1307 N 0.7237 0.3945 0.67442 0.0
C1308 C 0.7506 0.41779 0.64691 0.0
C1309 C 0.7315 0.42698 0.65475 0.0
C1310 C 0.7183 0.41512 0.6686 0.0
C1311 C 0.74071 0.3845 0.66468 0.0
C1312 C 0.75418 0.39576 0.65058 0.0
H1313 H 0.70625 0.42406 0.6773 0.0
H1314 H 0.74621 0.36907 0.67059 0.0
H1315 H 0.71559 0.43374 0.72075 0.0
H1316 H 0.78343 0.43305 0.71682 0.0
H1317 H 0.6942 0.31274 0.67443 0.0
H1318 H 0.72819 0.44402 0.65271 0.0
H1319 H 0.76864 0.38794 0.64467 0.0
C1320 C 0.53402 0.8465 0.4872 0.0
C1321 C 0.52336 0.82826 0.48048 0.0
N1322 N 0.51763 0.81683 0.49807 0.0
N1323 N 0.53496 0.84659 0.50891 0.0
C1324 C 0.52488 0.82827 0.51514 0.0
H1325 H 0.54072 0.85896 0.47695 0.0
Co1326 Co 0.54762 0.86881 0.52427 0.0
C1327 C 0.55778 0.85237 0.56709 0.0
O1328 O 0.57652 0.86196 0.5644 0.0
N1329 N 0.55982 0.89227 0.53956 0.0
C1330 C 0.5764 0.92249 0.54969 0.0
C1331 C 0.57733 0.90484 0.53618 0.0
C1332 C 0.54883 0.90248 0.55538 0.0
N1333 N 0.55824 0.92109 0.5616 0.0
O1334 O 0.52005 0.8827 0.52566 0.0
H1335 H 0.58948 0.90227 0.524 0.0
H1336 H 0.53359 0.89665 0.56162 0.0
O1337 O 0.54344 0.85336 0.55216 0.0
C1338 C 0.52088 0.89683 0.51067 0.0
O1339 O 0.53886 0.89878 0.49958 0.0
N1340 N 0.57436 0.85559 0.51941 0.0
C1341 C 0.60226 0.83072 0.49459 0.0
C1342 C 0.59292 0.82219 0.51332 0.0
C1343 C 0.57855 0.83468 0.52518 0.0
C1344 C 0.58484 0.86464 0.50228 0.0
C1345 C 0.59909 0.85256 0.48977 0.0
H1346 H 0.56885 0.82639 0.53699 0.0
H1347 H 0.57992 0.8803 0.49641 0.0
H1348 H 0.52262 0.82352 0.5318 0.0
H1349 H 0.52026 0.82362 0.46393 0.0
H1350 H 0.58753 0.93597 0.54964 0.0
H1351 H 0.59489 0.80531 0.51747 0.0
H1352 H 0.60557 0.85959 0.47512 0.0
C1353 C 0.0398 0.65971 0.50584 0.0
C1354 C 0.03372 0.6796 0.51335 0.0
N1355 N 0.02866 0.6921 0.4963 0.0
N1356 N 0.0386 0.65958 0.48414 0.0
C1357 C 0.03156 0.67951 0.47873 0.0
H1358 H 0.04559 0.64642 0.51553 0.0
Co1359 Co 0.04899 0.63659 0.4681 0.0
C1360 C 0.05517 0.65179 0.42384 0.0
O1361 O 0.0739 0.642 0.42481 0.0
N1362 N 0.0594 0.61242 0.45238 0.0
C1363 C 0.07822 0.58474 0.43942 0.0
C1364 C 0.07924 0.60341 0.45131 0.0
C1365 C 0.04679 0.59898 0.44063 0.0
N1366 N 0.0577 0.58184 0.43291 0.0
O1367 O 0.02086 0.62336 0.46993 0.0
H1368 H 0.09371 0.60963 0.4587 0.0
H1369 H 0.02962 0.60117 0.43858 0.0
O1370 O 0.0425 0.6515 0.44026 0.0
C1371 C 0.0226 0.61045 0.48595 0.0
O1372 O 0.04169 0.60851 0.495 0.0
N1373 N 0.0764 0.64916 0.47009 0.0
C1374 C 0.10529 0.67397 0.49369 0.0
C1375 C 0.0954 0.6825 0.47527 0.0
C1376 C 0.08073 0.6699 0.4638 0.0
C1377 C 0.08761 0.64007 0.48669 0.0
C1378 C 0.10244 0.65209 0.49853 0.0
H1379 H 0.07072 0.67806 0.45221 0.0
H1380 H 0.083 0.6243 0.49263 0.0
H1381 H 0.02979 0.68507 0.46228 0.0
H1382 H 0.03337 0.68457 0.53009 0.0
H1383 H 0.09154 0.57392 0.43625 0.0
H1384 H 0.09711 0.69945 0.47124 0.0
H1385 H 0.10946 0.64506 0.51291 0.0
C1386 C 0.58394 0.78374 0.74979 0.0
C1387 C 0.56356 0.77614 0.75406 0.0
N1388 N 0.55403 0.77105 0.73519 0.0
N1389 N 0.58731 0.7835 0.72833 0.0
C1390 C 0.56885 0.77552 0.71981 0.0
H1391 H 0.59542 0.78962 0.76154 0.0
Co1392 Co 0.61215 0.7947 0.71574 0.0
C1393 C 0.60112 0.80503 0.67116 0.0
O1394 O 0.61091 0.82357 0.67428 0.0
N1395 N 0.638 0.80581 0.70325 0.0
C1396 C 0.66612 0.82559 0.69271 0.0
C1397 C 0.64718 0.82561 0.70416 0.0
C1398 C 0.65183 0.79418 0.69095 0.0
N1399 N 0.66922 0.8057 0.68447 0.0
O1400 O 0.62427 0.76628 0.71586 0.0
H1401 H 0.64065 0.83959 0.71215 0.0
H1402 H 0.64921 0.7774 0.68704 0.0
O1403 O 0.59985 0.79118 0.68648 0.0
C1404 C 0.635 0.76575 0.73345 0.0
O1405 O 0.63622 0.78359 0.74487 0.0
N1406 N 0.60035 0.82217 0.71926 0.0
C1407 C 0.57664 0.85293 0.7415 0.0
C1408 C 0.56868 0.84416 0.72226 0.0
C1409 C 0.58064 0.8284 0.71155 0.0
C1410 C 0.6088 0.83171 0.73719 0.0
C1411 C 0.59741 0.84745 0.74832 0.0
H1412 H 0.57275 0.81945 0.69891 0.0
H1413 H 0.62354 0.82554 0.74414 0.0
H1414 H 0.56597 0.77384 0.70268 0.0
H1415 H 0.5563 0.77457 0.76987 0.0
H1416 H 0.67662 0.83939 0.69065 0.0
H1417 H 0.55237 0.84754 0.71697 0.0
H1418 H 0.6039 0.85371 0.7633 0.0
C1419 C 0.43799 0.33073 0.00994 0.0
C1420 C 0.44198 0.3097 0.01546 0.0
N1421 N 0.45109 0.29978 -0.0016 0.0
N1422 N 0.44446 0.33416 0.98947 0.0
C1423 C 0.45244 0.31505 0.98283 0.0
H1424 H 0.43108 0.34289 0.02035 0.0
Co1425 Co 0.44267 0.36076 0.97584 0.0
C1426 C 0.43837 0.35222 0.92953 0.0
O1427 O 0.42387 0.36765 0.92936 0.0
N1428 N 0.44146 0.38816 0.96278 0.0
C1429 C 0.43335 0.42102 0.95069 0.0
C1430 C 0.42579 0.40331 0.96186 0.0
C1431 C 0.45831 0.39716 0.95218 0.0
N1432 N 0.45385 0.41706 0.9448 0.0
O1433 O 0.47277 0.36491 0.98095 0.0
H1434 H 0.40984 0.4018 0.96868 0.0
H1435 H 0.4736 0.38918 0.94958 0.0
O1436 O 0.44797 0.3474 0.94722 0.0
C1437 C 0.4744 0.37247 -0.0 0.0
O1438 O 0.45666 0.37623 0.01098 0.0
N1439 N 0.41272 0.35647 0.97387 0.0
C1440 C 0.37934 0.33475 0.99428 0.0
C1441 C 0.38693 0.32756 0.97431 0.0
C1442 C 0.40398 0.33847 0.96447 0.0
C1443 C 0.4029 0.36562 0.99131 0.0
C1444 C 0.38614 0.35491 0.0019 0.0
H1445 H 0.41217 0.32997 0.95177 0.0
H1446 H 0.41057 0.37905 -0.00058 0.0
H1447 H 0.45917 0.31245 0.96695 0.0
H1448 H 0.439 0.30255 0.03112 0.0
H1449 H 0.42462 0.43581 0.94751 0.0
H1450 H 0.38226 0.31187 0.96813 0.0
H1451 H 0.3807 0.36083 0.01742 0.0
C1452 C 0.40363 0.71518 0.75602 0.0
C1453 C 0.4226 0.72483 0.76209 0.0
N1454 N 0.43337 0.73071 0.74414 0.0
N1455 N 0.40234 0.7149 0.73432 0.0
C1456 C 0.42077 0.72444 0.72744 0.0
H1457 H 0.39144 0.70879 0.76676 0.0
Co1458 Co 0.37835 0.70375 0.7201 0.0
C1459 C 0.39322 0.68741 0.67813 0.0
O1460 O 0.37892 0.672 0.68064 0.0
N1461 N 0.35298 0.69282 0.70623 0.0
C1462 C 0.32407 0.67379 0.69632 0.0
C1463 C 0.34278 0.67354 0.70812 0.0
C1464 C 0.33998 0.70431 0.6929 0.0
N1465 N 0.32215 0.69328 0.68693 0.0
O1466 O 0.36848 0.73266 0.71557 0.0
H1467 H 0.34838 0.65978 0.71713 0.0
H1468 H 0.34311 0.72082 0.68824 0.0
O1469 O 0.39466 0.70247 0.6923 0.0
C1470 C 0.35596 0.73476 0.73181 0.0
O1471 O 0.35354 0.71813 0.74481 0.0
N1472 N 0.38757 0.67626 0.72805 0.0
C1473 C 0.40696 0.64582 0.75459 0.0
C1474 C 0.41738 0.65307 0.73587 0.0
C1475 C 0.40764 0.66871 0.72312 0.0
C1476 C 0.37671 0.66839 0.74554 0.0
C1477 C 0.38593 0.65281 0.75882 0.0
H1478 H 0.41757 0.6767 0.7113 0.0
H1479 H 0.36161 0.67566 0.75035 0.0
H1480 H 0.42468 0.72713 0.71063 0.0
H1481 H 0.42813 0.72721 0.77848 0.0
H1482 H 0.31271 0.66057 0.69497 0.0
H1483 H 0.43399 0.64881 0.73254 0.0
H1484 H 0.37751 0.64779 0.7733 0.0
C1485 C 0.95362 0.15768 0.98796 0.0
C1486 C 0.95937 0.17751 0.97973 0.0
N1487 N 0.96765 0.18962 0.99586 0.0
N1488 N 0.95811 0.15722 0.0092 0.0
C1489 C 0.96667 0.17681 0.01354 0.0
H1490 H 0.94697 0.14428 0.97896 0.0
Co1491 Co 0.9547 0.13348 0.02731 0.0
C1492 C 0.94686 0.15056 0.07098 0.0
O1493 O 0.93335 0.13453 0.07406 0.0
N1494 N 0.95209 0.10874 0.04558 0.0
C1495 C 0.94282 0.07802 0.06205 0.0
C1496 C 0.93585 0.09441 0.04869 0.0
C1497 C 0.96855 0.10068 0.05753 0.0
N1498 N 0.96349 0.08195 0.06734 0.0
O1499 O 0.98498 0.12929 0.02623 0.0
H1500 H 0.92001 0.09533 0.04155 0.0
H1501 H 0.9843 0.1081 0.05877 0.0
O1502 O 0.95672 0.15247 0.05293 0.0
C1503 C 0.98741 0.11482 0.01183 0.0
O1504 O 0.97026 0.10703 0.00208 0.0
N1505 N 0.92481 0.13688 0.0251 0.0
C1506 C 0.89089 0.15078 -0.00067 0.0
C1507 C 0.89758 0.16306 0.01714 0.0
C1508 C 0.91478 0.15591 0.02972 0.0
C1509 C 0.91655 0.12345 0.00974 0.0
C1510 C 0.89936 0.12998 0.99679 0.0
H1511 H 0.922 0.16734 0.0405 0.0
H1512 H 0.92524 0.10898 0.00535 0.0
H1513 H 0.97222 0.18149 0.02938 0.0
H1514 H 0.95806 0.18229 0.963 0.0
H1515 H 0.93374 0.06377 0.0666 0.0
H1516 H 0.89179 0.17938 0.01952 0.0
H1517 H 0.89455 0.11993 0.98332 0.0
C1518 C 0.58632 0.20809 0.74095 0.0
C1519 C 0.56628 0.21634 0.7363 0.0
N1520 N 0.55688 0.22239 0.75496 0.0
N1521 N 0.58951 0.20887 0.76242 0.0
C1522 C 0.57139 0.21772 0.77053 0.0
H1523 H 0.59783 0.20177 0.72946 0.0
Co1524 Co 0.61389 0.19878 0.77628 0.0
C1525 C 0.60093 0.18775 0.82034 0.0
O1526 O 0.61177 0.16975 0.8176 0.0
N1527 N 0.63928 0.18927 0.79009 0.0
C1528 C 0.67309 0.1789 0.7962 0.0
C1529 C 0.65479 0.17515 0.78413 0.0
C1530 C 0.64846 0.20094 0.8061 0.0
N1531 N 0.66893 0.1951 0.81 0.0
O1532 O 0.62504 0.22768 0.77681 0.0
H1533 H 0.65392 0.16422 0.77065 0.0
H1534 H 0.64105 0.21509 0.81317 0.0
O1535 O 0.59991 0.20168 0.80503 0.0
C1536 C 0.63796 0.22842 0.76078 0.0
O1537 O 0.64047 0.21097 0.74901 0.0
N1538 N 0.60324 0.17071 0.77238 0.0
C1539 C 0.57958 0.14117 0.74824 0.0
C1540 C 0.57121 0.14947 0.76749 0.0
C1541 C 0.58313 0.16454 0.77915 0.0
C1542 C 0.6123 0.16121 0.75474 0.0
C1543 C 0.60088 0.1461 0.74261 0.0
H1544 H 0.57471 0.17336 0.7915 0.0
H1545 H 0.62694 0.16777 0.74794 0.0
H1546 H 0.56871 0.22029 0.78756 0.0
H1547 H 0.55936 0.218 0.72036 0.0
H1548 H 0.68876 0.17158 0.79378 0.0
H1549 H 0.55468 0.14618 0.77219 0.0
H1550 H 0.60767 0.14052 0.7275 0.0
C1551 C 0.90892 0.79784 0.24319 0.0
C1552 C 0.9288 0.78969 0.23767 0.0
N1553 N 0.93683 0.77911 0.2549 0.0
N1554 N 0.90464 0.79268 0.26389 0.0
C1555 C 0.9218 0.7811 0.27051 0.0
H1556 H 0.89824 0.80687 0.23278 0.0
Co1557 Co 0.87998 0.79938 0.27946 0.0
C1558 C 0.89402 0.80918 0.32341 0.0
O1559 O 0.88001 0.82504 0.3231 0.0
N1560 N 0.85452 0.80529 0.29519 0.0
C1561 C 0.82302 0.81655 0.30841 0.0
C1562 C 0.83966 0.82129 0.2944 0.0
C1563 C 0.84654 0.79128 0.30993 0.0
N1564 N 0.82763 0.79777 0.31817 0.0
O1565 O 0.87255 0.76944 0.2793 0.0
H1566 H 0.84026 0.83529 0.28409 0.0
H1567 H 0.85413 0.77614 0.31418 0.0
O1568 O 0.89626 0.79704 0.30685 0.0
C1569 C 0.86055 0.76802 0.26265 0.0
O1570 O 0.85655 0.78579 0.25175 0.0
N1571 N 0.88683 0.82866 0.27629 0.0
C1572 C 0.90648 0.85865 0.24934 0.0
C1573 C 0.9168 0.85177 0.26829 0.0
C1574 C 0.90669 0.83667 0.28158 0.0
C1575 C 0.87547 0.8375 0.25964 0.0
C1576 C 0.88482 0.85295 0.24624 0.0
H1577 H 0.91652 0.82894 0.29361 0.0
H1578 H 0.86057 0.83009 0.25443 0.0
H1579 H 0.92333 0.77435 0.28653 0.0
H1580 H 0.93655 0.79111 0.22208 0.0
H1581 H 0.80828 0.82565 0.31057 0.0
H1582 H 0.93361 0.8555 0.2713 0.0
H1583 H 0.87614 0.85814 0.23199 0.0
H1584 H 0.08297 0.02093 0.42706 0.0
H1585 H 0.04017 0.05884 0.4667 0.0
H1586 H 0.05388 0.04115 0.499 0.0
H1587 H 0.07854 0.01589 0.51603 0.0
H1588 H 0.12197 0.97791 0.47713 0.0
H1589 H 0.10714 0.99433 0.44434 0.0
C1590 C 0.07659 0.02518 0.44277 0.0
C1591 C 0.06077 0.04135 0.44452 0.0
C1592 C 0.08455 0.01489 0.46133 0.0
C1593 C 0.05269 0.04681 0.46497 0.0
C1594 C 0.06038 0.03657 0.48343 0.0
C1595 C 0.08474 0.01108 0.50039 0.0
C1596 C 0.10139 0.9958 0.499 0.0
C1597 C 0.07641 0.02076 0.4818 0.0
C1598 C 0.1091 0.98962 0.4786 0.0
C1599 C 0.10071 -0.00092 0.45988 0.0
H1600 H 0.26971 0.84794 0.73387 0.0
H1601 H 0.21609 0.89155 0.74109 0.0
H1602 H 0.19806 0.87527 0.71011 0.0
H1603 H 0.19505 0.8451 0.68477 0.0
H1604 H 0.2479 0.80088 0.67725 0.0
H1605 H 0.26884 0.82067 0.70453 0.0
C1606 C 0.25448 0.85431 0.72806 0.0
C1607 C 0.24415 0.87086 0.73954 0.0
C1608 C 0.24385 0.84435 0.71063 0.0
C1609 C 0.22424 0.87882 0.73231 0.0
C1610 C 0.21386 0.8694 0.71478 0.0
C1611 C 0.21125 0.84006 0.68902 0.0
C1612 C 0.2199 0.82152 0.67952 0.0
C1613 C 0.22306 0.85155 0.70448 0.0
C1614 C 0.24102 0.81514 0.68463 0.0
C1615 C 0.25291 0.82642 0.70017 0.0
H1616 H 0.41979 0.9855 0.01513 0.0
H1617 H 0.36925 0.01573 0.97815 0.0
H1618 H 0.38357 -0.00087 0.94501 0.0
H1619 H 0.4087 0.97306 0.92754 0.0
H1620 H 0.45759 0.94211 0.96626 0.0
H1621 H 0.44527 0.96156 0.99799 0.0
C1622 C 0.41193 0.98864 -0.00021 0.0
C1623 C 0.39336 0.00157 -0.00095 0.0
C1624 C 0.4197 0.97851 0.98127 0.0
C1625 C 0.38362 0.00584 0.97906 0.0
C1626 C 0.39167 0.99616 0.96021 0.0
C1627 C 0.41663 0.97069 0.94294 0.0
C1628 C 0.43377 0.95583 0.94464 0.0
C1629 C 0.40937 0.98196 0.96126 0.0
C1630 C 0.44399 0.95293 0.96465 0.0
C1631 C 0.43713 0.96425 0.98274 0.0
H1632 H 0.27801 0.15411 0.26115 0.0
H1633 H 0.21613 0.14461 0.23066 0.0
H1634 H 0.23045 0.16008 0.19699 0.0
H1635 H 0.2611 0.17571 0.17626 0.0
H1636 H 0.32281 0.18361 0.20744 0.0
H1637 H 0.30796 0.16927 0.24101 0.0
C1638 C 0.26751 0.15544 0.24722 0.0
C1639 C 0.24598 0.14825 0.24844 0.0
C1640 C 0.27588 0.16403 0.22808 0.0
C1641 C 0.23277 0.14997 0.23011 0.0
C1642 C 0.24095 0.15884 0.21091 0.0
C1643 C 0.27117 0.17445 0.1905 0.0
C1644 C 0.29304 0.18074 0.18944 0.0
C1645 C 0.26254 0.16587 0.20971 0.0
C1646 C 0.30604 0.17871 0.20785 0.0
C1647 C 0.29753 0.17058 0.22703 0.0
H1648 H 0.11628 0.96802 0.99506 0.0
H1649 H 0.10894 0.03219 0.02085 0.0
H1650 H 0.09009 0.01728 0.0525 0.0
H1651 H 0.07313 0.98597 0.07105 0.0
H1652 H 0.08118 0.92213 0.04434 0.0
H1653 H 0.10221 0.937 0.01466 0.0
C1654 C 0.11071 0.97877 0.0077 0.0
C1655 C 0.11379 0.00117 0.0056 0.0
C1656 C 0.09983 0.97014 0.02552 0.0
C1657 C 0.10681 0.01488 0.0222 0.0
C1658 C 0.09591 0.00635 0.04018 0.0
C1659 C 0.07977 0.97529 0.05893 0.0
C1660 C 0.07528 0.95293 0.05981 0.0
C1661 C 0.09195 0.984 0.04179 0.0
C1662 C 0.08393 0.93938 0.04384 0.0
C1663 C 0.09609 0.94786 0.02691 0.0
H1664 H 0.26565 0.81808 0.30822 0.0
H1665 H 0.33128 0.83721 0.2949 0.0
H1666 H 0.31896 0.85955 0.26486 0.0
H1667 H 0.2897 0.87442 0.24306 0.0
H1668 H 0.22388 0.85523 0.25542 0.0
H1669 H 0.23611 0.83217 0.2852 0.0
C1670 C 0.27723 0.82728 0.29885 0.0
C1671 C 0.2994 0.82611 0.30399 0.0
C1672 C 0.26999 0.84009 0.28147 0.0
C1673 C 0.3142 0.83773 0.2913 0.0
C1674 C 0.30714 0.85059 0.27417 0.0
C1675 C 0.27793 0.86528 0.25226 0.0
C1676 C 0.25581 0.86683 0.24712 0.0
C1677 C 0.28509 0.85201 0.26921 0.0
C1678 C 0.24095 0.85448 0.25905 0.0
C1679 C 0.24796 0.84131 0.27611 0.0
H1680 H 0.39492 0.97834 0.51136 0.0
H1681 H 0.3638 0.03748 0.49204 0.0
H1682 H 0.37835 0.056 0.52353 0.0
H1683 H 0.40304 0.0565 0.55423 0.0
H1684 H 0.43589 0.99819 0.57305 0.0
H1685 H 0.41748 0.97818 0.54442 0.0
C1686 C 0.39095 0.9951 0.51445 0.0
C1687 C 0.37841 0.0066 0.4995 0.0
C1688 C 0.39994 0.00588 0.53232 0.0
C1689 C 0.37355 0.0284 0.50336 0.0
C1690 C 0.38191 0.03902 0.5213 0.0
C1691 C 0.40608 0.0394 0.5521 0.0
C1692 C 0.42094 0.02892 0.56555 0.0
C1693 C 0.3957 0.02812 0.53546 0.0
C1694 C 0.42443 0.00663 0.56294 0.0
C1695 C 0.41399 0.9952 0.54649 0.0
H1696 H 0.25676 0.12209 0.7662 0.0
H1697 H 0.23461 0.17077 0.72151 0.0
H1698 H 0.21406 0.18814 0.74991 0.0
H1699 H 0.20133 0.18918 0.78704 0.0
H1700 H 0.22344 0.14188 0.8328 0.0
H1701 H 0.24487 0.12416 0.80452 0.0
C1702 C 0.2476 0.13661 0.76283 0.0
C1703 C 0.24705 0.14497 0.74174 0.0
C1704 C 0.23555 0.14658 0.77934 0.0
C1705 C 0.2351 0.16381 0.73754 0.0
C1706 C 0.22329 0.17379 0.75376 0.0
C1707 C 0.21062 0.17482 0.7907 0.0
C1708 C 0.21056 0.16654 0.81172 0.0
C1709 C 0.2231 0.16514 0.77458 0.0
C1710 C 0.22318 0.14834 0.81656 0.0
C1711 C 0.23544 0.1383 0.80045 0.0
H1712 H 0.42344 0.06208 0.01252 0.0
H1713 H 0.44258 0.08677 0.07478 0.0
H1714 H 0.47146 0.10756 0.05792 0.0
H1715 H 0.49318 0.11606 0.02625 0.0
H1716 H 0.47498 0.09176 0.96373 0.0
H1717 H 0.44331 0.07385 0.97982 0.0
C1718 C 0.43364 0.07234 0.02235 0.0
C1719 C 0.43101 0.07262 0.045 0.0
C1720 C 0.45033 0.08425 0.0125 0.0
C1721 C 0.44452 0.0859 0.05745 0.0
C1722 C 0.46097 0.09787 0.0478 0.0
C1723 C 0.48209 0.10706 0.01609 0.0
C1724 C 0.48637 0.105 0.99393 0.0
C1725 C 0.46433 0.09672 0.02547 0.0
C1726 C 0.47185 0.0936 0.98082 0.0
C1727 C 0.45391 0.08325 0.99007 0.0
H1728 H 0.17404 0.17552 0.26404 0.0
H1729 H 0.15731 0.19752 0.32793 0.0
H1730 H 0.13408 0.2253 0.31244 0.0
H1731 H 0.12174 0.24546 0.28103 0.0
H1732 H 0.13926 0.22478 0.21697 0.0
H1733 H 0.15847 0.19367 0.23224 0.0
C1734 C 0.16495 0.18607 0.27458 0.0
C1735 C 0.16757 0.18463 0.29714 0.0
C1736 C 0.15182 0.20214 0.26554 0.0
C1737 C 0.15586 0.19859 0.31055 0.0
C1738 C 0.14252 0.21438 0.30171 0.0
C1739 C 0.12951 0.23396 0.27038 0.0
C1740 C 0.12938 0.23745 0.24797 0.0
C1741 C 0.14089 0.21665 0.27927 0.0
C1742 C 0.13915 0.22233 0.23428 0.0
C1743 C 0.15028 0.20471 0.24303 0.0
H1744 H 0.99135 0.91276 0.52037 0.0
H1745 H 0.02587 0.88055 0.46924 0.0
H1746 H 0.0603 0.89207 0.48541 0.0
H1747 H 0.0803 0.91003 0.5154 0.0
H1748 H 0.04425 0.94027 0.56668 0.0
H1749 H 0.01053 0.93027 0.5493 0.0
C1750 C 0.00634 0.9082 0.51259 0.0
C1751 C 0.00603 0.89568 0.49366 0.0
C1752 C 0.02577 0.91424 0.52225 0.0
C1753 C 0.02567 0.89021 0.4838 0.0
C1754 C 0.04531 0.89667 0.49313 0.0
C1755 C 0.06502 0.91433 0.52272 0.0
C1756 C 0.06479 0.9256 0.54249 0.0
C1757 C 0.04554 0.90842 0.51258 0.0
C1758 C 0.04491 0.93114 0.55182 0.0
C1759 C 0.02561 0.92564 0.54175 0.0
H1760 H 0.32389 0.82617 0.76289 0.0
H1761 H 0.28017 0.78487 0.79814 0.0
H1762 H 0.2942 0.75337 0.77944 0.0
H1763 H 0.32011 0.73733 0.75527 0.0
H1764 H 0.36594 0.77699 0.72095 0.0
H1765 H 0.34936 0.8096 0.73645 0.0
C1766 C 0.31737 0.81027 0.76624 0.0
C1767 C 0.30123 0.80776 0.78209 0.0
C1768 C 0.32575 0.79207 0.75553 0.0
C1769 C 0.2929 0.78712 0.78638 0.0
C1770 C 0.30078 0.76914 0.77558 0.0
C1771 C 0.32644 0.75312 0.75099 0.0
C1772 C 0.34435 0.7548 0.73721 0.0
C1773 C 0.31742 0.77141 0.76046 0.0
C1774 C 0.3521 0.77534 0.7315 0.0
C1775 C 0.34276 0.79391 0.74054 0.0
H1776 H 0.47794 0.88616 0.50972 0.0
H1777 H 0.52301 0.93767 0.49649 0.0
H1778 H 0.49511 0.95794 0.47776 0.0
H1779 H 0.45909 0.95949 0.46191 0.0
H1780 H 0.41326 0.90882 0.47469 0.0
H1781 H 0.44007 0.88969 0.49679 0.0
C1782 C 0.48138 0.90208 0.50325 0.0
C1783 C 0.50246 0.91041 0.50435 0.0
C1784 C 0.46526 0.91355 0.49202 0.0
C1785 C 0.50688 0.93092 0.49571 0.0
C1786 C 0.49099 0.94247 0.48488 0.0
C1787 C 0.45506 0.94425 0.46956 0.0
C1788 C 0.43453 0.93528 0.46642 0.0
C1789 C 0.47038 0.93363 0.48231 0.0
C1790 C 0.42912 0.91585 0.47683 0.0
C1791 C 0.44442 0.90497 0.48943 0.0
H1792 H 0.35208 0.18801 0.6968 0.0
H1793 H 0.30166 0.17693 0.74328 0.0
H1794 H 0.31707 0.20445 0.76712 0.0
H1795 H 0.34297 0.2344 0.77285 0.0
H1796 H 0.39313 0.24544 0.726 0.0
H1797 H 0.38036 0.2149 0.70454 0.0
C1798 C 0.34468 0.19159 0.71224 0.0
C1799 C 0.32575 0.18074 0.71826 0.0
C1800 C 0.35375 0.20727 0.72589 0.0
C1801 C 0.31631 0.18516 0.7384 0.0
C1802 C 0.32509 0.20088 0.752 0.0
C1803 C 0.35148 0.22955 0.75835 0.0
C1804 C 0.36903 0.24185 0.75102 0.0
C1805 C 0.34362 0.21233 0.74575 0.0
C1806 C 0.37969 0.23591 0.73195 0.0
C1807 C 0.37226 0.21864 0.71958 0.0
H1808 H 0.06119 0.05525 0.97904 0.0
H1809 H 0.08592 0.1162 0.95607 0.0
H1810 H 0.05687 0.13528 0.97461 0.0
H1811 H 0.02283 0.1343 0.99539 0.0
H1812 H 0.99732 0.07299 0.01618 0.0
H1813 H 0.0287 0.05438 0.00131 0.0
C1814 C 0.0604 0.07271 0.97835 0.0
C1815 C 0.07556 0.08424 0.96606 0.0
C1816 C 0.04366 0.08352 0.98896 0.0
C1817 C 0.07417 0.10689 0.96506 0.0
C1818 C 0.05769 0.11784 0.97584 0.0
C1819 C 0.02461 0.11696 0.99715 0.0
C1820 C 0.00826 0.10495 0.00717 0.0
C1821 C 0.04217 0.1063 0.98762 0.0
C1822 C 0.0101 0.08245 0.00884 0.0
C1823 C 0.02786 0.07182 0.00015 0.0
H1824 H 0.14817 0.7475 0.21824 0.0
H1825 H 0.13046 0.77852 0.27797 0.0
H1826 H 0.14463 0.813 0.26426 0.0
H1827 H 0.16234 0.83418 0.23491 0.0
H1828 H 0.17799 0.80246 0.1751 0.0
H1829 H 0.16444 0.76822 0.18926 0.0
C1830 C 0.14743 0.76174 0.2284 0.0
C1831 C 0.13844 0.76039 0.2492 0.0
C1832 C 0.1553 0.78134 0.22035 0.0
C1833 C 0.13739 0.77911 0.26194 0.0
C1834 C 0.14551 0.7988 0.2541 0.0
C1835 C 0.1628 0.81968 0.22514 0.0
C1836 C 0.17117 0.82069 0.20404 0.0
C1837 C 0.15457 0.80008 0.23332 0.0
C1838 C 0.17148 0.80198 0.19131 0.0
C1839 C 0.1638 0.78245 0.19942 0.0
H1840 H 0.01896 0.42297 0.08765 0.0
H1841 H 0.05309 0.45973 0.03939 0.0
H1842 H 0.03349 0.49224 0.04965 0.0
H1843 H 0.00831 0.51055 0.07331 0.0
H1844 H 0.97489 0.47519 0.12317 0.0
H1845 H 0.99224 0.44165 0.11117 0.0
C1846 C 0.02201 0.43816 0.0795 0.0
C1847 C 0.03771 0.43915 0.0631 0.0
C1848 C 0.01079 0.45692 0.0857 0.0
C1849 C 0.04151 0.45879 0.05244 0.0
C1850 C 0.03018 0.4773 0.05816 0.0
C1851 C 0.00466 0.4955 0.08152 0.0
C1852 C 0.99045 0.49536 0.09918 0.0
C1853 C 0.01505 0.4766 0.07493 0.0
C1854 C 0.98571 0.47568 0.10945 0.0
C1855 C 0.99576 0.45656 0.1027 0.0
H1856 H 0.50414 0.01535 0.86815 0.0
H1857 H 0.46936 0.99395 0.92439 0.0
H1858 H 0.48637 0.02235 0.94606 0.0
H1859 H 0.5142 0.05079 0.9496 0.0
H1860 H 0.54923 0.07196 0.89358 0.0
H1861 H 0.52921 0.04619 0.87093 0.0
C1862 C 0.4997 0.01758 0.88494 0.0
C1863 C 0.4852 0.00316 0.89466 0.0
C1864 C 0.51008 0.03344 0.89733 0.0
C1865 C 0.48 0.00545 0.91656 0.0
C1866 C 0.49001 0.02139 0.92898 0.0
C1867 C 0.51735 0.04953 0.93243 0.0
C1868 C 0.5334 0.0625 0.92311 0.0
C1869 C 0.5056 0.03498 0.91968 0.0
C1870 C 0.53723 0.06153 0.90089 0.0
C1871 C 0.5257 0.04701 0.88804 0.0
H1872 H 0.23296 0.22228 0.1483 0.0
H1873 H 0.25972 0.28165 0.12336 0.0
H1874 H 0.23088 0.30223 0.14001 0.0
H1875 H 0.19914 0.30387 0.16294 0.0
H1876 H 0.17118 0.24502 0.18777 0.0
H1877 H 0.19952 0.22398 0.17046 0.0
C1878 C 0.23216 0.23965 0.14625 0.0
C1879 C 0.24843 0.25041 0.13463 0.0
C1880 C 0.21555 0.25162 0.15622 0.0
C1881 C 0.24743 0.27298 0.13232 0.0
C1882 C 0.23097 0.28483 0.14189 0.0
C1883 C 0.19903 0.28644 0.16443 0.0
C1884 C 0.18297 0.27623 0.17677 0.0
C1885 C 0.21514 0.27438 0.15413 0.0
C1886 C 0.18347 0.25354 0.17874 0.0
C1887 C 0.19959 0.24139 0.16862 0.0
H1888 H 0.96743 0.00368 0.38434 0.0
H1889 H 0.03237 0.98191 0.39646 0.0
H1890 H 0.01816 0.94948 0.41444 0.0
H1891 H 0.98716 0.92959 0.42982 0.0
H1892 H 0.92247 0.95223 0.41767 0.0
H1893 H 0.93676 0.98233 0.39662 0.0
C1894 C 0.97852 0.99176 0.39077 0.0
C1895 C 0.00089 0.99524 0.38939 0.0
C1896 C 0.97026 0.97351 0.40123 0.0
C1897 C 0.01507 0.97952 0.39738 0.0
C1898 C 0.00694 0.9611 0.40776 0.0
C1899 C 0.97617 0.94085 0.42222 0.0
C1900 C 0.95374 0.93881 0.42553 0.0
C1901 C 0.98455 0.95822 0.41023 0.0
C1902 C 0.93976 0.95369 0.41572 0.0
C1903 C 0.94792 0.97083 0.40362 0.0
H1904 H 0.82637 0.23678 0.16849 0.0
H1905 H 0.81129 0.1739 0.14252 0.0
H1906 H 0.78239 0.18955 0.12085 0.0
H1907 H 0.75835 0.21987 0.11368 0.0
H1908 H 0.77232 0.28264 0.14022 0.0
H1909 H 0.80535 0.26844 0.15685 0.0
C1910 C 0.81717 0.22659 0.15766 0.0
C1911 C 0.82069 0.20411 0.15739 0.0
C1912 C 0.8004 0.23568 0.14549 0.0
C1913 C 0.80853 0.19113 0.14335 0.0
C1914 C 0.79208 0.20008 0.13093 0.0
C1915 C 0.76893 0.23053 0.12272 0.0
C1916 C 0.76295 0.2521 0.12606 0.0
C1917 C 0.78738 0.22214 0.13255 0.0
C1918 C 0.77674 0.26595 0.13748 0.0
C1919 C 0.79545 0.25777 0.14713 0.0
H1920 H 0.46723 0.54077 0.54488 0.0
H1921 H 0.47906 0.58473 0.59722 0.0
H1922 H 0.4992 0.55657 0.6167 0.0
H1923 H 0.5109 0.51819 0.61967 0.0
H1924 H 0.4987 0.4751 0.56637 0.0
H1925 H 0.4817 0.50417 0.54618 0.0
C1926 C 0.47427 0.54409 0.56055 0.0
C1927 C 0.47145 0.56448 0.56988 0.0
C1928 C 0.48588 0.52802 0.57135 0.0
C1929 C 0.48101 0.56898 0.58991 0.0
C1930 C 0.49248 0.55292 0.60098 0.0
C1931 C 0.50495 0.51542 0.60345 0.0
C1932 C 0.50585 0.49456 0.59455 0.0
C1933 C 0.49476 0.53222 0.59198 0.0
C1934 C 0.49796 0.49101 0.5736 0.0
C1935 C 0.48817 0.50758 0.56207 0.0
H1936 H 0.22548 0.76741 0.36264 0.0
H1937 H 0.27113 0.74425 0.3155 0.0
H1938 H 0.24293 0.7235 0.29771 0.0
H1939 H 0.20599 0.71007 0.29677 0.0
H1940 H 0.15957 0.73273 0.34314 0.0
H1941 H 0.18726 0.7555 0.36011 0.0
C1942 C 0.22902 0.75822 0.34818 0.0
C1943 C 0.25027 0.75728 0.34038 0.0
C1944 C 0.21273 0.74591 0.33819 0.0
C1945 C 0.25484 0.74512 0.32181 0.0
C1946 C 0.23879 0.73315 0.31169 0.0
C1947 C 0.20204 0.71981 0.31074 0.0
C1948 C 0.18101 0.71945 0.31903 0.0
C1949 C 0.21784 0.73298 0.32007 0.0
C1950 C 0.17581 0.73267 0.33669 0.0
C1951 C 0.19158 0.7457 0.3463 0.0
H1952 H 0.23897 0.27159 0.84446 0.0
H1953 H 0.27113 0.21043 0.85269 0.0
H1954 H 0.30447 0.22601 0.83776 0.0
H1955 H 0.3243 0.25741 0.82263 0.0
H1956 H 0.29195 0.31865 0.81667 0.0
H1957 H 0.25859 0.30263 0.83047 0.0
C1958 C 0.25322 0.26157 0.84289 0.0
C1959 C 0.2526 0.23984 0.84946 0.0
C1960 C 0.2722 0.27069 0.83474 0.0
C1961 C 0.27129 0.2272 0.84772 0.0
C1962 C 0.29027 0.2361 0.83915 0.0
C1963 C 0.30985 0.2671 0.82423 0.0
C1964 C 0.3104 0.28911 0.81856 0.0
C1965 C 0.29089 0.25784 0.83261 0.0
C1966 C 0.29179 0.30171 0.82103 0.0
C1967 C 0.27279 0.29256 0.82886 0.0
H1968 H 0.56968 0.50883 0.92649 0.0
H1969 H 0.58304 0.5734 0.94925 0.0
H1970 H 0.60201 0.55864 0.98037 0.0
H1971 H 0.61194 0.52761 0.00253 0.0
H1972 H 0.59946 0.463 0.97991 0.0
H1973 H 0.58339 0.47761 0.94673 0.0
C1974 C 0.57711 0.51974 0.93795 0.0
C1975 C 0.57461 0.54225 0.93568 0.0
C1976 C 0.58806 0.51113 0.95577 0.0
C1977 C 0.58425 0.55605 0.95087 0.0
C1978 C 0.5952 0.54762 0.9686 0.0
C1979 C 0.60587 0.51674 0.9902 0.0
C1980 C 0.60651 0.49436 0.99359 0.0
C1981 C 0.59669 0.52524 0.97146 0.0
C1982 C 0.59906 0.48032 0.97749 0.0
C1983 C 0.58979 0.48868 0.95867 0.0
H1984 H 0.71038 0.34708 0.18008 0.0
H1985 H 0.73645 0.2845 0.19473 0.0
H1986 H 0.7578 0.29987 0.2244 0.0
H1987 H 0.76656 0.33084 0.24776 0.0
H1988 H 0.74087 0.39362 0.23285 0.0
H1989 H 0.72222 0.37885 0.20121 0.0
C1990 C 0.72083 0.33701 0.18984 0.0
C1991 C 0.72178 0.31479 0.18581 0.0
C1992 C 0.73326 0.34608 0.20646 0.0
C1993 C 0.73552 0.30164 0.19801 0.0
C1994 C 0.74769 0.31043 0.2148 0.0
C1995 C 0.75745 0.34131 0.23707 0.0
C1996 C 0.75529 0.36324 0.2421 0.0
C1997 C 0.74648 0.33258 0.21932 0.0
C1998 C 0.74304 0.37676 0.22875 0.0
C1999 C 0.73218 0.36826 0.21092 0.0
H2000 H 0.90117 0.52437 0.48275 0.0
H2001 H 0.8551 0.47293 0.49138 0.0
H2002 H 0.87211 0.45218 0.4625 0.0
H2003 H 0.90286 0.44686 0.43786 0.0
H2004 H 0.94926 0.49791 0.42942 0.0
H2005 H 0.9298 0.52055 0.45531 0.0
C2006 C 0.8945 0.50896 0.47769 0.0
C2007 C 0.8769 0.50015 0.48885 0.0
C2008 C 0.90486 0.49681 0.46162 0.0
C2009 C 0.86859 0.47997 0.48273 0.0
C2010 C 0.87844 0.46802 0.46643 0.0
C2011 C 0.90853 0.46297 0.44175 0.0
C2012 C 0.92745 0.47073 0.43215 0.0
C2013 C 0.89708 0.47592 0.45636 0.0
C2014 C 0.93467 0.49173 0.43682 0.0
C2015 C 0.92355 0.50464 0.45153 0.0
H2016 H 0.72267 0.65872 0.7347 0.0
H2017 H 0.77508 0.6153 0.74865 0.0
H2018 H 0.79566 0.62958 0.71823 0.0
H2019 H 0.80068 0.65773 0.69086 0.0
H2020 H 0.74887 0.70167 0.67674 0.0
H2021 H 0.72605 0.68411 0.70394 0.0
C2022 C 0.73827 0.65199 0.73051 0.0
C2023 C 0.74746 0.63605 0.74363 0.0
C2024 C 0.75029 0.66076 0.71335 0.0
C2025 C 0.76782 0.62759 0.73854 0.0
C2026 C 0.77964 0.63586 0.72132 0.0
C2027 C 0.78433 0.66325 0.69372 0.0
C2028 C 0.77646 0.68102 0.68223 0.0
C2029 C 0.7714 0.65302 0.70919 0.0
C2030 C 0.75516 0.68797 0.68558 0.0
C2031 C 0.74217 0.67797 0.7011 0.0
H2032 H 0.57191 0.48442 0.48698 0.0
H2033 H 0.62264 0.51832 0.52053 0.0
H2034 H 0.61279 0.49974 0.55418 0.0
H2035 H 0.5909 0.47188 0.57335 0.0
H2036 H 0.54174 0.43733 0.53822 0.0
H2037 H 0.55001 0.45793 0.50575 0.0
C2038 C 0.58077 0.48792 0.50167 0.0
C2039 C 0.59803 0.50264 0.50126 0.0
C2040 C 0.5755 0.47675 0.52057 0.0
C2041 C 0.60917 0.50715 0.52048 0.0
C2042 C 0.60368 0.49637 0.53964 0.0
C2043 C 0.58218 0.46889 0.55849 0.0
C2044 C 0.56609 0.45279 0.55798 0.0
C2045 C 0.58713 0.48078 0.53975 0.0
C2046 C 0.55463 0.44915 0.53879 0.0
C2047 C 0.55917 0.46109 0.52031 0.0
H2048 H 0.77051 0.33328 0.73476 0.0
H2049 H 0.72772 0.37081 0.7748 0.0
H2050 H 0.74675 0.35794 0.80712 0.0
H2051 H 0.77601 0.33633 0.82363 0.0
H2052 H 0.81803 0.29894 0.78249 0.0
H2053 H 0.79922 0.31223 0.75084 0.0
C2054 C 0.7652 0.3387 0.75052 0.0
C2055 C 0.74766 0.353 0.75234 0.0
C2056 C 0.77635 0.33155 0.7688 0.0
C2057 C 0.74107 0.35971 0.77295 0.0
C2058 C 0.75205 0.35246 0.79139 0.0
C2059 C 0.78105 0.33104 0.80776 0.0
C2060 C 0.79854 0.31659 0.80563 0.0
C2061 C 0.76981 0.33845 0.78947 0.0
C2062 C 0.80498 0.31026 0.78481 0.0
C2063 C 0.79402 0.31766 0.76663 0.0
H2064 H 0.87092 0.52581 0.0009 0.0
H2065 H 0.89256 0.46199 0.01812 0.0
H2066 H 0.91116 0.47684 0.04989 0.0
H2067 H 0.92442 0.50871 0.07012 0.0
H2068 H 0.90283 0.57233 0.05171 0.0
H2069 H 0.88115 0.55681 0.02278 0.0
C2070 C 0.87948 0.51508 0.01178 0.0
C2071 C 0.88056 0.4929 0.00717 0.0
C2072 C 0.89036 0.52377 0.02954 0.0
C2073 C 0.89143 0.47912 0.02147 0.0
C2074 C 0.90221 0.48765 0.03947 0.0
C2075 C 0.91465 0.51913 0.06005 0.0
C2076 C 0.91547 0.54173 0.06292 0.0
C2077 C 0.90226 0.51006 0.04331 0.0
C2078 C 0.90284 0.55499 0.04957 0.0
C2079 C 0.89035 0.54611 0.03311 0.0
H2080 H 0.73571 0.66448 0.32718 0.0
H2081 H 0.67218 0.66478 0.2988 0.0
H2082 H 0.68689 0.6506 0.26512 0.0
H2083 H 0.7178 0.64007 0.24337 0.0
H2084 H 0.78164 0.63917 0.27106 0.0
H2085 H 0.76682 0.65169 0.30566 0.0
C2086 C 0.72515 0.66145 0.31358 0.0
C2087 C 0.70291 0.66586 0.31534 0.0
C2088 C 0.73376 0.65332 0.29428 0.0
C2089 C 0.68928 0.66141 0.29782 0.0
C2090 C 0.69771 0.65344 0.27857 0.0
C2091 C 0.72854 0.64261 0.25696 0.0
C2092 C 0.75082 0.63905 0.25466 0.0
C2093 C 0.71993 0.64965 0.27656 0.0
C2094 C 0.76444 0.64191 0.2725 0.0
C2095 C 0.75597 0.64911 0.29219 0.0
H2096 H 0.9583 0.55657 0.54313 0.0
H2097 H 0.91079 0.59082 0.50576 0.0
H2098 H 0.93955 0.60822 0.48474 0.0
H2099 H 0.97879 0.61468 0.47804 0.0
H2100 H 0.02518 0.5793 0.51623 0.0
H2101 H 0.99638 0.56165 0.53581 0.0
C2102 C 0.95418 0.56802 0.53057 0.0
C2103 C 0.93243 0.57259 0.52628 0.0
C2104 C 0.97069 0.57782 0.5186 0.0
C2105 C 0.92742 0.58701 0.50944 0.0
C2106 C 0.94388 0.597 0.49744 0.0
C2107 C 0.98252 0.60293 0.49047 0.0
C2108 C 0.00421 0.59852 0.49566 0.0
C2109 C 0.96566 0.59263 0.50195 0.0
C2110 C 0.00872 0.58324 0.51188 0.0
C2111 C 0.99223 0.57306 0.5232 0.0
H2112 H 0.65661 0.76217 0.77086 0.0
H2113 H 0.63544 0.72458 0.71618 0.0
H2114 H 0.65074 0.69195 0.73277 0.0
H2115 H 0.66946 0.67431 0.76337 0.0
H2116 H 0.69047 0.71319 0.81733 0.0
H2117 H 0.67528 0.7451 0.80055 0.0
C2118 C 0.65532 0.7469 0.7624 0.0
C2119 C 0.64487 0.74584 0.74226 0.0
C2120 C 0.66388 0.7284 0.77206 0.0
C2121 C 0.64343 0.72585 0.73167 0.0
C2122 C 0.65211 0.70721 0.7412 0.0
C2123 C 0.67089 0.68975 0.77141 0.0
C2124 C 0.68112 0.69115 0.79174 0.0
C2125 C 0.6623 0.7083 0.76147 0.0
C2126 C 0.68244 0.71138 0.80195 0.0
C2127 C 0.67391 0.72976 0.79225 0.0
H2128 H 0.54801 0.40384 0.06129 0.0
H2129 H 0.57195 0.43077 0.00174 0.0
H2130 H 0.5438 0.41194 0.98158 0.0
H2131 H 0.50975 0.39099 0.98143 0.0
H2132 H 0.48499 0.3661 0.04153 0.0
H2133 H 0.51606 0.38064 0.06084 0.0
C2134 C 0.54709 0.40549 0.0439 0.0
C2135 C 0.5619 0.41882 0.03311 0.0
C2136 C 0.53066 0.39494 0.03247 0.0
C2137 C 0.56082 0.4205 0.01048 0.0
C2138 C 0.54463 0.40983 -0.00108 0.0
C2139 C 0.51154 0.38834 -0.00136 0.0
C2140 C 0.49521 0.37761 0.01012 0.0
C2141 C 0.52915 0.39739 0.00979 0.0
C2142 C 0.49741 0.37446 0.03245 0.0
C2143 C 0.5151 0.38282 0.04351 0.0
H2144 H 0.83561 0.32318 0.26589 0.0
H2145 H 0.78567 0.28554 0.29652 0.0
H2146 H 0.79619 0.25386 0.27577 0.0
H2147 H 0.82081 0.23632 0.25112 0.0
H2148 H 0.8728 0.2722 0.22171 0.0
H2149 H 0.85996 0.30535 0.23928 0.0
C2150 C 0.82707 0.30801 0.26784 0.0
C2151 C 0.81015 0.3065 0.28293 0.0
C2152 C 0.83349 0.28969 0.25604 0.0
C2153 C 0.79906 0.28687 0.28537 0.0
C2154 C 0.80495 0.26884 0.2734 0.0
C2155 C 0.82931 0.2514 0.24834 0.0
C2156 C 0.84785 0.25178 0.2353 0.0
C2157 C 0.82235 0.26998 0.25902 0.0
C2158 C 0.85844 0.27152 0.23166 0.0
C2159 C 0.85121 0.2904 0.24185 0.0
H2160 H 0.92318 0.39689 0.97053 0.0
H2161 H 0.95051 0.46014 0.96105 0.0
H2162 H 0.98259 0.44975 0.98179 0.0
H2163 H 0.00361 0.42179 0.00021 0.0
H2164 H 0.97602 0.35878 0.01092 0.0
H2165 H 0.94277 0.36998 0.99253 0.0
C2166 C 0.93629 0.40824 0.97298 0.0
C2167 C 0.93503 0.429 0.96394 0.0
C2168 C 0.95428 0.40228 0.9853 0.0
C2169 C 0.95156 0.44398 0.96767 0.0
C2170 C 0.96973 0.43808 0.97955 0.0
C2171 C 0.99009 0.41071 -0.00112 0.0
C2172 C 0.99204 0.38957 0.00674 0.0
C2173 C 0.97134 0.4172 0.98817 0.0
C2174 C 0.97459 0.37524 0.00515 0.0
C2175 C 0.95578 0.38155 0.99441 0.0
H2176 H 0.83417 0.67413 0.2317 0.0
H2177 H 0.79851 0.71244 0.18582 0.0
H2178 H 0.81086 0.74544 0.2032 0.0
H2179 H 0.83204 0.76336 0.23052 0.0
H2180 H 0.86919 0.72642 0.27636 0.0
H2181 H 0.85572 0.69277 0.26012 0.0
C2182 C 0.82916 0.68975 0.22562 0.0
C2183 C 0.81568 0.69091 0.20735 0.0
C2184 C 0.83647 0.70878 0.23569 0.0
C2185 C 0.80925 0.71117 0.19954 0.0
C2186 C 0.81615 0.73003 0.20957 0.0
C2187 C 0.83726 0.74799 0.23709 0.0
C2188 C 0.85169 0.74738 0.25456 0.0
C2189 C 0.82984 0.729 0.22751 0.0
C2190 C 0.85806 0.7273 0.26293 0.0
C2191 C 0.85043 0.7081 0.25358 0.0
H2192 H 0.50349 0.6267 0.46913 0.0
H2193 H 0.5212 0.60562 0.53298 0.0
H2194 H 0.55236 0.5862 0.518 0.0
H2195 H 0.57114 0.57142 0.4861 0.0
H2196 H 0.55205 0.592 0.42236 0.0
H2197 H 0.52453 0.61538 0.43795 0.0
C2198 C 0.51443 0.61816 0.47981 0.0
C2199 C 0.5101 0.61734 0.50203 0.0
C2200 C 0.53172 0.60669 0.47104 0.0
C2201 C 0.5244 0.60652 0.51581 0.0
C2202 C 0.54201 0.59525 0.50721 0.0
C2203 C 0.56128 0.58136 0.47565 0.0
C2204 C 0.56343 0.57974 0.45304 0.0
C2205 C 0.54535 0.59464 0.48475 0.0
C2206 C 0.55039 0.59261 0.43974 0.0
C2207 C 0.53475 0.60606 0.44864 0.0
H2208 H 0.62376 0.26998 0.75631 0.0
H2209 H 0.67994 0.2294 0.75073 0.0
H2210 H 0.69939 0.25811 0.73205 0.0
H2211 H 0.69924 0.29328 0.71402 0.0
H2212 H 0.64398 0.33474 0.71945 0.0
H2213 H 0.62514 0.30729 0.74125 0.0
C2214 C 0.64046 0.26778 0.75154 0.0
C2215 C 0.65048 0.24771 0.75483 0.0
C2216 C 0.65143 0.28427 0.74027 0.0
C2217 C 0.67198 0.24479 0.74831 0.0
C2218 C 0.68304 0.2611 0.73748 0.0
C2219 C 0.68305 0.29616 0.71998 0.0
C2220 C 0.67267 0.31555 0.71482 0.0
C2221 C 0.67268 0.28059 0.73272 0.0
C2222 C 0.65199 0.31964 0.72307 0.0
C2223 C 0.64133 0.30403 0.73555 0.0
H2224 H 0.5159 0.9268 0.57141 0.0
H2225 H 0.57962 0.9529 0.58262 0.0
H2226 H 0.56394 0.98294 0.60255 0.0
H2227 H 0.53222 0.00296 0.61463 0.0
H2228 H 0.46847 0.97695 0.60426 0.0
H2229 H 0.48421 0.94516 0.58659 0.0
C2230 C 0.52649 0.93872 0.57856 0.0
C2231 C 0.54903 0.93758 0.57526 0.0
C2232 C 0.51735 0.95594 0.59012 0.0
C2233 C 0.56228 0.95352 0.5845 0.0
C2234 C 0.55332 0.97066 0.59601 0.0
C2235 C 0.52175 0.99023 0.60867 0.0
C2236 C 0.49923 0.99231 0.61052 0.0
C2237 C 0.53089 0.97224 0.59852 0.0
C2238 C 0.48586 0.97561 0.60305 0.0
C2239 C 0.49486 0.95756 0.59284 0.0
H2240 H 0.02854 0.49075 0.40137 0.0
H2241 H 0.97522 0.52726 0.3755 0.0
H2242 H 0.99148 0.56072 0.3894 0.0
H2243 H 0.0211 0.57923 0.40903 0.0
H2244 H 0.07348 0.54127 0.43495 0.0
H2245 H 0.05742 0.50866 0.42039 0.0
C2246 C 0.02034 0.50597 0.39868 0.0
C2247 C 0.00066 0.50651 0.3874 0.0
C2248 C 0.02974 0.52488 0.40656 0.0
C2249 C 0.99037 0.52643 0.38416 0.0
C2250 C -0.00031 0.54552 0.39206 0.0
C2251 C 0.02896 0.56382 0.41153 0.0
C2252 C 0.0486 0.56282 0.42302 0.0
C2253 C 0.01941 0.54491 0.40331 0.0
C2254 C 0.05866 0.5427 0.42587 0.0
C2255 C 0.04935 0.52395 0.41772 0.0
H2256 H 0.67373 0.76739 0.66308 0.0
H2257 H 0.70748 0.82662 0.6787 0.0
H2258 H 0.73924 0.8136 0.66038 0.0
H2259 H 0.75834 0.78519 0.64168 0.0
H2260 H 0.72646 0.72489 0.62732 0.0
H2261 H 0.69307 0.73863 0.64362 0.0
C2262 C 0.68795 0.77751 0.66267 0.0
C2263 C 0.68784 0.79809 0.67256 0.0
C2264 C 0.70663 0.76972 0.65238 0.0
C2265 C 0.70662 0.81088 0.67127 0.0
C2266 C 0.72502 0.80339 0.66084 0.0
C2267 C 0.74411 0.77497 0.64199 0.0
C2268 C 0.74492 0.75399 0.63336 0.0
C2269 C 0.72527 0.7828 0.65159 0.0
C2270 C 0.72625 0.74111 0.63383 0.0
C2271 C 0.70721 0.74895 0.6432 0.0
H2272 H 0.44404 0.44247 0.91146 0.0
H2273 H 0.49617 0.42339 0.95314 0.0
H2274 H 0.52015 0.44981 0.93586 0.0
H2275 H 0.52493 0.48108 0.91109 0.0
H2276 H 0.47207 0.49978 0.86998 0.0
H2277 H 0.44988 0.47059 0.88435 0.0
C2278 C 0.46069 0.4441 0.91661 0.0
C2279 C 0.46831 0.43136 0.93363 0.0
C2280 C 0.47427 0.45917 0.90658 0.0
C2281 C 0.49001 0.43315 0.94001 0.0
C2282 C 0.50368 0.44826 0.93019 0.0
C2283 C 0.50879 0.47825 0.90494 0.0
C2284 C 0.50004 0.49238 0.88958 0.0
C2285 C 0.49586 0.46167 0.9137 0.0
C2286 C 0.47902 0.48896 0.88185 0.0
C2287 C 0.46628 0.4724 0.89014 0.0
H2288 H 0.23292 0.71941 0.64825 0.0
H2289 H 0.27105 0.77033 0.61967 0.0
H2290 H 0.30372 0.75503 0.63611 0.0
H2291 H 0.32097 0.72738 0.65926 0.0
H2292 H 0.28122 0.67807 0.68875 0.0
H2293 H 0.24965 0.69247 0.67086 0.0
C2294 C 0.24835 0.72724 0.64546 0.0
C2295 C 0.24955 0.746 0.63273 0.0
C2296 C 0.26678 0.71856 0.65506 0.0
C2297 C 0.2697 0.75586 0.62941 0.0
C2298 C 0.28834 0.74712 0.63881 0.0
C2299 C 0.30542 0.71982 0.66187 0.0
C2300 C 0.30368 0.70151 0.67536 0.0
C2301 C 0.28702 0.72852 0.65181 0.0
C2302 C 0.28332 0.69184 0.67822 0.0
C2303 C 0.26512 0.7002 0.66813 0.0
H2304 H 0.95525 0.05777 0.10227 0.0
H2305 H 0.00476 0.07352 0.05614 0.0
H2306 H 0.02805 0.04532 0.07095 0.0
H2307 H 0.03228 0.01294 0.09425 0.0
H2308 H 0.98253 0.9978 0.14043 0.0
H2309 H 0.96173 0.02919 0.12899 0.0
C2310 C 0.97126 0.05515 0.09572 0.0
C2311 C 0.97815 0.06739 0.07797 0.0
C2312 C 0.9846 0.03905 0.10446 0.0
C2313 C -0.00094 0.06418 0.06976 0.0
C2314 C 0.01238 0.04803 0.07821 0.0
C2315 C 0.01729 0.01708 0.10228 0.0
C2316 C 0.00891 0.00326 0.11816 0.0
C2317 C 0.00511 0.03496 0.09522 0.0
C2318 C 0.98926 0.00839 0.12822 0.0
C2319 C 0.97727 0.02619 0.12155 0.0
H2320 H 0.70154 0.21606 0.79154 0.0
H2321 H 0.66996 0.20473 0.85226 0.0
H2322 H 0.69638 0.22802 0.87068 0.0
H2323 H 0.73042 0.2491 0.86951 0.0
H2324 H 0.76188 0.25967 0.8084 0.0
H2325 H 0.73321 0.23991 0.78981 0.0
C2326 C 0.70066 0.21868 0.80882 0.0
C2327 C 0.68448 0.20835 0.8208 0.0
C2328 C 0.71558 0.23228 0.81902 0.0
C2329 C 0.68274 0.21228 0.843 0.0
C2330 C 0.69769 0.22565 0.85341 0.0
C2331 C 0.73047 0.24768 0.85206 0.0
C2332 C 0.74793 0.25594 0.84019 0.0
C2333 C 0.71437 0.23554 0.84161 0.0
C2334 C 0.74834 0.25358 0.81769 0.0
C2335 C 0.73215 0.24207 0.80713 0.0
H2336 H 0.76561 0.7521 0.38344 0.0
H2337 H 0.74294 0.72322 0.32446 0.0
H2338 H 0.77196 0.74082 0.30424 0.0
H2339 H 0.80117 0.76784 0.30284 0.0
H2340 H 0.82262 0.79856 0.36116 0.0
H2341 H 0.79687 0.77695 0.38242 0.0
C2342 C 0.76764 0.74912 0.3663 0.0
C2343 C 0.7527 0.73605 0.35542 0.0
C2344 C 0.78379 0.76004 0.35471 0.0
C2345 C 0.75474 0.73279 0.33313 0.0
C2346 C 0.77111 0.74308 0.32156 0.0
C2347 C 0.80013 0.76955 0.32022 0.0
C2348 C 0.81324 0.78475 0.33062 0.0
C2349 C 0.78526 0.75728 0.33207 0.0
C2350 C 0.81226 0.78704 0.35307 0.0
C2351 C 0.79768 0.77467 0.3651 0.0
H2352 H 0.15924 0.04887 0.30315 0.0
H2353 H 0.15629 0.11847 0.30707 0.0
H2354 H 0.12173 0.11608 0.32549 0.0
H2355 H 0.09426 0.09446 0.34367 0.0
H2356 H 0.09577 0.02502 0.33947 0.0
H2357 H 0.12907 0.02709 0.31792 0.0
C2358 C 0.15088 0.06354 0.30768 0.0
C2359 C 0.16065 0.08383 0.30398 0.0
C2360 C 0.13096 0.06207 0.31854 0.0
C2361 C 0.14937 0.10264 0.30979 0.0
C2362 C 0.12961 0.1013 0.32048 0.0
C2363 C 0.10187 0.07974 0.33805 0.0
C2364 C 0.09296 0.05957 0.34359 0.0
C2365 C 0.12065 0.08112 0.32554 0.0
C2366 C 0.10255 0.04069 0.33562 0.0
C2367 C 0.12154 0.04191 0.32332 0.0
H2368 H 0.16948 0.85974 0.60696 0.0
H2369 H 0.21472 0.83015 0.5631 0.0
H2370 H 0.21041 0.8606 0.53811 0.0
H2371 H 0.19218 0.89475 0.52807 0.0
H2372 H 0.14566 0.92249 0.57185 0.0
H2373 H 0.15192 0.89339 0.59742 0.0
C2374 C 0.17859 0.85989 0.59202 0.0
C2375 C 0.19239 0.84259 0.58692 0.0
C2376 C 0.17558 0.87703 0.57759 0.0
C2377 C 0.20404 0.84325 0.56747 0.0
C2378 C 0.20146 0.8606 0.55313 0.0
C2379 C 0.18341 0.89442 0.5432 0.0
C2380 C 0.16848 0.91091 0.54801 0.0
C2381 C 0.18698 0.87741 0.55788 0.0
C2382 C 0.1573 0.91019 0.56772 0.0
C2383 C 0.16088 0.89351 0.58239 0.0
H2384 H 0.35669 0.87902 0.80528 0.0
H2385 H 0.31816 0.93637 0.81197 0.0
H2386 H 0.34957 0.95615 0.82602 0.0
H2387 H 0.38657 0.95474 0.8424 0.0
H2388 H 0.42276 0.89553 0.83715 0.0
H2389 H 0.39418 0.87918 0.81616 0.0
C2390 C 0.35534 0.89603 0.80925 0.0
C2391 C 0.33519 0.90613 0.80793 0.0
C2392 C 0.37318 0.90699 0.81774 0.0
C2393 C 0.33358 0.92822 0.81291 0.0
C2394 C 0.3515 0.93946 0.82114 0.0
C2395 C 0.38835 0.93855 0.83601 0.0
C2396 C 0.40693 0.92649 0.84102 0.0
C2397 C 0.37119 0.92871 0.82455 0.0
C2398 C 0.40888 0.90533 0.83311 0.0
C2399 C 0.39241 0.89582 0.82128 0.0
H2400 H 0.3344 0.08582 0.10194 0.0
H2401 H 0.32673 0.07911 0.03308 0.0
H2402 H 0.30703 0.11339 0.03185 0.0
H2403 H 0.29498 0.1467 0.04999 0.0
H2404 H 0.30307 0.15299 0.11895 0.0
H2405 H 0.31929 0.11721 0.12047 0.0
C2406 C 0.32834 0.09177 0.08663 0.0
C2407 C 0.33236 0.0801 0.06755 0.0
C2408 C 0.31709 0.1114 0.08608 0.0
C2409 C 0.324 0.08785 0.04796 0.0
C2410 C 0.31277 0.10746 0.04727 0.0
C2411 C 0.29997 0.14014 0.06543 0.0
C2412 C 0.29803 0.15275 0.08429 0.0
C2413 C 0.30962 0.1196 0.06617 0.0
C2414 C 0.30446 0.14381 0.10414 0.0
C2415 C 0.31386 0.12335 0.10503 0.0
H2416 H 0.09774 0.95698 0.17093 0.0
H2417 H 0.09536 0.89109 0.14832 0.0
H2418 H 0.12528 0.88153 0.17162 0.0
H2419 H 0.1555 0.89276 0.19399 0.0
H2420 H 0.16214 0.95939 0.21227 0.0
H2421 H 0.12678 0.96754 0.19652 0.0
C2422 C 0.10373 0.94055 0.17126 0.0
C2423 C 0.09463 0.92497 0.15745 0.0
C2424 C 0.12156 0.93516 0.18438 0.0
C2425 C 0.10239 0.90362 0.15828 0.0
C2426 C 0.11941 0.89801 0.17181 0.0
C2427 C 0.14875 0.90884 0.19532 0.0
C2428 C 0.16121 0.92539 0.20443 0.0
C2429 C 0.12954 0.91375 0.18441 0.0
C2430 C 0.15258 0.94632 0.20565 0.0
C2431 C 0.13259 0.95105 0.1962 0.0
H2432 H 0.33222 0.83382 0.42278 0.0
H2433 H 0.2787 0.86262 0.38921 0.0
H2434 H 0.28662 0.89751 0.40645 0.0
H2435 H 0.31351 0.92067 0.42501 0.0
H2436 H 0.36875 0.8913 0.45527 0.0
H2437 H 0.35489 0.85545 0.44638 0.0
C2438 C 0.32165 0.84747 0.42 0.0
C2439 C 0.3048 0.84571 0.40494 0.0
C2440 C 0.32679 0.86738 0.42936 0.0
C2441 C 0.29157 0.86362 0.401 0.0
C2442 C 0.29628 0.88357 0.41069 0.0
C2443 C 0.32204 0.90638 0.43034 0.0
C2444 C 0.34211 0.90849 0.44082 0.0
C2445 C 0.31452 0.88585 0.42406 0.0
C2446 C 0.35318 0.88993 0.44741 0.0
C2447 C 0.34538 0.86949 0.44209 0.0
H2448 H 0.33009 0.05812 0.67947 0.0
H2449 H 0.36022 0.10669 0.71902 0.0
H2450 H 0.39566 0.09115 0.71148 0.0
H2451 H 0.41777 0.0704 0.6862 0.0
H2452 H 0.38765 0.02559 0.64246 0.0
H2453 H 0.3525 0.03274 0.65902 0.0
C2454 C 0.34427 0.06475 0.68718 0.0
C2455 C 0.34252 0.08353 0.69986 0.0
C2456 C 0.36469 0.05664 0.68147 0.0
C2457 C 0.36115 0.09203 0.70952 0.0
C2458 C 0.38145 0.08336 0.70488 0.0
C2459 C 0.40371 0.06145 0.68094 0.0
C2460 C 0.40532 0.04728 0.66328 0.0
C2461 C 0.38346 0.0666 0.68976 0.0
C2462 C 0.38683 0.03624 0.65629 0.0
C2463 C 0.3667 0.04057 0.66559 0.0
H2464 H 0.16518 0.1542 0.9224 0.0
H2465 H 0.23263 0.14675 0.90749 0.0
H2466 H 0.23387 0.11364 0.92946 0.0
H2467 H 0.21413 0.08446 0.94859 0.0
H2468 H 0.14648 0.09287 0.96304 0.0
H2469 H 0.14702 0.12823 0.94586 0.0
C2470 C 0.18025 0.14549 0.92427 0.0
C2471 C 0.19873 0.15256 0.91318 0.0
C2472 C 0.18073 0.12665 0.93675 0.0
C2473 C 0.21823 0.14147 0.9159 0.0
C2474 C 0.21887 0.12253 0.92835 0.0
C2475 C 0.19967 0.09428 0.94853 0.0
C2476 C 0.18017 0.08582 0.95675 0.0
C2477 C 0.20001 0.1146 0.93829 0.0
C2478 C 0.1616 0.09882 0.95655 0.0
C2479 C 0.16187 0.11903 0.94666 0.0
H2480 H 0.04277 0.29888 0.15588 0.0
H2481 H 0.11234 0.29451 0.15431 0.0
H2482 H 0.1128 0.31076 0.11857 0.0
H2483 H 0.09396 0.33013 0.08977 0.0
H2484 H 0.02453 0.33402 0.0903 0.0
H2485 H 0.02348 0.31392 0.12445 0.0
C2486 C 0.05802 0.30109 0.14756 0.0
C2487 C 0.07751 0.29588 0.15805 0.0
C2488 C 0.05822 0.31065 0.12698 0.0
C2489 C 0.09708 0.29857 0.14684 0.0
C2490 C 0.0974 0.30799 0.12639 0.0
C2491 C 0.07858 0.32645 0.09731 0.0
C2492 C 0.05936 0.33391 0.0879 0.0
C2493 C 0.07815 0.3148 0.11669 0.0
C2494 C 0.03952 0.32858 0.09743 0.0
C2495 C 0.03895 0.31714 0.11693 0.0
H2496 H 0.57443 0.18042 0.91623 0.0
H2497 H 0.52954 0.13481 0.88907 0.0
H2498 H 0.53819 0.14777 0.85267 0.0
H2499 H 0.56392 0.16673 0.82893 0.0
H2500 H 0.60996 0.21114 0.85615 0.0
H2501 H 0.59526 0.20447 0.89229 0.0
C2502 C 0.56586 0.17403 0.90238 0.0
C2503 C 0.55117 0.15691 0.90521 0.0
C2504 C 0.57141 0.18118 0.88156 0.0
C2505 C 0.54055 0.1483 0.8872 0.0
C2506 C 0.54573 0.15552 0.86641 0.0
C2507 C 0.57006 0.17563 0.84269 0.0
C2508 C 0.58778 0.18959 0.84 0.0
C2509 C 0.56187 0.17122 0.86339 0.0
C2510 C 0.59605 0.20065 0.85791 0.0
C2511 C 0.5878 0.19662 0.87856 0.0
H2512 H 0.88299 0.80212 0.36425 0.0
H2513 H 0.93767 0.816 0.32379 0.0
H2514 H 0.95815 0.8287 0.35522 0.0
H2515 H 0.9571 0.84296 0.39297 0.0
H2516 H 0.9006 0.83024 0.43164 0.0
H2517 H 0.88466 0.80947 0.4027 0.0
C2518 C 0.89974 0.80703 0.36253 0.0
C2519 C 0.90882 0.80824 0.34191 0.0
C2520 C 0.91105 0.81482 0.38048 0.0
C2521 C 0.93041 0.81484 0.33964 0.0
C2522 C 0.94202 0.82236 0.35759 0.0
C2523 C 0.94171 0.83491 0.39521 0.0
C2524 C 0.93016 0.838 0.4145 0.0
C2525 C 0.93206 0.82353 0.37794 0.0
C2526 C 0.91 0.82785 0.41712 0.0
C2527 C 0.9007 0.81612 0.40045 0.0
H2528 H 0.90424 0.20994 0.13685 0.0
H2529 H 0.94125 0.16963 0.17974 0.0
H2530 H 0.96257 0.15651 0.14979 0.0
H2531 H 0.96375 0.14936 0.11082 0.0
H2532 H 0.92814 0.19033 0.06749 0.0
H2533 H 0.91363 0.21053 0.09793 0.0
C2534 C 0.91774 0.19919 0.13973 0.0
C2535 C 0.92102 0.19075 0.16051 0.0
C2536 C 0.92987 0.19134 0.12219 0.0
C2537 C 0.93833 0.17654 0.16402 0.0
C2538 C 0.95047 0.16876 0.14677 0.0
C2539 C 0.9537 0.16342 0.10804 0.0
C2540 C 0.94667 0.16804 0.08705 0.0
C2541 C 0.9454 0.17498 0.12566 0.0
C2542 C 0.93358 0.18621 0.08353 0.0
C2543 C 0.92513 0.19774 0.101 0.0
H2544 H 0.40681 0.70919 0.64186 0.0
H2545 H 0.41879 0.65287 0.68101 0.0
H2546 H 0.44035 0.63701 0.65259 0.0
H2547 H 0.44874 0.63545 0.61425 0.0
H2548 H 0.43707 0.69072 0.57382 0.0
H2549 H 0.42278 0.71073 0.60482 0.0
C2550 C 0.41493 0.69391 0.64438 0.0
C2551 C 0.41132 0.6823 0.66356 0.0
C2552 C 0.42694 0.6844 0.62749 0.0
C2553 C 0.42157 0.66229 0.66654 0.0
C2554 C 0.43373 0.65302 0.65016 0.0
C2555 C 0.44384 0.65218 0.61245 0.0
C2556 C 0.4436 0.66151 0.59189 0.0
C2557 C 0.43552 0.66339 0.63022 0.0
C2558 C 0.43728 0.68317 0.58958 0.0
C2559 C 0.42894 0.69455 0.60728 0.0
H2560 H 0.07566 0.68902 0.41532 0.0
H2561 H 0.02888 0.64458 0.38949 0.0
H2562 H 0.03456 0.65949 0.35326 0.0
H2563 H 0.05904 0.67906 0.32855 0.0
H2564 H 0.10761 0.72146 0.35453 0.0
H2565 H 0.09484 0.71396 0.39116 0.0
C2566 C 0.06592 0.68337 0.40192 0.0
C2567 C 0.05165 0.66594 0.40504 0.0
C2568 C 0.06996 0.69147 0.38111 0.0
C2569 C 0.03958 0.65829 0.3875 0.0
C2570 C 0.04311 0.66662 0.36675 0.0
C2571 C 0.06607 0.68746 0.34219 0.0
C2572 C 0.084 0.70107 0.33892 0.0
C2573 C 0.05911 0.68237 0.36323 0.0
C2574 C 0.09348 0.71135 0.3567 0.0
C2575 C 0.08636 0.7068 0.37764 0.0
H2576 H 0.45414 0.29858 0.8444 0.0
H2577 H 0.38459 0.30329 0.84258 0.0
H2578 H 0.38466 0.32094 0.87757 0.0
H2579 H 0.40438 0.33823 0.90692 0.0
H2580 H 0.47359 0.33313 0.91038 0.0
H2581 H 0.47378 0.31224 0.87659 0.0
C2582 C 0.43897 0.30312 0.85181 0.0
C2583 C 0.4194 0.29994 0.84055 0.0
C2584 C 0.43909 0.3134 0.87211 0.0
C2585 C 0.39991 0.30576 0.8506 0.0
C2586 C 0.39992 0.31594 0.87065 0.0
C2587 C 0.41952 0.33242 0.90033 0.0
C2588 C 0.439 0.33751 0.91078 0.0
C2589 C 0.41941 0.3204 0.8812 0.0
C2590 C 0.45844 0.32948 0.90246 0.0
C2591 C 0.45851 0.31763 0.88315 0.0
H2592 H 0.58359 0.56876 0.81354 0.0
H2593 H 0.60963 0.53346 0.86741 0.0
H2594 H 0.64632 0.5425 0.85585 0.0
H2595 H 0.66977 0.56722 0.83544 0.0
H2596 H 0.64366 0.60435 0.78285 0.0
H2597 H 0.60812 0.58773 0.78856 0.0
C2598 C 0.59735 0.56221 0.8221 0.0
C2599 C 0.59407 0.55028 0.84113 0.0
C2600 C 0.61829 0.56829 0.81583 0.0
C2601 C 0.61191 0.54231 0.85248 0.0
C2602 C 0.63284 0.54777 0.84605 0.0
C2603 C 0.65644 0.571 0.82474 0.0
C2604 C 0.6591 0.58689 0.80878 0.0
C2605 C 0.6361 0.56175 0.82849 0.0
C2606 C 0.64186 0.59197 0.79509 0.0
C2607 C 0.62155 0.58261 0.79851 0.0
H2608 H 0.6831 0.41502 0.07039 0.0
H2609 H 0.63315 0.38648 0.03141 0.0
H2610 H 0.6472 0.35042 0.03921 0.0
H2611 H 0.66804 0.32745 0.06396 0.0
H2612 H 0.71575 0.35601 0.10559 0.0
H2613 H 0.70851 0.39167 0.08998 0.0
C2614 C 0.67595 0.40095 0.06283 0.0
C2615 C 0.65727 0.40328 0.0502 0.0
C2616 C 0.68344 0.38028 0.06839 0.0
C2617 C 0.64779 0.38498 0.04086 0.0
C2618 C 0.65562 0.36437 0.04561 0.0
C2619 C 0.67741 0.3414 0.06892 0.0
C2620 C 0.69246 0.33931 0.08571 0.0
C2621 C 0.67261 0.36183 0.06036 0.0
C2622 C 0.7043 0.35738 0.09245 0.0
C2623 C 0.7 0.37774 0.08366 0.0
H2624 H 0.83381 0.43348 0.32082 0.0
H2625 H 0.86094 0.37557 0.29367 0.0
H2626 H 0.89738 0.38894 0.30078 0.0
H2627 H 0.92058 0.41328 0.32132 0.0
H2628 H 0.89394 0.46985 0.35143 0.0
H2629 H 0.85825 0.4612 0.33642 0.0
C2630 C 0.84779 0.42428 0.31573 0.0
C2631 C 0.8449 0.4037 0.30656 0.0
C2632 C 0.86869 0.43171 0.32077 0.0
C2633 C 0.86295 0.39156 0.30049 0.0
C2634 C 0.88373 0.39911 0.30474 0.0
C2635 C 0.90712 0.42417 0.32383 0.0
C2636 C 0.90976 0.44224 0.33722 0.0
C2637 C 0.88671 0.41863 0.31581 0.0
C2638 C 0.89223 0.45604 0.34084 0.0
C2639 C 0.87182 0.45093 0.33247 0.0
H2640 H 0.84109 0.65838 0.58595 0.0
H2641 H 0.77159 0.65864 0.58429 0.0
H2642 H 0.77181 0.62539 0.56263 0.0
H2643 H 0.79201 0.59441 0.54764 0.0
H2644 H 0.86172 0.59539 0.54884 0.0
H2645 H 0.86117 0.63035 0.56675 0.0
C2646 C 0.82598 0.65119 0.58075 0.0
C2647 C 0.80631 0.66052 0.58708 0.0
C2648 C 0.82631 0.6324 0.56816 0.0
C2649 C 0.78688 0.65151 0.57976 0.0
C2650 C 0.78704 0.63254 0.56742 0.0
C2651 C 0.80709 0.60247 0.55141 0.0
C2652 C 0.82687 0.59203 0.5472 0.0
C2653 C 0.80669 0.62257 0.56197 0.0
C2654 C 0.84625 0.60288 0.55196 0.0
C2655 C 0.84597 0.62284 0.56239 0.0
H2656 H 0.66788 0.43466 0.67017 0.0
H2657 H 0.6431 0.39438 0.72112 0.0
H2658 H 0.60651 0.40764 0.7141 0.0
H2659 H 0.58131 0.42393 0.6878 0.0
H2660 H 0.60628 0.46239 0.63555 0.0
H2661 H 0.64308 0.45713 0.64887 0.0
C2662 C 0.65458 0.42963 0.68042 0.0
C2663 C 0.6581 0.41377 0.69629 0.0
C2664 C 0.63358 0.43676 0.67571 0.0
C2665 C 0.64077 0.4069 0.70912 0.0
C2666 C 0.61982 0.41425 0.70486 0.0
C2667 C 0.59477 0.43201 0.68002 0.0
C2668 C 0.59119 0.44376 0.66091 0.0
C2669 C 0.61592 0.42825 0.68741 0.0
C2670 C 0.60869 0.45368 0.65053 0.0
C2671 C 0.62974 0.4504 0.65799 0.0
H2672 H 0.78999 0.40576 0.94105 0.0
H2673 H 0.85813 0.39911 0.95419 0.0
H2674 H 0.85777 0.36311 0.93851 0.0
H2675 H 0.83933 0.33552 0.91717 0.0
H2676 H 0.7713 0.34115 0.90399 0.0
H2677 H 0.77029 0.37551 0.92386 0.0
C2678 C 0.80468 0.39629 0.9409 0.0
C2679 C 0.82419 0.40544 0.94839 0.0
C2680 C 0.80442 0.37554 0.93162 0.0
C2681 C 0.84297 0.39273 0.94827 0.0
C2682 C 0.8428 0.37211 0.93922 0.0
C2683 C 0.82421 0.34418 0.91881 0.0
C2684 C 0.80548 0.33613 0.9088 0.0
C2685 C 0.82383 0.36373 0.93017 0.0
C2686 C 0.78592 0.34716 0.91148 0.0
C2687 C 0.7854 0.3668 0.92274 0.0
H2688 H 0.91277 0.5688 0.18532 0.0
H2689 H 0.88772 0.53359 0.13094 0.0
H2690 H 0.85081 0.54124 0.14255 0.0
H2691 H 0.82669 0.56507 0.16307 0.0
H2692 H 0.8516 0.60199 0.21635 0.0
H2693 H 0.88752 0.58636 0.21071 0.0
C2694 C 0.89918 0.56186 0.17673 0.0
C2695 C 0.90282 0.5504 0.1575 0.0
C2696 C 0.87802 0.56713 0.18308 0.0
C2697 C 0.88519 0.54202 0.14605 0.0
C2698 C 0.86411 0.54672 0.15251 0.0
C2699 C 0.83983 0.56895 0.17397 0.0
C2700 C 0.83668 0.58455 0.1901 0.0
C2701 C 0.86042 0.56029 0.17025 0.0
C2702 C 0.85373 0.5898 0.20401 0.0
C2703 C 0.87428 0.58103 0.20061 0.0
H2704 H 0.66287 0.58888 0.40539 0.0
H2705 H 0.66179 0.5879 0.47492 0.0
H2706 H 0.68373 0.62107 0.47572 0.0
H2707 H 0.69967 0.65232 0.45622 0.0
H2708 H 0.70024 0.65207 0.38649 0.0
H2709 H 0.68213 0.61723 0.38624 0.0
C2710 C 0.66751 0.59585 0.42077 0.0
C2711 C 0.66037 0.58631 0.44009 0.0
C2712 C 0.67995 0.61471 0.42103 0.0
C2713 C 0.66699 0.59512 0.45986 0.0
C2714 C 0.67944 0.61408 0.46028 0.0
C2715 C 0.69624 0.64443 0.44099 0.0
C2716 C 0.70098 0.65504 0.42138 0.0
C2717 C 0.68556 0.62432 0.44092 0.0
C2718 C 0.6965 0.64449 0.4018 0.0
C2719 C 0.6861 0.62455 0.40162 0.0
H2720 H 0.56178 0.82054 0.6613 0.0
H2721 H 0.61584 0.78581 0.63502 0.0
H2722 H 0.60367 0.79409 0.59837 0.0
H2723 H 0.58265 0.81806 0.57492 0.0
H2724 H 0.53001 0.85493 0.60114 0.0
H2725 H 0.53612 0.83864 0.63675 0.0
C2726 C 0.57024 0.81393 0.6475 0.0
C2727 C 0.5895 0.80235 0.6507 0.0
C2728 C 0.56356 0.81952 0.62654 0.0
C2729 C 0.60074 0.79434 0.63282 0.0
C2730 C 0.59394 0.79935 0.61191 0.0
C2731 C 0.57195 0.82179 0.58826 0.0
C2732 C 0.55589 0.83757 0.58557 0.0
C2733 C 0.57607 0.8129 0.60867 0.0
C2734 C 0.54227 0.8426 0.60289 0.0
C2735 C 0.54597 0.83348 0.62326 0.0
H2736 H 0.94057 0.11119 0.24887 0.0
H2737 H 0.9059 0.15267 0.29271 0.0
H2738 H 0.93233 0.14559 0.32086 0.0
H2739 H 0.96714 0.13055 0.33187 0.0
H2740 H 0.00166 0.08881 0.28803 0.0
H2741 H 0.97416 0.09421 0.26067 0.0
C2742 C 0.93864 0.11836 0.26472 0.0
C2743 C 0.92134 0.13239 0.26866 0.0
C2744 C 0.95436 0.11498 0.28055 0.0
C2745 C 0.91887 0.14147 0.28932 0.0
C2746 C 0.93422 0.1378 0.30532 0.0
C2747 C 0.96865 0.12265 0.31633 0.0
C2748 C 0.98672 0.10974 0.31192 0.0
C2749 C 0.95237 0.12515 0.30088 0.0
C2750 C 0.98839 0.09956 0.29167 0.0
C2751 C 0.97243 0.10225 0.27611 0.0
H2752 H 0.14976 0.72211 0.57101 0.0
H2753 H 0.09466 0.76373 0.56318 0.0
H2754 H 0.08161 0.74106 0.53334 0.0
H2755 H 0.08672 0.71005 0.5092 0.0
H2756 H 0.14292 0.66959 0.51619 0.0
H2757 H 0.1551 0.69152 0.54674 0.0
C2758 C 0.13464 0.72591 0.56305 0.0
C2759 C 0.1228 0.74413 0.56946 0.0
C2760 C 0.12785 0.7134 0.54559 0.0
C2761 C 0.10368 0.74946 0.55866 0.0
C2762 C 0.09642 0.73668 0.54155 0.0
C2763 C 0.10188 0.70633 0.51713 0.0
C2764 C 0.11418 0.68852 0.5103 0.0
C2765 C 0.10858 0.71882 0.5347 0.0
C2766 C 0.13338 0.68338 0.52111 0.0
C2767 C 0.14022 0.69579 0.5386 0.0
H2768 H 0.50541 0.90225 0.79403 0.0
H2769 H 0.52418 0.8558 0.8424 0.0
H2770 H 0.5514 0.84106 0.81779 0.0
H2771 H 0.56927 0.8413 0.78254 0.0
H2772 H 0.55015 0.88738 0.73398 0.0
H2773 H 0.52332 0.90255 0.75881 0.0
C2774 C 0.51519 0.88862 0.79903 0.0
C2775 C 0.5126 0.87976 0.81978 0.0
C2776 C 0.53076 0.88045 0.78494 0.0
C2777 C 0.52583 0.86265 0.8264 0.0
C2778 C 0.54137 0.85433 0.81239 0.0
C2779 C 0.55947 0.85492 0.77755 0.0
C2780 C 0.56178 0.86353 0.75668 0.0
C2781 C 0.54398 0.86318 0.79169 0.0
C2782 C 0.54864 0.88071 0.75008 0.0
C2783 C 0.53333 0.88926 0.7642 0.0
H2784 H 0.39598 0.3234 0.03258 0.0
H2785 H 0.34381 0.30902 0.98888 0.0
H2786 H 0.33339 0.27799 0.01127 0.0
H2787 H 0.33992 0.25468 0.04257 0.0
H2788 H 0.39294 0.26836 0.08557 0.0
H2789 H 0.40276 0.29989 0.06367 0.0
C2790 C 0.38207 0.31372 0.02821 0.0
C2791 C 0.37036 0.31864 0.00939 0.0
C2792 C 0.37681 0.29556 0.04062 0.0
C2793 C 0.35275 0.30567 0.00352 0.0
C2794 C 0.347 0.28786 0.01615 0.0
C2795 C 0.35393 0.26428 0.04688 0.0
C2796 C 0.366 0.25901 0.06539 0.0
C2797 C 0.35916 0.28248 0.03451 0.0
C2798 C 0.38364 0.272 0.07123 0.0
C2799 C 0.3891 0.29007 0.05885 0.0
H2800 H 0.9405 0.88668 0.25049 0.0
H2801 H 0.90275 0.84756 0.20683 0.0
H2802 H 0.92825 0.85468 0.17793 0.0
H2803 H 0.96299 0.86943 0.16569 0.0
H2804 H 0.00118 0.90763 0.20974 0.0
H2805 H 0.97442 0.9025 0.23794 0.0
C2806 C 0.93776 0.87984 0.23461 0.0
C2807 C 0.91964 0.86669 0.23096 0.0
C2808 C 0.95298 0.8832 0.21822 0.0
C2809 C 0.91624 0.85818 0.21014 0.0
C2810 C 0.93105 0.8619 0.19361 0.0
C2811 C 0.96544 0.87658 0.18147 0.0
C2812 C 0.98434 0.88838 0.1857 0.0
C2813 C 0.94976 0.87393 0.19761 0.0
C2814 C 0.98719 0.89774 0.20622 0.0
C2815 C 0.97171 0.89514 0.2223 0.0
H2816 H 0.36265 0.69276 0.50077 0.0
H2817 H 0.41035 0.66753 0.45678 0.0
H2818 H 0.4 0.69395 0.42971 0.0
H2819 H 0.37854 0.72527 0.4189 0.0
H2820 H 0.33023 0.75017 0.46246 0.0
H2821 H 0.34034 0.72355 0.48947 0.0
C2822 C 0.37064 0.69297 0.4852 0.0
C2823 C 0.38701 0.67797 0.48078 0.0
C2824 C 0.36492 0.70854 0.46974 0.0
C2825 C 0.39725 0.67847 0.46048 0.0
C2826 C 0.39159 0.69381 0.44505 0.0
C2827 C 0.37018 0.72486 0.43427 0.0
C2828 C 0.35391 0.74 0.43865 0.0
C2829 C 0.37561 0.70908 0.44958 0.0
C2830 C 0.34332 0.73922 0.45877 0.0
C2831 C 0.34884 0.72375 0.47418 0.0
H2832 H 0.5298 0.09432 0.67302 0.0
H2833 H 0.48388 0.14476 0.68632 0.0
H2834 H 0.50775 0.15933 0.7144 0.0
H2835 H 0.54094 0.15669 0.73576 0.0
H2836 H 0.58615 0.10527 0.72342 0.0
H2837 H 0.56312 0.09183 0.69421 0.0
C2838 C 0.52531 0.10882 0.68175 0.0
C2839 C 0.50545 0.11884 0.67744 0.0
C2840 C 0.53869 0.11652 0.69822 0.0
C2841 C 0.49932 0.13712 0.68925 0.0
C2842 C 0.51283 0.14526 0.70536 0.0
C2843 C 0.54554 0.14228 0.72695 0.0
C2844 C 0.56497 0.13167 0.73196 0.0
C2845 C 0.53235 0.13483 0.71021 0.0
C2846 C 0.57115 0.11351 0.71994 0.0
C2847 C 0.55806 0.10593 0.70323 0.0
H2848 H 0.12206 0.27683 0.91408 0.0
H2849 H 0.16823 0.24911 0.9583 0.0
H2850 H 0.1608 0.27743 0.98439 0.0
H2851 H 0.1396 0.30888 0.99559 0.0
H2852 H 0.09378 0.33672 0.95115 0.0
H2853 H 0.10364 0.31036 0.92385 0.0
C2854 C 0.13055 0.27704 0.92938 0.0
C2855 C 0.14509 0.26046 0.93447 0.0
C2856 C 0.12663 0.29368 0.94415 0.0
C2857 C 0.15618 0.26112 0.9543 0.0
C2858 C 0.15224 0.27752 0.96913 0.0
C2859 C 0.13206 0.30935 0.97979 0.0
C2860 C 0.11599 0.32466 0.97547 0.0
C2861 C 0.13727 0.2937 0.96436 0.0
C2862 C 0.10647 0.32529 0.95485 0.0
C2863 C 0.11181 0.30999 0.9393 0.0
H2864 H 0.3002 0.90536 0.16273 0.0
H2865 H 0.27336 0.89027 0.10033 0.0
H2866 H 0.29511 0.91894 0.08388 0.0
H2867 H 0.31761 0.95151 0.08839 0.0
H2868 H 0.34332 0.96729 0.15098 0.0
H2869 H 0.32595 0.93512 0.16647 0.0
C2870 C 0.29979 0.9077 0.14539 0.0
C2871 C 0.28526 0.89566 0.13273 0.0
C2872 C 0.31155 0.92479 0.1363 0.0
C2873 C 0.28454 0.89925 0.11034 0.0
C2874 C 0.29672 0.91583 0.10102 0.0
C2875 C 0.3194 0.94773 0.10541 0.0
C2876 C 0.33116 0.96174 0.11879 0.0
C2877 C 0.30949 0.92928 0.11403 0.0
C2878 C 0.33393 0.95677 0.14064 0.0
C2879 C 0.32415 0.93838 0.14939 0.0
H2880 H 0.25557 0.04804 0.34448 0.0
H2881 H 0.27397 0.09201 0.39518 0.0
H2882 H 0.30362 0.06798 0.40549 0.0
H2883 H 0.32442 0.03509 0.3995 0.0
H2884 H 0.30632 0.99094 0.34883 0.0
H2885 H 0.27638 0.01477 0.33866 0.0
C2886 C 0.26577 0.05205 0.35813 0.0
C2887 C 0.26242 0.07144 0.36944 0.0
C2888 C 0.28302 0.03851 0.3635 0.0
C2889 C 0.27613 0.07695 0.38657 0.0
C2890 C 0.29314 0.06336 0.39228 0.0
C2891 C 0.31421 0.03089 0.38593 0.0
C2892 C 0.31779 0.01156 0.37457 0.0
C2893 C 0.29688 0.0443 0.38064 0.0
C2894 C 0.30401 0.00593 0.35752 0.0
C2895 C 0.28684 0.01942 0.35188 0.0
H2896 H 0.21216 0.0069 0.58765 0.0
H2897 H 0.16866 0.01772 0.64093 0.0
H2898 H 0.19114 0.04786 0.65325 0.0
H2899 H 0.2233 0.07078 0.6489 0.0
H2900 H 0.26767 0.05869 0.5968 0.0
H2901 H 0.24445 0.02937 0.58363 0.0
C2902 C 0.20784 0.0155 0.60226 0.0
C2903 C 0.18897 0.00985 0.6136 0.0
C2904 C 0.22069 0.03282 0.60908 0.0
C2905 C 0.1832 0.02167 0.63205 0.0
C2906 C 0.19596 0.03895 0.639 0.0
C2907 C 0.22756 0.06198 0.63439 0.0
C2908 C 0.24676 0.06707 0.62341 0.0
C2909 C 0.21462 0.04474 0.62752 0.0
C2910 C 0.25267 0.05522 0.6051 0.0
C2911 C 0.23955 0.03838 0.59778 0.0
H2912 H 0.19794 0.98815 0.90697 0.0
H2913 H 0.15545 0.98367 0.85205 0.0
H2914 H 0.17523 0.95175 0.8393 0.0
H2915 H 0.20567 0.92664 0.84315 0.0
H2916 H 0.24822 0.93179 0.89801 0.0
H2917 H 0.22694 0.96208 0.91185 0.0
C2918 C 0.19321 0.98039 0.892 0.0
C2919 C 0.17578 0.98855 0.87999 0.0
C2920 C 0.20438 0.96213 0.8851 0.0
C2921 C 0.16917 0.97787 0.86119 0.0
C2922 C 0.18035 0.95962 0.85405 0.0
C2923 C 0.20994 0.93406 0.85843 0.0
C2924 C 0.22829 0.92696 0.86976 0.0
C2925 C 0.19805 0.95174 0.86585 0.0
C2926 C 0.23406 0.93699 0.88919 0.0
C2927 C 0.22203 0.95433 0.89695 0.0
H2928 H 0.60901 0.24767 0.06332 0.0
H2929 H 0.65404 0.2022 0.09077 0.0
H2930 H 0.64194 0.17453 0.06569 0.0
H2931 H 0.62141 0.16436 0.03334 0.0
H2932 H 0.57675 0.21009 0.00565 0.0
H2933 H 0.58653 0.23665 0.0328 0.0
C2934 C 0.61597 0.23162 0.06397 0.0
C2935 C 0.63239 0.2271 0.07888 0.0
C2936 C 0.60955 0.21597 0.04896 0.0
C2937 C 0.64109 0.20611 0.07972 0.0
C2938 C 0.63445 0.19032 0.06512 0.0
C2939 C 0.61378 0.1801 0.03331 0.0
C2940 C 0.59889 0.18539 0.01707 0.0
C2941 C 0.61917 0.19527 0.04924 0.0
C2942 C 0.58896 0.20583 0.01741 0.0
C2943 C 0.59426 0.22097 0.03314 0.0
H2944 H 0.08579 0.38013 0.2777 0.0
H2945 H 0.03966 0.34376 0.24012 0.0
H2946 H 0.01155 0.35173 0.26617 0.0
H2947 H -2e-05 0.36828 0.3 0.0
H2948 H 0.04571 0.40557 0.3372 0.0
H2949 H 0.07412 0.39678 0.31171 0.0
C2950 C 0.06955 0.37409 0.27514 0.0
C2951 C 0.06487 0.36172 0.25671 0.0
C2952 C 0.05343 0.37828 0.2905 0.0
C2953 C 0.04369 0.35396 0.25372 0.0
C2954 C 0.02761 0.35815 0.26884 0.0
C2955 C 0.01615 0.37449 0.30258 0.0
C2956 C 0.02055 0.38745 0.32065 0.0
C2957 C 0.03232 0.37017 0.28736 0.0
C2958 C 0.04178 0.39508 0.3238 0.0
C2959 C 0.05806 0.3904 0.30898 0.0
H2960 H 0.9154 0.81629 0.53748 0.0
H2961 H 0.85301 0.82396 0.50781 0.0
H2962 H 0.83793 0.7961 0.5317 0.0
H2963 H 0.84329 0.76851 0.55939 0.0
H2964 H 0.90549 0.76025 0.58918 0.0
H2965 H 0.92039 0.78933 0.56644 0.0
C2966 C 0.89842 0.81203 0.53664 0.0
C2967 C 0.88508 0.82211 0.52135 0.0
C2968 C 0.89017 0.79575 0.54996 0.0
C2969 C 0.86328 0.81642 0.51977 0.0
C2970 C 0.85481 0.80047 0.53324 0.0
C2971 C 0.86012 0.7731 0.56079 0.0
C2972 C 0.8735 0.76228 0.57547 0.0
C2973 C 0.86823 0.78982 0.54806 0.0
C2974 C 0.89515 0.76835 0.57765 0.0
C2975 C 0.90353 0.78495 0.5648 0.0
H2976 H 0.0394 0.65965 0.23672 0.0
H2977 H 0.08679 0.60981 0.22631 0.0
H2978 H 0.06446 0.59443 0.19747 0.0
H2979 H 0.03133 0.5952 0.17561 0.0
H2980 H 0.98366 0.64451 0.18686 0.0
H2981 H 0.00645 0.66041 0.21506 0.0
C2982 C 0.04464 0.64514 0.22845 0.0
C2983 C 0.06447 0.63556 0.23386 0.0
C2984 C 0.03191 0.63666 0.21186 0.0
C2985 C 0.07145 0.61725 0.22252 0.0
C2986 C 0.05877 0.60858 0.20601 0.0
C2987 C 0.02621 0.60969 0.18398 0.0
C2988 C 0.00615 0.61903 0.17904 0.0
C2989 C 0.03906 0.61826 0.20048 0.0
C2990 C -0.00078 0.63736 0.19031 0.0
C2991 C 0.01213 0.64628 0.20648 0.0
H2992 H 0.48377 0.40982 0.70529 0.0
H2993 H 0.47409 0.35534 0.66302 0.0
H2994 H 0.44344 0.34342 0.68501 0.0
H2995 H 0.42064 0.34776 0.71693 0.0
H2996 H 0.43141 0.40101 0.76037 0.0
H2997 H 0.46029 0.41464 0.73686 0.0
C2998 C 0.47517 0.39512 0.70114 0.0
C2999 C 0.4814 0.38313 0.6829 0.0
C3000 C 0.45759 0.38852 0.71373 0.0
C3001 C 0.4697 0.36458 0.67718 0.0
C3002 C 0.45215 0.35789 0.68964 0.0
C3003 C 0.42894 0.36268 0.72092 0.0
C3004 C 0.42376 0.37368 0.74005 0.0
C3005 C 0.446 0.36973 0.70792 0.0
C3006 C 0.435 0.39258 0.74549 0.0
C3007 C 0.45161 0.40016 0.73222 0.0
H3008 H 0.46907 0.62668 0.83149 0.0
H3009 H 0.49625 0.58314 0.78435 0.0
H3010 H 0.46782 0.59232 0.759 0.0
H3011 H 0.43557 0.61315 0.7499 0.0
H3012 H 0.40803 0.6561 0.79723 0.0
H3013 H 0.43534 0.64541 0.82335 0.0
C3014 C 0.46875 0.61915 0.81571 0.0
C3015 C 0.48507 0.60463 0.80974 0.0
C3016 C 0.4519 0.62383 0.80145 0.0
C3017 C 0.4844 0.59502 0.78916 0.0
C3018 C 0.46789 0.59991 0.77475 0.0
C3019 C 0.43541 0.61989 0.76605 0.0
C3020 C 0.4199 0.63537 0.7716 0.0
C3021 C 0.45159 0.61429 0.78073 0.0
C3022 C 0.41963 0.64387 0.79264 0.0
C3023 C 0.43547 0.63809 0.80748 0.0
H3024 H 0.85713 0.17896 0.0009 0.0
H3025 H 0.90119 0.14811 0.95671 0.0
H3026 H 0.89009 0.17247 0.92803 0.0
H3027 H 0.87145 0.20549 0.91674 0.0
H3028 H 0.8272 0.23635 0.96079 0.0
H3029 H 0.83541 0.2096 0.98833 0.0
C3030 C 0.864 0.17735 0.98488 0.0
C3031 C 0.87999 0.16177 0.98106 0.0
C3032 C 0.8581 0.19191 0.96857 0.0
C3033 C 0.8886 0.15972 0.96013 0.0
C3034 C 0.88254 0.1739 0.94374 0.0
C3035 C 0.86345 0.20626 0.93228 0.0
C3036 C 0.8493 0.22336 0.93685 0.0
C3037 C 0.86789 0.19055 0.94799 0.0
C3038 C 0.83892 0.22395 0.95708 0.0
C3039 C 0.84333 0.20845 0.97278 0.0
H3040 H 0.58554 0.79275 0.48128 0.0
H3041 H 0.6388 0.83641 0.47034 0.0
H3042 H 0.65241 0.81277 0.44175 0.0
H3043 H 0.64998 0.77893 0.4213 0.0
H3044 H 0.5981 0.73424 0.43393 0.0
H3045 H 0.58278 0.75928 0.4605 0.0
C3046 C 0.60034 0.79693 0.4729 0.0
C3047 C 0.61143 0.81606 0.47817 0.0
C3048 C 0.60801 0.7833 0.45665 0.0
C3049 C 0.63013 0.82167 0.46665 0.0
C3050 C 0.63784 0.80822 0.45031 0.0
C3051 C 0.635 0.77499 0.42951 0.0
C3052 C 0.62482 0.75511 0.42552 0.0
C3053 C 0.62693 0.78899 0.44526 0.0
C3054 C 0.60587 0.74969 0.43663 0.0
C3055 C 0.59731 0.76386 0.45189 0.0
H3056 H 0.83389 0.47466 0.63223 0.0
H3057 H 0.78783 0.51364 0.59738 0.0
H3058 H 0.75937 0.48797 0.60571 0.0
H3059 H 0.74766 0.45362 0.62138 0.0
H3060 H 0.79355 0.41462 0.65641 0.0
H3061 H 0.82206 0.44041 0.6483 0.0
C3062 C 0.81761 0.47763 0.62659 0.0
C3063 C 0.8131 0.49626 0.61441 0.0
C3064 C 0.80133 0.46241 0.63082 0.0
C3065 C 0.7918 0.49983 0.60733 0.0
C3066 C 0.7755 0.48492 0.61173 0.0
C3067 C 0.7639 0.45073 0.62723 0.0
C3068 C 0.76838 0.43203 0.63927 0.0
C3069 C 0.78014 0.46601 0.62318 0.0
C3070 C 0.78962 0.42852 0.64657 0.0
C3071 C 0.80593 0.44348 0.64229 0.0
H3072 H 0.83587 0.52534 0.86462 0.0
H3073 H 0.79023 0.48855 0.90251 0.0
H3074 H 0.76288 0.51589 0.89676 0.0
H3075 H 0.75175 0.55035 0.88141 0.0
H3076 H 0.79667 0.58683 0.84244 0.0
H3077 H 0.8247 0.56029 0.84943 0.0
C3078 C 0.81988 0.52323 0.87143 0.0
C3079 C 0.81507 0.50464 0.88353 0.0
C3080 C 0.80421 0.53932 0.86851 0.0
C3081 C 0.79426 0.50226 0.89242 0.0
C3082 C 0.77866 0.51811 0.88952 0.0
C3083 C 0.76769 0.55255 0.87449 0.0
C3084 C 0.77198 0.5706 0.86147 0.0
C3085 C 0.78347 0.53673 0.87769 0.0
C3086 C 0.79289 0.57335 0.85293 0.0
C3087 C 0.80889 0.55795 0.85656 0.0
H3088 H 0.66089 0.52979 0.12919 0.0
H3089 H 0.70364 0.50051 0.08265 0.0
H3090 H 0.73045 0.52842 0.08908 0.0
H3091 H 0.74284 0.55986 0.10951 0.0
H3092 H 0.70033 0.58934 0.156 0.0
H3093 H 0.67208 0.56335 0.14725 0.0
C3094 C 0.67606 0.52956 0.12047 0.0
C3095 C 0.68054 0.51263 0.10612 0.0
C3096 C 0.69136 0.54594 0.12391 0.0
C3097 C 0.70015 0.51278 0.0946 0.0
C3098 C 0.7154 0.52893 0.09796 0.0
C3099 C 0.72725 0.56077 0.11742 0.0
C3100 C 0.72369 0.57643 0.13332 0.0
C3101 C 0.71132 0.54539 0.11282 0.0
C3102 C 0.70338 0.57761 0.14341 0.0
C3103 C 0.68731 0.56254 0.13868 0.0
H3104 H 0.7126 0.42087 0.34531 0.0
H3105 H 0.75715 0.43444 0.39706 0.0
H3106 H 0.73251 0.46196 0.41119 0.0
H3107 H 0.69919 0.48279 0.40783 0.0
H3108 H 0.65499 0.46987 0.35562 0.0
H3109 H 0.67872 0.44102 0.34256 0.0
C3110 C 0.71668 0.42951 0.35998 0.0
C3111 C 0.73646 0.42551 0.3704 0.0
C3112 C 0.70274 0.44549 0.36761 0.0
C3113 C 0.74191 0.43721 0.38897 0.0
C3114 C 0.72791 0.45295 0.39692 0.0
C3115 C 0.69492 0.47389 0.39337 0.0
C3116 C 0.67571 0.47872 0.3823 0.0
C3117 C 0.70851 0.45744 0.38613 0.0
C3118 C 0.66989 0.46655 0.36414 0.0
C3119 C 0.68338 0.45008 0.35677 0.0
H3120 H -0.00045 0.00392 0.20797 0.0
H3121 H 0.04676 0.95673 0.22673 0.0
H3122 H 0.05044 0.97411 0.26227 0.0
H3123 H 0.03716 0.00089 0.28899 0.0
H3124 H 0.9901 0.04806 0.2691 0.0
H3125 H 0.98954 0.03284 0.23285 0.0
C3126 C 0.01077 0.99767 0.21986 0.0
C3127 C 0.02268 0.97907 0.21513 0.0
C3128 C 0.01273 0.00772 0.23996 0.0
C3129 C 0.03747 0.97109 0.23027 0.0
C3130 C 0.03947 0.98096 0.25051 0.0
C3131 C 0.02718 0.00804 0.27655 0.0
C3132 C 0.01337 0.02527 0.28175 0.0
C3133 C 0.02681 -0.00096 0.2557 0.0
C3134 C 0.00047 0.03447 0.26554 0.0
C3135 C 0.00016 0.02581 0.24483 0.0
H3136 H 0.23368 0.74002 0.45111 0.0
H3137 H 0.27794 0.79168 0.46556 0.0
H3138 H 0.26307 0.79444 0.50216 0.0
H3139 H 0.23857 0.78069 0.53053 0.0
H3140 H 0.19353 0.72976 0.51489 0.0
H3141 H 0.20774 0.72804 0.4784 0.0
C3142 C 0.24003 0.75187 0.46231 0.0
C3143 C 0.25692 0.76552 0.45578 0.0
C3144 C 0.23136 0.75339 0.48315 0.0
C3145 C 0.26483 0.78109 0.47025 0.0
C3146 C 0.2564 0.78258 0.49117 0.0
C3147 C 0.23165 0.76944 0.51908 0.0
C3148 C 0.21521 0.75513 0.52571 0.0
C3149 C 0.23977 0.76866 0.49787 0.0
C3150 C 0.20654 0.74059 0.51054 0.0
C3151 C 0.21456 0.73967 0.48956 0.0
H3152 H 0.46437 0.0222 0.72199 0.0
H3153 H 0.52808 -0.0003 0.70584 0.0
H3154 H 0.52987 0.97945 0.73965 0.0
H3155 H 0.51385 0.96916 0.77396 0.0
H3156 H 0.45126 0.99377 0.79195 0.0
H3157 H 0.44815 0.01166 0.75696 0.0
C3158 C 0.47851 0.01269 0.72591 0.0
C3159 C 0.49611 0.01242 0.71163 0.0
C3160 C 0.47957 0.00146 0.74559 0.0
C3161 C 0.51449 0.00028 0.7168 0.0
C3162 C 0.51546 0.98867 0.73604 0.0
C3163 C 0.49959 0.9786 0.77045 0.0
C3164 C 0.48295 0.98026 0.7858 0.0
C3165 C 0.49821 0.98937 0.75064 0.0
C3166 C 0.4643 0.99205 0.78049 0.0
C3167 C 0.46257 0.00244 0.76051 0.0
H3168 H 0.23863 0.21292 0.96241 0.0
H3169 H 0.21301 0.27762 0.9653 0.0
H3170 H 0.22648 0.28161 0.00199 0.0
H3171 H 0.24804 0.26758 0.03249 0.0
H3172 H 0.27163 0.20236 0.03026 0.0
H3173 H 0.25626 0.19752 0.99427 0.0
C3174 C 0.23562 0.22776 0.97113 0.0
C3175 C 0.22527 0.2451 0.96079 0.0
C3176 C 0.24314 0.22987 0.99239 0.0
C3177 C 0.22156 0.26422 0.9725 0.0
C3178 C 0.22912 0.2665 0.9936 0.0
C3179 C 0.24943 0.25227 0.02414 0.0
C3180 C 0.26081 0.23531 0.03386 0.0
C3181 C 0.24038 0.24961 0.00353 0.0
C3182 C 0.26264 0.21548 0.02311 0.0
C3183 C 0.254 0.21279 0.00249 0.0
H3184 H 0.21474 0.02198 0.99496 0.0
H3185 H 0.21452 0.95481 0.97629 0.0
H3186 H 0.2498 0.94996 0.9929 0.0
H3187 H 0.28138 0.96514 0.01138 0.0
H3188 H 0.28071 0.03193 0.03128 0.0
H3189 H 0.24506 0.03647 0.0155 0.0
C3190 C 0.22212 0.00616 0.99479 0.0
C3191 C 0.21188 0.98887 0.98416 0.0
C3192 C 0.2424 0.00342 0.00445 0.0
C3193 C 0.22205 0.96856 0.98399 0.0
C3194 C 0.24225 0.96572 0.99357 0.0
C3195 C 0.27338 0.98062 0.01254 0.0
C3196 C 0.28396 0.9982 0.02234 0.0
C3197 C 0.2527 0.98311 0.00361 0.0
C3198 C 0.27328 0.01821 0.02344 0.0
C3199 C 0.25276 0.0208 0.01456 0.0
H3200 H 0.27565 0.0365 0.25842 0.0
H3201 H 0.20668 0.04563 0.25912 0.0
H3202 H 0.20154 0.01065 0.24175 0.0
H3203 H 0.21676 0.97687 0.22696 0.0
H3204 H 0.28569 0.96822 0.22608 0.0
H3205 H 0.29078 0.00331 0.24342 0.0
C3206 C 0.2595 0.03082 0.25483 0.0
C3207 C 0.24162 0.04365 0.2602 0.0
C3208 C 0.25665 0.0106 0.24509 0.0
C3209 C 0.22078 0.03623 0.25501 0.0
C3210 C 0.2178 0.01609 0.24527 0.0
C3211 C 0.23281 0.98262 0.23092 0.0
C3212 C 0.25084 0.97002 0.22554 0.0
C3213 C 0.23561 0.00302 0.24047 0.0
C3214 C 0.27164 0.97773 0.2302 0.0
C3215 C 0.27454 0.99777 0.24001 0.0
H3216 H 0.22192 0.9753 0.52302 0.0
H3217 H 0.20008 0.03518 0.49521 0.0
H3218 H 0.23291 0.03744 0.47342 0.0
H3219 H 0.26722 0.02211 0.46205 0.0
H3220 H 0.28982 0.96278 0.49117 0.0
H3221 H 0.25699 0.9604 0.51222 0.0
C3222 C 0.22437 0.98877 0.51211 0.0
C3223 C 0.20866 0.00502 0.51064 0.0
C3224 C 0.24329 0.99 0.49976 0.0
C3225 C 0.21209 0.02261 0.49674 0.0
C3226 C 0.23077 0.02382 0.4842 0.0
C3227 C 0.26528 0.00869 0.47306 0.0
C3228 C 0.28139 0.99273 0.47479 0.0
C3229 C 0.24646 0.00757 0.48557 0.0
C3230 C 0.27796 0.97535 0.4891 0.0
C3231 C 0.2591 0.97397 0.50136 0.0
H3232 H 0.27696 0.03724 0.73919 0.0
H3233 H 0.21764 0.02555 0.70433 0.0
H3234 H 0.21337 0.99119 0.72271 0.0
H3235 H 0.22595 0.96462 0.74928 0.0
H3236 H 0.28622 0.97481 0.78225 0.0
H3237 H 0.29091 0.00952 0.76364 0.0
C3238 C 0.26322 0.02719 0.73528 0.0
C3239 C 0.2475 0.03442 0.72051 0.0
C3240 C 0.26103 0.00712 0.7456 0.0
C3241 C 0.22978 0.0209 0.71594 0.0
C3242 C 0.22735 0.00107 0.72637 0.0
C3243 C 0.24006 0.97454 0.75235 0.0
C3244 C 0.25562 0.96749 0.76719 0.0
C3245 C 0.24273 0.99415 0.74138 0.0
C3246 C 0.2741 0.98008 0.77083 0.0
C3247 C 0.27671 -0.00014 0.76026 0.0
H3248 H -0.00075 0.28395 0.97489 0.0
H3249 H 0.03032 0.27595 0.03659 0.0
H3250 H 0.01506 0.23964 0.03983 0.0
H3251 H 0.99368 0.21004 0.02471 0.0
H3252 H 0.96143 0.21869 0.96349 0.0
H3253 H 0.97683 0.25466 0.9603 0.0
C3254 C 0.00279 0.2742 0.98897 0.0
C3255 C 0.01597 0.28262 0.00544 0.0
C3256 C 0.99388 0.2534 0.99075 0.0
C3257 C 0.02008 0.26993 0.02378 0.0
C3258 C 0.01144 0.24913 0.02558 0.0
C3259 C 0.98971 0.21974 0.01075 0.0
C3260 C 0.97638 0.21129 0.99433 0.0
C3261 C -0.00165 0.24068 0.00913 0.0
C3262 C 0.97185 0.22435 0.97628 0.0
C3263 C 0.98057 0.2451 0.97446 0.0
H3264 H 0.48123 0.20449 0.01315 0.0
H3265 H 0.52292 0.22038 0.95988 0.0
H3266 H 0.50632 0.25623 0.95713 0.0
H3267 H 0.48145 0.28349 0.97154 0.0
H3268 H 0.43852 0.26644 0.02382 0.0
H3269 H 0.45428 0.23058 0.02547 0.0
C3270 C 0.4866 0.21587 0.00096 0.0
C3271 C 0.50332 0.2101 0.98688 0.0
C3272 C 0.4769 0.23618 -0.00057 0.0
C3273 C 0.50999 0.22463 0.97082 0.0
C3274 C 0.50058 0.24507 0.96934 0.0
C3275 C 0.47524 0.27189 0.98306 0.0
C3276 C 0.45904 0.27793 0.99779 0.0
C3277 C 0.48418 0.2511 0.98375 0.0
C3278 C 0.45135 0.26255 0.01266 0.0
C3279 C 0.46026 0.24194 0.01355 0.0
H3280 H 0.96128 0.23448 0.21873 0.0
H3281 H 0.95937 0.22179 0.2873 0.0
H3282 H 0.99589 0.23577 0.29098 0.0
H3283 H 0.028 0.25308 0.27491 0.0
H3284 H 0.03024 0.26381 0.20625 0.0
H3285 H 0.99411 0.24854 0.20236 0.0
C3286 C 0.96879 0.23436 0.23448 0.0
C3287 C 0.95719 0.22727 0.25271 0.0
C3288 C 0.98997 0.24205 0.23648 0.0
C3289 C 0.9675 0.22756 0.27297 0.0
C3290 C 0.98853 0.23544 0.27512 0.0
C3291 C 0.02055 0.25188 0.25913 0.0
C3292 C 0.03164 0.25959 0.24092 0.0
C3293 C -0.0002 0.24299 0.25702 0.0
C3294 C 0.02205 0.25779 0.22047 0.0
C3295 C 0.00135 0.24921 0.21826 0.0
H3296 H 0.00284 0.71323 0.46837 0.0
H3297 H 0.04145 0.72164 0.52566 0.0
H3298 H 0.02948 0.75895 0.52871 0.0
H3299 H 0.00687 0.78874 0.51605 0.0
H3300 H 0.96829 0.78095 0.45874 0.0
H3301 H 0.98169 0.74401 0.45443 0.0
C3302 C 0.00879 0.72333 0.48135 0.0
C3303 C 0.02271 0.71455 0.49697 0.0
C3304 C 0.00182 0.74486 0.48301 0.0
C3305 C 0.03029 0.72782 0.51375 0.0
C3306 C 0.02356 0.74921 0.51543 0.0
C3307 C 0.00137 0.77892 0.50266 0.0
C3308 C 0.98649 0.78744 0.48786 0.0
C3309 C 0.00905 0.75777 0.50038 0.0
C3310 C 0.97984 0.77474 0.47028 0.0
C3311 C 0.9874 0.75361 0.46789 0.0
H3312 H 0.52334 0.78365 0.5256 0.0
H3313 H 0.48604 0.8048 0.47085 0.0
H3314 H 0.46751 0.77001 0.46961 0.0
H3315 H 0.46264 0.73343 0.48338 0.0
H3316 H 0.50102 0.71122 0.53704 0.0
H3317 H 0.51799 0.74673 0.53981 0.0
C3318 C 0.51098 0.78065 0.51359 0.0
C3319 C 0.50609 0.79668 0.49828 0.0
C3320 C 0.50058 0.76047 0.51281 0.0
C3321 C 0.49024 0.79258 0.48261 0.0
C3322 C 0.4796 0.77274 0.48195 0.0
C3323 C 0.47483 0.73623 0.49558 0.0
C3324 C 0.4806 0.71955 0.50985 0.0
C3325 C 0.48483 0.7565 0.4968 0.0
C3326 C 0.49608 0.72375 0.52593 0.0
C3327 C 0.50592 0.74404 0.52744 0.0
H3328 H 0.01887 0.72204 0.27192 0.0
H3329 H 0.04508 0.76468 0.22372 0.0
H3330 H 0.01082 0.78426 0.22176 0.0
H3331 H 0.97325 0.78859 0.23329 0.0
H3332 H 0.94619 0.74462 0.28007 0.0
H3333 H 0.98081 0.72613 0.28314 0.0
C3334 C 0.01695 0.73573 0.26118 0.0
C3335 C 0.03423 0.7421 0.24802 0.0
C3336 C 0.99708 0.7465 0.25981 0.0
C3337 C 0.03178 0.75961 0.23388 0.0
C3338 C 0.01227 0.77073 0.23278 0.0
C3339 C 0.97488 0.77486 0.24401 0.0
C3340 C 0.95718 0.76805 0.25646 0.0
C3341 C 0.99474 0.76417 0.24551 0.0
C3342 C 0.95965 0.7504 0.27054 0.0
C3343 C 0.97941 0.73975 0.27224 0.0
H3344 H 0.52293 0.21977 0.72771 0.0
H3345 H 0.54333 0.24693 0.78856 0.0
H3346 H 0.50817 0.26365 0.79315 0.0
H3347 H 0.47214 0.27228 0.77904 0.0
H3348 H 0.45282 0.24829 0.71688 0.0
H3349 H 0.48702 0.22856 0.71349 0.0
C3350 C 0.5198 0.22946 0.7419 0.0
C3351 C 0.53588 0.232 0.75775 0.0
C3352 C 0.49968 0.23955 0.7442 0.0
C3353 C 0.53127 0.24435 0.77623 0.0
C3354 C 0.51116 0.25407 0.77883 0.0
C3355 C 0.47544 0.26244 0.76496 0.0
C3356 C 0.4602 0.2614 0.74831 0.0
C3357 C 0.49532 0.25191 0.76287 0.0
C3358 C 0.46452 0.2491 0.72984 0.0
C3359 C 0.484 0.23795 0.72792 0.0
H3360 H 0.52932 0.49138 0.71029 0.0
H3361 H 0.46942 0.4568 0.71884 0.0
H3362 H 0.46726 0.46916 0.7561 0.0
H3363 H 0.48168 0.49082 0.78584 0.0
H3364 H 0.54159 0.52534 0.77774 0.0
H3365 H 0.54477 0.5116 0.74085 0.0
C3366 C 0.51595 0.48635 0.7204 0.0
C3367 C 0.49941 0.47346 0.7117 0.0
C3368 C 0.51483 0.4935 0.74187 0.0
C3369 C 0.4821 0.46715 0.72498 0.0
C3370 C 0.48092 0.47409 0.74633 0.0
C3371 C 0.4954 0.49536 0.77596 0.0
C3372 C 0.51129 0.50918 0.78439 0.0
C3373 C 0.49702 0.48752 0.75483 0.0
C3374 C 0.52923 0.5146 0.77162 0.0
C3375 C 0.53098 0.50686 0.75051 0.0
H3376 H 0.74498 0.22653 0.02899 0.0
H3377 H 0.72114 0.29171 0.02527 0.0
H3378 H 0.73623 0.2955 0.98892 0.0
H3379 H 0.75407 0.2792 0.95731 0.0
H3380 H 0.77808 0.21402 0.96157 0.0
H3381 H 0.76503 0.21121 -0.00141 0.0
C3382 C 0.74308 0.24152 0.02017 0.0
C3383 C 0.73177 0.25871 0.02959 0.0
C3384 C 0.75173 0.24352 -0.00062 0.0
C3385 C 0.72983 0.27828 0.01828 0.0
C3386 C 0.73836 0.2804 0.9975 0.0
C3387 C 0.75668 0.26452 0.96647 0.0
C3388 C 0.76664 0.24671 0.9566 0.0
C3389 C 0.74908 0.26301 0.98777 0.0
C3390 C 0.76994 0.22775 0.96864 0.0
C3391 C 0.76258 0.22617 0.98983 0.0
H3392 H 0.02011 0.49971 0.2818 0.0
H3393 H 0.95859 0.46771 0.27644 0.0
H3394 H 0.95342 0.48312 0.2404 0.0
H3395 H 0.96735 0.5044 0.20981 0.0
H3396 H 0.0285 0.53725 0.21598 0.0
H3397 H 0.03293 0.52278 0.25225 0.0
C3398 C 0.00564 0.49609 0.27265 0.0
C3399 C 0.98985 0.48249 0.28156 0.0
C3400 C 0.00275 0.50512 0.25211 0.0
C3401 C 0.97092 0.47821 0.26984 0.0
C3402 C 0.968 0.48696 0.24926 0.0
C3403 C 0.98147 0.50863 0.2192 0.0
C3404 C 0.99771 0.5216 0.21001 0.0
C3405 C 0.9839 0.50032 0.24016 0.0
C3406 C 0.01599 0.52687 0.22242 0.0
C3407 C 0.01851 0.51869 0.24322 0.0
H3408 H 0.77758 0.77436 0.51988 0.0
H3409 H 0.77012 0.7061 0.53261 0.0
H3410 H 0.7524 0.70141 0.49801 0.0
H3411 H 0.73768 0.71678 0.46463 0.0
H3412 H 0.74522 0.78473 0.45171 0.0
H3413 H 0.76486 0.78931 0.48567 0.0
C3414 C 0.77242 0.75837 0.51511 0.0
C3415 C 0.77511 0.74072 0.52923 0.0
C3416 C 0.76234 0.75567 0.49501 0.0
C3417 C 0.76799 0.72017 0.52252 0.0
C3418 C 0.75795 0.71738 0.50255 0.0
C3419 C 0.74397 0.73249 0.4691 0.0
C3420 C 0.74002 0.75041 0.45578 0.0
C3421 C 0.75488 0.73503 0.48877 0.0
C3422 C 0.74793 0.77077 0.46187 0.0
C3423 C 0.75913 0.77337 0.48125 0.0
H3424 H 0.76452 0.48206 0.52996 0.0
H3425 H 0.79091 0.53065 0.48731 0.0
H3426 H 0.75654 0.53267 0.46835 0.0
H3427 H 0.71863 0.52058 0.4639 0.0
H3428 H 0.69376 0.47055 0.50538 0.0
H3429 H 0.7281 0.46891 0.52461 0.0
C3430 C 0.76312 0.49288 0.51634 0.0
C3431 C 0.78058 0.50615 0.51025 0.0
C3432 C 0.74346 0.49373 0.50527 0.0
C3433 C 0.77787 0.52035 0.49268 0.0
C3434 C 0.75817 0.52149 0.48171 0.0
C3435 C 0.72085 0.50943 0.47721 0.0
C3436 C 0.70382 0.49573 0.48334 0.0
C3437 C 0.74081 0.50833 0.48794 0.0
C3438 C 0.70678 0.4811 0.50037 0.0
C3439 C 0.72635 0.48021 0.51137 0.0
H3440 H 0.76991 0.5362 0.74879 0.0
H3441 H 0.70884 0.52872 0.78117 0.0
H3442 H 0.70514 0.49218 0.7665 0.0
H3443 H 0.72027 0.46184 0.74582 0.0
H3444 H 0.78101 0.47012 0.71268 0.0
H3445 H 0.78399 0.50676 0.7265 0.0
C3446 C 0.75584 0.52651 0.75265 0.0
C3447 C 0.73976 0.535 0.76614 0.0
C3448 C 0.75385 0.50564 0.74414 0.0
C3449 C 0.72137 0.52251 0.77071 0.0
C3450 C 0.71932 0.50162 0.76242 0.0
C3451 C 0.73401 0.47173 0.74139 0.0
C3452 C 0.75053 0.46304 0.72847 0.0
C3453 C 0.73556 0.49295 0.74925 0.0
C3454 C 0.7683 0.47613 0.72301 0.0
C3455 C 0.76997 0.49718 0.7308 0.0
H3456 H 0.76623 0.51338 0.96755 0.0
H3457 H 0.79545 0.46672 0.01036 0.0
H3458 H 0.76153 0.46306 0.02982 0.0
H3459 H 0.72321 0.47317 0.03477 0.0
H3460 H 0.69535 0.52166 0.99361 0.0
H3461 H 0.7292 0.52474 0.97346 0.0
C3462 C 0.76547 0.50264 0.98131 0.0
C3463 C 0.78357 0.4903 0.98726 0.0
C3464 C 0.74604 0.50087 0.9927 0.0
C3465 C 0.78184 0.47623 0.00505 0.0
C3466 C 0.76241 0.47415 0.01631 0.0
C3467 C 0.72471 0.48426 0.0213 0.0
C3468 C 0.70705 0.49709 0.01544 0.0
C3469 C 0.74436 0.48629 0.01019 0.0
C3470 C 0.70894 0.51171 0.99825 0.0
C3471 C 0.72821 0.51345 0.9868 0.0
H3472 H 0.73178 0.46275 0.25173 0.0
H3473 H 0.79241 0.47367 0.28381 0.0
H3474 H 0.79504 0.50963 0.26725 0.0
H3475 H 0.77885 0.53852 0.24508 0.0
H3476 H 0.7187 0.52631 0.21206 0.0
H3477 H 0.71699 0.49036 0.22772 0.0
C3478 C 0.74553 0.47307 0.25509 0.0
C3479 C 0.76175 0.46582 0.2691 0.0
C3480 C 0.74692 0.49348 0.24545 0.0
C3481 C 0.77977 0.47902 0.27301 0.0
C3482 C 0.78119 0.49955 0.26363 0.0
C3483 C 0.76552 0.52792 0.24107 0.0
C3484 C 0.74874 0.53537 0.22767 0.0
C3485 C 0.76472 0.50704 0.24998 0.0
C3486 C 0.73155 0.52133 0.22275 0.0
C3487 C 0.73061 0.50066 0.23158 0.0
H3488 H 0.46542 0.72548 0.71498 0.0
H3489 H 0.44739 0.76072 0.77215 0.0
H3490 H 0.48311 0.77713 0.77381 0.0
H3491 H 0.51991 0.78019 0.7602 0.0
H3492 H 0.539 0.74475 0.70355 0.0
H3493 H 0.5024 0.73003 0.70017 0.0
C3494 C 0.46929 0.73697 0.72758 0.0
C3495 C 0.45386 0.74171 0.74356 0.0
C3496 C 0.49006 0.74624 0.72857 0.0
C3497 C 0.4591 0.75653 0.7599 0.0
C3498 C 0.4795 0.76598 0.76082 0.0
C3499 C 0.51612 0.76914 0.74718 0.0
C3500 C 0.53224 0.76334 0.73233 0.0
C3501 C 0.49521 0.76064 0.7455 0.0
C3502 C 0.52687 0.7495 0.71517 0.0
C3503 C 0.50598 0.741 0.71331 0.0
loop_
_geom_bond_atom_site_label_1
_geom_bond_atom_site_label_2
_geom_bond_distance
_geom_bond_site_symmetry_2
_ccdc_geom_bond_type
C0 C1 1.351 . S
C0 N3 1.368 1_655 S
C0 H5 0.931 . S
C1 C0 1.351 . S
C1 N2 1.373 1_655 S
C1 H29 0.930 . S
N2 C1 1.373 1_455 S
N2 C4 1.340 . S
N3 C0 1.368 1_455 S
N3 C4 1.321 . S
N3 Co6 2.135 . S
C4 N2 1.340 . S
C4 N3 1.321 . S
C4 H28 0.930 . S
H5 C0 0.931 . S
Co6 N3 2.135 . S
Co6 N9 2.121 . S
Co6 O14 2.055 . S
Co6 O17 2.039 . S
Co6 N20 2.140 1_455 S
C7 O8 1.227 . S
C7 O17 1.265 . S
O8 C7 1.227 . S
N9 Co6 2.121 . S
N9 C11 1.375 . S
N9 C12 1.313 . S
C10 C11 1.338 . S
C10 N13 1.377 . S
C10 H30 0.930 . S
C11 N9 1.375 . S
C11 C10 1.338 . S
C11 H15 0.931 . S
C12 N9 1.313 . S
C12 N13 1.344 . S
C12 H16 0.930 . S
N13 C10 1.377 . S
N13 C12 1.344 . S
O14 Co6 2.055 . S
O14 C18 1.230 1_455 S
H15 C11 0.931 . S
H16 C12 0.930 . S
O17 Co6 2.039 . S
O17 C7 1.265 . S
C18 O14 1.230 1_655 S
C18 O19 1.242 . S
O19 C18 1.242 . S
N20 Co6 2.140 1_655 S
N20 C23 1.346 . S
N20 C24 1.345 . S
C21 C22 1.387 . S
C21 C25 1.391 . S
C22 C21 1.387 . S
C22 C23 1.369 . S
C22 H31 0.929 . S
C23 N20 1.346 . S
C23 C22 1.369 . S
C23 H26 0.928 1_655 S
C24 N20 1.345 . S
C24 C25 1.371 . S
C24 H27 0.931 . S
C25 C21 1.391 . S
C25 C24 1.371 . S
C25 H32 0.930 . S
H26 C23 0.928 1_455 S
H27 C24 0.931 . S
H28 C4 0.930 . S
H29 C1 0.930 . S
H30 C10 0.930 . S
H31 C22 0.929 . S
H32 C25 0.930 . S
C33 C34 1.351 . S
C33 N36 1.368 . S
C33 H38 0.931 . S
C34 C33 1.351 . S
C34 N35 1.373 . S
C34 H62 0.930 . S
N35 C34 1.373 . S
N35 C37 1.340 . S
N36 C33 1.368 . S
N36 C37 1.321 . S
N36 Co39 2.135 . S
C37 N35 1.340 . S
C37 N36 1.321 . S
C37 H61 0.930 . S
H38 C33 0.931 . S
Co39 N36 2.135 . S
Co39 N42 2.121 . S
Co39 O47 2.055 . S
Co39 O50 2.039 . S
Co39 N53 2.140 . S
C40 O41 1.227 . S
C40 O50 1.265 . S
O41 C40 1.227 . S
N42 Co39 2.121 . S
N42 C44 1.375 . S
N42 C45 1.313 . S
C43 C44 1.338 . S
C43 N46 1.377 . S
C43 H63 0.930 . S
C44 N42 1.375 . S
C44 C43 1.338 . S
C44 H48 0.931 . S
C45 N42 1.313 . S
C45 N46 1.344 . S
C45 H49 0.930 . S
N46 C43 1.377 . S
N46 C45 1.344 . S
O47 Co39 2.055 . S
O47 C51 1.253 . S
H48 C44 0.931 . S
H49 C45 0.930 . S
O50 Co39 2.039 . S
O50 C40 1.265 . S
C51 O47 1.253 . S
C51 O52 1.227 . S
O52 C51 1.227 . S
N53 Co39 2.140 . S
N53 C56 1.346 . S
N53 C57 1.345 . S
C54 C55 1.387 . S
C54 C58 1.391 . S
C55 C54 1.387 . S
C55 C56 1.369 . S
C55 H64 0.929 . S
C56 N53 1.346 . S
C56 C55 1.369 . S
C56 H59 0.928 . S
C57 N53 1.345 . S
C57 C58 1.371 . S
C57 H60 0.931 . S
C58 C54 1.391 . S
C58 C57 1.371 . S
C58 H65 0.930 . S
H59 C56 0.928 . S
H60 C57 0.931 . S
H61 C37 0.930 . S
H62 C34 0.930 . S
H63 C43 0.930 . S
H64 C55 0.929 . S
H65 C58 0.930 . S
C66 C67 1.351 . S
C66 N69 1.368 . S
C66 H71 0.931 . S
C67 C66 1.351 . S
C67 N68 1.373 . S
C67 H95 0.930 . S
N68 C67 1.373 . S
N68 C70 1.340 . S
N69 C66 1.368 . S
N69 C70 1.321 . S
N69 Co72 2.135 . S
C70 N68 1.340 . S
C70 N69 1.321 . S
C70 H94 0.930 . S
H71 C66 0.931 . S
Co72 N69 2.135 . S
Co72 N75 2.121 . S
Co72 O80 2.055 . S
Co72 O83 2.039 . S
Co72 N86 2.140 . S
C73 O74 1.227 . S
C73 O83 1.265 . S
O74 C73 1.227 . S
N75 Co72 2.121 . S
N75 C77 1.375 . S
N75 C78 1.313 . S
C76 C77 1.338 . S
C76 N79 1.377 . S
C76 H96 0.930 . S
C77 N75 1.375 . S
C77 C76 1.338 . S
C77 H81 0.931 . S
C78 N75 1.313 . S
C78 N79 1.344 . S
C78 H82 0.930 . S
N79 C76 1.377 . S
N79 C78 1.344 . S
O80 Co72 2.055 . S
O80 C84 1.253 . S
H81 C77 0.931 . S
H82 C78 0.930 . S
O83 Co72 2.039 . S
O83 C73 1.265 . S
C84 O80 1.253 . S
C84 O85 1.227 . S
O85 C84 1.227 . S
N86 Co72 2.140 . S
N86 C89 1.346 . S
N86 C90 1.345 . S
C87 C88 1.387 . S
C87 C91 1.391 . S
C88 C87 1.387 . S
C88 C89 1.369 . S
C88 H97 0.929 . S
C89 N86 1.346 . S
C89 C88 1.369 . S
C89 H92 0.928 . S
C90 N86 1.345 . S
C90 C91 1.371 . S
C90 H93 0.931 . S
C91 C87 1.391 . S
C91 C90 1.371 . S
C91 H98 0.930 . S
H92 C89 0.928 . S
H93 C90 0.931 . S
H94 C70 0.930 . S
H95 C67 0.930 . S
H96 C76 0.930 . S
H97 C88 0.929 . S
H98 C91 0.930 . S
C99 C100 1.351 . S
C99 N102 1.368 . S
C99 H104 0.931 . S
C100 C99 1.351 . S
C100 N101 1.373 . S
C100 H128 0.930 . S
N101 C100 1.373 . S
N101 C103 1.340 . S
N102 C99 1.368 . S
N102 C103 1.321 . S
N102 Co105 2.135 . S
C103 N101 1.340 . S
C103 N102 1.321 . S
C103 H127 0.930 . S
H104 C99 0.931 . S
Co105 N102 2.135 . S
Co105 N108 2.121 . S
Co105 O113 2.055 . S
Co105 O116 2.039 . S
Co105 N119 2.140 . S
C106 O107 1.227 . S
C106 O116 1.265 . S
O107 C106 1.227 . S
N108 Co105 2.121 . S
N108 C110 1.375 . S
N108 C111 1.313 . S
C109 C110 1.338 . S
C109 N112 1.377 . S
C109 H129 0.930 . S
C110 N108 1.375 . S
C110 C109 1.338 . S
C110 H114 0.931 . S
C111 N108 1.313 . S
C111 N112 1.344 . S
C111 H115 0.930 . S
N112 C109 1.377 . S
N112 C111 1.344 . S
O113 Co105 2.055 . S
O113 C117 1.253 . S
H114 C110 0.931 . S
H115 C111 0.930 . S
O116 Co105 2.039 . S
O116 C106 1.265 . S
C117 O113 1.253 . S
C117 O118 1.227 . S
O118 C117 1.227 . S
N119 Co105 2.140 . S
N119 C122 1.346 . S
N119 C123 1.345 . S
C120 C121 1.387 . S
C120 C124 1.391 . S
C121 C120 1.387 . S
C121 C122 1.369 . S
C121 H130 0.929 . S
C122 N119 1.346 . S
C122 C121 1.369 . S
C122 H125 0.928 . S
C123 N119 1.345 . S
C123 C124 1.371 . S
C123 H126 0.931 . S
C124 C120 1.391 . S
C124 C123 1.371 . S
C124 H131 0.930 . S
H125 C122 0.928 . S
H126 C123 0.931 . S
H127 C103 0.930 . S
H128 C100 0.930 . S
H129 C109 0.930 . S
H130 C121 0.929 . S
H131 C124 0.930 . S
C132 C133 1.351 . S
C132 N135 1.368 1_655 S
C132 H137 0.931 . S
C133 C132 1.351 . S
C133 N134 1.373 1_655 S
C133 H161 0.930 . S
N134 C133 1.373 1_455 S
N134 C136 1.340 . S
N135 C132 1.368 1_455 S
N135 C136 1.321 . S
N135 Co138 2.135 . S
C136 N134 1.340 . S
C136 N135 1.321 . S
C136 H160 0.930 . S
H137 C132 0.931 . S
Co138 N135 2.135 . S
Co138 N141 2.121 . S
Co138 O146 2.055 . S
Co138 O149 2.039 . S
Co138 N152 2.140 1_455 S
C139 O140 1.227 . S
C139 O149 1.265 . S
O140 C139 1.227 . S
N141 Co138 2.121 . S
N141 C143 1.375 . S
N141 C144 1.313 . S
C142 C143 1.338 . S
C142 N145 1.377 . S
C142 H162 0.930 . S
C143 N141 1.375 . S
C143 C142 1.338 . S
C143 H147 0.931 . S
C144 N141 1.313 . S
C144 N145 1.344 . S
C144 H148 0.930 . S
N145 C142 1.377 . S
N145 C144 1.344 . S
O146 Co138 2.055 . S
O146 C150 1.230 1_455 S
H147 C143 0.931 . S
H148 C144 0.930 . S
O149 Co138 2.039 . S
O149 C139 1.265 . S
C150 O146 1.230 1_655 S
C150 O151 1.242 . S
O151 C150 1.242 . S
N152 Co138 2.140 1_655 S
N152 C155 1.346 . S
N152 C156 1.345 . S
C153 C154 1.387 . S
C153 C157 1.391 . S
C154 C153 1.387 . S
C154 C155 1.369 . S
C154 H163 0.929 . S
C155 N152 1.346 . S
C155 C154 1.369 . S
C155 H158 0.928 1_655 S
C156 N152 1.345 . S
C156 C157 1.371 . S
C156 H159 0.931 . S
C157 C153 1.391 . S
C157 C156 1.371 . S
C157 H164 0.930 . S
H158 C155 0.928 1_455 S
H159 C156 0.931 . S
H160 C136 0.930 . S
H161 C133 0.930 . S
H162 C142 0.930 . S
H163 C154 0.929 . S
H164 C157 0.930 . S
C165 C166 1.351 . S
C165 N168 1.368 . S
C165 H170 0.931 . S
C166 C165 1.351 . S
C166 N167 1.373 . S
C166 H194 0.930 . S
N167 C166 1.373 . S
N167 C169 1.340 . S
N168 C165 1.368 . S
N168 C169 1.321 . S
N168 Co171 2.135 . S
C169 N167 1.340 . S
C169 N168 1.321 . S
C169 H193 0.930 . S
H170 C165 0.931 . S
Co171 N168 2.135 . S
Co171 N174 2.121 . S
Co171 O179 2.055 . S
Co171 O182 2.039 . S
Co171 N185 2.140 . S
C172 O173 1.227 . S
C172 O182 1.265 . S
O173 C172 1.227 . S
N174 Co171 2.121 . S
N174 C176 1.375 . S
N174 C177 1.313 . S
C175 C176 1.338 . S
C175 N178 1.377 . S
C175 H195 0.930 . S
C176 N174 1.375 . S
C176 C175 1.338 . S
C176 H180 0.931 . S
C177 N174 1.313 . S
C177 N178 1.344 . S
C177 H181 0.930 . S
N178 C175 1.377 . S
N178 C177 1.344 . S
O179 Co171 2.055 . S
O179 C183 1.253 . S
H180 C176 0.931 . S
H181 C177 0.930 . S
O182 Co171 2.039 . S
O182 C172 1.265 . S
C183 O179 1.253 . S
C183 O184 1.227 . S
O184 C183 1.227 . S
N185 Co171 2.140 . S
N185 C188 1.346 . S
N185 C189 1.345 . S
C186 C187 1.387 . S
C186 C190 1.391 . S
C187 C186 1.387 . S
C187 C188 1.369 . S
C187 H196 0.929 . S
C188 N185 1.346 . S
C188 C187 1.369 . S
C188 H191 0.928 . S
C189 N185 1.345 . S
C189 C190 1.371 . S
C189 H192 0.931 . S
C190 C186 1.391 . S
C190 C189 1.371 . S
C190 H197 0.930 . S
H191 C188 0.928 . S
H192 C189 0.931 . S
H193 C169 0.930 . S
H194 C166 0.930 . S
H195 C175 0.930 . S
H196 C187 0.929 . S
H197 C190 0.930 . S
C198 C199 1.351 . S
C198 N201 1.368 . S
C198 H203 0.931 . S
C199 C198 1.351 . S
C199 N200 1.373 . S
C199 H227 0.930 . S
N200 C199 1.373 . S
N200 C202 1.340 . S
N201 C198 1.368 . S
N201 C202 1.321 . S
N201 Co204 2.135 . S
C202 N200 1.340 . S
C202 N201 1.321 . S
C202 H226 0.930 . S
H203 C198 0.931 . S
Co204 N201 2.135 . S
Co204 N207 2.121 . S
Co204 O212 2.055 . S
Co204 O215 2.039 . S
Co204 N218 2.140 . S
C205 O206 1.227 . S
C205 O215 1.265 . S
O206 C205 1.227 . S
N207 Co204 2.121 . S
N207 C209 1.375 . S
N207 C210 1.313 . S
C208 C209 1.338 . S
C208 N211 1.377 . S
C208 H228 0.930 . S
C209 N207 1.375 . S
C209 C208 1.338 . S
C209 H213 0.931 . S
C210 N207 1.313 . S
C210 N211 1.344 . S
C210 H214 0.930 . S
N211 C208 1.377 . S
N211 C210 1.344 . S
O212 Co204 2.055 . S
O212 C216 1.253 . S
H213 C209 0.931 . S
H214 C210 0.930 . S
O215 Co204 2.039 . S
O215 C205 1.265 . S
C216 O212 1.253 . S
C216 O217 1.227 . S
O217 C216 1.227 . S
N218 Co204 2.140 . S
N218 C221 1.346 . S
N218 C222 1.345 . S
C219 C220 1.387 . S
C219 C223 1.391 . S
C220 C219 1.387 . S
C220 C221 1.369 . S
C220 H229 0.929 . S
C221 N218 1.346 . S
C221 C220 1.369 . S
C221 H224 0.928 . S
C222 N218 1.345 . S
C222 C223 1.371 . S
C222 H225 0.931 . S
C223 C219 1.391 . S
C223 C222 1.371 . S
C223 H230 0.930 . S
H224 C221 0.928 . S
H225 C222 0.931 . S
H226 C202 0.930 . S
H227 C199 0.930 . S
H228 C208 0.930 . S
H229 C220 0.929 . S
H230 C223 0.930 . S
C231 C232 1.351 . S
C231 N234 1.368 . S
C231 H236 0.931 . S
C232 C231 1.351 . S
C232 N233 1.373 . S
C232 H260 0.930 . S
N233 C232 1.373 . S
N233 C235 1.340 . S
N234 C231 1.368 . S
N234 C235 1.321 . S
N234 Co237 2.135 . S
C235 N233 1.340 . S
C235 N234 1.321 . S
C235 H259 0.930 . S
H236 C231 0.931 . S
Co237 N234 2.135 . S
Co237 N240 2.121 . S
Co237 O245 2.055 . S
Co237 O248 2.039 . S
Co237 N251 2.140 . S
C238 O239 1.227 . S
C238 O248 1.265 . S
O239 C238 1.227 . S
N240 Co237 2.121 . S
N240 C242 1.375 . S
N240 C243 1.313 . S
C241 C242 1.338 . S
C241 N244 1.377 . S
C241 H261 0.930 . S
C242 N240 1.375 . S
C242 C241 1.338 . S
C242 H246 0.931 . S
C243 N240 1.313 . S
C243 N244 1.344 . S
C243 H247 0.930 . S
N244 C241 1.377 . S
N244 C243 1.344 . S
O245 Co237 2.055 . S
O245 C249 1.253 . S
H246 C242 0.931 . S
H247 C243 0.930 . S
O248 Co237 2.039 . S
O248 C238 1.265 . S
C249 O245 1.253 . S
C249 O250 1.227 . S
O250 C249 1.227 . S
N251 Co237 2.140 . S
N251 C254 1.346 . S
N251 C255 1.345 . S
C252 C253 1.387 . S
C252 C256 1.391 . S
C253 C252 1.387 . S
C253 C254 1.369 . S
C253 H262 0.929 . S
C254 N251 1.346 . S
C254 C253 1.369 . S
C254 H257 0.928 . S
C255 N251 1.345 . S
C255 C256 1.371 . S
C255 H258 0.931 . S
C256 C252 1.391 . S
C256 C255 1.371 . S
C256 H263 0.930 . S
H257 C254 0.928 . S
H258 C255 0.931 . S
H259 C235 0.930 . S
H260 C232 0.930 . S
H261 C241 0.930 . S
H262 C253 0.929 . S
H263 C256 0.930 . S
C264 C265 1.351 . S
C264 N267 1.368 1_565 S
C264 H269 0.931 . S
C265 C264 1.351 . S
C265 N266 1.373 1_565 S
C265 H293 0.930 . S
N266 C265 1.373 1_545 S
N266 C268 1.340 . S
N267 C264 1.368 1_545 S
N267 C268 1.321 . S
N267 Co270 2.135 . S
C268 N266 1.340 . S
C268 N267 1.321 . S
C268 H292 0.930 . S
H269 C264 0.931 . S
Co270 N267 2.135 . S
Co270 N273 2.121 . S
Co270 O278 2.055 . S
Co270 O281 2.039 . S
Co270 N284 2.140 1_545 S
C271 O272 1.227 . S
C271 O281 1.265 . S
O272 C271 1.227 . S
N273 Co270 2.121 . S
N273 C275 1.375 . S
N273 C276 1.313 . S
C274 C275 1.338 . S
C274 N277 1.377 . S
C274 H294 0.930 . S
C275 N273 1.375 . S
C275 C274 1.338 . S
C275 H279 0.931 . S
C276 N273 1.313 . S
C276 N277 1.344 . S
C276 H280 0.930 . S
N277 C274 1.377 . S
N277 C276 1.344 . S
O278 Co270 2.055 . S
O278 C282 1.230 1_545 S
H279 C275 0.931 . S
H280 C276 0.930 . S
O281 Co270 2.039 . S
O281 C271 1.265 . S
C282 O278 1.230 1_565 S
C282 O283 1.242 . S
O283 C282 1.242 . S
N284 Co270 2.140 1_565 S
N284 C287 1.346 . S
N284 C288 1.345 . S
C285 C286 1.387 . S
C285 C289 1.391 . S
C286 C285 1.387 . S
C286 C287 1.369 . S
C286 H295 0.929 . S
C287 N284 1.346 . S
C287 C286 1.369 . S
C287 H290 0.928 1_565 S
C288 N284 1.345 . S
C288 C289 1.371 . S
C288 H291 0.931 . S
C289 C285 1.391 . S
C289 C288 1.371 . S
C289 H296 0.930 . S
H290 C287 0.928 1_545 S
H291 C288 0.931 . S
H292 C268 0.930 . S
H293 C265 0.930 . S
H294 C274 0.930 . S
H295 C286 0.929 . S
H296 C289 0.930 . S
C297 C298 1.351 . S
C297 N300 1.368 . S
C297 H302 0.931 . S
C298 C297 1.351 . S
C298 N299 1.373 . S
C298 H326 0.930 . S
N299 C298 1.373 . S
N299 C301 1.340 . S
N300 C297 1.368 . S
N300 C301 1.321 . S
N300 Co303 2.135 . S
C301 N299 1.340 . S
C301 N300 1.321 . S
C301 H325 0.930 . S
H302 C297 0.931 . S
Co303 N300 2.135 . S
Co303 N306 2.121 . S
Co303 O311 2.055 . S
Co303 O314 2.039 . S
Co303 N317 2.140 . S
C304 O305 1.227 . S
C304 O314 1.265 . S
O305 C304 1.227 . S
N306 Co303 2.121 . S
N306 C308 1.375 . S
N306 C309 1.313 . S
C307 C308 1.338 . S
C307 N310 1.377 . S
C307 H327 0.930 . S
C308 N306 1.375 . S
C308 C307 1.338 . S
C308 H312 0.931 . S
C309 N306 1.313 . S
C309 N310 1.344 . S
C309 H313 0.930 . S
N310 C307 1.377 . S
N310 C309 1.344 . S
O311 Co303 2.055 . S
O311 C315 1.253 . S
H312 C308 0.931 . S
H313 C309 0.930 . S
O314 Co303 2.039 . S
O314 C304 1.265 . S
C315 O311 1.253 . S
C315 O316 1.227 . S
O316 C315 1.227 . S
N317 Co303 2.140 . S
N317 C320 1.346 . S
N317 C321 1.345 . S
C318 C319 1.387 . S
C318 C322 1.391 . S
C319 C318 1.387 . S
C319 C320 1.369 . S
C319 H328 0.929 . S
C320 N317 1.346 . S
C320 C319 1.369 . S
C320 H323 0.928 . S
C321 N317 1.345 . S
C321 C322 1.371 . S
C321 H324 0.931 . S
C322 C318 1.391 . S
C322 C321 1.371 . S
C322 H329 0.930 . S
H323 C320 0.928 . S
H324 C321 0.931 . S
H325 C301 0.930 . S
H326 C298 0.930 . S
H327 C307 0.930 . S
H328 C319 0.929 . S
H329 C322 0.930 . S
C330 C331 1.351 . S
C330 N333 1.368 1_545 S
C330 H335 0.931 . S
C331 C330 1.351 . S
C331 N332 1.373 1_545 S
C331 H359 0.930 . S
N332 C331 1.373 1_565 S
N332 C334 1.340 . S
N333 C330 1.368 1_565 S
N333 C334 1.321 . S
N333 Co336 2.135 . S
C334 N332 1.340 . S
C334 N333 1.321 . S
C334 H358 0.930 . S
H335 C330 0.931 . S
Co336 N333 2.135 . S
Co336 N339 2.121 . S
Co336 O344 2.055 . S
Co336 O347 2.039 . S
Co336 N350 2.140 1_565 S
C337 O338 1.227 . S
C337 O347 1.265 . S
O338 C337 1.227 . S
N339 Co336 2.121 . S
N339 C341 1.375 . S
N339 C342 1.313 . S
C340 C341 1.338 . S
C340 N343 1.377 . S
C340 H360 0.930 . S
C341 N339 1.375 . S
C341 C340 1.338 . S
C341 H345 0.931 . S
C342 N339 1.313 . S
C342 N343 1.344 . S
C342 H346 0.930 . S
N343 C340 1.377 . S
N343 C342 1.344 . S
O344 Co336 2.055 . S
O344 C348 1.239 1_565 S
H345 C341 0.931 . S
H346 C342 0.930 . S
O347 Co336 2.039 . S
O347 C337 1.265 . S
C348 O344 1.239 1_545 S
C348 O349 1.236 . S
O349 C348 1.236 . S
N350 Co336 2.140 1_545 S
N350 C353 1.346 . S
N350 C354 1.345 . S
C351 C352 1.387 . S
C351 C355 1.391 . S
C352 C351 1.387 . S
C352 C353 1.369 . S
C352 H361 0.929 . S
C353 N350 1.346 . S
C353 C352 1.369 . S
C353 H356 0.928 1_545 S
C354 N350 1.345 . S
C354 C355 1.371 . S
C354 H357 0.931 . S
C355 C351 1.391 . S
C355 C354 1.371 . S
C355 H362 0.930 . S
H356 C353 0.928 1_565 S
H357 C354 0.931 . S
H358 C334 0.930 . S
H359 C331 0.930 . S
H360 C340 0.930 . S
H361 C352 0.929 . S
H362 C355 0.930 . S
C363 C364 1.351 . S
C363 N366 1.368 . S
C363 H368 0.931 . S
C364 C363 1.351 . S
C364 N365 1.373 . S
C364 H392 0.930 . S
N365 C364 1.373 . S
N365 C367 1.340 . S
N366 C363 1.368 . S
N366 C367 1.321 . S
N366 Co369 2.135 . S
C367 N365 1.340 . S
C367 N366 1.321 . S
C367 H391 0.930 . S
H368 C363 0.931 . S
Co369 N366 2.135 . S
Co369 N372 2.121 . S
Co369 O377 2.055 . S
Co369 O380 2.039 . S
Co369 N383 2.140 . S
C370 O371 1.227 . S
C370 O380 1.265 . S
O371 C370 1.227 . S
N372 Co369 2.121 . S
N372 C374 1.375 . S
N372 C375 1.313 . S
C373 C374 1.338 . S
C373 N376 1.377 . S
C373 H393 0.930 . S
C374 N372 1.375 . S
C374 C373 1.338 . S
C374 H378 0.931 . S
C375 N372 1.313 . S
C375 N376 1.344 . S
C375 H379 0.930 . S
N376 C373 1.377 . S
N376 C375 1.344 . S
O377 Co369 2.055 . S
O377 C381 1.253 . S
H378 C374 0.931 . S
H379 C375 0.930 . S
O380 Co369 2.039 . S
O380 C370 1.265 . S
C381 O377 1.253 . S
C381 O382 1.227 . S
O382 C381 1.227 . S
N383 Co369 2.140 . S
N383 C386 1.346 . S
N383 C387 1.345 . S
C384 C385 1.387 . S
C384 C388 1.391 . S
C385 C384 1.387 . S
C385 C386 1.369 . S
C385 H394 0.929 . S
C386 N383 1.346 . S
C386 C385 1.369 . S
C386 H389 0.928 . S
C387 N383 1.345 . S
C387 C388 1.371 . S
C387 H390 0.931 . S
C388 C384 1.391 . S
C388 C387 1.371 . S
C388 H395 0.930 . S
H389 C386 0.928 . S
H390 C387 0.931 . S
H391 C367 0.930 . S
H392 C364 0.930 . S
H393 C373 0.930 . S
H394 C385 0.929 . S
H395 C388 0.930 . S
C396 C397 1.351 . S
C396 N399 1.368 1_545 S
C396 H401 0.931 . S
C397 C396 1.351 . S
C397 N398 1.373 1_545 S
C397 H425 0.930 . S
N398 C397 1.373 1_565 S
N398 C400 1.340 . S
N399 C396 1.368 1_565 S
N399 C400 1.321 . S
N399 Co402 2.135 . S
C400 N398 1.340 . S
C400 N399 1.321 . S
C400 H424 0.930 . S
H401 C396 0.931 . S
Co402 N399 2.135 . S
Co402 N405 2.121 . S
Co402 O410 2.055 . S
Co402 O413 2.039 . S
Co402 N416 2.140 1_565 S
C403 O404 1.227 . S
C403 O413 1.265 . S
O404 C403 1.227 . S
N405 Co402 2.121 . S
N405 C407 1.375 . S
N405 C408 1.313 . S
C406 C407 1.338 . S
C406 N409 1.377 . S
C406 H426 0.930 . S
C407 N405 1.375 . S
C407 C406 1.338 . S
C407 H411 0.931 . S
C408 N405 1.313 . S
C408 N409 1.344 . S
C408 H412 0.930 . S
N409 C406 1.377 . S
N409 C408 1.344 . S
O410 Co402 2.055 . S
O410 C414 1.239 1_565 S
H411 C407 0.931 . S
H412 C408 0.930 . S
O413 Co402 2.039 . S
O413 C403 1.265 . S
C414 O410 1.239 1_545 S
C414 O415 1.236 . S
O415 C414 1.236 . S
N416 Co402 2.140 1_545 S
N416 C419 1.346 . S
N416 C420 1.345 . S
C417 C418 1.387 . S
C417 C421 1.391 . S
C418 C417 1.387 . S
C418 C419 1.369 . S
C418 H427 0.929 . S
C419 N416 1.346 . S
C419 C418 1.369 . S
C419 H422 0.928 1_545 S
C420 N416 1.345 . S
C420 C421 1.371 . S
C420 H423 0.931 . S
C421 C417 1.391 . S
C421 C420 1.371 . S
C421 H428 0.930 . S
H422 C419 0.928 1_565 S
H423 C420 0.931 . S
H424 C400 0.930 . S
H425 C397 0.930 . S
H426 C406 0.930 . S
H427 C418 0.929 . S
H428 C421 0.930 . S
C429 C430 1.351 . S
C429 N432 1.368 . S
C429 H434 0.931 . S
C430 C429 1.351 . S
C430 N431 1.373 . S
C430 H458 0.930 . S
N431 C430 1.373 . S
N431 C433 1.340 . S
N432 C429 1.368 . S
N432 C433 1.321 . S
N432 Co435 2.135 . S
C433 N431 1.340 . S
C433 N432 1.321 . S
C433 H457 0.930 . S
H434 C429 0.931 . S
Co435 N432 2.135 . S
Co435 N438 2.121 . S
Co435 O443 2.055 . S
Co435 O446 2.039 . S
Co435 N449 2.140 . S
C436 O437 1.227 . S
C436 O446 1.265 . S
O437 C436 1.227 . S
N438 Co435 2.121 . S
N438 C440 1.375 . S
N438 C441 1.313 . S
C439 C440 1.338 . S
C439 N442 1.377 . S
C439 H459 0.930 . S
C440 N438 1.375 . S
C440 C439 1.338 . S
C440 H444 0.931 . S
C441 N438 1.313 . S
C441 N442 1.344 . S
C441 H445 0.930 . S
N442 C439 1.377 . S
N442 C441 1.344 . S
O443 Co435 2.055 . S
O443 C447 1.253 . S
H444 C440 0.931 . S
H445 C441 0.930 . S
O446 Co435 2.039 . S
O446 C436 1.265 . S
C447 O443 1.253 . S
C447 O448 1.227 . S
O448 C447 1.227 . S
N449 Co435 2.140 . S
N449 C452 1.346 . S
N449 C453 1.345 . S
C450 C451 1.387 . S
C450 C454 1.391 . S
C451 C450 1.387 . S
C451 C452 1.369 . S
C451 H460 0.929 . S
C452 N449 1.346 . S
C452 C451 1.369 . S
C452 H455 0.928 . S
C453 N449 1.345 . S
C453 C454 1.371 . S
C453 H456 0.931 . S
C454 C450 1.391 . S
C454 C453 1.371 . S
C454 H461 0.930 . S
H455 C452 0.928 . S
H456 C453 0.931 . S
H457 C433 0.930 . S
H458 C430 0.930 . S
H459 C439 0.930 . S
H460 C451 0.929 . S
H461 C454 0.930 . S
C462 C463 1.351 . S
C462 N465 1.368 1_565 S
C462 H467 0.931 . S
C463 C462 1.351 . S
C463 N464 1.373 1_565 S
C463 H491 0.930 . S
N464 C463 1.373 1_545 S
N464 C466 1.340 . S
N465 C462 1.368 1_545 S
N465 C466 1.321 . S
N465 Co468 2.135 . S
C466 N464 1.340 . S
C466 N465 1.321 . S
C466 H490 0.930 . S
H467 C462 0.931 . S
Co468 N465 2.135 . S
Co468 N471 2.121 . S
Co468 O476 2.055 . S
Co468 O479 2.039 . S
Co468 N482 2.140 1_545 S
C469 O470 1.227 . S
C469 O479 1.265 . S
O470 C469 1.227 . S
N471 Co468 2.121 . S
N471 C473 1.375 . S
N471 C474 1.313 . S
C472 C473 1.338 . S
C472 N475 1.377 . S
C472 H492 0.930 . S
C473 N471 1.375 . S
C473 C472 1.338 . S
C473 H477 0.931 . S
C474 N471 1.313 . S
C474 N475 1.344 . S
C474 H478 0.930 . S
N475 C472 1.377 . S
N475 C474 1.344 . S
O476 Co468 2.055 . S
O476 C480 1.230 1_545 S
H477 C473 0.931 . S
H478 C474 0.930 . S
O479 Co468 2.039 . S
O479 C469 1.265 . S
C480 O476 1.230 1_565 S
C480 O481 1.242 . S
O481 C480 1.242 . S
N482 Co468 2.140 1_565 S
N482 C485 1.346 . S
N482 C486 1.345 . S
C483 C484 1.387 . S
C483 C487 1.391 . S
C484 C483 1.387 . S
C484 C485 1.369 . S
C484 H493 0.929 . S
C485 N482 1.346 . S
C485 C484 1.369 . S
C485 H488 0.928 1_565 S
C486 N482 1.345 . S
C486 C487 1.371 . S
C486 H489 0.931 . S
C487 C483 1.391 . S
C487 C486 1.371 . S
C487 H494 0.930 . S
H488 C485 0.928 1_545 S
H489 C486 0.931 . S
H490 C466 0.930 . S
H491 C463 0.930 . S
H492 C472 0.930 . S
H493 C484 0.929 . S
H494 C487 0.930 . S
C495 C496 1.351 . S
C495 N498 1.368 . S
C495 H500 0.931 . S
C496 C495 1.351 . S
C496 N497 1.373 . S
C496 H524 0.930 . S
N497 C496 1.373 . S
N497 C499 1.340 . S
N498 C495 1.368 . S
N498 C499 1.321 . S
N498 Co501 2.135 . S
C499 N497 1.340 . S
C499 N498 1.321 . S
C499 H523 0.930 . S
H500 C495 0.931 . S
Co501 N498 2.135 . S
Co501 N504 2.121 . S
Co501 O509 2.055 . S
Co501 O512 2.039 . S
Co501 N515 2.140 . S
C502 O503 1.227 . S
C502 O512 1.265 . S
O503 C502 1.227 . S
N504 Co501 2.121 . S
N504 C506 1.375 . S
N504 C507 1.313 . S
C505 C506 1.338 . S
C505 N508 1.377 . S
C505 H525 0.930 . S
C506 N504 1.375 . S
C506 C505 1.338 . S
C506 H510 0.931 . S
C507 N504 1.313 . S
C507 N508 1.344 . S
C507 H511 0.930 . S
N508 C505 1.377 . S
N508 C507 1.344 . S
O509 Co501 2.055 . S
O509 C513 1.253 . S
H510 C506 0.931 . S
H511 C507 0.930 . S
O512 Co501 2.039 . S
O512 C502 1.265 . S
C513 O509 1.253 . S
C513 O514 1.227 . S
O514 C513 1.227 . S
N515 Co501 2.140 . S
N515 C518 1.346 . S
N515 C519 1.345 . S
C516 C517 1.387 . S
C516 C520 1.391 . S
C517 C516 1.387 . S
C517 C518 1.369 . S
C517 H526 0.929 . S
C518 N515 1.346 . S
C518 C517 1.369 . S
C518 H521 0.928 . S
C519 N515 1.345 . S
C519 C520 1.371 . S
C519 H522 0.931 . S
C520 C516 1.391 . S
C520 C519 1.371 . S
C520 H527 0.930 . S
H521 C518 0.928 . S
H522 C519 0.931 . S
H523 C499 0.930 . S
H524 C496 0.930 . S
H525 C505 0.930 . S
H526 C517 0.929 . S
H527 C520 0.930 . S
C528 C529 1.351 . S
C528 N531 1.368 1_556 S
C528 H533 0.931 . S
C529 C528 1.351 . S
C529 N530 1.373 1_556 S
C529 H557 0.930 . S
N530 C529 1.373 1_554 S
N530 C532 1.340 . S
N531 C528 1.368 1_554 S
N531 C532 1.321 . S
N531 Co534 2.135 . S
C532 N530 1.340 . S
C532 N531 1.321 . S
C532 H556 0.930 . S
H533 C528 0.931 . S
Co534 N531 2.135 . S
Co534 N537 2.121 . S
Co534 O542 2.055 . S
Co534 O545 2.039 . S
Co534 N548 2.140 1_554 S
C535 O536 1.227 . S
C535 O545 1.265 . S
O536 C535 1.227 . S
N537 Co534 2.121 . S
N537 C539 1.375 . S
N537 C540 1.313 . S
C538 C539 1.338 . S
C538 N541 1.377 . S
C538 H558 0.930 . S
C539 N537 1.375 . S
C539 C538 1.338 . S
C539 H543 0.931 . S
C540 N537 1.313 . S
C540 N541 1.344 . S
C540 H544 0.930 . S
N541 C538 1.377 . S
N541 C540 1.344 . S
O542 Co534 2.055 . S
O542 C546 1.230 1_554 S
H543 C539 0.931 . S
H544 C540 0.930 . S
O545 Co534 2.039 . S
O545 C535 1.265 . S
C546 O542 1.230 1_556 S
C546 O547 1.242 . S
O547 C546 1.242 . S
N548 Co534 2.140 1_556 S
N548 C551 1.346 . S
N548 C552 1.345 . S
C549 C550 1.387 . S
C549 C553 1.391 . S
C550 C549 1.387 . S
C550 C551 1.369 . S
C550 H559 0.929 . S
C551 N548 1.346 . S
C551 C550 1.369 . S
C551 H554 0.928 1_556 S
C552 N548 1.345 . S
C552 C553 1.371 . S
C552 H555 0.931 . S
C553 C549 1.391 . S
C553 C552 1.371 . S
C553 H560 0.930 . S
H554 C551 0.928 1_554 S
H555 C552 0.931 . S
H556 C532 0.930 . S
H557 C529 0.930 . S
H558 C538 0.930 . S
H559 C550 0.929 . S
H560 C553 0.930 . S
C561 C562 1.351 . S
C561 N564 1.368 1_554 S
C561 H566 0.931 . S
C562 C561 1.351 . S
C562 N563 1.373 1_554 S
C562 H590 0.930 . S
N563 C562 1.373 1_556 S
N563 C565 1.340 . S
N564 C561 1.368 1_556 S
N564 C565 1.321 . S
N564 Co567 2.135 . S
C565 N563 1.340 . S
C565 N564 1.321 . S
C565 H589 0.930 . S
H566 C561 0.931 . S
Co567 N564 2.135 . S
Co567 N570 2.121 . S
Co567 O575 2.055 . S
Co567 O578 2.039 . S
Co567 N581 2.140 1_556 S
C568 O569 1.227 . S
C568 O578 1.265 . S
O569 C568 1.227 . S
N570 Co567 2.121 . S
N570 C572 1.375 . S
N570 C573 1.313 . S
C571 C572 1.338 . S
C571 N574 1.377 . S
C571 H591 0.930 . S
C572 N570 1.375 . S
C572 C571 1.338 . S
C572 H576 0.931 . S
C573 N570 1.313 . S
C573 N574 1.344 . S
C573 H577 0.930 . S
N574 C571 1.377 . S
N574 C573 1.344 . S
O575 Co567 2.055 . S
O575 C579 1.239 1_556 S
H576 C572 0.931 . S
H577 C573 0.930 . S
O578 Co567 2.039 . S
O578 C568 1.265 . S
C579 O575 1.239 1_554 S
C579 O580 1.236 . S
O580 C579 1.236 . S
N581 Co567 2.140 1_554 S
N581 C584 1.346 . S
N581 C585 1.345 . S
C582 C583 1.387 . S
C582 C586 1.391 . S
C583 C582 1.387 . S
C583 C584 1.369 . S
C583 H592 0.929 . S
C584 N581 1.346 . S
C584 C583 1.369 . S
C584 H587 0.928 1_554 S
C585 N581 1.345 . S
C585 C586 1.371 . S
C585 H588 0.931 . S
C586 C582 1.391 . S
C586 C585 1.371 . S
C586 H593 0.930 . S
H587 C584 0.928 1_556 S
H588 C585 0.931 . S
H589 C565 0.930 . S
H590 C562 0.930 . S
H591 C571 0.930 . S
H592 C583 0.929 . S
H593 C586 0.930 . S
C594 C595 1.351 . S
C594 N597 1.368 . S
C594 H599 0.931 . S
C595 C594 1.351 . S
C595 N596 1.373 . S
C595 H623 0.930 . S
N596 C595 1.373 . S
N596 C598 1.340 . S
N597 C594 1.368 . S
N597 C598 1.321 . S
N597 Co600 2.135 . S
C598 N596 1.340 . S
C598 N597 1.321 . S
C598 H622 0.930 . S
H599 C594 0.931 . S
Co600 N597 2.135 . S
Co600 N603 2.121 . S
Co600 O608 2.055 . S
Co600 O611 2.039 . S
Co600 N614 2.140 . S
C601 O602 1.227 . S
C601 O611 1.265 . S
O602 C601 1.227 . S
N603 Co600 2.121 . S
N603 C605 1.375 . S
N603 C606 1.313 . S
C604 C605 1.338 . S
C604 N607 1.377 . S
C604 H624 0.930 . S
C605 N603 1.375 . S
C605 C604 1.338 . S
C605 H609 0.931 . S
C606 N603 1.313 . S
C606 N607 1.344 . S
C606 H610 0.930 . S
N607 C604 1.377 . S
N607 C606 1.344 . S
O608 Co600 2.055 . S
O608 C612 1.253 . S
H609 C605 0.931 . S
H610 C606 0.930 . S
O611 Co600 2.039 . S
O611 C601 1.265 . S
C612 O608 1.253 . S
C612 O613 1.227 . S
O613 C612 1.227 . S
N614 Co600 2.140 . S
N614 C617 1.346 . S
N614 C618 1.345 . S
C615 C616 1.387 . S
C615 C619 1.391 . S
C616 C615 1.387 . S
C616 C617 1.369 . S
C616 H625 0.929 . S
C617 N614 1.346 . S
C617 C616 1.369 . S
C617 H620 0.928 . S
C618 N614 1.345 . S
C618 C619 1.371 . S
C618 H621 0.931 . S
C619 C615 1.391 . S
C619 C618 1.371 . S
C619 H626 0.930 . S
H620 C617 0.928 . S
H621 C618 0.931 . S
H622 C598 0.930 . S
H623 C595 0.930 . S
H624 C604 0.930 . S
H625 C616 0.929 . S
H626 C619 0.930 . S
C627 C628 1.351 . S
C627 N630 1.368 . S
C627 H632 0.931 . S
C628 C627 1.351 . S
C628 N629 1.373 . S
C628 H656 0.930 . S
N629 C628 1.373 . S
N629 C631 1.340 . S
N630 C627 1.368 . S
N630 C631 1.321 . S
N630 Co633 2.135 . S
C631 N629 1.340 . S
C631 N630 1.321 . S
C631 H655 0.930 . S
H632 C627 0.931 . S
Co633 N630 2.135 . S
Co633 N636 2.121 . S
Co633 O641 2.055 . S
Co633 O644 2.039 . S
Co633 N647 2.140 . S
C634 O635 1.227 . S
C634 O644 1.265 . S
O635 C634 1.227 . S
N636 Co633 2.121 . S
N636 C638 1.375 . S
N636 C639 1.313 . S
C637 C638 1.338 . S
C637 N640 1.377 . S
C637 H657 0.930 . S
C638 N636 1.375 . S
C638 C637 1.338 . S
C638 H642 0.931 . S
C639 N636 1.313 . S
C639 N640 1.344 . S
C639 H643 0.930 . S
N640 C637 1.377 . S
N640 C639 1.344 . S
O641 Co633 2.055 . S
O641 C645 1.253 . S
H642 C638 0.931 . S
H643 C639 0.930 . S
O644 Co633 2.039 . S
O644 C634 1.265 . S
C645 O641 1.253 . S
C645 O646 1.227 . S
O646 C645 1.227 . S
N647 Co633 2.140 . S
N647 C650 1.346 . S
N647 C651 1.345 . S
C648 C649 1.387 . S
C648 C652 1.391 . S
C649 C648 1.387 . S
C649 C650 1.369 . S
C649 H658 0.929 . S
C650 N647 1.346 . S
C650 C649 1.369 . S
C650 H653 0.928 . S
C651 N647 1.345 . S
C651 C652 1.371 . S
C651 H654 0.931 . S
C652 C648 1.391 . S
C652 C651 1.371 . S
C652 H659 0.930 . S
H653 C650 0.928 . S
H654 C651 0.931 . S
H655 C631 0.930 . S
H656 C628 0.930 . S
H657 C637 0.930 . S
H658 C649 0.929 . S
H659 C652 0.930 . S
C660 C661 1.351 . S
C660 N663 1.368 . S
C660 H665 0.931 . S
C661 C660 1.351 . S
C661 N662 1.373 . S
C661 H689 0.930 . S
N662 C661 1.373 . S
N662 C664 1.340 . S
N663 C660 1.368 . S
N663 C664 1.321 . S
N663 Co666 2.135 . S
C664 N662 1.340 . S
C664 N663 1.321 . S
C664 H688 0.930 . S
H665 C660 0.931 . S
Co666 N663 2.135 . S
Co666 N669 2.121 . S
Co666 O674 2.055 . S
Co666 O677 2.039 . S
Co666 N680 2.140 . S
C667 O668 1.227 . S
C667 O677 1.265 . S
O668 C667 1.227 . S
N669 Co666 2.121 . S
N669 C671 1.375 . S
N669 C672 1.313 . S
C670 C671 1.338 . S
C670 N673 1.377 . S
C670 H690 0.930 . S
C671 N669 1.375 . S
C671 C670 1.338 . S
C671 H675 0.931 . S
C672 N669 1.313 . S
C672 N673 1.344 . S
C672 H676 0.930 . S
N673 C670 1.377 . S
N673 C672 1.344 . S
O674 Co666 2.055 . S
O674 C678 1.253 . S
H675 C671 0.931 . S
H676 C672 0.930 . S
O677 Co666 2.039 . S
O677 C667 1.265 . S
C678 O674 1.253 . S
C678 O679 1.227 . S
O679 C678 1.227 . S
N680 Co666 2.140 . S
N680 C683 1.346 . S
N680 C684 1.345 . S
C681 C682 1.387 . S
C681 C685 1.391 . S
C682 C681 1.387 . S
C682 C683 1.369 . S
C682 H691 0.929 . S
C683 N680 1.346 . S
C683 C682 1.369 . S
C683 H686 0.928 . S
C684 N680 1.345 . S
C684 C685 1.371 . S
C684 H687 0.931 . S
C685 C681 1.391 . S
C685 C684 1.371 . S
C685 H692 0.930 . S
H686 C683 0.928 . S
H687 C684 0.931 . S
H688 C664 0.930 . S
H689 C661 0.930 . S
H690 C670 0.930 . S
H691 C682 0.929 . S
H692 C685 0.930 . S
C693 C694 1.351 . S
C693 N696 1.368 . S
C693 H698 0.931 . S
C694 C693 1.351 . S
C694 N695 1.373 . S
C694 H722 0.930 . S
N695 C694 1.373 . S
N695 C697 1.340 . S
N696 C693 1.368 . S
N696 C697 1.321 . S
N696 Co699 2.135 . S
C697 N695 1.340 . S
C697 N696 1.321 . S
C697 H721 0.930 . S
H698 C693 0.931 . S
Co699 N696 2.135 . S
Co699 N702 2.121 . S
Co699 O707 2.055 . S
Co699 O710 2.039 . S
Co699 N713 2.140 . S
C700 O701 1.227 . S
C700 O710 1.265 . S
O701 C700 1.227 . S
N702 Co699 2.121 . S
N702 C704 1.375 . S
N702 C705 1.313 . S
C703 C704 1.338 . S
C703 N706 1.377 . S
C703 H723 0.930 . S
C704 N702 1.375 . S
C704 C703 1.338 . S
C704 H708 0.931 . S
C705 N702 1.313 . S
C705 N706 1.344 . S
C705 H709 0.930 . S
N706 C703 1.377 . S
N706 C705 1.344 . S
O707 Co699 2.055 . S
O707 C711 1.253 . S
H708 C704 0.931 . S
H709 C705 0.930 . S
O710 Co699 2.039 . S
O710 C700 1.265 . S
C711 O707 1.253 . S
C711 O712 1.227 . S
O712 C711 1.227 . S
N713 Co699 2.140 . S
N713 C716 1.346 . S
N713 C717 1.345 . S
C714 C715 1.387 . S
C714 C718 1.391 . S
C715 C714 1.387 . S
C715 C716 1.369 . S
C715 H724 0.929 . S
C716 N713 1.346 . S
C716 C715 1.369 . S
C716 H719 0.928 . S
C717 N713 1.345 . S
C717 C718 1.371 . S
C717 H720 0.931 . S
C718 C714 1.391 . S
C718 C717 1.371 . S
C718 H725 0.930 . S
H719 C716 0.928 . S
H720 C717 0.931 . S
H721 C697 0.930 . S
H722 C694 0.930 . S
H723 C703 0.930 . S
H724 C715 0.929 . S
H725 C718 0.930 . S
C726 C727 1.351 . S
C726 N729 1.368 . S
C726 H731 0.931 . S
C727 C726 1.351 . S
C727 N728 1.373 . S
C727 H755 0.930 . S
N728 C727 1.373 . S
N728 C730 1.340 . S
N729 C726 1.368 . S
N729 C730 1.321 . S
N729 Co732 2.135 . S
C730 N728 1.340 . S
C730 N729 1.321 . S
C730 H754 0.930 . S
H731 C726 0.931 . S
Co732 N729 2.135 . S
Co732 N735 2.121 . S
Co732 O740 2.055 . S
Co732 O743 2.039 . S
Co732 N746 2.140 . S
C733 O734 1.227 . S
C733 O743 1.265 . S
O734 C733 1.227 . S
N735 Co732 2.121 . S
N735 C737 1.375 . S
N735 C738 1.313 . S
C736 C737 1.338 . S
C736 N739 1.377 . S
C736 H756 0.930 . S
C737 N735 1.375 . S
C737 C736 1.338 . S
C737 H741 0.931 . S
C738 N735 1.313 . S
C738 N739 1.344 . S
C738 H742 0.930 . S
N739 C736 1.377 . S
N739 C738 1.344 . S
O740 Co732 2.055 . S
O740 C744 1.253 . S
H741 C737 0.931 . S
H742 C738 0.930 . S
O743 Co732 2.039 . S
O743 C733 1.265 . S
C744 O740 1.253 . S
C744 O745 1.227 . S
O745 C744 1.227 . S
N746 Co732 2.140 . S
N746 C749 1.346 . S
N746 C750 1.345 . S
C747 C748 1.387 . S
C747 C751 1.391 . S
C748 C747 1.387 . S
C748 C749 1.369 . S
C748 H757 0.929 . S
C749 N746 1.346 . S
C749 C748 1.369 . S
C749 H752 0.928 . S
C750 N746 1.345 . S
C750 C751 1.371 . S
C750 H753 0.931 . S
C751 C747 1.391 . S
C751 C750 1.371 . S
C751 H758 0.930 . S
H752 C749 0.928 . S
H753 C750 0.931 . S
H754 C730 0.930 . S
H755 C727 0.930 . S
H756 C736 0.930 . S
H757 C748 0.929 . S
H758 C751 0.930 . S
C759 C760 1.351 . S
C759 N762 1.368 . S
C759 H764 0.931 . S
C760 C759 1.351 . S
C760 N761 1.373 . S
C760 H788 0.930 . S
N761 C760 1.373 . S
N761 C763 1.340 . S
N762 C759 1.368 . S
N762 C763 1.321 . S
N762 Co765 2.135 . S
C763 N761 1.340 . S
C763 N762 1.321 . S
C763 H787 0.930 . S
H764 C759 0.931 . S
Co765 N762 2.135 . S
Co765 N768 2.121 . S
Co765 O773 2.055 . S
Co765 O776 2.039 . S
Co765 N779 2.140 . S
C766 O767 1.227 . S
C766 O776 1.265 . S
O767 C766 1.227 . S
N768 Co765 2.121 . S
N768 C770 1.375 . S
N768 C771 1.313 . S
C769 C770 1.338 . S
C769 N772 1.377 . S
C769 H789 0.930 . S
C770 N768 1.375 . S
C770 C769 1.338 . S
C770 H774 0.931 . S
C771 N768 1.313 . S
C771 N772 1.344 . S
C771 H775 0.930 . S
N772 C769 1.377 . S
N772 C771 1.344 . S
O773 Co765 2.055 . S
O773 C777 1.253 . S
H774 C770 0.931 . S
H775 C771 0.930 . S
O776 Co765 2.039 . S
O776 C766 1.265 . S
C777 O773 1.253 . S
C777 O778 1.227 . S
O778 C777 1.227 . S
N779 Co765 2.140 . S
N779 C782 1.346 . S
N779 C783 1.345 . S
C780 C781 1.387 . S
C780 C784 1.391 . S
C781 C780 1.387 . S
C781 C782 1.369 . S
C781 H790 0.929 . S
C782 N779 1.346 . S
C782 C781 1.369 . S
C782 H785 0.928 . S
C783 N779 1.345 . S
C783 C784 1.371 . S
C783 H786 0.931 . S
C784 C780 1.391 . S
C784 C783 1.371 . S
C784 H791 0.930 . S
H785 C782 0.928 . S
H786 C783 0.931 . S
H787 C763 0.930 . S
H788 C760 0.930 . S
H789 C769 0.930 . S
H790 C781 0.929 . S
H791 C784 0.930 . S
C792 C793 1.351 . S
C792 N795 1.368 . S
C792 H797 0.931 . S
C793 C792 1.351 . S
C793 N794 1.373 . S
C793 H821 0.930 . S
N794 C793 1.373 . S
N794 C796 1.340 . S
N795 C792 1.368 . S
N795 C796 1.321 . S
N795 Co798 2.135 . S
C796 N794 1.340 . S
C796 N795 1.321 . S
C796 H820 0.930 . S
H797 C792 0.931 . S
Co798 N795 2.135 . S
Co798 N801 2.121 . S
Co798 O806 2.055 . S
Co798 O809 2.039 . S
Co798 N812 2.140 . S
C799 O800 1.227 . S
C799 O809 1.265 . S
O800 C799 1.227 . S
N801 Co798 2.121 . S
N801 C803 1.375 . S
N801 C804 1.313 . S
C802 C803 1.338 . S
C802 N805 1.377 . S
C802 H822 0.930 . S
C803 N801 1.375 . S
C803 C802 1.338 . S
C803 H807 0.931 . S
C804 N801 1.313 . S
C804 N805 1.344 . S
C804 H808 0.930 . S
N805 C802 1.377 . S
N805 C804 1.344 . S
O806 Co798 2.055 . S
O806 C810 1.253 . S
H807 C803 0.931 . S
H808 C804 0.930 . S
O809 Co798 2.039 . S
O809 C799 1.265 . S
C810 O806 1.253 . S
C810 O811 1.227 . S
O811 C810 1.227 . S
N812 Co798 2.140 . S
N812 C815 1.346 . S
N812 C816 1.345 . S
C813 C814 1.387 . S
C813 C817 1.391 . S
C814 C813 1.387 . S
C814 C815 1.369 . S
C814 H823 0.929 . S
C815 N812 1.346 . S
C815 C814 1.369 . S
C815 H818 0.928 . S
C816 N812 1.345 . S
C816 C817 1.371 . S
C816 H819 0.931 . S
C817 C813 1.391 . S
C817 C816 1.371 . S
C817 H824 0.930 . S
H818 C815 0.928 . S
H819 C816 0.931 . S
H820 C796 0.930 . S
H821 C793 0.930 . S
H822 C802 0.930 . S
H823 C814 0.929 . S
H824 C817 0.930 . S
C825 C826 1.351 . S
C825 N828 1.368 . S
C825 H830 0.931 . S
C826 C825 1.351 . S
C826 N827 1.373 . S
C826 H854 0.930 . S
N827 C826 1.373 . S
N827 C829 1.340 . S
N828 C825 1.368 . S
N828 C829 1.321 . S
N828 Co831 2.135 . S
C829 N827 1.340 . S
C829 N828 1.321 . S
C829 H853 0.930 . S
H830 C825 0.931 . S
Co831 N828 2.135 . S
Co831 N834 2.121 . S
Co831 O839 2.055 . S
Co831 O842 2.039 . S
Co831 N845 2.140 . S
C832 O833 1.227 . S
C832 O842 1.265 . S
O833 C832 1.227 . S
N834 Co831 2.121 . S
N834 C836 1.375 . S
N834 C837 1.313 . S
C835 C836 1.338 . S
C835 N838 1.377 . S
C835 H855 0.930 . S
C836 N834 1.375 . S
C836 C835 1.338 . S
C836 H840 0.931 . S
C837 N834 1.313 . S
C837 N838 1.344 . S
C837 H841 0.930 . S
N838 C835 1.377 . S
N838 C837 1.344 . S
O839 Co831 2.055 . S
O839 C843 1.253 . S
H840 C836 0.931 . S
H841 C837 0.930 . S
O842 Co831 2.039 . S
O842 C832 1.265 . S
C843 O839 1.253 . S
C843 O844 1.227 . S
O844 C843 1.227 . S
N845 Co831 2.140 . S
N845 C848 1.346 . S
N845 C849 1.345 . S
C846 C847 1.387 . S
C846 C850 1.391 . S
C847 C846 1.387 . S
C847 C848 1.369 . S
C847 H856 0.929 . S
C848 N845 1.346 . S
C848 C847 1.369 . S
C848 H851 0.928 . S
C849 N845 1.345 . S
C849 C850 1.371 . S
C849 H852 0.931 . S
C850 C846 1.391 . S
C850 C849 1.371 . S
C850 H857 0.930 . S
H851 C848 0.928 . S
H852 C849 0.931 . S
H853 C829 0.930 . S
H854 C826 0.930 . S
H855 C835 0.930 . S
H856 C847 0.929 . S
H857 C850 0.930 . S
C858 C859 1.351 . S
C858 N861 1.368 1_455 S
C858 H863 0.931 . S
C859 C858 1.351 . S
C859 N860 1.373 1_455 S
C859 H887 0.930 . S
N860 C859 1.373 1_655 S
N860 C862 1.340 . S
N861 C858 1.368 1_655 S
N861 C862 1.321 . S
N861 Co864 2.135 . S
C862 N860 1.340 . S
C862 N861 1.321 . S
C862 H886 0.930 . S
H863 C858 0.931 . S
Co864 N861 2.135 . S
Co864 N867 2.121 . S
Co864 O872 2.055 . S
Co864 O875 2.039 . S
Co864 N878 2.140 1_655 S
C865 O866 1.227 . S
C865 O875 1.265 . S
O866 C865 1.227 . S
N867 Co864 2.121 . S
N867 C869 1.375 . S
N867 C870 1.313 . S
C868 C869 1.338 . S
C868 N871 1.377 . S
C868 H888 0.930 . S
C869 N867 1.375 . S
C869 C868 1.338 . S
C869 H873 0.931 . S
C870 N867 1.313 . S
C870 N871 1.344 . S
C870 H874 0.930 . S
N871 C868 1.377 . S
N871 C870 1.344 . S
O872 Co864 2.055 . S
O872 C876 1.239 1_655 S
H873 C869 0.931 . S
H874 C870 0.930 . S
O875 Co864 2.039 . S
O875 C865 1.265 . S
C876 O872 1.239 1_455 S
C876 O877 1.236 . S
O877 C876 1.236 . S
N878 Co864 2.140 1_455 S
N878 C881 1.346 . S
N878 C882 1.345 . S
C879 C880 1.387 . S
C879 C883 1.391 . S
C880 C879 1.387 . S
C880 C881 1.369 . S
C880 H889 0.929 . S
C881 N878 1.346 . S
C881 C880 1.369 . S
C881 H884 0.928 1_455 S
C882 N878 1.345 . S
C882 C883 1.371 . S
C882 H885 0.931 . S
C883 C879 1.391 . S
C883 C882 1.371 . S
C883 H890 0.930 . S
H884 C881 0.928 1_655 S
H885 C882 0.931 . S
H886 C862 0.930 . S
H887 C859 0.930 . S
H888 C868 0.930 . S
H889 C880 0.929 . S
H890 C883 0.930 . S
C891 C892 1.351 . S
C891 N894 1.368 . S
C891 H896 0.931 . S
C892 C891 1.351 . S
C892 N893 1.373 . S
C892 H920 0.930 . S
N893 C892 1.373 . S
N893 C895 1.340 . S
N894 C891 1.368 . S
N894 C895 1.321 . S
N894 Co897 2.135 . S
C895 N893 1.340 . S
C895 N894 1.321 . S
C895 H919 0.930 . S
H896 C891 0.931 . S
Co897 N894 2.135 . S
Co897 N900 2.121 . S
Co897 O905 2.055 . S
Co897 O908 2.039 . S
Co897 N911 2.140 . S
C898 O899 1.227 . S
C898 O908 1.265 . S
O899 C898 1.227 . S
N900 Co897 2.121 . S
N900 C902 1.375 . S
N900 C903 1.313 . S
C901 C902 1.338 . S
C901 N904 1.377 . S
C901 H921 0.930 . S
C902 N900 1.375 . S
C902 C901 1.338 . S
C902 H906 0.931 . S
C903 N900 1.313 . S
C903 N904 1.344 . S
C903 H907 0.930 . S
N904 C901 1.377 . S
N904 C903 1.344 . S
O905 Co897 2.055 . S
O905 C909 1.253 . S
H906 C902 0.931 . S
H907 C903 0.930 . S
O908 Co897 2.039 . S
O908 C898 1.265 . S
C909 O905 1.253 . S
C909 O910 1.227 . S
O910 C909 1.227 . S
N911 Co897 2.140 . S
N911 C914 1.346 . S
N911 C915 1.345 . S
C912 C913 1.387 . S
C912 C916 1.391 . S
C913 C912 1.387 . S
C913 C914 1.369 . S
C913 H922 0.929 . S
C914 N911 1.346 . S
C914 C913 1.369 . S
C914 H917 0.928 . S
C915 N911 1.345 . S
C915 C916 1.371 . S
C915 H918 0.931 . S
C916 C912 1.391 . S
C916 C915 1.371 . S
C916 H923 0.930 . S
H917 C914 0.928 . S
H918 C915 0.931 . S
H919 C895 0.930 . S
H920 C892 0.930 . S
H921 C901 0.930 . S
H922 C913 0.929 . S
H923 C916 0.930 . S
C924 C925 1.351 . S
C924 N927 1.368 . S
C924 H929 0.931 . S
C925 C924 1.351 . S
C925 N926 1.373 . S
C925 H953 0.930 . S
N926 C925 1.373 . S
N926 C928 1.340 . S
N927 C924 1.368 . S
N927 C928 1.321 . S
N927 Co930 2.135 . S
C928 N926 1.340 . S
C928 N927 1.321 . S
C928 H952 0.930 . S
H929 C924 0.931 . S
Co930 N927 2.135 . S
Co930 N933 2.121 . S
Co930 O938 2.055 . S
Co930 O941 2.039 . S
Co930 N944 2.140 . S
C931 O932 1.227 . S
C931 O941 1.265 . S
O932 C931 1.227 . S
N933 Co930 2.121 . S
N933 C935 1.375 . S
N933 C936 1.313 . S
C934 C935 1.338 . S
C934 N937 1.377 . S
C934 H954 0.930 . S
C935 N933 1.375 . S
C935 C934 1.338 . S
C935 H939 0.931 . S
C936 N933 1.313 . S
C936 N937 1.344 . S
C936 H940 0.930 . S
N937 C934 1.377 . S
N937 C936 1.344 . S
O938 Co930 2.055 . S
O938 C942 1.253 . S
H939 C935 0.931 . S
H940 C936 0.930 . S
O941 Co930 2.039 . S
O941 C931 1.265 . S
C942 O938 1.253 . S
C942 O943 1.227 . S
O943 C942 1.227 . S
N944 Co930 2.140 . S
N944 C947 1.346 . S
N944 C948 1.345 . S
C945 C946 1.387 . S
C945 C949 1.391 . S
C946 C945 1.387 . S
C946 C947 1.369 . S
C946 H955 0.929 . S
C947 N944 1.346 . S
C947 C946 1.369 . S
C947 H950 0.928 . S
C948 N944 1.345 . S
C948 C949 1.371 . S
C948 H951 0.931 . S
C949 C945 1.391 . S
C949 C948 1.371 . S
C949 H956 0.930 . S
H950 C947 0.928 . S
H951 C948 0.931 . S
H952 C928 0.930 . S
H953 C925 0.930 . S
H954 C934 0.930 . S
H955 C946 0.929 . S
H956 C949 0.930 . S
C957 C958 1.351 . S
C957 N960 1.368 . S
C957 H962 0.931 . S
C958 C957 1.351 . S
C958 N959 1.373 . S
C958 H986 0.930 . S
N959 C958 1.373 . S
N959 C961 1.340 . S
N960 C957 1.368 . S
N960 C961 1.321 . S
N960 Co963 2.135 . S
C961 N959 1.340 . S
C961 N960 1.321 . S
C961 H985 0.930 . S
H962 C957 0.931 . S
Co963 N960 2.135 . S
Co963 N966 2.121 . S
Co963 O971 2.055 . S
Co963 O974 2.039 . S
Co963 N977 2.140 . S
C964 O965 1.227 . S
C964 O974 1.265 . S
O965 C964 1.227 . S
N966 Co963 2.121 . S
N966 C968 1.375 . S
N966 C969 1.313 . S
C967 C968 1.338 . S
C967 N970 1.377 . S
C967 H987 0.930 . S
C968 N966 1.375 . S
C968 C967 1.338 . S
C968 H972 0.931 . S
C969 N966 1.313 . S
C969 N970 1.344 . S
C969 H973 0.930 . S
N970 C967 1.377 . S
N970 C969 1.344 . S
O971 Co963 2.055 . S
O971 C975 1.253 . S
H972 C968 0.931 . S
H973 C969 0.930 . S
O974 Co963 2.039 . S
O974 C964 1.265 . S
C975 O971 1.253 . S
C975 O976 1.227 . S
O976 C975 1.227 . S
N977 Co963 2.140 . S
N977 C980 1.346 . S
N977 C981 1.345 . S
C978 C979 1.387 . S
C978 C982 1.391 . S
C979 C978 1.387 . S
C979 C980 1.369 . S
C979 H988 0.929 . S
C980 N977 1.346 . S
C980 C979 1.369 . S
C980 H983 0.928 . S
C981 N977 1.345 . S
C981 C982 1.371 . S
C981 H984 0.931 . S
C982 C978 1.391 . S
C982 C981 1.371 . S
C982 H989 0.930 . S
H983 C980 0.928 . S
H984 C981 0.931 . S
H985 C961 0.930 . S
H986 C958 0.930 . S
H987 C967 0.930 . S
H988 C979 0.929 . S
H989 C982 0.930 . S
C990 C991 1.351 . S
C990 N993 1.368 1_455 S
C990 H995 0.931 . S
C991 C990 1.351 . S
C991 N992 1.373 1_455 S
C991 H1019 0.930 . S
N992 C991 1.373 1_655 S
N992 C994 1.340 . S
N993 C990 1.368 1_655 S
N993 C994 1.321 . S
N993 Co996 2.135 . S
C994 N992 1.340 . S
C994 N993 1.321 . S
C994 H1018 0.930 . S
H995 C990 0.931 . S
Co996 N993 2.135 . S
Co996 N999 2.121 . S
Co996 O1004 2.055 . S
Co996 O1007 2.039 . S
Co996 N1010 2.140 1_655 S
C997 O998 1.227 . S
C997 O1007 1.265 . S
O998 C997 1.227 . S
N999 Co996 2.121 . S
N999 C1001 1.375 . S
N999 C1002 1.313 . S
C1000 C1001 1.338 . S
C1000 N1003 1.377 . S
C1000 H1020 0.930 . S
C1001 N999 1.375 . S
C1001 C1000 1.338 . S
C1001 H1005 0.931 . S
C1002 N999 1.313 . S
C1002 N1003 1.344 . S
C1002 H1006 0.930 . S
N1003 C1000 1.377 . S
N1003 C1002 1.344 . S
O1004 Co996 2.055 . S
O1004 C1008 1.239 1_655 S
H1005 C1001 0.931 . S
H1006 C1002 0.930 . S
O1007 Co996 2.039 . S
O1007 C997 1.265 . S
C1008 O1004 1.239 1_455 S
C1008 O1009 1.236 . S
O1009 C1008 1.236 . S
N1010 Co996 2.140 1_455 S
N1010 C1013 1.346 . S
N1010 C1014 1.345 . S
C1011 C1012 1.387 . S
C1011 C1015 1.391 . S
C1012 C1011 1.387 . S
C1012 C1013 1.369 . S
C1012 H1021 0.929 . S
C1013 N1010 1.346 . S
C1013 C1012 1.369 . S
C1013 H1016 0.928 1_455 S
C1014 N1010 1.345 . S
C1014 C1015 1.371 . S
C1014 H1017 0.931 . S
C1015 C1011 1.391 . S
C1015 C1014 1.371 . S
C1015 H1022 0.930 . S
H1016 C1013 0.928 1_655 S
H1017 C1014 0.931 . S
H1018 C994 0.930 . S
H1019 C991 0.930 . S
H1020 C1000 0.930 . S
H1021 C1012 0.929 . S
H1022 C1015 0.930 . S
C1023 C1024 1.351 . S
C1023 N1026 1.368 . S
C1023 H1028 0.931 . S
C1024 C1023 1.351 . S
C1024 N1025 1.373 . S
C1024 H1052 0.930 . S
N1025 C1024 1.373 . S
N1025 C1027 1.340 . S
N1026 C1023 1.368 . S
N1026 C1027 1.321 . S
N1026 Co1029 2.135 . S
C1027 N1025 1.340 . S
C1027 N1026 1.321 . S
C1027 H1051 0.930 . S
H1028 C1023 0.931 . S
Co1029 N1026 2.135 . S
Co1029 N1032 2.121 . S
Co1029 O1037 2.055 . S
Co1029 O1040 2.039 . S
Co1029 N1043 2.140 . S
C1030 O1031 1.227 . S
C1030 O1040 1.265 . S
O1031 C1030 1.227 . S
N1032 Co1029 2.121 . S
N1032 C1034 1.375 . S
N1032 C1035 1.313 . S
C1033 C1034 1.338 . S
C1033 N1036 1.377 . S
C1033 H1053 0.930 . S
C1034 N1032 1.375 . S
C1034 C1033 1.338 . S
C1034 H1038 0.931 . S
C1035 N1032 1.313 . S
C1035 N1036 1.344 . S
C1035 H1039 0.930 . S
N1036 C1033 1.377 . S
N1036 C1035 1.344 . S
O1037 Co1029 2.055 . S
O1037 C1041 1.253 . S
H1038 C1034 0.931 . S
H1039 C1035 0.930 . S
O1040 Co1029 2.039 . S
O1040 C1030 1.265 . S
C1041 O1037 1.253 . S
C1041 O1042 1.227 . S
O1042 C1041 1.227 . S
N1043 Co1029 2.140 . S
N1043 C1046 1.346 . S
N1043 C1047 1.345 . S
C1044 C1045 1.387 . S
C1044 C1048 1.391 . S
C1045 C1044 1.387 . S
C1045 C1046 1.369 . S
C1045 H1054 0.929 . S
C1046 N1043 1.346 . S
C1046 C1045 1.369 . S
C1046 H1049 0.928 . S
C1047 N1043 1.345 . S
C1047 C1048 1.371 . S
C1047 H1050 0.931 . S
C1048 C1044 1.391 . S
C1048 C1047 1.371 . S
C1048 H1055 0.930 . S
H1049 C1046 0.928 . S
H1050 C1047 0.931 . S
H1051 C1027 0.930 . S
H1052 C1024 0.930 . S
H1053 C1033 0.930 . S
H1054 C1045 0.929 . S
H1055 C1048 0.930 . S
C1056 C1057 1.351 . S
C1056 N1059 1.368 . S
C1056 H1061 0.931 . S
C1057 C1056 1.351 . S
C1057 N1058 1.373 . S
C1057 H1085 0.930 . S
N1058 C1057 1.373 . S
N1058 C1060 1.340 . S
N1059 C1056 1.368 . S
N1059 C1060 1.321 . S
N1059 Co1062 2.135 . S
C1060 N1058 1.340 . S
C1060 N1059 1.321 . S
C1060 H1084 0.930 . S
H1061 C1056 0.931 . S
Co1062 N1059 2.135 . S
Co1062 N1065 2.121 . S
Co1062 O1070 2.055 . S
Co1062 O1073 2.039 . S
Co1062 N1076 2.140 . S
C1063 O1064 1.227 . S
C1063 O1073 1.265 . S
O1064 C1063 1.227 . S
N1065 Co1062 2.121 . S
N1065 C1067 1.375 . S
N1065 C1068 1.313 . S
C1066 C1067 1.338 . S
C1066 N1069 1.377 . S
C1066 H1086 0.930 . S
C1067 N1065 1.375 . S
C1067 C1066 1.338 . S
C1067 H1071 0.931 . S
C1068 N1065 1.313 . S
C1068 N1069 1.344 . S
C1068 H1072 0.930 . S
N1069 C1066 1.377 . S
N1069 C1068 1.344 . S
O1070 Co1062 2.055 . S
O1070 C1074 1.253 . S
H1071 C1067 0.931 . S
H1072 C1068 0.930 . S
O1073 Co1062 2.039 . S
O1073 C1063 1.265 . S
C1074 O1070 1.253 . S
C1074 O1075 1.227 . S
O1075 C1074 1.227 . S
N1076 Co1062 2.140 . S
N1076 C1079 1.346 . S
N1076 C1080 1.345 . S
C1077 C1078 1.387 . S
C1077 C1081 1.391 . S
C1078 C1077 1.387 . S
C1078 C1079 1.369 . S
C1078 H1087 0.929 . S
C1079 N1076 1.346 . S
C1079 C1078 1.369 . S
C1079 H1082 0.928 . S
C1080 N1076 1.345 . S
C1080 C1081 1.371 . S
C1080 H1083 0.931 . S
C1081 C1077 1.391 . S
C1081 C1080 1.371 . S
C1081 H1088 0.930 . S
H1082 C1079 0.928 . S
H1083 C1080 0.931 . S
H1084 C1060 0.930 . S
H1085 C1057 0.930 . S
H1086 C1066 0.930 . S
H1087 C1078 0.929 . S
H1088 C1081 0.930 . S
C1089 C1090 1.351 . S
C1089 N1092 1.368 . S
C1089 H1094 0.931 . S
C1090 C1089 1.351 . S
C1090 N1091 1.373 . S
C1090 H1118 0.930 . S
N1091 C1090 1.373 . S
N1091 C1093 1.340 . S
N1092 C1089 1.368 . S
N1092 C1093 1.321 . S
N1092 Co1095 2.135 . S
C1093 N1091 1.340 . S
C1093 N1092 1.321 . S
C1093 H1117 0.930 . S
H1094 C1089 0.931 . S
Co1095 N1092 2.135 . S
Co1095 N1098 2.121 . S
Co1095 O1103 2.055 . S
Co1095 O1106 2.039 . S
Co1095 N1109 2.140 . S
C1096 O1097 1.227 . S
C1096 O1106 1.265 . S
O1097 C1096 1.227 . S
N1098 Co1095 2.121 . S
N1098 C1100 1.375 . S
N1098 C1101 1.313 . S
C1099 C1100 1.338 . S
C1099 N1102 1.377 . S
C1099 H1119 0.930 . S
C1100 N1098 1.375 . S
C1100 C1099 1.338 . S
C1100 H1104 0.931 . S
C1101 N1098 1.313 . S
C1101 N1102 1.344 . S
C1101 H1105 0.930 . S
N1102 C1099 1.377 . S
N1102 C1101 1.344 . S
O1103 Co1095 2.055 . S
O1103 C1107 1.253 . S
H1104 C1100 0.931 . S
H1105 C1101 0.930 . S
O1106 Co1095 2.039 . S
O1106 C1096 1.265 . S
C1107 O1103 1.253 . S
C1107 O1108 1.227 . S
O1108 C1107 1.227 . S
N1109 Co1095 2.140 . S
N1109 C1112 1.346 . S
N1109 C1113 1.345 . S
C1110 C1111 1.387 . S
C1110 C1114 1.391 . S
C1111 C1110 1.387 . S
C1111 C1112 1.369 . S
C1111 H1120 0.929 . S
C1112 N1109 1.346 . S
C1112 C1111 1.369 . S
C1112 H1115 0.928 . S
C1113 N1109 1.345 . S
C1113 C1114 1.371 . S
C1113 H1116 0.931 . S
C1114 C1110 1.391 . S
C1114 C1113 1.371 . S
C1114 H1121 0.930 . S
H1115 C1112 0.928 . S
H1116 C1113 0.931 . S
H1117 C1093 0.930 . S
H1118 C1090 0.930 . S
H1119 C1099 0.930 . S
H1120 C1111 0.929 . S
H1121 C1114 0.930 . S
C1122 C1123 1.351 . S
C1122 N1125 1.368 . S
C1122 H1127 0.931 . S
C1123 C1122 1.351 . S
C1123 N1124 1.373 . S
C1123 H1151 0.930 . S
N1124 C1123 1.373 . S
N1124 C1126 1.340 . S
N1125 C1122 1.368 . S
N1125 C1126 1.321 . S
N1125 Co1128 2.135 . S
C1126 N1124 1.340 . S
C1126 N1125 1.321 . S
C1126 H1150 0.930 . S
H1127 C1122 0.931 . S
Co1128 N1125 2.135 . S
Co1128 N1131 2.121 . S
Co1128 O1136 2.055 . S
Co1128 O1139 2.039 . S
Co1128 N1142 2.140 . S
C1129 O1130 1.227 . S
C1129 O1139 1.265 . S
O1130 C1129 1.227 . S
N1131 Co1128 2.121 . S
N1131 C1133 1.375 . S
N1131 C1134 1.313 . S
C1132 C1133 1.338 . S
C1132 N1135 1.377 . S
C1132 H1152 0.930 . S
C1133 N1131 1.375 . S
C1133 C1132 1.338 . S
C1133 H1137 0.931 . S
C1134 N1131 1.313 . S
C1134 N1135 1.344 . S
C1134 H1138 0.930 . S
N1135 C1132 1.377 . S
N1135 C1134 1.344 . S
O1136 Co1128 2.055 . S
O1136 C1140 1.253 . S
H1137 C1133 0.931 . S
H1138 C1134 0.930 . S
O1139 Co1128 2.039 . S
O1139 C1129 1.265 . S
C1140 O1136 1.253 . S
C1140 O1141 1.227 . S
O1141 C1140 1.227 . S
N1142 Co1128 2.140 . S
N1142 C1145 1.346 . S
N1142 C1146 1.345 . S
C1143 C1144 1.387 . S
C1143 C1147 1.391 . S
C1144 C1143 1.387 . S
C1144 C1145 1.369 . S
C1144 H1153 0.929 . S
C1145 N1142 1.346 . S
C1145 C1144 1.369 . S
C1145 H1148 0.928 . S
C1146 N1142 1.345 . S
C1146 C1147 1.371 . S
C1146 H1149 0.931 . S
C1147 C1143 1.391 . S
C1147 C1146 1.371 . S
C1147 H1154 0.930 . S
H1148 C1145 0.928 . S
H1149 C1146 0.931 . S
H1150 C1126 0.930 . S
H1151 C1123 0.930 . S
H1152 C1132 0.930 . S
H1153 C1144 0.929 . S
H1154 C1147 0.930 . S
C1155 C1156 1.351 . S
C1155 N1158 1.368 . S
C1155 H1160 0.931 . S
C1156 C1155 1.351 . S
C1156 N1157 1.373 . S
C1156 H1184 0.930 . S
N1157 C1156 1.373 . S
N1157 C1159 1.340 . S
N1158 C1155 1.368 . S
N1158 C1159 1.321 . S
N1158 Co1161 2.135 . S
C1159 N1157 1.340 . S
C1159 N1158 1.321 . S
C1159 H1183 0.930 . S
H1160 C1155 0.931 . S
Co1161 N1158 2.135 . S
Co1161 N1164 2.121 . S
Co1161 O1169 2.055 . S
Co1161 O1172 2.039 . S
Co1161 N1175 2.140 . S
C1162 O1163 1.227 . S
C1162 O1172 1.265 . S
O1163 C1162 1.227 . S
N1164 Co1161 2.121 . S
N1164 C1166 1.375 . S
N1164 C1167 1.313 . S
C1165 C1166 1.338 . S
C1165 N1168 1.377 . S
C1165 H1185 0.930 . S
C1166 N1164 1.375 . S
C1166 C1165 1.338 . S
C1166 H1170 0.931 . S
C1167 N1164 1.313 . S
C1167 N1168 1.344 . S
C1167 H1171 0.930 . S
N1168 C1165 1.377 . S
N1168 C1167 1.344 . S
O1169 Co1161 2.055 . S
O1169 C1173 1.253 . S
H1170 C1166 0.931 . S
H1171 C1167 0.930 . S
O1172 Co1161 2.039 . S
O1172 C1162 1.265 . S
C1173 O1169 1.253 . S
C1173 O1174 1.227 . S
O1174 C1173 1.227 . S
N1175 Co1161 2.140 . S
N1175 C1178 1.346 . S
N1175 C1179 1.345 . S
C1176 C1177 1.387 . S
C1176 C1180 1.391 . S
C1177 C1176 1.387 . S
C1177 C1178 1.369 . S
C1177 H1186 0.929 . S
C1178 N1175 1.346 . S
C1178 C1177 1.369 . S
C1178 H1181 0.928 . S
C1179 N1175 1.345 . S
C1179 C1180 1.371 . S
C1179 H1182 0.931 . S
C1180 C1176 1.391 . S
C1180 C1179 1.371 . S
C1180 H1187 0.930 . S
H1181 C1178 0.928 . S
H1182 C1179 0.931 . S
H1183 C1159 0.930 . S
H1184 C1156 0.930 . S
H1185 C1165 0.930 . S
H1186 C1177 0.929 . S
H1187 C1180 0.930 . S
C1188 C1189 1.351 . S
C1188 N1191 1.368 . S
C1188 H1193 0.931 . S
C1189 C1188 1.351 . S
C1189 N1190 1.373 . S
C1189 H1217 0.930 . S
N1190 C1189 1.373 . S
N1190 C1192 1.340 . S
N1191 C1188 1.368 . S
N1191 C1192 1.321 . S
N1191 Co1194 2.135 . S
C1192 N1190 1.340 . S
C1192 N1191 1.321 . S
C1192 H1216 0.930 . S
H1193 C1188 0.931 . S
Co1194 N1191 2.135 . S
Co1194 N1197 2.121 . S
Co1194 O1202 2.055 . S
Co1194 O1205 2.039 . S
Co1194 N1208 2.140 . S
C1195 O1196 1.227 . S
C1195 O1205 1.265 . S
O1196 C1195 1.227 . S
N1197 Co1194 2.121 . S
N1197 C1199 1.375 . S
N1197 C1200 1.313 . S
C1198 C1199 1.338 . S
C1198 N1201 1.377 . S
C1198 H1218 0.930 . S
C1199 N1197 1.375 . S
C1199 C1198 1.338 . S
C1199 H1203 0.931 . S
C1200 N1197 1.313 . S
C1200 N1201 1.344 . S
C1200 H1204 0.930 . S
N1201 C1198 1.377 . S
N1201 C1200 1.344 . S
O1202 Co1194 2.055 . S
O1202 C1206 1.253 . S
H1203 C1199 0.931 . S
H1204 C1200 0.930 . S
O1205 Co1194 2.039 . S
O1205 C1195 1.265 . S
C1206 O1202 1.253 . S
C1206 O1207 1.227 . S
O1207 C1206 1.227 . S
N1208 Co1194 2.140 . S
N1208 C1211 1.346 . S
N1208 C1212 1.345 . S
C1209 C1210 1.387 . S
C1209 C1213 1.391 . S
C1210 C1209 1.387 . S
C1210 C1211 1.369 . S
C1210 H1219 0.929 . S
C1211 N1208 1.346 . S
C1211 C1210 1.369 . S
C1211 H1214 0.928 . S
C1212 N1208 1.345 . S
C1212 C1213 1.371 . S
C1212 H1215 0.931 . S
C1213 C1209 1.391 . S
C1213 C1212 1.371 . S
C1213 H1220 0.930 . S
H1214 C1211 0.928 . S
H1215 C1212 0.931 . S
H1216 C1192 0.930 . S
H1217 C1189 0.930 . S
H1218 C1198 0.930 . S
H1219 C1210 0.929 . S
H1220 C1213 0.930 . S
C1221 C1222 1.351 . S
C1221 N1224 1.368 . S
C1221 H1226 0.931 . S
C1222 C1221 1.351 . S
C1222 N1223 1.373 . S
C1222 H1250 0.930 . S
N1223 C1222 1.373 . S
N1223 C1225 1.340 . S
N1224 C1221 1.368 . S
N1224 C1225 1.321 . S
N1224 Co1227 2.135 . S
C1225 N1223 1.340 . S
C1225 N1224 1.321 . S
C1225 H1249 0.930 . S
H1226 C1221 0.931 . S
Co1227 N1224 2.135 . S
Co1227 N1230 2.121 . S
Co1227 O1235 2.055 . S
Co1227 O1238 2.039 . S
Co1227 N1241 2.140 . S
C1228 O1229 1.227 . S
C1228 O1238 1.265 . S
O1229 C1228 1.227 . S
N1230 Co1227 2.121 . S
N1230 C1232 1.375 . S
N1230 C1233 1.313 . S
C1231 C1232 1.338 . S
C1231 N1234 1.377 . S
C1231 H1251 0.930 . S
C1232 N1230 1.375 . S
C1232 C1231 1.338 . S
C1232 H1236 0.931 . S
C1233 N1230 1.313 . S
C1233 N1234 1.344 . S
C1233 H1237 0.930 . S
N1234 C1231 1.377 . S
N1234 C1233 1.344 . S
O1235 Co1227 2.055 . S
O1235 C1239 1.253 . S
H1236 C1232 0.931 . S
H1237 C1233 0.930 . S
O1238 Co1227 2.039 . S
O1238 C1228 1.265 . S
C1239 O1235 1.253 . S
C1239 O1240 1.227 . S
O1240 C1239 1.227 . S
N1241 Co1227 2.140 . S
N1241 C1244 1.346 . S
N1241 C1245 1.345 . S
C1242 C1243 1.387 . S
C1242 C1246 1.391 . S
C1243 C1242 1.387 . S
C1243 C1244 1.369 . S
C1243 H1252 0.929 . S
C1244 N1241 1.346 . S
C1244 C1243 1.369 . S
C1244 H1247 0.928 . S
C1245 N1241 1.345 . S
C1245 C1246 1.371 . S
C1245 H1248 0.931 . S
C1246 C1242 1.391 . S
C1246 C1245 1.371 . S
C1246 H1253 0.930 . S
H1247 C1244 0.928 . S
H1248 C1245 0.931 . S
H1249 C1225 0.930 . S
H1250 C1222 0.930 . S
H1251 C1231 0.930 . S
H1252 C1243 0.929 . S
H1253 C1246 0.930 . S
C1254 C1255 1.351 . S
C1254 N1257 1.368 . S
C1254 H1259 0.931 . S
C1255 C1254 1.351 . S
C1255 N1256 1.373 . S
C1255 H1283 0.930 . S
N1256 C1255 1.373 . S
N1256 C1258 1.340 . S
N1257 C1254 1.368 . S
N1257 C1258 1.321 . S
N1257 Co1260 2.135 . S
C1258 N1256 1.340 . S
C1258 N1257 1.321 . S
C1258 H1282 0.930 . S
H1259 C1254 0.931 . S
Co1260 N1257 2.135 . S
Co1260 N1263 2.121 . S
Co1260 O1268 2.055 . S
Co1260 O1271 2.039 . S
Co1260 N1274 2.140 . S
C1261 O1262 1.227 . S
C1261 O1271 1.265 . S
O1262 C1261 1.227 . S
N1263 Co1260 2.121 . S
N1263 C1265 1.375 . S
N1263 C1266 1.313 . S
C1264 C1265 1.338 . S
C1264 N1267 1.377 . S
C1264 H1284 0.930 . S
C1265 N1263 1.375 . S
C1265 C1264 1.338 . S
C1265 H1269 0.931 . S
C1266 N1263 1.313 . S
C1266 N1267 1.344 . S
C1266 H1270 0.930 . S
N1267 C1264 1.377 . S
N1267 C1266 1.344 . S
O1268 Co1260 2.055 . S
O1268 C1272 1.253 . S
H1269 C1265 0.931 . S
H1270 C1266 0.930 . S
O1271 Co1260 2.039 . S
O1271 C1261 1.265 . S
C1272 O1268 1.253 . S
C1272 O1273 1.227 . S
O1273 C1272 1.227 . S
N1274 Co1260 2.140 . S
N1274 C1277 1.346 . S
N1274 C1278 1.345 . S
C1275 C1276 1.387 . S
C1275 C1279 1.391 . S
C1276 C1275 1.387 . S
C1276 C1277 1.369 . S
C1276 H1285 0.929 . S
C1277 N1274 1.346 . S
C1277 C1276 1.369 . S
C1277 H1280 0.928 . S
C1278 N1274 1.345 . S
C1278 C1279 1.371 . S
C1278 H1281 0.931 . S
C1279 C1275 1.391 . S
C1279 C1278 1.371 . S
C1279 H1286 0.930 . S
H1280 C1277 0.928 . S
H1281 C1278 0.931 . S
H1282 C1258 0.930 . S
H1283 C1255 0.930 . S
H1284 C1264 0.930 . S
H1285 C1276 0.929 . S
H1286 C1279 0.930 . S
C1287 C1288 1.351 . S
C1287 N1290 1.368 . S
C1287 H1292 0.931 . S
C1288 C1287 1.351 . S
C1288 N1289 1.373 . S
C1288 H1316 0.930 . S
N1289 C1288 1.373 . S
N1289 C1291 1.340 . S
N1290 C1287 1.368 . S
N1290 C1291 1.321 . S
N1290 Co1293 2.135 . S
C1291 N1289 1.340 . S
C1291 N1290 1.321 . S
C1291 H1315 0.930 . S
H1292 C1287 0.931 . S
Co1293 N1290 2.135 . S
Co1293 N1296 2.121 . S
Co1293 O1301 2.055 . S
Co1293 O1304 2.039 . S
Co1293 N1307 2.140 . S
C1294 O1295 1.227 . S
C1294 O1304 1.265 . S
O1295 C1294 1.227 . S
N1296 Co1293 2.121 . S
N1296 C1298 1.375 . S
N1296 C1299 1.313 . S
C1297 C1298 1.338 . S
C1297 N1300 1.377 . S
C1297 H1317 0.930 . S
C1298 N1296 1.375 . S
C1298 C1297 1.338 . S
C1298 H1302 0.931 . S
C1299 N1296 1.313 . S
C1299 N1300 1.344 . S
C1299 H1303 0.930 . S
N1300 C1297 1.377 . S
N1300 C1299 1.344 . S
O1301 Co1293 2.055 . S
O1301 C1305 1.253 . S
H1302 C1298 0.931 . S
H1303 C1299 0.930 . S
O1304 Co1293 2.039 . S
O1304 C1294 1.265 . S
C1305 O1301 1.253 . S
C1305 O1306 1.227 . S
O1306 C1305 1.227 . S
N1307 Co1293 2.140 . S
N1307 C1310 1.346 . S
N1307 C1311 1.345 . S
C1308 C1309 1.387 . S
C1308 C1312 1.391 . S
C1309 C1308 1.387 . S
C1309 C1310 1.369 . S
C1309 H1318 0.929 . S
C1310 N1307 1.346 . S
C1310 C1309 1.369 . S
C1310 H1313 0.928 . S
C1311 N1307 1.345 . S
C1311 C1312 1.371 . S
C1311 H1314 0.931 . S
C1312 C1308 1.391 . S
C1312 C1311 1.371 . S
C1312 H1319 0.930 . S
H1313 C1310 0.928 . S
H1314 C1311 0.931 . S
H1315 C1291 0.930 . S
H1316 C1288 0.930 . S
H1317 C1297 0.930 . S
H1318 C1309 0.929 . S
H1319 C1312 0.930 . S
C1320 C1321 1.351 . S
C1320 N1323 1.368 . S
C1320 H1325 0.931 . S
C1321 C1320 1.351 . S
C1321 N1322 1.373 . S
C1321 H1349 0.930 . S
N1322 C1321 1.373 . S
N1322 C1324 1.340 . S
N1323 C1320 1.368 . S
N1323 C1324 1.321 . S
N1323 Co1326 2.135 . S
C1324 N1322 1.340 . S
C1324 N1323 1.321 . S
C1324 H1348 0.930 . S
H1325 C1320 0.931 . S
Co1326 N1323 2.135 . S
Co1326 N1329 2.121 . S
Co1326 O1334 2.055 . S
Co1326 O1337 2.039 . S
Co1326 N1340 2.140 . S
C1327 O1328 1.227 . S
C1327 O1337 1.265 . S
O1328 C1327 1.227 . S
N1329 Co1326 2.121 . S
N1329 C1331 1.375 . S
N1329 C1332 1.313 . S
C1330 C1331 1.338 . S
C1330 N1333 1.377 . S
C1330 H1350 0.930 . S
C1331 N1329 1.375 . S
C1331 C1330 1.338 . S
C1331 H1335 0.931 . S
C1332 N1329 1.313 . S
C1332 N1333 1.344 . S
C1332 H1336 0.930 . S
N1333 C1330 1.377 . S
N1333 C1332 1.344 . S
O1334 Co1326 2.055 . S
O1334 C1338 1.253 . S
H1335 C1331 0.931 . S
H1336 C1332 0.930 . S
O1337 Co1326 2.039 . S
O1337 C1327 1.265 . S
C1338 O1334 1.253 . S
C1338 O1339 1.227 . S
O1339 C1338 1.227 . S
N1340 Co1326 2.140 . S
N1340 C1343 1.346 . S
N1340 C1344 1.345 . S
C1341 C1342 1.387 . S
C1341 C1345 1.391 . S
C1342 C1341 1.387 . S
C1342 C1343 1.369 . S
C1342 H1351 0.929 . S
C1343 N1340 1.346 . S
C1343 C1342 1.369 . S
C1343 H1346 0.928 . S
C1344 N1340 1.345 . S
C1344 C1345 1.371 . S
C1344 H1347 0.931 . S
C1345 C1341 1.391 . S
C1345 C1344 1.371 . S
C1345 H1352 0.930 . S
H1346 C1343 0.928 . S
H1347 C1344 0.931 . S
H1348 C1324 0.930 . S
H1349 C1321 0.930 . S
H1350 C1330 0.930 . S
H1351 C1342 0.929 . S
H1352 C1345 0.930 . S
C1353 C1354 1.351 . S
C1353 N1356 1.368 . S
C1353 H1358 0.931 . S
C1354 C1353 1.351 . S
C1354 N1355 1.373 . S
C1354 H1382 0.930 . S
N1355 C1354 1.373 . S
N1355 C1357 1.340 . S
N1356 C1353 1.368 . S
N1356 C1357 1.321 . S
N1356 Co1359 2.135 . S
C1357 N1355 1.340 . S
C1357 N1356 1.321 . S
C1357 H1381 0.930 . S
H1358 C1353 0.931 . S
Co1359 N1356 2.135 . S
Co1359 N1362 2.121 . S
Co1359 O1367 2.055 . S
Co1359 O1370 2.039 . S
Co1359 N1373 2.140 . S
C1360 O1361 1.227 . S
C1360 O1370 1.265 . S
O1361 C1360 1.227 . S
N1362 Co1359 2.121 . S
N1362 C1364 1.375 . S
N1362 C1365 1.313 . S
C1363 C1364 1.338 . S
C1363 N1366 1.377 . S
C1363 H1383 0.930 . S
C1364 N1362 1.375 . S
C1364 C1363 1.338 . S
C1364 H1368 0.931 . S
C1365 N1362 1.313 . S
C1365 N1366 1.344 . S
C1365 H1369 0.930 . S
N1366 C1363 1.377 . S
N1366 C1365 1.344 . S
O1367 Co1359 2.055 . S
O1367 C1371 1.253 . S
H1368 C1364 0.931 . S
H1369 C1365 0.930 . S
O1370 Co1359 2.039 . S
O1370 C1360 1.265 . S
C1371 O1367 1.253 . S
C1371 O1372 1.227 . S
O1372 C1371 1.227 . S
N1373 Co1359 2.140 . S
N1373 C1376 1.346 . S
N1373 C1377 1.345 . S
C1374 C1375 1.387 . S
C1374 C1378 1.391 . S
C1375 C1374 1.387 . S
C1375 C1376 1.369 . S
C1375 H1384 0.929 . S
C1376 N1373 1.346 . S
C1376 C1375 1.369 . S
C1376 H1379 0.928 . S
C1377 N1373 1.345 . S
C1377 C1378 1.371 . S
C1377 H1380 0.931 . S
C1378 C1374 1.391 . S
C1378 C1377 1.371 . S
C1378 H1385 0.930 . S
H1379 C1376 0.928 . S
H1380 C1377 0.931 . S
H1381 C1357 0.930 . S
H1382 C1354 0.930 . S
H1383 C1363 0.930 . S
H1384 C1375 0.929 . S
H1385 C1378 0.930 . S
C1386 C1387 1.351 . S
C1386 N1389 1.368 . S
C1386 H1391 0.931 . S
C1387 C1386 1.351 . S
C1387 N1388 1.373 . S
C1387 H1415 0.930 . S
N1388 C1387 1.373 . S
N1388 C1390 1.340 . S
N1389 C1386 1.368 . S
N1389 C1390 1.321 . S
N1389 Co1392 2.135 . S
C1390 N1388 1.340 . S
C1390 N1389 1.321 . S
C1390 H1414 0.930 . S
H1391 C1386 0.931 . S
Co1392 N1389 2.135 . S
Co1392 N1395 2.121 . S
Co1392 O1400 2.055 . S
Co1392 O1403 2.039 . S
Co1392 N1406 2.140 . S
C1393 O1394 1.227 . S
C1393 O1403 1.265 . S
O1394 C1393 1.227 . S
N1395 Co1392 2.121 . S
N1395 C1397 1.375 . S
N1395 C1398 1.313 . S
C1396 C1397 1.338 . S
C1396 N1399 1.377 . S
C1396 H1416 0.930 . S
C1397 N1395 1.375 . S
C1397 C1396 1.338 . S
C1397 H1401 0.931 . S
C1398 N1395 1.313 . S
C1398 N1399 1.344 . S
C1398 H1402 0.930 . S
N1399 C1396 1.377 . S
N1399 C1398 1.344 . S
O1400 Co1392 2.055 . S
O1400 C1404 1.253 . S
H1401 C1397 0.931 . S
H1402 C1398 0.930 . S
O1403 Co1392 2.039 . S
O1403 C1393 1.265 . S
C1404 O1400 1.253 . S
C1404 O1405 1.227 . S
O1405 C1404 1.227 . S
N1406 Co1392 2.140 . S
N1406 C1409 1.346 . S
N1406 C1410 1.345 . S
C1407 C1408 1.387 . S
C1407 C1411 1.391 . S
C1408 C1407 1.387 . S
C1408 C1409 1.369 . S
C1408 H1417 0.929 . S
C1409 N1406 1.346 . S
C1409 C1408 1.369 . S
C1409 H1412 0.928 . S
C1410 N1406 1.345 . S
C1410 C1411 1.371 . S
C1410 H1413 0.931 . S
C1411 C1407 1.391 . S
C1411 C1410 1.371 . S
C1411 H1418 0.930 . S
H1412 C1409 0.928 . S
H1413 C1410 0.931 . S
H1414 C1390 0.930 . S
H1415 C1387 0.930 . S
H1416 C1396 0.930 . S
H1417 C1408 0.929 . S
H1418 C1411 0.930 . S
C1419 C1420 1.351 . S
C1419 N1422 1.368 1_554 S
C1419 H1424 0.931 . S
C1420 C1419 1.351 . S
C1420 N1421 1.373 1_554 S
C1420 H1448 0.930 . S
N1421 C1420 1.373 1_556 S
N1421 C1423 1.340 . S
N1422 C1419 1.368 1_556 S
N1422 C1423 1.321 . S
N1422 Co1425 2.135 . S
C1423 N1421 1.340 . S
C1423 N1422 1.321 . S
C1423 H1447 0.930 . S
H1424 C1419 0.931 . S
Co1425 N1422 2.135 . S
Co1425 N1428 2.121 . S
Co1425 O1433 2.055 . S
Co1425 O1436 2.039 . S
Co1425 N1439 2.140 1_556 S
C1426 O1427 1.227 . S
C1426 O1436 1.265 . S
O1427 C1426 1.227 . S
N1428 Co1425 2.121 . S
N1428 C1430 1.375 . S
N1428 C1431 1.313 . S
C1429 C1430 1.338 . S
C1429 N1432 1.377 . S
C1429 H1449 0.930 . S
C1430 N1428 1.375 . S
C1430 C1429 1.338 . S
C1430 H1434 0.931 . S
C1431 N1428 1.313 . S
C1431 N1432 1.344 . S
C1431 H1435 0.930 . S
N1432 C1429 1.377 . S
N1432 C1431 1.344 . S
O1433 Co1425 2.055 . S
O1433 C1437 1.239 1_556 S
H1434 C1430 0.931 . S
H1435 C1431 0.930 . S
O1436 Co1425 2.039 . S
O1436 C1426 1.265 . S
C1437 O1433 1.239 1_554 S
C1437 O1438 1.236 . S
O1438 C1437 1.236 . S
N1439 Co1425 2.140 1_554 S
N1439 C1442 1.346 . S
N1439 C1443 1.345 . S
C1440 C1441 1.387 . S
C1440 C1444 1.391 . S
C1441 C1440 1.387 . S
C1441 C1442 1.369 . S
C1441 H1450 0.929 . S
C1442 N1439 1.346 . S
C1442 C1441 1.369 . S
C1442 H1445 0.928 1_554 S
C1443 N1439 1.345 . S
C1443 C1444 1.371 . S
C1443 H1446 0.931 . S
C1444 C1440 1.391 . S
C1444 C1443 1.371 . S
C1444 H1451 0.930 . S
H1445 C1442 0.928 1_556 S
H1446 C1443 0.931 . S
H1447 C1423 0.930 . S
H1448 C1420 0.930 . S
H1449 C1429 0.930 . S
H1450 C1441 0.929 . S
H1451 C1444 0.930 . S
C1452 C1453 1.351 . S
C1452 N1455 1.368 . S
C1452 H1457 0.931 . S
C1453 C1452 1.351 . S
C1453 N1454 1.373 . S
C1453 H1481 0.930 . S
N1454 C1453 1.373 . S
N1454 C1456 1.340 . S
N1455 C1452 1.368 . S
N1455 C1456 1.321 . S
N1455 Co1458 2.135 . S
C1456 N1454 1.340 . S
C1456 N1455 1.321 . S
C1456 H1480 0.930 . S
H1457 C1452 0.931 . S
Co1458 N1455 2.135 . S
Co1458 N1461 2.121 . S
Co1458 O1466 2.055 . S
Co1458 O1469 2.039 . S
Co1458 N1472 2.140 . S
C1459 O1460 1.227 . S
C1459 O1469 1.265 . S
O1460 C1459 1.227 . S
N1461 Co1458 2.121 . S
N1461 C1463 1.375 . S
N1461 C1464 1.313 . S
C1462 C1463 1.338 . S
C1462 N1465 1.377 . S
C1462 H1482 0.930 . S
C1463 N1461 1.375 . S
C1463 C1462 1.338 . S
C1463 H1467 0.931 . S
C1464 N1461 1.313 . S
C1464 N1465 1.344 . S
C1464 H1468 0.930 . S
N1465 C1462 1.377 . S
N1465 C1464 1.344 . S
O1466 Co1458 2.055 . S
O1466 C1470 1.253 . S
H1467 C1463 0.931 . S
H1468 C1464 0.930 . S
O1469 Co1458 2.039 . S
O1469 C1459 1.265 . S
C1470 O1466 1.253 . S
C1470 O1471 1.227 . S
O1471 C1470 1.227 . S
N1472 Co1458 2.140 . S
N1472 C1475 1.346 . S
N1472 C1476 1.345 . S
C1473 C1474 1.387 . S
C1473 C1477 1.391 . S
C1474 C1473 1.387 . S
C1474 C1475 1.369 . S
C1474 H1483 0.929 . S
C1475 N1472 1.346 . S
C1475 C1474 1.369 . S
C1475 H1478 0.928 . S
C1476 N1472 1.345 . S
C1476 C1477 1.371 . S
C1476 H1479 0.931 . S
C1477 C1473 1.391 . S
C1477 C1476 1.371 . S
C1477 H1484 0.930 . S
H1478 C1475 0.928 . S
H1479 C1476 0.931 . S
H1480 C1456 0.930 . S
H1481 C1453 0.930 . S
H1482 C1462 0.930 . S
H1483 C1474 0.929 . S
H1484 C1477 0.930 . S
C1485 C1486 1.351 . S
C1485 N1488 1.368 1_556 S
C1485 H1490 0.931 . S
C1486 C1485 1.351 . S
C1486 N1487 1.373 1_556 S
C1486 H1514 0.930 . S
N1487 C1486 1.373 1_554 S
N1487 C1489 1.340 . S
N1488 C1485 1.368 1_554 S
N1488 C1489 1.321 . S
N1488 Co1491 2.135 . S
C1489 N1487 1.340 . S
C1489 N1488 1.321 . S
C1489 H1513 0.930 . S
H1490 C1485 0.931 . S
Co1491 N1488 2.135 . S
Co1491 N1494 2.121 . S
Co1491 O1499 2.055 . S
Co1491 O1502 2.039 . S
Co1491 N1505 2.140 1_554 S
C1492 O1493 1.227 . S
C1492 O1502 1.265 . S
O1493 C1492 1.227 . S
N1494 Co1491 2.121 . S
N1494 C1496 1.375 . S
N1494 C1497 1.313 . S
C1495 C1496 1.338 . S
C1495 N1498 1.377 . S
C1495 H1515 0.930 . S
C1496 N1494 1.375 . S
C1496 C1495 1.338 . S
C1496 H1500 0.931 . S
C1497 N1494 1.313 . S
C1497 N1498 1.344 . S
C1497 H1501 0.930 . S
N1498 C1495 1.377 . S
N1498 C1497 1.344 . S
O1499 Co1491 2.055 . S
O1499 C1503 1.230 1_554 S
H1500 C1496 0.931 . S
H1501 C1497 0.930 . S
O1502 Co1491 2.039 . S
O1502 C1492 1.265 . S
C1503 O1499 1.230 1_556 S
C1503 O1504 1.242 . S
O1504 C1503 1.242 . S
N1505 Co1491 2.140 1_556 S
N1505 C1508 1.346 . S
N1505 C1509 1.345 . S
C1506 C1507 1.387 . S
C1506 C1510 1.391 . S
C1507 C1506 1.387 . S
C1507 C1508 1.369 . S
C1507 H1516 0.929 . S
C1508 N1505 1.346 . S
C1508 C1507 1.369 . S
C1508 H1511 0.928 1_556 S
C1509 N1505 1.345 . S
C1509 C1510 1.371 . S
C1509 H1512 0.931 . S
C1510 C1506 1.391 . S
C1510 C1509 1.371 . S
C1510 H1517 0.930 . S
H1511 C1508 0.928 1_554 S
H1512 C1509 0.931 . S
H1513 C1489 0.930 . S
H1514 C1486 0.930 . S
H1515 C1495 0.930 . S
H1516 C1507 0.929 . S
H1517 C1510 0.930 . S
C1518 C1519 1.351 . S
C1518 N1521 1.368 . S
C1518 H1523 0.931 . S
C1519 C1518 1.351 . S
C1519 N1520 1.373 . S
C1519 H1547 0.930 . S
N1520 C1519 1.373 . S
N1520 C1522 1.340 . S
N1521 C1518 1.368 . S
N1521 C1522 1.321 . S
N1521 Co1524 2.135 . S
C1522 N1520 1.340 . S
C1522 N1521 1.321 . S
C1522 H1546 0.930 . S
H1523 C1518 0.931 . S
Co1524 N1521 2.135 . S
Co1524 N1527 2.121 . S
Co1524 O1532 2.055 . S
Co1524 O1535 2.039 . S
Co1524 N1538 2.140 . S
C1525 O1526 1.227 . S
C1525 O1535 1.265 . S
O1526 C1525 1.227 . S
N1527 Co1524 2.121 . S
N1527 C1529 1.375 . S
N1527 C1530 1.313 . S
C1528 C1529 1.338 . S
C1528 N1531 1.377 . S
C1528 H1548 0.930 . S
C1529 N1527 1.375 . S
C1529 C1528 1.338 . S
C1529 H1533 0.931 . S
C1530 N1527 1.313 . S
C1530 N1531 1.344 . S
C1530 H1534 0.930 . S
N1531 C1528 1.377 . S
N1531 C1530 1.344 . S
O1532 Co1524 2.055 . S
O1532 C1536 1.253 . S
H1533 C1529 0.931 . S
H1534 C1530 0.930 . S
O1535 Co1524 2.039 . S
O1535 C1525 1.265 . S
C1536 O1532 1.253 . S
C1536 O1537 1.227 . S
O1537 C1536 1.227 . S
N1538 Co1524 2.140 . S
N1538 C1541 1.346 . S
N1538 C1542 1.345 . S
C1539 C1540 1.387 . S
C1539 C1543 1.391 . S
C1540 C1539 1.387 . S
C1540 C1541 1.369 . S
C1540 H1549 0.929 . S
C1541 N1538 1.346 . S
C1541 C1540 1.369 . S
C1541 H1544 0.928 . S
C1542 N1538 1.345 . S
C1542 C1543 1.371 . S
C1542 H1545 0.931 . S
C1543 C1539 1.391 . S
C1543 C1542 1.371 . S
C1543 H1550 0.930 . S
H1544 C1541 0.928 . S
H1545 C1542 0.931 . S
H1546 C1522 0.930 . S
H1547 C1519 0.930 . S
H1548 C1528 0.930 . S
H1549 C1540 0.929 . S
H1550 C1543 0.930 . S
C1551 C1552 1.351 . S
C1551 N1554 1.368 . S
C1551 H1556 0.931 . S
C1552 C1551 1.351 . S
C1552 N1553 1.373 . S
C1552 H1580 0.930 . S
N1553 C1552 1.373 . S
N1553 C1555 1.340 . S
N1554 C1551 1.368 . S
N1554 C1555 1.321 . S
N1554 Co1557 2.135 . S
C1555 N1553 1.340 . S
C1555 N1554 1.321 . S
C1555 H1579 0.930 . S
H1556 C1551 0.931 . S
Co1557 N1554 2.135 . S
Co1557 N1560 2.121 . S
Co1557 O1565 2.055 . S
Co1557 O1568 2.039 . S
Co1557 N1571 2.140 . S
C1558 O1559 1.227 . S
C1558 O1568 1.265 . S
O1559 C1558 1.227 . S
N1560 Co1557 2.121 . S
N1560 C1562 1.375 . S
N1560 C1563 1.313 . S
C1561 C1562 1.338 . S
C1561 N1564 1.377 . S
C1561 H1581 0.930 . S
C1562 N1560 1.375 . S
C1562 C1561 1.338 . S
C1562 H1566 0.931 . S
C1563 N1560 1.313 . S
C1563 N1564 1.344 . S
C1563 H1567 0.930 . S
N1564 C1561 1.377 . S
N1564 C1563 1.344 . S
O1565 Co1557 2.055 . S
O1565 C1569 1.253 . S
H1566 C1562 0.931 . S
H1567 C1563 0.930 . S
O1568 Co1557 2.039 . S
O1568 C1558 1.265 . S
C1569 O1565 1.253 . S
C1569 O1570 1.227 . S
O1570 C1569 1.227 . S
N1571 Co1557 2.140 . S
N1571 C1574 1.346 . S
N1571 C1575 1.345 . S
C1572 C1573 1.387 . S
C1572 C1576 1.391 . S
C1573 C1572 1.387 . S
C1573 C1574 1.369 . S
C1573 H1582 0.929 . S
C1574 N1571 1.346 . S
C1574 C1573 1.369 . S
C1574 H1577 0.928 . S
C1575 N1571 1.345 . S
C1575 C1576 1.371 . S
C1575 H1578 0.931 . S
C1576 C1572 1.391 . S
C1576 C1575 1.371 . S
C1576 H1583 0.930 . S
H1577 C1574 0.928 . S
H1578 C1575 0.931 . S
H1579 C1555 0.930 . S
H1580 C1552 0.930 . S
H1581 C1561 0.930 . S
H1582 C1573 0.929 . S
H1583 C1576 0.930 . S
H1584 C1590 0.930 . S
H1585 C1593 0.930 . S
H1586 C1594 0.930 . S
H1587 C1595 0.939 . S
H1588 C1598 0.930 . S
H1589 C1599 0.930 . S
C1590 H1584 0.930 . S
C1590 C1591 1.355 . S
C1590 C1592 1.415 . S
C1591 C1590 1.355 . S
C1591 C1593 1.419 . S
C1592 C1590 1.415 . S
C1592 C1597 1.425 . S
C1592 C1599 1.409 . S
C1593 H1585 0.930 . S
C1593 C1591 1.419 . S
C1593 C1594 1.362 . S
C1594 H1586 0.930 . S
C1594 C1593 1.362 . S
C1594 C1597 1.409 . S
C1595 H1587 0.939 . S
C1595 C1596 1.355 . S
C1595 C1597 1.415 . S
C1596 C1595 1.355 . S
C1596 C1598 1.419 . S
C1597 C1592 1.425 . S
C1597 C1594 1.409 . S
C1597 C1595 1.415 . S
C1598 H1588 0.930 . S
C1598 C1596 1.419 . S
C1598 C1599 1.362 . S
C1599 H1589 0.930 . S
C1599 C1592 1.409 . S
C1599 C1598 1.362 . S
H1600 C1606 0.930 . S
H1601 C1609 0.930 . S
H1602 C1610 0.930 . S
H1603 C1611 0.930 . S
H1604 C1614 0.930 . S
H1605 C1615 0.930 . S
C1606 H1600 0.930 . S
C1606 C1607 1.355 . S
C1606 C1608 1.415 . S
C1607 C1606 1.355 . S
C1607 C1609 1.419 . S
C1608 C1606 1.415 . S
C1608 C1613 1.425 . S
C1608 C1615 1.409 . S
C1609 H1601 0.930 . S
C1609 C1607 1.419 . S
C1609 C1610 1.362 . S
C1610 H1602 0.930 . S
C1610 C1609 1.362 . S
C1610 C1613 1.409 . S
C1611 H1603 0.930 . S
C1611 C1612 1.355 . S
C1611 C1613 1.415 . S
C1612 C1611 1.355 . S
C1612 C1614 1.419 . S
C1613 C1608 1.425 . S
C1613 C1610 1.409 . S
C1613 C1611 1.415 . S
C1614 H1604 0.930 . S
C1614 C1612 1.419 . S
C1614 C1615 1.362 . S
C1615 H1605 0.930 . S
C1615 C1608 1.409 . S
C1615 C1614 1.362 . S
H1616 C1622 0.930 1_554 S
H1617 C1625 0.930 . S
H1618 C1626 0.930 . S
H1619 C1627 0.930 . S
H1620 C1630 0.930 . S
H1621 C1631 0.973 . S
C1622 H1616 0.930 1_556 S
C1622 C1623 1.355 . S
C1622 C1624 1.415 . S
C1623 C1622 1.355 . S
C1623 C1625 1.419 . S
C1624 C1622 1.415 . S
C1624 C1629 1.425 . S
C1624 C1631 1.409 . S
C1625 H1617 0.930 . S
C1625 C1623 1.419 . S
C1625 C1626 1.362 . S
C1626 H1618 0.930 . S
C1626 C1625 1.362 . S
C1626 C1629 1.409 . S
C1627 H1619 0.930 . S
C1627 C1628 1.355 . S
C1627 C1629 1.415 . S
C1628 C1627 1.355 . S
C1628 C1630 1.419 . S
C1629 C1624 1.425 . S
C1629 C1626 1.409 . S
C1629 C1627 1.415 . S
C1630 H1620 0.930 . S
C1630 C1628 1.419 . S
C1630 C1631 1.362 . S
C1631 H1621 0.973 . S
C1631 C1624 1.409 . S
C1631 C1630 1.362 . S
H1632 C1638 0.930 . S
H1633 C1641 0.930 . S
H1634 C1642 0.930 . S
H1635 C1643 0.930 . S
H1636 C1646 0.930 . S
H1637 C1647 0.930 . S
C1638 H1632 0.930 . S
C1638 C1639 1.355 . S
C1638 C1640 1.415 . S
C1639 C1638 1.355 . S
C1639 C1641 1.419 . S
C1640 C1638 1.415 . S
C1640 C1645 1.425 . S
C1640 C1647 1.409 . S
C1641 H1633 0.930 . S
C1641 C1639 1.419 . S
C1641 C1642 1.362 . S
C1642 H1634 0.930 . S
C1642 C1641 1.362 . S
C1642 C1645 1.409 . S
C1643 H1635 0.930 . S
C1643 C1644 1.355 . S
C1643 C1645 1.415 . S
C1644 C1643 1.355 . S
C1644 C1646 1.419 . S
C1645 C1640 1.425 . S
C1645 C1642 1.409 . S
C1645 C1643 1.415 . S
C1646 H1636 0.930 . S
C1646 C1644 1.419 . S
C1646 C1647 1.362 . S
C1647 H1637 0.930 . S
C1647 C1640 1.409 . S
C1647 C1646 1.362 . S
H1648 C1654 0.930 . S
H1649 C1657 0.930 . S
H1650 C1658 0.913 1_545 S
H1651 C1659 0.930 . S
H1652 C1662 0.930 . S
H1653 C1663 0.930 . S
C1654 H1648 0.930 . S
C1654 C1655 1.355 . S
C1654 C1656 1.415 . S
C1655 C1654 1.355 . S
C1655 C1657 1.419 1_565 S
C1656 C1654 1.415 . S
C1656 C1661 1.425 . S
C1656 C1663 1.409 . S
C1657 H1649 0.930 . S
C1657 C1655 1.419 1_545 S
C1657 C1658 1.362 1_545 S
C1658 H1650 0.913 1_565 S
C1658 C1657 1.362 1_565 S
C1658 C1661 1.409 . S
C1659 H1651 0.930 . S
C1659 C1660 1.355 . S
C1659 C1661 1.415 . S
C1660 C1659 1.355 . S
C1660 C1662 1.419 . S
C1661 C1656 1.425 . S
C1661 C1658 1.409 . S
C1661 C1659 1.415 . S
C1662 H1652 0.930 . S
C1662 C1660 1.419 . S
C1662 C1663 1.362 . S
C1663 H1653 0.930 . S
C1663 C1656 1.409 . S
C1663 C1662 1.362 . S
H1664 C1670 0.930 . S
H1665 C1673 0.930 . S
H1666 C1674 0.930 . S
H1667 C1675 0.930 . S
H1668 C1678 0.930 . S
H1669 C1679 0.930 . S
C1670 H1664 0.930 . S
C1670 C1671 1.355 . S
C1670 C1672 1.415 . S
C1671 C1670 1.355 . S
C1671 C1673 1.419 . S
C1672 C1670 1.415 . S
C1672 C1677 1.425 . S
C1672 C1679 1.409 . S
C1673 H1665 0.930 . S
C1673 C1671 1.419 . S
C1673 C1674 1.362 . S
C1674 H1666 0.930 . S
C1674 C1673 1.362 . S
C1674 C1677 1.409 . S
C1675 H1667 0.930 . S
C1675 C1676 1.355 . S
C1675 C1677 1.415 . S
C1676 C1675 1.355 . S
C1676 C1678 1.419 . S
C1677 C1672 1.425 . S
C1677 C1674 1.409 . S
C1677 C1675 1.415 . S
C1678 H1668 0.930 . S
C1678 C1676 1.419 . S
C1678 C1679 1.362 . S
C1679 H1669 0.930 . S
C1679 C1672 1.409 . S
C1679 C1678 1.362 . S
H1680 C1686 0.930 1_565 S
H1681 C1689 0.930 . S
H1682 C1690 0.930 . S
H1683 C1691 0.930 . S
H1684 C1694 0.930 . S
H1685 C1695 0.930 . S
C1686 H1680 0.930 1_545 S
C1686 C1687 1.355 . S
C1686 C1688 1.415 . S
C1687 C1686 1.355 . S
C1687 C1689 1.419 . S
C1688 C1686 1.415 . S
C1688 C1693 1.425 . S
C1688 C1695 1.409 . S
C1689 H1681 0.930 . S
C1689 C1687 1.419 . S
C1689 C1690 1.362 . S
C1690 H1682 0.930 . S
C1690 C1689 1.362 . S
C1690 C1693 1.409 . S
C1691 H1683 0.930 . S
C1691 C1692 1.355 . S
C1691 C1693 1.415 . S
C1692 C1691 1.355 . S
C1692 C1694 1.419 . S
C1693 C1688 1.425 . S
C1693 C1690 1.409 . S
C1693 C1691 1.415 . S
C1694 H1684 0.930 . S
C1694 C1692 1.419 . S
C1694 C1695 1.362 . S
C1695 H1685 0.930 . S
C1695 C1688 1.409 . S
C1695 C1694 1.362 . S
H1696 C1702 0.930 . S
H1697 C1705 0.930 . S
H1698 C1706 0.930 . S
H1699 C1707 0.930 . S
H1700 C1710 0.930 . S
H1701 C1711 0.930 . S
C1702 H1696 0.930 . S
C1702 C1703 1.355 . S
C1702 C1704 1.415 . S
C1703 C1702 1.355 . S
C1703 C1705 1.419 . S
C1704 C1702 1.415 . S
C1704 C1709 1.425 . S
C1704 C1711 1.409 . S
C1705 H1697 0.930 . S
C1705 C1703 1.419 . S
C1705 C1706 1.362 . S
C1706 H1698 0.930 . S
C1706 C1705 1.362 . S
C1706 C1709 1.409 . S
C1707 H1699 0.930 . S
C1707 C1708 1.355 . S
C1707 C1709 1.415 . S
C1708 C1707 1.355 . S
C1708 C1710 1.419 . S
C1709 C1704 1.425 . S
C1709 C1706 1.409 . S
C1709 C1707 1.415 . S
C1710 H1700 0.930 . S
C1710 C1708 1.419 . S
C1710 C1711 1.362 . S
C1711 H1701 0.930 . S
C1711 C1704 1.409 . S
C1711 C1710 1.362 . S
H1712 C1718 0.930 . S
H1713 C1721 0.930 . S
H1714 C1722 0.930 . S
H1715 C1723 0.930 . S
H1716 C1726 0.930 . S
H1717 C1727 0.930 . S
C1718 H1712 0.930 . S
C1718 C1719 1.355 . S
C1718 C1720 1.415 . S
C1719 C1718 1.355 . S
C1719 C1721 1.419 . S
C1720 C1718 1.415 . S
C1720 C1725 1.425 . S
C1720 C1727 1.409 . S
C1721 H1713 0.930 . S
C1721 C1719 1.419 . S
C1721 C1722 1.362 . S
C1722 H1714 0.930 . S
C1722 C1721 1.362 . S
C1722 C1725 1.409 . S
C1723 H1715 0.930 . S
C1723 C1724 1.355 . S
C1723 C1725 1.415 . S
C1724 C1723 1.355 . S
C1724 C1726 1.419 . S
C1725 C1720 1.425 . S
C1725 C1722 1.409 . S
C1725 C1723 1.415 . S
C1726 H1716 0.930 . S
C1726 C1724 1.419 . S
C1726 C1727 1.362 . S
C1727 H1717 0.930 . S
C1727 C1720 1.409 . S
C1727 C1726 1.362 . S
H1728 C1734 0.930 . S
H1729 C1737 0.930 . S
H1730 C1738 0.930 . S
H1731 C1739 0.930 . S
H1732 C1742 0.930 . S
H1733 C1743 0.930 . S
C1734 H1728 0.930 . S
C1734 C1735 1.355 . S
C1734 C1736 1.415 . S
C1735 C1734 1.355 . S
C1735 C1737 1.419 . S
C1736 C1734 1.415 . S
C1736 C1741 1.425 . S
C1736 C1743 1.409 . S
C1737 H1729 0.930 . S
C1737 C1735 1.419 . S
C1737 C1738 1.362 . S
C1738 H1730 0.930 . S
C1738 C1737 1.362 . S
C1738 C1741 1.409 . S
C1739 H1731 0.930 . S
C1739 C1740 1.355 . S
C1739 C1741 1.415 . S
C1740 C1739 1.355 . S
C1740 C1742 1.419 . S
C1741 C1736 1.425 . S
C1741 C1738 1.409 . S
C1741 C1739 1.415 . S
C1742 H1732 0.930 . S
C1742 C1740 1.419 . S
C1742 C1743 1.362 . S
C1743 H1733 0.930 . S
C1743 C1736 1.409 . S
C1743 C1742 1.362 . S
H1744 C1750 0.930 1_655 S
H1745 C1753 0.930 . S
H1746 C1754 0.930 . S
H1747 C1755 0.930 . S
H1748 C1758 0.930 . S
H1749 C1759 0.930 1_655 S
C1750 H1744 0.930 1_455 S
C1750 C1751 1.355 . S
C1750 C1752 1.415 . S
C1751 C1750 1.355 . S
C1751 C1753 1.419 . S
C1752 C1750 1.415 . S
C1752 C1757 1.425 . S
C1752 C1759 1.409 . S
C1753 H1745 0.930 . S
C1753 C1751 1.419 . S
C1753 C1754 1.362 . S
C1754 H1746 0.930 . S
C1754 C1753 1.362 . S
C1754 C1757 1.409 . S
C1755 H1747 0.930 . S
C1755 C1756 1.355 . S
C1755 C1757 1.415 . S
C1756 C1755 1.355 . S
C1756 C1758 1.419 . S
C1757 C1752 1.425 . S
C1757 C1754 1.409 . S
C1757 C1755 1.415 . S
C1758 H1748 0.930 . S
C1758 C1756 1.419 . S
C1758 C1759 1.362 . S
C1759 H1749 0.930 1_455 S
C1759 C1752 1.409 . S
C1759 C1758 1.362 . S
H1760 C1766 0.930 . S
H1761 C1769 0.930 . S
H1762 C1770 0.930 . S
H1763 C1771 0.930 . S
H1764 C1774 0.930 . S
H1765 C1775 0.930 . S
C1766 H1760 0.930 . S
C1766 C1767 1.355 . S
C1766 C1768 1.415 . S
C1767 C1766 1.355 . S
C1767 C1769 1.419 . S
C1768 C1766 1.415 . S
C1768 C1773 1.425 . S
C1768 C1775 1.409 . S
C1769 H1761 0.930 . S
C1769 C1767 1.419 . S
C1769 C1770 1.362 . S
C1770 H1762 0.930 . S
C1770 C1769 1.362 . S
C1770 C1773 1.409 . S
C1771 H1763 0.930 . S
C1771 C1772 1.355 . S
C1771 C1773 1.415 . S
C1772 C1771 1.355 . S
C1772 C1774 1.419 . S
C1773 C1768 1.425 . S
C1773 C1770 1.409 . S
C1773 C1771 1.415 . S
C1774 H1764 0.930 . S
C1774 C1772 1.419 . S
C1774 C1775 1.362 . S
C1775 H1765 0.930 . S
C1775 C1768 1.409 . S
C1775 C1774 1.362 . S
H1776 C1782 0.930 . S
H1777 C1785 0.930 . S
H1778 C1786 0.930 . S
H1779 C1787 0.930 . S
H1780 C1790 0.930 . S
H1781 C1791 0.930 . S
C1782 H1776 0.930 . S
C1782 C1783 1.355 . S
C1782 C1784 1.415 . S
C1783 C1782 1.355 . S
C1783 C1785 1.419 . S
C1784 C1782 1.415 . S
C1784 C1789 1.425 . S
C1784 C1791 1.409 . S
C1785 H1777 0.930 . S
C1785 C1783 1.419 . S
C1785 C1786 1.362 . S
C1786 H1778 0.930 . S
C1786 C1785 1.362 . S
C1786 C1789 1.409 . S
C1787 H1779 0.930 . S
C1787 C1788 1.355 . S
C1787 C1789 1.415 . S
C1788 C1787 1.355 . S
C1788 C1790 1.419 . S
C1789 C1784 1.425 . S
C1789 C1786 1.409 . S
C1789 C1787 1.415 . S
C1790 H1780 0.930 . S
C1790 C1788 1.419 . S
C1790 C1791 1.362 . S
C1791 H1781 0.930 . S
C1791 C1784 1.409 . S
C1791 C1790 1.362 . S
H1792 C1798 0.930 . S
H1793 C1801 0.930 . S
H1794 C1802 0.930 . S
H1795 C1803 0.930 . S
H1796 C1806 0.930 . S
H1797 C1807 0.930 . S
C1798 H1792 0.930 . S
C1798 C1799 1.355 . S
C1798 C1800 1.415 . S
C1799 C1798 1.355 . S
C1799 C1801 1.419 . S
C1800 C1798 1.415 . S
C1800 C1805 1.425 . S
C1800 C1807 1.409 . S
C1801 H1793 0.930 . S
C1801 C1799 1.419 . S
C1801 C1802 1.362 . S
C1802 H1794 0.930 . S
C1802 C1801 1.362 . S
C1802 C1805 1.409 . S
C1803 H1795 0.930 . S
C1803 C1804 1.355 . S
C1803 C1805 1.415 . S
C1804 C1803 1.355 . S
C1804 C1806 1.419 . S
C1805 C1800 1.425 . S
C1805 C1802 1.409 . S
C1805 C1803 1.415 . S
C1806 H1796 0.930 . S
C1806 C1804 1.419 . S
C1806 C1807 1.362 . S
C1807 H1797 0.930 . S
C1807 C1800 1.409 . S
C1807 C1806 1.362 . S
H1808 C1814 0.930 . S
H1809 C1817 0.930 . S
H1810 C1818 0.930 . S
H1811 C1819 0.930 . S
H1812 C1822 0.930 . S
H1813 C1823 0.930 . S
C1814 H1808 0.930 . S
C1814 C1815 1.355 . S
C1814 C1816 1.415 . S
C1815 C1814 1.355 . S
C1815 C1817 1.419 . S
C1816 C1814 1.415 . S
C1816 C1821 1.425 . S
C1816 C1823 1.409 1_455 S
C1817 H1809 0.930 . S
C1817 C1815 1.419 . S
C1817 C1818 1.362 . S
C1818 H1810 0.930 . S
C1818 C1817 1.362 . S
C1818 C1821 1.409 . S
C1819 H1811 0.930 . S
C1819 C1820 1.355 . S
C1819 C1821 1.415 . S
C1820 C1819 1.355 . S
C1820 C1822 1.419 1_455 S
C1821 C1816 1.425 . S
C1821 C1818 1.409 . S
C1821 C1819 1.415 . S
C1822 H1812 0.930 . S
C1822 C1820 1.419 1_655 S
C1822 C1823 1.362 . S
C1823 H1813 0.930 . S
C1823 C1816 1.409 1_655 S
C1823 C1822 1.362 . S
H1824 C1830 0.930 . S
H1825 C1833 0.930 . S
H1826 C1834 0.930 . S
H1827 C1835 0.930 . S
H1828 C1838 0.930 . S
H1829 C1839 0.930 . S
C1830 H1824 0.930 . S
C1830 C1831 1.355 . S
C1830 C1832 1.415 . S
C1831 C1830 1.355 . S
C1831 C1833 1.419 . S
C1832 C1830 1.415 . S
C1832 C1837 1.425 . S
C1832 C1839 1.409 . S
C1833 H1825 0.930 . S
C1833 C1831 1.419 . S
C1833 C1834 1.362 . S
C1834 H1826 0.930 . S
C1834 C1833 1.362 . S
C1834 C1837 1.409 . S
C1835 H1827 0.930 . S
C1835 C1836 1.355 . S
C1835 C1837 1.415 . S
C1836 C1835 1.355 . S
C1836 C1838 1.419 . S
C1837 C1832 1.425 . S
C1837 C1834 1.409 . S
C1837 C1835 1.415 . S
C1838 H1828 0.930 . S
C1838 C1836 1.419 . S
C1838 C1839 1.362 . S
C1839 H1829 0.930 . S
C1839 C1832 1.409 . S
C1839 C1838 1.362 . S
H1840 C1846 0.930 . S
H1841 C1849 0.930 . S
H1842 C1850 0.930 . S
H1843 C1851 0.930 1_655 S
H1844 C1854 0.930 . S
H1845 C1855 0.930 . S
C1846 H1840 0.930 . S
C1846 C1847 1.355 . S
C1846 C1848 1.415 . S
C1847 C1846 1.355 . S
C1847 C1849 1.419 . S
C1848 C1846 1.415 . S
C1848 C1853 1.425 . S
C1848 C1855 1.409 . S
C1849 H1841 0.930 . S
C1849 C1847 1.419 . S
C1849 C1850 1.362 . S
C1850 H1842 0.930 . S
C1850 C1849 1.362 . S
C1850 C1853 1.409 . S
C1851 H1843 0.930 1_455 S
C1851 C1852 1.355 . S
C1851 C1853 1.415 . S
C1852 C1851 1.355 . S
C1852 C1854 1.419 . S
C1853 C1848 1.425 . S
C1853 C1850 1.409 . S
C1853 C1851 1.415 . S
C1854 H1844 0.930 . S
C1854 C1852 1.419 . S
C1854 C1855 1.362 . S
C1855 H1845 0.930 . S
C1855 C1848 1.409 . S
C1855 C1854 1.362 . S
H1856 C1862 0.930 . S
H1857 C1865 0.930 . S
H1858 C1866 0.930 . S
H1859 C1867 0.930 . S
H1860 C1870 0.930 . S
H1861 C1871 0.930 . S
C1862 H1856 0.930 . S
C1862 C1863 1.355 . S
C1862 C1864 1.415 . S
C1863 C1862 1.355 . S
C1863 C1865 1.419 1_545 S
C1864 C1862 1.415 . S
C1864 C1869 1.425 . S
C1864 C1871 1.409 . S
C1865 H1857 0.930 . S
C1865 C1863 1.419 1_565 S
C1865 C1866 1.362 . S
C1866 H1858 0.930 . S
C1866 C1865 1.362 . S
C1866 C1869 1.409 1_565 S
C1867 H1859 0.930 . S
C1867 C1868 1.355 . S
C1867 C1869 1.415 . S
C1868 C1867 1.355 . S
C1868 C1870 1.419 . S
C1869 C1864 1.425 . S
C1869 C1866 1.409 1_545 S
C1869 C1867 1.415 . S
C1870 H1860 0.930 . S
C1870 C1868 1.419 . S
C1870 C1871 1.362 . S
C1871 H1861 0.930 . S
C1871 C1864 1.409 . S
C1871 C1870 1.362 . S
H1872 C1878 0.930 . S
H1873 C1881 0.930 . S
H1874 C1882 0.930 . S
H1875 C1883 0.930 . S
H1876 C1886 0.930 . S
H1877 C1887 0.930 . S
C1878 H1872 0.930 . S
C1878 C1879 1.355 . S
C1878 C1880 1.415 . S
C1879 C1878 1.355 . S
C1879 C1881 1.419 . S
C1880 C1878 1.415 . S
C1880 C1885 1.425 . S
C1880 C1887 1.409 . S
C1881 H1873 0.930 . S
C1881 C1879 1.419 . S
C1881 C1882 1.362 . S
C1882 H1874 0.930 . S
C1882 C1881 1.362 . S
C1882 C1885 1.409 . S
C1883 H1875 0.930 . S
C1883 C1884 1.355 . S
C1883 C1885 1.415 . S
C1884 C1883 1.355 . S
C1884 C1886 1.419 . S
C1885 C1880 1.425 . S
C1885 C1882 1.409 . S
C1885 C1883 1.415 . S
C1886 H1876 0.930 . S
C1886 C1884 1.419 . S
C1886 C1887 1.362 . S
C1887 H1877 0.930 . S
C1887 C1880 1.409 . S
C1887 C1886 1.362 . S
H1888 C1894 0.930 . S
H1889 C1897 0.930 1_445 S
H1890 C1898 0.930 . S
H1891 C1899 0.930 . S
H1892 C1902 0.930 . S
H1893 C1903 0.930 . S
C1894 H1888 0.930 . S
C1894 C1895 1.355 . S
C1894 C1896 1.415 . S
C1895 C1894 1.355 . S
C1895 C1897 1.419 . S
C1896 C1894 1.415 . S
C1896 C1901 1.425 . S
C1896 C1903 1.409 . S
C1897 H1889 0.930 1_665 S
C1897 C1895 1.419 . S
C1897 C1898 1.362 . S
C1898 H1890 0.930 . S
C1898 C1897 1.362 . S
C1898 C1901 1.409 . S
C1899 H1891 0.930 . S
C1899 C1900 1.355 . S
C1899 C1901 1.415 . S
C1900 C1899 1.355 . S
C1900 C1902 1.419 . S
C1901 C1896 1.425 . S
C1901 C1898 1.409 . S
C1901 C1899 1.415 . S
C1902 H1892 0.930 . S
C1902 C1900 1.419 . S
C1902 C1903 1.362 . S
C1903 H1893 0.930 . S
C1903 C1896 1.409 . S
C1903 C1902 1.362 . S
H1904 C1910 0.930 . S
H1905 C1913 0.930 . S
H1906 C1914 0.930 . S
H1907 C1915 0.930 . S
H1908 C1918 0.930 . S
H1909 C1919 0.930 . S
C1910 H1904 0.930 . S
C1910 C1911 1.355 . S
C1910 C1912 1.415 . S
C1911 C1910 1.355 . S
C1911 C1913 1.419 . S
C1912 C1910 1.415 . S
C1912 C1917 1.425 . S
C1912 C1919 1.409 . S
C1913 H1905 0.930 . S
C1913 C1911 1.419 . S
C1913 C1914 1.362 . S
C1914 H1906 0.930 . S
C1914 C1913 1.362 . S
C1914 C1917 1.409 . S
C1915 H1907 0.930 . S
C1915 C1916 1.355 . S
C1915 C1917 1.415 . S
C1916 C1915 1.355 . S
C1916 C1918 1.419 . S
C1917 C1912 1.425 . S
C1917 C1914 1.409 . S
C1917 C1915 1.415 . S
C1918 H1908 0.930 . S
C1918 C1916 1.419 . S
C1918 C1919 1.362 . S
C1919 H1909 0.930 . S
C1919 C1912 1.409 . S
C1919 C1918 1.362 . S
H1920 C1926 0.930 . S
H1921 C1929 0.930 . S
H1922 C1930 0.930 . S
H1923 C1931 0.930 . S
H1924 C1934 0.930 . S
H1925 C1935 0.930 . S
C1926 H1920 0.930 . S
C1926 C1927 1.355 . S
C1926 C1928 1.415 . S
C1927 C1926 1.355 . S
C1927 C1929 1.419 . S
C1928 C1926 1.415 . S
C1928 C1933 1.425 . S
C1928 C1935 1.409 . S
C1929 H1921 0.930 . S
C1929 C1927 1.419 . S
C1929 C1930 1.362 . S
C1930 H1922 0.930 . S
C1930 C1929 1.362 . S
C1930 C1933 1.409 . S
C1931 H1923 0.930 . S
C1931 C1932 1.355 . S
C1931 C1933 1.415 . S
C1932 C1931 1.355 . S
C1932 C1934 1.419 . S
C1933 C1928 1.425 . S
C1933 C1930 1.409 . S
C1933 C1931 1.415 . S
C1934 H1924 0.930 . S
C1934 C1932 1.419 . S
C1934 C1935 1.362 . S
C1935 H1925 0.930 . S
C1935 C1928 1.409 . S
C1935 C1934 1.362 . S
H1936 C1942 0.930 . S
H1937 C1945 0.930 . S
H1938 C1946 0.930 . S
H1939 C1947 0.930 . S
H1940 C1950 0.930 . S
H1941 C1951 0.930 . S
C1942 H1936 0.930 . S
C1942 C1943 1.355 . S
C1942 C1944 1.415 . S
C1943 C1942 1.355 . S
C1943 C1945 1.419 . S
C1944 C1942 1.415 . S
C1944 C1949 1.425 . S
C1944 C1951 1.409 . S
C1945 H1937 0.930 . S
C1945 C1943 1.419 . S
C1945 C1946 1.362 . S
C1946 H1938 0.930 . S
C1946 C1945 1.362 . S
C1946 C1949 1.409 . S
C1947 H1939 0.930 . S
C1947 C1948 1.355 . S
C1947 C1949 1.415 . S
C1948 C1947 1.355 . S
C1948 C1950 1.419 . S
C1949 C1944 1.425 . S
C1949 C1946 1.409 . S
C1949 C1947 1.415 . S
C1950 H1940 0.930 . S
C1950 C1948 1.419 . S
C1950 C1951 1.362 . S
C1951 H1941 0.930 . S
C1951 C1944 1.409 . S
C1951 C1950 1.362 . S
H1952 C1958 0.930 . S
H1953 C1961 0.930 . S
H1954 C1962 0.930 . S
H1955 C1963 0.930 . S
H1956 C1966 0.930 . S
H1957 C1967 0.930 . S
C1958 H1952 0.930 . S
C1958 C1959 1.355 . S
C1958 C1960 1.415 . S
C1959 C1958 1.355 . S
C1959 C1961 1.419 . S
C1960 C1958 1.415 . S
C1960 C1965 1.425 . S
C1960 C1967 1.409 . S
C1961 H1953 0.930 . S
C1961 C1959 1.419 . S
C1961 C1962 1.362 . S
C1962 H1954 0.930 . S
C1962 C1961 1.362 . S
C1962 C1965 1.409 . S
C1963 H1955 0.930 . S
C1963 C1964 1.355 . S
C1963 C1965 1.415 . S
C1964 C1963 1.355 . S
C1964 C1966 1.419 . S
C1965 C1960 1.425 . S
C1965 C1962 1.409 . S
C1965 C1963 1.415 . S
C1966 H1956 0.930 . S
C1966 C1964 1.419 . S
C1966 C1967 1.362 . S
C1967 H1957 0.930 . S
C1967 C1960 1.409 . S
C1967 C1966 1.362 . S
H1968 C1974 0.930 . S
H1969 C1977 0.930 . S
H1970 C1978 0.930 . S
H1971 C1979 0.930 . S
H1972 C1982 0.930 1_554 S
H1973 C1983 0.930 . S
C1974 H1968 0.930 . S
C1974 C1975 1.355 . S
C1974 C1976 1.415 . S
C1975 C1974 1.355 . S
C1975 C1977 1.419 . S
C1976 C1974 1.415 . S
C1976 C1981 1.425 . S
C1976 C1983 1.409 . S
C1977 H1969 0.930 . S
C1977 C1975 1.419 . S
C1977 C1978 1.362 . S
C1978 H1970 0.930 . S
C1978 C1977 1.362 . S
C1978 C1981 1.409 . S
C1979 H1971 0.930 . S
C1979 C1980 1.355 . S
C1979 C1981 1.415 . S
C1980 C1979 1.355 . S
C1980 C1982 1.419 . S
C1981 C1976 1.425 . S
C1981 C1978 1.409 . S
C1981 C1979 1.415 . S
C1982 H1972 0.930 1_556 S
C1982 C1980 1.419 . S
C1982 C1983 1.362 . S
C1983 H1973 0.930 . S
C1983 C1976 1.409 . S
C1983 C1982 1.362 . S
H1984 C1990 0.930 . S
H1985 C1993 0.930 . S
H1986 C1994 0.930 . S
H1987 C1995 0.930 . S
H1988 C1998 0.930 . S
H1989 C1999 0.930 . S
C1990 H1984 0.930 . S
C1990 C1991 1.355 . S
C1990 C1992 1.415 . S
C1991 C1990 1.355 . S
C1991 C1993 1.419 . S
C1992 C1990 1.415 . S
C1992 C1997 1.425 . S
C1992 C1999 1.409 . S
C1993 H1985 0.930 . S
C1993 C1991 1.419 . S
C1993 C1994 1.362 . S
C1994 H1986 0.930 . S
C1994 C1993 1.362 . S
C1994 C1997 1.409 . S
C1995 H1987 0.930 . S
C1995 C1996 1.355 . S
C1995 C1997 1.415 . S
C1996 C1995 1.355 . S
C1996 C1998 1.419 . S
C1997 C1992 1.425 . S
C1997 C1994 1.409 . S
C1997 C1995 1.415 . S
C1998 H1988 0.930 . S
C1998 C1996 1.419 . S
C1998 C1999 1.362 . S
C1999 H1989 0.930 . S
C1999 C1992 1.409 . S
C1999 C1998 1.362 . S
H2000 C2006 0.930 . S
H2001 C2009 0.930 . S
H2002 C2010 0.930 . S
H2003 C2011 0.930 . S
H2004 C2014 0.930 . S
H2005 C2015 0.930 . S
C2006 H2000 0.930 . S
C2006 C2007 1.355 . S
C2006 C2008 1.415 . S
C2007 C2006 1.355 . S
C2007 C2009 1.419 . S
C2008 C2006 1.415 . S
C2008 C2013 1.425 . S
C2008 C2015 1.409 . S
C2009 H2001 0.930 . S
C2009 C2007 1.419 . S
C2009 C2010 1.362 . S
C2010 H2002 0.930 . S
C2010 C2009 1.362 . S
C2010 C2013 1.409 . S
C2011 H2003 0.930 . S
C2011 C2012 1.355 . S
C2011 C2013 1.415 . S
C2012 C2011 1.355 . S
C2012 C2014 1.419 . S
C2013 C2008 1.425 . S
C2013 C2010 1.409 . S
C2013 C2011 1.415 . S
C2014 H2004 0.930 . S
C2014 C2012 1.419 . S
C2014 C2015 1.362 . S
C2015 H2005 0.930 . S
C2015 C2008 1.409 . S
C2015 C2014 1.362 . S
H2016 C2022 0.930 . S
H2017 C2025 0.930 . S
H2018 C2026 0.930 . S
H2019 C2027 0.930 . S
H2020 C2030 0.930 . S
H2021 C2031 0.930 . S
C2022 H2016 0.930 . S
C2022 C2023 1.355 . S
C2022 C2024 1.415 . S
C2023 C2022 1.355 . S
C2023 C2025 1.419 . S
C2024 C2022 1.415 . S
C2024 C2029 1.425 . S
C2024 C2031 1.409 . S
C2025 H2017 0.930 . S
C2025 C2023 1.419 . S
C2025 C2026 1.362 . S
C2026 H2018 0.930 . S
C2026 C2025 1.362 . S
C2026 C2029 1.409 . S
C2027 H2019 0.930 . S
C2027 C2028 1.355 . S
C2027 C2029 1.415 . S
C2028 C2027 1.355 . S
C2028 C2030 1.419 . S
C2029 C2024 1.425 . S
C2029 C2026 1.409 . S
C2029 C2027 1.415 . S
C2030 H2020 0.930 . S
C2030 C2028 1.419 . S
C2030 C2031 1.362 . S
C2031 H2021 0.930 . S
C2031 C2024 1.409 . S
C2031 C2030 1.362 . S
H2032 C2038 0.930 . S
H2033 C2041 0.930 . S
H2034 C2042 0.930 . S
H2035 C2043 0.930 . S
H2036 C2046 0.930 . S
H2037 C2047 0.930 . S
C2038 H2032 0.930 . S
C2038 C2039 1.355 . S
C2038 C2040 1.415 . S
C2039 C2038 1.355 . S
C2039 C2041 1.419 . S
C2040 C2038 1.415 . S
C2040 C2045 1.425 . S
C2040 C2047 1.409 . S
C2041 H2033 0.930 . S
C2041 C2039 1.419 . S
C2041 C2042 1.362 . S
C2042 H2034 0.930 . S
C2042 C2041 1.362 . S
C2042 C2045 1.409 . S
C2043 H2035 0.930 . S
C2043 C2044 1.355 . S
C2043 C2045 1.415 . S
C2044 C2043 1.355 . S
C2044 C2046 1.419 . S
C2045 C2040 1.425 . S
C2045 C2042 1.409 . S
C2045 C2043 1.415 . S
C2046 H2036 0.930 . S
C2046 C2044 1.419 . S
C2046 C2047 1.362 . S
C2047 H2037 0.930 . S
C2047 C2040 1.409 . S
C2047 C2046 1.362 . S
H2048 C2054 0.930 . S
H2049 C2057 0.930 . S
H2050 C2058 0.930 . S
H2051 C2059 0.930 . S
H2052 C2062 0.930 . S
H2053 C2063 0.930 . S
C2054 H2048 0.930 . S
C2054 C2055 1.355 . S
C2054 C2056 1.415 . S
C2055 C2054 1.355 . S
C2055 C2057 1.419 . S
C2056 C2054 1.415 . S
C2056 C2061 1.425 . S
C2056 C2063 1.409 . S
C2057 H2049 0.930 . S
C2057 C2055 1.419 . S
C2057 C2058 1.362 . S
C2058 H2050 0.930 . S
C2058 C2057 1.362 . S
C2058 C2061 1.409 . S
C2059 H2051 0.930 . S
C2059 C2060 1.355 . S
C2059 C2061 1.415 . S
C2060 C2059 1.355 . S
C2060 C2062 1.419 . S
C2061 C2056 1.425 . S
C2061 C2058 1.409 . S
C2061 C2059 1.415 . S
C2062 H2052 0.930 . S
C2062 C2060 1.419 . S
C2062 C2063 1.362 . S
C2063 H2053 0.930 . S
C2063 C2056 1.409 . S
C2063 C2062 1.362 . S
H2064 C2070 0.930 . S
H2065 C2073 0.930 . S
H2066 C2074 0.930 . S
H2067 C2075 0.930 . S
H2068 C2078 0.930 . S
H2069 C2079 0.930 . S
C2070 H2064 0.930 . S
C2070 C2071 1.355 . S
C2070 C2072 1.415 . S
C2071 C2070 1.355 . S
C2071 C2073 1.419 . S
C2072 C2070 1.415 . S
C2072 C2077 1.425 . S
C2072 C2079 1.409 . S
C2073 H2065 0.930 . S
C2073 C2071 1.419 . S
C2073 C2074 1.362 . S
C2074 H2066 0.930 . S
C2074 C2073 1.362 . S
C2074 C2077 1.409 . S
C2075 H2067 0.930 . S
C2075 C2076 1.355 . S
C2075 C2077 1.415 . S
C2076 C2075 1.355 . S
C2076 C2078 1.419 . S
C2077 C2072 1.425 . S
C2077 C2074 1.409 . S
C2077 C2075 1.415 . S
C2078 H2068 0.930 . S
C2078 C2076 1.419 . S
C2078 C2079 1.362 . S
C2079 H2069 0.930 . S
C2079 C2072 1.409 . S
C2079 C2078 1.362 . S
H2080 C2086 0.930 . S
H2081 C2089 0.930 . S
H2082 C2090 0.930 . S
H2083 C2091 0.930 . S
H2084 C2094 0.930 . S
H2085 C2095 0.930 . S
C2086 H2080 0.930 . S
C2086 C2087 1.355 . S
C2086 C2088 1.415 . S
C2087 C2086 1.355 . S
C2087 C2089 1.419 . S
C2088 C2086 1.415 . S
C2088 C2093 1.425 . S
C2088 C2095 1.409 . S
C2089 H2081 0.930 . S
C2089 C2087 1.419 . S
C2089 C2090 1.362 . S
C2090 H2082 0.930 . S
C2090 C2089 1.362 . S
C2090 C2093 1.409 . S
C2091 H2083 0.930 . S
C2091 C2092 1.355 . S
C2091 C2093 1.415 . S
C2092 C2091 1.355 . S
C2092 C2094 1.419 . S
C2093 C2088 1.425 . S
C2093 C2090 1.409 . S
C2093 C2091 1.415 . S
C2094 H2084 0.930 . S
C2094 C2092 1.419 . S
C2094 C2095 1.362 . S
C2095 H2085 0.930 . S
C2095 C2088 1.409 . S
C2095 C2094 1.362 . S
H2096 C2102 0.930 . S
H2097 C2105 0.930 . S
H2098 C2106 0.930 . S
H2099 C2107 0.930 . S
H2100 C2110 0.930 . S
H2101 C2111 0.930 . S
C2102 H2096 0.930 . S
C2102 C2103 1.355 . S
C2102 C2104 1.415 . S
C2103 C2102 1.355 . S
C2103 C2105 1.419 . S
C2104 C2102 1.415 . S
C2104 C2109 1.425 . S
C2104 C2111 1.409 1_655 S
C2105 H2097 0.930 . S
C2105 C2103 1.419 . S
C2105 C2106 1.362 . S
C2106 H2098 0.930 . S
C2106 C2105 1.362 . S
C2106 C2109 1.409 . S
C2107 H2099 0.930 . S
C2107 C2108 1.355 . S
C2107 C2109 1.415 . S
C2108 C2107 1.355 . S
C2108 C2110 1.419 1_655 S
C2109 C2104 1.425 . S
C2109 C2106 1.409 . S
C2109 C2107 1.415 . S
C2110 H2100 0.930 . S
C2110 C2108 1.419 1_455 S
C2110 C2111 1.362 . S
C2111 H2101 0.930 . S
C2111 C2104 1.409 1_455 S
C2111 C2110 1.362 . S
H2112 C2118 0.930 . S
H2113 C2121 0.930 . S
H2114 C2122 0.930 . S
H2115 C2123 0.930 . S
H2116 C2126 0.930 . S
H2117 C2127 0.930 . S
C2118 H2112 0.930 . S
C2118 C2119 1.355 . S
C2118 C2120 1.415 . S
C2119 C2118 1.355 . S
C2119 C2121 1.419 . S
C2120 C2118 1.415 . S
C2120 C2125 1.425 . S
C2120 C2127 1.409 . S
C2121 H2113 0.930 . S
C2121 C2119 1.419 . S
C2121 C2122 1.362 . S
C2122 H2114 0.930 . S
C2122 C2121 1.362 . S
C2122 C2125 1.409 . S
C2123 H2115 0.930 . S
C2123 C2124 1.355 . S
C2123 C2125 1.415 . S
C2124 C2123 1.355 . S
C2124 C2126 1.419 . S
C2125 C2120 1.425 . S
C2125 C2122 1.409 . S
C2125 C2123 1.415 . S
C2126 H2116 0.930 . S
C2126 C2124 1.419 . S
C2126 C2127 1.362 . S
C2127 H2117 0.930 . S
C2127 C2120 1.409 . S
C2127 C2126 1.362 . S
H2128 C2134 0.930 . S
H2129 C2137 0.930 . S
H2130 C2138 0.930 . S
H2131 C2139 0.930 1_556 S
H2132 C2142 0.930 . S
H2133 C2143 0.930 . S
C2134 H2128 0.930 . S
C2134 C2135 1.355 . S
C2134 C2136 1.415 . S
C2135 C2134 1.355 . S
C2135 C2137 1.419 . S
C2136 C2134 1.415 . S
C2136 C2141 1.425 . S
C2136 C2143 1.409 . S
C2137 H2129 0.930 . S
C2137 C2135 1.419 . S
C2137 C2138 1.362 . S
C2138 H2130 0.930 . S
C2138 C2137 1.362 . S
C2138 C2141 1.409 . S
C2139 H2131 0.930 1_554 S
C2139 C2140 1.355 . S
C2139 C2141 1.415 . S
C2140 C2139 1.355 . S
C2140 C2142 1.419 . S
C2141 C2136 1.425 . S
C2141 C2138 1.409 . S
C2141 C2139 1.415 . S
C2142 H2132 0.930 . S
C2142 C2140 1.419 . S
C2142 C2143 1.362 . S
C2143 H2133 0.930 . S
C2143 C2136 1.409 . S
C2143 C2142 1.362 . S
H2144 C2150 0.930 . S
H2145 C2153 0.930 . S
H2146 C2154 0.930 . S
H2147 C2155 0.930 . S
H2148 C2158 0.930 . S
H2149 C2159 0.930 . S
C2150 H2144 0.930 . S
C2150 C2151 1.355 . S
C2150 C2152 1.415 . S
C2151 C2150 1.355 . S
C2151 C2153 1.419 . S
C2152 C2150 1.415 . S
C2152 C2157 1.425 . S
C2152 C2159 1.409 . S
C2153 H2145 0.930 . S
C2153 C2151 1.419 . S
C2153 C2154 1.362 . S
C2154 H2146 0.930 . S
C2154 C2153 1.362 . S
C2154 C2157 1.409 . S
C2155 H2147 0.930 . S
C2155 C2156 1.355 . S
C2155 C2157 1.415 . S
C2156 C2155 1.355 . S
C2156 C2158 1.419 . S
C2157 C2152 1.425 . S
C2157 C2154 1.409 . S
C2157 C2155 1.415 . S
C2158 H2148 0.930 . S
C2158 C2156 1.419 . S
C2158 C2159 1.362 . S
C2159 H2149 0.930 . S
C2159 C2152 1.409 . S
C2159 C2158 1.362 . S
H2160 C2166 0.930 . S
H2161 C2169 0.930 . S
H2162 C2170 0.930 . S
H2163 C2171 0.930 1_455 S
H2164 C2174 0.930 . S
H2165 C2175 0.930 . S
C2166 H2160 0.930 . S
C2166 C2167 1.355 . S
C2166 C2168 1.415 . S
C2167 C2166 1.355 . S
C2167 C2169 1.419 . S
C2168 C2166 1.415 . S
C2168 C2173 1.425 . S
C2168 C2175 1.409 . S
C2169 H2161 0.930 . S
C2169 C2167 1.419 . S
C2169 C2170 1.362 . S
C2170 H2162 0.930 . S
C2170 C2169 1.362 . S
C2170 C2173 1.409 . S
C2171 H2163 0.930 1_655 S
C2171 C2172 1.355 . S
C2171 C2173 1.415 . S
C2172 C2171 1.355 . S
C2172 C2174 1.419 . S
C2173 C2168 1.425 . S
C2173 C2170 1.409 . S
C2173 C2171 1.415 . S
C2174 H2164 0.930 . S
C2174 C2172 1.419 . S
C2174 C2175 1.362 . S
C2175 H2165 0.930 . S
C2175 C2168 1.409 . S
C2175 C2174 1.362 . S
H2176 C2182 0.930 . S
H2177 C2185 0.930 . S
H2178 C2186 0.930 . S
H2179 C2187 0.930 . S
H2180 C2190 0.930 . S
H2181 C2191 0.930 . S
C2182 H2176 0.930 . S
C2182 C2183 1.355 . S
C2182 C2184 1.415 . S
C2183 C2182 1.355 . S
C2183 C2185 1.419 . S
C2184 C2182 1.415 . S
C2184 C2189 1.425 . S
C2184 C2191 1.409 . S
C2185 H2177 0.930 . S
C2185 C2183 1.419 . S
C2185 C2186 1.362 . S
C2186 H2178 0.930 . S
C2186 C2185 1.362 . S
C2186 C2189 1.409 . S
C2187 H2179 0.930 . S
C2187 C2188 1.355 . S
C2187 C2189 1.415 . S
C2188 C2187 1.355 . S
C2188 C2190 1.419 . S
C2189 C2184 1.425 . S
C2189 C2186 1.409 . S
C2189 C2187 1.415 . S
C2190 H2180 0.930 . S
C2190 C2188 1.419 . S
C2190 C2191 1.362 . S
C2191 H2181 0.930 . S
C2191 C2184 1.409 . S
C2191 C2190 1.362 . S
H2192 C2198 0.930 . S
H2193 C2201 0.930 . S
H2194 C2202 0.930 . S
H2195 C2203 0.930 . S
H2196 C2206 0.930 . S
H2197 C2207 0.930 . S
C2198 H2192 0.930 . S
C2198 C2199 1.355 . S
C2198 C2200 1.415 . S
C2199 C2198 1.355 . S
C2199 C2201 1.419 . S
C2200 C2198 1.415 . S
C2200 C2205 1.425 . S
C2200 C2207 1.409 . S
C2201 H2193 0.930 . S
C2201 C2199 1.419 . S
C2201 C2202 1.362 . S
C2202 H2194 0.930 . S
C2202 C2201 1.362 . S
C2202 C2205 1.409 . S
C2203 H2195 0.930 . S
C2203 C2204 1.355 . S
C2203 C2205 1.415 . S
C2204 C2203 1.355 . S
C2204 C2206 1.419 . S
C2205 C2200 1.425 . S
C2205 C2202 1.409 . S
C2205 C2203 1.415 . S
C2206 H2196 0.930 . S
C2206 C2204 1.419 . S
C2206 C2207 1.362 . S
C2207 H2197 0.930 . S
C2207 C2200 1.409 . S
C2207 C2206 1.362 . S
H2208 C2214 0.930 . S
H2209 C2217 0.930 . S
H2210 C2218 0.930 . S
H2211 C2219 0.930 . S
H2212 C2222 0.930 . S
H2213 C2223 0.930 . S
C2214 H2208 0.930 . S
C2214 C2215 1.355 . S
C2214 C2216 1.415 . S
C2215 C2214 1.355 . S
C2215 C2217 1.419 . S
C2216 C2214 1.415 . S
C2216 C2221 1.425 . S
C2216 C2223 1.409 . S
C2217 H2209 0.930 . S
C2217 C2215 1.419 . S
C2217 C2218 1.362 . S
C2218 H2210 0.930 . S
C2218 C2217 1.362 . S
C2218 C2221 1.409 . S
C2219 H2211 0.930 . S
C2219 C2220 1.355 . S
C2219 C2221 1.415 . S
C2220 C2219 1.355 . S
C2220 C2222 1.419 . S
C2221 C2216 1.425 . S
C2221 C2218 1.409 . S
C2221 C2219 1.415 . S
C2222 H2212 0.930 . S
C2222 C2220 1.419 . S
C2222 C2223 1.362 . S
C2223 H2213 0.930 . S
C2223 C2216 1.409 . S
C2223 C2222 1.362 . S
H2224 C2230 0.930 . S
H2225 C2233 0.930 . S
H2226 C2234 0.930 . S
H2227 C2235 0.930 1_545 S
H2228 C2238 0.930 . S
H2229 C2239 0.930 . S
C2230 H2224 0.930 . S
C2230 C2231 1.355 . S
C2230 C2232 1.415 . S
C2231 C2230 1.355 . S
C2231 C2233 1.419 . S
C2232 C2230 1.415 . S
C2232 C2237 1.425 . S
C2232 C2239 1.409 . S
C2233 H2225 0.930 . S
C2233 C2231 1.419 . S
C2233 C2234 1.362 . S
C2234 H2226 0.930 . S
C2234 C2233 1.362 . S
C2234 C2237 1.409 . S
C2235 H2227 0.930 1_565 S
C2235 C2236 1.355 . S
C2235 C2237 1.415 . S
C2236 C2235 1.355 . S
C2236 C2238 1.419 . S
C2237 C2232 1.425 . S
C2237 C2234 1.409 . S
C2237 C2235 1.415 . S
C2238 H2228 0.930 . S
C2238 C2236 1.419 . S
C2238 C2239 1.362 . S
C2239 H2229 0.930 . S
C2239 C2232 1.409 . S
C2239 C2238 1.362 . S
H2240 C2246 0.930 . S
H2241 C2249 0.930 . S
H2242 C2250 0.930 . S
H2243 C2251 0.930 . S
H2244 C2254 0.930 . S
H2245 C2255 0.930 . S
C2246 H2240 0.930 . S
C2246 C2247 1.355 . S
C2246 C2248 1.415 . S
C2247 C2246 1.355 . S
C2247 C2249 1.419 . S
C2248 C2246 1.415 . S
C2248 C2253 1.425 . S
C2248 C2255 1.409 . S
C2249 H2241 0.930 . S
C2249 C2247 1.419 . S
C2249 C2250 1.362 . S
C2250 H2242 0.930 . S
C2250 C2249 1.362 . S
C2250 C2253 1.409 . S
C2251 H2243 0.930 . S
C2251 C2252 1.355 . S
C2251 C2253 1.415 . S
C2252 C2251 1.355 . S
C2252 C2254 1.419 . S
C2253 C2248 1.425 . S
C2253 C2250 1.409 . S
C2253 C2251 1.415 . S
C2254 H2244 0.930 . S
C2254 C2252 1.419 . S
C2254 C2255 1.362 . S
C2255 H2245 0.930 . S
C2255 C2248 1.409 . S
C2255 C2254 1.362 . S
H2256 C2262 0.930 . S
H2257 C2265 0.930 . S
H2258 C2266 0.930 . S
H2259 C2267 0.930 . S
H2260 C2270 0.930 . S
H2261 C2271 0.930 . S
C2262 H2256 0.930 . S
C2262 C2263 1.355 . S
C2262 C2264 1.415 . S
C2263 C2262 1.355 . S
C2263 C2265 1.419 . S
C2264 C2262 1.415 . S
C2264 C2269 1.425 . S
C2264 C2271 1.409 . S
C2265 H2257 0.930 . S
C2265 C2263 1.419 . S
C2265 C2266 1.362 . S
C2266 H2258 0.930 . S
C2266 C2265 1.362 . S
C2266 C2269 1.409 . S
C2267 H2259 0.930 . S
C2267 C2268 1.355 . S
C2267 C2269 1.415 . S
C2268 C2267 1.355 . S
C2268 C2270 1.419 . S
C2269 C2264 1.425 . S
C2269 C2266 1.409 . S
C2269 C2267 1.415 . S
C2270 H2260 0.930 . S
C2270 C2268 1.419 . S
C2270 C2271 1.362 . S
C2271 H2261 0.930 . S
C2271 C2264 1.409 . S
C2271 C2270 1.362 . S
H2272 C2278 0.930 . S
H2273 C2281 0.930 . S
H2274 C2282 0.930 . S
H2275 C2283 0.930 . S
H2276 C2286 0.930 . S
H2277 C2287 0.930 . S
C2278 H2272 0.930 . S
C2278 C2279 1.355 . S
C2278 C2280 1.415 . S
C2279 C2278 1.355 . S
C2279 C2281 1.419 . S
C2280 C2278 1.415 . S
C2280 C2285 1.425 . S
C2280 C2287 1.409 . S
C2281 H2273 0.930 . S
C2281 C2279 1.419 . S
C2281 C2282 1.362 . S
C2282 H2274 0.930 . S
C2282 C2281 1.362 . S
C2282 C2285 1.409 . S
C2283 H2275 0.930 . S
C2283 C2284 1.355 . S
C2283 C2285 1.415 . S
C2284 C2283 1.355 . S
C2284 C2286 1.419 . S
C2285 C2280 1.425 . S
C2285 C2282 1.409 . S
C2285 C2283 1.415 . S
C2286 H2276 0.930 . S
C2286 C2284 1.419 . S
C2286 C2287 1.362 . S
C2287 H2277 0.930 . S
C2287 C2280 1.409 . S
C2287 C2286 1.362 . S
H2288 C2294 0.930 . S
H2289 C2297 0.930 . S
H2290 C2298 0.930 . S
H2291 C2299 0.930 . S
H2292 C2302 0.930 . S
H2293 C2303 0.930 . S
C2294 H2288 0.930 . S
C2294 C2295 1.355 . S
C2294 C2296 1.415 . S
C2295 C2294 1.355 . S
C2295 C2297 1.419 . S
C2296 C2294 1.415 . S
C2296 C2301 1.425 . S
C2296 C2303 1.409 . S
C2297 H2289 0.930 . S
C2297 C2295 1.419 . S
C2297 C2298 1.362 . S
C2298 H2290 0.930 . S
C2298 C2297 1.362 . S
C2298 C2301 1.409 . S
C2299 H2291 0.930 . S
C2299 C2300 1.355 . S
C2299 C2301 1.415 . S
C2300 C2299 1.355 . S
C2300 C2302 1.419 . S
C2301 C2296 1.425 . S
C2301 C2298 1.409 . S
C2301 C2299 1.415 . S
C2302 H2292 0.930 . S
C2302 C2300 1.419 . S
C2302 C2303 1.362 . S
C2303 H2293 0.930 . S
C2303 C2296 1.409 . S
C2303 C2302 1.362 . S
H2304 C2310 0.930 . S
H2305 C2313 0.930 . S
H2306 C2314 0.930 . S
H2307 C2315 0.930 1_455 S
H2308 C2318 0.930 . S
H2309 C2319 0.930 1_565 S
C2310 H2304 0.930 . S
C2310 C2311 1.355 . S
C2310 C2312 1.415 . S
C2311 C2310 1.355 . S
C2311 C2313 1.419 . S
C2312 C2310 1.415 . S
C2312 C2317 1.425 . S
C2312 C2319 1.409 . S
C2313 H2305 0.930 . S
C2313 C2311 1.419 . S
C2313 C2314 1.362 . S
C2314 H2306 0.930 . S
C2314 C2313 1.362 . S
C2314 C2317 1.409 . S
C2315 H2307 0.930 1_655 S
C2315 C2316 1.355 . S
C2315 C2317 1.415 . S
C2316 C2315 1.355 . S
C2316 C2318 1.419 1_545 S
C2317 C2312 1.425 . S
C2317 C2314 1.409 . S
C2317 C2315 1.415 . S
C2318 H2308 0.930 . S
C2318 C2316 1.419 1_565 S
C2318 C2319 1.362 1_565 S
C2319 H2309 0.930 1_545 S
C2319 C2312 1.409 . S
C2319 C2318 1.362 1_545 S
H2320 C2326 0.930 . S
H2321 C2329 0.930 . S
H2322 C2330 0.930 . S
H2323 C2331 0.930 . S
H2324 C2334 0.930 . S
H2325 C2335 0.930 . S
C2326 H2320 0.930 . S
C2326 C2327 1.355 . S
C2326 C2328 1.415 . S
C2327 C2326 1.355 . S
C2327 C2329 1.419 . S
C2328 C2326 1.415 . S
C2328 C2333 1.425 . S
C2328 C2335 1.409 . S
C2329 H2321 0.930 . S
C2329 C2327 1.419 . S
C2329 C2330 1.362 . S
C2330 H2322 0.930 . S
C2330 C2329 1.362 . S
C2330 C2333 1.409 . S
C2331 H2323 0.930 . S
C2331 C2332 1.355 . S
C2331 C2333 1.415 . S
C2332 C2331 1.355 . S
C2332 C2334 1.419 . S
C2333 C2328 1.425 . S
C2333 C2330 1.409 . S
C2333 C2331 1.415 . S
C2334 H2324 0.930 . S
C2334 C2332 1.419 . S
C2334 C2335 1.362 . S
C2335 H2325 0.930 . S
C2335 C2328 1.409 . S
C2335 C2334 1.362 . S
H2336 C2342 0.930 . S
H2337 C2345 0.930 . S
H2338 C2346 0.930 . S
H2339 C2347 0.930 . S
H2340 C2350 0.930 . S
H2341 C2351 0.930 . S
C2342 H2336 0.930 . S
C2342 C2343 1.355 . S
C2342 C2344 1.415 . S
C2343 C2342 1.355 . S
C2343 C2345 1.419 . S
C2344 C2342 1.415 . S
C2344 C2349 1.425 . S
C2344 C2351 1.409 . S
C2345 H2337 0.930 . S
C2345 C2343 1.419 . S
C2345 C2346 1.362 . S
C2346 H2338 0.930 . S
C2346 C2345 1.362 . S
C2346 C2349 1.409 . S
C2347 H2339 0.930 . S
C2347 C2348 1.355 . S
C2347 C2349 1.415 . S
C2348 C2347 1.355 . S
C2348 C2350 1.419 . S
C2349 C2344 1.425 . S
C2349 C2346 1.409 . S
C2349 C2347 1.415 . S
C2350 H2340 0.930 . S
C2350 C2348 1.419 . S
C2350 C2351 1.362 . S
C2351 H2341 0.930 . S
C2351 C2344 1.409 . S
C2351 C2350 1.362 . S
H2352 C2358 0.930 . S
H2353 C2361 0.930 . S
H2354 C2362 0.930 . S
H2355 C2363 0.930 . S
H2356 C2366 0.930 . S
H2357 C2367 0.930 . S
C2358 H2352 0.930 . S
C2358 C2359 1.355 . S
C2358 C2360 1.415 . S
C2359 C2358 1.355 . S
C2359 C2361 1.419 . S
C2360 C2358 1.415 . S
C2360 C2365 1.425 . S
C2360 C2367 1.409 . S
C2361 H2353 0.930 . S
C2361 C2359 1.419 . S
C2361 C2362 1.362 . S
C2362 H2354 0.930 . S
C2362 C2361 1.362 . S
C2362 C2365 1.409 . S
C2363 H2355 0.930 . S
C2363 C2364 1.355 . S
C2363 C2365 1.415 . S
C2364 C2363 1.355 . S
C2364 C2366 1.419 . S
C2365 C2360 1.425 . S
C2365 C2362 1.409 . S
C2365 C2363 1.415 . S
C2366 H2356 0.930 . S
C2366 C2364 1.419 . S
C2366 C2367 1.362 . S
C2367 H2357 0.930 . S
C2367 C2360 1.409 . S
C2367 C2366 1.362 . S
H2368 C2374 0.930 . S
H2369 C2377 0.930 . S
H2370 C2378 0.930 . S
H2371 C2379 0.930 . S
H2372 C2382 0.930 . S
H2373 C2383 0.930 . S
C2374 H2368 0.930 . S
C2374 C2375 1.355 . S
C2374 C2376 1.415 . S
C2375 C2374 1.355 . S
C2375 C2377 1.419 . S
C2376 C2374 1.415 . S
C2376 C2381 1.425 . S
C2376 C2383 1.409 . S
C2377 H2369 0.930 . S
C2377 C2375 1.419 . S
C2377 C2378 1.362 . S
C2378 H2370 0.930 . S
C2378 C2377 1.362 . S
C2378 C2381 1.409 . S
C2379 H2371 0.930 . S
C2379 C2380 1.355 . S
C2379 C2381 1.415 . S
C2380 C2379 1.355 . S
C2380 C2382 1.419 . S
C2381 C2376 1.425 . S
C2381 C2378 1.409 . S
C2381 C2379 1.415 . S
C2382 H2372 0.930 . S
C2382 C2380 1.419 . S
C2382 C2383 1.362 . S
C2383 H2373 0.930 . S
C2383 C2376 1.409 . S
C2383 C2382 1.362 . S
H2384 C2390 0.930 . S
H2385 C2393 0.930 . S
H2386 C2394 0.930 . S
H2387 C2395 0.930 . S
H2388 C2398 0.930 . S
H2389 C2399 0.930 . S
C2390 H2384 0.930 . S
C2390 C2391 1.355 . S
C2390 C2392 1.415 . S
C2391 C2390 1.355 . S
C2391 C2393 1.419 . S
C2392 C2390 1.415 . S
C2392 C2397 1.425 . S
C2392 C2399 1.409 . S
C2393 H2385 0.930 . S
C2393 C2391 1.419 . S
C2393 C2394 1.362 . S
C2394 H2386 0.930 . S
C2394 C2393 1.362 . S
C2394 C2397 1.409 . S
C2395 H2387 0.930 . S
C2395 C2396 1.355 . S
C2395 C2397 1.415 . S
C2396 C2395 1.355 . S
C2396 C2398 1.419 . S
C2397 C2392 1.425 . S
C2397 C2394 1.409 . S
C2397 C2395 1.415 . S
C2398 H2388 0.930 . S
C2398 C2396 1.419 . S
C2398 C2399 1.362 . S
C2399 H2389 0.930 . S
C2399 C2392 1.409 . S
C2399 C2398 1.362 . S
H2400 C2406 0.930 . S
H2401 C2409 0.930 . S
H2402 C2410 0.930 . S
H2403 C2411 0.930 . S
H2404 C2414 0.930 . S
H2405 C2415 0.930 . S
C2406 H2400 0.930 . S
C2406 C2407 1.355 . S
C2406 C2408 1.415 . S
C2407 C2406 1.355 . S
C2407 C2409 1.419 . S
C2408 C2406 1.415 . S
C2408 C2413 1.425 . S
C2408 C2415 1.409 . S
C2409 H2401 0.930 . S
C2409 C2407 1.419 . S
C2409 C2410 1.362 . S
C2410 H2402 0.930 . S
C2410 C2409 1.362 . S
C2410 C2413 1.409 . S
C2411 H2403 0.930 . S
C2411 C2412 1.355 . S
C2411 C2413 1.415 . S
C2412 C2411 1.355 . S
C2412 C2414 1.419 . S
C2413 C2408 1.425 . S
C2413 C2410 1.409 . S
C2413 C2411 1.415 . S
C2414 H2404 0.930 . S
C2414 C2412 1.419 . S
C2414 C2415 1.362 . S
C2415 H2405 0.930 . S
C2415 C2408 1.409 . S
C2415 C2414 1.362 . S
H2416 C2422 0.930 . S
H2417 C2425 0.930 . S
H2418 C2426 0.930 . S
H2419 C2427 0.930 . S
H2420 C2430 0.930 . S
H2421 C2431 0.930 . S
C2422 H2416 0.930 . S
C2422 C2423 1.355 . S
C2422 C2424 1.415 . S
C2423 C2422 1.355 . S
C2423 C2425 1.419 . S
C2424 C2422 1.415 . S
C2424 C2429 1.425 . S
C2424 C2431 1.409 . S
C2425 H2417 0.930 . S
C2425 C2423 1.419 . S
C2425 C2426 1.362 . S
C2426 H2418 0.930 . S
C2426 C2425 1.362 . S
C2426 C2429 1.409 . S
C2427 H2419 0.930 . S
C2427 C2428 1.355 . S
C2427 C2429 1.415 . S
C2428 C2427 1.355 . S
C2428 C2430 1.419 . S
C2429 C2424 1.425 . S
C2429 C2426 1.409 . S
C2429 C2427 1.415 . S
C2430 H2420 0.930 . S
C2430 C2428 1.419 . S
C2430 C2431 1.362 . S
C2431 H2421 0.930 . S
C2431 C2424 1.409 . S
C2431 C2430 1.362 . S
H2432 C2438 0.930 . S
H2433 C2441 0.930 . S
H2434 C2442 0.930 . S
H2435 C2443 0.930 . S
H2436 C2446 0.930 . S
H2437 C2447 0.930 . S
C2438 H2432 0.930 . S
C2438 C2439 1.355 . S
C2438 C2440 1.415 . S
C2439 C2438 1.355 . S
C2439 C2441 1.419 . S
C2440 C2438 1.415 . S
C2440 C2445 1.425 . S
C2440 C2447 1.409 . S
C2441 H2433 0.930 . S
C2441 C2439 1.419 . S
C2441 C2442 1.362 . S
C2442 H2434 0.930 . S
C2442 C2441 1.362 . S
C2442 C2445 1.409 . S
C2443 H2435 0.930 . S
C2443 C2444 1.355 . S
C2443 C2445 1.415 . S
C2444 C2443 1.355 . S
C2444 C2446 1.419 . S
C2445 C2440 1.425 . S
C2445 C2442 1.409 . S
C2445 C2443 1.415 . S
C2446 H2436 0.930 . S
C2446 C2444 1.419 . S
C2446 C2447 1.362 . S
C2447 H2437 0.930 . S
C2447 C2440 1.409 . S
C2447 C2446 1.362 . S
H2448 C2454 0.930 . S
H2449 C2457 0.930 . S
H2450 C2458 0.930 . S
H2451 C2459 0.930 . S
H2452 C2462 0.930 . S
H2453 C2463 0.930 . S
C2454 H2448 0.930 . S
C2454 C2455 1.355 . S
C2454 C2456 1.415 . S
C2455 C2454 1.355 . S
C2455 C2457 1.419 . S
C2456 C2454 1.415 . S
C2456 C2461 1.425 . S
C2456 C2463 1.409 . S
C2457 H2449 0.930 . S
C2457 C2455 1.419 . S
C2457 C2458 1.362 . S
C2458 H2450 0.930 . S
C2458 C2457 1.362 . S
C2458 C2461 1.409 . S
C2459 H2451 0.930 . S
C2459 C2460 1.355 . S
C2459 C2461 1.415 . S
C2460 C2459 1.355 . S
C2460 C2462 1.419 . S
C2461 C2456 1.425 . S
C2461 C2458 1.409 . S
C2461 C2459 1.415 . S
C2462 H2452 0.930 . S
C2462 C2460 1.419 . S
C2462 C2463 1.362 . S
C2463 H2453 0.930 . S
C2463 C2456 1.409 . S
C2463 C2462 1.362 . S
H2464 C2470 0.930 . S
H2465 C2473 0.930 . S
H2466 C2474 0.930 . S
H2467 C2475 0.930 . S
H2468 C2478 0.930 . S
H2469 C2479 0.930 . S
C2470 H2464 0.930 . S
C2470 C2471 1.355 . S
C2470 C2472 1.415 . S
C2471 C2470 1.355 . S
C2471 C2473 1.419 . S
C2472 C2470 1.415 . S
C2472 C2477 1.425 . S
C2472 C2479 1.409 . S
C2473 H2465 0.930 . S
C2473 C2471 1.419 . S
C2473 C2474 1.362 . S
C2474 H2466 0.930 . S
C2474 C2473 1.362 . S
C2474 C2477 1.409 . S
C2475 H2467 0.930 . S
C2475 C2476 1.355 . S
C2475 C2477 1.415 . S
C2476 C2475 1.355 . S
C2476 C2478 1.419 . S
C2477 C2472 1.425 . S
C2477 C2474 1.409 . S
C2477 C2475 1.415 . S
C2478 H2468 0.930 . S
C2478 C2476 1.419 . S
C2478 C2479 1.362 . S
C2479 H2469 0.930 . S
C2479 C2472 1.409 . S
C2479 C2478 1.362 . S
H2480 C2486 0.930 . S
H2481 C2489 0.930 . S
H2482 C2490 0.930 . S
H2483 C2491 0.930 . S
H2484 C2494 0.930 . S
H2485 C2495 0.930 . S
C2486 H2480 0.930 . S
C2486 C2487 1.355 . S
C2486 C2488 1.415 . S
C2487 C2486 1.355 . S
C2487 C2489 1.419 . S
C2488 C2486 1.415 . S
C2488 C2493 1.425 . S
C2488 C2495 1.409 . S
C2489 H2481 0.930 . S
C2489 C2487 1.419 . S
C2489 C2490 1.362 . S
C2490 H2482 0.930 . S
C2490 C2489 1.362 . S
C2490 C2493 1.409 . S
C2491 H2483 0.930 . S
C2491 C2492 1.355 . S
C2491 C2493 1.415 . S
C2492 C2491 1.355 . S
C2492 C2494 1.419 . S
C2493 C2488 1.425 . S
C2493 C2490 1.409 . S
C2493 C2491 1.415 . S
C2494 H2484 0.930 . S
C2494 C2492 1.419 . S
C2494 C2495 1.362 . S
C2495 H2485 0.930 . S
C2495 C2488 1.409 . S
C2495 C2494 1.362 . S
H2496 C2502 0.930 . S
H2497 C2505 0.930 . S
H2498 C2506 0.930 . S
H2499 C2507 0.930 . S
H2500 C2510 0.930 . S
H2501 C2511 0.930 . S
C2502 H2496 0.930 . S
C2502 C2503 1.355 . S
C2502 C2504 1.415 . S
C2503 C2502 1.355 . S
C2503 C2505 1.419 . S
C2504 C2502 1.415 . S
C2504 C2509 1.425 . S
C2504 C2511 1.409 . S
C2505 H2497 0.930 . S
C2505 C2503 1.419 . S
C2505 C2506 1.362 . S
C2506 H2498 0.930 . S
C2506 C2505 1.362 . S
C2506 C2509 1.409 . S
C2507 H2499 0.930 . S
C2507 C2508 1.355 . S
C2507 C2509 1.415 . S
C2508 C2507 1.355 . S
C2508 C2510 1.419 . S
C2509 C2504 1.425 . S
C2509 C2506 1.409 . S
C2509 C2507 1.415 . S
C2510 H2500 0.930 . S
C2510 C2508 1.419 . S
C2510 C2511 1.362 . S
C2511 H2501 0.930 . S
C2511 C2504 1.409 . S
C2511 C2510 1.362 . S
H2512 C2518 0.930 . S
H2513 C2521 0.930 . S
H2514 C2522 0.930 . S
H2515 C2523 0.930 . S
H2516 C2526 0.930 . S
H2517 C2527 0.930 . S
C2518 H2512 0.930 . S
C2518 C2519 1.355 . S
C2518 C2520 1.415 . S
C2519 C2518 1.355 . S
C2519 C2521 1.419 . S
C2520 C2518 1.415 . S
C2520 C2525 1.425 . S
C2520 C2527 1.409 . S
C2521 H2513 0.930 . S
C2521 C2519 1.419 . S
C2521 C2522 1.362 . S
C2522 H2514 0.930 . S
C2522 C2521 1.362 . S
C2522 C2525 1.409 . S
C2523 H2515 0.930 . S
C2523 C2524 1.355 . S
C2523 C2525 1.415 . S
C2524 C2523 1.355 . S
C2524 C2526 1.419 . S
C2525 C2520 1.425 . S
C2525 C2522 1.409 . S
C2525 C2523 1.415 . S
C2526 H2516 0.930 . S
C2526 C2524 1.419 . S
C2526 C2527 1.362 . S
C2527 H2517 0.930 . S
C2527 C2520 1.409 . S
C2527 C2526 1.362 . S
H2528 C2534 0.930 . S
H2529 C2537 0.930 . S
H2530 C2538 0.930 . S
H2531 C2539 0.930 . S
H2532 C2542 0.930 . S
H2533 C2543 0.930 . S
C2534 H2528 0.930 . S
C2534 C2535 1.355 . S
C2534 C2536 1.415 . S
C2535 C2534 1.355 . S
C2535 C2537 1.419 . S
C2536 C2534 1.415 . S
C2536 C2541 1.425 . S
C2536 C2543 1.409 . S
C2537 H2529 0.930 . S
C2537 C2535 1.419 . S
C2537 C2538 1.362 . S
C2538 H2530 0.930 . S
C2538 C2537 1.362 . S
C2538 C2541 1.409 . S
C2539 H2531 0.930 . S
C2539 C2540 1.355 . S
C2539 C2541 1.415 . S
C2540 C2539 1.355 . S
C2540 C2542 1.419 . S
C2541 C2536 1.425 . S
C2541 C2538 1.409 . S
C2541 C2539 1.415 . S
C2542 H2532 0.930 . S
C2542 C2540 1.419 . S
C2542 C2543 1.362 . S
C2543 H2533 0.930 . S
C2543 C2536 1.409 . S
C2543 C2542 1.362 . S
H2544 C2550 0.930 . S
H2545 C2553 0.930 . S
H2546 C2554 0.930 . S
H2547 C2555 0.930 . S
H2548 C2558 0.930 . S
H2549 C2559 0.930 . S
C2550 H2544 0.930 . S
C2550 C2551 1.355 . S
C2550 C2552 1.415 . S
C2551 C2550 1.355 . S
C2551 C2553 1.419 . S
C2552 C2550 1.415 . S
C2552 C2557 1.425 . S
C2552 C2559 1.409 . S
C2553 H2545 0.930 . S
C2553 C2551 1.419 . S
C2553 C2554 1.362 . S
C2554 H2546 0.930 . S
C2554 C2553 1.362 . S
C2554 C2557 1.409 . S
C2555 H2547 0.930 . S
C2555 C2556 1.355 . S
C2555 C2557 1.415 . S
C2556 C2555 1.355 . S
C2556 C2558 1.419 . S
C2557 C2552 1.425 . S
C2557 C2554 1.409 . S
C2557 C2555 1.415 . S
C2558 H2548 0.930 . S
C2558 C2556 1.419 . S
C2558 C2559 1.362 . S
C2559 H2549 0.930 . S
C2559 C2552 1.409 . S
C2559 C2558 1.362 . S
H2560 C2566 0.930 . S
H2561 C2569 0.930 . S
H2562 C2570 0.930 . S
H2563 C2571 0.930 . S
H2564 C2574 0.930 . S
H2565 C2575 0.930 . S
C2566 H2560 0.930 . S
C2566 C2567 1.355 . S
C2566 C2568 1.415 . S
C2567 C2566 1.355 . S
C2567 C2569 1.419 . S
C2568 C2566 1.415 . S
C2568 C2573 1.425 . S
C2568 C2575 1.409 . S
C2569 H2561 0.930 . S
C2569 C2567 1.419 . S
C2569 C2570 1.362 . S
C2570 H2562 0.930 . S
C2570 C2569 1.362 . S
C2570 C2573 1.409 . S
C2571 H2563 0.930 . S
C2571 C2572 1.355 . S
C2571 C2573 1.415 . S
C2572 C2571 1.355 . S
C2572 C2574 1.419 . S
C2573 C2568 1.425 . S
C2573 C2570 1.409 . S
C2573 C2571 1.415 . S
C2574 H2564 0.930 . S
C2574 C2572 1.419 . S
C2574 C2575 1.362 . S
C2575 H2565 0.930 . S
C2575 C2568 1.409 . S
C2575 C2574 1.362 . S
H2576 C2582 0.930 . S
H2577 C2585 0.930 . S
H2578 C2586 0.930 . S
H2579 C2587 0.930 . S
H2580 C2590 0.930 . S
H2581 C2591 0.930 . S
C2582 H2576 0.930 . S
C2582 C2583 1.355 . S
C2582 C2584 1.415 . S
C2583 C2582 1.355 . S
C2583 C2585 1.419 . S
C2584 C2582 1.415 . S
C2584 C2589 1.425 . S
C2584 C2591 1.409 . S
C2585 H2577 0.930 . S
C2585 C2583 1.419 . S
C2585 C2586 1.362 . S
C2586 H2578 0.930 . S
C2586 C2585 1.362 . S
C2586 C2589 1.409 . S
C2587 H2579 0.930 . S
C2587 C2588 1.355 . S
C2587 C2589 1.415 . S
C2588 C2587 1.355 . S
C2588 C2590 1.419 . S
C2589 C2584 1.425 . S
C2589 C2586 1.409 . S
C2589 C2587 1.415 . S
C2590 H2580 0.930 . S
C2590 C2588 1.419 . S
C2590 C2591 1.362 . S
C2591 H2581 0.930 . S
C2591 C2584 1.409 . S
C2591 C2590 1.362 . S
H2592 C2598 0.930 . S
H2593 C2601 0.930 . S
H2594 C2602 0.930 . S
H2595 C2603 0.930 . S
H2596 C2606 0.930 . S
H2597 C2607 0.930 . S
C2598 H2592 0.930 . S
C2598 C2599 1.355 . S
C2598 C2600 1.415 . S
C2599 C2598 1.355 . S
C2599 C2601 1.419 . S
C2600 C2598 1.415 . S
C2600 C2605 1.425 . S
C2600 C2607 1.409 . S
C2601 H2593 0.930 . S
C2601 C2599 1.419 . S
C2601 C2602 1.362 . S
C2602 H2594 0.930 . S
C2602 C2601 1.362 . S
C2602 C2605 1.409 . S
C2603 H2595 0.930 . S
C2603 C2604 1.355 . S
C2603 C2605 1.415 . S
C2604 C2603 1.355 . S
C2604 C2606 1.419 . S
C2605 C2600 1.425 . S
C2605 C2602 1.409 . S
C2605 C2603 1.415 . S
C2606 H2596 0.930 . S
C2606 C2604 1.419 . S
C2606 C2607 1.362 . S
C2607 H2597 0.930 . S
C2607 C2600 1.409 . S
C2607 C2606 1.362 . S
H2608 C2614 0.930 . S
H2609 C2617 0.930 . S
H2610 C2618 0.930 . S
H2611 C2619 0.930 . S
H2612 C2622 0.930 . S
H2613 C2623 0.930 . S
C2614 H2608 0.930 . S
C2614 C2615 1.355 . S
C2614 C2616 1.415 . S
C2615 C2614 1.355 . S
C2615 C2617 1.419 . S
C2616 C2614 1.415 . S
C2616 C2621 1.425 . S
C2616 C2623 1.409 . S
C2617 H2609 0.930 . S
C2617 C2615 1.419 . S
C2617 C2618 1.362 . S
C2618 H2610 0.930 . S
C2618 C2617 1.362 . S
C2618 C2621 1.409 . S
C2619 H2611 0.930 . S
C2619 C2620 1.355 . S
C2619 C2621 1.415 . S
C2620 C2619 1.355 . S
C2620 C2622 1.419 . S
C2621 C2616 1.425 . S
C2621 C2618 1.409 . S
C2621 C2619 1.415 . S
C2622 H2612 0.930 . S
C2622 C2620 1.419 . S
C2622 C2623 1.362 . S
C2623 H2613 0.930 . S
C2623 C2616 1.409 . S
C2623 C2622 1.362 . S
H2624 C2630 0.930 . S
H2625 C2633 0.930 . S
H2626 C2634 0.930 . S
H2627 C2635 0.930 . S
H2628 C2638 0.930 . S
H2629 C2639 0.930 . S
C2630 H2624 0.930 . S
C2630 C2631 1.355 . S
C2630 C2632 1.415 . S
C2631 C2630 1.355 . S
C2631 C2633 1.419 . S
C2632 C2630 1.415 . S
C2632 C2637 1.425 . S
C2632 C2639 1.409 . S
C2633 H2625 0.930 . S
C2633 C2631 1.419 . S
C2633 C2634 1.362 . S
C2634 H2626 0.930 . S
C2634 C2633 1.362 . S
C2634 C2637 1.409 . S
C2635 H2627 0.930 . S
C2635 C2636 1.355 . S
C2635 C2637 1.415 . S
C2636 C2635 1.355 . S
C2636 C2638 1.419 . S
C2637 C2632 1.425 . S
C2637 C2634 1.409 . S
C2637 C2635 1.415 . S
C2638 H2628 0.930 . S
C2638 C2636 1.419 . S
C2638 C2639 1.362 . S
C2639 H2629 0.930 . S
C2639 C2632 1.409 . S
C2639 C2638 1.362 . S
H2640 C2646 0.930 . S
H2641 C2649 0.930 . S
H2642 C2650 0.930 . S
H2643 C2651 0.930 . S
H2644 C2654 0.930 . S
H2645 C2655 0.930 . S
C2646 H2640 0.930 . S
C2646 C2647 1.355 . S
C2646 C2648 1.415 . S
C2647 C2646 1.355 . S
C2647 C2649 1.419 . S
C2648 C2646 1.415 . S
C2648 C2653 1.425 . S
C2648 C2655 1.409 . S
C2649 H2641 0.930 . S
C2649 C2647 1.419 . S
C2649 C2650 1.362 . S
C2650 H2642 0.930 . S
C2650 C2649 1.362 . S
C2650 C2653 1.409 . S
C2651 H2643 0.930 . S
C2651 C2652 1.355 . S
C2651 C2653 1.415 . S
C2652 C2651 1.355 . S
C2652 C2654 1.419 . S
C2653 C2648 1.425 . S
C2653 C2650 1.409 . S
C2653 C2651 1.415 . S
C2654 H2644 0.930 . S
C2654 C2652 1.419 . S
C2654 C2655 1.362 . S
C2655 H2645 0.930 . S
C2655 C2648 1.409 . S
C2655 C2654 1.362 . S
H2656 C2662 0.930 . S
H2657 C2665 0.930 . S
H2658 C2666 0.930 . S
H2659 C2667 0.930 . S
H2660 C2670 0.930 . S
H2661 C2671 0.930 . S
C2662 H2656 0.930 . S
C2662 C2663 1.355 . S
C2662 C2664 1.415 . S
C2663 C2662 1.355 . S
C2663 C2665 1.419 . S
C2664 C2662 1.415 . S
C2664 C2669 1.425 . S
C2664 C2671 1.409 . S
C2665 H2657 0.930 . S
C2665 C2663 1.419 . S
C2665 C2666 1.362 . S
C2666 H2658 0.930 . S
C2666 C2665 1.362 . S
C2666 C2669 1.409 . S
C2667 H2659 0.930 . S
C2667 C2668 1.355 . S
C2667 C2669 1.415 . S
C2668 C2667 1.355 . S
C2668 C2670 1.419 . S
C2669 C2664 1.425 . S
C2669 C2666 1.409 . S
C2669 C2667 1.415 . S
C2670 H2660 0.930 . S
C2670 C2668 1.419 . S
C2670 C2671 1.362 . S
C2671 H2661 0.930 . S
C2671 C2664 1.409 . S
C2671 C2670 1.362 . S
H2672 C2678 0.930 . S
H2673 C2681 0.930 . S
H2674 C2682 0.930 . S
H2675 C2683 0.930 . S
H2676 C2686 0.930 . S
H2677 C2687 0.930 . S
C2678 H2672 0.930 . S
C2678 C2679 1.355 . S
C2678 C2680 1.415 . S
C2679 C2678 1.355 . S
C2679 C2681 1.419 . S
C2680 C2678 1.415 . S
C2680 C2685 1.425 . S
C2680 C2687 1.409 . S
C2681 H2673 0.930 . S
C2681 C2679 1.419 . S
C2681 C2682 1.362 . S
C2682 H2674 0.930 . S
C2682 C2681 1.362 . S
C2682 C2685 1.409 . S
C2683 H2675 0.930 . S
C2683 C2684 1.355 . S
C2683 C2685 1.415 . S
C2684 C2683 1.355 . S
C2684 C2686 1.419 . S
C2685 C2680 1.425 . S
C2685 C2682 1.409 . S
C2685 C2683 1.415 . S
C2686 H2676 0.930 . S
C2686 C2684 1.419 . S
C2686 C2687 1.362 . S
C2687 H2677 0.930 . S
C2687 C2680 1.409 . S
C2687 C2686 1.362 . S
H2688 C2694 0.930 . S
H2689 C2697 0.930 . S
H2690 C2698 0.930 . S
H2691 C2699 0.930 . S
H2692 C2702 0.930 . S
H2693 C2703 0.930 . S
C2694 H2688 0.930 . S
C2694 C2695 1.355 . S
C2694 C2696 1.415 . S
C2695 C2694 1.355 . S
C2695 C2697 1.419 . S
C2696 C2694 1.415 . S
C2696 C2701 1.425 . S
C2696 C2703 1.409 . S
C2697 H2689 0.930 . S
C2697 C2695 1.419 . S
C2697 C2698 1.362 . S
C2698 H2690 0.930 . S
C2698 C2697 1.362 . S
C2698 C2701 1.409 . S
C2699 H2691 0.930 . S
C2699 C2700 1.355 . S
C2699 C2701 1.415 . S
C2700 C2699 1.355 . S
C2700 C2702 1.419 . S
C2701 C2696 1.425 . S
C2701 C2698 1.409 . S
C2701 C2699 1.415 . S
C2702 H2692 0.930 . S
C2702 C2700 1.419 . S
C2702 C2703 1.362 . S
C2703 H2693 0.930 . S
C2703 C2696 1.409 . S
C2703 C2702 1.362 . S
H2704 C2710 0.930 . S
H2705 C2713 0.930 . S
H2706 C2714 0.930 . S
H2707 C2715 0.930 . S
H2708 C2718 0.930 . S
H2709 C2719 0.930 . S
C2710 H2704 0.930 . S
C2710 C2711 1.355 . S
C2710 C2712 1.415 . S
C2711 C2710 1.355 . S
C2711 C2713 1.419 . S
C2712 C2710 1.415 . S
C2712 C2717 1.425 . S
C2712 C2719 1.409 . S
C2713 H2705 0.930 . S
C2713 C2711 1.419 . S
C2713 C2714 1.362 . S
C2714 H2706 0.930 . S
C2714 C2713 1.362 . S
C2714 C2717 1.409 . S
C2715 H2707 0.930 . S
C2715 C2716 1.355 . S
C2715 C2717 1.415 . S
C2716 C2715 1.355 . S
C2716 C2718 1.419 . S
C2717 C2712 1.425 . S
C2717 C2714 1.409 . S
C2717 C2715 1.415 . S
C2718 H2708 0.930 . S
C2718 C2716 1.419 . S
C2718 C2719 1.362 . S
C2719 H2709 0.930 . S
C2719 C2712 1.409 . S
C2719 C2718 1.362 . S
H2720 C2726 0.930 . S
H2721 C2729 0.930 . S
H2722 C2730 0.930 . S
H2723 C2731 0.930 . S
H2724 C2734 0.930 . S
H2725 C2735 0.930 . S
C2726 H2720 0.930 . S
C2726 C2727 1.355 . S
C2726 C2728 1.415 . S
C2727 C2726 1.355 . S
C2727 C2729 1.419 . S
C2728 C2726 1.415 . S
C2728 C2733 1.425 . S
C2728 C2735 1.409 . S
C2729 H2721 0.930 . S
C2729 C2727 1.419 . S
C2729 C2730 1.362 . S
C2730 H2722 0.930 . S
C2730 C2729 1.362 . S
C2730 C2733 1.409 . S
C2731 H2723 0.930 . S
C2731 C2732 1.355 . S
C2731 C2733 1.415 . S
C2732 C2731 1.355 . S
C2732 C2734 1.419 . S
C2733 C2728 1.425 . S
C2733 C2730 1.409 . S
C2733 C2731 1.415 . S
C2734 H2724 0.930 . S
C2734 C2732 1.419 . S
C2734 C2735 1.362 . S
C2735 H2725 0.930 . S
C2735 C2728 1.409 . S
C2735 C2734 1.362 . S
H2736 C2742 0.930 . S
H2737 C2745 0.930 . S
H2738 C2746 0.930 . S
H2739 C2747 0.930 . S
H2740 C2750 0.930 . S
H2741 C2751 0.930 . S
C2742 H2736 0.930 . S
C2742 C2743 1.355 . S
C2742 C2744 1.415 . S
C2743 C2742 1.355 . S
C2743 C2745 1.419 . S
C2744 C2742 1.415 . S
C2744 C2749 1.425 . S
C2744 C2751 1.409 . S
C2745 H2737 0.930 . S
C2745 C2743 1.419 . S
C2745 C2746 1.362 . S
C2746 H2738 0.930 . S
C2746 C2745 1.362 . S
C2746 C2749 1.409 . S
C2747 H2739 0.930 . S
C2747 C2748 1.355 . S
C2747 C2749 1.415 . S
C2748 C2747 1.355 . S
C2748 C2750 1.419 . S
C2749 C2744 1.425 . S
C2749 C2746 1.409 . S
C2749 C2747 1.415 . S
C2750 H2740 0.930 . S
C2750 C2748 1.419 . S
C2750 C2751 1.362 . S
C2751 H2741 0.930 . S
C2751 C2744 1.409 . S
C2751 C2750 1.362 . S
H2752 C2758 0.930 . S
H2753 C2761 0.930 . S
H2754 C2762 0.930 . S
H2755 C2763 0.930 . S
H2756 C2766 0.930 . S
H2757 C2767 0.930 . S
C2758 H2752 0.930 . S
C2758 C2759 1.355 . S
C2758 C2760 1.415 . S
C2759 C2758 1.355 . S
C2759 C2761 1.419 . S
C2760 C2758 1.415 . S
C2760 C2765 1.425 . S
C2760 C2767 1.409 . S
C2761 H2753 0.930 . S
C2761 C2759 1.419 . S
C2761 C2762 1.362 . S
C2762 H2754 0.930 . S
C2762 C2761 1.362 . S
C2762 C2765 1.409 . S
C2763 H2755 0.930 . S
C2763 C2764 1.355 . S
C2763 C2765 1.415 . S
C2764 C2763 1.355 . S
C2764 C2766 1.419 . S
C2765 C2760 1.425 . S
C2765 C2762 1.409 . S
C2765 C2763 1.415 . S
C2766 H2756 0.930 . S
C2766 C2764 1.419 . S
C2766 C2767 1.362 . S
C2767 H2757 0.930 . S
C2767 C2760 1.409 . S
C2767 C2766 1.362 . S
H2768 C2774 0.930 . S
H2769 C2777 0.930 . S
H2770 C2778 0.930 . S
H2771 C2779 0.930 . S
H2772 C2782 0.930 . S
H2773 C2783 0.930 . S
C2774 H2768 0.930 . S
C2774 C2775 1.355 . S
C2774 C2776 1.415 . S
C2775 C2774 1.355 . S
C2775 C2777 1.419 . S
C2776 C2774 1.415 . S
C2776 C2781 1.425 . S
C2776 C2783 1.409 . S
C2777 H2769 0.930 . S
C2777 C2775 1.419 . S
C2777 C2778 1.362 . S
C2778 H2770 0.930 . S
C2778 C2777 1.362 . S
C2778 C2781 1.409 . S
C2779 H2771 0.930 . S
C2779 C2780 1.355 . S
C2779 C2781 1.415 . S
C2780 C2779 1.355 . S
C2780 C2782 1.419 . S
C2781 C2776 1.425 . S
C2781 C2778 1.409 . S
C2781 C2779 1.415 . S
C2782 H2772 0.930 . S
C2782 C2780 1.419 . S
C2782 C2783 1.362 . S
C2783 H2773 0.930 . S
C2783 C2776 1.409 . S
C2783 C2782 1.362 . S
H2784 C2790 0.930 . S
H2785 C2793 0.930 . S
H2786 C2794 0.930 . S
H2787 C2795 0.930 . S
H2788 C2798 0.930 . S
H2789 C2799 0.930 . S
C2790 H2784 0.930 . S
C2790 C2791 1.355 . S
C2790 C2792 1.415 . S
C2791 C2790 1.355 . S
C2791 C2793 1.419 . S
C2792 C2790 1.415 . S
C2792 C2797 1.425 . S
C2792 C2799 1.409 . S
C2793 H2785 0.930 . S
C2793 C2791 1.419 . S
C2793 C2794 1.362 . S
C2794 H2786 0.930 . S
C2794 C2793 1.362 . S
C2794 C2797 1.409 . S
C2795 H2787 0.930 . S
C2795 C2796 1.355 . S
C2795 C2797 1.415 . S
C2796 C2795 1.355 . S
C2796 C2798 1.419 . S
C2797 C2792 1.425 . S
C2797 C2794 1.409 . S
C2797 C2795 1.415 . S
C2798 H2788 0.930 . S
C2798 C2796 1.419 . S
C2798 C2799 1.362 . S
C2799 H2789 0.930 . S
C2799 C2792 1.409 . S
C2799 C2798 1.362 . S
H2800 C2806 0.930 . S
H2801 C2809 0.930 . S
H2802 C2810 0.930 . S
H2803 C2811 0.930 . S
H2804 C2814 0.930 . S
H2805 C2815 0.930 . S
C2806 H2800 0.930 . S
C2806 C2807 1.355 . S
C2806 C2808 1.415 . S
C2807 C2806 1.355 . S
C2807 C2809 1.419 . S
C2808 C2806 1.415 . S
C2808 C2813 1.425 . S
C2808 C2815 1.409 . S
C2809 H2801 0.930 . S
C2809 C2807 1.419 . S
C2809 C2810 1.362 . S
C2810 H2802 0.930 . S
C2810 C2809 1.362 . S
C2810 C2813 1.409 . S
C2811 H2803 0.930 . S
C2811 C2812 1.355 . S
C2811 C2813 1.415 . S
C2812 C2811 1.355 . S
C2812 C2814 1.419 . S
C2813 C2808 1.425 . S
C2813 C2810 1.409 . S
C2813 C2811 1.415 . S
C2814 H2804 0.930 . S
C2814 C2812 1.419 . S
C2814 C2815 1.362 . S
C2815 H2805 0.930 . S
C2815 C2808 1.409 . S
C2815 C2814 1.362 . S
H2816 C2822 0.930 . S
H2817 C2825 0.930 . S
H2818 C2826 0.930 . S
H2819 C2827 0.930 . S
H2820 C2830 0.930 . S
H2821 C2831 0.930 . S
C2822 H2816 0.930 . S
C2822 C2823 1.355 . S
C2822 C2824 1.415 . S
C2823 C2822 1.355 . S
C2823 C2825 1.419 . S
C2824 C2822 1.415 . S
C2824 C2829 1.425 . S
C2824 C2831 1.409 . S
C2825 H2817 0.930 . S
C2825 C2823 1.419 . S
C2825 C2826 1.362 . S
C2826 H2818 0.930 . S
C2826 C2825 1.362 . S
C2826 C2829 1.409 . S
C2827 H2819 0.930 . S
C2827 C2828 1.355 . S
C2827 C2829 1.415 . S
C2828 C2827 1.355 . S
C2828 C2830 1.419 . S
C2829 C2824 1.425 . S
C2829 C2826 1.409 . S
C2829 C2827 1.415 . S
C2830 H2820 0.930 . S
C2830 C2828 1.419 . S
C2830 C2831 1.362 . S
C2831 H2821 0.930 . S
C2831 C2824 1.409 . S
C2831 C2830 1.362 . S
H2832 C2838 0.930 . S
H2833 C2841 0.930 . S
H2834 C2842 0.930 . S
H2835 C2843 0.930 . S
H2836 C2846 0.930 . S
H2837 C2847 0.930 . S
C2838 H2832 0.930 . S
C2838 C2839 1.355 . S
C2838 C2840 1.415 . S
C2839 C2838 1.355 . S
C2839 C2841 1.419 . S
C2840 C2838 1.415 . S
C2840 C2845 1.425 . S
C2840 C2847 1.409 . S
C2841 H2833 0.930 . S
C2841 C2839 1.419 . S
C2841 C2842 1.362 . S
C2842 H2834 0.930 . S
C2842 C2841 1.362 . S
C2842 C2845 1.409 . S
C2843 H2835 0.930 . S
C2843 C2844 1.355 . S
C2843 C2845 1.415 . S
C2844 C2843 1.355 . S
C2844 C2846 1.419 . S
C2845 C2840 1.425 . S
C2845 C2842 1.409 . S
C2845 C2843 1.415 . S
C2846 H2836 0.930 . S
C2846 C2844 1.419 . S
C2846 C2847 1.362 . S
C2847 H2837 0.930 . S
C2847 C2840 1.409 . S
C2847 C2846 1.362 . S
H2848 C2854 0.930 . S
H2849 C2857 0.930 . S
H2850 C2858 0.930 . S
H2851 C2859 0.930 . S
H2852 C2862 0.930 . S
H2853 C2863 0.930 . S
C2854 H2848 0.930 . S
C2854 C2855 1.355 . S
C2854 C2856 1.415 . S
C2855 C2854 1.355 . S
C2855 C2857 1.419 . S
C2856 C2854 1.415 . S
C2856 C2861 1.425 . S
C2856 C2863 1.409 . S
C2857 H2849 0.930 . S
C2857 C2855 1.419 . S
C2857 C2858 1.362 . S
C2858 H2850 0.930 . S
C2858 C2857 1.362 . S
C2858 C2861 1.409 . S
C2859 H2851 0.930 . S
C2859 C2860 1.355 . S
C2859 C2861 1.415 . S
C2860 C2859 1.355 . S
C2860 C2862 1.419 . S
C2861 C2856 1.425 . S
C2861 C2858 1.409 . S
C2861 C2859 1.415 . S
C2862 H2852 0.930 . S
C2862 C2860 1.419 . S
C2862 C2863 1.362 . S
C2863 H2853 0.930 . S
C2863 C2856 1.409 . S
C2863 C2862 1.362 . S
H2864 C2870 0.930 . S
H2865 C2873 0.930 . S
H2866 C2874 0.930 . S
H2867 C2875 0.930 . S
H2868 C2878 0.930 . S
H2869 C2879 0.930 . S
C2870 H2864 0.930 . S
C2870 C2871 1.355 . S
C2870 C2872 1.415 . S
C2871 C2870 1.355 . S
C2871 C2873 1.419 . S
C2872 C2870 1.415 . S
C2872 C2877 1.425 . S
C2872 C2879 1.409 . S
C2873 H2865 0.930 . S
C2873 C2871 1.419 . S
C2873 C2874 1.362 . S
C2874 H2866 0.930 . S
C2874 C2873 1.362 . S
C2874 C2877 1.409 . S
C2875 H2867 0.930 . S
C2875 C2876 1.355 . S
C2875 C2877 1.415 . S
C2876 C2875 1.355 . S
C2876 C2878 1.419 . S
C2877 C2872 1.425 . S
C2877 C2874 1.409 . S
C2877 C2875 1.415 . S
C2878 H2868 0.930 . S
C2878 C2876 1.419 . S
C2878 C2879 1.362 . S
C2879 H2869 0.930 . S
C2879 C2872 1.409 . S
C2879 C2878 1.362 . S
H2880 C2886 0.930 . S
H2881 C2889 0.930 . S
H2882 C2890 0.930 . S
H2883 C2891 0.930 . S
H2884 C2894 0.930 . S
H2885 C2895 0.930 . S
C2886 H2880 0.930 . S
C2886 C2887 1.355 . S
C2886 C2888 1.415 . S
C2887 C2886 1.355 . S
C2887 C2889 1.419 . S
C2888 C2886 1.415 . S
C2888 C2893 1.425 . S
C2888 C2895 1.409 . S
C2889 H2881 0.930 . S
C2889 C2887 1.419 . S
C2889 C2890 1.362 . S
C2890 H2882 0.930 . S
C2890 C2889 1.362 . S
C2890 C2893 1.409 . S
C2891 H2883 0.930 . S
C2891 C2892 1.355 . S
C2891 C2893 1.415 . S
C2892 C2891 1.355 . S
C2892 C2894 1.419 . S
C2893 C2888 1.425 . S
C2893 C2890 1.409 . S
C2893 C2891 1.415 . S
C2894 H2884 0.930 . S
C2894 C2892 1.419 . S
C2894 C2895 1.362 . S
C2895 H2885 0.930 . S
C2895 C2888 1.409 . S
C2895 C2894 1.362 . S
H2896 C2902 0.930 . S
H2897 C2905 0.930 . S
H2898 C2906 0.930 . S
H2899 C2907 0.930 . S
H2900 C2910 0.930 . S
H2901 C2911 0.930 . S
C2902 H2896 0.930 . S
C2902 C2903 1.355 . S
C2902 C2904 1.415 . S
C2903 C2902 1.355 . S
C2903 C2905 1.419 . S
C2904 C2902 1.415 . S
C2904 C2909 1.425 . S
C2904 C2911 1.409 . S
C2905 H2897 0.930 . S
C2905 C2903 1.419 . S
C2905 C2906 1.362 . S
C2906 H2898 0.930 . S
C2906 C2905 1.362 . S
C2906 C2909 1.409 . S
C2907 H2899 0.930 . S
C2907 C2908 1.355 . S
C2907 C2909 1.415 . S
C2908 C2907 1.355 . S
C2908 C2910 1.419 . S
C2909 C2904 1.425 . S
C2909 C2906 1.409 . S
C2909 C2907 1.415 . S
C2910 H2900 0.930 . S
C2910 C2908 1.419 . S
C2910 C2911 1.362 . S
C2911 H2901 0.930 . S
C2911 C2904 1.409 . S
C2911 C2910 1.362 . S
H2912 C2918 0.930 . S
H2913 C2921 0.930 . S
H2914 C2922 0.930 . S
H2915 C2923 0.930 . S
H2916 C2926 0.930 . S
H2917 C2927 0.930 . S
C2918 H2912 0.930 . S
C2918 C2919 1.355 . S
C2918 C2920 1.415 . S
C2919 C2918 1.355 . S
C2919 C2921 1.419 . S
C2920 C2918 1.415 . S
C2920 C2925 1.425 . S
C2920 C2927 1.409 . S
C2921 H2913 0.930 . S
C2921 C2919 1.419 . S
C2921 C2922 1.362 . S
C2922 H2914 0.930 . S
C2922 C2921 1.362 . S
C2922 C2925 1.409 . S
C2923 H2915 0.930 . S
C2923 C2924 1.355 . S
C2923 C2925 1.415 . S
C2924 C2923 1.355 . S
C2924 C2926 1.419 . S
C2925 C2920 1.425 . S
C2925 C2922 1.409 . S
C2925 C2923 1.415 . S
C2926 H2916 0.930 . S
C2926 C2924 1.419 . S
C2926 C2927 1.362 . S
C2927 H2917 0.930 . S
C2927 C2920 1.409 . S
C2927 C2926 1.362 . S
H2928 C2934 0.930 . S
H2929 C2937 0.930 . S
H2930 C2938 0.930 . S
H2931 C2939 0.930 . S
H2932 C2942 0.930 . S
H2933 C2943 0.930 . S
C2934 H2928 0.930 . S
C2934 C2935 1.355 . S
C2934 C2936 1.415 . S
C2935 C2934 1.355 . S
C2935 C2937 1.419 . S
C2936 C2934 1.415 . S
C2936 C2941 1.425 . S
C2936 C2943 1.409 . S
C2937 H2929 0.930 . S
C2937 C2935 1.419 . S
C2937 C2938 1.362 . S
C2938 H2930 0.930 . S
C2938 C2937 1.362 . S
C2938 C2941 1.409 . S
C2939 H2931 0.930 . S
C2939 C2940 1.355 . S
C2939 C2941 1.415 . S
C2940 C2939 1.355 . S
C2940 C2942 1.419 . S
C2941 C2936 1.425 . S
C2941 C2938 1.409 . S
C2941 C2939 1.415 . S
C2942 H2932 0.930 . S
C2942 C2940 1.419 . S
C2942 C2943 1.362 . S
C2943 H2933 0.930 . S
C2943 C2936 1.409 . S
C2943 C2942 1.362 . S
H2944 C2950 0.930 . S
H2945 C2953 0.930 . S
H2946 C2954 0.930 . S
H2947 C2955 0.930 . S
H2948 C2958 0.930 . S
H2949 C2959 0.930 . S
C2950 H2944 0.930 . S
C2950 C2951 1.355 . S
C2950 C2952 1.415 . S
C2951 C2950 1.355 . S
C2951 C2953 1.419 . S
C2952 C2950 1.415 . S
C2952 C2957 1.425 . S
C2952 C2959 1.409 . S
C2953 H2945 0.930 . S
C2953 C2951 1.419 . S
C2953 C2954 1.362 . S
C2954 H2946 0.930 . S
C2954 C2953 1.362 . S
C2954 C2957 1.409 . S
C2955 H2947 0.930 . S
C2955 C2956 1.355 . S
C2955 C2957 1.415 . S
C2956 C2955 1.355 . S
C2956 C2958 1.419 . S
C2957 C2952 1.425 . S
C2957 C2954 1.409 . S
C2957 C2955 1.415 . S
C2958 H2948 0.930 . S
C2958 C2956 1.419 . S
C2958 C2959 1.362 . S
C2959 H2949 0.930 . S
C2959 C2952 1.409 . S
C2959 C2958 1.362 . S
H2960 C2966 0.930 . S
H2961 C2969 0.930 . S
H2962 C2970 0.930 . S
H2963 C2971 0.930 . S
H2964 C2974 0.930 . S
H2965 C2975 0.930 . S
C2966 H2960 0.930 . S
C2966 C2967 1.355 . S
C2966 C2968 1.415 . S
C2967 C2966 1.355 . S
C2967 C2969 1.419 . S
C2968 C2966 1.415 . S
C2968 C2973 1.425 . S
C2968 C2975 1.409 . S
C2969 H2961 0.930 . S
C2969 C2967 1.419 . S
C2969 C2970 1.362 . S
C2970 H2962 0.930 . S
C2970 C2969 1.362 . S
C2970 C2973 1.409 . S
C2971 H2963 0.930 . S
C2971 C2972 1.355 . S
C2971 C2973 1.415 . S
C2972 C2971 1.355 . S
C2972 C2974 1.419 . S
C2973 C2968 1.425 . S
C2973 C2970 1.409 . S
C2973 C2971 1.415 . S
C2974 H2964 0.930 . S
C2974 C2972 1.419 . S
C2974 C2975 1.362 . S
C2975 H2965 0.930 . S
C2975 C2968 1.409 . S
C2975 C2974 1.362 . S
H2976 C2982 0.930 . S
H2977 C2985 0.930 . S
H2978 C2986 0.930 . S
H2979 C2987 0.930 . S
H2980 C2990 0.930 . S
H2981 C2991 0.930 . S
C2982 H2976 0.930 . S
C2982 C2983 1.355 . S
C2982 C2984 1.415 . S
C2983 C2982 1.355 . S
C2983 C2985 1.419 . S
C2984 C2982 1.415 . S
C2984 C2989 1.425 . S
C2984 C2991 1.409 . S
C2985 H2977 0.930 . S
C2985 C2983 1.419 . S
C2985 C2986 1.362 . S
C2986 H2978 0.930 . S
C2986 C2985 1.362 . S
C2986 C2989 1.409 . S
C2987 H2979 0.930 . S
C2987 C2988 1.355 . S
C2987 C2989 1.415 . S
C2988 C2987 1.355 . S
C2988 C2990 1.419 . S
C2989 C2984 1.425 . S
C2989 C2986 1.409 . S
C2989 C2987 1.415 . S
C2990 H2980 0.930 . S
C2990 C2988 1.419 . S
C2990 C2991 1.362 . S
C2991 H2981 0.930 . S
C2991 C2984 1.409 . S
C2991 C2990 1.362 . S
H2992 C2998 0.930 . S
H2993 C3001 0.930 . S
H2994 C3002 0.930 . S
H2995 C3003 0.930 . S
H2996 C3006 0.930 . S
H2997 C3007 0.930 . S
C2998 H2992 0.930 . S
C2998 C2999 1.355 . S
C2998 C3000 1.415 . S
C2999 C2998 1.355 . S
C2999 C3001 1.419 . S
C3000 C2998 1.415 . S
C3000 C3005 1.425 . S
C3000 C3007 1.409 . S
C3001 H2993 0.930 . S
C3001 C2999 1.419 . S
C3001 C3002 1.362 . S
C3002 H2994 0.930 . S
C3002 C3001 1.362 . S
C3002 C3005 1.409 . S
C3003 H2995 0.930 . S
C3003 C3004 1.355 . S
C3003 C3005 1.415 . S
C3004 C3003 1.355 . S
C3004 C3006 1.419 . S
C3005 C3000 1.425 . S
C3005 C3002 1.409 . S
C3005 C3003 1.415 . S
C3006 H2996 0.930 . S
C3006 C3004 1.419 . S
C3006 C3007 1.362 . S
C3007 H2997 0.930 . S
C3007 C3000 1.409 . S
C3007 C3006 1.362 . S
H3008 C3014 0.930 . S
H3009 C3017 0.930 . S
H3010 C3018 0.930 . S
H3011 C3019 0.930 . S
H3012 C3022 0.930 . S
H3013 C3023 0.930 . S
C3014 H3008 0.930 . S
C3014 C3015 1.355 . S
C3014 C3016 1.415 . S
C3015 C3014 1.355 . S
C3015 C3017 1.419 . S
C3016 C3014 1.415 . S
C3016 C3021 1.425 . S
C3016 C3023 1.409 . S
C3017 H3009 0.930 . S
C3017 C3015 1.419 . S
C3017 C3018 1.362 . S
C3018 H3010 0.930 . S
C3018 C3017 1.362 . S
C3018 C3021 1.409 . S
C3019 H3011 0.930 . S
C3019 C3020 1.355 . S
C3019 C3021 1.415 . S
C3020 C3019 1.355 . S
C3020 C3022 1.419 . S
C3021 C3016 1.425 . S
C3021 C3018 1.409 . S
C3021 C3019 1.415 . S
C3022 H3012 0.930 . S
C3022 C3020 1.419 . S
C3022 C3023 1.362 . S
C3023 H3013 0.930 . S
C3023 C3016 1.409 . S
C3023 C3022 1.362 . S
H3024 C3030 0.930 . S
H3025 C3033 0.930 . S
H3026 C3034 0.930 . S
H3027 C3035 0.930 . S
H3028 C3038 0.930 . S
H3029 C3039 0.930 . S
C3030 H3024 0.930 . S
C3030 C3031 1.355 . S
C3030 C3032 1.415 . S
C3031 C3030 1.355 . S
C3031 C3033 1.419 . S
C3032 C3030 1.415 . S
C3032 C3037 1.425 . S
C3032 C3039 1.409 . S
C3033 H3025 0.930 . S
C3033 C3031 1.419 . S
C3033 C3034 1.362 . S
C3034 H3026 0.930 . S
C3034 C3033 1.362 . S
C3034 C3037 1.409 . S
C3035 H3027 0.930 . S
C3035 C3036 1.355 . S
C3035 C3037 1.415 . S
C3036 C3035 1.355 . S
C3036 C3038 1.419 . S
C3037 C3032 1.425 . S
C3037 C3034 1.409 . S
C3037 C3035 1.415 . S
C3038 H3028 0.930 . S
C3038 C3036 1.419 . S
C3038 C3039 1.362 . S
C3039 H3029 0.930 . S
C3039 C3032 1.409 . S
C3039 C3038 1.362 . S
H3040 C3046 0.930 . S
H3041 C3049 0.930 . S
H3042 C3050 0.930 . S
H3043 C3051 0.930 . S
H3044 C3054 0.930 . S
H3045 C3055 0.930 . S
C3046 H3040 0.930 . S
C3046 C3047 1.355 . S
C3046 C3048 1.415 . S
C3047 C3046 1.355 . S
C3047 C3049 1.419 . S
C3048 C3046 1.415 . S
C3048 C3053 1.425 . S
C3048 C3055 1.409 . S
C3049 H3041 0.930 . S
C3049 C3047 1.419 . S
C3049 C3050 1.362 . S
C3050 H3042 0.930 . S
C3050 C3049 1.362 . S
C3050 C3053 1.409 . S
C3051 H3043 0.930 . S
C3051 C3052 1.355 . S
C3051 C3053 1.415 . S
C3052 C3051 1.355 . S
C3052 C3054 1.419 . S
C3053 C3048 1.425 . S
C3053 C3050 1.409 . S
C3053 C3051 1.415 . S
C3054 H3044 0.930 . S
C3054 C3052 1.419 . S
C3054 C3055 1.362 . S
C3055 H3045 0.930 . S
C3055 C3048 1.409 . S
C3055 C3054 1.362 . S
H3056 C3062 0.930 . S
H3057 C3065 0.930 . S
H3058 C3066 0.930 . S
H3059 C3067 0.930 . S
H3060 C3070 0.930 . S
H3061 C3071 0.930 . S
C3062 H3056 0.930 . S
C3062 C3063 1.355 . S
C3062 C3064 1.415 . S
C3063 C3062 1.355 . S
C3063 C3065 1.419 . S
C3064 C3062 1.415 . S
C3064 C3069 1.425 . S
C3064 C3071 1.409 . S
C3065 H3057 0.930 . S
C3065 C3063 1.419 . S
C3065 C3066 1.362 . S
C3066 H3058 0.930 . S
C3066 C3065 1.362 . S
C3066 C3069 1.409 . S
C3067 H3059 0.930 . S
C3067 C3068 1.355 . S
C3067 C3069 1.415 . S
C3068 C3067 1.355 . S
C3068 C3070 1.419 . S
C3069 C3064 1.425 . S
C3069 C3066 1.409 . S
C3069 C3067 1.415 . S
C3070 H3060 0.930 . S
C3070 C3068 1.419 . S
C3070 C3071 1.362 . S
C3071 H3061 0.930 . S
C3071 C3064 1.409 . S
C3071 C3070 1.362 . S
H3072 C3078 0.930 . S
H3073 C3081 0.930 . S
H3074 C3082 0.930 . S
H3075 C3083 0.930 . S
H3076 C3086 0.930 . S
H3077 C3087 0.930 . S
C3078 H3072 0.930 . S
C3078 C3079 1.355 . S
C3078 C3080 1.415 . S
C3079 C3078 1.355 . S
C3079 C3081 1.419 . S
C3080 C3078 1.415 . S
C3080 C3085 1.425 . S
C3080 C3087 1.409 . S
C3081 H3073 0.930 . S
C3081 C3079 1.419 . S
C3081 C3082 1.362 . S
C3082 H3074 0.930 . S
C3082 C3081 1.362 . S
C3082 C3085 1.409 . S
C3083 H3075 0.930 . S
C3083 C3084 1.355 . S
C3083 C3085 1.415 . S
C3084 C3083 1.355 . S
C3084 C3086 1.419 . S
C3085 C3080 1.425 . S
C3085 C3082 1.409 . S
C3085 C3083 1.415 . S
C3086 H3076 0.930 . S
C3086 C3084 1.419 . S
C3086 C3087 1.362 . S
C3087 H3077 0.930 . S
C3087 C3080 1.409 . S
C3087 C3086 1.362 . S
H3088 C3094 0.930 . S
H3089 C3097 0.930 . S
H3090 C3098 0.930 . S
H3091 C3099 0.930 . S
H3092 C3102 0.930 . S
H3093 C3103 0.930 . S
C3094 H3088 0.930 . S
C3094 C3095 1.355 . S
C3094 C3096 1.415 . S
C3095 C3094 1.355 . S
C3095 C3097 1.419 . S
C3096 C3094 1.415 . S
C3096 C3101 1.425 . S
C3096 C3103 1.409 . S
C3097 H3089 0.930 . S
C3097 C3095 1.419 . S
C3097 C3098 1.362 . S
C3098 H3090 0.930 . S
C3098 C3097 1.362 . S
C3098 C3101 1.409 . S
C3099 H3091 0.930 . S
C3099 C3100 1.355 . S
C3099 C3101 1.415 . S
C3100 C3099 1.355 . S
C3100 C3102 1.419 . S
C3101 C3096 1.425 . S
C3101 C3098 1.409 . S
C3101 C3099 1.415 . S
C3102 H3092 0.930 . S
C3102 C3100 1.419 . S
C3102 C3103 1.362 . S
C3103 H3093 0.930 . S
C3103 C3096 1.409 . S
C3103 C3102 1.362 . S
H3104 C3110 0.930 . S
H3105 C3113 0.930 . S
H3106 C3114 0.930 . S
H3107 C3115 0.930 . S
H3108 C3118 0.930 . S
H3109 C3119 0.930 . S
C3110 H3104 0.930 . S
C3110 C3111 1.355 . S
C3110 C3112 1.415 . S
C3111 C3110 1.355 . S
C3111 C3113 1.419 . S
C3112 C3110 1.415 . S
C3112 C3117 1.425 . S
C3112 C3119 1.409 . S
C3113 H3105 0.930 . S
C3113 C3111 1.419 . S
C3113 C3114 1.362 . S
C3114 H3106 0.930 . S
C3114 C3113 1.362 . S
C3114 C3117 1.409 . S
C3115 H3107 0.930 . S
C3115 C3116 1.355 . S
C3115 C3117 1.415 . S
C3116 C3115 1.355 . S
C3116 C3118 1.419 . S
C3117 C3112 1.425 . S
C3117 C3114 1.409 . S
C3117 C3115 1.415 . S
C3118 H3108 0.930 . S
C3118 C3116 1.419 . S
C3118 C3119 1.362 . S
C3119 H3109 0.930 . S
C3119 C3112 1.409 . S
C3119 C3118 1.362 . S
H3120 C3126 0.923 1_545 S
H3121 C3129 0.930 . S
H3122 C3130 0.930 . S
H3123 C3131 0.930 1_565 S
H3124 C3134 0.930 . S
H3125 C3135 0.930 . S
C3126 H3120 0.923 1_565 S
C3126 C3127 1.364 . S
C3126 C3128 1.411 1_565 S
C3127 C3126 1.364 . S
C3127 C3129 1.419 . S
C3128 C3126 1.411 1_545 S
C3128 C3133 1.425 1_545 S
C3128 C3135 1.409 . S
C3129 H3121 0.930 . S
C3129 C3127 1.419 . S
C3129 C3130 1.362 . S
C3130 H3122 0.930 . S
C3130 C3129 1.362 . S
C3130 C3133 1.409 . S
C3131 H3123 0.930 1_545 S
C3131 C3132 1.354 . S
C3131 C3133 1.415 1_545 S
C3132 C3131 1.354 . S
C3132 C3134 1.419 . S
C3133 C3128 1.425 1_565 S
C3133 C3130 1.409 . S
C3133 C3131 1.415 1_565 S
C3134 H3124 0.930 . S
C3134 C3132 1.419 . S
C3134 C3135 1.362 . S
C3135 H3125 0.930 . S
C3135 C3128 1.409 . S
C3135 C3134 1.362 . S
H3136 C3142 0.930 . S
H3137 C3145 0.930 . S
H3138 C3146 0.930 . S
H3139 C3147 0.930 . S
H3140 C3150 0.930 . S
H3141 C3151 0.930 . S
C3142 H3136 0.930 . S
C3142 C3143 1.355 . S
C3142 C3144 1.415 . S
C3143 C3142 1.355 . S
C3143 C3145 1.419 . S
C3144 C3142 1.415 . S
C3144 C3149 1.425 . S
C3144 C3151 1.409 . S
C3145 H3137 0.930 . S
C3145 C3143 1.419 . S
C3145 C3146 1.362 . S
C3146 H3138 0.930 . S
C3146 C3145 1.362 . S
C3146 C3149 1.409 . S
C3147 H3139 0.930 . S
C3147 C3148 1.355 . S
C3147 C3149 1.415 . S
C3148 C3147 1.355 . S
C3148 C3150 1.419 . S
C3149 C3144 1.425 . S
C3149 C3146 1.409 . S
C3149 C3147 1.415 . S
C3150 H3140 0.930 . S
C3150 C3148 1.419 . S
C3150 C3151 1.362 . S
C3151 H3141 0.930 . S
C3151 C3144 1.409 . S
C3151 C3150 1.362 . S
H3152 C3158 0.930 . S
H3153 C3161 0.930 . S
H3154 C3162 0.930 . S
H3155 C3163 0.930 . S
H3156 C3166 0.930 . S
H3157 C3167 0.930 . S
C3158 H3152 0.930 . S
C3158 C3159 1.355 . S
C3158 C3160 1.415 . S
C3159 C3158 1.355 . S
C3159 C3161 1.419 1_545 S
C3160 C3158 1.415 . S
C3160 C3165 1.425 1_545 S
C3160 C3167 1.409 . S
C3161 H3153 0.930 . S
C3161 C3159 1.419 1_565 S
C3161 C3162 1.362 . S
C3162 H3154 0.930 . S
C3162 C3161 1.362 . S
C3162 C3165 1.409 . S
C3163 H3155 0.930 . S
C3163 C3164 1.355 . S
C3163 C3165 1.415 . S
C3164 C3163 1.355 . S
C3164 C3166 1.419 1_565 S
C3165 C3160 1.425 1_565 S
C3165 C3162 1.409 . S
C3165 C3163 1.415 . S
C3166 H3156 0.930 . S
C3166 C3164 1.419 1_545 S
C3166 C3167 1.362 . S
C3167 H3157 0.930 . S
C3167 C3160 1.409 . S
C3167 C3166 1.362 . S
H3168 C3174 0.930 . S
H3169 C3177 0.930 . S
H3170 C3178 0.930 . S
H3171 C3179 0.930 . S
H3172 C3182 0.930 . S
H3173 C3183 0.930 . S
C3174 H3168 0.930 . S
C3174 C3175 1.355 . S
C3174 C3176 1.415 . S
C3175 C3174 1.355 . S
C3175 C3177 1.419 . S
C3176 C3174 1.415 . S
C3176 C3181 1.425 1_556 S
C3176 C3183 1.409 . S
C3177 H3169 0.930 . S
C3177 C3175 1.419 . S
C3177 C3178 1.362 1_556 S
C3178 H3170 0.930 . S
C3178 C3177 1.362 1_554 S
C3178 C3181 1.409 . S
C3179 H3171 0.930 . S
C3179 C3180 1.355 . S
C3179 C3181 1.415 . S
C3180 C3179 1.355 . S
C3180 C3182 1.419 . S
C3181 C3176 1.425 1_554 S
C3181 C3178 1.409 . S
C3181 C3179 1.415 . S
C3182 H3172 0.930 . S
C3182 C3180 1.419 . S
C3182 C3183 1.362 1_554 S
C3183 H3173 0.930 . S
C3183 C3176 1.409 . S
C3183 C3182 1.362 1_556 S
H3184 C3190 0.930 . S
H3185 C3193 0.930 . S
H3186 C3194 0.930 . S
H3187 C3195 0.930 . S
H3188 C3198 0.930 . S
H3189 C3199 0.930 . S
C3190 H3184 0.930 . S
C3190 C3191 1.355 . S
C3190 C3192 1.415 1_556 S
C3191 C3190 1.355 . S
C3191 C3193 1.419 1_545 S
C3192 C3190 1.415 1_554 S
C3192 C3197 1.409 1_544 S
C3192 C3199 1.409 . S
C3193 H3185 0.930 . S
C3193 C3191 1.419 1_565 S
C3193 C3194 1.362 . S
C3194 H3186 0.930 . S
C3194 C3193 1.362 . S
C3194 C3197 1.422 . S
C3195 H3187 0.930 . S
C3195 C3196 1.355 1_565 S
C3195 C3197 1.418 1_554 S
C3196 C3195 1.355 1_545 S
C3196 C3198 1.419 . S
C3197 C3192 1.409 1_566 S
C3197 C3194 1.422 . S
C3197 C3195 1.418 1_556 S
C3198 H3188 0.930 . S
C3198 C3196 1.419 . S
C3198 C3199 1.362 . S
C3199 H3189 0.930 . S
C3199 C3192 1.409 . S
C3199 C3198 1.362 . S
H3200 C3206 0.930 . S
H3201 C3209 0.930 . S
H3202 C3210 0.930 . S
H3203 C3211 0.930 . S
H3204 C3214 0.930 . S
H3205 C3215 0.930 . S
C3206 H3200 0.930 . S
C3206 C3207 1.355 . S
C3206 C3208 1.415 . S
C3207 C3206 1.355 . S
C3207 C3209 1.419 . S
C3208 C3206 1.415 . S
C3208 C3213 1.425 1_545 S
C3208 C3215 1.409 1_545 S
C3209 H3201 0.930 . S
C3209 C3207 1.419 . S
C3209 C3210 1.362 . S
C3210 H3202 0.930 . S
C3210 C3209 1.362 . S
C3210 C3213 1.409 1_545 S
C3211 H3203 0.930 . S
C3211 C3212 1.355 . S
C3211 C3213 1.415 . S
C3212 C3211 1.355 . S
C3212 C3214 1.419 . S
C3213 C3208 1.425 1_565 S
C3213 C3210 1.409 1_565 S
C3213 C3211 1.415 . S
C3214 H3204 0.930 . S
C3214 C3212 1.419 . S
C3214 C3215 1.362 . S
C3215 H3205 0.930 . S
C3215 C3208 1.409 1_565 S
C3215 C3214 1.362 . S
H3216 C3222 0.930 . S
H3217 C3225 0.930 . S
H3218 C3226 0.930 . S
H3219 C3227 0.930 1_545 S
H3220 C3230 0.930 . S
H3221 C3231 0.930 . S
C3222 H3216 0.930 . S
C3222 C3223 1.355 . S
C3222 C3224 1.415 . S
C3223 C3222 1.355 . S
C3223 C3225 1.419 1_565 S
C3224 C3222 1.415 . S
C3224 C3229 1.425 . S
C3224 C3231 1.409 . S
C3225 H3217 0.930 . S
C3225 C3223 1.419 1_545 S
C3225 C3226 1.362 . S
C3226 H3218 0.930 . S
C3226 C3225 1.362 . S
C3226 C3229 1.409 1_545 S
C3227 H3219 0.930 1_565 S
C3227 C3228 1.355 . S
C3227 C3229 1.415 . S
C3228 C3227 1.355 . S
C3228 C3230 1.419 . S
C3229 C3224 1.425 . S
C3229 C3226 1.409 1_565 S
C3229 C3227 1.415 . S
C3230 H3220 0.930 . S
C3230 C3228 1.419 . S
C3230 C3231 1.362 . S
C3231 H3221 0.930 . S
C3231 C3224 1.409 . S
C3231 C3230 1.362 . S
H3232 C3238 0.930 . S
H3233 C3241 0.930 . S
H3234 C3242 0.929 . S
H3235 C3243 0.930 . S
H3236 C3246 0.930 . S
H3237 C3247 0.931 1_545 S
C3238 H3232 0.930 . S
C3238 C3239 1.355 . S
C3238 C3240 1.415 . S
C3239 C3238 1.355 . S
C3239 C3241 1.419 . S
C3240 C3238 1.415 . S
C3240 C3245 1.425 1_545 S
C3240 C3247 1.409 1_545 S
C3241 H3233 0.930 . S
C3241 C3239 1.419 . S
C3241 C3242 1.364 1_545 S
C3242 H3234 0.929 . S
C3242 C3241 1.364 1_565 S
C3242 C3245 1.409 . S
C3243 H3235 0.930 . S
C3243 C3244 1.355 . S
C3243 C3245 1.415 . S
C3244 C3243 1.355 . S
C3244 C3246 1.419 . S
C3245 C3240 1.425 1_565 S
C3245 C3242 1.409 . S
C3245 C3243 1.415 . S
C3246 H3236 0.930 . S
C3246 C3244 1.419 . S
C3246 C3247 1.361 . S
C3247 H3237 0.931 1_565 S
C3247 C3240 1.409 1_565 S
C3247 C3246 1.361 . S
H3248 C3254 0.930 . S
H3249 C3257 0.930 . S
H3250 C3258 0.930 1_655 S
H3251 C3259 0.930 . S
H3252 C3262 0.930 . S
H3253 C3263 0.930 1_455 S
C3254 H3248 0.930 . S
C3254 C3255 1.355 1_556 S
C3254 C3256 1.415 . S
C3255 C3254 1.355 1_554 S
C3255 C3257 1.419 . S
C3256 C3254 1.415 . S
C3256 C3261 1.425 1_456 S
C3256 C3263 1.409 1_455 S
C3257 H3249 0.930 . S
C3257 C3255 1.419 . S
C3257 C3258 1.362 . S
C3258 H3250 0.930 1_455 S
C3258 C3257 1.362 . S
C3258 C3261 1.409 1_455 S
C3259 H3251 0.930 . S
C3259 C3260 1.355 . S
C3259 C3261 1.415 . S
C3260 C3259 1.355 . S
C3260 C3262 1.419 1_554 S
C3261 C3256 1.425 1_654 S
C3261 C3258 1.409 1_655 S
C3261 C3259 1.415 . S
C3262 H3252 0.930 . S
C3262 C3260 1.419 1_556 S
C3262 C3263 1.362 . S
C3263 H3253 0.930 1_655 S
C3263 C3256 1.409 1_655 S
C3263 C3262 1.362 . S
H3264 C3270 0.930 . S
H3265 C3273 0.930 . S
H3266 C3274 0.930 . S
H3267 C3275 0.930 . S
H3268 C3278 0.930 . S
H3269 C3279 0.930 . S
C3270 H3264 0.930 . S
C3270 C3271 1.355 1_554 S
C3270 C3272 1.423 . S
C3271 C3270 1.355 1_556 S
C3271 C3273 1.419 . S
C3272 C3270 1.423 . S
C3272 C3277 1.379 1_554 S
C3272 C3279 1.446 . S
C3273 H3265 0.930 . S
C3273 C3271 1.419 . S
C3273 C3274 1.362 . S
C3274 H3266 0.930 . S
C3274 C3273 1.362 . S
C3274 C3277 1.409 . S
C3275 H3267 0.930 . S
C3275 C3276 1.355 . S
C3275 C3277 1.415 . S
C3276 C3275 1.355 . S
C3276 C3278 1.419 1_556 S
C3277 C3272 1.379 1_556 S
C3277 C3274 1.409 . S
C3277 C3275 1.415 . S
C3278 H3268 0.930 . S
C3278 C3276 1.419 1_554 S
C3278 C3279 1.362 . S
C3279 H3269 0.930 . S
C3279 C3272 1.446 . S
C3279 C3278 1.362 . S
H3280 C3286 0.930 . S
H3281 C3289 0.930 . S
H3282 C3290 0.930 . S
H3283 C3291 0.930 . S
H3284 C3294 0.930 . S
H3285 C3295 0.930 . S
C3286 H3280 0.930 . S
C3286 C3287 1.355 . S
C3286 C3288 1.415 . S
C3287 C3286 1.355 . S
C3287 C3289 1.419 . S
C3288 C3286 1.415 . S
C3288 C3293 1.425 1_655 S
C3288 C3295 1.409 . S
C3289 H3281 0.930 . S
C3289 C3287 1.419 . S
C3289 C3290 1.362 1_655 S
C3290 H3282 0.930 . S
C3290 C3289 1.362 1_455 S
C3290 C3293 1.409 . S
C3291 H3283 0.930 . S
C3291 C3292 1.355 . S
C3291 C3293 1.415 . S
C3292 C3291 1.355 . S
C3292 C3294 1.419 . S
C3293 C3288 1.425 1_455 S
C3293 C3290 1.409 . S
C3293 C3291 1.415 . S
C3294 H3284 0.930 . S
C3294 C3292 1.419 . S
C3294 C3295 1.362 1_455 S
C3295 H3285 0.930 . S
C3295 C3288 1.409 . S
C3295 C3294 1.362 1_655 S
H3296 C3302 0.899 1_655 S
H3297 C3305 0.930 . S
H3298 C3306 0.930 . S
H3299 C3307 0.930 1_455 S
H3300 C3310 0.930 . S
H3301 C3311 0.930 . S
C3302 H3296 0.899 1_455 S
C3302 C3303 1.405 . S
C3302 C3304 1.397 1_455 S
C3303 C3302 1.405 . S
C3303 C3305 1.419 . S
C3304 C3302 1.397 1_655 S
C3304 C3309 1.425 1_655 S
C3304 C3311 1.409 . S
C3305 H3297 0.930 . S
C3305 C3303 1.419 . S
C3305 C3306 1.362 . S
C3306 H3298 0.930 . S
C3306 C3305 1.362 . S
C3306 C3309 1.409 . S
C3307 H3299 0.930 1_655 S
C3307 C3308 1.355 . S
C3307 C3309 1.415 1_655 S
C3308 C3307 1.355 . S
C3308 C3310 1.419 . S
C3309 C3304 1.425 1_455 S
C3309 C3306 1.409 . S
C3309 C3307 1.415 1_455 S
C3310 H3300 0.930 . S
C3310 C3308 1.419 . S
C3310 C3311 1.362 . S
C3311 H3301 0.930 . S
C3311 C3304 1.409 . S
C3311 C3310 1.362 . S
H3312 C3318 0.930 . S
H3313 C3321 0.930 . S
H3314 C3322 0.930 . S
H3315 C3323 0.930 . S
H3316 C3326 0.930 . S
H3317 C3327 0.930 . S
C3318 H3312 0.930 . S
C3318 C3319 1.355 . S
C3318 C3320 1.415 . S
C3319 C3318 1.355 . S
C3319 C3321 1.419 . S
C3320 C3318 1.415 . S
C3320 C3325 1.425 . S
C3320 C3327 1.409 . S
C3321 H3313 0.930 . S
C3321 C3319 1.419 . S
C3321 C3322 1.362 . S
C3322 H3314 0.930 . S
C3322 C3321 1.362 . S
C3322 C3325 1.409 . S
C3323 H3315 0.930 . S
C3323 C3324 1.355 . S
C3323 C3325 1.415 . S
C3324 C3323 1.355 . S
C3324 C3326 1.419 . S
C3325 C3320 1.425 . S
C3325 C3322 1.409 . S
C3325 C3323 1.415 . S
C3326 H3316 0.930 . S
C3326 C3324 1.419 . S
C3326 C3327 1.362 . S
C3327 H3317 0.930 . S
C3327 C3320 1.409 . S
C3327 C3326 1.362 . S
H3328 C3334 0.930 . S
H3329 C3337 0.930 . S
H3330 C3338 0.930 . S
H3331 C3339 0.930 . S
H3332 C3342 0.930 . S
H3333 C3343 0.930 . S
C3334 H3328 0.930 . S
C3334 C3335 1.355 . S
C3334 C3336 1.415 1_455 S
C3335 C3334 1.355 . S
C3335 C3337 1.419 . S
C3336 C3334 1.415 1_655 S
C3336 C3341 1.425 1_655 S
C3336 C3343 1.409 . S
C3337 H3329 0.930 . S
C3337 C3335 1.419 . S
C3337 C3338 1.362 . S
C3338 H3330 0.930 . S
C3338 C3337 1.362 . S
C3338 C3341 1.409 . S
C3339 H3331 0.930 . S
C3339 C3340 1.355 . S
C3339 C3341 1.415 1_655 S
C3340 C3339 1.355 . S
C3340 C3342 1.419 . S
C3341 C3336 1.425 1_455 S
C3341 C3338 1.409 . S
C3341 C3339 1.415 1_455 S
C3342 H3332 0.930 . S
C3342 C3340 1.419 . S
C3342 C3343 1.362 . S
C3343 H3333 0.930 . S
C3343 C3336 1.409 . S
C3343 C3342 1.362 . S
H3344 C3350 0.930 . S
H3345 C3353 0.930 . S
H3346 C3354 0.930 . S
H3347 C3355 0.930 . S
H3348 C3358 0.930 . S
H3349 C3359 0.930 . S
C3350 H3344 0.930 . S
C3350 C3351 1.355 . S
C3350 C3352 1.415 . S
C3351 C3350 1.355 . S
C3351 C3353 1.419 . S
C3352 C3350 1.415 . S
C3352 C3357 1.425 . S
C3352 C3359 1.409 . S
C3353 H3345 0.930 . S
C3353 C3351 1.419 . S
C3353 C3354 1.362 . S
C3354 H3346 0.930 . S
C3354 C3353 1.362 . S
C3354 C3357 1.409 . S
C3355 H3347 0.930 . S
C3355 C3356 1.355 . S
C3355 C3357 1.415 . S
C3356 C3355 1.355 . S
C3356 C3358 1.419 . S
C3357 C3352 1.425 . S
C3357 C3354 1.409 . S
C3357 C3355 1.415 . S
C3358 H3348 0.930 . S
C3358 C3356 1.419 . S
C3358 C3359 1.362 . S
C3359 H3349 0.930 . S
C3359 C3352 1.409 . S
C3359 C3358 1.362 . S
H3360 C3366 0.930 . S
H3361 C3369 0.930 . S
H3362 C3370 0.930 . S
H3363 C3371 0.930 . S
H3364 C3374 0.930 . S
H3365 C3375 0.930 . S
C3366 H3360 0.930 . S
C3366 C3367 1.355 . S
C3366 C3368 1.415 . S
C3367 C3366 1.355 . S
C3367 C3369 1.419 . S
C3368 C3366 1.415 . S
C3368 C3373 1.425 . S
C3368 C3375 1.409 . S
C3369 H3361 0.930 . S
C3369 C3367 1.419 . S
C3369 C3370 1.362 . S
C3370 H3362 0.930 . S
C3370 C3369 1.362 . S
C3370 C3373 1.409 . S
C3371 H3363 0.930 . S
C3371 C3372 1.355 . S
C3371 C3373 1.415 . S
C3372 C3371 1.355 . S
C3372 C3374 1.419 . S
C3373 C3368 1.425 . S
C3373 C3370 1.409 . S
C3373 C3371 1.415 . S
C3374 H3364 0.930 . S
C3374 C3372 1.419 . S
C3374 C3375 1.362 . S
C3375 H3365 0.930 . S
C3375 C3368 1.409 . S
C3375 C3374 1.362 . S
H3376 C3382 0.930 . S
H3377 C3385 0.930 . S
H3378 C3386 0.930 . S
H3379 C3387 0.930 . S
H3380 C3390 0.930 . S
H3381 C3391 0.934 . S
C3382 H3376 0.930 . S
C3382 C3383 1.355 . S
C3382 C3384 1.415 . S
C3383 C3382 1.355 . S
C3383 C3385 1.419 . S
C3384 C3382 1.415 . S
C3384 C3389 1.425 1_554 S
C3384 C3391 1.409 1_554 S
C3385 H3377 0.930 . S
C3385 C3383 1.419 . S
C3385 C3386 1.362 . S
C3386 H3378 0.930 . S
C3386 C3385 1.362 . S
C3386 C3389 1.409 1_554 S
C3387 H3379 0.930 . S
C3387 C3388 1.355 . S
C3387 C3389 1.415 . S
C3388 C3387 1.355 . S
C3388 C3390 1.419 . S
C3389 C3384 1.425 1_556 S
C3389 C3386 1.409 1_556 S
C3389 C3387 1.415 . S
C3390 H3380 0.930 . S
C3390 C3388 1.419 . S
C3390 C3391 1.362 . S
C3391 H3381 0.934 . S
C3391 C3384 1.409 1_556 S
C3391 C3390 1.362 . S
H3392 C3398 0.930 1_455 S
H3393 C3401 0.930 . S
H3394 C3402 0.930 . S
H3395 C3403 0.930 . S
H3396 C3406 0.930 . S
H3397 C3407 0.930 . S
C3398 H3392 0.930 1_655 S
C3398 C3399 1.355 . S
C3398 C3400 1.415 . S
C3399 C3398 1.355 . S
C3399 C3401 1.419 . S
C3400 C3398 1.415 . S
C3400 C3405 1.425 . S
C3400 C3407 1.409 1_655 S
C3401 H3393 0.930 . S
C3401 C3399 1.419 . S
C3401 C3402 1.362 . S
C3402 H3394 0.930 . S
C3402 C3401 1.362 . S
C3402 C3405 1.409 . S
C3403 H3395 0.930 . S
C3403 C3404 1.355 . S
C3403 C3405 1.415 . S
C3404 C3403 1.355 . S
C3404 C3406 1.419 1_655 S
C3405 C3400 1.425 . S
C3405 C3402 1.409 . S
C3405 C3403 1.415 . S
C3406 H3396 0.930 . S
C3406 C3404 1.419 1_455 S
C3406 C3407 1.362 . S
C3407 H3397 0.930 . S
C3407 C3400 1.409 1_455 S
C3407 C3406 1.362 . S
H3408 C3414 0.930 . S
H3409 C3417 0.930 . S
H3410 C3418 0.930 . S
H3411 C3419 0.930 . S
H3412 C3422 0.930 . S
H3413 C3423 0.930 . S
C3414 H3408 0.930 . S
C3414 C3415 1.355 . S
C3414 C3416 1.415 . S
C3415 C3414 1.355 . S
C3415 C3417 1.419 . S
C3416 C3414 1.415 . S
C3416 C3421 1.425 . S
C3416 C3423 1.409 . S
C3417 H3409 0.930 . S
C3417 C3415 1.419 . S
C3417 C3418 1.362 . S
C3418 H3410 0.930 . S
C3418 C3417 1.362 . S
C3418 C3421 1.409 . S
C3419 H3411 0.930 . S
C3419 C3420 1.355 . S
C3419 C3421 1.415 . S
C3420 C3419 1.355 . S
C3420 C3422 1.419 . S
C3421 C3416 1.425 . S
C3421 C3418 1.409 . S
C3421 C3419 1.415 . S
C3422 H3412 0.930 . S
C3422 C3420 1.419 . S
C3422 C3423 1.362 . S
C3423 H3413 0.930 . S
C3423 C3416 1.409 . S
C3423 C3422 1.362 . S
H3424 C3430 0.930 . S
H3425 C3433 0.930 . S
H3426 C3434 0.930 . S
H3427 C3435 0.930 . S
H3428 C3438 0.930 . S
H3429 C3439 0.930 . S
C3430 H3424 0.930 . S
C3430 C3431 1.355 . S
C3430 C3432 1.415 . S
C3431 C3430 1.355 . S
C3431 C3433 1.419 . S
C3432 C3430 1.415 . S
C3432 C3437 1.425 . S
C3432 C3439 1.409 . S
C3433 H3425 0.930 . S
C3433 C3431 1.419 . S
C3433 C3434 1.362 . S
C3434 H3426 0.930 . S
C3434 C3433 1.362 . S
C3434 C3437 1.409 . S
C3435 H3427 0.930 . S
C3435 C3436 1.355 . S
C3435 C3437 1.415 . S
C3436 C3435 1.355 . S
C3436 C3438 1.419 . S
C3437 C3432 1.425 . S
C3437 C3434 1.409 . S
C3437 C3435 1.415 . S
C3438 H3428 0.930 . S
C3438 C3436 1.419 . S
C3438 C3439 1.362 . S
C3439 H3429 0.930 . S
C3439 C3432 1.409 . S
C3439 C3438 1.362 . S
H3440 C3446 0.930 . S
H3441 C3449 0.930 . S
H3442 C3450 0.930 . S
H3443 C3451 0.930 . S
H3444 C3454 0.930 . S
H3445 C3455 0.930 . S
C3446 H3440 0.930 . S
C3446 C3447 1.355 . S
C3446 C3448 1.415 . S
C3447 C3446 1.355 . S
C3447 C3449 1.419 . S
C3448 C3446 1.415 . S
C3448 C3453 1.425 . S
C3448 C3455 1.409 . S
C3449 H3441 0.930 . S
C3449 C3447 1.419 . S
C3449 C3450 1.362 . S
C3450 H3442 0.930 . S
C3450 C3449 1.362 . S
C3450 C3453 1.409 . S
C3451 H3443 0.930 . S
C3451 C3452 1.355 . S
C3451 C3453 1.415 . S
C3452 C3451 1.355 . S
C3452 C3454 1.419 . S
C3453 C3448 1.425 . S
C3453 C3450 1.409 . S
C3453 C3451 1.415 . S
C3454 H3444 0.930 . S
C3454 C3452 1.419 . S
C3454 C3455 1.362 . S
C3455 H3445 0.930 . S
C3455 C3448 1.409 . S
C3455 C3454 1.362 . S
H3456 C3462 0.930 . S
H3457 C3465 0.935 . S
H3458 C3466 0.930 . S
H3459 C3467 0.930 . S
H3460 C3470 0.937 . S
H3461 C3471 0.930 . S
C3462 H3456 0.930 . S
C3462 C3463 1.355 . S
C3462 C3464 1.415 . S
C3463 C3462 1.355 . S
C3463 C3465 1.401 1_556 S
C3464 C3462 1.415 . S
C3464 C3469 1.425 1_556 S
C3464 C3471 1.409 . S
C3465 H3457 0.935 . S
C3465 C3463 1.401 1_554 S
C3465 C3466 1.376 . S
C3466 H3458 0.930 . S
C3466 C3465 1.376 . S
C3466 C3469 1.409 . S
C3467 H3459 0.930 . S
C3467 C3468 1.355 . S
C3467 C3469 1.415 . S
C3468 C3467 1.355 . S
C3468 C3470 1.394 1_554 S
C3469 C3464 1.425 1_554 S
C3469 C3466 1.409 . S
C3469 C3467 1.415 . S
C3470 H3460 0.937 . S
C3470 C3468 1.394 1_556 S
C3470 C3471 1.381 . S
C3471 H3461 0.930 . S
C3471 C3464 1.409 . S
C3471 C3470 1.381 . S
H3472 C3478 0.930 . S
H3473 C3481 0.930 . S
H3474 C3482 0.930 . S
H3475 C3483 0.930 . S
H3476 C3486 0.930 . S
H3477 C3487 0.930 . S
C3478 H3472 0.930 . S
C3478 C3479 1.355 . S
C3478 C3480 1.415 . S
C3479 C3478 1.355 . S
C3479 C3481 1.419 . S
C3480 C3478 1.415 . S
C3480 C3485 1.425 . S
C3480 C3487 1.409 . S
C3481 H3473 0.930 . S
C3481 C3479 1.419 . S
C3481 C3482 1.362 . S
C3482 H3474 0.930 . S
C3482 C3481 1.362 . S
C3482 C3485 1.409 . S
C3483 H3475 0.930 . S
C3483 C3484 1.355 . S
C3483 C3485 1.415 . S
C3484 C3483 1.355 . S
C3484 C3486 1.419 . S
C3485 C3480 1.425 . S
C3485 C3482 1.409 . S
C3485 C3483 1.415 . S
C3486 H3476 0.930 . S
C3486 C3484 1.419 . S
C3486 C3487 1.362 . S
C3487 H3477 0.930 . S
C3487 C3480 1.409 . S
C3487 C3486 1.362 . S
H3488 C3494 0.930 . S
H3489 C3497 0.930 . S
H3490 C3498 0.930 . S
H3491 C3499 0.930 . S
H3492 C3502 0.930 . S
H3493 C3503 0.930 . S
C3494 H3488 0.930 . S
C3494 C3495 1.355 . S
C3494 C3496 1.415 . S
C3495 C3494 1.355 . S
C3495 C3497 1.419 . S
C3496 C3494 1.415 . S
C3496 C3501 1.425 . S
C3496 C3503 1.409 . S
C3497 H3489 0.930 . S
C3497 C3495 1.419 . S
C3497 C3498 1.362 . S
C3498 H3490 0.930 . S
C3498 C3497 1.362 . S
C3498 C3501 1.409 . S
C3499 H3491 0.930 . S
C3499 C3500 1.355 . S
C3499 C3501 1.415 . S
C3500 C3499 1.355 . S
C3500 C3502 1.419 . S
C3501 C3496 1.425 . S
C3501 C3498 1.409 . S
C3501 C3499 1.415 . S
C3502 H3492 0.930 . S
C3502 C3500 1.419 . S
C3502 C3503 1.362 . S
C3503 H3493 0.930 . S
C3503 C3496 1.409 . S
C3503 C3502 1.362 . S
C1591 N13 1.465 . S
C1596 C348 1.666 . S
C1607 C381 1.648 . S
C1612 N46 1.444 . S
C1623 C282 1.700 1_556 S
C1628 N79 1.516 . S
C1639 C315 1.681 . S
C1644 N112 1.485 . S
C1655 C480 1.661 1_554 S
C1660 N145 1.424 . S
C1671 N178 1.436 . S
C1676 C513 1.658 . S
C1687 C414 1.649 . S
C1692 N211 1.430 . S
C1703 C447 1.629 . S
C1708 N244 1.393 . S
C1719 N277 1.410 . S
C1724 C579 1.649 . S
C1735 N310 1.447 . S
C1740 C612 1.663 . S
C1751 C645 1.692 1_455 S
C1756 N343 1.514 . S
C1767 N376 1.517 . S
C1772 C1470 1.690 . S
C1783 C1338 1.634 . S
C1788 N409 1.410 . S
C1799 N442 1.410 . S
C1804 C777 1.634 . S
C1815 N475 1.390 . S
C1820 C1503 1.641 1_455 S
C1831 C744 1.669 . S
C1836 N508 1.485 . S
C1847 N541 1.420 . S
C1852 C1008 1.645 . S
C1863 C84 1.631 1_545 S
C1868 N574 1.402 . S
C1879 C117 1.638 . S
C1884 N607 1.420 . S
C1895 C18 1.654 1_565 S
C1900 N640 1.411 . S
C1911 N673 1.434 . S
C1916 C843 1.657 . S
C1927 N706 1.390 . S
C1932 C942 1.630 . S
C1943 C183 1.636 . S
C1948 N739 1.416 . S
C1959 C249 1.662 . S
C1964 N772 1.444 . S
C1975 N805 1.437 . S
C1980 C1140 1.658 1_556 S
C1991 N838 1.419 . S
C1996 C1173 1.637 . S
C2007 C1074 1.664 . S
C2012 N871 1.475 . S
C2023 C1107 1.646 . S
C2028 N904 1.438 . S
C2039 C1272 1.656 . S
C2044 N937 1.461 . S
C2055 C1305 1.692 . S
C2060 N970 1.516 . S
C2071 C1206 1.649 1_554 S
C2076 N1003 1.419 . S
C2087 N1036 1.509 . S
C2092 C1239 1.690 . S
C2103 N1069 1.392 . S
C2108 C1371 1.629 1_655 S
C2119 C1404 1.675 . S
C2124 N1102 1.472 . S
C2135 N1135 1.400 . S
C2140 C1437 1.638 . S
C2151 N1168 1.458 . S
C2156 C678 1.655 . S
C2167 N1201 1.480 . S
C2172 C546 1.679 1_655 S
C2183 N1234 1.466 . S
C2188 C1569 1.659 . S
C2199 C711 1.644 . S
C2204 N1267 1.410 . S
C2215 C1536 1.630 . S
C2220 N1300 1.398 . S
C2231 N1333 1.507 . S
C2236 C216 1.689 1_565 S
C2247 C876 1.697 . S
C2252 N1366 1.513 . S
C2263 N1399 1.515 . S
C2268 C909 1.692 . S
C2279 N1432 1.411 . S
C2284 C810 1.634 . S
C2295 C51 1.692 . S
C2300 N1465 1.515 . S
C2311 N1498 1.404 . S
C2316 C150 1.644 1_545 S
C2327 N1531 1.391 . S
C2332 C975 1.631 . S
C2343 C1041 1.628 . S
C2348 N1564 1.391 . S
C2359 C304 1.982 . S
C2364 C7 1.981 . S
C2375 C40 1.972 . S
C2380 C337 1.973 . S
C2391 C370 1.969 . S
C2396 C73 1.969 . S
C2407 C271 1.972 . S
C2412 C106 1.972 . S
C2423 C139 1.974 . S
C2428 C502 1.974 . S
C2439 C172 1.990 . S
C2444 C403 1.991 . S
C2455 C436 1.991 . S
C2460 C205 1.991 . S
C2471 C238 1.980 . S
C2476 C469 1.981 . S
C2487 C601 1.990 . S
C2492 C535 1.990 . S
C2503 C568 1.992 . S
C2508 C1525 1.992 . S
C2519 C1558 1.969 . S
C2524 C634 1.969 . S
C2535 C667 1.969 . S
C2540 C1492 1.969 . S
C2551 C1459 1.974 . S
C2556 C700 1.973 . S
C2567 C1360 1.987 . S
C2572 C733 1.987 . S
C2583 C766 1.980 . S
C2588 C1426 1.980 . S
C2599 C799 1.992 . S
C2604 C1096 1.992 . S
C2615 C1129 1.992 . S
C2620 C832 1.992 . S
C2631 C1162 1.992 . S
C2636 C865 1.992 . S
C2647 C898 1.975 . S
C2652 C1063 1.975 . S
C2663 C1294 1.979 . S
C2668 C931 1.979 . S
C2679 C1195 1.982 . S
C2684 C964 1.981 . S
C2695 C997 1.991 . S
C2700 C1228 1.991 . S
C2711 C1261 1.974 . S
C2716 C1030 1.975 . S
C2727 C1393 1.982 . S
C2732 C1327 1.982 . S
C2743 C681 1.173 . S
C2748 C21 1.111 . S
C2759 C54 1.143 . S
C2764 C1374 1.192 . S
C2775 C87 1.181 . S
C2780 C1407 1.122 . S
C2791 C1440 1.111 . S
C2796 C120 1.173 . S
C2807 C1572 1.174 . S
C2812 C153 1.113 . S
C2823 C714 1.091 . S
C2828 C186 1.081 . S
C2839 C219 1.127 . S
C2844 C1539 1.184 . S
C2855 C252 1.079 . S
C2860 C549 1.094 . S
C2871 C516 1.082 . S
C2876 C285 1.134 . S
C2887 C318 1.197 . S
C2892 C417 1.177 . S
C2903 C351 1.181 . S
C2908 C450 1.121 . S
C2919 C483 1.193 . S
C2924 C384 1.185 . S
C2935 C846 1.119 . S
C2940 C582 1.077 . S
C2951 C615 1.077 . S
C2956 C879 1.117 . S
C2967 C648 1.179 . S
C2972 C912 1.196 . S
C2983 C747 1.185 . S
C2988 C1011 1.129 . S
C2999 C945 1.198 . S
C3004 C780 1.172 . S
C3015 C813 1.078 . S
C3020 C1473 1.123 . S
C3031 C1506 1.151 . S
C3036 C978 1.092 . S
C3047 C1341 1.190 . S
C3052 C1044 1.138 . S
C3063 C1077 1.078 . S
C3068 C1308 1.124 . S
C3079 C1209 1.081 . S
C3084 C1110 1.133 . S
C3095 C1143 1.084 . S
C3100 C1242 1.086 . S
C3111 C1176 1.112 . S
C3116 C1275 1.174 . S
C3127 N134 1.217 . S
C3132 N2 1.207 . S
C3143 N167 1.214 . S
C3148 N35 1.199 . S
C3159 N200 1.129 . S
C3164 N68 1.150 . S
C3175 N233 1.216 . S
C3180 N101 1.216 . S
C3191 N464 1.190 . S
C3196 N266 1.210 . S
C3207 N299 1.147 . S
C3212 N497 1.127 . S
C3223 N332 1.131 . S
C3228 N398 1.154 . S
C3239 N431 1.206 . S
C3244 N365 1.217 . S
C3255 N530 1.159 . S
C3260 N1487 1.135 . S
C3271 N563 1.174 . S
C3276 N1421 1.148 . S
C3287 N662 1.215 . S
C3292 N596 1.216 . S
C3303 N1355 1.216 . S
C3308 N629 1.215 . S
C3319 N1322 1.122 . S
C3324 N695 1.138 . S
C3335 N728 1.121 . S
C3340 N1553 1.133 . S
C3351 N1520 1.122 . S
C3356 N761 1.122 . S
C3367 N926 1.193 . S
C3372 N794 1.212 . S
C3383 N827 1.181 . S
C3388 N959 1.154 . S
C3399 N860 1.209 . S
C3404 N992 1.188 . S
C3415 N893 1.133 . S
C3420 N1025 1.121 . S
C3431 N1058 1.126 . S
C3436 N1256 1.120 . S
C3447 N1091 1.215 . S
C3452 N1289 1.201 . S
C3463 N1190 1.129 . S
C3468 N1124 1.120 . S
C3479 N1157 1.217 . S
C3484 N1223 1.205 . S
C3495 N1454 1.123 . S
C3500 N1388 1.140 . S
