# Generated by pormake.
# Topology pcl, (4)-cn, num edge types: 1
# Building blocks:
#     Node 0, Type 0, BuildingBlock: NAHDIM_clean_sbu_0, # of connection points: 4
#     Node 1, Type 0, BuildingBlock: NAHDIM_clean_sbu_0, # of connection points: 4
#     Node 2, Type 0, BuildingBlock: NAHDIM_clean_sbu_0, # of connection points: 4
#     Node 3, Type 0, BuildingBlock: NAHDIM_clean_sbu_0, # of connection points: 4
#     Node 4, Type 0, BuildingBlock: NAHDIM_clean_sbu_0, # of connection points: 4
#     Node 5, Type 0, BuildingBlock: NAHDIM_clean_sbu_0, # of connection points: 4
#     Node 6, Type 0, BuildingBlock: NAHDIM_clean_sbu_0, # of connection points: 4
#     Node 7, Type 0, BuildingBlock: NAHDIM_clean_sbu_0, # of connection points: 4
#     Node 8, Type 0, BuildingBlock: NAHDIM_clean_sbu_0, # of connection points: 4
#     Node 9, Type 0, BuildingBlock: NAHDIM_clean_sbu_0, # of connection points: 4
#     Node 10, Type 0, BuildingBlock: NAHDIM_clean_sbu_0, # of connection points: 4
#     Node 11, Type 0, BuildingBlock: NAHDIM_clean_sbu_0, # of connection points: 4
#     Node 12, Type 0, BuildingBlock: NAHDIM_clean_sbu_0, # of connection points: 4
#     Node 13, Type 0, BuildingBlock: NAHDIM_clean_sbu_0, # of connection points: 4
#     Node 14, Type 0, BuildingBlock: NAHDIM_clean_sbu_0, # of connection points: 4
#     Node 15, Type 0, BuildingBlock: NAHDIM_clean_sbu_0, # of connection points: 4
#     Edge 16, Type (0, 0), BuildingBlock: TEMPAE_clean_linker_10, # of connection points: 2
#     Edge 17, Type (0, 0), BuildingBlock: TEMPAE_clean_linker_10, # of connection points: 2
#     Edge 18, Type (0, 0), BuildingBlock: TEMPAE_clean_linker_10, # of connection points: 2
#     Edge 19, Type (0, 0), BuildingBlock: TEMPAE_clean_linker_10, # of connection points: 2
#     Edge 20, Type (0, 0), BuildingBlock: TEMPAE_clean_linker_10, # of connection points: 2
#     Edge 21, Type (0, 0), BuildingBlock: TEMPAE_clean_linker_10, # of connection points: 2
#     Edge 22, Type (0, 0), BuildingBlock: TEMPAE_clean_linker_10, # of connection points: 2
#     Edge 23, Type (0, 0), BuildingBlock: TEMPAE_clean_linker_10, # of connection points: 2
#     Edge 24, Type (0, 0), BuildingBlock: TEMPAE_clean_linker_10, # of connection points: 2
#     Edge 25, Type (0, 0), BuildingBlock: TEMPAE_clean_linker_10, # of connection points: 2
#     Edge 26, Type (0, 0), BuildingBlock: TEMPAE_clean_linker_10, # of connection points: 2
#     Edge 27, Type (0, 0), BuildingBlock: TEMPAE_clean_linker_10, # of connection points: 2
#     Edge 28, Type (0, 0), BuildingBlock: TEMPAE_clean_linker_10, # of connection points: 2
#     Edge 29, Type (0, 0), BuildingBlock: TEMPAE_clean_linker_10, # of connection points: 2
#     Edge 30, Type (0, 0), BuildingBlock: TEMPAE_clean_linker_10, # of connection points: 2
#     Edge 31, Type (0, 0), BuildingBlock: TEMPAE_clean_linker_10, # of connection points: 2
#     Edge 32, Type (0, 0), BuildingBlock: TEMPAE_clean_linker_10, # of connection points: 2
#     Edge 33, Type (0, 0), BuildingBlock: TEMPAE_clean_linker_10, # of connection points: 2
#     Edge 34, Type (0, 0), BuildingBlock: TEMPAE_clean_linker_10, # of connection points: 2
#     Edge 35, Type (0, 0), BuildingBlock: TEMPAE_clean_linker_10, # of connection points: 2
#     Edge 36, Type (0, 0), BuildingBlock: TEMPAE_clean_linker_10, # of connection points: 2
#     Edge 37, Type (0, 0), BuildingBlock: TEMPAE_clean_linker_10, # of connection points: 2
#     Edge 38, Type (0, 0), BuildingBlock: TEMPAE_clean_linker_10, # of connection points: 2
#     Edge 39, Type (0, 0), BuildingBlock: TEMPAE_clean_linker_10, # of connection points: 2
#     Edge 40, Type (0, 0), BuildingBlock: TEMPAE_clean_linker_10, # of connection points: 2
#     Edge 41, Type (0, 0), BuildingBlock: TEMPAE_clean_linker_10, # of connection points: 2
#     Edge 42, Type (0, 0), BuildingBlock: TEMPAE_clean_linker_10, # of connection points: 2
#     Edge 43, Type (0, 0), BuildingBlock: TEMPAE_clean_linker_10, # of connection points: 2
#     Edge 44, Type (0, 0), BuildingBlock: TEMPAE_clean_linker_10, # of connection points: 2
#     Edge 45, Type (0, 0), BuildingBlock: TEMPAE_clean_linker_10, # of connection points: 2
#     Edge 46, Type (0, 0), BuildingBlock: TEMPAE_clean_linker_10, # of connection points: 2
#     Edge 47, Type (0, 0), BuildingBlock: TEMPAE_clean_linker_10, # of connection points: 2
# Relax obj value: 0.089
# Max RMSD: 0.096
# Mean RMSD: 0.087
data_MOF--net-pcl--node1-NAHDIM_clean_sbu_0--edge1-TEMPAE_clean_linker_10
_symmetry_space_group_name_H-M    P1
_symmetry_Int_Tables_number       1
_symmetry_cell_setting            triclinic
loop_
_symmetry_equiv_pos_as_xyz
'x, y, z'
_cell_length_a     48.927034
_cell_length_b     48.776091
_cell_length_c     43.418676
_cell_angle_alpha  89.952648
_cell_angle_beta   90.019451
_cell_angle_gamma 90.013965
loop_
_atom_site_label
_atom_site_type_symbol
_atom_site_fract_x
_atom_site_fract_y
_atom_site_fract_z
_atom_type_partial_charge
C0 C 0.1876 0.30089 0.06799 0.0
O1 O 0.18384 0.29984 0.09792 0.0
O2 O 0.16096 0.35291 0.11707 0.0
Zn3 Zn 0.15613 0.35148 0.0712 0.0
O4 O 0.16796 0.38638 0.05054 0.0
C5 C 0.09941 0.362 0.07616 0.0
O6 O 0.10899 0.38053 0.09526 0.0
O7 O 0.17749 0.32064 0.05269 0.0
C8 C 0.16654 0.41 0.06273 0.0
O9 O 0.15799 0.41237 0.09128 0.0
C10 C 0.18182 0.36174 0.13137 0.0
O11 O 0.20289 0.37092 0.11569 0.0
O12 O 0.1161 0.34616 0.06253 0.0
C13 C 0.78155 0.67312 0.56887 0.0
O14 O 0.77405 0.6669 0.59708 0.0
O15 O 0.81433 0.6303 0.62357 0.0
Zn16 Zn 0.82166 0.6302 0.57811 0.0
O17 O 0.81191 0.59404 0.55914 0.0
C18 C 0.87889 0.63317 0.59396 0.0
O19 O 0.86943 0.62775 0.6216 0.0
O20 O 0.80122 0.66017 0.55654 0.0
C21 C 0.82647 0.57333 0.56587 0.0
O22 O 0.84602 0.57603 0.58641 0.0
C23 C 0.7994 0.6136 0.63843 0.0
O24 O 0.78529 0.59499 0.62341 0.0
O25 O 0.86219 0.63574 0.57169 0.0
C26 C 0.19402 0.68378 0.91844 0.0
O27 O 0.18633 0.68816 0.88986 0.0
O28 O 0.17165 0.63167 0.86517 0.0
Zn29 Zn 0.16625 0.63164 0.91097 0.0
O30 O 0.17726 0.59563 0.92933 0.0
C31 C 0.10989 0.64578 0.89904 0.0
O32 O 0.11984 0.65365 0.87236 0.0
O33 O 0.18769 0.66135 0.93147 0.0
C34 C 0.16142 0.57525 0.92581 0.0
O35 O 0.13941 0.57814 0.90877 0.0
C36 C 0.18713 0.61589 0.8498 0.0
O37 O 0.20272 0.59818 0.86434 0.0
O38 O 0.12608 0.6367 0.91955 0.0
C39 C 0.79327 0.32333 0.44342 0.0
O40 O 0.78359 0.34842 0.44199 0.0
O41 O 0.83499 0.35326 0.37182 0.0
Zn42 Zn 0.84003 0.34959 0.41745 0.0
O43 O 0.82966 0.38423 0.43963 0.0
C44 C 0.89735 0.35576 0.41019 0.0
O45 O 0.8887 0.37313 0.38921 0.0
O46 O 0.81729 0.31859 0.43366 0.0
C47 C 0.83413 0.40806 0.42897 0.0
O48 O 0.84543 0.41071 0.40169 0.0
C49 C 0.81507 0.36495 0.35841 0.0
O50 O 0.79517 0.37541 0.37496 0.0
O51 O 0.87988 0.34229 0.42572 0.0
C52 C 0.82885 0.66285 0.97366 0.0
O53 O 0.83854 0.64308 0.99109 0.0
O54 O 0.84167 0.59497 0.94781 0.0
Zn55 Zn 0.84975 0.62946 0.92434 0.0
O56 O 0.83509 0.62633 0.88129 0.0
C57 C 0.90721 0.61652 0.92225 0.0
O58 O 0.89799 0.59122 0.92241 0.0
O59 O 0.83146 0.66125 0.94463 0.0
C60 C 0.84033 0.60575 0.86439 0.0
O61 O 0.85585 0.586 0.87524 0.0
C62 C 0.81932 0.58211 0.94418 0.0
O63 O 0.80102 0.59176 0.92485 0.0
O64 O 0.89028 0.63626 0.92312 0.0
C65 C 0.20176 0.32431 0.44988 0.0
O66 O 0.21462 0.34469 0.4364 0.0
O67 O 0.16179 0.38764 0.44313 0.0
Zn68 Zn 0.15599 0.35105 0.42295 0.0
O69 O 0.16905 0.35178 0.37913 0.0
C70 C 0.10048 0.35094 0.44456 0.0
O71 O 0.11147 0.36404 0.46792 0.0
O72 O 0.176 0.32243 0.447 0.0
C73 C 0.1594 0.36997 0.36121 0.0
O74 O 0.14181 0.38782 0.3722 0.0
C75 C 0.17955 0.4052 0.43493 0.0
O76 O 0.1958 0.39977 0.41165 0.0
O77 O 0.11577 0.34279 0.42276 0.0
C78 C 0.82367 0.31139 0.02235 0.0
O79 O 0.83695 0.32812 0.00393 0.0
O80 O 0.82989 0.38374 0.0442 0.0
Zn81 Zn 0.83964 0.35031 0.06886 0.0
O82 O 0.827 0.35438 0.1125 0.0
C83 C 0.89524 0.35542 0.0475 0.0
O84 O 0.88348 0.36782 0.02413 0.0
O85 O 0.82222 0.31693 0.05087 0.0
C86 C 0.8343 0.37484 0.12861 0.0
O87 O 0.84986 0.39376 0.11608 0.0
C88 C 0.81009 0.39962 0.05045 0.0
O89 O 0.79406 0.39392 0.07386 0.0
O90 O 0.88048 0.34591 0.06909 0.0
C91 C 0.15681 0.6679 0.51273 0.0
O92 O 0.14671 0.64757 0.49647 0.0
O93 O 0.14769 0.60053 0.53914 0.0
Zn94 Zn 0.13894 0.63454 0.56308 0.0
O95 O 0.15428 0.63161 0.60584 0.0
C96 C 0.08217 0.6192 0.56196 0.0
O97 O 0.09254 0.59485 0.55647 0.0
O98 O 0.15555 0.66688 0.54193 0.0
C99 C 0.14758 0.61162 0.62303 0.0
O100 O 0.13074 0.59294 0.61233 0.0
C101 C 0.16979 0.58724 0.54264 0.0
O102 O 0.188 0.59596 0.5626 0.0
O103 O 0.09819 0.63947 0.56549 0.0
C104 C 0.71269 0.81635 0.05582 0.0
O105 O 0.72279 0.83805 0.06967 0.0
O106 O 0.66691 0.84711 0.11271 0.0
Zn107 Zn 0.66361 0.84536 0.06678 0.0
O108 O 0.67496 0.88076 0.04678 0.0
C109 C 0.60736 0.85705 0.06398 0.0
O110 O 0.6168 0.87978 0.07625 0.0
O111 O 0.68707 0.81482 0.05149 0.0
C112 C 0.66622 0.88569 0.01978 0.0
O113 O 0.65092 0.86731 0.00592 0.0
C114 C 0.67037 0.86895 0.12814 0.0
O115 O 0.67308 0.89243 0.1136 0.0
O116 O 0.62411 0.83811 0.05715 0.0
C117 C 0.30616 0.17972 0.56663 0.0
O118 O 0.31492 0.18342 0.59493 0.0
O119 O 0.32831 0.12763 0.61872 0.0
Zn120 Zn 0.33282 0.12721 0.57276 0.0
O121 O 0.32143 0.09122 0.55465 0.0
C122 C 0.38866 0.14381 0.58242 0.0
O123 O 0.37866 0.15331 0.60837 0.0
O124 O 0.31132 0.15729 0.55301 0.0
C125 C 0.33398 0.06954 0.56254 0.0
O126 O 0.35305 0.0711 0.58379 0.0
C127 C 0.31241 0.11286 0.63482 0.0
O128 O 0.29601 0.09538 0.6211 0.0
O129 O 0.37269 0.13242 0.5632 0.0
C130 C 0.71108 0.15397 0.94286 0.0
O131 O 0.72076 0.12918 0.93837 0.0
O132 O 0.66159 0.13036 0.87473 0.0
Zn133 Zn 0.66047 0.13029 0.92095 0.0
O134 O 0.6683 0.093 0.93902 0.0
C135 C 0.60407 0.12203 0.92539 0.0
O136 O 0.61203 0.09937 0.9117 0.0
O137 O 0.68604 0.1588 0.93733 0.0
C138 C 0.68121 0.0736 0.92599 0.0
O139 O 0.69177 0.07748 0.89855 0.0
C140 C 0.68281 0.12975 0.8579 0.0
O141 O 0.70712 0.12824 0.87062 0.0
O142 O 0.62194 0.1398 0.93258 0.0
C143 C 0.27449 0.81663 0.42315 0.0
O144 O 0.26499 0.83866 0.40938 0.0
O145 O 0.32293 0.84897 0.3685 0.0
Zn146 Zn 0.32507 0.84451 0.41436 0.0
O147 O 0.31575 0.8795 0.43613 0.0
C148 C 0.37977 0.82451 0.40538 0.0
O149 O 0.3699 0.8176 0.37834 0.0
O150 O 0.30002 0.81454 0.42789 0.0
C151 C 0.33133 0.89994 0.43163 0.0
O152 O 0.3516 0.89753 0.41196 0.0
C153 C 0.30958 0.86686 0.35347 0.0
O154 O 0.29448 0.88476 0.36832 0.0
O155 O 0.36397 0.83529 0.42519 0.0
C156 C 0.30066 0.16192 0.95321 0.0
O157 O 0.28945 0.13938 0.94252 0.0
O158 O 0.34204 0.10161 0.94578 0.0
Zn159 Zn 0.34704 0.13798 0.92486 0.0
O160 O 0.33431 0.1358 0.88096 0.0
C161 C 0.40097 0.14228 0.94961 0.0
O162 O 0.38837 0.13348 0.97445 0.0
O163 O 0.32583 0.16638 0.94803 0.0
C164 C 0.34615 0.11883 0.86325 0.0
O165 O 0.36595 0.10355 0.8744 0.0
C166 C 0.32516 0.08336 0.93719 0.0
O167 O 0.30956 0.08796 0.9131 0.0
O168 O 0.38711 0.14671 0.92536 0.0
C169 C 0.68386 0.82178 0.45098 0.0
O170 O 0.69415 0.84662 0.44928 0.0
O171 O 0.64833 0.88265 0.44179 0.0
Zn172 Zn 0.63905 0.8475 0.41992 0.0
O173 O 0.64929 0.85089 0.37514 0.0
C174 C 0.58085 0.85672 0.42945 0.0
O175 O 0.58845 0.88232 0.43302 0.0
O176 O 0.6605 0.8171 0.43934 0.0
C177 C 0.63156 0.8576 0.3551 0.0
O178 O 0.60625 0.86199 0.36385 0.0
C179 C 0.64516 0.90602 0.42937 0.0
O180 O 0.63502 0.90772 0.40143 0.0
O181 O 0.59884 0.83852 0.42414 0.0
C182 C 0.30247 0.82241 0.03961 0.0
O183 O 0.29006 0.84257 0.05397 0.0
O184 O 0.3438 0.88547 0.04277 0.0
Zn185 Zn 0.34884 0.84951 0.06442 0.0
O186 O 0.33529 0.8522 0.10792 0.0
C187 C 0.4032 0.84476 0.04096 0.0
O188 O 0.39101 0.85293 0.01558 0.0
O189 O 0.32833 0.82063 0.04123 0.0
C190 C 0.34662 0.86945 0.12572 0.0
O191 O 0.36654 0.88478 0.11495 0.0
C192 C 0.32577 0.90302 0.05011 0.0
O193 O 0.30919 0.89784 0.07319 0.0
O194 O 0.38895 0.84102 0.06506 0.0
C195 C 0.69023 0.17425 0.55434 0.0
O196 O 0.69959 0.16551 0.58096 0.0
O197 O 0.65942 0.09746 0.54543 0.0
Zn198 Zn 0.64898 0.13332 0.56536 0.0
O199 O 0.65917 0.13382 0.6104 0.0
C200 C 0.59158 0.1197 0.55946 0.0
O201 O 0.60098 0.09449 0.55945 0.0
O202 O 0.66872 0.16354 0.54323 0.0
C203 C 0.64385 0.12341 0.63094 0.0
O204 O 0.62072 0.1118 0.62284 0.0
C205 C 0.65954 0.07468 0.55967 0.0
O206 O 0.65353 0.07401 0.58911 0.0
O207 O 0.6083 0.13959 0.56129 0.0
C208 C 0.0519 0.3795 0.08316 0.0
C209 C 0.06965 0.3599 0.0706 0.0
C210 C 0.02363 0.37795 0.07827 0.0
C211 C 0.0128 0.35616 0.06056 0.0
C212 C 0.03057 0.33631 0.04776 0.0
C213 C 0.05883 0.33846 0.05286 0.0
C214 C 0.00534 0.39961 0.09215 0.0
C215 C 0.0197 0.31272 0.02887 0.0
C216 C 0.93792 0.3402 0.07424 0.0
C217 C 0.9254 0.35397 0.04961 0.0
C218 C 0.96644 0.34006 0.07757 0.0
C219 C 0.9828 0.35413 0.05582 0.0
C220 C 0.97036 0.36748 0.03049 0.0
C221 C 0.94179 0.36719 0.02765 0.0
C222 C 0.979 0.32548 0.10481 0.0
C223 C 0.98717 0.38277 0.00689 0.0
H224 H 0.06009 0.3962 0.09678 0.0
H225 H 0.07243 0.32322 0.04311 0.0
H226 H 0.99335 0.40987 0.07376 0.0
H227 H 0.99053 0.38996 0.10818 0.0
H228 H 0.01705 0.41546 0.10494 0.0
H229 H 0.03625 0.29911 0.02035 0.0
H230 H 0.00532 0.30033 0.04291 0.0
H231 H 0.00807 0.32064 0.00881 0.0
H232 H 0.92542 0.32981 0.09124 0.0
H233 H 0.9323 0.37786 0.00853 0.0
H234 H 0.98928 0.34059 0.12 0.0
H235 H 0.99482 0.3108 0.0969 0.0
H236 H 0.96357 0.31415 0.11861 0.0
H237 H -0.00221 0.40023 0.01808 0.0
H238 H 0.9745 0.39084 0.98768 0.0
H239 H 0.00314 0.36914 -0.0028 0.0
C240 C 0.92688 0.63014 0.61318 0.0
C241 C 0.90873 0.63408 0.58856 0.0
C242 C 0.95517 0.62908 0.60832 0.0
C243 C 0.96557 0.63207 0.5781 0.0
C244 C 0.94745 0.63678 0.55324 0.0
C245 C 0.9192 0.63772 0.55876 0.0
C246 C 0.97388 0.62404 0.63542 0.0
C247 C 0.95785 0.64015 0.52072 0.0
C248 C 0.04104 0.64878 0.57045 0.0
C249 C 0.05226 0.62277 0.56488 0.0
C250 C 0.01277 0.65223 0.57422 0.0
C251 C 0.99536 0.62911 0.57246 0.0
C252 C 0.00649 0.60289 0.5664 0.0
C253 C 0.03481 0.60004 0.56264 0.0
C254 C 0.00157 0.68051 0.58059 0.0
C255 C 0.98855 0.57775 0.56442 0.0
H256 H 0.91898 0.6274 0.6363 0.0
H257 H 0.90531 0.64082 0.53962 0.0
H258 H 0.98484 0.60433 0.63229 0.0
H259 H 0.98955 0.64043 0.63682 0.0
H260 H 0.96261 0.62327 0.65762 0.0
H261 H 0.94122 0.64511 0.50421 0.0
H262 H 0.97341 0.65668 0.51977 0.0
H263 H 0.96796 0.62096 0.51312 0.0
H264 H 0.05437 0.66646 0.57212 0.0
H265 H 0.04329 0.57989 0.55831 0.0
H266 H 0.9917 0.68088 0.60358 0.0
H267 H 0.98564 0.68579 0.56338 0.0
H268 H 0.01771 0.69652 0.57999 0.0
H269 H 0.97805 0.5744 0.58676 0.0
H270 H 0.00032 0.55898 0.55861 0.0
H271 H 0.97248 0.58077 0.54671 0.0
C272 C 0.94713 0.64854 0.92504 0.0
C273 C 0.93691 0.62198 0.92038 0.0
C274 C 0.97522 0.65402 0.92282 0.0
C275 C 0.99345 0.6325 0.91543 0.0
C276 C 0.98328 0.60563 0.91082 0.0
C277 C 0.95514 0.60067 0.91352 0.0
C278 C 0.98539 0.68286 0.92822 0.0
C279 C 0.00208 0.58219 0.90262 0.0
C280 C 0.06206 0.64887 0.87916 0.0
C281 C 0.07998 0.64473 0.90395 0.0
C282 C 0.03378 0.64548 0.88273 0.0
C283 C 0.02314 0.63805 0.91188 0.0
C284 C 0.04101 0.63479 0.93726 0.0
C285 C 0.06926 0.63803 0.93296 0.0
C286 C 0.01537 0.64895 0.85507 0.0
C287 C 0.03037 0.6272 0.96878 0.0
H288 H 0.93317 0.66509 0.93051 0.0
H289 H 0.9474 0.58012 0.90979 0.0
H290 H 0.00098 0.68292 0.94678 0.0
H291 H 0.9954 0.69076 0.90709 0.0
H292 H 0.96865 0.69711 0.93473 0.0
H293 H 0.99093 0.56249 0.89995 0.0
H294 H 0.01287 0.58679 0.88074 0.0
H295 H 0.01789 0.57963 0.92071 0.0
H296 H 0.07018 0.65399 0.85665 0.0
H297 H 0.08297 0.63492 0.95226 0.0
H298 H -0.00091 0.66412 0.86011 0.0
H299 H 0.00514 0.6292 0.84977 0.0
H300 H 0.02674 0.6558 0.8343 0.0
H301 H 0.01414 0.64174 0.97595 0.0
H302 H 0.04674 0.6272 0.98651 0.0
H303 H 0.02104 0.60648 0.96801 0.0
C304 C 0.05886 0.33228 0.41845 0.0
C305 C 0.07046 0.34786 0.44225 0.0
C306 C 0.03044 0.33117 0.41436 0.0
C307 C 0.01325 0.3462 0.43439 0.0
C308 C 0.02476 0.36115 0.45913 0.0
C309 C 0.05324 0.3617 0.46285 0.0
C310 C 0.01888 0.31476 0.38791 0.0
C311 C 0.00708 0.37756 0.48086 0.0
C312 C 0.94552 0.37096 0.40245 0.0
C313 C 0.92697 0.35274 0.41613 0.0
C314 C 0.97362 0.369 0.40824 0.0
C315 C 0.98348 0.34812 0.42798 0.0
C316 C 0.96493 0.32943 0.44162 0.0
C317 C 0.93683 0.33205 0.43566 0.0
C318 C 0.99274 0.38945 0.39342 0.0
C319 C 0.97478 0.30675 0.46254 0.0
H320 H 0.07202 0.32135 0.40257 0.0
H321 H 0.06202 0.37375 0.48133 0.0
H322 H 0.00241 0.30096 0.39618 0.0
H323 H 0.00967 0.32883 0.37071 0.0
H324 H 0.03474 0.30222 0.37622 0.0
H325 H 0.019 0.38647 0.5002 0.0
H326 H -0.00291 0.39452 0.46806 0.0
H327 H 0.99062 0.36449 0.49052 0.0
H328 H 0.93807 0.38707 0.38742 0.0
H329 H 0.92261 0.31784 0.44623 0.0
H330 H 0.00802 0.37859 0.37904 0.0
H331 H 0.00414 0.4008 0.41146 0.0
H332 H 0.98176 0.4045 0.37872 0.0
H333 H 0.98981 0.29373 0.45022 0.0
H334 H 0.95779 0.29356 0.47081 0.0
H335 H 0.9854 0.31561 0.48279 0.0
C336 C 0.44633 0.83448 0.06969 0.0
C337 C 0.43335 0.84256 0.04233 0.0
C338 C 0.4749 0.83478 0.07224 0.0
C339 C 0.49087 0.84342 0.04685 0.0
C340 C 0.47797 0.85058 0.01879 0.0
C341 C 0.44934 0.85002 0.01685 0.0
C342 C 0.48795 0.82685 0.10249 0.0
C343 C 0.49433 0.85989 0.99122 0.0
C344 C 0.55969 0.8752 0.06511 0.0
C345 C 0.57767 0.85356 0.05877 0.0
C346 C 0.53144 0.8722 0.06102 0.0
C347 C 0.52087 0.8469 0.0504 0.0
C348 C 0.53889 0.82501 0.04369 0.0
C349 C 0.56713 0.82861 0.04791 0.0
C350 C 0.51286 0.89606 0.06832 0.0
C351 C 0.52832 0.79773 0.03238 0.0
H352 H 0.43414 0.82853 0.08944 0.0
H353 H 0.4395 0.85621 -0.00441 0.0
H354 H 0.50404 0.81119 0.0987 0.0
H355 H 0.49797 0.84503 0.11288 0.0
H356 H 0.47284 0.81861 0.1192 0.0
H357 H 0.48139 0.86272 0.97043 0.0
H358 H 0.50456 0.87963 -0.00349 0.0
H359 H 0.51059 0.84478 0.98586 0.0
H360 H 0.56766 0.89457 0.07342 0.0
H361 H 0.5809 0.81178 0.04297 0.0
H362 H 0.49838 0.89024 0.08686 0.0
H363 H 0.50052 0.9015 0.04775 0.0
H364 H 0.52438 0.91452 0.07582 0.0
H365 H 0.51445 0.78864 0.04984 0.0
H366 H 0.54507 0.78296 0.02762 0.0
H367 H 0.51622 0.80063 0.01101 0.0
C368 C 0.55128 0.15108 0.55483 0.0
C369 C 0.56178 0.1247 0.55991 0.0
C370 C 0.52307 0.15614 0.55656 0.0
C371 C 0.50509 0.1344 0.56404 0.0
C372 C 0.51557 0.10769 0.56885 0.0
C373 C 0.54376 0.10313 0.56649 0.0
C374 C 0.51254 0.18478 0.55079 0.0
C375 C 0.49706 0.08403 0.57724 0.0
C376 C 0.43658 0.14914 0.60125 0.0
C377 C 0.41848 0.14398 0.5769 0.0
C378 C 0.46491 0.14681 0.59715 0.0
C379 C 0.47537 0.13955 0.56788 0.0
C380 C 0.45726 0.13549 0.54287 0.0
C381 C 0.42899 0.13755 0.54773 0.0
C382 C 0.48357 0.15101 0.62447 0.0
C383 C 0.46771 0.12816 0.51121 0.0
H384 H 0.56511 0.1678 0.54956 0.0
H385 H 0.55174 0.08272 0.57058 0.0
H386 H 0.49657 0.18443 0.53265 0.0
H387 H 0.5029 0.19292 0.57202 0.0
H388 H 0.52903 0.19907 0.54357 0.0
H389 H 0.50843 0.06445 0.57987 0.0
H390 H 0.48637 0.08852 0.5992 0.0
H391 H 0.48117 0.08127 0.55928 0.0
H392 H 0.4286 0.15407 0.62386 0.0
H393 H 0.41509 0.13375 0.52876 0.0
H394 H 0.49951 0.16641 0.61894 0.0
H395 H 0.49421 0.13151 0.62996 0.0
H396 H 0.47231 0.1579 0.64528 0.0
H397 H 0.48377 0.14285 0.50391 0.0
H398 H 0.45117 0.12811 0.49366 0.0
H399 H 0.47716 0.10749 0.51179 0.0
C400 C 0.5555 0.10649 0.9243 0.0
C401 C 0.57469 0.12688 0.93139 0.0
C402 C 0.5275 0.11085 0.92888 0.0
C403 C 0.51841 0.13626 0.94079 0.0
C404 C 0.53765 0.15685 0.94837 0.0
C405 C 0.56562 0.1519 0.94361 0.0
C406 C 0.5076 0.08832 0.92061 0.0
C407 C 0.52867 0.18419 0.9611 0.0
C408 C 0.44459 0.15272 0.92195 0.0
C409 C 0.43118 0.14396 0.94877 0.0
C410 C 0.47315 0.15152 0.91958 0.0
C411 C 0.48865 0.14124 0.94459 0.0
C412 C 0.47535 0.13356 0.97222 0.0
C413 C 0.44675 0.13506 0.974 0.0
C414 C 0.48663 0.16007 0.8898 0.0
C415 C 0.4912 0.12253 -0.00062 0.0
H416 H 0.56232 0.08706 0.91495 0.0
H417 H 0.58034 0.16776 0.94916 0.0
H418 H 0.49502 0.08286 0.94097 0.0
H419 H 0.49343 0.0956 0.9024 0.0
H420 H 0.51805 0.06954 0.91224 0.0
H421 H 0.54624 0.19773 0.96667 0.0
H422 H 0.51542 0.1948 0.94412 0.0
H423 H 0.51634 0.18112 0.98227 0.0
H424 H 0.43274 0.1598 0.90241 0.0
H425 H 0.43657 0.12835 -0.00514 0.0
H426 H 0.49559 0.14183 0.87836 0.0
H427 H 0.50359 0.1746 0.89441 0.0
H428 H 0.472 0.16988 0.87362 0.0
H429 H 0.50018 0.10235 0.99333 0.0
H430 H 0.47815 0.11989 0.0201 0.0
H431 H 0.50836 0.13645 0.00521 0.0
C432 C 0.41994 0.82765 0.44084 0.0
C433 C 0.40954 0.82358 0.41109 0.0
C434 C 0.44815 0.83021 0.44589 0.0
C435 C 0.46627 0.82915 0.42051 0.0
C436 C 0.45597 0.82385 0.39063 0.0
C437 C 0.42772 0.82089 0.38632 0.0
C438 C 0.45845 0.83527 0.47818 0.0
C439 C 0.47461 0.82287 0.36293 0.0
C440 C 0.53188 0.87021 0.42503 0.0
C441 C 0.5515 0.84957 0.42897 0.0
C442 C 0.50406 0.86379 0.42257 0.0
C443 C 0.49559 0.83609 0.42465 0.0
C444 C 0.5152 0.81521 0.42955 0.0
C445 C 0.54301 0.82218 0.43136 0.0
C446 C 0.48378 0.88661 0.41693 0.0
C447 C 0.50684 0.78553 0.43247 0.0
H448 H 0.40598 0.8295 0.46011 0.0
H449 H 0.41983 0.81777 0.36326 0.0
H450 H 0.4758 0.82142 0.48351 0.0
H451 H 0.46609 0.85662 0.48006 0.0
H452 H 0.44222 0.8322 0.49573 0.0
H453 H 0.46364 0.8166 0.34166 0.0
H454 H 0.48371 0.84343 0.35906 0.0
H455 H 0.49169 0.80837 0.36699 0.0
H456 H 0.53832 0.8914 0.42302 0.0
H457 H 0.5581 0.80617 0.4346 0.0
H458 H 0.46807 0.88676 0.43533 0.0
H459 H 0.47303 0.88314 0.39476 0.0
H460 H 0.49369 0.9071 0.41614 0.0
H461 H 0.49106 0.78325 0.45065 0.0
H462 H 0.5244 0.77199 0.43814 0.0
H463 H 0.49761 0.77841 0.41055 0.0
C464 C 0.20231 0.37597 0.18188 0.0
C465 C 0.1816 0.3625 0.16544 0.0
C466 C 0.20133 0.37778 0.21417 0.0
C467 C 0.17922 0.36571 0.23026 0.0
C468 C 0.1586 0.3516 0.21381 0.0
C469 C 0.16001 0.35022 0.18165 0.0
C470 C 0.22363 0.39304 0.231 0.0
C471 C 0.13476 0.33832 0.23016 0.0
C472 C 0.1827 0.34914 0.31554 0.0
C473 C 0.1667 0.3702 0.32814 0.0
C474 C 0.18789 0.34799 0.28379 0.0
C475 C 0.17691 0.36845 0.26424 0.0
C476 C 0.16172 0.39036 0.27698 0.0
C477 C 0.15674 0.39095 0.30878 0.0
C478 C 0.20415 0.32428 0.27101 0.0
C479 C 0.1498 0.41265 0.25688 0.0
H480 H 0.21903 0.38551 0.16952 0.0
H481 H 0.144 0.33962 0.16916 0.0
H482 H 0.21481 0.41104 0.24303 0.0
H483 H 0.23292 0.37968 0.24885 0.0
H484 H 0.24 0.40028 0.21524 0.0
H485 H 0.12094 0.32732 0.21405 0.0
H486 H 0.14228 0.32353 0.24764 0.0
H487 H 0.12271 0.35414 0.2425 0.0
H488 H 0.19056 0.33309 0.33037 0.0
H489 H 0.14455 0.40742 0.31835 0.0
H490 H 0.2208 0.33188 0.25592 0.0
H491 H 0.19067 0.31118 0.25667 0.0
H492 H 0.21324 0.3114 0.28948 0.0
H493 H 0.16586 0.42153 0.24184 0.0
H494 H 0.14044 0.42941 0.27059 0.0
H495 H 0.13388 0.4038 0.24163 0.0
C496 C 0.78486 0.59504 0.68981 0.0
C497 C 0.80088 0.61323 0.67247 0.0
C498 C 0.78813 0.59302 0.72189 0.0
C499 C 0.8081 0.60933 0.73677 0.0
C500 C 0.82376 0.62825 0.71948 0.0
C501 C 0.81983 0.6301 0.68763 0.0
C502 C 0.77076 0.57297 0.73974 0.0
C503 C 0.8454 0.6459 0.73446 0.0
C504 C 0.80947 0.62276 0.82268 0.0
C505 C 0.83013 0.60478 0.83238 0.0
C506 C 0.80095 0.62341 0.79184 0.0
C507 C 0.81374 0.60598 0.77016 0.0
C508 C 0.83392 0.58711 0.78003 0.0
C509 C 0.84174 0.5866 0.8111 0.0
C510 C 0.77905 0.64348 0.78224 0.0
C511 C 0.84824 0.5684 0.75752 0.0
H512 H 0.7701 0.58203 0.67828 0.0
H513 H 0.83229 0.64426 0.67448 0.0
H514 H 0.78384 0.55641 0.74921 0.0
H515 H 0.76092 0.58338 0.75956 0.0
H516 H 0.75461 0.56352 0.72522 0.0
H517 H 0.85536 0.66005 0.71783 0.0
H518 H 0.83629 0.65824 0.75327 0.0
H519 H 0.86137 0.63268 0.74489 0.0
H520 H 0.80018 0.63663 0.83912 0.0
H521 H 0.85769 0.57264 0.81848 0.0
H522 H 0.76324 0.63303 0.76817 0.0
H523 H 0.78819 0.6598 0.76773 0.0
H524 H 0.76898 0.65327 0.80235 0.0
H525 H 0.83306 0.55673 0.7438 0.0
H526 H 0.86208 0.55364 0.7692 0.0
H527 H 0.86047 0.58085 0.74114 0.0
C528 C 0.2018 0.59853 0.79797 0.0
C529 C 0.18533 0.61592 0.81576 0.0
C530 C 0.19859 0.59712 0.76583 0.0
C531 C 0.17829 0.6133 0.75133 0.0
C532 C 0.1621 0.63137 0.7691 0.0
C533 C 0.16591 0.63256 0.80102 0.0
C534 C 0.21644 0.57788 0.74751 0.0
C535 C 0.14014 0.64889 0.75452 0.0
C536 C 0.17761 0.62847 0.66567 0.0
C537 C 0.15739 0.61031 0.65523 0.0
C538 C 0.18564 0.62876 0.6967 0.0
C539 C 0.17293 0.61067 0.71778 0.0
C540 C 0.15321 0.59164 0.70717 0.0
C541 C 0.14578 0.5916 0.67597 0.0
C542 C 0.20698 0.64911 0.70711 0.0
C543 C 0.13906 0.57215 0.72901 0.0
H544 H 0.21692 0.58569 0.80916 0.0
H545 H 0.15311 0.64612 0.81453 0.0
H546 H 0.20371 0.56144 0.73724 0.0
H547 H 0.22633 0.58905 0.72823 0.0
H548 H 0.23257 0.56822 0.76189 0.0
H549 H 0.12982 0.66241 0.77149 0.0
H550 H 0.14907 0.66188 0.73611 0.0
H551 H 0.1245 0.63558 0.74361 0.0
H552 H 0.18688 0.64281 0.6497 0.0
H553 H 0.13019 0.57746 0.66806 0.0
H554 H 0.22296 0.63869 0.72097 0.0
H555 H 0.19735 0.66479 0.72209 0.0
H556 H 0.21692 0.65971 0.68742 0.0
H557 H 0.15433 0.56047 0.74258 0.0
H558 H 0.1256 0.55739 0.71678 0.0
H559 H 0.12644 0.58397 0.74557 0.0
C560 C 0.81148 0.35518 0.17516 0.0
C561 C 0.82702 0.37617 0.16165 0.0
C562 C 0.80671 0.35467 0.20699 0.0
C563 C 0.81773 0.37566 0.22574 0.0
C564 C 0.83222 0.39764 0.21207 0.0
C565 C 0.83671 0.39763 0.18015 0.0
C566 C 0.79108 0.33091 0.22072 0.0
C567 C 0.84416 0.42046 0.23132 0.0
C568 C 0.79417 0.38146 0.30896 0.0
C569 C 0.81517 0.36753 0.32445 0.0
C570 C 0.79466 0.38436 0.27675 0.0
C571 C 0.81663 0.37304 0.25979 0.0
C572 C 0.83779 0.3589 0.27531 0.0
C573 C 0.8368 0.35633 0.3074 0.0
C574 C 0.77176 0.39957 0.26088 0.0
C575 C 0.86156 0.34648 0.25803 0.0
H576 H 0.80371 0.33863 0.16101 0.0
H577 H 0.84855 0.41404 0.16987 0.0
H578 H 0.80516 0.31803 0.2346 0.0
H579 H 0.77488 0.33847 0.23643 0.0
H580 H 0.7815 0.31782 0.20279 0.0
H581 H 0.85233 0.43744 0.21696 0.0
H582 H 0.8285 0.42886 0.24718 0.0
H583 H 0.86104 0.41226 0.24571 0.0
H584 H 0.77742 0.39021 0.32197 0.0
H585 H 0.85314 0.34554 0.31914 0.0
H586 H 0.76163 0.38597 0.24388 0.0
H587 H 0.78011 0.41733 0.24798 0.0
H588 H 0.75613 0.40711 0.27738 0.0
H589 H 0.85399 0.33128 0.24106 0.0
H590 H 0.87636 0.33614 0.27359 0.0
H591 H 0.87254 0.36266 0.24498 0.0
C592 C 0.66668 0.85829 0.31314 0.0
C593 C 0.63929 0.86066 0.32235 0.0
C594 C 0.67408 0.86075 0.28203 0.0
C595 C 0.65358 0.86551 0.25967 0.0
C596 C 0.62597 0.86829 0.26887 0.0
C597 C 0.61917 0.8659 0.3001 0.0
C598 C 0.70375 0.85783 0.27304 0.0
C599 C 0.60351 0.87324 0.24563 0.0
C600 C 0.67039 0.89207 0.17966 0.0
C601 C 0.66873 0.86797 0.16215 0.0
C602 C 0.66645 0.89149 0.21169 0.0
C603 C 0.66064 0.86625 0.22642 0.0
C604 C 0.65989 0.84176 0.20902 0.0
C605 C 0.66401 0.84291 0.17713 0.0
C606 C 0.66761 0.91798 0.22961 0.0
C607 C 0.65373 0.81444 0.22391 0.0
H608 H 0.68236 0.85441 0.33023 0.0
H609 H 0.59797 0.8678 0.30702 0.0
H610 H 0.70636 0.83958 0.25811 0.0
H611 H 0.71041 0.87595 0.25951 0.0
H612 H 0.71735 0.85564 0.29338 0.0
H613 H 0.58319 0.87581 0.25667 0.0
H614 H 0.60805 0.89188 0.23189 0.0
H615 H 0.60239 0.85575 0.22936 0.0
H616 H 0.67415 0.91149 0.16829 0.0
H617 H 0.66283 0.82415 0.16382 0.0
H618 H 0.68162 0.91588 0.24957 0.0
H619 H 0.64704 0.92283 0.23886 0.0
H620 H 0.67456 0.93547 0.21519 0.0
H621 H 0.66792 0.81068 0.24338 0.0
H622 H 0.65541 0.79712 0.20741 0.0
H623 H 0.63269 0.81465 0.23345 0.0
C624 C 0.31708 0.13294 0.81846 0.0
C625 C 0.33823 0.11668 0.83044 0.0
C626 C 0.31031 0.13198 0.78706 0.0
C627 C 0.32509 0.1144 0.76721 0.0
C628 C 0.34594 0.0974 0.77932 0.0
C629 C 0.35224 0.09873 0.81079 0.0
C630 C 0.2879 0.15035 0.77497 0.0
C631 C 0.36219 0.07841 0.75885 0.0
C632 C 0.29846 0.09666 0.6874 0.0
C633 C 0.314 0.11431 0.66883 0.0
C634 C 0.30133 0.09687 0.71961 0.0
C635 C 0.32018 0.11513 0.73345 0.0
C636 C 0.33538 0.13345 0.71488 0.0
C637 C 0.33207 0.13285 0.68285 0.0
C638 C 0.28469 0.07714 0.73876 0.0
C639 C 0.35569 0.15325 0.72876 0.0
H640 H 0.30605 0.14676 0.83353 0.0
H641 H 0.36852 0.086 0.81986 0.0
H642 H 0.29672 0.16578 0.75903 0.0
H643 H 0.27281 0.13818 0.76167 0.0
H644 H 0.27702 0.16131 0.79374 0.0
H645 H 0.37664 0.06541 0.77213 0.0
H646 H 0.34824 0.06488 0.74565 0.0
H647 H 0.37403 0.09062 0.7419 0.0
H648 H 0.28441 0.08232 0.67677 0.0
H649 H 0.34409 0.14667 0.66874 0.0
H650 H 0.27347 0.08838 0.757 0.0
H651 H 0.2985 0.06238 0.75043 0.0
H652 H 0.26975 0.06545 0.72467 0.0
H653 H 0.34554 0.16619 0.74637 0.0
H654 H 0.36512 0.16686 0.7112 0.0
H655 H 0.37219 0.14169 0.74055 0.0
C656 C 0.69864 0.11679 0.80521 0.0
C657 C 0.67975 0.13022 0.82415 0.0
C658 C 0.69466 0.11555 0.7732 0.0
C659 C 0.67167 0.12872 0.75997 0.0
C660 C 0.65316 0.14321 0.77898 0.0
C661 C 0.65722 0.14345 0.8109 0.0
C662 C 0.71446 0.09939 0.75371 0.0
C663 C 0.62879 0.15809 0.76565 0.0
C664 C 0.67019 0.1442 0.6743 0.0
C665 C 0.65205 0.12409 0.66361 0.0
C666 C 0.67711 0.14577 0.70562 0.0
C667 C 0.66611 0.12637 0.72647 0.0
C668 C 0.6485 0.10548 0.71557 0.0
C669 C 0.64141 0.10481 0.6843 0.0
C670 C 0.69544 0.1687 0.71654 0.0
C671 C 0.63683 0.08407 0.73701 0.0
H672 H 0.71598 0.10642 0.81551 0.0
H673 H 0.64275 0.15408 0.82555 0.0
H674 H 0.70362 0.08197 0.74269 0.0
H675 H 0.72273 0.11241 0.73495 0.0
H676 H 0.73181 0.09116 0.76739 0.0
H677 H 0.61756 0.1701 0.78332 0.0
H678 H 0.63545 0.17222 0.74707 0.0
H679 H 0.61445 0.14311 0.75524 0.0
H680 H 0.67836 0.1592 0.65833 0.0
H681 H 0.62761 0.08906 0.67601 0.0
H682 H 0.71322 0.16025 0.72924 0.0
H683 H 0.68406 0.18203 0.73278 0.0
H684 H 0.70309 0.18153 0.69722 0.0
H685 H 0.65349 0.07407 0.75023 0.0
H686 H 0.62517 0.06802 0.72448 0.0
H687 H 0.62298 0.09395 0.7539 0.0
C688 C 0.3529 0.88829 0.17877 0.0
C689 C 0.33826 0.87151 0.15838 0.0
C690 C 0.34639 0.88907 0.21021 0.0
C691 C 0.32464 0.87278 0.22148 0.0
C692 C 0.3091 0.85661 0.20085 0.0
C693 C 0.31615 0.85611 0.16953 0.0
C694 C 0.36349 0.9065 0.23154 0.0
C695 C 0.28565 0.8391 0.21203 0.0
C696 C 0.32986 0.84957 0.3045 0.0
C697 C 0.31234 0.86798 0.31954 0.0
C698 C 0.33376 0.8508 0.27259 0.0
C699 C 0.31972 0.87086 0.25517 0.0
C700 C 0.30165 0.88925 0.27004 0.0
C701 C 0.29819 0.88763 0.30213 0.0
C702 C 0.35328 0.83085 0.2576 0.0
C703 C 0.28625 0.91082 0.25211 0.0
H704 H 0.36994 0.90034 0.17032 0.0
H705 H 0.30458 0.84326 0.15388 0.0
H706 H 0.3502 0.91999 0.2456 0.0
H707 H 0.37493 0.8931 0.2477 0.0
H708 H 0.37839 0.91946 0.21885 0.0
H709 H 0.27413 0.82962 0.19272 0.0
H710 H 0.29359 0.8225 0.22706 0.0
H711 H 0.27133 0.85153 0.22604 0.0
H712 H 0.34089 0.83429 0.31771 0.0
H713 H 0.28459 0.90189 0.31357 0.0
H714 H 0.37013 0.84222 0.24624 0.0
H715 H 0.34253 0.81898 0.23948 0.0
H716 H 0.36228 0.81622 0.27439 0.0
H717 H 0.3009 0.92507 0.24097 0.0
H718 H 0.27222 0.92291 0.26693 0.0
H719 H 0.27415 0.90106 0.23348 0.0
C720 C 0.25642 0.17666 0.97662 0.0
C721 C 0.28424 0.18164 0.97123 0.0
C722 C 0.24048 0.19529 0.99339 0.0
C723 C 0.25269 0.21944 0.00504 0.0
C724 C 0.28084 0.22444 4e-05 0.0
C725 C 0.29629 0.20547 0.98316 0.0
C726 C 0.2105 0.18932 -0.00174 0.0
C727 C 0.29454 0.25001 0.01216 0.0
C728 C 0.20716 0.28078 0.01997 0.0
C729 C 0.20391 0.27969 0.05205 0.0
C730 C 0.2229 0.26122 0.00442 0.0
C731 C 0.23576 0.24006 0.02135 0.0
C732 C 0.2325 0.23871 0.05371 0.0
C733 C 0.21657 0.25856 0.06871 0.0
C734 C 0.22587 0.26327 0.96985 0.0
C735 C 0.24596 0.2164 0.07247 0.0
H736 H 0.24697 0.15825 0.96756 0.0
H737 H 0.31781 0.20942 0.97919 0.0
H738 H 0.20562 0.18957 0.02321 0.0
H739 H 0.19798 0.20551 0.98716 0.0
H740 H 0.20436 0.16914 0.98863 0.0
H741 H 0.31682 0.25034 0.00725 0.0
H742 H 0.28507 0.26841 0.00157 0.0
H743 H 0.29151 0.2516 0.03742 0.0
H744 H 0.19742 0.29701 0.00689 0.0
H745 H 0.21418 0.25759 0.0935 0.0
H746 H 0.21843 0.24416 0.95884 0.0
H747 H 0.24774 0.26558 0.96365 0.0
H748 H 0.21435 0.28088 0.96008 0.0
H749 H 0.23914 0.19599 0.06424 0.0
H750 H 0.24124 0.21812 0.09742 0.0
H751 H 0.26846 0.21731 0.06944 0.0
C752 C 0.77415 0.70008 0.52063 0.0
C753 C 0.76728 0.69491 0.55147 0.0
C754 C 0.76083 0.72062 0.50375 0.0
C755 C 0.74024 0.73644 0.51811 0.0
C756 C 0.73322 0.73139 0.54922 0.0
C757 C 0.7468 0.71062 0.56554 0.0
C758 C 0.76875 0.72536 0.47055 0.0
C759 C 0.71139 0.74795 0.56528 0.0
C760 C 0.72281 0.80572 0.48358 0.0
C761 C 0.69869 0.7998 0.46745 0.0
C762 C 0.73656 0.78527 0.5002 0.0
C763 C 0.72599 0.75826 0.50051 0.0
C764 C 0.70183 0.75207 0.48401 0.0
C765 C 0.68842 0.77295 0.46773 0.0
C766 C 0.76227 0.7926 0.51762 0.0
C767 C 0.69007 0.72344 0.48367 0.0
H768 H 0.78992 0.688 0.50955 0.0
H769 H 0.74141 0.70678 0.58936 0.0
H770 H 0.75067 0.72256 0.45544 0.0
H771 H 0.77594 0.74675 0.46742 0.0
H772 H 0.78513 0.7112 0.46278 0.0
H773 H 0.70846 0.74155 0.58962 0.0
H774 H 0.71687 0.77002 0.56484 0.0
H775 H 0.69165 0.74574 0.55295 0.0
H776 H 0.73084 0.82643 0.48354 0.0
H777 H 0.66982 0.7682 0.45526 0.0
H778 H 0.77958 0.77988 0.50939 0.0
H779 H 0.75952 0.78813 0.54248 0.0
H780 H 0.76783 0.81456 0.51496 0.0
H781 H 0.70542 0.70879 0.47457 0.0
H782 H 0.67129 0.72196 0.46939 0.0
H783 H 0.68507 0.71689 0.50748 0.0
C784 C 0.29998 0.78185 0.00452 0.0
C785 C 0.2866 0.80245 0.02124 0.0
C786 C 0.28517 0.76289 0.9869 0.0
C787 C 0.2563 0.76456 0.98607 0.0
C788 C 0.24268 0.78538 0.00275 0.0
C789 C 0.258 0.80411 0.02012 0.0
C790 C 0.30038 0.74095 0.96936 0.0
C791 C 0.21189 0.78771 0.00248 0.0
C792 C 0.21828 0.72895 0.92117 0.0
C793 C 0.20992 0.7046 0.93555 0.0
C794 C 0.23345 0.74869 0.93732 0.0
C795 C 0.2403 0.74395 0.96856 0.0
C796 C 0.23187 0.71946 0.9832 0.0
C797 C 0.21682 0.70007 0.96652 0.0
C798 C 0.24219 0.77459 0.92099 0.0
C799 C 0.23874 0.71373 0.01652 0.0
H800 H 0.32209 0.78049 0.00518 0.0
H801 H 0.24751 0.82 0.03294 0.0
H802 H 0.2942 0.72039 0.97782 0.0
H803 H 0.29504 0.74196 0.94455 0.0
H804 H 0.3229 0.74294 0.97174 0.0
H805 H 0.20448 0.80546 0.01614 0.0
H806 H 0.20442 0.78988 0.97848 0.0
H807 H 0.20269 0.76872 0.01202 0.0
H808 H 0.21305 0.73258 0.89725 0.0
H809 H 0.21041 0.68133 0.97784 0.0
H810 H 0.26479 0.77641 0.92145 0.0
H811 H 0.23382 0.79276 0.93311 0.0
H812 H 0.23524 0.77515 0.89664 0.0
H813 H 0.26123 0.71373 0.01974 0.0
H814 H 0.23055 0.6937 0.02451 0.0
H815 H 0.23028 0.73015 0.03139 0.0
C816 C 0.72621 0.2105 0.55133 0.0
C817 C 0.70471 0.19614 0.53735 0.0
C818 C 0.74018 0.23126 0.53548 0.0
C819 C 0.73261 0.23763 0.50483 0.0
C820 C 0.71098 0.22318 0.49054 0.0
C821 C 0.69719 0.20267 0.50703 0.0
C822 C 0.76302 0.24642 0.55154 0.0
C823 C 0.70251 0.22929 0.45779 0.0
C824 C 0.75301 0.30743 0.47396 0.0
C825 C 0.77702 0.3012 0.45777 0.0
C826 C 0.73816 0.28687 0.48912 0.0
C827 C 0.74742 0.25942 0.48777 0.0
C828 C 0.77126 0.25288 0.47085 0.0
C829 C 0.78586 0.27389 0.45616 0.0
C830 C 0.71291 0.2946 0.50712 0.0
C831 C 0.78155 0.22376 0.46863 0.0
H832 H 0.73207 0.20563 0.57479 0.0
H833 H 0.68066 0.19159 0.49603 0.0
H834 H 0.7824 0.24372 0.53864 0.0
H835 H 0.7585 0.2687 0.55203 0.0
H836 H 0.76616 0.2392 0.57556 0.0
H837 H 0.68536 0.21609 0.44998 0.0
H838 H 0.69619 0.25105 0.4557 0.0
H839 H 0.72011 0.22622 0.44206 0.0
H840 H 0.74608 0.3285 0.47535 0.0
H841 H 0.80431 0.26892 0.44353 0.0
H842 H 0.71584 0.28946 0.5318 0.0
H843 H 0.69507 0.28266 0.49883 0.0
H844 H 0.70806 0.31679 0.50522 0.0
H845 H 0.78707 0.21612 0.49189 0.0
H846 H 0.79974 0.22196 0.45346 0.0
H847 H 0.76521 0.21019 0.4596 0.0
C848 C 0.71969 0.76983 0.03321 0.0
C849 C 0.73084 0.79396 0.04547 0.0
C850 C 0.73658 0.74853 0.02294 0.0
C851 C 0.7653 0.7515 0.02482 0.0
C852 C 0.77671 0.77566 0.03745 0.0
C853 C 0.75932 0.79661 0.04772 0.0
C854 C 0.72368 0.72298 0.00969 0.0
C855 C 0.80727 0.77955 0.03966 0.0
C856 C 0.80728 0.68633 0.01874 0.0
C857 C 0.81406 0.68627 0.98736 0.0
C858 C 0.7919 0.70779 0.03148 0.0
C859 C 0.78329 0.72968 0.01239 0.0
C860 C 0.79076 0.73012 0.98092 0.0
C861 C 0.80599 0.70837 0.96877 0.0
C862 C 0.78423 0.70667 0.06514 0.0
C863 C 0.7821 0.75324 0.9599 0.0
H864 H 0.6977 0.76756 0.03155 0.0
H865 H 0.76807 0.81519 0.05719 0.0
H866 H 0.72979 0.7206 0.98524 0.0
H867 H 0.73107 0.7046 0.02225 0.0
H868 H 0.701 0.72347 0.01092 0.0
H869 H 0.81286 0.79915 0.05106 0.0
H870 H 0.81658 0.76238 0.05274 0.0
H871 H 0.81637 0.77932 0.01626 0.0
H872 H 0.81348 0.66934 0.03324 0.0
H873 H 0.81133 0.70857 0.94455 0.0
H874 H 0.7617 0.70504 0.06744 0.0
H875 H 0.79056 0.72584 0.07688 0.0
H876 H 0.79375 0.68899 0.07721 0.0
H877 H 0.75949 0.75365 0.95801 0.0
H878 H 0.79083 0.75121 0.9364 0.0
H879 H 0.78859 0.77322 0.96966 0.0
C880 C 0.28297 0.22547 0.56589 0.0
C881 C 0.29074 0.20146 0.55045 0.0
C882 C 0.26837 0.24618 0.5506 0.0
C883 C 0.26155 0.24279 0.51915 0.0
C884 C 0.26938 0.21864 0.50345 0.0
C885 C 0.28381 0.19824 0.51931 0.0
C886 C 0.26019 0.27164 0.56808 0.0
C887 C 0.26255 0.21436 0.46985 0.0
C888 C 0.20305 0.28312 0.48414 0.0
C889 C 0.21703 0.30387 0.46824 0.0
C890 C 0.21728 0.2634 0.50133 0.0
C891 C 0.24616 0.26442 0.50252 0.0
C892 C 0.26038 0.28548 0.48683 0.0
C893 C 0.24563 0.305 0.4699 0.0
C894 C 0.20143 0.24127 0.51788 0.0
C895 C 0.2912 0.28713 0.48751 0.0
H896 H 0.28821 0.22807 0.58997 0.0
H897 H 0.28979 0.17978 0.50717 0.0
H898 H 0.2691 0.29004 0.55689 0.0
H899 H 0.23765 0.27405 0.56756 0.0
H900 H 0.267 0.27107 0.59249 0.0
H901 H 0.27028 0.19447 0.46098 0.0
H902 H 0.24008 0.21504 0.4665 0.0
H903 H 0.27149 0.23113 0.45582 0.0
H904 H 0.18093 0.28218 0.48309 0.0
H905 H 0.25657 0.32101 0.45773 0.0
H906 H 0.20682 0.24115 0.5427 0.0
H907 H 0.20699 0.22089 0.50844 0.0
H908 H 0.17898 0.24401 0.51565 0.0
H909 H 0.29854 0.28809 0.51167 0.0
H910 H 0.29911 0.30529 0.47488 0.0
H911 H 0.30006 0.26839 0.47704 0.0
C912 C 0.79677 0.26847 0.03026 0.0
C913 C 0.8097 0.28683 0.01009 0.0
C914 C 0.78223 0.24583 0.01906 0.0
C915 C 0.78052 0.24148 0.98691 0.0
C916 C 0.79413 0.25949 0.96643 0.0
C917 C 0.80861 0.28197 0.97829 0.0
C918 C 0.76806 0.22699 0.04162 0.0
C919 C 0.79272 0.25545 0.93199 0.0
C920 C 0.75692 0.17149 0.9594 0.0
C921 C 0.72909 0.17629 0.9538 0.0
C922 C 0.77407 0.19261 0.96983 0.0
C923 C 0.76307 0.21908 0.97476 0.0
C924 C 0.73507 0.22409 0.96893 0.0
C925 C 0.71842 0.20265 0.95853 0.0
C926 C 0.80387 0.18658 0.97583 0.0
C927 C 0.7226 0.25207 0.97398 0.0
H928 H 0.79766 0.27196 0.05489 0.0
H929 H 0.81862 0.29602 0.96257 0.0
H930 H 0.74562 0.22816 0.03822 0.0
H931 H 0.77425 0.20543 0.03747 0.0
H932 H 0.77273 0.23229 0.06594 0.0
H933 H 0.80583 0.27025 0.91932 0.0
H934 H 0.79914 0.23434 0.92588 0.0
H935 H 0.77132 0.258 0.92404 0.0
H936 H 0.76533 0.1512 0.95572 0.0
H937 H 0.69696 0.20657 0.9542 0.0
H938 H 0.80869 0.19028 0.00045 0.0
H939 H 0.81691 0.2006 0.96208 0.0
H940 H 0.80938 0.16509 0.97009 0.0
H941 H 0.7247 0.25803 -0.00148 0.0
H942 H 0.70059 0.2527 0.96769 0.0
H943 H 0.73362 0.26764 0.96009 0.0
C944 C 0.17765 0.68954 0.46609 0.0
C945 C 0.17101 0.69093 0.49747 0.0
C946 C 0.19299 0.71036 0.45199 0.0
C947 C 0.20167 0.73311 0.46969 0.0
C948 C 0.19412 0.73512 0.50105 0.0
C949 C 0.17896 0.71395 0.5146 0.0
C950 C 0.20076 0.70752 0.41849 0.0
C951 C 0.2028 0.75922 0.52058 0.0
C952 C 0.26625 0.77097 0.4474 0.0
C953 C 0.25575 0.79481 0.43374 0.0
C954 C 0.24882 0.75047 0.45857 0.0
C955 C 0.22019 0.75393 0.4561 0.0
C956 C 0.20942 0.77768 0.44184 0.0
C957 C 0.22736 0.79786 0.43077 0.0
C958 C 0.26105 0.72534 0.47355 0.0
C959 C 0.17898 0.78202 0.43886 0.0
H960 H 0.17154 0.67182 0.45271 0.0
H961 H 0.17368 0.71526 0.5388 0.0
H962 H 0.19511 0.72632 0.40558 0.0
H963 H 0.22324 0.70506 0.41649 0.0
H964 H 0.19075 0.68962 0.40741 0.0
H965 H 0.19366 0.7586 0.54399 0.0
H966 H 0.22538 0.75937 0.52293 0.0
H967 H 0.19682 0.77873 0.50931 0.0
H968 H 0.28816 0.76838 0.44965 0.0
H969 H 0.2191 0.81621 0.42018 0.0
H970 H 0.25333 0.70653 0.46213 0.0
H971 H 0.25474 0.72432 0.49807 0.0
H972 H 0.28374 0.72528 0.47251 0.0
H973 H 0.16945 0.76429 0.42699 0.0
H974 H 0.17392 0.801 0.4259 0.0
H975 H 0.16963 0.78336 0.46209 0.0
C976 C 0.18996 0.54616 0.96082 0.0
C977 C 0.16599 0.54974 0.9435 0.0
C978 C 0.19333 0.52319 0.97994 0.0
C979 C 0.17213 0.50355 0.98196 0.0
C980 C 0.14828 0.50663 0.96382 0.0
C981 C 0.14557 0.52962 0.94469 0.0
C982 C 0.21922 0.52035 -0.00138 0.0
C983 C 0.12517 0.48612 0.96541 0.0
C984 C 0.18267 0.43208 0.01406 0.0
C985 C 0.17128 0.43462 0.04358 0.0
C986 C 0.18433 0.45471 -0.0058 0.0
C987 C 0.17411 0.48037 0.00403 0.0
C988 C 0.16373 0.48335 0.03428 0.0
C989 C 0.16258 0.46044 0.05378 0.0
C990 C 0.19594 0.45087 0.96227 0.0
C991 C 0.15257 0.51041 0.04554 0.0
H992 H 0.20592 0.56156 0.95987 0.0
H993 H 0.127 0.53222 0.93138 0.0
H994 H 0.21439 0.5222 0.0235 0.0
H995 H 0.22837 0.49979 -0.00495 0.0
H996 H 0.23463 0.53619 0.99257 0.0
H997 H 0.10841 0.49103 0.94905 0.0
H998 H 0.13287 0.46523 0.96024 0.0
H999 H 0.11663 0.48566 0.98908 0.0
H1000 H 0.18969 0.41223 0.00613 0.0
H1001 H 0.1538 0.46256 0.07657 0.0
H1002 H 0.21126 0.46701 0.95717 0.0
H1003 H 0.17935 0.45285 0.94499 0.0
H1004 H 0.20572 0.43048 0.95939 0.0
H1005 H 0.16781 0.52694 0.04201 0.0
H1006 H 0.14696 0.50977 0.07033 0.0
H1007 H 0.13411 0.51592 0.03203 0.0
C1008 C 0.84361 0.52707 0.55087 0.0
C1009 C 0.82368 0.54758 0.54821 0.0
C1010 C 0.84304 0.50387 0.53186 0.0
C1011 C 0.82184 0.50099 0.5099 0.0
C1012 C 0.80096 0.52098 0.50804 0.0
C1013 C 0.8022 0.54415 0.52714 0.0
C1014 C 0.86573 0.483 0.53444 0.0
C1015 C 0.77783 0.51835 0.48521 0.0
C1016 C 0.83955 0.45799 0.44005 0.0
C1017 C 0.82873 0.43241 0.44827 0.0
C1018 C 0.83677 0.48071 0.45957 0.0
C1019 C 0.82256 0.4778 0.48779 0.0
C1020 C 0.81058 0.45234 0.4956 0.0
C1021 C 0.81393 0.42987 0.47581 0.0
C1022 C 0.84995 0.50754 0.45052 0.0
C1023 C 0.79495 0.4486 0.5253 0.0
H1024 H 0.86026 0.52954 0.5671 0.0
H1025 H 0.78661 0.55984 0.52511 0.0
H1026 H 0.8571 0.46223 0.53809 0.0
H1027 H 0.87754 0.48246 0.51263 0.0
H1028 H 0.88002 0.48765 0.55364 0.0
H1029 H 0.76197 0.53437 0.48853 0.0
H1030 H 0.78594 0.52009 0.46143 0.0
H1031 H 0.76806 0.4979 0.48725 0.0
H1032 H 0.85099 0.4601 0.41881 0.0
H1033 H 0.8053 0.4102 0.48217 0.0
H1034 H 0.86622 0.5128 0.46733 0.0
H1035 H 0.83467 0.52432 0.45109 0.0
H1036 H 0.85915 0.50676 0.42715 0.0
H1037 H 0.8091 0.45068 0.54514 0.0
H1038 H 0.78487 0.42822 0.52668 0.0
H1039 H 0.77915 0.46476 0.52767 0.0
C1040 C 0.82172 0.42978 0.00591 0.0
C1041 C 0.80697 0.42557 0.0332 0.0
C1042 C 0.82118 0.45515 0.99078 0.0
C1043 C 0.8057 0.47692 0.00339 0.0
C1044 C 0.78994 0.47253 0.03028 0.0
C1045 C 0.79065 0.44682 0.04481 0.0
C1046 C 0.83801 0.45894 0.96192 0.0
C1047 C 0.77329 0.49533 0.04444 0.0
C1048 C 0.83225 0.54787 0.98433 0.0
C1049 C 0.81462 0.55595 0.96054 0.0
C1050 C 0.82899 0.52253 -0.00091 0.0
C1051 C 0.80774 0.50472 0.98963 0.0
C1052 C 0.78951 0.51297 0.96608 0.0
C1053 C 0.79309 0.53859 0.95188 0.0
C1054 C 0.8487 0.51455 0.02434 0.0
C1055 C 0.76675 0.49441 0.95527 0.0
H1056 H 0.83419 0.41336 -0.00335 0.0
H1057 H 0.77921 0.44371 0.0659 0.0
H1058 H 0.82524 0.46765 0.94321 0.0
H1059 H 0.8548 0.4737 0.96644 0.0
H1060 H 0.84712 0.43939 0.95375 0.0
H1061 H 0.76041 0.48799 0.06384 0.0
H1062 H 0.78719 0.51154 0.05317 0.0
H1063 H 0.75989 0.50491 0.02686 0.0
H1064 H 0.8488 0.56127 0.9913 0.0
H1065 H 0.77941 0.54471 0.93348 0.0
H1066 H 0.86074 0.4964 0.01707 0.0
H1067 H 0.83732 0.50872 0.04545 0.0
H1068 H 0.86311 0.53137 0.03017 0.0
H1069 H 0.77556 0.47564 0.94481 0.0
H1070 H 0.75336 0.50451 0.93798 0.0
H1071 H 0.75403 0.48781 0.97507 0.0
C1072 C 0.19689 0.45337 0.43901 0.0
C1073 C 0.18108 0.43187 0.45099 0.0
C1074 C 0.19725 0.47917 0.45332 0.0
C1075 C 0.18161 0.48341 0.48031 0.0
C1076 C 0.16621 0.46158 0.49295 0.0
C1077 C 0.16605 0.43611 0.47808 0.0
C1078 C 0.21377 0.50207 0.43912 0.0
C1079 C 0.14941 0.46528 0.52184 0.0
C1080 C 0.19556 0.54373 0.53323 0.0
C1081 C 0.17417 0.56153 0.52534 0.0
C1082 C 0.19871 0.51845 0.51821 0.0
C1083 C 0.18015 0.51099 0.49465 0.0
C1084 C 0.15908 0.52928 0.48591 0.0
C1085 C 0.15628 0.55428 0.50145 0.0
C1086 C 0.22132 0.49936 0.52822 0.0
C1087 C 0.13902 0.52212 0.46071 0.0
H1088 H 0.20853 0.45023 0.41808 0.0
H1089 H 0.15392 0.41955 0.4876 0.0
H1090 H 0.19991 0.51875 0.43151 0.0
H1091 H 0.2279 0.51094 0.45643 0.0
H1092 H 0.2259 0.49506 0.41898 0.0
H1093 H 0.13971 0.44585 0.52955 0.0
H1094 H 0.16244 0.4732 0.54077 0.0
H1095 H 0.13309 0.48064 0.5177 0.0
H1096 H 0.20945 0.54921 0.55167 0.0
H1097 H 0.13982 0.56803 0.49505 0.0
H1098 H 0.23374 0.49303 0.50808 0.0
H1099 H 0.21237 0.48048 0.53832 0.0
H1100 H 0.23504 0.5089 0.54558 0.0
H1101 H 0.1501 0.51642 0.43937 0.0
H1102 H 0.1249 0.53933 0.45538 0.0
H1103 H 0.12667 0.5041 0.46776 0.0
C1104 C 0.69838 0.02526 0.92804 0.0
C1105 C 0.68239 0.04627 0.94074 0.0
C1106 C 0.69823 -0.00121 0.9408 0.0
C1107 C 0.68148 -0.00679 0.96663 0.0
C1108 C 0.66578 0.01448 0.97995 0.0
C1109 C 0.66654 0.04077 0.96695 0.0
C1110 C 0.7155 0.97668 0.92625 0.0
C1111 C 0.64747 0.00926 0.00735 0.0
C1112 C 0.65555 0.92093 0.97991 0.0
C1113 C 0.67151 0.91247 0.005 0.0
C1114 C 0.65896 0.94699 0.96684 0.0
C1115 C 0.67913 0.96485 0.97885 0.0
C1116 C 0.69594 0.95609 0.0035 0.0
C1117 C 0.69177 0.93005 0.01648 0.0
C1118 C 0.64038 0.95574 0.94083 0.0
C1119 C 0.71794 0.97442 0.01655 0.0
H1120 H 0.71079 0.02938 0.90789 0.0
H1121 H 0.6541 0.05687 0.97691 0.0
H1122 H 0.72846 0.96664 0.94394 0.0
H1123 H 0.7021 0.96062 0.91627 0.0
H1124 H 0.7289 0.98481 0.90771 0.0
H1125 H 0.63728 0.02824 0.0156 0.0
H1126 H 0.63149 -0.0059 0.0011 0.0
H1127 H 0.65946 0.0004 0.02661 0.0
H1128 H 0.63979 0.90747 0.971 0.0
H1129 H 0.70429 0.92352 0.03574 0.0
H1130 H 0.65267 0.96227 0.92066 0.0
H1131 H 0.62797 0.97362 0.94815 0.0
H1132 H 0.62632 0.93909 0.93351 0.0
H1133 H 0.73153 0.98182 -0.00215 0.0
H1134 H 0.73058 0.9638 0.03416 0.0
H1135 H 0.70848 -0.00726 0.02729 0.0
C1136 C 0.34572 0.94754 0.44514 0.0
C1137 C 0.32819 0.92524 0.45008 0.0
C1138 C 0.34444 0.97091 0.46386 0.0
C1139 C 0.32517 0.97199 0.48813 0.0
C1140 C 0.3069 0.94987 0.49277 0.0
C1141 C 0.30861 0.92674 0.47364 0.0
C1142 C 0.36418 -0.00582 0.45809 0.0
C1143 C 0.28606 0.95035 0.5184 0.0
C1144 C 0.34422 0.02002 0.55329 0.0
C1145 C 0.32933 0.04362 0.54563 0.0
C1146 C 0.34222 -0.00384 0.53542 0.0
C1147 C 0.32496 -0.00407 0.50925 0.0
C1148 C 0.30899 0.01928 0.50215 0.0
C1149 C 0.31134 0.04285 0.52046 0.0
C1150 C 0.35943 0.97157 0.54384 0.0
C1151 C 0.29029 0.01976 0.47447 0.0
H1152 H 0.36084 0.94661 0.42692 0.0
H1153 H 0.29495 0.90959 0.47759 0.0
H1154 H 0.35282 0.01364 0.45479 0.0
H1155 H 0.37765 -0.00311 0.47842 0.0
H1156 H 0.37719 0.99058 0.43753 0.0
H1157 H 0.2724 0.93216 0.5179 0.0
H1158 H 0.29665 0.95092 0.54099 0.0
H1159 H 0.27336 0.96913 0.51679 0.0
H1160 H 0.35804 0.02038 0.5728 0.0
H1161 H 0.29966 0.06096 0.51444 0.0
H1162 H 0.37488 0.96791 0.5256 0.0
H1163 H 0.3465 0.95293 0.54533 0.0
H1164 H 0.37024 0.97433 0.56613 0.0
H1165 H 0.30265 0.01869 0.45309 0.0
H1166 H 0.27756 0.0386 0.47362 0.0
H1167 H 0.27659 0.00163 0.47465 0.0
C1168 C 0.30517 0.94941 0.04194 0.0
C1169 C 0.32393 0.92919 0.03305 0.0
C1170 C 0.30385 0.9746 0.02637 0.0
C1171 C 0.32169 0.97957 0.00133 0.0
C1172 C 0.34037 0.95909 0.99194 0.0
C1173 C 0.34128 0.93415 0.00793 0.0
C1174 C 0.28371 -0.00396 0.03701 0.0
C1175 C 0.3597 0.96367 0.9653 0.0
C1176 C 0.30589 0.03621 0.94406 0.0
C1177 C 0.3235 0.05708 0.95407 0.0
C1178 C 0.30476 0.01096 0.95952 0.0
C1179 C 0.3216 0.00657 0.98556 0.0
C1180 C 0.33911 0.02768 -0.00397 0.0
C1181 C 0.33986 0.05267 0.98015 0.0
C1182 C 0.28587 0.98884 0.94771 0.0
C1183 C 0.35736 0.02373 0.02376 0.0
H1184 H 0.29167 0.94571 0.0613 0.0
H1185 H 0.35579 0.9186 0.00083 0.0
H1186 H 0.29485 0.01457 0.04489 0.0
H1187 H 0.27038 0.00238 0.01759 0.0
H1188 H 0.2706 0.98859 0.05616 0.0
H1189 H 0.37234 0.9453 0.96027 0.0
H1190 H 0.34803 0.96917 0.94428 0.0
H1191 H 0.37355 0.98108 0.97052 0.0
H1192 H 0.29317 0.03948 0.92395 0.0
H1193 H 0.35348 0.06871 0.9881 0.0
H1194 H 0.27188 0.98206 0.96631 0.0
H1195 H 0.29798 0.97071 0.94056 0.0
H1196 H 0.27344 -0.00416 0.92778 0.0
H1197 H 0.34494 0.01784 0.04409 0.0
H1198 H 0.36915 0.04251 0.02949 0.0
H1199 H 0.37197 0.00679 0.01939 0.0
C1200 C 0.67722 0.04801 0.51495 0.0
C1201 C 0.66182 0.04898 0.54212 0.0
C1202 C 0.67743 0.02436 0.49659 0.0
C1203 C 0.66111 0.00163 0.50516 0.0
C1204 C 0.64596 0.00237 0.53292 0.0
C1205 C 0.64684 0.02593 0.55133 0.0
C1206 C 0.69453 0.02395 0.46765 0.0
C1207 C 0.62778 0.9788 0.54245 0.0
C1208 C 0.63497 0.95462 0.44227 0.0
C1209 C 0.65058 0.93101 0.44733 0.0
C1210 C 0.63838 0.97788 0.4608 0.0
C1211 C 0.65848 0.97771 0.48428 0.0
C1212 C 0.67507 0.95426 0.48866 0.0
C1213 C 0.67061 0.93097 0.47041 0.0
C1214 C 0.61983 0.00226 0.45596 0.0
C1215 C 0.69723 0.95365 0.51285 0.0
H1216 H 0.68893 0.06583 0.50795 0.0
H1217 H 0.6347 0.02679 0.57219 0.0
H1218 H 0.70714 0.00505 0.46685 0.0
H1219 H 0.681 0.02372 0.44715 0.0
H1220 H 0.70824 0.04205 0.466 0.0
H1221 H 0.61787 0.98236 0.56512 0.0
H1222 H 0.61158 0.97571 0.52489 0.0
H1223 H 0.63975 0.95954 0.54375 0.0
H1224 H 0.61933 0.95455 0.42456 0.0
H1225 H 0.68284 0.91273 0.47413 0.0
H1226 H 0.63212 0.0209 0.45123 0.0
H1227 H 0.6079 0.0062 0.47724 0.0
H1228 H 0.60533 -0.00086 0.43658 0.0
H1229 H 0.71083 0.97173 0.51026 0.0
H1230 H 0.70983 0.93474 0.51152 0.0
H1231 H 0.68796 0.95481 0.53612 0.0
loop_
_geom_bond_atom_site_label_1
_geom_bond_atom_site_label_2
_geom_bond_distance
_geom_bond_site_symmetry_2
_ccdc_geom_bond_type
C0 O1 1.160 . S
C0 O7 1.185 . S
O1 C0 1.160 . S
O2 Zn3 1.899 . S
O2 C10 1.284 . S
Zn3 O2 1.899 . S
Zn3 O4 2.032 . S
Zn3 O7 2.086 . S
Zn3 O12 1.977 . S
O4 Zn3 2.032 . S
O4 C8 1.278 . S
C5 O6 1.203 . S
C5 O12 1.267 . S
O6 C5 1.203 . S
O7 C0 1.185 . S
O7 Zn3 2.086 . S
C8 O4 1.278 . S
C8 O9 1.211 . S
O9 C8 1.211 . S
C10 O2 1.284 . S
C10 O11 1.273 . S
O11 C10 1.273 . S
O12 Zn3 1.977 . S
O12 C5 1.267 . S
C13 O14 1.160 . S
C13 O20 1.185 . S
O14 C13 1.160 . S
O15 Zn16 1.899 . S
O15 C23 1.284 . S
Zn16 O15 1.899 . S
Zn16 O17 2.032 . S
Zn16 O20 2.086 . S
Zn16 O25 1.977 . S
O17 Zn16 2.032 . S
O17 C21 1.278 . S
C18 O19 1.203 . S
C18 O25 1.267 . S
O19 C18 1.203 . S
O20 C13 1.185 . S
O20 Zn16 2.086 . S
C21 O17 1.278 . S
C21 O22 1.211 . S
O22 C21 1.211 . S
C23 O15 1.284 . S
C23 O24 1.273 . S
O24 C23 1.273 . S
O25 Zn16 1.977 . S
O25 C18 1.267 . S
C26 O27 1.160 . S
C26 O33 1.185 . S
O27 C26 1.160 . S
O28 Zn29 1.899 . S
O28 C36 1.284 . S
Zn29 O28 1.899 . S
Zn29 O30 2.032 . S
Zn29 O33 2.086 . S
Zn29 O38 1.977 . S
O30 Zn29 2.032 . S
O30 C34 1.278 . S
C31 O32 1.203 . S
C31 O38 1.267 . S
O32 C31 1.203 . S
O33 C26 1.185 . S
O33 Zn29 2.086 . S
C34 O30 1.278 . S
C34 O35 1.211 . S
O35 C34 1.211 . S
C36 O28 1.284 . S
C36 O37 1.273 . S
O37 C36 1.273 . S
O38 Zn29 1.977 . S
O38 C31 1.267 . S
C39 O40 1.160 . S
C39 O46 1.185 . S
O40 C39 1.160 . S
O41 Zn42 1.899 . S
O41 C49 1.284 . S
Zn42 O41 1.899 . S
Zn42 O43 2.032 . S
Zn42 O46 2.086 . S
Zn42 O51 1.977 . S
O43 Zn42 2.032 . S
O43 C47 1.278 . S
C44 O45 1.203 . S
C44 O51 1.267 . S
O45 C44 1.203 . S
O46 C39 1.185 . S
O46 Zn42 2.086 . S
C47 O43 1.278 . S
C47 O48 1.211 . S
O48 C47 1.211 . S
C49 O41 1.284 . S
C49 O50 1.273 . S
O50 C49 1.273 . S
O51 Zn42 1.977 . S
O51 C44 1.267 . S
C52 O53 1.160 . S
C52 O59 1.185 . S
O53 C52 1.160 . S
O54 Zn55 1.899 . S
O54 C62 1.284 . S
Zn55 O54 1.899 . S
Zn55 O56 2.032 . S
Zn55 O59 2.086 . S
Zn55 O64 1.977 . S
O56 Zn55 2.032 . S
O56 C60 1.278 . S
C57 O58 1.203 . S
C57 O64 1.267 . S
O58 C57 1.203 . S
O59 C52 1.185 . S
O59 Zn55 2.086 . S
C60 O56 1.278 . S
C60 O61 1.211 . S
O61 C60 1.211 . S
C62 O54 1.284 . S
C62 O63 1.273 . S
O63 C62 1.273 . S
O64 Zn55 1.977 . S
O64 C57 1.267 . S
C65 O66 1.160 . S
C65 O72 1.185 . S
O66 C65 1.160 . S
O67 Zn68 1.899 . S
O67 C75 1.284 . S
Zn68 O67 1.899 . S
Zn68 O69 2.032 . S
Zn68 O72 2.086 . S
Zn68 O77 1.977 . S
O69 Zn68 2.032 . S
O69 C73 1.278 . S
C70 O71 1.203 . S
C70 O77 1.267 . S
O71 C70 1.203 . S
O72 C65 1.185 . S
O72 Zn68 2.086 . S
C73 O69 1.278 . S
C73 O74 1.211 . S
O74 C73 1.211 . S
C75 O67 1.284 . S
C75 O76 1.273 . S
O76 C75 1.273 . S
O77 Zn68 1.977 . S
O77 C70 1.267 . S
C78 O79 1.160 . S
C78 O85 1.185 . S
O79 C78 1.160 . S
O80 Zn81 1.899 . S
O80 C88 1.284 . S
Zn81 O80 1.899 . S
Zn81 O82 2.032 . S
Zn81 O85 2.086 . S
Zn81 O90 1.977 . S
O82 Zn81 2.032 . S
O82 C86 1.278 . S
C83 O84 1.203 . S
C83 O90 1.267 . S
O84 C83 1.203 . S
O85 C78 1.185 . S
O85 Zn81 2.086 . S
C86 O82 1.278 . S
C86 O87 1.211 . S
O87 C86 1.211 . S
C88 O80 1.284 . S
C88 O89 1.273 . S
O89 C88 1.273 . S
O90 Zn81 1.977 . S
O90 C83 1.267 . S
C91 O92 1.160 . S
C91 O98 1.185 . S
O92 C91 1.160 . S
O93 Zn94 1.899 . S
O93 C101 1.284 . S
Zn94 O93 1.899 . S
Zn94 O95 2.032 . S
Zn94 O98 2.086 . S
Zn94 O103 1.977 . S
O95 Zn94 2.032 . S
O95 C99 1.278 . S
C96 O97 1.203 . S
C96 O103 1.267 . S
O97 C96 1.203 . S
O98 C91 1.185 . S
O98 Zn94 2.086 . S
C99 O95 1.278 . S
C99 O100 1.211 . S
O100 C99 1.211 . S
C101 O93 1.284 . S
C101 O102 1.273 . S
O102 C101 1.273 . S
O103 Zn94 1.977 . S
O103 C96 1.267 . S
C104 O105 1.160 . S
C104 O111 1.185 . S
O105 C104 1.160 . S
O106 Zn107 1.899 . S
O106 C114 1.284 . S
Zn107 O106 1.899 . S
Zn107 O108 2.032 . S
Zn107 O111 2.086 . S
Zn107 O116 1.977 . S
O108 Zn107 2.032 . S
O108 C112 1.278 . S
C109 O110 1.203 . S
C109 O116 1.267 . S
O110 C109 1.203 . S
O111 C104 1.185 . S
O111 Zn107 2.086 . S
C112 O108 1.278 . S
C112 O113 1.211 . S
O113 C112 1.211 . S
C114 O106 1.284 . S
C114 O115 1.273 . S
O115 C114 1.273 . S
O116 Zn107 1.977 . S
O116 C109 1.267 . S
C117 O118 1.160 . S
C117 O124 1.185 . S
O118 C117 1.160 . S
O119 Zn120 1.899 . S
O119 C127 1.284 . S
Zn120 O119 1.899 . S
Zn120 O121 2.032 . S
Zn120 O124 2.086 . S
Zn120 O129 1.977 . S
O121 Zn120 2.032 . S
O121 C125 1.278 . S
C122 O123 1.203 . S
C122 O129 1.267 . S
O123 C122 1.203 . S
O124 C117 1.185 . S
O124 Zn120 2.086 . S
C125 O121 1.278 . S
C125 O126 1.211 . S
O126 C125 1.211 . S
C127 O119 1.284 . S
C127 O128 1.273 . S
O128 C127 1.273 . S
O129 Zn120 1.977 . S
O129 C122 1.267 . S
C130 O131 1.160 . S
C130 O137 1.185 . S
O131 C130 1.160 . S
O132 Zn133 1.899 . S
O132 C140 1.284 . S
Zn133 O132 1.899 . S
Zn133 O134 2.032 . S
Zn133 O137 2.086 . S
Zn133 O142 1.977 . S
O134 Zn133 2.032 . S
O134 C138 1.278 . S
C135 O136 1.203 . S
C135 O142 1.267 . S
O136 C135 1.203 . S
O137 C130 1.185 . S
O137 Zn133 2.086 . S
C138 O134 1.278 . S
C138 O139 1.211 . S
O139 C138 1.211 . S
C140 O132 1.284 . S
C140 O141 1.273 . S
O141 C140 1.273 . S
O142 Zn133 1.977 . S
O142 C135 1.267 . S
C143 O144 1.160 . S
C143 O150 1.185 . S
O144 C143 1.160 . S
O145 Zn146 1.899 . S
O145 C153 1.284 . S
Zn146 O145 1.899 . S
Zn146 O147 2.032 . S
Zn146 O150 2.086 . S
Zn146 O155 1.977 . S
O147 Zn146 2.032 . S
O147 C151 1.278 . S
C148 O149 1.203 . S
C148 O155 1.267 . S
O149 C148 1.203 . S
O150 C143 1.185 . S
O150 Zn146 2.086 . S
C151 O147 1.278 . S
C151 O152 1.211 . S
O152 C151 1.211 . S
C153 O145 1.284 . S
C153 O154 1.273 . S
O154 C153 1.273 . S
O155 Zn146 1.977 . S
O155 C148 1.267 . S
C156 O157 1.160 . S
C156 O163 1.185 . S
O157 C156 1.160 . S
O158 Zn159 1.899 . S
O158 C166 1.284 . S
Zn159 O158 1.899 . S
Zn159 O160 2.032 . S
Zn159 O163 2.086 . S
Zn159 O168 1.977 . S
O160 Zn159 2.032 . S
O160 C164 1.278 . S
C161 O162 1.203 . S
C161 O168 1.267 . S
O162 C161 1.203 . S
O163 C156 1.185 . S
O163 Zn159 2.086 . S
C164 O160 1.278 . S
C164 O165 1.211 . S
O165 C164 1.211 . S
C166 O158 1.284 . S
C166 O167 1.273 . S
O167 C166 1.273 . S
O168 Zn159 1.977 . S
O168 C161 1.267 . S
C169 O170 1.160 . S
C169 O176 1.185 . S
O170 C169 1.160 . S
O171 Zn172 1.899 . S
O171 C179 1.284 . S
Zn172 O171 1.899 . S
Zn172 O173 2.032 . S
Zn172 O176 2.086 . S
Zn172 O181 1.977 . S
O173 Zn172 2.032 . S
O173 C177 1.278 . S
C174 O175 1.203 . S
C174 O181 1.267 . S
O175 C174 1.203 . S
O176 C169 1.185 . S
O176 Zn172 2.086 . S
C177 O173 1.278 . S
C177 O178 1.211 . S
O178 C177 1.211 . S
C179 O171 1.284 . S
C179 O180 1.273 . S
O180 C179 1.273 . S
O181 Zn172 1.977 . S
O181 C174 1.267 . S
C182 O183 1.160 . S
C182 O189 1.185 . S
O183 C182 1.160 . S
O184 Zn185 1.899 . S
O184 C192 1.284 . S
Zn185 O184 1.899 . S
Zn185 O186 2.032 . S
Zn185 O189 2.086 . S
Zn185 O194 1.977 . S
O186 Zn185 2.032 . S
O186 C190 1.278 . S
C187 O188 1.203 . S
C187 O194 1.267 . S
O188 C187 1.203 . S
O189 C182 1.185 . S
O189 Zn185 2.086 . S
C190 O186 1.278 . S
C190 O191 1.211 . S
O191 C190 1.211 . S
C192 O184 1.284 . S
C192 O193 1.273 . S
O193 C192 1.273 . S
O194 Zn185 1.977 . S
O194 C187 1.267 . S
C195 O196 1.160 . S
C195 O202 1.185 . S
O196 C195 1.160 . S
O197 Zn198 1.899 . S
O197 C205 1.284 . S
Zn198 O197 1.899 . S
Zn198 O199 2.032 . S
Zn198 O202 2.086 . S
Zn198 O207 1.977 . S
O199 Zn198 2.032 . S
O199 C203 1.278 . S
C200 O201 1.203 . S
C200 O207 1.267 . S
O201 C200 1.203 . S
O202 C195 1.185 . S
O202 Zn198 2.086 . S
C203 O199 1.278 . S
C203 O204 1.211 . S
O204 C203 1.211 . S
C205 O197 1.284 . S
C205 O206 1.273 . S
O206 C205 1.273 . S
O207 Zn198 1.977 . S
O207 C200 1.267 . S
C208 C209 1.391 . S
C208 C210 1.394 . S
C208 H224 0.931 . S
C209 C208 1.391 . S
C209 C213 1.376 . S
C210 C208 1.394 . S
C210 C211 1.369 . S
C210 C214 1.531 . S
C211 C210 1.369 . S
C211 C212 1.410 . S
C211 C219 1.503 1_455 S
C212 C211 1.410 . S
C212 C213 1.392 . S
C212 C215 1.511 . S
C213 C209 1.376 . S
C213 C212 1.392 . S
C213 H225 0.929 . S
C214 C210 1.531 . S
C214 H226 0.960 . S
C214 H227 0.962 . S
C214 H228 0.960 . S
C215 C212 1.511 . S
C215 H229 0.961 . S
C215 H230 0.961 . S
C215 H231 0.961 . S
C216 C217 1.370 . S
C216 C218 1.363 . S
C216 H232 0.931 . S
C217 C216 1.370 . S
C217 C221 1.408 . S
C218 C216 1.363 . S
C218 C219 1.370 . S
C218 C222 1.524 . S
C219 C211 1.503 1_655 S
C219 C218 1.370 . S
C219 C220 1.403 . S
C220 C219 1.403 . S
C220 C221 1.404 . S
C220 C223 1.539 . S
C221 C217 1.408 . S
C221 C220 1.404 . S
C221 H233 0.930 . S
C222 C218 1.524 . S
C222 H234 0.956 1_655 S
C222 H235 0.961 1_655 S
C222 H236 0.961 . S
C223 C220 1.539 . S
C223 H237 0.970 . S
C223 H238 0.961 1_554 S
C223 H239 0.960 1_655 S
H224 C208 0.931 . S
H225 C213 0.929 . S
H226 C214 0.960 . S
H227 C214 0.962 . S
H228 C214 0.960 . S
H229 C215 0.961 . S
H230 C215 0.961 . S
H231 C215 0.961 . S
H232 C216 0.931 . S
H233 C221 0.930 . S
H234 C222 0.956 1_455 S
H235 C222 0.961 1_455 S
H236 C222 0.961 . S
H237 C223 0.970 . S
H238 C223 0.961 1_556 S
H239 C223 0.960 1_455 S
C240 C241 1.391 . S
C240 C242 1.394 . S
C240 H256 0.931 . S
C241 C240 1.391 . S
C241 C245 1.376 . S
C242 C240 1.394 . S
C242 C243 1.369 . S
C242 C246 1.531 . S
C243 C242 1.369 . S
C243 C244 1.410 . S
C243 C251 1.503 1_655 S
C244 C243 1.410 . S
C244 C245 1.392 . S
C244 C247 1.511 . S
C245 C241 1.376 . S
C245 C244 1.392 . S
C245 H257 0.929 . S
C246 C242 1.531 . S
C246 H258 0.960 . S
C246 H259 0.962 . S
C246 H260 0.960 . S
C247 C244 1.511 . S
C247 H261 0.961 . S
C247 H262 0.961 . S
C247 H263 0.961 . S
C248 C249 1.370 . S
C248 C250 1.363 . S
C248 H264 0.931 . S
C249 C248 1.370 . S
C249 C253 1.408 . S
C250 C248 1.363 . S
C250 C251 1.370 . S
C250 C254 1.530 . S
C251 C243 1.503 1_455 S
C251 C250 1.370 . S
C251 C252 1.403 . S
C252 C251 1.403 . S
C252 C253 1.404 . S
C252 C255 1.539 . S
C253 C249 1.408 . S
C253 C252 1.404 . S
C253 H265 0.930 . S
C254 C250 1.530 . S
C254 H266 0.951 1_455 S
C254 H267 0.954 1_455 S
C254 H268 0.967 . S
C255 C252 1.539 . S
C255 H269 0.958 . S
C255 H270 0.961 . S
C255 H271 0.960 1_455 S
H256 C240 0.931 . S
H257 C245 0.929 . S
H258 C246 0.960 . S
H259 C246 0.962 . S
H260 C246 0.960 . S
H261 C247 0.961 . S
H262 C247 0.961 . S
H263 C247 0.961 . S
H264 C248 0.931 . S
H265 C253 0.930 . S
H266 C254 0.951 1_655 S
H267 C254 0.954 1_655 S
H268 C254 0.967 . S
H269 C255 0.958 . S
H270 C255 0.961 . S
H271 C255 0.960 1_655 S
C272 C273 1.391 . S
C272 C274 1.394 . S
C272 H288 0.931 . S
C273 C272 1.391 . S
C273 C277 1.376 . S
C274 C272 1.394 . S
C274 C275 1.369 . S
C274 C278 1.531 . S
C275 C274 1.369 . S
C275 C276 1.410 . S
C275 C283 1.503 1_655 S
C276 C275 1.410 . S
C276 C277 1.392 . S
C276 C279 1.511 . S
C277 C273 1.376 . S
C277 C276 1.392 . S
C277 H289 0.929 . S
C278 C274 1.531 . S
C278 H290 0.960 1_655 S
C278 H291 0.962 1_655 S
C278 H292 0.960 . S
C279 C276 1.511 . S
C279 H293 0.961 . S
C279 H294 0.961 1_655 S
C279 H295 0.961 . S
C280 C281 1.370 . S
C280 C282 1.363 . S
C280 H296 0.931 . S
C281 C280 1.370 . S
C281 C285 1.408 . S
C282 C280 1.363 . S
C282 C283 1.370 . S
C282 C286 1.524 . S
C283 C275 1.503 1_455 S
C283 C282 1.370 . S
C283 C284 1.403 . S
C284 C283 1.403 . S
C284 C285 1.404 . S
C284 C287 1.539 . S
C285 C281 1.408 . S
C285 C284 1.404 . S
C285 H297 0.930 . S
C286 C282 1.524 . S
C286 H298 0.956 . S
C286 H299 0.961 . S
C286 H300 0.961 . S
C287 C284 1.539 . S
C287 H301 0.958 . S
C287 H302 0.961 . S
C287 H303 0.960 . S
H288 C272 0.931 . S
H289 C277 0.929 . S
H290 C278 0.960 1_455 S
H291 C278 0.962 1_455 S
H292 C278 0.960 . S
H293 C279 0.961 . S
H294 C279 0.961 1_455 S
H295 C279 0.961 . S
H296 C280 0.931 . S
H297 C285 0.930 . S
H298 C286 0.956 . S
H299 C286 0.961 . S
H300 C286 0.961 . S
H301 C287 0.958 . S
H302 C287 0.961 . S
H303 C287 0.960 . S
C304 C305 1.391 . S
C304 C306 1.394 . S
C304 H320 0.931 . S
C305 C304 1.391 . S
C305 C309 1.376 . S
C306 C304 1.394 . S
C306 C307 1.369 . S
C306 C310 1.531 . S
C307 C306 1.369 . S
C307 C308 1.410 . S
C307 C315 1.503 1_455 S
C308 C307 1.410 . S
C308 C309 1.392 . S
C308 C311 1.511 . S
C309 C305 1.376 . S
C309 C308 1.392 . S
C309 H321 0.929 . S
C310 C306 1.531 . S
C310 H322 0.960 1_455 S
C310 H323 0.959 1_455 S
C310 H324 0.960 . S
C311 C308 1.511 . S
C311 H325 0.961 . S
C311 H326 0.961 1_455 S
C311 H327 0.961 . S
C312 C313 1.370 . S
C312 C314 1.363 . S
C312 H328 0.931 . S
C313 C312 1.370 . S
C313 C317 1.408 . S
C314 C312 1.363 . S
C314 C315 1.370 . S
C314 C318 1.524 . S
C315 C307 1.503 1_655 S
C315 C314 1.370 . S
C315 C316 1.403 . S
C316 C315 1.403 . S
C316 C317 1.404 . S
C316 C319 1.539 . S
C317 C313 1.408 . S
C317 C316 1.404 . S
C317 H329 0.930 . S
C318 C314 1.524 . S
C318 H330 0.956 . S
C318 H331 0.961 . S
C318 H332 0.961 . S
C319 C316 1.539 . S
C319 H333 0.958 . S
C319 H334 0.961 . S
C319 H335 0.960 . S
H320 C304 0.931 . S
H321 C309 0.929 . S
H322 C310 0.960 1_655 S
H323 C310 0.959 1_655 S
H324 C310 0.960 . S
H325 C311 0.961 . S
H326 C311 0.961 1_655 S
H327 C311 0.961 . S
H328 C312 0.931 . S
H329 C317 0.930 . S
H330 C318 0.956 . S
H331 C318 0.961 . S
H332 C318 0.961 . S
H333 C319 0.958 . S
H334 C319 0.961 . S
H335 C319 0.960 . S
C336 C337 1.391 . S
C336 C338 1.394 . S
C336 H352 0.931 . S
C337 C336 1.391 . S
C337 C341 1.376 . S
C338 C336 1.394 . S
C338 C339 1.369 . S
C338 C342 1.531 . S
C339 C338 1.369 . S
C339 C340 1.410 . S
C339 C347 1.503 . S
C340 C339 1.410 . S
C340 C341 1.392 . S
C340 C343 1.511 . S
C341 C337 1.376 . S
C341 C340 1.392 . S
C341 H353 0.929 . S
C342 C338 1.531 . S
C342 H354 0.960 . S
C342 H355 0.962 . S
C342 H356 0.960 . S
C343 C340 1.511 . S
C343 H357 0.961 1_554 S
C343 H358 0.961 . S
C343 H359 0.961 . S
C344 C345 1.370 . S
C344 C346 1.363 . S
C344 H360 0.931 . S
C345 C344 1.370 . S
C345 C349 1.408 . S
C346 C344 1.363 . S
C346 C347 1.370 . S
C346 C350 1.524 . S
C347 C339 1.503 . S
C347 C346 1.370 . S
C347 C348 1.403 . S
C348 C347 1.403 . S
C348 C349 1.404 . S
C348 C351 1.539 . S
C349 C345 1.408 . S
C349 C348 1.404 . S
C349 H361 0.930 . S
C350 C346 1.524 . S
C350 H362 0.956 . S
C350 H363 0.961 . S
C350 H364 0.961 . S
C351 C348 1.539 . S
C351 H365 0.958 . S
C351 H366 0.961 . S
C351 H367 0.960 . S
H352 C336 0.931 . S
H353 C341 0.929 . S
H354 C342 0.960 . S
H355 C342 0.962 . S
H356 C342 0.960 . S
H357 C343 0.961 1_556 S
H358 C343 0.961 . S
H359 C343 0.961 . S
H360 C344 0.931 . S
H361 C349 0.930 . S
H362 C350 0.956 . S
H363 C350 0.961 . S
H364 C350 0.961 . S
H365 C351 0.958 . S
H366 C351 0.961 . S
H367 C351 0.960 . S
C368 C369 1.391 . S
C368 C370 1.394 . S
C368 H384 0.931 . S
C369 C368 1.391 . S
C369 C373 1.376 . S
C370 C368 1.394 . S
C370 C371 1.369 . S
C370 C374 1.531 . S
C371 C370 1.369 . S
C371 C372 1.410 . S
C371 C379 1.503 . S
C372 C371 1.410 . S
C372 C373 1.392 . S
C372 C375 1.511 . S
C373 C369 1.376 . S
C373 C372 1.392 . S
C373 H385 0.929 . S
C374 C370 1.531 . S
C374 H386 0.960 . S
C374 H387 0.962 . S
C374 H388 0.960 . S
C375 C372 1.511 . S
C375 H389 0.961 . S
C375 H390 0.961 . S
C375 H391 0.961 . S
C376 C377 1.370 . S
C376 C378 1.363 . S
C376 H392 0.931 . S
C377 C376 1.370 . S
C377 C381 1.408 . S
C378 C376 1.363 . S
C378 C379 1.370 . S
C378 C382 1.524 . S
C379 C371 1.503 . S
C379 C378 1.370 . S
C379 C380 1.403 . S
C380 C379 1.403 . S
C380 C381 1.404 . S
C380 C383 1.539 . S
C381 C377 1.408 . S
C381 C380 1.404 . S
C381 H393 0.930 . S
C382 C378 1.524 . S
C382 H394 0.956 . S
C382 H395 0.961 . S
C382 H396 0.961 . S
C383 C380 1.539 . S
C383 H397 0.958 . S
C383 H398 0.961 . S
C383 H399 0.960 . S
H384 C368 0.931 . S
H385 C373 0.929 . S
H386 C374 0.960 . S
H387 C374 0.962 . S
H388 C374 0.960 . S
H389 C375 0.961 . S
H390 C375 0.961 . S
H391 C375 0.961 . S
H392 C376 0.931 . S
H393 C381 0.930 . S
H394 C382 0.956 . S
H395 C382 0.961 . S
H396 C382 0.961 . S
H397 C383 0.958 . S
H398 C383 0.961 . S
H399 C383 0.960 . S
C400 C401 1.391 . S
C400 C402 1.394 . S
C400 H416 0.931 . S
C401 C400 1.391 . S
C401 C405 1.376 . S
C402 C400 1.394 . S
C402 C403 1.369 . S
C402 C406 1.531 . S
C403 C402 1.369 . S
C403 C404 1.410 . S
C403 C411 1.503 . S
C404 C403 1.410 . S
C404 C405 1.392 . S
C404 C407 1.511 . S
C405 C401 1.376 . S
C405 C404 1.392 . S
C405 H417 0.929 . S
C406 C402 1.531 . S
C406 H418 0.960 . S
C406 H419 0.962 . S
C406 H420 0.960 . S
C407 C404 1.511 . S
C407 H421 0.961 . S
C407 H422 0.961 . S
C407 H423 0.961 . S
C408 C409 1.370 . S
C408 C410 1.363 . S
C408 H424 0.931 . S
C409 C408 1.370 . S
C409 C413 1.408 . S
C410 C408 1.363 . S
C410 C411 1.370 . S
C410 C414 1.524 . S
C411 C403 1.503 . S
C411 C410 1.370 . S
C411 C412 1.403 . S
C412 C411 1.403 . S
C412 C413 1.404 . S
C412 C415 1.539 . S
C413 C409 1.408 . S
C413 C412 1.404 . S
C413 H425 0.930 . S
C414 C410 1.524 . S
C414 H426 0.956 . S
C414 H427 0.961 . S
C414 H428 0.961 . S
C415 C412 1.539 . S
C415 H429 0.958 . S
C415 H430 0.961 . S
C415 H431 0.960 . S
H416 C400 0.931 . S
H417 C405 0.929 . S
H418 C406 0.960 . S
H419 C406 0.962 . S
H420 C406 0.960 . S
H421 C407 0.961 . S
H422 C407 0.961 . S
H423 C407 0.961 . S
H424 C408 0.931 . S
H425 C413 0.930 . S
H426 C414 0.956 . S
H427 C414 0.961 . S
H428 C414 0.961 . S
H429 C415 0.958 . S
H430 C415 0.961 . S
H431 C415 0.960 . S
C432 C433 1.391 . S
C432 C434 1.394 . S
C432 H448 0.931 . S
C433 C432 1.391 . S
C433 C437 1.376 . S
C434 C432 1.394 . S
C434 C435 1.369 . S
C434 C438 1.531 . S
C435 C434 1.369 . S
C435 C436 1.410 . S
C435 C443 1.503 . S
C436 C435 1.410 . S
C436 C437 1.392 . S
C436 C439 1.511 . S
C437 C433 1.376 . S
C437 C436 1.392 . S
C437 H449 0.929 . S
C438 C434 1.531 . S
C438 H450 0.960 . S
C438 H451 0.962 . S
C438 H452 0.960 . S
C439 C436 1.511 . S
C439 H453 0.961 . S
C439 H454 0.961 . S
C439 H455 0.961 . S
C440 C441 1.370 . S
C440 C442 1.363 . S
C440 H456 0.931 . S
C441 C440 1.370 . S
C441 C445 1.408 . S
C442 C440 1.363 . S
C442 C443 1.370 . S
C442 C446 1.524 . S
C443 C435 1.503 . S
C443 C442 1.370 . S
C443 C444 1.403 . S
C444 C443 1.403 . S
C444 C445 1.404 . S
C444 C447 1.539 . S
C445 C441 1.408 . S
C445 C444 1.404 . S
C445 H457 0.930 . S
C446 C442 1.524 . S
C446 H458 0.956 . S
C446 H459 0.961 . S
C446 H460 0.961 . S
C447 C444 1.539 . S
C447 H461 0.958 . S
C447 H462 0.961 . S
C447 H463 0.960 . S
H448 C432 0.931 . S
H449 C437 0.929 . S
H450 C438 0.960 . S
H451 C438 0.962 . S
H452 C438 0.960 . S
H453 C439 0.961 . S
H454 C439 0.961 . S
H455 C439 0.961 . S
H456 C440 0.931 . S
H457 C445 0.930 . S
H458 C446 0.956 . S
H459 C446 0.961 . S
H460 C446 0.961 . S
H461 C447 0.958 . S
H462 C447 0.961 . S
H463 C447 0.960 . S
C464 C465 1.391 . S
C464 C466 1.394 . S
C464 H480 0.931 . S
C465 C464 1.391 . S
C465 C469 1.376 . S
C466 C464 1.394 . S
C466 C467 1.369 . S
C466 C470 1.531 . S
C467 C466 1.369 . S
C467 C468 1.410 . S
C467 C475 1.503 . S
C468 C467 1.410 . S
C468 C469 1.392 . S
C468 C471 1.511 . S
C469 C465 1.376 . S
C469 C468 1.392 . S
C469 H481 0.929 . S
C470 C466 1.531 . S
C470 H482 0.960 . S
C470 H483 0.962 . S
C470 H484 0.960 . S
C471 C468 1.511 . S
C471 H485 0.961 . S
C471 H486 0.961 . S
C471 H487 0.961 . S
C472 C473 1.370 . S
C472 C474 1.363 . S
C472 H488 0.931 . S
C473 C472 1.370 . S
C473 C477 1.408 . S
C474 C472 1.363 . S
C474 C475 1.370 . S
C474 C478 1.524 . S
C475 C467 1.503 . S
C475 C474 1.370 . S
C475 C476 1.403 . S
C476 C475 1.403 . S
C476 C477 1.404 . S
C476 C479 1.539 . S
C477 C473 1.408 . S
C477 C476 1.404 . S
C477 H489 0.930 . S
C478 C474 1.524 . S
C478 H490 0.956 . S
C478 H491 0.961 . S
C478 H492 0.961 . S
C479 C476 1.539 . S
C479 H493 0.958 . S
C479 H494 0.961 . S
C479 H495 0.960 . S
H480 C464 0.931 . S
H481 C469 0.929 . S
H482 C470 0.960 . S
H483 C470 0.962 . S
H484 C470 0.960 . S
H485 C471 0.961 . S
H486 C471 0.961 . S
H487 C471 0.961 . S
H488 C472 0.931 . S
H489 C477 0.930 . S
H490 C478 0.956 . S
H491 C478 0.961 . S
H492 C478 0.961 . S
H493 C479 0.958 . S
H494 C479 0.961 . S
H495 C479 0.960 . S
C496 C497 1.391 . S
C496 C498 1.394 . S
C496 H512 0.931 . S
C497 C496 1.391 . S
C497 C501 1.376 . S
C498 C496 1.394 . S
C498 C499 1.369 . S
C498 C502 1.531 . S
C499 C498 1.369 . S
C499 C500 1.410 . S
C499 C507 1.503 . S
C500 C499 1.410 . S
C500 C501 1.392 . S
C500 C503 1.511 . S
C501 C497 1.376 . S
C501 C500 1.392 . S
C501 H513 0.929 . S
C502 C498 1.531 . S
C502 H514 0.960 . S
C502 H515 0.962 . S
C502 H516 0.960 . S
C503 C500 1.511 . S
C503 H517 0.961 . S
C503 H518 0.961 . S
C503 H519 0.961 . S
C504 C505 1.370 . S
C504 C506 1.363 . S
C504 H520 0.931 . S
C505 C504 1.370 . S
C505 C509 1.408 . S
C506 C504 1.363 . S
C506 C507 1.370 . S
C506 C510 1.524 . S
C507 C499 1.503 . S
C507 C506 1.370 . S
C507 C508 1.403 . S
C508 C507 1.403 . S
C508 C509 1.404 . S
C508 C511 1.539 . S
C509 C505 1.408 . S
C509 C508 1.404 . S
C509 H521 0.930 . S
C510 C506 1.524 . S
C510 H522 0.956 . S
C510 H523 0.961 . S
C510 H524 0.961 . S
C511 C508 1.539 . S
C511 H525 0.958 . S
C511 H526 0.961 . S
C511 H527 0.960 . S
H512 C496 0.931 . S
H513 C501 0.929 . S
H514 C502 0.960 . S
H515 C502 0.962 . S
H516 C502 0.960 . S
H517 C503 0.961 . S
H518 C503 0.961 . S
H519 C503 0.961 . S
H520 C504 0.931 . S
H521 C509 0.930 . S
H522 C510 0.956 . S
H523 C510 0.961 . S
H524 C510 0.961 . S
H525 C511 0.958 . S
H526 C511 0.961 . S
H527 C511 0.960 . S
C528 C529 1.391 . S
C528 C530 1.394 . S
C528 H544 0.931 . S
C529 C528 1.391 . S
C529 C533 1.376 . S
C530 C528 1.394 . S
C530 C531 1.369 . S
C530 C534 1.531 . S
C531 C530 1.369 . S
C531 C532 1.410 . S
C531 C539 1.503 . S
C532 C531 1.410 . S
C532 C533 1.392 . S
C532 C535 1.511 . S
C533 C529 1.376 . S
C533 C532 1.392 . S
C533 H545 0.929 . S
C534 C530 1.531 . S
C534 H546 0.960 . S
C534 H547 0.962 . S
C534 H548 0.960 . S
C535 C532 1.511 . S
C535 H549 0.961 . S
C535 H550 0.961 . S
C535 H551 0.961 . S
C536 C537 1.370 . S
C536 C538 1.363 . S
C536 H552 0.931 . S
C537 C536 1.370 . S
C537 C541 1.408 . S
C538 C536 1.363 . S
C538 C539 1.370 . S
C538 C542 1.524 . S
C539 C531 1.503 . S
C539 C538 1.370 . S
C539 C540 1.403 . S
C540 C539 1.403 . S
C540 C541 1.404 . S
C540 C543 1.539 . S
C541 C537 1.408 . S
C541 C540 1.404 . S
C541 H553 0.930 . S
C542 C538 1.524 . S
C542 H554 0.956 . S
C542 H555 0.961 . S
C542 H556 0.961 . S
C543 C540 1.539 . S
C543 H557 0.958 . S
C543 H558 0.961 . S
C543 H559 0.960 . S
H544 C528 0.931 . S
H545 C533 0.929 . S
H546 C534 0.960 . S
H547 C534 0.962 . S
H548 C534 0.960 . S
H549 C535 0.961 . S
H550 C535 0.961 . S
H551 C535 0.961 . S
H552 C536 0.931 . S
H553 C541 0.930 . S
H554 C542 0.956 . S
H555 C542 0.961 . S
H556 C542 0.961 . S
H557 C543 0.958 . S
H558 C543 0.961 . S
H559 C543 0.960 . S
C560 C561 1.391 . S
C560 C562 1.394 . S
C560 H576 0.931 . S
C561 C560 1.391 . S
C561 C565 1.376 . S
C562 C560 1.394 . S
C562 C563 1.369 . S
C562 C566 1.531 . S
C563 C562 1.369 . S
C563 C564 1.410 . S
C563 C571 1.503 . S
C564 C563 1.410 . S
C564 C565 1.392 . S
C564 C567 1.511 . S
C565 C561 1.376 . S
C565 C564 1.392 . S
C565 H577 0.929 . S
C566 C562 1.531 . S
C566 H578 0.960 . S
C566 H579 0.962 . S
C566 H580 0.960 . S
C567 C564 1.511 . S
C567 H581 0.961 . S
C567 H582 0.961 . S
C567 H583 0.961 . S
C568 C569 1.370 . S
C568 C570 1.363 . S
C568 H584 0.931 . S
C569 C568 1.370 . S
C569 C573 1.408 . S
C570 C568 1.363 . S
C570 C571 1.370 . S
C570 C574 1.524 . S
C571 C563 1.503 . S
C571 C570 1.370 . S
C571 C572 1.403 . S
C572 C571 1.403 . S
C572 C573 1.404 . S
C572 C575 1.539 . S
C573 C569 1.408 . S
C573 C572 1.404 . S
C573 H585 0.930 . S
C574 C570 1.524 . S
C574 H586 0.956 . S
C574 H587 0.961 . S
C574 H588 0.961 . S
C575 C572 1.539 . S
C575 H589 0.958 . S
C575 H590 0.961 . S
C575 H591 0.960 . S
H576 C560 0.931 . S
H577 C565 0.929 . S
H578 C566 0.960 . S
H579 C566 0.962 . S
H580 C566 0.960 . S
H581 C567 0.961 . S
H582 C567 0.961 . S
H583 C567 0.961 . S
H584 C568 0.931 . S
H585 C573 0.930 . S
H586 C574 0.956 . S
H587 C574 0.961 . S
H588 C574 0.961 . S
H589 C575 0.958 . S
H590 C575 0.961 . S
H591 C575 0.960 . S
C592 C593 1.391 . S
C592 C594 1.394 . S
C592 H608 0.931 . S
C593 C592 1.391 . S
C593 C597 1.376 . S
C594 C592 1.394 . S
C594 C595 1.369 . S
C594 C598 1.531 . S
C595 C594 1.369 . S
C595 C596 1.410 . S
C595 C603 1.503 . S
C596 C595 1.410 . S
C596 C597 1.392 . S
C596 C599 1.511 . S
C597 C593 1.376 . S
C597 C596 1.392 . S
C597 H609 0.929 . S
C598 C594 1.531 . S
C598 H610 0.960 . S
C598 H611 0.962 . S
C598 H612 0.960 . S
C599 C596 1.511 . S
C599 H613 0.961 . S
C599 H614 0.961 . S
C599 H615 0.961 . S
C600 C601 1.370 . S
C600 C602 1.363 . S
C600 H616 0.931 . S
C601 C600 1.370 . S
C601 C605 1.408 . S
C602 C600 1.363 . S
C602 C603 1.370 . S
C602 C606 1.524 . S
C603 C595 1.503 . S
C603 C602 1.370 . S
C603 C604 1.403 . S
C604 C603 1.403 . S
C604 C605 1.404 . S
C604 C607 1.539 . S
C605 C601 1.408 . S
C605 C604 1.404 . S
C605 H617 0.930 . S
C606 C602 1.524 . S
C606 H618 0.956 . S
C606 H619 0.961 . S
C606 H620 0.961 . S
C607 C604 1.539 . S
C607 H621 0.958 . S
C607 H622 0.961 . S
C607 H623 0.960 . S
H608 C592 0.931 . S
H609 C597 0.929 . S
H610 C598 0.960 . S
H611 C598 0.962 . S
H612 C598 0.960 . S
H613 C599 0.961 . S
H614 C599 0.961 . S
H615 C599 0.961 . S
H616 C600 0.931 . S
H617 C605 0.930 . S
H618 C606 0.956 . S
H619 C606 0.961 . S
H620 C606 0.961 . S
H621 C607 0.958 . S
H622 C607 0.961 . S
H623 C607 0.960 . S
C624 C625 1.391 . S
C624 C626 1.394 . S
C624 H640 0.931 . S
C625 C624 1.391 . S
C625 C629 1.376 . S
C626 C624 1.394 . S
C626 C627 1.369 . S
C626 C630 1.531 . S
C627 C626 1.369 . S
C627 C628 1.410 . S
C627 C635 1.503 . S
C628 C627 1.410 . S
C628 C629 1.392 . S
C628 C631 1.511 . S
C629 C625 1.376 . S
C629 C628 1.392 . S
C629 H641 0.929 . S
C630 C626 1.531 . S
C630 H642 0.960 . S
C630 H643 0.962 . S
C630 H644 0.960 . S
C631 C628 1.511 . S
C631 H645 0.961 . S
C631 H646 0.961 . S
C631 H647 0.961 . S
C632 C633 1.370 . S
C632 C634 1.363 . S
C632 H648 0.931 . S
C633 C632 1.370 . S
C633 C637 1.408 . S
C634 C632 1.363 . S
C634 C635 1.370 . S
C634 C638 1.524 . S
C635 C627 1.503 . S
C635 C634 1.370 . S
C635 C636 1.403 . S
C636 C635 1.403 . S
C636 C637 1.404 . S
C636 C639 1.539 . S
C637 C633 1.408 . S
C637 C636 1.404 . S
C637 H649 0.930 . S
C638 C634 1.524 . S
C638 H650 0.956 . S
C638 H651 0.961 . S
C638 H652 0.961 . S
C639 C636 1.539 . S
C639 H653 0.958 . S
C639 H654 0.961 . S
C639 H655 0.960 . S
H640 C624 0.931 . S
H641 C629 0.929 . S
H642 C630 0.960 . S
H643 C630 0.962 . S
H644 C630 0.960 . S
H645 C631 0.961 . S
H646 C631 0.961 . S
H647 C631 0.961 . S
H648 C632 0.931 . S
H649 C637 0.930 . S
H650 C638 0.956 . S
H651 C638 0.961 . S
H652 C638 0.961 . S
H653 C639 0.958 . S
H654 C639 0.961 . S
H655 C639 0.960 . S
C656 C657 1.391 . S
C656 C658 1.394 . S
C656 H672 0.931 . S
C657 C656 1.391 . S
C657 C661 1.376 . S
C658 C656 1.394 . S
C658 C659 1.369 . S
C658 C662 1.531 . S
C659 C658 1.369 . S
C659 C660 1.410 . S
C659 C667 1.503 . S
C660 C659 1.410 . S
C660 C661 1.392 . S
C660 C663 1.511 . S
C661 C657 1.376 . S
C661 C660 1.392 . S
C661 H673 0.929 . S
C662 C658 1.531 . S
C662 H674 0.960 . S
C662 H675 0.962 . S
C662 H676 0.960 . S
C663 C660 1.511 . S
C663 H677 0.961 . S
C663 H678 0.961 . S
C663 H679 0.961 . S
C664 C665 1.370 . S
C664 C666 1.363 . S
C664 H680 0.931 . S
C665 C664 1.370 . S
C665 C669 1.408 . S
C666 C664 1.363 . S
C666 C667 1.370 . S
C666 C670 1.524 . S
C667 C659 1.503 . S
C667 C666 1.370 . S
C667 C668 1.403 . S
C668 C667 1.403 . S
C668 C669 1.404 . S
C668 C671 1.539 . S
C669 C665 1.408 . S
C669 C668 1.404 . S
C669 H681 0.930 . S
C670 C666 1.524 . S
C670 H682 0.956 . S
C670 H683 0.961 . S
C670 H684 0.961 . S
C671 C668 1.539 . S
C671 H685 0.958 . S
C671 H686 0.961 . S
C671 H687 0.960 . S
H672 C656 0.931 . S
H673 C661 0.929 . S
H674 C662 0.960 . S
H675 C662 0.962 . S
H676 C662 0.960 . S
H677 C663 0.961 . S
H678 C663 0.961 . S
H679 C663 0.961 . S
H680 C664 0.931 . S
H681 C669 0.930 . S
H682 C670 0.956 . S
H683 C670 0.961 . S
H684 C670 0.961 . S
H685 C671 0.958 . S
H686 C671 0.961 . S
H687 C671 0.960 . S
C688 C689 1.391 . S
C688 C690 1.394 . S
C688 H704 0.931 . S
C689 C688 1.391 . S
C689 C693 1.376 . S
C690 C688 1.394 . S
C690 C691 1.369 . S
C690 C694 1.531 . S
C691 C690 1.369 . S
C691 C692 1.410 . S
C691 C699 1.503 . S
C692 C691 1.410 . S
C692 C693 1.392 . S
C692 C695 1.511 . S
C693 C689 1.376 . S
C693 C692 1.392 . S
C693 H705 0.929 . S
C694 C690 1.531 . S
C694 H706 0.960 . S
C694 H707 0.962 . S
C694 H708 0.960 . S
C695 C692 1.511 . S
C695 H709 0.961 . S
C695 H710 0.961 . S
C695 H711 0.961 . S
C696 C697 1.370 . S
C696 C698 1.363 . S
C696 H712 0.931 . S
C697 C696 1.370 . S
C697 C701 1.408 . S
C698 C696 1.363 . S
C698 C699 1.370 . S
C698 C702 1.524 . S
C699 C691 1.503 . S
C699 C698 1.370 . S
C699 C700 1.403 . S
C700 C699 1.403 . S
C700 C701 1.404 . S
C700 C703 1.539 . S
C701 C697 1.408 . S
C701 C700 1.404 . S
C701 H713 0.930 . S
C702 C698 1.524 . S
C702 H714 0.956 . S
C702 H715 0.961 . S
C702 H716 0.961 . S
C703 C700 1.539 . S
C703 H717 0.958 . S
C703 H718 0.961 . S
C703 H719 0.960 . S
H704 C688 0.931 . S
H705 C693 0.929 . S
H706 C694 0.960 . S
H707 C694 0.962 . S
H708 C694 0.960 . S
H709 C695 0.961 . S
H710 C695 0.961 . S
H711 C695 0.961 . S
H712 C696 0.931 . S
H713 C701 0.930 . S
H714 C702 0.956 . S
H715 C702 0.961 . S
H716 C702 0.961 . S
H717 C703 0.958 . S
H718 C703 0.961 . S
H719 C703 0.960 . S
C720 C721 1.391 . S
C720 C722 1.394 . S
C720 H736 0.931 . S
C721 C720 1.391 . S
C721 C725 1.376 . S
C722 C720 1.394 . S
C722 C723 1.369 . S
C722 C726 1.524 1_556 S
C723 C722 1.369 . S
C723 C724 1.410 . S
C723 C731 1.503 1_556 S
C724 C723 1.410 . S
C724 C725 1.392 . S
C724 C727 1.512 1_556 S
C725 C721 1.376 . S
C725 C724 1.392 . S
C725 H737 0.929 . S
C726 C722 1.524 1_554 S
C726 H738 0.981 . S
C726 H739 0.943 1_554 S
C726 H740 0.965 . S
C727 C724 1.512 1_554 S
C727 H741 0.963 1_554 S
C727 H742 0.961 1_554 S
C727 H743 0.957 . S
C728 C729 1.370 . S
C728 C730 1.363 1_554 S
C728 H744 0.931 1_554 S
C729 C728 1.370 . S
C729 C733 1.408 . S
C730 C728 1.363 1_556 S
C730 C731 1.370 1_556 S
C730 C734 1.524 . S
C731 C723 1.503 1_554 S
C731 C730 1.370 1_554 S
C731 C732 1.403 . S
C732 C731 1.403 . S
C732 C733 1.404 . S
C732 C735 1.539 . S
C733 C729 1.408 . S
C733 C732 1.404 . S
C733 H745 0.930 . S
C734 C730 1.524 . S
C734 H746 0.956 . S
C734 H747 0.961 . S
C734 H748 0.961 . S
C735 C732 1.539 . S
C735 H749 0.958 . S
C735 H750 0.961 . S
C735 H751 0.960 . S
H736 C720 0.931 . S
H737 C725 0.929 . S
H738 C726 0.981 . S
H739 C726 0.943 1_556 S
H740 C726 0.965 . S
H741 C727 0.963 1_556 S
H742 C727 0.961 1_556 S
H743 C727 0.957 . S
H744 C728 0.931 1_556 S
H745 C733 0.930 . S
H746 C734 0.956 . S
H747 C734 0.961 . S
H748 C734 0.961 . S
H749 C735 0.958 . S
H750 C735 0.961 . S
H751 C735 0.960 . S
C752 C753 1.391 . S
C752 C754 1.394 . S
C752 H768 0.931 . S
C753 C752 1.391 . S
C753 C757 1.376 . S
C754 C752 1.394 . S
C754 C755 1.369 . S
C754 C758 1.531 . S
C755 C754 1.369 . S
C755 C756 1.410 . S
C755 C763 1.503 . S
C756 C755 1.410 . S
C756 C757 1.392 . S
C756 C759 1.511 . S
C757 C753 1.376 . S
C757 C756 1.392 . S
C757 H769 0.929 . S
C758 C754 1.531 . S
C758 H770 0.960 . S
C758 H771 0.962 . S
C758 H772 0.960 . S
C759 C756 1.511 . S
C759 H773 0.961 . S
C759 H774 0.961 . S
C759 H775 0.961 . S
C760 C761 1.370 . S
C760 C762 1.363 . S
C760 H776 0.931 . S
C761 C760 1.370 . S
C761 C765 1.408 . S
C762 C760 1.363 . S
C762 C763 1.370 . S
C762 C766 1.524 . S
C763 C755 1.503 . S
C763 C762 1.370 . S
C763 C764 1.403 . S
C764 C763 1.403 . S
C764 C765 1.404 . S
C764 C767 1.539 . S
C765 C761 1.408 . S
C765 C764 1.404 . S
C765 H777 0.930 . S
C766 C762 1.524 . S
C766 H778 0.956 . S
C766 H779 0.961 . S
C766 H780 0.961 . S
C767 C764 1.539 . S
C767 H781 0.958 . S
C767 H782 0.961 . S
C767 H783 0.960 . S
H768 C752 0.931 . S
H769 C757 0.929 . S
H770 C758 0.960 . S
H771 C758 0.962 . S
H772 C758 0.960 . S
H773 C759 0.961 . S
H774 C759 0.961 . S
H775 C759 0.961 . S
H776 C760 0.931 . S
H777 C765 0.930 . S
H778 C766 0.956 . S
H779 C766 0.961 . S
H780 C766 0.961 . S
H781 C767 0.958 . S
H782 C767 0.961 . S
H783 C767 0.960 . S
C784 C785 1.391 . S
C784 C786 1.394 . S
C784 H800 0.931 . S
C785 C784 1.391 . S
C785 C789 1.376 . S
C786 C784 1.394 . S
C786 C787 1.369 . S
C786 C790 1.531 . S
C787 C786 1.369 . S
C787 C788 1.410 . S
C787 C795 1.503 1_554 S
C788 C787 1.410 . S
C788 C789 1.392 . S
C788 C791 1.511 . S
C789 C785 1.376 . S
C789 C788 1.392 . S
C789 H801 0.929 . S
C790 C786 1.531 . S
C790 H802 0.960 . S
C790 H803 0.962 1_554 S
C790 H804 0.960 . S
C791 C788 1.511 . S
C791 H805 0.961 . S
C791 H806 0.961 . S
C791 H807 0.961 . S
C792 C793 1.370 . S
C792 C794 1.363 . S
C792 H808 0.931 . S
C793 C792 1.370 . S
C793 C797 1.408 . S
C794 C792 1.363 . S
C794 C795 1.370 . S
C794 C798 1.524 . S
C795 C787 1.503 1_556 S
C795 C794 1.370 . S
C795 C796 1.403 1_556 S
C796 C795 1.403 1_554 S
C796 C797 1.404 1_554 S
C796 C799 1.539 . S
C797 C793 1.408 . S
C797 C796 1.404 1_556 S
C797 H809 0.930 1_556 S
C798 C794 1.524 . S
C798 H810 0.956 . S
C798 H811 0.961 . S
C798 H812 0.961 . S
C799 C796 1.539 . S
C799 H813 0.958 . S
C799 H814 0.961 . S
C799 H815 0.960 . S
H800 C784 0.931 . S
H801 C789 0.929 . S
H802 C790 0.960 . S
H803 C790 0.962 1_556 S
H804 C790 0.960 . S
H805 C791 0.961 . S
H806 C791 0.961 . S
H807 C791 0.961 . S
H808 C792 0.931 . S
H809 C797 0.930 1_554 S
H810 C798 0.956 . S
H811 C798 0.961 . S
H812 C798 0.961 . S
H813 C799 0.958 . S
H814 C799 0.961 . S
H815 C799 0.960 . S
C816 C817 1.391 . S
C816 C818 1.394 . S
C816 H832 0.931 . S
C817 C816 1.391 . S
C817 C821 1.376 . S
C818 C816 1.394 . S
C818 C819 1.369 . S
C818 C822 1.531 . S
C819 C818 1.369 . S
C819 C820 1.410 . S
C819 C827 1.503 . S
C820 C819 1.410 . S
C820 C821 1.392 . S
C820 C823 1.511 . S
C821 C817 1.376 . S
C821 C820 1.392 . S
C821 H833 0.929 . S
C822 C818 1.531 . S
C822 H834 0.960 . S
C822 H835 0.962 . S
C822 H836 0.960 . S
C823 C820 1.511 . S
C823 H837 0.961 . S
C823 H838 0.961 . S
C823 H839 0.961 . S
C824 C825 1.370 . S
C824 C826 1.363 . S
C824 H840 0.931 . S
C825 C824 1.370 . S
C825 C829 1.408 . S
C826 C824 1.363 . S
C826 C827 1.370 . S
C826 C830 1.524 . S
C827 C819 1.503 . S
C827 C826 1.370 . S
C827 C828 1.403 . S
C828 C827 1.403 . S
C828 C829 1.404 . S
C828 C831 1.539 . S
C829 C825 1.408 . S
C829 C828 1.404 . S
C829 H841 0.930 . S
C830 C826 1.524 . S
C830 H842 0.956 . S
C830 H843 0.961 . S
C830 H844 0.961 . S
C831 C828 1.539 . S
C831 H845 0.958 . S
C831 H846 0.961 . S
C831 H847 0.960 . S
H832 C816 0.931 . S
H833 C821 0.929 . S
H834 C822 0.960 . S
H835 C822 0.962 . S
H836 C822 0.960 . S
H837 C823 0.961 . S
H838 C823 0.961 . S
H839 C823 0.961 . S
H840 C824 0.931 . S
H841 C829 0.930 . S
H842 C830 0.956 . S
H843 C830 0.961 . S
H844 C830 0.961 . S
H845 C831 0.958 . S
H846 C831 0.961 . S
H847 C831 0.960 . S
C848 C849 1.391 . S
C848 C850 1.394 1_554 S
C848 H864 0.931 . S
C849 C848 1.391 . S
C849 C853 1.376 . S
C850 C848 1.394 1_556 S
C850 C851 1.369 1_556 S
C850 C854 1.531 . S
C851 C850 1.369 1_554 S
C851 C852 1.410 . S
C851 C859 1.503 1_554 S
C852 C851 1.410 . S
C852 C853 1.392 . S
C852 C855 1.511 . S
C853 C849 1.376 . S
C853 C852 1.392 . S
C853 H865 0.929 . S
C854 C850 1.531 . S
C854 H866 0.960 . S
C854 H867 0.962 . S
C854 H868 0.960 . S
C855 C852 1.511 . S
C855 H869 0.961 . S
C855 H870 0.961 . S
C855 H871 0.961 . S
C856 C857 1.370 . S
C856 C858 1.363 1_556 S
C856 H872 0.915 1_556 S
C857 C856 1.370 . S
C857 C861 1.408 . S
C858 C856 1.363 1_554 S
C858 C859 1.370 1_554 S
C858 C862 1.524 . S
C859 C851 1.503 1_556 S
C859 C858 1.370 1_556 S
C859 C860 1.403 . S
C860 C859 1.403 . S
C860 C861 1.404 . S
C860 C863 1.539 . S
C861 C857 1.408 . S
C861 C860 1.404 . S
C861 H873 0.930 . S
C862 C858 1.524 . S
C862 H874 0.956 . S
C862 H875 0.961 . S
C862 H876 0.961 . S
C863 C860 1.539 . S
C863 H877 0.958 . S
C863 H878 0.961 . S
C863 H879 0.960 . S
H864 C848 0.931 . S
H865 C853 0.929 . S
H866 C854 0.960 . S
H867 C854 0.962 . S
H868 C854 0.960 . S
H869 C855 0.961 . S
H870 C855 0.961 . S
H871 C855 0.961 . S
H872 C856 0.915 1_554 S
H873 C861 0.930 . S
H874 C862 0.956 . S
H875 C862 0.961 . S
H876 C862 0.961 . S
H877 C863 0.958 . S
H878 C863 0.961 . S
H879 C863 0.960 . S
C880 C881 1.391 . S
C880 C882 1.394 . S
C880 H896 0.931 . S
C881 C880 1.391 . S
C881 C885 1.376 . S
C882 C880 1.394 . S
C882 C883 1.369 . S
C882 C886 1.531 . S
C883 C882 1.369 . S
C883 C884 1.410 . S
C883 C891 1.503 . S
C884 C883 1.410 . S
C884 C885 1.392 . S
C884 C887 1.511 . S
C885 C881 1.376 . S
C885 C884 1.392 . S
C885 H897 0.929 . S
C886 C882 1.531 . S
C886 H898 0.960 . S
C886 H899 0.962 . S
C886 H900 0.960 . S
C887 C884 1.511 . S
C887 H901 0.961 . S
C887 H902 0.961 . S
C887 H903 0.961 . S
C888 C889 1.370 . S
C888 C890 1.363 . S
C888 H904 0.931 . S
C889 C888 1.370 . S
C889 C893 1.408 . S
C890 C888 1.363 . S
C890 C891 1.370 . S
C890 C894 1.524 . S
C891 C883 1.503 . S
C891 C890 1.370 . S
C891 C892 1.403 . S
C892 C891 1.403 . S
C892 C893 1.404 . S
C892 C895 1.539 . S
C893 C889 1.408 . S
C893 C892 1.404 . S
C893 H905 0.930 . S
C894 C890 1.524 . S
C894 H906 0.956 . S
C894 H907 0.961 . S
C894 H908 0.961 . S
C895 C892 1.539 . S
C895 H909 0.958 . S
C895 H910 0.961 . S
C895 H911 0.960 . S
H896 C880 0.931 . S
H897 C885 0.929 . S
H898 C886 0.960 . S
H899 C886 0.962 . S
H900 C886 0.960 . S
H901 C887 0.961 . S
H902 C887 0.961 . S
H903 C887 0.961 . S
H904 C888 0.931 . S
H905 C893 0.930 . S
H906 C894 0.956 . S
H907 C894 0.961 . S
H908 C894 0.961 . S
H909 C895 0.958 . S
H910 C895 0.961 . S
H911 C895 0.960 . S
C912 C913 1.391 . S
C912 C914 1.394 . S
C912 H928 0.931 . S
C913 C912 1.391 . S
C913 C917 1.376 . S
C914 C912 1.394 . S
C914 C915 1.369 . S
C914 C918 1.531 . S
C915 C914 1.369 . S
C915 C916 1.410 1_554 S
C915 C923 1.503 1_554 S
C916 C915 1.410 1_556 S
C916 C917 1.392 1_556 S
C916 C919 1.511 . S
C917 C913 1.376 . S
C917 C916 1.392 1_554 S
C917 H929 0.929 . S
C918 C914 1.531 . S
C918 H930 0.960 . S
C918 H931 0.962 . S
C918 H932 0.960 . S
C919 C916 1.511 . S
C919 H933 0.961 . S
C919 H934 0.961 . S
C919 H935 0.961 . S
C920 C921 1.370 . S
C920 C922 1.363 . S
C920 H936 0.931 . S
C921 C920 1.370 . S
C921 C925 1.408 . S
C922 C920 1.363 . S
C922 C923 1.370 . S
C922 C926 1.524 . S
C923 C915 1.503 1_556 S
C923 C922 1.370 . S
C923 C924 1.403 1_556 S
C924 C923 1.403 1_554 S
C924 C925 1.404 1_554 S
C924 C927 1.539 . S
C925 C921 1.408 . S
C925 C924 1.404 1_556 S
C925 H937 0.930 . S
C926 C922 1.524 . S
C926 H938 0.956 . S
C926 H939 0.961 . S
C926 H940 0.961 . S
C927 C924 1.539 . S
C927 H941 0.958 . S
C927 H942 0.961 . S
C927 H943 0.960 . S
H928 C912 0.931 . S
H929 C917 0.929 . S
H930 C918 0.960 . S
H931 C918 0.962 . S
H932 C918 0.960 . S
H933 C919 0.961 . S
H934 C919 0.961 . S
H935 C919 0.961 . S
H936 C920 0.931 . S
H937 C925 0.930 . S
H938 C926 0.956 . S
H939 C926 0.961 . S
H940 C926 0.961 . S
H941 C927 0.958 . S
H942 C927 0.961 . S
H943 C927 0.960 . S
C944 C945 1.391 . S
C944 C946 1.394 . S
C944 H960 0.931 . S
C945 C944 1.391 . S
C945 C949 1.376 . S
C946 C944 1.394 . S
C946 C947 1.369 . S
C946 C950 1.531 . S
C947 C946 1.369 . S
C947 C948 1.410 . S
C947 C955 1.503 . S
C948 C947 1.410 . S
C948 C949 1.392 . S
C948 C951 1.511 . S
C949 C945 1.376 . S
C949 C948 1.392 . S
C949 H961 0.929 . S
C950 C946 1.531 . S
C950 H962 0.960 . S
C950 H963 0.962 . S
C950 H964 0.960 . S
C951 C948 1.511 . S
C951 H965 0.961 . S
C951 H966 0.961 . S
C951 H967 0.961 . S
C952 C953 1.370 . S
C952 C954 1.363 . S
C952 H968 0.931 . S
C953 C952 1.370 . S
C953 C957 1.408 . S
C954 C952 1.363 . S
C954 C955 1.370 . S
C954 C958 1.524 . S
C955 C947 1.503 . S
C955 C954 1.370 . S
C955 C956 1.403 . S
C956 C955 1.403 . S
C956 C957 1.404 . S
C956 C959 1.539 . S
C957 C953 1.408 . S
C957 C956 1.404 . S
C957 H969 0.930 . S
C958 C954 1.524 . S
C958 H970 0.956 . S
C958 H971 0.961 . S
C958 H972 0.961 . S
C959 C956 1.539 . S
C959 H973 0.958 . S
C959 H974 0.961 . S
C959 H975 0.960 . S
H960 C944 0.931 . S
H961 C949 0.929 . S
H962 C950 0.960 . S
H963 C950 0.962 . S
H964 C950 0.960 . S
H965 C951 0.961 . S
H966 C951 0.961 . S
H967 C951 0.961 . S
H968 C952 0.931 . S
H969 C957 0.930 . S
H970 C958 0.956 . S
H971 C958 0.961 . S
H972 C958 0.961 . S
H973 C959 0.958 . S
H974 C959 0.961 . S
H975 C959 0.960 . S
C976 C977 1.391 . S
C976 C978 1.394 1_556 S
C976 H992 0.931 1_556 S
C977 C976 1.391 . S
C977 C981 1.376 . S
C978 C976 1.394 1_554 S
C978 C979 1.369 1_554 S
C978 C982 1.531 . S
C979 C978 1.369 1_556 S
C979 C980 1.410 . S
C979 C987 1.503 1_556 S
C980 C979 1.410 . S
C980 C981 1.392 . S
C980 C983 1.511 . S
C981 C977 1.376 . S
C981 C980 1.392 . S
C981 H993 0.929 . S
C982 C978 1.531 . S
C982 H994 0.960 . S
C982 H995 0.962 . S
C982 H996 0.960 . S
C983 C980 1.511 . S
C983 H997 0.961 . S
C983 H998 0.961 . S
C983 H999 0.961 . S
C984 C985 1.370 . S
C984 C986 1.363 . S
C984 H1000 0.931 . S
C985 C984 1.370 . S
C985 C989 1.408 . S
C986 C984 1.363 . S
C986 C987 1.370 . S
C986 C990 1.524 1_554 S
C987 C979 1.503 1_554 S
C987 C986 1.370 . S
C987 C988 1.403 . S
C988 C987 1.403 . S
C988 C989 1.404 . S
C988 C991 1.539 . S
C989 C985 1.408 . S
C989 C988 1.404 . S
C989 H1001 0.930 . S
C990 C986 1.524 1_556 S
C990 H1002 0.956 . S
C990 H1003 0.961 . S
C990 H1004 0.961 . S
C991 C988 1.539 . S
C991 H1005 0.958 . S
C991 H1006 0.961 . S
C991 H1007 0.960 . S
H992 C976 0.931 1_554 S
H993 C981 0.929 . S
H994 C982 0.960 . S
H995 C982 0.962 . S
H996 C982 0.960 . S
H997 C983 0.961 . S
H998 C983 0.961 . S
H999 C983 0.961 . S
H1000 C984 0.931 . S
H1001 C989 0.930 . S
H1002 C990 0.956 . S
H1003 C990 0.961 . S
H1004 C990 0.961 . S
H1005 C991 0.958 . S
H1006 C991 0.961 . S
H1007 C991 0.960 . S
C1008 C1009 1.391 . S
C1008 C1010 1.394 . S
C1008 H1024 0.931 . S
C1009 C1008 1.391 . S
C1009 C1013 1.376 . S
C1010 C1008 1.394 . S
C1010 C1011 1.369 . S
C1010 C1014 1.531 . S
C1011 C1010 1.369 . S
C1011 C1012 1.410 . S
C1011 C1019 1.503 . S
C1012 C1011 1.410 . S
C1012 C1013 1.392 . S
C1012 C1015 1.511 . S
C1013 C1009 1.376 . S
C1013 C1012 1.392 . S
C1013 H1025 0.929 . S
C1014 C1010 1.531 . S
C1014 H1026 0.960 . S
C1014 H1027 0.962 . S
C1014 H1028 0.960 . S
C1015 C1012 1.511 . S
C1015 H1029 0.961 . S
C1015 H1030 0.961 . S
C1015 H1031 0.961 . S
C1016 C1017 1.370 . S
C1016 C1018 1.363 . S
C1016 H1032 0.931 . S
C1017 C1016 1.370 . S
C1017 C1021 1.408 . S
C1018 C1016 1.363 . S
C1018 C1019 1.370 . S
C1018 C1022 1.524 . S
C1019 C1011 1.503 . S
C1019 C1018 1.370 . S
C1019 C1020 1.403 . S
C1020 C1019 1.403 . S
C1020 C1021 1.404 . S
C1020 C1023 1.539 . S
C1021 C1017 1.408 . S
C1021 C1020 1.404 . S
C1021 H1033 0.930 . S
C1022 C1018 1.524 . S
C1022 H1034 0.956 . S
C1022 H1035 0.961 . S
C1022 H1036 0.961 . S
C1023 C1020 1.539 . S
C1023 H1037 0.958 . S
C1023 H1038 0.961 . S
C1023 H1039 0.960 . S
H1024 C1008 0.931 . S
H1025 C1013 0.929 . S
H1026 C1014 0.960 . S
H1027 C1014 0.962 . S
H1028 C1014 0.960 . S
H1029 C1015 0.961 . S
H1030 C1015 0.961 . S
H1031 C1015 0.961 . S
H1032 C1016 0.931 . S
H1033 C1021 0.930 . S
H1034 C1022 0.956 . S
H1035 C1022 0.961 . S
H1036 C1022 0.961 . S
H1037 C1023 0.958 . S
H1038 C1023 0.961 . S
H1039 C1023 0.960 . S
C1040 C1041 1.391 . S
C1040 C1042 1.393 . S
C1040 H1056 0.931 . S
C1041 C1040 1.391 . S
C1041 C1045 1.376 . S
C1042 C1040 1.393 . S
C1042 C1043 1.369 . S
C1042 C1046 1.532 1_554 S
C1043 C1042 1.369 . S
C1043 C1044 1.410 . S
C1043 C1051 1.503 1_554 S
C1044 C1043 1.410 . S
C1044 C1045 1.392 . S
C1044 C1047 1.511 . S
C1045 C1041 1.376 . S
C1045 C1044 1.392 . S
C1045 H1057 0.929 . S
C1046 C1042 1.532 1_556 S
C1046 H1058 0.960 . S
C1046 H1059 0.962 . S
C1046 H1060 0.960 . S
C1047 C1044 1.511 . S
C1047 H1061 0.961 . S
C1047 H1062 0.961 . S
C1047 H1063 0.961 . S
C1048 C1049 1.370 . S
C1048 C1050 1.363 1_556 S
C1048 H1064 0.931 1_556 S
C1049 C1048 1.370 . S
C1049 C1053 1.408 . S
C1050 C1048 1.363 1_554 S
C1050 C1051 1.370 1_554 S
C1050 C1054 1.524 . S
C1051 C1043 1.503 1_556 S
C1051 C1050 1.370 1_556 S
C1051 C1052 1.403 . S
C1052 C1051 1.403 . S
C1052 C1053 1.404 . S
C1052 C1055 1.539 . S
C1053 C1049 1.408 . S
C1053 C1052 1.404 . S
C1053 H1065 0.930 . S
C1054 C1050 1.524 . S
C1054 H1066 0.956 . S
C1054 H1067 0.961 . S
C1054 H1068 0.961 . S
C1055 C1052 1.539 . S
C1055 H1069 0.958 . S
C1055 H1070 0.961 . S
C1055 H1071 0.960 . S
H1056 C1040 0.931 . S
H1057 C1045 0.929 . S
H1058 C1046 0.960 . S
H1059 C1046 0.962 . S
H1060 C1046 0.960 . S
H1061 C1047 0.961 . S
H1062 C1047 0.961 . S
H1063 C1047 0.961 . S
H1064 C1048 0.931 1_554 S
H1065 C1053 0.930 . S
H1066 C1054 0.956 . S
H1067 C1054 0.961 . S
H1068 C1054 0.961 . S
H1069 C1055 0.958 . S
H1070 C1055 0.961 . S
H1071 C1055 0.960 . S
C1072 C1073 1.391 . S
C1072 C1074 1.394 . S
C1072 H1088 0.931 . S
C1073 C1072 1.391 . S
C1073 C1077 1.376 . S
C1074 C1072 1.394 . S
C1074 C1075 1.369 . S
C1074 C1078 1.531 . S
C1075 C1074 1.369 . S
C1075 C1076 1.410 . S
C1075 C1083 1.503 . S
C1076 C1075 1.410 . S
C1076 C1077 1.392 . S
C1076 C1079 1.511 . S
C1077 C1073 1.376 . S
C1077 C1076 1.392 . S
C1077 H1089 0.929 . S
C1078 C1074 1.531 . S
C1078 H1090 0.960 . S
C1078 H1091 0.962 . S
C1078 H1092 0.960 . S
C1079 C1076 1.511 . S
C1079 H1093 0.961 . S
C1079 H1094 0.961 . S
C1079 H1095 0.961 . S
C1080 C1081 1.370 . S
C1080 C1082 1.363 . S
C1080 H1096 0.931 . S
C1081 C1080 1.370 . S
C1081 C1085 1.408 . S
C1082 C1080 1.363 . S
C1082 C1083 1.370 . S
C1082 C1086 1.524 . S
C1083 C1075 1.503 . S
C1083 C1082 1.370 . S
C1083 C1084 1.403 . S
C1084 C1083 1.403 . S
C1084 C1085 1.404 . S
C1084 C1087 1.539 . S
C1085 C1081 1.408 . S
C1085 C1084 1.404 . S
C1085 H1097 0.930 . S
C1086 C1082 1.524 . S
C1086 H1098 0.956 . S
C1086 H1099 0.961 . S
C1086 H1100 0.961 . S
C1087 C1084 1.539 . S
C1087 H1101 0.958 . S
C1087 H1102 0.961 . S
C1087 H1103 0.960 . S
H1088 C1072 0.931 . S
H1089 C1077 0.929 . S
H1090 C1078 0.960 . S
H1091 C1078 0.962 . S
H1092 C1078 0.960 . S
H1093 C1079 0.961 . S
H1094 C1079 0.961 . S
H1095 C1079 0.961 . S
H1096 C1080 0.931 . S
H1097 C1085 0.930 . S
H1098 C1086 0.956 . S
H1099 C1086 0.961 . S
H1100 C1086 0.961 . S
H1101 C1087 0.958 . S
H1102 C1087 0.961 . S
H1103 C1087 0.960 . S
C1104 C1105 1.391 . S
C1104 C1106 1.394 . S
C1104 H1120 0.931 . S
C1105 C1104 1.391 . S
C1105 C1109 1.376 . S
C1106 C1104 1.394 . S
C1106 C1107 1.369 . S
C1106 C1110 1.531 1_545 S
C1107 C1106 1.369 . S
C1107 C1108 1.410 1_556 S
C1107 C1115 1.503 1_546 S
C1108 C1107 1.410 1_554 S
C1108 C1109 1.392 1_554 S
C1108 C1111 1.511 . S
C1109 C1105 1.376 . S
C1109 C1108 1.392 1_556 S
C1109 H1121 0.929 . S
C1110 C1106 1.531 1_565 S
C1110 H1122 0.960 . S
C1110 H1123 0.962 . S
C1110 H1124 0.949 1_565 S
C1111 C1108 1.511 . S
C1111 H1125 0.961 . S
C1111 H1126 0.961 . S
C1111 H1127 0.961 . S
C1112 C1113 1.370 . S
C1112 C1114 1.363 . S
C1112 H1128 0.931 . S
C1113 C1112 1.370 . S
C1113 C1117 1.408 . S
C1114 C1112 1.363 . S
C1114 C1115 1.370 . S
C1114 C1118 1.524 1_554 S
C1115 C1107 1.503 1_564 S
C1115 C1114 1.370 . S
C1115 C1116 1.403 . S
C1116 C1115 1.403 . S
C1116 C1117 1.404 . S
C1116 C1119 1.539 1_565 S
C1117 C1113 1.408 . S
C1117 C1116 1.404 . S
C1117 H1129 0.930 . S
C1118 C1114 1.524 1_556 S
C1118 H1130 0.956 . S
C1118 H1131 0.961 . S
C1118 H1132 0.961 . S
C1119 C1116 1.539 1_545 S
C1119 H1133 0.958 1_545 S
C1119 H1134 0.961 1_545 S
C1119 H1135 0.960 . S
H1120 C1104 0.931 . S
H1121 C1109 0.929 . S
H1122 C1110 0.960 . S
H1123 C1110 0.962 . S
H1124 C1110 0.949 1_545 S
H1125 C1111 0.961 . S
H1126 C1111 0.961 . S
H1127 C1111 0.961 . S
H1128 C1112 0.931 . S
H1129 C1117 0.930 . S
H1130 C1118 0.956 . S
H1131 C1118 0.961 . S
H1132 C1118 0.961 . S
H1133 C1119 0.958 1_565 S
H1134 C1119 0.961 1_565 S
H1135 C1119 0.960 . S
C1136 C1137 1.391 . S
C1136 C1138 1.394 . S
C1136 H1152 0.931 . S
C1137 C1136 1.391 . S
C1137 C1141 1.376 . S
C1138 C1136 1.394 . S
C1138 C1139 1.369 . S
C1138 C1142 1.531 . S
C1139 C1138 1.369 . S
C1139 C1140 1.410 . S
C1139 C1147 1.503 1_565 S
C1140 C1139 1.410 . S
C1140 C1141 1.392 . S
C1140 C1143 1.511 . S
C1141 C1137 1.376 . S
C1141 C1140 1.392 . S
C1141 H1153 0.929 . S
C1142 C1138 1.531 . S
C1142 H1154 0.960 1_565 S
C1142 H1155 0.962 . S
C1142 H1156 0.960 . S
C1143 C1140 1.511 . S
C1143 H1157 0.961 . S
C1143 H1158 0.961 . S
C1143 H1159 0.961 . S
C1144 C1145 1.370 . S
C1144 C1146 1.363 . S
C1144 H1160 0.931 . S
C1145 C1144 1.370 . S
C1145 C1149 1.408 . S
C1146 C1144 1.363 . S
C1146 C1147 1.370 . S
C1146 C1150 1.524 1_545 S
C1147 C1139 1.503 1_545 S
C1147 C1146 1.370 . S
C1147 C1148 1.403 . S
C1148 C1147 1.403 . S
C1148 C1149 1.404 . S
C1148 C1151 1.539 . S
C1149 C1145 1.408 . S
C1149 C1148 1.404 . S
C1149 H1161 0.930 . S
C1150 C1146 1.524 1_565 S
C1150 H1162 0.956 . S
C1150 H1163 0.961 . S
C1150 H1164 0.961 . S
C1151 C1148 1.539 . S
C1151 H1165 0.958 . S
C1151 H1166 0.961 . S
C1151 H1167 0.960 . S
H1152 C1136 0.931 . S
H1153 C1141 0.929 . S
H1154 C1142 0.960 1_545 S
H1155 C1142 0.962 . S
H1156 C1142 0.960 . S
H1157 C1143 0.961 . S
H1158 C1143 0.961 . S
H1159 C1143 0.961 . S
H1160 C1144 0.931 . S
H1161 C1149 0.930 . S
H1162 C1150 0.956 . S
H1163 C1150 0.961 . S
H1164 C1150 0.961 . S
H1165 C1151 0.958 . S
H1166 C1151 0.961 . S
H1167 C1151 0.960 . S
C1168 C1169 1.391 . S
C1168 C1170 1.394 . S
C1168 H1184 0.931 . S
C1169 C1168 1.391 . S
C1169 C1173 1.376 . S
C1170 C1168 1.394 . S
C1170 C1171 1.369 . S
C1170 C1174 1.531 1_565 S
C1171 C1170 1.369 . S
C1171 C1172 1.410 . S
C1171 C1179 1.503 1_564 S
C1172 C1171 1.410 . S
C1172 C1173 1.392 . S
C1172 C1175 1.511 1_554 S
C1173 C1169 1.376 . S
C1173 C1172 1.392 . S
C1173 H1185 0.929 . S
C1174 C1170 1.531 1_545 S
C1174 H1186 0.960 . S
C1174 H1187 0.962 . S
C1174 H1188 0.961 1_545 S
C1175 C1172 1.511 1_556 S
C1175 H1189 0.961 . S
C1175 H1190 0.961 . S
C1175 H1191 0.961 . S
C1176 C1177 1.370 . S
C1176 C1178 1.363 . S
C1176 H1192 0.931 . S
C1177 C1176 1.370 . S
C1177 C1181 1.408 . S
C1178 C1176 1.363 . S
C1178 C1179 1.370 . S
C1178 C1182 1.524 1_545 S
C1179 C1171 1.503 1_546 S
C1179 C1178 1.370 . S
C1179 C1180 1.403 1_556 S
C1180 C1179 1.403 1_554 S
C1180 C1181 1.404 1_554 S
C1180 C1183 1.539 . S
C1181 C1177 1.408 . S
C1181 C1180 1.404 1_556 S
C1181 H1193 0.940 . S
C1182 C1178 1.524 1_565 S
C1182 H1194 0.956 . S
C1182 H1195 0.961 . S
C1182 H1196 0.961 . S
C1183 C1180 1.539 . S
C1183 H1197 0.958 . S
C1183 H1198 0.961 . S
C1183 H1199 0.960 . S
H1184 C1168 0.931 . S
H1185 C1173 0.929 . S
H1186 C1174 0.960 . S
H1187 C1174 0.962 . S
H1188 C1174 0.961 1_565 S
H1189 C1175 0.961 . S
H1190 C1175 0.961 . S
H1191 C1175 0.961 . S
H1192 C1176 0.931 . S
H1193 C1181 0.940 . S
H1194 C1182 0.956 . S
H1195 C1182 0.961 . S
H1196 C1182 0.961 . S
H1197 C1183 0.958 . S
H1198 C1183 0.961 . S
H1199 C1183 0.960 . S
C1200 C1201 1.391 . S
C1200 C1202 1.394 . S
C1200 H1216 0.931 . S
C1201 C1200 1.391 . S
C1201 C1205 1.376 . S
C1202 C1200 1.394 . S
C1202 C1203 1.369 . S
C1202 C1206 1.531 . S
C1203 C1202 1.369 . S
C1203 C1204 1.410 . S
C1203 C1211 1.503 1_545 S
C1204 C1203 1.410 . S
C1204 C1205 1.392 . S
C1204 C1207 1.511 . S
C1205 C1201 1.376 . S
C1205 C1204 1.392 . S
C1205 H1217 0.929 . S
C1206 C1202 1.531 . S
C1206 H1218 0.960 1_545 S
C1206 H1219 0.962 . S
C1206 H1220 0.960 . S
C1207 C1204 1.511 . S
C1207 H1221 0.961 . S
C1207 H1222 0.961 1_545 S
C1207 H1223 0.961 1_545 S
C1208 C1209 1.370 . S
C1208 C1210 1.363 . S
C1208 H1224 0.931 . S
C1209 C1208 1.370 . S
C1209 C1213 1.408 . S
C1210 C1208 1.363 . S
C1210 C1211 1.370 . S
C1210 C1214 1.524 1_565 S
C1211 C1203 1.503 1_565 S
C1211 C1210 1.370 . S
C1211 C1212 1.403 . S
C1212 C1211 1.403 . S
C1212 C1213 1.404 . S
C1212 C1215 1.539 . S
C1213 C1209 1.408 . S
C1213 C1212 1.404 . S
C1213 H1225 0.930 . S
C1214 C1210 1.524 1_545 S
C1214 H1226 0.956 . S
C1214 H1227 0.961 . S
C1214 H1228 0.961 . S
C1215 C1212 1.539 . S
C1215 H1229 0.958 . S
C1215 H1230 0.961 . S
C1215 H1231 0.960 . S
H1216 C1200 0.931 . S
H1217 C1205 0.929 . S
H1218 C1206 0.960 1_565 S
H1219 C1206 0.962 . S
H1220 C1206 0.960 . S
H1221 C1207 0.961 . S
H1222 C1207 0.961 1_565 S
H1223 C1207 0.961 1_565 S
H1224 C1208 0.931 . S
H1225 C1213 0.930 . S
H1226 C1214 0.956 . S
H1227 C1214 0.961 . S
H1228 C1214 0.961 . S
H1229 C1215 0.958 . S
H1230 C1215 0.961 . S
H1231 C1215 0.960 . S
C209 C5 1.431 . S
C217 C83 1.416 . S
C241 C18 1.389 . S
C249 C96 1.401 . S
C273 C57 1.393 . S
C281 C31 1.412 . S
C305 C70 1.435 . S
C313 C44 1.424 . S
C337 C187 1.439 . S
C345 C109 1.422 . S
C369 C200 1.384 . S
C377 C122 1.406 . S
C401 C135 1.409 . S
C409 C161 1.406 . S
C433 C148 1.431 . S
C441 C174 1.425 . S
C465 C10 1.374 . S
C473 C73 1.341 . S
C497 C23 1.374 . S
C505 C60 1.339 . S
C529 C36 1.374 . S
C537 C99 1.341 . S
C561 C86 1.322 . S
C569 C49 1.392 . S
C593 C177 1.334 . S
C601 C114 1.395 . S
C625 C164 1.328 . S
C633 C127 1.393 . S
C657 C140 1.375 . S
C665 C203 1.338 . S
C689 C190 1.343 . S
C697 C153 1.388 . S
C721 C156 1.241 . S
C729 C0 1.257 . S
C753 C13 1.278 . S
C761 C169 1.274 . S
C785 C182 1.285 . S
C793 C26 1.278 . S
C817 C195 1.240 . S
C825 C39 1.262 . S
C849 C104 1.286 . S
C857 C52 1.276 . S
C881 C117 1.259 . S
C889 C65 1.258 . S
C913 C78 1.262 . S
C921 C130 1.272 . S
C945 C91 1.250 . S
C953 C143 1.259 . S
C977 C34 1.301 . S
C985 C8 1.326 . S
C1009 C21 1.360 . S
C1017 C47 1.351 . S
C1041 C88 1.408 . S
C1049 C62 1.393 . S
C1073 C75 1.378 . S
C1081 C101 1.400 . S
C1105 C138 1.367 . S
C1113 C112 1.353 . S
C1137 C151 1.347 . S
C1145 C125 1.345 . S
C1169 C192 1.379 . S
C1177 C166 1.399 . S
C1201 C205 1.381 . S
C1209 C179 1.403 . S
