# Generated by pormake.
# Topology qtz-a, (4)-cn, num edge types: 1
# Building blocks:
#     Node 0, Type 0, BuildingBlock: UXUYUI_clean_sbu_0, # of connection points: 4
#     Node 1, Type 0, BuildingBlock: UXUYUI_clean_sbu_0, # of connection points: 4
#     Node 2, Type 0, BuildingBlock: UXUYUI_clean_sbu_0, # of connection points: 4
#     Node 3, Type 0, BuildingBlock: UXUYUI_clean_sbu_0, # of connection points: 4
#     Node 4, Type 0, BuildingBlock: UXUYUI_clean_sbu_0, # of connection points: 4
#     Node 5, Type 0, BuildingBlock: UXUYUI_clean_sbu_0, # of connection points: 4
#     Node 6, Type 0, BuildingBlock: UXUYUI_clean_sbu_0, # of connection points: 4
#     Node 7, Type 0, BuildingBlock: UXUYUI_clean_sbu_0, # of connection points: 4
#     Node 8, Type 0, BuildingBlock: UXUYUI_clean_sbu_0, # of connection points: 4
#     Node 9, Type 0, BuildingBlock: UXUYUI_clean_sbu_0, # of connection points: 4
#     Node 10, Type 0, BuildingBlock: UXUYUI_clean_sbu_0, # of connection points: 4
#     Node 11, Type 0, BuildingBlock: UXUYUI_clean_sbu_0, # of connection points: 4
#     Edge 12, Type (0, 0), BuildingBlock: CIFDUS_clean_linker_0, # of connection points: 2
#     Edge 13, Type (0, 0), BuildingBlock: CIFDUS_clean_linker_0, # of connection points: 2
#     Edge 14, Type (0, 0), BuildingBlock: CIFDUS_clean_linker_0, # of connection points: 2
#     Edge 15, Type (0, 0), BuildingBlock: CIFDUS_clean_linker_0, # of connection points: 2
#     Edge 16, Type (0, 0), BuildingBlock: CIFDUS_clean_linker_0, # of connection points: 2
#     Edge 17, Type (0, 0), BuildingBlock: CIFDUS_clean_linker_0, # of connection points: 2
#     Edge 18, Type (0, 0), BuildingBlock: CIFDUS_clean_linker_0, # of connection points: 2
#     Edge 19, Type (0, 0), BuildingBlock: CIFDUS_clean_linker_0, # of connection points: 2
#     Edge 20, Type (0, 0), BuildingBlock: CIFDUS_clean_linker_0, # of connection points: 2
#     Edge 21, Type (0, 0), BuildingBlock: CIFDUS_clean_linker_0, # of connection points: 2
#     Edge 22, Type (0, 0), BuildingBlock: CIFDUS_clean_linker_0, # of connection points: 2
#     Edge 23, Type (0, 0), BuildingBlock: CIFDUS_clean_linker_0, # of connection points: 2
#     Edge 24, Type (0, 0), BuildingBlock: CIFDUS_clean_linker_0, # of connection points: 2
#     Edge 25, Type (0, 0), BuildingBlock: CIFDUS_clean_linker_0, # of connection points: 2
#     Edge 26, Type (0, 0), BuildingBlock: CIFDUS_clean_linker_0, # of connection points: 2
#     Edge 27, Type (0, 0), BuildingBlock: CIFDUS_clean_linker_0, # of connection points: 2
#     Edge 28, Type (0, 0), BuildingBlock: CIFDUS_clean_linker_0, # of connection points: 2
#     Edge 29, Type (0, 0), BuildingBlock: CIFDUS_clean_linker_0, # of connection points: 2
#     Edge 30, Type (0, 0), BuildingBlock: CIFDUS_clean_linker_0, # of connection points: 2
#     Edge 31, Type (0, 0), BuildingBlock: CIFDUS_clean_linker_0, # of connection points: 2
#     Edge 32, Type (0, 0), BuildingBlock: CIFDUS_clean_linker_0, # of connection points: 2
#     Edge 33, Type (0, 0), BuildingBlock: CIFDUS_clean_linker_0, # of connection points: 2
#     Edge 34, Type (0, 0), BuildingBlock: CIFDUS_clean_linker_0, # of connection points: 2
#     Edge 35, Type (0, 0), BuildingBlock: CIFDUS_clean_linker_0, # of connection points: 2
# Relax obj value: 0.910
# Max RMSD: 0.301
# Mean RMSD: 0.301
data_MOF--net-qtz-a--node1-UXUYUI_clean_sbu_0--edge1-CIFDUS_clean_linker_0
_symmetry_space_group_name_H-M    P1
_symmetry_Int_Tables_number       1
_symmetry_cell_setting            triclinic
loop_
_symmetry_equiv_pos_as_xyz
'x, y, z'
_cell_length_a     68.201033
_cell_length_b     68.200604
_cell_length_c     38.871549
_cell_angle_alpha  90.008876
_cell_angle_beta   89.992883
_cell_angle_gamma 120.00932
loop_
_atom_site_label
_atom_site_type_symbol
_atom_site_fract_x
_atom_site_fract_y
_atom_site_fract_z
_atom_type_partial_charge
Li0 Li 0.41725 0.05192 0.17461 0.0
Li1 Li 0.44088 0.09344 0.18897 0.0
Li2 Li 0.45788 0.07189 0.16471 0.0
Li3 Li 0.44428 0.0645 0.22209 0.0
C4 C 0.42494 0.07652 0.11397 0.0
N5 N 0.40267 0.0726 0.05273 0.0
C6 C 0.41379 0.08878 0.1088 0.0
C7 C 0.42488 0.06238 0.08787 0.0
C8 C 0.4026 0.08654 0.07768 0.0
C9 C 0.41346 0.06056 0.05715 0.0
C10 C 0.40956 0.06382 0.24995 0.0
C11 C 0.41221 0.07583 0.30891 0.0
N12 N 0.39666 0.05427 0.31799 0.0
C13 C 0.39358 0.04181 0.25978 0.0
C14 C 0.41895 0.08101 0.27461 0.0
C15 C 0.38728 0.03732 0.29435 0.0
C16 C 0.38589 0.01033 0.14404 0.0
N17 N 0.38925 0.03087 0.15396 0.0
C18 C 0.3599 0.02732 0.11654 0.0
C19 C 0.37568 0.0388 0.14254 0.0
C20 C 0.35804 0.00743 0.10267 0.0
C21 C 0.37026 0.99822 0.11821 0.0
H22 H 0.39664 0.00424 0.15403 0.0
H23 H 0.37862 0.05513 0.15119 0.0
C24 C 0.45661 0.13592 0.16202 0.0
N25 N 0.44126 0.121 0.18468 0.0
C26 C 0.45574 0.15508 0.15216 0.0
C27 C 0.42331 0.14325 0.18943 0.0
C28 C 0.42491 0.12431 0.19875 0.0
C29 C 0.43862 0.15871 0.1653 0.0
H30 H 0.46887 0.13233 0.15038 0.0
H31 H 0.41251 0.11172 0.2159 0.0
C32 C 0.447 0.02821 0.17467 0.0
N33 N 0.46372 0.00122 0.15064 0.0
C34 C 0.45991 0.02259 0.1962 0.0
C35 C 0.44258 0.01999 0.14094 0.0
C36 C 0.46818 0.00893 0.18359 0.0
C37 C 0.4512 0.00642 0.12926 0.0
C38 C 0.49158 0.10187 0.20315 0.0
C39 C 0.50048 0.08829 0.21363 0.0
C40 C 0.50614 0.12375 0.19103 0.0
C41 C 0.52381 0.09681 0.21174 0.0
C42 C 0.52938 0.13165 0.18947 0.0
N43 N 0.53766 0.11813 0.19977 0.0
C44 C 0.48276 0.08886 0.1042 0.0
C45 C 0.49372 0.06607 0.13537 0.0
C46 C 0.49713 0.091 0.07715 0.0
N47 N 0.48069 0.07589 0.13204 0.0
C48 C 0.5082 0.06761 0.10884 0.0
C49 C 0.50961 0.07977 0.07892 0.0
H50 H 0.47281 0.09715 0.10258 0.0
H51 H 0.49267 0.0567 0.15827 0.0
C52 C 0.44032 0.0343 0.27392 0.0
N53 N 0.45038 0.05667 0.26614 0.0
C54 C 0.45023 0.02675 0.29795 0.0
C55 C 0.47868 0.06568 0.30896 0.0
C56 C 0.46818 0.07247 0.28469 0.0
C57 C 0.47068 0.04246 0.31388 0.0
H58 H 0.42625 0.02214 0.25852 0.0
H59 H 0.47574 0.09019 0.27802 0.0
O60 O 0.43592 0.07842 0.14436 0.0
O61 O 0.41639 0.06842 0.21646 0.0
O62 O 0.4386 0.04146 0.18665 0.0
O63 O 0.46873 0.09371 0.20451 0.0
H64 H 0.41354 0.09973 0.1287 0.0
H65 H 0.43362 0.05297 0.09122 0.0
H66 H 0.39381 0.09585 0.07341 0.0
H67 H 0.41319 0.0496 0.03681 0.0
H68 H 0.41939 0.08893 0.32834 0.0
H69 H 0.38628 0.02832 0.24093 0.0
H70 H 0.43146 0.09811 0.26734 0.0
H71 H 0.37499 0.02034 0.3024 0.0
H72 H 0.35055 0.03481 0.10564 0.0
H73 H 0.3694 0.98296 0.10836 0.0
H74 H 0.46806 0.16668 0.13387 0.0
H75 H 0.40968 0.14524 0.19985 0.0
H76 H 0.46383 0.02893 0.22221 0.0
H77 H 0.4327 0.02413 0.12385 0.0
H78 H 0.47826 0.00456 0.19994 0.0
H79 H 0.44796 6e-05 0.10316 0.0
H80 H 0.48946 0.07121 0.22265 0.0
H81 H 0.4996 0.13455 0.18299 0.0
H82 H 0.53089 0.08642 0.21963 0.0
H83 H 0.54084 0.14854 0.1801 0.0
H84 H 0.49777 0.10059 0.05455 0.0
H85 H 0.51796 0.05914 0.1115 0.0
H86 H 0.44346 0.00869 0.30068 0.0
H87 H 0.49417 0.07835 0.32114 0.0
Li88 Li 0.37914 0.46029 0.56338 0.0
Li89 Li 0.37903 0.47797 0.50893 0.0
Li90 Li 0.34386 0.45355 0.53931 0.0
Li91 Li 0.3646 0.43684 0.51056 0.0
C92 C 0.38509 0.50422 0.56676 0.0
N93 N 0.41682 0.54636 0.59138 0.0
C94 C 0.40813 0.51265 0.56066 0.0
C95 C 0.37818 0.51727 0.58531 0.0
C96 C 0.42391 0.53397 0.57334 0.0
C97 C 0.39448 0.53853 0.59755 0.0
C98 C 0.41522 0.46624 0.50559 0.0
C99 C 0.4363 0.46498 0.45658 0.0
N100 N 0.4557 0.47554 0.47537 0.0
C101 C 0.43541 0.47713 0.52438 0.0
C102 C 0.4157 0.4602 0.47137 0.0
C103 C 0.45568 0.48168 0.50866 0.0
C104 C 0.40799 0.45155 0.60112 0.0
N105 N 0.39734 0.46383 0.60256 0.0
C106 C 0.42188 0.48685 0.6476 0.0
C107 C 0.40294 0.48027 0.62664 0.0
C108 C 0.43481 0.47614 0.64385 0.0
C109 C 0.42686 0.4574 0.62169 0.0
H110 H 0.40316 0.43861 0.58162 0.0
H111 H 0.39387 0.48947 0.62784 0.0
C112 C 0.38088 0.51133 0.46379 0.0
N113 N 0.39385 0.50378 0.47901 0.0
C114 C 0.38966 0.52708 0.43703 0.0
C115 C 0.42579 0.52919 0.4451 0.0
C116 C 0.41618 0.51304 0.47112 0.0
C117 C 0.41225 0.53574 0.42693 0.0
H118 H 0.3634 0.50435 0.47135 0.0
H119 H 0.42648 0.5075 0.48418 0.0
C120 C 0.34066 0.42322 0.58959 0.0
N121 N 0.32033 0.40939 0.65329 0.0
C122 C 0.33054 0.40046 0.59915 0.0
C123 C 0.34044 0.43896 0.61241 0.0
C124 C 0.32034 0.3938 0.63148 0.0
C125 C 0.33008 0.43163 0.6445 0.0
C126 C 0.34523 0.45775 0.45861 0.0
C127 C 0.32653 0.46075 0.45439 0.0
C128 C 0.35871 0.4599 0.43016 0.0
C129 C 0.3218 0.4661 0.42188 0.0
C130 C 0.35346 0.46531 0.39809 0.0
N131 N 0.33527 0.46828 0.39465 0.0
C132 C 0.31221 0.46745 0.54781 0.0
C133 C 0.29651 0.42786 0.54012 0.0
C134 C 0.29107 0.46548 0.54282 0.0
N135 N 0.31455 0.44887 0.54535 0.0
C136 C 0.27499 0.42509 0.53516 0.0
C137 C 0.27232 0.44421 0.53514 0.0
H138 H 0.32702 0.48398 0.55115 0.0
H139 H 0.29911 0.41353 0.53745 0.0
C140 C 0.37867 0.40678 0.48634 0.0
N141 N 0.36292 0.41327 0.48282 0.0
C142 C 0.38257 0.39565 0.45934 0.0
C143 C 0.35245 0.39619 0.42735 0.0
C144 C 0.34899 0.40707 0.45507 0.0
C145 C 0.37029 0.39148 0.42849 0.0
H146 H 0.38959 0.41208 0.5087 0.0
H147 H 0.33649 0.41233 0.45311 0.0
O148 O 0.36925 0.48333 0.55479 0.0
O149 O 0.39518 0.46156 0.52072 0.0
O150 O 0.35066 0.42991 0.55799 0.0
O151 O 0.35029 0.45281 0.49042 0.0
H152 H 0.41381 0.50278 0.54659 0.0
H153 H 0.3604 0.51098 0.59032 0.0
H154 H 0.4418 0.54063 0.5689 0.0
H155 H 0.38937 0.54879 0.612 0.0
H156 H 0.43685 0.46029 0.43016 0.0
H157 H 0.43552 0.48226 0.55074 0.0
H158 H 0.40037 0.45178 0.45636 0.0
H159 H 0.4714 0.49011 0.52291 0.0
H160 H 0.42727 0.50116 0.66474 0.0
H161 H 0.43638 0.44878 0.61766 0.0
H162 H 0.37881 0.532 0.42382 0.0
H163 H 0.44333 0.53558 0.43806 0.0
H164 H 0.33056 0.38807 0.58175 0.0
H165 H 0.34815 0.45663 0.60553 0.0
H166 H 0.31243 0.37623 0.63922 0.0
H167 H 0.3298 0.44362 0.66241 0.0
H168 H 0.3158 0.45907 0.47595 0.0
H169 H 0.37322 0.45767 0.43285 0.0
H170 H 0.30744 0.46854 0.41832 0.0
H171 H 0.36387 0.46719 0.37595 0.0
H172 H 0.28959 0.48058 0.54328 0.0
H173 H 0.26097 0.40846 0.529 0.0
H174 H 0.39616 0.39186 0.46166 0.0
H175 H 0.34257 0.39345 0.4042 0.0
Li176 Li 0.91216 0.37769 0.83182 0.0
Li177 Li 0.92786 0.37979 0.88954 0.0
Li178 Li 0.93775 0.36248 0.84136 0.0
Li179 Li 0.9004 0.34382 0.86766 0.0
C180 C 0.96583 0.40797 0.83595 0.0
N181 N 0.01029 0.43523 0.81546 0.0
C182 C 0.98277 0.41971 0.86042 0.0
C183 C 0.97153 0.41016 0.80103 0.0
C184 C 0.00513 0.43342 0.84954 0.0
C185 C 0.9941 0.42399 0.79121 0.0
C186 C 0.88795 0.37874 0.89975 0.0
C187 C 0.8775 0.38156 0.95803 0.0
N188 N 0.87307 0.39807 0.94805 0.0
C189 C 0.88314 0.39562 0.88999 0.0
C190 C 0.88496 0.37152 0.93396 0.0
C191 C 0.87569 0.40523 0.91483 0.0
C192 C 0.88199 0.38296 0.78665 0.0
N193 N 0.90356 0.39258 0.79874 0.0
C194 C 0.91616 0.42237 0.75755 0.0
C195 C 0.92032 0.41237 0.78568 0.0
C196 C 0.89445 0.41202 0.7429 0.0
C197 C 0.87702 0.39243 0.7584 0.0
H198 H 0.86884 0.36748 0.79806 0.0
H199 H 0.93709 0.42014 0.79656 0.0
C200 C 0.95224 0.39919 0.95283 0.0
N201 N 0.9401 0.4008 0.92631 0.0
C202 C 0.96451 0.41776 0.97471 0.0
C203 C 0.95023 0.43839 0.94269 0.0
C204 C 0.93881 0.41981 0.92112 0.0
C205 C 0.96382 0.4378 0.96929 0.0
H206 H 0.95347 0.38407 0.95572 0.0
H207 H 0.93001 0.42104 0.89885 0.0
C208 C 0.89776 0.34405 0.78714 0.0
N209 N 0.87626 0.33726 0.72435 0.0
C210 C 0.87432 0.32973 0.78464 0.0
C211 C 0.91023 0.3549 0.75765 0.0
C212 C 0.86378 0.32649 0.75266 0.0
C213 C 0.89905 0.35128 0.72617 0.0
C214 C 0.92399 0.33175 0.90545 0.0
C215 C 0.92835 0.316 0.8894 0.0
C216 C 0.91271 0.3265 0.93703 0.0
C217 C 0.92105 0.29503 0.90508 0.0
C218 C 0.90567 0.30535 0.95188 0.0
N219 N 0.90994 0.29018 0.93571 0.0
C220 C 0.98232 0.37077 0.82397 0.0
C221 C 0.95176 0.34421 0.78991 0.0
C222 C 0.99784 0.37231 0.79907 0.0
N223 N 0.95974 0.35809 0.81768 0.0
C224 C 0.96656 0.34526 0.76437 0.0
C225 C 0.98987 0.36056 0.76776 0.0
H226 H 0.98827 0.38118 0.8468 0.0
H227 H 0.93374 0.33365 0.78612 0.0
C228 C 0.85634 0.31175 0.89075 0.0
N229 N 0.87522 0.31469 0.87442 0.0
C230 C 0.83589 0.2915 0.88676 0.0
C231 C 0.85514 0.27748 0.85076 0.0
C232 C 0.8752 0.29787 0.85571 0.0
C233 C 0.83493 0.27443 0.86526 0.0
H234 H 0.85677 0.32561 0.90489 0.0
H235 H 0.89035 0.30103 0.84212 0.0
O236 O 0.94382 0.39441 0.84611 0.0
O237 O 0.89543 0.3693 0.87584 0.0
O238 O 0.9084 0.34772 0.81831 0.0
O239 O 0.93063 0.35218 0.89019 0.0
H240 H 0.97876 0.41822 0.88753 0.0
H241 H 0.95872 0.40108 0.78173 0.0
H242 H 0.0184 0.44256 0.86821 0.0
H243 H -0.00126 0.4257 0.76431 0.0
H244 H 0.87524 0.37623 0.98464 0.0
H245 H 0.88531 0.40134 0.86356 0.0
H246 H 0.88853 0.35842 0.94186 0.0
H247 H 0.87202 0.41839 0.9077 0.0
H248 H 0.9299 0.43788 0.747 0.0
H249 H 0.86001 0.38404 0.748 0.0
H250 H 0.97512 0.41685 0.99462 0.0
H251 H 0.94981 0.45372 0.93689 0.0
H252 H 0.86428 0.32148 0.80718 0.0
H253 H 0.92833 0.36617 0.75909 0.0
H254 H 0.84566 0.31552 0.75041 0.0
H255 H 0.9085 0.35967 0.70321 0.0
H256 H 0.93708 0.31984 0.86493 0.0
H257 H 0.90938 0.33861 0.94988 0.0
H258 H 0.92417 0.2826 0.89287 0.0
H259 H 0.89683 0.301 0.97624 0.0
H260 H 0.01572 0.38385 0.80321 0.0
H261 H 0.95948 0.33578 0.74089 0.0
H262 H 0.82079 0.28971 0.8989 0.0
H263 H 0.85524 0.26504 0.83357 0.0
Li264 Li 0.51992 0.9075 0.1804 0.0
Li265 Li 0.53589 0.92447 0.2373 0.0
Li266 Li 0.56111 0.93221 0.18524 0.0
Li267 Li 0.54396 0.89575 0.21433 0.0
C268 C 0.52632 0.9509 0.17949 0.0
N269 N 0.50424 0.97203 0.15193 0.0
C270 C 0.5155 0.95899 0.20102 0.0
C271 C 0.52617 0.95393 0.14391 0.0
C272 C 0.50437 0.96953 0.18662 0.0
C273 C 0.51484 0.96453 0.13048 0.0
C274 C 0.49822 0.87922 0.24948 0.0
C275 C 0.4884 0.85997 0.30416 0.0
N276 N 0.46616 0.85257 0.29775 0.0
C277 C 0.47526 0.87127 0.24326 0.0
C278 C 0.50485 0.87342 0.28003 0.0
C279 C 0.45932 0.85788 0.26806 0.0
C280 C 0.49393 0.88442 0.12281 0.0
N281 N 0.49495 0.89756 0.1498 0.0
C282 C 0.46468 0.90147 0.12654 0.0
C283 C 0.47998 0.9051 0.153 0.0
C284 C 0.46456 0.88957 0.0969 0.0
C285 C 0.47879 0.88019 0.09593 0.0
H286 H 0.50552 0.878 0.12143 0.0
H287 H 0.48073 0.91498 0.1752 0.0
C288 C 0.54583 0.95553 0.29268 0.0
N289 N 0.52924 0.937 0.27637 0.0
C290 C 0.54016 0.96772 0.31568 0.0
C291 C 0.50063 0.94058 0.30625 0.0
C292 C 0.50703 0.92904 0.2835 0.0
C293 C 0.51722 0.96077 0.32159 0.0
H294 H 0.56337 0.96168 0.28615 0.0
H295 H 0.49413 0.91495 0.2692 0.0
C296 C 0.55392 0.90191 0.13378 0.0
N297 N 0.57483 0.90346 0.07204 0.0
C298 C 0.56701 0.89147 0.13065 0.0
C299 C 0.55121 0.91284 0.10527 0.0
C300 C 0.5775 0.8925 0.09928 0.0
C301 C 0.56199 0.91353 0.07436 0.0
C302 C 0.57877 0.92379 0.25888 0.0
C303 C 0.60074 0.92839 0.25164 0.0
C304 C 0.57007 0.91733 0.2921 0.0
C305 C 0.61345 0.92583 0.27761 0.0
C306 C 0.58332 0.91499 0.31737 0.0
N307 N 0.60454 0.91922 0.30965 0.0
C308 C 0.58497 0.96978 0.14254 0.0
C309 C 0.60176 0.94677 0.14809 0.0
C310 C 0.59735 0.97959 0.11272 0.0
N311 N 0.58634 0.95273 0.15819 0.0
C312 C 0.61459 0.95621 0.11832 0.0
C313 C 0.61135 0.97183 0.09925 0.0
H314 H 0.57286 0.97444 0.15144 0.0
H315 H 0.60238 0.93304 0.16096 0.0
C316 C 0.52789 0.84979 0.22464 0.0
N317 N 0.54724 0.87018 0.22265 0.0
C318 C 0.52873 0.82982 0.22315 0.0
C319 C 0.56948 0.85215 0.21818 0.0
C320 C 0.56787 0.87174 0.22022 0.0
C321 C 0.54966 0.83088 0.21876 0.0
H322 H 0.51166 0.84896 0.22508 0.0
H323 H 0.5829 0.88808 0.21717 0.0
O324 O 0.53721 0.94039 0.19322 0.0
O325 O 0.514 0.89241 0.22546 0.0
O326 O 0.54389 0.90148 0.16456 0.0
O327 O 0.56616 0.92634 0.23381 0.0
H328 H 0.51576 0.95731 0.22857 0.0
H329 H 0.5346 0.94808 0.12678 0.0
H330 H 0.49588 0.97578 0.20304 0.0
H331 H 0.51447 0.96679 0.10299 0.0
H332 H 0.49329 0.85535 0.32794 0.0
H333 H 0.46986 0.87553 0.21963 0.0
H334 H 0.52247 0.87899 0.28487 0.0
H335 H 0.44151 0.85171 0.2637 0.0
H336 H 0.45401 0.909 0.12848 0.0
H337 H 0.47879 0.87035 0.07408 0.0
H338 H 0.55352 0.98313 0.32705 0.0
H339 H 0.48276 0.9348 0.30912 0.0
H340 H 0.5692 0.88278 0.15221 0.0
H341 H 0.54095 0.92074 0.10698 0.0
H342 H 0.58779 0.88462 0.09663 0.0
H343 H 0.56015 0.92209 0.05222 0.0
H344 H 0.60783 0.93372 0.22616 0.0
H345 H 0.55337 0.91436 0.29839 0.0
H346 H 0.63041 0.92914 0.2723 0.0
H347 H 0.57677 0.90991 0.34317 0.0
H348 H 0.59478 0.99194 0.09896 0.0
H349 H 0.62522 0.94982 0.10865 0.0
H350 H 0.51303 0.81376 0.22297 0.0
H351 H 0.58591 0.85361 0.21461 0.0
Li352 Li 0.62556 0.5582 0.51598 0.0
Li353 Li 0.65234 0.54886 0.54095 0.0
Li354 Li 0.61946 0.51885 0.50836 0.0
Li355 Li 0.61622 0.5319 0.56434 0.0
C356 C 0.64549 0.55225 0.45769 0.0
N357 N 0.6471 0.56118 0.38809 0.0
C358 C 0.66635 0.56488 0.44115 0.0
C359 C 0.62545 0.54411 0.43881 0.0
C360 C 0.6668 0.56921 0.40594 0.0
C361 C 0.62662 0.54883 0.40367 0.0
C362 C 0.65624 0.58095 0.58122 0.0
C363 C 0.68283 0.59114 0.62797 0.0
N364 N 0.69388 0.61291 0.61655 0.0
C365 C 0.66767 0.60347 0.5702 0.0
C366 C 0.66369 0.57477 0.61055 0.0
C367 C 0.68674 0.61936 0.58832 0.0
C368 C 0.60295 0.57453 0.4747 0.0
N369 N 0.62333 0.58015 0.48881 0.0
C370 C 0.64266 0.60927 0.44692 0.0
C371 C 0.64294 0.59766 0.47637 0.0
C372 C 0.62201 0.60256 0.43023 0.0
C373 C 0.6019 0.58575 0.44544 0.0
H374 H 0.58771 0.55998 0.48399 0.0
H375 H 0.65897 0.60105 0.48706 0.0
C376 C 0.69146 0.5471 0.55695 0.0
N377 N 0.68378 0.56069 0.54486 0.0
C378 C 0.71393 0.55287 0.55147 0.0
C379 C 0.72037 0.5872 0.52321 0.0
C380 C 0.69774 0.58068 0.52903 0.0
C381 C 0.7285 0.57276 0.53327 0.0
H382 H 0.67978 0.53102 0.5686 0.0
H383 H 0.69093 0.59081 0.51889 0.0
C384 C 0.57823 0.52667 0.53578 0.0
N385 N 0.54007 0.52327 0.56655 0.0
C386 C 0.57923 0.54549 0.5519 0.0
C387 C 0.55776 0.50612 0.53531 0.0
C388 C 0.55977 0.54343 0.5673 0.0
C389 C 0.53867 0.50475 0.55099 0.0
C390 C 0.62646 0.49865 0.57387 0.0
C391 C 0.61209 0.47647 0.56271 0.0
C392 C 0.6341 0.50262 0.60789 0.0
C393 C 0.60517 0.45864 0.58607 0.0
C394 C 0.62678 0.48434 0.63047 0.0
N395 N 0.61256 0.46291 0.6192 0.0
C396 C 0.62711 0.49571 0.4551 0.0
C397 C 0.58838 0.48257 0.46685 0.0
C398 C 0.6214 0.48244 0.42541 0.0
N399 N 0.61065 0.49598 0.47449 0.0
C400 C 0.58189 0.46888 0.43763 0.0
C401 C 0.59855 0.46925 0.41592 0.0
H402 H 0.64472 0.50678 0.46166 0.0
H403 H 0.57573 0.48343 0.48237 0.0
C404 C 0.59692 0.53547 0.62751 0.0
N405 N 0.59721 0.52083 0.60405 0.0
C406 C 0.57846 0.52832 0.6498 0.0
C407 C 0.56222 0.4908 0.62539 0.0
C408 C 0.58077 0.49869 0.6035 0.0
C409 C 0.56029 0.50593 0.64772 0.0
H410 H 0.60995 0.55313 0.62685 0.0
H411 H 0.58076 0.48766 0.58358 0.0
O412 O 0.64475 0.54847 0.49238 0.0
O413 O 0.63772 0.56508 0.56359 0.0
O414 O 0.59743 0.52826 0.52174 0.0
O415 O 0.63347 0.51628 0.55129 0.0
H416 H 0.68201 0.57137 0.45539 0.0
H417 H 0.60915 0.53452 0.45126 0.0
H418 H 0.68282 0.579 0.39281 0.0
H419 H 0.61125 0.54276 0.38881 0.0
H420 H 0.68888 0.58655 0.65058 0.0
H421 H 0.6619 0.60863 0.54791 0.0
H422 H 0.65479 0.5575 0.61971 0.0
H423 H 0.69584 0.63683 0.57996 0.0
H424 H 0.65854 0.62193 0.43573 0.0
H425 H 0.58562 0.58022 0.43344 0.0
H426 H 0.71928 0.54102 0.55921 0.0
H427 H 0.73106 0.60278 0.50944 0.0
H428 H 0.59497 0.56147 0.55291 0.0
H429 H 0.55665 0.49124 0.52358 0.0
H430 H 0.56037 0.55782 0.58004 0.0
H431 H 0.52278 0.48892 0.55101 0.0
H432 H 0.60619 0.47306 0.53638 0.0
H433 H 0.64554 0.51962 0.61679 0.0
H434 H 0.5939 0.4414 0.57787 0.0
H435 H 0.63243 0.48718 0.65694 0.0
H436 H 0.63473 0.48311 0.4094 0.0
H437 H 0.56411 0.45922 0.43098 0.0
H438 H 0.57766 0.54053 0.66669 0.0
H439 H 0.54846 0.47358 0.62214 0.0
Li440 Li 0.06967 0.63998 0.84865 0.0
Li441 Li 0.10627 0.65592 0.87819 0.0
Li442 Li 0.09149 0.62001 0.84588 0.0
Li443 Li 0.07475 0.62181 0.90045 0.0
C444 C 0.10587 0.65925 0.79674 0.0
N445 N 0.11777 0.67767 0.7315 0.0
C446 C 0.12183 0.68218 0.79248 0.0
C447 C 0.09614 0.64567 0.76772 0.0
C448 C 0.12757 0.69119 0.75932 0.0
C449 C 0.10233 0.65529 0.73499 0.0
C450 C 0.08099 0.66171 0.92891 0.0
C451 C 0.09969 0.66941 0.984 0.0
N452 N 0.08861 0.68039 0.99401 0.0
C453 C 0.0698 0.67308 0.93973 0.0
C454 C 0.09608 0.65986 0.95119 0.0
C455 C 0.07387 0.68241 0.97275 0.0
C456 C 0.02747 0.62985 0.82186 0.0
N457 N 0.04986 0.64558 0.82132 0.0
C458 C 0.04565 0.66048 0.76808 0.0
C459 C 0.05867 0.66185 0.79663 0.0
C460 C 0.02327 0.64244 0.76552 0.0
C461 C 0.01371 0.62804 0.79407 0.0
H462 H 0.02084 0.61727 0.84208 0.0
H463 H 0.07634 0.67467 0.79741 0.0
C464 C 0.15293 0.68403 0.88631 0.0
N465 N 0.13283 0.68365 0.88577 0.0
C466 C 0.17317 0.7046 0.88399 0.0
C467 C 0.15153 0.7239 0.88185 0.0
C468 C 0.13172 0.70298 0.88462 0.0
C469 C 0.17252 0.72476 0.88052 0.0
H470 H 0.15315 0.66829 0.88646 0.0
H471 H 0.11541 0.70201 0.88354 0.0
C472 C 0.04392 0.58906 0.83872 0.0
N473 N 0.01333 0.55138 0.80182 0.0
C474 C 0.03201 0.56793 0.85484 0.0
C475 C 0.04012 0.59097 0.80387 0.0
C476 C 0.01668 0.54909 0.83572 0.0
C477 C 0.02461 0.57176 0.78566 0.0
C478 C 0.10927 0.61031 0.90336 0.0
C479 C 0.09195 0.5879 0.89917 0.0
C480 C 0.12953 0.61482 0.91907 0.0
C481 C 0.09516 0.57034 0.91083 0.0
C482 C 0.13212 0.59679 0.93037 0.0
N483 N 0.11502 0.57511 0.92606 0.0
C484 C 0.1178 0.61533 0.79453 0.0
C485 C 0.08593 0.58049 0.81097 0.0
C486 C 0.12216 0.60488 0.76704 0.0
N487 N 0.09937 0.60325 0.81491 0.0
C488 C 0.08984 0.56929 0.78413 0.0
C489 C 0.10772 0.58168 0.76112 0.0
H490 H 0.12852 0.63332 0.79863 0.0
H491 H 0.07167 0.57106 0.8278 0.0
C492 C 0.03592 0.59373 0.93651 0.0
N493 N 0.05877 0.60388 0.93916 0.0
C494 C 0.0221 0.57536 0.95747 0.0
C495 C 0.05557 0.57979 0.98601 0.0
C496 C 0.06878 0.59821 0.96452 0.0
C497 C 0.03196 0.56738 0.98137 0.0
H498 H 0.02849 0.59862 0.91604 0.0
H499 H 0.08703 0.60681 0.96639 0.0
O500 O 0.09994 0.65023 0.82913 0.0
O501 O 0.07712 0.65252 0.89662 0.0
O502 O 0.05903 0.6077 0.85712 0.0
O503 O 0.10652 0.62784 0.89234 0.0
H504 H 0.12966 0.69297 0.8145 0.0
H505 H 0.08417 0.62783 0.77034 0.0
H506 H 0.13983 0.70892 0.75571 0.0
H507 H 0.09491 0.64495 0.71236 0.0
H508 H 0.11131 0.6681 0.0015 0.0
H509 H 0.05808 0.67466 0.92277 0.0
H510 H 0.10496 0.65119 0.94332 0.0
H511 H 0.06532 0.69125 0.98147 0.0
H512 H 0.05377 0.6721 0.74693 0.0
H513 H 0.99633 0.6143 0.79366 0.0
H514 H 0.18904 0.70461 0.88266 0.0
H515 H 0.15044 0.73915 0.87935 0.0
H516 H 0.0347 0.56599 0.88174 0.0
H517 H 0.04881 0.60715 0.79103 0.0
H518 H 0.00746 0.53264 0.84786 0.0
H519 H 0.02149 0.57307 0.7587 0.0
H520 H 0.07612 0.58412 0.88745 0.0
H521 H 0.1431 0.63209 0.92258 0.0
H522 H 0.08183 0.55292 0.90787 0.0
H523 H 0.14771 0.60004 0.94259 0.0
H524 H 0.13633 0.61493 0.75012 0.0
H525 H 0.07832 0.55136 0.78041 0.0
H526 H 0.00405 0.56627 0.9526 0.0
H527 H 0.06384 0.57441 0.00444 0.0
Li528 Li 0.90169 0.55992 0.46516 0.0
Li529 Li 0.94018 0.57678 0.48736 0.0
Li530 Li 0.92794 0.55123 0.43526 0.0
Li531 Li 0.91518 0.53577 0.49332 0.0
C532 C 0.92748 0.59472 0.41752 0.0
N533 N 0.92171 0.62122 0.36942 0.0
C534 C 0.93357 0.61704 0.42543 0.0
C535 C 0.91888 0.58601 0.38494 0.0
C536 C 0.93041 0.63014 0.40082 0.0
C537 C 0.91596 0.59963 0.36104 0.0
C538 C 0.91349 0.57222 0.54245 0.0
C539 C 0.92739 0.58333 0.60042 0.0
N540 N 0.91819 0.597 0.60133 0.0
C541 C 0.90408 0.58631 0.54408 0.0
C542 C 0.92515 0.57064 0.57095 0.0
C543 C 0.90667 0.59872 0.57403 0.0
C544 C 0.85826 0.54516 0.48203 0.0
N545 N 0.87554 0.56277 0.46522 0.0
C546 C 0.8559 0.58355 0.46637 0.0
C547 C 0.87455 0.58156 0.45646 0.0
C548 C 0.83848 0.56616 0.48571 0.0
C549 C 0.83945 0.54646 0.49249 0.0
H550 H 0.85978 0.53064 0.48914 0.0
H551 H 0.8887 0.59555 0.44384 0.0
C552 C 0.98051 0.59963 0.52425 0.0
N553 N 0.96321 0.60197 0.51175 0.0
C554 C 0.99253 0.61199 0.55297 0.0
C555 C 0.97086 0.63123 0.55239 0.0
C556 C 0.95919 0.61842 0.52358 0.0
C557 C 0.98668 0.62691 0.5686 0.0
H558 H 0.98361 0.58673 0.51399 0.0
H559 H 0.94528 0.61987 0.51315 0.0
C560 C 0.88168 0.51638 0.42675 0.0
N561 N 0.85079 0.48924 0.37749 0.0
C562 C 0.87374 0.49311 0.4263 0.0
C563 C 0.87363 0.52579 0.40256 0.0
C564 C 0.85822 0.47968 0.40106 0.0
C565 C 0.85809 0.5118 0.37776 0.0
C566 C 0.95705 0.54094 0.48832 0.0
C567 C 0.96482 0.53017 0.46607 0.0
C568 C 0.95996 0.54011 0.5238 0.0
C569 C 0.97487 0.51836 0.4797 0.0
C570 C 0.97004 0.52809 0.53646 0.0
N571 N 0.9772 0.51752 0.51433 0.0
C572 C 0.9551 0.56049 0.37535 0.0
C573 C 0.93127 0.52184 0.38962 0.0
C574 C 0.96751 0.55487 0.35278 0.0
N575 N 0.938 0.54406 0.39421 0.0
C576 C 0.94333 0.51551 0.36777 0.0
C577 C 0.96261 0.53224 0.3505 0.0
H578 H 0.96033 0.57808 0.37997 0.0
H579 H 0.91827 0.50924 0.40592 0.0
C580 C 0.89812 0.5107 0.55394 0.0
N581 N 0.90677 0.5105 0.52256 0.0
C582 C 0.89487 0.49445 0.57847 0.0
C583 C 0.90785 0.47702 0.53699 0.0
C584 C 0.91085 0.49366 0.51322 0.0
C585 C 0.90038 0.47769 0.57047 0.0
H586 H 0.8945 0.52396 0.5604 0.0
H587 H 0.91737 0.49373 0.48783 0.0
O588 O 0.93072 0.58178 0.44119 0.0
O589 O 0.9113 0.56008 0.51316 0.0
O590 O 0.89676 0.52968 0.45148 0.0
O591 O 0.94692 0.5524 0.4754 0.0
H592 H 0.94053 0.62413 0.45039 0.0
H593 H 0.91468 0.56898 0.37806 0.0
H594 H 0.93488 0.64739 0.40667 0.0
H595 H 0.90923 0.59307 0.33577 0.0
H596 H 0.93645 0.58232 0.62256 0.0
H597 H 0.8951 0.5879 0.52239 0.0
H598 H 0.93248 0.55982 0.57036 0.0
H599 H 0.89958 0.60977 0.57552 0.0
H600 H 0.85577 0.59904 0.46079 0.0
H601 H 0.82617 0.53252 0.50683 0.0
H602 H 0.00492 0.60852 0.56457 0.0
H603 H 0.9659 0.64258 0.56384 0.0
H604 H 0.87964 0.48553 0.44513 0.0
H605 H 0.8791 0.54364 0.40313 0.0
H606 H 0.85205 0.46167 0.40024 0.0
H607 H 0.85175 0.51887 0.35882 0.0
H608 H 0.96334 0.53109 0.43856 0.0
H609 H 0.95429 0.54848 0.54141 0.0
H610 H 0.98088 0.50992 0.46274 0.0
H611 H 0.97215 0.52714 0.56388 0.0
H612 H 0.9819 0.56833 0.33948 0.0
H613 H 0.93896 0.49792 0.36766 0.0
H614 H 0.88921 0.49574 0.60396 0.0
H615 H 0.91193 0.46417 0.52956 0.0
Li616 Li 0.37815 0.93592 0.77539 0.0
Li617 Li 0.38 0.92163 0.83183 0.0
Li618 Li 0.34368 0.90493 0.79953 0.0
Li619 Li 0.35972 0.94252 0.82518 0.0
C620 C 0.38839 0.90001 0.77746 0.0
N621 N 0.42152 0.89045 0.75706 0.0
C622 C 0.41122 0.91662 0.77956 0.0
C623 C 0.38238 0.8785 0.76503 0.0
C624 C 0.42773 0.91149 0.76908 0.0
C625 C 0.39939 0.87399 0.75486 0.0
C626 C 0.41217 0.96747 0.83483 0.0
C627 C 0.43221 0.98541 0.88716 0.0
N628 N 0.45215 0.99471 0.86971 0.0
C629 C 0.4329 0.97735 0.8174 0.0
C630 C 0.41185 0.97166 0.86998 0.0
C631 C 0.4529 0.991 0.83549 0.0
C632 C 0.40795 0.97209 0.73428 0.0
N633 N 0.39576 0.94912 0.73509 0.0
C634 C 0.41778 0.94662 0.68936 0.0
C635 C 0.39934 0.93636 0.71179 0.0
C636 C 0.43232 0.97018 0.69078 0.0
C637 C 0.42642 0.98307 0.71213 0.0
H638 H 0.40469 0.98178 0.75314 0.0
H639 H 0.38913 0.91811 0.71256 0.0
C640 C 0.38321 0.89612 0.88507 0.0
N641 N 0.39619 0.91385 0.86397 0.0
C642 C 0.39312 0.89036 0.91167 0.0
C643 C 0.42975 0.92042 0.89322 0.0
C644 C 0.41913 0.92555 0.86692 0.0
C645 C 0.41667 0.90289 0.91646 0.0
H646 H 0.36504 0.88673 0.88168 0.0
H647 H 0.42925 0.93917 0.8494 0.0
C648 C 0.33803 0.92789 0.74508 0.0
N649 N 0.31963 0.91753 0.67975 0.0
C650 C 0.32761 0.9393 0.7313 0.0
C651 C 0.33907 0.91118 0.72565 0.0
C652 C 0.3184 0.93383 0.69822 0.0
C653 C 0.32968 0.9062 0.69267 0.0
C654 C 0.3395 0.91101 0.87916 0.0
C655 C 0.31593 0.89817 0.88202 0.0
C656 C 0.3525 0.92151 0.90839 0.0
C657 C 0.30574 0.89657 0.91387 0.0
C658 C 0.34167 0.91956 0.93977 0.0
N659 N 0.3187 0.90726 0.94182 0.0
C660 C 0.31679 0.85836 0.80134 0.0
C661 C 0.29651 0.8775 0.78961 0.0
C662 C 0.29664 0.83796 0.80574 0.0
N663 N 0.3163 0.87759 0.7942 0.0
C664 C 0.27591 0.85745 0.79397 0.0
C665 C 0.27586 0.8375 0.80327 0.0
H666 H 0.33285 0.85915 0.8055 0.0
H667 H 0.29673 0.89323 0.78485 0.0
C668 C 0.36847 0.98248 0.86024 0.0
N669 N 0.35188 0.96166 0.85009 0.0
C670 C 0.36472 0.99337 0.88771 0.0
C671 C 0.32609 0.96247 0.89081 0.0
C672 C 0.33055 0.95232 0.86303 0.0
C673 C 0.34368 0.98266 0.90461 0.0
H674 H 0.38513 0.98981 0.84891 0.0
H675 H 0.31749 0.93606 0.85369 0.0
O676 O 0.3719 0.9047 0.78728 0.0
O677 O 0.39237 0.95389 0.81755 0.0
O678 O 0.3471 0.93315 0.77745 0.0
O679 O 0.34975 0.91312 0.84797 0.0
H680 H 0.4161 0.93336 0.7888 0.0
H681 H 0.36476 0.86545 0.76314 0.0
H682 H 0.44547 0.92426 0.77043 0.0
H683 H 0.39499 0.85742 0.74515 0.0
H684 H 0.43214 0.98872 0.91437 0.0
H685 H 0.43366 0.97434 0.79028 0.0
H686 H 0.39606 0.96449 0.88385 0.0
H687 H 0.46903 0.99861 0.82233 0.0
H688 H 0.4216 0.93612 0.67296 0.0
H689 H 0.43724 0.00124 0.71428 0.0
H690 H 0.38242 0.87638 0.92849 0.0
H691 H 0.44796 0.9306 0.89596 0.0
H692 H 0.32665 0.95227 0.74604 0.0
H693 H 0.34697 0.90208 0.73583 0.0
H694 H 0.31029 0.94254 0.68723 0.0
H695 H 0.33038 0.89332 0.67736 0.0
H696 H 0.30558 0.88976 0.85982 0.0
H697 H 0.37074 0.93094 0.90699 0.0
H698 H 0.2875 0.88687 0.91634 0.0
H699 H 0.35153 0.92776 0.96251 0.0
H700 H 0.29735 0.8229 0.81234 0.0
H701 H 0.2603 0.85791 0.7922 0.0
H702 H 0.37875 0.00897 0.89747 0.0
H703 H 0.30952 0.9539 0.90275 0.0
Li704 Li 0.48237 0.3804 0.15646 0.0
Li705 Li 0.46801 0.38236 0.10075 0.0
Li706 Li 0.44214 0.37173 0.14995 0.0
Li707 Li 0.45333 0.34647 0.12475 0.0
C708 C 0.47149 0.41958 0.12943 0.0
N709 N 0.47264 0.45675 0.0988 0.0
C710 C 0.45187 0.41774 0.1149 0.0
C711 C 0.49169 0.44036 0.12835 0.0
C712 C 0.4528 0.43672 0.09956 0.0
C713 C 0.49192 0.45895 0.11278 0.0
C714 C 0.50323 0.37466 0.09081 0.0
C715 C 0.51811 0.37465 0.03454 0.0
N716 N 0.53923 0.39005 0.04564 0.0
C717 C 0.52512 0.39027 0.1018 0.0
C718 C 0.49972 0.36655 0.05705 0.0
C719 C 0.54308 0.39793 0.07852 0.0
C720 C 0.50862 0.37511 0.20717 0.0
N721 N 0.50582 0.39076 0.18958 0.0
C722 C 0.5313 0.42014 0.22721 0.0
C723 C 0.51708 0.41297 0.19857 0.0
C724 C 0.53367 0.40419 0.24697 0.0
C725 C 0.52253 0.38149 0.23621 0.0
H726 H 0.49912 0.35749 0.19966 0.0
H727 H 0.51408 0.4249 0.18466 0.0
C728 C 0.46187 0.40066 0.03842 0.0
N729 N 0.47749 0.40117 0.06071 0.0
C730 C 0.46776 0.41879 0.01592 0.0
C731 C 0.50603 0.43645 0.03774 0.0
C732 C 0.49939 0.41818 0.05987 0.0
C733 C 0.48988 0.43751 0.01661 0.0
H734 H 0.44443 0.38722 0.0402 0.0
H735 H 0.5112 0.41887 0.07894 0.0
C736 C 0.45032 0.35352 0.20815 0.0
N737 N 0.44201 0.35227 0.27794 0.0
C738 C 0.43862 0.33276 0.22525 0.0
C739 C 0.45784 0.37364 0.22658 0.0
C740 C 0.43459 0.33249 0.26054 0.0
C741 C 0.45346 0.37266 0.26182 0.0
C742 C 0.42129 0.3407 0.08316 0.0
C743 C 0.39906 0.32606 0.09383 0.0
C744 C 0.42914 0.33634 0.05254 0.0
C745 C 0.38518 0.30698 0.07398 0.0
C746 C 0.41475 0.31709 0.0334 0.0
N747 N 0.39326 0.30291 0.04445 0.0
C748 C 0.4247 0.39244 0.19289 0.0
C749 C 0.40218 0.35247 0.18875 0.0
C750 C 0.41293 0.39248 0.22215 0.0
N751 N 0.41961 0.37256 0.17752 0.0
C752 C 0.38991 0.35175 0.21798 0.0
C753 C 0.39599 0.37186 0.23584 0.0
H754 H 0.43923 0.40805 0.18454 0.0
H755 H 0.39928 0.33683 0.17716 0.0
C756 C 0.45666 0.30833 0.10619 0.0
N757 N 0.44311 0.31533 0.12073 0.0
C758 C 0.45189 0.28608 0.11083 0.0
C759 C 0.4187 0.27853 0.1437 0.0
C760 C 0.42412 0.3009 0.13844 0.0
C761 C 0.43314 0.27111 0.13086 0.0
H762 H 0.47194 0.32037 0.09298 0.0
H763 H 0.41397 0.30717 0.15029 0.0
O764 O 0.471 0.40088 0.14338 0.0
O765 O 0.48549 0.36687 0.11335 0.0
O766 O 0.45375 0.35405 0.17337 0.0
O767 O 0.4353 0.35924 0.10253 0.0
H768 H 0.43615 0.40173 0.11504 0.0
H769 H 0.50716 0.44208 0.13875 0.0
H770 H 0.43778 0.43548 0.08805 0.0
H771 H 0.50747 0.47507 0.11154 0.0
H772 H 0.51562 0.36862 0.00827 0.0
H773 H 0.52819 0.39655 0.12793 0.0
H774 H 0.48299 0.35413 0.04832 0.0
H775 H 0.56007 0.41014 0.08659 0.0
H776 H 0.53924 0.43772 0.23498 0.0
H777 H 0.52396 0.36871 0.25073 0.0
H778 H 0.45479 0.41888 0.99998 0.0
H779 H 0.52309 0.45066 0.03996 0.0
H780 H 0.43262 0.31702 0.21139 0.0
H781 H 0.46666 0.38986 0.21371 0.0
H782 H 0.4255 0.31654 0.27409 0.0
H783 H 0.45905 0.38809 0.27633 0.0
H784 H 0.39262 0.32933 0.11722 0.0
H785 H 0.44615 0.34772 0.04367 0.0
H786 H 0.36799 0.29542 0.08204 0.0
H787 H 0.42065 0.31345 0.00973 0.0
H788 H 0.41804 0.40834 0.23528 0.0
H789 H 0.37718 0.33551 0.22811 0.0
H790 H 0.46364 0.28116 0.10088 0.0
H791 H 0.40397 0.26747 0.15899 0.0
Li792 Li 0.07049 0.45766 0.4371 0.0
Li793 Li 0.08751 0.47635 0.49116 0.0
Li794 Li 0.10235 0.45477 0.45933 0.0
Li795 Li 0.06614 0.43521 0.48907 0.0
C796 C 0.10761 0.50374 0.43297 0.0
N797 N 0.11847 0.54606 0.40863 0.0
C798 C 0.09177 0.51099 0.4346 0.0
C799 C 0.12899 0.518 0.41891 0.0
C800 C 0.09756 0.53243 0.42217 0.0
C801 C 0.13417 0.53935 0.40676 0.0
C802 C 0.04302 0.46548 0.49631 0.0
C803 C 0.02909 0.47449 0.54758 0.0
N804 N 0.01959 0.48399 0.52784 0.0
C805 C 0.03297 0.47525 0.47655 0.0
C806 C 0.04093 0.46501 0.53214 0.0
C807 C 0.02126 0.48455 0.49296 0.0
C808 C 0.0323 0.44697 0.39811 0.0
N809 N 0.05525 0.45951 0.3973 0.0
C810 C 0.05403 0.48027 0.34869 0.0
C811 C 0.06627 0.47495 0.37201 0.0
C812 C 0.03033 0.46935 0.35138 0.0
C813 C 0.01941 0.45162 0.37522 0.0
H814 H 0.02404 0.43475 0.4185 0.0
H815 H 0.08456 0.48432 0.37142 0.0
C816 C 0.11303 0.5046 0.54467 0.0
N817 N 0.09673 0.50155 0.52166 0.0
C818 C 0.11836 0.51966 0.572 0.0
C819 C 0.09157 0.52983 0.54977 0.0
C820 C 0.08667 0.51446 0.52288 0.0
C821 C 0.10703 0.53197 0.57541 0.0
H822 H 0.12129 0.49466 0.54261 0.0
H823 H 0.0741 0.51218 0.50401 0.0
C824 C 0.07667 0.42374 0.40903 0.0
N825 N 0.08373 0.41211 0.34399 0.0
C826 C 0.0648 0.40119 0.39824 0.0
C827 C 0.09217 0.44039 0.38676 0.0
C828 C 0.0686 0.39564 0.36525 0.0
C829 C 0.09548 0.43416 0.35398 0.0
C830 C 0.09846 0.44606 0.53887 0.0
C831 C 0.11032 0.43426 0.54013 0.0
C832 C 0.08867 0.4486 0.56891 0.0
C833 C 0.11177 0.42481 0.57125 0.0
C834 C 0.0905 0.43892 0.59952 0.0
N835 N 0.10188 0.42728 0.60004 0.0
C836 C 0.14878 0.474 0.45663 0.0
C837 C 0.12903 0.43426 0.44761 0.0
C838 C 0.16929 0.47429 0.45903 0.0
N839 N 0.12923 0.45415 0.45171 0.0
C840 C 0.14918 0.43372 0.45019 0.0
C841 C 0.16953 0.45386 0.45688 0.0
H842 H 0.14822 0.4894 0.46079 0.0
H843 H 0.11309 0.41866 0.44458 0.0
C844 C 0.02967 0.40865 0.53288 0.0
N845 N 0.04791 0.40959 0.51722 0.0
C846 C 0.02061 0.39551 0.56229 0.0
C847 C 0.0473 0.38219 0.55622 0.0
C848 C 0.05594 0.39573 0.52688 0.0
C849 C 0.03021 0.38299 0.57506 0.0
H850 H 0.02321 0.41934 0.5241 0.0
H851 H 0.07036 0.3967 0.51369 0.0
O852 O 0.10228 0.48276 0.44483 0.0
O853 O 0.05457 0.45624 0.48066 0.0
O854 O 0.07304 0.42932 0.44129 0.0
O855 O 0.0966 0.45517 0.50847 0.0
H856 H 0.07513 0.50007 0.445 0.0
H857 H 0.14143 0.51261 0.41726 0.0
H858 H 0.0854 0.5382 0.42321 0.0
H859 H 0.15065 0.55057 0.3958 0.0
H860 H 0.02747 0.4743 0.57528 0.0
H861 H 0.03431 0.47586 0.44885 0.0
H862 H 0.04841 0.45748 0.54791 0.0
H863 H 0.01353 0.49223 0.47794 0.0
H864 H 0.06307 0.49383 0.33036 0.0
H865 H 0.0012 0.44289 0.37847 0.0
H866 H 0.13077 0.5212 0.59082 0.0
H867 H 0.08246 0.53903 0.55144 0.0
H868 H 0.05276 0.38811 0.4152 0.0
H869 H 0.10159 0.45793 0.3946 0.0
H870 H 0.05952 0.37825 0.35656 0.0
H871 H 0.10741 0.44687 0.33648 0.0
H872 H 0.11813 0.43219 0.5173 0.0
H873 H 0.07981 0.45801 0.56865 0.0
H874 H 0.12074 0.41549 0.57249 0.0
H875 H 0.08291 0.4407 0.62289 0.0
H876 H 0.18456 0.4901 0.46474 0.0
H877 H 0.14874 0.41766 0.44832 0.0
H878 H 0.00726 0.39629 0.57624 0.0
H879 H 0.05507 0.37271 0.56557 0.0
Li880 Li 0.65765 0.09447 0.79406 0.0
Li881 Li 0.63917 0.05708 0.82025 0.0
Li882 Li 0.62251 0.06555 0.76935 0.0
Li883 Li 0.62181 0.0814 0.82584 0.0
C884 C 0.67116 0.0637 0.77021 0.0
N885 N 0.71001 0.06064 0.76679 0.0
C886 C 0.68664 0.07159 0.79737 0.0
C887 C 0.67541 0.05422 0.74129 0.0
C888 C 0.70619 0.06991 0.79517 0.0
C889 C 0.69516 0.05283 0.74004 0.0
C890 C 0.65947 0.09077 0.87551 0.0
C891 C 0.65394 0.08533 0.93683 0.0
N892 N 0.67666 0.09846 0.94165 0.0
C893 C 0.68277 0.10429 0.88111 0.0
C894 C 0.64494 0.08128 0.90362 0.0
C895 C 0.69112 0.10795 0.91472 0.0
C896 C 0.68671 0.13793 0.81022 0.0
N897 N 0.68571 0.12144 0.78952 0.0
C898 C 0.72518 0.14366 0.77709 0.0
C899 C 0.70415 0.12414 0.77201 0.0
C900 C 0.72697 0.16039 0.80013 0.0
C901 C 0.70724 0.1576 0.81602 0.0
H902 H 0.67171 0.13514 0.82391 0.0
H903 H 0.70282 0.11085 0.75532 0.0
C904 C 0.62439 0.01305 0.84484 0.0
N905 N 0.64175 0.03477 0.84654 0.0
C906 C 0.62031 0.99831 0.87234 0.0
C907 C 0.6538 0.02761 0.90036 0.0
C908 C 0.65737 0.04163 0.87216 0.0
C909 C 0.63416 0.00619 0.90177 0.0
H910 H 0.61236 0.0079 0.82393 0.0
H911 H 0.67145 0.05871 0.87257 0.0
C912 C 0.63622 0.11015 0.7514 0.0
N913 N 0.6471 0.13593 0.69221 0.0
C914 C 0.63077 0.12729 0.74843 0.0
C915 C 0.64725 0.10614 0.72431 0.0
C916 C 0.6364 0.14013 0.71828 0.0
C917 C 0.65259 0.11936 0.69459 0.0
C918 C 0.58801 0.03348 0.82689 0.0
C919 C 0.56818 0.02222 0.80739 0.0
C920 C 0.58752 0.0283 0.86179 0.0
C921 C 0.54815 0.00608 0.82322 0.0
C922 C 0.56717 0.01203 0.87665 0.0
N923 N 0.54806 0.00136 0.85723 0.0
C924 C 0.59934 0.03356 0.71565 0.0
C925 C 0.58798 0.06055 0.72721 0.0
C926 C 0.57982 0.02068 0.69593 0.0
N927 N 0.60254 0.05265 0.73167 0.0
C928 C 0.56831 0.04823 0.70799 0.0
C929 C 0.56342 0.02741 0.69335 0.0
H930 H 0.61097 0.02742 0.72033 0.0
H931 H 0.59053 0.07533 0.74124 0.0
C932 C 0.61699 0.10678 0.87894 0.0
N933 N 0.60533 0.08943 0.85654 0.0
C934 C 0.60568 0.11051 0.90587 0.0
C935 C 0.57046 0.07946 0.8846 0.0
C936 C 0.5824 0.07651 0.85794 0.0
C937 C 0.58224 0.09618 0.90954 0.0
H938 H 0.63521 0.11701 0.8769 0.0
H939 H 0.57343 0.06335 0.83914 0.0
O940 O 0.65184 0.06505 0.77174 0.0
O941 O 0.65103 0.08684 0.84267 0.0
O942 O 0.63088 0.09754 0.78087 0.0
O943 O 0.60776 0.04943 0.81176 0.0
H944 H 0.68376 0.07922 0.81966 0.0
H945 H 0.66356 0.04801 0.72005 0.0
H946 H 0.71835 0.07605 0.81598 0.0
H947 H 0.69867 0.04554 0.71782 0.0
H948 H 0.64286 0.07806 0.95879 0.0
H949 H 0.69436 0.1117 0.85975 0.0
H950 H 0.62688 0.07103 0.89993 0.0
H951 H 0.70911 0.11829 0.91938 0.0
H952 H 0.73994 0.14535 0.76391 0.0
H953 H 0.70781 0.16985 0.83431 0.0
H954 H 0.60535 0.98165 0.87179 0.0
H955 H 0.66511 0.0345 0.92217 0.0
H956 H 0.62227 0.13061 0.76923 0.0
H957 H 0.65165 0.09299 0.72613 0.0
H958 H 0.63226 0.15344 0.7156 0.0
H959 H 0.66112 0.11644 0.67342 0.0
H960 H 0.56819 0.0259 0.78035 0.0
H961 H 0.6027 0.03656 0.87718 0.0
H962 H 0.53267 0.9973 0.80844 0.0
H963 H 0.56659 0.00784 0.90361 0.0
H964 H 0.57692 0.00488 0.68483 0.0
H965 H 0.55613 0.054 0.70756 0.0
H966 H 0.6153 0.1236 0.92463 0.0
H967 H 0.5523 0.06838 0.88628 0.0
Li968 Li 0.55303 0.63095 0.15495 0.0
Li969 Li 0.5375 0.65228 0.12611 0.0
Li970 Li 0.51172 0.61651 0.1562 0.0
Li971 Li 0.52995 0.6167 0.10197 0.0
C972 C 0.53942 0.65298 0.20759 0.0
N973 N 0.54585 0.66976 0.2739 0.0
C974 C 0.54877 0.67621 0.21324 0.0
C975 C 0.53327 0.63828 0.23572 0.0
C976 C 0.55191 0.68436 0.24694 0.0
C977 C 0.53666 0.64709 0.26902 0.0
C978 C 0.56758 0.65476 0.07609 0.0
C979 C 0.55964 0.66569 0.02113 0.0
N980 N 0.58181 0.67484 0.01231 0.0
C981 C 0.59028 0.66426 0.06649 0.0
C982 C 0.55211 0.65547 0.05326 0.0
C983 C 0.59715 0.67434 0.03413 0.0
C984 C 0.58033 0.61432 0.18093 0.0
N985 N 0.57634 0.63191 0.18291 0.0
C986 C 0.59584 0.64366 0.23654 0.0
C987 C 0.5852 0.64737 0.20871 0.0
C988 C 0.59783 0.62411 0.23729 0.0
C989 C 0.59129 0.61019 0.20789 0.0
H990 H 0.57329 0.60241 0.15987 0.0
H991 H 0.58245 0.66163 0.20915 0.0
C992 C 0.52465 0.68452 0.12782 0.0
N993 N 0.54275 0.68187 0.12138 0.0
C994 C 0.52781 0.70598 0.13433 0.0
C995 C 0.56806 0.72172 0.12537 0.0
C996 C 0.56412 0.69986 0.11917 0.0
C997 C 0.54982 0.72478 0.13438 0.0
H998 H 0.50797 0.66977 0.1302 0.0
H999 H 0.57823 0.69708 0.11504 0.0
C1000 C 0.52156 0.58011 0.16063 0.0
N1001 N 0.50833 0.53923 0.19288 0.0
C1002 C 0.51025 0.55984 0.1421 0.0
C1003 C 0.5262 0.57954 0.19552 0.0
C1004 C 0.50367 0.53936 0.15889 0.0
C1005 C 0.51937 0.55872 0.21136 0.0
C1006 C 0.48631 0.61233 0.09793 0.0
C1007 C 0.47719 0.58902 0.10215 0.0
C1008 C 0.47365 0.62046 0.08126 0.0
C1009 C 0.45557 0.57418 0.08946 0.0
C1010 C 0.45206 0.60508 0.06893 0.0
N1011 N 0.44355 0.58245 0.07324 0.0
C1012 C 0.48194 0.6161 0.20609 0.0
C1013 C 0.47423 0.57934 0.1904 0.0
C1014 C 0.46673 0.60731 0.2335 0.0
N1015 N 0.48614 0.6022 0.18622 0.0
C1016 C 0.45858 0.56978 0.21714 0.0
C1017 C 0.45535 0.58393 0.23982 0.0
H1018 H 0.49134 0.63419 0.20184 0.0
H1019 H 0.47747 0.56851 0.17402 0.0
C1020 C 0.53884 0.58799 0.06461 0.0
N1021 N 0.5264 0.59848 0.06288 0.0
C1022 C 0.53336 0.56927 0.04392 0.0
C1023 C 0.50373 0.57381 0.0177 0.0
C1024 C 0.51002 0.59271 0.03866 0.0
C1025 C 0.51478 0.56121 0.02146 0.0
H1026 H 0.55168 0.59292 0.08429 0.0
H1027 H 0.50064 0.6016 0.03733 0.0
O1028 O 0.53631 0.64474 0.17469 0.0
O1029 O 0.5607 0.64488 0.10775 0.0
O1030 O 0.52817 0.60034 0.14452 0.0
O1031 O 0.50741 0.62724 0.11023 0.0
H1032 H 0.55367 0.68787 0.19188 0.0
H1033 H 0.52572 0.62026 0.23193 0.0
H1034 H 0.55918 0.70231 0.25165 0.0
H1035 H 0.53193 0.63589 0.29098 0.0
H1036 H 0.54785 0.66635 0.00321 0.0
H1037 H 0.60246 0.66385 0.0839 0.0
H1038 H 0.53448 0.64824 0.06016 0.0
H1039 H 0.61467 0.68177 0.02636 0.0
H1040 H 0.60063 0.655 0.25836 0.0
H1041 H 0.59315 0.59534 0.20672 0.0
H1042 H 0.51332 0.70774 0.14082 0.0
H1043 H 0.58527 0.7358 0.12547 0.0
H1044 H 0.50643 0.55987 0.11511 0.0
H1045 H 0.53515 0.59499 0.21019 0.0
H1046 H 0.49485 0.52356 0.14488 0.0
H1047 H 0.52291 0.55808 0.23834 0.0
H1048 H 0.48681 0.58246 0.11471 0.0
H1049 H 0.48046 0.63848 0.07786 0.0
H1050 H 0.44837 0.5561 0.09242 0.0
H1051 H 0.44208 0.61113 0.05593 0.0
H1052 H 0.46449 0.61871 0.2503 0.0
H1053 H 0.45014 0.55165 0.22126 0.0
H1054 H 0.54218 0.55994 0.04799 0.0
H1055 H 0.48945 0.56823 0.00044 0.0
H1056 H 0.53829 0.11549 0.03879 0.0
H1057 H 0.51035 0.0435 0.05151 0.0
H1058 H 0.53028 0.04232 1.00011 0.0
H1059 H 0.55492 0.06151 0.95095 0.0
H1060 H 0.58359 0.1335 0.93811 0.0
H1061 H 0.564 0.13498 0.99012 0.0
C1062 C 0.53659 0.09957 0.03023 0.0
C1063 C 0.52289 0.07962 0.04889 0.0
C1064 C 0.54808 0.09901 0.0006 0.0
C1065 C 0.52102 0.05913 0.03781 0.0
C1066 C 0.53226 0.05841 0.0083 0.0
C1067 C 0.5567 0.07748 0.95942 0.0
C1068 C 0.57037 0.09732 0.94064 0.0
C1069 C 0.54568 0.0782 0.98939 0.0
C1070 C 0.57305 0.11802 0.95223 0.0
C1071 C 0.56186 0.11885 0.98187 0.0
H1072 H 0.46883 0.59903 0.30451 0.0
H1073 H 0.41287 0.54733 0.24671 0.0
H1074 H 0.39329 0.52918 0.30031 0.0
H1075 H 0.39384 0.52619 0.36336 0.0
H1076 H 0.45115 0.57637 0.4207 0.0
H1077 H 0.46844 0.5972 0.36758 0.0
C1078 C 0.45213 0.58407 0.30372 0.0
C1079 C 0.4422 0.57454 0.27184 0.0
C1080 C 0.44135 0.57343 0.33453 0.0
C1081 C 0.42079 0.55489 0.27105 0.0
C1082 C 0.40964 0.54454 0.30163 0.0
C1083 C 0.40988 0.54195 0.36419 0.0
C1084 C 0.42122 0.54987 0.39573 0.0
C1085 C 0.41999 0.55339 0.33349 0.0
C1086 C 0.4422 0.57004 0.3966 0.0
C1087 C 0.45206 0.58188 0.36629 0.0
H1088 H 0.86913 0.45673 0.62147 0.0
H1089 H 0.93188 0.46491 0.58148 0.0
H1090 H 0.93455 0.44386 0.63011 0.0
H1091 H 0.92079 0.42579 0.68609 0.0
H1092 H 0.8591 0.41892 0.72797 0.0
H1093 H 0.85428 0.43683 0.67651 0.0
C1094 C 0.88335 0.45385 0.62337 0.0
C1095 C 0.9003 0.46248 0.59788 0.0
C1096 C 0.88508 0.44215 0.65186 0.0
C1097 C 0.91842 0.45823 0.60041 0.0
C1098 C 0.9201 0.44639 0.62843 0.0
C1099 C 0.90632 0.42828 0.68398 0.0
C1100 C 0.8905 0.42139 0.71095 0.0
C1101 C 0.90381 0.43872 0.65462 0.0
C1102 C 0.87151 0.42412 0.70752 0.0
C1103 C 0.86881 0.43443 0.6782 0.0
H1104 H 0.47783 0.89435 0.03015 0.0
H1105 H 0.42161 0.88344 0.0944 0.0
H1106 H 0.4015 0.88579 0.04393 0.0
H1107 H 0.40091 0.89306 0.98218 0.0
H1108 H 0.45679 0.90291 0.91798 0.0
H1109 H 0.47598 0.89868 0.96801 0.0
C1110 C 0.46096 0.89196 0.03312 0.0
C1111 C 0.45126 0.88872 0.06608 0.0
C1112 C 0.44952 0.89332 0.00406 0.0
C1113 C 0.42959 0.88621 0.06941 0.0
C1114 C 0.41805 0.88748 0.04055 0.0
C1115 C 0.41708 0.89385 0.97897 0.0
C1116 C 0.42744 0.89842 0.94635 0.0
C1117 C 0.428 0.89134 0.00783 0.0
C1118 C 0.4486 0.89977 0.94284 0.0
C1119 C 0.45954 0.89724 0.97141 0.0
H1120 H 0.56416 0.42681 0.40144 0.0
H1121 H 0.6182 0.48669 0.35397 0.0
H1122 H 0.60426 0.47068 0.29702 0.0
H1123 H 0.57435 0.4415 0.26082 0.0
H1124 H 0.51957 0.38221 0.30835 0.0
H1125 H 0.53626 0.39598 0.36501 0.0
C1126 C 0.57299 0.43621 0.37859 0.0
C1127 C 0.59207 0.45793 0.3819 0.0
C1128 C 0.56467 0.42707 0.34591 0.0
C1129 C 0.60357 0.46984 0.35213 0.0
C1130 C 0.5955 0.46079 0.31954 0.0
C1131 C 0.56622 0.43152 0.28359 0.0
C1132 C 0.5457 0.41097 0.28043 0.0
C1133 C 0.57572 0.4397 0.31614 0.0
C1134 C 0.53549 0.39801 0.31006 0.0
C1135 C 0.54491 0.40596 0.34251 0.0
H1136 H 0.10755 0.51942 0.64128 0.0
H1137 H 0.11249 0.57448 0.5801 0.0
H1138 H 0.11469 0.59542 0.63248 0.0
H1139 H 0.11319 0.5971 0.69561 0.0
H1140 H 0.10701 0.54141 0.75648 0.0
H1141 H 0.10756 0.52172 0.70419 0.0
C1142 C 0.10952 0.53618 0.63941 0.0
C1143 C 0.10996 0.54545 0.60689 0.0
C1144 C 0.11047 0.54793 0.66954 0.0
C1145 C 0.11199 0.56696 0.60486 0.0
C1146 C 0.1133 0.57894 0.63477 0.0
C1147 C 0.11237 0.58083 0.6974 0.0
C1148 C 0.11015 0.57072 0.72978 0.0
C1149 C 0.11229 0.56947 0.66723 0.0
C1150 C 0.10864 0.54944 0.73178 0.0
C1151 C 0.10896 0.53821 0.70194 0.0
H1152 H 0.36087 0.03201 0.04629 0.0
H1153 H 0.33129 0.96321 0.08257 0.0
H1154 H 0.32107 0.94927 0.02359 0.0
H1155 H 0.32595 0.95706 0.96163 0.0
H1156 H 0.35757 0.02603 0.92542 0.0
H1157 H 0.36141 0.03955 0.98469 0.0
C1158 C 0.35158 0.01394 0.0415 0.0
C1159 C 0.34703 0.99868 0.06879 0.0
C1160 C 0.34641 0.00613 0.0075 0.0
C1161 C 0.3352 0.9753 0.06197 0.0
C1162 C 0.32941 0.96734 0.02826 0.0
C1163 C 0.33301 0.975 0.96662 0.0
C1164 C 0.34153 0.99055 0.93921 0.0
C1165 C 0.33572 0.98265 0.00074 0.0
C1166 C 0.35104 0.01377 0.94614 0.0
C1167 C 0.35326 0.02149 0.97999 0.0
H1168 H 0.42036 0.39167 0.29268 0.0
H1169 H 0.35174 0.3499 0.25732 0.0
H1170 H 0.33756 0.35008 0.31531 0.0
H1171 H 0.3449 0.36421 0.37511 0.0
H1172 H 0.41399 0.40743 0.40849 0.0
H1173 H 0.42773 0.40398 0.35252 0.0
C1174 C 0.40228 0.38273 0.29765 0.0
C1175 C 0.38705 0.37123 0.27075 0.0
C1176 C 0.39437 0.38292 0.33079 0.0
C1177 C 0.36373 0.35907 0.27766 0.0
C1178 C 0.35566 0.35917 0.31075 0.0
C1179 C 0.36296 0.37277 0.37021 0.0
C1180 C 0.37831 0.38605 0.39619 0.0
C1181 C 0.37084 0.37134 0.33741 0.0
C1182 C 0.4017 0.39673 0.38943 0.0
C1183 C 0.40963 0.39505 0.35717 0.0
H1184 H 0.04139 0.40764 0.63245 0.0
H1185 H 0.00714 0.33878 0.59618 0.0
H1186 H 0.9944 0.3251 0.65507 0.0
H1187 H 0.9896 0.33345 0.71531 0.0
H1188 H 0.02278 0.40305 0.7496 0.0
H1189 H 0.04024 0.41565 0.69351 0.0
C1190 C 0.03141 0.38962 0.63769 0.0
C1191 C 0.02487 0.37416 0.61042 0.0
C1192 C 0.02414 0.38206 0.67125 0.0
C1193 C 0.01217 0.35087 0.61707 0.0
C1194 C 0.00491 0.34313 0.65061 0.0
C1195 C 0.00089 0.35135 0.71065 0.0
C1196 C 0.0046 0.36723 0.73672 0.0
C1197 C 0.01026 0.35865 0.67773 0.0
C1198 C 0.01971 0.39033 0.73038 0.0
C1199 C 0.02949 0.39765 0.69804 0.0
H1200 H 0.58629 0.96773 0.0437 0.0
H1201 H 0.65438 0.9874 0.07447 0.0
H1202 H 0.66726 0.99739 0.01466 0.0
H1203 H 0.65924 0.00273 0.95439 0.0
H1204 H 0.59081 0.98397 0.92568 0.0
H1205 H 0.5779 0.9707 0.98364 0.0
C1206 C 0.60399 0.97433 0.0373 0.0
C1207 C 0.61951 0.97739 0.06338 0.0
C1208 C 0.61112 0.97987 0.00316 0.0
C1209 C 0.64223 0.98521 0.05474 0.0
C1210 C 0.64954 0.99087 0.02062 0.0
C1211 C 0.64148 0.99559 0.96074 0.0
C1212 C 0.6261 0.99441 0.93543 0.0
C1213 C 0.63416 0.98859 0.99468 0.0
C1214 C 0.60306 0.98475 0.94415 0.0
C1215 C 0.59564 0.97744 0.97755 0.0
H1216 H 0.62753 0.65019 0.28817 0.0
H1217 H 0.57953 0.58082 0.26119 0.0
H1218 H 0.58394 0.56832 0.31753 0.0
H1219 H 0.5989 0.57698 0.37582 0.0
H1220 H 0.64487 0.64611 0.40539 0.0
H1221 H 0.64347 0.65881 0.34685 0.0
C1222 C 0.61803 0.63234 0.29455 0.0
C1223 C 0.60326 0.61657 0.27011 0.0
C1224 C 0.61996 0.62521 0.3277 0.0
C1225 C 0.59143 0.59342 0.27887 0.0
C1226 C 0.59365 0.58621 0.3114 0.0
C1227 C 0.60842 0.59488 0.36959 0.0
C1228 C 0.62156 0.61066 0.39503 0.0
C1229 C 0.60743 0.60198 0.3362 0.0
C1230 C 0.63447 0.63368 0.38626 0.0
C1231 C 0.63366 0.64092 0.35284 0.0
H1232 H 0.02314 0.67058 0.71489 0.0
H1233 H 0.99828 0.60011 0.7389 0.0
H1234 H 0.98422 0.58946 0.68068 0.0
H1235 H 0.98156 0.60001 0.62186 0.0
H1236 H 0.00653 0.66992 0.59564 0.0
H1237 H 0.01833 0.68102 0.65567 0.0
C1238 C 0.0145 0.65289 0.70743 0.0
C1239 C 0.01173 0.63623 0.73151 0.0
C1240 C 0.00687 0.64681 0.67336 0.0
C1241 C 0.00026 0.61334 0.7214 0.0
C1242 C 0.99247 0.60719 0.68785 0.0
C1243 C 0.98973 0.61771 0.62928 0.0
C1244 C 0.99374 0.63423 0.60445 0.0
C1245 C 0.99616 0.62379 0.66352 0.0
C1246 C 0.00361 0.65701 0.61442 0.0
C1247 C 0.01028 0.66329 0.64865 0.0
H1248 H 0.53743 0.00637 0.31403 0.0
H1249 H 0.48094 0.9499 0.3641 0.0
H1250 H 0.46285 0.97266 0.37281 0.0
H1251 H 0.45965 0.00561 0.35474 0.0
H1252 H 0.5159 0.06105 0.3024 0.0
H1253 H 0.53785 0.04213 0.30769 0.0
C1254 C 0.52163 -0.00076 0.32817 0.0
C1255 C 0.51028 0.97622 0.33749 0.0
C1256 C 0.5111 0.01226 0.33243 0.0
C1257 C 0.48976 0.9674 0.35577 0.0
C1258 C 0.47937 0.9804 0.36072 0.0
C1259 C 0.47694 0.01381 0.34537 0.0
C1260 C 0.48586 0.03453 0.32764 0.0
C1261 C 0.48929 0.0024 0.34728 0.0
C1262 C 0.50849 0.04516 0.31626 0.0
C1263 C 0.52104 0.03418 0.31884 0.0
H1264 H 0.53969 0.53113 0.64981 0.0
H1265 H 0.5299 0.46563 0.67799 0.0
H1266 H 0.48937 0.45123 0.68542 0.0
H1267 H 0.45626 0.4555 0.67308 0.0
H1268 H 0.4666 0.52087 0.64272 0.0
H1269 H 0.50736 0.53724 0.64838 0.0
C1270 C 0.52892 0.51397 0.65896 0.0
C1271 C 0.53778 0.49937 0.66273 0.0
C1272 C 0.5056 0.50568 0.66245 0.0
C1273 C 0.52342 0.47711 0.67428 0.0
C1274 C 0.50023 0.46884 0.67844 0.0
C1275 C 0.46744 0.47345 0.66856 0.0
C1276 C 0.45838 0.48683 0.65704 0.0
C1277 C 0.491 0.48266 0.67084 0.0
C1278 C 0.47304 0.51015 0.65179 0.0
C1279 C 0.49643 0.51951 0.65462 0.0
H1280 H 0.04375 0.53493 0.98715 0.0
H1281 H 0.9887 0.54745 0.00703 0.0
H1282 H 0.96256 0.50681 0.01246 0.0
H1283 H 0.95433 0.46817 0.99892 0.0
H1284 H 0.00929 0.45605 0.97669 0.0
H1285 H 0.03662 0.496 0.98629 0.0
C1286 C 0.02625 0.52891 0.9941 0.0
C1287 C 0.0181 0.54422 0.99585 0.0
C1288 C 0.01123 0.5055 0.9964 0.0
C1289 C 0.9953 0.53599 0.00474 0.0
C1290 C 0.98033 0.51274 0.00778 0.0
C1291 C 0.97234 0.47421 0.99734 0.0
C1292 C 0.9798 0.45933 0.98658 0.0
C1293 C 0.9879 0.49735 0.00168 0.0
C1294 C 0.00314 0.46718 0.98497 0.0
C1295 C 0.01877 0.4901 0.99003 0.0
H1296 H 0.95528 0.49315 0.31861 0.0
H1297 H 0.00885 0.55839 0.35319 0.0
H1298 H 0.03594 0.54546 0.34824 0.0
H1299 H 0.04263 0.51357 0.34783 0.0
H1300 H 0.98867 0.44704 0.31998 0.0
H1301 H 0.9636 0.46239 0.30918 0.0
C1302 C 0.97294 0.50467 0.32462 0.0
C1303 C 0.9797 0.52657 0.33711 0.0
C1304 C 0.98836 0.4967 0.32377 0.0
C1305 C 0.00288 0.54146 0.34347 0.0
C1306 C 0.01848 0.53397 0.34115 0.0
C1307 C 0.02567 0.50254 0.3381 0.0
C1308 C 0.01744 0.47914 0.33511 0.0
C1309 C 0.01115 0.5113 0.3333 0.0
C1310 C 0.9953 0.46507 0.32291 0.0
C1311 C 0.98095 0.47384 0.31685 0.0
H1312 H 0.46131 0.95414 0.69435 0.0
H1313 H 0.45567 0.01045 0.65599 0.0
H1314 H 0.49661 0.03199 0.64637 0.0
H1315 H 0.5342 0.03696 0.65857 0.0
H1316 H 0.53918 0.98153 0.70293 0.0
H1317 H 0.49844 0.95722 0.69868 0.0
C1318 C 0.46888 0.9708 0.68267 0.0
C1319 C 0.4555 0.98076 0.67612 0.0
C1320 C 0.49245 0.98334 0.67846 0.0
C1321 C 0.46567 0.00252 0.66153 0.0
C1322 C 0.48907 0.01485 0.65615 0.0
C1323 C 0.52642 0.01947 0.66687 0.0
C1324 C 0.53988 0.01135 0.68167 0.0
C1325 C 0.50272 0.00581 0.66612 0.0
C1326 C 0.52949 0.9884 0.69128 0.0
C1327 C 0.50603 0.97447 0.68932 0.0
H1328 H 0.46311 0.45645 0.01604 0.0
H1329 H 0.52897 0.46877 0.98438 0.0
H1330 H 0.54174 0.50896 0.97694 0.0
H1331 H 0.53623 0.54118 0.99054 0.0
H1332 H 0.4705 0.52839 0.02373 0.0
H1333 H 0.45542 0.48777 0.01811 0.0
C1334 C 0.47996 0.46768 0.00612 0.0
C1335 C 0.4952 0.45966 0.00148 0.0
C1336 C 0.48732 0.49081 0.00253 0.0
C1337 C 0.51705 0.47461 0.98887 0.0
C1338 C 0.52439 0.4976 0.98468 0.0
C1339 C 0.51846 0.52948 0.99558 0.0
C1340 C 0.50461 0.53778 0.00797 0.0
C1341 C 0.51002 0.50605 0.99323 0.0
C1342 C 0.48153 0.52249 0.01401 0.0
C1343 C 0.47293 0.4992 0.01119 0.0
H1344 H 0.43787 0.24075 0.09139 0.0
H1345 H 0.42246 0.25203 0.19469 0.0
H1346 H 0.42169 0.21768 0.21416 0.0
H1347 H 0.42826 0.18605 0.20285 0.0
H1348 H 0.44374 0.17474 0.09957 0.0
H1349 H 0.44218 0.20777 0.07937 0.0
C1350 C 0.43426 0.23562 0.11812 0.0
C1351 C 0.43024 0.24894 0.14149 0.0
C1352 C 0.43422 0.21605 0.12932 0.0
C1353 C 0.4253 0.24193 0.176 0.0
C1354 C 0.42508 0.22239 0.18727 0.0
C1355 C 0.43098 0.19061 0.17584 0.0
C1356 C 0.43642 0.17811 0.15291 0.0
C1357 C 0.42989 0.20954 0.16428 0.0
C1358 C 0.44006 0.18439 0.11799 0.0
C1359 C 0.439 0.20317 0.10632 0.0
H1360 H 0.1739 0.42488 0.49966 0.0
H1361 H 0.21226 0.48246 0.43344 0.0
H1362 H 0.24746 0.4845 0.45211 0.0
H1363 H 0.26729 0.47067 0.48848 0.0
H1364 H 0.22921 0.41325 0.55503 0.0
H1365 H 0.19377 0.41018 0.53471 0.0
C1366 C 0.18994 0.4376 0.48885 0.0
C1367 C 0.19052 0.45347 0.46516 0.0
C1368 C 0.21008 0.43881 0.49999 0.0
C1369 C 0.21144 0.47014 0.45184 0.0
C1370 C 0.23153 0.47132 0.46252 0.0
C1371 C 0.25123 0.45764 0.4988 0.0
C1372 C 0.25081 0.44241 0.52357 0.0
C1373 C 0.23106 0.45596 0.48695 0.0
C1374 C 0.2299 0.4252 0.53603 0.0
C1375 C 0.20968 0.42346 0.52443 0.0
H1376 H 0.73762 0.20405 0.81032 0.0
H1377 H 0.76636 0.16026 0.81259 0.0
H1378 H 0.80207 0.19142 0.83402 0.0
H1379 H 0.82462 0.23071 0.85416 0.0
H1380 H 0.79566 0.27437 0.85129 0.0
H1381 H 0.76019 0.24329 0.82972 0.0
C1382 C 0.75167 0.20129 0.81559 0.0
C1383 C 0.7493 0.17985 0.80985 0.0
C1384 C 0.77196 0.21911 0.82856 0.0
C1385 C 0.76782 0.17668 0.81626 0.0
C1386 C 0.78816 0.19442 0.82892 0.0
C1387 C 0.81059 0.23347 0.84871 0.0
C1388 C 0.81284 0.25486 0.85469 0.0
C1389 C 0.79034 0.21564 0.83548 0.0
C1390 C 0.79433 0.258 0.84779 0.0
C1391 C 0.77409 0.2403 0.83497 0.0
H1392 H 0.53237 0.73262 0.19157 0.0
H1393 H 0.57666 0.76661 0.10584 0.0
H1394 H 0.58227 0.80302 0.12646 0.0
H1395 H 0.57246 0.82461 0.16682 0.0
H1396 H 0.52755 0.79022 0.25183 0.0
H1397 H 0.52424 0.75439 0.23351 0.0
C1398 C 0.54313 0.748 0.17728 0.0
C1399 C 0.55379 0.74696 0.14693 0.0
C1400 C 0.54618 0.76872 0.18921 0.0
C1401 C 0.56821 0.76704 0.12918 0.0
C1402 C 0.57138 0.7878 0.14094 0.0
C1403 C 0.56235 0.80935 0.18174 0.0
C1404 C 0.55027 0.81 0.21064 0.0
C1405 C 0.56025 0.78879 0.17072 0.0
C1406 C 0.5369 0.79006 0.22941 0.0
C1407 C 0.53498 0.76961 0.21891 0.0
H1408 H 0.81338 0.58188 0.4542 0.0
H1409 H 0.8225 0.55679 0.55123 0.0
H1410 H 0.7906 0.55877 0.57568 0.0
H1411 H 0.75876 0.56542 0.56851 0.0
H1412 H 0.7484 0.58874 0.4706 0.0
H1413 H 0.78258 0.59053 0.44803 0.0
C1414 C 0.80851 0.57711 0.48079 0.0
C1415 C 0.82001 0.56887 0.5007 0.0
C1416 C 0.79003 0.57814 0.49465 0.0
C1417 C 0.81355 0.56271 0.53515 0.0
C1418 C 0.79542 0.56397 0.54922 0.0
C1419 C 0.764 0.57095 0.54226 0.0
C1420 C 0.75093 0.57683 0.52134 0.0
C1421 C 0.78327 0.57125 0.52903 0.0
C1422 C 0.75825 0.58439 0.48755 0.0
C1423 C 0.77768 0.58518 0.47442 0.0
H1424 H 0.17828 0.75365 0.82881 0.0
H1425 H 0.21355 0.74322 0.91253 0.0
H1426 H 0.2487 0.77728 0.89583 0.0
H1427 H 0.26926 0.80964 0.8572 0.0
H1428 H 0.23435 0.81937 0.77211 0.0
H1429 H 0.19898 0.78604 0.78991 0.0
C1430 C 0.19362 0.75906 0.84365 0.0
C1431 C 0.19338 0.74614 0.87201 0.0
C1432 C 0.21375 0.77839 0.83358 0.0
C1433 C 0.21341 0.75297 0.89062 0.0
C1434 C 0.23345 0.77238 0.88107 0.0
C1435 C 0.254 0.8043 0.84221 0.0
C1436 C 0.25449 0.81687 0.81318 0.0
C1437 C 0.23384 0.78509 0.85242 0.0
C1438 C 0.23441 0.81005 0.79463 0.0
C1439 C 0.21421 0.79098 0.80474 0.0
loop_
_geom_bond_atom_site_label_1
_geom_bond_atom_site_label_2
_geom_bond_distance
_geom_bond_site_symmetry_2
_ccdc_geom_bond_type
Li0 N17 1.990 . S
Li0 O60 1.956 . S
Li0 O61 1.970 . S
Li0 O62 1.961 . S
Li1 N25 1.990 . S
Li1 O60 1.970 . S
Li1 O61 1.956 . S
Li1 O63 1.961 . S
Li2 N47 1.990 . S
Li2 O60 1.961 . S
Li2 O62 1.956 . S
Li2 O63 1.970 . S
Li3 N53 1.990 . S
Li3 O61 1.961 . S
Li3 O62 1.970 . S
Li3 O63 1.956 . S
C4 C6 1.348 . S
C4 C7 1.356 . S
C4 O60 1.325 . S
N5 C8 1.314 . S
N5 C9 1.279 . S
C6 C4 1.348 . S
C6 C8 1.353 . S
C6 H64 0.929 . S
C7 C4 1.356 . S
C7 C9 1.358 . S
C7 H65 0.930 . S
C8 N5 1.314 . S
C8 C6 1.353 . S
C8 H66 0.930 . S
C9 N5 1.279 . S
C9 C7 1.358 . S
C9 H67 0.930 . S
C10 C13 1.348 . S
C10 C14 1.356 . S
C10 O61 1.325 . S
C11 N12 1.279 . S
C11 C14 1.358 . S
C11 H68 0.930 . S
N12 C11 1.279 . S
N12 C15 1.314 . S
C13 C10 1.348 . S
C13 C15 1.353 . S
C13 H69 0.929 . S
C14 C10 1.356 . S
C14 C11 1.358 . S
C14 H70 0.930 . S
C15 N12 1.314 . S
C15 C13 1.353 . S
C15 H71 0.930 . S
C16 N17 1.314 . S
C16 C21 1.353 . S
C16 H22 0.930 . S
N17 Li0 1.990 . S
N17 C16 1.314 . S
N17 C19 1.279 . S
C18 C19 1.358 . S
C18 C20 1.356 . S
C18 H72 0.930 . S
C19 N17 1.279 . S
C19 C18 1.358 . S
C19 H23 0.930 . S
C20 C18 1.356 . S
C20 C21 1.348 . S
C21 C16 1.353 . S
C21 C20 1.348 . S
C21 H73 0.929 1_545 S
H22 C16 0.930 . S
H23 C19 0.930 . S
C24 N25 1.314 . S
C24 C26 1.353 . S
C24 H30 0.930 . S
N25 Li1 1.990 . S
N25 C24 1.314 . S
N25 C28 1.279 . S
C26 C24 1.353 . S
C26 C29 1.348 . S
C26 H74 0.929 . S
C27 C28 1.358 . S
C27 C29 1.356 . S
C27 H75 0.930 . S
C28 N25 1.279 . S
C28 C27 1.358 . S
C28 H31 0.930 . S
C29 C26 1.348 . S
C29 C27 1.356 . S
H30 C24 0.930 . S
H31 C28 0.930 . S
C32 C34 1.348 . S
C32 C35 1.356 . S
C32 O62 1.325 . S
N33 C36 1.314 . S
N33 C37 1.279 . S
C34 C32 1.348 . S
C34 C36 1.353 . S
C34 H76 0.929 . S
C35 C32 1.356 . S
C35 C37 1.358 . S
C35 H77 0.930 . S
C36 N33 1.314 . S
C36 C34 1.353 . S
C36 H78 0.930 . S
C37 N33 1.279 . S
C37 C35 1.358 . S
C37 H79 0.930 . S
C38 C39 1.348 . S
C38 C40 1.356 . S
C38 O63 1.325 . S
C39 C38 1.348 . S
C39 C41 1.353 . S
C39 H80 0.929 . S
C40 C38 1.356 . S
C40 C42 1.358 . S
C40 H81 0.930 . S
C41 C39 1.353 . S
C41 N43 1.314 . S
C41 H82 0.930 . S
C42 C40 1.358 . S
C42 N43 1.279 . S
C42 H83 0.930 . S
N43 C41 1.314 . S
N43 C42 1.279 . S
C44 C46 1.353 . S
C44 N47 1.314 . S
C44 H50 0.930 . S
C45 N47 1.279 . S
C45 C48 1.358 . S
C45 H51 0.930 . S
C46 C44 1.353 . S
C46 C49 1.348 . S
C46 H84 0.929 . S
N47 Li2 1.990 . S
N47 C44 1.314 . S
N47 C45 1.279 . S
C48 C45 1.358 . S
C48 C49 1.356 . S
C48 H85 0.930 . S
C49 C46 1.348 . S
C49 C48 1.356 . S
H50 C44 0.930 . S
H51 C45 0.930 . S
C52 N53 1.314 . S
C52 C54 1.353 . S
C52 H58 0.930 . S
N53 Li3 1.990 . S
N53 C52 1.314 . S
N53 C56 1.279 . S
C54 C52 1.353 . S
C54 C57 1.348 . S
C54 H86 0.929 . S
C55 C56 1.358 . S
C55 C57 1.356 . S
C55 H87 0.930 . S
C56 N53 1.279 . S
C56 C55 1.358 . S
C56 H59 0.930 . S
C57 C54 1.348 . S
C57 C55 1.356 . S
H58 C52 0.930 . S
H59 C56 0.930 . S
O60 Li0 1.956 . S
O60 Li1 1.970 . S
O60 Li2 1.961 . S
O60 C4 1.325 . S
O61 Li0 1.970 . S
O61 Li1 1.956 . S
O61 Li3 1.961 . S
O61 C10 1.325 . S
O62 Li0 1.961 . S
O62 Li2 1.956 . S
O62 Li3 1.970 . S
O62 C32 1.325 . S
O63 Li1 1.961 . S
O63 Li2 1.970 . S
O63 Li3 1.956 . S
O63 C38 1.325 . S
H64 C6 0.929 . S
H65 C7 0.930 . S
H66 C8 0.930 . S
H67 C9 0.930 . S
H68 C11 0.930 . S
H69 C13 0.929 . S
H70 C14 0.930 . S
H71 C15 0.930 . S
H72 C18 0.930 . S
H73 C21 0.929 1_565 S
H74 C26 0.929 . S
H75 C27 0.930 . S
H76 C34 0.929 . S
H77 C35 0.930 . S
H78 C36 0.930 . S
H79 C37 0.930 . S
H80 C39 0.929 . S
H81 C40 0.930 . S
H82 C41 0.930 . S
H83 C42 0.930 . S
H84 C46 0.929 . S
H85 C48 0.930 . S
H86 C54 0.929 . S
H87 C55 0.930 . S
Li88 N105 1.990 . S
Li88 O148 1.956 . S
Li88 O149 1.970 . S
Li88 O150 1.961 . S
Li89 N113 1.990 . S
Li89 O148 1.970 . S
Li89 O149 1.956 . S
Li89 O151 1.961 . S
Li90 N135 1.990 . S
Li90 O148 1.961 . S
Li90 O150 1.956 . S
Li90 O151 1.970 . S
Li91 N141 1.990 . S
Li91 O149 1.961 . S
Li91 O150 1.970 . S
Li91 O151 1.956 . S
C92 C94 1.348 . S
C92 C95 1.356 . S
C92 O148 1.325 . S
N93 C96 1.314 . S
N93 C97 1.279 . S
C94 C92 1.348 . S
C94 C96 1.353 . S
C94 H152 0.929 . S
C95 C92 1.356 . S
C95 C97 1.358 . S
C95 H153 0.930 . S
C96 N93 1.314 . S
C96 C94 1.353 . S
C96 H154 0.930 . S
C97 N93 1.279 . S
C97 C95 1.358 . S
C97 H155 0.930 . S
C98 C101 1.348 . S
C98 C102 1.356 . S
C98 O149 1.325 . S
C99 N100 1.279 . S
C99 C102 1.358 . S
C99 H156 0.930 . S
N100 C99 1.279 . S
N100 C103 1.314 . S
C101 C98 1.348 . S
C101 C103 1.353 . S
C101 H157 0.929 . S
C102 C98 1.356 . S
C102 C99 1.358 . S
C102 H158 0.930 . S
C103 N100 1.314 . S
C103 C101 1.353 . S
C103 H159 0.930 . S
C104 N105 1.314 . S
C104 C109 1.353 . S
C104 H110 0.930 . S
N105 Li88 1.990 . S
N105 C104 1.314 . S
N105 C107 1.279 . S
C106 C107 1.358 . S
C106 C108 1.356 . S
C106 H160 0.930 . S
C107 N105 1.279 . S
C107 C106 1.358 . S
C107 H111 0.930 . S
C108 C106 1.356 . S
C108 C109 1.348 . S
C109 C104 1.353 . S
C109 C108 1.348 . S
C109 H161 0.929 . S
H110 C104 0.930 . S
H111 C107 0.930 . S
C112 N113 1.314 . S
C112 C114 1.353 . S
C112 H118 0.930 . S
N113 Li89 1.990 . S
N113 C112 1.314 . S
N113 C116 1.279 . S
C114 C112 1.353 . S
C114 C117 1.348 . S
C114 H162 0.929 . S
C115 C116 1.358 . S
C115 C117 1.356 . S
C115 H163 0.930 . S
C116 N113 1.279 . S
C116 C115 1.358 . S
C116 H119 0.930 . S
C117 C114 1.348 . S
C117 C115 1.356 . S
H118 C112 0.930 . S
H119 C116 0.930 . S
C120 C122 1.348 . S
C120 C123 1.356 . S
C120 O150 1.325 . S
N121 C124 1.314 . S
N121 C125 1.279 . S
C122 C120 1.348 . S
C122 C124 1.353 . S
C122 H164 0.929 . S
C123 C120 1.356 . S
C123 C125 1.358 . S
C123 H165 0.930 . S
C124 N121 1.314 . S
C124 C122 1.353 . S
C124 H166 0.930 . S
C125 N121 1.279 . S
C125 C123 1.358 . S
C125 H167 0.930 . S
C126 C127 1.348 . S
C126 C128 1.356 . S
C126 O151 1.325 . S
C127 C126 1.348 . S
C127 C129 1.353 . S
C127 H168 0.929 . S
C128 C126 1.356 . S
C128 C130 1.358 . S
C128 H169 0.930 . S
C129 C127 1.353 . S
C129 N131 1.314 . S
C129 H170 0.930 . S
C130 C128 1.358 . S
C130 N131 1.279 . S
C130 H171 0.930 . S
N131 C129 1.314 . S
N131 C130 1.279 . S
C132 C134 1.353 . S
C132 N135 1.314 . S
C132 H138 0.930 . S
C133 N135 1.279 . S
C133 C136 1.358 . S
C133 H139 0.930 . S
C134 C132 1.353 . S
C134 C137 1.348 . S
C134 H172 0.929 . S
N135 Li90 1.990 . S
N135 C132 1.314 . S
N135 C133 1.279 . S
C136 C133 1.358 . S
C136 C137 1.356 . S
C136 H173 0.930 . S
C137 C134 1.348 . S
C137 C136 1.356 . S
H138 C132 0.930 . S
H139 C133 0.930 . S
C140 N141 1.314 . S
C140 C142 1.353 . S
C140 H146 0.930 . S
N141 Li91 1.990 . S
N141 C140 1.314 . S
N141 C144 1.279 . S
C142 C140 1.353 . S
C142 C145 1.348 . S
C142 H174 0.929 . S
C143 C144 1.358 . S
C143 C145 1.356 . S
C143 H175 0.930 . S
C144 N141 1.279 . S
C144 C143 1.358 . S
C144 H147 0.930 . S
C145 C142 1.348 . S
C145 C143 1.356 . S
H146 C140 0.930 . S
H147 C144 0.930 . S
O148 Li88 1.956 . S
O148 Li89 1.970 . S
O148 Li90 1.961 . S
O148 C92 1.325 . S
O149 Li88 1.970 . S
O149 Li89 1.956 . S
O149 Li91 1.961 . S
O149 C98 1.325 . S
O150 Li88 1.961 . S
O150 Li90 1.956 . S
O150 Li91 1.970 . S
O150 C120 1.325 . S
O151 Li89 1.961 . S
O151 Li90 1.970 . S
O151 Li91 1.956 . S
O151 C126 1.325 . S
H152 C94 0.929 . S
H153 C95 0.930 . S
H154 C96 0.930 . S
H155 C97 0.930 . S
H156 C99 0.930 . S
H157 C101 0.929 . S
H158 C102 0.930 . S
H159 C103 0.930 . S
H160 C106 0.930 . S
H161 C109 0.929 . S
H162 C114 0.929 . S
H163 C115 0.930 . S
H164 C122 0.929 . S
H165 C123 0.930 . S
H166 C124 0.930 . S
H167 C125 0.930 . S
H168 C127 0.929 . S
H169 C128 0.930 . S
H170 C129 0.930 . S
H171 C130 0.930 . S
H172 C134 0.929 . S
H173 C136 0.930 . S
H174 C142 0.929 . S
H175 C143 0.930 . S
Li176 N193 1.990 . S
Li176 O236 1.956 . S
Li176 O237 1.970 . S
Li176 O238 1.961 . S
Li177 N201 1.990 . S
Li177 O236 1.970 . S
Li177 O237 1.956 . S
Li177 O239 1.961 . S
Li178 N223 1.990 . S
Li178 O236 1.961 . S
Li178 O238 1.956 . S
Li178 O239 1.970 . S
Li179 N229 1.990 . S
Li179 O237 1.961 . S
Li179 O238 1.970 . S
Li179 O239 1.956 . S
C180 C182 1.348 . S
C180 C183 1.356 . S
C180 O236 1.325 . S
N181 C184 1.314 . S
N181 C185 1.279 . S
C182 C180 1.348 . S
C182 C184 1.353 . S
C182 H240 0.929 . S
C183 C180 1.356 . S
C183 C185 1.358 . S
C183 H241 0.930 . S
C184 N181 1.314 . S
C184 C182 1.353 . S
C184 H242 0.930 . S
C185 N181 1.279 . S
C185 C183 1.358 . S
C185 H243 0.930 . S
C186 C189 1.348 . S
C186 C190 1.356 . S
C186 O237 1.325 . S
C187 N188 1.279 . S
C187 C190 1.358 . S
C187 H244 0.930 . S
N188 C187 1.279 . S
N188 C191 1.314 . S
C189 C186 1.348 . S
C189 C191 1.353 . S
C189 H245 0.929 . S
C190 C186 1.356 . S
C190 C187 1.358 . S
C190 H246 0.930 . S
C191 N188 1.314 . S
C191 C189 1.353 . S
C191 H247 0.930 . S
C192 N193 1.314 . S
C192 C197 1.353 . S
C192 H198 0.930 . S
N193 Li176 1.990 . S
N193 C192 1.314 . S
N193 C195 1.279 . S
C194 C195 1.358 . S
C194 C196 1.356 . S
C194 H248 0.930 . S
C195 N193 1.279 . S
C195 C194 1.358 . S
C195 H199 0.930 . S
C196 C194 1.356 . S
C196 C197 1.348 . S
C197 C192 1.353 . S
C197 C196 1.348 . S
C197 H249 0.929 . S
H198 C192 0.930 . S
H199 C195 0.930 . S
C200 N201 1.314 . S
C200 C202 1.353 . S
C200 H206 0.930 . S
N201 Li177 1.990 . S
N201 C200 1.314 . S
N201 C204 1.279 . S
C202 C200 1.353 . S
C202 C205 1.348 . S
C202 H250 0.929 . S
C203 C204 1.358 . S
C203 C205 1.356 . S
C203 H251 0.930 . S
C204 N201 1.279 . S
C204 C203 1.358 . S
C204 H207 0.930 . S
C205 C202 1.348 . S
C205 C203 1.356 . S
H206 C200 0.930 . S
H207 C204 0.930 . S
C208 C210 1.348 . S
C208 C211 1.356 . S
C208 O238 1.325 . S
N209 C212 1.314 . S
N209 C213 1.279 . S
C210 C208 1.348 . S
C210 C212 1.353 . S
C210 H252 0.929 . S
C211 C208 1.356 . S
C211 C213 1.358 . S
C211 H253 0.930 . S
C212 N209 1.314 . S
C212 C210 1.353 . S
C212 H254 0.930 . S
C213 N209 1.279 . S
C213 C211 1.358 . S
C213 H255 0.930 . S
C214 C215 1.348 . S
C214 C216 1.356 . S
C214 O239 1.325 . S
C215 C214 1.348 . S
C215 C217 1.353 . S
C215 H256 0.929 . S
C216 C214 1.356 . S
C216 C218 1.358 . S
C216 H257 0.930 . S
C217 C215 1.353 . S
C217 N219 1.314 . S
C217 H258 0.930 . S
C218 C216 1.358 . S
C218 N219 1.279 . S
C218 H259 0.930 . S
N219 C217 1.314 . S
N219 C218 1.279 . S
C220 C222 1.353 . S
C220 N223 1.314 . S
C220 H226 0.930 . S
C221 N223 1.279 . S
C221 C224 1.358 . S
C221 H227 0.930 . S
C222 C220 1.353 . S
C222 C225 1.348 . S
C222 H260 0.929 1_655 S
N223 Li178 1.990 . S
N223 C220 1.314 . S
N223 C221 1.279 . S
C224 C221 1.358 . S
C224 C225 1.356 . S
C224 H261 0.930 . S
C225 C222 1.348 . S
C225 C224 1.356 . S
H226 C220 0.930 . S
H227 C221 0.930 . S
C228 N229 1.314 . S
C228 C230 1.353 . S
C228 H234 0.930 . S
N229 Li179 1.990 . S
N229 C228 1.314 . S
N229 C232 1.279 . S
C230 C228 1.353 . S
C230 C233 1.348 . S
C230 H262 0.929 . S
C231 C232 1.358 . S
C231 C233 1.356 . S
C231 H263 0.930 . S
C232 N229 1.279 . S
C232 C231 1.358 . S
C232 H235 0.930 . S
C233 C230 1.348 . S
C233 C231 1.356 . S
H234 C228 0.930 . S
H235 C232 0.930 . S
O236 Li176 1.956 . S
O236 Li177 1.970 . S
O236 Li178 1.961 . S
O236 C180 1.325 . S
O237 Li176 1.970 . S
O237 Li177 1.956 . S
O237 Li179 1.961 . S
O237 C186 1.325 . S
O238 Li176 1.961 . S
O238 Li178 1.956 . S
O238 Li179 1.970 . S
O238 C208 1.325 . S
O239 Li177 1.961 . S
O239 Li178 1.970 . S
O239 Li179 1.956 . S
O239 C214 1.325 . S
H240 C182 0.929 . S
H241 C183 0.930 . S
H242 C184 0.930 . S
H243 C185 0.930 . S
H244 C187 0.930 . S
H245 C189 0.929 . S
H246 C190 0.930 . S
H247 C191 0.930 . S
H248 C194 0.930 . S
H249 C197 0.929 . S
H250 C202 0.929 . S
H251 C203 0.930 . S
H252 C210 0.929 . S
H253 C211 0.930 . S
H254 C212 0.930 . S
H255 C213 0.930 . S
H256 C215 0.929 . S
H257 C216 0.930 . S
H258 C217 0.930 . S
H259 C218 0.930 . S
H260 C222 0.929 1_455 S
H261 C224 0.930 . S
H262 C230 0.929 . S
H263 C231 0.930 . S
Li264 N281 1.990 . S
Li264 O324 1.956 . S
Li264 O325 1.970 . S
Li264 O326 1.961 . S
Li265 N289 1.990 . S
Li265 O324 1.970 . S
Li265 O325 1.956 . S
Li265 O327 1.961 . S
Li266 N311 1.990 . S
Li266 O324 1.961 . S
Li266 O326 1.956 . S
Li266 O327 1.970 . S
Li267 N317 1.990 . S
Li267 O325 1.961 . S
Li267 O326 1.970 . S
Li267 O327 1.956 . S
C268 C270 1.348 . S
C268 C271 1.356 . S
C268 O324 1.325 . S
N269 C272 1.314 . S
N269 C273 1.279 . S
C270 C268 1.348 . S
C270 C272 1.353 . S
C270 H328 0.929 . S
C271 C268 1.356 . S
C271 C273 1.358 . S
C271 H329 0.930 . S
C272 N269 1.314 . S
C272 C270 1.353 . S
C272 H330 0.930 . S
C273 N269 1.279 . S
C273 C271 1.358 . S
C273 H331 0.930 . S
C274 C277 1.348 . S
C274 C278 1.356 . S
C274 O325 1.325 . S
C275 N276 1.279 . S
C275 C278 1.358 . S
C275 H332 0.930 . S
N276 C275 1.279 . S
N276 C279 1.314 . S
C277 C274 1.348 . S
C277 C279 1.353 . S
C277 H333 0.929 . S
C278 C274 1.356 . S
C278 C275 1.358 . S
C278 H334 0.930 . S
C279 N276 1.314 . S
C279 C277 1.353 . S
C279 H335 0.930 . S
C280 N281 1.314 . S
C280 C285 1.353 . S
C280 H286 0.930 . S
N281 Li264 1.990 . S
N281 C280 1.314 . S
N281 C283 1.279 . S
C282 C283 1.358 . S
C282 C284 1.356 . S
C282 H336 0.930 . S
C283 N281 1.279 . S
C283 C282 1.358 . S
C283 H287 0.930 . S
C284 C282 1.356 . S
C284 C285 1.348 . S
C285 C280 1.353 . S
C285 C284 1.348 . S
C285 H337 0.929 . S
H286 C280 0.930 . S
H287 C283 0.930 . S
C288 N289 1.314 . S
C288 C290 1.353 . S
C288 H294 0.930 . S
N289 Li265 1.990 . S
N289 C288 1.314 . S
N289 C292 1.279 . S
C290 C288 1.353 . S
C290 C293 1.348 . S
C290 H338 0.929 . S
C291 C292 1.358 . S
C291 C293 1.356 . S
C291 H339 0.930 . S
C292 N289 1.279 . S
C292 C291 1.358 . S
C292 H295 0.930 . S
C293 C290 1.348 . S
C293 C291 1.356 . S
H294 C288 0.930 . S
H295 C292 0.930 . S
C296 C298 1.348 . S
C296 C299 1.356 . S
C296 O326 1.325 . S
N297 C300 1.314 . S
N297 C301 1.279 . S
C298 C296 1.348 . S
C298 C300 1.353 . S
C298 H340 0.929 . S
C299 C296 1.356 . S
C299 C301 1.358 . S
C299 H341 0.930 . S
C300 N297 1.314 . S
C300 C298 1.353 . S
C300 H342 0.930 . S
C301 N297 1.279 . S
C301 C299 1.358 . S
C301 H343 0.930 . S
C302 C303 1.348 . S
C302 C304 1.356 . S
C302 O327 1.325 . S
C303 C302 1.348 . S
C303 C305 1.353 . S
C303 H344 0.929 . S
C304 C302 1.356 . S
C304 C306 1.358 . S
C304 H345 0.930 . S
C305 C303 1.353 . S
C305 N307 1.314 . S
C305 H346 0.930 . S
C306 C304 1.358 . S
C306 N307 1.279 . S
C306 H347 0.930 . S
N307 C305 1.314 . S
N307 C306 1.279 . S
C308 C310 1.353 . S
C308 N311 1.314 . S
C308 H314 0.930 . S
C309 N311 1.279 . S
C309 C312 1.358 . S
C309 H315 0.930 . S
C310 C308 1.353 . S
C310 C313 1.348 . S
C310 H348 0.929 1_565 S
N311 Li266 1.990 . S
N311 C308 1.314 . S
N311 C309 1.279 . S
C312 C309 1.358 . S
C312 C313 1.356 . S
C312 H349 0.930 . S
C313 C310 1.348 . S
C313 C312 1.356 . S
H314 C308 0.930 . S
H315 C309 0.930 . S
C316 N317 1.314 . S
C316 C318 1.353 . S
C316 H322 0.930 . S
N317 Li267 1.990 . S
N317 C316 1.314 . S
N317 C320 1.279 . S
C318 C316 1.353 . S
C318 C321 1.348 . S
C318 H350 0.929 . S
C319 C320 1.358 . S
C319 C321 1.356 . S
C319 H351 0.930 . S
C320 N317 1.279 . S
C320 C319 1.358 . S
C320 H323 0.930 . S
C321 C318 1.348 . S
C321 C319 1.356 . S
H322 C316 0.930 . S
H323 C320 0.930 . S
O324 Li264 1.956 . S
O324 Li265 1.970 . S
O324 Li266 1.961 . S
O324 C268 1.325 . S
O325 Li264 1.970 . S
O325 Li265 1.956 . S
O325 Li267 1.961 . S
O325 C274 1.325 . S
O326 Li264 1.961 . S
O326 Li266 1.956 . S
O326 Li267 1.970 . S
O326 C296 1.325 . S
O327 Li265 1.961 . S
O327 Li266 1.970 . S
O327 Li267 1.956 . S
O327 C302 1.325 . S
H328 C270 0.929 . S
H329 C271 0.930 . S
H330 C272 0.930 . S
H331 C273 0.930 . S
H332 C275 0.930 . S
H333 C277 0.929 . S
H334 C278 0.930 . S
H335 C279 0.930 . S
H336 C282 0.930 . S
H337 C285 0.929 . S
H338 C290 0.929 . S
H339 C291 0.930 . S
H340 C298 0.929 . S
H341 C299 0.930 . S
H342 C300 0.930 . S
H343 C301 0.930 . S
H344 C303 0.929 . S
H345 C304 0.930 . S
H346 C305 0.930 . S
H347 C306 0.930 . S
H348 C310 0.929 1_545 S
H349 C312 0.930 . S
H350 C318 0.929 . S
H351 C319 0.930 . S
Li352 N369 1.990 . S
Li352 O412 1.956 . S
Li352 O413 1.970 . S
Li352 O414 1.961 . S
Li353 N377 1.990 . S
Li353 O412 1.970 . S
Li353 O413 1.956 . S
Li353 O415 1.961 . S
Li354 N399 1.990 . S
Li354 O412 1.961 . S
Li354 O414 1.956 . S
Li354 O415 1.970 . S
Li355 N405 1.990 . S
Li355 O413 1.961 . S
Li355 O414 1.970 . S
Li355 O415 1.956 . S
C356 C358 1.348 . S
C356 C359 1.356 . S
C356 O412 1.325 . S
N357 C360 1.314 . S
N357 C361 1.279 . S
C358 C356 1.348 . S
C358 C360 1.353 . S
C358 H416 0.929 . S
C359 C356 1.356 . S
C359 C361 1.358 . S
C359 H417 0.930 . S
C360 N357 1.314 . S
C360 C358 1.353 . S
C360 H418 0.930 . S
C361 N357 1.279 . S
C361 C359 1.358 . S
C361 H419 0.930 . S
C362 C365 1.348 . S
C362 C366 1.356 . S
C362 O413 1.325 . S
C363 N364 1.279 . S
C363 C366 1.358 . S
C363 H420 0.930 . S
N364 C363 1.279 . S
N364 C367 1.314 . S
C365 C362 1.348 . S
C365 C367 1.353 . S
C365 H421 0.929 . S
C366 C362 1.356 . S
C366 C363 1.358 . S
C366 H422 0.930 . S
C367 N364 1.314 . S
C367 C365 1.353 . S
C367 H423 0.930 . S
C368 N369 1.314 . S
C368 C373 1.353 . S
C368 H374 0.930 . S
N369 Li352 1.990 . S
N369 C368 1.314 . S
N369 C371 1.279 . S
C370 C371 1.358 . S
C370 C372 1.356 . S
C370 H424 0.930 . S
C371 N369 1.279 . S
C371 C370 1.358 . S
C371 H375 0.930 . S
C372 C370 1.356 . S
C372 C373 1.348 . S
C373 C368 1.353 . S
C373 C372 1.348 . S
C373 H425 0.929 . S
H374 C368 0.930 . S
H375 C371 0.930 . S
C376 N377 1.314 . S
C376 C378 1.353 . S
C376 H382 0.930 . S
N377 Li353 1.990 . S
N377 C376 1.314 . S
N377 C380 1.279 . S
C378 C376 1.353 . S
C378 C381 1.348 . S
C378 H426 0.929 . S
C379 C380 1.358 . S
C379 C381 1.356 . S
C379 H427 0.930 . S
C380 N377 1.279 . S
C380 C379 1.358 . S
C380 H383 0.930 . S
C381 C378 1.348 . S
C381 C379 1.356 . S
H382 C376 0.930 . S
H383 C380 0.930 . S
C384 C386 1.348 . S
C384 C387 1.356 . S
C384 O414 1.325 . S
N385 C388 1.314 . S
N385 C389 1.279 . S
C386 C384 1.348 . S
C386 C388 1.353 . S
C386 H428 0.929 . S
C387 C384 1.356 . S
C387 C389 1.358 . S
C387 H429 0.930 . S
C388 N385 1.314 . S
C388 C386 1.353 . S
C388 H430 0.930 . S
C389 N385 1.279 . S
C389 C387 1.358 . S
C389 H431 0.930 . S
C390 C391 1.348 . S
C390 C392 1.356 . S
C390 O415 1.325 . S
C391 C390 1.348 . S
C391 C393 1.353 . S
C391 H432 0.929 . S
C392 C390 1.356 . S
C392 C394 1.358 . S
C392 H433 0.930 . S
C393 C391 1.353 . S
C393 N395 1.314 . S
C393 H434 0.930 . S
C394 C392 1.358 . S
C394 N395 1.279 . S
C394 H435 0.930 . S
N395 C393 1.314 . S
N395 C394 1.279 . S
C396 C398 1.353 . S
C396 N399 1.314 . S
C396 H402 0.930 . S
C397 N399 1.279 . S
C397 C400 1.358 . S
C397 H403 0.930 . S
C398 C396 1.353 . S
C398 C401 1.348 . S
C398 H436 0.929 . S
N399 Li354 1.990 . S
N399 C396 1.314 . S
N399 C397 1.279 . S
C400 C397 1.358 . S
C400 C401 1.356 . S
C400 H437 0.930 . S
C401 C398 1.348 . S
C401 C400 1.356 . S
H402 C396 0.930 . S
H403 C397 0.930 . S
C404 N405 1.314 . S
C404 C406 1.353 . S
C404 H410 0.930 . S
N405 Li355 1.990 . S
N405 C404 1.314 . S
N405 C408 1.279 . S
C406 C404 1.353 . S
C406 C409 1.348 . S
C406 H438 0.929 . S
C407 C408 1.358 . S
C407 C409 1.356 . S
C407 H439 0.930 . S
C408 N405 1.279 . S
C408 C407 1.358 . S
C408 H411 0.930 . S
C409 C406 1.348 . S
C409 C407 1.356 . S
H410 C404 0.930 . S
H411 C408 0.930 . S
O412 Li352 1.956 . S
O412 Li353 1.970 . S
O412 Li354 1.961 . S
O412 C356 1.325 . S
O413 Li352 1.970 . S
O413 Li353 1.956 . S
O413 Li355 1.961 . S
O413 C362 1.325 . S
O414 Li352 1.961 . S
O414 Li354 1.956 . S
O414 Li355 1.970 . S
O414 C384 1.325 . S
O415 Li353 1.961 . S
O415 Li354 1.970 . S
O415 Li355 1.956 . S
O415 C390 1.325 . S
H416 C358 0.929 . S
H417 C359 0.930 . S
H418 C360 0.930 . S
H419 C361 0.930 . S
H420 C363 0.930 . S
H421 C365 0.929 . S
H422 C366 0.930 . S
H423 C367 0.930 . S
H424 C370 0.930 . S
H425 C373 0.929 . S
H426 C378 0.929 . S
H427 C379 0.930 . S
H428 C386 0.929 . S
H429 C387 0.930 . S
H430 C388 0.930 . S
H431 C389 0.930 . S
H432 C391 0.929 . S
H433 C392 0.930 . S
H434 C393 0.930 . S
H435 C394 0.930 . S
H436 C398 0.929 . S
H437 C400 0.930 . S
H438 C406 0.929 . S
H439 C407 0.930 . S
Li440 N457 1.990 . S
Li440 O500 1.956 . S
Li440 O501 1.970 . S
Li440 O502 1.961 . S
Li441 N465 1.990 . S
Li441 O500 1.970 . S
Li441 O501 1.956 . S
Li441 O503 1.961 . S
Li442 N487 1.990 . S
Li442 O500 1.961 . S
Li442 O502 1.956 . S
Li442 O503 1.970 . S
Li443 N493 1.990 . S
Li443 O501 1.961 . S
Li443 O502 1.970 . S
Li443 O503 1.956 . S
C444 C446 1.348 . S
C444 C447 1.356 . S
C444 O500 1.325 . S
N445 C448 1.314 . S
N445 C449 1.279 . S
C446 C444 1.348 . S
C446 C448 1.353 . S
C446 H504 0.929 . S
C447 C444 1.356 . S
C447 C449 1.358 . S
C447 H505 0.930 . S
C448 N445 1.314 . S
C448 C446 1.353 . S
C448 H506 0.930 . S
C449 N445 1.279 . S
C449 C447 1.358 . S
C449 H507 0.930 . S
C450 C453 1.348 . S
C450 C454 1.356 . S
C450 O501 1.325 . S
C451 N452 1.279 . S
C451 C454 1.358 . S
C451 H508 0.930 . S
N452 C451 1.279 . S
N452 C455 1.314 . S
C453 C450 1.348 . S
C453 C455 1.353 . S
C453 H509 0.929 . S
C454 C450 1.356 . S
C454 C451 1.358 . S
C454 H510 0.930 . S
C455 N452 1.314 . S
C455 C453 1.353 . S
C455 H511 0.930 . S
C456 N457 1.314 . S
C456 C461 1.353 . S
C456 H462 0.930 . S
N457 Li440 1.990 . S
N457 C456 1.314 . S
N457 C459 1.279 . S
C458 C459 1.358 . S
C458 C460 1.356 . S
C458 H512 0.930 . S
C459 N457 1.279 . S
C459 C458 1.358 . S
C459 H463 0.930 . S
C460 C458 1.356 . S
C460 C461 1.348 . S
C461 C456 1.353 . S
C461 C460 1.348 . S
C461 H513 0.929 1_455 S
H462 C456 0.930 . S
H463 C459 0.930 . S
C464 N465 1.314 . S
C464 C466 1.353 . S
C464 H470 0.930 . S
N465 Li441 1.990 . S
N465 C464 1.314 . S
N465 C468 1.279 . S
C466 C464 1.353 . S
C466 C469 1.348 . S
C466 H514 0.929 . S
C467 C468 1.358 . S
C467 C469 1.356 . S
C467 H515 0.930 . S
C468 N465 1.279 . S
C468 C467 1.358 . S
C468 H471 0.930 . S
C469 C466 1.348 . S
C469 C467 1.356 . S
H470 C464 0.930 . S
H471 C468 0.930 . S
C472 C474 1.348 . S
C472 C475 1.356 . S
C472 O502 1.325 . S
N473 C476 1.314 . S
N473 C477 1.279 . S
C474 C472 1.348 . S
C474 C476 1.353 . S
C474 H516 0.929 . S
C475 C472 1.356 . S
C475 C477 1.358 . S
C475 H517 0.930 . S
C476 N473 1.314 . S
C476 C474 1.353 . S
C476 H518 0.930 . S
C477 N473 1.279 . S
C477 C475 1.358 . S
C477 H519 0.930 . S
C478 C479 1.348 . S
C478 C480 1.356 . S
C478 O503 1.325 . S
C479 C478 1.348 . S
C479 C481 1.353 . S
C479 H520 0.929 . S
C480 C478 1.356 . S
C480 C482 1.358 . S
C480 H521 0.930 . S
C481 C479 1.353 . S
C481 N483 1.314 . S
C481 H522 0.930 . S
C482 C480 1.358 . S
C482 N483 1.279 . S
C482 H523 0.930 . S
N483 C481 1.314 . S
N483 C482 1.279 . S
C484 C486 1.353 . S
C484 N487 1.314 . S
C484 H490 0.930 . S
C485 N487 1.279 . S
C485 C488 1.358 . S
C485 H491 0.930 . S
C486 C484 1.353 . S
C486 C489 1.348 . S
C486 H524 0.929 . S
N487 Li442 1.990 . S
N487 C484 1.314 . S
N487 C485 1.279 . S
C488 C485 1.358 . S
C488 C489 1.356 . S
C488 H525 0.930 . S
C489 C486 1.348 . S
C489 C488 1.356 . S
H490 C484 0.930 . S
H491 C485 0.930 . S
C492 N493 1.314 . S
C492 C494 1.353 . S
C492 H498 0.930 . S
N493 Li443 1.990 . S
N493 C492 1.314 . S
N493 C496 1.279 . S
C494 C492 1.353 . S
C494 C497 1.348 . S
C494 H526 0.929 . S
C495 C496 1.358 . S
C495 C497 1.356 . S
C495 H527 0.930 . S
C496 N493 1.279 . S
C496 C495 1.358 . S
C496 H499 0.930 . S
C497 C494 1.348 . S
C497 C495 1.356 . S
H498 C492 0.930 . S
H499 C496 0.930 . S
O500 Li440 1.956 . S
O500 Li441 1.970 . S
O500 Li442 1.961 . S
O500 C444 1.325 . S
O501 Li440 1.970 . S
O501 Li441 1.956 . S
O501 Li443 1.961 . S
O501 C450 1.325 . S
O502 Li440 1.961 . S
O502 Li442 1.956 . S
O502 Li443 1.970 . S
O502 C472 1.325 . S
O503 Li441 1.961 . S
O503 Li442 1.970 . S
O503 Li443 1.956 . S
O503 C478 1.325 . S
H504 C446 0.929 . S
H505 C447 0.930 . S
H506 C448 0.930 . S
H507 C449 0.930 . S
H508 C451 0.930 . S
H509 C453 0.929 . S
H510 C454 0.930 . S
H511 C455 0.930 . S
H512 C458 0.930 . S
H513 C461 0.929 1_655 S
H514 C466 0.929 . S
H515 C467 0.930 . S
H516 C474 0.929 . S
H517 C475 0.930 . S
H518 C476 0.930 . S
H519 C477 0.930 . S
H520 C479 0.929 . S
H521 C480 0.930 . S
H522 C481 0.930 . S
H523 C482 0.930 . S
H524 C486 0.929 . S
H525 C488 0.930 . S
H526 C494 0.929 . S
H527 C495 0.930 . S
Li528 N545 1.990 . S
Li528 O588 1.956 . S
Li528 O589 1.970 . S
Li528 O590 1.961 . S
Li529 N553 1.990 . S
Li529 O588 1.970 . S
Li529 O589 1.956 . S
Li529 O591 1.961 . S
Li530 N575 1.990 . S
Li530 O588 1.961 . S
Li530 O590 1.956 . S
Li530 O591 1.970 . S
Li531 N581 1.990 . S
Li531 O589 1.961 . S
Li531 O590 1.970 . S
Li531 O591 1.956 . S
C532 C534 1.348 . S
C532 C535 1.356 . S
C532 O588 1.325 . S
N533 C536 1.314 . S
N533 C537 1.279 . S
C534 C532 1.348 . S
C534 C536 1.353 . S
C534 H592 0.929 . S
C535 C532 1.356 . S
C535 C537 1.358 . S
C535 H593 0.930 . S
C536 N533 1.314 . S
C536 C534 1.353 . S
C536 H594 0.930 . S
C537 N533 1.279 . S
C537 C535 1.358 . S
C537 H595 0.930 . S
C538 C541 1.348 . S
C538 C542 1.356 . S
C538 O589 1.325 . S
C539 N540 1.279 . S
C539 C542 1.358 . S
C539 H596 0.930 . S
N540 C539 1.279 . S
N540 C543 1.314 . S
C541 C538 1.348 . S
C541 C543 1.353 . S
C541 H597 0.929 . S
C542 C538 1.356 . S
C542 C539 1.358 . S
C542 H598 0.930 . S
C543 N540 1.314 . S
C543 C541 1.353 . S
C543 H599 0.930 . S
C544 N545 1.314 . S
C544 C549 1.353 . S
C544 H550 0.930 . S
N545 Li528 1.990 . S
N545 C544 1.314 . S
N545 C547 1.279 . S
C546 C547 1.358 . S
C546 C548 1.356 . S
C546 H600 0.930 . S
C547 N545 1.279 . S
C547 C546 1.358 . S
C547 H551 0.930 . S
C548 C546 1.356 . S
C548 C549 1.348 . S
C549 C544 1.353 . S
C549 C548 1.348 . S
C549 H601 0.929 . S
H550 C544 0.930 . S
H551 C547 0.930 . S
C552 N553 1.314 . S
C552 C554 1.353 . S
C552 H558 0.930 . S
N553 Li529 1.990 . S
N553 C552 1.314 . S
N553 C556 1.279 . S
C554 C552 1.353 . S
C554 C557 1.348 . S
C554 H602 0.929 1_655 S
C555 C556 1.358 . S
C555 C557 1.356 . S
C555 H603 0.930 . S
C556 N553 1.279 . S
C556 C555 1.358 . S
C556 H559 0.930 . S
C557 C554 1.348 . S
C557 C555 1.356 . S
H558 C552 0.930 . S
H559 C556 0.930 . S
C560 C562 1.348 . S
C560 C563 1.356 . S
C560 O590 1.325 . S
N561 C564 1.314 . S
N561 C565 1.279 . S
C562 C560 1.348 . S
C562 C564 1.353 . S
C562 H604 0.929 . S
C563 C560 1.356 . S
C563 C565 1.358 . S
C563 H605 0.930 . S
C564 N561 1.314 . S
C564 C562 1.353 . S
C564 H606 0.930 . S
C565 N561 1.279 . S
C565 C563 1.358 . S
C565 H607 0.930 . S
C566 C567 1.348 . S
C566 C568 1.356 . S
C566 O591 1.325 . S
C567 C566 1.348 . S
C567 C569 1.353 . S
C567 H608 0.929 . S
C568 C566 1.356 . S
C568 C570 1.358 . S
C568 H609 0.930 . S
C569 C567 1.353 . S
C569 N571 1.314 . S
C569 H610 0.930 . S
C570 C568 1.358 . S
C570 N571 1.279 . S
C570 H611 0.930 . S
N571 C569 1.314 . S
N571 C570 1.279 . S
C572 C574 1.353 . S
C572 N575 1.314 . S
C572 H578 0.930 . S
C573 N575 1.279 . S
C573 C576 1.358 . S
C573 H579 0.930 . S
C574 C572 1.353 . S
C574 C577 1.348 . S
C574 H612 0.929 . S
N575 Li530 1.990 . S
N575 C572 1.314 . S
N575 C573 1.279 . S
C576 C573 1.358 . S
C576 C577 1.356 . S
C576 H613 0.930 . S
C577 C574 1.348 . S
C577 C576 1.356 . S
H578 C572 0.930 . S
H579 C573 0.930 . S
C580 N581 1.314 . S
C580 C582 1.353 . S
C580 H586 0.930 . S
N581 Li531 1.990 . S
N581 C580 1.314 . S
N581 C584 1.279 . S
C582 C580 1.353 . S
C582 C585 1.348 . S
C582 H614 0.929 . S
C583 C584 1.358 . S
C583 C585 1.356 . S
C583 H615 0.930 . S
C584 N581 1.279 . S
C584 C583 1.358 . S
C584 H587 0.930 . S
C585 C582 1.348 . S
C585 C583 1.356 . S
H586 C580 0.930 . S
H587 C584 0.930 . S
O588 Li528 1.956 . S
O588 Li529 1.970 . S
O588 Li530 1.961 . S
O588 C532 1.325 . S
O589 Li528 1.970 . S
O589 Li529 1.956 . S
O589 Li531 1.961 . S
O589 C538 1.325 . S
O590 Li528 1.961 . S
O590 Li530 1.956 . S
O590 Li531 1.970 . S
O590 C560 1.325 . S
O591 Li529 1.961 . S
O591 Li530 1.970 . S
O591 Li531 1.956 . S
O591 C566 1.325 . S
H592 C534 0.929 . S
H593 C535 0.930 . S
H594 C536 0.930 . S
H595 C537 0.930 . S
H596 C539 0.930 . S
H597 C541 0.929 . S
H598 C542 0.930 . S
H599 C543 0.930 . S
H600 C546 0.930 . S
H601 C549 0.929 . S
H602 C554 0.929 1_455 S
H603 C555 0.930 . S
H604 C562 0.929 . S
H605 C563 0.930 . S
H606 C564 0.930 . S
H607 C565 0.930 . S
H608 C567 0.929 . S
H609 C568 0.930 . S
H610 C569 0.930 . S
H611 C570 0.930 . S
H612 C574 0.929 . S
H613 C576 0.930 . S
H614 C582 0.929 . S
H615 C583 0.930 . S
Li616 N633 1.990 . S
Li616 O676 1.956 . S
Li616 O677 1.970 . S
Li616 O678 1.961 . S
Li617 N641 1.990 . S
Li617 O676 1.970 . S
Li617 O677 1.956 . S
Li617 O679 1.961 . S
Li618 N663 1.990 . S
Li618 O676 1.961 . S
Li618 O678 1.956 . S
Li618 O679 1.970 . S
Li619 N669 1.990 . S
Li619 O677 1.961 . S
Li619 O678 1.970 . S
Li619 O679 1.956 . S
C620 C622 1.348 . S
C620 C623 1.356 . S
C620 O676 1.325 . S
N621 C624 1.314 . S
N621 C625 1.279 . S
C622 C620 1.348 . S
C622 C624 1.353 . S
C622 H680 0.929 . S
C623 C620 1.356 . S
C623 C625 1.358 . S
C623 H681 0.930 . S
C624 N621 1.314 . S
C624 C622 1.353 . S
C624 H682 0.930 . S
C625 N621 1.279 . S
C625 C623 1.358 . S
C625 H683 0.930 . S
C626 C629 1.348 . S
C626 C630 1.356 . S
C626 O677 1.325 . S
C627 N628 1.279 . S
C627 C630 1.358 . S
C627 H684 0.930 . S
N628 C627 1.279 . S
N628 C631 1.314 . S
C629 C626 1.348 . S
C629 C631 1.353 . S
C629 H685 0.929 . S
C630 C626 1.356 . S
C630 C627 1.358 . S
C630 H686 0.930 . S
C631 N628 1.314 . S
C631 C629 1.353 . S
C631 H687 0.930 . S
C632 N633 1.314 . S
C632 C637 1.353 . S
C632 H638 0.930 . S
N633 Li616 1.990 . S
N633 C632 1.314 . S
N633 C635 1.279 . S
C634 C635 1.358 . S
C634 C636 1.356 . S
C634 H688 0.930 . S
C635 N633 1.279 . S
C635 C634 1.358 . S
C635 H639 0.930 . S
C636 C634 1.356 . S
C636 C637 1.348 . S
C637 C632 1.353 . S
C637 C636 1.348 . S
C637 H689 0.929 . S
H638 C632 0.930 . S
H639 C635 0.930 . S
C640 N641 1.314 . S
C640 C642 1.353 . S
C640 H646 0.930 . S
N641 Li617 1.990 . S
N641 C640 1.314 . S
N641 C644 1.279 . S
C642 C640 1.353 . S
C642 C645 1.348 . S
C642 H690 0.929 . S
C643 C644 1.358 . S
C643 C645 1.356 . S
C643 H691 0.930 . S
C644 N641 1.279 . S
C644 C643 1.358 . S
C644 H647 0.930 . S
C645 C642 1.348 . S
C645 C643 1.356 . S
H646 C640 0.930 . S
H647 C644 0.930 . S
C648 C650 1.348 . S
C648 C651 1.356 . S
C648 O678 1.325 . S
N649 C652 1.314 . S
N649 C653 1.279 . S
C650 C648 1.348 . S
C650 C652 1.353 . S
C650 H692 0.929 . S
C651 C648 1.356 . S
C651 C653 1.358 . S
C651 H693 0.930 . S
C652 N649 1.314 . S
C652 C650 1.353 . S
C652 H694 0.930 . S
C653 N649 1.279 . S
C653 C651 1.358 . S
C653 H695 0.930 . S
C654 C655 1.348 . S
C654 C656 1.356 . S
C654 O679 1.325 . S
C655 C654 1.348 . S
C655 C657 1.353 . S
C655 H696 0.929 . S
C656 C654 1.356 . S
C656 C658 1.358 . S
C656 H697 0.930 . S
C657 C655 1.353 . S
C657 N659 1.314 . S
C657 H698 0.930 . S
C658 C656 1.358 . S
C658 N659 1.279 . S
C658 H699 0.930 . S
N659 C657 1.314 . S
N659 C658 1.279 . S
C660 C662 1.353 . S
C660 N663 1.314 . S
C660 H666 0.930 . S
C661 N663 1.279 . S
C661 C664 1.358 . S
C661 H667 0.930 . S
C662 C660 1.353 . S
C662 C665 1.348 . S
C662 H700 0.929 . S
N663 Li618 1.990 . S
N663 C660 1.314 . S
N663 C661 1.279 . S
C664 C661 1.358 . S
C664 C665 1.356 . S
C664 H701 0.930 . S
C665 C662 1.348 . S
C665 C664 1.356 . S
H666 C660 0.930 . S
H667 C661 0.930 . S
C668 N669 1.314 . S
C668 C670 1.353 . S
C668 H674 0.930 . S
N669 Li619 1.990 . S
N669 C668 1.314 . S
N669 C672 1.279 . S
C670 C668 1.353 . S
C670 C673 1.348 . S
C670 H702 0.929 1_565 S
C671 C672 1.358 . S
C671 C673 1.356 . S
C671 H703 0.930 . S
C672 N669 1.279 . S
C672 C671 1.358 . S
C672 H675 0.930 . S
C673 C670 1.348 . S
C673 C671 1.356 . S
H674 C668 0.930 . S
H675 C672 0.930 . S
O676 Li616 1.956 . S
O676 Li617 1.970 . S
O676 Li618 1.961 . S
O676 C620 1.325 . S
O677 Li616 1.970 . S
O677 Li617 1.956 . S
O677 Li619 1.961 . S
O677 C626 1.325 . S
O678 Li616 1.961 . S
O678 Li618 1.956 . S
O678 Li619 1.970 . S
O678 C648 1.325 . S
O679 Li617 1.961 . S
O679 Li618 1.970 . S
O679 Li619 1.956 . S
O679 C654 1.325 . S
H680 C622 0.929 . S
H681 C623 0.930 . S
H682 C624 0.930 . S
H683 C625 0.930 . S
H684 C627 0.930 . S
H685 C629 0.929 . S
H686 C630 0.930 . S
H687 C631 0.930 . S
H688 C634 0.930 . S
H689 C637 0.929 . S
H690 C642 0.929 . S
H691 C643 0.930 . S
H692 C650 0.929 . S
H693 C651 0.930 . S
H694 C652 0.930 . S
H695 C653 0.930 . S
H696 C655 0.929 . S
H697 C656 0.930 . S
H698 C657 0.930 . S
H699 C658 0.930 . S
H700 C662 0.929 . S
H701 C664 0.930 . S
H702 C670 0.929 1_545 S
H703 C671 0.930 . S
Li704 N721 1.990 . S
Li704 O764 1.956 . S
Li704 O765 1.970 . S
Li704 O766 1.961 . S
Li705 N729 1.990 . S
Li705 O764 1.970 . S
Li705 O765 1.956 . S
Li705 O767 1.961 . S
Li706 N751 1.990 . S
Li706 O764 1.961 . S
Li706 O766 1.956 . S
Li706 O767 1.970 . S
Li707 N757 1.990 . S
Li707 O765 1.961 . S
Li707 O766 1.970 . S
Li707 O767 1.956 . S
C708 C710 1.348 . S
C708 C711 1.356 . S
C708 O764 1.325 . S
N709 C712 1.314 . S
N709 C713 1.279 . S
C710 C708 1.348 . S
C710 C712 1.353 . S
C710 H768 0.929 . S
C711 C708 1.356 . S
C711 C713 1.358 . S
C711 H769 0.930 . S
C712 N709 1.314 . S
C712 C710 1.353 . S
C712 H770 0.930 . S
C713 N709 1.279 . S
C713 C711 1.358 . S
C713 H771 0.930 . S
C714 C717 1.348 . S
C714 C718 1.356 . S
C714 O765 1.325 . S
C715 N716 1.279 . S
C715 C718 1.358 . S
C715 H772 0.930 . S
N716 C715 1.279 . S
N716 C719 1.314 . S
C717 C714 1.348 . S
C717 C719 1.353 . S
C717 H773 0.929 . S
C718 C714 1.356 . S
C718 C715 1.358 . S
C718 H774 0.930 . S
C719 N716 1.314 . S
C719 C717 1.353 . S
C719 H775 0.930 . S
C720 N721 1.314 . S
C720 C725 1.353 . S
C720 H726 0.930 . S
N721 Li704 1.990 . S
N721 C720 1.314 . S
N721 C723 1.279 . S
C722 C723 1.358 . S
C722 C724 1.356 . S
C722 H776 0.930 . S
C723 N721 1.279 . S
C723 C722 1.358 . S
C723 H727 0.930 . S
C724 C722 1.356 . S
C724 C725 1.348 . S
C725 C720 1.353 . S
C725 C724 1.348 . S
C725 H777 0.929 . S
H726 C720 0.930 . S
H727 C723 0.930 . S
C728 N729 1.314 . S
C728 C730 1.353 . S
C728 H734 0.930 . S
N729 Li705 1.990 . S
N729 C728 1.314 . S
N729 C732 1.279 . S
C730 C728 1.353 . S
C730 C733 1.348 . S
C730 H778 0.929 . S
C731 C732 1.358 . S
C731 C733 1.356 . S
C731 H779 0.930 . S
C732 N729 1.279 . S
C732 C731 1.358 . S
C732 H735 0.930 . S
C733 C730 1.348 . S
C733 C731 1.356 . S
H734 C728 0.930 . S
H735 C732 0.930 . S
C736 C738 1.348 . S
C736 C739 1.356 . S
C736 O766 1.325 . S
N737 C740 1.314 . S
N737 C741 1.279 . S
C738 C736 1.348 . S
C738 C740 1.353 . S
C738 H780 0.929 . S
C739 C736 1.356 . S
C739 C741 1.358 . S
C739 H781 0.930 . S
C740 N737 1.314 . S
C740 C738 1.353 . S
C740 H782 0.930 . S
C741 N737 1.279 . S
C741 C739 1.358 . S
C741 H783 0.930 . S
C742 C743 1.348 . S
C742 C744 1.356 . S
C742 O767 1.325 . S
C743 C742 1.348 . S
C743 C745 1.353 . S
C743 H784 0.929 . S
C744 C742 1.356 . S
C744 C746 1.358 . S
C744 H785 0.930 . S
C745 C743 1.353 . S
C745 N747 1.314 . S
C745 H786 0.930 . S
C746 C744 1.358 . S
C746 N747 1.279 . S
C746 H787 0.930 . S
N747 C745 1.314 . S
N747 C746 1.279 . S
C748 C750 1.353 . S
C748 N751 1.314 . S
C748 H754 0.930 . S
C749 N751 1.279 . S
C749 C752 1.358 . S
C749 H755 0.930 . S
C750 C748 1.353 . S
C750 C753 1.348 . S
C750 H788 0.929 . S
N751 Li706 1.990 . S
N751 C748 1.314 . S
N751 C749 1.279 . S
C752 C749 1.358 . S
C752 C753 1.356 . S
C752 H789 0.930 . S
C753 C750 1.348 . S
C753 C752 1.356 . S
H754 C748 0.930 . S
H755 C749 0.930 . S
C756 N757 1.314 . S
C756 C758 1.353 . S
C756 H762 0.930 . S
N757 Li707 1.990 . S
N757 C756 1.314 . S
N757 C760 1.279 . S
C758 C756 1.353 . S
C758 C761 1.348 . S
C758 H790 0.929 . S
C759 C760 1.358 . S
C759 C761 1.356 . S
C759 H791 0.930 . S
C760 N757 1.279 . S
C760 C759 1.358 . S
C760 H763 0.930 . S
C761 C758 1.348 . S
C761 C759 1.356 . S
H762 C756 0.930 . S
H763 C760 0.930 . S
O764 Li704 1.956 . S
O764 Li705 1.970 . S
O764 Li706 1.961 . S
O764 C708 1.325 . S
O765 Li704 1.970 . S
O765 Li705 1.956 . S
O765 Li707 1.961 . S
O765 C714 1.325 . S
O766 Li704 1.961 . S
O766 Li706 1.956 . S
O766 Li707 1.970 . S
O766 C736 1.325 . S
O767 Li705 1.961 . S
O767 Li706 1.970 . S
O767 Li707 1.956 . S
O767 C742 1.325 . S
H768 C710 0.929 . S
H769 C711 0.930 . S
H770 C712 0.930 . S
H771 C713 0.930 . S
H772 C715 0.930 . S
H773 C717 0.929 . S
H774 C718 0.930 . S
H775 C719 0.930 . S
H776 C722 0.930 . S
H777 C725 0.929 . S
H778 C730 0.929 . S
H779 C731 0.930 . S
H780 C738 0.929 . S
H781 C739 0.930 . S
H782 C740 0.930 . S
H783 C741 0.930 . S
H784 C743 0.929 . S
H785 C744 0.930 . S
H786 C745 0.930 . S
H787 C746 0.930 . S
H788 C750 0.929 . S
H789 C752 0.930 . S
H790 C758 0.929 . S
H791 C759 0.930 . S
Li792 N809 1.990 . S
Li792 O852 1.956 . S
Li792 O853 1.970 . S
Li792 O854 1.961 . S
Li793 N817 1.990 . S
Li793 O852 1.970 . S
Li793 O853 1.956 . S
Li793 O855 1.961 . S
Li794 N839 1.990 . S
Li794 O852 1.961 . S
Li794 O854 1.956 . S
Li794 O855 1.970 . S
Li795 N845 1.990 . S
Li795 O853 1.961 . S
Li795 O854 1.970 . S
Li795 O855 1.956 . S
C796 C798 1.348 . S
C796 C799 1.356 . S
C796 O852 1.325 . S
N797 C800 1.314 . S
N797 C801 1.279 . S
C798 C796 1.348 . S
C798 C800 1.353 . S
C798 H856 0.929 . S
C799 C796 1.356 . S
C799 C801 1.358 . S
C799 H857 0.930 . S
C800 N797 1.314 . S
C800 C798 1.353 . S
C800 H858 0.930 . S
C801 N797 1.279 . S
C801 C799 1.358 . S
C801 H859 0.930 . S
C802 C805 1.348 . S
C802 C806 1.356 . S
C802 O853 1.325 . S
C803 N804 1.279 . S
C803 C806 1.358 . S
C803 H860 0.930 . S
N804 C803 1.279 . S
N804 C807 1.314 . S
C805 C802 1.348 . S
C805 C807 1.353 . S
C805 H861 0.929 . S
C806 C802 1.356 . S
C806 C803 1.358 . S
C806 H862 0.930 . S
C807 N804 1.314 . S
C807 C805 1.353 . S
C807 H863 0.930 . S
C808 N809 1.314 . S
C808 C813 1.353 . S
C808 H814 0.930 . S
N809 Li792 1.990 . S
N809 C808 1.314 . S
N809 C811 1.279 . S
C810 C811 1.358 . S
C810 C812 1.356 . S
C810 H864 0.930 . S
C811 N809 1.279 . S
C811 C810 1.358 . S
C811 H815 0.930 . S
C812 C810 1.356 . S
C812 C813 1.348 . S
C813 C808 1.353 . S
C813 C812 1.348 . S
C813 H865 0.929 . S
H814 C808 0.930 . S
H815 C811 0.930 . S
C816 N817 1.314 . S
C816 C818 1.353 . S
C816 H822 0.930 . S
N817 Li793 1.990 . S
N817 C816 1.314 . S
N817 C820 1.279 . S
C818 C816 1.353 . S
C818 C821 1.348 . S
C818 H866 0.929 . S
C819 C820 1.358 . S
C819 C821 1.356 . S
C819 H867 0.930 . S
C820 N817 1.279 . S
C820 C819 1.358 . S
C820 H823 0.930 . S
C821 C818 1.348 . S
C821 C819 1.356 . S
H822 C816 0.930 . S
H823 C820 0.930 . S
C824 C826 1.348 . S
C824 C827 1.356 . S
C824 O854 1.325 . S
N825 C828 1.314 . S
N825 C829 1.279 . S
C826 C824 1.348 . S
C826 C828 1.353 . S
C826 H868 0.929 . S
C827 C824 1.356 . S
C827 C829 1.358 . S
C827 H869 0.930 . S
C828 N825 1.314 . S
C828 C826 1.353 . S
C828 H870 0.930 . S
C829 N825 1.279 . S
C829 C827 1.358 . S
C829 H871 0.930 . S
C830 C831 1.348 . S
C830 C832 1.356 . S
C830 O855 1.325 . S
C831 C830 1.348 . S
C831 C833 1.353 . S
C831 H872 0.929 . S
C832 C830 1.356 . S
C832 C834 1.358 . S
C832 H873 0.930 . S
C833 C831 1.353 . S
C833 N835 1.314 . S
C833 H874 0.930 . S
C834 C832 1.358 . S
C834 N835 1.279 . S
C834 H875 0.930 . S
N835 C833 1.314 . S
N835 C834 1.279 . S
C836 C838 1.353 . S
C836 N839 1.314 . S
C836 H842 0.930 . S
C837 N839 1.279 . S
C837 C840 1.358 . S
C837 H843 0.930 . S
C838 C836 1.353 . S
C838 C841 1.348 . S
C838 H876 0.929 . S
N839 Li794 1.990 . S
N839 C836 1.314 . S
N839 C837 1.279 . S
C840 C837 1.358 . S
C840 C841 1.356 . S
C840 H877 0.930 . S
C841 C838 1.348 . S
C841 C840 1.356 . S
H842 C836 0.930 . S
H843 C837 0.930 . S
C844 N845 1.314 . S
C844 C846 1.353 . S
C844 H850 0.930 . S
N845 Li795 1.990 . S
N845 C844 1.314 . S
N845 C848 1.279 . S
C846 C844 1.353 . S
C846 C849 1.348 . S
C846 H878 0.929 1_455 S
C847 C848 1.358 . S
C847 C849 1.356 . S
C847 H879 0.930 . S
C848 N845 1.279 . S
C848 C847 1.358 . S
C848 H851 0.930 . S
C849 C846 1.348 . S
C849 C847 1.356 . S
H850 C844 0.930 . S
H851 C848 0.930 . S
O852 Li792 1.956 . S
O852 Li793 1.970 . S
O852 Li794 1.961 . S
O852 C796 1.325 . S
O853 Li792 1.970 . S
O853 Li793 1.956 . S
O853 Li795 1.961 . S
O853 C802 1.325 . S
O854 Li792 1.961 . S
O854 Li794 1.956 . S
O854 Li795 1.970 . S
O854 C824 1.325 . S
O855 Li793 1.961 . S
O855 Li794 1.970 . S
O855 Li795 1.956 . S
O855 C830 1.325 . S
H856 C798 0.929 . S
H857 C799 0.930 . S
H858 C800 0.930 . S
H859 C801 0.930 . S
H860 C803 0.930 . S
H861 C805 0.929 . S
H862 C806 0.930 . S
H863 C807 0.930 . S
H864 C810 0.930 . S
H865 C813 0.929 . S
H866 C818 0.929 . S
H867 C819 0.930 . S
H868 C826 0.929 . S
H869 C827 0.930 . S
H870 C828 0.930 . S
H871 C829 0.930 . S
H872 C831 0.929 . S
H873 C832 0.930 . S
H874 C833 0.930 . S
H875 C834 0.930 . S
H876 C838 0.929 . S
H877 C840 0.930 . S
H878 C846 0.929 1_655 S
H879 C847 0.930 . S
Li880 N897 1.990 . S
Li880 O940 1.956 . S
Li880 O941 1.970 . S
Li880 O942 1.961 . S
Li881 N905 1.990 . S
Li881 O940 1.970 . S
Li881 O941 1.956 . S
Li881 O943 1.961 . S
Li882 N927 1.990 . S
Li882 O940 1.961 . S
Li882 O942 1.956 . S
Li882 O943 1.970 . S
Li883 N933 1.990 . S
Li883 O941 1.961 . S
Li883 O942 1.970 . S
Li883 O943 1.956 . S
C884 C886 1.348 . S
C884 C887 1.356 . S
C884 O940 1.325 . S
N885 C888 1.314 . S
N885 C889 1.279 . S
C886 C884 1.348 . S
C886 C888 1.353 . S
C886 H944 0.929 . S
C887 C884 1.356 . S
C887 C889 1.358 . S
C887 H945 0.930 . S
C888 N885 1.314 . S
C888 C886 1.353 . S
C888 H946 0.930 . S
C889 N885 1.279 . S
C889 C887 1.358 . S
C889 H947 0.930 . S
C890 C893 1.348 . S
C890 C894 1.356 . S
C890 O941 1.325 . S
C891 N892 1.279 . S
C891 C894 1.358 . S
C891 H948 0.930 . S
N892 C891 1.279 . S
N892 C895 1.314 . S
C893 C890 1.348 . S
C893 C895 1.353 . S
C893 H949 0.929 . S
C894 C890 1.356 . S
C894 C891 1.358 . S
C894 H950 0.930 . S
C895 N892 1.314 . S
C895 C893 1.353 . S
C895 H951 0.930 . S
C896 N897 1.314 . S
C896 C901 1.353 . S
C896 H902 0.930 . S
N897 Li880 1.990 . S
N897 C896 1.314 . S
N897 C899 1.279 . S
C898 C899 1.358 . S
C898 C900 1.356 . S
C898 H952 0.930 . S
C899 N897 1.279 . S
C899 C898 1.358 . S
C899 H903 0.930 . S
C900 C898 1.356 . S
C900 C901 1.348 . S
C901 C896 1.353 . S
C901 C900 1.348 . S
C901 H953 0.929 . S
H902 C896 0.930 . S
H903 C899 0.930 . S
C904 N905 1.314 . S
C904 C906 1.353 . S
C904 H910 0.930 . S
N905 Li881 1.990 . S
N905 C904 1.314 . S
N905 C908 1.279 . S
C906 C904 1.353 . S
C906 C909 1.348 . S
C906 H954 0.929 1_545 S
C907 C908 1.358 . S
C907 C909 1.356 . S
C907 H955 0.930 . S
C908 N905 1.279 . S
C908 C907 1.358 . S
C908 H911 0.930 . S
C909 C906 1.348 . S
C909 C907 1.356 . S
H910 C904 0.930 . S
H911 C908 0.930 . S
C912 C914 1.348 . S
C912 C915 1.356 . S
C912 O942 1.325 . S
N913 C916 1.314 . S
N913 C917 1.279 . S
C914 C912 1.348 . S
C914 C916 1.353 . S
C914 H956 0.929 . S
C915 C912 1.356 . S
C915 C917 1.358 . S
C915 H957 0.930 . S
C916 N913 1.314 . S
C916 C914 1.353 . S
C916 H958 0.930 . S
C917 N913 1.279 . S
C917 C915 1.358 . S
C917 H959 0.930 . S
C918 C919 1.348 . S
C918 C920 1.356 . S
C918 O943 1.325 . S
C919 C918 1.348 . S
C919 C921 1.353 . S
C919 H960 0.929 . S
C920 C918 1.356 . S
C920 C922 1.358 . S
C920 H961 0.930 . S
C921 C919 1.353 . S
C921 N923 1.314 . S
C921 H962 0.930 . S
C922 C920 1.358 . S
C922 N923 1.279 . S
C922 H963 0.930 . S
N923 C921 1.314 . S
N923 C922 1.279 . S
C924 C926 1.353 . S
C924 N927 1.314 . S
C924 H930 0.930 . S
C925 N927 1.279 . S
C925 C928 1.358 . S
C925 H931 0.930 . S
C926 C924 1.353 . S
C926 C929 1.348 . S
C926 H964 0.929 . S
N927 Li882 1.990 . S
N927 C924 1.314 . S
N927 C925 1.279 . S
C928 C925 1.358 . S
C928 C929 1.356 . S
C928 H965 0.930 . S
C929 C926 1.348 . S
C929 C928 1.356 . S
H930 C924 0.930 . S
H931 C925 0.930 . S
C932 N933 1.314 . S
C932 C934 1.353 . S
C932 H938 0.930 . S
N933 Li883 1.990 . S
N933 C932 1.314 . S
N933 C936 1.279 . S
C934 C932 1.353 . S
C934 C937 1.348 . S
C934 H966 0.929 . S
C935 C936 1.358 . S
C935 C937 1.356 . S
C935 H967 0.930 . S
C936 N933 1.279 . S
C936 C935 1.358 . S
C936 H939 0.930 . S
C937 C934 1.348 . S
C937 C935 1.356 . S
H938 C932 0.930 . S
H939 C936 0.930 . S
O940 Li880 1.956 . S
O940 Li881 1.970 . S
O940 Li882 1.961 . S
O940 C884 1.325 . S
O941 Li880 1.970 . S
O941 Li881 1.956 . S
O941 Li883 1.961 . S
O941 C890 1.325 . S
O942 Li880 1.961 . S
O942 Li882 1.956 . S
O942 Li883 1.970 . S
O942 C912 1.325 . S
O943 Li881 1.961 . S
O943 Li882 1.970 . S
O943 Li883 1.956 . S
O943 C918 1.325 . S
H944 C886 0.929 . S
H945 C887 0.930 . S
H946 C888 0.930 . S
H947 C889 0.930 . S
H948 C891 0.930 . S
H949 C893 0.929 . S
H950 C894 0.930 . S
H951 C895 0.930 . S
H952 C898 0.930 . S
H953 C901 0.929 . S
H954 C906 0.929 1_565 S
H955 C907 0.930 . S
H956 C914 0.929 . S
H957 C915 0.930 . S
H958 C916 0.930 . S
H959 C917 0.930 . S
H960 C919 0.929 . S
H961 C920 0.930 . S
H962 C921 0.930 . S
H963 C922 0.930 . S
H964 C926 0.929 . S
H965 C928 0.930 . S
H966 C934 0.929 . S
H967 C935 0.930 . S
Li968 N985 1.990 . S
Li968 O1028 1.956 . S
Li968 O1029 1.970 . S
Li968 O1030 1.961 . S
Li969 N993 1.990 . S
Li969 O1028 1.970 . S
Li969 O1029 1.956 . S
Li969 O1031 1.961 . S
Li970 N1015 1.990 . S
Li970 O1028 1.961 . S
Li970 O1030 1.956 . S
Li970 O1031 1.970 . S
Li971 N1021 1.990 . S
Li971 O1029 1.961 . S
Li971 O1030 1.970 . S
Li971 O1031 1.956 . S
C972 C974 1.348 . S
C972 C975 1.356 . S
C972 O1028 1.325 . S
N973 C976 1.314 . S
N973 C977 1.279 . S
C974 C972 1.348 . S
C974 C976 1.353 . S
C974 H1032 0.929 . S
C975 C972 1.356 . S
C975 C977 1.358 . S
C975 H1033 0.930 . S
C976 N973 1.314 . S
C976 C974 1.353 . S
C976 H1034 0.930 . S
C977 N973 1.279 . S
C977 C975 1.358 . S
C977 H1035 0.930 . S
C978 C981 1.348 . S
C978 C982 1.356 . S
C978 O1029 1.325 . S
C979 N980 1.279 . S
C979 C982 1.358 . S
C979 H1036 0.930 . S
N980 C979 1.279 . S
N980 C983 1.314 . S
C981 C978 1.348 . S
C981 C983 1.353 . S
C981 H1037 0.929 . S
C982 C978 1.356 . S
C982 C979 1.358 . S
C982 H1038 0.930 . S
C983 N980 1.314 . S
C983 C981 1.353 . S
C983 H1039 0.930 . S
C984 N985 1.314 . S
C984 C989 1.353 . S
C984 H990 0.930 . S
N985 Li968 1.990 . S
N985 C984 1.314 . S
N985 C987 1.279 . S
C986 C987 1.358 . S
C986 C988 1.356 . S
C986 H1040 0.930 . S
C987 N985 1.279 . S
C987 C986 1.358 . S
C987 H991 0.930 . S
C988 C986 1.356 . S
C988 C989 1.348 . S
C989 C984 1.353 . S
C989 C988 1.348 . S
C989 H1041 0.929 . S
H990 C984 0.930 . S
H991 C987 0.930 . S
C992 N993 1.314 . S
C992 C994 1.353 . S
C992 H998 0.930 . S
N993 Li969 1.990 . S
N993 C992 1.314 . S
N993 C996 1.279 . S
C994 C992 1.353 . S
C994 C997 1.348 . S
C994 H1042 0.929 . S
C995 C996 1.358 . S
C995 C997 1.356 . S
C995 H1043 0.930 . S
C996 N993 1.279 . S
C996 C995 1.358 . S
C996 H999 0.930 . S
C997 C994 1.348 . S
C997 C995 1.356 . S
H998 C992 0.930 . S
H999 C996 0.930 . S
C1000 C1002 1.348 . S
C1000 C1003 1.356 . S
C1000 O1030 1.325 . S
N1001 C1004 1.314 . S
N1001 C1005 1.279 . S
C1002 C1000 1.348 . S
C1002 C1004 1.353 . S
C1002 H1044 0.929 . S
C1003 C1000 1.356 . S
C1003 C1005 1.358 . S
C1003 H1045 0.930 . S
C1004 N1001 1.314 . S
C1004 C1002 1.353 . S
C1004 H1046 0.930 . S
C1005 N1001 1.279 . S
C1005 C1003 1.358 . S
C1005 H1047 0.930 . S
C1006 C1007 1.348 . S
C1006 C1008 1.356 . S
C1006 O1031 1.325 . S
C1007 C1006 1.348 . S
C1007 C1009 1.353 . S
C1007 H1048 0.929 . S
C1008 C1006 1.356 . S
C1008 C1010 1.358 . S
C1008 H1049 0.930 . S
C1009 C1007 1.353 . S
C1009 N1011 1.314 . S
C1009 H1050 0.930 . S
C1010 C1008 1.358 . S
C1010 N1011 1.279 . S
C1010 H1051 0.930 . S
N1011 C1009 1.314 . S
N1011 C1010 1.279 . S
C1012 C1014 1.353 . S
C1012 N1015 1.314 . S
C1012 H1018 0.930 . S
C1013 N1015 1.279 . S
C1013 C1016 1.358 . S
C1013 H1019 0.930 . S
C1014 C1012 1.353 . S
C1014 C1017 1.348 . S
C1014 H1052 0.929 . S
N1015 Li970 1.990 . S
N1015 C1012 1.314 . S
N1015 C1013 1.279 . S
C1016 C1013 1.358 . S
C1016 C1017 1.356 . S
C1016 H1053 0.930 . S
C1017 C1014 1.348 . S
C1017 C1016 1.356 . S
H1018 C1012 0.930 . S
H1019 C1013 0.930 . S
C1020 N1021 1.314 . S
C1020 C1022 1.353 . S
C1020 H1026 0.930 . S
N1021 Li971 1.990 . S
N1021 C1020 1.314 . S
N1021 C1024 1.279 . S
C1022 C1020 1.353 . S
C1022 C1025 1.348 . S
C1022 H1054 0.929 . S
C1023 C1024 1.358 . S
C1023 C1025 1.356 . S
C1023 H1055 0.930 . S
C1024 N1021 1.279 . S
C1024 C1023 1.358 . S
C1024 H1027 0.930 . S
C1025 C1022 1.348 . S
C1025 C1023 1.356 . S
H1026 C1020 0.930 . S
H1027 C1024 0.930 . S
O1028 Li968 1.956 . S
O1028 Li969 1.970 . S
O1028 Li970 1.961 . S
O1028 C972 1.325 . S
O1029 Li968 1.970 . S
O1029 Li969 1.956 . S
O1029 Li971 1.961 . S
O1029 C978 1.325 . S
O1030 Li968 1.961 . S
O1030 Li970 1.956 . S
O1030 Li971 1.970 . S
O1030 C1000 1.325 . S
O1031 Li969 1.961 . S
O1031 Li970 1.970 . S
O1031 Li971 1.956 . S
O1031 C1006 1.325 . S
H1032 C974 0.929 . S
H1033 C975 0.930 . S
H1034 C976 0.930 . S
H1035 C977 0.930 . S
H1036 C979 0.930 . S
H1037 C981 0.929 . S
H1038 C982 0.930 . S
H1039 C983 0.930 . S
H1040 C986 0.930 . S
H1041 C989 0.929 . S
H1042 C994 0.929 . S
H1043 C995 0.930 . S
H1044 C1002 0.929 . S
H1045 C1003 0.930 . S
H1046 C1004 0.930 . S
H1047 C1005 0.930 . S
H1048 C1007 0.929 . S
H1049 C1008 0.930 . S
H1050 C1009 0.930 . S
H1051 C1010 0.930 . S
H1052 C1014 0.929 . S
H1053 C1016 0.930 . S
H1054 C1022 0.929 . S
H1055 C1023 0.930 . S
H1056 C1062 0.930 . S
H1057 C1065 0.930 . S
H1058 C1066 0.930 . S
H1059 C1067 0.930 . S
H1060 C1070 0.930 . S
H1061 C1071 0.930 . S
C1062 H1056 0.930 . S
C1062 C1063 1.355 . S
C1062 C1064 1.415 . S
C1063 C1062 1.355 . S
C1063 C1065 1.419 . S
C1064 C1062 1.415 . S
C1064 C1069 1.425 1_554 S
C1064 C1071 1.409 1_554 S
C1065 H1057 0.930 . S
C1065 C1063 1.419 . S
C1065 C1066 1.362 . S
C1066 H1058 0.930 . S
C1066 C1065 1.362 . S
C1066 C1069 1.409 1_554 S
C1067 H1059 0.930 . S
C1067 C1068 1.355 . S
C1067 C1069 1.415 . S
C1068 C1067 1.355 . S
C1068 C1070 1.419 . S
C1069 C1064 1.425 1_556 S
C1069 C1066 1.409 1_556 S
C1069 C1067 1.415 . S
C1070 H1060 0.930 . S
C1070 C1068 1.419 . S
C1070 C1071 1.362 . S
C1071 H1061 0.930 . S
C1071 C1064 1.409 1_556 S
C1071 C1070 1.362 . S
H1072 C1078 0.930 . S
H1073 C1081 0.930 . S
H1074 C1082 0.930 . S
H1075 C1083 0.930 . S
H1076 C1086 0.930 . S
H1077 C1087 0.930 . S
C1078 H1072 0.930 . S
C1078 C1079 1.355 . S
C1078 C1080 1.415 . S
C1079 C1078 1.355 . S
C1079 C1081 1.419 . S
C1080 C1078 1.415 . S
C1080 C1085 1.425 . S
C1080 C1087 1.409 . S
C1081 H1073 0.930 . S
C1081 C1079 1.419 . S
C1081 C1082 1.362 . S
C1082 H1074 0.930 . S
C1082 C1081 1.362 . S
C1082 C1085 1.409 . S
C1083 H1075 0.930 . S
C1083 C1084 1.355 . S
C1083 C1085 1.415 . S
C1084 C1083 1.355 . S
C1084 C1086 1.419 . S
C1085 C1080 1.425 . S
C1085 C1082 1.409 . S
C1085 C1083 1.415 . S
C1086 H1076 0.930 . S
C1086 C1084 1.419 . S
C1086 C1087 1.362 . S
C1087 H1077 0.930 . S
C1087 C1080 1.409 . S
C1087 C1086 1.362 . S
H1088 C1094 0.930 . S
H1089 C1097 0.930 . S
H1090 C1098 0.930 . S
H1091 C1099 0.930 . S
H1092 C1102 0.930 . S
H1093 C1103 0.930 . S
C1094 H1088 0.930 . S
C1094 C1095 1.355 . S
C1094 C1096 1.415 . S
C1095 C1094 1.355 . S
C1095 C1097 1.419 . S
C1096 C1094 1.415 . S
C1096 C1101 1.425 . S
C1096 C1103 1.409 . S
C1097 H1089 0.930 . S
C1097 C1095 1.419 . S
C1097 C1098 1.362 . S
C1098 H1090 0.930 . S
C1098 C1097 1.362 . S
C1098 C1101 1.409 . S
C1099 H1091 0.930 . S
C1099 C1100 1.355 . S
C1099 C1101 1.415 . S
C1100 C1099 1.355 . S
C1100 C1102 1.419 . S
C1101 C1096 1.425 . S
C1101 C1098 1.409 . S
C1101 C1099 1.415 . S
C1102 H1092 0.930 . S
C1102 C1100 1.419 . S
C1102 C1103 1.362 . S
C1103 H1093 0.930 . S
C1103 C1096 1.409 . S
C1103 C1102 1.362 . S
H1104 C1110 0.930 . S
H1105 C1113 0.930 . S
H1106 C1114 0.930 . S
H1107 C1115 0.930 . S
H1108 C1118 0.930 . S
H1109 C1119 0.930 . S
C1110 H1104 0.930 . S
C1110 C1111 1.355 . S
C1110 C1112 1.389 1_554 S
C1111 C1110 1.355 . S
C1111 C1113 1.419 . S
C1112 C1110 1.389 1_556 S
C1112 C1117 1.424 1_556 S
C1112 C1119 1.436 . S
C1113 H1105 0.930 . S
C1113 C1111 1.419 . S
C1113 C1114 1.362 . S
C1114 H1106 0.930 . S
C1114 C1113 1.362 . S
C1114 C1117 1.432 . S
C1115 H1107 0.930 . S
C1115 C1116 1.355 . S
C1115 C1117 1.393 1_556 S
C1116 C1115 1.355 . S
C1116 C1118 1.419 . S
C1117 C1112 1.424 1_554 S
C1117 C1114 1.432 . S
C1117 C1115 1.393 1_554 S
C1118 H1108 0.930 . S
C1118 C1116 1.419 . S
C1118 C1119 1.362 . S
C1119 H1109 0.930 . S
C1119 C1112 1.436 . S
C1119 C1118 1.362 . S
H1120 C1126 0.930 . S
H1121 C1129 0.930 . S
H1122 C1130 0.930 . S
H1123 C1131 0.930 . S
H1124 C1134 0.930 . S
H1125 C1135 0.930 . S
C1126 H1120 0.930 . S
C1126 C1127 1.355 . S
C1126 C1128 1.415 . S
C1127 C1126 1.355 . S
C1127 C1129 1.419 . S
C1128 C1126 1.415 . S
C1128 C1133 1.425 . S
C1128 C1135 1.409 . S
C1129 H1121 0.930 . S
C1129 C1127 1.419 . S
C1129 C1130 1.362 . S
C1130 H1122 0.930 . S
C1130 C1129 1.362 . S
C1130 C1133 1.409 . S
C1131 H1123 0.930 . S
C1131 C1132 1.355 . S
C1131 C1133 1.415 . S
C1132 C1131 1.355 . S
C1132 C1134 1.419 . S
C1133 C1128 1.425 . S
C1133 C1130 1.409 . S
C1133 C1131 1.415 . S
C1134 H1124 0.930 . S
C1134 C1132 1.419 . S
C1134 C1135 1.362 . S
C1135 H1125 0.930 . S
C1135 C1128 1.409 . S
C1135 C1134 1.362 . S
H1136 C1142 0.930 . S
H1137 C1145 0.930 . S
H1138 C1146 0.930 . S
H1139 C1147 0.930 . S
H1140 C1150 0.930 . S
H1141 C1151 0.930 . S
C1142 H1136 0.930 . S
C1142 C1143 1.355 . S
C1142 C1144 1.415 . S
C1143 C1142 1.355 . S
C1143 C1145 1.419 . S
C1144 C1142 1.415 . S
C1144 C1149 1.425 . S
C1144 C1151 1.409 . S
C1145 H1137 0.930 . S
C1145 C1143 1.419 . S
C1145 C1146 1.362 . S
C1146 H1138 0.930 . S
C1146 C1145 1.362 . S
C1146 C1149 1.409 . S
C1147 H1139 0.930 . S
C1147 C1148 1.355 . S
C1147 C1149 1.415 . S
C1148 C1147 1.355 . S
C1148 C1150 1.419 . S
C1149 C1144 1.425 . S
C1149 C1146 1.409 . S
C1149 C1147 1.415 . S
C1150 H1140 0.930 . S
C1150 C1148 1.419 . S
C1150 C1151 1.362 . S
C1151 H1141 0.930 . S
C1151 C1144 1.409 . S
C1151 C1150 1.362 . S
H1152 C1158 0.930 . S
H1153 C1161 0.930 . S
H1154 C1162 0.930 . S
H1155 C1163 0.930 . S
H1156 C1166 0.930 . S
H1157 C1167 0.930 . S
C1158 H1152 0.930 . S
C1158 C1159 1.355 . S
C1158 C1160 1.415 . S
C1159 C1158 1.355 . S
C1159 C1161 1.419 1_545 S
C1160 C1158 1.415 . S
C1160 C1165 1.425 1_544 S
C1160 C1167 1.409 1_554 S
C1161 H1153 0.930 . S
C1161 C1159 1.419 1_565 S
C1161 C1162 1.362 . S
C1162 H1154 0.930 . S
C1162 C1161 1.362 . S
C1162 C1165 1.409 1_554 S
C1163 H1155 0.930 . S
C1163 C1164 1.355 . S
C1163 C1165 1.415 . S
C1164 C1163 1.355 . S
C1164 C1166 1.419 1_565 S
C1165 C1160 1.425 1_566 S
C1165 C1162 1.409 1_556 S
C1165 C1163 1.415 . S
C1166 H1156 0.930 . S
C1166 C1164 1.419 1_545 S
C1166 C1167 1.362 . S
C1167 H1157 0.930 . S
C1167 C1160 1.409 1_556 S
C1167 C1166 1.362 . S
H1168 C1174 0.930 . S
H1169 C1177 0.930 . S
H1170 C1178 0.930 . S
H1171 C1179 0.930 . S
H1172 C1182 0.930 . S
H1173 C1183 0.930 . S
C1174 H1168 0.930 . S
C1174 C1175 1.355 . S
C1174 C1176 1.415 . S
C1175 C1174 1.355 . S
C1175 C1177 1.419 . S
C1176 C1174 1.415 . S
C1176 C1181 1.425 . S
C1176 C1183 1.409 . S
C1177 H1169 0.930 . S
C1177 C1175 1.419 . S
C1177 C1178 1.362 . S
C1178 H1170 0.930 . S
C1178 C1177 1.362 . S
C1178 C1181 1.409 . S
C1179 H1171 0.930 . S
C1179 C1180 1.355 . S
C1179 C1181 1.415 . S
C1180 C1179 1.355 . S
C1180 C1182 1.419 . S
C1181 C1176 1.425 . S
C1181 C1178 1.409 . S
C1181 C1179 1.415 . S
C1182 H1172 0.930 . S
C1182 C1180 1.419 . S
C1182 C1183 1.362 . S
C1183 H1173 0.930 . S
C1183 C1176 1.409 . S
C1183 C1182 1.362 . S
H1184 C1190 0.930 . S
H1185 C1193 0.930 . S
H1186 C1194 0.930 . S
H1187 C1195 0.930 . S
H1188 C1198 0.930 . S
H1189 C1199 0.930 . S
C1190 H1184 0.930 . S
C1190 C1191 1.355 1_655 S
C1190 C1192 1.415 . S
C1191 C1190 1.355 1_455 S
C1191 C1193 1.419 . S
C1192 C1190 1.415 . S
C1192 C1197 1.425 1_655 S
C1192 C1199 1.409 . S
C1193 H1185 0.930 . S
C1193 C1191 1.419 . S
C1193 C1194 1.362 . S
C1194 H1186 0.930 . S
C1194 C1193 1.362 . S
C1194 C1197 1.409 . S
C1195 H1187 0.930 . S
C1195 C1196 1.355 1_455 S
C1195 C1197 1.415 . S
C1196 C1195 1.355 1_655 S
C1196 C1198 1.419 . S
C1197 C1192 1.425 1_455 S
C1197 C1194 1.409 . S
C1197 C1195 1.415 . S
C1198 H1188 0.930 . S
C1198 C1196 1.419 . S
C1198 C1199 1.362 . S
C1199 H1189 0.930 . S
C1199 C1192 1.409 . S
C1199 C1198 1.362 . S
H1200 C1206 0.930 . S
H1201 C1209 0.930 . S
H1202 C1210 0.930 . S
H1203 C1211 0.930 . S
H1204 C1214 0.930 . S
H1205 C1215 0.930 . S
C1206 H1200 0.930 . S
C1206 C1207 1.355 . S
C1206 C1208 1.415 . S
C1207 C1206 1.355 . S
C1207 C1209 1.419 1_565 S
C1208 C1206 1.415 . S
C1208 C1213 1.425 1_564 S
C1208 C1215 1.409 1_554 S
C1209 H1201 0.930 . S
C1209 C1207 1.419 1_545 S
C1209 C1210 1.362 . S
C1210 H1202 0.930 . S
C1210 C1209 1.362 . S
C1210 C1213 1.409 1_554 S
C1211 H1203 0.930 . S
C1211 C1212 1.355 . S
C1211 C1213 1.415 . S
C1212 C1211 1.355 . S
C1212 C1214 1.419 1_545 S
C1213 C1208 1.425 1_546 S
C1213 C1210 1.409 1_556 S
C1213 C1211 1.415 . S
C1214 H1204 0.930 . S
C1214 C1212 1.419 1_565 S
C1214 C1215 1.362 . S
C1215 H1205 0.930 . S
C1215 C1208 1.409 1_556 S
C1215 C1214 1.362 . S
H1216 C1222 0.930 . S
H1217 C1225 0.930 . S
H1218 C1226 0.930 . S
H1219 C1227 0.930 . S
H1220 C1230 0.930 . S
H1221 C1231 0.930 . S
C1222 H1216 0.930 . S
C1222 C1223 1.355 . S
C1222 C1224 1.415 . S
C1223 C1222 1.355 . S
C1223 C1225 1.419 . S
C1224 C1222 1.415 . S
C1224 C1229 1.425 . S
C1224 C1231 1.409 . S
C1225 H1217 0.930 . S
C1225 C1223 1.419 . S
C1225 C1226 1.362 . S
C1226 H1218 0.930 . S
C1226 C1225 1.362 . S
C1226 C1229 1.409 . S
C1227 H1219 0.930 . S
C1227 C1228 1.355 . S
C1227 C1229 1.415 . S
C1228 C1227 1.355 . S
C1228 C1230 1.419 . S
C1229 C1224 1.425 . S
C1229 C1226 1.409 . S
C1229 C1227 1.415 . S
C1230 H1220 0.930 . S
C1230 C1228 1.419 . S
C1230 C1231 1.362 . S
C1231 H1221 0.930 . S
C1231 C1224 1.409 . S
C1231 C1230 1.362 . S
H1232 C1238 0.930 . S
H1233 C1241 0.939 . S
H1234 C1242 0.930 . S
H1235 C1243 0.930 . S
H1236 C1246 0.939 . S
H1237 C1247 0.930 . S
C1238 H1232 0.930 . S
C1238 C1239 1.355 . S
C1238 C1240 1.415 . S
C1239 C1238 1.355 . S
C1239 C1241 1.421 1_455 S
C1240 C1238 1.415 . S
C1240 C1245 1.425 1_455 S
C1240 C1247 1.409 . S
C1241 H1233 0.939 . S
C1241 C1239 1.421 1_655 S
C1241 C1242 1.362 . S
C1242 H1234 0.930 . S
C1242 C1241 1.362 . S
C1242 C1245 1.409 . S
C1243 H1235 0.930 . S
C1243 C1244 1.355 . S
C1243 C1245 1.415 . S
C1244 C1243 1.355 . S
C1244 C1246 1.421 1_655 S
C1245 C1240 1.425 1_655 S
C1245 C1242 1.409 . S
C1245 C1243 1.415 . S
C1246 H1236 0.939 . S
C1246 C1244 1.421 1_455 S
C1246 C1247 1.362 . S
C1247 H1237 0.930 . S
C1247 C1240 1.409 . S
C1247 C1246 1.362 . S
H1248 C1254 0.930 1_545 S
H1249 C1257 0.930 . S
H1250 C1258 0.930 . S
H1251 C1259 0.930 1_565 S
H1252 C1262 0.930 . S
H1253 C1263 0.930 . S
C1254 H1248 0.930 1_565 S
C1254 C1255 1.355 . S
C1254 C1256 1.415 1_565 S
C1255 C1254 1.355 . S
C1255 C1257 1.419 . S
C1256 C1254 1.415 1_545 S
C1256 C1261 1.425 1_545 S
C1256 C1263 1.409 . S
C1257 H1249 0.930 . S
C1257 C1255 1.419 . S
C1257 C1258 1.362 . S
C1258 H1250 0.930 . S
C1258 C1257 1.362 . S
C1258 C1261 1.409 . S
C1259 H1251 0.930 1_545 S
C1259 C1260 1.355 . S
C1259 C1261 1.415 1_545 S
C1260 C1259 1.355 . S
C1260 C1262 1.419 . S
C1261 C1256 1.425 1_565 S
C1261 C1258 1.409 . S
C1261 C1259 1.415 1_565 S
C1262 H1252 0.930 . S
C1262 C1260 1.419 . S
C1262 C1263 1.362 . S
C1263 H1253 0.930 . S
C1263 C1256 1.409 . S
C1263 C1262 1.362 . S
H1264 C1270 0.930 . S
H1265 C1273 0.930 . S
H1266 C1274 0.930 . S
H1267 C1275 0.930 . S
H1268 C1278 0.930 . S
H1269 C1279 0.930 . S
C1270 H1264 0.930 . S
C1270 C1271 1.355 . S
C1270 C1272 1.415 . S
C1271 C1270 1.355 . S
C1271 C1273 1.419 . S
C1272 C1270 1.415 . S
C1272 C1277 1.425 . S
C1272 C1279 1.409 . S
C1273 H1265 0.930 . S
C1273 C1271 1.419 . S
C1273 C1274 1.362 . S
C1274 H1266 0.930 . S
C1274 C1273 1.362 . S
C1274 C1277 1.409 . S
C1275 H1267 0.930 . S
C1275 C1276 1.355 . S
C1275 C1277 1.415 . S
C1276 C1275 1.355 . S
C1276 C1278 1.419 . S
C1277 C1272 1.425 . S
C1277 C1274 1.409 . S
C1277 C1275 1.415 . S
C1278 H1268 0.930 . S
C1278 C1276 1.419 . S
C1278 C1279 1.362 . S
C1279 H1269 0.930 . S
C1279 C1272 1.409 . S
C1279 C1278 1.362 . S
H1280 C1286 0.930 . S
H1281 C1289 0.930 . S
H1282 C1290 0.930 . S
H1283 C1291 0.930 . S
H1284 C1294 0.930 . S
H1285 C1295 0.930 . S
C1286 H1280 0.930 . S
C1286 C1287 1.355 . S
C1286 C1288 1.415 . S
C1287 C1286 1.355 . S
C1287 C1289 1.419 1_455 S
C1288 C1286 1.415 . S
C1288 C1293 1.425 1_455 S
C1288 C1295 1.409 . S
C1289 H1281 0.930 . S
C1289 C1287 1.419 1_655 S
C1289 C1290 1.362 . S
C1290 H1282 0.930 . S
C1290 C1289 1.362 . S
C1290 C1293 1.409 . S
C1291 H1283 0.930 . S
C1291 C1292 1.355 . S
C1291 C1293 1.415 . S
C1292 C1291 1.355 . S
C1292 C1294 1.419 1_655 S
C1293 C1288 1.425 1_655 S
C1293 C1290 1.409 . S
C1293 C1291 1.415 . S
C1294 H1284 0.930 . S
C1294 C1292 1.419 1_455 S
C1294 C1295 1.362 . S
C1295 H1285 0.930 . S
C1295 C1288 1.409 . S
C1295 C1294 1.362 . S
H1296 C1302 0.930 . S
H1297 C1305 0.930 . S
H1298 C1306 0.930 . S
H1299 C1307 0.930 . S
H1300 C1310 0.930 . S
H1301 C1311 0.930 . S
C1302 H1296 0.930 . S
C1302 C1303 1.355 . S
C1302 C1304 1.415 . S
C1303 C1302 1.355 . S
C1303 C1305 1.419 1_655 S
C1304 C1302 1.415 . S
C1304 C1309 1.425 1_655 S
C1304 C1311 1.409 . S
C1305 H1297 0.930 . S
C1305 C1303 1.419 1_455 S
C1305 C1306 1.362 . S
C1306 H1298 0.930 . S
C1306 C1305 1.362 . S
C1306 C1309 1.409 . S
C1307 H1299 0.930 . S
C1307 C1308 1.355 . S
C1307 C1309 1.415 . S
C1308 C1307 1.355 . S
C1308 C1310 1.419 1_455 S
C1309 C1304 1.425 1_455 S
C1309 C1306 1.409 . S
C1309 C1307 1.415 . S
C1310 H1300 0.930 . S
C1310 C1308 1.419 1_655 S
C1310 C1311 1.362 . S
C1311 H1301 0.930 . S
C1311 C1304 1.409 . S
C1311 C1310 1.362 . S
H1312 C1318 0.930 . S
H1313 C1321 0.930 . S
H1314 C1322 0.930 . S
H1315 C1323 0.930 . S
H1316 C1326 0.930 . S
H1317 C1327 0.930 . S
C1318 H1312 0.930 . S
C1318 C1319 1.355 . S
C1318 C1320 1.415 . S
C1319 C1318 1.355 . S
C1319 C1321 1.419 1_565 S
C1320 C1318 1.415 . S
C1320 C1325 1.425 1_565 S
C1320 C1327 1.409 . S
C1321 H1313 0.930 . S
C1321 C1319 1.419 1_545 S
C1321 C1322 1.362 . S
C1322 H1314 0.930 . S
C1322 C1321 1.362 . S
C1322 C1325 1.409 . S
C1323 H1315 0.930 . S
C1323 C1324 1.355 . S
C1323 C1325 1.415 . S
C1324 C1323 1.355 . S
C1324 C1326 1.419 1_545 S
C1325 C1320 1.425 1_545 S
C1325 C1322 1.409 . S
C1325 C1323 1.415 . S
C1326 H1316 0.930 . S
C1326 C1324 1.419 1_565 S
C1326 C1327 1.362 . S
C1327 H1317 0.930 . S
C1327 C1320 1.409 . S
C1327 C1326 1.362 . S
H1328 C1334 0.930 . S
H1329 C1337 0.932 . S
H1330 C1338 0.930 1_556 S
H1331 C1339 0.930 . S
H1332 C1342 0.930 . S
H1333 C1343 0.930 . S
C1334 H1328 0.930 . S
C1334 C1335 1.355 . S
C1334 C1336 1.415 . S
C1335 C1334 1.355 . S
C1335 C1337 1.419 . S
C1336 C1334 1.415 . S
C1336 C1341 1.425 . S
C1336 C1343 1.409 . S
C1337 H1329 0.932 . S
C1337 C1335 1.419 . S
C1337 C1338 1.362 . S
C1338 H1330 0.930 1_554 S
C1338 C1337 1.362 . S
C1338 C1341 1.409 . S
C1339 H1331 0.930 . S
C1339 C1340 1.355 . S
C1339 C1341 1.415 . S
C1340 C1339 1.355 . S
C1340 C1342 1.419 . S
C1341 C1336 1.425 . S
C1341 C1338 1.409 . S
C1341 C1339 1.415 . S
C1342 H1332 0.930 . S
C1342 C1340 1.419 . S
C1342 C1343 1.362 . S
C1343 H1333 0.930 . S
C1343 C1336 1.409 . S
C1343 C1342 1.362 . S
H1344 C1350 0.930 . S
H1345 C1353 0.930 . S
H1346 C1354 0.930 . S
H1347 C1355 0.930 . S
H1348 C1358 0.930 . S
H1349 C1359 0.930 . S
C1350 H1344 0.930 . S
C1350 C1351 1.355 . S
C1350 C1352 1.415 . S
C1351 C1350 1.355 . S
C1351 C1353 1.419 . S
C1352 C1350 1.415 . S
C1352 C1357 1.425 . S
C1352 C1359 1.409 . S
C1353 H1345 0.930 . S
C1353 C1351 1.419 . S
C1353 C1354 1.362 . S
C1354 H1346 0.930 . S
C1354 C1353 1.362 . S
C1354 C1357 1.409 . S
C1355 H1347 0.930 . S
C1355 C1356 1.355 . S
C1355 C1357 1.415 . S
C1356 C1355 1.355 . S
C1356 C1358 1.419 . S
C1357 C1352 1.425 . S
C1357 C1354 1.409 . S
C1357 C1355 1.415 . S
C1358 H1348 0.930 . S
C1358 C1356 1.419 . S
C1358 C1359 1.362 . S
C1359 H1349 0.930 . S
C1359 C1352 1.409 . S
C1359 C1358 1.362 . S
H1360 C1366 0.930 . S
H1361 C1369 0.930 . S
H1362 C1370 0.930 . S
H1363 C1371 0.930 . S
H1364 C1374 0.930 . S
H1365 C1375 0.930 . S
C1366 H1360 0.930 . S
C1366 C1367 1.355 . S
C1366 C1368 1.415 . S
C1367 C1366 1.355 . S
C1367 C1369 1.419 . S
C1368 C1366 1.415 . S
C1368 C1373 1.425 . S
C1368 C1375 1.409 . S
C1369 H1361 0.930 . S
C1369 C1367 1.419 . S
C1369 C1370 1.362 . S
C1370 H1362 0.930 . S
C1370 C1369 1.362 . S
C1370 C1373 1.409 . S
C1371 H1363 0.930 . S
C1371 C1372 1.355 . S
C1371 C1373 1.415 . S
C1372 C1371 1.355 . S
C1372 C1374 1.419 . S
C1373 C1368 1.425 . S
C1373 C1370 1.409 . S
C1373 C1371 1.415 . S
C1374 H1364 0.930 . S
C1374 C1372 1.419 . S
C1374 C1375 1.362 . S
C1375 H1365 0.930 . S
C1375 C1368 1.409 . S
C1375 C1374 1.362 . S
H1376 C1382 0.930 . S
H1377 C1385 0.930 . S
H1378 C1386 0.930 . S
H1379 C1387 0.930 . S
H1380 C1390 0.930 . S
H1381 C1391 0.930 . S
C1382 H1376 0.930 . S
C1382 C1383 1.355 . S
C1382 C1384 1.415 . S
C1383 C1382 1.355 . S
C1383 C1385 1.419 . S
C1384 C1382 1.415 . S
C1384 C1389 1.425 . S
C1384 C1391 1.409 . S
C1385 H1377 0.930 . S
C1385 C1383 1.419 . S
C1385 C1386 1.362 . S
C1386 H1378 0.930 . S
C1386 C1385 1.362 . S
C1386 C1389 1.409 . S
C1387 H1379 0.930 . S
C1387 C1388 1.355 . S
C1387 C1389 1.415 . S
C1388 C1387 1.355 . S
C1388 C1390 1.419 . S
C1389 C1384 1.425 . S
C1389 C1386 1.409 . S
C1389 C1387 1.415 . S
C1390 H1380 0.930 . S
C1390 C1388 1.419 . S
C1390 C1391 1.362 . S
C1391 H1381 0.930 . S
C1391 C1384 1.409 . S
C1391 C1390 1.362 . S
H1392 C1398 0.930 . S
H1393 C1401 0.930 . S
H1394 C1402 0.930 . S
H1395 C1403 0.930 . S
H1396 C1406 0.930 . S
H1397 C1407 0.930 . S
C1398 H1392 0.930 . S
C1398 C1399 1.355 . S
C1398 C1400 1.415 . S
C1399 C1398 1.355 . S
C1399 C1401 1.419 . S
C1400 C1398 1.415 . S
C1400 C1405 1.425 . S
C1400 C1407 1.409 . S
C1401 H1393 0.930 . S
C1401 C1399 1.419 . S
C1401 C1402 1.362 . S
C1402 H1394 0.930 . S
C1402 C1401 1.362 . S
C1402 C1405 1.409 . S
C1403 H1395 0.930 . S
C1403 C1404 1.355 . S
C1403 C1405 1.415 . S
C1404 C1403 1.355 . S
C1404 C1406 1.419 . S
C1405 C1400 1.425 . S
C1405 C1402 1.409 . S
C1405 C1403 1.415 . S
C1406 H1396 0.930 . S
C1406 C1404 1.419 . S
C1406 C1407 1.362 . S
C1407 H1397 0.930 . S
C1407 C1400 1.409 . S
C1407 C1406 1.362 . S
H1408 C1414 0.930 . S
H1409 C1417 0.930 . S
H1410 C1418 0.930 . S
H1411 C1419 0.930 . S
H1412 C1422 0.930 . S
H1413 C1423 0.930 . S
C1414 H1408 0.930 . S
C1414 C1415 1.355 . S
C1414 C1416 1.415 . S
C1415 C1414 1.355 . S
C1415 C1417 1.419 . S
C1416 C1414 1.415 . S
C1416 C1421 1.425 . S
C1416 C1423 1.409 . S
C1417 H1409 0.930 . S
C1417 C1415 1.419 . S
C1417 C1418 1.362 . S
C1418 H1410 0.930 . S
C1418 C1417 1.362 . S
C1418 C1421 1.409 . S
C1419 H1411 0.930 . S
C1419 C1420 1.355 . S
C1419 C1421 1.415 . S
C1420 C1419 1.355 . S
C1420 C1422 1.419 . S
C1421 C1416 1.425 . S
C1421 C1418 1.409 . S
C1421 C1419 1.415 . S
C1422 H1412 0.930 . S
C1422 C1420 1.419 . S
C1422 C1423 1.362 . S
C1423 H1413 0.930 . S
C1423 C1416 1.409 . S
C1423 C1422 1.362 . S
H1424 C1430 0.930 . S
H1425 C1433 0.930 . S
H1426 C1434 0.930 . S
H1427 C1435 0.930 . S
H1428 C1438 0.930 . S
H1429 C1439 0.930 . S
C1430 H1424 0.930 . S
C1430 C1431 1.355 . S
C1430 C1432 1.415 . S
C1431 C1430 1.355 . S
C1431 C1433 1.419 . S
C1432 C1430 1.415 . S
C1432 C1437 1.425 . S
C1432 C1439 1.409 . S
C1433 H1425 0.930 . S
C1433 C1431 1.419 . S
C1433 C1434 1.362 . S
C1434 H1426 0.930 . S
C1434 C1433 1.362 . S
C1434 C1437 1.409 . S
C1435 H1427 0.930 . S
C1435 C1436 1.355 . S
C1435 C1437 1.415 . S
C1436 C1435 1.355 . S
C1436 C1438 1.419 . S
C1437 C1432 1.425 . S
C1437 C1434 1.409 . S
C1437 C1435 1.415 . S
C1438 H1428 0.930 . S
C1438 C1436 1.419 . S
C1438 C1439 1.362 . S
C1439 H1429 0.930 . S
C1439 C1432 1.409 . S
C1439 C1438 1.362 . S
C1063 C49 0.431 . S
C1068 C937 0.579 . S
C1079 C1017 0.489 . S
C1084 C117 0.630 . S
C1095 C585 0.423 . S
C1100 C196 0.554 . S
C1111 C284 0.545 . S
C1116 C645 0.642 . S
C1127 C401 0.535 . S
C1132 C724 0.423 . S
C1143 C821 0.544 . S
C1148 C489 0.641 . S
C1159 C20 0.977 . S
C1164 C673 0.983 . S
C1175 C753 1.003 . S
C1180 C145 0.901 . S
C1191 C849 0.926 . S
C1196 C225 0.817 . S
C1207 C313 0.992 . S
C1212 C909 0.869 . S
C1223 C988 0.840 . S
C1228 C372 0.971 . S
C1239 C460 0.885 . S
C1244 C557 0.999 . S
C1255 C293 1.294 . S
C1260 C57 1.193 . S
C1271 C409 1.269 . S
C1276 C108 1.204 . S
C1287 C497 1.274 . S
C1292 C205 1.276 . S
C1303 C577 1.247 . S
C1308 C812 1.297 . S
C1319 C636 1.275 . S
C1324 C929 1.275 . S
C1335 C733 1.288 . S
C1340 C1025 1.196 . S
C1351 C761 1.901 . S
C1356 C29 1.895 . S
C1367 C841 1.939 . S
C1372 C137 1.950 . S
C1383 C900 1.923 . S
C1388 C233 1.913 . S
C1399 C997 1.960 . S
C1404 C321 1.949 . S
C1415 C548 1.894 . S
C1420 C381 1.891 . S
C1431 C469 1.943 . S
C1436 C665 1.954 . S
