# Generated by pormake.
# Topology ung, (4)-cn, num edge types: 1
# Building blocks:
#     Node 0, Type 0, BuildingBlock: KUFVIS_clean_sbu_0, # of connection points: 4
#     Node 1, Type 0, BuildingBlock: KUFVIS_clean_sbu_0, # of connection points: 4
#     Node 2, Type 0, BuildingBlock: KUFVIS_clean_sbu_0, # of connection points: 4
#     Node 3, Type 0, BuildingBlock: KUFVIS_clean_sbu_0, # of connection points: 4
#     Node 4, Type 0, BuildingBlock: KUFVIS_clean_sbu_0, # of connection points: 4
#     Node 5, Type 0, BuildingBlock: KUFVIS_clean_sbu_0, # of connection points: 4
#     Node 6, Type 0, BuildingBlock: KUFVIS_clean_sbu_0, # of connection points: 4
#     Node 7, Type 0, BuildingBlock: KUFVIS_clean_sbu_0, # of connection points: 4
#     Node 8, Type 0, BuildingBlock: KUFVIS_clean_sbu_0, # of connection points: 4
#     Node 9, Type 0, BuildingBlock: KUFVIS_clean_sbu_0, # of connection points: 4
#     Node 10, Type 0, BuildingBlock: KUFVIS_clean_sbu_0, # of connection points: 4
#     Node 11, Type 0, BuildingBlock: KUFVIS_clean_sbu_0, # of connection points: 4
#     Node 12, Type 0, BuildingBlock: KUFVIS_clean_sbu_0, # of connection points: 4
#     Node 13, Type 0, BuildingBlock: KUFVIS_clean_sbu_0, # of connection points: 4
#     Node 14, Type 0, BuildingBlock: KUFVIS_clean_sbu_0, # of connection points: 4
#     Node 15, Type 0, BuildingBlock: KUFVIS_clean_sbu_0, # of connection points: 4
#     Node 16, Type 0, BuildingBlock: KUFVIS_clean_sbu_0, # of connection points: 4
#     Node 17, Type 0, BuildingBlock: KUFVIS_clean_sbu_0, # of connection points: 4
#     Edge 18, Type (0, 0), BuildingBlock: MIFKUJ_clean_linker_0, # of connection points: 2
#     Edge 19, Type (0, 0), BuildingBlock: MIFKUJ_clean_linker_0, # of connection points: 2
#     Edge 20, Type (0, 0), BuildingBlock: MIFKUJ_clean_linker_0, # of connection points: 2
#     Edge 21, Type (0, 0), BuildingBlock: MIFKUJ_clean_linker_0, # of connection points: 2
#     Edge 22, Type (0, 0), BuildingBlock: MIFKUJ_clean_linker_0, # of connection points: 2
#     Edge 23, Type (0, 0), BuildingBlock: MIFKUJ_clean_linker_0, # of connection points: 2
#     Edge 24, Type (0, 0), BuildingBlock: MIFKUJ_clean_linker_0, # of connection points: 2
#     Edge 25, Type (0, 0), BuildingBlock: MIFKUJ_clean_linker_0, # of connection points: 2
#     Edge 26, Type (0, 0), BuildingBlock: MIFKUJ_clean_linker_0, # of connection points: 2
#     Edge 27, Type (0, 0), BuildingBlock: MIFKUJ_clean_linker_0, # of connection points: 2
#     Edge 28, Type (0, 0), BuildingBlock: MIFKUJ_clean_linker_0, # of connection points: 2
#     Edge 29, Type (0, 0), BuildingBlock: MIFKUJ_clean_linker_0, # of connection points: 2
#     Edge 30, Type (0, 0), BuildingBlock: MIFKUJ_clean_linker_0, # of connection points: 2
#     Edge 31, Type (0, 0), BuildingBlock: MIFKUJ_clean_linker_0, # of connection points: 2
#     Edge 32, Type (0, 0), BuildingBlock: MIFKUJ_clean_linker_0, # of connection points: 2
#     Edge 33, Type (0, 0), BuildingBlock: MIFKUJ_clean_linker_0, # of connection points: 2
#     Edge 34, Type (0, 0), BuildingBlock: MIFKUJ_clean_linker_0, # of connection points: 2
#     Edge 35, Type (0, 0), BuildingBlock: MIFKUJ_clean_linker_0, # of connection points: 2
#     Edge 36, Type (0, 0), BuildingBlock: MIFKUJ_clean_linker_0, # of connection points: 2
#     Edge 37, Type (0, 0), BuildingBlock: MIFKUJ_clean_linker_0, # of connection points: 2
#     Edge 38, Type (0, 0), BuildingBlock: MIFKUJ_clean_linker_0, # of connection points: 2
#     Edge 39, Type (0, 0), BuildingBlock: MIFKUJ_clean_linker_0, # of connection points: 2
#     Edge 40, Type (0, 0), BuildingBlock: MIFKUJ_clean_linker_0, # of connection points: 2
#     Edge 41, Type (0, 0), BuildingBlock: MIFKUJ_clean_linker_0, # of connection points: 2
#     Edge 42, Type (0, 0), BuildingBlock: MIFKUJ_clean_linker_0, # of connection points: 2
#     Edge 43, Type (0, 0), BuildingBlock: MIFKUJ_clean_linker_0, # of connection points: 2
#     Edge 44, Type (0, 0), BuildingBlock: MIFKUJ_clean_linker_0, # of connection points: 2
#     Edge 45, Type (0, 0), BuildingBlock: MIFKUJ_clean_linker_0, # of connection points: 2
#     Edge 46, Type (0, 0), BuildingBlock: MIFKUJ_clean_linker_0, # of connection points: 2
#     Edge 47, Type (0, 0), BuildingBlock: MIFKUJ_clean_linker_0, # of connection points: 2
#     Edge 48, Type (0, 0), BuildingBlock: MIFKUJ_clean_linker_0, # of connection points: 2
#     Edge 49, Type (0, 0), BuildingBlock: MIFKUJ_clean_linker_0, # of connection points: 2
#     Edge 50, Type (0, 0), BuildingBlock: MIFKUJ_clean_linker_0, # of connection points: 2
#     Edge 51, Type (0, 0), BuildingBlock: MIFKUJ_clean_linker_0, # of connection points: 2
#     Edge 52, Type (0, 0), BuildingBlock: MIFKUJ_clean_linker_0, # of connection points: 2
#     Edge 53, Type (0, 0), BuildingBlock: MIFKUJ_clean_linker_0, # of connection points: 2
# Relax obj value: 0.111
# Max RMSD: 0.231
# Mean RMSD: 0.222
data_MOF--net-ung--node1-KUFVIS_clean_sbu_0--edge1-MIFKUJ_clean_linker_0
_symmetry_space_group_name_H-M    P1
_symmetry_Int_Tables_number       1
_symmetry_cell_setting            triclinic
loop_
_symmetry_equiv_pos_as_xyz
'x, y, z'
_cell_length_a     93.02137
_cell_length_b     94.895567
_cell_length_c     28.688444
_cell_angle_alpha  89.990517
_cell_angle_beta   89.391755
_cell_angle_gamma 120.70677
loop_
_atom_site_label
_atom_site_type_symbol
_atom_site_fract_x
_atom_site_fract_y
_atom_site_fract_z
_atom_type_partial_charge
Mn0 Mn 0.06145 0.62418 0.23782 0.0
Mn1 Mn 0.02068 0.59491 0.2302 0.0
C2 C 0.04345 0.62938 0.1974 0.0
C3 C 0.08273 0.64595 0.27827 0.0
C4 C 0.04799 0.59506 0.17129 0.0
O5 O 0.05868 0.60816 0.28839 0.0
O6 O 0.03125 0.58952 0.28198 0.0
C7 C 0.00902 0.60131 0.31975 0.0
N8 N 0.00793 0.59992 0.2725 0.0
C9 C 0.98557 0.60568 0.27159 0.0
C10 C 0.98636 0.60705 0.32028 0.0
C11 C -0.00183 0.60489 0.34444 0.0
C12 C 0.99664 0.602 0.2489 0.0
H13 H 0.01813 0.59973 0.33842 0.0
C14 C 0.04553 0.595 0.30109 0.0
O15 O 0.08604 0.63752 0.24892 0.0
O16 O 0.06715 0.6415 0.28442 0.0
N17 N 0.00876 0.59843 0.18199 0.0
C18 C 0.01019 0.59754 0.1349 0.0
C19 C -0.0004 0.5999 0.10555 0.0
C20 C 0.98756 0.603 0.12489 0.0
C21 C 0.98616 0.60363 0.17345 0.0
C22 C 0.99698 0.60107 0.20097 0.0
H23 H 0.01948 0.59525 0.11983 0.0
O24 O 0.05944 0.63806 0.18953 0.0
O25 O 0.03845 0.61803 0.22932 0.0
O26 O 0.06025 0.60814 0.18782 0.0
O27 O 0.03284 0.58913 0.18487 0.0
C28 C 0.97469 0.60703 0.19561 0.0
C29 C 0.97442 0.6081 0.24463 0.0
H30 H 0.97807 0.6099 0.33944 0.0
H31 H -0.00108 0.60602 0.382 0.0
H32 H 0.00078 0.59942 0.0681 0.0
H33 H 0.97954 0.605 0.10213 0.0
H34 H 0.96616 0.60907 0.17525 0.0
H35 H 0.9657 0.61095 0.26122 0.0
Mn36 Mn 0.5032 0.47595 0.26976 0.0
Mn37 Mn 0.49436 0.50605 0.28307 0.0
C38 C 0.48248 0.47257 0.32095 0.0
C39 C 0.49827 0.45254 0.23083 0.0
C40 C 0.52485 0.50724 0.32438 0.0
O41 O 0.51399 0.49026 0.21263 0.0
O42 O 0.50621 0.50905 0.22252 0.0
C43 C 0.46987 0.49716 0.20743 0.0
N44 N 0.47373 0.50003 0.25342 0.0
C45 C 0.44609 0.49454 0.27289 0.0
C46 C 0.44186 0.49164 0.22568 0.0
C47 C 0.4538 0.49294 0.19283 0.0
C48 C 0.46236 0.49889 0.28531 0.0
H49 H 0.47897 0.49803 0.18213 0.0
C50 C 0.51347 0.50282 0.19938 0.0
O51 O 0.51228 0.46149 0.25247 0.0
O52 O 0.48763 0.45748 0.23073 0.0
N53 N 0.48276 0.50433 0.34026 0.0
C54 C 0.48843 0.50625 0.38475 0.0
C55 C 0.47776 0.5046 0.42204 0.0
C56 C 0.46142 0.50104 0.41321 0.0
C57 C 0.4559 0.49923 0.36712 0.0
C58 C 0.46715 0.50117 0.33133 0.0
H59 H 0.50094 0.50887 0.39173 0.0
O60 O 0.48954 0.46389 0.32583 0.0
O61 O 0.48792 0.48301 0.28662 0.0
O62 O 0.52176 0.49314 0.31096 0.0
O63 O 0.51554 0.51314 0.31532 0.0
C64 C 0.43956 0.49515 0.35535 0.0
C65 C 0.43466 0.49283 0.30827 0.0
H66 H 0.42943 0.48822 0.21433 0.0
H67 H 0.45059 0.49061 0.15637 0.0
H68 H 0.48209 0.50597 0.45753 0.0
H69 H 0.45316 0.49957 0.4421 0.0
H70 H 0.43057 0.49349 0.3823 0.0
H71 H 0.42198 0.48943 0.29972 0.0
Mn72 Mn 0.64205 0.06281 0.25518 0.0
Mn73 Mn 0.65123 0.10164 0.23453 0.0
C74 C 0.66573 0.08003 0.21305 0.0
C75 C 0.64259 0.04375 0.30476 0.0
C76 C 0.62513 0.07221 0.18106 0.0
O77 O 0.62691 0.06574 0.29957 0.0
O78 O 0.63535 0.09234 0.28861 0.0
C79 C 0.66975 0.11723 0.32069 0.0
N80 N 0.66905 0.11668 0.27331 0.0
C81 C 0.6963 0.1409 0.26627 0.0
C82 C 0.69727 0.14181 0.31504 0.0
C83 C 0.68396 0.1299 0.34235 0.0
C84 C 0.68177 0.12807 0.24668 0.0
H85 H 0.65953 0.10808 0.34174 0.0
C86 C 0.62632 0.07851 0.30927 0.0
O87 O 0.63119 0.0393 0.27319 0.0
O88 O 0.65355 0.05927 0.30773 0.0
N89 N 0.66638 0.11247 0.18354 0.0
C90 C 0.6641 0.10896 0.1372 0.0
C91 C 0.67662 0.11924 0.10512 0.0
C92 C 0.69124 0.13312 0.12092 0.0
C93 C 0.69323 0.13658 0.16872 0.0
C94 C 0.68029 0.12593 0.19906 0.0
H95 H 0.65287 0.09834 0.12487 0.0
O96 O 0.65925 0.06426 0.21152 0.0
O97 O 0.65849 0.08547 0.24106 0.0
O98 O 0.62742 0.06144 0.20052 0.0
O99 O 0.63304 0.08733 0.19227 0.0
C100 C 0.70778 0.14983 0.18763 0.0
C101 C 0.70933 0.15197 0.23637 0.0
H102 H 0.70826 0.15149 0.33187 0.0
H103 H 0.68465 0.13047 0.37999 0.0
H104 H 0.67502 0.11646 0.06829 0.0
H105 H 0.70095 0.14091 0.0961 0.0
H106 H 0.71801 0.15824 0.16505 0.0
H107 H 0.72071 0.16202 0.25051 0.0
Mn108 Mn 0.05165 0.47478 0.73712 0.0
Mn109 Mn 0.01402 0.47186 0.73671 0.0
C110 C 0.03056 0.45481 0.69292 0.0
C111 C 0.06977 0.46891 0.77604 0.0
C112 C 0.04397 0.49718 0.6805 0.0
O113 O 0.053 0.48943 0.79034 0.0
O114 O 0.0266 0.48425 0.79243 0.0
C115 C -0.00058 0.45052 0.81982 0.0
N116 N -0.00127 0.45336 0.77359 0.0
C117 C 0.97238 0.42824 0.76615 0.0
C118 C 0.97275 0.42507 0.81373 0.0
C119 C 0.98639 0.43622 0.84062 0.0
C120 C 0.98586 0.44256 0.74721 0.0
H121 H 0.00984 0.45913 0.84064 0.0
C122 C 0.04141 0.49105 0.80864 0.0
O123 O 0.07544 0.48124 0.7472 0.0
O124 O 0.05369 0.45997 0.78139 0.0
N125 N 0.0002 0.4602 0.68512 0.0
C126 C 0.00171 0.46512 0.63979 0.0
C127 C 0.98918 0.45522 0.60809 0.0
C128 C 0.97502 0.44064 0.6236 0.0
C129 C 0.97355 0.43608 0.67068 0.0
C130 C 0.98655 0.44627 0.70047 0.0
H131 H 0.01241 0.47647 0.62787 0.0
O132 O 0.04597 0.45872 0.68598 0.0
O133 O 0.02782 0.46197 0.72773 0.0
O134 O 0.05393 0.49207 0.69008 0.0
O135 O 0.02914 0.49093 0.69729 0.0
C136 C 0.95956 0.42196 0.68942 0.0
C137 C 0.95908 0.41788 0.73689 0.0
H138 H 0.96263 0.41413 0.82997 0.0
H139 H 0.98679 0.43385 0.87734 0.0
H140 H 0.99036 0.45888 0.57187 0.0
H141 H 0.96531 0.43309 0.59914 0.0
H142 H 0.94897 0.41432 0.66784 0.0
H143 H 0.94831 0.40687 0.75066 0.0
Mn144 Mn 0.63367 0.6297 0.76451 0.0
Mn145 Mn 0.59706 0.62869 0.75559 0.0
C146 C 0.62884 0.64683 0.81007 0.0
C147 C 0.66026 0.6387 0.73495 0.0
C148 C 0.60103 0.60367 0.81041 0.0
O149 O 0.62381 0.61683 0.70565 0.0
O150 O 0.60034 0.61792 0.7003 0.0
C151 C 0.60616 0.65106 0.67455 0.0
N152 N 0.60075 0.64719 0.71958 0.0
C153 C 0.5978 0.67084 0.72658 0.0
C154 C 0.60325 0.67505 0.68018 0.0
C155 C 0.60752 0.66515 0.65413 0.0
C156 C 0.59684 0.65674 0.74516 0.0
H157 H 0.6094 0.64345 0.65438 0.0
C158 C 0.61045 0.61355 0.68496 0.0
O159 O 0.65232 0.62523 0.75917 0.0
O160 O 0.6529 0.64705 0.72885 0.0
N161 N 0.59198 0.6386 0.80618 0.0
C162 C 0.58723 0.63298 0.8507 0.0
C163 C 0.58284 0.64167 0.88164 0.0
C164 C 0.58299 0.6558 0.8662 0.0
C165 C 0.58763 0.66116 0.81998 0.0
C166 C 0.59205 0.6521 0.79089 0.0
H167 H 0.58688 0.622 0.86254 0.0
O168 O 0.64051 0.64376 0.82059 0.0
O169 O 0.62085 0.6404 0.77155 0.0
O170 O 0.61673 0.61008 0.8036 0.0
O171 O 0.5924 0.60947 0.79378 0.0
C172 C 0.58795 0.67507 0.80151 0.0
C173 C 0.59322 0.68003 0.75506 0.0
H174 H 0.60423 0.68586 0.66425 0.0
H175 H 0.61179 0.66834 0.61835 0.0
H176 H 0.57925 0.63745 0.91724 0.0
H177 H 0.5795 0.6624 0.8901 0.0
H178 H 0.58402 0.68194 0.82253 0.0
H179 H 0.5936 0.69087 0.74152 0.0
Mn180 Mn 0.49867 0.06388 0.75646 0.0
Mn181 Mn 0.4862 0.02377 0.74699 0.0
C182 C 0.47618 0.04486 0.7993 0.0
C183 C 0.49813 0.08648 0.72812 0.0
C184 C 0.51563 0.0476 0.80517 0.0
O185 O 0.51067 0.06316 0.69854 0.0
O186 O 0.50098 0.03614 0.69282 0.0
C187 C 0.4651 0.01661 0.66371 0.0
N188 N 0.46673 0.01349 0.70908 0.0
C189 C 0.43765 0.99255 0.71461 0.0
C190 C 0.43568 0.99546 0.66784 0.0
C191 C 0.44947 0.00756 0.64231 0.0
C192 C 0.45355 0.0019 0.73398 0.0
H193 H 0.47563 0.02597 0.64406 0.0
C194 C 0.50989 0.05093 0.67793 0.0
O195 O 0.51069 0.08831 0.75237 0.0
O196 O 0.48612 0.07165 0.72028 0.0
N197 N 0.47179 0.01021 0.79647 0.0
C198 C 0.47569 0.00919 0.84154 0.0
C199 C 0.4632 0.99785 0.872 0.0
C200 C 0.4469 0.98758 0.85574 0.0
C201 C 0.44327 0.98862 0.80899 0.0
C202 C 0.45626 5e-05 0.78014 0.0
H203 H 0.48818 0.01708 0.85428 0.0
O204 O 0.48401 0.06016 0.81135 0.0
O205 O 0.48145 0.04121 0.76155 0.0
O206 O 0.51446 0.06019 0.79673 0.0
O207 O 0.50594 0.03347 0.78772 0.0
C208 C 0.42721 0.97894 0.79008 0.0
C209 C 0.4244 0.98093 0.74295 0.0
H210 H 0.42363 0.98857 0.65127 0.0
H211 H 0.44803 0.00993 0.60628 0.0
H212 H 0.46611 0.99709 0.908 0.0
H213 H 0.43726 0.97898 0.87947 0.0
H214 H 0.4169 0.97005 0.8116 0.0
H215 H 0.41196 0.97355 0.72895 0.0
Mn216 Mn 0.71989 0.95277 0.57189 0.0
Mn217 Mn 0.68184 0.91843 0.57371 0.0
C218 C 0.69816 0.9524 0.53294 0.0
C219 C 0.73969 0.97688 0.60733 0.0
C220 C 0.71064 0.92275 0.5126 0.0
O221 O 0.72156 0.93921 0.62379 0.0
O222 O 0.6951 0.91792 0.62706 0.0
C223 C 0.66838 0.92452 0.66042 0.0
N224 N 0.6671 0.9214 0.61385 0.0
C225 C 0.64109 0.92106 0.61046 0.0
C226 C 0.64207 0.92417 0.65846 0.0
C227 C 0.6558 0.92595 0.68351 0.0
C228 C 0.654 0.91976 0.58938 0.0
H229 H 0.67893 0.92591 0.67973 0.0
C230 C 0.71013 0.92585 0.64203 0.0
O231 O 0.74405 0.96937 0.5776 0.0
O232 O 0.72384 0.97035 0.61641 0.0
N233 N 0.66762 0.91717 0.52433 0.0
C234 C 0.66892 0.91486 0.47793 0.0
C235 C 0.6562 0.91284 0.44792 0.0
C236 C 0.64227 0.91311 0.466 0.0
C237 C 0.64126 0.91565 0.51373 0.0
C238 C 0.65419 0.91734 0.54205 0.0
H239 H 0.67953 0.91448 0.46393 0.0
O240 O 0.71356 0.96335 0.52294 0.0
O241 O 0.6959 0.94231 0.56684 0.0
O242 O 0.72093 0.93756 0.52356 0.0
O243 O 0.69599 0.91435 0.53052 0.0
C244 C 0.62798 0.91663 0.53428 0.0
C245 C 0.62794 0.91942 0.58259 0.0
H246 H 0.63241 0.92532 0.67637 0.0
H247 H 0.65667 0.92842 0.72052 0.0
H248 H 0.65706 0.91092 0.41104 0.0
H249 H 0.63233 0.91117 0.44306 0.0
H250 H 0.61783 0.91544 0.51316 0.0
H251 H 0.61776 0.92036 0.59791 0.0
Mn252 Mn 0.17806 0.80858 0.60013 0.0
Mn253 Mn 0.17729 0.84313 0.62232 0.0
C254 C 0.15661 0.80695 0.64525 0.0
C255 C 0.17161 0.78726 0.54872 0.0
C256 C 0.20061 0.83407 0.66944 0.0
O257 O 0.19474 0.82513 0.55372 0.0
O258 O 0.19006 0.84598 0.56375 0.0
C259 C 0.15739 0.84349 0.54303 0.0
N260 N 0.15988 0.84386 0.5898 0.0
C261 C 0.13634 0.84717 0.6059 0.0
C262 C 0.13359 0.84695 0.55786 0.0
C263 C 0.14413 0.84505 0.52631 0.0
C264 C 0.14985 0.84573 0.62048 0.0
H265 H 0.16546 0.842 0.51872 0.0
C266 C 0.19682 0.839 0.54201 0.0
O267 O 0.18358 0.79182 0.57862 0.0
O268 O 0.16362 0.79513 0.54876 0.0
N269 N 0.16516 0.84206 0.67784 0.0
C270 C 0.16835 0.84015 0.7229 0.0
C271 C 0.15832 0.84073 0.75886 0.0
C272 C 0.14517 0.84336 0.74816 0.0
C273 C 0.14217 0.84538 0.70154 0.0
C274 C 0.15267 0.8448 0.66719 0.0
H275 H 0.17846 0.83819 0.73133 0.0
O276 O 0.1599 0.79521 0.64593 0.0
O277 O 0.16567 0.81915 0.61697 0.0
O278 O 0.19464 0.81965 0.65332 0.0
O279 O 0.1955 0.84376 0.65817 0.0
C280 C 0.12883 0.84738 0.68768 0.0
C281 C 0.1259 0.84826 0.6399 0.0
H282 H 0.12328 0.848 0.54484 0.0
H283 H 0.14202 0.84476 0.48921 0.0
H284 H 0.1607 0.83912 0.79474 0.0
H285 H 0.13734 0.84361 0.77597 0.0
H286 H 0.12049 0.84785 0.71346 0.0
H287 H 0.11537 0.8494 0.62966 0.0
Mn288 Mn 0.29985 0.38936 0.59381 0.0
Mn289 Mn 0.26338 0.35846 0.63635 0.0
C290 C 0.30004 0.37089 0.64475 0.0
C291 C 0.32127 0.40101 0.5388 0.0
C292 C 0.28013 0.39233 0.6759 0.0
O293 O 0.28328 0.38898 0.54902 0.0
O294 O 0.25941 0.37044 0.58513 0.0
C295 C 0.25408 0.33812 0.55122 0.0
N296 N 0.25694 0.33974 0.59792 0.0
C297 C 0.25025 0.31174 0.6047 0.0
C298 C 0.24711 0.30974 0.55674 0.0
C299 C 0.24907 0.32301 0.52988 0.0
C300 C 0.25511 0.32706 0.62407 0.0
H301 H 0.25562 0.34827 0.53035 0.0
C302 C 0.26747 0.38118 0.5532 0.0
O303 O 0.31794 0.41002 0.56562 0.0
O304 O 0.3118 0.38521 0.54295 0.0
N305 N 0.26466 0.34552 0.68556 0.0
C306 C 0.26917 0.34973 0.73074 0.0
C307 C 0.26843 0.33798 0.76198 0.0
C308 C 0.26286 0.32197 0.74663 0.0
C309 C 0.25808 0.31785 0.70012 0.0
C310 C 0.25899 0.33006 0.67063 0.0
H311 H 0.27358 0.36203 0.7426 0.0
O312 O 0.31299 0.3855 0.63991 0.0
O313 O 0.28708 0.36726 0.61903 0.0
O314 O 0.29152 0.39884 0.64453 0.0
O315 O 0.26937 0.37702 0.67817 0.0
C316 C 0.25291 0.30226 0.68154 0.0
C317 C 0.24902 0.29921 0.63385 0.0
H318 H 0.24333 0.29813 0.5401 0.0
H319 H 0.24676 0.32159 0.4928 0.0
H320 H 0.27222 0.34128 0.79776 0.0
H321 H 0.26248 0.31299 0.77071 0.0
H322 H 0.25215 0.29259 0.70346 0.0
H323 H 0.24529 0.28723 0.61984 0.0
Mn324 Mn 0.73631 0.81895 0.0716 0.0
Mn325 Mn 0.77594 0.85112 0.07138 0.0
C326 C 0.7559 0.818 0.11732 0.0
C327 C 0.71589 0.79494 0.03702 0.0
C328 C 0.74752 0.85055 0.12574 0.0
O329 O 0.73708 0.83235 0.01588 0.0
O330 O 0.76419 0.8522 0.01498 0.0
C331 C 0.78832 0.84115 0.98979 0.0
N332 N 0.78952 0.84522 0.03568 0.0
C333 C 0.81268 0.84096 0.04576 0.0
C334 C 0.81178 0.83683 -0.00148 0.0
C335 C 0.79953 0.8369 0.97044 0.0
C336 C 0.80117 0.84508 0.06308 0.0
H337 H 0.77884 0.84107 0.96819 0.0
C338 C 0.74948 0.84506 0.99784 0.0
O339 O 0.71191 0.80365 0.06313 0.0
O340 O 0.73169 0.80026 0.03089 0.0
N341 N 0.78905 0.85198 0.12346 0.0
C342 C 0.7886 0.85681 0.16795 0.0
C343 C 0.80022 0.85766 0.2004 0.0
C344 C 0.8123 0.85374 0.18665 0.0
C345 C 0.81285 0.84932 0.14032 0.0
C346 C 0.80109 0.8489 0.1094 0.0
H347 H 0.77938 0.85988 0.17873 0.0
O348 O 0.74009 0.80804 0.12527 0.0
O349 O 0.75982 0.82772 0.08135 0.0
O350 O 0.7363 0.83596 0.1151 0.0
O351 O 0.76258 0.8576 0.1102 0.0
C352 C 0.8246 0.84529 0.12361 0.0
C353 C 0.82446 0.84104 0.07642 0.0
H354 H 0.82037 0.83353 0.98348 0.0
H355 H 0.7987 0.83366 0.934 0.0
H356 H 0.7998 0.86124 0.23598 0.0
H357 H 0.82111 0.85423 0.21189 0.0
H358 H 0.83376 0.84537 0.14679 0.0
H359 H 0.8335 0.83788 0.06405 0.0
Mn360 Mn 0.29664 0.96392 0.08721 0.0
Mn361 Mn 0.2613 0.96453 0.11009 0.0
C362 C 0.29736 0.98229 0.14014 0.0
C363 C 0.32021 0.97165 0.04145 0.0
C364 C 0.26852 0.93974 0.15258 0.0
O365 O 0.28188 0.95125 0.03417 0.0
O366 O 0.25843 0.95152 0.0523 0.0
C367 C 0.26301 0.98453 0.02873 0.0
N368 N 0.26188 0.98205 0.0757 0.0
C369 C 0.26064 0.00644 0.08907 0.0
C370 C 0.26165 0.00919 0.04079 0.0
C371 C 0.26287 0.9982 0.01051 0.0
C372 C 0.26067 0.99253 0.10515 0.0
H373 H 0.26404 0.97616 0.00538 0.0
C374 C 0.26689 0.94732 0.02633 0.0
O375 O 0.31352 0.9583 0.06637 0.0
O376 O 0.31317 0.98044 0.04318 0.0
N377 N 0.26182 0.97642 0.16448 0.0
C378 C 0.26228 0.97271 0.21012 0.0
C379 C 0.2619 0.98289 0.245 0.0
C380 C 0.26086 0.99667 0.23264 0.0
C381 C 0.2602 0.00013 0.18545 0.0
C382 C 0.2605 0.98947 0.15222 0.0
H383 H 0.26312 0.96215 0.21978 0.0
O384 O 0.30862 0.97809 0.14005 0.0
O385 O 0.28598 0.97589 0.10779 0.0
O386 O 0.28253 0.94475 0.13189 0.0
O387 O 0.25973 0.94644 0.14745 0.0
C388 C 0.25978 0.01401 0.17003 0.0
C389 C 0.26001 0.01717 0.12188 0.0
H390 H 0.26169 0.01979 0.02662 0.0
H391 H 0.26377 0.0003 0.97324 0.0
H392 H 0.26245 0.98016 0.28134 0.0
H393 H 0.26075 0.00459 0.25964 0.0
H394 H 0.25958 0.02249 0.19491 0.0
H395 H 0.25997 0.02803 0.11047 0.0
Mn396 Mn 0.1717 0.40163 0.0888 0.0
Mn397 Mn 0.18105 0.37162 0.09256 0.0
C398 C 0.1529 0.37684 0.12249 0.0
C399 C 0.16214 0.41553 0.04423 0.0
C400 C 0.19405 0.39938 0.1622 0.0
O401 O 0.19211 0.41035 0.04668 0.0
O402 O 0.19595 0.38889 0.04736 0.0
C403 C 0.16966 0.35955 0.99711 0.0
N404 N 0.16873 0.35667 0.04388 0.0
C405 C 0.14727 0.32848 0.03377 0.0
C406 C 0.14806 0.33111 0.98548 0.0
C407 C 0.15926 0.34674 0.96709 0.0
C408 C 0.15775 0.34179 0.062 0.0
H409 H 0.17824 0.37155 0.98281 0.0
C410 C 0.19978 0.40318 0.03328 0.0
O411 O 0.17164 0.42247 0.07997 0.0
O412 O 0.15808 0.40058 0.03506 0.0
N413 N 0.16799 0.3537 0.13422 0.0
C414 C 0.17023 0.35275 0.18075 0.0
C415 C 0.16054 0.33775 0.20432 0.0
C416 C 0.14903 0.32381 0.17964 0.0
C417 C 0.14752 0.32488 0.13139 0.0
C418 C 0.15755 0.34014 0.10976 0.0
H419 H 0.17933 0.36336 0.19972 0.0
O420 O 0.15135 0.38955 0.12847 0.0
O421 O 0.16463 0.37866 0.09358 0.0
O422 O 0.18645 0.40642 0.14636 0.0
O423 O 0.19331 0.38667 0.14405 0.0
C424 C 0.13694 0.31129 0.10365 0.0
C425 C 0.13667 0.31313 0.05495 0.0
H426 H 0.14016 0.32122 0.96219 0.0
H427 H 0.15992 0.34889 0.92987 0.0
H428 H 0.16211 0.33684 0.24128 0.0
H429 H 0.14181 0.31225 0.19793 0.0
H430 H 0.1292 0.29931 0.11921 0.0
H431 H 0.12849 0.30258 0.03401 0.0
Mn432 Mn 0.3963 0.29047 0.90358 0.0
Mn433 Mn 0.35815 0.25709 0.88688 0.0
C434 C 0.37642 0.29338 0.86519 0.0
C435 C 0.41467 0.31155 0.95173 0.0
C436 C 0.38894 0.26471 0.82965 0.0
O437 O 0.39583 0.27359 0.94725 0.0
O438 O 0.36943 0.25267 0.93889 0.0
C439 C 0.3417 0.25728 0.97551 0.0
N440 N 0.34199 0.25729 0.92805 0.0
C441 C 0.31581 0.2566 0.92483 0.0
C442 C 0.31515 0.25647 0.97371 0.0
C443 C 0.32818 0.25685 -0.00086 0.0
C444 C 0.32953 0.2569 0.90323 0.0
H445 H 0.35172 0.25761 0.99511 0.0
C446 C 0.38385 0.25932 0.95782 0.0
O447 O 0.42013 0.30607 0.9187 0.0
O448 O 0.39859 0.30473 0.95674 0.0
N449 N 0.34568 0.25934 0.83784 0.0
C450 C 0.34895 0.26096 0.79111 0.0
C451 C 0.33754 0.26159 0.76074 0.0
C452 C 0.32282 0.26035 0.77865 0.0
C453 C 0.31963 0.25848 0.82682 0.0
C454 C 0.33142 0.25787 0.85537 0.0
H455 H 0.36024 0.26192 0.77718 0.0
O456 O 0.39215 0.30445 0.86127 0.0
O457 O 0.37263 0.28102 0.89292 0.0
O458 O 0.39903 0.2785 0.84799 0.0
O459 O 0.37367 0.25579 0.84245 0.0
C460 C 0.3055 0.25777 0.84777 0.0
C461 C 0.3036 0.25686 0.89674 0.0
H462 H 0.30481 0.25626 0.99207 0.0
H463 H 0.3278 0.25684 0.03685 0.0
H464 H 0.34011 0.26307 0.72362 0.0
H465 H 0.31415 0.26103 0.75515 0.0
H466 H 0.2962 0.25827 0.82659 0.0
H467 H 0.29285 0.25663 0.91247 0.0
Mn468 Mn 0.84069 0.14219 0.92074 0.0
Mn469 Mn 0.84066 0.17711 0.94109 0.0
C470 C 0.81948 0.14099 0.96568 0.0
C471 C 0.83414 0.12084 0.86952 0.0
C472 C 0.86406 0.16797 0.98768 0.0
O473 O 0.85776 0.1586 0.87504 0.0
O474 O 0.85273 0.17939 0.88133 0.0
C475 C 0.81988 0.17709 0.86369 0.0
N476 N 0.82293 0.17776 0.91019 0.0
C477 C 0.79957 0.18116 0.92839 0.0
C478 C 0.79626 0.18065 0.88064 0.0
C479 C 0.80643 0.17856 0.84818 0.0
C480 C 0.81327 0.17983 0.94174 0.0
H481 H 0.82766 0.17543 0.83871 0.0
C482 C 0.8598 0.17231 0.86172 0.0
O483 O 0.84585 0.12515 0.90011 0.0
O484 O 0.82638 0.12894 0.86884 0.0
N485 N 0.8293 0.17656 0.99767 0.0
C486 C 0.83299 0.17486 0.0424 0.0
C487 C 0.82329 0.17554 0.07922 0.0
C488 C 0.81001 0.17809 0.06971 0.0
C489 C 0.8065 0.1799 0.02341 0.0
C490 C 0.81665 0.17919 0.98816 0.0
H491 H 0.84317 0.17289 0.04994 0.0
O492 O 0.82242 0.12902 0.96619 0.0
O493 O 0.82864 0.15309 0.93718 0.0
O494 O 0.85726 0.15319 0.9738 0.0
O495 O 0.85932 0.17787 0.97515 0.0
C496 C 0.79297 0.18178 0.01077 0.0
C497 C 0.78951 0.1824 0.9633 0.0
H498 H 0.78579 0.1816 0.86856 0.0
H499 H 0.80388 0.17804 0.81131 0.0
H500 H 0.82603 0.17406 0.11484 0.0
H501 H 0.80245 0.17843 0.09818 0.0
H502 H 0.78491 0.18235 0.03727 0.0
H503 H 0.77884 0.18346 0.95402 0.0
Mn504 Mn 0.97599 0.73171 0.9149 0.0
Mn505 Mn 0.98463 0.77016 0.89256 0.0
C506 C 0.00052 0.74934 0.87706 0.0
C507 C 0.97606 0.7136 0.9691 0.0
C508 C 0.96002 0.74033 0.83706 0.0
O509 O 0.95903 0.73396 0.95283 0.0
O510 O 0.96816 0.76086 0.94551 0.0
C511 C 0.00208 0.78638 0.9794 0.0
N512 N 0.00193 0.78555 0.93202 0.0
C513 C 0.02928 0.80968 0.92609 0.0
C514 C 0.0297 0.81088 0.97484 0.0
C515 C 0.01605 0.79915 0.0016 0.0
C516 C 0.01497 0.79676 0.90592 0.0
H517 H 0.99163 0.77734 3e-05 0.0
C518 C 0.95827 0.7466 0.96283 0.0
O519 O 0.96569 0.70831 0.93455 0.0
O520 O 0.98616 0.72928 0.97207 0.0
N521 N 0.00026 0.78084 0.84243 0.0
C522 C -0.00153 0.7771 0.7962 0.0
C523 C 0.01136 0.78717 0.76475 0.0
C524 C 0.02585 0.80108 0.78104 0.0
C525 C 0.02732 0.80479 0.8287 0.0
C526 C 0.01403 0.79434 0.85837 0.0
H527 H 0.98736 0.76644 0.78346 0.0
O528 O 0.99471 0.73367 0.87707 0.0
O529 O 0.99219 0.75443 0.9018 0.0
O530 O 0.96291 0.72985 0.85597 0.0
O531 O 0.96695 0.7553 0.84972 0.0
C532 C 0.04168 0.81811 0.84814 0.0
C533 C 0.04267 0.82054 0.8968 0.0
H534 H 0.0405 0.82064 0.99212 0.0
H535 H 0.01632 0.79994 0.03925 0.0
H536 H 0.01016 0.7842 0.72804 0.0
H537 H 0.03585 0.80871 0.75675 0.0
H538 H 0.05218 0.82637 0.82608 0.0
H539 H 0.05391 0.83065 0.91141 0.0
Mn540 Mn 0.4145 0.15754 0.40247 0.0
Mn541 Mn 0.376 0.15207 0.39139 0.0
C542 C 0.39405 0.13371 0.36883 0.0
C543 C 0.4336 0.15637 0.45151 0.0
C544 C 0.40608 0.17536 0.33159 0.0
O545 O 0.41448 0.17502 0.44318 0.0
O546 O 0.38696 0.16629 0.44605 0.0
C547 C 0.35892 0.13336 0.47706 0.0
N548 N 0.35956 0.1348 0.42977 0.0
C549 C 0.33298 0.10987 0.42245 0.0
C550 C 0.33197 0.10818 0.47113 0.0
C551 C 0.34503 0.11995 0.49853 0.0
C552 C 0.34705 0.12357 0.40304 0.0
H553 H 0.36895 0.14239 0.49817 0.0
C554 C 0.402 0.17549 0.45997 0.0
O555 O 0.43861 0.16635 0.41601 0.0
O556 O 0.41759 0.14706 0.45792 0.0
N557 N 0.36397 0.13843 0.33993 0.0
C558 C 0.36782 0.14082 0.29355 0.0
C559 C 0.3566 0.12954 0.2613 0.0
C560 C 0.34147 0.11601 0.27699 0.0
C561 C 0.33773 0.11384 0.32486 0.0
C562 C 0.34939 0.1255 0.35537 0.0
H563 H 0.37938 0.15122 0.2812 0.0
O564 O 0.40973 0.13826 0.36382 0.0
O565 O 0.39077 0.14294 0.39512 0.0
O566 O 0.41601 0.17058 0.34402 0.0
O567 O 0.3916 0.17007 0.34967 0.0
C568 C 0.32319 0.10023 0.34361 0.0
C569 C 0.32082 0.09825 0.39237 0.0
H570 H 0.32135 0.09778 0.48781 0.0
H571 H 0.34439 0.11866 0.5361 0.0
H572 H 0.35959 0.13128 0.22442 0.0
H573 H 0.33292 0.10725 0.25203 0.0
H574 H 0.31397 0.091 0.32088 0.0
H575 H 0.30979 0.08754 0.40637 0.0
Mn576 Mn 0.98179 0.2909 0.41329 0.0
Mn577 Mn 0.94595 0.29163 0.41013 0.0
C578 C 0.98042 0.31165 0.45018 0.0
C579 C 0.00658 0.29702 0.37592 0.0
C580 C 0.95119 0.26907 0.47362 0.0
O581 O 0.96841 0.27444 0.36363 0.0
O582 O 0.94617 0.2777 0.35838 0.0
C583 C 0.95222 0.31003 0.32171 0.0
N584 N 0.94877 0.30854 0.36829 0.0
C585 C 0.94831 0.33367 0.36906 0.0
C586 C 0.95175 0.33542 0.321 0.0
C587 C 0.95374 0.32356 0.29726 0.0
C588 C 0.94691 0.31992 0.39153 0.0
H589 H 0.95384 0.30098 0.30342 0.0
C590 C 0.95467 0.27117 0.34526 0.0
O591 O -0.00025 0.2854 0.40708 0.0
O592 O -0.00098 0.30498 0.36687 0.0
N593 N 0.94378 0.3045 0.45799 0.0
C594 C 0.9407 0.30108 0.50442 0.0
C595 C 0.93845 0.31178 0.53326 0.0
C596 C 0.93921 0.32576 0.51403 0.0
C597 C 0.94209 0.32886 0.46603 0.0
C598 C 0.94406 0.31766 0.43894 0.0
H599 H 0.94004 0.29033 0.51939 0.0
O600 O 0.99213 0.30862 0.46034 0.0
O601 O 0.97026 0.30287 0.41724 0.0
O602 O 0.96655 0.27456 0.46325 0.0
O603 O 0.94235 0.27429 0.45483 0.0
C604 C 0.94327 0.34269 0.44407 0.0
C605 C 0.94643 0.34513 0.39565 0.0
H606 H 0.95298 0.34586 0.30204 0.0
H607 H 0.95647 0.32487 0.26021 0.0
H608 H 0.93617 0.30927 0.57025 0.0
H609 H 0.93755 0.33402 0.53642 0.0
H610 H 0.94192 0.35162 0.46418 0.0
H611 H 0.94747 0.35589 0.37924 0.0
Mn612 Mn 0.82951 0.72513 0.41142 0.0
Mn613 Mn 0.81937 0.68561 0.40855 0.0
C614 C 0.80702 0.70626 0.45452 0.0
C615 C 0.82827 0.74606 0.37375 0.0
C616 C 0.84812 0.71183 0.4646 0.0
O617 O 0.84321 0.72415 0.35829 0.0
O618 O 0.83269 0.69702 0.35126 0.0
C619 C 0.79653 0.67455 0.32826 0.0
N620 N 0.79936 0.67303 0.37394 0.0
C621 C 0.77121 0.65052 0.38503 0.0
C622 C 0.76803 0.65175 0.33799 0.0
C623 C 0.78073 0.66384 0.30951 0.0
C624 C 0.78722 0.66146 0.40168 0.0
H625 H 0.80624 0.68389 0.30637 0.0
C626 C 0.84214 0.71186 0.3373 0.0
O627 O 0.84021 0.74933 0.40277 0.0
O628 O 0.81704 0.73081 0.36753 0.0
N629 N 0.8065 0.67301 0.46145 0.0
C630 C 0.81139 0.67391 0.50651 0.0
C631 C 0.79998 0.66294 0.53983 0.0
C632 C 0.78375 0.65107 0.52641 0.0
C633 C 0.77911 0.65018 0.47967 0.0
C634 C 0.79105 0.66135 0.44794 0.0
H635 H 0.82383 0.68301 0.51711 0.0
O636 O 0.8136 0.7218 0.46256 0.0
O637 O 0.81321 0.70227 0.4194 0.0
O638 O 0.84516 0.72341 0.45747 0.0
O639 O 0.83982 0.69767 0.44597 0.0
C640 C 0.763 0.63888 0.46351 0.0
C641 C 0.75904 0.63906 0.41625 0.0
H642 H 0.75583 0.64358 0.32346 0.0
H643 H 0.77834 0.66493 0.27324 0.0
H644 H 0.80367 0.6637 0.57582 0.0
H645 H 0.77493 0.64276 0.55232 0.0
H646 H 0.75348 0.63014 0.48728 0.0
H647 H 0.74654 0.63045 0.40438 0.0
H648 H 0.01995 0.49678 0.85939 0.0
H649 H 0.02686 0.51701 0.9203 0.0
H650 H 0.07872 0.53072 0.9111 0.0
H651 H 0.07194 0.51034 0.84978 0.0
H652 H 0.06682 0.52914 0.00413 0.0
H653 H 0.06949 0.55485 0.85991 0.0
H654 H 0.06012 0.55713 0.78168 0.0
H655 H 0.01602 0.55389 0.84149 0.0
H656 H 0.02496 0.55129 0.92006 0.0
H657 H 0.07808 0.59875 0.14237 0.0
H658 H 0.08268 0.58379 0.0796 0.0
H659 H 0.02977 0.55692 0.05249 0.0
H660 H 0.02502 0.57148 0.11467 0.0
H661 H 0.05011 0.57018 0.97197 0.0
H662 H 0.04584 0.53944 0.11379 0.0
H663 H 0.05526 0.53683 0.19168 0.0
H664 H 0.1036 0.55056 0.13486 0.0
H665 H 0.09452 0.55347 0.0567 0.0
C666 C 0.03282 0.50395 0.8704 0.0
C667 C 0.04542 0.50207 0.84914 0.0
C668 C 0.03675 0.51553 0.90524 0.0
C669 C 0.05334 0.52552 0.91948 0.0
C670 C 0.06586 0.52316 0.90027 0.0
C671 C 0.06194 0.51154 0.86521 0.0
C672 C 0.0574 0.53889 0.95283 0.0
C673 C 0.06356 0.53838 0.99683 0.0
C674 C 0.05322 0.55096 0.94305 0.0
C675 C 0.04787 0.55279 0.89591 0.0
C676 C 0.05774 0.55452 0.85638 0.0
C677 C 0.05251 0.55588 0.81196 0.0
C678 C 0.03748 0.55564 0.80661 0.0
C679 C 0.02766 0.55408 0.84569 0.0
C680 C 0.03282 0.55268 0.8902 0.0
C681 C 0.06745 0.58967 0.12293 0.0
C682 C 0.05118 0.58632 0.13359 0.0
C683 C 0.0701 0.58115 0.08723 0.0
C684 C 0.05655 0.56931 0.06152 0.0
C685 C 0.04039 0.56608 0.07185 0.0
C686 C 0.03771 0.57439 0.10763 0.0
C687 C 0.05877 0.55995 0.02388 0.0
C688 C 0.05383 0.56125 0.97888 0.0
C689 C 0.0642 0.54875 0.03272 0.0
C690 C 0.06958 0.54689 0.07959 0.0
C691 C 0.05852 0.54204 0.11801 0.0
C692 C 0.06379 0.54048 0.16218 0.0
C693 C 0.08004 0.54359 0.16826 0.0
C694 C 0.09104 0.5482 0.13013 0.0
C695 C 0.08584 0.5498 0.08589 0.0
H696 H 0.08409 0.54238 0.20248 0.0
H697 H 0.03344 0.55668 0.77219 0.0
H698 H 0.56902 0.57819 0.80446 0.0
H699 H 0.55361 0.55654 0.86246 0.0
H700 H 0.59805 0.57594 0.94589 0.0
H701 H 0.61369 0.59704 0.88677 0.0
H702 H 0.58069 0.54433 0.95732 0.0
H703 H 0.56877 0.5881 0.96164 0.0
H704 H 0.55993 0.60645 0.92863 0.0
H705 H 0.51174 0.56497 0.89779 0.0
H706 H 0.52037 0.54634 0.93018 0.0
H707 H 0.52574 0.53465 0.17505 0.0
H708 H 0.54031 0.54844 0.10324 0.0
H709 H 0.53445 0.5031 0.05133 0.0
H710 H 0.52042 0.48934 0.12439 0.0
H711 H 0.53119 0.54531 0.01916 0.0
H712 H 0.56652 0.51145 0.97564 0.0
H713 H 0.57836 0.49675 0.01604 0.0
H714 H 0.58457 0.52458 0.14 0.0
H715 H 0.57297 0.53956 0.10017 0.0
C716 C 0.57554 0.57759 0.83478 0.0
C717 C 0.59244 0.58937 0.84165 0.0
C718 C 0.56675 0.56526 0.86785 0.0
C719 C 0.57458 0.56489 0.90906 0.0
C720 C 0.59174 0.576 0.91443 0.0
C721 C 0.60065 0.58809 0.88076 0.0
C722 C 0.56459 0.55427 0.94871 0.0
C723 C 0.56978 0.54442 0.97068 0.0
C724 C 0.55057 0.55466 0.96674 0.0
C725 C 0.54527 0.56583 0.94785 0.0
C726 C 0.55631 0.58289 0.9476 0.0
C727 C 0.55135 0.59334 0.929 0.0
C728 C 0.53531 0.58688 0.91097 0.0
C729 C 0.52417 0.56996 0.91168 0.0
C730 C 0.52909 0.55945 0.93017 0.0
C731 C 0.52755 0.5276 0.14837 0.0
C732 C 0.52199 0.51093 0.15533 0.0
C733 C 0.53585 0.53549 0.10727 0.0
C734 C 0.53858 0.52685 0.07194 0.0
C735 C 0.53277 0.5101 0.07843 0.0
C736 C 0.52472 0.50224 0.12007 0.0
C737 C 0.54743 0.53555 0.0285 0.0
C738 C 0.54195 0.54499 0.00556 0.0
C739 C 0.56157 0.53529 0.01089 0.0
C740 C 0.56869 0.52646 0.03508 0.0
C741 C 0.57045 0.51444 0.01148 0.0
C742 C 0.57711 0.50606 0.03429 0.0
C743 C 0.58215 0.50968 0.08062 0.0
C744 C 0.5806 0.52173 0.10419 0.0
C745 C 0.57396 0.53015 0.08153 0.0
H746 H 0.58729 0.50318 0.09821 0.0
H747 H 0.5315 0.59499 0.89656 0.0
H748 H 0.61293 0.09013 0.14222 0.0
H749 H 0.5935 0.08254 0.07814 0.0
H750 H 0.59018 0.03562 0.0685 0.0
H751 H 0.60982 0.04313 0.13311 0.0
H752 H 0.59468 0.05129 0.98168 0.0
H753 H 0.55839 0.03599 0.11341 0.0
H754 H 0.54832 0.03889 0.19051 0.0
H755 H 0.54457 0.07945 0.13975 0.0
H756 H 0.55493 0.077 0.06246 0.0
H757 H 0.5242 0.02479 0.82811 0.0
H758 H 0.54265 0.02645 0.89069 0.0
H759 H 0.55335 0.07521 0.9233 0.0
H760 H 0.53504 0.07377 0.86097 0.0
H761 H 0.54305 0.05403 0.00017 0.0
H762 H 0.58203 0.07058 0.87038 0.0
H763 H 0.59163 0.06713 0.79308 0.0
H764 H 0.58953 0.02319 0.84067 0.0
H765 H 0.57964 0.02625 0.91808 0.0
C766 C 0.60809 0.07816 0.12672 0.0
C767 C 0.61292 0.06721 0.14295 0.0
C768 C 0.59693 0.07383 0.09014 0.0
C769 C 0.59032 0.05848 0.06895 0.0
C770 C 0.59514 0.04751 0.08462 0.0
C771 C 0.60628 0.05179 0.12162 0.0
C772 C 0.57853 0.05422 0.0301 0.0
C773 C 0.5832 0.05153 0.9858 0.0
C774 C 0.56369 0.05475 0.0356 0.0
C775 C 0.55755 0.05637 0.08216 0.0
C776 C 0.55557 0.04563 0.11877 0.0
C777 C 0.54978 0.04718 0.16252 0.0
C778 C 0.5458 0.05935 0.17005 0.0
C779 C 0.54765 0.07002 0.13386 0.0
C780 C 0.55347 0.06855 0.09005 0.0
C781 C 0.53063 0.03596 0.8482 0.0
C782 C 0.52808 0.04913 0.83958 0.0
C783 C 0.54117 0.03687 0.88388 0.0
C784 C 0.54928 0.05093 0.91154 0.0
C785 C 0.54712 0.06424 0.90233 0.0
C786 C 0.5367 0.0634 0.86652 0.0
C787 C 0.55945 0.05161 0.95159 0.0
C788 C 0.55441 0.05356 0.99616 0.0
C789 C 0.57387 0.05032 0.94628 0.0
C790 C 0.5799 0.04853 0.89985 0.0
C791 C 0.58346 0.0601 0.86424 0.0
C792 C 0.58899 0.05823 0.82042 0.0
C793 C 0.59114 0.04492 0.81193 0.0
C794 C 0.58782 0.03348 0.84727 0.0
C795 C 0.58226 0.03528 0.89113 0.0
H796 H 0.59542 0.0435 0.77799 0.0
H797 H 0.54123 0.06048 0.20386 0.0
H798 H 0.60159 0.05038 0.34967 0.0
H799 H 0.58126 0.0475 0.40856 0.0
H800 H 0.60295 0.09995 0.41078 0.0
H801 H 0.62357 0.10307 0.35143 0.0
H802 H 0.59689 0.08555 0.49952 0.0
H803 H 0.56744 0.07809 0.35803 0.0
H804 H 0.55662 0.06655 0.28062 0.0
H805 H 0.52775 0.01842 0.34092 0.0
H806 H 0.53869 0.02962 0.41865 0.0
H807 H 0.53117 0.08066 0.63745 0.0
H808 H 0.55011 0.08639 0.57151 0.0
H809 H 0.53164 0.03472 0.55636 0.0
H810 H 0.51247 0.02874 0.62239 0.0
H811 H 0.53596 0.05069 0.47171 0.0
H812 H 0.56719 0.0575 0.61095 0.0
H813 H 0.5781 0.06857 0.6888 0.0
H814 H 0.60356 0.1175 0.6327 0.0
H815 H 0.5926 0.10671 0.55458 0.0
C816 C 0.60213 0.06137 0.36257 0.0
C817 C 0.61422 0.07698 0.34569 0.0
C818 C 0.59041 0.05966 0.39609 0.0
C819 C 0.5905 0.07349 0.41347 0.0
C820 C 0.60267 0.08913 0.39746 0.0
C821 C 0.61439 0.09087 0.36354 0.0
C822 C 0.57797 0.07143 0.44905 0.0
C823 C 0.58356 0.07821 0.49323 0.0
C824 C 0.56061 0.0615 0.44092 0.0
C825 C 0.554 0.05469 0.39417 0.0
C826 C 0.55891 0.06502 0.35475 0.0
C827 C 0.55273 0.05854 0.3108 0.0
C828 C 0.5415 0.04176 0.30584 0.0
C829 C 0.53645 0.03142 0.34482 0.0
C830 C 0.54264 0.03783 0.38885 0.0
C831 C 0.53099 0.07044 0.62002 0.0
C832 C 0.52039 0.05422 0.63561 0.0
C833 C 0.54187 0.07379 0.58237 0.0
C834 C 0.54241 0.061 0.55961 0.0
C835 C 0.53142 0.04475 0.5737 0.0
C836 C 0.52052 0.04137 0.61152 0.0
C837 C 0.5549 0.06467 0.52224 0.0
C838 C 0.54929 0.05817 0.4778 0.0
C839 C 0.57225 0.0748 0.53015 0.0
C840 C 0.57893 0.08131 0.57703 0.0
C841 C 0.575 0.07063 0.61529 0.0
C842 C 0.58121 0.07685 0.65944 0.0
C843 C 0.59148 0.09373 0.66571 0.0
C844 C 0.59559 0.10442 0.6278 0.0
C845 C 0.58939 0.09826 0.58357 0.0
H846 H 0.59628 0.09852 0.69992 0.0
H847 H 0.53666 0.03676 0.27183 0.0
H848 H 0.06918 0.60607 0.36888 0.0
H849 H 0.07119 0.59041 0.43338 0.0
H850 H 0.02732 0.54676 0.38445 0.0
H851 H 0.02485 0.56252 0.321 0.0
H852 H 0.02483 0.548 0.47214 0.0
H853 H 0.06817 0.55378 0.36982 0.0
H854 H 0.09336 0.56828 0.31975 0.0
H855 H 0.12228 0.59538 0.43774 0.0
H856 H 0.0972 0.58119 0.48843 0.0
H857 H 0.06015 0.50055 0.59805 0.0
H858 H 0.06317 0.51878 0.53333 0.0
H859 H 0.04281 0.54166 0.62044 0.0
H860 H 0.03895 0.52287 0.68412 0.0
H861 H 0.07757 0.54972 0.51093 0.0
H862 H 0.01636 0.5483 0.56202 0.0
H863 H 0.99009 0.53045 0.60535 0.0
H864 H 0.99481 0.48863 0.57592 0.0
H865 H 0.02099 0.50617 0.53204 0.0
C866 C 0.05998 0.59312 0.37182 0.0
C867 C 0.04685 0.58551 0.33988 0.0
C868 C 0.06121 0.58416 0.40856 0.0
C869 C 0.04956 0.56734 0.41341 0.0
C870 C 0.03645 0.55973 0.38147 0.0
C871 C 0.03505 0.56874 0.34521 0.0
C872 C 0.05068 0.55777 0.45265 0.0
C873 C 0.03638 0.54839 0.48049 0.0
C874 C 0.06564 0.558 0.46315 0.0
C875 C 0.08077 0.56653 0.43284 0.0
C876 C 0.07988 0.56292 0.38503 0.0
C877 C 0.09414 0.57107 0.35655 0.0
C878 C 0.1094 0.58277 0.37553 0.0
C879 C 0.11044 0.58633 0.42307 0.0
C880 C 0.09621 0.57822 0.45171 0.0
C881 C 0.05667 0.50973 0.6035 0.0
C882 C 0.04914 0.51025 0.64559 0.0
C883 C 0.05839 0.52012 0.5666 0.0
C884 C 0.0528 0.53129 0.57169 0.0
C885 C 0.04676 0.53282 0.61531 0.0
C886 C 0.04464 0.52217 0.6517 0.0
C887 C 0.0518 0.54018 0.53053 0.0
C888 C 0.06607 0.5494 0.50245 0.0
C889 C 0.03663 0.53931 0.51858 0.0
C890 C 0.02071 0.52859 0.54412 0.0
C891 C 0.01174 0.53528 0.56463 0.0
C892 C 0.99689 0.52522 0.58934 0.0
C893 C 0.99083 0.50842 0.59354 0.0
C894 C -0.00044 0.50164 0.57283 0.0
C895 C 0.01441 0.51164 0.54806 0.0
H896 H 0.97934 0.50066 0.61273 0.0
H897 H 0.12042 0.58907 0.35342 0.0
H898 H 0.58111 0.60013 0.63727 0.0
H899 H 0.57236 0.58072 0.57315 0.0
H900 H 0.62029 0.58391 0.57288 0.0
H901 H 0.62927 0.60343 0.63723 0.0
H902 H 0.60832 0.58376 0.48293 0.0
H903 H 0.59025 0.55201 0.62222 0.0
H904 H 0.57728 0.54412 0.70051 0.0
H905 H 0.52997 0.5327 0.64417 0.0
H906 H 0.54271 0.54078 0.56565 0.0
H907 H 0.54048 0.49673 0.38359 0.0
H908 H 0.56191 0.5134 0.44093 0.0
H909 H 0.56331 0.55676 0.38899 0.0
H910 H 0.54209 0.54033 0.33211 0.0
H911 H 0.55662 0.52989 0.50909 0.0
H912 H 0.60079 0.59002 0.40416 0.0
H913 H 0.61431 0.59778 0.32654 0.0
H914 H 0.61094 0.55109 0.31477 0.0
H915 H 0.59765 0.54312 0.39261 0.0
C916 C 0.5899 0.59688 0.62338 0.0
C917 C 0.60584 0.60323 0.64277 0.0
C918 C 0.58484 0.58573 0.58685 0.0
C919 C 0.59561 0.58071 0.56896 0.0
C920 C 0.6118 0.58758 0.58654 0.0
C921 C 0.61686 0.5987 0.62334 0.0
C922 C 0.58955 0.56789 0.53286 0.0
C923 C 0.59712 0.5719 0.48855 0.0
C924 C 0.5753 0.55224 0.54098 0.0
C925 C 0.56747 0.54707 0.58804 0.0
C926 C 0.5771 0.5479 0.62655 0.0
C927 C 0.56979 0.54339 0.67098 0.0
C928 C 0.55282 0.53792 0.67732 0.0
C929 C 0.54312 0.53692 0.63921 0.0
C930 C 0.55037 0.54145 0.59471 0.0
C931 C 0.54569 0.50988 0.38373 0.0
C932 C 0.53952 0.51723 0.35376 0.0
C933 C 0.55789 0.51935 0.41648 0.0
C934 C 0.56427 0.53631 0.41897 0.0
C935 C 0.55877 0.54374 0.38724 0.0
C936 C 0.54651 0.53431 0.35501 0.0
C937 C 0.57483 0.54607 0.45827 0.0
C938 C 0.56808 0.54153 0.50346 0.0
C939 C 0.58994 0.56113 0.45097 0.0
C940 C 0.59815 0.56595 0.40427 0.0
C941 C 0.60304 0.58144 0.38521 0.0
C942 C 0.61064 0.58587 0.3411 0.0
C943 C 0.61346 0.57493 0.31571 0.0
C944 C 0.60871 0.55954 0.33441 0.0
C945 C 0.60112 0.55505 0.37851 0.0
H946 H 0.61933 0.57838 0.28156 0.0
H947 H 0.54719 0.53445 0.71175 0.0
H948 H 0.76725 0.882 0.15682 0.0
H949 H 0.76106 0.89528 0.22027 0.0
H950 H 0.71204 0.85237 0.23746 0.0
H951 H 0.71793 0.83906 0.17355 0.0
H952 H 0.71111 0.88027 0.24808 0.0
H953 H 0.74367 0.85771 0.30472 0.0
H954 H 0.76789 0.85374 0.30361 0.0
H955 H 0.80087 0.90511 0.32804 0.0
H956 H 0.77687 0.90945 0.32831 0.0
H957 H 0.69211 0.89179 0.47738 0.0
H958 H 0.69912 0.88021 0.41119 0.0
H959 H 0.74692 0.92481 0.39643 0.0
H960 H 0.74016 0.9365 0.46307 0.0
H961 H 0.749 0.89698 0.38371 0.0
H962 H 0.71577 0.91912 0.32918 0.0
H963 H 0.69119 0.9225 0.3313 0.0
H964 H 0.65903 0.87119 0.30413 0.0
H965 H 0.6834 0.86744 0.30274 0.0
C966 C 0.75506 0.87544 0.17362 0.0
C967 C 0.74316 0.85936 0.16039 0.0
C968 C 0.75157 0.88305 0.20996 0.0
C969 C 0.73621 0.87468 0.23403 0.0
C970 C 0.72399 0.859 0.21939 0.0
C971 C 0.72743 0.8514 0.18291 0.0
C972 C 0.73324 0.88181 0.27627 0.0
C973 C 0.7193 0.8838 0.27788 0.0
C974 C 0.74409 0.88659 0.31486 0.0
C975 C 0.75849 0.88393 0.31609 0.0
C976 C 0.7561 0.86818 0.3096 0.0
C977 C 0.76978 0.86586 0.3091 0.0
C978 C 0.78591 0.87917 0.31565 0.0
C979 C 0.78837 0.89481 0.32289 0.0
C980 C 0.77473 0.89721 0.32322 0.0
C981 C 0.7042 0.89911 0.46048 0.0
C982 C 0.7155 0.91516 0.47532 0.0
C983 C 0.70816 0.89247 0.42256 0.0
C984 C 0.72341 0.90177 0.39856 0.0
C985 C 0.73505 0.91748 0.41446 0.0
C986 C 0.73112 0.92415 0.45246 0.0
C987 C 0.72685 0.89539 0.35551 0.0
C988 C 0.74086 0.89353 0.35379 0.0
C989 C 0.71603 0.89065 0.31691 0.0
C990 C 0.70141 0.89297 0.31623 0.0
C991 C 0.70345 0.90854 0.32389 0.0
C992 C 0.68955 0.91052 0.32498 0.0
C993 C 0.67356 0.89706 0.31795 0.0
C994 C 0.67143 0.88161 0.30961 0.0
C995 C 0.68528 0.87954 0.30864 0.0
H996 H 0.66281 0.89862 0.3189 0.0
H997 H 0.79649 0.87736 0.3152 0.0
H998 H 0.19757 0.86396 0.49311 0.0
H999 H 0.21203 0.8759 0.41959 0.0
H1000 H 0.23292 0.84448 0.4202 0.0
H1001 H 0.21822 0.83212 0.49405 0.0
H1002 H 0.25581 0.88164 0.39749 0.0
H1003 H 0.20648 0.8325 0.34996 0.0
H1004 H 0.17636 0.81192 0.35274 0.0
H1005 H 0.16484 0.84859 0.31235 0.0
H1006 H 0.19489 0.86947 0.31008 0.0
H1007 H 0.28206 0.92053 0.17228 0.0
H1008 H 0.27182 0.89825 0.2298 0.0
H1009 H 0.23066 0.90528 0.26453 0.0
H1010 H 0.24049 0.92714 0.20722 0.0
H1011 H 0.2203 0.87352 0.26046 0.0
H1012 H 0.26703 0.92276 0.32832 0.0
H1013 H 0.29651 0.9451 0.33122 0.0
H1014 H 0.31231 0.9098 0.33706 0.0
H1015 H 0.2829 0.88725 0.33363 0.0
C1016 C 0.20533 0.85963 0.47803 0.0
C1017 C 0.20669 0.84703 0.49938 0.0
C1018 C 0.21354 0.86645 0.43595 0.0
C1019 C 0.22337 0.86093 0.41461 0.0
C1020 C 0.2253 0.8488 0.43634 0.0
C1021 C 0.21688 0.84177 0.47834 0.0
C1022 C 0.23112 0.86782 0.36888 0.0
C1023 C 0.24822 0.87954 0.36691 0.0
C1024 C 0.22106 0.86514 0.32955 0.0
C1025 C 0.20296 0.85257 0.33001 0.0
C1026 C 0.19753 0.8362 0.34194 0.0
C1027 C 0.18046 0.82448 0.34339 0.0
C1028 C 0.16869 0.82895 0.33275 0.0
C1029 C 0.17397 0.84515 0.32054 0.0
C1030 C 0.19103 0.85693 0.31909 0.0
C1031 C 0.27075 0.91723 0.19194 0.0
C1032 C 0.26216 0.92572 0.18533 0.0
C1033 C 0.26494 0.9045 0.22474 0.0
C1034 C 0.25054 0.90019 0.25154 0.0
C1035 C 0.24174 0.90834 0.24401 0.0
C1036 C 0.24746 0.92094 0.21131 0.0
C1037 C 0.24488 0.88792 0.28959 0.0
C1038 C 0.22811 0.87517 0.29019 0.0
C1039 C 0.2552 0.88983 0.32787 0.0
C1040 C 0.27283 0.90336 0.33009 0.0
C1041 C 0.27681 0.91978 0.32987 0.0
C1042 C 0.29349 0.93247 0.33167 0.0
C1043 C 0.30628 0.92887 0.33415 0.0
C1044 C 0.3024 0.91257 0.33501 0.0
C1045 C 0.28573 0.89983 0.33314 0.0
H1046 H 0.31919 0.93871 0.33555 0.0
H1047 H 0.15549 0.81985 0.33393 0.0
H1048 H 0.27468 0.38789 0.46163 0.0
H1049 H 0.26121 0.39668 0.40606 0.0
H1050 H 0.22645 0.39303 0.5131 0.0
H1051 H 0.23953 0.38332 0.56865 0.0
H1052 H 0.21061 0.38295 0.43588 0.0
H1053 H 0.25962 0.43125 0.47609 0.0
H1054 H 0.2894 0.4496 0.49396 0.0
H1055 H 0.30294 0.44551 0.35321 0.0
H1056 H 0.27326 0.42693 0.33461 0.0
H1057 H 0.18648 0.41205 0.23782 0.0
H1058 H 0.19864 0.41614 0.31587 0.0
H1059 H 0.23419 0.40351 0.26297 0.0
H1060 H 0.2221 0.39933 0.18567 0.0
H1061 H 0.24752 0.42916 0.33002 0.0
H1062 H 0.1959 0.3751 0.30242 0.0
H1063 H 0.16551 0.35893 0.28907 0.0
H1064 H 0.15641 0.37739 0.41553 0.0
H1065 H 0.18678 0.39414 0.42891 0.0
C1066 C 0.2641 0.38886 0.47323 0.0
C1067 C 0.25818 0.38505 0.51936 0.0
C1068 C 0.2565 0.39406 0.44162 0.0
C1069 C 0.24319 0.39611 0.45579 0.0
C1070 C 0.23684 0.39175 0.50154 0.0
C1071 C 0.24425 0.38615 0.53312 0.0
C1072 C 0.23589 0.40246 0.42183 0.0
C1073 C 0.21864 0.39333 0.41355 0.0
C1074 C 0.24624 0.41629 0.39332 0.0
C1075 C 0.26416 0.42765 0.40398 0.0
C1076 C 0.26894 0.4342 0.44897 0.0
C1077 C 0.28582 0.44465 0.45924 0.0
C1078 C 0.29806 0.44871 0.42474 0.0
C1079 C 0.29344 0.44236 0.37988 0.0
C1080 C 0.27658 0.4319 0.36942 0.0
C1081 C 0.19722 0.41066 0.24272 0.0
C1082 C 0.20331 0.40526 0.20599 0.0
C1083 C 0.20409 0.41294 0.28722 0.0
C1084 C 0.21719 0.40998 0.2951 0.0
C1085 C 0.22409 0.40586 0.25754 0.0
C1086 C 0.21713 0.4034 0.21347 0.0
C1087 C 0.22259 0.40899 0.34262 0.0
C1088 C 0.23948 0.41918 0.35353 0.0
C1089 C 0.21183 0.39646 0.37425 0.0
C1090 C 0.19362 0.38604 0.36636 0.0
C1091 C 0.18744 0.37581 0.32719 0.0
C1092 C 0.17022 0.36654 0.31961 0.0
C1093 C 0.15905 0.36711 0.35141 0.0
C1094 C 0.16508 0.37698 0.39087 0.0
C1095 C 0.18229 0.38641 0.3984 0.0
H1096 H 0.14573 0.35988 0.34555 0.0
H1097 H 0.31112 0.45678 0.43278 0.0
H1098 H 0.22306 0.39504 0.01053 0.0
H1099 H 0.24466 0.40719 0.95071 0.0
H1100 H 0.23003 0.44251 0.91858 0.0
H1101 H 0.208 0.4302 0.97882 0.0
H1102 H 0.23178 0.42729 0.8416 0.0
H1103 H 0.2693 0.45697 0.95968 0.0
H1104 H 0.28225 0.46275 0.03715 0.0
H1105 H 0.29688 0.42707 0.01454 0.0
H1106 H 0.28381 0.42085 0.93728 0.0
H1107 H 0.28598 0.42354 0.66586 0.0
H1108 H 0.28106 0.43949 0.72504 0.0
H1109 H 0.26779 0.40081 0.8256 0.0
H1110 H 0.27214 0.38482 0.767 0.0
H1111 H 0.28805 0.43444 0.86139 0.0
H1112 H 0.23723 0.39809 0.76569 0.0
H1113 H 0.22369 0.39109 0.68882 0.0
H1114 H 0.23527 0.44076 0.67059 0.0
H1115 H 0.24905 0.44805 0.74722 0.0
C1116 C 0.22449 0.40551 0.99125 0.0
C1117 C 0.21372 0.41157 -0.00073 0.0
C1118 C 0.23703 0.41261 0.95737 0.0
C1119 C 0.23918 0.42598 0.93077 0.0
C1120 C 0.2287 0.43234 0.93918 0.0
C1121 C 0.21613 0.42526 0.9735 0.0
C1122 C 0.25101 0.43158 0.89068 0.0
C1123 C 0.24438 0.4296 0.84583 0.0
C1124 C 0.26752 0.43477 0.89602 0.0
C1125 C 0.2756 0.4385 0.94242 0.0
C1126 C 0.27523 0.45031 0.97124 0.0
C1127 C 0.28259 0.45366 0.01517 0.0
C1128 C 0.2904 0.44531 0.03073 0.0
C1129 C 0.29087 0.43358 0.00237 0.0
C1130 C 0.28353 0.43017 0.95842 0.0
C1131 C 0.28231 0.41865 0.70091 0.0
C1132 C 0.27927 0.4029 0.71191 0.0
C1133 C 0.27959 0.42777 0.73455 0.0
C1134 C 0.2742 0.42133 0.77961 0.0
C1135 C 0.27214 0.40605 0.79112 0.0
C1136 C 0.27446 0.39684 0.75749 0.0
C1137 C 0.26824 0.42891 0.8136 0.0
C1138 C 0.27593 0.4333 0.85717 0.0
C1139 C 0.2528 0.42808 0.80718 0.0
C1140 C 0.24425 0.42363 0.76178 0.0
C1141 C 0.23691 0.40751 0.74515 0.0
C1142 C 0.22921 0.40349 0.70167 0.0
C1143 C 0.22865 0.41549 0.67479 0.0
C1144 C 0.23574 0.4315 0.69141 0.0
C1145 C 0.2435 0.43557 0.73483 0.0
H1146 H 0.2227 0.41236 0.64112 0.0
H1147 H 0.29609 0.44791 0.06476 0.0
H1148 H 0.71955 0.83583 0.95678 0.0
H1149 H 0.71419 0.84971 0.8939 0.0
H1150 H 0.76699 0.88494 0.88175 0.0
H1151 H 0.77249 0.87132 0.9455 0.0
H1152 H 0.74947 0.89985 0.88549 0.0
H1153 H 0.74638 0.8556 0.79784 0.0
H1154 H 0.73697 0.82676 0.77997 0.0
H1155 H 0.68622 0.81582 0.77203 0.0
H1156 H 0.69529 0.84455 0.79049 0.0
H1157 H 0.74128 0.93637 0.67719 0.0
H1158 H 0.74884 0.9231 0.73701 0.0
H1159 H 0.69687 0.88603 0.75581 0.0
H1160 H 0.68918 0.89901 0.69547 0.0
H1161 H 0.71542 0.8724 0.7464 0.0
H1162 H 0.71863 0.91662 0.83714 0.0
H1163 H 0.72806 0.94508 0.86002 0.0
H1164 H 0.77887 0.95601 0.8633 0.0
H1165 H 0.7698 0.92769 0.83979 0.0
C1166 C 0.73009 0.84641 0.94046 0.0
C1167 C 0.74646 0.85249 0.95643 0.0
C1168 C 0.72699 0.85429 0.90429 0.0
C1169 C 0.7402 0.86829 0.88287 0.0
C1170 C 0.75661 0.87416 0.89785 0.0
C1171 C 0.75973 0.86633 0.93423 0.0
C1172 C 0.73673 0.87734 0.84691 0.0
C1173 C 0.7423 0.89394 0.85456 0.0
C1174 C 0.727 0.86949 0.80728 0.0
C1175 C 0.72151 0.85221 0.79592 0.0
C1176 C 0.7332 0.84702 0.79262 0.0
C1177 C 0.72792 0.8307 0.78233 0.0
C1178 C 0.711 0.81946 0.77497 0.0
C1179 C 0.69932 0.82454 0.77777 0.0
C1180 C 0.70452 0.84084 0.78809 0.0
C1181 C 0.73141 0.92549 0.69434 0.0
C1182 C 0.71461 0.91871 0.68124 0.0
C1183 C 0.73577 0.91795 0.72871 0.0
C1184 C 0.72342 0.90361 0.75103 0.0
C1185 C 0.70661 0.89706 0.7389 0.0
C1186 C 0.70224 0.90453 0.70442 0.0
C1187 C 0.72803 0.89491 0.78519 0.0
C1188 C 0.72269 0.87835 0.77714 0.0
C1189 C 0.73802 0.90283 0.82441 0.0
C1190 C 0.74354 0.92006 0.8363 0.0
C1191 C 0.73184 0.92515 0.84211 0.0
C1192 C 0.73712 0.94124 0.85537 0.0
C1193 C 0.75405 0.95231 0.86322 0.0
C1194 C 0.76576 0.9474 0.85729 0.0
C1195 C 0.76056 0.93134 0.844 0.0
H1196 H 0.7581 0.96468 0.87416 0.0
H1197 H 0.70695 0.80683 0.76702 0.0
H1198 H 0.23574 0.92015 0.02392 0.0
H1199 H 0.22517 0.89878 0.96385 0.0
H1200 H 0.26968 0.92825 0.88078 0.0
H1201 H 0.28043 0.94937 0.94096 0.0
H1202 H 0.23786 0.91186 0.83063 0.0
H1203 H 0.27061 0.90182 0.94238 0.0
H1204 H 0.27729 0.89747 0.0221 0.0
H1205 H 0.22826 0.85495 0.03752 0.0
H1206 H 0.22119 0.85923 0.95809 0.0
H1207 H 0.23288 0.85849 0.66635 0.0
H1208 H 0.24696 0.8763 0.73254 0.0
H1209 H 0.20771 0.8417 0.8245 0.0
H1210 H 0.19419 0.82347 0.7586 0.0
H1211 H 0.23608 0.86018 0.87258 0.0
H1212 H 0.20218 0.86968 0.76615 0.0
H1213 H 0.1934 0.87387 0.68897 0.0
H1214 H 0.24177 0.91659 0.66619 0.0
H1215 H 0.25087 0.91265 0.74314 0.0
C1216 C 0.243 0.92221 0.99222 0.0
C1217 C 0.25884 0.93634 0.98679 0.0
C1218 C 0.23705 0.90998 0.95827 0.0
C1219 C 0.24678 0.91195 0.91834 0.0
C1220 C 0.26206 0.92655 0.91149 0.0
C1221 C 0.26814 0.93858 0.94573 0.0
C1222 C 0.24164 0.89846 0.88483 0.0
C1223 C 0.23761 0.90062 0.83959 0.0
C1224 C 0.24096 0.8837 0.89714 0.0
C1225 C 0.24531 0.88095 0.94452 0.0
C1226 C 0.2612 0.89163 0.96292 0.0
C1227 C 0.26507 0.88916 0.00802 0.0
C1228 C 0.25319 0.87597 0.03491 0.0
C1229 C 0.23744 0.86518 0.01668 0.0
C1230 C 0.2335 0.86762 0.97161 0.0
C1231 C 0.22792 0.85422 0.70118 0.0
C1232 C 0.21251 0.83971 0.70767 0.0
C1233 C 0.2358 0.86449 0.73888 0.0
C1234 C 0.22798 0.8606 0.783 0.0
C1235 C 0.21385 0.84502 0.79064 0.0
C1236 C 0.20621 0.83453 0.75304 0.0
C1237 C 0.23258 0.87368 0.81791 0.0
C1238 C 0.23637 0.87142 0.8635 0.0
C1239 C 0.23275 0.8883 0.80624 0.0
C1240 C 0.22725 0.89078 0.76016 0.0
C1241 C 0.21096 0.87992 0.74456 0.0
C1242 C 0.20592 0.88224 0.70091 0.0
C1243 C 0.21704 0.89542 0.67264 0.0
C1244 C 0.23319 0.90637 0.68808 0.0
C1245 C 0.23828 0.90412 0.73175 0.0
H1246 H 0.21311 0.89718 0.63883 0.0
H1247 H 0.2562 0.87408 0.06984 0.0
H1248 H 0.37225 0.23447 0.79048 0.0
H1249 H 0.38212 0.22335 0.73049 0.0
H1250 H 0.42931 0.2689 0.72322 0.0
H1251 H 0.4195 0.28035 0.78408 0.0
H1252 H 0.41519 0.25579 0.63501 0.0
H1253 H 0.43082 0.23904 0.7698 0.0
H1254 H 0.4282 0.22852 0.84981 0.0
H1255 H 0.38674 0.182 0.8091 0.0
H1256 H 0.38894 0.19232 0.72889 0.0
H1257 H 0.43114 0.20359 0.48133 0.0
H1258 H 0.43584 0.22237 0.54598 0.0
H1259 H 0.3845 0.19165 0.59063 0.0
H1260 H 0.37958 0.17306 0.52591 0.0
H1261 H 0.41055 0.20199 0.66315 0.0
H1262 H 0.39224 0.22275 0.53341 0.0
H1263 H 0.39539 0.23393 0.45389 0.0
H1264 H 0.44423 0.27395 0.48706 0.0
H1265 H 0.44145 0.26285 0.56664 0.0
C1266 C 0.38475 0.24222 0.77637 0.0
C1267 C 0.39511 0.25832 0.79231 0.0
C1268 C 0.3904 0.23578 0.74217 0.0
C1269 C 0.40652 0.24523 0.72307 0.0
C1270 C 0.41687 0.26141 0.73797 0.0
C1271 C 0.41124 0.26789 0.77268 0.0
C1272 C 0.41198 0.23791 0.68674 0.0
C1273 C 0.41472 0.24429 0.6413 0.0
C1274 C 0.41138 0.22293 0.69516 0.0
C1275 C 0.41003 0.2165 0.74326 0.0
C1276 C 0.42107 0.2266 0.77793 0.0
C1277 C 0.41967 0.22066 0.82335 0.0
C1278 C 0.4073 0.2046 0.83458 0.0
C1279 C 0.39633 0.19443 0.80034 0.0
C1280 C 0.39767 0.20031 0.75484 0.0
C1281 C 0.42087 0.20086 0.50499 0.0
C1282 C 0.40497 0.18689 0.49855 0.0
C1283 C 0.42359 0.21157 0.54176 0.0
C1284 C 0.41052 0.20828 0.5729 0.0
C1285 C 0.39473 0.19429 0.5669 0.0
C1286 C 0.39192 0.18376 0.52978 0.0
C1287 C 0.41294 0.21951 0.61144 0.0
C1288 C 0.41167 0.2138 0.6572 0.0
C1289 C 0.41513 0.23519 0.60336 0.0
C1290 C 0.41674 0.24185 0.55567 0.0
C1291 C 0.40372 0.23384 0.52357 0.0
C1292 C 0.40542 0.24018 0.47854 0.0
C1293 C 0.42003 0.25461 0.46537 0.0
C1294 C 0.43294 0.26275 0.49727 0.0
C1295 C 0.43131 0.25644 0.54233 0.0
H1296 H 0.42132 0.2595 0.43049 0.0
H1297 H 0.40622 0.20004 0.86979 0.0
H1298 H 0.85765 0.19249 0.79837 0.0
H1299 H 0.87565 0.2054 0.72992 0.0
H1300 H 0.90504 0.18368 0.76577 0.0
H1301 H 0.88675 0.17026 0.83366 0.0
H1302 H 0.92162 0.22229 0.74298 0.0
H1303 H 0.88835 0.16725 0.68712 0.0
H1304 H 0.86197 0.14118 0.67559 0.0
H1305 H 0.84284 0.16615 0.59564 0.0
H1306 H 0.86899 0.19248 0.60772 0.0
H1307 H 0.96555 0.25588 0.5282 0.0
H1308 H 0.9522 0.23586 0.59153 0.0
H1309 H 0.90543 0.23344 0.56491 0.0
H1310 H 0.91846 0.25315 0.50158 0.0
H1311 H 0.90066 0.20335 0.58324 0.0
H1312 H 0.93114 0.25809 0.64848 0.0
H1313 H 0.95639 0.28494 0.66268 0.0
H1314 H 0.98002 0.26108 0.72622 0.0
H1315 H 0.95496 0.23407 0.71176 0.0
C1316 C 0.86794 0.19047 0.79167 0.0
C1317 C 0.8708 0.18036 0.82111 0.0
C1318 C 0.87814 0.19779 0.75263 0.0
C1319 C 0.89153 0.19536 0.74305 0.0
C1320 C 0.89468 0.18557 0.77277 0.0
C1321 C 0.88422 0.17791 0.81128 0.0
C1322 C 0.90219 0.20329 0.70184 0.0
C1323 C 0.91734 0.21798 0.70796 0.0
C1324 C 0.89629 0.19767 0.65653 0.0
C1325 C 0.88058 0.18187 0.64876 0.0
C1326 C 0.87845 0.16722 0.66753 0.0
C1327 C 0.86355 0.15238 0.6608 0.0
C1328 C 0.85072 0.152 0.63492 0.0
C1329 C 0.85278 0.16647 0.61571 0.0
C1330 C 0.86765 0.18135 0.6225 0.0
C1331 C 0.95238 0.25097 0.53552 0.0
C1332 C 0.94313 0.25625 0.51006 0.0
C1333 C 0.94479 0.23954 0.5717 0.0
C1334 C 0.92788 0.23329 0.58301 0.0
C1335 C 0.91849 0.23809 0.5566 0.0
C1336 C 0.92603 0.24946 0.52057 0.0
C1337 C 0.92003 0.22261 0.6242 0.0
C1338 C 0.9053 0.20745 0.61813 0.0
C1339 C 0.92626 0.22785 0.66963 0.0
C1340 C 0.94128 0.24407 0.67849 0.0
C1341 C 0.94177 0.25857 0.66512 0.0
C1342 C 0.95604 0.27382 0.67327 0.0
C1343 C 0.96982 0.27471 0.69519 0.0
C1344 C 0.96935 0.26037 0.70914 0.0
C1345 C 0.95512 0.24509 0.70097 0.0
H1346 H 0.98085 0.28653 0.70149 0.0
H1347 H 0.8392 0.14049 0.62969 0.0
H1348 H 0.94825 0.71303 0.78175 0.0
H1349 H 0.92885 0.70552 0.7164 0.0
H1350 H 0.92529 0.74849 0.74082 0.0
H1351 H 0.94448 0.75607 0.80549 0.0
H1352 H 0.89448 0.7204 0.72732 0.0
H1353 H 0.95001 0.74933 0.65736 0.0
H1354 H 0.97805 0.75372 0.64033 0.0
H1355 H 0.95598 0.70646 0.5757 0.0
H1356 H 0.92777 0.70169 0.59305 0.0
H1357 H 0.86436 0.73715 0.52584 0.0
H1358 H 0.88367 0.73971 0.58682 0.0
H1359 H 0.88066 0.69503 0.54083 0.0
H1360 H 0.86139 0.69233 0.4796 0.0
H1361 H 0.9133 0.71984 0.5651 0.0
H1362 H 0.85776 0.69201 0.62805 0.0
H1363 H 0.82976 0.68794 0.64352 0.0
H1364 H 0.85161 0.73268 0.72144 0.0
H1365 H 0.87979 0.7372 0.70559 0.0
C1366 C 0.94324 0.7208 0.77328 0.0
C1367 C 0.94797 0.73518 0.79861 0.0
C1368 C 0.93223 0.71653 0.73596 0.0
C1369 C 0.92573 0.72651 0.72389 0.0
C1370 C 0.93016 0.74063 0.74973 0.0
C1371 C 0.94122 0.74498 0.78652 0.0
C1372 C 0.91456 0.72265 0.68375 0.0
C1373 C 0.89859 0.72031 0.69184 0.0
C1374 C 0.91985 0.72217 0.63768 0.0
C1375 C 0.93679 0.72507 0.62704 0.0
C1376 C 0.95113 0.73981 0.63991 0.0
C1377 C 0.96706 0.74238 0.63013 0.0
C1378 C 0.96879 0.73035 0.60708 0.0
C1379 C 0.95461 0.71575 0.59365 0.0
C1380 C 0.93865 0.71311 0.60344 0.0
C1381 C 0.86797 0.72798 0.5282 0.0
C1382 C 0.86119 0.71445 0.49816 0.0
C1383 C 0.87896 0.72944 0.56312 0.0
C1384 C 0.88337 0.71743 0.56851 0.0
C1385 C 0.87734 0.70437 0.53719 0.0
C1386 C 0.86627 0.70284 0.50241 0.0
C1387 C 0.89342 0.71803 0.6087 0.0
C1388 C 0.90911 0.71969 0.60063 0.0
C1389 C 0.88787 0.71784 0.65488 0.0
C1390 C 0.87091 0.71501 0.66531 0.0
C1391 C 0.85661 0.70105 0.64821 0.0
C1392 C 0.8407 0.69865 0.65706 0.0
C1393 C 0.83891 0.71006 0.68339 0.0
C1394 C 0.85302 0.72386 0.70102 0.0
C1395 C 0.86897 0.72634 0.69212 0.0
H1396 H 0.82659 0.70819 0.6902 0.0
H1397 H 0.98113 0.73237 0.59951 0.0
H1398 H 0.86748 0.74153 0.30708 0.0
H1399 H 0.88561 0.74741 0.23949 0.0
H1400 H 0.8591 0.69613 0.20363 0.0
H1401 H 0.84096 0.68997 0.27247 0.0
H1402 H 0.892 0.7088 0.1984 0.0
H1403 H 0.85383 0.72445 0.14206 0.0
H1404 H 0.83787 0.73868 0.14511 0.0
H1405 H 0.88365 0.78522 0.14608 0.0
H1406 H 0.89991 0.77127 0.14377 0.0
H1407 H 0.92896 0.7185 0.97961 0.0
H1408 H 0.90797 0.71341 0.03895 0.0
H1409 H 0.93645 0.76399 0.08132 0.0
H1410 H 0.95758 0.76934 0.02075 0.0
H1411 H 0.90214 0.75167 0.08173 0.0
H1412 H 0.94014 0.73587 0.14049 0.0
H1413 H 0.95608 0.72161 0.1372 0.0
H1414 H 0.91029 0.67518 0.13176 0.0
H1415 H 0.89407 0.68918 0.13422 0.0
C1416 C 0.86535 0.73145 0.28478 0.0
C1417 C 0.85271 0.71524 0.29517 0.0
C1418 C 0.87572 0.73488 0.24593 0.0
C1419 C 0.87352 0.72227 0.21611 0.0
C1420 C 0.86092 0.70606 0.22618 0.0
C1421 C 0.85058 0.70256 0.26546 0.0
C1422 C 0.88492 0.72602 0.17564 0.0
C1423 C 0.89399 0.71796 0.17243 0.0
C1424 C 0.88784 0.73834 0.14259 0.0
C1425 C 0.8781 0.74679 0.14311 0.0
C1426 C 0.86051 0.73772 0.1432 0.0
C1427 C 0.8514 0.74574 0.14478 0.0
C1428 C 0.85974 0.76284 0.14592 0.0
C1429 C 0.87721 0.77197 0.14527 0.0
C1430 C 0.88637 0.76401 0.14375 0.0
C1431 C 0.93076 0.72861 0.00134 0.0
C1432 C 0.94506 0.74427 0.99617 0.0
C1433 C 0.91873 0.72566 0.03516 0.0
C1434 C 0.92087 0.73823 0.06508 0.0
C1435 C 0.93467 0.75412 0.05862 0.0
C1436 C 0.94672 0.75714 0.0242 0.0
C1437 C 0.90911 0.73439 0.10457 0.0
C1438 C 0.90004 0.74246 0.10765 0.0
C1439 C 0.90616 0.72207 0.13758 0.0
C1440 C 0.91589 0.71359 0.13715 0.0
C1441 C 0.93347 0.72262 0.13832 0.0
C1442 C 0.94255 0.71459 0.13661 0.0
C1443 C 0.9342 0.6975 0.13416 0.0
C1444 C 0.91674 0.68841 0.13361 0.0
C1445 C 0.90759 0.69639 0.1352 0.0
H1446 H 0.94126 0.6913 0.13277 0.0
H1447 H 0.85267 0.76902 0.14723 0.0
H1448 H 0.40477 0.20304 0.32927 0.0
H1449 H 0.40415 0.21743 0.25941 0.0
H1450 H 0.41488 0.18635 0.1742 0.0
H1451 H 0.41613 0.17229 0.24468 0.0
H1452 H 0.42822 0.21696 0.13578 0.0
H1453 H 0.37521 0.17493 0.19285 0.0
H1454 H 0.35313 0.15964 0.25199 0.0
H1455 H 0.34914 0.20212 0.2769 0.0
H1456 H 0.37129 0.21772 0.21814 0.0
H1457 H 0.36419 0.22676 0.98083 0.0
H1458 H 0.37018 0.21127 0.03764 0.0
H1459 H 0.41644 0.25514 0.07211 0.0
H1460 H 0.41078 0.2706 0.01497 0.0
H1461 H 0.37329 0.21367 0.12737 0.0
H1462 H 0.44584 0.24664 0.10188 0.0
H1463 H 0.46651 0.25886 0.03764 0.0
H1464 H 0.42883 0.22877 0.939 0.0
H1465 H 0.408 0.21624 0.00261 0.0
C1466 C 0.40763 0.19973 0.29574 0.0
C1467 C 0.41048 0.18663 0.29199 0.0
C1468 C 0.40715 0.20784 0.2559 0.0
C1469 C 0.40901 0.20262 0.21166 0.0
C1470 C 0.41333 0.19048 0.20807 0.0
C1471 C 0.41412 0.18253 0.24821 0.0
C1472 C 0.40445 0.20853 0.16982 0.0
C1473 C 0.41624 0.21626 0.13378 0.0
C1474 C 0.3885 0.20693 0.16639 0.0
C1475 C 0.37499 0.19753 0.20128 0.0
C1476 C 0.36968 0.18104 0.2111 0.0
C1477 C 0.35716 0.17232 0.24455 0.0
C1478 C 0.34979 0.17992 0.2683 0.0
C1479 C 0.35487 0.19625 0.25849 0.0
C1480 C 0.36738 0.20503 0.22504 0.0
C1481 C 0.37565 0.23311 0.00046 0.0
C1482 C 0.38703 0.24991 0.9932 0.0
C1483 C 0.37907 0.22423 0.03284 0.0
C1484 C 0.39389 0.23199 0.05852 0.0
C1485 C 0.40512 0.2488 0.05185 0.0
C1486 C 0.40179 0.25765 0.01935 0.0
C1487 C 0.39733 0.22279 0.09405 0.0
C1488 C 0.38526 0.21432 0.12896 0.0
C1489 C 0.41279 0.22323 0.09547 0.0
C1490 C 0.42533 0.2306 0.05705 0.0
C1491 C 0.44198 0.24258 0.06651 0.0
C1492 C 0.45373 0.24958 0.03018 0.0
C1493 C 0.44898 0.24463 0.98424 0.0
C1494 C 0.43249 0.23265 0.97455 0.0
C1495 C 0.4207 0.22561 0.01073 0.0
H1496 H 0.45809 0.25007 0.95617 0.0
H1497 H 0.34011 0.17315 0.29423 0.0
H1498 H 0.92658 0.26135 0.29334 0.0
H1499 H 0.91432 0.23915 0.23688 0.0
H1500 H 0.95447 0.22969 0.25853 0.0
H1501 H 0.96703 0.25206 0.31443 0.0
H1502 H 0.94801 0.22845 0.16912 0.0
H1503 H 0.9161 0.20398 0.30582 0.0
H1504 H 0.89952 0.20153 0.37622 0.0
H1505 H 0.86184 0.20172 0.29155 0.0
H1506 H 0.8783 0.20444 0.22065 0.0
H1507 H 0.86799 0.15144 0.0601 0.0
H1508 H 0.88768 0.16382 0.1248 0.0
H1509 H 0.90983 0.211 0.05644 0.0
H1510 H 0.89043 0.1988 0.99243 0.0
H1511 H 0.88768 0.18636 0.18051 0.0
H1512 H 0.94913 0.23528 0.08407 0.0
H1513 H 0.96602 0.23651 0.01574 0.0
H1514 H 0.94548 0.18449 0.02428 0.0
H1515 H 0.92865 0.18296 0.09311 0.0
C1516 C 0.93287 0.25461 0.28603 0.0
C1517 C 0.94776 0.25847 0.30866 0.0
C1518 C 0.92577 0.24183 0.25399 0.0
C1519 C 0.9333 0.23254 0.24429 0.0
C1520 C 0.94839 0.23662 0.2658 0.0
C1521 C 0.95555 0.24945 0.29771 0.0
C1522 C 0.92552 0.21882 0.21085 0.0
C1523 C 0.93487 0.21914 0.17174 0.0
C1524 C 0.90856 0.20625 0.21536 0.0
C1525 C 0.89849 0.20448 0.25788 0.0
C1526 C 0.90432 0.20359 0.30221 0.0
C1527 C 0.89494 0.20215 0.34221 0.0
C1528 C 0.87964 0.20148 0.33836 0.0
C1529 C 0.87368 0.20223 0.29448 0.0
C1530 C 0.88303 0.20369 0.25435 0.0
C1531 C 0.87744 0.16433 0.0584 0.0
C1532 C 0.87768 0.17422 0.02162 0.0
C1533 C 0.88861 0.17139 0.09534 0.0
C1534 C 0.90028 0.18831 0.09527 0.0
C1535 C 0.90115 0.19789 0.05694 0.0
C1536 C 0.88996 0.19093 0.02053 0.0
C1537 C 0.90991 0.19665 0.13741 0.0
C1538 C 0.90094 0.19537 0.17836 0.0
C1539 C 0.92728 0.20811 0.13495 0.0
C1540 C 0.93757 0.209 0.0938 0.0
C1541 C 0.9483 0.22411 0.07166 0.0
C1542 C 0.95785 0.22486 0.03274 0.0
C1543 C 0.95681 0.21059 0.01565 0.0
C1544 C 0.94625 0.19553 0.03749 0.0
C1545 C 0.93668 0.19472 0.07642 0.0
H1546 H 0.96421 0.21119 0.98551 0.0
H1547 H 0.8724 0.20037 0.36938 0.0
H1548 H 0.07885 0.66782 0.32929 0.0
H1549 H 0.10037 0.6925 0.36692 0.0
H1550 H 0.13804 0.68183 0.32073 0.0
H1551 H 0.11639 0.6569 0.28199 0.0
H1552 H 0.13821 0.69193 0.42267 0.0
H1553 H 0.14003 0.70986 0.26511 0.0
H1554 H 0.12721 0.71124 0.19174 0.0
H1555 H 0.10354 0.73389 0.26342 0.0
H1556 H 0.11601 0.73243 0.33737 0.0
H1557 H 0.18877 0.77153 0.52697 0.0
H1558 H 0.18012 0.74863 0.47264 0.0
H1559 H 0.13476 0.74896 0.44492 0.0
H1560 H 0.14355 0.77196 0.49719 0.0
H1561 H 0.14646 0.74515 0.36739 0.0
H1562 H 0.13739 0.72115 0.5233 0.0
H1563 H 0.14643 0.71771 0.6009 0.0
H1564 H 0.18038 0.70522 0.53694 0.0
H1565 H 0.17165 0.70877 0.45894 0.0
C1566 C 0.09167 0.67061 0.32718 0.0
C1567 C 0.09594 0.66044 0.30253 0.0
C1568 C 0.10395 0.68474 0.34866 0.0
C1569 C 0.12074 0.68899 0.34622 0.0
C1570 C 0.12511 0.67871 0.32278 0.0
C1571 C 0.11277 0.66455 0.30066 0.0
C1572 C 0.13345 0.70444 0.36786 0.0
C1573 C 0.14049 0.70369 0.41006 0.0
C1574 C 0.13608 0.71964 0.35156 0.0
C1575 C 0.12894 0.72099 0.30684 0.0
C1576 C 0.13204 0.71508 0.26528 0.0
C1577 C 0.12483 0.71588 0.22357 0.0
C1578 C 0.11455 0.72263 0.22293 0.0
C1579 C 0.11151 0.72867 0.26396 0.0
C1580 C 0.11868 0.72789 0.30576 0.0
C1581 C 0.17699 0.7667 0.50905 0.0
C1582 C 0.16682 0.77351 0.51634 0.0
C1583 C 0.17206 0.75362 0.47813 0.0
C1584 C 0.15674 0.74699 0.45481 0.0
C1585 C 0.1467 0.75391 0.46208 0.0
C1586 C 0.15171 0.76705 0.49224 0.0
C1587 C 0.1506 0.7326 0.42364 0.0
C1588 C 0.14478 0.73356 0.37944 0.0
C1589 C 0.14881 0.71755 0.43861 0.0
C1590 C 0.15405 0.71544 0.4854 0.0
C1591 C 0.14688 0.7178 0.52584 0.0
C1592 C 0.15192 0.7158 0.56986 0.0
C1593 C 0.16402 0.71131 0.57385 0.0
C1594 C 0.17105 0.70875 0.5338 0.0
C1595 C 0.16606 0.71075 0.48969 0.0
H1596 H 0.1679 0.70977 0.60796 0.0
H1597 H 0.10894 0.7232 0.19063 0.0
H1598 H 0.47378 0.46573 0.41262 0.0
H1599 H 0.44555 0.45395 0.44658 0.0
H1600 H 0.42634 0.45459 0.31065 0.0
H1601 H 0.45418 0.46523 0.27667 0.0
H1602 H 0.42411 0.46355 0.45503 0.0
H1603 H 0.38767 0.42347 0.29768 0.0
H1604 H 0.39225 0.40942 0.23181 0.0
H1605 H 0.42875 0.40506 0.31081 0.0
H1606 H 0.42422 0.41887 0.37736 0.0
H1607 H 0.33885 0.43245 0.50596 0.0
H1608 H 0.36551 0.44537 0.46312 0.0
H1609 H 0.36442 0.39932 0.46311 0.0
H1610 H 0.33744 0.38623 0.5036 0.0
H1611 H 0.37689 0.41355 0.38597 0.0
H1612 H 0.38668 0.43086 0.5457 0.0
H1613 H 0.38347 0.44325 0.6177 0.0
H1614 H 0.4021 0.48924 0.54634 0.0
H1615 H 0.40523 0.47706 0.47372 0.0
C1616 C 0.46346 0.46337 0.39035 0.0
C1617 C 0.46607 0.46683 0.34252 0.0
C1618 C 0.44741 0.45674 0.40962 0.0
C1619 C 0.43381 0.4533 0.38108 0.0
C1620 C 0.43656 0.45689 0.33326 0.0
C1621 C 0.45249 0.46322 0.31401 0.0
C1622 C 0.41668 0.44548 0.40097 0.0
C1623 C 0.41378 0.45261 0.43999 0.0
C1624 C 0.40325 0.43109 0.38162 0.0
C1625 C 0.4057 0.42233 0.34231 0.0
C1626 C 0.3966 0.41942 0.30108 0.0
C1627 C 0.3992 0.41152 0.26361 0.0
C1628 C 0.41082 0.4064 0.26707 0.0
C1629 C 0.41979 0.40908 0.30812 0.0
C1630 C 0.41721 0.41694 0.34572 0.0
C1631 C 0.34421 0.42506 0.49608 0.0
C1632 C 0.33619 0.40839 0.50829 0.0
C1633 C 0.35948 0.43247 0.47193 0.0
C1634 C 0.36718 0.42342 0.46091 0.0
C1635 C 0.35877 0.40658 0.47131 0.0
C1636 C 0.34335 0.39911 0.4945 0.0
C1637 C 0.3843 0.43151 0.44047 0.0
C1638 C 0.38719 0.4245 0.40107 0.0
C1639 C 0.39784 0.44565 0.46057 0.0
C1640 C 0.39599 0.453 0.50418 0.0
C1641 C 0.38997 0.44358 0.54529 0.0
C1642 C 0.38819 0.45057 0.58622 0.0
C1643 C 0.39253 0.46701 0.58656 0.0
C1644 C 0.39871 0.4765 0.546 0.0
C1645 C 0.4005 0.46957 0.50495 0.0
H1646 H 0.39114 0.4724 0.61828 0.0
H1647 H 0.41285 0.40033 0.23798 0.0
H1648 H 0.6734 0.95427 0.57821 0.0
H1649 H 0.65457 0.96239 0.54478 0.0
H1650 H 0.67621 0.9653 0.4086 0.0
H1651 H 0.69395 0.95596 0.44163 0.0
H1652 H 0.66468 0.99027 0.51375 0.0
H1653 H 0.6598 0.96642 0.32878 0.0
H1654 H 0.64949 0.94084 0.2841 0.0
H1655 H 0.61301 0.91406 0.39149 0.0
H1656 H 0.62375 0.93933 0.4379 0.0
H1657 H 0.66888 0.04839 0.35692 0.0
H1658 H 0.67122 0.02804 0.40267 0.0
H1659 H 0.62053 0.99153 0.36799 0.0
H1660 H 0.61841 0.01178 0.32026 0.0
H1661 H 0.63862 0.97885 0.35796 0.0
H1662 H 0.632 0.00811 0.48146 0.0
H1663 H 0.63688 0.03217 0.52697 0.0
H1664 H 0.68775 0.04514 0.54924 0.0
H1665 H 0.68326 0.02129 0.5033 0.0
C1666 C 0.67338 0.95575 0.54078 0.0
C1667 C 0.68467 0.95398 0.51217 0.0
C1668 C 0.66277 0.96058 0.5217 0.0
C1669 C 0.66372 0.9643 0.47388 0.0
C1670 C 0.67467 0.96197 0.44515 0.0
C1671 C 0.68501 0.95684 0.46413 0.0
C1672 C 0.65596 0.97355 0.45572 0.0
C1673 C 0.65872 0.98758 0.48002 0.0
C1674 C 0.64788 0.97006 0.4122 0.0
C1675 C 0.64271 0.95465 0.38697 0.0
C1676 C 0.64979 0.95499 0.34316 0.0
C1677 C 0.64393 0.94056 0.31768 0.0
C1678 C 0.6307 0.92581 0.33516 0.0
C1679 C 0.6234 0.92546 0.37829 0.0
C1680 C 0.62955 0.93977 0.40456 0.0
C1681 C 0.65817 0.03607 0.3594 0.0
C1682 C 0.64347 0.03165 0.33502 0.0
C1683 C 0.65947 0.02445 0.38589 0.0
C1684 C 0.64595 0.00828 0.38953 0.0
C1685 C 0.63112 0.00393 0.36582 0.0
C1686 C 0.62991 0.0155 0.33862 0.0
C1687 C 0.64782 0.99576 0.41537 0.0
C1688 C 0.64412 0.98127 0.39234 0.0
C1689 C 0.65452 0.99859 0.46077 0.0
C1690 C 0.6573 0.01293 0.48872 0.0
C1691 C 0.64426 0.01614 0.49583 0.0
C1692 C 0.64695 0.02974 0.52174 0.0
C1693 C 0.66262 0.04019 0.54094 0.0
C1694 C 0.67562 0.03703 0.53436 0.0
C1695 C 0.67299 0.02345 0.50845 0.0
H1696 H 0.66469 0.05071 0.56097 0.0
H1697 H 0.62604 0.91467 0.31517 0.0
H1698 H 0.67363 0.07444 0.12754 0.0
H1699 H 0.70058 0.08882 0.08821 0.0
H1700 H 0.71972 0.12434 0.19966 0.0
H1701 H 0.69373 0.10752 0.24335 0.0
H1702 H 0.71779 0.1127 0.04823 0.0
H1703 H 0.76061 0.1469 0.20218 0.0
H1704 H 0.76224 0.14407 0.28724 0.0
H1705 H 0.73285 0.09167 0.27573 0.0
H1706 H 0.73117 0.09421 0.19059 0.0
H1707 H 0.7956 0.14712 0.93533 0.0
H1708 H 0.77179 0.14435 0.97957 0.0
H1709 H 0.78385 0.12203 0.09258 0.0
H1710 H 0.80964 0.12856 0.05232 0.0
H1711 H 0.77116 0.13402 0.1318 0.0
H1712 H 0.75078 0.10116 0.99216 0.0
H1713 H 0.74794 0.09597 0.90748 0.0
H1714 H 0.73006 0.1294 0.89144 0.0
H1715 H 0.73292 0.13487 0.976 0.0
C1716 C 0.6837 0.0853 0.14363 0.0
C1717 C 0.68142 0.09043 0.1874 0.0
C1718 C 0.69913 0.09371 0.12085 0.0
C1719 C 0.71256 0.10787 0.14047 0.0
C1720 C 0.71001 0.11324 0.18389 0.0
C1721 C 0.69488 0.10404 0.20823 0.0
C1722 C 0.72914 0.11631 0.1158 0.0
C1723 C 0.72939 0.11702 0.06681 0.0
C1724 C 0.74454 0.12241 0.13924 0.0
C1725 C 0.7456 0.12076 0.19025 0.0
C1726 C 0.75453 0.13478 0.21787 0.0
C1727 C 0.75545 0.13323 0.26605 0.0
C1728 C 0.7476 0.1177 0.28689 0.0
C1729 C 0.73888 0.10369 0.25956 0.0
C1730 C 0.73793 0.10517 0.21137 0.0
C1731 C 0.79364 0.14266 0.97088 0.0
C1732 C 0.80499 0.13919 0.99184 0.0
C1733 C 0.77957 0.14034 0.99556 0.0
C1734 C 0.77549 0.13258 0.03955 0.0
C1735 C 0.78662 0.1284 0.05941 0.0
C1736 C 0.80133 0.13192 0.03615 0.0
C1737 C 0.75947 0.12809 0.06433 0.0
C1738 C 0.75947 0.12903 0.11327 0.0
C1739 C 0.74404 0.12184 0.04092 0.0
C1740 C 0.74225 0.11856 0.99019 0.0
C1741 C 0.7463 0.10744 0.97048 0.0
C1742 C 0.74469 0.10446 0.92255 0.0
C1743 C 0.73888 0.1124 0.89408 0.0
C1744 C 0.7346 0.12329 0.91352 0.0
C1745 C 0.7362 0.12633 0.96143 0.0
H1746 H 0.73764 0.11008 0.85698 0.0
H1747 H 0.74831 0.11653 0.3242 0.0
H1748 H 0.96474 0.6809 0.95856 0.0
H1749 H 0.97178 0.66412 0.00736 0.0
H1750 H 0.99726 0.70441 0.10284 0.0
H1751 H 0.99058 0.72126 0.05393 0.0
H1752 H 0.01731 0.69437 0.07338 0.0
H1753 H 0.96177 0.66923 0.13456 0.0
H1754 H 0.93102 0.65501 0.13221 0.0
H1755 H 0.92948 0.61358 0.0667 0.0
H1756 H 0.96026 0.62767 0.06785 0.0
H1757 H 0.02233 0.63613 0.24463 0.0
H1758 H 0.00621 0.6478 0.21276 0.0
H1759 H 0.02579 0.64833 0.07537 0.0
H1760 H 0.04155 0.63628 0.10704 0.0
H1761 H 0.98197 0.63771 0.13464 0.0
H1762 H 0.04028 0.6878 0.03709 0.0
H1763 H 0.071 0.70262 0.04392 0.0
H1764 H 0.06626 0.69562 0.19239 0.0
H1765 H 0.03554 0.68099 0.18649 0.0
C1766 C 0.9715 0.68601 0.99053 0.0
C1767 C 0.97735 0.70243 0.00215 0.0
C1768 C 0.97547 0.67641 0.01845 0.0
C1769 C 0.98513 0.68306 0.05859 0.0
C1770 C 0.98992 0.69909 0.07182 0.0
C1771 C 0.9861 0.70869 0.04382 0.0
C1772 C 0.99205 0.67421 0.0835 0.0
C1773 C 0.00951 0.68202 0.08699 0.0
C1774 C 0.9819 0.65814 0.10153 0.0
C1775 C 0.96337 0.6496 0.10085 0.0
C1776 C 0.9549 0.65715 0.11923 0.0
C1777 C 0.93745 0.6491 0.11819 0.0
C1778 C 0.9283 0.63342 0.09922 0.0
C1779 C 0.93658 0.62574 0.08133 0.0
C1780 C 0.95404 0.63376 0.08219 0.0
C1781 C 0.0227 0.63827 0.20743 0.0
C1782 C 0.03261 0.63482 0.17781 0.0
C1783 C 0.01358 0.64495 0.18937 0.0
C1784 C 0.01474 0.64874 0.14176 0.0
C1785 C 0.02465 0.6453 0.11215 0.0
C1786 C 0.03365 0.6385 0.13016 0.0
C1787 C 0.00706 0.65787 0.12363 0.0
C1788 C 0.9896 0.6501 0.12123 0.0
C1789 C 0.01712 0.67412 0.10727 0.0
C1790 C 0.03561 0.68314 0.11124 0.0
C1791 C 0.0458 0.68948 0.07119 0.0
C1792 C 0.06321 0.69784 0.0749 0.0
C1793 C 0.07058 0.7 0.11854 0.0
C1794 C 0.06054 0.69387 0.15859 0.0
C1795 C 0.04313 0.68552 0.15506 0.0
H1796 H 0.08406 0.70647 0.12135 0.0
H1797 H 0.91479 0.6272 0.09847 0.0
H1798 H 0.44895 0.3294 0.94784 0.0
H1799 H 0.46756 0.35333 0.99508 0.0
H1800 H 0.42482 0.3484 0.0704 0.0
H1801 H 0.40625 0.32473 0.02346 0.0
H1802 H 0.44512 0.37922 0.03698 0.0
H1803 H 0.45071 0.3377 0.11971 0.0
H1804 H 0.45776 0.31601 0.12625 0.0
H1805 H 0.50822 0.35002 0.08233 0.0
H1806 H 0.5014 0.37186 0.07492 0.0
H1807 H 0.46811 0.42516 0.23261 0.0
H1808 H 0.45866 0.40072 0.18547 0.0
H1809 H 0.50858 0.42045 0.12938 0.0
H1810 H 0.51832 0.44499 0.17838 0.0
H1811 H 0.48966 0.38477 0.14255 0.0
H1812 H 0.48432 0.42708 0.06764 0.0
H1813 H 0.47692 0.44859 0.06505 0.0
H1814 H 0.42559 0.41273 0.09506 0.0
H1815 H 0.43272 0.39104 0.09852 0.0
C1816 C 0.44357 0.33337 0.97475 0.0
C1817 C 0.42614 0.32527 0.98176 0.0
C1818 C 0.45421 0.34698 0.00175 0.0
C1819 C 0.44754 0.35261 0.03615 0.0
C1820 C 0.43019 0.34428 0.04385 0.0
C1821 C 0.4196 0.33074 0.01701 0.0
C1822 C 0.45832 0.3677 0.06275 0.0
C1823 C 0.45484 0.38041 0.06007 0.0
C1824 C 0.47139 0.36947 0.09159 0.0
C1825 C 0.47549 0.35635 0.09619 0.0
C1826 C 0.46327 0.34051 0.11103 0.0
C1827 C 0.46723 0.3282 0.11499 0.0
C1828 C 0.48341 0.33162 0.10456 0.0
C1829 C 0.49568 0.34738 0.0903 0.0
C1830 C 0.49178 0.35973 0.08624 0.0
C1831 C 0.47716 0.42414 0.21102 0.0
C1832 C 0.49385 0.43696 0.20841 0.0
C1833 C 0.47177 0.41018 0.18421 0.0
C1834 C 0.48286 0.40898 0.15328 0.0
C1835 C 0.49986 0.42123 0.153 0.0
C1836 C 0.50538 0.43519 0.18078 0.0
C1837 C 0.47594 0.3959 0.11791 0.0
C1838 C 0.48018 0.38368 0.11867 0.0
C1839 C 0.46352 0.39451 0.08705 0.0
C1840 C 0.45907 0.40744 0.08345 0.0
C1841 C 0.47146 0.42379 0.07381 0.0
C1842 C 0.46732 0.43602 0.07221 0.0
C1843 C 0.4508 0.43203 0.0799 0.0
C1844 C 0.43838 0.4158 0.08905 0.0
C1845 C 0.44246 0.40353 0.09074 0.0
H1846 H 0.44762 0.44152 0.07875 0.0
H1847 H 0.48646 0.32207 0.10765 0.0
H1848 H 0.98401 0.33839 0.40518 0.0
H1849 H 0.98743 0.36347 0.44084 0.0
H1850 H 0.98227 0.34226 0.57751 0.0
H1851 H 0.97898 0.31729 0.54183 0.0
H1852 H 0.96397 0.3591 0.56481 0.0
H1853 H 0.0194 0.36677 0.53958 0.0
H1854 H 0.04166 0.36747 0.4903 0.0
H1855 H 0.04222 0.40471 0.40392 0.0
H1856 H 0.01978 0.40405 0.45231 0.0
H1857 H 0.00567 0.42494 0.72267 0.0
H1858 H 0.99046 0.4007 0.6738 0.0
H1859 H 0.0113 0.43094 0.55059 0.0
H1860 H 0.02728 0.45491 0.59979 0.0
H1861 H 0.01939 0.40978 0.54798 0.0
H1862 H 0.96259 0.40009 0.55809 0.0
H1863 H 0.93651 0.39652 0.59265 0.0
H1864 H 0.93706 0.36449 0.69749 0.0
H1865 H 0.96274 0.36731 0.6621 0.0
C1866 C 0.98329 0.33905 0.44277 0.0
C1867 C 0.98073 0.32588 0.47099 0.0
C1868 C 0.98533 0.35333 0.46304 0.0
C1869 C 0.98501 0.35462 0.51174 0.0
C1870 C 0.98236 0.34139 0.53987 0.0
C1871 C 0.98054 0.32722 0.5196 0.0
C1872 C 0.98852 0.37011 0.5337 0.0
C1873 C 0.97609 0.37022 0.56139 0.0
C1874 C 0.00413 0.38467 0.52784 0.0
C1875 C 0.0178 0.38524 0.49925 0.0
C1876 C 0.02419 0.37502 0.50987 0.0
C1877 C 0.03685 0.37542 0.48214 0.0
C1878 C 0.04331 0.38609 0.44393 0.0
C1879 C 0.03718 0.39643 0.43348 0.0
C1880 C 0.0245 0.39605 0.46106 0.0
C1881 C 0.00642 0.42643 0.68511 0.0
C1882 C 0.01748 0.44171 0.66477 0.0
C1883 C 0.99763 0.41257 0.65704 0.0
C1884 C -0.0003 0.41388 0.60822 0.0
C1885 C 0.00955 0.42952 0.58805 0.0
C1886 C 0.01864 0.44323 0.61609 0.0
C1887 C 0.99476 0.39903 0.57958 0.0
C1888 C 0.00707 0.3989 0.55088 0.0
C1889 C 0.97893 0.38455 0.58376 0.0
C1890 C 0.96466 0.38413 0.60804 0.0
C1891 C 0.95721 0.39243 0.5888 0.0
C1892 C 0.94237 0.39031 0.60802 0.0
C1893 C 0.93515 0.38032 0.64733 0.0
C1894 C 0.94267 0.37226 0.66714 0.0
C1895 C 0.95727 0.37398 0.64725 0.0
H1896 H 0.92375 0.37884 0.66246 0.0
H1897 H 0.0531 0.38638 0.42248 0.0
H1898 H 0.67306 0.61952 0.70965 0.0
H1899 H 0.69821 0.62775 0.66218 0.0
H1900 H 0.70915 0.67779 0.66247 0.0
H1901 H 0.6837 0.66946 0.70786 0.0
H1902 H 0.71162 0.67011 0.57937 0.0
H1903 H 0.73186 0.66373 0.72661 0.0
H1904 H 0.73185 0.6493 0.79813 0.0
H1905 H 0.73466 0.61299 0.71572 0.0
H1906 H 0.73447 0.6271 0.64367 0.0
H1907 H 0.80506 0.70357 0.5479 0.0
H1908 H 0.77975 0.68804 0.59563 0.0
H1909 H 0.75077 0.66787 0.47097 0.0
H1910 H 0.77607 0.68419 0.42322 0.0
H1911 H 0.75634 0.65783 0.61265 0.0
H1912 H 0.71392 0.6659 0.48407 0.0
H1913 H 0.71623 0.68405 0.41912 0.0
H1914 H 0.76137 0.72334 0.47689 0.0
H1915 H 0.75921 0.70549 0.54241 0.0
C1916 C 0.681 0.63231 0.70009 0.0
C1917 C 0.67647 0.64387 0.71218 0.0
C1918 C 0.69537 0.637 0.67305 0.0
C1919 C 0.7056 0.6534 0.65874 0.0
C1920 C 0.70138 0.66504 0.67266 0.0
C1921 C 0.68689 0.6603 0.69878 0.0
C1922 C 0.72016 0.65844 0.6271 0.0
C1923 C 0.72136 0.66736 0.58672 0.0
C1924 C 0.73291 0.6549 0.63652 0.0
C1925 C 0.73294 0.64635 0.67977 0.0
C1926 C 0.73232 0.65259 0.72374 0.0
C1927 C 0.73239 0.64448 0.76437 0.0
C1928 C 0.7332 0.6302 0.76147 0.0
C1929 C 0.73399 0.62403 0.71792 0.0
C1930 C 0.73392 0.63208 0.67718 0.0
C1931 C 0.7933 0.69555 0.53093 0.0
C1932 C 0.79244 0.69462 0.48221 0.0
C1933 C 0.77889 0.68662 0.55811 0.0
C1934 C 0.76335 0.67686 0.53689 0.0
C1935 C 0.76261 0.67544 0.48807 0.0
C1936 C 0.77703 0.68457 0.46085 0.0
C1937 C 0.7479 0.66978 0.56579 0.0
C1938 C 0.74647 0.66038 0.60526 0.0
C1939 C 0.7352 0.6734 0.55663 0.0
C1940 C 0.7365 0.6843 0.51775 0.0
C1941 C 0.72431 0.67843 0.48292 0.0
C1942 C 0.72559 0.68866 0.44603 0.0
C1943 C 0.73897 0.70482 0.44379 0.0
C1944 C 0.75105 0.7108 0.47857 0.0
C1945 C 0.7498 0.70064 0.51557 0.0
H1946 H 0.73995 0.71271 0.41516 0.0
H1947 H 0.73325 0.62395 0.79296 0.0
H1948 H 0.46798 0.17352 0.44734 0.0
H1949 H 0.48708 0.1711 0.50083 0.0
H1950 H 0.44478 0.13489 0.58138 0.0
H1951 H 0.42583 0.13738 0.52902 0.0
H1952 H 0.46933 0.15585 0.63756 0.0
H1953 H 0.46417 0.12426 0.4964 0.0
H1954 H 0.46763 0.12164 0.41203 0.0
H1955 H 0.52027 0.15628 0.4216 0.0
H1956 H 0.51705 0.15922 0.50601 0.0
H1957 H 0.47019 0.08762 0.71325 0.0
H1958 H 0.46789 0.10928 0.67494 0.0
H1959 H 0.52158 0.13832 0.66048 0.0
H1960 H 0.524 0.11659 0.70029 0.0
H1961 H 0.50231 0.13215 0.57515 0.0
H1962 H 0.50663 0.1548 0.7244 0.0
H1963 H 0.50157 0.15475 0.80892 0.0
H1964 H 0.44925 0.13509 0.7851 0.0
H1965 H 0.45393 0.13477 0.70049 0.0
C1966 C 0.46281 0.16514 0.47667 0.0
C1967 C 0.44541 0.15555 0.4838 0.0
C1968 C 0.47372 0.16379 0.50717 0.0
C1969 C 0.46734 0.15279 0.54503 0.0
C1970 C 0.45 0.14355 0.55263 0.0
C1971 C 0.43916 0.14489 0.52238 0.0
C1972 C 0.47829 0.14983 0.57558 0.0
C1973 C 0.4767 0.15083 0.62401 0.0
C1974 C 0.48844 0.14389 0.55784 0.0
C1975 C 0.49034 0.14214 0.50724 0.0
C1976 C 0.47645 0.13141 0.48039 0.0
C1977 C 0.47837 0.12985 0.43262 0.0
C1978 C 0.49415 0.13884 0.41143 0.0
C1979 C 0.50805 0.14936 0.43803 0.0
C1980 C 0.50619 0.15098 0.48581 0.0
C1981 C 0.48154 0.09873 0.70263 0.0
C1982 C 0.49726 0.10047 0.70952 0.0
C1983 C 0.48021 0.11113 0.68101 0.0
C1984 C 0.49458 0.12542 0.66525 0.0
C1985 C 0.51039 0.12741 0.67283 0.0
C1986 C 0.51174 0.11506 0.69555 0.0
C1987 C 0.49244 0.13722 0.63696 0.0
C1988 C 0.49564 0.13789 0.5889 0.0
C1989 C 0.4836 0.14451 0.65503 0.0
C1990 C 0.48066 0.14477 0.70597 0.0
C1991 C 0.49403 0.15038 0.73716 0.0
C1992 C 0.49123 0.15043 0.78512 0.0
C1993 C 0.4751 0.14492 0.80237 0.0
C1994 C 0.46175 0.13938 0.77168 0.0
C1995 C 0.46447 0.1393 0.72369 0.0
H1996 H 0.47296 0.14496 0.83952 0.0
H1997 H 0.49561 0.13761 0.37444 0.0
H1998 H 0.33526 0.99767 0.98194 0.0
H1999 H 0.36108 0.0072 0.93731 0.0
H2000 H 0.3655 0.96725 0.99226 0.0
H2001 H 0.3394 0.95743 0.03654 0.0
H2002 H 0.3912 0.01803 0.9703 0.0
H2003 H 0.38722 0.95786 0.90969 0.0
H2004 H 0.36581 0.92964 0.8884 0.0
H2005 H 0.33233 0.94618 0.84999 0.0
H2006 H 0.35361 0.97451 0.87035 0.0
H2007 H 0.47086 0.038 0.89141 0.0
H2008 H 0.44374 0.02206 0.9315 0.0
H2009 H 0.41876 0.01181 0.79917 0.0
H2010 H 0.44591 0.02757 0.75916 0.0
H2011 H 0.40331 0.98533 0.85877 0.0
H2012 H 0.42345 0.04326 0.86053 0.0
H2013 H 0.44406 0.0723 0.87575 0.0
H2014 H 0.44303 0.06155 0.02158 0.0
H2015 H 0.42258 0.03238 0.00707 0.0
C2016 C 0.34164 0.99083 0.98428 0.0
C2017 C 0.33537 0.97685 0.01287 0.0
C2018 C 0.3564 0.9963 0.9588 0.0
C2019 C 0.36517 0.98792 0.96142 0.0
C2020 C 0.3588 0.97378 0.98934 0.0
C2021 C 0.34395 0.96824 0.01474 0.0
C2022 C 0.38143 0.99459 0.93684 0.0
C2023 C 0.39383 0.01084 0.94602 0.0
C2024 C 0.3848 0.98524 0.90491 0.0
C2025 C 0.37194 0.96827 0.89217 0.0
C2026 C 0.3753 0.95547 0.89661 0.0
C2027 C 0.36319 0.93946 0.88468 0.0
C2028 C 0.3477 0.93611 0.86805 0.0
C2029 C 0.34431 0.94877 0.8631 0.0
C2030 C 0.35638 0.96481 0.8749 0.0
C2031 C 0.45955 0.032 0.87105 0.0
C2032 C 0.46031 0.03353 0.8224 0.0
C2033 C 0.44413 0.02295 0.89381 0.0
C2034 C 0.42929 0.01584 0.86821 0.0
C2035 C 0.43009 0.01708 0.81942 0.0
C2036 C 0.44553 0.02603 0.79666 0.0
C2037 C 0.41296 0.00867 0.8925 0.0
C2038 C 0.40064 0.99239 0.88338 0.0
C2039 C 0.40945 0.01807 0.92378 0.0
C2040 C 0.42162 0.03562 0.93265 0.0
C2041 C 0.42771 0.04707 0.89579 0.0
C2042 C 0.43935 0.06355 0.90429 0.0
C2043 C 0.44488 0.06876 0.94959 0.0
C2044 C 0.43875 0.05749 0.9865 0.0
C2045 C 0.42713 0.04099 0.97817 0.0
H2046 H 0.4539 0.08152 0.9561 0.0
H2047 H 0.33833 0.9237 0.85887 0.0
H2048 H 0.0613 0.4484 0.85031 0.0
H2049 H 0.0793 0.44208 0.89552 0.0
H2050 H 0.12142 0.47447 0.80769 0.0
H2051 H 0.10343 0.48133 0.763 0.0
H2052 H 0.09477 0.4274 0.87197 0.0
H2053 H 0.15766 0.48916 0.87039 0.0
H2054 H 0.16791 0.5188 0.86716 0.0
H2055 H 0.1217 0.51026 0.92778 0.0
H2056 H 0.11128 0.48061 0.93194 0.0
H2057 H 0.15422 0.41012 0.95294 0.0
H2058 H 0.14165 0.42215 0.90511 0.0
H2059 H 0.14304 0.45163 0.0215 0.0
H2060 H 0.15649 0.44016 0.06893 0.0
H2061 H 0.14838 0.46835 0.94359 0.0
H2062 H 0.10746 0.41433 0.99652 0.0
H2063 H 0.09536 0.38462 0.00831 0.0
H2064 H 0.0939 0.37766 0.86016 0.0
H2065 H 0.10619 0.40738 0.84751 0.0
C2066 C 0.07441 0.45424 0.84062 0.0
C2067 C 0.08096 0.46532 0.803 0.0
C2068 C 0.08469 0.4506 0.86651 0.0
C2069 C 0.10173 0.45783 0.85518 0.0
C2070 C 0.10836 0.46893 0.81756 0.0
C2071 C 0.09807 0.47276 0.7919 0.0
C2072 C 0.11223 0.45314 0.88202 0.0
C2073 C 0.10651 0.43639 0.8875 0.0
C2074 C 0.12744 0.46483 0.9029 0.0
C2075 C 0.13363 0.48265 0.90095 0.0
C2076 C 0.14971 0.49362 0.88314 0.0
C2077 C 0.15555 0.51042 0.88114 0.0
C2078 C 0.14544 0.5164 0.8971 0.0
C2079 C 0.12949 0.5056 0.91525 0.0
C2080 C 0.12361 0.4888 0.91737 0.0
C2081 C 0.15203 0.41931 0.96815 0.0
C2082 C 0.15606 0.42405 0.01476 0.0
C2083 C 0.14482 0.42616 0.94083 0.0
C2084 C 0.14099 0.43746 0.96008 0.0
C2085 C 0.14581 0.44286 0.00599 0.0
C2086 C 0.15342 0.43627 0.03309 0.0
C2087 C 0.13086 0.44265 0.93342 0.0
C2088 C 0.13667 0.45942 0.92783 0.0
C2089 C 0.11541 0.43099 0.91361 0.0
C2090 C 0.10788 0.41309 0.92109 0.0
C2091 C 0.10464 0.40647 0.96647 0.0
C2092 C 0.09775 0.38963 0.97331 0.0
C2093 C 0.0939 0.37926 0.93501 0.0
C2094 C 0.0969 0.38571 0.88979 0.0
C2095 C 0.10382 0.40255 0.88277 0.0
H2096 H 0.08857 0.36623 0.94037 0.0
H2097 H 0.14997 0.52941 0.89549 0.0
H2098 H 0.6243 0.64662 0.90303 0.0
H2099 H 0.63083 0.67038 0.95116 0.0
H2100 H 0.63852 0.69918 0.82697 0.0
H2101 H 0.63183 0.6753 0.77889 0.0
H2102 H 0.66156 0.69432 0.94566 0.0
H2103 H 0.63783 0.73286 0.85142 0.0
H2104 H 0.61164 0.73088 0.82554 0.0
H2105 H 0.5834 0.69042 0.91939 0.0
H2106 H 0.60938 0.69193 0.94501 0.0
H2107 H 0.72073 0.77687 0.97194 0.0
H2108 H 0.69993 0.75055 0.93961 0.0
H2109 H 0.66135 0.75134 0.02241 0.0
H2110 H 0.68213 0.77801 0.05413 0.0
H2111 H 0.64993 0.73977 0.93819 0.0
H2112 H 0.67768 0.72813 0.05673 0.0
H2113 H 0.70168 0.73079 0.10011 0.0
H2114 H 0.71769 0.71544 0.97943 0.0
H2115 H 0.69392 0.71292 0.93509 0.0
C2116 C 0.62667 0.65785 0.8862 0.0
C2117 C 0.62742 0.65916 0.83745 0.0
C2118 C 0.63038 0.6714 0.91365 0.0
C2119 C 0.63528 0.68661 0.89275 0.0
C2120 C 0.63457 0.68755 0.84398 0.0
C2121 C 0.63076 0.67391 0.81646 0.0
C2122 C 0.64474 0.70186 0.92029 0.0
C2123 C 0.65886 0.70416 0.94433 0.0
C2124 C 0.64121 0.71468 0.91931 0.0
C2125 C 0.62552 0.71245 0.89986 0.0
C2126 C 0.626 0.72341 0.86606 0.0
C2127 C 0.6112 0.72239 0.85151 0.0
C2128 C 0.59588 0.71061 0.87106 0.0
C2129 C 0.59529 0.69958 0.90442 0.0
C2130 C 0.61002 0.70037 0.9185 0.0
C2131 C 0.70781 0.7715 0.98316 0.0
C2132 C 0.70307 0.77943 0.01589 0.0
C2133 C 0.69594 0.75642 0.96475 0.0
C2134 C 0.67915 0.74883 0.97928 0.0
C2135 C 0.67426 0.75695 0.01088 0.0
C2136 C 0.68614 0.77215 0.02904 0.0
C2137 C 0.66688 0.73225 0.96211 0.0
C2138 C 0.65242 0.72979 0.93982 0.0
C2139 C 0.6698 0.71906 0.96589 0.0
C2140 C 0.68407 0.72045 0.99249 0.0
C2141 C 0.68638 0.72542 0.03935 0.0
C2142 C 0.69993 0.7269 0.06412 0.0
C2143 C 0.71122 0.72332 0.04252 0.0
C2144 C 0.70895 0.71822 0.99611 0.0
C2145 C 0.69542 0.71675 0.97116 0.0
H2146 H 0.72171 0.72447 0.06175 0.0
H2147 H 0.58445 0.70993 0.86009 0.0
H2148 H 0.77378 0.99274 0.59827 0.0
H2149 H 0.79442 0.01734 0.63955 0.0
H2150 H 0.75453 0.01999 0.70912 0.0
H2151 H 0.7339 0.99538 0.66867 0.0
H2152 H 0.80014 0.04897 0.64281 0.0
H2153 H 0.76515 0.03114 0.82017 0.0
H2154 H 0.74497 0.00591 0.86233 0.0
H2155 H 0.76418 0.97914 0.7906 0.0
H2156 H 0.78474 0.00428 0.74889 0.0
H2157 H 0.81525 0.11377 0.79201 0.0
H2158 H 0.80468 0.08956 0.7431 0.0
H2159 H 0.83109 0.07221 0.82564 0.0
H2160 H 0.84183 0.0966 0.87505 0.0
H2161 H 0.79772 0.04923 0.81573 0.0
H2162 H 0.84379 0.08393 0.71631 0.0
H2163 H 0.8627 0.10912 0.67202 0.0
H2164 H 0.82179 0.10226 0.58767 0.0
H2165 H 0.80256 0.07715 0.63185 0.0
C2166 C 0.76942 0.99859 0.62231 0.0
C2167 C 0.75223 0.99206 0.63055 0.0
C2168 C 0.78122 0.01266 0.6457 0.0
C2169 C 0.77599 0.02033 0.6778 0.0
C2170 C 0.75882 0.01408 0.68503 0.0
C2171 C 0.74705 4e-05 0.66182 0.0
C2172 C 0.78834 0.03467 0.70471 0.0
C2173 C 0.79975 0.04903 0.68061 0.0
C2174 C 0.78801 0.03458 0.75404 0.0
C2175 C 0.77642 0.0196 0.78118 0.0
C2176 C 0.76521 0.01992 0.81383 0.0
C2177 C 0.75368 0.00562 0.8376 0.0
C2178 C 0.75325 0.99092 0.82907 0.0
C2179 C 0.7645 0.99052 0.79718 0.0
C2180 C 0.77611 0.0048 0.77349 0.0
C2181 C 0.819 0.10492 0.79946 0.0
C2182 C 0.82928 0.107 0.83751 0.0
C2183 C 0.81304 0.09114 0.77125 0.0
C2184 C 0.81721 0.07917 0.78056 0.0
C2185 C 0.82782 0.08139 0.81782 0.0
C2186 C 0.83395 0.0953 0.8459 0.0
C2187 C 0.80912 0.06372 0.75382 0.0
C2188 C 0.79844 0.04912 0.77797 0.0
C2189 C 0.81015 0.06362 0.70458 0.0
C2190 C 0.82171 0.07865 0.67755 0.0
C2191 C 0.83879 0.08783 0.68849 0.0
C2192 C 0.84957 0.10209 0.66336 0.0
C2193 C 0.84345 0.10727 0.62702 0.0
C2194 C 0.82652 0.09821 0.61575 0.0
C2195 C 0.81568 0.08394 0.64078 0.0
H2196 H 0.85181 0.1183 0.60757 0.0
H2197 H 0.74418 0.97985 0.84716 0.0
H2198 H 0.1452 0.79357 0.73074 0.0
H2199 H 0.11894 0.78725 0.76815 0.0
H2200 H 0.10909 0.81058 0.6532 0.0
H2201 H 0.13322 0.81308 0.61177 0.0
H2202 H 0.10621 0.79952 0.80572 0.0
H2203 H 0.07103 0.80246 0.64413 0.0
H2204 H 0.06902 0.7968 0.55971 0.0
H2205 H 0.08475 0.76193 0.58131 0.0
H2206 H 0.08672 0.76729 0.66587 0.0
H2207 H 0.02828 0.77707 0.90802 0.0
H2208 H 0.05496 0.79316 0.86641 0.0
H2209 H 0.03604 0.75755 0.75516 0.0
H2210 H 0.00873 0.74386 0.79229 0.0
H2211 H 0.05454 0.78123 0.71599 0.0
H2212 H 0.06396 0.76102 0.86093 0.0
H2213 H 0.06418 0.75806 0.94637 0.0
H2214 H 0.09624 0.81015 0.95948 0.0
H2215 H 0.09608 0.81341 0.87412 0.0
C2216 C 0.13722 0.79712 0.71349 0.0
C2217 C 0.14161 0.80468 0.66956 0.0
C2218 C 0.12226 0.79373 0.73511 0.0
C2219 C 0.11165 0.79833 0.71389 0.0
C2220 C 0.11642 0.80623 0.67017 0.0
C2221 C 0.13068 0.8084 0.64712 0.0
C2222 C 0.09549 0.79431 0.73697 0.0
C2223 C 0.09488 0.79518 0.78586 0.0
C2224 C 0.08051 0.78884 0.71182 0.0
C2225 C 0.0792 0.78542 0.66114 0.0
C2226 C 0.074 0.79355 0.63082 0.0
C2227 C 0.07289 0.79041 0.58298 0.0
C2228 C 0.07681 0.77906 0.56515 0.0
C2229 C 0.08178 0.77076 0.59515 0.0
C2230 C 0.0829 0.77385 0.64301 0.0
C2231 C 0.02968 0.77344 0.87331 0.0
C2232 C 0.01627 0.7599 0.85198 0.0
C2233 C 0.04513 0.78223 0.85019 0.0
C2234 C 0.04792 0.77654 0.80762 0.0
C2235 C 0.03444 0.76265 0.78721 0.0
C2236 C 0.01878 0.75464 0.80871 0.0
C2237 C 0.06481 0.78422 0.78487 0.0
C2238 C 0.06575 0.78492 0.73591 0.0
C2239 C 0.0797 0.78937 0.81012 0.0
C2240 C 0.07983 0.78747 0.86134 0.0
C2241 C 0.07098 0.77183 0.88212 0.0
C2242 C 0.0711 0.77011 0.93049 0.0
C2243 C 0.08017 0.78391 0.95834 0.0
C2244 C 0.08919 0.79948 0.93787 0.0
C2245 C 0.08909 0.80128 0.88952 0.0
H2246 H 0.08025 0.78255 0.99578 0.0
H2247 H 0.07597 0.77666 0.5281 0.0
H2248 H 0.31676 0.37633 0.72495 0.0
H2249 H 0.32443 0.3584 0.76361 0.0
H2250 H 0.29432 0.31983 0.66641 0.0
H2251 H 0.28931 0.33901 0.62288 0.0
H2252 H 0.31342 0.33444 0.80955 0.0
H2253 H 0.30579 0.29229 0.65599 0.0
H2254 H 0.30636 0.2925 0.5699 0.0
H2255 H 0.33933 0.34472 0.56938 0.0
H2256 H 0.33905 0.34478 0.65542 0.0
H2257 H 0.34819 0.29027 0.90494 0.0
H2258 H 0.3282 0.29627 0.86898 0.0
H2259 H 0.36006 0.31435 0.74615 0.0
H2260 H 0.37815 0.30553 0.77919 0.0
H2261 H 0.33305 0.30354 0.71585 0.0
H2262 H 0.35726 0.33902 0.84957 0.0
H2263 H 0.3638 0.34536 0.93282 0.0
H2264 H 0.31138 0.31909 0.96725 0.0
H2265 H 0.30457 0.3125 0.8842 0.0
C2266 C 0.31179 0.36399 0.71196 0.0
C2267 C 0.30193 0.35881 0.67195 0.0
C2268 C 0.31602 0.35362 0.73438 0.0
C2269 C 0.31015 0.33763 0.71802 0.0
C2270 C 0.29955 0.3322 0.67921 0.0
C2271 C 0.29616 0.34297 0.65511 0.0
C2272 C 0.3162 0.32737 0.74008 0.0
C2273 C 0.31784 0.32782 0.7888 0.0
C2274 C 0.32187 0.31847 0.71364 0.0
C2275 C 0.3222 0.31855 0.662 0.0
C2276 C 0.31317 0.3038 0.63744 0.0
C2277 C 0.31344 0.30387 0.58869 0.0
C2278 C 0.32282 0.31862 0.56419 0.0
C2279 C 0.33202 0.33332 0.58839 0.0
C2280 C 0.33181 0.33331 0.63712 0.0
C2281 C 0.35031 0.29471 0.86932 0.0
C2282 C 0.36407 0.29654 0.84371 0.0
C2283 C 0.33921 0.2987 0.84924 0.0
C2284 C 0.3426 0.30611 0.80482 0.0
C2285 C 0.35678 0.30839 0.77998 0.0
C2286 C 0.36727 0.3035 0.79902 0.0
C2287 C 0.33209 0.31229 0.78459 0.0
C2288 C 0.32893 0.31044 0.73649 0.0
C2289 C 0.32638 0.32114 0.81104 0.0
C2290 C 0.33043 0.32511 0.86088 0.0
C2291 C 0.34715 0.33455 0.87498 0.0
C2292 C 0.3509 0.33818 0.92209 0.0
C2293 C 0.33801 0.33258 0.95532 0.0
C2294 C 0.32135 0.32338 0.94149 0.0
C2295 C 0.31754 0.3197 0.89442 0.0
H2296 H 0.34094 0.3354 0.99178 0.0
H2297 H 0.323 0.31866 0.52647 0.0
H2298 H 0.02668 0.28401 0.38948 0.0
H2299 H 0.05385 0.29279 0.35172 0.0
H2300 H 0.04902 0.3283 0.27011 0.0
H2301 H 0.02218 0.31979 0.30754 0.0
H2302 H 0.06417 0.29484 0.257 0.0
H2303 H 0.08544 0.3636 0.27163 0.0
H2304 H 0.08073 0.38166 0.3234 0.0
H2305 H 0.06979 0.34835 0.43779 0.0
H2306 H 0.07467 0.33022 0.38692 0.0
H2307 H 0.12603 0.3484 0.09349 0.0
H2308 H 0.10323 0.32864 0.14406 0.0
H2309 H 0.13285 0.35281 0.26507 0.0
H2310 H 0.15491 0.37327 0.21451 0.0
H2311 H 0.10703 0.35372 0.27187 0.0
H2312 H 0.11303 0.30623 0.24745 0.0
H2313 H 0.11609 0.28528 0.20472 0.0
H2314 H 0.07439 0.27518 0.11899 0.0
H2315 H 0.0707 0.29561 0.16234 0.0
C2316 C 0.0314 0.29361 0.36327 0.0
C2317 C 0.02241 0.30135 0.35184 0.0
C2318 C 0.04684 0.29855 0.34166 0.0
C2319 C 0.05346 0.31131 0.30863 0.0
C2320 C 0.04419 0.31857 0.29599 0.0
C2321 C 0.02886 0.31369 0.31747 0.0
C2322 C 0.07041 0.3178 0.28865 0.0
C2323 C 0.07369 0.30767 0.2605 0.0
C2324 C 0.08286 0.33443 0.29414 0.0
C2325 C 0.08033 0.3455 0.32534 0.0
C2326 C 0.08214 0.36018 0.30791 0.0
C2327 C 0.07942 0.37042 0.33708 0.0
C2328 C 0.07493 0.36613 0.38383 0.0
C2329 C 0.07322 0.35163 0.40155 0.0
C2330 C 0.07595 0.34137 0.37255 0.0
C2331 C 0.12783 0.34902 0.13085 0.0
C2332 C 0.14219 0.36213 0.15034 0.0
C2333 C 0.11486 0.33764 0.15986 0.0
C2334 C 0.11623 0.33917 0.20868 0.0
C2335 C 0.13138 0.35139 0.22767 0.0
C2336 C 0.14402 0.36304 0.19883 0.0
C2337 C 0.10103 0.33086 0.23908 0.0
C2338 C 0.09788 0.34076 0.269 0.0
C2339 C 0.08889 0.31398 0.23577 0.0
C2340 C 0.09172 0.30253 0.20775 0.0
C2341 C 0.10461 0.29961 0.21925 0.0
C2342 C 0.10635 0.28773 0.19525 0.0
C2343 C 0.09552 0.27899 0.159 0.0
C2344 C 0.0828 0.28198 0.14699 0.0
C2345 C 0.08078 0.29359 0.17152 0.0
H2346 H 0.09698 0.26989 0.14027 0.0
H2347 H 0.0728 0.37406 0.40634 0.0
H2348 H 0.81882 0.7447 0.28458 0.0
H2349 H 0.81342 0.76416 0.24392 0.0
H2350 H 0.82914 0.79531 0.36478 0.0
H2351 H 0.83523 0.77606 0.40522 0.0
H2352 H 0.79292 0.77988 0.32504 0.0
H2353 H 0.85147 0.81304 0.2861 0.0
H2354 H 0.87836 0.81742 0.25575 0.0
H2355 H 0.8565 0.79972 0.12167 0.0
H2356 H 0.8294 0.79498 0.1514 0.0
H2357 H 0.76157 0.82333 0.20954 0.0
H2358 H 0.78013 0.81813 0.25686 0.0
H2359 H 0.79402 0.80106 0.13435 0.0
H2360 H 0.77666 0.80782 0.08663 0.0
H2361 H 0.81924 0.81429 0.18418 0.0
H2362 H 0.7617 0.77482 0.2189 0.0
H2363 H 0.73257 0.76517 0.24301 0.0
H2364 H 0.74941 0.7882 0.37609 0.0
H2365 H 0.77867 0.79815 0.35253 0.0
C2366 C 0.82149 0.75589 0.30205 0.0
C2367 C 0.82733 0.75892 0.34797 0.0
C2368 C 0.81851 0.76701 0.27875 0.0
C2369 C 0.82098 0.78114 0.30138 0.0
C2370 C 0.82736 0.78452 0.34675 0.0
C2371 C 0.8308 0.77357 0.36971 0.0
C2372 C 0.81452 0.79086 0.27969 0.0
C2373 C 0.79885 0.78782 0.29501 0.0
C2374 C 0.82199 0.80048 0.23932 0.0
C2375 C 0.83836 0.80356 0.22113 0.0
C2376 C 0.85235 0.80996 0.25025 0.0
C2377 C 0.86765 0.81253 0.23312 0.0
C2378 C 0.86913 0.80883 0.18683 0.0
C2379 C 0.85533 0.8026 0.15752 0.0
C2380 C 0.84001 0.79999 0.17448 0.0
C2381 C 0.76892 0.81881 0.19286 0.0
C2382 C 0.7681 0.81629 0.14465 0.0
C2383 C 0.77936 0.81566 0.21985 0.0
C2384 C 0.78822 0.8088 0.19952 0.0
C2385 C 0.78742 0.8064 0.15101 0.0
C2386 C 0.77748 0.81018 0.12375 0.0
C2387 C 0.79735 0.80309 0.22893 0.0
C2388 C 0.81344 0.80675 0.21491 0.0
C2389 C 0.78994 0.79336 0.26948 0.0
C2390 C 0.77237 0.78739 0.28376 0.0
C2391 C 0.75919 0.77791 0.25319 0.0
C2392 C 0.74266 0.77238 0.26676 0.0
C2393 C 0.73915 0.77612 0.31099 0.0
C2394 C 0.75215 0.78535 0.3418 0.0
C2395 C 0.76871 0.79093 0.32837 0.0
H2396 H 0.72634 0.77183 0.32144 0.0
H2397 H 0.88097 0.81082 0.17365 0.0
H2398 H 0.29386 0.00848 0.11872 0.0
H2399 H 0.30199 0.03262 0.16639 0.0
H2400 H 0.32137 0.01344 0.26924 0.0
H2401 H 0.30942 0.98791 0.22704 0.0
H2402 H 0.31709 0.0312 0.3131 0.0
H2403 H 0.34452 0.04272 0.16134 0.0
H2404 H 0.34601 0.04374 0.07534 0.0
H2405 H 0.32346 0.07352 0.07377 0.0
H2406 H 0.32172 0.07255 0.15978 0.0
H2407 H 0.39456 0.12169 0.284 0.0
H2408 H 0.37432 0.09516 0.25226 0.0
H2409 H 0.34386 0.08465 0.37713 0.0
H2410 H 0.36603 0.10965 0.41188 0.0
H2411 H 0.34794 0.08274 0.22203 0.0
H2412 H 0.31327 0.04681 0.38861 0.0
H2413 H 0.31882 0.04451 0.47139 0.0
H2414 H 0.37012 0.06097 0.43752 0.0
H2415 H 0.36482 0.06325 0.35452 0.0
C2416 C 0.29861 0.00897 0.15327 0.0
C2417 C 0.30017 0.99599 0.17029 0.0
C2418 C 0.30403 0.02314 0.17975 0.0
C2419 C 0.3131 0.02546 0.22091 0.0
C2420 C 0.31439 0.01226 0.23808 0.0
C2421 C 0.3077 0.99762 0.21357 0.0
C2422 C 0.32261 0.04183 0.24399 0.0
C2423 C 0.32405 0.04239 0.29282 0.0
C2424 C 0.33172 0.05672 0.2184 0.0
C2425 C 0.33278 0.05738 0.16681 0.0
C2426 C 0.33982 0.04943 0.14257 0.0
C2427 C 0.34071 0.04999 0.09387 0.0
C2428 C 0.33477 0.05864 0.0691 0.0
C2429 C 0.328 0.06679 0.093 0.0
C2430 C 0.32707 0.06624 0.1417 0.0
C2431 C 0.38358 0.11352 0.30467 0.0
C2432 C 0.38124 0.11804 0.34926 0.0
C2433 C 0.37183 0.09838 0.28636 0.0
C2434 C 0.35715 0.0876 0.31165 0.0
C2435 C 0.35506 0.0922 0.35672 0.0
C2436 C 0.36742 0.10688 0.37612 0.0
C2437 C 0.34433 0.07174 0.29032 0.0
C2438 C 0.34154 0.07145 0.24214 0.0
C2439 C 0.33543 0.05683 0.31588 0.0
C2440 C 0.33869 0.05536 0.36556 0.0
C2441 C 0.32571 0.04989 0.39888 0.0
C2442 C 0.32882 0.04861 0.4458 0.0
C2443 C 0.34482 0.05264 0.45972 0.0
C2444 C 0.35774 0.0579 0.42672 0.0
C2445 C 0.3547 0.0592 0.37975 0.0
H2446 H 0.3472 0.05165 0.49607 0.0
H2447 H 0.33546 0.05905 0.0314 0.0
loop_
_geom_bond_atom_site_label_1
_geom_bond_atom_site_label_2
_geom_bond_distance
_geom_bond_site_symmetry_2
_ccdc_geom_bond_type
Mn0 O5 2.095 . S
Mn0 O15 2.162 . S
Mn0 O16 2.297 . S
Mn0 O24 2.385 . S
Mn0 O25 2.209 . S
Mn0 O26 2.094 . S
Mn1 O6 2.121 . S
Mn1 N8 2.257 . S
Mn1 N17 2.282 . S
Mn1 O25 2.215 . S
Mn1 O27 2.117 . S
C2 O24 1.234 . S
C2 O25 1.283 . S
C3 O15 1.281 . S
C3 O16 1.236 . S
C4 O26 1.240 . S
C4 O27 1.264 . S
O5 Mn0 2.095 . S
O5 C14 1.250 . S
O6 Mn1 2.121 . S
O6 C14 1.258 . S
C7 N8 1.326 . S
C7 C11 1.460 1_455 S
C7 H13 0.929 . S
N8 Mn1 2.257 . S
N8 C7 1.326 . S
N8 C12 1.362 1_455 S
C9 C10 1.258 . S
C9 C12 1.431 . S
C9 C29 1.449 . S
C10 C9 1.258 . S
C10 C11 1.477 . S
C10 H30 0.931 . S
C11 C7 1.460 1_655 S
C11 C10 1.477 . S
C11 H31 0.930 . S
C12 N8 1.362 1_655 S
C12 C9 1.431 . S
C12 C22 1.476 1_655 S
H13 C7 0.929 . S
C14 O5 1.250 . S
C14 O6 1.258 . S
O15 Mn0 2.162 . S
O15 C3 1.281 . S
O16 Mn0 2.297 . S
O16 C3 1.236 . S
N17 Mn1 2.282 . S
N17 C18 1.328 . S
N17 C22 1.318 . S
C18 N17 1.328 . S
C18 C19 1.457 . S
C18 H23 0.929 . S
C19 C18 1.457 . S
C19 C20 1.291 . S
C19 H32 0.931 . S
C20 C19 1.291 . S
C20 C21 1.373 1_455 S
C20 H33 0.903 1_455 S
C21 C20 1.373 1_655 S
C21 C22 1.396 1_655 S
C21 C28 1.403 . S
C22 C12 1.476 1_455 S
C22 N17 1.318 . S
C22 C21 1.396 1_455 S
H23 C18 0.929 . S
O24 Mn0 2.385 . S
O24 C2 1.234 . S
O25 Mn0 2.209 . S
O25 Mn1 2.215 . S
O25 C2 1.283 . S
O26 Mn0 2.094 . S
O26 C4 1.240 . S
O27 Mn1 2.117 . S
O27 C4 1.264 . S
C28 C21 1.403 . S
C28 C29 1.399 . S
C28 H34 0.929 . S
C29 C9 1.449 . S
C29 C28 1.399 . S
C29 H35 0.930 . S
H30 C10 0.931 . S
H31 C11 0.930 . S
H32 C19 0.931 . S
H33 C20 0.903 1_655 S
H34 C28 0.929 . S
H35 C29 0.930 . S
Mn36 O41 2.095 . S
Mn36 O51 2.162 . S
Mn36 O52 2.297 . S
Mn36 O60 2.385 . S
Mn36 O61 2.209 . S
Mn36 O62 2.094 . S
Mn37 O42 2.121 . S
Mn37 N44 2.257 . S
Mn37 N53 2.282 . S
Mn37 O61 2.215 . S
Mn37 O63 2.117 . S
C38 O60 1.234 . S
C38 O61 1.283 . S
C39 O51 1.281 . S
C39 O52 1.236 . S
C40 O62 1.240 . S
C40 O63 1.264 . S
O41 Mn36 2.095 . S
O41 C50 1.250 . S
O42 Mn37 2.121 . S
O42 C50 1.258 . S
C43 N44 1.326 . S
C43 C47 1.460 . S
C43 H49 0.929 . S
N44 Mn37 2.257 . S
N44 C43 1.326 . S
N44 C48 1.362 . S
C45 C46 1.258 . S
C45 C48 1.431 . S
C45 C65 1.449 . S
C46 C45 1.258 . S
C46 C47 1.477 . S
C46 H66 0.931 . S
C47 C43 1.460 . S
C47 C46 1.477 . S
C47 H67 0.930 . S
C48 N44 1.362 . S
C48 C45 1.431 . S
C48 C58 1.476 . S
H49 C43 0.929 . S
C50 O41 1.250 . S
C50 O42 1.258 . S
O51 Mn36 2.162 . S
O51 C39 1.281 . S
O52 Mn36 2.297 . S
O52 C39 1.236 . S
N53 Mn37 2.282 . S
N53 C54 1.328 . S
N53 C58 1.318 . S
C54 N53 1.328 . S
C54 C55 1.457 . S
C54 H59 0.929 . S
C55 C54 1.457 . S
C55 C56 1.291 . S
C55 H68 0.931 . S
C56 C55 1.291 . S
C56 C57 1.373 . S
C56 H69 0.929 . S
C57 C56 1.373 . S
C57 C58 1.396 . S
C57 C64 1.403 . S
C58 C48 1.476 . S
C58 N53 1.318 . S
C58 C57 1.396 . S
H59 C54 0.929 . S
O60 Mn36 2.385 . S
O60 C38 1.234 . S
O61 Mn36 2.209 . S
O61 Mn37 2.215 . S
O61 C38 1.283 . S
O62 Mn36 2.094 . S
O62 C40 1.240 . S
O63 Mn37 2.117 . S
O63 C40 1.264 . S
C64 C57 1.403 . S
C64 C65 1.399 . S
C64 H70 0.929 . S
C65 C45 1.449 . S
C65 C64 1.399 . S
C65 H71 0.930 . S
H66 C46 0.931 . S
H67 C47 0.930 . S
H68 C55 0.931 . S
H69 C56 0.929 . S
H70 C64 0.929 . S
H71 C65 0.930 . S
Mn72 O77 2.095 . S
Mn72 O87 2.162 . S
Mn72 O88 2.297 . S
Mn72 O96 2.385 . S
Mn72 O97 2.209 . S
Mn72 O98 2.094 . S
Mn73 O78 2.121 . S
Mn73 N80 2.257 . S
Mn73 N89 2.282 . S
Mn73 O97 2.215 . S
Mn73 O99 2.117 . S
C74 O96 1.234 . S
C74 O97 1.283 . S
C75 O87 1.281 . S
C75 O88 1.236 . S
C76 O98 1.240 . S
C76 O99 1.264 . S
O77 Mn72 2.095 . S
O77 C86 1.250 . S
O78 Mn73 2.121 . S
O78 C86 1.258 . S
C79 N80 1.326 . S
C79 C83 1.460 . S
C79 H85 0.929 . S
N80 Mn73 2.257 . S
N80 C79 1.326 . S
N80 C84 1.362 . S
C81 C82 1.258 . S
C81 C84 1.431 . S
C81 C101 1.449 . S
C82 C81 1.258 . S
C82 C83 1.477 . S
C82 H102 0.931 . S
C83 C79 1.460 . S
C83 C82 1.477 . S
C83 H103 0.930 . S
C84 N80 1.362 . S
C84 C81 1.431 . S
C84 C94 1.476 . S
H85 C79 0.929 . S
C86 O77 1.250 . S
C86 O78 1.258 . S
O87 Mn72 2.162 . S
O87 C75 1.281 . S
O88 Mn72 2.297 . S
O88 C75 1.236 . S
N89 Mn73 2.282 . S
N89 C90 1.328 . S
N89 C94 1.318 . S
C90 N89 1.328 . S
C90 C91 1.457 . S
C90 H95 0.929 . S
C91 C90 1.457 . S
C91 C92 1.291 . S
C91 H104 0.931 . S
C92 C91 1.291 . S
C92 C93 1.373 . S
C92 H105 0.929 . S
C93 C92 1.373 . S
C93 C94 1.396 . S
C93 C100 1.403 . S
C94 C84 1.476 . S
C94 N89 1.318 . S
C94 C93 1.396 . S
H95 C90 0.929 . S
O96 Mn72 2.385 . S
O96 C74 1.234 . S
O97 Mn72 2.209 . S
O97 Mn73 2.215 . S
O97 C74 1.283 . S
O98 Mn72 2.094 . S
O98 C76 1.240 . S
O99 Mn73 2.117 . S
O99 C76 1.264 . S
C100 C93 1.403 . S
C100 C101 1.399 . S
C100 H106 0.929 . S
C101 C81 1.449 . S
C101 C100 1.399 . S
C101 H107 0.930 . S
H102 C82 0.931 . S
H103 C83 0.930 . S
H104 C91 0.931 . S
H105 C92 0.929 . S
H106 C100 0.929 . S
H107 C101 0.930 . S
Mn108 O113 2.095 . S
Mn108 O123 2.162 . S
Mn108 O124 2.297 . S
Mn108 O132 2.385 . S
Mn108 O133 2.209 . S
Mn108 O134 2.094 . S
Mn109 O114 2.121 . S
Mn109 N116 2.257 . S
Mn109 N125 2.282 . S
Mn109 O133 2.215 . S
Mn109 O135 2.117 . S
C110 O132 1.234 . S
C110 O133 1.283 . S
C111 O123 1.281 . S
C111 O124 1.236 . S
C112 O134 1.240 . S
C112 O135 1.264 . S
O113 Mn108 2.095 . S
O113 C122 1.250 . S
O114 Mn109 2.121 . S
O114 C122 1.258 . S
C115 N116 1.319 1_655 S
C115 C119 1.476 . S
C115 H121 0.922 1_655 S
N116 Mn109 2.257 . S
N116 C115 1.319 1_455 S
N116 C120 1.362 1_455 S
C117 C118 1.258 . S
C117 C120 1.431 . S
C117 C137 1.449 . S
C118 C117 1.258 . S
C118 C119 1.477 . S
C118 H138 0.931 . S
C119 C115 1.476 . S
C119 C118 1.477 . S
C119 H139 0.930 . S
C120 N116 1.362 1_655 S
C120 C117 1.431 . S
C120 C130 1.476 1_655 S
H121 C115 0.922 1_455 S
C122 O113 1.250 . S
C122 O114 1.258 . S
O123 Mn108 2.162 . S
O123 C111 1.281 . S
O124 Mn108 2.297 . S
O124 C111 1.236 . S
N125 Mn109 2.282 . S
N125 C126 1.328 . S
N125 C130 1.318 . S
C126 N125 1.328 . S
C126 C127 1.457 . S
C126 H131 0.929 . S
C127 C126 1.457 . S
C127 C128 1.291 . S
C127 H140 0.931 . S
C128 C127 1.291 . S
C128 C129 1.373 1_455 S
C128 H141 0.929 1_455 S
C129 C128 1.373 1_655 S
C129 C130 1.396 1_655 S
C129 C136 1.403 . S
C130 C120 1.476 1_455 S
C130 N125 1.318 . S
C130 C129 1.396 1_455 S
H131 C126 0.929 . S
O132 Mn108 2.385 . S
O132 C110 1.234 . S
O133 Mn108 2.209 . S
O133 Mn109 2.215 . S
O133 C110 1.283 . S
O134 Mn108 2.094 . S
O134 C112 1.240 . S
O135 Mn109 2.117 . S
O135 C112 1.264 . S
C136 C129 1.403 . S
C136 C137 1.399 . S
C136 H142 0.929 . S
C137 C117 1.449 . S
C137 C136 1.399 . S
C137 H143 0.930 . S
H138 C118 0.931 . S
H139 C119 0.930 . S
H140 C127 0.931 . S
H141 C128 0.929 1_655 S
H142 C136 0.929 . S
H143 C137 0.930 . S
Mn144 O149 2.095 . S
Mn144 O159 2.162 . S
Mn144 O160 2.297 . S
Mn144 O168 2.385 . S
Mn144 O169 2.209 . S
Mn144 O170 2.094 . S
Mn145 O150 2.121 . S
Mn145 N152 2.257 . S
Mn145 N161 2.282 . S
Mn145 O169 2.215 . S
Mn145 O171 2.117 . S
C146 O168 1.234 . S
C146 O169 1.283 . S
C147 O159 1.281 . S
C147 O160 1.236 . S
C148 O170 1.240 . S
C148 O171 1.264 . S
O149 Mn144 2.095 . S
O149 C158 1.250 . S
O150 Mn145 2.121 . S
O150 C158 1.258 . S
C151 N152 1.326 . S
C151 C155 1.460 . S
C151 H157 0.929 . S
N152 Mn145 2.257 . S
N152 C151 1.326 . S
N152 C156 1.362 . S
C153 C154 1.258 . S
C153 C156 1.431 . S
C153 C173 1.449 . S
C154 C153 1.258 . S
C154 C155 1.477 . S
C154 H174 0.931 . S
C155 C151 1.460 . S
C155 C154 1.477 . S
C155 H175 0.930 . S
C156 N152 1.362 . S
C156 C153 1.431 . S
C156 C166 1.476 . S
H157 C151 0.929 . S
C158 O149 1.250 . S
C158 O150 1.258 . S
O159 Mn144 2.162 . S
O159 C147 1.281 . S
O160 Mn144 2.297 . S
O160 C147 1.236 . S
N161 Mn145 2.282 . S
N161 C162 1.328 . S
N161 C166 1.318 . S
C162 N161 1.328 . S
C162 C163 1.457 . S
C162 H167 0.929 . S
C163 C162 1.457 . S
C163 C164 1.291 . S
C163 H176 0.931 . S
C164 C163 1.291 . S
C164 C165 1.373 . S
C164 H177 0.929 . S
C165 C164 1.373 . S
C165 C166 1.396 . S
C165 C172 1.403 . S
C166 C156 1.476 . S
C166 N161 1.318 . S
C166 C165 1.396 . S
H167 C162 0.929 . S
O168 Mn144 2.385 . S
O168 C146 1.234 . S
O169 Mn144 2.209 . S
O169 Mn145 2.215 . S
O169 C146 1.283 . S
O170 Mn144 2.094 . S
O170 C148 1.240 . S
O171 Mn145 2.117 . S
O171 C148 1.264 . S
C172 C165 1.403 . S
C172 C173 1.399 . S
C172 H178 0.929 . S
C173 C153 1.449 . S
C173 C172 1.399 . S
C173 H179 0.930 . S
H174 C154 0.931 . S
H175 C155 0.930 . S
H176 C163 0.931 . S
H177 C164 0.929 . S
H178 C172 0.929 . S
H179 C173 0.930 . S
Mn180 O185 2.095 . S
Mn180 O195 2.162 . S
Mn180 O196 2.297 . S
Mn180 O204 2.385 . S
Mn180 O205 2.209 . S
Mn180 O206 2.094 . S
Mn181 O186 2.121 . S
Mn181 N188 2.257 . S
Mn181 N197 2.282 . S
Mn181 O205 2.215 . S
Mn181 O207 2.117 . S
C182 O204 1.234 . S
C182 O205 1.283 . S
C183 O195 1.281 . S
C183 O196 1.236 . S
C184 O206 1.240 . S
C184 O207 1.264 . S
O185 Mn180 2.095 . S
O185 C194 1.250 . S
O186 Mn181 2.121 . S
O186 C194 1.258 . S
C187 N188 1.326 . S
C187 C191 1.460 1_545 S
C187 H193 0.929 . S
N188 Mn181 2.257 . S
N188 C187 1.326 . S
N188 C192 1.342 1_545 S
C189 C190 1.258 . S
C189 C192 1.477 . S
C189 C209 1.449 . S
C190 C189 1.258 . S
C190 C191 1.477 . S
C190 H210 0.931 . S
C191 C187 1.460 1_565 S
C191 C190 1.477 . S
C191 H211 0.930 . S
C192 N188 1.342 1_565 S
C192 C189 1.477 . S
C192 C202 1.450 1_565 S
H193 C187 0.929 . S
C194 O185 1.250 . S
C194 O186 1.258 . S
O195 Mn180 2.162 . S
O195 C183 1.281 . S
O196 Mn180 2.297 . S
O196 C183 1.236 . S
N197 Mn181 2.282 . S
N197 C198 1.328 . S
N197 C202 1.318 . S
C198 N197 1.328 . S
C198 C199 1.457 . S
C198 H203 0.929 . S
C199 C198 1.457 . S
C199 C200 1.291 . S
C199 H212 0.931 . S
C200 C199 1.291 . S
C200 C201 1.373 1_545 S
C200 H213 0.922 1_545 S
C201 C200 1.373 1_565 S
C201 C202 1.396 1_565 S
C201 C208 1.403 . S
C202 C192 1.450 1_545 S
C202 N197 1.318 . S
C202 C201 1.396 1_545 S
H203 C198 0.929 . S
O204 Mn180 2.385 . S
O204 C182 1.234 . S
O205 Mn180 2.209 . S
O205 Mn181 2.215 . S
O205 C182 1.283 . S
O206 Mn180 2.094 . S
O206 C184 1.240 . S
O207 Mn181 2.117 . S
O207 C184 1.264 . S
C208 C201 1.403 . S
C208 C209 1.399 . S
C208 H214 0.929 . S
C209 C189 1.449 . S
C209 C208 1.399 . S
C209 H215 0.930 . S
H210 C190 0.931 . S
H211 C191 0.930 . S
H212 C199 0.931 . S
H213 C200 0.922 1_565 S
H214 C208 0.929 . S
H215 C209 0.930 . S
Mn216 O221 2.095 . S
Mn216 O231 2.162 . S
Mn216 O232 2.297 . S
Mn216 O240 2.385 . S
Mn216 O241 2.209 . S
Mn216 O242 2.094 . S
Mn217 O222 2.121 . S
Mn217 N224 2.257 . S
Mn217 N233 2.282 . S
Mn217 O241 2.215 . S
Mn217 O243 2.117 . S
C218 O240 1.234 . S
C218 O241 1.283 . S
C219 O231 1.281 . S
C219 O232 1.236 . S
C220 O242 1.240 . S
C220 O243 1.264 . S
O221 Mn216 2.095 . S
O221 C230 1.250 . S
O222 Mn217 2.121 . S
O222 C230 1.258 . S
C223 N224 1.326 . S
C223 C227 1.460 . S
C223 H229 0.929 . S
N224 Mn217 2.257 . S
N224 C223 1.326 . S
N224 C228 1.362 . S
C225 C226 1.258 . S
C225 C228 1.431 . S
C225 C245 1.449 . S
C226 C225 1.258 . S
C226 C227 1.477 . S
C226 H246 0.931 . S
C227 C223 1.460 . S
C227 C226 1.477 . S
C227 H247 0.930 . S
C228 N224 1.362 . S
C228 C225 1.431 . S
C228 C238 1.476 . S
H229 C223 0.929 . S
C230 O221 1.250 . S
C230 O222 1.258 . S
O231 Mn216 2.162 . S
O231 C219 1.281 . S
O232 Mn216 2.297 . S
O232 C219 1.236 . S
N233 Mn217 2.282 . S
N233 C234 1.328 . S
N233 C238 1.318 . S
C234 N233 1.328 . S
C234 C235 1.457 . S
C234 H239 0.929 . S
C235 C234 1.457 . S
C235 C236 1.291 . S
C235 H248 0.931 . S
C236 C235 1.291 . S
C236 C237 1.373 . S
C236 H249 0.929 . S
C237 C236 1.373 . S
C237 C238 1.396 . S
C237 C244 1.403 . S
C238 C228 1.476 . S
C238 N233 1.318 . S
C238 C237 1.396 . S
H239 C234 0.929 . S
O240 Mn216 2.385 . S
O240 C218 1.234 . S
O241 Mn216 2.209 . S
O241 Mn217 2.215 . S
O241 C218 1.283 . S
O242 Mn216 2.094 . S
O242 C220 1.240 . S
O243 Mn217 2.117 . S
O243 C220 1.264 . S
C244 C237 1.403 . S
C244 C245 1.399 . S
C244 H250 0.929 . S
C245 C225 1.449 . S
C245 C244 1.399 . S
C245 H251 0.930 . S
H246 C226 0.931 . S
H247 C227 0.930 . S
H248 C235 0.931 . S
H249 C236 0.929 . S
H250 C244 0.929 . S
H251 C245 0.930 . S
Mn252 O257 2.095 . S
Mn252 O267 2.162 . S
Mn252 O268 2.297 . S
Mn252 O276 2.385 . S
Mn252 O277 2.209 . S
Mn252 O278 2.094 . S
Mn253 O258 2.121 . S
Mn253 N260 2.257 . S
Mn253 N269 2.282 . S
Mn253 O277 2.215 . S
Mn253 O279 2.117 . S
C254 O276 1.234 . S
C254 O277 1.283 . S
C255 O267 1.281 . S
C255 O268 1.236 . S
C256 O278 1.240 . S
C256 O279 1.264 . S
O257 Mn252 2.095 . S
O257 C266 1.250 . S
O258 Mn253 2.121 . S
O258 C266 1.258 . S
C259 N260 1.326 . S
C259 C263 1.460 . S
C259 H265 0.929 . S
N260 Mn253 2.257 . S
N260 C259 1.326 . S
N260 C264 1.362 . S
C261 C262 1.258 . S
C261 C264 1.431 . S
C261 C281 1.449 . S
C262 C261 1.258 . S
C262 C263 1.477 . S
C262 H282 0.931 . S
C263 C259 1.460 . S
C263 C262 1.477 . S
C263 H283 0.930 . S
C264 N260 1.362 . S
C264 C261 1.431 . S
C264 C274 1.476 . S
H265 C259 0.929 . S
C266 O257 1.250 . S
C266 O258 1.258 . S
O267 Mn252 2.162 . S
O267 C255 1.281 . S
O268 Mn252 2.297 . S
O268 C255 1.236 . S
N269 Mn253 2.282 . S
N269 C270 1.328 . S
N269 C274 1.318 . S
C270 N269 1.328 . S
C270 C271 1.457 . S
C270 H275 0.929 . S
C271 C270 1.457 . S
C271 C272 1.291 . S
C271 H284 0.931 . S
C272 C271 1.291 . S
C272 C273 1.373 . S
C272 H285 0.929 . S
C273 C272 1.373 . S
C273 C274 1.396 . S
C273 C280 1.403 . S
C274 C264 1.476 . S
C274 N269 1.318 . S
C274 C273 1.396 . S
H275 C270 0.929 . S
O276 Mn252 2.385 . S
O276 C254 1.234 . S
O277 Mn252 2.209 . S
O277 Mn253 2.215 . S
O277 C254 1.283 . S
O278 Mn252 2.094 . S
O278 C256 1.240 . S
O279 Mn253 2.117 . S
O279 C256 1.264 . S
C280 C273 1.403 . S
C280 C281 1.399 . S
C280 H286 0.929 . S
C281 C261 1.449 . S
C281 C280 1.399 . S
C281 H287 0.930 . S
H282 C262 0.931 . S
H283 C263 0.930 . S
H284 C271 0.931 . S
H285 C272 0.929 . S
H286 C280 0.929 . S
H287 C281 0.930 . S
Mn288 O293 2.095 . S
Mn288 O303 2.162 . S
Mn288 O304 2.297 . S
Mn288 O312 2.385 . S
Mn288 O313 2.209 . S
Mn288 O314 2.094 . S
Mn289 O294 2.121 . S
Mn289 N296 2.257 . S
Mn289 N305 2.282 . S
Mn289 O313 2.215 . S
Mn289 O315 2.117 . S
C290 O312 1.234 . S
C290 O313 1.283 . S
C291 O303 1.281 . S
C291 O304 1.236 . S
C292 O314 1.240 . S
C292 O315 1.264 . S
O293 Mn288 2.095 . S
O293 C302 1.250 . S
O294 Mn289 2.121 . S
O294 C302 1.258 . S
C295 N296 1.326 . S
C295 C299 1.460 . S
C295 H301 0.929 . S
N296 Mn289 2.257 . S
N296 C295 1.326 . S
N296 C300 1.362 . S
C297 C298 1.258 . S
C297 C300 1.431 . S
C297 C317 1.449 . S
C298 C297 1.258 . S
C298 C299 1.477 . S
C298 H318 0.931 . S
C299 C295 1.460 . S
C299 C298 1.477 . S
C299 H319 0.930 . S
C300 N296 1.362 . S
C300 C297 1.431 . S
C300 C310 1.476 . S
H301 C295 0.929 . S
C302 O293 1.250 . S
C302 O294 1.258 . S
O303 Mn288 2.162 . S
O303 C291 1.281 . S
O304 Mn288 2.297 . S
O304 C291 1.236 . S
N305 Mn289 2.282 . S
N305 C306 1.328 . S
N305 C310 1.318 . S
C306 N305 1.328 . S
C306 C307 1.457 . S
C306 H311 0.929 . S
C307 C306 1.457 . S
C307 C308 1.291 . S
C307 H320 0.931 . S
C308 C307 1.291 . S
C308 C309 1.373 . S
C308 H321 0.929 . S
C309 C308 1.373 . S
C309 C310 1.396 . S
C309 C316 1.403 . S
C310 C300 1.476 . S
C310 N305 1.318 . S
C310 C309 1.396 . S
H311 C306 0.929 . S
O312 Mn288 2.385 . S
O312 C290 1.234 . S
O313 Mn288 2.209 . S
O313 Mn289 2.215 . S
O313 C290 1.283 . S
O314 Mn288 2.094 . S
O314 C292 1.240 . S
O315 Mn289 2.117 . S
O315 C292 1.264 . S
C316 C309 1.403 . S
C316 C317 1.399 . S
C316 H322 0.929 . S
C317 C297 1.449 . S
C317 C316 1.399 . S
C317 H323 0.930 . S
H318 C298 0.931 . S
H319 C299 0.930 . S
H320 C307 0.931 . S
H321 C308 0.929 . S
H322 C316 0.929 . S
H323 C317 0.930 . S
Mn324 O329 2.095 . S
Mn324 O339 2.162 . S
Mn324 O340 2.297 . S
Mn324 O348 2.385 . S
Mn324 O349 2.209 . S
Mn324 O350 2.094 . S
Mn325 O330 2.121 . S
Mn325 N332 2.257 . S
Mn325 N341 2.282 . S
Mn325 O349 2.215 . S
Mn325 O351 2.117 . S
C326 O348 1.234 . S
C326 O349 1.283 . S
C327 O339 1.281 . S
C327 O340 1.236 . S
C328 O350 1.240 . S
C328 O351 1.264 . S
O329 Mn324 2.095 . S
O329 C338 1.250 . S
O330 Mn325 2.121 . S
O330 C338 1.258 . S
C331 N332 1.326 . S
C331 C335 1.460 . S
C331 H337 0.929 . S
N332 Mn325 2.257 . S
N332 C331 1.326 . S
N332 C336 1.362 . S
C333 C334 1.258 . S
C333 C336 1.431 . S
C333 C353 1.449 . S
C334 C333 1.258 . S
C334 C335 1.477 . S
C334 H354 0.931 . S
C335 C331 1.460 . S
C335 C334 1.477 . S
C335 H355 0.930 1_554 S
C336 N332 1.362 . S
C336 C333 1.431 . S
C336 C346 1.476 . S
H337 C331 0.929 . S
C338 O329 1.250 . S
C338 O330 1.258 . S
O339 Mn324 2.162 . S
O339 C327 1.281 . S
O340 Mn324 2.297 . S
O340 C327 1.236 . S
N341 Mn325 2.282 . S
N341 C342 1.328 . S
N341 C346 1.318 . S
C342 N341 1.328 . S
C342 C343 1.457 . S
C342 H347 0.929 . S
C343 C342 1.457 . S
C343 C344 1.291 . S
C343 H356 0.931 . S
C344 C343 1.291 . S
C344 C345 1.373 . S
C344 H357 0.929 . S
C345 C344 1.373 . S
C345 C346 1.396 . S
C345 C352 1.403 . S
C346 C336 1.476 . S
C346 N341 1.318 . S
C346 C345 1.396 . S
H347 C342 0.929 . S
O348 Mn324 2.385 . S
O348 C326 1.234 . S
O349 Mn324 2.209 . S
O349 Mn325 2.215 . S
O349 C326 1.283 . S
O350 Mn324 2.094 . S
O350 C328 1.240 . S
O351 Mn325 2.117 . S
O351 C328 1.264 . S
C352 C345 1.403 . S
C352 C353 1.399 . S
C352 H358 0.929 . S
C353 C333 1.449 . S
C353 C352 1.399 . S
C353 H359 0.930 . S
H354 C334 0.931 . S
H355 C335 0.930 1_556 S
H356 C343 0.931 . S
H357 C344 0.929 . S
H358 C352 0.929 . S
H359 C353 0.930 . S
Mn360 O365 2.095 . S
Mn360 O375 2.162 . S
Mn360 O376 2.297 . S
Mn360 O384 2.385 . S
Mn360 O385 2.209 . S
Mn360 O386 2.094 . S
Mn361 O366 2.121 . S
Mn361 N368 2.257 . S
Mn361 N377 2.282 . S
Mn361 O385 2.215 . S
Mn361 O387 2.117 . S
C362 O384 1.234 . S
C362 O385 1.283 . S
C363 O375 1.281 . S
C363 O376 1.236 . S
C364 O386 1.240 . S
C364 O387 1.264 . S
O365 Mn360 2.095 . S
O365 C374 1.250 . S
O366 Mn361 2.121 . S
O366 C374 1.258 . S
C367 N368 1.326 . S
C367 C371 1.460 . S
C367 H373 0.929 . S
N368 Mn361 2.257 . S
N368 C367 1.326 . S
N368 C372 1.362 . S
C369 C370 1.277 . S
C369 C372 1.431 . S
C369 C389 1.449 1_565 S
C370 C369 1.277 . S
C370 C371 1.515 . S
C370 H390 0.876 1_565 S
C371 C367 1.460 . S
C371 C370 1.515 . S
C371 H391 0.930 . S
C372 N368 1.362 . S
C372 C369 1.431 . S
C372 C382 1.476 . S
H373 C367 0.929 . S
C374 O365 1.250 . S
C374 O366 1.258 . S
O375 Mn360 2.162 . S
O375 C363 1.281 . S
O376 Mn360 2.297 . S
O376 C363 1.236 . S
N377 Mn361 2.282 . S
N377 C378 1.328 . S
N377 C382 1.318 . S
C378 N377 1.328 . S
C378 C379 1.457 . S
C378 H383 0.929 . S
C379 C378 1.457 . S
C379 C380 1.291 . S
C379 H392 0.931 . S
C380 C379 1.291 . S
C380 C381 1.373 . S
C380 H393 0.930 . S
C381 C380 1.373 . S
C381 C382 1.396 . S
C381 C388 1.403 1_565 S
C382 C372 1.476 . S
C382 N377 1.318 . S
C382 C381 1.396 . S
H383 C378 0.929 . S
O384 Mn360 2.385 . S
O384 C362 1.234 . S
O385 Mn360 2.209 . S
O385 Mn361 2.215 . S
O385 C362 1.283 . S
O386 Mn360 2.094 . S
O386 C364 1.240 . S
O387 Mn361 2.117 . S
O387 C364 1.264 . S
C388 C381 1.403 1_545 S
C388 C389 1.399 . S
C388 H394 0.929 . S
C389 C369 1.449 1_545 S
C389 C388 1.399 . S
C389 H395 0.930 . S
H390 C370 0.876 1_545 S
H391 C371 0.930 . S
H392 C379 0.931 . S
H393 C380 0.930 . S
H394 C388 0.929 . S
H395 C389 0.930 . S
Mn396 O401 2.095 . S
Mn396 O411 2.162 . S
Mn396 O412 2.297 . S
Mn396 O420 2.385 . S
Mn396 O421 2.209 . S
Mn396 O422 2.094 . S
Mn397 O402 2.121 . S
Mn397 N404 2.257 . S
Mn397 N413 2.282 . S
Mn397 O421 2.215 . S
Mn397 O423 2.117 . S
C398 O420 1.234 . S
C398 O421 1.283 . S
C399 O411 1.281 . S
C399 O412 1.236 . S
C400 O422 1.240 . S
C400 O423 1.264 . S
O401 Mn396 2.095 . S
O401 C410 1.250 . S
O402 Mn397 2.121 . S
O402 C410 1.258 . S
C403 N404 1.326 . S
C403 C407 1.460 . S
C403 H409 0.929 . S
N404 Mn397 2.257 . S
N404 C403 1.326 . S
N404 C408 1.362 . S
C405 C406 1.258 . S
C405 C408 1.431 . S
C405 C425 1.449 . S
C406 C405 1.258 . S
C406 C407 1.477 . S
C406 H426 0.931 . S
C407 C403 1.460 . S
C407 C406 1.477 . S
C407 H427 0.930 . S
C408 N404 1.362 . S
C408 C405 1.431 . S
C408 C418 1.476 . S
H409 C403 0.929 . S
C410 O401 1.250 . S
C410 O402 1.258 . S
O411 Mn396 2.162 . S
O411 C399 1.281 . S
O412 Mn396 2.297 . S
O412 C399 1.236 . S
N413 Mn397 2.282 . S
N413 C414 1.328 . S
N413 C418 1.318 . S
C414 N413 1.328 . S
C414 C415 1.457 . S
C414 H419 0.929 . S
C415 C414 1.457 . S
C415 C416 1.291 . S
C415 H428 0.931 . S
C416 C415 1.291 . S
C416 C417 1.373 . S
C416 H429 0.929 . S
C417 C416 1.373 . S
C417 C418 1.396 . S
C417 C424 1.403 . S
C418 C408 1.476 . S
C418 N413 1.318 . S
C418 C417 1.396 . S
H419 C414 0.929 . S
O420 Mn396 2.385 . S
O420 C398 1.234 . S
O421 Mn396 2.209 . S
O421 Mn397 2.215 . S
O421 C398 1.283 . S
O422 Mn396 2.094 . S
O422 C400 1.240 . S
O423 Mn397 2.117 . S
O423 C400 1.264 . S
C424 C417 1.403 . S
C424 C425 1.399 . S
C424 H430 0.929 . S
C425 C405 1.449 . S
C425 C424 1.399 . S
C425 H431 0.930 . S
H426 C406 0.931 . S
H427 C407 0.930 . S
H428 C415 0.931 . S
H429 C416 0.929 . S
H430 C424 0.929 . S
H431 C425 0.930 . S
Mn432 O437 2.095 . S
Mn432 O447 2.162 . S
Mn432 O448 2.297 . S
Mn432 O456 2.385 . S
Mn432 O457 2.209 . S
Mn432 O458 2.094 . S
Mn433 O438 2.121 . S
Mn433 N440 2.257 . S
Mn433 N449 2.282 . S
Mn433 O457 2.215 . S
Mn433 O459 2.117 . S
C434 O456 1.234 . S
C434 O457 1.283 . S
C435 O447 1.281 . S
C435 O448 1.236 . S
C436 O458 1.240 . S
C436 O459 1.264 . S
O437 Mn432 2.095 . S
O437 C446 1.250 . S
O438 Mn433 2.121 . S
O438 C446 1.258 . S
C439 N440 1.326 . S
C439 C443 1.460 . S
C439 H445 0.929 . S
N440 Mn433 2.257 . S
N440 C439 1.326 . S
N440 C444 1.362 . S
C441 C442 1.258 . S
C441 C444 1.431 . S
C441 C461 1.449 . S
C442 C441 1.258 . S
C442 C443 1.477 . S
C442 H462 0.931 . S
C443 C439 1.460 . S
C443 C442 1.477 . S
C443 H463 0.930 . S
C444 N440 1.362 . S
C444 C441 1.431 . S
C444 C454 1.476 . S
H445 C439 0.929 . S
C446 O437 1.250 . S
C446 O438 1.258 . S
O447 Mn432 2.162 . S
O447 C435 1.281 . S
O448 Mn432 2.297 . S
O448 C435 1.236 . S
N449 Mn433 2.282 . S
N449 C450 1.328 . S
N449 C454 1.318 . S
C450 N449 1.328 . S
C450 C451 1.457 . S
C450 H455 0.929 . S
C451 C450 1.457 . S
C451 C452 1.291 . S
C451 H464 0.931 . S
C452 C451 1.291 . S
C452 C453 1.373 . S
C452 H465 0.929 . S
C453 C452 1.373 . S
C453 C454 1.396 . S
C453 C460 1.403 . S
C454 C444 1.476 . S
C454 N449 1.318 . S
C454 C453 1.396 . S
H455 C450 0.929 . S
O456 Mn432 2.385 . S
O456 C434 1.234 . S
O457 Mn432 2.209 . S
O457 Mn433 2.215 . S
O457 C434 1.283 . S
O458 Mn432 2.094 . S
O458 C436 1.240 . S
O459 Mn433 2.117 . S
O459 C436 1.264 . S
C460 C453 1.403 . S
C460 C461 1.399 . S
C460 H466 0.929 . S
C461 C441 1.449 . S
C461 C460 1.399 . S
C461 H467 0.930 . S
H462 C442 0.931 . S
H463 C443 0.930 . S
H464 C451 0.931 . S
H465 C452 0.929 . S
H466 C460 0.929 . S
H467 C461 0.930 . S
Mn468 O473 2.095 . S
Mn468 O483 2.162 . S
Mn468 O484 2.297 . S
Mn468 O492 2.385 . S
Mn468 O493 2.209 . S
Mn468 O494 2.099 . S
Mn469 O474 2.121 . S
Mn469 N476 2.257 . S
Mn469 N485 2.282 1_556 S
Mn469 O493 2.215 . S
Mn469 O495 2.117 1_556 S
C470 O492 1.234 . S
C470 O493 1.283 . S
C471 O483 1.281 . S
C471 O484 1.236 . S
C472 O494 1.237 1_554 S
C472 O495 1.264 . S
O473 Mn468 2.095 . S
O473 C482 1.250 . S
O474 Mn469 2.121 . S
O474 C482 1.258 . S
C475 N476 1.326 . S
C475 C479 1.460 . S
C475 H481 0.929 . S
N476 Mn469 2.257 . S
N476 C475 1.326 . S
N476 C480 1.362 . S
C477 C478 1.258 . S
C477 C480 1.431 . S
C477 C497 1.449 1_556 S
C478 C477 1.258 . S
C478 C479 1.477 . S
C478 H498 0.931 . S
C479 C475 1.460 . S
C479 C478 1.477 . S
C479 H499 0.930 . S
C480 N476 1.362 . S
C480 C477 1.431 . S
C480 C490 1.476 1_556 S
H481 C475 0.929 . S
C482 O473 1.250 . S
C482 O474 1.258 . S
O483 Mn468 2.162 . S
O483 C471 1.281 . S
O484 Mn468 2.297 . S
O484 C471 1.236 . S
N485 Mn469 2.282 1_554 S
N485 C486 1.328 . S
N485 C490 1.318 . S
C486 N485 1.328 . S
C486 C487 1.457 . S
C486 H491 0.929 . S
C487 C486 1.457 . S
C487 C488 1.291 . S
C487 H500 0.931 . S
C488 C487 1.291 . S
C488 C489 1.373 . S
C488 H501 0.929 . S
C489 C488 1.373 . S
C489 C490 1.396 . S
C489 C496 1.403 . S
C490 C480 1.476 1_554 S
C490 N485 1.318 . S
C490 C489 1.396 . S
H491 C486 0.929 . S
O492 Mn468 2.385 . S
O492 C470 1.234 . S
O493 Mn468 2.209 . S
O493 Mn469 2.215 . S
O493 C470 1.283 . S
O494 Mn468 2.099 . S
O494 C472 1.237 1_556 S
O495 Mn469 2.117 1_554 S
O495 C472 1.264 . S
C496 C489 1.403 . S
C496 C497 1.399 . S
C496 H502 0.929 . S
C497 C477 1.449 1_554 S
C497 C496 1.399 . S
C497 H503 0.930 . S
H498 C478 0.931 . S
H499 C479 0.930 . S
H500 C487 0.931 . S
H501 C488 0.929 . S
H502 C496 0.929 . S
H503 C497 0.930 . S
Mn504 O509 2.095 . S
Mn504 O519 2.162 . S
Mn504 O520 2.297 . S
Mn504 O528 2.385 . S
Mn504 O529 2.209 . S
Mn504 O530 2.094 . S
Mn505 O510 2.121 . S
Mn505 N512 2.257 . S
Mn505 N521 2.282 . S
Mn505 O529 2.215 . S
Mn505 O531 2.117 . S
C506 O528 1.234 . S
C506 O529 1.283 . S
C507 O519 1.281 . S
C507 O520 1.236 . S
C508 O530 1.240 . S
C508 O531 1.264 . S
O509 Mn504 2.095 . S
O509 C518 1.250 . S
O510 Mn505 2.121 . S
O510 C518 1.258 . S
C511 N512 1.326 . S
C511 C515 1.460 1_655 S
C511 H517 0.929 . S
N512 Mn505 2.257 . S
N512 C511 1.326 . S
N512 C516 1.362 1_655 S
C513 C514 1.258 . S
C513 C516 1.431 . S
C513 C533 1.449 . S
C514 C513 1.258 . S
C514 C515 1.477 . S
C514 H534 0.931 . S
C515 C511 1.460 1_455 S
C515 C514 1.477 . S
C515 H535 0.930 . S
C516 N512 1.362 1_455 S
C516 C513 1.431 . S
C516 C526 1.476 . S
H517 C511 0.929 . S
C518 O509 1.250 . S
C518 O510 1.258 . S
O519 Mn504 2.162 . S
O519 C507 1.281 . S
O520 Mn504 2.297 . S
O520 C507 1.236 . S
N521 Mn505 2.282 . S
N521 C522 1.328 . S
N521 C526 1.318 1_655 S
C522 N521 1.328 . S
C522 C523 1.457 . S
C522 H527 0.929 . S
C523 C522 1.457 . S
C523 C524 1.291 1_655 S
C523 H536 0.931 . S
C524 C523 1.291 1_455 S
C524 C525 1.373 . S
C524 H537 0.929 . S
C525 C524 1.373 . S
C525 C526 1.396 . S
C525 C532 1.403 . S
C526 C516 1.476 . S
C526 N521 1.318 1_455 S
C526 C525 1.396 . S
H527 C522 0.929 . S
O528 Mn504 2.385 . S
O528 C506 1.234 . S
O529 Mn504 2.209 . S
O529 Mn505 2.215 . S
O529 C506 1.283 . S
O530 Mn504 2.094 . S
O530 C508 1.240 . S
O531 Mn505 2.117 . S
O531 C508 1.264 . S
C532 C525 1.403 . S
C532 C533 1.399 . S
C532 H538 0.929 . S
C533 C513 1.449 . S
C533 C532 1.399 . S
C533 H539 0.930 . S
H534 C514 0.931 . S
H535 C515 0.930 . S
H536 C523 0.931 . S
H537 C524 0.929 . S
H538 C532 0.929 . S
H539 C533 0.930 . S
Mn540 O545 2.095 . S
Mn540 O555 2.162 . S
Mn540 O556 2.297 . S
Mn540 O564 2.385 . S
Mn540 O565 2.209 . S
Mn540 O566 2.094 . S
Mn541 O546 2.121 . S
Mn541 N548 2.257 . S
Mn541 N557 2.282 . S
Mn541 O565 2.215 . S
Mn541 O567 2.117 . S
C542 O564 1.234 . S
C542 O565 1.283 . S
C543 O555 1.281 . S
C543 O556 1.236 . S
C544 O566 1.240 . S
C544 O567 1.264 . S
O545 Mn540 2.095 . S
O545 C554 1.250 . S
O546 Mn541 2.121 . S
O546 C554 1.258 . S
C547 N548 1.326 . S
C547 C551 1.460 . S
C547 H553 0.929 . S
N548 Mn541 2.257 . S
N548 C547 1.326 . S
N548 C552 1.362 . S
C549 C550 1.258 . S
C549 C552 1.431 . S
C549 C569 1.449 . S
C550 C549 1.258 . S
C550 C551 1.477 . S
C550 H570 0.931 . S
C551 C547 1.460 . S
C551 C550 1.477 . S
C551 H571 0.930 . S
C552 N548 1.362 . S
C552 C549 1.431 . S
C552 C562 1.476 . S
H553 C547 0.929 . S
C554 O545 1.250 . S
C554 O546 1.258 . S
O555 Mn540 2.162 . S
O555 C543 1.281 . S
O556 Mn540 2.297 . S
O556 C543 1.236 . S
N557 Mn541 2.282 . S
N557 C558 1.328 . S
N557 C562 1.318 . S
C558 N557 1.328 . S
C558 C559 1.457 . S
C558 H563 0.929 . S
C559 C558 1.457 . S
C559 C560 1.291 . S
C559 H572 0.931 . S
C560 C559 1.291 . S
C560 C561 1.373 . S
C560 H573 0.929 . S
C561 C560 1.373 . S
C561 C562 1.396 . S
C561 C568 1.403 . S
C562 C552 1.476 . S
C562 N557 1.318 . S
C562 C561 1.396 . S
H563 C558 0.929 . S
O564 Mn540 2.385 . S
O564 C542 1.234 . S
O565 Mn540 2.209 . S
O565 Mn541 2.215 . S
O565 C542 1.283 . S
O566 Mn540 2.094 . S
O566 C544 1.240 . S
O567 Mn541 2.117 . S
O567 C544 1.264 . S
C568 C561 1.403 . S
C568 C569 1.399 . S
C568 H574 0.929 . S
C569 C549 1.449 . S
C569 C568 1.399 . S
C569 H575 0.930 . S
H570 C550 0.931 . S
H571 C551 0.930 . S
H572 C559 0.931 . S
H573 C560 0.929 . S
H574 C568 0.929 . S
H575 C569 0.930 . S
Mn576 O581 2.095 . S
Mn576 O591 2.162 . S
Mn576 O592 2.297 . S
Mn576 O600 2.385 . S
Mn576 O601 2.209 . S
Mn576 O602 2.094 . S
Mn577 O582 2.121 . S
Mn577 N584 2.257 . S
Mn577 N593 2.282 . S
Mn577 O601 2.215 . S
Mn577 O603 2.117 . S
C578 O600 1.234 . S
C578 O601 1.283 . S
C579 O591 1.281 1_455 S
C579 O592 1.236 1_455 S
C580 O602 1.240 . S
C580 O603 1.264 . S
O581 Mn576 2.095 . S
O581 C590 1.250 . S
O582 Mn577 2.121 . S
O582 C590 1.258 . S
C583 N584 1.326 . S
C583 C587 1.460 . S
C583 H589 0.929 . S
N584 Mn577 2.257 . S
N584 C583 1.326 . S
N584 C588 1.362 . S
C585 C586 1.258 . S
C585 C588 1.431 . S
C585 C605 1.449 . S
C586 C585 1.258 . S
C586 C587 1.477 . S
C586 H606 0.931 . S
C587 C583 1.460 . S
C587 C586 1.477 . S
C587 H607 0.930 . S
C588 N584 1.362 . S
C588 C585 1.431 . S
C588 C598 1.476 . S
H589 C583 0.929 . S
C590 O581 1.250 . S
C590 O582 1.258 . S
O591 Mn576 2.162 . S
O591 C579 1.281 1_655 S
O592 Mn576 2.297 . S
O592 C579 1.236 1_655 S
N593 Mn577 2.282 . S
N593 C594 1.328 . S
N593 C598 1.318 . S
C594 N593 1.328 . S
C594 C595 1.457 . S
C594 H599 0.929 . S
C595 C594 1.457 . S
C595 C596 1.291 . S
C595 H608 0.931 . S
C596 C595 1.291 . S
C596 C597 1.373 . S
C596 H609 0.929 . S
C597 C596 1.373 . S
C597 C598 1.396 . S
C597 C604 1.403 . S
C598 C588 1.476 . S
C598 N593 1.318 . S
C598 C597 1.396 . S
H599 C594 0.929 . S
O600 Mn576 2.385 . S
O600 C578 1.234 . S
O601 Mn576 2.209 . S
O601 Mn577 2.215 . S
O601 C578 1.283 . S
O602 Mn576 2.094 . S
O602 C580 1.240 . S
O603 Mn577 2.117 . S
O603 C580 1.264 . S
C604 C597 1.403 . S
C604 C605 1.399 . S
C604 H610 0.929 . S
C605 C585 1.449 . S
C605 C604 1.399 . S
C605 H611 0.930 . S
H606 C586 0.931 . S
H607 C587 0.930 . S
H608 C595 0.931 . S
H609 C596 0.929 . S
H610 C604 0.929 . S
H611 C605 0.930 . S
Mn612 O617 2.095 . S
Mn612 O627 2.162 . S
Mn612 O628 2.297 . S
Mn612 O636 2.385 . S
Mn612 O637 2.209 . S
Mn612 O638 2.094 . S
Mn613 O618 2.121 . S
Mn613 N620 2.257 . S
Mn613 N629 2.282 . S
Mn613 O637 2.215 . S
Mn613 O639 2.117 . S
C614 O636 1.234 . S
C614 O637 1.283 . S
C615 O627 1.281 . S
C615 O628 1.236 . S
C616 O638 1.240 . S
C616 O639 1.264 . S
O617 Mn612 2.095 . S
O617 C626 1.250 . S
O618 Mn613 2.121 . S
O618 C626 1.258 . S
C619 N620 1.326 . S
C619 C623 1.460 . S
C619 H625 0.929 . S
N620 Mn613 2.257 . S
N620 C619 1.326 . S
N620 C624 1.362 . S
C621 C622 1.258 . S
C621 C624 1.431 . S
C621 C641 1.449 . S
C622 C621 1.258 . S
C622 C623 1.477 . S
C622 H642 0.931 . S
C623 C619 1.460 . S
C623 C622 1.477 . S
C623 H643 0.930 . S
C624 N620 1.362 . S
C624 C621 1.431 . S
C624 C634 1.476 . S
H625 C619 0.929 . S
C626 O617 1.250 . S
C626 O618 1.258 . S
O627 Mn612 2.162 . S
O627 C615 1.281 . S
O628 Mn612 2.297 . S
O628 C615 1.236 . S
N629 Mn613 2.282 . S
N629 C630 1.328 . S
N629 C634 1.318 . S
C630 N629 1.328 . S
C630 C631 1.457 . S
C630 H635 0.929 . S
C631 C630 1.457 . S
C631 C632 1.291 . S
C631 H644 0.931 . S
C632 C631 1.291 . S
C632 C633 1.373 . S
C632 H645 0.929 . S
C633 C632 1.373 . S
C633 C634 1.396 . S
C633 C640 1.403 . S
C634 C624 1.476 . S
C634 N629 1.318 . S
C634 C633 1.396 . S
H635 C630 0.929 . S
O636 Mn612 2.385 . S
O636 C614 1.234 . S
O637 Mn612 2.209 . S
O637 Mn613 2.215 . S
O637 C614 1.283 . S
O638 Mn612 2.094 . S
O638 C616 1.240 . S
O639 Mn613 2.117 . S
O639 C616 1.264 . S
C640 C633 1.403 . S
C640 C641 1.399 . S
C640 H646 0.929 . S
C641 C621 1.449 . S
C641 C640 1.399 . S
C641 H647 0.930 . S
H642 C622 0.931 . S
H643 C623 0.930 . S
H644 C631 0.931 . S
H645 C632 0.929 . S
H646 C640 0.929 . S
H647 C641 0.930 . S
H648 C666 0.951 . S
H649 C668 0.951 . S
H650 C670 0.950 . S
H651 C671 0.950 . S
H652 C673 0.950 1_554 S
H653 C676 0.950 . S
H654 C677 0.950 . S
H655 C679 0.950 . S
H656 C680 0.950 . S
H657 C681 0.951 . S
H658 C683 0.951 . S
H659 C685 0.950 . S
H660 C686 0.950 . S
H661 C688 0.950 . S
H662 C691 0.950 . S
H663 C692 0.950 . S
H664 C694 0.950 . S
H665 C695 0.950 . S
C666 H648 0.951 . S
C666 C667 1.366 . S
C666 C668 1.388 . S
C667 C666 1.366 . S
C667 C671 1.385 . S
C668 H649 0.951 . S
C668 C666 1.388 . S
C668 C669 1.366 . S
C669 C668 1.366 . S
C669 C670 1.414 . S
C669 C672 1.499 . S
C670 H650 0.950 . S
C670 C669 1.414 . S
C670 C671 1.374 . S
C671 H651 0.950 . S
C671 C667 1.385 . S
C671 C670 1.374 . S
C672 C669 1.499 . S
C672 C673 1.373 . S
C672 C674 1.389 . S
C673 H652 0.950 1_556 S
C673 C672 1.373 . S
C673 C689 1.377 1_556 S
C674 C672 1.389 . S
C674 C675 1.524 . S
C674 C688 1.377 . S
C675 C674 1.524 . S
C675 C676 1.397 . S
C675 C680 1.363 . S
C676 H653 0.950 . S
C676 C675 1.397 . S
C676 C677 1.334 . S
C677 H654 0.950 . S
C677 C676 1.334 . S
C677 C678 1.287 . S
C678 C677 1.287 . S
C678 C679 1.524 . S
C678 H697 0.913 . S
C679 H655 0.950 . S
C679 C678 1.524 . S
C679 C680 1.415 . S
C680 H656 0.950 . S
C680 C675 1.363 . S
C680 C679 1.415 . S
C681 H657 0.951 . S
C681 C682 1.366 . S
C681 C683 1.388 . S
C682 C681 1.366 . S
C682 C686 1.385 . S
C683 H658 0.951 . S
C683 C681 1.388 . S
C683 C684 1.366 . S
C684 C683 1.366 . S
C684 C685 1.414 . S
C684 C687 1.499 . S
C685 H659 0.950 . S
C685 C684 1.414 . S
C685 C686 1.374 . S
C686 H660 0.950 . S
C686 C682 1.385 . S
C686 C685 1.374 . S
C687 C684 1.499 . S
C687 C688 1.373 1_554 S
C687 C689 1.389 . S
C688 H661 0.950 . S
C688 C674 1.377 . S
C688 C687 1.373 1_556 S
C689 C673 1.377 1_554 S
C689 C687 1.389 . S
C689 C690 1.524 . S
C690 C689 1.524 . S
C690 C691 1.397 . S
C690 C695 1.363 . S
C691 H662 0.950 . S
C691 C690 1.397 . S
C691 C692 1.334 . S
C692 H663 0.950 . S
C692 C691 1.334 . S
C692 C693 1.287 . S
C693 C692 1.287 . S
C693 C694 1.524 . S
C693 H696 0.999 . S
C694 H664 0.950 . S
C694 C693 1.524 . S
C694 C695 1.415 . S
C695 H665 0.950 . S
C695 C690 1.363 . S
C695 C694 1.415 . S
H696 C693 0.999 . S
H697 C678 0.913 . S
H698 C716 0.951 . S
H699 C718 0.951 . S
H700 C720 0.950 . S
H701 C721 0.950 . S
H702 C723 0.950 . S
H703 C726 0.950 . S
H704 C727 0.950 . S
H705 C729 0.950 . S
H706 C730 0.950 . S
H707 C731 0.951 . S
H708 C733 0.951 . S
H709 C735 0.950 . S
H710 C736 0.950 . S
H711 C738 0.950 . S
H712 C741 0.950 . S
H713 C742 0.950 . S
H714 C744 0.950 . S
H715 C745 0.950 . S
C716 H698 0.951 . S
C716 C717 1.366 . S
C716 C718 1.388 . S
C717 C716 1.366 . S
C717 C721 1.385 . S
C718 H699 0.951 . S
C718 C716 1.388 . S
C718 C719 1.366 . S
C719 C718 1.366 . S
C719 C720 1.414 . S
C719 C722 1.499 . S
C720 H700 0.950 . S
C720 C719 1.414 . S
C720 C721 1.374 . S
C721 H701 0.950 . S
C721 C717 1.385 . S
C721 C720 1.374 . S
C722 C719 1.499 . S
C722 C723 1.373 1_556 S
C722 C724 1.389 . S
C723 H702 0.950 . S
C723 C722 1.373 1_554 S
C723 C739 1.377 . S
C724 C722 1.389 . S
C724 C725 1.524 . S
C724 C738 1.377 . S
C725 C724 1.524 . S
C725 C726 1.397 . S
C725 C730 1.363 . S
C726 H703 0.950 . S
C726 C725 1.397 . S
C726 C727 1.334 . S
C727 H704 0.950 . S
C727 C726 1.334 . S
C727 C728 1.287 . S
C728 C727 1.287 . S
C728 C729 1.524 . S
C728 H747 0.913 . S
C729 H705 0.950 . S
C729 C728 1.524 . S
C729 C730 1.415 . S
C730 H706 0.950 . S
C730 C725 1.363 . S
C730 C729 1.415 . S
C731 H707 0.951 . S
C731 C732 1.366 . S
C731 C733 1.388 . S
C732 C731 1.366 . S
C732 C736 1.385 . S
C733 H708 0.951 . S
C733 C731 1.388 . S
C733 C734 1.366 . S
C734 C733 1.366 . S
C734 C735 1.414 . S
C734 C737 1.499 . S
C735 H709 0.950 . S
C735 C734 1.414 . S
C735 C736 1.374 . S
C736 H710 0.950 . S
C736 C732 1.385 . S
C736 C735 1.374 . S
C737 C734 1.499 . S
C737 C738 1.373 1_554 S
C737 C739 1.389 . S
C738 H711 0.950 . S
C738 C724 1.377 . S
C738 C737 1.373 1_556 S
C739 C723 1.377 . S
C739 C737 1.389 . S
C739 C740 1.524 . S
C740 C739 1.524 . S
C740 C741 1.397 . S
C740 C745 1.363 . S
C741 H712 0.950 . S
C741 C740 1.397 . S
C741 C742 1.334 . S
C742 H713 0.950 . S
C742 C741 1.334 . S
C742 C743 1.287 . S
C743 C742 1.287 . S
C743 C744 1.524 . S
C743 H746 0.999 . S
C744 H714 0.950 . S
C744 C743 1.524 . S
C744 C745 1.415 . S
C745 H715 0.950 . S
C745 C740 1.363 . S
C745 C744 1.415 . S
H746 C743 0.999 . S
H747 C728 0.913 . S
H748 C766 0.951 . S
H749 C768 0.951 . S
H750 C770 0.950 . S
H751 C771 0.950 . S
H752 C773 0.950 . S
H753 C776 0.950 . S
H754 C777 0.950 . S
H755 C779 0.950 . S
H756 C780 0.950 . S
H757 C781 0.951 . S
H758 C783 0.951 . S
H759 C785 0.950 . S
H760 C786 0.950 . S
H761 C788 0.950 . S
H762 C791 0.950 . S
H763 C792 0.950 . S
H764 C794 0.950 . S
H765 C795 0.950 . S
C766 H748 0.951 . S
C766 C767 1.366 . S
C766 C768 1.388 . S
C767 C766 1.366 . S
C767 C771 1.385 . S
C768 H749 0.951 . S
C768 C766 1.388 . S
C768 C769 1.366 . S
C769 C768 1.366 . S
C769 C770 1.414 . S
C769 C772 1.499 . S
C770 H750 0.950 . S
C770 C769 1.414 . S
C770 C771 1.374 . S
C771 H751 0.950 . S
C771 C767 1.385 . S
C771 C770 1.374 . S
C772 C769 1.499 . S
C772 C773 1.373 1_554 S
C772 C774 1.389 . S
C773 H752 0.950 . S
C773 C772 1.373 1_556 S
C773 C789 1.377 . S
C774 C772 1.389 . S
C774 C775 1.524 . S
C774 C788 1.377 . S
C775 C774 1.524 . S
C775 C776 1.397 . S
C775 C780 1.363 . S
C776 H753 0.950 . S
C776 C775 1.397 . S
C776 C777 1.334 . S
C777 H754 0.950 . S
C777 C776 1.334 . S
C777 C778 1.287 . S
C778 C777 1.287 . S
C778 C779 1.524 . S
C778 H797 0.913 . S
C779 H755 0.950 . S
C779 C778 1.524 . S
C779 C780 1.415 . S
C780 H756 0.950 . S
C780 C775 1.363 . S
C780 C779 1.415 . S
C781 H757 0.951 . S
C781 C782 1.366 . S
C781 C783 1.388 . S
C782 C781 1.366 . S
C782 C786 1.385 . S
C783 H758 0.951 . S
C783 C781 1.388 . S
C783 C784 1.366 . S
C784 C783 1.366 . S
C784 C785 1.414 . S
C784 C787 1.499 . S
C785 H759 0.950 . S
C785 C784 1.414 . S
C785 C786 1.374 . S
C786 H760 0.950 . S
C786 C782 1.385 . S
C786 C785 1.374 . S
C787 C784 1.499 . S
C787 C788 1.373 1_556 S
C787 C789 1.389 . S
C788 H761 0.950 . S
C788 C774 1.377 . S
C788 C787 1.373 1_554 S
C789 C773 1.377 . S
C789 C787 1.389 . S
C789 C790 1.524 . S
C790 C789 1.524 . S
C790 C791 1.397 . S
C790 C795 1.363 . S
C791 H762 0.950 . S
C791 C790 1.397 . S
C791 C792 1.334 . S
C792 H763 0.950 . S
C792 C791 1.334 . S
C792 C793 1.287 . S
C793 C792 1.287 . S
C793 C794 1.524 . S
C793 H796 0.999 . S
C794 H764 0.950 . S
C794 C793 1.524 . S
C794 C795 1.415 . S
C795 H765 0.950 . S
C795 C790 1.363 . S
C795 C794 1.415 . S
H796 C793 0.999 . S
H797 C778 0.913 . S
H798 C816 0.951 . S
H799 C818 0.951 . S
H800 C820 0.950 . S
H801 C821 0.950 . S
H802 C823 0.950 . S
H803 C826 0.950 . S
H804 C827 0.950 . S
H805 C829 0.950 . S
H806 C830 0.950 . S
H807 C831 0.951 . S
H808 C833 0.951 . S
H809 C835 0.950 . S
H810 C836 0.950 . S
H811 C838 0.950 . S
H812 C841 0.950 . S
H813 C842 0.950 . S
H814 C844 0.950 . S
H815 C845 0.950 . S
C816 H798 0.951 . S
C816 C817 1.366 . S
C816 C818 1.388 . S
C817 C816 1.366 . S
C817 C821 1.385 . S
C818 H799 0.951 . S
C818 C816 1.388 . S
C818 C819 1.366 . S
C819 C818 1.366 . S
C819 C820 1.414 . S
C819 C822 1.499 . S
C820 H800 0.950 . S
C820 C819 1.414 . S
C820 C821 1.374 . S
C821 H801 0.950 . S
C821 C817 1.385 . S
C821 C820 1.374 . S
C822 C819 1.499 . S
C822 C823 1.373 . S
C822 C824 1.389 . S
C823 H802 0.950 . S
C823 C822 1.373 . S
C823 C839 1.377 . S
C824 C822 1.389 . S
C824 C825 1.524 . S
C824 C838 1.377 . S
C825 C824 1.524 . S
C825 C826 1.397 . S
C825 C830 1.363 . S
C826 H803 0.950 . S
C826 C825 1.397 . S
C826 C827 1.334 . S
C827 H804 0.950 . S
C827 C826 1.334 . S
C827 C828 1.287 . S
C828 C827 1.287 . S
C828 C829 1.524 . S
C828 H847 0.913 . S
C829 H805 0.950 . S
C829 C828 1.524 . S
C829 C830 1.415 . S
C830 H806 0.950 . S
C830 C825 1.363 . S
C830 C829 1.415 . S
C831 H807 0.951 . S
C831 C832 1.366 . S
C831 C833 1.388 . S
C832 C831 1.366 . S
C832 C836 1.385 . S
C833 H808 0.951 . S
C833 C831 1.388 . S
C833 C834 1.366 . S
C834 C833 1.366 . S
C834 C835 1.414 . S
C834 C837 1.499 . S
C835 H809 0.950 . S
C835 C834 1.414 . S
C835 C836 1.374 . S
C836 H810 0.950 . S
C836 C832 1.385 . S
C836 C835 1.374 . S
C837 C834 1.499 . S
C837 C838 1.373 . S
C837 C839 1.389 . S
C838 H811 0.950 . S
C838 C824 1.377 . S
C838 C837 1.373 . S
C839 C823 1.377 . S
C839 C837 1.389 . S
C839 C840 1.524 . S
C840 C839 1.524 . S
C840 C841 1.397 . S
C840 C845 1.363 . S
C841 H812 0.950 . S
C841 C840 1.397 . S
C841 C842 1.334 . S
C842 H813 0.950 . S
C842 C841 1.334 . S
C842 C843 1.287 . S
C843 C842 1.287 . S
C843 C844 1.524 . S
C843 H846 0.999 . S
C844 H814 0.950 . S
C844 C843 1.524 . S
C844 C845 1.415 . S
C845 H815 0.950 . S
C845 C840 1.363 . S
C845 C844 1.415 . S
H846 C843 0.999 . S
H847 C828 0.913 . S
H848 C866 0.951 . S
H849 C868 0.951 . S
H850 C870 0.950 . S
H851 C871 0.950 . S
H852 C873 0.950 . S
H853 C876 0.950 . S
H854 C877 0.950 . S
H855 C879 0.950 . S
H856 C880 0.950 . S
H857 C881 0.951 . S
H858 C883 0.951 . S
H859 C885 0.950 . S
H860 C886 0.950 . S
H861 C888 0.950 . S
H862 C891 0.950 . S
H863 C892 0.950 . S
H864 C894 0.950 1_655 S
H865 C895 0.950 . S
C866 H848 0.951 . S
C866 C867 1.366 . S
C866 C868 1.388 . S
C867 C866 1.366 . S
C867 C871 1.385 . S
C868 H849 0.951 . S
C868 C866 1.388 . S
C868 C869 1.366 . S
C869 C868 1.366 . S
C869 C870 1.414 . S
C869 C872 1.499 . S
C870 H850 0.950 . S
C870 C869 1.414 . S
C870 C871 1.374 . S
C871 H851 0.950 . S
C871 C867 1.385 . S
C871 C870 1.374 . S
C872 C869 1.499 . S
C872 C873 1.373 . S
C872 C874 1.389 . S
C873 H852 0.950 . S
C873 C872 1.373 . S
C873 C889 1.377 . S
C874 C872 1.389 . S
C874 C875 1.524 . S
C874 C888 1.377 . S
C875 C874 1.524 . S
C875 C876 1.397 . S
C875 C880 1.363 . S
C876 H853 0.950 . S
C876 C875 1.397 . S
C876 C877 1.334 . S
C877 H854 0.950 . S
C877 C876 1.334 . S
C877 C878 1.287 . S
C878 C877 1.287 . S
C878 C879 1.524 . S
C878 H897 0.913 . S
C879 H855 0.950 . S
C879 C878 1.524 . S
C879 C880 1.415 . S
C880 H856 0.950 . S
C880 C875 1.363 . S
C880 C879 1.415 . S
C881 H857 0.951 . S
C881 C882 1.366 . S
C881 C883 1.388 . S
C882 C881 1.366 . S
C882 C886 1.385 . S
C883 H858 0.951 . S
C883 C881 1.388 . S
C883 C884 1.366 . S
C884 C883 1.366 . S
C884 C885 1.414 . S
C884 C887 1.499 . S
C885 H859 0.950 . S
C885 C884 1.414 . S
C885 C886 1.374 . S
C886 H860 0.950 . S
C886 C882 1.385 . S
C886 C885 1.374 . S
C887 C884 1.499 . S
C887 C888 1.373 . S
C887 C889 1.389 . S
C888 H861 0.950 . S
C888 C874 1.377 . S
C888 C887 1.373 . S
C889 C873 1.377 . S
C889 C887 1.389 . S
C889 C890 1.524 . S
C890 C889 1.524 . S
C890 C891 1.397 . S
C890 C895 1.363 . S
C891 H862 0.950 . S
C891 C890 1.397 . S
C891 C892 1.334 . S
C892 H863 0.950 . S
C892 C891 1.334 . S
C892 C893 1.287 . S
C893 C892 1.287 . S
C893 C894 1.524 . S
C893 H896 0.999 1_455 S
C894 H864 0.950 1_455 S
C894 C893 1.524 . S
C894 C895 1.415 . S
C895 H865 0.950 . S
C895 C890 1.363 . S
C895 C894 1.415 . S
H896 C893 0.999 1_655 S
H897 C878 0.913 . S
H898 C916 0.951 . S
H899 C918 0.951 . S
H900 C920 0.950 . S
H901 C921 0.950 . S
H902 C923 0.950 . S
H903 C926 0.950 . S
H904 C927 0.950 . S
H905 C929 0.950 . S
H906 C930 0.950 . S
H907 C931 0.951 . S
H908 C933 0.951 . S
H909 C935 0.950 . S
H910 C936 0.950 . S
H911 C938 0.950 . S
H912 C941 0.950 . S
H913 C942 0.950 . S
H914 C944 0.950 . S
H915 C945 0.950 . S
C916 H898 0.951 . S
C916 C917 1.366 . S
C916 C918 1.388 . S
C917 C916 1.366 . S
C917 C921 1.385 . S
C918 H899 0.951 . S
C918 C916 1.388 . S
C918 C919 1.366 . S
C919 C918 1.366 . S
C919 C920 1.414 . S
C919 C922 1.499 . S
C920 H900 0.950 . S
C920 C919 1.414 . S
C920 C921 1.374 . S
C921 H901 0.950 . S
C921 C917 1.385 . S
C921 C920 1.374 . S
C922 C919 1.499 . S
C922 C923 1.373 . S
C922 C924 1.389 . S
C923 H902 0.950 . S
C923 C922 1.373 . S
C923 C939 1.377 . S
C924 C922 1.389 . S
C924 C925 1.524 . S
C924 C938 1.377 . S
C925 C924 1.524 . S
C925 C926 1.397 . S
C925 C930 1.363 . S
C926 H903 0.950 . S
C926 C925 1.397 . S
C926 C927 1.334 . S
C927 H904 0.950 . S
C927 C926 1.334 . S
C927 C928 1.287 . S
C928 C927 1.287 . S
C928 C929 1.524 . S
C928 H947 0.913 . S
C929 H905 0.950 . S
C929 C928 1.524 . S
C929 C930 1.415 . S
C930 H906 0.950 . S
C930 C925 1.363 . S
C930 C929 1.415 . S
C931 H907 0.951 . S
C931 C932 1.366 . S
C931 C933 1.388 . S
C932 C931 1.366 . S
C932 C936 1.385 . S
C933 H908 0.951 . S
C933 C931 1.388 . S
C933 C934 1.366 . S
C934 C933 1.366 . S
C934 C935 1.414 . S
C934 C937 1.499 . S
C935 H909 0.950 . S
C935 C934 1.414 . S
C935 C936 1.374 . S
C936 H910 0.950 . S
C936 C932 1.385 . S
C936 C935 1.374 . S
C937 C934 1.499 . S
C937 C938 1.373 . S
C937 C939 1.389 . S
C938 H911 0.950 . S
C938 C924 1.377 . S
C938 C937 1.373 . S
C939 C923 1.377 . S
C939 C937 1.389 . S
C939 C940 1.524 . S
C940 C939 1.524 . S
C940 C941 1.397 . S
C940 C945 1.363 . S
C941 H912 0.950 . S
C941 C940 1.397 . S
C941 C942 1.334 . S
C942 H913 0.950 . S
C942 C941 1.334 . S
C942 C943 1.287 . S
C943 C942 1.287 . S
C943 C944 1.524 . S
C943 H946 0.999 . S
C944 H914 0.950 . S
C944 C943 1.524 . S
C944 C945 1.415 . S
C945 H915 0.950 . S
C945 C940 1.363 . S
C945 C944 1.415 . S
H946 C943 0.999 . S
H947 C928 0.913 . S
H948 C966 0.951 . S
H949 C968 0.951 . S
H950 C970 0.950 . S
H951 C971 0.950 . S
H952 C973 0.950 . S
H953 C976 0.950 . S
H954 C977 0.950 . S
H955 C979 0.950 . S
H956 C980 0.950 . S
H957 C981 0.951 . S
H958 C983 0.951 . S
H959 C985 0.950 . S
H960 C986 0.950 . S
H961 C988 0.950 . S
H962 C991 0.950 . S
H963 C992 0.950 . S
H964 C994 0.950 . S
H965 C995 0.950 . S
C966 H948 0.951 . S
C966 C967 1.366 . S
C966 C968 1.388 . S
C967 C966 1.366 . S
C967 C971 1.385 . S
C968 H949 0.951 . S
C968 C966 1.388 . S
C968 C969 1.366 . S
C969 C968 1.366 . S
C969 C970 1.414 . S
C969 C972 1.499 . S
C970 H950 0.950 . S
C970 C969 1.414 . S
C970 C971 1.374 . S
C971 H951 0.950 . S
C971 C967 1.385 . S
C971 C970 1.374 . S
C972 C969 1.499 . S
C972 C973 1.373 . S
C972 C974 1.389 . S
C973 H952 0.950 . S
C973 C972 1.373 . S
C973 C989 1.377 . S
C974 C972 1.389 . S
C974 C975 1.524 . S
C974 C988 1.377 . S
C975 C974 1.524 . S
C975 C976 1.397 . S
C975 C980 1.363 . S
C976 H953 0.950 . S
C976 C975 1.397 . S
C976 C977 1.334 . S
C977 H954 0.950 . S
C977 C976 1.334 . S
C977 C978 1.287 . S
C978 C977 1.287 . S
C978 C979 1.524 . S
C978 H997 0.913 . S
C979 H955 0.950 . S
C979 C978 1.524 . S
C979 C980 1.415 . S
C980 H956 0.950 . S
C980 C975 1.363 . S
C980 C979 1.415 . S
C981 H957 0.951 . S
C981 C982 1.366 . S
C981 C983 1.388 . S
C982 C981 1.366 . S
C982 C986 1.385 . S
C983 H958 0.951 . S
C983 C981 1.388 . S
C983 C984 1.366 . S
C984 C983 1.366 . S
C984 C985 1.414 . S
C984 C987 1.499 . S
C985 H959 0.950 . S
C985 C984 1.414 . S
C985 C986 1.374 . S
C986 H960 0.950 . S
C986 C982 1.385 . S
C986 C985 1.374 . S
C987 C984 1.499 . S
C987 C988 1.373 . S
C987 C989 1.389 . S
C988 H961 0.950 . S
C988 C974 1.377 . S
C988 C987 1.373 . S
C989 C973 1.377 . S
C989 C987 1.389 . S
C989 C990 1.524 . S
C990 C989 1.524 . S
C990 C991 1.397 . S
C990 C995 1.363 . S
C991 H962 0.950 . S
C991 C990 1.397 . S
C991 C992 1.334 . S
C992 H963 0.950 . S
C992 C991 1.334 . S
C992 C993 1.287 . S
C993 C992 1.287 . S
C993 C994 1.524 . S
C993 H996 0.999 . S
C994 H964 0.950 . S
C994 C993 1.524 . S
C994 C995 1.415 . S
C995 H965 0.950 . S
C995 C990 1.363 . S
C995 C994 1.415 . S
H996 C993 0.999 . S
H997 C978 0.913 . S
H998 C1016 0.951 . S
H999 C1018 0.951 . S
H1000 C1020 0.950 . S
H1001 C1021 0.950 . S
H1002 C1023 0.950 . S
H1003 C1026 0.950 . S
H1004 C1027 0.950 . S
H1005 C1029 0.950 . S
H1006 C1030 0.950 . S
H1007 C1031 0.951 . S
H1008 C1033 0.951 . S
H1009 C1035 0.950 . S
H1010 C1036 0.950 . S
H1011 C1038 0.950 . S
H1012 C1041 0.950 . S
H1013 C1042 0.950 . S
H1014 C1044 0.950 . S
H1015 C1045 0.950 . S
C1016 H998 0.951 . S
C1016 C1017 1.366 . S
C1016 C1018 1.388 . S
C1017 C1016 1.366 . S
C1017 C1021 1.385 . S
C1018 H999 0.951 . S
C1018 C1016 1.388 . S
C1018 C1019 1.366 . S
C1019 C1018 1.366 . S
C1019 C1020 1.414 . S
C1019 C1022 1.499 . S
C1020 H1000 0.950 . S
C1020 C1019 1.414 . S
C1020 C1021 1.374 . S
C1021 H1001 0.950 . S
C1021 C1017 1.385 . S
C1021 C1020 1.374 . S
C1022 C1019 1.499 . S
C1022 C1023 1.373 . S
C1022 C1024 1.389 . S
C1023 H1002 0.950 . S
C1023 C1022 1.373 . S
C1023 C1039 1.377 . S
C1024 C1022 1.389 . S
C1024 C1025 1.524 . S
C1024 C1038 1.377 . S
C1025 C1024 1.524 . S
C1025 C1026 1.397 . S
C1025 C1030 1.363 . S
C1026 H1003 0.950 . S
C1026 C1025 1.397 . S
C1026 C1027 1.334 . S
C1027 H1004 0.950 . S
C1027 C1026 1.334 . S
C1027 C1028 1.287 . S
C1028 C1027 1.287 . S
C1028 C1029 1.524 . S
C1028 H1047 0.913 . S
C1029 H1005 0.950 . S
C1029 C1028 1.524 . S
C1029 C1030 1.415 . S
C1030 H1006 0.950 . S
C1030 C1025 1.363 . S
C1030 C1029 1.415 . S
C1031 H1007 0.951 . S
C1031 C1032 1.366 . S
C1031 C1033 1.388 . S
C1032 C1031 1.366 . S
C1032 C1036 1.385 . S
C1033 H1008 0.951 . S
C1033 C1031 1.388 . S
C1033 C1034 1.366 . S
C1034 C1033 1.366 . S
C1034 C1035 1.414 . S
C1034 C1037 1.499 . S
C1035 H1009 0.950 . S
C1035 C1034 1.414 . S
C1035 C1036 1.374 . S
C1036 H1010 0.950 . S
C1036 C1032 1.385 . S
C1036 C1035 1.374 . S
C1037 C1034 1.499 . S
C1037 C1038 1.373 . S
C1037 C1039 1.389 . S
C1038 H1011 0.950 . S
C1038 C1024 1.377 . S
C1038 C1037 1.373 . S
C1039 C1023 1.377 . S
C1039 C1037 1.389 . S
C1039 C1040 1.524 . S
C1040 C1039 1.524 . S
C1040 C1041 1.397 . S
C1040 C1045 1.363 . S
C1041 H1012 0.950 . S
C1041 C1040 1.397 . S
C1041 C1042 1.334 . S
C1042 H1013 0.950 . S
C1042 C1041 1.334 . S
C1042 C1043 1.287 . S
C1043 C1042 1.287 . S
C1043 C1044 1.524 . S
C1043 H1046 0.999 . S
C1044 H1014 0.950 . S
C1044 C1043 1.524 . S
C1044 C1045 1.415 . S
C1045 H1015 0.950 . S
C1045 C1040 1.363 . S
C1045 C1044 1.415 . S
H1046 C1043 0.999 . S
H1047 C1028 0.913 . S
H1048 C1066 0.951 . S
H1049 C1068 0.951 . S
H1050 C1070 0.950 . S
H1051 C1071 0.950 . S
H1052 C1073 0.950 . S
H1053 C1076 0.950 . S
H1054 C1077 0.950 . S
H1055 C1079 0.950 . S
H1056 C1080 0.950 . S
H1057 C1081 0.951 . S
H1058 C1083 0.951 . S
H1059 C1085 0.950 . S
H1060 C1086 0.950 . S
H1061 C1088 0.950 . S
H1062 C1091 0.950 . S
H1063 C1092 0.950 . S
H1064 C1094 0.950 . S
H1065 C1095 0.950 . S
C1066 H1048 0.951 . S
C1066 C1067 1.366 . S
C1066 C1068 1.388 . S
C1067 C1066 1.366 . S
C1067 C1071 1.385 . S
C1068 H1049 0.951 . S
C1068 C1066 1.388 . S
C1068 C1069 1.366 . S
C1069 C1068 1.366 . S
C1069 C1070 1.414 . S
C1069 C1072 1.499 . S
C1070 H1050 0.950 . S
C1070 C1069 1.414 . S
C1070 C1071 1.374 . S
C1071 H1051 0.950 . S
C1071 C1067 1.385 . S
C1071 C1070 1.374 . S
C1072 C1069 1.499 . S
C1072 C1073 1.373 . S
C1072 C1074 1.389 . S
C1073 H1052 0.950 . S
C1073 C1072 1.373 . S
C1073 C1089 1.377 . S
C1074 C1072 1.389 . S
C1074 C1075 1.524 . S
C1074 C1088 1.377 . S
C1075 C1074 1.524 . S
C1075 C1076 1.397 . S
C1075 C1080 1.363 . S
C1076 H1053 0.950 . S
C1076 C1075 1.397 . S
C1076 C1077 1.334 . S
C1077 H1054 0.950 . S
C1077 C1076 1.334 . S
C1077 C1078 1.287 . S
C1078 C1077 1.287 . S
C1078 C1079 1.524 . S
C1078 H1097 0.913 . S
C1079 H1055 0.950 . S
C1079 C1078 1.524 . S
C1079 C1080 1.415 . S
C1080 H1056 0.950 . S
C1080 C1075 1.363 . S
C1080 C1079 1.415 . S
C1081 H1057 0.951 . S
C1081 C1082 1.366 . S
C1081 C1083 1.388 . S
C1082 C1081 1.366 . S
C1082 C1086 1.385 . S
C1083 H1058 0.951 . S
C1083 C1081 1.388 . S
C1083 C1084 1.366 . S
C1084 C1083 1.366 . S
C1084 C1085 1.414 . S
C1084 C1087 1.499 . S
C1085 H1059 0.950 . S
C1085 C1084 1.414 . S
C1085 C1086 1.374 . S
C1086 H1060 0.950 . S
C1086 C1082 1.385 . S
C1086 C1085 1.374 . S
C1087 C1084 1.499 . S
C1087 C1088 1.373 . S
C1087 C1089 1.389 . S
C1088 H1061 0.950 . S
C1088 C1074 1.377 . S
C1088 C1087 1.373 . S
C1089 C1073 1.377 . S
C1089 C1087 1.389 . S
C1089 C1090 1.524 . S
C1090 C1089 1.524 . S
C1090 C1091 1.397 . S
C1090 C1095 1.363 . S
C1091 H1062 0.950 . S
C1091 C1090 1.397 . S
C1091 C1092 1.334 . S
C1092 H1063 0.950 . S
C1092 C1091 1.334 . S
C1092 C1093 1.287 . S
C1093 C1092 1.287 . S
C1093 C1094 1.524 . S
C1093 H1096 0.999 . S
C1094 H1064 0.950 . S
C1094 C1093 1.524 . S
C1094 C1095 1.415 . S
C1095 H1065 0.950 . S
C1095 C1090 1.363 . S
C1095 C1094 1.415 . S
H1096 C1093 0.999 . S
H1097 C1078 0.913 . S
H1098 C1116 0.951 . S
H1099 C1118 0.951 . S
H1100 C1120 0.950 . S
H1101 C1121 0.950 . S
H1102 C1123 0.950 . S
H1103 C1126 0.950 . S
H1104 C1127 0.950 1_554 S
H1105 C1129 0.950 1_554 S
H1106 C1130 0.950 . S
H1107 C1131 0.951 . S
H1108 C1133 0.951 . S
H1109 C1135 0.950 . S
H1110 C1136 0.950 . S
H1111 C1138 0.950 . S
H1112 C1141 0.950 . S
H1113 C1142 0.950 . S
H1114 C1144 0.950 . S
H1115 C1145 0.950 . S
C1116 H1098 0.951 . S
C1116 C1117 1.366 1_554 S
C1116 C1118 1.388 1_554 S
C1117 C1116 1.366 1_556 S
C1117 C1121 1.385 . S
C1118 H1099 0.951 . S
C1118 C1116 1.388 1_556 S
C1118 C1119 1.366 . S
C1119 C1118 1.366 . S
C1119 C1120 1.414 . S
C1119 C1122 1.499 . S
C1120 H1100 0.950 . S
C1120 C1119 1.414 . S
C1120 C1121 1.374 . S
C1121 H1101 0.950 . S
C1121 C1117 1.385 . S
C1121 C1120 1.374 . S
C1122 C1119 1.499 . S
C1122 C1123 1.373 . S
C1122 C1124 1.389 . S
C1123 H1102 0.950 . S
C1123 C1122 1.373 . S
C1123 C1139 1.377 . S
C1124 C1122 1.389 . S
C1124 C1125 1.524 . S
C1124 C1138 1.377 . S
C1125 C1124 1.524 . S
C1125 C1126 1.397 . S
C1125 C1130 1.363 . S
C1126 H1103 0.950 . S
C1126 C1125 1.397 . S
C1126 C1127 1.334 . S
C1127 H1104 0.950 1_556 S
C1127 C1126 1.334 . S
C1127 C1128 1.287 1_556 S
C1128 C1127 1.287 1_554 S
C1128 C1129 1.524 1_554 S
C1128 H1147 0.913 . S
C1129 H1105 0.950 1_556 S
C1129 C1128 1.524 1_556 S
C1129 C1130 1.415 . S
C1130 H1106 0.950 . S
C1130 C1125 1.363 . S
C1130 C1129 1.415 . S
C1131 H1107 0.951 . S
C1131 C1132 1.366 . S
C1131 C1133 1.388 . S
C1132 C1131 1.366 . S
C1132 C1136 1.385 . S
C1133 H1108 0.951 . S
C1133 C1131 1.388 . S
C1133 C1134 1.366 . S
C1134 C1133 1.366 . S
C1134 C1135 1.414 . S
C1134 C1137 1.499 . S
C1135 H1109 0.950 . S
C1135 C1134 1.414 . S
C1135 C1136 1.374 . S
C1136 H1110 0.950 . S
C1136 C1132 1.385 . S
C1136 C1135 1.374 . S
C1137 C1134 1.499 . S
C1137 C1138 1.373 . S
C1137 C1139 1.389 . S
C1138 H1111 0.950 . S
C1138 C1124 1.377 . S
C1138 C1137 1.373 . S
C1139 C1123 1.377 . S
C1139 C1137 1.389 . S
C1139 C1140 1.524 . S
C1140 C1139 1.524 . S
C1140 C1141 1.397 . S
C1140 C1145 1.363 . S
C1141 H1112 0.950 . S
C1141 C1140 1.397 . S
C1141 C1142 1.334 . S
C1142 H1113 0.950 . S
C1142 C1141 1.334 . S
C1142 C1143 1.287 . S
C1143 C1142 1.287 . S
C1143 C1144 1.524 . S
C1143 H1146 0.999 . S
C1144 H1114 0.950 . S
C1144 C1143 1.524 . S
C1144 C1145 1.415 . S
C1145 H1115 0.950 . S
C1145 C1140 1.363 . S
C1145 C1144 1.415 . S
H1146 C1143 0.999 . S
H1147 C1128 0.913 . S
H1148 C1166 0.951 . S
H1149 C1168 0.951 . S
H1150 C1170 0.950 . S
H1151 C1171 0.950 . S
H1152 C1173 0.950 . S
H1153 C1176 0.950 . S
H1154 C1177 0.950 . S
H1155 C1179 0.950 . S
H1156 C1180 0.950 . S
H1157 C1181 0.951 . S
H1158 C1183 0.951 . S
H1159 C1185 0.950 . S
H1160 C1186 0.950 . S
H1161 C1188 0.950 . S
H1162 C1191 0.950 . S
H1163 C1192 0.950 . S
H1164 C1194 0.950 . S
H1165 C1195 0.950 . S
C1166 H1148 0.951 . S
C1166 C1167 1.366 . S
C1166 C1168 1.388 . S
C1167 C1166 1.366 . S
C1167 C1171 1.385 . S
C1168 H1149 0.951 . S
C1168 C1166 1.388 . S
C1168 C1169 1.366 . S
C1169 C1168 1.366 . S
C1169 C1170 1.414 . S
C1169 C1172 1.499 . S
C1170 H1150 0.950 . S
C1170 C1169 1.414 . S
C1170 C1171 1.374 . S
C1171 H1151 0.950 . S
C1171 C1167 1.385 . S
C1171 C1170 1.374 . S
C1172 C1169 1.499 . S
C1172 C1173 1.373 . S
C1172 C1174 1.389 . S
C1173 H1152 0.950 . S
C1173 C1172 1.373 . S
C1173 C1189 1.377 . S
C1174 C1172 1.389 . S
C1174 C1175 1.524 . S
C1174 C1188 1.377 . S
C1175 C1174 1.524 . S
C1175 C1176 1.397 . S
C1175 C1180 1.363 . S
C1176 H1153 0.950 . S
C1176 C1175 1.397 . S
C1176 C1177 1.334 . S
C1177 H1154 0.950 . S
C1177 C1176 1.334 . S
C1177 C1178 1.287 . S
C1178 C1177 1.287 . S
C1178 C1179 1.524 . S
C1178 H1197 0.913 . S
C1179 H1155 0.950 . S
C1179 C1178 1.524 . S
C1179 C1180 1.415 . S
C1180 H1156 0.950 . S
C1180 C1175 1.363 . S
C1180 C1179 1.415 . S
C1181 H1157 0.951 . S
C1181 C1182 1.366 . S
C1181 C1183 1.388 . S
C1182 C1181 1.366 . S
C1182 C1186 1.385 . S
C1183 H1158 0.951 . S
C1183 C1181 1.388 . S
C1183 C1184 1.366 . S
C1184 C1183 1.366 . S
C1184 C1185 1.414 . S
C1184 C1187 1.499 . S
C1185 H1159 0.950 . S
C1185 C1184 1.414 . S
C1185 C1186 1.374 . S
C1186 H1160 0.950 . S
C1186 C1182 1.385 . S
C1186 C1185 1.374 . S
C1187 C1184 1.499 . S
C1187 C1188 1.373 . S
C1187 C1189 1.389 . S
C1188 H1161 0.950 . S
C1188 C1174 1.377 . S
C1188 C1187 1.373 . S
C1189 C1173 1.377 . S
C1189 C1187 1.389 . S
C1189 C1190 1.524 . S
C1190 C1189 1.524 . S
C1190 C1191 1.397 . S
C1190 C1195 1.363 . S
C1191 H1162 0.950 . S
C1191 C1190 1.397 . S
C1191 C1192 1.334 . S
C1192 H1163 0.950 . S
C1192 C1191 1.334 . S
C1192 C1193 1.287 . S
C1193 C1192 1.287 . S
C1193 C1194 1.524 . S
C1193 H1196 0.999 . S
C1194 H1164 0.950 . S
C1194 C1193 1.524 . S
C1194 C1195 1.415 . S
C1195 H1165 0.950 . S
C1195 C1190 1.363 . S
C1195 C1194 1.415 . S
H1196 C1193 0.999 . S
H1197 C1178 0.913 . S
H1198 C1216 0.938 1_554 S
H1199 C1218 0.951 . S
H1200 C1220 0.950 . S
H1201 C1221 0.950 . S
H1202 C1223 0.950 . S
H1203 C1226 0.950 . S
H1204 C1227 0.950 . S
H1205 C1229 0.950 . S
H1206 C1230 0.950 . S
H1207 C1231 0.951 . S
H1208 C1233 0.951 . S
H1209 C1235 0.950 . S
H1210 C1236 0.950 . S
H1211 C1238 0.950 . S
H1212 C1241 0.950 . S
H1213 C1242 0.950 . S
H1214 C1244 0.950 . S
H1215 C1245 0.950 . S
C1216 H1198 0.938 1_556 S
C1216 C1217 1.369 . S
C1216 C1218 1.398 . S
C1217 C1216 1.369 . S
C1217 C1221 1.385 . S
C1218 H1199 0.951 . S
C1218 C1216 1.398 . S
C1218 C1219 1.366 . S
C1219 C1218 1.366 . S
C1219 C1220 1.414 . S
C1219 C1222 1.499 . S
C1220 H1200 0.950 . S
C1220 C1219 1.414 . S
C1220 C1221 1.374 . S
C1221 H1201 0.950 . S
C1221 C1217 1.385 . S
C1221 C1220 1.374 . S
C1222 C1219 1.499 . S
C1222 C1223 1.373 . S
C1222 C1224 1.389 . S
C1223 H1202 0.950 . S
C1223 C1222 1.373 . S
C1223 C1239 1.377 . S
C1224 C1222 1.389 . S
C1224 C1225 1.524 . S
C1224 C1238 1.377 . S
C1225 C1224 1.524 . S
C1225 C1226 1.397 . S
C1225 C1230 1.363 . S
C1226 H1203 0.950 . S
C1226 C1225 1.397 . S
C1226 C1227 1.334 . S
C1227 H1204 0.950 . S
C1227 C1226 1.334 . S
C1227 C1228 1.287 . S
C1228 C1227 1.287 . S
C1228 C1229 1.524 . S
C1228 H1247 0.910 1_556 S
C1229 H1205 0.950 . S
C1229 C1228 1.524 . S
C1229 C1230 1.415 . S
C1230 H1206 0.950 . S
C1230 C1225 1.363 . S
C1230 C1229 1.415 . S
C1231 H1207 0.951 . S
C1231 C1232 1.366 . S
C1231 C1233 1.388 . S
C1232 C1231 1.366 . S
C1232 C1236 1.385 . S
C1233 H1208 0.951 . S
C1233 C1231 1.388 . S
C1233 C1234 1.366 . S
C1234 C1233 1.366 . S
C1234 C1235 1.414 . S
C1234 C1237 1.499 . S
C1235 H1209 0.950 . S
C1235 C1234 1.414 . S
C1235 C1236 1.374 . S
C1236 H1210 0.950 . S
C1236 C1232 1.385 . S
C1236 C1235 1.374 . S
C1237 C1234 1.499 . S
C1237 C1238 1.373 . S
C1237 C1239 1.389 . S
C1238 H1211 0.950 . S
C1238 C1224 1.377 . S
C1238 C1237 1.373 . S
C1239 C1223 1.377 . S
C1239 C1237 1.389 . S
C1239 C1240 1.524 . S
C1240 C1239 1.524 . S
C1240 C1241 1.397 . S
C1240 C1245 1.363 . S
C1241 H1212 0.950 . S
C1241 C1240 1.397 . S
C1241 C1242 1.334 . S
C1242 H1213 0.950 . S
C1242 C1241 1.334 . S
C1242 C1243 1.287 . S
C1243 C1242 1.287 . S
C1243 C1244 1.524 . S
C1243 H1246 0.999 . S
C1244 H1214 0.950 . S
C1244 C1243 1.524 . S
C1244 C1245 1.415 . S
C1245 H1215 0.950 . S
C1245 C1240 1.363 . S
C1245 C1244 1.415 . S
H1246 C1243 0.999 . S
H1247 C1228 0.910 1_554 S
H1248 C1266 0.951 . S
H1249 C1268 0.951 . S
H1250 C1270 0.950 . S
H1251 C1271 0.950 . S
H1252 C1273 0.950 . S
H1253 C1276 0.950 . S
H1254 C1277 0.950 . S
H1255 C1279 0.950 . S
H1256 C1280 0.950 . S
H1257 C1281 0.951 . S
H1258 C1283 0.951 . S
H1259 C1285 0.950 . S
H1260 C1286 0.950 . S
H1261 C1288 0.950 . S
H1262 C1291 0.950 . S
H1263 C1292 0.950 . S
H1264 C1294 0.950 . S
H1265 C1295 0.950 . S
C1266 H1248 0.951 . S
C1266 C1267 1.366 . S
C1266 C1268 1.388 . S
C1267 C1266 1.366 . S
C1267 C1271 1.385 . S
C1268 H1249 0.951 . S
C1268 C1266 1.388 . S
C1268 C1269 1.366 . S
C1269 C1268 1.366 . S
C1269 C1270 1.414 . S
C1269 C1272 1.499 . S
C1270 H1250 0.950 . S
C1270 C1269 1.414 . S
C1270 C1271 1.374 . S
C1271 H1251 0.950 . S
C1271 C1267 1.385 . S
C1271 C1270 1.374 . S
C1272 C1269 1.499 . S
C1272 C1273 1.373 . S
C1272 C1274 1.389 . S
C1273 H1252 0.950 . S
C1273 C1272 1.373 . S
C1273 C1289 1.377 . S
C1274 C1272 1.389 . S
C1274 C1275 1.524 . S
C1274 C1288 1.377 . S
C1275 C1274 1.524 . S
C1275 C1276 1.397 . S
C1275 C1280 1.363 . S
C1276 H1253 0.950 . S
C1276 C1275 1.397 . S
C1276 C1277 1.334 . S
C1277 H1254 0.950 . S
C1277 C1276 1.334 . S
C1277 C1278 1.287 . S
C1278 C1277 1.287 . S
C1278 C1279 1.524 . S
C1278 H1297 0.913 . S
C1279 H1255 0.950 . S
C1279 C1278 1.524 . S
C1279 C1280 1.415 . S
C1280 H1256 0.950 . S
C1280 C1275 1.363 . S
C1280 C1279 1.415 . S
C1281 H1257 0.951 . S
C1281 C1282 1.366 . S
C1281 C1283 1.388 . S
C1282 C1281 1.366 . S
C1282 C1286 1.385 . S
C1283 H1258 0.951 . S
C1283 C1281 1.388 . S
C1283 C1284 1.366 . S
C1284 C1283 1.366 . S
C1284 C1285 1.414 . S
C1284 C1287 1.499 . S
C1285 H1259 0.950 . S
C1285 C1284 1.414 . S
C1285 C1286 1.374 . S
C1286 H1260 0.950 . S
C1286 C1282 1.385 . S
C1286 C1285 1.374 . S
C1287 C1284 1.499 . S
C1287 C1288 1.373 . S
C1287 C1289 1.389 . S
C1288 H1261 0.950 . S
C1288 C1274 1.377 . S
C1288 C1287 1.373 . S
C1289 C1273 1.377 . S
C1289 C1287 1.389 . S
C1289 C1290 1.524 . S
C1290 C1289 1.524 . S
C1290 C1291 1.397 . S
C1290 C1295 1.363 . S
C1291 H1262 0.950 . S
C1291 C1290 1.397 . S
C1291 C1292 1.334 . S
C1292 H1263 0.950 . S
C1292 C1291 1.334 . S
C1292 C1293 1.287 . S
C1293 C1292 1.287 . S
C1293 C1294 1.524 . S
C1293 H1296 0.999 . S
C1294 H1264 0.950 . S
C1294 C1293 1.524 . S
C1294 C1295 1.415 . S
C1295 H1265 0.950 . S
C1295 C1290 1.363 . S
C1295 C1294 1.415 . S
H1296 C1293 0.999 . S
H1297 C1278 0.913 . S
H1298 C1316 0.951 . S
H1299 C1318 0.951 . S
H1300 C1320 0.950 . S
H1301 C1321 0.950 . S
H1302 C1323 0.950 . S
H1303 C1326 0.950 . S
H1304 C1327 0.950 . S
H1305 C1329 0.950 . S
H1306 C1330 0.950 . S
H1307 C1331 0.951 . S
H1308 C1333 0.951 . S
H1309 C1335 0.950 . S
H1310 C1336 0.950 . S
H1311 C1338 0.950 . S
H1312 C1341 0.950 . S
H1313 C1342 0.950 . S
H1314 C1344 0.950 . S
H1315 C1345 0.950 . S
C1316 H1298 0.951 . S
C1316 C1317 1.366 . S
C1316 C1318 1.388 . S
C1317 C1316 1.366 . S
C1317 C1321 1.385 . S
C1318 H1299 0.951 . S
C1318 C1316 1.388 . S
C1318 C1319 1.366 . S
C1319 C1318 1.366 . S
C1319 C1320 1.414 . S
C1319 C1322 1.499 . S
C1320 H1300 0.950 . S
C1320 C1319 1.414 . S
C1320 C1321 1.374 . S
C1321 H1301 0.950 . S
C1321 C1317 1.385 . S
C1321 C1320 1.374 . S
C1322 C1319 1.499 . S
C1322 C1323 1.373 . S
C1322 C1324 1.389 . S
C1323 H1302 0.950 . S
C1323 C1322 1.373 . S
C1323 C1339 1.377 . S
C1324 C1322 1.389 . S
C1324 C1325 1.524 . S
C1324 C1338 1.377 . S
C1325 C1324 1.524 . S
C1325 C1326 1.397 . S
C1325 C1330 1.363 . S
C1326 H1303 0.950 . S
C1326 C1325 1.397 . S
C1326 C1327 1.334 . S
C1327 H1304 0.950 . S
C1327 C1326 1.334 . S
C1327 C1328 1.287 . S
C1328 C1327 1.287 . S
C1328 C1329 1.524 . S
C1328 H1347 0.913 . S
C1329 H1305 0.950 . S
C1329 C1328 1.524 . S
C1329 C1330 1.415 . S
C1330 H1306 0.950 . S
C1330 C1325 1.363 . S
C1330 C1329 1.415 . S
C1331 H1307 0.951 . S
C1331 C1332 1.366 . S
C1331 C1333 1.388 . S
C1332 C1331 1.366 . S
C1332 C1336 1.385 . S
C1333 H1308 0.951 . S
C1333 C1331 1.388 . S
C1333 C1334 1.366 . S
C1334 C1333 1.366 . S
C1334 C1335 1.414 . S
C1334 C1337 1.499 . S
C1335 H1309 0.950 . S
C1335 C1334 1.414 . S
C1335 C1336 1.374 . S
C1336 H1310 0.950 . S
C1336 C1332 1.385 . S
C1336 C1335 1.374 . S
C1337 C1334 1.499 . S
C1337 C1338 1.373 . S
C1337 C1339 1.389 . S
C1338 H1311 0.950 . S
C1338 C1324 1.377 . S
C1338 C1337 1.373 . S
C1339 C1323 1.377 . S
C1339 C1337 1.389 . S
C1339 C1340 1.524 . S
C1340 C1339 1.524 . S
C1340 C1341 1.397 . S
C1340 C1345 1.363 . S
C1341 H1312 0.950 . S
C1341 C1340 1.397 . S
C1341 C1342 1.334 . S
C1342 H1313 0.950 . S
C1342 C1341 1.334 . S
C1342 C1343 1.287 . S
C1343 C1342 1.287 . S
C1343 C1344 1.524 . S
C1343 H1346 0.999 . S
C1344 H1314 0.950 . S
C1344 C1343 1.524 . S
C1344 C1345 1.415 . S
C1345 H1315 0.950 . S
C1345 C1340 1.363 . S
C1345 C1344 1.415 . S
H1346 C1343 0.999 . S
H1347 C1328 0.913 . S
H1348 C1366 0.951 . S
H1349 C1368 0.951 . S
H1350 C1370 0.950 . S
H1351 C1371 0.950 . S
H1352 C1373 0.950 . S
H1353 C1376 0.950 . S
H1354 C1377 0.950 . S
H1355 C1379 0.950 . S
H1356 C1380 0.950 . S
H1357 C1381 0.951 . S
H1358 C1383 0.951 . S
H1359 C1385 0.950 . S
H1360 C1386 0.950 . S
H1361 C1388 0.950 . S
H1362 C1391 0.950 . S
H1363 C1392 0.950 . S
H1364 C1394 0.950 . S
H1365 C1395 0.950 . S
C1366 H1348 0.951 . S
C1366 C1367 1.366 . S
C1366 C1368 1.388 . S
C1367 C1366 1.366 . S
C1367 C1371 1.385 . S
C1368 H1349 0.951 . S
C1368 C1366 1.388 . S
C1368 C1369 1.366 . S
C1369 C1368 1.366 . S
C1369 C1370 1.414 . S
C1369 C1372 1.499 . S
C1370 H1350 0.950 . S
C1370 C1369 1.414 . S
C1370 C1371 1.374 . S
C1371 H1351 0.950 . S
C1371 C1367 1.385 . S
C1371 C1370 1.374 . S
C1372 C1369 1.499 . S
C1372 C1373 1.373 . S
C1372 C1374 1.389 . S
C1373 H1352 0.950 . S
C1373 C1372 1.373 . S
C1373 C1389 1.377 . S
C1374 C1372 1.389 . S
C1374 C1375 1.524 . S
C1374 C1388 1.377 . S
C1375 C1374 1.524 . S
C1375 C1376 1.397 . S
C1375 C1380 1.363 . S
C1376 H1353 0.950 . S
C1376 C1375 1.397 . S
C1376 C1377 1.334 . S
C1377 H1354 0.950 . S
C1377 C1376 1.334 . S
C1377 C1378 1.287 . S
C1378 C1377 1.287 . S
C1378 C1379 1.524 . S
C1378 H1397 0.913 . S
C1379 H1355 0.950 . S
C1379 C1378 1.524 . S
C1379 C1380 1.415 . S
C1380 H1356 0.950 . S
C1380 C1375 1.363 . S
C1380 C1379 1.415 . S
C1381 H1357 0.951 . S
C1381 C1382 1.366 . S
C1381 C1383 1.388 . S
C1382 C1381 1.366 . S
C1382 C1386 1.385 . S
C1383 H1358 0.951 . S
C1383 C1381 1.388 . S
C1383 C1384 1.366 . S
C1384 C1383 1.366 . S
C1384 C1385 1.414 . S
C1384 C1387 1.499 . S
C1385 H1359 0.950 . S
C1385 C1384 1.414 . S
C1385 C1386 1.374 . S
C1386 H1360 0.950 . S
C1386 C1382 1.385 . S
C1386 C1385 1.374 . S
C1387 C1384 1.499 . S
C1387 C1388 1.373 . S
C1387 C1389 1.389 . S
C1388 H1361 0.950 . S
C1388 C1374 1.377 . S
C1388 C1387 1.373 . S
C1389 C1373 1.377 . S
C1389 C1387 1.389 . S
C1389 C1390 1.524 . S
C1390 C1389 1.524 . S
C1390 C1391 1.397 . S
C1390 C1395 1.363 . S
C1391 H1362 0.950 . S
C1391 C1390 1.397 . S
C1391 C1392 1.334 . S
C1392 H1363 0.950 . S
C1392 C1391 1.334 . S
C1392 C1393 1.287 . S
C1393 C1392 1.287 . S
C1393 C1394 1.524 . S
C1393 H1396 0.999 . S
C1394 H1364 0.950 . S
C1394 C1393 1.524 . S
C1394 C1395 1.415 . S
C1395 H1365 0.950 . S
C1395 C1390 1.363 . S
C1395 C1394 1.415 . S
H1396 C1393 0.999 . S
H1397 C1378 0.913 . S
H1398 C1416 0.951 . S
H1399 C1418 0.951 . S
H1400 C1420 0.950 . S
H1401 C1421 0.950 . S
H1402 C1423 0.950 . S
H1403 C1426 0.950 . S
H1404 C1427 0.950 . S
H1405 C1429 0.950 . S
H1406 C1430 0.950 . S
H1407 C1431 0.951 . S
H1408 C1433 0.951 . S
H1409 C1435 0.950 . S
H1410 C1436 0.950 . S
H1411 C1438 0.950 . S
H1412 C1441 0.950 . S
H1413 C1442 0.950 . S
H1414 C1444 0.950 . S
H1415 C1445 0.950 . S
C1416 H1398 0.951 . S
C1416 C1417 1.366 . S
C1416 C1418 1.388 . S
C1417 C1416 1.366 . S
C1417 C1421 1.385 . S
C1418 H1399 0.951 . S
C1418 C1416 1.388 . S
C1418 C1419 1.366 . S
C1419 C1418 1.366 . S
C1419 C1420 1.414 . S
C1419 C1422 1.499 . S
C1420 H1400 0.950 . S
C1420 C1419 1.414 . S
C1420 C1421 1.374 . S
C1421 H1401 0.950 . S
C1421 C1417 1.385 . S
C1421 C1420 1.374 . S
C1422 C1419 1.499 . S
C1422 C1423 1.373 . S
C1422 C1424 1.389 . S
C1423 H1402 0.950 . S
C1423 C1422 1.373 . S
C1423 C1439 1.377 . S
C1424 C1422 1.389 . S
C1424 C1425 1.524 . S
C1424 C1438 1.377 . S
C1425 C1424 1.524 . S
C1425 C1426 1.397 . S
C1425 C1430 1.363 . S
C1426 H1403 0.950 . S
C1426 C1425 1.397 . S
C1426 C1427 1.334 . S
C1427 H1404 0.950 . S
C1427 C1426 1.334 . S
C1427 C1428 1.287 . S
C1428 C1427 1.287 . S
C1428 C1429 1.524 . S
C1428 H1447 0.913 . S
C1429 H1405 0.950 . S
C1429 C1428 1.524 . S
C1429 C1430 1.415 . S
C1430 H1406 0.950 . S
C1430 C1425 1.363 . S
C1430 C1429 1.415 . S
C1431 H1407 0.951 . S
C1431 C1432 1.366 . S
C1431 C1433 1.388 . S
C1432 C1431 1.366 . S
C1432 C1436 1.385 . S
C1433 H1408 0.951 . S
C1433 C1431 1.388 . S
C1433 C1434 1.366 . S
C1434 C1433 1.366 . S
C1434 C1435 1.414 . S
C1434 C1437 1.499 . S
C1435 H1409 0.950 . S
C1435 C1434 1.414 . S
C1435 C1436 1.374 . S
C1436 H1410 0.950 . S
C1436 C1432 1.385 . S
C1436 C1435 1.374 . S
C1437 C1434 1.499 . S
C1437 C1438 1.373 . S
C1437 C1439 1.389 . S
C1438 H1411 0.950 . S
C1438 C1424 1.377 . S
C1438 C1437 1.373 . S
C1439 C1423 1.377 . S
C1439 C1437 1.389 . S
C1439 C1440 1.524 . S
C1440 C1439 1.524 . S
C1440 C1441 1.397 . S
C1440 C1445 1.363 . S
C1441 H1412 0.950 . S
C1441 C1440 1.397 . S
C1441 C1442 1.334 . S
C1442 H1413 0.950 . S
C1442 C1441 1.334 . S
C1442 C1443 1.287 . S
C1443 C1442 1.287 . S
C1443 C1444 1.524 . S
C1443 H1446 0.999 . S
C1444 H1414 0.950 . S
C1444 C1443 1.524 . S
C1444 C1445 1.415 . S
C1445 H1415 0.950 . S
C1445 C1440 1.363 . S
C1445 C1444 1.415 . S
H1446 C1443 0.999 . S
H1447 C1428 0.913 . S
H1448 C1466 0.951 . S
H1449 C1468 0.951 . S
H1450 C1470 0.950 . S
H1451 C1471 0.950 . S
H1452 C1473 0.950 . S
H1453 C1476 0.950 . S
H1454 C1477 0.950 . S
H1455 C1479 0.950 . S
H1456 C1480 0.950 . S
H1457 C1481 0.951 . S
H1458 C1483 0.951 . S
H1459 C1485 0.950 . S
H1460 C1486 0.950 . S
H1461 C1488 0.950 . S
H1462 C1491 0.950 . S
H1463 C1492 0.950 . S
H1464 C1494 0.950 1_556 S
H1465 C1495 0.950 . S
C1466 H1448 0.951 . S
C1466 C1467 1.366 . S
C1466 C1468 1.388 . S
C1467 C1466 1.366 . S
C1467 C1471 1.385 . S
C1468 H1449 0.951 . S
C1468 C1466 1.388 . S
C1468 C1469 1.366 . S
C1469 C1468 1.366 . S
C1469 C1470 1.414 . S
C1469 C1472 1.499 . S
C1470 H1450 0.950 . S
C1470 C1469 1.414 . S
C1470 C1471 1.374 . S
C1471 H1451 0.950 . S
C1471 C1467 1.385 . S
C1471 C1470 1.374 . S
C1472 C1469 1.499 . S
C1472 C1473 1.373 . S
C1472 C1474 1.389 . S
C1473 H1452 0.950 . S
C1473 C1472 1.373 . S
C1473 C1489 1.377 . S
C1474 C1472 1.389 . S
C1474 C1475 1.524 . S
C1474 C1488 1.377 . S
C1475 C1474 1.524 . S
C1475 C1476 1.397 . S
C1475 C1480 1.363 . S
C1476 H1453 0.950 . S
C1476 C1475 1.397 . S
C1476 C1477 1.334 . S
C1477 H1454 0.950 . S
C1477 C1476 1.334 . S
C1477 C1478 1.287 . S
C1478 C1477 1.287 . S
C1478 C1479 1.524 . S
C1478 H1497 0.913 . S
C1479 H1455 0.950 . S
C1479 C1478 1.524 . S
C1479 C1480 1.415 . S
C1480 H1456 0.950 . S
C1480 C1475 1.363 . S
C1480 C1479 1.415 . S
C1481 H1457 0.951 . S
C1481 C1482 1.366 . S
C1481 C1483 1.388 1_556 S
C1482 C1481 1.366 . S
C1482 C1486 1.385 1_556 S
C1483 H1458 0.951 . S
C1483 C1481 1.388 1_554 S
C1483 C1484 1.366 . S
C1484 C1483 1.366 . S
C1484 C1485 1.414 . S
C1484 C1487 1.499 . S
C1485 H1459 0.950 . S
C1485 C1484 1.414 . S
C1485 C1486 1.374 . S
C1486 H1460 0.950 . S
C1486 C1482 1.385 1_554 S
C1486 C1485 1.374 . S
C1487 C1484 1.499 . S
C1487 C1488 1.373 . S
C1487 C1489 1.389 . S
C1488 H1461 0.950 . S
C1488 C1474 1.377 . S
C1488 C1487 1.373 . S
C1489 C1473 1.377 . S
C1489 C1487 1.389 . S
C1489 C1490 1.524 . S
C1490 C1489 1.524 . S
C1490 C1491 1.397 . S
C1490 C1495 1.363 . S
C1491 H1462 0.950 . S
C1491 C1490 1.397 . S
C1491 C1492 1.334 . S
C1492 H1463 0.950 . S
C1492 C1491 1.334 . S
C1492 C1493 1.287 . S
C1493 C1492 1.287 . S
C1493 C1494 1.524 . S
C1493 H1496 0.999 1_554 S
C1494 H1464 0.950 1_554 S
C1494 C1493 1.524 . S
C1494 C1495 1.415 . S
C1495 H1465 0.950 . S
C1495 C1490 1.363 . S
C1495 C1494 1.415 . S
H1496 C1493 0.999 1_556 S
H1497 C1478 0.913 . S
H1498 C1516 0.951 . S
H1499 C1518 0.951 . S
H1500 C1520 0.950 . S
H1501 C1521 0.950 . S
H1502 C1523 0.950 . S
H1503 C1526 0.950 . S
H1504 C1527 0.950 . S
H1505 C1529 0.950 . S
H1506 C1530 0.950 . S
H1507 C1531 0.951 . S
H1508 C1533 0.951 . S
H1509 C1535 0.950 . S
H1510 C1536 0.950 . S
H1511 C1538 0.950 . S
H1512 C1541 0.950 . S
H1513 C1542 0.950 . S
H1514 C1544 0.950 . S
H1515 C1545 0.950 . S
C1516 H1498 0.951 . S
C1516 C1517 1.366 . S
C1516 C1518 1.388 . S
C1517 C1516 1.366 . S
C1517 C1521 1.385 . S
C1518 H1499 0.951 . S
C1518 C1516 1.388 . S
C1518 C1519 1.366 . S
C1519 C1518 1.366 . S
C1519 C1520 1.414 . S
C1519 C1522 1.499 . S
C1520 H1500 0.950 . S
C1520 C1519 1.414 . S
C1520 C1521 1.374 . S
C1521 H1501 0.950 . S
C1521 C1517 1.385 . S
C1521 C1520 1.374 . S
C1522 C1519 1.499 . S
C1522 C1523 1.373 . S
C1522 C1524 1.389 . S
C1523 H1502 0.950 . S
C1523 C1522 1.373 . S
C1523 C1539 1.377 . S
C1524 C1522 1.389 . S
C1524 C1525 1.524 . S
C1524 C1538 1.377 . S
C1525 C1524 1.524 . S
C1525 C1526 1.397 . S
C1525 C1530 1.363 . S
C1526 H1503 0.950 . S
C1526 C1525 1.397 . S
C1526 C1527 1.334 . S
C1527 H1504 0.950 . S
C1527 C1526 1.334 . S
C1527 C1528 1.287 . S
C1528 C1527 1.287 . S
C1528 C1529 1.524 . S
C1528 H1547 0.913 . S
C1529 H1505 0.950 . S
C1529 C1528 1.524 . S
C1529 C1530 1.415 . S
C1530 H1506 0.950 . S
C1530 C1525 1.363 . S
C1530 C1529 1.415 . S
C1531 H1507 0.951 . S
C1531 C1532 1.366 . S
C1531 C1533 1.388 . S
C1532 C1531 1.366 . S
C1532 C1536 1.385 . S
C1533 H1508 0.951 . S
C1533 C1531 1.388 . S
C1533 C1534 1.366 . S
C1534 C1533 1.366 . S
C1534 C1535 1.414 . S
C1534 C1537 1.499 . S
C1535 H1509 0.950 . S
C1535 C1534 1.414 . S
C1535 C1536 1.374 . S
C1536 H1510 0.950 . S
C1536 C1532 1.385 . S
C1536 C1535 1.374 . S
C1537 C1534 1.499 . S
C1537 C1538 1.373 . S
C1537 C1539 1.389 . S
C1538 H1511 0.950 . S
C1538 C1524 1.377 . S
C1538 C1537 1.373 . S
C1539 C1523 1.377 . S
C1539 C1537 1.389 . S
C1539 C1540 1.524 . S
C1540 C1539 1.524 . S
C1540 C1541 1.397 . S
C1540 C1545 1.363 . S
C1541 H1512 0.950 . S
C1541 C1540 1.397 . S
C1541 C1542 1.334 . S
C1542 H1513 0.950 . S
C1542 C1541 1.334 . S
C1542 C1543 1.287 . S
C1543 C1542 1.287 . S
C1543 C1544 1.524 . S
C1543 H1546 0.999 . S
C1544 H1514 0.950 . S
C1544 C1543 1.524 . S
C1544 C1545 1.415 . S
C1545 H1515 0.950 . S
C1545 C1540 1.363 . S
C1545 C1544 1.415 . S
H1546 C1543 0.999 . S
H1547 C1528 0.913 . S
H1548 C1566 0.951 . S
H1549 C1568 0.951 . S
H1550 C1570 0.950 . S
H1551 C1571 0.950 . S
H1552 C1573 0.950 . S
H1553 C1576 0.950 . S
H1554 C1577 0.950 . S
H1555 C1579 0.950 . S
H1556 C1580 0.950 . S
H1557 C1581 0.951 . S
H1558 C1583 0.951 . S
H1559 C1585 0.950 . S
H1560 C1586 0.950 . S
H1561 C1588 0.950 . S
H1562 C1591 0.950 . S
H1563 C1592 0.950 . S
H1564 C1594 0.950 . S
H1565 C1595 0.950 . S
C1566 H1548 0.951 . S
C1566 C1567 1.366 . S
C1566 C1568 1.388 . S
C1567 C1566 1.366 . S
C1567 C1571 1.385 . S
C1568 H1549 0.951 . S
C1568 C1566 1.388 . S
C1568 C1569 1.366 . S
C1569 C1568 1.366 . S
C1569 C1570 1.414 . S
C1569 C1572 1.499 . S
C1570 H1550 0.950 . S
C1570 C1569 1.414 . S
C1570 C1571 1.374 . S
C1571 H1551 0.950 . S
C1571 C1567 1.385 . S
C1571 C1570 1.374 . S
C1572 C1569 1.499 . S
C1572 C1573 1.373 . S
C1572 C1574 1.389 . S
C1573 H1552 0.950 . S
C1573 C1572 1.373 . S
C1573 C1589 1.377 . S
C1574 C1572 1.389 . S
C1574 C1575 1.524 . S
C1574 C1588 1.377 . S
C1575 C1574 1.524 . S
C1575 C1576 1.397 . S
C1575 C1580 1.363 . S
C1576 H1553 0.950 . S
C1576 C1575 1.397 . S
C1576 C1577 1.334 . S
C1577 H1554 0.950 . S
C1577 C1576 1.334 . S
C1577 C1578 1.287 . S
C1578 C1577 1.287 . S
C1578 C1579 1.524 . S
C1578 H1597 0.913 . S
C1579 H1555 0.950 . S
C1579 C1578 1.524 . S
C1579 C1580 1.415 . S
C1580 H1556 0.950 . S
C1580 C1575 1.363 . S
C1580 C1579 1.415 . S
C1581 H1557 0.951 . S
C1581 C1582 1.366 . S
C1581 C1583 1.388 . S
C1582 C1581 1.366 . S
C1582 C1586 1.385 . S
C1583 H1558 0.951 . S
C1583 C1581 1.388 . S
C1583 C1584 1.366 . S
C1584 C1583 1.366 . S
C1584 C1585 1.414 . S
C1584 C1587 1.499 . S
C1585 H1559 0.950 . S
C1585 C1584 1.414 . S
C1585 C1586 1.374 . S
C1586 H1560 0.950 . S
C1586 C1582 1.385 . S
C1586 C1585 1.374 . S
C1587 C1584 1.499 . S
C1587 C1588 1.373 . S
C1587 C1589 1.389 . S
C1588 H1561 0.950 . S
C1588 C1574 1.377 . S
C1588 C1587 1.373 . S
C1589 C1573 1.377 . S
C1589 C1587 1.389 . S
C1589 C1590 1.524 . S
C1590 C1589 1.524 . S
C1590 C1591 1.397 . S
C1590 C1595 1.363 . S
C1591 H1562 0.950 . S
C1591 C1590 1.397 . S
C1591 C1592 1.334 . S
C1592 H1563 0.950 . S
C1592 C1591 1.334 . S
C1592 C1593 1.287 . S
C1593 C1592 1.287 . S
C1593 C1594 1.524 . S
C1593 H1596 0.999 . S
C1594 H1564 0.950 . S
C1594 C1593 1.524 . S
C1594 C1595 1.415 . S
C1595 H1565 0.950 . S
C1595 C1590 1.363 . S
C1595 C1594 1.415 . S
H1596 C1593 0.999 . S
H1597 C1578 0.913 . S
H1598 C1616 0.951 . S
H1599 C1618 0.951 . S
H1600 C1620 0.950 . S
H1601 C1621 0.950 . S
H1602 C1623 0.950 . S
H1603 C1626 0.950 . S
H1604 C1627 0.950 . S
H1605 C1629 0.950 . S
H1606 C1630 0.950 . S
H1607 C1631 0.951 . S
H1608 C1633 0.951 . S
H1609 C1635 0.950 . S
H1610 C1636 0.950 . S
H1611 C1638 0.950 . S
H1612 C1641 0.950 . S
H1613 C1642 0.950 . S
H1614 C1644 0.950 . S
H1615 C1645 0.950 . S
C1616 H1598 0.951 . S
C1616 C1617 1.366 . S
C1616 C1618 1.388 . S
C1617 C1616 1.366 . S
C1617 C1621 1.385 . S
C1618 H1599 0.951 . S
C1618 C1616 1.388 . S
C1618 C1619 1.366 . S
C1619 C1618 1.366 . S
C1619 C1620 1.414 . S
C1619 C1622 1.499 . S
C1620 H1600 0.950 . S
C1620 C1619 1.414 . S
C1620 C1621 1.374 . S
C1621 H1601 0.950 . S
C1621 C1617 1.385 . S
C1621 C1620 1.374 . S
C1622 C1619 1.499 . S
C1622 C1623 1.373 . S
C1622 C1624 1.389 . S
C1623 H1602 0.950 . S
C1623 C1622 1.373 . S
C1623 C1639 1.377 . S
C1624 C1622 1.389 . S
C1624 C1625 1.524 . S
C1624 C1638 1.377 . S
C1625 C1624 1.524 . S
C1625 C1626 1.397 . S
C1625 C1630 1.363 . S
C1626 H1603 0.950 . S
C1626 C1625 1.397 . S
C1626 C1627 1.334 . S
C1627 H1604 0.950 . S
C1627 C1626 1.334 . S
C1627 C1628 1.287 . S
C1628 C1627 1.287 . S
C1628 C1629 1.524 . S
C1628 H1647 0.913 . S
C1629 H1605 0.950 . S
C1629 C1628 1.524 . S
C1629 C1630 1.415 . S
C1630 H1606 0.950 . S
C1630 C1625 1.363 . S
C1630 C1629 1.415 . S
C1631 H1607 0.951 . S
C1631 C1632 1.366 . S
C1631 C1633 1.388 . S
C1632 C1631 1.366 . S
C1632 C1636 1.385 . S
C1633 H1608 0.951 . S
C1633 C1631 1.388 . S
C1633 C1634 1.366 . S
C1634 C1633 1.366 . S
C1634 C1635 1.414 . S
C1634 C1637 1.499 . S
C1635 H1609 0.950 . S
C1635 C1634 1.414 . S
C1635 C1636 1.374 . S
C1636 H1610 0.950 . S
C1636 C1632 1.385 . S
C1636 C1635 1.374 . S
C1637 C1634 1.499 . S
C1637 C1638 1.373 . S
C1637 C1639 1.389 . S
C1638 H1611 0.950 . S
C1638 C1624 1.377 . S
C1638 C1637 1.373 . S
C1639 C1623 1.377 . S
C1639 C1637 1.389 . S
C1639 C1640 1.524 . S
C1640 C1639 1.524 . S
C1640 C1641 1.397 . S
C1640 C1645 1.363 . S
C1641 H1612 0.950 . S
C1641 C1640 1.397 . S
C1641 C1642 1.334 . S
C1642 H1613 0.950 . S
C1642 C1641 1.334 . S
C1642 C1643 1.287 . S
C1643 C1642 1.287 . S
C1643 C1644 1.524 . S
C1643 H1646 0.999 . S
C1644 H1614 0.950 . S
C1644 C1643 1.524 . S
C1644 C1645 1.415 . S
C1645 H1615 0.950 . S
C1645 C1640 1.363 . S
C1645 C1644 1.415 . S
H1646 C1643 0.999 . S
H1647 C1628 0.913 . S
H1648 C1666 0.951 . S
H1649 C1668 0.951 . S
H1650 C1670 0.950 . S
H1651 C1671 0.950 . S
H1652 C1673 0.950 . S
H1653 C1676 0.950 . S
H1654 C1677 0.950 . S
H1655 C1679 0.950 . S
H1656 C1680 0.950 . S
H1657 C1681 0.951 . S
H1658 C1683 0.951 . S
H1659 C1685 0.950 . S
H1660 C1686 0.950 . S
H1661 C1688 0.950 . S
H1662 C1691 0.950 . S
H1663 C1692 0.950 . S
H1664 C1694 0.950 . S
H1665 C1695 0.950 . S
C1666 H1648 0.951 . S
C1666 C1667 1.366 . S
C1666 C1668 1.388 . S
C1667 C1666 1.366 . S
C1667 C1671 1.385 . S
C1668 H1649 0.951 . S
C1668 C1666 1.388 . S
C1668 C1669 1.366 . S
C1669 C1668 1.366 . S
C1669 C1670 1.414 . S
C1669 C1672 1.499 . S
C1670 H1650 0.950 . S
C1670 C1669 1.414 . S
C1670 C1671 1.374 . S
C1671 H1651 0.950 . S
C1671 C1667 1.385 . S
C1671 C1670 1.374 . S
C1672 C1669 1.499 . S
C1672 C1673 1.373 1_565 S
C1672 C1674 1.389 . S
C1673 H1652 0.950 . S
C1673 C1672 1.373 1_545 S
C1673 C1689 1.377 . S
C1674 C1672 1.389 . S
C1674 C1675 1.524 . S
C1674 C1688 1.377 . S
C1675 C1674 1.524 . S
C1675 C1676 1.397 . S
C1675 C1680 1.363 . S
C1676 H1653 0.950 . S
C1676 C1675 1.397 . S
C1676 C1677 1.334 . S
C1677 H1654 0.950 . S
C1677 C1676 1.334 . S
C1677 C1678 1.287 . S
C1678 C1677 1.287 . S
C1678 C1679 1.524 . S
C1678 H1697 0.913 . S
C1679 H1655 0.950 . S
C1679 C1678 1.524 . S
C1679 C1680 1.415 . S
C1680 H1656 0.950 . S
C1680 C1675 1.363 . S
C1680 C1679 1.415 . S
C1681 H1657 0.951 . S
C1681 C1682 1.366 . S
C1681 C1683 1.388 . S
C1682 C1681 1.366 . S
C1682 C1686 1.385 . S
C1683 H1658 0.951 . S
C1683 C1681 1.388 . S
C1683 C1684 1.366 . S
C1684 C1683 1.366 . S
C1684 C1685 1.414 . S
C1684 C1687 1.499 . S
C1685 H1659 0.950 . S
C1685 C1684 1.414 . S
C1685 C1686 1.374 . S
C1686 H1660 0.950 . S
C1686 C1682 1.385 . S
C1686 C1685 1.374 . S
C1687 C1684 1.499 . S
C1687 C1688 1.373 1_545 S
C1687 C1689 1.389 . S
C1688 H1661 0.950 . S
C1688 C1674 1.377 . S
C1688 C1687 1.373 1_565 S
C1689 C1673 1.377 . S
C1689 C1687 1.389 . S
C1689 C1690 1.524 . S
C1690 C1689 1.524 . S
C1690 C1691 1.397 . S
C1690 C1695 1.363 . S
C1691 H1662 0.950 . S
C1691 C1690 1.397 . S
C1691 C1692 1.334 . S
C1692 H1663 0.950 . S
C1692 C1691 1.334 . S
C1692 C1693 1.287 . S
C1693 C1692 1.287 . S
C1693 C1694 1.524 . S
C1693 H1696 0.999 . S
C1694 H1664 0.950 . S
C1694 C1693 1.524 . S
C1694 C1695 1.415 . S
C1695 H1665 0.950 . S
C1695 C1690 1.363 . S
C1695 C1694 1.415 . S
H1696 C1693 0.999 . S
H1697 C1678 0.913 . S
H1698 C1716 0.951 . S
H1699 C1718 0.951 . S
H1700 C1720 0.950 . S
H1701 C1721 0.950 . S
H1702 C1723 0.950 . S
H1703 C1726 0.950 . S
H1704 C1727 0.950 . S
H1705 C1729 0.950 . S
H1706 C1730 0.950 . S
H1707 C1731 0.950 . S
H1708 C1733 0.951 . S
H1709 C1735 0.950 . S
H1710 C1736 0.950 . S
H1711 C1738 0.950 . S
H1712 C1741 0.950 . S
H1713 C1742 0.950 . S
H1714 C1744 0.950 . S
H1715 C1745 0.945 1_554 S
C1716 H1698 0.951 . S
C1716 C1717 1.366 . S
C1716 C1718 1.388 . S
C1717 C1716 1.366 . S
C1717 C1721 1.385 . S
C1718 H1699 0.951 . S
C1718 C1716 1.388 . S
C1718 C1719 1.366 . S
C1719 C1718 1.366 . S
C1719 C1720 1.414 . S
C1719 C1722 1.499 . S
C1720 H1700 0.950 . S
C1720 C1719 1.414 . S
C1720 C1721 1.374 . S
C1721 H1701 0.950 . S
C1721 C1717 1.385 . S
C1721 C1720 1.374 . S
C1722 C1719 1.499 . S
C1722 C1723 1.373 . S
C1722 C1724 1.389 . S
C1723 H1702 0.950 . S
C1723 C1722 1.373 . S
C1723 C1739 1.377 . S
C1724 C1722 1.389 . S
C1724 C1725 1.524 . S
C1724 C1738 1.377 . S
C1725 C1724 1.524 . S
C1725 C1726 1.397 . S
C1725 C1730 1.363 . S
C1726 H1703 0.950 . S
C1726 C1725 1.397 . S
C1726 C1727 1.334 . S
C1727 H1704 0.950 . S
C1727 C1726 1.334 . S
C1727 C1728 1.287 . S
C1728 C1727 1.287 . S
C1728 C1729 1.524 . S
C1728 H1747 0.913 . S
C1729 H1705 0.950 . S
C1729 C1728 1.524 . S
C1729 C1730 1.415 . S
C1730 H1706 0.950 . S
C1730 C1725 1.363 . S
C1730 C1729 1.415 . S
C1731 H1707 0.950 . S
C1731 C1732 1.366 . S
C1731 C1733 1.389 1_556 S
C1732 C1731 1.366 . S
C1732 C1736 1.385 1_556 S
C1733 H1708 0.951 . S
C1733 C1731 1.389 1_554 S
C1733 C1734 1.366 . S
C1734 C1733 1.366 . S
C1734 C1735 1.414 . S
C1734 C1737 1.499 . S
C1735 H1709 0.950 . S
C1735 C1734 1.414 . S
C1735 C1736 1.374 . S
C1736 H1710 0.950 . S
C1736 C1732 1.385 1_554 S
C1736 C1735 1.374 . S
C1737 C1734 1.499 . S
C1737 C1738 1.373 . S
C1737 C1739 1.389 . S
C1738 H1711 0.950 . S
C1738 C1724 1.377 . S
C1738 C1737 1.373 . S
C1739 C1723 1.377 . S
C1739 C1737 1.389 . S
C1739 C1740 1.524 . S
C1740 C1739 1.524 . S
C1740 C1741 1.397 1_554 S
C1740 C1745 1.362 1_554 S
C1741 H1712 0.950 . S
C1741 C1740 1.397 1_556 S
C1741 C1742 1.334 . S
C1742 H1713 0.950 . S
C1742 C1741 1.334 . S
C1742 C1743 1.287 . S
C1743 C1742 1.287 . S
C1743 C1744 1.524 . S
C1743 H1746 0.999 . S
C1744 H1714 0.950 . S
C1744 C1743 1.524 . S
C1744 C1745 1.421 . S
C1745 H1715 0.945 1_556 S
C1745 C1740 1.362 1_556 S
C1745 C1744 1.421 . S
H1746 C1743 0.999 . S
H1747 C1728 0.913 . S
H1748 C1766 0.951 . S
H1749 C1768 0.944 1_455 S
H1750 C1770 0.950 . S
H1751 C1771 0.950 . S
H1752 C1773 0.950 . S
H1753 C1776 0.950 . S
H1754 C1777 0.950 1_554 S
H1755 C1779 0.950 . S
H1756 C1780 0.950 . S
H1757 C1781 0.951 . S
H1758 C1783 0.951 . S
H1759 C1785 0.950 . S
H1760 C1786 0.950 . S
H1761 C1788 0.950 . S
H1762 C1791 0.950 . S
H1763 C1792 0.950 . S
H1764 C1794 0.950 . S
H1765 C1795 0.950 . S
C1766 H1748 0.951 . S
C1766 C1767 1.366 . S
C1766 C1768 1.388 . S
C1767 C1766 1.366 . S
C1767 C1771 1.385 1_556 S
C1768 H1749 0.944 1_655 S
C1768 C1766 1.388 . S
C1768 C1769 1.366 1_556 S
C1769 C1768 1.366 1_554 S
C1769 C1770 1.414 . S
C1769 C1772 1.499 1_655 S
C1770 H1750 0.950 . S
C1770 C1769 1.414 . S
C1770 C1771 1.374 . S
C1771 H1751 0.950 . S
C1771 C1767 1.385 1_554 S
C1771 C1770 1.374 . S
C1772 C1769 1.499 1_455 S
C1772 C1773 1.373 . S
C1772 C1774 1.412 1_455 S
C1773 H1752 0.950 . S
C1773 C1772 1.373 . S
C1773 C1789 1.377 . S
C1774 C1772 1.412 1_655 S
C1774 C1775 1.559 . S
C1774 C1788 1.323 1_655 S
C1775 C1774 1.559 . S
C1775 C1776 1.397 . S
C1775 C1780 1.363 1_554 S
C1776 H1753 0.950 . S
C1776 C1775 1.397 . S
C1776 C1777 1.334 1_554 S
C1777 H1754 0.950 1_556 S
C1777 C1776 1.334 1_556 S
C1777 C1778 1.287 . S
C1778 C1777 1.287 . S
C1778 C1779 1.524 . S
C1778 H1797 0.913 . S
C1779 H1755 0.950 . S
C1779 C1778 1.524 . S
C1779 C1780 1.415 . S
C1780 H1756 0.950 . S
C1780 C1775 1.363 1_556 S
C1780 C1779 1.415 . S
C1781 H1757 0.951 . S
C1781 C1782 1.366 . S
C1781 C1783 1.388 . S
C1782 C1781 1.366 . S
C1782 C1786 1.385 . S
C1783 H1758 0.951 . S
C1783 C1781 1.388 . S
C1783 C1784 1.366 . S
C1784 C1783 1.366 . S
C1784 C1785 1.414 . S
C1784 C1787 1.499 . S
C1785 H1759 0.950 . S
C1785 C1784 1.414 . S
C1785 C1786 1.374 . S
C1786 H1760 0.950 . S
C1786 C1782 1.385 . S
C1786 C1785 1.374 . S
C1787 C1784 1.499 . S
C1787 C1788 1.373 . S
C1787 C1789 1.389 . S
C1788 H1761 0.950 . S
C1788 C1774 1.323 1_455 S
C1788 C1787 1.373 . S
C1789 C1773 1.377 . S
C1789 C1787 1.389 . S
C1789 C1790 1.524 . S
C1790 C1789 1.524 . S
C1790 C1791 1.397 . S
C1790 C1795 1.363 . S
C1791 H1762 0.950 . S
C1791 C1790 1.397 . S
C1791 C1792 1.334 . S
C1792 H1763 0.950 . S
C1792 C1791 1.334 . S
C1792 C1793 1.287 . S
C1793 C1792 1.287 . S
C1793 C1794 1.524 . S
C1793 H1796 0.999 . S
C1794 H1764 0.950 . S
C1794 C1793 1.524 . S
C1794 C1795 1.415 . S
C1795 H1765 0.950 . S
C1795 C1790 1.363 . S
C1795 C1794 1.415 . S
H1796 C1793 0.999 . S
H1797 C1778 0.913 . S
H1798 C1816 0.951 . S
H1799 C1818 0.951 . S
H1800 C1820 0.950 . S
H1801 C1821 0.950 . S
H1802 C1823 0.950 . S
H1803 C1826 0.950 . S
H1804 C1827 0.950 . S
H1805 C1829 0.950 . S
H1806 C1830 0.950 . S
H1807 C1831 0.951 . S
H1808 C1833 0.951 . S
H1809 C1835 0.950 . S
H1810 C1836 0.950 . S
H1811 C1838 0.950 . S
H1812 C1841 0.950 . S
H1813 C1842 0.950 . S
H1814 C1844 0.950 . S
H1815 C1845 0.950 . S
C1816 H1798 0.951 . S
C1816 C1817 1.366 . S
C1816 C1818 1.388 . S
C1817 C1816 1.366 . S
C1817 C1821 1.385 1_556 S
C1818 H1799 0.951 . S
C1818 C1816 1.388 . S
C1818 C1819 1.366 1_556 S
C1819 C1818 1.366 1_554 S
C1819 C1820 1.414 . S
C1819 C1822 1.499 . S
C1820 H1800 0.950 . S
C1820 C1819 1.414 . S
C1820 C1821 1.374 . S
C1821 H1801 0.950 . S
C1821 C1817 1.385 1_554 S
C1821 C1820 1.374 . S
C1822 C1819 1.499 . S
C1822 C1823 1.373 . S
C1822 C1824 1.389 . S
C1823 H1802 0.950 . S
C1823 C1822 1.373 . S
C1823 C1839 1.377 . S
C1824 C1822 1.389 . S
C1824 C1825 1.524 . S
C1824 C1838 1.377 . S
C1825 C1824 1.524 . S
C1825 C1826 1.397 . S
C1825 C1830 1.363 1_554 S
C1826 H1803 0.950 . S
C1826 C1825 1.397 . S
C1826 C1827 1.334 . S
C1827 H1804 0.950 . S
C1827 C1826 1.334 . S
C1827 C1828 1.287 1_554 S
C1828 C1827 1.287 1_556 S
C1828 C1829 1.524 . S
C1828 H1847 0.913 . S
C1829 H1805 0.950 . S
C1829 C1828 1.524 . S
C1829 C1830 1.415 . S
C1830 H1806 0.950 . S
C1830 C1825 1.363 1_556 S
C1830 C1829 1.415 . S
C1831 H1807 0.951 . S
C1831 C1832 1.366 . S
C1831 C1833 1.388 . S
C1832 C1831 1.366 . S
C1832 C1836 1.385 . S
C1833 H1808 0.951 . S
C1833 C1831 1.388 . S
C1833 C1834 1.366 . S
C1834 C1833 1.366 . S
C1834 C1835 1.414 . S
C1834 C1837 1.499 . S
C1835 H1809 0.950 . S
C1835 C1834 1.414 . S
C1835 C1836 1.374 . S
C1836 H1810 0.950 . S
C1836 C1832 1.385 . S
C1836 C1835 1.374 . S
C1837 C1834 1.499 . S
C1837 C1838 1.373 . S
C1837 C1839 1.389 . S
C1838 H1811 0.950 . S
C1838 C1824 1.377 . S
C1838 C1837 1.373 . S
C1839 C1823 1.377 . S
C1839 C1837 1.389 . S
C1839 C1840 1.524 . S
C1840 C1839 1.524 . S
C1840 C1841 1.397 . S
C1840 C1845 1.363 . S
C1841 H1812 0.950 . S
C1841 C1840 1.397 . S
C1841 C1842 1.334 . S
C1842 H1813 0.950 . S
C1842 C1841 1.334 . S
C1842 C1843 1.287 . S
C1843 C1842 1.287 . S
C1843 C1844 1.524 . S
C1843 H1846 0.999 . S
C1844 H1814 0.950 . S
C1844 C1843 1.524 . S
C1844 C1845 1.415 . S
C1845 H1815 0.950 . S
C1845 C1840 1.363 . S
C1845 C1844 1.415 . S
H1846 C1843 0.999 . S
H1847 C1828 0.913 . S
H1848 C1866 0.951 . S
H1849 C1868 0.951 . S
H1850 C1870 0.948 . S
H1851 C1871 0.950 . S
H1852 C1873 0.952 1_655 S
H1853 C1876 0.950 . S
H1854 C1877 0.950 . S
H1855 C1879 0.954 1_655 S
H1856 C1880 0.950 1_655 S
H1857 C1881 0.951 . S
H1858 C1883 0.951 . S
H1859 C1885 0.950 . S
H1860 C1886 0.950 . S
H1861 C1888 0.950 . S
H1862 C1891 0.950 . S
H1863 C1892 0.950 . S
H1864 C1894 0.950 . S
H1865 C1895 0.950 . S
C1866 H1848 0.951 . S
C1866 C1867 1.366 . S
C1866 C1868 1.388 . S
C1867 C1866 1.366 . S
C1867 C1871 1.385 . S
C1868 H1849 0.951 . S
C1868 C1866 1.388 . S
C1868 C1869 1.366 . S
C1869 C1868 1.366 . S
C1869 C1870 1.417 1_655 S
C1869 C1872 1.499 1_655 S
C1870 H1850 0.948 . S
C1870 C1869 1.417 1_455 S
C1870 C1871 1.374 1_455 S
C1871 H1851 0.950 . S
C1871 C1867 1.385 . S
C1871 C1870 1.374 1_655 S
C1872 C1869 1.499 1_455 S
C1872 C1873 1.373 . S
C1872 C1874 1.389 . S
C1873 H1852 0.952 1_455 S
C1873 C1872 1.373 . S
C1873 C1889 1.377 . S
C1874 C1872 1.389 . S
C1874 C1875 1.524 . S
C1874 C1888 1.377 . S
C1875 C1874 1.524 . S
C1875 C1876 1.397 . S
C1875 C1880 1.363 . S
C1876 H1853 0.950 . S
C1876 C1875 1.397 . S
C1876 C1877 1.334 . S
C1877 H1854 0.950 . S
C1877 C1876 1.334 . S
C1877 C1878 1.287 . S
C1878 C1877 1.287 . S
C1878 C1879 1.524 . S
C1878 H1897 0.913 . S
C1879 H1855 0.954 1_455 S
C1879 C1878 1.524 . S
C1879 C1880 1.415 . S
C1880 H1856 0.950 1_455 S
C1880 C1875 1.363 . S
C1880 C1879 1.415 . S
C1881 H1857 0.951 . S
C1881 C1882 1.366 . S
C1881 C1883 1.388 . S
C1882 C1881 1.366 . S
C1882 C1886 1.385 . S
C1883 H1858 0.951 . S
C1883 C1881 1.388 . S
C1883 C1884 1.366 . S
C1884 C1883 1.366 . S
C1884 C1885 1.414 . S
C1884 C1887 1.499 . S
C1885 H1859 0.950 . S
C1885 C1884 1.414 . S
C1885 C1886 1.374 . S
C1886 H1860 0.950 . S
C1886 C1882 1.385 . S
C1886 C1885 1.374 . S
C1887 C1884 1.499 . S
C1887 C1888 1.373 . S
C1887 C1889 1.389 . S
C1888 H1861 0.950 . S
C1888 C1874 1.377 . S
C1888 C1887 1.373 . S
C1889 C1873 1.377 . S
C1889 C1887 1.389 . S
C1889 C1890 1.524 . S
C1890 C1889 1.524 . S
C1890 C1891 1.397 1_455 S
C1890 C1895 1.363 . S
C1891 H1862 0.950 . S
C1891 C1890 1.397 1_655 S
C1891 C1892 1.334 . S
C1892 H1863 0.950 . S
C1892 C1891 1.334 . S
C1892 C1893 1.287 1_655 S
C1893 C1892 1.287 1_455 S
C1893 C1894 1.524 . S
C1893 H1896 1.002 . S
C1894 H1864 0.950 . S
C1894 C1893 1.524 . S
C1894 C1895 1.415 . S
C1895 H1865 0.950 . S
C1895 C1890 1.363 . S
C1895 C1894 1.415 . S
H1896 C1893 1.002 . S
H1897 C1878 0.913 . S
H1898 C1916 0.951 . S
H1899 C1918 0.951 . S
H1900 C1920 0.950 . S
H1901 C1921 0.950 . S
H1902 C1923 0.950 . S
H1903 C1926 0.950 . S
H1904 C1927 0.950 . S
H1905 C1929 0.950 . S
H1906 C1930 0.950 . S
H1907 C1931 0.951 . S
H1908 C1933 0.951 . S
H1909 C1935 0.950 . S
H1910 C1936 0.950 . S
H1911 C1938 0.950 . S
H1912 C1941 0.950 . S
H1913 C1942 0.950 . S
H1914 C1944 0.950 . S
H1915 C1945 0.950 . S
C1916 H1898 0.951 . S
C1916 C1917 1.366 . S
C1916 C1918 1.388 . S
C1917 C1916 1.366 . S
C1917 C1921 1.385 . S
C1918 H1899 0.951 . S
C1918 C1916 1.388 . S
C1918 C1919 1.366 . S
C1919 C1918 1.366 . S
C1919 C1920 1.414 . S
C1919 C1922 1.499 . S
C1920 H1900 0.950 . S
C1920 C1919 1.414 . S
C1920 C1921 1.374 . S
C1921 H1901 0.950 . S
C1921 C1917 1.385 . S
C1921 C1920 1.374 . S
C1922 C1919 1.499 . S
C1922 C1923 1.373 . S
C1922 C1924 1.389 . S
C1923 H1902 0.950 . S
C1923 C1922 1.373 . S
C1923 C1939 1.377 . S
C1924 C1922 1.389 . S
C1924 C1925 1.524 . S
C1924 C1938 1.377 . S
C1925 C1924 1.524 . S
C1925 C1926 1.397 . S
C1925 C1930 1.363 . S
C1926 H1903 0.950 . S
C1926 C1925 1.397 . S
C1926 C1927 1.334 . S
C1927 H1904 0.950 . S
C1927 C1926 1.334 . S
C1927 C1928 1.287 . S
C1928 C1927 1.287 . S
C1928 C1929 1.524 . S
C1928 H1947 0.913 . S
C1929 H1905 0.950 . S
C1929 C1928 1.524 . S
C1929 C1930 1.415 . S
C1930 H1906 0.950 . S
C1930 C1925 1.363 . S
C1930 C1929 1.415 . S
C1931 H1907 0.951 . S
C1931 C1932 1.366 . S
C1931 C1933 1.388 . S
C1932 C1931 1.366 . S
C1932 C1936 1.385 . S
C1933 H1908 0.951 . S
C1933 C1931 1.388 . S
C1933 C1934 1.366 . S
C1934 C1933 1.366 . S
C1934 C1935 1.414 . S
C1934 C1937 1.499 . S
C1935 H1909 0.950 . S
C1935 C1934 1.414 . S
C1935 C1936 1.374 . S
C1936 H1910 0.950 . S
C1936 C1932 1.385 . S
C1936 C1935 1.374 . S
C1937 C1934 1.499 . S
C1937 C1938 1.373 . S
C1937 C1939 1.389 . S
C1938 H1911 0.950 . S
C1938 C1924 1.377 . S
C1938 C1937 1.373 . S
C1939 C1923 1.377 . S
C1939 C1937 1.389 . S
C1939 C1940 1.524 . S
C1940 C1939 1.524 . S
C1940 C1941 1.397 . S
C1940 C1945 1.363 . S
C1941 H1912 0.950 . S
C1941 C1940 1.397 . S
C1941 C1942 1.334 . S
C1942 H1913 0.950 . S
C1942 C1941 1.334 . S
C1942 C1943 1.287 . S
C1943 C1942 1.287 . S
C1943 C1944 1.524 . S
C1943 H1946 0.999 . S
C1944 H1914 0.950 . S
C1944 C1943 1.524 . S
C1944 C1945 1.415 . S
C1945 H1915 0.950 . S
C1945 C1940 1.363 . S
C1945 C1944 1.415 . S
H1946 C1943 0.999 . S
H1947 C1928 0.913 . S
H1948 C1966 0.951 . S
H1949 C1968 0.951 . S
H1950 C1970 0.950 . S
H1951 C1971 0.950 . S
H1952 C1973 0.950 . S
H1953 C1976 0.950 . S
H1954 C1977 0.950 . S
H1955 C1979 0.950 . S
H1956 C1980 0.950 . S
H1957 C1981 0.951 . S
H1958 C1983 0.951 . S
H1959 C1985 0.950 . S
H1960 C1986 0.950 . S
H1961 C1988 0.950 . S
H1962 C1991 0.950 . S
H1963 C1992 0.950 . S
H1964 C1994 0.950 . S
H1965 C1995 0.950 . S
C1966 H1948 0.951 . S
C1966 C1967 1.366 . S
C1966 C1968 1.388 . S
C1967 C1966 1.366 . S
C1967 C1971 1.385 . S
C1968 H1949 0.951 . S
C1968 C1966 1.388 . S
C1968 C1969 1.366 . S
C1969 C1968 1.366 . S
C1969 C1970 1.414 . S
C1969 C1972 1.499 . S
C1970 H1950 0.950 . S
C1970 C1969 1.414 . S
C1970 C1971 1.374 . S
C1971 H1951 0.950 . S
C1971 C1967 1.385 . S
C1971 C1970 1.374 . S
C1972 C1969 1.499 . S
C1972 C1973 1.373 . S
C1972 C1974 1.389 . S
C1973 H1952 0.950 . S
C1973 C1972 1.373 . S
C1973 C1989 1.377 . S
C1974 C1972 1.389 . S
C1974 C1975 1.524 . S
C1974 C1988 1.377 . S
C1975 C1974 1.524 . S
C1975 C1976 1.397 . S
C1975 C1980 1.363 . S
C1976 H1953 0.950 . S
C1976 C1975 1.397 . S
C1976 C1977 1.334 . S
C1977 H1954 0.950 . S
C1977 C1976 1.334 . S
C1977 C1978 1.287 . S
C1978 C1977 1.287 . S
C1978 C1979 1.524 . S
C1978 H1997 0.913 . S
C1979 H1955 0.950 . S
C1979 C1978 1.524 . S
C1979 C1980 1.415 . S
C1980 H1956 0.950 . S
C1980 C1975 1.363 . S
C1980 C1979 1.415 . S
C1981 H1957 0.951 . S
C1981 C1982 1.366 . S
C1981 C1983 1.388 . S
C1982 C1981 1.366 . S
C1982 C1986 1.385 . S
C1983 H1958 0.951 . S
C1983 C1981 1.388 . S
C1983 C1984 1.366 . S
C1984 C1983 1.366 . S
C1984 C1985 1.414 . S
C1984 C1987 1.499 . S
C1985 H1959 0.950 . S
C1985 C1984 1.414 . S
C1985 C1986 1.374 . S
C1986 H1960 0.950 . S
C1986 C1982 1.385 . S
C1986 C1985 1.374 . S
C1987 C1984 1.499 . S
C1987 C1988 1.373 . S
C1987 C1989 1.389 . S
C1988 H1961 0.950 . S
C1988 C1974 1.377 . S
C1988 C1987 1.373 . S
C1989 C1973 1.377 . S
C1989 C1987 1.389 . S
C1989 C1990 1.524 . S
C1990 C1989 1.524 . S
C1990 C1991 1.397 . S
C1990 C1995 1.363 . S
C1991 H1962 0.950 . S
C1991 C1990 1.397 . S
C1991 C1992 1.334 . S
C1992 H1963 0.950 . S
C1992 C1991 1.334 . S
C1992 C1993 1.287 . S
C1993 C1992 1.287 . S
C1993 C1994 1.524 . S
C1993 H1996 0.999 . S
C1994 H1964 0.950 . S
C1994 C1993 1.524 . S
C1994 C1995 1.415 . S
C1995 H1965 0.950 . S
C1995 C1990 1.363 . S
C1995 C1994 1.415 . S
H1996 C1993 0.999 . S
H1997 C1978 0.913 . S
H1998 C2016 0.951 . S
H1999 C2018 0.951 . S
H2000 C2020 0.950 . S
H2001 C2021 0.950 . S
H2002 C2023 0.950 . S
H2003 C2026 0.950 . S
H2004 C2027 0.950 . S
H2005 C2029 0.950 . S
H2006 C2030 0.950 . S
H2007 C2031 0.951 . S
H2008 C2033 0.951 . S
H2009 C2035 0.950 . S
H2010 C2036 0.950 . S
H2011 C2038 0.940 1_565 S
H2012 C2041 0.950 . S
H2013 C2042 0.950 . S
H2014 C2044 0.950 . S
H2015 C2045 0.950 1_554 S
C2016 H1998 0.951 . S
C2016 C2017 1.366 1_556 S
C2016 C2018 1.388 . S
C2017 C2016 1.366 1_554 S
C2017 C2021 1.385 . S
C2018 H1999 0.951 . S
C2018 C2016 1.388 . S
C2018 C2019 1.366 . S
C2019 C2018 1.366 . S
C2019 C2020 1.414 1_556 S
C2019 C2022 1.499 . S
C2020 H2000 0.950 . S
C2020 C2019 1.414 1_554 S
C2020 C2021 1.374 . S
C2021 H2001 0.950 . S
C2021 C2017 1.385 . S
C2021 C2020 1.374 . S
C2022 C2019 1.499 . S
C2022 C2023 1.373 1_565 S
C2022 C2024 1.389 . S
C2023 H2002 0.950 . S
C2023 C2022 1.373 1_545 S
C2023 C2039 1.377 . S
C2024 C2022 1.389 . S
C2024 C2025 1.524 . S
C2024 C2038 1.375 1_565 S
C2025 C2024 1.524 . S
C2025 C2026 1.397 . S
C2025 C2030 1.363 . S
C2026 H2003 0.950 . S
C2026 C2025 1.397 . S
C2026 C2027 1.334 . S
C2027 H2004 0.950 . S
C2027 C2026 1.334 . S
C2027 C2028 1.287 . S
C2028 C2027 1.287 . S
C2028 C2029 1.524 . S
C2028 H2047 0.913 . S
C2029 H2005 0.950 . S
C2029 C2028 1.524 . S
C2029 C2030 1.415 . S
C2030 H2006 0.950 . S
C2030 C2025 1.363 . S
C2030 C2029 1.415 . S
C2031 H2007 0.951 . S
C2031 C2032 1.366 . S
C2031 C2033 1.388 . S
C2032 C2031 1.366 . S
C2032 C2036 1.385 . S
C2033 H2008 0.951 . S
C2033 C2031 1.388 . S
C2033 C2034 1.366 . S
C2034 C2033 1.366 . S
C2034 C2035 1.414 . S
C2034 C2037 1.499 . S
C2035 H2009 0.950 . S
C2035 C2034 1.414 . S
C2035 C2036 1.374 . S
C2036 H2010 0.950 . S
C2036 C2032 1.385 . S
C2036 C2035 1.374 . S
C2037 C2034 1.499 . S
C2037 C2038 1.386 . S
C2037 C2039 1.389 . S
C2038 H2011 0.940 1_545 S
C2038 C2024 1.375 1_545 S
C2038 C2037 1.386 . S
C2039 C2023 1.377 . S
C2039 C2037 1.389 . S
C2039 C2040 1.524 . S
C2040 C2039 1.524 . S
C2040 C2041 1.397 . S
C2040 C2045 1.363 . S
C2041 H2012 0.950 . S
C2041 C2040 1.397 . S
C2041 C2042 1.334 . S
C2042 H2013 0.950 . S
C2042 C2041 1.334 . S
C2042 C2043 1.287 . S
C2043 C2042 1.287 . S
C2043 C2044 1.524 1_556 S
C2043 H2046 0.999 . S
C2044 H2014 0.950 . S
C2044 C2043 1.524 1_554 S
C2044 C2045 1.415 1_554 S
C2045 H2015 0.950 1_556 S
C2045 C2040 1.363 . S
C2045 C2044 1.415 1_556 S
H2046 C2043 0.999 . S
H2047 C2028 0.913 . S
H2048 C2066 0.951 . S
H2049 C2068 0.951 . S
H2050 C2070 0.950 . S
H2051 C2071 0.950 . S
H2052 C2073 0.950 . S
H2053 C2076 0.950 . S
H2054 C2077 0.950 . S
H2055 C2079 0.950 1_554 S
H2056 C2080 0.950 1_554 S
H2057 C2081 0.951 . S
H2058 C2083 0.951 . S
H2059 C2085 0.950 . S
H2060 C2086 0.950 . S
H2061 C2088 0.950 . S
H2062 C2091 0.950 . S
H2063 C2092 0.950 . S
H2064 C2094 0.950 . S
H2065 C2095 0.950 . S
C2066 H2048 0.951 . S
C2066 C2067 1.366 . S
C2066 C2068 1.388 . S
C2067 C2066 1.366 . S
C2067 C2071 1.385 . S
C2068 H2049 0.951 . S
C2068 C2066 1.388 . S
C2068 C2069 1.366 . S
C2069 C2068 1.366 . S
C2069 C2070 1.414 . S
C2069 C2072 1.499 . S
C2070 H2050 0.950 . S
C2070 C2069 1.414 . S
C2070 C2071 1.374 . S
C2071 H2051 0.950 . S
C2071 C2067 1.385 . S
C2071 C2070 1.374 . S
C2072 C2069 1.499 . S
C2072 C2073 1.373 . S
C2072 C2074 1.389 . S
C2073 H2052 0.950 . S
C2073 C2072 1.373 . S
C2073 C2089 1.377 . S
C2074 C2072 1.389 . S
C2074 C2075 1.524 . S
C2074 C2088 1.377 . S
C2075 C2074 1.524 . S
C2075 C2076 1.397 . S
C2075 C2080 1.363 . S
C2076 H2053 0.950 . S
C2076 C2075 1.397 . S
C2076 C2077 1.334 . S
C2077 H2054 0.950 . S
C2077 C2076 1.334 . S
C2077 C2078 1.287 . S
C2078 C2077 1.287 . S
C2078 C2079 1.524 . S
C2078 H2097 0.913 . S
C2079 H2055 0.950 1_556 S
C2079 C2078 1.524 . S
C2079 C2080 1.415 . S
C2080 H2056 0.950 1_556 S
C2080 C2075 1.363 . S
C2080 C2079 1.415 . S
C2081 H2057 0.951 . S
C2081 C2082 1.366 1_556 S
C2081 C2083 1.388 . S
C2082 C2081 1.366 1_554 S
C2082 C2086 1.385 . S
C2083 H2058 0.951 . S
C2083 C2081 1.388 . S
C2083 C2084 1.366 . S
C2084 C2083 1.366 . S
C2084 C2085 1.414 1_556 S
C2084 C2087 1.499 . S
C2085 H2059 0.950 . S
C2085 C2084 1.414 1_554 S
C2085 C2086 1.374 . S
C2086 H2060 0.950 . S
C2086 C2082 1.385 . S
C2086 C2085 1.374 . S
C2087 C2084 1.499 . S
C2087 C2088 1.373 . S
C2087 C2089 1.389 . S
C2088 H2061 0.950 . S
C2088 C2074 1.377 . S
C2088 C2087 1.373 . S
C2089 C2073 1.377 . S
C2089 C2087 1.389 . S
C2089 C2090 1.524 . S
C2090 C2089 1.524 . S
C2090 C2091 1.397 . S
C2090 C2095 1.363 . S
C2091 H2062 0.950 . S
C2091 C2090 1.397 . S
C2091 C2092 1.334 . S
C2092 H2063 0.950 . S
C2092 C2091 1.334 . S
C2092 C2093 1.287 . S
C2093 C2092 1.287 . S
C2093 C2094 1.524 . S
C2093 H2096 0.999 . S
C2094 H2064 0.950 . S
C2094 C2093 1.524 . S
C2094 C2095 1.415 . S
C2095 H2065 0.950 . S
C2095 C2090 1.363 . S
C2095 C2094 1.415 . S
H2096 C2093 0.999 . S
H2097 C2078 0.913 . S
H2098 C2116 0.951 . S
H2099 C2118 0.951 . S
H2100 C2120 0.950 . S
H2101 C2121 0.950 . S
H2102 C2123 0.950 . S
H2103 C2126 0.950 . S
H2104 C2127 0.950 . S
H2105 C2129 0.950 . S
H2106 C2130 0.950 . S
H2107 C2131 0.951 . S
H2108 C2133 0.951 . S
H2109 C2135 0.950 . S
H2110 C2136 0.950 . S
H2111 C2138 0.950 . S
H2112 C2141 0.950 . S
H2113 C2142 0.950 1_554 S
H2114 C2144 0.950 . S
H2115 C2145 0.950 . S
C2116 H2098 0.951 . S
C2116 C2117 1.366 . S
C2116 C2118 1.388 . S
C2117 C2116 1.366 . S
C2117 C2121 1.385 . S
C2118 H2099 0.951 . S
C2118 C2116 1.388 . S
C2118 C2119 1.366 . S
C2119 C2118 1.366 . S
C2119 C2120 1.414 . S
C2119 C2122 1.499 . S
C2120 H2100 0.950 . S
C2120 C2119 1.414 . S
C2120 C2121 1.374 . S
C2121 H2101 0.950 . S
C2121 C2117 1.385 . S
C2121 C2120 1.374 . S
C2122 C2119 1.499 . S
C2122 C2123 1.373 . S
C2122 C2124 1.389 . S
C2123 H2102 0.950 . S
C2123 C2122 1.373 . S
C2123 C2139 1.377 . S
C2124 C2122 1.389 . S
C2124 C2125 1.524 . S
C2124 C2138 1.377 . S
C2125 C2124 1.524 . S
C2125 C2126 1.397 . S
C2125 C2130 1.363 . S
C2126 H2103 0.950 . S
C2126 C2125 1.397 . S
C2126 C2127 1.334 . S
C2127 H2104 0.950 . S
C2127 C2126 1.334 . S
C2127 C2128 1.287 . S
C2128 C2127 1.287 . S
C2128 C2129 1.524 . S
C2128 H2147 0.913 . S
C2129 H2105 0.950 . S
C2129 C2128 1.524 . S
C2129 C2130 1.415 . S
C2130 H2106 0.950 . S
C2130 C2125 1.363 . S
C2130 C2129 1.415 . S
C2131 H2107 0.951 . S
C2131 C2132 1.366 1_556 S
C2131 C2133 1.388 . S
C2132 C2131 1.366 1_554 S
C2132 C2136 1.385 . S
C2133 H2108 0.951 . S
C2133 C2131 1.388 . S
C2133 C2134 1.366 . S
C2134 C2133 1.366 . S
C2134 C2135 1.414 1_556 S
C2134 C2137 1.499 . S
C2135 H2109 0.950 . S
C2135 C2134 1.414 1_554 S
C2135 C2136 1.374 . S
C2136 H2110 0.950 . S
C2136 C2132 1.385 . S
C2136 C2135 1.374 . S
C2137 C2134 1.499 . S
C2137 C2138 1.373 . S
C2137 C2139 1.389 . S
C2138 H2111 0.950 . S
C2138 C2124 1.377 . S
C2138 C2137 1.373 . S
C2139 C2123 1.377 . S
C2139 C2137 1.389 . S
C2139 C2140 1.524 . S
C2140 C2139 1.524 . S
C2140 C2141 1.397 . S
C2140 C2145 1.363 . S
C2141 H2112 0.950 . S
C2141 C2140 1.397 . S
C2141 C2142 1.334 . S
C2142 H2113 0.950 1_556 S
C2142 C2141 1.334 . S
C2142 C2143 1.287 . S
C2143 C2142 1.287 . S
C2143 C2144 1.524 . S
C2143 H2146 0.999 . S
C2144 H2114 0.950 . S
C2144 C2143 1.524 . S
C2144 C2145 1.415 . S
C2145 H2115 0.950 . S
C2145 C2140 1.363 . S
C2145 C2144 1.415 . S
H2146 C2143 0.999 . S
H2147 C2128 0.913 . S
H2148 C2166 0.951 . S
H2149 C2168 0.951 . S
H2150 C2170 0.950 . S
H2151 C2171 0.950 . S
H2152 C2173 0.950 . S
H2153 C2176 0.950 . S
H2154 C2177 0.950 1_565 S
H2155 C2179 0.950 . S
H2156 C2180 0.950 . S
H2157 C2181 0.951 . S
H2158 C2183 0.951 . S
H2159 C2185 0.950 . S
H2160 C2186 0.950 . S
H2161 C2188 0.950 . S
H2162 C2191 0.950 . S
H2163 C2192 0.950 . S
H2164 C2194 0.950 . S
H2165 C2195 0.950 . S
C2166 H2148 0.951 . S
C2166 C2167 1.366 . S
C2166 C2168 1.388 1_565 S
C2167 C2166 1.366 . S
C2167 C2171 1.385 1_565 S
C2168 H2149 0.951 . S
C2168 C2166 1.388 1_545 S
C2168 C2169 1.366 . S
C2169 C2168 1.366 . S
C2169 C2170 1.414 . S
C2169 C2172 1.499 . S
C2170 H2150 0.950 . S
C2170 C2169 1.414 . S
C2170 C2171 1.374 . S
C2171 H2151 0.950 . S
C2171 C2167 1.385 1_545 S
C2171 C2170 1.374 . S
C2172 C2169 1.499 . S
C2172 C2173 1.373 . S
C2172 C2174 1.389 . S
C2173 H2152 0.950 . S
C2173 C2172 1.373 . S
C2173 C2189 1.377 . S
C2174 C2172 1.389 . S
C2174 C2175 1.524 . S
C2174 C2188 1.377 . S
C2175 C2174 1.524 . S
C2175 C2176 1.397 . S
C2175 C2180 1.363 . S
C2176 H2153 0.950 . S
C2176 C2175 1.397 . S
C2176 C2177 1.334 . S
C2177 H2154 0.950 1_545 S
C2177 C2176 1.334 . S
C2177 C2178 1.282 1_545 S
C2178 C2177 1.282 1_565 S
C2178 C2179 1.525 1_565 S
C2178 H2197 0.919 . S
C2179 H2155 0.950 . S
C2179 C2178 1.525 1_545 S
C2179 C2180 1.415 . S
C2180 H2156 0.950 . S
C2180 C2175 1.363 . S
C2180 C2179 1.415 . S
C2181 H2157 0.951 . S
C2181 C2182 1.366 . S
C2181 C2183 1.388 . S
C2182 C2181 1.366 . S
C2182 C2186 1.385 . S
C2183 H2158 0.951 . S
C2183 C2181 1.388 . S
C2183 C2184 1.366 . S
C2184 C2183 1.366 . S
C2184 C2185 1.414 . S
C2184 C2187 1.499 . S
C2185 H2159 0.950 . S
C2185 C2184 1.414 . S
C2185 C2186 1.374 . S
C2186 H2160 0.950 . S
C2186 C2182 1.385 . S
C2186 C2185 1.374 . S
C2187 C2184 1.499 . S
C2187 C2188 1.373 . S
C2187 C2189 1.389 . S
C2188 H2161 0.950 . S
C2188 C2174 1.377 . S
C2188 C2187 1.373 . S
C2189 C2173 1.377 . S
C2189 C2187 1.389 . S
C2189 C2190 1.524 . S
C2190 C2189 1.524 . S
C2190 C2191 1.397 . S
C2190 C2195 1.363 . S
C2191 H2162 0.950 . S
C2191 C2190 1.397 . S
C2191 C2192 1.334 . S
C2192 H2163 0.950 . S
C2192 C2191 1.334 . S
C2192 C2193 1.287 . S
C2193 C2192 1.287 . S
C2193 C2194 1.524 . S
C2193 H2196 0.999 . S
C2194 H2164 0.950 . S
C2194 C2193 1.524 . S
C2194 C2195 1.415 . S
C2195 H2165 0.950 . S
C2195 C2190 1.363 . S
C2195 C2194 1.415 . S
H2196 C2193 0.999 . S
H2197 C2178 0.919 . S
H2198 C2216 0.951 . S
H2199 C2218 0.951 . S
H2200 C2220 0.950 . S
H2201 C2221 0.950 . S
H2202 C2223 0.950 . S
H2203 C2226 0.950 . S
H2204 C2227 0.950 . S
H2205 C2229 0.950 . S
H2206 C2230 0.950 . S
H2207 C2231 0.951 . S
H2208 C2233 0.951 . S
H2209 C2235 0.950 . S
H2210 C2236 0.950 . S
H2211 C2238 0.950 . S
H2212 C2241 0.950 . S
H2213 C2242 0.950 . S
H2214 C2244 0.950 . S
H2215 C2245 0.950 . S
C2216 H2198 0.951 . S
C2216 C2217 1.366 . S
C2216 C2218 1.388 . S
C2217 C2216 1.366 . S
C2217 C2221 1.385 . S
C2218 H2199 0.951 . S
C2218 C2216 1.388 . S
C2218 C2219 1.366 . S
C2219 C2218 1.366 . S
C2219 C2220 1.414 . S
C2219 C2222 1.499 . S
C2220 H2200 0.950 . S
C2220 C2219 1.414 . S
C2220 C2221 1.374 . S
C2221 H2201 0.950 . S
C2221 C2217 1.385 . S
C2221 C2220 1.374 . S
C2222 C2219 1.499 . S
C2222 C2223 1.373 . S
C2222 C2224 1.389 . S
C2223 H2202 0.950 . S
C2223 C2222 1.373 . S
C2223 C2239 1.377 . S
C2224 C2222 1.389 . S
C2224 C2225 1.524 . S
C2224 C2238 1.377 . S
C2225 C2224 1.524 . S
C2225 C2226 1.397 . S
C2225 C2230 1.363 . S
C2226 H2203 0.950 . S
C2226 C2225 1.397 . S
C2226 C2227 1.334 . S
C2227 H2204 0.950 . S
C2227 C2226 1.334 . S
C2227 C2228 1.287 . S
C2228 C2227 1.287 . S
C2228 C2229 1.524 . S
C2228 H2247 0.913 . S
C2229 H2205 0.950 . S
C2229 C2228 1.524 . S
C2229 C2230 1.415 . S
C2230 H2206 0.950 . S
C2230 C2225 1.363 . S
C2230 C2229 1.415 . S
C2231 H2207 0.951 . S
C2231 C2232 1.366 . S
C2231 C2233 1.388 . S
C2232 C2231 1.366 . S
C2232 C2236 1.385 . S
C2233 H2208 0.951 . S
C2233 C2231 1.388 . S
C2233 C2234 1.366 . S
C2234 C2233 1.366 . S
C2234 C2235 1.414 . S
C2234 C2237 1.499 . S
C2235 H2209 0.950 . S
C2235 C2234 1.414 . S
C2235 C2236 1.374 . S
C2236 H2210 0.950 . S
C2236 C2232 1.385 . S
C2236 C2235 1.374 . S
C2237 C2234 1.499 . S
C2237 C2238 1.373 . S
C2237 C2239 1.389 . S
C2238 H2211 0.950 . S
C2238 C2224 1.377 . S
C2238 C2237 1.373 . S
C2239 C2223 1.377 . S
C2239 C2237 1.389 . S
C2239 C2240 1.524 . S
C2240 C2239 1.524 . S
C2240 C2241 1.397 . S
C2240 C2245 1.363 . S
C2241 H2212 0.950 . S
C2241 C2240 1.397 . S
C2241 C2242 1.334 . S
C2242 H2213 0.950 . S
C2242 C2241 1.334 . S
C2242 C2243 1.287 . S
C2243 C2242 1.287 . S
C2243 C2244 1.524 . S
C2243 H2246 0.999 . S
C2244 H2214 0.950 . S
C2244 C2243 1.524 . S
C2244 C2245 1.415 . S
C2245 H2215 0.950 . S
C2245 C2240 1.363 . S
C2245 C2244 1.415 . S
H2246 C2243 0.999 . S
H2247 C2228 0.913 . S
H2248 C2266 0.951 . S
H2249 C2268 0.951 . S
H2250 C2270 0.950 . S
H2251 C2271 0.950 . S
H2252 C2273 0.950 . S
H2253 C2276 0.950 . S
H2254 C2277 0.950 . S
H2255 C2279 0.950 . S
H2256 C2280 0.950 . S
H2257 C2281 0.951 . S
H2258 C2283 0.951 . S
H2259 C2285 0.950 . S
H2260 C2286 0.950 . S
H2261 C2288 0.950 . S
H2262 C2291 0.950 . S
H2263 C2292 0.950 . S
H2264 C2294 0.950 . S
H2265 C2295 0.950 . S
C2266 H2248 0.951 . S
C2266 C2267 1.366 . S
C2266 C2268 1.388 . S
C2267 C2266 1.366 . S
C2267 C2271 1.385 . S
C2268 H2249 0.951 . S
C2268 C2266 1.388 . S
C2268 C2269 1.366 . S
C2269 C2268 1.366 . S
C2269 C2270 1.414 . S
C2269 C2272 1.499 . S
C2270 H2250 0.950 . S
C2270 C2269 1.414 . S
C2270 C2271 1.374 . S
C2271 H2251 0.950 . S
C2271 C2267 1.385 . S
C2271 C2270 1.374 . S
C2272 C2269 1.499 . S
C2272 C2273 1.373 . S
C2272 C2274 1.389 . S
C2273 H2252 0.950 . S
C2273 C2272 1.373 . S
C2273 C2289 1.377 . S
C2274 C2272 1.389 . S
C2274 C2275 1.524 . S
C2274 C2288 1.377 . S
C2275 C2274 1.524 . S
C2275 C2276 1.397 . S
C2275 C2280 1.363 . S
C2276 H2253 0.950 . S
C2276 C2275 1.397 . S
C2276 C2277 1.334 . S
C2277 H2254 0.950 . S
C2277 C2276 1.334 . S
C2277 C2278 1.287 . S
C2278 C2277 1.287 . S
C2278 C2279 1.524 . S
C2278 H2297 0.913 . S
C2279 H2255 0.950 . S
C2279 C2278 1.524 . S
C2279 C2280 1.415 . S
C2280 H2256 0.950 . S
C2280 C2275 1.363 . S
C2280 C2279 1.415 . S
C2281 H2257 0.951 . S
C2281 C2282 1.366 . S
C2281 C2283 1.388 . S
C2282 C2281 1.366 . S
C2282 C2286 1.385 . S
C2283 H2258 0.951 . S
C2283 C2281 1.388 . S
C2283 C2284 1.366 . S
C2284 C2283 1.366 . S
C2284 C2285 1.414 . S
C2284 C2287 1.499 . S
C2285 H2259 0.950 . S
C2285 C2284 1.414 . S
C2285 C2286 1.374 . S
C2286 H2260 0.950 . S
C2286 C2282 1.385 . S
C2286 C2285 1.374 . S
C2287 C2284 1.499 . S
C2287 C2288 1.373 . S
C2287 C2289 1.389 . S
C2288 H2261 0.950 . S
C2288 C2274 1.377 . S
C2288 C2287 1.373 . S
C2289 C2273 1.377 . S
C2289 C2287 1.389 . S
C2289 C2290 1.524 . S
C2290 C2289 1.524 . S
C2290 C2291 1.397 . S
C2290 C2295 1.363 . S
C2291 H2262 0.950 . S
C2291 C2290 1.397 . S
C2291 C2292 1.334 . S
C2292 H2263 0.950 . S
C2292 C2291 1.334 . S
C2292 C2293 1.287 . S
C2293 C2292 1.287 . S
C2293 C2294 1.524 . S
C2293 H2296 0.999 . S
C2294 H2264 0.950 . S
C2294 C2293 1.524 . S
C2294 C2295 1.415 . S
C2295 H2265 0.950 . S
C2295 C2290 1.363 . S
C2295 C2294 1.415 . S
H2296 C2293 0.999 . S
H2297 C2278 0.913 . S
H2298 C2316 0.951 . S
H2299 C2318 0.951 . S
H2300 C2320 0.950 . S
H2301 C2321 0.950 . S
H2302 C2323 0.950 . S
H2303 C2326 0.950 . S
H2304 C2327 0.950 . S
H2305 C2329 0.950 . S
H2306 C2330 0.950 . S
H2307 C2331 0.951 . S
H2308 C2333 0.951 . S
H2309 C2335 0.950 . S
H2310 C2336 0.950 . S
H2311 C2338 0.950 . S
H2312 C2341 0.950 . S
H2313 C2342 0.950 . S
H2314 C2344 0.950 . S
H2315 C2345 0.950 . S
C2316 H2298 0.951 . S
C2316 C2317 1.366 . S
C2316 C2318 1.388 . S
C2317 C2316 1.366 . S
C2317 C2321 1.385 . S
C2318 H2299 0.951 . S
C2318 C2316 1.388 . S
C2318 C2319 1.366 . S
C2319 C2318 1.366 . S
C2319 C2320 1.414 . S
C2319 C2322 1.499 . S
C2320 H2300 0.950 . S
C2320 C2319 1.414 . S
C2320 C2321 1.374 . S
C2321 H2301 0.950 . S
C2321 C2317 1.385 . S
C2321 C2320 1.374 . S
C2322 C2319 1.499 . S
C2322 C2323 1.373 . S
C2322 C2324 1.389 . S
C2323 H2302 0.950 . S
C2323 C2322 1.373 . S
C2323 C2339 1.377 . S
C2324 C2322 1.389 . S
C2324 C2325 1.524 . S
C2324 C2338 1.377 . S
C2325 C2324 1.524 . S
C2325 C2326 1.397 . S
C2325 C2330 1.363 . S
C2326 H2303 0.950 . S
C2326 C2325 1.397 . S
C2326 C2327 1.334 . S
C2327 H2304 0.950 . S
C2327 C2326 1.334 . S
C2327 C2328 1.287 . S
C2328 C2327 1.287 . S
C2328 C2329 1.524 . S
C2328 H2347 0.913 . S
C2329 H2305 0.950 . S
C2329 C2328 1.524 . S
C2329 C2330 1.415 . S
C2330 H2306 0.950 . S
C2330 C2325 1.363 . S
C2330 C2329 1.415 . S
C2331 H2307 0.951 . S
C2331 C2332 1.366 . S
C2331 C2333 1.388 . S
C2332 C2331 1.366 . S
C2332 C2336 1.385 . S
C2333 H2308 0.951 . S
C2333 C2331 1.388 . S
C2333 C2334 1.366 . S
C2334 C2333 1.366 . S
C2334 C2335 1.414 . S
C2334 C2337 1.499 . S
C2335 H2309 0.950 . S
C2335 C2334 1.414 . S
C2335 C2336 1.374 . S
C2336 H2310 0.950 . S
C2336 C2332 1.385 . S
C2336 C2335 1.374 . S
C2337 C2334 1.499 . S
C2337 C2338 1.373 . S
C2337 C2339 1.389 . S
C2338 H2311 0.950 . S
C2338 C2324 1.377 . S
C2338 C2337 1.373 . S
C2339 C2323 1.377 . S
C2339 C2337 1.389 . S
C2339 C2340 1.524 . S
C2340 C2339 1.524 . S
C2340 C2341 1.397 . S
C2340 C2345 1.363 . S
C2341 H2312 0.950 . S
C2341 C2340 1.397 . S
C2341 C2342 1.334 . S
C2342 H2313 0.950 . S
C2342 C2341 1.334 . S
C2342 C2343 1.287 . S
C2343 C2342 1.287 . S
C2343 C2344 1.524 . S
C2343 H2346 0.999 . S
C2344 H2314 0.950 . S
C2344 C2343 1.524 . S
C2344 C2345 1.415 . S
C2345 H2315 0.950 . S
C2345 C2340 1.363 . S
C2345 C2344 1.415 . S
H2346 C2343 0.999 . S
H2347 C2328 0.913 . S
H2348 C2366 0.951 . S
H2349 C2368 0.951 . S
H2350 C2370 0.950 . S
H2351 C2371 0.950 . S
H2352 C2373 0.950 . S
H2353 C2376 0.950 . S
H2354 C2377 0.950 . S
H2355 C2379 0.950 . S
H2356 C2380 0.950 . S
H2357 C2381 0.951 . S
H2358 C2383 0.951 . S
H2359 C2385 0.950 . S
H2360 C2386 0.950 . S
H2361 C2388 0.950 . S
H2362 C2391 0.950 . S
H2363 C2392 0.950 . S
H2364 C2394 0.950 . S
H2365 C2395 0.950 . S
C2366 H2348 0.951 . S
C2366 C2367 1.366 . S
C2366 C2368 1.388 . S
C2367 C2366 1.366 . S
C2367 C2371 1.385 . S
C2368 H2349 0.951 . S
C2368 C2366 1.388 . S
C2368 C2369 1.366 . S
C2369 C2368 1.366 . S
C2369 C2370 1.414 . S
C2369 C2372 1.499 . S
C2370 H2350 0.950 . S
C2370 C2369 1.414 . S
C2370 C2371 1.374 . S
C2371 H2351 0.950 . S
C2371 C2367 1.385 . S
C2371 C2370 1.374 . S
C2372 C2369 1.499 . S
C2372 C2373 1.373 . S
C2372 C2374 1.389 . S
C2373 H2352 0.950 . S
C2373 C2372 1.373 . S
C2373 C2389 1.377 . S
C2374 C2372 1.389 . S
C2374 C2375 1.524 . S
C2374 C2388 1.377 . S
C2375 C2374 1.524 . S
C2375 C2376 1.397 . S
C2375 C2380 1.363 . S
C2376 H2353 0.950 . S
C2376 C2375 1.397 . S
C2376 C2377 1.334 . S
C2377 H2354 0.950 . S
C2377 C2376 1.334 . S
C2377 C2378 1.287 . S
C2378 C2377 1.287 . S
C2378 C2379 1.524 . S
C2378 H2397 0.913 . S
C2379 H2355 0.950 . S
C2379 C2378 1.524 . S
C2379 C2380 1.415 . S
C2380 H2356 0.950 . S
C2380 C2375 1.363 . S
C2380 C2379 1.415 . S
C2381 H2357 0.951 . S
C2381 C2382 1.366 . S
C2381 C2383 1.388 . S
C2382 C2381 1.366 . S
C2382 C2386 1.385 . S
C2383 H2358 0.951 . S
C2383 C2381 1.388 . S
C2383 C2384 1.366 . S
C2384 C2383 1.366 . S
C2384 C2385 1.414 . S
C2384 C2387 1.499 . S
C2385 H2359 0.950 . S
C2385 C2384 1.414 . S
C2385 C2386 1.374 . S
C2386 H2360 0.950 . S
C2386 C2382 1.385 . S
C2386 C2385 1.374 . S
C2387 C2384 1.499 . S
C2387 C2388 1.373 . S
C2387 C2389 1.389 . S
C2388 H2361 0.950 . S
C2388 C2374 1.377 . S
C2388 C2387 1.373 . S
C2389 C2373 1.377 . S
C2389 C2387 1.389 . S
C2389 C2390 1.524 . S
C2390 C2389 1.524 . S
C2390 C2391 1.397 . S
C2390 C2395 1.363 . S
C2391 H2362 0.950 . S
C2391 C2390 1.397 . S
C2391 C2392 1.334 . S
C2392 H2363 0.950 . S
C2392 C2391 1.334 . S
C2392 C2393 1.287 . S
C2393 C2392 1.287 . S
C2393 C2394 1.524 . S
C2393 H2396 0.999 . S
C2394 H2364 0.950 . S
C2394 C2393 1.524 . S
C2394 C2395 1.415 . S
C2395 H2365 0.950 . S
C2395 C2390 1.363 . S
C2395 C2394 1.415 . S
H2396 C2393 0.999 . S
H2397 C2378 0.913 . S
H2398 C2416 0.977 . S
H2399 C2418 0.951 . S
H2400 C2420 0.950 . S
H2401 C2421 0.950 . S
H2402 C2423 0.950 . S
H2403 C2426 0.950 . S
H2404 C2427 0.950 . S
H2405 C2429 0.950 . S
H2406 C2430 0.950 . S
H2407 C2431 0.951 . S
H2408 C2433 0.951 . S
H2409 C2435 0.950 . S
H2410 C2436 0.950 . S
H2411 C2438 0.950 . S
H2412 C2441 0.950 . S
H2413 C2442 0.950 . S
H2414 C2444 0.950 . S
H2415 C2445 0.950 . S
C2416 H2398 0.977 . S
C2416 C2417 1.405 . S
C2416 C2418 1.328 1_565 S
C2417 C2416 1.405 . S
C2417 C2421 1.385 1_565 S
C2418 H2399 0.951 . S
C2418 C2416 1.328 1_545 S
C2418 C2419 1.366 . S
C2419 C2418 1.366 . S
C2419 C2420 1.414 . S
C2419 C2422 1.499 . S
C2420 H2400 0.950 . S
C2420 C2419 1.414 . S
C2420 C2421 1.374 . S
C2421 H2401 0.950 . S
C2421 C2417 1.385 1_545 S
C2421 C2420 1.374 . S
C2422 C2419 1.499 . S
C2422 C2423 1.373 . S
C2422 C2424 1.389 . S
C2423 H2402 0.950 . S
C2423 C2422 1.373 . S
C2423 C2439 1.377 . S
C2424 C2422 1.389 . S
C2424 C2425 1.524 . S
C2424 C2438 1.377 . S
C2425 C2424 1.524 . S
C2425 C2426 1.397 . S
C2425 C2430 1.363 . S
C2426 H2403 0.950 . S
C2426 C2425 1.397 . S
C2426 C2427 1.334 . S
C2427 H2404 0.950 . S
C2427 C2426 1.334 . S
C2427 C2428 1.287 . S
C2428 C2427 1.287 . S
C2428 C2429 1.524 . S
C2428 H2447 0.913 . S
C2429 H2405 0.950 . S
C2429 C2428 1.524 . S
C2429 C2430 1.415 . S
C2430 H2406 0.950 . S
C2430 C2425 1.363 . S
C2430 C2429 1.415 . S
C2431 H2407 0.951 . S
C2431 C2432 1.366 . S
C2431 C2433 1.388 . S
C2432 C2431 1.366 . S
C2432 C2436 1.385 . S
C2433 H2408 0.951 . S
C2433 C2431 1.388 . S
C2433 C2434 1.366 . S
C2434 C2433 1.366 . S
C2434 C2435 1.414 . S
C2434 C2437 1.499 . S
C2435 H2409 0.950 . S
C2435 C2434 1.414 . S
C2435 C2436 1.374 . S
C2436 H2410 0.950 . S
C2436 C2432 1.385 . S
C2436 C2435 1.374 . S
C2437 C2434 1.499 . S
C2437 C2438 1.373 . S
C2437 C2439 1.389 . S
C2438 H2411 0.950 . S
C2438 C2424 1.377 . S
C2438 C2437 1.373 . S
C2439 C2423 1.377 . S
C2439 C2437 1.389 . S
C2439 C2440 1.524 . S
C2440 C2439 1.524 . S
C2440 C2441 1.397 . S
C2440 C2445 1.363 . S
C2441 H2412 0.950 . S
C2441 C2440 1.397 . S
C2441 C2442 1.334 . S
C2442 H2413 0.950 . S
C2442 C2441 1.334 . S
C2442 C2443 1.287 . S
C2443 C2442 1.287 . S
C2443 C2444 1.524 . S
C2443 H2446 0.999 . S
C2444 H2414 0.950 . S
C2444 C2443 1.524 . S
C2444 C2445 1.415 . S
C2445 H2415 0.950 . S
C2445 C2440 1.363 . S
C2445 C2444 1.415 . S
H2446 C2443 0.999 . S
H2447 C2428 0.913 . S
C667 C122 1.183 . S
C682 C4 1.169 . S
C717 C148 1.161 . S
C732 C50 1.173 . S
C767 C76 1.191 . S
C782 C184 1.185 . S
C817 C86 1.163 . S
C832 C194 1.163 . S
C867 C14 1.198 . S
C882 C112 1.191 . S
C917 C158 1.174 . S
C932 C40 1.158 . S
C967 C328 1.190 . S
C982 C220 1.194 . S
C1017 C266 1.178 . S
C1032 C364 1.169 . S
C1067 C302 1.175 . S
C1082 C400 1.160 . S
C1117 C410 1.185 1_556 S
C1132 C292 1.177 . S
C1167 C338 1.170 1_556 S
C1182 C230 1.172 . S
C1217 C374 1.182 1_556 S
C1232 C256 1.171 . S
C1267 C436 1.188 . S
C1282 C554 1.195 . S
C1317 C482 1.184 . S
C1332 C580 1.176 . S
C1367 C508 1.180 . S
C1382 C616 1.173 . S
C1417 C626 1.181 . S
C1432 C518 1.183 1_554 S
C1467 C544 1.175 . S
C1482 C446 1.184 . S
C1517 C590 1.186 . S
C1532 C472 1.174 . S
C1567 C3 1.172 . S
C1582 C255 1.171 . S
C1617 C38 1.099 . S
C1632 C291 1.126 . S
C1667 C218 1.112 . S
C1682 C75 1.139 . S
C1717 C74 1.098 . S
C1732 C470 1.093 . S
C1767 C507 1.138 . S
C1782 C2 1.109 . S
C1817 C435 1.162 . S
C1832 C39 1.158 . S
C1867 C578 1.092 . S
C1882 C110 1.087 . S
C1917 C147 1.135 . S
C1932 C614 1.114 . S
C1967 C543 1.172 . S
C1982 C183 1.168 . S
C2017 C363 1.151 . S
C2032 C182 1.126 . S
C2067 C111 1.165 . S
C2082 C399 1.163 . S
C2117 C146 1.104 . S
C2132 C327 1.128 . S
C2167 C219 1.160 . S
C2182 C471 1.160 . S
C2217 C254 1.084 . S
C2232 C506 1.089 1_455 S
C2267 C290 1.084 . S
C2282 C434 1.078 . S
C2317 C579 1.134 . S
C2332 C398 1.104 . S
C2367 C615 1.158 . S
C2382 C326 1.142 . S
C2417 C362 1.077 . S
C2432 C542 1.076 . S
