# Generated by pormake.
# Topology wkj, (6)-cn, num edge types: 1
# Building blocks:
#     Node 0, Type 0, BuildingBlock: HISSIN_clean_sbu_0, # of connection points: 6
#     Node 1, Type 0, BuildingBlock: HISSIN_clean_sbu_0, # of connection points: 6
#     Node 2, Type 0, BuildingBlock: HISSIN_clean_sbu_0, # of connection points: 6
#     Node 3, Type 0, BuildingBlock: HISSIN_clean_sbu_0, # of connection points: 6
#     Node 4, Type 0, BuildingBlock: HISSIN_clean_sbu_0, # of connection points: 6
#     Node 5, Type 0, BuildingBlock: HISSIN_clean_sbu_0, # of connection points: 6
#     Node 6, Type 0, BuildingBlock: HISSIN_clean_sbu_0, # of connection points: 6
#     Node 7, Type 0, BuildingBlock: HISSIN_clean_sbu_0, # of connection points: 6
#     Node 8, Type 0, BuildingBlock: HISSIN_clean_sbu_0, # of connection points: 6
#     Node 9, Type 0, BuildingBlock: HISSIN_clean_sbu_0, # of connection points: 6
#     Node 10, Type 0, BuildingBlock: HISSIN_clean_sbu_0, # of connection points: 6
#     Node 11, Type 0, BuildingBlock: HISSIN_clean_sbu_0, # of connection points: 6
#     Edge 12, Type (0, 0), BuildingBlock: OJICUG_clean_linker_0, # of connection points: 2
#     Edge 13, Type (0, 0), BuildingBlock: OJICUG_clean_linker_0, # of connection points: 2
#     Edge 14, Type (0, 0), BuildingBlock: OJICUG_clean_linker_0, # of connection points: 2
#     Edge 15, Type (0, 0), BuildingBlock: OJICUG_clean_linker_0, # of connection points: 2
#     Edge 16, Type (0, 0), BuildingBlock: OJICUG_clean_linker_0, # of connection points: 2
#     Edge 17, Type (0, 0), BuildingBlock: OJICUG_clean_linker_0, # of connection points: 2
#     Edge 18, Type (0, 0), BuildingBlock: OJICUG_clean_linker_0, # of connection points: 2
#     Edge 19, Type (0, 0), BuildingBlock: OJICUG_clean_linker_0, # of connection points: 2
#     Edge 20, Type (0, 0), BuildingBlock: OJICUG_clean_linker_0, # of connection points: 2
#     Edge 21, Type (0, 0), BuildingBlock: OJICUG_clean_linker_0, # of connection points: 2
#     Edge 22, Type (0, 0), BuildingBlock: OJICUG_clean_linker_0, # of connection points: 2
#     Edge 23, Type (0, 0), BuildingBlock: OJICUG_clean_linker_0, # of connection points: 2
#     Edge 24, Type (0, 0), BuildingBlock: OJICUG_clean_linker_0, # of connection points: 2
#     Edge 25, Type (0, 0), BuildingBlock: OJICUG_clean_linker_0, # of connection points: 2
#     Edge 26, Type (0, 0), BuildingBlock: OJICUG_clean_linker_0, # of connection points: 2
#     Edge 27, Type (0, 0), BuildingBlock: OJICUG_clean_linker_0, # of connection points: 2
#     Edge 28, Type (0, 0), BuildingBlock: OJICUG_clean_linker_0, # of connection points: 2
#     Edge 29, Type (0, 0), BuildingBlock: OJICUG_clean_linker_0, # of connection points: 2
#     Edge 30, Type (0, 0), BuildingBlock: OJICUG_clean_linker_0, # of connection points: 2
#     Edge 31, Type (0, 0), BuildingBlock: OJICUG_clean_linker_0, # of connection points: 2
#     Edge 32, Type (0, 0), BuildingBlock: OJICUG_clean_linker_0, # of connection points: 2
#     Edge 33, Type (0, 0), BuildingBlock: OJICUG_clean_linker_0, # of connection points: 2
#     Edge 34, Type (0, 0), BuildingBlock: OJICUG_clean_linker_0, # of connection points: 2
#     Edge 35, Type (0, 0), BuildingBlock: OJICUG_clean_linker_0, # of connection points: 2
#     Edge 36, Type (0, 0), BuildingBlock: OJICUG_clean_linker_0, # of connection points: 2
#     Edge 37, Type (0, 0), BuildingBlock: OJICUG_clean_linker_0, # of connection points: 2
#     Edge 38, Type (0, 0), BuildingBlock: OJICUG_clean_linker_0, # of connection points: 2
#     Edge 39, Type (0, 0), BuildingBlock: OJICUG_clean_linker_0, # of connection points: 2
#     Edge 40, Type (0, 0), BuildingBlock: OJICUG_clean_linker_0, # of connection points: 2
#     Edge 41, Type (0, 0), BuildingBlock: OJICUG_clean_linker_0, # of connection points: 2
#     Edge 42, Type (0, 0), BuildingBlock: OJICUG_clean_linker_0, # of connection points: 2
#     Edge 43, Type (0, 0), BuildingBlock: OJICUG_clean_linker_0, # of connection points: 2
#     Edge 44, Type (0, 0), BuildingBlock: OJICUG_clean_linker_0, # of connection points: 2
#     Edge 45, Type (0, 0), BuildingBlock: OJICUG_clean_linker_0, # of connection points: 2
#     Edge 46, Type (0, 0), BuildingBlock: OJICUG_clean_linker_0, # of connection points: 2
#     Edge 47, Type (0, 0), BuildingBlock: OJICUG_clean_linker_0, # of connection points: 2
# Relax obj value: 1.096
# Max RMSD: 0.179
# Mean RMSD: 0.179
data_MOF--net-wkj--node1-HISSIN_clean_sbu_0--edge1-OJICUG_clean_linker_0
_symmetry_space_group_name_H-M    P1
_symmetry_Int_Tables_number       1
_symmetry_cell_setting            triclinic
loop_
_symmetry_equiv_pos_as_xyz
'x, y, z'
_cell_length_a     38.575753
_cell_length_b     38.425547
_cell_length_c     21.195629
_cell_angle_alpha  89.990018
_cell_angle_beta   90.243166
_cell_angle_gamma 119.82988
loop_
_atom_site_label
_atom_site_type_symbol
_atom_site_fract_x
_atom_site_fract_y
_atom_site_fract_z
_atom_type_partial_charge
Eu0 Eu 0.41703 0.05991 0.45531 0.0
Eu1 Eu 0.50362 0.08297 0.42751 0.0
C2 C 0.44347 0.00445 0.50543 0.0
C3 C 0.32159 0.04771 0.53163 0.0
C4 C 0.33812 0.06582 0.58981 0.0
C5 C 0.25538 0.01563 0.57823 0.0
C6 C 0.3136 0.05833 0.64204 0.0
C7 C 0.28002 0.02344 0.52569 0.0
C8 C 0.27206 0.03221 0.63739 0.0
C9 C 0.34742 0.05298 0.47752 0.0
O10 O 0.47175 0.04122 0.33961 0.0
O11 O 0.40718 0.01352 0.37263 0.0
C12 C 0.43343 0.01363 0.33111 0.0
O13 O 0.43994 0.10716 0.38034 0.0
O14 O 0.54804 0.10074 0.35331 0.0
O15 O 0.56623 0.10286 0.45053 0.0
O16 O 0.49746 0.13995 0.43027 0.0
C17 C 0.46988 0.14151 0.39629 0.0
O18 O 0.45272 0.08394 0.5555 0.0
O19 O 0.51158 0.08538 0.53502 0.0
O20 O 0.46953 0.01785 0.45895 0.0
O21 O 0.38073 0.08737 0.47428 0.0
O22 O 0.35218 0.02249 0.46314 0.0
O23 O 0.42611 0.02374 0.52407 0.0
C24 C 0.60538 0.15873 0.38448 0.0
C25 C 0.60112 0.18632 0.42263 0.0
C26 C 0.63307 0.20874 0.30206 0.0
C27 C 0.60958 0.22357 0.39831 0.0
C28 C 0.62508 0.17178 0.32671 0.0
C29 C 0.62111 0.23307 0.33486 0.0
C30 C 0.57791 0.11542 0.3931 0.0
C31 C 0.48774 0.08784 0.57709 0.0
H32 H 0.37016 0.08458 0.59557 0.0
H33 H 0.22357 -0.00476 0.57329 0.0
H34 H 0.32766 0.07081 0.6871 0.0
H35 H 0.26675 0.00942 0.48092 0.0
H36 H 0.58652 0.17731 0.46804 0.0
H37 H 0.64303 0.21487 0.25361 0.0
H38 H 0.60199 0.24233 0.42644 0.0
H39 H 0.62901 0.15119 0.29666 0.0
Eu40 Eu 0.32263 0.42501 0.82352 0.0
Eu41 Eu 0.37748 0.51036 0.77351 0.0
C42 C 0.40867 0.47242 0.8662 0.0
C43 C 0.24248 0.32509 0.89867 0.0
C44 C 0.23507 0.33359 0.95974 0.0
C45 C 0.18686 0.25715 0.90822 0.0
C46 C 0.20584 0.30313 0.99645 0.0
C47 C 0.21643 0.2876 0.87165 0.0
C48 C 0.18388 0.26356 0.97282 0.0
C49 C 0.27998 0.35209 0.86619 0.0
O50 O 0.3906 0.47138 0.70026 0.0
O51 O 0.34079 0.40915 0.72377 0.0
C52 C 0.37093 0.43258 0.68526 0.0
O53 O 0.27456 0.43736 0.78904 0.0
O54 O 0.42356 0.55116 0.70724 0.0
O55 O 0.38091 0.56694 0.74456 0.0
O56 O 0.31499 0.50387 0.77354 0.0
C57 C 0.27907 0.47247 0.77557 0.0
O58 O 0.33736 0.46765 0.91686 0.0
O59 O 0.38456 0.52952 0.87891 0.0
O60 O 0.41732 0.50845 0.84863 0.0
O61 O 0.27699 0.36251 0.80894 0.0
O62 O 0.30853 0.38128 0.89848 0.0
O63 O 0.3861 0.4426 0.82896 0.0
C64 C 0.37437 0.54831 0.63893 0.0
C65 C 0.32321 0.54181 0.64108 0.0
C66 C 0.34953 0.47866 0.53468 0.0
C67 C 0.28207 0.50387 0.5919 0.0
C68 C 0.38684 0.51779 0.58611 0.0
C69 C 0.29358 0.4684 0.53878 0.0
C70 C 0.40015 0.56592 0.69476 0.0
C71 C 0.36446 0.50689 0.92821 0.0
H72 H 0.2541 0.36265 0.98116 0.0
H73 H 0.16958 0.22747 0.88783 0.0
H74 H 0.2044 0.30987 1.04562 0.0
H75 H 0.22112 0.28076 0.82391 0.0
H76 H 0.31658 0.55855 0.67522 0.0
H77 H 0.35642 0.45799 0.51079 0.0
H78 H 0.25173 0.49755 0.59913 0.0
H79 H 0.4161 0.52058 0.58945 0.0
Eu80 Eu 0.83933 0.33749 1.141 0.0
Eu81 Eu 0.82359 0.40653 1.11096 0.0
C82 C 0.89547 0.41582 1.20265 0.0
C83 C 0.87578 0.26487 1.19379 0.0
C84 C 0.86463 0.2494 0.25494 0.0
C85 C 0.93791 0.26353 1.20606 0.0
C86 C 0.89046 0.24214 0.29191 0.0
C87 C 0.91195 0.27031 1.16891 0.0
C88 C 0.92787 0.2504 0.26842 0.0
C89 C 0.85109 0.27655 1.15552 0.0
O90 O 0.86429 0.4114 1.02446 0.0
O91 O 0.89095 0.37584 1.06731 0.0
C92 C 0.89167 0.39997 1.02126 0.0
O93 O 0.78936 0.31236 1.07065 0.0
O94 O 0.81079 0.43797 1.03683 0.0
O95 O 0.81191 0.45534 1.13389 0.0
O96 O 0.76221 0.34733 1.10816 0.0
C97 C 0.75756 0.31496 1.07944 0.0
O98 O 0.81918 0.35339 0.24215 0.0
O99 O 0.81755 0.41063 1.21784 0.0
O100 O 0.8851 0.43311 1.15805 0.0
O101 O 0.82135 0.27831 1.18199 0.0
O102 O 0.87118 0.30642 1.11723 0.0
O103 O 0.87737 0.37777 1.21151 0.0
C104 C 0.7591 0.44877 1.06835 0.0
C105 C 0.72886 0.42115 1.10827 0.0
C106 C 0.70931 0.4352 0.98788 0.0
C107 C 0.68972 0.39822 1.08569 0.0
C108 C 0.74824 0.45847 1.01076 0.0
C109 C 0.681 0.40134 1.02205 0.0
C110 C 0.8005 0.45708 1.07662 0.0
C111 C 0.81597 0.38553 0.26168 0.0
H112 H 0.83675 0.24435 0.27508 0.0
H113 H -0.03341 0.2702 1.18701 0.0
H114 H 0.88229 0.23258 0.3403 0.0
H115 H 0.921 0.28138 1.12136 0.0
H116 H 0.7362 0.41364 1.1538 0.0
H117 H 0.70394 0.44023 0.93948 0.0
H118 H 0.66813 0.3741 1.11494 0.0
H119 H 0.77092 0.48019 0.97965 0.0
Eu120 Eu 0.50184 0.88959 0.47631 0.0
Eu121 Eu 0.4298 0.81889 0.42177 0.0
C122 C 0.40907 0.87226 0.50036 0.0
C123 C 0.61329 0.96345 0.52189 0.0
C124 C 0.6356 0.94364 0.52538 0.0
C125 C 0.67229 0.02563 0.5509 0.0
C126 C 0.67515 0.96423 0.54693 0.0
C127 C 0.63295 0.00514 0.52919 0.0
C128 C 0.69221 0.00442 0.5668 0.0
C129 C 0.56946 0.94115 0.52729 0.0
O130 O 0.4578 0.86952 0.33767 0.0
O131 O 0.50206 0.9257 0.3905 0.0
C132 C 0.48367 0.90971 0.33699 0.0
O133 O 0.5185 0.85021 0.41447 0.0
O134 O 0.41481 0.7664 0.36302 0.0
O135 O 0.36889 0.78072 0.38815 0.0
O136 O 0.46953 0.7953 0.45529 0.0
C137 C 0.50401 0.81213 0.42797 0.0
O138 O 0.47062 0.86103 0.57089 0.0
O139 O 0.41539 0.80559 0.53296 0.0
O140 O 0.39385 0.84213 0.46199 0.0
O141 O 0.54838 0.95188 0.49227 0.0
O142 O 0.5521 0.90245 0.53684 0.0
O143 O 0.44828 0.89511 0.50904 0.0
C144 C 0.34815 0.71173 0.37102 0.0
C145 C 0.35322 0.68377 0.33594 0.0
C146 C 0.28132 0.65899 0.3994 0.0
C147 C 0.32191 0.6445 0.32945 0.0
C148 C 0.31291 0.69844 0.40611 0.0
C149 C 0.28416 0.63256 0.35637 0.0
C150 C 0.37679 0.75483 0.36189 0.0
C151 C 0.43608 0.82836 0.58288 0.0
H152 H 0.62142 0.91151 0.51826 0.0
H153 H 0.68435 0.05678 0.56405 0.0
H154 H 0.69025 0.94734 0.5561 0.0
H155 H 0.61653 0.0212 0.52572 0.0
H156 H 0.3803 0.69307 0.30914 0.0
H157 H 0.25324 0.65067 0.42238 0.0
H158 H 0.32629 0.62538 0.29683 0.0
H159 H 0.30843 0.71919 0.43475 0.0
Eu160 Eu 0.58474 0.52298 0.82045 0.0
Eu161 Eu 0.55524 0.44098 0.7614 0.0
C162 C 0.49411 0.45406 0.82095 0.0
C163 C 0.6527 0.62188 0.90374 0.0
C164 C 0.66762 0.60694 0.95027 0.0
C165 C 0.70479 0.68964 0.92951 0.0
C166 C 0.69923 0.63324 0.98877 0.0
C167 C 0.67263 0.66317 0.89151 0.0
C168 C 0.71688 0.67523 0.98145 0.0
C169 C 0.61606 0.59485 0.86874 0.0
O170 O 0.54907 0.48105 0.67824 0.0
O171 O 0.55759 0.53609 0.73053 0.0
C172 C 0.54732 0.51519 0.67723 0.0
O173 O 0.64125 0.52278 0.78558 0.0
O174 O 0.53108 0.39768 0.68322 0.0
O175 O 0.5784 0.40033 0.74125 0.0
O176 O 0.61396 0.45874 0.81019 0.0
C177 C 0.64618 0.49212 0.79776 0.0
O178 O 0.56646 0.48123 0.91184 0.0
O179 O 0.53467 0.41842 0.86633 0.0
O180 O 0.49749 0.42318 0.80518 0.0
O181 O 0.6212 0.58785 0.8104 0.0
O182 O 0.5897 0.56252 0.89795 0.0
O183 O 0.51908 0.48921 0.79716 0.0
C184 C 0.59249 0.41423 0.63495 0.0
C185 C 0.64405 0.42475 0.64902 0.0
C186 C 0.62129 0.49 0.5419 0.0
C187 C 0.68732 0.46825 0.61371 0.0
C188 C 0.58152 0.4456 0.58088 0.0
C189 C 0.67724 0.5049 0.56135 0.0
C190 C 0.5627 0.39342 0.68506 0.0
C191 C 0.5442 0.44114 0.91885 0.0
H192 H 0.65346 0.57501 0.95924 0.0
H193 H 0.71833 0.72147 0.92049 0.0
H194 H 0.70711 0.6202 1.02758 0.0
H195 H 0.66226 0.67512 0.85424 0.0
H196 H 0.64919 0.40684 0.68309 0.0
H197 H 0.61439 0.51037 0.51683 0.0
H198 H 0.71737 0.47592 0.62678 0.0
H199 H 0.55109 0.43953 0.57624 0.0
Eu200 Eu 0.0529 0.60179 1.14918 0.0
Eu201 Eu 0.10008 0.5596 1.11208 0.0
C202 C 0.02577 0.51388 1.20268 0.0
C203 C 0.01038 0.66917 1.2134 0.0
C204 C 0.01963 0.67327 0.27775 0.0
C205 C -0.02848 0.70247 1.22795 0.0
C206 C 0.00457 0.69157 0.31716 0.0
C207 C -0.01327 0.68423 1.18851 0.0
C208 C -0.01998 0.70603 0.29282 0.0
C209 C 0.02637 0.65102 1.17051 0.0
O210 O 0.05701 0.55 1.02202 0.0
O211 O 0.0118 0.56425 1.06586 0.0
C212 C 0.02215 0.55014 1.01681 0.0
O213 O 0.1004 0.64057 1.07747 0.0
O214 O 0.11668 0.52952 1.04026 0.0
O215 O 0.15072 0.54981 1.12628 0.0
O216 O 0.14504 0.62609 1.11648 0.0
C217 C 0.13772 0.65145 1.08743 0.0
O218 O 0.07742 0.59459 0.25045 0.0
O219 O 0.1044 0.55541 1.22286 0.0
O220 O 0.04955 0.50974 1.16304 0.0
O221 O 0.0637 0.66043 1.17839 0.0
O222 O 0.00314 0.61368 1.15355 0.0
O223 O 0.02107 0.54546 1.20349 0.0
C224 C 0.18706 0.564 1.03345 0.0
C225 C 0.19029 0.59768 1.00276 0.0
C226 C 0.25642 0.58618 1.00649 0.0
C227 C 0.22587 0.62531 0.97462 0.0
C228 C 0.22044 0.55847 1.03581 0.0
C229 C 0.25964 0.62026 0.97609 0.0
C230 C 0.15016 0.53822 1.06861 0.0
C231 C 0.09347 0.5719 0.26863 0.0
H232 H 0.03793 0.66184 0.29759 0.0
H233 H 0.95247 0.71297 1.20806 0.0
H234 H 0.01071 0.69266 0.36726 0.0
H235 H -0.02028 0.68153 1.13856 0.0
H236 H 0.16512 0.6028 1.00084 0.0
H237 H 0.28155 0.58099 1.00734 0.0
H238 H 0.22626 0.65007 0.94967 0.0
H239 H 0.21875 0.53299 1.06049 0.0
Eu240 Eu 0.86917 0.51591 0.65038 0.0
Eu241 Eu 0.83063 0.42691 0.69272 0.0
C242 C 0.89735 0.46185 0.57995 0.0
C243 C 0.89215 0.61977 0.59191 0.0
C244 C 0.87422 0.60587 0.53298 0.0
C245 C 0.90999 0.68757 0.56257 0.0
C246 C 0.87635 0.63304 0.48761 0.0
C247 C 0.90809 0.66027 0.60785 0.0
C248 C 0.8967 0.67463 0.50052 0.0
C249 C 0.89629 0.59277 0.63569 0.0
O250 O 0.8791 0.45575 0.77414 0.0
O251 O 0.90843 0.52048 0.74046 0.0
C252 C 0.90701 0.49409 0.78293 0.0
O253 O 0.80593 0.50074 0.67161 0.0
O254 O 0.82158 0.37542 0.75036 0.0
O255 O 0.77996 0.36776 0.67603 0.0
O256 O 0.79173 0.44977 0.73841 0.0
C257 C 0.78422 0.47747 0.71723 0.0
O258 O 0.84022 0.4832 0.55184 0.0
O259 O 0.81416 0.4181 0.58455 0.0
O260 O 0.87907 0.43437 0.62428 0.0
O261 O 0.86448 0.56925 0.6678 0.0
O262 O 0.91446 0.57418 0.61458 0.0
O263 O 0.89901 0.49668 0.58151 0.0
C264 C 0.75151 0.33163 0.7684 0.0
C265 C 0.7568 0.33171 0.8339 0.0
C266 C 0.6807 0.30829 0.78467 0.0
C267 C 0.7248 0.32214 0.87432 0.0
C268 C 0.71258 0.31724 0.74424 0.0
C269 C 0.68694 0.31258 0.85006 0.0
C270 C 0.78632 0.35177 0.72564 0.0
C271 C 0.82186 0.44376 0.53721 0.0
H272 H 0.86099 0.57441 0.52066 0.0
H273 H 0.92499 0.71916 0.57456 0.0
H274 H 0.86569 0.62151 0.44066 0.0
H275 H 0.92113 0.67114 0.65407 0.0
H276 H 0.78618 0.34203 0.8541 0.0
H277 H 0.65191 0.3008 0.76469 0.0
H278 H 0.73086 0.32614 0.92454 0.0
H279 H 0.7073 0.31593 0.69383 0.0
Eu280 Eu 0.35429 0.87543 0.95812 0.0
Eu281 Eu 0.36537 0.80981 1.01445 0.0
C282 C 0.44042 0.87364 0.9546 0.0
C283 C 0.30583 0.93928 0.90846 0.0
C284 C 0.26406 0.91474 0.90517 0.0
C285 C 0.29904 -0.00308 0.88259 0.0
C286 C 0.24033 0.93092 0.88579 0.0
C287 C 0.32264 -0.0192 0.90209 0.0
C288 C 0.25825 0.97154 0.86816 0.0
C289 C 0.33251 0.92224 0.90419 0.0
O290 O 0.37787 0.85851 1.09908 0.0
O291 O 0.38232 0.91222 1.04732 0.0
C292 C 0.38577 0.89709 1.10094 0.0
O293 O 0.29753 0.82949 1.01164 0.0
O294 O 0.34992 0.77624 1.10183 0.0
O295 O 0.37214 0.75651 1.02412 0.0
O296 O 0.30427 0.78053 0.97153 0.0
C297 C 0.28059 0.79162 0.99527 0.0
O298 O 0.36595 0.85151 0.86475 0.0
O299 O 0.37641 0.80225 0.90449 0.0
O300 O 0.42873 0.8455 0.99628 0.0
O301 O 0.36299 0.93556 0.94286 0.0
O302 O 0.31615 0.88386 0.89213 0.0
O303 O 0.41771 0.88885 0.93604 0.0
C304 C 0.32421 0.70688 1.09263 0.0
C305 C 0.28396 0.69704 1.092 0.0
C306 C 0.30494 0.6425 1.14009 0.0
C307 C 0.25461 0.6609 1.11781 0.0
C308 C 0.33416 0.67851 1.11373 0.0
C309 C 0.26501 0.63419 1.14616 0.0
C310 C 0.35623 0.74818 1.08011 0.0
C311 C 0.37516 0.82309 0.85416 0.0
H312 H 0.25013 0.88259 0.91147 0.0
H313 H 0.31422 0.02846 0.87058 0.0
H314 H 0.20879 0.91075 0.87729 0.0
H315 H 0.35472 0.00038 0.90528 0.0
H316 H 0.27556 0.7183 1.07481 0.0
H317 H 0.3149 0.6233 1.16103 0.0
H318 H 0.22428 0.65535 1.11936 0.0
H319 H 0.36504 0.68544 1.1143 0.0
Eu320 Eu 0.40471 0.32222 0.29905 0.0
Eu321 Eu 0.48641 0.37621 0.33891 0.0
C322 C 0.43133 0.40913 0.28192 0.0
C323 C 0.2958 0.24458 0.24462 0.0
C324 C 0.3014 0.24403 1.17962 0.0
C325 C 0.22388 0.20878 1.22898 0.0
C326 C 0.26837 0.2268 1.1393 0.0
C327 C 0.257 0.22589 0.26929 0.0
C328 C 0.22925 0.21009 1.16339 0.0
C329 C 0.32969 0.26612 0.2875 0.0
O330 O 0.46295 0.39131 0.43045 0.0
O331 O 0.39918 0.34471 0.40471 0.0
C332 C 0.42445 0.37314 0.44584 0.0
O333 O 0.43393 0.2839 0.29809 0.0
O334 O 0.54471 0.42103 0.3742 0.0
O335 O 0.5383 0.37016 0.31821 0.0
O336 O 0.46622 0.31487 0.38454 0.0
C337 C 0.4528 0.28326 0.3484 0.0
O338 O 0.43431 0.34299 1.19587 0.0
O339 O 0.4954 0.39032 0.2314 0.0
O340 O 0.45986 0.41586 0.32253 0.0
O341 O 0.35966 0.25968 0.28205 0.0
O342 O 0.34126 0.30371 0.29812 0.0
O343 O 0.41223 0.37566 0.25135 0.0
C344 C 0.57136 0.38265 0.41355 0.0
C345 C 0.60532 0.37814 0.41567 0.0
C346 C 0.56506 0.37257 0.52435 0.0
C347 C 0.62078 0.3771 0.47586 0.0
C348 C 0.54776 0.3728 0.46747 0.0
C349 C 0.60744 0.39134 0.527 0.0
C350 C 0.5597 0.39786 0.3596 0.0
C351 C 0.47174 0.37242 1.18246 0.0
H352 H 0.33122 0.2584 1.15993 0.0
H353 H 0.19423 0.1963 0.24882 0.0
H354 H 0.27375 0.22924 1.08896 0.0
H355 H 0.25235 0.22594 0.31968 0.0
H356 H 0.6218 0.38005 0.37335 0.0
H357 H 0.54574 0.36292 0.56491 0.0
H358 H 0.65004 0.37967 0.4779 0.0
H359 H 0.51768 0.36815 0.46649 0.0
Eu360 Eu 0.04488 0.43853 0.6598 0.0
Eu361 Eu 0.08465 0.53261 0.70395 0.0
C362 C 0.00459 0.48678 0.63654 0.0
C363 C 0.01517 0.33404 0.59186 0.0
C364 C 0.04914 0.34645 0.55438 0.0
C365 C -0.01863 0.2715 0.53454 0.0
C366 C 0.04823 0.32217 0.5045 0.0
C367 C -0.01742 0.29544 0.58468 0.0
C368 C 0.0128 0.28608 0.49046 0.0
C369 C 0.00981 0.3626 0.63002 0.0
O370 O 0.03819 0.49807 0.78748 0.0
O371 O 0.01369 0.43206 0.75886 0.0
C372 C 0.0141 0.45879 0.80003 0.0
O373 O 0.10684 0.45251 0.68644 0.0
O374 O 0.09685 0.5807 0.77157 0.0
O375 O 0.12491 0.59513 0.68032 0.0
O376 O 0.13408 0.51693 0.72323 0.0
C377 C 0.13658 0.48447 0.712 0.0
O378 O 0.06453 0.47285 0.56063 0.0
O379 O 0.08985 0.53827 0.59306 0.0
O380 O 0.03426 0.52306 0.64131 0.0
O381 O 0.03272 0.37767 0.67954 0.0
O382 O 0.0055 0.38933 0.59837 0.0
O383 O 0.00312 0.46057 0.6759 0.0
C384 C 0.1661 0.62732 0.76463 0.0
C385 C 0.17726 0.60362 0.79962 0.0
C386 C 0.23612 0.67967 0.75921 0.0
C387 C 0.21711 0.61705 0.81276 0.0
C388 C 0.19571 0.66556 0.74449 0.0
C389 C 0.24731 0.65504 0.79226 0.0
C390 C 0.12579 0.60785 0.73727 0.0
C391 C 0.08012 0.51192 0.54581 0.0
H392 H 0.07489 0.37611 0.5603 0.0
H393 H 0.95356 0.24392 0.52657 0.0
H394 H 0.07368 0.33367 0.47322 0.0
H395 H 0.95633 0.28533 0.61396 0.0
H396 H 0.15524 0.57378 0.81492 0.0
H397 H 0.25854 0.70948 0.74455 0.0
H398 H 0.22393 0.59751 0.84038 0.0
H399 H 0.18769 0.68391 0.71598 0.0
Eu400 Eu 0.58776 0.07379 0.97343 0.0
Eu401 Eu 0.51994 0.08904 1.0122 0.0
C402 C 0.50732 0.01077 0.93447 0.0
C403 C 0.67483 0.06366 0.90501 0.0
C404 C 0.67726 0.08345 0.84837 0.0
C405 C 0.71861 0.04116 0.86208 0.0
C406 C 0.69944 0.08127 0.79826 0.0
C407 C 0.69646 0.04348 0.91231 0.0
C408 C 0.71933 0.059 0.80381 0.0
C409 C 0.64837 0.06211 0.95561 0.0
O410 O 0.50907 0.04412 1.09427 0.0
O411 O 0.56407 0.03894 1.07271 0.0
C412 C 0.53182 0.0284 1.10924 0.0
O413 O 0.61985 0.14059 0.97648 0.0
O414 O 0.47753 0.09017 1.07906 0.0
O415 O 0.48413 0.11684 0.98718 0.0
O416 O 0.57885 0.14464 1.04738 0.0
C417 C 0.61357 0.16158 1.0181 0.0
O418 O 0.56877 0.08772 0.87255 0.0
O419 O 0.51494 0.09361 0.90241 0.0
O420 O 0.49494 0.02347 0.98265 0.0
O421 O 0.65194 0.09628 0.97307 0.0
O422 O 0.61111 0.03381 0.95137 0.0
O423 O 0.5411 0.03422 0.90886 0.0
C424 C 0.48339 0.15403 1.07618 0.0
C425 C 0.47083 0.15388 1.13807 0.0
C426 C 0.53382 0.22458 1.08894 0.0
C427 C 0.49157 0.18765 1.1765 0.0
C428 C 0.51343 0.19046 1.05071 0.0
C429 C 0.52533 0.2227 1.15385 0.0
C430 C 0.47194 0.11523 1.04496 0.0
C431 C 0.538 0.0933 0.85613 0.0
H432 H 0.66066 0.09913 0.84201 0.0
H433 H 0.73349 0.02375 0.86779 0.0
H434 H 0.6985 0.09461 0.75372 0.0
H435 H 0.69498 0.02821 0.95606 0.0
H436 H 0.44767 0.12634 1.15885 0.0
H437 H 0.55845 0.25121 1.06862 0.0
H438 H 0.48353 0.18415 1.22575 0.0
H439 H 0.52358 0.19187 1.00272 0.0
Eu440 Eu 0.50731 0.59746 0.29506 0.0
Eu441 Eu 0.44486 0.6114 0.34189 0.0
C442 C 0.41325 0.52457 0.3141 0.0
C443 C 0.61454 0.63736 0.2456 0.0
C444 C 0.62186 0.67402 1.22012 0.0
C445 C 0.68569 0.66099 0.24314 0.0
C446 C 0.66029 0.70251 1.20152 0.0
C447 C 0.64698 0.6322 0.26101 0.0
C448 C 0.69243 0.69476 1.207 0.0
C449 C 0.57336 0.60379 0.25218 0.0
O450 O 0.47453 0.59521 0.43354 0.0
O451 O 0.50287 0.56333 0.38506 0.0
C452 C 0.49267 0.57259 0.43869 0.0
O453 O 0.5297 0.66055 0.33831 0.0
O454 O 0.39066 0.61146 0.37164 0.0
O455 O 0.44752 0.6655 0.37975 0.0
O456 O 0.4857 0.66176 0.27818 0.0
C457 C 0.51825 0.68327 0.30973 0.0
O458 O 0.47258 0.58621 1.19978 0.0
O459 O 0.41803 0.58702 0.2386 0.0
O460 O 0.40324 0.54776 0.34321 0.0
O461 O 0.56071 0.59205 0.30937 0.0
O462 O 0.54644 0.60522 1.21652 0.0
O463 O 0.45003 0.53669 0.29349 0.0
C464 C 0.40441 0.64846 0.46455 0.0
C465 C 0.36533 0.63553 0.48426 0.0
C466 C 0.40857 0.6005 0.53058 0.0
C467 C 0.34633 0.60114 0.52138 0.0
C468 C 0.4278 0.63743 0.50085 0.0
C469 C 0.36662 0.57999 0.53601 0.0
C470 C 0.41039 0.64725 0.39677 0.0
C471 C 0.43576 0.57969 1.18996 0.0
H472 H 0.59747 0.67966 1.21053 0.0
H473 H 0.70935 0.65453 0.25335 0.0
H474 H 0.66318 0.72859 1.17758 0.0
H475 H 0.64216 0.60483 0.28353 0.0
H476 H 0.34733 0.64605 0.46086 0.0
H477 H 0.4265 0.5871 0.54248 0.0
H478 H 0.31432 0.58718 0.52795 0.0
H479 H 0.4594 0.65026 0.49123 0.0
C480 C 0.44107 0.17854 0.33807 0.0
C481 C 0.4677 0.17909 0.38428 0.0
H482 H 0.41585 0.21005 0.29064 0.0
C483 C 0.48898 0.21438 0.42059 0.0
H484 H 0.42372 0.15197 0.30951 0.0
C485 C 0.48413 0.24818 0.41001 0.0
C486 C 0.45781 0.24755 0.36286 0.0
H487 H 0.50926 0.21585 0.45733 0.0
H488 H 0.50126 0.2749 0.43833 0.0
C489 C 0.43644 0.21207 0.32728 0.0
C490 C 0.2065 0.44232 0.7441 0.0
C491 C 0.24297 0.47643 0.76044 0.0
H492 H 0.14545 0.41808 0.71604 0.0
C493 C 0.24427 0.51384 0.76112 0.0
H494 H 0.20411 0.41303 0.74255 0.0
C495 C 0.21006 0.51684 0.74608 0.0
C496 C 0.17364 0.48256 0.72924 0.0
H497 H 0.27169 0.54085 0.77367 0.0
H498 H 0.21229 0.54604 0.74701 0.0
C499 C 0.17266 0.44534 0.72851 0.0
C500 C 0.68234 0.26597 1.09458 0.0
C501 C 0.718 0.27936 1.06027 0.0
H502 H 0.62145 0.21807 1.11014 0.0
C503 C 0.71745 0.25486 1.01054 0.0
H504 H 0.68186 0.28417 1.13286 0.0
C505 C 0.6833 0.21806 0.9966 0.0
C506 C 0.64795 0.20334 1.03236 0.0
H507 H 0.74403 0.26383 0.98262 0.0
H508 H 0.68525 0.2006 0.9581 0.0
C509 C 0.64781 0.22823 1.0813 0.0
C510 C 0.51639 0.74819 0.30167 0.0
C511 C 0.52519 0.72253 0.33746 0.0
H512 H 0.50423 0.79723 0.30157 0.0
C513 C 0.53222 0.73056 0.4027 0.0
H514 H 0.51004 0.74266 0.2517 0.0
C515 C 0.52745 0.76108 0.43166 0.0
C516 C 0.51725 0.78571 0.39607 0.0
H517 H 0.53805 0.71107 0.43236 0.0
H518 H 0.53013 0.76433 0.48249 0.0
C519 C 0.51298 0.77955 0.33035 0.0
C520 C 0.68547 0.45527 0.79468 0.0
C521 C 0.68437 0.49116 0.78529 0.0
H522 H 0.71699 0.4227 0.78173 0.0
C523 C 0.71841 0.52371 0.75853 0.0
H524 H 0.66002 0.42933 0.81473 0.0
C525 C 0.75098 0.51951 0.73786 0.0
C526 C 0.75102 0.48287 0.74448 0.0
H527 H 0.71931 0.55202 0.75128 0.0
H528 H 0.77588 0.54486 0.71532 0.0
C529 C 0.71824 0.45127 0.77522 0.0
C530 C 0.21806 0.72572 0.97691 0.0
C531 C 0.23999 0.75961 1.01577 0.0
H532 H 0.16798 0.6659 0.96823 0.0
C533 C 0.22608 0.75857 1.07744 0.0
H534 H 0.22826 0.72515 0.92956 0.0
C535 C 0.19225 0.72376 1.10039 0.0
C536 C 0.17103 0.68967 1.06172 0.0
H537 H 0.24274 0.78362 1.10916 0.0
H538 H 0.1833 0.7231 1.14894 0.0
C539 C 0.18372 0.69153 0.99923 0.0
C540 C 0.59706 0.26662 1.18749 0.0
C541 C 0.55609 0.2511 1.19996 0.0
H542 H 0.65308 0.27718 1.22569 0.0
C543 C 0.54536 0.25211 0.26296 0.0
H544 H 0.60807 0.27027 1.13982 0.0
C545 C 0.57111 0.25492 0.31178 0.0
C546 C 0.60804 0.25772 0.29758 0.0
H547 H 0.51522 0.24463 0.27466 0.0
H548 H 0.55936 0.24855 0.35902 0.0
C549 C 0.62312 0.27055 0.23669 0.0
C550 C 0.32395 0.48275 0.62912 0.0
C551 C 0.34201 0.53403 0.54086 0.0
H552 H 0.27554 0.41568 0.63204 0.0
C553 C 0.32184 0.52244 0.4759 0.0
H554 H 0.33334 0.48313 0.67766 0.0
C555 C 0.28709 0.47484 0.48057 0.0
C556 C 0.27 0.43693 0.53292 0.0
H557 H 0.32689 0.54139 0.43509 0.0
H558 H 0.27081 0.46546 0.43476 0.0
C559 C 0.28822 0.44178 0.60143 0.0
C560 C 0.65171 0.32813 1.0021 0.0
C561 C 0.65282 0.36431 0.98596 0.0
H562 H 0.66099 0.28105 0.96783 0.0
C563 C 0.64274 0.36814 0.92346 0.0
H564 H 0.65612 0.32173 1.05019 0.0
C565 C 0.64704 0.34536 0.87583 0.0
C566 C 0.65858 0.31702 0.89179 0.0
H567 H 0.63941 0.3935 0.91014 0.0
H568 H 0.64764 0.35445 0.82729 0.0
C569 C 0.65482 0.30461 0.95475 0.0
C570 C 0.24783 0.57628 1.21891 0.0
C571 C 0.2387 0.6051 1.19527 0.0
H572 H 0.26712 0.55857 0.30149 0.0
C573 C 0.21793 0.6173 0.23607 0.0
H574 H 0.25974 0.56232 1.1881 0.0
C575 C 0.22135 0.61406 0.30117 0.0
C576 C 0.24751 0.60109 0.32329 0.0
H577 H 0.20618 0.63612 1.21993 0.0
H578 H 0.21236 0.63087 0.33136 0.0
C579 C 0.25148 0.57359 0.28433 0.0
C580 C 0.63794 0.48124 0.64139 0.0
C581 C 0.63414 0.43791 0.54597 0.0
H582 H 0.67916 0.54886 0.66037 0.0
C583 C 0.66323 0.45726 0.48935 0.0
H584 H 0.62057 0.47654 0.68425 0.0
C585 C 0.69237 0.50494 0.5066 0.0
C586 C 0.6992 0.53744 0.5647 0.0
H587 H 0.66679 0.44561 0.44511 0.0
H588 H 0.71365 0.51956 0.46706 0.0
C589 C 0.67321 0.52538 0.6264 0.0
C590 C 0.30232 0.68653 0.92633 0.0
C591 C 0.29438 0.64686 0.93571 0.0
H592 H 0.29469 0.72395 0.85999 0.0
C593 C 0.30226 0.6284 0.88478 0.0
H594 H 0.29973 0.70339 0.96495 0.0
C595 C 0.3008 0.64146 0.82354 0.0
C596 C 0.28857 0.67026 0.81654 0.0
H597 H 0.29978 0.59922 0.8903 0.0
H598 H 0.29703 0.62156 0.78465 0.0
C599 C 0.29942 0.69855 0.86521 0.0
C600 C 0.3892 0.91236 1.22622 0.0
C601 C 0.39825 0.92543 1.16218 0.0
H602 H 0.39115 0.92713 0.32617 0.0
C603 C 0.41866 0.96822 1.15651 0.0
H604 H 0.37354 0.88047 0.23563 0.0
C605 C 0.42993 -0.00448 1.20951 0.0
C606 C 0.42027 -0.01729 0.27327 0.0
H607 H 0.42683 -0.01879 1.10986 0.0
H608 H 0.44612 0.02741 1.19994 0.0
C609 C 0.39932 0.93986 0.27942 0.0
C610 C 0.43439 0.42428 0.53971 0.0
C611 C 0.40977 0.38694 0.508 0.0
H612 H 0.4431 0.4674 0.6137 0.0
C613 C 0.37124 0.36476 0.53712 0.0
H614 H 0.46398 0.44353 0.52134 0.0
C615 C 0.35907 0.37841 0.59301 0.0
C616 C 0.38383 0.41607 0.62428 0.0
H617 H 0.34996 0.33606 0.51687 0.0
H618 H 0.32937 0.35914 0.61132 0.0
C619 C 0.42196 0.43835 0.59433 0.0
C620 C -0.00555 0.44825 0.92274 0.0
C621 C -0.0168 0.44374 0.85759 0.0
H622 H -0.02279 0.43835 1.022 0.0
C623 C 0.94086 0.4235 0.84851 0.0
H624 H 0.02594 0.46308 0.9345 0.0
C625 C 0.91232 0.41022 0.89983 0.0
C626 C 0.92345 0.41445 0.96496 0.0
H627 H 0.92939 0.41854 0.80069 0.0
H628 H 0.88087 0.39609 0.88795 0.0
C629 C -0.03422 0.43359 0.97416 0.0
C630 C 0.51743 -0.01829 0.28343 0.0
C631 C 0.4946 0.93889 0.27699 0.0
H632 H 0.54607 0.04135 0.24139 0.0
C633 C 0.48462 0.9265 1.21282 0.0
H634 H 0.52638 -0.00565 0.33029 0.0
C635 C 0.49669 0.95446 1.1602 0.0
C636 C 0.5199 -0.00269 1.16683 0.0
H637 H 0.46714 0.89472 1.20269 0.0
H638 H 0.48657 0.94187 1.11377 0.0
C639 C 0.52926 0.00955 0.23104 0.0
C640 C 0.5188 0.55852 0.6198 0.0
C641 C 0.53258 0.52997 0.61682 0.0
H642 H 0.49553 0.59346 0.57247 0.0
C643 C 0.53159 0.51608 0.55418 0.0
H644 H 0.5182 0.57088 0.6654 0.0
C645 C 0.51857 0.52954 0.49977 0.0
C646 C 0.50466 0.55791 0.50226 0.0
H647 H 0.54132 0.49448 0.54642 0.0
H648 H 0.51948 0.51711 0.45439 0.0
C649 C 0.5052 0.57173 0.56511 0.0
C650 C 0.95072 0.51402 0.96041 0.0
C651 C -0.00661 0.53487 0.95575 0.0
H652 H 0.89202 0.48435 0.91524 0.0
C653 C 0.00672 0.54232 0.8917 0.0
H654 H 0.93755 0.50715 1.00696 0.0
C655 C -0.02027 0.53029 0.83753 0.0
C656 C 0.93704 0.50825 0.8424 0.0
H657 H 0.03856 0.55847 0.88297 0.0
H658 H -0.00726 0.53786 0.79091 0.0
C659 C 0.92385 0.50061 0.90637 0.0
C660 C 0.42021 0.9473 0.57675 0.0
C661 C 0.41997 0.96279 0.51713 0.0
H662 H 0.39913 0.89263 0.62807 0.0
C663 C 0.38981 0.93914 0.47342 0.0
H664 H 0.43878 0.96628 0.6149 0.0
C665 C 0.36723 0.8982 0.48368 0.0
C666 C 0.38165 0.88294 0.52996 0.0
H667 H 0.38483 0.95157 0.43107 0.0
H668 H 0.34814 0.87925 0.44591 0.0
C669 C 0.39724 0.90604 0.58465 0.0
C670 C 0.45929 0.49408 0.94406 0.0
C671 C 0.42043 0.46457 0.92913 0.0
H672 H 0.51718 0.51605 0.90522 0.0
C673 C 0.4136 0.42514 0.93308 0.0
H674 H 0.46594 0.52385 0.95777 0.0
C675 C 0.4414 0.41872 0.9007 0.0
C676 C 0.4766 0.45314 0.88152 0.0
H677 H 0.38356 0.40021 0.93866 0.0
H678 H 0.43273 0.38922 0.88215 0.0
C679 C 0.48862 0.48969 0.91344 0.0
C680 C -0.04045 0.42186 1.22457 0.0
C681 C 0.9325 0.43583 0.23461 0.0
H682 H 0.02123 0.4401 1.22109 0.0
C683 C 0.94224 0.46816 0.2748 0.0
H684 H 0.95119 0.39458 1.19824 0.0
C685 C -0.01792 0.49161 0.2918 0.0
C686 C 0.00929 0.48603 0.25547 0.0
H687 H 0.92044 0.47674 0.28824 0.0
H688 H -0.00873 0.51998 0.31522 0.0
C689 C -0.0008 0.44696 0.23979 0.0
C690 C 0.95562 0.43133 0.57004 0.0
C691 C -0.01604 0.47256 0.57674 0.0
H692 H 0.89622 0.39079 0.53997 0.0
C693 C -0.01671 0.4999 0.53325 0.0
H694 H 0.9554 0.40881 0.60068 0.0
C695 C 0.94764 0.48764 0.50041 0.0
C696 C 0.91464 0.4529 0.52408 0.0
H697 H 0.00621 0.53124 0.53296 0.0
H698 H 0.94353 0.5102 0.47628 0.0
C699 C 0.92125 0.42098 0.53525 0.0
C700 C 0.4874 0.91142 0.87533 0.0
C701 C 0.48187 0.89299 0.93426 0.0
H702 H 0.49046 0.96337 0.83082 0.0
C703 C 0.50544 0.91733 0.9833 0.0
H704 H 0.47958 0.89379 0.83267 0.0
C705 C 0.51078 0.95577 0.98497 0.0
C706 C 0.49923 0.97019 0.93264 0.0
H707 H 0.50937 0.90443 1.02636 0.0
H708 H 0.52332 -0.02647 1.02651 0.0
C709 C 0.4925 0.95001 0.8747 0.0
C710 C 0.38376 0.46095 0.35853 0.0
C711 C 0.3837 0.48312 0.30677 0.0
H712 H 0.40717 0.42464 0.39129 0.0
C713 C 0.38199 0.46826 0.24582 0.0
H714 H 0.38194 0.47037 0.40596 0.0
C715 C 0.39704 0.44258 0.23657 0.0
C716 C 0.41022 0.43057 0.28926 0.0
H717 H 0.3786 0.48333 1.2053 0.0
H718 H 0.40192 0.43546 1.18911 0.0
C719 C 0.40003 0.43642 0.3502 0.0
C720 C 0.25244 0.0252 0.80987 0.0
C721 C 0.24005 -0.01572 0.81754 0.0
H722 H 0.27243 0.07352 0.74383 0.0
C723 C 0.22278 0.95855 0.76531 0.0
H724 H 0.26411 0.04561 0.84961 0.0
C725 C 0.22731 -0.0255 0.70486 0.0
C726 C 0.24879 0.01622 0.69623 0.0
H727 H 0.21178 0.92665 0.76904 0.0
H728 H 0.21948 0.95423 0.66506 0.0
C729 C 0.25726 0.04122 0.74923 0.0
C730 C 0.19558 0.18775 1.05884 0.0
C731 C 0.19616 0.20248 1.1196 0.0
H732 H 0.18897 0.19495 0.96117 0.0
C733 C 0.17375 0.2216 1.13084 0.0
H734 H 0.21099 0.17121 1.04935 0.0
C735 C 0.15993 0.23448 1.07996 0.0
C736 C 0.17004 0.22966 1.01817 0.0
H737 H 0.1723 0.23218 1.17758 0.0
H738 H 0.148 0.25422 1.08928 0.0
C739 C 0.18245 0.20125 1.00803 0.0
C740 C 0.94948 0.2226 0.35744 0.0
C741 C 0.95868 0.25281 0.31266 0.0
H742 H -0.03727 0.20828 0.44854 0.0
C743 C -0.00556 0.2894 0.31889 0.0
H744 H 0.92257 0.1937 0.35263 0.0
C745 C 0.01671 0.29827 0.3744 0.0
C746 C 0.00353 0.27052 0.42447 0.0
H747 H 0.00252 0.31312 0.28462 0.0
H748 H 0.04081 0.32877 0.38057 0.0
C749 C -0.02756 0.23112 0.41241 0.0
C750 C 0.74898 0.07483 0.69539 0.0
C751 C 0.73262 0.04761 0.74566 0.0
H752 H 0.75157 0.082 0.59514 0.0
C753 C 0.71872 0.0068 0.73394 0.0
H754 H 0.76145 0.10671 0.70338 0.0
C755 C 0.71291 -0.00735 0.67208 0.0
C756 C 0.72046 0.01918 0.62137 0.0
H757 H 0.70667 -0.01504 0.77163 0.0
H758 H 0.69638 0.96046 0.66532 0.0
C759 C 0.74342 0.06063 0.63334 0.0
C760 C 0.74831 0.69395 1.14672 0.0
C761 C 0.72689 0.71384 1.16138 0.0
H762 H 0.76526 0.66767 1.07282 0.0
C763 C 0.7273 0.74043 1.11509 0.0
H764 H 0.75463 0.67741 1.18172 0.0
C765 C 0.73183 0.7335 1.05177 0.0
C766 C 0.73905 0.7021 1.03583 0.0
H767 H 0.7174 0.76163 1.12536 0.0
H768 H 0.72342 0.74837 1.01662 0.0
C769 C 0.75465 0.68831 1.08358 0.0
C770 C 0.91653 0.6993 0.33315 0.0
C771 C 0.95838 0.71805 0.33722 0.0
H772 H 0.86209 0.67311 0.38528 0.0
C773 C -0.02266 0.73821 0.39311 0.0
H774 H 0.90092 0.68458 0.29007 0.0
C775 C 0.95507 0.7307 0.44804 0.0
C776 C 0.91378 0.703 0.44684 0.0
H777 H 0.00966 0.75457 0.39659 0.0
H778 H -0.02865 0.74104 0.4921 0.0
C779 C 0.89419 0.69254 0.38799 0.0
C780 C 0.53609 0.0913 0.66798 0.0
C781 C 0.50026 0.09102 0.64932 0.0
H782 H 0.57564 0.09212 0.74204 0.0
C783 C 0.47754 0.09226 0.70119 0.0
H784 H 0.55524 0.09016 0.63183 0.0
C785 C 0.48984 0.09367 0.76629 0.0
C786 C 0.52563 0.09369 0.78465 0.0
H787 H 0.44975 0.09186 0.6917 0.0
H788 H 0.47059 0.09427 0.80276 0.0
C789 C 0.54819 0.09246 0.73275 0.0
C790 C 0.4203 0.55676 1.00588 0.0
C791 C 0.38 0.5255 0.99666 0.0
H792 H 0.46868 0.59594 1.06867 0.0
C793 C 0.35725 0.51403 1.05353 0.0
H794 H 0.43978 0.56806 0.96538 0.0
C795 C 0.37383 0.53265 1.11432 0.0
C796 C 0.41491 0.56247 1.12342 0.0
H797 H 0.32617 0.49081 1.05123 0.0
H798 H 0.35436 0.52252 1.15492 0.0
C799 C 0.43729 0.57352 1.06657 0.0
C800 C 0.81022 0.37445 0.38759 0.0
C801 C 0.81553 0.3984 0.33325 0.0
H802 H 0.80706 0.3683 0.48982 0.0
C803 C 0.82197 0.43755 0.34855 0.0
H804 H 0.80546 0.34444 0.38105 0.0
C805 C 0.82343 0.45179 0.41218 0.0
C806 C 0.81776 0.42784 0.46647 0.0
H807 H 0.82673 0.45825 0.31053 0.0
H808 H 0.82931 0.4822 0.41863 0.0
C809 C 0.81101 0.38852 0.45146 0.0
C810 C 0.43165 0.85792 0.69123 0.0
C811 C 0.41933 0.82333 0.6528 0.0
H812 H 0.42512 0.88529 0.77591 0.0
C813 C 0.392 0.78676 0.68384 0.0
H814 H 0.45261 0.88707 0.67222 0.0
C815 C 0.37882 0.78551 0.74865 0.0
C816 C 0.39032 0.8209 0.78548 0.0
H817 H 0.38111 0.75877 0.65849 0.0
H818 H 0.35849 0.75664 0.76907 0.0
C819 C 0.41615 0.85689 0.75295 0.0
C820 C 0.54017 0.44379 1.04365 0.0
C821 C 0.52562 0.42219 0.98599 0.0
H822 H 0.53662 0.44639 1.14549 0.0
C823 C 0.49158 0.38307 0.99458 0.0
H824 H 0.56564 0.47385 1.0421 0.0
C825 C 0.47358 0.36715 1.05569 0.0
C826 C 0.48873 0.38875 1.11346 0.0
H827 H 0.47807 0.3645 0.95334 0.0
H828 H 0.44779 0.33731 1.05747 0.0
C829 C 0.5229 0.42761 1.10452 0.0
C830 C 0.0856 0.56408 0.45809 0.0
C831 C 0.08459 0.52741 0.4745 0.0
H832 H 0.08803 0.60595 0.3863 0.0
C833 C 0.08745 0.50658 0.42083 0.0
H834 H 0.08332 0.58197 0.49555 0.0
C835 C 0.0916 0.52146 0.35673 0.0
C836 C 0.09199 0.55783 0.34025 0.0
H837 H 0.08684 0.4784 0.42821 0.0
H838 H 0.09358 0.50342 0.31922 0.0
C839 C 0.08845 0.5783 0.39382 0.0
loop_
_geom_bond_atom_site_label_1
_geom_bond_atom_site_label_2
_geom_bond_distance
_geom_bond_site_symmetry_2
_ccdc_geom_bond_type
Eu0 C9 2.828 . S
Eu0 O11 2.392 . S
Eu0 O13 2.418 . S
Eu0 O18 2.373 . S
Eu0 O21 2.488 . S
Eu0 O22 2.471 . S
Eu0 O23 2.349 . S
Eu1 O10 2.373 . S
Eu1 O14 2.488 . S
Eu1 O15 2.471 . S
Eu1 O16 2.349 . S
Eu1 O19 2.392 . S
Eu1 O20 2.418 . S
Eu1 C30 2.828 . S
C2 O20 1.244 . S
C2 O23 1.265 . S
C3 C4 1.379 . S
C3 C7 1.373 . S
C3 C9 1.505 . S
C4 C3 1.379 . S
C4 C6 1.369 . S
C4 H32 0.930 . S
C5 C7 1.383 . S
C5 C8 1.382 . S
C5 H33 0.930 . S
C6 C4 1.369 . S
C6 C8 1.392 . S
C6 H34 0.930 . S
C7 C3 1.373 . S
C7 C5 1.383 . S
C7 H35 0.931 . S
C8 C5 1.382 . S
C8 C6 1.392 . S
C9 Eu0 2.828 . S
C9 C3 1.505 . S
C9 O21 1.249 . S
C9 O22 1.244 . S
O10 Eu1 2.373 . S
O10 C12 1.258 . S
O11 Eu0 2.392 . S
O11 C12 1.242 . S
C12 O10 1.258 . S
C12 O11 1.242 . S
O13 Eu0 2.418 . S
O13 C17 1.244 . S
O14 Eu1 2.488 . S
O14 C30 1.249 . S
O15 Eu1 2.471 . S
O15 C30 1.244 . S
O16 Eu1 2.349 . S
O16 C17 1.265 . S
C17 O13 1.244 . S
C17 O16 1.265 . S
O18 Eu0 2.373 . S
O18 C31 1.258 . S
O19 Eu1 2.392 . S
O19 C31 1.242 . S
O20 Eu1 2.418 . S
O20 C2 1.244 . S
O21 Eu0 2.488 . S
O21 C9 1.249 . S
O22 Eu0 2.471 . S
O22 C9 1.244 . S
O23 Eu0 2.349 . S
O23 C2 1.265 . S
C24 C25 1.379 . S
C24 C28 1.373 . S
C24 C30 1.505 . S
C25 C24 1.379 . S
C25 C27 1.369 . S
C25 H36 0.930 . S
C26 C28 1.383 . S
C26 C29 1.382 1_554 S
C26 H37 0.930 . S
C27 C25 1.369 . S
C27 C29 1.392 1_554 S
C27 H38 0.919 1_554 S
C28 C24 1.373 . S
C28 C26 1.383 . S
C28 H39 0.931 . S
C29 C26 1.382 1_556 S
C29 C27 1.392 1_556 S
C30 Eu1 2.828 . S
C30 O14 1.249 . S
C30 O15 1.244 . S
C30 C24 1.505 . S
C31 O18 1.258 . S
C31 O19 1.242 . S
H32 C4 0.930 . S
H33 C5 0.930 . S
H34 C6 0.930 . S
H35 C7 0.931 . S
H36 C25 0.930 . S
H37 C26 0.930 . S
H38 C27 0.919 1_556 S
H39 C28 0.931 . S
Eu40 C49 2.828 . S
Eu40 O51 2.392 . S
Eu40 O53 2.418 . S
Eu40 O58 2.373 . S
Eu40 O61 2.488 . S
Eu40 O62 2.471 . S
Eu40 O63 2.349 . S
Eu41 O50 2.373 . S
Eu41 O54 2.488 . S
Eu41 O55 2.471 . S
Eu41 O56 2.349 . S
Eu41 O59 2.392 . S
Eu41 O60 2.418 . S
Eu41 C70 2.828 . S
C42 O60 1.244 . S
C42 O63 1.265 . S
C43 C44 1.379 . S
C43 C47 1.373 . S
C43 C49 1.505 . S
C44 C43 1.379 . S
C44 C46 1.369 . S
C44 H72 0.930 . S
C45 C47 1.383 . S
C45 C48 1.382 . S
C45 H73 0.930 . S
C46 C44 1.369 . S
C46 C48 1.392 . S
C46 H74 0.930 . S
C47 C43 1.373 . S
C47 C45 1.383 . S
C47 H75 0.931 . S
C48 C45 1.382 . S
C48 C46 1.392 . S
C49 Eu40 2.828 . S
C49 C43 1.505 . S
C49 O61 1.249 . S
C49 O62 1.244 . S
O50 Eu41 2.373 . S
O50 C52 1.258 . S
O51 Eu40 2.392 . S
O51 C52 1.242 . S
C52 O50 1.258 . S
C52 O51 1.242 . S
O53 Eu40 2.418 . S
O53 C57 1.244 . S
O54 Eu41 2.488 . S
O54 C70 1.249 . S
O55 Eu41 2.471 . S
O55 C70 1.244 . S
O56 Eu41 2.349 . S
O56 C57 1.265 . S
C57 O53 1.244 . S
C57 O56 1.265 . S
O58 Eu40 2.373 . S
O58 C71 1.258 . S
O59 Eu41 2.392 . S
O59 C71 1.242 . S
O60 Eu41 2.418 . S
O60 C42 1.244 . S
O61 Eu40 2.488 . S
O61 C49 1.249 . S
O62 Eu40 2.471 . S
O62 C49 1.244 . S
O63 Eu40 2.349 . S
O63 C42 1.265 . S
C64 C65 1.379 . S
C64 C68 1.373 . S
C64 C70 1.505 . S
C65 C64 1.379 . S
C65 C67 1.369 . S
C65 H76 0.930 . S
C66 C68 1.383 . S
C66 C69 1.382 . S
C66 H77 0.930 . S
C67 C65 1.369 . S
C67 C69 1.392 . S
C67 H78 0.930 . S
C68 C64 1.373 . S
C68 C66 1.383 . S
C68 H79 0.931 . S
C69 C66 1.382 . S
C69 C67 1.392 . S
C70 Eu41 2.828 . S
C70 O54 1.249 . S
C70 O55 1.244 . S
C70 C64 1.505 . S
C71 O58 1.258 . S
C71 O59 1.242 . S
H72 C44 0.930 . S
H73 C45 0.930 . S
H74 C46 0.930 . S
H75 C47 0.931 . S
H76 C65 0.930 . S
H77 C66 0.930 . S
H78 C67 0.930 . S
H79 C68 0.931 . S
Eu80 C89 2.828 1_556 S
Eu80 O91 2.392 . S
Eu80 O93 2.418 . S
Eu80 O98 2.373 . S
Eu80 O101 2.488 1_556 S
Eu80 O102 2.471 1_556 S
Eu80 O103 2.349 . S
Eu81 O90 2.373 . S
Eu81 O94 2.488 . S
Eu81 O95 2.471 . S
Eu81 O96 2.349 . S
Eu81 O99 2.392 . S
Eu81 O100 2.418 . S
Eu81 C110 2.828 . S
C82 O100 1.244 . S
C82 O103 1.265 . S
C83 C84 1.379 . S
C83 C87 1.373 . S
C83 C89 1.505 . S
C84 C83 1.379 . S
C84 C86 1.369 . S
C84 H112 0.930 . S
C85 C87 1.383 . S
C85 C88 1.382 . S
C85 H113 0.930 . S
C86 C84 1.369 . S
C86 C88 1.392 . S
C86 H114 0.930 . S
C87 C83 1.373 . S
C87 C85 1.383 . S
C87 H115 0.931 . S
C88 C85 1.382 . S
C88 C86 1.392 . S
C89 Eu80 2.828 1_554 S
C89 C83 1.505 . S
C89 O101 1.249 . S
C89 O102 1.244 . S
O90 Eu81 2.373 . S
O90 C92 1.258 . S
O91 Eu80 2.392 . S
O91 C92 1.242 . S
C92 O90 1.258 . S
C92 O91 1.242 . S
O93 Eu80 2.418 . S
O93 C97 1.244 . S
O94 Eu81 2.488 . S
O94 C110 1.249 . S
O95 Eu81 2.471 . S
O95 C110 1.244 . S
O96 Eu81 2.349 . S
O96 C97 1.265 . S
C97 O93 1.244 . S
C97 O96 1.265 . S
O98 Eu80 2.373 . S
O98 C111 1.258 . S
O99 Eu81 2.392 . S
O99 C111 1.242 . S
O100 Eu81 2.418 . S
O100 C82 1.244 . S
O101 Eu80 2.488 1_554 S
O101 C89 1.249 . S
O102 Eu80 2.471 1_554 S
O102 C89 1.244 . S
O103 Eu80 2.349 . S
O103 C82 1.265 . S
C104 C105 1.379 . S
C104 C108 1.373 . S
C104 C110 1.505 . S
C105 C104 1.379 . S
C105 C107 1.369 . S
C105 H116 0.930 . S
C106 C108 1.383 . S
C106 C109 1.382 . S
C106 H117 0.930 . S
C107 C105 1.369 . S
C107 C109 1.392 . S
C107 H118 0.930 . S
C108 C104 1.373 . S
C108 C106 1.383 . S
C108 H119 0.931 . S
C109 C106 1.382 . S
C109 C107 1.392 . S
C110 Eu81 2.828 . S
C110 O94 1.249 . S
C110 O95 1.244 . S
C110 C104 1.505 . S
C111 O98 1.258 . S
C111 O99 1.242 . S
H112 C84 0.930 . S
H113 C85 0.930 . S
H114 C86 0.930 . S
H115 C87 0.931 . S
H116 C105 0.930 . S
H117 C106 0.930 . S
H118 C107 0.930 . S
H119 C108 0.931 . S
Eu120 C129 2.828 . S
Eu120 O131 2.392 . S
Eu120 O133 2.418 . S
Eu120 O138 2.373 . S
Eu120 O141 2.488 . S
Eu120 O142 2.471 . S
Eu120 O143 2.349 . S
Eu121 O130 2.373 . S
Eu121 O134 2.488 . S
Eu121 O135 2.471 . S
Eu121 O136 2.349 . S
Eu121 O139 2.392 . S
Eu121 O140 2.418 . S
Eu121 C150 2.828 . S
C122 O140 1.244 . S
C122 O143 1.265 . S
C123 C124 1.379 . S
C123 C127 1.373 . S
C123 C129 1.505 . S
C124 C123 1.379 . S
C124 C126 1.369 . S
C124 H152 0.930 . S
C125 C127 1.383 . S
C125 C128 1.382 . S
C125 H153 0.930 . S
C126 C124 1.369 . S
C126 C128 1.392 . S
C126 H154 0.930 . S
C127 C123 1.373 . S
C127 C125 1.383 . S
C127 H155 0.931 . S
C128 C125 1.382 . S
C128 C126 1.392 . S
C129 Eu120 2.828 . S
C129 C123 1.505 . S
C129 O141 1.249 . S
C129 O142 1.244 . S
O130 Eu121 2.373 . S
O130 C132 1.258 . S
O131 Eu120 2.392 . S
O131 C132 1.242 . S
C132 O130 1.258 . S
C132 O131 1.242 . S
O133 Eu120 2.418 . S
O133 C137 1.244 . S
O134 Eu121 2.488 . S
O134 C150 1.249 . S
O135 Eu121 2.471 . S
O135 C150 1.244 . S
O136 Eu121 2.349 . S
O136 C137 1.265 . S
C137 O133 1.244 . S
C137 O136 1.265 . S
O138 Eu120 2.373 . S
O138 C151 1.258 . S
O139 Eu121 2.392 . S
O139 C151 1.242 . S
O140 Eu121 2.418 . S
O140 C122 1.244 . S
O141 Eu120 2.488 . S
O141 C129 1.249 . S
O142 Eu120 2.471 . S
O142 C129 1.244 . S
O143 Eu120 2.349 . S
O143 C122 1.265 . S
C144 C145 1.379 . S
C144 C148 1.373 . S
C144 C150 1.505 . S
C145 C144 1.379 . S
C145 C147 1.369 . S
C145 H156 0.930 . S
C146 C148 1.383 . S
C146 C149 1.382 1_554 S
C146 H157 0.930 . S
C147 C145 1.369 . S
C147 C149 1.392 1_554 S
C147 H158 0.919 1_554 S
C148 C144 1.373 . S
C148 C146 1.383 . S
C148 H159 0.931 . S
C149 C146 1.382 1_556 S
C149 C147 1.392 1_556 S
C150 Eu121 2.828 . S
C150 O134 1.249 . S
C150 O135 1.244 . S
C150 C144 1.505 . S
C151 O138 1.258 . S
C151 O139 1.242 . S
H152 C124 0.930 . S
H153 C125 0.930 . S
H154 C126 0.930 . S
H155 C127 0.931 . S
H156 C145 0.930 . S
H157 C146 0.930 . S
H158 C147 0.919 1_556 S
H159 C148 0.931 . S
Eu160 C169 2.828 . S
Eu160 O171 2.392 . S
Eu160 O173 2.418 . S
Eu160 O178 2.373 . S
Eu160 O181 2.488 . S
Eu160 O182 2.471 . S
Eu160 O183 2.349 . S
Eu161 O170 2.373 . S
Eu161 O174 2.488 . S
Eu161 O175 2.471 . S
Eu161 O176 2.349 . S
Eu161 O179 2.392 . S
Eu161 O180 2.418 . S
Eu161 C190 2.828 . S
C162 O180 1.244 . S
C162 O183 1.265 . S
C163 C164 1.379 . S
C163 C167 1.373 . S
C163 C169 1.505 . S
C164 C163 1.379 . S
C164 C166 1.369 . S
C164 H192 0.930 . S
C165 C167 1.383 . S
C165 C168 1.382 . S
C165 H193 0.930 . S
C166 C164 1.369 . S
C166 C168 1.392 . S
C166 H194 0.930 . S
C167 C163 1.373 . S
C167 C165 1.383 . S
C167 H195 0.931 . S
C168 C165 1.382 . S
C168 C166 1.392 . S
C169 Eu160 2.828 . S
C169 C163 1.505 . S
C169 O181 1.249 . S
C169 O182 1.244 . S
O170 Eu161 2.373 . S
O170 C172 1.258 . S
O171 Eu160 2.392 . S
O171 C172 1.242 . S
C172 O170 1.258 . S
C172 O171 1.242 . S
O173 Eu160 2.418 . S
O173 C177 1.244 . S
O174 Eu161 2.488 . S
O174 C190 1.249 . S
O175 Eu161 2.471 . S
O175 C190 1.244 . S
O176 Eu161 2.349 . S
O176 C177 1.265 . S
C177 O173 1.244 . S
C177 O176 1.265 . S
O178 Eu160 2.373 . S
O178 C191 1.258 . S
O179 Eu161 2.392 . S
O179 C191 1.242 . S
O180 Eu161 2.418 . S
O180 C162 1.244 . S
O181 Eu160 2.488 . S
O181 C169 1.249 . S
O182 Eu160 2.471 . S
O182 C169 1.244 . S
O183 Eu160 2.349 . S
O183 C162 1.265 . S
C184 C185 1.379 . S
C184 C188 1.373 . S
C184 C190 1.505 . S
C185 C184 1.379 . S
C185 C187 1.369 . S
C185 H196 0.930 . S
C186 C188 1.383 . S
C186 C189 1.382 . S
C186 H197 0.930 . S
C187 C185 1.369 . S
C187 C189 1.392 . S
C187 H198 0.930 . S
C188 C184 1.373 . S
C188 C186 1.383 . S
C188 H199 0.931 . S
C189 C186 1.382 . S
C189 C187 1.392 . S
C190 Eu161 2.828 . S
C190 O174 1.249 . S
C190 O175 1.244 . S
C190 C184 1.505 . S
C191 O178 1.258 . S
C191 O179 1.242 . S
H192 C164 0.930 . S
H193 C165 0.930 . S
H194 C166 0.930 . S
H195 C167 0.931 . S
H196 C185 0.930 . S
H197 C186 0.930 . S
H198 C187 0.930 . S
H199 C188 0.931 . S
Eu200 C209 2.828 1_556 S
Eu200 O211 2.392 . S
Eu200 O213 2.418 . S
Eu200 O218 2.373 . S
Eu200 O221 2.488 1_556 S
Eu200 O222 2.471 1_556 S
Eu200 O223 2.349 . S
Eu201 O210 2.373 . S
Eu201 O214 2.488 . S
Eu201 O215 2.471 . S
Eu201 O216 2.349 . S
Eu201 O219 2.392 . S
Eu201 O220 2.418 . S
Eu201 C230 2.828 . S
C202 O220 1.244 . S
C202 O223 1.265 . S
C203 C204 1.379 . S
C203 C207 1.373 . S
C203 C209 1.505 . S
C204 C203 1.379 . S
C204 C206 1.369 . S
C204 H232 0.930 . S
C205 C207 1.383 . S
C205 C208 1.382 . S
C205 H233 0.930 . S
C206 C204 1.369 . S
C206 C208 1.392 . S
C206 H234 0.930 . S
C207 C203 1.373 . S
C207 C205 1.383 . S
C207 H235 0.931 . S
C208 C205 1.382 . S
C208 C206 1.392 . S
C209 Eu200 2.828 1_554 S
C209 C203 1.505 . S
C209 O221 1.249 . S
C209 O222 1.244 . S
O210 Eu201 2.373 . S
O210 C212 1.258 . S
O211 Eu200 2.392 . S
O211 C212 1.242 . S
C212 O210 1.258 . S
C212 O211 1.242 . S
O213 Eu200 2.418 . S
O213 C217 1.244 . S
O214 Eu201 2.488 . S
O214 C230 1.249 . S
O215 Eu201 2.471 . S
O215 C230 1.244 . S
O216 Eu201 2.349 . S
O216 C217 1.265 . S
C217 O213 1.244 . S
C217 O216 1.265 . S
O218 Eu200 2.373 . S
O218 C231 1.258 . S
O219 Eu201 2.392 . S
O219 C231 1.242 . S
O220 Eu201 2.418 . S
O220 C202 1.244 . S
O221 Eu200 2.488 1_554 S
O221 C209 1.249 . S
O222 Eu200 2.471 1_554 S
O222 C209 1.244 . S
O223 Eu200 2.349 . S
O223 C202 1.265 . S
C224 C225 1.379 . S
C224 C228 1.373 . S
C224 C230 1.505 . S
C225 C224 1.379 . S
C225 C227 1.369 . S
C225 H236 0.930 . S
C226 C228 1.383 . S
C226 C229 1.382 . S
C226 H237 0.930 . S
C227 C225 1.369 . S
C227 C229 1.392 . S
C227 H238 0.930 . S
C228 C224 1.373 . S
C228 C226 1.383 . S
C228 H239 0.931 . S
C229 C226 1.382 . S
C229 C227 1.392 . S
C230 Eu201 2.828 . S
C230 O214 1.249 . S
C230 O215 1.244 . S
C230 C224 1.505 . S
C231 O218 1.258 . S
C231 O219 1.242 . S
H232 C204 0.930 . S
H233 C205 0.930 . S
H234 C206 0.930 . S
H235 C207 0.931 . S
H236 C225 0.930 . S
H237 C226 0.930 . S
H238 C227 0.930 . S
H239 C228 0.931 . S
Eu240 C249 2.828 . S
Eu240 O251 2.392 . S
Eu240 O253 2.418 . S
Eu240 O258 2.373 . S
Eu240 O261 2.488 . S
Eu240 O262 2.471 . S
Eu240 O263 2.349 . S
Eu241 O250 2.373 . S
Eu241 O254 2.488 . S
Eu241 O255 2.471 . S
Eu241 O256 2.349 . S
Eu241 O259 2.392 . S
Eu241 O260 2.418 . S
Eu241 C270 2.828 . S
C242 O260 1.244 . S
C242 O263 1.265 . S
C243 C244 1.379 . S
C243 C247 1.373 . S
C243 C249 1.505 . S
C244 C243 1.379 . S
C244 C246 1.369 . S
C244 H272 0.930 . S
C245 C247 1.383 . S
C245 C248 1.382 . S
C245 H273 0.930 . S
C246 C244 1.369 . S
C246 C248 1.392 . S
C246 H274 0.930 . S
C247 C243 1.373 . S
C247 C245 1.383 . S
C247 H275 0.931 . S
C248 C245 1.382 . S
C248 C246 1.392 . S
C249 Eu240 2.828 . S
C249 C243 1.505 . S
C249 O261 1.249 . S
C249 O262 1.244 . S
O250 Eu241 2.373 . S
O250 C252 1.258 . S
O251 Eu240 2.392 . S
O251 C252 1.242 . S
C252 O250 1.258 . S
C252 O251 1.242 . S
O253 Eu240 2.418 . S
O253 C257 1.244 . S
O254 Eu241 2.488 . S
O254 C270 1.249 . S
O255 Eu241 2.471 . S
O255 C270 1.244 . S
O256 Eu241 2.349 . S
O256 C257 1.265 . S
C257 O253 1.244 . S
C257 O256 1.265 . S
O258 Eu240 2.373 . S
O258 C271 1.258 . S
O259 Eu241 2.392 . S
O259 C271 1.242 . S
O260 Eu241 2.418 . S
O260 C242 1.244 . S
O261 Eu240 2.488 . S
O261 C249 1.249 . S
O262 Eu240 2.471 . S
O262 C249 1.244 . S
O263 Eu240 2.349 . S
O263 C242 1.265 . S
C264 C265 1.379 . S
C264 C268 1.373 . S
C264 C270 1.505 . S
C265 C264 1.379 . S
C265 C267 1.369 . S
C265 H276 0.930 . S
C266 C268 1.383 . S
C266 C269 1.382 . S
C266 H277 0.930 . S
C267 C265 1.369 . S
C267 C269 1.392 . S
C267 H278 0.930 . S
C268 C264 1.373 . S
C268 C266 1.383 . S
C268 H279 0.931 . S
C269 C266 1.382 . S
C269 C267 1.392 . S
C270 Eu241 2.828 . S
C270 O254 1.249 . S
C270 O255 1.244 . S
C270 C264 1.505 . S
C271 O258 1.258 . S
C271 O259 1.242 . S
H272 C244 0.930 . S
H273 C245 0.930 . S
H274 C246 0.930 . S
H275 C247 0.931 . S
H276 C265 0.930 . S
H277 C266 0.930 . S
H278 C267 0.930 . S
H279 C268 0.931 . S
Eu280 C289 2.828 . S
Eu280 O291 2.392 . S
Eu280 O293 2.418 . S
Eu280 O298 2.373 . S
Eu280 O301 2.488 . S
Eu280 O302 2.471 . S
Eu280 O303 2.349 . S
Eu281 O290 2.373 . S
Eu281 O294 2.488 . S
Eu281 O295 2.471 . S
Eu281 O296 2.349 . S
Eu281 O299 2.392 . S
Eu281 O300 2.418 . S
Eu281 C310 2.828 . S
C282 O300 1.244 . S
C282 O303 1.265 . S
C283 C284 1.379 . S
C283 C287 1.373 . S
C283 C289 1.505 . S
C284 C283 1.379 . S
C284 C286 1.369 . S
C284 H312 0.930 . S
C285 C287 1.383 . S
C285 C288 1.382 . S
C285 H313 0.930 . S
C286 C284 1.369 . S
C286 C288 1.392 . S
C286 H314 0.930 . S
C287 C283 1.373 . S
C287 C285 1.383 . S
C287 H315 0.931 . S
C288 C285 1.382 . S
C288 C286 1.392 . S
C289 Eu280 2.828 . S
C289 C283 1.505 . S
C289 O301 1.249 . S
C289 O302 1.244 . S
O290 Eu281 2.373 . S
O290 C292 1.258 . S
O291 Eu280 2.392 . S
O291 C292 1.242 . S
C292 O290 1.258 . S
C292 O291 1.242 . S
O293 Eu280 2.418 . S
O293 C297 1.244 . S
O294 Eu281 2.488 . S
O294 C310 1.249 . S
O295 Eu281 2.471 . S
O295 C310 1.244 . S
O296 Eu281 2.349 . S
O296 C297 1.265 . S
C297 O293 1.244 . S
C297 O296 1.265 . S
O298 Eu280 2.373 . S
O298 C311 1.258 . S
O299 Eu281 2.392 . S
O299 C311 1.242 . S
O300 Eu281 2.418 . S
O300 C282 1.244 . S
O301 Eu280 2.488 . S
O301 C289 1.249 . S
O302 Eu280 2.471 . S
O302 C289 1.244 . S
O303 Eu280 2.349 . S
O303 C282 1.265 . S
C304 C305 1.379 . S
C304 C308 1.373 . S
C304 C310 1.505 . S
C305 C304 1.379 . S
C305 C307 1.369 . S
C305 H316 0.930 . S
C306 C308 1.383 . S
C306 C309 1.382 1_556 S
C306 H317 0.930 . S
C307 C305 1.369 . S
C307 C309 1.392 1_556 S
C307 H318 0.920 1_556 S
C308 C304 1.373 . S
C308 C306 1.383 . S
C308 H319 0.931 . S
C309 C306 1.382 1_554 S
C309 C307 1.392 1_554 S
C310 Eu281 2.828 . S
C310 O294 1.249 . S
C310 O295 1.244 . S
C310 C304 1.505 . S
C311 O298 1.258 . S
C311 O299 1.242 . S
H312 C284 0.930 . S
H313 C285 0.930 . S
H314 C286 0.930 . S
H315 C287 0.931 . S
H316 C305 0.930 . S
H317 C306 0.930 . S
H318 C307 0.920 1_554 S
H319 C308 0.931 . S
Eu320 C329 2.828 1_554 S
Eu320 O331 2.392 . S
Eu320 O333 2.418 . S
Eu320 O338 2.373 . S
Eu320 O341 2.488 1_554 S
Eu320 O342 2.471 1_554 S
Eu320 O343 2.349 . S
Eu321 O330 2.373 . S
Eu321 O334 2.488 . S
Eu321 O335 2.471 . S
Eu321 O336 2.349 . S
Eu321 O339 2.392 . S
Eu321 O340 2.418 . S
Eu321 C350 2.828 . S
C322 O340 1.244 . S
C322 O343 1.265 . S
C323 C324 1.379 . S
C323 C327 1.373 . S
C323 C329 1.505 . S
C324 C323 1.379 . S
C324 C326 1.369 . S
C324 H352 0.930 . S
C325 C327 1.383 . S
C325 C328 1.382 . S
C325 H353 0.930 . S
C326 C324 1.369 . S
C326 C328 1.392 . S
C326 H354 0.930 . S
C327 C323 1.373 . S
C327 C325 1.383 . S
C327 H355 0.931 . S
C328 C325 1.382 . S
C328 C326 1.392 . S
C329 Eu320 2.828 1_556 S
C329 C323 1.505 . S
C329 O341 1.249 . S
C329 O342 1.244 . S
O330 Eu321 2.373 . S
O330 C332 1.258 . S
O331 Eu320 2.392 . S
O331 C332 1.242 . S
C332 O330 1.258 . S
C332 O331 1.242 . S
O333 Eu320 2.418 . S
O333 C337 1.244 . S
O334 Eu321 2.488 . S
O334 C350 1.249 . S
O335 Eu321 2.471 . S
O335 C350 1.244 . S
O336 Eu321 2.349 . S
O336 C337 1.265 . S
C337 O333 1.244 . S
C337 O336 1.265 . S
O338 Eu320 2.373 . S
O338 C351 1.258 . S
O339 Eu321 2.392 . S
O339 C351 1.242 . S
O340 Eu321 2.418 . S
O340 C322 1.244 . S
O341 Eu320 2.488 1_556 S
O341 C329 1.249 . S
O342 Eu320 2.471 1_556 S
O342 C329 1.244 . S
O343 Eu320 2.349 . S
O343 C322 1.265 . S
C344 C345 1.379 . S
C344 C348 1.373 . S
C344 C350 1.505 . S
C345 C344 1.379 . S
C345 C347 1.369 . S
C345 H356 0.930 . S
C346 C348 1.383 . S
C346 C349 1.382 . S
C346 H357 0.930 . S
C347 C345 1.369 . S
C347 C349 1.392 . S
C347 H358 0.930 . S
C348 C344 1.373 . S
C348 C346 1.383 . S
C348 H359 0.931 . S
C349 C346 1.382 . S
C349 C347 1.392 . S
C350 Eu321 2.828 . S
C350 O334 1.249 . S
C350 O335 1.244 . S
C350 C344 1.505 . S
C351 O338 1.258 . S
C351 O339 1.242 . S
H352 C324 0.930 . S
H353 C325 0.930 . S
H354 C326 0.930 . S
H355 C327 0.931 . S
H356 C345 0.930 . S
H357 C346 0.930 . S
H358 C347 0.930 . S
H359 C348 0.931 . S
Eu360 C369 2.828 . S
Eu360 O371 2.392 . S
Eu360 O373 2.418 . S
Eu360 O378 2.373 . S
Eu360 O381 2.488 . S
Eu360 O382 2.471 . S
Eu360 O383 2.349 . S
Eu361 O370 2.373 . S
Eu361 O374 2.488 . S
Eu361 O375 2.471 . S
Eu361 O376 2.349 . S
Eu361 O379 2.392 . S
Eu361 O380 2.418 . S
Eu361 C390 2.828 . S
C362 O380 1.244 . S
C362 O383 1.265 . S
C363 C364 1.379 . S
C363 C367 1.373 . S
C363 C369 1.505 . S
C364 C363 1.379 . S
C364 C366 1.369 . S
C364 H392 0.930 . S
C365 C367 1.383 . S
C365 C368 1.382 . S
C365 H393 0.930 . S
C366 C364 1.369 . S
C366 C368 1.392 . S
C366 H394 0.930 . S
C367 C363 1.373 . S
C367 C365 1.383 . S
C367 H395 0.931 . S
C368 C365 1.382 . S
C368 C366 1.392 . S
C369 Eu360 2.828 . S
C369 C363 1.505 . S
C369 O381 1.249 . S
C369 O382 1.244 . S
O370 Eu361 2.373 . S
O370 C372 1.258 . S
O371 Eu360 2.392 . S
O371 C372 1.242 . S
C372 O370 1.258 . S
C372 O371 1.242 . S
O373 Eu360 2.418 . S
O373 C377 1.244 . S
O374 Eu361 2.488 . S
O374 C390 1.249 . S
O375 Eu361 2.471 . S
O375 C390 1.244 . S
O376 Eu361 2.349 . S
O376 C377 1.265 . S
C377 O373 1.244 . S
C377 O376 1.265 . S
O378 Eu360 2.373 . S
O378 C391 1.258 . S
O379 Eu361 2.392 . S
O379 C391 1.242 . S
O380 Eu361 2.418 . S
O380 C362 1.244 . S
O381 Eu360 2.488 . S
O381 C369 1.249 . S
O382 Eu360 2.471 . S
O382 C369 1.244 . S
O383 Eu360 2.349 . S
O383 C362 1.265 . S
C384 C385 1.379 . S
C384 C388 1.373 . S
C384 C390 1.505 . S
C385 C384 1.379 . S
C385 C387 1.369 . S
C385 H396 0.930 . S
C386 C388 1.383 . S
C386 C389 1.382 . S
C386 H397 0.930 . S
C387 C385 1.369 . S
C387 C389 1.392 . S
C387 H398 0.930 . S
C388 C384 1.373 . S
C388 C386 1.383 . S
C388 H399 0.931 . S
C389 C386 1.382 . S
C389 C387 1.392 . S
C390 Eu361 2.828 . S
C390 O374 1.249 . S
C390 O375 1.244 . S
C390 C384 1.505 . S
C391 O378 1.258 . S
C391 O379 1.242 . S
H392 C364 0.930 . S
H393 C365 0.930 . S
H394 C366 0.930 . S
H395 C367 0.931 . S
H396 C385 0.930 . S
H397 C386 0.930 . S
H398 C387 0.930 . S
H399 C388 0.931 . S
Eu400 C409 2.828 . S
Eu400 O411 2.392 . S
Eu400 O413 2.418 . S
Eu400 O418 2.373 . S
Eu400 O421 2.488 . S
Eu400 O422 2.471 . S
Eu400 O423 2.349 . S
Eu401 O410 2.373 . S
Eu401 O414 2.488 . S
Eu401 O415 2.471 . S
Eu401 O416 2.349 . S
Eu401 O419 2.392 . S
Eu401 O420 2.418 . S
Eu401 C430 2.828 . S
C402 O420 1.244 . S
C402 O423 1.265 . S
C403 C404 1.379 . S
C403 C407 1.373 . S
C403 C409 1.505 . S
C404 C403 1.379 . S
C404 C406 1.369 . S
C404 H432 0.930 . S
C405 C407 1.383 . S
C405 C408 1.382 . S
C405 H433 0.930 . S
C406 C404 1.369 . S
C406 C408 1.392 . S
C406 H434 0.930 . S
C407 C403 1.373 . S
C407 C405 1.383 . S
C407 H435 0.931 . S
C408 C405 1.382 . S
C408 C406 1.392 . S
C409 Eu400 2.828 . S
C409 C403 1.505 . S
C409 O421 1.249 . S
C409 O422 1.244 . S
O410 Eu401 2.373 . S
O410 C412 1.258 . S
O411 Eu400 2.392 . S
O411 C412 1.242 . S
C412 O410 1.258 . S
C412 O411 1.242 . S
O413 Eu400 2.418 . S
O413 C417 1.244 . S
O414 Eu401 2.488 . S
O414 C430 1.249 . S
O415 Eu401 2.471 . S
O415 C430 1.244 . S
O416 Eu401 2.349 . S
O416 C417 1.265 . S
C417 O413 1.244 . S
C417 O416 1.265 . S
O418 Eu400 2.373 . S
O418 C431 1.258 . S
O419 Eu401 2.392 . S
O419 C431 1.242 . S
O420 Eu401 2.418 . S
O420 C402 1.244 . S
O421 Eu400 2.488 . S
O421 C409 1.249 . S
O422 Eu400 2.471 . S
O422 C409 1.244 . S
O423 Eu400 2.349 . S
O423 C402 1.265 . S
C424 C425 1.379 . S
C424 C428 1.373 . S
C424 C430 1.505 . S
C425 C424 1.379 . S
C425 C427 1.369 . S
C425 H436 0.930 . S
C426 C428 1.383 . S
C426 C429 1.382 1_556 S
C426 H437 0.930 . S
C427 C425 1.369 . S
C427 C429 1.392 1_556 S
C427 H438 0.920 1_556 S
C428 C424 1.373 . S
C428 C426 1.383 . S
C428 H439 0.931 . S
C429 C426 1.382 1_554 S
C429 C427 1.392 1_554 S
C430 Eu401 2.828 . S
C430 O414 1.249 . S
C430 O415 1.244 . S
C430 C424 1.505 . S
C431 O418 1.258 . S
C431 O419 1.242 . S
H432 C404 0.930 . S
H433 C405 0.930 . S
H434 C406 0.930 . S
H435 C407 0.931 . S
H436 C425 0.930 . S
H437 C426 0.930 . S
H438 C427 0.920 1_554 S
H439 C428 0.931 . S
Eu440 C449 2.828 1_554 S
Eu440 O451 2.392 . S
Eu440 O453 2.418 . S
Eu440 O458 2.373 . S
Eu440 O461 2.488 1_554 S
Eu440 O462 2.471 1_554 S
Eu440 O463 2.349 . S
Eu441 O450 2.373 . S
Eu441 O454 2.488 . S
Eu441 O455 2.471 . S
Eu441 O456 2.349 . S
Eu441 O459 2.392 . S
Eu441 O460 2.418 . S
Eu441 C470 2.828 . S
C442 O460 1.244 . S
C442 O463 1.265 . S
C443 C444 1.379 . S
C443 C447 1.373 . S
C443 C449 1.505 . S
C444 C443 1.379 . S
C444 C446 1.369 . S
C444 H472 0.930 . S
C445 C447 1.383 . S
C445 C448 1.382 . S
C445 H473 0.930 . S
C446 C444 1.369 . S
C446 C448 1.392 . S
C446 H474 0.930 . S
C447 C443 1.373 . S
C447 C445 1.383 . S
C447 H475 0.931 . S
C448 C445 1.382 . S
C448 C446 1.392 . S
C449 Eu440 2.828 1_556 S
C449 C443 1.505 . S
C449 O461 1.249 . S
C449 O462 1.244 . S
O450 Eu441 2.373 . S
O450 C452 1.258 . S
O451 Eu440 2.392 . S
O451 C452 1.242 . S
C452 O450 1.258 . S
C452 O451 1.242 . S
O453 Eu440 2.418 . S
O453 C457 1.244 . S
O454 Eu441 2.488 . S
O454 C470 1.249 . S
O455 Eu441 2.471 . S
O455 C470 1.244 . S
O456 Eu441 2.349 . S
O456 C457 1.265 . S
C457 O453 1.244 . S
C457 O456 1.265 . S
O458 Eu440 2.373 . S
O458 C471 1.258 . S
O459 Eu441 2.392 . S
O459 C471 1.242 . S
O460 Eu441 2.418 . S
O460 C442 1.244 . S
O461 Eu440 2.488 1_556 S
O461 C449 1.249 . S
O462 Eu440 2.471 1_556 S
O462 C449 1.244 . S
O463 Eu440 2.349 . S
O463 C442 1.265 . S
C464 C465 1.379 . S
C464 C468 1.373 . S
C464 C470 1.505 . S
C465 C464 1.379 . S
C465 C467 1.369 . S
C465 H476 0.930 . S
C466 C468 1.383 . S
C466 C469 1.382 . S
C466 H477 0.930 . S
C467 C465 1.369 . S
C467 C469 1.392 . S
C467 H478 0.930 . S
C468 C464 1.373 . S
C468 C466 1.383 . S
C468 H479 0.931 . S
C469 C466 1.382 . S
C469 C467 1.392 . S
C470 Eu441 2.828 . S
C470 O454 1.249 . S
C470 O455 1.244 . S
C470 C464 1.505 . S
C471 O458 1.258 . S
C471 O459 1.242 . S
H472 C444 0.930 . S
H473 C445 0.930 . S
H474 C446 0.930 . S
H475 C447 0.931 . S
H476 C465 0.930 . S
H477 C466 0.930 . S
H478 C467 0.930 . S
H479 C468 0.931 . S
C480 C481 1.387 . S
C480 H484 0.950 . S
C480 C489 1.390 . S
C481 C480 1.387 . S
C481 C483 1.387 . S
H482 C489 0.950 . S
C483 C481 1.387 . S
C483 C485 1.390 . S
C483 H487 0.950 . S
H484 C480 0.950 . S
C485 C483 1.390 . S
C485 C486 1.387 . S
C485 H488 0.950 . S
C486 C485 1.387 . S
C486 C489 1.387 . S
H487 C483 0.950 . S
H488 C485 0.950 . S
C489 C480 1.390 . S
C489 H482 0.950 . S
C489 C486 1.387 . S
C490 C491 1.387 . S
C490 H494 0.950 . S
C490 C499 1.390 . S
C491 C490 1.387 . S
C491 C493 1.387 . S
H492 C499 0.950 . S
C493 C491 1.387 . S
C493 C495 1.390 . S
C493 H497 0.950 . S
H494 C490 0.950 . S
C495 C493 1.390 . S
C495 C496 1.387 . S
C495 H498 0.950 . S
C496 C495 1.387 . S
C496 C499 1.387 . S
H497 C493 0.950 . S
H498 C495 0.950 . S
C499 C490 1.390 . S
C499 H492 0.950 . S
C499 C496 1.387 . S
C500 C501 1.387 . S
C500 H504 0.950 . S
C500 C509 1.390 . S
C501 C500 1.387 . S
C501 C503 1.387 . S
H502 C509 0.950 . S
C503 C501 1.387 . S
C503 C505 1.390 . S
C503 H507 0.950 . S
H504 C500 0.950 . S
C505 C503 1.390 . S
C505 C506 1.387 . S
C505 H508 0.950 . S
C506 C505 1.387 . S
C506 C509 1.387 . S
H507 C503 0.950 . S
H508 C505 0.950 . S
C509 C500 1.390 . S
C509 H502 0.950 . S
C509 C506 1.387 . S
C510 C511 1.387 . S
C510 H514 0.950 . S
C510 C519 1.390 . S
C511 C510 1.387 . S
C511 C513 1.387 . S
H512 C519 0.950 . S
C513 C511 1.387 . S
C513 C515 1.390 . S
C513 H517 0.950 . S
H514 C510 0.950 . S
C515 C513 1.390 . S
C515 C516 1.387 . S
C515 H518 0.950 . S
C516 C515 1.387 . S
C516 C519 1.387 . S
H517 C513 0.950 . S
H518 C515 0.950 . S
C519 C510 1.390 . S
C519 H512 0.950 . S
C519 C516 1.387 . S
C520 C521 1.387 . S
C520 H524 0.950 . S
C520 C529 1.390 . S
C521 C520 1.387 . S
C521 C523 1.387 . S
H522 C529 0.950 . S
C523 C521 1.387 . S
C523 C525 1.390 . S
C523 H527 0.950 . S
H524 C520 0.950 . S
C525 C523 1.390 . S
C525 C526 1.387 . S
C525 H528 0.950 . S
C526 C525 1.387 . S
C526 C529 1.387 . S
H527 C523 0.950 . S
H528 C525 0.950 . S
C529 C520 1.390 . S
C529 H522 0.950 . S
C529 C526 1.387 . S
C530 C531 1.387 . S
C530 H534 0.950 . S
C530 C539 1.390 . S
C531 C530 1.387 . S
C531 C533 1.387 . S
H532 C539 0.950 . S
C533 C531 1.387 . S
C533 C535 1.390 . S
C533 H537 0.950 . S
H534 C530 0.950 . S
C535 C533 1.390 . S
C535 C536 1.387 . S
C535 H538 0.950 . S
C536 C535 1.387 . S
C536 C539 1.387 . S
H537 C533 0.950 . S
H538 C535 0.950 . S
C539 C530 1.390 . S
C539 H532 0.950 . S
C539 C536 1.387 . S
C540 C541 1.387 . S
C540 H544 0.950 . S
C540 C549 1.390 1_554 S
C541 C540 1.387 . S
C541 C543 1.387 . S
H542 C549 0.950 . S
C543 C541 1.387 . S
C543 C545 1.390 1_554 S
C543 H547 0.950 . S
H544 C540 0.950 . S
C545 C543 1.390 1_556 S
C545 C546 1.387 . S
C545 H548 0.950 . S
C546 C545 1.387 . S
C546 C549 1.387 . S
H547 C543 0.950 . S
H548 C545 0.950 . S
C549 C540 1.390 1_556 S
C549 H542 0.950 . S
C549 C546 1.387 . S
C550 C551 1.387 . S
C550 H554 0.950 . S
C550 C559 1.390 . S
C551 C550 1.387 . S
C551 C553 1.387 . S
H552 C559 0.950 . S
C553 C551 1.387 . S
C553 C555 1.390 . S
C553 H557 0.950 . S
H554 C550 0.950 . S
C555 C553 1.390 . S
C555 C556 1.387 . S
C555 H558 0.950 . S
C556 C555 1.387 . S
C556 C559 1.387 . S
H557 C553 0.950 . S
H558 C555 0.950 . S
C559 C550 1.390 . S
C559 H552 0.950 . S
C559 C556 1.387 . S
C560 C561 1.387 . S
C560 H564 0.950 . S
C560 C569 1.390 . S
C561 C560 1.387 . S
C561 C563 1.387 . S
H562 C569 0.950 . S
C563 C561 1.387 . S
C563 C565 1.390 . S
C563 H567 0.950 . S
H564 C560 0.950 . S
C565 C563 1.390 . S
C565 C566 1.387 . S
C565 H568 0.950 . S
C566 C565 1.387 . S
C566 C569 1.387 . S
H567 C563 0.950 . S
H568 C565 0.950 . S
C569 C560 1.390 . S
C569 H562 0.950 . S
C569 C566 1.387 . S
C570 C571 1.387 . S
C570 H574 0.950 . S
C570 C579 1.390 1_554 S
C571 C570 1.387 . S
C571 C573 1.387 . S
H572 C579 0.950 . S
C573 C571 1.387 . S
C573 C575 1.390 1_554 S
C573 H577 0.950 . S
H574 C570 0.950 . S
C575 C573 1.390 1_556 S
C575 C576 1.387 . S
C575 H578 0.950 . S
C576 C575 1.387 . S
C576 C579 1.387 . S
H577 C573 0.950 . S
H578 C575 0.950 . S
C579 C570 1.390 1_556 S
C579 H572 0.950 . S
C579 C576 1.387 . S
C580 C581 1.387 . S
C580 H584 0.950 . S
C580 C589 1.390 . S
C581 C580 1.387 . S
C581 C583 1.387 . S
H582 C589 0.950 . S
C583 C581 1.387 . S
C583 C585 1.390 . S
C583 H587 0.950 . S
H584 C580 0.950 . S
C585 C583 1.390 . S
C585 C586 1.387 . S
C585 H588 0.950 . S
C586 C585 1.387 . S
C586 C589 1.387 . S
H587 C583 0.950 . S
H588 C585 0.950 . S
C589 C580 1.390 . S
C589 H582 0.950 . S
C589 C586 1.387 . S
C590 C591 1.387 . S
C590 H594 0.950 . S
C590 C599 1.390 . S
C591 C590 1.387 . S
C591 C593 1.387 . S
H592 C599 0.950 . S
C593 C591 1.387 . S
C593 C595 1.390 . S
C593 H597 0.950 . S
H594 C590 0.950 . S
C595 C593 1.390 . S
C595 C596 1.387 . S
C595 H598 0.950 . S
C596 C595 1.387 . S
C596 C599 1.387 . S
H597 C593 0.950 . S
H598 C595 0.950 . S
C599 C590 1.390 . S
C599 H592 0.950 . S
C599 C596 1.387 . S
C600 C601 1.387 . S
C600 H604 0.950 . S
C600 C609 1.390 1_566 S
C601 C600 1.387 . S
C601 C603 1.387 . S
H602 C609 0.950 . S
C603 C601 1.387 . S
C603 C605 1.390 1_566 S
C603 H607 0.950 . S
H604 C600 0.950 . S
C605 C603 1.390 1_544 S
C605 C606 1.387 . S
C605 H608 0.950 . S
C606 C605 1.387 . S
C606 C609 1.387 . S
H607 C603 0.950 . S
H608 C605 0.950 . S
C609 C600 1.390 1_544 S
C609 H602 0.950 . S
C609 C606 1.387 . S
C610 C611 1.387 . S
C610 H614 0.950 . S
C610 C619 1.390 . S
C611 C610 1.387 . S
C611 C613 1.387 . S
H612 C619 0.950 . S
C613 C611 1.387 . S
C613 C615 1.390 . S
C613 H617 0.950 . S
H614 C610 0.950 . S
C615 C613 1.390 . S
C615 C616 1.387 . S
C615 H618 0.950 . S
C616 C615 1.387 . S
C616 C619 1.387 . S
H617 C613 0.950 . S
H618 C615 0.950 . S
C619 C610 1.390 . S
C619 H612 0.950 . S
C619 C616 1.387 . S
C620 C621 1.387 . S
C620 H624 0.950 . S
C620 C629 1.390 . S
C621 C620 1.387 . S
C621 C623 1.387 1_455 S
H622 C629 0.950 . S
C623 C621 1.387 1_655 S
C623 C625 1.390 . S
C623 H627 0.950 . S
H624 C620 0.950 . S
C625 C623 1.390 . S
C625 C626 1.387 . S
C625 H628 0.950 . S
C626 C625 1.387 . S
C626 C629 1.387 1_655 S
H627 C623 0.950 . S
H628 C625 0.950 . S
C629 C620 1.390 . S
C629 H622 0.950 . S
C629 C626 1.387 1_455 S
C630 C631 1.387 . S
C630 H634 0.950 . S
C630 C639 1.390 1_564 S
C631 C630 1.387 . S
C631 C633 1.387 . S
H632 C639 0.950 . S
C633 C631 1.387 . S
C633 C635 1.390 1_564 S
C633 H637 0.950 . S
H634 C630 0.950 . S
C635 C633 1.390 1_546 S
C635 C636 1.387 . S
C635 H638 0.950 . S
C636 C635 1.387 . S
C636 C639 1.387 . S
H637 C633 0.950 . S
H638 C635 0.950 . S
C639 C630 1.390 1_546 S
C639 H632 0.950 . S
C639 C636 1.387 . S
C640 C641 1.387 . S
C640 H644 0.950 . S
C640 C649 1.390 . S
C641 C640 1.387 . S
C641 C643 1.387 . S
H642 C649 0.950 . S
C643 C641 1.387 . S
C643 C645 1.390 . S
C643 H647 0.950 . S
H644 C640 0.950 . S
C645 C643 1.390 . S
C645 C646 1.387 . S
C645 H648 0.950 . S
C646 C645 1.387 . S
C646 C649 1.387 . S
H647 C643 0.950 . S
H648 C645 0.950 . S
C649 C640 1.390 . S
C649 H642 0.950 . S
C649 C646 1.387 . S
C650 C651 1.387 1_655 S
C650 H654 0.950 . S
C650 C659 1.390 . S
C651 C650 1.387 1_455 S
C651 C653 1.387 . S
H652 C659 0.950 . S
C653 C651 1.387 . S
C653 C655 1.390 . S
C653 H657 0.950 . S
H654 C650 0.950 . S
C655 C653 1.390 . S
C655 C656 1.387 1_455 S
C655 H658 0.950 . S
C656 C655 1.387 1_655 S
C656 C659 1.387 . S
H657 C653 0.950 . S
H658 C655 0.950 . S
C659 C650 1.390 . S
C659 H652 0.950 . S
C659 C656 1.387 . S
C660 C661 1.387 . S
C660 H664 0.950 . S
C660 C669 1.390 1_545 S
C661 C660 1.387 . S
C661 C663 1.387 . S
H662 C669 0.950 . S
C663 C661 1.387 . S
C663 C665 1.390 1_545 S
C663 H667 0.950 . S
H664 C660 0.950 . S
C665 C663 1.390 1_565 S
C665 C666 1.387 . S
C665 H668 0.950 . S
C666 C665 1.387 . S
C666 C669 1.387 . S
H667 C663 0.950 . S
H668 C665 0.950 . S
C669 C660 1.390 1_565 S
C669 H662 0.950 . S
C669 C666 1.387 . S
C670 C671 1.387 . S
C670 H674 0.950 . S
C670 C679 1.390 . S
C671 C670 1.387 . S
C671 C673 1.387 . S
H672 C679 0.950 . S
C673 C671 1.387 . S
C673 C675 1.390 . S
C673 H677 0.950 . S
H674 C670 0.950 . S
C675 C673 1.390 . S
C675 C676 1.387 . S
C675 H678 0.950 . S
C676 C675 1.387 . S
C676 C679 1.387 . S
H677 C673 0.950 . S
H678 C675 0.950 . S
C679 C670 1.390 . S
C679 H672 0.950 . S
C679 C676 1.387 . S
C680 C681 1.387 . S
C680 H684 0.950 . S
C680 C689 1.390 1_655 S
C681 C680 1.387 . S
C681 C683 1.387 . S
H682 C689 0.950 . S
C683 C681 1.387 . S
C683 C685 1.390 1_655 S
C683 H687 0.950 . S
H684 C680 0.950 . S
C685 C683 1.390 1_455 S
C685 C686 1.387 . S
C685 H688 0.950 . S
C686 C685 1.387 . S
C686 C689 1.387 . S
H687 C683 0.950 . S
H688 C685 0.950 . S
C689 C680 1.390 1_455 S
C689 H682 0.950 . S
C689 C686 1.387 . S
C690 C691 1.387 . S
C690 H694 0.950 . S
C690 C699 1.390 1_455 S
C691 C690 1.387 . S
C691 C693 1.387 . S
H692 C699 0.950 . S
C693 C691 1.387 . S
C693 C695 1.390 1_455 S
C693 H697 0.950 . S
H694 C690 0.950 . S
C695 C693 1.390 1_655 S
C695 C696 1.387 . S
C695 H698 0.950 . S
C696 C695 1.387 . S
C696 C699 1.387 . S
H697 C693 0.950 . S
H698 C695 0.950 . S
C699 C690 1.390 1_655 S
C699 H692 0.950 . S
C699 C696 1.387 . S
C700 C701 1.387 . S
C700 H704 0.950 . S
C700 C709 1.390 1_565 S
C701 C700 1.387 . S
C701 C703 1.387 . S
H702 C709 0.950 . S
C703 C701 1.387 . S
C703 C705 1.390 1_565 S
C703 H707 0.950 . S
H704 C700 0.950 . S
C705 C703 1.390 1_545 S
C705 C706 1.387 . S
C705 H708 0.950 . S
C706 C705 1.387 . S
C706 C709 1.387 . S
H707 C703 0.950 . S
H708 C705 0.950 . S
C709 C700 1.390 1_545 S
C709 H702 0.950 . S
C709 C706 1.387 . S
C710 C711 1.387 . S
C710 H714 0.950 . S
C710 C719 1.390 . S
C711 C710 1.387 . S
C711 C713 1.387 . S
H712 C719 0.950 . S
C713 C711 1.387 . S
C713 C715 1.390 . S
C713 H717 0.950 . S
H714 C710 0.950 . S
C715 C713 1.390 . S
C715 C716 1.387 . S
C715 H718 0.950 . S
C716 C715 1.387 . S
C716 C719 1.387 . S
H717 C713 0.950 . S
H718 C715 0.950 . S
C719 C710 1.390 . S
C719 H712 0.950 . S
C719 C716 1.387 . S
C720 C721 1.387 . S
C720 H724 0.950 . S
C720 C729 1.390 1_565 S
C721 C720 1.387 . S
C721 C723 1.387 . S
H722 C729 0.950 . S
C723 C721 1.387 . S
C723 C725 1.390 1_565 S
C723 H727 0.950 . S
H724 C720 0.950 . S
C725 C723 1.390 1_545 S
C725 C726 1.387 . S
C725 H728 0.950 . S
C726 C725 1.387 . S
C726 C729 1.387 . S
H727 C723 0.950 . S
H728 C725 0.950 . S
C729 C720 1.390 1_545 S
C729 H722 0.950 . S
C729 C726 1.387 . S
C730 C731 1.387 . S
C730 H734 0.950 . S
C730 C739 1.390 . S
C731 C730 1.387 . S
C731 C733 1.387 . S
H732 C739 0.950 . S
C733 C731 1.387 . S
C733 C735 1.390 . S
C733 H737 0.950 . S
H734 C730 0.950 . S
C735 C733 1.390 . S
C735 C736 1.387 . S
C735 H738 0.950 . S
C736 C735 1.387 . S
C736 C739 1.387 . S
H737 C733 0.950 . S
H738 C735 0.950 . S
C739 C730 1.390 . S
C739 H732 0.950 . S
C739 C736 1.387 . S
C740 C741 1.387 . S
C740 H744 0.950 . S
C740 C749 1.390 1_655 S
C741 C740 1.387 . S
C741 C743 1.387 . S
H742 C749 0.950 . S
C743 C741 1.387 . S
C743 C745 1.390 1_655 S
C743 H747 0.950 . S
H744 C740 0.950 . S
C745 C743 1.390 1_455 S
C745 C746 1.387 . S
C745 H748 0.950 . S
C746 C745 1.387 . S
C746 C749 1.387 . S
H747 C743 0.950 . S
H748 C745 0.950 . S
C749 C740 1.390 1_455 S
C749 H742 0.950 . S
C749 C746 1.387 . S
C750 C751 1.387 . S
C750 H754 0.950 . S
C750 C759 1.390 1_545 S
C751 C750 1.387 . S
C751 C753 1.387 . S
H752 C759 0.950 . S
C753 C751 1.387 . S
C753 C755 1.390 1_545 S
C753 H757 0.950 . S
H754 C750 0.950 . S
C755 C753 1.390 1_565 S
C755 C756 1.387 . S
C755 H758 0.950 . S
C756 C755 1.387 . S
C756 C759 1.387 . S
H757 C753 0.950 . S
H758 C755 0.950 . S
C759 C750 1.390 1_565 S
C759 H752 0.950 . S
C759 C756 1.387 . S
C760 C761 1.387 . S
C760 H764 0.950 . S
C760 C769 1.390 . S
C761 C760 1.387 . S
C761 C763 1.387 . S
H762 C769 0.950 . S
C763 C761 1.387 . S
C763 C765 1.390 . S
C763 H767 0.950 . S
H764 C760 0.950 . S
C765 C763 1.390 . S
C765 C766 1.387 . S
C765 H768 0.950 . S
C766 C765 1.387 . S
C766 C769 1.387 . S
H767 C763 0.950 . S
H768 C765 0.950 . S
C769 C760 1.390 . S
C769 H762 0.950 . S
C769 C766 1.387 . S
C770 C771 1.387 . S
C770 H774 0.950 . S
C770 C779 1.390 1_455 S
C771 C770 1.387 . S
C771 C773 1.387 . S
H772 C779 0.950 . S
C773 C771 1.387 . S
C773 C775 1.390 1_455 S
C773 H777 0.950 . S
H774 C770 0.950 . S
C775 C773 1.390 1_655 S
C775 C776 1.387 . S
C775 H778 0.950 . S
C776 C775 1.387 . S
C776 C779 1.387 . S
H777 C773 0.950 . S
H778 C775 0.950 . S
C779 C770 1.390 1_655 S
C779 H772 0.950 . S
C779 C776 1.387 . S
C780 C781 1.387 . S
C780 H784 0.950 . S
C780 C789 1.390 . S
C781 C780 1.387 . S
C781 C783 1.387 . S
H782 C789 0.950 . S
C783 C781 1.387 . S
C783 C785 1.390 . S
C783 H787 0.950 . S
H784 C780 0.950 . S
C785 C783 1.390 . S
C785 C786 1.387 . S
C785 H788 0.950 . S
C786 C785 1.387 . S
C786 C789 1.387 . S
H787 C783 0.950 . S
H788 C785 0.950 . S
C789 C780 1.390 . S
C789 H782 0.950 . S
C789 C786 1.387 . S
C790 C791 1.387 . S
C790 H794 0.950 . S
C790 C799 1.390 . S
C791 C790 1.387 . S
C791 C793 1.387 . S
H792 C799 0.950 . S
C793 C791 1.387 . S
C793 C795 1.390 . S
C793 H797 0.950 . S
H794 C790 0.950 . S
C795 C793 1.390 . S
C795 C796 1.387 . S
C795 H798 0.950 . S
C796 C795 1.387 . S
C796 C799 1.387 . S
H797 C793 0.950 . S
H798 C795 0.950 . S
C799 C790 1.390 . S
C799 H792 0.950 . S
C799 C796 1.387 . S
C800 C801 1.387 . S
C800 H804 0.950 . S
C800 C809 1.390 . S
C801 C800 1.387 . S
C801 C803 1.387 . S
H802 C809 0.950 . S
C803 C801 1.387 . S
C803 C805 1.390 . S
C803 H807 0.950 . S
H804 C800 0.950 . S
C805 C803 1.390 . S
C805 C806 1.387 . S
C805 H808 0.950 . S
C806 C805 1.387 . S
C806 C809 1.387 . S
H807 C803 0.950 . S
H808 C805 0.950 . S
C809 C800 1.390 . S
C809 H802 0.950 . S
C809 C806 1.387 . S
C810 C811 1.387 . S
C810 H814 0.950 . S
C810 C819 1.390 . S
C811 C810 1.387 . S
C811 C813 1.387 . S
H812 C819 0.950 . S
C813 C811 1.387 . S
C813 C815 1.390 . S
C813 H817 0.950 . S
H814 C810 0.950 . S
C815 C813 1.390 . S
C815 C816 1.387 . S
C815 H818 0.950 . S
C816 C815 1.387 . S
C816 C819 1.387 . S
H817 C813 0.950 . S
H818 C815 0.950 . S
C819 C810 1.390 . S
C819 H812 0.950 . S
C819 C816 1.387 . S
C820 C821 1.387 . S
C820 H824 0.950 . S
C820 C829 1.390 . S
C821 C820 1.387 . S
C821 C823 1.387 . S
H822 C829 0.950 . S
C823 C821 1.387 . S
C823 C825 1.390 . S
C823 H827 0.950 . S
H824 C820 0.950 . S
C825 C823 1.390 . S
C825 C826 1.387 . S
C825 H828 0.950 . S
C826 C825 1.387 . S
C826 C829 1.387 . S
H827 C823 0.950 . S
H828 C825 0.950 . S
C829 C820 1.390 . S
C829 H822 0.950 . S
C829 C826 1.387 . S
C830 C831 1.387 . S
C830 H834 0.950 . S
C830 C839 1.390 . S
C831 C830 1.387 . S
C831 C833 1.387 . S
H832 C839 0.950 . S
C833 C831 1.387 . S
C833 C835 1.390 . S
C833 H837 0.950 . S
H834 C830 0.950 . S
C835 C833 1.390 . S
C835 C836 1.387 . S
C835 H838 0.950 . S
C836 C835 1.387 . S
C836 C839 1.387 . S
H837 C833 0.950 . S
H838 C835 0.950 . S
C839 C830 1.390 . S
C839 H832 0.950 . S
C839 C836 1.387 . S
C481 C17 1.359 . S
C486 C337 1.359 . S
C491 C57 1.359 . S
C496 C377 1.359 . S
C501 C97 1.361 . S
C506 C417 1.362 . S
C511 C457 1.359 . S
C516 C137 1.360 . S
C521 C177 1.364 . S
C526 C257 1.364 . S
C531 C297 1.359 . S
C536 C217 1.361 . S
C541 C429 1.291 . S
C546 C29 1.291 . S
C551 C469 1.288 . S
C556 C69 1.290 . S
C561 C109 1.289 . S
C566 C269 1.289 . S
C571 C309 1.291 . S
C576 C149 1.291 . S
C581 C349 1.289 . S
C586 C189 1.290 . S
C591 C229 1.289 . S
C596 C389 1.289 . S
C601 C292 4.438 . S
C606 C12 4.438 . S
C611 C332 4.438 . S
C616 C52 4.438 . S
C621 C372 4.439 . S
C626 C92 4.438 . S
C631 C132 4.438 . S
C636 C412 4.438 . S
C641 C172 4.438 . S
C646 C452 4.438 . S
C651 C212 4.438 . S
C656 C252 4.439 . S
C661 C2 1.189 . S
C666 C122 1.189 . S
C671 C42 1.188 . S
C676 C162 1.188 . S
C681 C82 1.192 . S
C686 C202 1.192 . S
C691 C362 1.192 . S
C696 C242 1.192 . S
C701 C282 1.188 . S
C706 C402 1.188 . S
C711 C442 1.192 . S
C716 C322 1.192 . S
C721 C288 0.826 . S
C726 C8 0.826 . S
C731 C328 0.824 . S
C736 C48 0.825 . S
C741 C88 0.826 . S
C746 C368 0.826 . S
C751 C408 0.826 . S
C756 C128 0.826 . S
C761 C448 0.826 . S
C766 C168 0.825 . S
C771 C208 0.824 . S
C776 C248 0.822 . S
C781 C31 4.705 . S
C786 C431 4.705 . S
C791 C71 4.704 . S
C796 C471 4.705 1_556 S
C801 C111 4.705 1_554 S
C806 C271 4.705 . S
C811 C151 4.705 . S
C816 C311 4.705 . S
C821 C191 4.705 . S
C826 C351 4.705 1_556 S
C831 C391 4.704 . S
C836 C231 4.705 1_554 S
