# Generated by pormake.
# Topology upc, (4)-cn, num edge types: 1
# Building blocks:
#     Node 0, Type 0, BuildingBlock: CEKHIL_clean_sbu_0, # of connection points: 4
#     Node 1, Type 0, BuildingBlock: CEKHIL_clean_sbu_0, # of connection points: 4
#     Node 2, Type 0, BuildingBlock: CEKHIL_clean_sbu_0, # of connection points: 4
#     Node 3, Type 0, BuildingBlock: CEKHIL_clean_sbu_0, # of connection points: 4
#     Node 4, Type 0, BuildingBlock: CEKHIL_clean_sbu_0, # of connection points: 4
#     Node 5, Type 0, BuildingBlock: CEKHIL_clean_sbu_0, # of connection points: 4
#     Node 6, Type 0, BuildingBlock: CEKHIL_clean_sbu_0, # of connection points: 4
#     Node 7, Type 0, BuildingBlock: CEKHIL_clean_sbu_0, # of connection points: 4
#     Node 8, Type 0, BuildingBlock: CEKHIL_clean_sbu_0, # of connection points: 4
#     Node 9, Type 0, BuildingBlock: CEKHIL_clean_sbu_0, # of connection points: 4
#     Node 10, Type 0, BuildingBlock: CEKHIL_clean_sbu_0, # of connection points: 4
#     Node 11, Type 0, BuildingBlock: CEKHIL_clean_sbu_0, # of connection points: 4
#     Node 12, Type 0, BuildingBlock: CEKHIL_clean_sbu_0, # of connection points: 4
#     Node 13, Type 0, BuildingBlock: CEKHIL_clean_sbu_0, # of connection points: 4
#     Node 14, Type 0, BuildingBlock: CEKHIL_clean_sbu_0, # of connection points: 4
#     Node 15, Type 0, BuildingBlock: CEKHIL_clean_sbu_0, # of connection points: 4
#     Edge 16, Type (0, 0), BuildingBlock: EZIPEK_clean_linker_0, # of connection points: 2
#     Edge 17, Type (0, 0), BuildingBlock: EZIPEK_clean_linker_0, # of connection points: 2
#     Edge 18, Type (0, 0), BuildingBlock: EZIPEK_clean_linker_0, # of connection points: 2
#     Edge 19, Type (0, 0), BuildingBlock: EZIPEK_clean_linker_0, # of connection points: 2
#     Edge 20, Type (0, 0), BuildingBlock: EZIPEK_clean_linker_0, # of connection points: 2
#     Edge 21, Type (0, 0), BuildingBlock: EZIPEK_clean_linker_0, # of connection points: 2
#     Edge 22, Type (0, 0), BuildingBlock: EZIPEK_clean_linker_0, # of connection points: 2
#     Edge 23, Type (0, 0), BuildingBlock: EZIPEK_clean_linker_0, # of connection points: 2
#     Edge 24, Type (0, 0), BuildingBlock: EZIPEK_clean_linker_0, # of connection points: 2
#     Edge 25, Type (0, 0), BuildingBlock: EZIPEK_clean_linker_0, # of connection points: 2
#     Edge 26, Type (0, 0), BuildingBlock: EZIPEK_clean_linker_0, # of connection points: 2
#     Edge 27, Type (0, 0), BuildingBlock: EZIPEK_clean_linker_0, # of connection points: 2
#     Edge 28, Type (0, 0), BuildingBlock: EZIPEK_clean_linker_0, # of connection points: 2
#     Edge 29, Type (0, 0), BuildingBlock: EZIPEK_clean_linker_0, # of connection points: 2
#     Edge 30, Type (0, 0), BuildingBlock: EZIPEK_clean_linker_0, # of connection points: 2
#     Edge 31, Type (0, 0), BuildingBlock: EZIPEK_clean_linker_0, # of connection points: 2
#     Edge 32, Type (0, 0), BuildingBlock: EZIPEK_clean_linker_0, # of connection points: 2
#     Edge 33, Type (0, 0), BuildingBlock: EZIPEK_clean_linker_0, # of connection points: 2
#     Edge 34, Type (0, 0), BuildingBlock: EZIPEK_clean_linker_0, # of connection points: 2
#     Edge 35, Type (0, 0), BuildingBlock: EZIPEK_clean_linker_0, # of connection points: 2
#     Edge 36, Type (0, 0), BuildingBlock: EZIPEK_clean_linker_0, # of connection points: 2
#     Edge 37, Type (0, 0), BuildingBlock: EZIPEK_clean_linker_0, # of connection points: 2
#     Edge 38, Type (0, 0), BuildingBlock: EZIPEK_clean_linker_0, # of connection points: 2
#     Edge 39, Type (0, 0), BuildingBlock: EZIPEK_clean_linker_0, # of connection points: 2
#     Edge 40, Type (0, 0), BuildingBlock: EZIPEK_clean_linker_0, # of connection points: 2
#     Edge 41, Type (0, 0), BuildingBlock: EZIPEK_clean_linker_0, # of connection points: 2
#     Edge 42, Type (0, 0), BuildingBlock: EZIPEK_clean_linker_0, # of connection points: 2
#     Edge 43, Type (0, 0), BuildingBlock: EZIPEK_clean_linker_0, # of connection points: 2
#     Edge 44, Type (0, 0), BuildingBlock: EZIPEK_clean_linker_0, # of connection points: 2
#     Edge 45, Type (0, 0), BuildingBlock: EZIPEK_clean_linker_0, # of connection points: 2
#     Edge 46, Type (0, 0), BuildingBlock: EZIPEK_clean_linker_0, # of connection points: 2
#     Edge 47, Type (0, 0), BuildingBlock: EZIPEK_clean_linker_0, # of connection points: 2
# Relax obj value: 0.269
# Max RMSD: 0.290
# Mean RMSD: 0.290
data_MOF--net-upc--node1-CEKHIL_clean_sbu_0--edge1-EZIPEK_clean_linker_0
_symmetry_space_group_name_H-M    P1
_symmetry_Int_Tables_number       1
_symmetry_cell_setting            triclinic
loop_
_symmetry_equiv_pos_as_xyz
'x, y, z'
_cell_length_a     24.150601
_cell_length_b     24.197632
_cell_length_c     31.763444
_cell_angle_alpha  89.986559
_cell_angle_beta   90.010922
_cell_angle_gamma 89.993899
loop_
_atom_site_label
_atom_site_type_symbol
_atom_site_fract_x
_atom_site_fract_y
_atom_site_fract_z
_atom_type_partial_charge
Co0 Co 0.11653 0.59525 0.12466 0.0
O1 O 0.13811 0.54986 0.07719 0.0
O2 O 0.05186 0.5725 0.09432 0.0
C3 C 0.17806 0.66578 0.11518 0.0
O4 O 0.07552 0.6412 0.16738 0.0
Co5 Co 0.19216 0.61664 0.19985 0.0
O6 O 0.12792 0.65613 0.22431 0.0
C7 C 0.12346 0.51714 0.20074 0.0
C8 C 0.08536 0.54721 0.06897 0.0
C9 C 0.08241 0.66059 0.20439 0.0
O10 O 0.10924 0.52774 0.16247 0.0
O11 O 0.15788 0.54678 0.22124 0.0
O12 O 0.13286 0.6626 0.09333 0.0
O13 O 0.18885 0.62302 0.13862 0.0
Co14 Co 0.88172 0.11912 0.1098 0.0
O15 O 0.91856 0.13038 0.05658 0.0
O16 O 0.89733 0.04871 0.08408 0.0
C17 C 0.81227 0.18176 0.10107 0.0
O18 O 0.84376 0.09019 0.1623 0.0
Co19 Co 0.8803 0.21152 0.17555 0.0
O20 O 0.83894 0.15795 0.2103 0.0
C21 C 0.96806 0.12772 0.17868 0.0
C22 C 0.91949 0.07686 0.05364 0.0
C23 C 0.83053 0.10823 0.19887 0.0
O24 O 0.95527 0.11455 0.14067 0.0
O25 O 0.94394 0.16699 0.19834 0.0
O26 O 0.80951 0.13295 0.0844 0.0
O27 O 0.85978 0.19443 0.11778 0.0
Co28 Co 0.40016 0.90527 0.11281 0.0
O29 O 0.40374 0.95302 0.06437 0.0
O30 O 0.47573 0.91065 0.09362 0.0
C31 C 0.32616 0.85285 0.092 0.0
O32 O 0.41232 0.85206 0.16113 0.0
Co33 Co 0.29752 0.90952 0.17154 0.0
O34 O 0.33222 0.84355 0.19704 0.0
C35 C 0.39145 0.98465 0.1875 0.0
C36 C 0.45655 0.94295 0.06435 0.0
C37 C 0.38225 0.83 0.18989 0.0
O38 O 0.4134 0.96964 0.15238 0.0
O39 O 0.34463 0.96665 0.20042 0.0
O40 O 0.37581 0.84338 0.07812 0.0
O41 O 0.32241 0.89778 0.11412 0.0
Co42 Co 0.58514 0.41563 0.12468 0.0
O43 O 0.52981 0.41993 0.08101 0.0
O44 O 0.57931 0.49084 0.10424 0.0
C45 C 0.63024 0.33884 0.09942 0.0
O46 O 0.64788 0.42619 0.16652 0.0
Co47 Co 0.58404 0.31337 0.184 0.0
O48 O 0.65752 0.34412 0.19929 0.0
C49 C 0.50487 0.40233 0.19998 0.0
C50 C 0.54237 0.47191 0.07818 0.0
C51 C 0.67389 0.39314 0.19121 0.0
O52 O 0.52783 0.43092 0.17037 0.0
O53 O 0.51831 0.35246 0.2085 0.0
O54 O 0.63973 0.38779 0.08436 0.0
O55 O 0.58963 0.33793 0.12606 0.0
Co56 Co 0.07225 0.90955 0.37301 0.0
O57 O 0.07791 0.96003 0.41981 0.0
O58 O 0.99979 0.92363 0.39531 0.0
C59 C 0.14147 0.84989 0.39121 0.0
O60 O 0.04805 0.85583 0.32794 0.0
Co61 Co 0.16753 0.89793 0.30815 0.0
O62 O 0.11903 0.8402 0.2838 0.0
C63 C 0.0861 0.98727 0.29689 0.0
C64 C 0.02436 0.955 0.42261 0.0
C65 C 0.06937 0.83202 0.29585 0.0
O66 O 0.06264 0.97301 0.3317 0.0
O67 O 0.12992 0.96409 0.28275 0.0
O68 O 0.09329 0.84747 0.40921 0.0
O69 O 0.14874 0.8929 0.36742 0.0
Co70 Co 0.59787 0.09325 0.38943 0.0
O71 O 0.54882 0.09959 0.43698 0.0
O72 O 0.58367 0.02097 0.41224 0.0
C73 C 0.65834 0.16216 0.40728 0.0
O74 O 0.6513 0.07021 0.34357 0.0
Co75 Co 0.60532 0.18787 0.32492 0.0
O76 O 0.66971 0.14566 0.30449 0.0
C77 C 0.5205 0.10307 0.31288 0.0
C78 C 0.55319 0.04621 0.43988 0.0
C79 C 0.67824 0.09558 0.31468 0.0
O80 O 0.53301 0.08341 0.34934 0.0
O81 O 0.54368 0.14597 0.29745 0.0
O82 O 0.66125 0.11337 0.42407 0.0
O83 O 0.61446 0.16958 0.38421 0.0
Co84 Co 0.37301 0.60814 0.39167 0.0
O85 O 0.36373 0.56175 0.4407 0.0
O86 O 0.44377 0.59542 0.41809 0.0
C87 C 0.30338 0.6697 0.40364 0.0
O88 O 0.39937 0.65706 0.34366 0.0
Co89 Co 0.27947 0.61129 0.32413 0.0
O90 O 0.33032 0.66348 0.29616 0.0
C91 C 0.36893 0.5287 0.31676 0.0
C92 C 0.41697 0.56614 0.44567 0.0
C93 C 0.37929 0.6743 0.30858 0.0
O94 O 0.38535 0.54128 0.35417 0.0
O95 O 0.3267 0.55108 0.2994 0.0
O96 O 0.35015 0.67371 0.42353 0.0
O97 O 0.29717 0.6241 0.38274 0.0
Co98 Co 0.91135 0.36509 0.38033 0.0
O99 O 0.95617 0.36758 0.43053 0.0
O100 O 0.91253 0.43952 0.40277 0.0
C101 C 0.85941 0.28962 0.39548 0.0
O102 O 0.8593 0.37651 0.33029 0.0
Co103 Co 0.9307 0.27224 0.31853 0.0
O104 O 0.89577 0.32565 0.27906 0.0
C105 C 0.00161 0.36752 0.31037 0.0
C106 C 0.9445 0.41986 0.43216 0.0
C107 C 0.86102 0.36135 0.29148 0.0
O108 O 0.97824 0.38568 0.34409 0.0
O109 O 0.99007 0.32041 0.29472 0.0
O110 O 0.84847 0.33738 0.41182 0.0
O111 O 0.90697 0.28607 0.37631 0.0
Co112 Co 0.93262 0.38729 0.88074 0.0
O113 O 0.923 0.43804 0.92715 0.0
O114 O 0.00376 0.408 0.903 0.0
C115 C 0.8679 0.32277 0.8994 0.0
O116 O 0.9604 0.33487 0.83647 0.0
Co117 Co 0.83489 0.36878 0.81761 0.0
O118 O 0.89014 0.31833 0.7915 0.0
C119 C 0.90527 0.46581 0.80652 0.0
C120 C 0.9767 0.43715 0.93042 0.0
C121 C 0.94023 0.31228 0.80353 0.0
O122 O 0.93661 0.44928 0.83713 0.0
O123 O 0.85814 0.44417 0.79847 0.0
O124 O 0.91579 0.32412 0.91798 0.0
O125 O 0.8583 0.36494 0.87556 0.0
Co126 Co 0.08044 0.90553 0.87621 0.0
O127 O 0.02268 0.90361 0.91812 0.0
O128 O 0.06651 0.97917 0.89645 0.0
C129 C 0.13307 0.83364 0.9013 0.0
O130 O 0.14273 0.92396 0.83643 0.0
Co131 Co 0.0952 0.8063 0.81519 0.0
O132 O 0.1658 0.84531 0.80276 0.0
C133 C 0.00796 0.8876 0.79741 0.0
C134 C 0.03006 0.95666 0.92114 0.0
C135 C 0.17449 0.8957 0.81241 0.0
O136 O 0.0244 0.91644 0.82917 0.0
O137 O 0.02748 0.83981 0.78849 0.0
O138 O 0.13579 0.8827 0.91763 0.0
O139 O 0.09368 0.82871 0.87379 0.0
Co140 Co 0.63495 0.08363 0.88049 0.0
O141 O 0.6416 0.03522 0.92855 0.0
O142 O 0.56326 0.07282 0.90561 0.0
C143 C 0.70649 0.14189 0.89522 0.0
O144 O 0.61122 0.13559 0.83364 0.0
Co145 Co 0.72732 0.08715 0.81326 0.0
O146 O 0.68364 0.14961 0.79062 0.0
C147 C 0.63943 0.00321 0.80545 0.0
C148 C 0.58848 0.04169 0.93282 0.0
C149 C 0.6338 0.15897 0.8017 0.0
O150 O 0.62041 0.01868 0.84148 0.0
O151 O 0.68302 0.02406 0.78892 0.0
O152 O 0.65916 0.1467 0.91414 0.0
O153 O 0.71183 0.0973 0.87276 0.0
Co154 Co 0.39703 0.628 0.88358 0.0
O155 O 0.43763 0.64266 0.93493 0.0
O156 O 0.41629 0.55942 0.91095 0.0
C157 C 0.32653 0.68946 0.89356 0.0
O158 O 0.35591 0.59537 0.83348 0.0
Co159 Co 0.38759 0.71782 0.81543 0.0
O160 O 0.34489 0.66158 0.78456 0.0
C161 C 0.47907 0.63736 0.81132 0.0
C162 C 0.4396 0.58939 0.93989 0.0
C163 C 0.33913 0.61203 0.79728 0.0
O164 O 0.46837 0.62433 0.84979 0.0
O165 O 0.45167 0.67451 0.79164 0.0
O166 O 0.32643 0.64147 0.91172 0.0
O167 O 0.37232 0.70213 0.87431 0.0
Co168 Co 0.8783 0.10659 0.61559 0.0
O169 O 0.85613 0.06322 0.56719 0.0
O170 O 0.94259 0.08479 0.58471 0.0
C171 C 0.81604 0.17682 0.60842 0.0
O172 O 0.92017 0.1497 0.65929 0.0
Co173 Co 0.80247 0.12519 0.69193 0.0
O174 O 0.86629 0.16613 0.71533 0.0
C175 C 0.87211 0.02539 0.68989 0.0
C176 C 0.9089 0.06044 0.55899 0.0
C177 C 0.91245 0.16906 0.69615 0.0
O178 O 0.88597 0.03796 0.65187 0.0
O179 O 0.83829 0.05471 0.71136 0.0
O180 O 0.86101 0.17532 0.58608 0.0
O181 O 0.80657 0.13311 0.63102 0.0
Co182 Co 0.40922 0.87947 0.62866 0.0
O183 O 0.44951 0.87171 0.57664 0.0
O184 O 0.42365 0.95133 0.60532 0.0
C185 C 0.34176 0.81592 0.61615 0.0
O186 O 0.36673 0.90513 0.67992 0.0
Co187 Co 0.40715 0.7864 0.69278 0.0
O188 O 0.36211 0.83699 0.72735 0.0
C189 C 0.49585 0.86856 0.69842 0.0
C190 C 0.4484 0.92537 0.5749 0.0
C191 C 0.35229 0.88645 0.71598 0.0
O192 O 0.48116 0.88522 0.66162 0.0
O193 O 0.47206 0.82813 0.71691 0.0
O194 O 0.33924 0.8653 0.60058 0.0
O195 O 0.38855 0.80305 0.6342 0.0
Co196 Co 0.59378 0.41871 0.62838 0.0
O197 O 0.59358 0.47151 0.58291 0.0
O198 O 0.51887 0.43041 0.60885 0.0
C199 C 0.66514 0.36485 0.60381 0.0
O200 O 0.57822 0.36024 0.67246 0.0
Co201 Co 0.69653 0.41226 0.68681 0.0
O202 O 0.65959 0.34265 0.70455 0.0
C203 C 0.61459 0.49955 0.70209 0.0
C204 C 0.54045 0.46376 0.58128 0.0
C205 C 0.60877 0.33184 0.69745 0.0
O206 O 0.5845 0.47932 0.67227 0.0
O207 O 0.66296 0.4814 0.71111 0.0
O208 O 0.615 0.35967 0.58978 0.0
O209 O 0.67108 0.40663 0.62903 0.0
Co210 Co 0.10041 0.59494 0.61234 0.0
O211 O 0.04437 0.59927 0.56912 0.0
O212 O 0.08766 0.52255 0.58842 0.0
C213 C 0.15331 0.66908 0.59177 0.0
O214 O 0.16017 0.57537 0.65402 0.0
Co215 Co 0.10755 0.69305 0.67611 0.0
O216 O 0.17319 0.65033 0.69529 0.0
C217 C 0.02361 0.60759 0.68942 0.0
C218 C 0.05184 0.54658 0.5639 0.0
C219 C 0.18527 0.60136 0.68355 0.0
O220 O 0.04323 0.58028 0.65785 0.0
O221 O 0.03843 0.65707 0.69809 0.0
O222 O 0.15783 0.62133 0.57346 0.0
O223 O 0.11216 0.67126 0.61776 0.0
C224 C 0.25962 0.71006 0.07877 0.0
C225 C 0.21679 0.71352 0.10924 0.0
C226 C 0.23375 0.8135 0.11591 0.0
C227 C 0.28195 0.8086 0.0908 0.0
N228 N 0.32389 0.75907 0.0332 0.0
N229 N 0.16742 0.76769 0.1605 0.0
C230 C 0.29047 0.75857 0.06792 0.0
C231 C 0.20502 0.76509 0.12865 0.0
N232 N 0.27099 0.66018 0.06049 0.0
N233 N 0.21205 0.86448 0.1242 0.0
H234 H 0.14648 0.73295 0.17079 0.0
H235 H 0.16148 0.80255 0.17923 0.0
H236 H 0.22665 0.90025 0.10969 0.0
H237 H 0.17446 0.87044 0.13963 0.0
H238 H 0.30427 0.65312 0.04053 0.0
H239 H 0.24878 0.6243 0.06729 0.0
H240 H 0.32966 0.72553 0.01322 0.0
H241 H 0.34001 0.79553 0.0208 0.0
C242 C 0.71458 0.20833 0.12169 0.0
C243 C 0.76384 0.22031 0.09876 0.0
C244 C 0.71582 0.29787 0.06444 0.0
C245 C 0.67039 0.29161 0.09262 0.0
N246 N 0.61616 0.22448 0.13041 0.0
N247 N 0.81173 0.27688 0.04801 0.0
C248 C 0.66668 0.24222 0.11654 0.0
C249 C 0.76447 0.26513 0.06993 0.0
N250 N 0.7138 0.16498 0.14915 0.0
N251 N 0.71036 0.33125 0.02998 0.0
H252 H 0.84729 0.25251 0.04964 0.0
H253 H 0.81705 0.31285 0.03046 0.0
H254 H 0.67264 0.34908 0.02159 0.0
H255 H 0.74013 0.33458 0.00643 0.0
H256 H 0.68284 0.15874 0.17146 0.0
H257 H 0.74595 0.1367 0.15116 0.0
H258 H 0.60962 0.18684 0.14545 0.0
H259 H 0.57928 0.24318 0.12113 0.0
C260 C 0.16605 0.74753 0.39501 0.0
C261 C 0.18318 0.80395 0.39526 0.0
C262 C 0.27993 0.77242 0.39763 0.0
C263 C 0.26233 0.71639 0.40205 0.0
N264 N 0.18684 0.65421 0.41723 0.0
N265 N 0.25715 0.86874 0.40871 0.0
C266 C 0.20487 0.70501 0.40437 0.0
C267 C 0.24035 0.81604 0.40003 0.0
N268 N 0.11337 0.73371 0.38377 0.0
N269 N 0.33394 0.78453 0.38912 0.0
H270 H 0.22962 0.90148 0.41281 0.0
H271 H 0.29784 0.87859 0.4167 0.0
H272 H 0.36418 0.75449 0.38537 0.0
H273 H 0.34744 0.82411 0.38121 0.0
H274 H 0.10067 0.69303 0.3789 0.0
H275 H 0.08434 0.76283 0.3745 0.0
H276 H 0.14533 0.64571 0.42334 0.0
H277 H 0.21361 0.62274 0.42665 0.0
C278 C 0.77778 0.24369 0.36358 0.0
C279 C 0.81605 0.24569 0.39707 0.0
C280 C 0.74822 0.19605 0.44104 0.0
C281 C 0.70813 0.19992 0.408 0.0
N282 N 0.6813 0.25476 0.34779 0.0
N283 N 0.8357 0.2287 0.47009 0.0
C284 C 0.72163 0.23163 0.37201 0.0
C285 C 0.80076 0.22288 0.43655 0.0
N286 N 0.79495 0.25322 0.32355 0.0
N287 N 0.73556 0.16862 0.47732 0.0
H288 H 0.8755 0.24503 0.46692 0.0
H289 H 0.82462 0.21949 0.50099 0.0
H290 H 0.6952 0.15739 0.48518 0.0
H291 H 0.76518 0.15706 0.49947 0.0
H292 H 0.76856 0.24967 0.29767 0.0
H293 H 0.83695 0.25607 0.31669 0.0
H294 H 0.69022 0.28014 0.3221 0.0
H295 H 0.64034 0.25676 0.35793 0.0
C296 C 0.77043 0.28652 0.90321 0.0
C297 C 0.82799 0.27511 0.90258 0.0
C298 C 0.80574 0.17531 0.90408 0.0
C299 C 0.74891 0.18733 0.89712 0.0
N300 N 0.67981 0.25689 0.88135 0.0
N301 N 0.90043 0.20595 0.89719 0.0
C302 C 0.73198 0.24364 0.89439 0.0
C303 C 0.84577 0.21876 0.9018 0.0
N304 N 0.75192 0.33801 0.91395 0.0
N305 N 0.82161 0.12292 0.91474 0.0
H306 H 0.93162 0.23531 0.89563 0.0
H307 H 0.91442 0.16595 0.8913 0.0
H308 H 0.79373 0.09036 0.91813 0.0
H309 H 0.86156 0.11312 0.92464 0.0
H310 H 0.71017 0.34696 0.91875 0.0
H311 H 0.7784 0.36973 0.92337 0.0
H312 H 0.66753 0.29725 0.87465 0.0
H313 H 0.65088 0.22742 0.87251 0.0
C314 C 0.22475 0.70757 0.87979 0.0
C315 C 0.2766 0.72629 0.89587 0.0
C316 C 0.22906 0.80567 0.92799 0.0
C317 C 0.17917 0.79165 0.90654 0.0
N318 N 0.1246 0.71625 0.87985 0.0
N319 N 0.32882 0.79679 0.93199 0.0
C320 C 0.17555 0.73892 0.88716 0.0
C321 C 0.27895 0.77654 0.91879 0.0
N322 N 0.22277 0.66062 0.85604 0.0
N323 N 0.22783 0.84264 0.96048 0.0
H324 H 0.36603 0.77556 0.92825 0.0
H325 H 0.33365 0.83663 0.94389 0.0
H326 H 0.19095 0.85725 0.97332 0.0
H327 H 0.26203 0.85149 0.97929 0.0
H328 H 0.18848 0.64858 0.83841 0.0
H329 H 0.25708 0.63556 0.85139 0.0
H330 H 0.1184 0.67618 0.86894 0.0
H331 H 0.08811 0.73451 0.8905 0.0
C332 C 0.76271 0.32622 0.61405 0.0
C333 C 0.70834 0.32013 0.59765 0.0
C334 C 0.72561 0.2207 0.58675 0.0
C335 C 0.77792 0.22563 0.60663 0.0
N336 N 0.84526 0.28255 0.64195 0.0
N337 N 0.65426 0.26782 0.54748 0.0
C338 C 0.79637 0.27843 0.62065 0.0
C339 C 0.69406 0.2691 0.57804 0.0
N340 N 0.7843 0.37801 0.61917 0.0
N341 N 0.7056 0.16975 0.57614 0.0
H342 H 0.63769 0.30359 0.53429 0.0
H343 H 0.64473 0.23257 0.53012 0.0
H344 H 0.72824 0.1334 0.57985 0.0
H345 H 0.66485 0.16323 0.56654 0.0
H346 H 0.82515 0.38581 0.62775 0.0
H347 H 0.76389 0.41344 0.60883 0.0
H348 H 0.85813 0.31786 0.65791 0.0
H349 H 0.87114 0.24884 0.64648 0.0
C350 C 0.19384 0.76047 0.61563 0.0
C351 C 0.1988 0.71223 0.59064 0.0
C352 C 0.2976 0.7349 0.57851 0.0
C353 C 0.29423 0.77693 0.60971 0.0
N354 N 0.23873 0.82896 0.6589 0.0
N355 N 0.24873 0.66904 0.5338 0.0
C356 C 0.24218 0.78943 0.6284 0.0
C357 C 0.24904 0.70351 0.56789 0.0
N358 N 0.14259 0.78213 0.62345 0.0
N359 N 0.3468 0.72668 0.5581 0.0
H360 H 0.21209 0.65544 0.51993 0.0
H361 H 0.28318 0.65877 0.51593 0.0
H362 H 0.3825 0.74922 0.56482 0.0
H363 H 0.35337 0.69761 0.53468 0.0
H364 H 0.13621 0.81981 0.63854 0.0
H365 H 0.10687 0.76702 0.60906 0.0
H366 H 0.20387 0.83476 0.67771 0.0
H367 H 0.27219 0.85329 0.66747 0.0
C368 C 0.09059 0.39404 0.27289 0.0
C369 C 0.03491 0.40649 0.28395 0.0
C370 C 0.03492 0.48328 0.23305 0.0
C371 C 0.09218 0.47453 0.22507 0.0
N372 N 0.17598 0.42381 0.23907 0.0
N373 N 0.95733 0.46985 0.27943 0.0
C374 C 0.12044 0.43048 0.24555 0.0
C375 C 0.00814 0.453 0.26546 0.0
N376 N 0.11485 0.34728 0.28848 0.0
N377 N 0.00522 0.5204 0.20963 0.0
H378 H 0.93422 0.44883 0.30172 0.0
H379 H 0.93986 0.50789 0.27171 0.0
H380 H 0.02237 0.54764 0.18802 0.0
H381 H 0.9621 0.52173 0.20951 0.0
H382 H 0.15274 0.33204 0.27806 0.0
H383 H 0.09567 0.32198 0.31072 0.0
H384 H 0.20064 0.39707 0.25659 0.0
H385 H 0.1981 0.44698 0.21705 0.0
C386 C 0.05136 0.11112 0.22574 0.0
C387 C 0.00437 0.09009 0.20399 0.0
C388 C 0.00649 0.00715 0.24865 0.0
C389 C 0.05619 0.02561 0.26793 0.0
N390 N 0.12976 0.09259 0.27185 0.0
N391 N 0.94689 0.01035 0.18811 0.0
C392 C 0.07995 0.0768 0.25539 0.0
C393 C 0.98522 0.03573 0.2132 0.0
N394 N 0.06832 0.16408 0.21826 0.0
N395 N 0.97838 0.9626 0.26437 0.0
H396 H 0.92924 0.02819 0.1617 0.0
H397 H 0.93694 0.96859 0.19079 0.0
H398 H 0.99298 0.93742 0.28844 0.0
H399 H 0.93798 0.9529 0.25548 0.0
H400 H 0.09787 0.18442 0.2364 0.0
H401 H 0.05092 0.18861 0.19469 0.0
H402 H 0.15243 0.12617 0.26078 0.0
H403 H 0.14986 0.07022 0.29542 0.0
C404 C 0.49863 0.01736 0.27135 0.0
C405 C 0.4827 0.07117 0.28465 0.0
C406 C 0.40517 0.06872 0.23398 0.0
C407 C 0.4253 0.01778 0.21771 0.0
N408 N 0.49924 0.9498 0.21583 0.0
N409 N 0.42185 0.14955 0.27777 0.0
C410 C 0.47445 0.99422 0.23469 0.0
C411 C 0.43622 0.09731 0.2656 0.0
N412 N 0.53605 0.98696 0.29394 0.0
N413 N 0.3564 0.08975 0.21914 0.0
H414 H 0.44042 0.16955 0.30322 0.0
H415 H 0.39305 0.17386 0.26192 0.0
H416 H 0.33507 0.07232 0.19385 0.0
H417 H 0.33581 0.12297 0.23284 0.0
H418 H 0.54234 0.94486 0.28891 0.0
H419 H 0.55802 0.00149 0.31975 0.0
H420 H 0.53924 0.93687 0.22329 0.0
H421 H 0.48235 0.9277 0.19094 0.0
C422 C 0.49502 0.46771 0.26056 0.0
C423 C 0.46956 0.43163 0.23122 0.0
C424 C 0.37945 0.45012 0.26449 0.0
C425 C 0.40422 0.49176 0.29005 0.0
N426 N 0.4873 0.54395 0.30802 0.0
N427 N 0.38668 0.39154 0.20245 0.0
C428 C 0.46233 0.50138 0.28698 0.0
C429 C 0.41145 0.42349 0.23248 0.0
N430 N 0.55111 0.47135 0.26404 0.0
N431 N 0.32607 0.43428 0.27205 0.0
H432 H 0.40912 0.37088 0.1792 0.0
H433 H 0.34393 0.38885 0.19865 0.0
H434 H 0.30232 0.45101 0.29634 0.0
H435 H 0.30729 0.40077 0.25728 0.0
H436 H 0.57884 0.44674 0.24724 0.0
H437 H 0.57884 0.44674 0.24724 0.0
H438 H 0.52983 0.55135 0.30628 0.0
H439 H 0.46603 0.57434 0.32451 0.0
C440 C 0.9946 0.582 0.76407 0.0
C441 C 0.98645 0.5779 0.71964 0.0
C442 C 0.92352 0.50001 0.73166 0.0
C443 C 0.92759 0.50781 0.77618 0.0
N444 N 0.95148 0.57031 0.83216 0.0
N445 N 0.92842 0.54421 0.66338 0.0
C446 C 0.9581 0.55344 0.79154 0.0
C447 C 0.94594 0.54067 0.70417 0.0
N448 N 0.03912 0.60933 0.78057 0.0
N449 N 0.9022 0.45245 0.71502 0.0
H450 H 0.94228 0.57491 0.64285 0.0
H451 H 0.89564 0.52077 0.65164 0.0
H452 H 0.88953 0.41878 0.73293 0.0
H453 H 0.90355 0.44366 0.6829 0.0
H454 H 0.04832 0.60875 0.81265 0.0
H455 H 0.07065 0.62648 0.76248 0.0
H456 H 0.97015 0.60586 0.84413 0.0
H457 H 0.92148 0.55283 0.85164 0.0
C458 C 0.99201 0.93449 0.72793 0.0
C459 C 0.97003 0.91436 0.76648 0.0
C460 C 0.87873 0.95118 0.74659 0.0
C461 C 0.90323 0.98024 0.71239 0.0
N462 N 0.98431 0.00509 0.67385 0.0
N463 N 0.89257 0.90493 0.81369 0.0
C464 C 0.96028 0.97235 0.70358 0.0
C465 C 0.91333 0.92309 0.77615 0.0
N466 N 0.04313 0.91777 0.71454 0.0
N467 N 0.82242 0.94855 0.7498 0.0
H468 H 0.91598 0.88182 0.83497 0.0
H469 H 0.85339 0.91561 0.82471 0.0
H470 H 0.7962 0.96529 0.72701 0.0
H471 H 0.80196 0.92443 0.77206 0.0
H472 H 0.05796 0.92536 0.68429 0.0
H473 H 0.06888 0.89196 0.73199 0.0
H474 H 0.02671 0.00674 0.66774 0.0
H475 H 0.02671 0.00674 0.66774 0.0
C476 C 0.62133 0.91397 0.76523 0.0
C477 C 0.60356 0.96726 0.7784 0.0
C478 C 0.52049 0.95851 0.73385 0.0
C479 C 0.53558 0.90327 0.72334 0.0
N480 N 0.59888 0.827 0.73046 0.0
N481 N 0.53235 0.03765 0.77902 0.0
C482 C 0.58564 0.88059 0.73955 0.0
C483 C 0.55213 0.9886 0.76378 0.0
N484 N 0.67247 0.89548 0.77712 0.0
N485 N 0.47621 0.98339 0.71478 0.0
H486 H 0.55527 0.06438 0.79763 0.0
H487 H 0.49148 0.05056 0.77547 0.0
H488 H 0.44832 0.96324 0.69536 0.0
H489 H 0.46912 0.02583 0.71563 0.0
H490 H 0.69099 0.85997 0.76519 0.0
H491 H 0.69795 0.91743 0.7977 0.0
H492 H 0.6311 0.8055 0.74476 0.0
H493 H 0.57593 0.80299 0.7095 0.0
C494 C 0.58421 0.59479 0.72646 0.0
C495 C 0.58731 0.53697 0.73306 0.0
C496 C 0.52099 0.54467 0.79115 0.0
C497 C 0.52004 0.60336 0.78677 0.0
N498 N 0.56303 0.68443 0.75672 0.0
N499 N 0.56745 0.45943 0.77915 0.0
C500 C 0.55523 0.62855 0.7562 0.0
C501 C 0.55957 0.51318 0.76795 0.0
N502 N 0.60818 0.6174 0.69156 0.0
N503 N 0.48332 0.5174 0.81565 0.0
H504 H 0.596 0.4331 0.76481 0.0
H505 H 0.596 0.4331 0.76481 0.0
H506 H 0.44842 0.53584 0.82861 0.0
H507 H 0.48401 0.47455 0.81954 0.0
H508 H 0.60211 0.65832 0.68244 0.0
H509 H 0.63124 0.59402 0.67023 0.0
H510 H 0.59194 0.70439 0.73776 0.0
H511 H 0.54529 0.71005 0.77942 0.0
C512 C 0.03564 0.7509 0.20136 0.0
C513 C 0.0411 0.69911 0.22152 0.0
C514 C 0.0199 0.74244 0.28866 0.0
C515 C 0.03579 0.79339 0.27073 0.0
N516 N 0.04245 0.84888 0.20747 0.0
N517 N 0.0218 0.64397 0.28323 0.0
C518 C 0.03685 0.79878 0.22638 0.0
C519 C 0.02647 0.69419 0.26443 0.0
N520 N 0.03434 0.75491 0.15856 0.0
N521 N 0.00113 0.73956 0.32898 0.0
H522 H 0.02658 0.60685 0.26687 0.0
H523 H 0.02658 0.60685 0.26687 0.0
H524 H 0.99299 0.77496 0.34666 0.0
H525 H 0.99067 0.70206 0.3432 0.0
H526 H 0.03299 0.79296 0.14307 0.0
H527 H 0.031 0.72036 0.13915 0.0
H528 H 0.04429 0.88597 0.22417 0.0
H529 H 0.04429 0.88597 0.22417 0.0
C530 C 0.75066 0.04823 0.21963 0.0
C531 C 0.80268 0.07177 0.22959 0.0
C532 C 0.77717 0.07629 0.30387 0.0
C533 C 0.72181 0.06685 0.2915 0.0
N534 N 0.65663 0.03184 0.2408 0.0
N535 N 0.87306 0.08603 0.28179 0.0
C536 C 0.70927 0.0474 0.25072 0.0
C537 C 0.81866 0.07728 0.27232 0.0
N538 N 0.73828 0.029 0.18053 0.0
N539 N 0.78846 0.08926 0.34484 0.0
H540 H 0.90311 0.08752 0.25829 0.0
H541 H 0.8888 0.0881 0.31223 0.0
H542 H 0.75816 0.08706 0.36822 0.0
H543 H 0.82684 0.10265 0.35564 0.0
H544 H 0.76692 0.02618 0.15606 0.0
H545 H 0.76692 0.02618 0.15606 0.0
H546 H 0.64526 0.01895 0.21064 0.0
H547 H 0.62515 0.0316 0.26319 0.0
C548 C 0.41274 0.69116 0.23651 0.0
C549 C 0.41343 0.70715 0.27938 0.0
C550 C 0.4194 0.8035 0.26013 0.0
C551 C 0.40686 0.78868 0.21793 0.0
N552 N 0.40251 0.71968 0.16336 0.0
N553 N 0.44262 0.77442 0.33032 0.0
C554 C 0.40866 0.73267 0.205 0.0
C555 C 0.42634 0.76181 0.29042 0.0
N556 N 0.41334 0.63616 0.22699 0.0
N557 N 0.42183 0.85709 0.27291 0.0
H558 H 0.45125 0.74376 0.35246 0.0
H559 H 0.45094 0.81488 0.33986 0.0
H560 H 0.4154 0.89066 0.25293 0.0
H561 H 0.4154 0.89066 0.25293 0.0
H562 H 0.41333 0.62011 0.19663 0.0
H563 H 0.41686 0.60634 0.25058 0.0
H564 H 0.4002 0.67963 0.15168 0.0
H565 H 0.39992 0.7498 0.13994 0.0
C566 C 0.77166 0.3717 0.19278 0.0
C567 C 0.72984 0.40732 0.20626 0.0
C568 C 0.78668 0.43014 0.26745 0.0
C569 C 0.81823 0.38074 0.26058 0.0
N570 N 0.82396 0.29577 0.21804 0.0
N571 N 0.69925 0.47715 0.2543 0.0
C572 C 0.80734 0.34936 0.22315 0.0
C573 C 0.73796 0.43906 0.24294 0.0
N574 N 0.77357 0.35514 0.15187 0.0
N575 N 0.80358 0.46919 0.29566 0.0
H576 H 0.66689 0.48789 0.23415 0.0
H577 H 0.69913 0.49684 0.28349 0.0
H578 H 0.84115 0.46726 0.31154 0.0
H579 H 0.78351 0.507 0.29932 0.0
H580 H 0.80564 0.33062 0.1402 0.0
H581 H 0.74675 0.37196 0.12949 0.0
H582 H 0.81193 0.27247 0.19197 0.0
H583 H 0.84029 0.2711 0.24173 0.0
C584 C 0.97306 0.25095 0.70341 0.0
C585 C 0.958 0.19764 0.71747 0.0
C586 C 0.98253 0.22241 0.78892 0.0
C587 C 0.97598 0.27791 0.77702 0.0
N588 N 0.98499 0.34725 0.72382 0.0
N589 N 0.96812 0.12756 0.77119 0.0
C590 C 0.97984 0.29282 0.73417 0.0
C591 C 0.97064 0.18138 0.75907 0.0
N592 N 0.97848 0.26126 0.66142 0.0
N593 N 0.99626 0.20916 0.82916 0.0
H594 H 0.95947 0.09543 0.75022 0.0
H595 H 0.95947 0.09543 0.75022 0.0
H596 H 0.00729 0.23969 0.85082 0.0
H597 H 0.99973 0.16825 0.83931 0.0
H598 H 0.99062 0.29923 0.64911 0.0
H599 H 0.97483 0.22989 0.63909 0.0
H600 H 0.98318 0.36236 0.69317 0.0
H601 H 0.99074 0.37729 0.74706 0.0
C602 C 0.26935 0.94657 0.72853 0.0
C603 C 0.31761 0.92042 0.74431 0.0
C604 C 0.27546 0.91261 0.81342 0.0
C605 C 0.22355 0.9222 0.79435 0.0
N606 N 0.17029 0.9603 0.73753 0.0
N607 N 0.37345 0.89898 0.80492 0.0
C608 C 0.22039 0.94428 0.75321 0.0
C609 C 0.32304 0.91139 0.78804 0.0
N610 N 0.27063 0.97341 0.69077 0.0
N611 N 0.28012 0.90181 0.85526 0.0
H612 H 0.40952 0.89949 0.78674 0.0
H613 H 0.37878 0.89032 0.83688 0.0
H614 H 0.24657 0.90321 0.87595 0.0
H615 H 0.24657 0.90321 0.87595 0.0
H616 H 0.2371 0.99488 0.67828 0.0
H617 H 0.30734 0.98006 0.67435 0.0
H618 H 0.16339 0.97053 0.70614 0.0
H619 H 0.13512 0.96239 0.75657 0.0
C620 C 0.5731 0.24259 0.78779 0.0
C621 C 0.6004 0.19418 0.77317 0.0
C622 C 0.60123 0.23038 0.70157 0.0
C623 C 0.58614 0.28226 0.71783 0.0
N624 N 0.53427 0.33246 0.76913 0.0
N625 N 0.61937 0.13488 0.7132 0.0
C626 C 0.56408 0.28659 0.7588 0.0
C627 C 0.60649 0.18544 0.72922 0.0
N628 N 0.55805 0.24733 0.82902 0.0
N629 N 0.61226 0.22436 0.65974 0.0
H630 H 0.62228 0.09916 0.73153 0.0
H631 H 0.62228 0.09916 0.73153 0.0
H632 H 0.60646 0.2567 0.63844 0.0
H633 H 0.62509 0.18685 0.64674 0.0
H634 H 0.54439 0.28394 0.84268 0.0
H635 H 0.55885 0.21414 0.84983 0.0
H636 H 0.51453 0.33829 0.79789 0.0
H637 H 0.52522 0.36261 0.74663 0.0
C638 C 0.25853 0.55262 0.77909 0.0
C639 C 0.31091 0.57392 0.76805 0.0
C640 C 0.28433 0.57926 0.69422 0.0
C641 C 0.22879 0.57304 0.70736 0.0
N642 N 0.16227 0.54129 0.75814 0.0
N643 N 0.38123 0.5823 0.71543 0.0
C644 C 0.21587 0.55398 0.74838 0.0
C645 C 0.32643 0.57756 0.72526 0.0
N646 N 0.24997 0.53256 0.81868 0.0
N647 N 0.29565 0.59141 0.65311 0.0
H648 H 0.4116 0.58086 0.73883 0.0
H649 H 0.39662 0.58349 0.68485 0.0
H650 H 0.26482 0.59164 0.63005 0.0
H651 H 0.33478 0.60163 0.64187 0.0
H652 H 0.21305 0.51482 0.82875 0.0
H653 H 0.28204 0.52958 0.84054 0.0
H654 H 0.14834 0.53245 0.78839 0.0
H655 H 0.13125 0.54026 0.73523 0.0
C656 C 0.06187 0.4601 0.03013 0.0
C657 C 0.06332 0.5186 0.03148 0.0
C658 C 0.00515 0.52382 0.96838 0.0
C659 C 0.00601 0.46528 0.96546 0.0
N660 N 0.0389 0.37709 0.9911 0.0
N661 N 0.04651 0.60637 0.99813 0.0
C662 C 0.03594 0.43326 0.99543 0.0
C663 C 0.03786 0.55052 0.99947 0.0
N664 N 0.08268 0.4303 0.06315 0.0
N665 N 0.97232 0.55395 0.94193 0.0
H666 H 0.07079 0.62717 0.0202 0.0
H667 H 0.03419 0.63137 0.97315 0.0
H668 H 0.94871 0.53601 0.91824 0.0
H669 H 0.96501 0.59609 0.94546 0.0
H670 H 0.07703 0.38794 0.06684 0.0
H671 H 0.1029 0.44851 0.08864 0.0
H672 H 0.06572 0.35225 0.00843 0.0
H673 H 0.01629 0.35507 0.96874 0.0
C674 C 0.03297 0.01235 0.98737 0.0
C675 C 0.00155 0.98943 0.95388 0.0
C676 C 0.91573 0.02314 0.9862 0.0
C677 C 0.94753 0.0488 0.01828 0.0
N678 N 0.0364 0.07571 0.04635 0.0
N679 N 0.91484 0.98032 0.91704 0.0
C680 C 0.00619 0.04605 0.01778 0.0
C681 C 0.94333 0.99675 0.95208 0.0
N682 N 0.0879 -0.00052 0.99141 0.0
N683 N 0.8592 0.0236 0.98861 0.0
H684 H 0.93395 0.96114 0.89147 0.0
H685 H 0.87336 0.98963 0.91167 0.0
H686 H 0.8376 0.04494 0.01194 0.0
H687 H 0.83369 0.00047 0.96893 0.0
H688 H 0.11147 0.0094 0.0178 0.0
H689 H 0.10918 0.9746 0.97006 0.0
H690 H 0.07916 0.08061 0.04448 0.0
H691 H 0.01848 0.09906 0.07031 0.0
C692 C 0.51598 0.93342 6e-05 0.0
C693 C 0.49325 0.96751 0.0321 0.0
C694 C 0.5392 0.04871 0.00177 0.0
C695 C 0.55777 0.01555 0.96778 0.0
N696 N 0.56045 0.92812 0.93158 0.0
N697 N 0.4795 0.05763 0.06284 0.0
C698 C 0.54567 0.95823 0.96627 0.0
C699 C 0.50379 0.02522 0.03276 0.0
N700 N 0.50897 0.87737 0.00191 0.0
N701 N 0.5571 0.10219 0.00511 0.0
H702 H 0.45626 0.04161 0.08767 0.0
H703 H 0.47979 0.10062 0.06214 0.0
H704 H 0.58291 0.12076 0.9829 0.0
H705 H 0.55018 0.12701 0.03134 0.0
H706 H 0.52964 0.84961 0.98244 0.0
H707 H 0.48484 0.8579 0.02474 0.0
H708 H 0.54746 0.88778 0.92603 0.0
H709 H 0.58297 0.94471 0.90657 0.0
C710 C 0.5137 0.52662 0.96811 0.0
C711 C 0.46902 0.56344 0.97605 0.0
C712 C 0.47475 0.54297 0.05189 0.0
C713 C 0.51933 0.50641 0.0438 0.0
N714 N 0.58843 0.47064 0.99642 0.0
N715 N 0.41233 0.61361 0.0257 0.0
C716 C 0.54079 0.50023 0.00248 0.0
C717 C 0.45145 0.57404 0.01807 0.0
N718 N 0.5304 0.517 0.9276 0.0
N719 N 0.45311 0.54602 0.09164 0.0
H720 H 0.391 0.63421 0.00191 0.0
H721 H 0.40314 0.62855 0.05561 0.0
H722 H 0.47007 0.52491 0.11722 0.0
H723 H 0.41659 0.56666 0.09905 0.0
H724 H 0.55692 0.48509 0.9189 0.0
H725 H 0.51627 0.53992 0.90198 0.0
H726 H 0.60983 0.46888 0.96804 0.0
H727 H 0.60948 0.45103 0.02086 0.0
C728 C 0.9531 0.02286 0.44772 0.0
C729 C 0.99256 0.98099 0.45702 0.0
C730 C 0.9659 0.98317 0.53138 0.0
C731 C 0.93133 0.02917 0.52296 0.0
N732 N 0.89358 0.09584 0.47443 0.0
N733 N 0.03926 0.92259 0.5075 0.0
C734 C 0.92471 0.04948 0.48137 0.0
C735 C 0.99982 0.96158 0.49884 0.0
N736 N 0.94313 0.03738 0.40679 0.0
N737 N 0.96451 0.9589 0.57028 0.0
H738 H 0.06248 0.90278 0.48434 0.0
H739 H 0.05144 0.91197 0.53788 0.0
H740 H 0.9386 0.97272 0.59434 0.0
H741 H 0.98461 0.92211 0.57767 0.0
H742 H 0.91056 0.06276 0.39749 0.0
H743 H 0.96571 0.02165 0.3815 0.0
H744 H 0.89206 0.11672 0.44581 0.0
H745 H 0.8713 0.1156 0.49818 0.0
C746 C 0.48054 0.98051 0.46523 0.0
C747 C 0.52613 0.01546 0.47432 0.0
C748 C 0.51946 0.99301 0.54943 0.0
C749 C 0.4754 0.95595 0.54017 0.0
N750 N 0.41589 0.91073 0.48966 0.0
N751 N 0.59419 0.05046 0.523 0.0
C752 C 0.4567 0.94838 0.49811 0.0
C753 C 0.54678 0.02083 0.51592 0.0
N754 N 0.45861 0.98003 0.42548 0.0
N755 N 0.53543 0.00134 0.5903 0.0
H756 H 0.61524 0.07167 0.49933 0.0
H757 H 0.61525 0.0512 0.55157 0.0
H758 H 0.5207 0.97794 0.61545 0.0
H759 H 0.56164 0.03308 0.59984 0.0
H760 H 0.42188 0.96023 0.41742 0.0
H761 H 0.4752 0.00283 0.40063 0.0
H762 H 0.40517 0.89796 0.45947 0.0
H763 H 0.3939 0.88992 0.51302 0.0
C764 C 0.51495 0.47011 0.50505 0.0
C765 C 0.50682 0.48842 0.54707 0.0
C766 C 0.43457 0.55253 0.52324 0.0
C767 C 0.44636 0.53797 0.48076 0.0
N768 N 0.49924 0.4849 0.43049 0.0
N769 N 0.46365 0.55032 0.59649 0.0
C770 C 0.48716 0.49746 0.47148 0.0
C771 C 0.46754 0.53019 0.55634 0.0
N772 N 0.5473 0.42475 0.49747 0.0
N773 N 0.39194 0.58784 0.53195 0.0
H774 H 0.48682 0.53464 0.62152 0.0
H775 H 0.44064 0.58506 0.60466 0.0
H776 H 0.36917 0.60776 0.50864 0.0
H777 H 0.37679 0.59501 0.56214 0.0
H778 H 0.55012 0.40525 0.46835 0.0
H779 H 0.56805 0.40335 0.52118 0.0
H780 H 0.53351 0.46171 0.42138 0.0
H781 H 0.47642 0.4997 0.40501 0.0
C782 C 0.95555 0.44442 0.50847 0.0
C783 C 0.96847 0.45538 0.46565 0.0
C784 C 0.03127 0.53001 0.48729 0.0
C785 C 0.02228 0.51572 0.5302 0.0
N786 N 0.97859 0.45755 0.58223 0.0
N787 N 0.02334 0.50352 0.41388 0.0
C788 C 0.98529 0.47225 0.54095 0.0
C789 C 0.00708 0.49727 0.45489 0.0
N790 N 0.9132 0.40897 0.51794 0.0
N791 N 0.06344 0.57465 0.47731 0.0
H792 H 0.0067 0.48066 0.38912 0.0
H793 H 0.05632 0.52832 0.4045 0.0
H794 H 0.08665 0.59659 0.49934 0.0
H795 H 0.06469 0.59205 0.44736 0.0
H796 H 0.89759 0.40316 0.54816 0.0
H797 H 0.89014 0.38852 0.49495 0.0
H798 H 0.95762 0.42221 0.59197 0.0
H799 H 0.99652 0.4792 0.60711 0.0
loop_
_geom_bond_atom_site_label_1
_geom_bond_atom_site_label_2
_geom_bond_distance
_geom_bond_site_symmetry_2
_ccdc_geom_bond_type
Co0 O1 2.216 . S
Co0 O2 2.091 1_455 S
Co0 O4 2.004 . S
Co0 O10 2.021 1_455 S
Co0 O12 2.137 . S
Co0 O13 2.244 . S
O1 Co0 2.216 . S
O1 C8 1.247 . S
O2 Co0 2.091 1_655 S
O2 C8 1.261 1_655 S
C3 O12 1.247 . S
C3 O13 1.272 . S
O4 Co0 2.004 . S
O4 C9 1.259 . S
Co5 O6 2.061 . S
Co5 O11 2.052 . S
Co5 O13 2.135 . S
O6 Co5 2.061 . S
O6 C9 1.235 . S
C7 O10 1.238 1_455 S
C7 O11 1.241 . S
C8 O1 1.247 . S
C8 O2 1.261 1_455 S
C9 O4 1.259 . S
C9 O6 1.235 . S
O10 Co0 2.021 1_655 S
O10 C7 1.238 1_655 S
O11 Co5 2.052 . S
O11 C7 1.241 . S
O12 Co0 2.137 . S
O12 C3 1.247 . S
O13 Co0 2.244 . S
O13 C3 1.272 . S
O13 Co5 2.135 . S
Co14 O15 2.216 . S
Co14 O16 2.091 1_545 S
Co14 O18 2.004 . S
Co14 O24 2.021 1_545 S
Co14 O26 2.137 . S
Co14 O27 2.244 . S
O15 Co14 2.216 . S
O15 C22 1.247 . S
O16 Co14 2.091 1_565 S
O16 C22 1.261 1_565 S
C17 O26 1.247 . S
C17 O27 1.272 . S
O18 Co14 2.004 . S
O18 C23 1.259 . S
Co19 O20 2.061 . S
Co19 O25 2.052 . S
Co19 O27 2.135 . S
O20 Co19 2.061 . S
O20 C23 1.235 . S
C21 O24 1.238 1_545 S
C21 O25 1.241 . S
C22 O15 1.247 . S
C22 O16 1.261 1_545 S
C23 O18 1.259 . S
C23 O20 1.235 . S
O24 Co14 2.021 1_565 S
O24 C21 1.238 1_565 S
O25 Co19 2.052 . S
O25 C21 1.241 . S
O26 Co14 2.137 . S
O26 C17 1.247 . S
O27 Co14 2.244 . S
O27 C17 1.272 . S
O27 Co19 2.135 . S
Co28 O29 2.216 . S
Co28 O30 2.091 . S
Co28 O32 2.004 . S
Co28 O38 2.021 . S
Co28 O40 2.137 . S
Co28 O41 2.244 . S
O29 Co28 2.216 . S
O29 C36 1.247 . S
O30 Co28 2.091 . S
O30 C36 1.261 . S
C31 O40 1.247 . S
C31 O41 1.272 . S
O32 Co28 2.004 . S
O32 C37 1.259 . S
Co33 O34 2.061 . S
Co33 O39 2.052 . S
Co33 O41 2.135 . S
O34 Co33 2.061 . S
O34 C37 1.235 . S
C35 O38 1.238 . S
C35 O39 1.241 . S
C36 O29 1.247 . S
C36 O30 1.261 . S
C37 O32 1.259 . S
C37 O34 1.235 . S
O38 Co28 2.021 . S
O38 C35 1.238 . S
O39 Co33 2.052 . S
O39 C35 1.241 . S
O40 Co28 2.137 . S
O40 C31 1.247 . S
O41 Co28 2.244 . S
O41 C31 1.272 . S
O41 Co33 2.135 . S
Co42 O43 2.216 . S
Co42 O44 2.091 . S
Co42 O46 2.004 . S
Co42 O52 2.021 . S
Co42 O54 2.137 . S
Co42 O55 2.244 . S
O43 Co42 2.216 . S
O43 C50 1.247 . S
O44 Co42 2.091 . S
O44 C50 1.261 . S
C45 O54 1.247 . S
C45 O55 1.272 . S
O46 Co42 2.004 . S
O46 C51 1.259 . S
Co47 O48 2.061 . S
Co47 O53 2.052 . S
Co47 O55 2.135 . S
O48 Co47 2.061 . S
O48 C51 1.235 . S
C49 O52 1.238 . S
C49 O53 1.241 . S
C50 O43 1.247 . S
C50 O44 1.261 . S
C51 O46 1.259 . S
C51 O48 1.235 . S
O52 Co42 2.021 . S
O52 C49 1.238 . S
O53 Co47 2.052 . S
O53 C49 1.241 . S
O54 Co42 2.137 . S
O54 C45 1.247 . S
O55 Co42 2.244 . S
O55 C45 1.272 . S
O55 Co47 2.135 . S
Co56 O57 2.216 . S
Co56 O58 2.091 1_455 S
Co56 O60 2.004 . S
Co56 O66 2.021 1_455 S
Co56 O68 2.137 . S
Co56 O69 2.244 . S
O57 Co56 2.216 . S
O57 C64 1.247 . S
O58 Co56 2.091 1_655 S
O58 C64 1.261 1_655 S
C59 O68 1.247 . S
C59 O69 1.272 . S
O60 Co56 2.004 . S
O60 C65 1.259 . S
Co61 O62 2.061 . S
Co61 O67 2.052 . S
Co61 O69 2.135 . S
O62 Co61 2.061 . S
O62 C65 1.235 . S
C63 O66 1.238 1_455 S
C63 O67 1.241 . S
C64 O57 1.247 . S
C64 O58 1.261 1_455 S
C65 O60 1.259 . S
C65 O62 1.235 . S
O66 Co56 2.021 1_655 S
O66 C63 1.238 1_655 S
O67 Co61 2.052 . S
O67 C63 1.241 . S
O68 Co56 2.137 . S
O68 C59 1.247 . S
O69 Co56 2.244 . S
O69 C59 1.272 . S
O69 Co61 2.135 . S
Co70 O71 2.216 . S
Co70 O72 2.091 1_545 S
Co70 O74 2.004 . S
Co70 O80 2.021 1_545 S
Co70 O82 2.137 . S
Co70 O83 2.244 . S
O71 Co70 2.216 . S
O71 C78 1.247 . S
O72 Co70 2.091 1_565 S
O72 C78 1.261 1_565 S
C73 O82 1.247 . S
C73 O83 1.272 . S
O74 Co70 2.004 . S
O74 C79 1.259 . S
Co75 O76 2.061 . S
Co75 O81 2.052 . S
Co75 O83 2.135 . S
O76 Co75 2.061 . S
O76 C79 1.235 . S
C77 O80 1.238 1_545 S
C77 O81 1.241 . S
C78 O71 1.247 . S
C78 O72 1.261 1_545 S
C79 O74 1.259 . S
C79 O76 1.235 . S
O80 Co70 2.021 1_565 S
O80 C77 1.238 1_565 S
O81 Co75 2.052 . S
O81 C77 1.241 . S
O82 Co70 2.137 . S
O82 C73 1.247 . S
O83 Co70 2.244 . S
O83 C73 1.272 . S
O83 Co75 2.135 . S
Co84 O85 2.216 . S
Co84 O86 2.091 . S
Co84 O88 2.004 . S
Co84 O94 2.021 . S
Co84 O96 2.137 . S
Co84 O97 2.244 . S
O85 Co84 2.216 . S
O85 C92 1.247 . S
O86 Co84 2.091 . S
O86 C92 1.261 . S
C87 O96 1.247 . S
C87 O97 1.272 . S
O88 Co84 2.004 . S
O88 C93 1.259 . S
Co89 O90 2.061 . S
Co89 O95 2.052 . S
Co89 O97 2.135 . S
O90 Co89 2.061 . S
O90 C93 1.235 . S
C91 O94 1.238 . S
C91 O95 1.241 . S
C92 O85 1.247 . S
C92 O86 1.261 . S
C93 O88 1.259 . S
C93 O90 1.235 . S
O94 Co84 2.021 . S
O94 C91 1.238 . S
O95 Co89 2.052 . S
O95 C91 1.241 . S
O96 Co84 2.137 . S
O96 C87 1.247 . S
O97 Co84 2.244 . S
O97 C87 1.272 . S
O97 Co89 2.135 . S
Co98 O99 2.216 . S
Co98 O100 2.091 . S
Co98 O102 2.004 . S
Co98 O108 2.021 . S
Co98 O110 2.137 . S
Co98 O111 2.244 . S
O99 Co98 2.216 . S
O99 C106 1.247 . S
O100 Co98 2.091 . S
O100 C106 1.261 . S
C101 O110 1.247 . S
C101 O111 1.272 . S
O102 Co98 2.004 . S
O102 C107 1.259 . S
Co103 O104 2.061 . S
Co103 O109 2.052 . S
Co103 O111 2.135 . S
O104 Co103 2.061 . S
O104 C107 1.235 . S
C105 O108 1.238 . S
C105 O109 1.241 . S
C106 O99 1.247 . S
C106 O100 1.261 . S
C107 O102 1.259 . S
C107 O104 1.235 . S
O108 Co98 2.021 . S
O108 C105 1.238 . S
O109 Co103 2.052 . S
O109 C105 1.241 . S
O110 Co98 2.137 . S
O110 C101 1.247 . S
O111 Co98 2.244 . S
O111 C101 1.272 . S
O111 Co103 2.135 . S
Co112 O113 2.216 . S
Co112 O114 2.091 1_655 S
Co112 O116 2.004 . S
Co112 O122 2.021 1_655 S
Co112 O124 2.137 . S
Co112 O125 2.244 . S
O113 Co112 2.216 . S
O113 C120 1.247 . S
O114 Co112 2.091 1_455 S
O114 C120 1.261 1_455 S
C115 O124 1.247 . S
C115 O125 1.272 . S
O116 Co112 2.004 . S
O116 C121 1.259 . S
Co117 O118 2.061 . S
Co117 O123 2.052 . S
Co117 O125 2.135 . S
O118 Co117 2.061 . S
O118 C121 1.235 . S
C119 O122 1.238 1_655 S
C119 O123 1.241 . S
C120 O113 1.247 . S
C120 O114 1.261 1_655 S
C121 O116 1.259 . S
C121 O118 1.235 . S
O122 Co112 2.021 1_455 S
O122 C119 1.238 1_455 S
O123 Co117 2.052 . S
O123 C119 1.241 . S
O124 Co112 2.137 . S
O124 C115 1.247 . S
O125 Co112 2.244 . S
O125 C115 1.272 . S
O125 Co117 2.135 . S
Co126 O127 2.216 . S
Co126 O128 2.091 1_565 S
Co126 O130 2.004 . S
Co126 O136 2.021 1_565 S
Co126 O138 2.137 . S
Co126 O139 2.244 . S
O127 Co126 2.216 . S
O127 C134 1.247 . S
O128 Co126 2.091 1_545 S
O128 C134 1.261 1_545 S
C129 O138 1.247 . S
C129 O139 1.272 . S
O130 Co126 2.004 . S
O130 C135 1.259 . S
Co131 O132 2.061 . S
Co131 O137 2.052 . S
Co131 O139 2.135 . S
O132 Co131 2.061 . S
O132 C135 1.235 . S
C133 O136 1.238 1_565 S
C133 O137 1.241 . S
C134 O127 1.247 . S
C134 O128 1.261 1_565 S
C135 O130 1.259 . S
C135 O132 1.235 . S
O136 Co126 2.021 1_545 S
O136 C133 1.238 1_545 S
O137 Co131 2.052 . S
O137 C133 1.241 . S
O138 Co126 2.137 . S
O138 C129 1.247 . S
O139 Co126 2.244 . S
O139 C129 1.272 . S
O139 Co131 2.135 . S
Co140 O141 2.216 . S
Co140 O142 2.091 . S
Co140 O144 2.004 . S
Co140 O150 2.021 . S
Co140 O152 2.137 . S
Co140 O153 2.244 . S
O141 Co140 2.216 . S
O141 C148 1.247 . S
O142 Co140 2.091 . S
O142 C148 1.261 . S
C143 O152 1.247 . S
C143 O153 1.272 . S
O144 Co140 2.004 . S
O144 C149 1.259 . S
Co145 O146 2.061 . S
Co145 O151 2.052 . S
Co145 O153 2.135 . S
O146 Co145 2.061 . S
O146 C149 1.235 . S
C147 O150 1.238 . S
C147 O151 1.241 . S
C148 O141 1.247 . S
C148 O142 1.261 . S
C149 O144 1.259 . S
C149 O146 1.235 . S
O150 Co140 2.021 . S
O150 C147 1.238 . S
O151 Co145 2.052 . S
O151 C147 1.241 . S
O152 Co140 2.137 . S
O152 C143 1.247 . S
O153 Co140 2.244 . S
O153 C143 1.272 . S
O153 Co145 2.135 . S
Co154 O155 2.216 . S
Co154 O156 2.091 . S
Co154 O158 2.004 . S
Co154 O164 2.021 . S
Co154 O166 2.137 . S
Co154 O167 2.244 . S
O155 Co154 2.216 . S
O155 C162 1.247 . S
O156 Co154 2.091 . S
O156 C162 1.261 . S
C157 O166 1.247 . S
C157 O167 1.272 . S
O158 Co154 2.004 . S
O158 C163 1.259 . S
Co159 O160 2.061 . S
Co159 O165 2.052 . S
Co159 O167 2.135 . S
O160 Co159 2.061 . S
O160 C163 1.235 . S
C161 O164 1.238 . S
C161 O165 1.241 . S
C162 O155 1.247 . S
C162 O156 1.261 . S
C163 O158 1.259 . S
C163 O160 1.235 . S
O164 Co154 2.021 . S
O164 C161 1.238 . S
O165 Co159 2.052 . S
O165 C161 1.241 . S
O166 Co154 2.137 . S
O166 C157 1.247 . S
O167 Co154 2.244 . S
O167 C157 1.272 . S
O167 Co159 2.135 . S
Co168 O169 2.216 . S
Co168 O170 2.091 1_655 S
Co168 O172 2.004 . S
Co168 O178 2.021 1_655 S
Co168 O180 2.137 . S
Co168 O181 2.244 . S
O169 Co168 2.216 . S
O169 C176 1.247 . S
O170 Co168 2.091 1_455 S
O170 C176 1.261 1_455 S
C171 O180 1.247 . S
C171 O181 1.272 . S
O172 Co168 2.004 . S
O172 C177 1.259 . S
Co173 O174 2.061 . S
Co173 O179 2.052 . S
Co173 O181 2.135 . S
O174 Co173 2.061 . S
O174 C177 1.235 . S
C175 O178 1.238 1_655 S
C175 O179 1.241 . S
C176 O169 1.247 . S
C176 O170 1.261 1_655 S
C177 O172 1.259 . S
C177 O174 1.235 . S
O178 Co168 2.021 1_455 S
O178 C175 1.238 1_455 S
O179 Co173 2.052 . S
O179 C175 1.241 . S
O180 Co168 2.137 . S
O180 C171 1.247 . S
O181 Co168 2.244 . S
O181 C171 1.272 . S
O181 Co173 2.135 . S
Co182 O183 2.216 . S
Co182 O184 2.091 1_565 S
Co182 O186 2.004 . S
Co182 O192 2.021 1_565 S
Co182 O194 2.137 . S
Co182 O195 2.244 . S
O183 Co182 2.216 . S
O183 C190 1.247 . S
O184 Co182 2.091 1_545 S
O184 C190 1.261 1_545 S
C185 O194 1.247 . S
C185 O195 1.272 . S
O186 Co182 2.004 . S
O186 C191 1.259 . S
Co187 O188 2.061 . S
Co187 O193 2.052 . S
Co187 O195 2.135 . S
O188 Co187 2.061 . S
O188 C191 1.235 . S
C189 O192 1.238 1_565 S
C189 O193 1.241 . S
C190 O183 1.247 . S
C190 O184 1.261 1_565 S
C191 O186 1.259 . S
C191 O188 1.235 . S
O192 Co182 2.021 1_545 S
O192 C189 1.238 1_545 S
O193 Co187 2.052 . S
O193 C189 1.241 . S
O194 Co182 2.137 . S
O194 C185 1.247 . S
O195 Co182 2.244 . S
O195 C185 1.272 . S
O195 Co187 2.135 . S
Co196 O197 2.216 . S
Co196 O198 2.091 . S
Co196 O200 2.004 . S
Co196 O206 2.021 . S
Co196 O208 2.137 . S
Co196 O209 2.244 . S
O197 Co196 2.216 . S
O197 C204 1.247 . S
O198 Co196 2.091 . S
O198 C204 1.261 . S
C199 O208 1.247 . S
C199 O209 1.272 . S
O200 Co196 2.004 . S
O200 C205 1.259 . S
Co201 O202 2.061 . S
Co201 O207 2.052 . S
Co201 O209 2.135 . S
O202 Co201 2.061 . S
O202 C205 1.235 . S
C203 O206 1.238 . S
C203 O207 1.241 . S
C204 O197 1.247 . S
C204 O198 1.261 . S
C205 O200 1.259 . S
C205 O202 1.235 . S
O206 Co196 2.021 . S
O206 C203 1.238 . S
O207 Co201 2.052 . S
O207 C203 1.241 . S
O208 Co196 2.137 . S
O208 C199 1.247 . S
O209 Co196 2.244 . S
O209 C199 1.272 . S
O209 Co201 2.135 . S
Co210 O211 2.216 . S
Co210 O212 2.091 . S
Co210 O214 2.004 . S
Co210 O220 2.021 . S
Co210 O222 2.137 . S
Co210 O223 2.244 . S
O211 Co210 2.216 . S
O211 C218 1.247 . S
O212 Co210 2.091 . S
O212 C218 1.261 . S
C213 O222 1.247 . S
C213 O223 1.272 . S
O214 Co210 2.004 . S
O214 C219 1.259 . S
Co215 O216 2.061 . S
Co215 O221 2.052 . S
Co215 O223 2.135 . S
O216 Co215 2.061 . S
O216 C219 1.235 . S
C217 O220 1.238 . S
C217 O221 1.241 . S
C218 O211 1.247 . S
C218 O212 1.261 . S
C219 O214 1.259 . S
C219 O216 1.235 . S
O220 Co210 2.021 . S
O220 C217 1.238 . S
O221 Co215 2.052 . S
O221 C217 1.241 . S
O222 Co210 2.137 . S
O222 C213 1.247 . S
O223 Co210 2.244 . S
O223 C213 1.272 . S
O223 Co215 2.135 . S
C224 C225 1.363 . S
C224 C230 1.379 . S
C224 N232 1.356 . S
C225 C224 1.363 . S
C225 C231 1.363 . S
C226 C227 1.363 . S
C226 C231 1.379 . S
C226 N233 1.356 . S
C227 C226 1.363 . S
C227 C230 1.363 . S
N228 C230 1.356 . S
N228 H240 0.984 . S
N228 H241 0.985 . S
N229 C231 1.356 . S
N229 H234 0.984 . S
N229 H235 0.985 . S
C230 C224 1.379 . S
C230 C227 1.363 . S
C230 N228 1.356 . S
C231 C225 1.363 . S
C231 C226 1.379 . S
C231 N229 1.356 . S
N232 C224 1.356 . S
N232 H238 0.984 . S
N232 H239 0.984 . S
N233 C226 1.356 . S
N233 H236 0.984 . S
N233 H237 0.985 . S
H234 N229 0.984 . S
H235 N229 0.985 . S
H236 N233 0.984 . S
H237 N233 0.985 . S
H238 N232 0.984 . S
H239 N232 0.984 . S
H240 N228 0.984 . S
H241 N228 0.985 . S
C242 C243 1.363 . S
C242 C248 1.379 . S
C242 N250 1.356 . S
C243 C242 1.363 . S
C243 C249 1.363 . S
C244 C245 1.363 . S
C244 C249 1.379 . S
C244 N251 1.356 . S
C245 C244 1.363 . S
C245 C248 1.363 . S
N246 C248 1.356 . S
N246 H258 0.984 . S
N246 H259 0.985 . S
N247 C249 1.356 . S
N247 H252 0.984 . S
N247 H253 0.985 . S
C248 C242 1.379 . S
C248 C245 1.363 . S
C248 N246 1.356 . S
C249 C243 1.363 . S
C249 C244 1.379 . S
C249 N247 1.356 . S
N250 C242 1.356 . S
N250 H256 0.984 . S
N250 H257 0.984 . S
N251 C244 1.356 . S
N251 H254 0.984 . S
N251 H255 0.985 . S
H252 N247 0.984 . S
H253 N247 0.985 . S
H254 N251 0.984 . S
H255 N251 0.985 . S
H256 N250 0.984 . S
H257 N250 0.984 . S
H258 N246 0.984 . S
H259 N246 0.985 . S
C260 C261 1.363 . S
C260 C266 1.379 . S
C260 N268 1.356 . S
C261 C260 1.363 . S
C261 C267 1.363 . S
C262 C263 1.363 . S
C262 C267 1.379 . S
C262 N269 1.356 . S
C263 C262 1.363 . S
C263 C266 1.363 . S
N264 C266 1.356 . S
N264 H276 0.984 . S
N264 H277 0.985 . S
N265 C267 1.356 . S
N265 H270 0.984 . S
N265 H271 0.985 . S
C266 C260 1.379 . S
C266 C263 1.363 . S
C266 N264 1.356 . S
C267 C261 1.363 . S
C267 C262 1.379 . S
C267 N265 1.356 . S
N268 C260 1.356 . S
N268 H274 0.984 . S
N268 H275 0.984 . S
N269 C262 1.356 . S
N269 H272 0.984 . S
N269 H273 0.985 . S
H270 N265 0.984 . S
H271 N265 0.985 . S
H272 N269 0.984 . S
H273 N269 0.985 . S
H274 N268 0.984 . S
H275 N268 0.984 . S
H276 N264 0.984 . S
H277 N264 0.985 . S
C278 C279 1.363 . S
C278 C284 1.379 . S
C278 N286 1.356 . S
C279 C278 1.363 . S
C279 C285 1.363 . S
C280 C281 1.363 . S
C280 C285 1.379 . S
C280 N287 1.356 . S
C281 C280 1.363 . S
C281 C284 1.363 . S
N282 C284 1.356 . S
N282 H294 0.984 . S
N282 H295 0.985 . S
N283 C285 1.356 . S
N283 H288 0.984 . S
N283 H289 0.985 . S
C284 C278 1.379 . S
C284 C281 1.363 . S
C284 N282 1.356 . S
C285 C279 1.363 . S
C285 C280 1.379 . S
C285 N283 1.356 . S
N286 C278 1.356 . S
N286 H292 0.984 . S
N286 H293 0.984 . S
N287 C280 1.356 . S
N287 H290 0.984 . S
N287 H291 0.985 . S
H288 N283 0.984 . S
H289 N283 0.985 . S
H290 N287 0.984 . S
H291 N287 0.985 . S
H292 N286 0.984 . S
H293 N286 0.984 . S
H294 N282 0.984 . S
H295 N282 0.985 . S
C296 C297 1.363 . S
C296 C302 1.379 . S
C296 N304 1.356 . S
C297 C296 1.363 . S
C297 C303 1.363 . S
C298 C299 1.363 . S
C298 C303 1.379 . S
C298 N305 1.356 . S
C299 C298 1.363 . S
C299 C302 1.363 . S
N300 C302 1.356 . S
N300 H312 0.984 . S
N300 H313 0.985 . S
N301 C303 1.356 . S
N301 H306 0.984 . S
N301 H307 0.985 . S
C302 C296 1.379 . S
C302 C299 1.363 . S
C302 N300 1.356 . S
C303 C297 1.363 . S
C303 C298 1.379 . S
C303 N301 1.356 . S
N304 C296 1.356 . S
N304 H310 0.984 . S
N304 H311 0.984 . S
N305 C298 1.356 . S
N305 H308 0.984 . S
N305 H309 0.985 . S
H306 N301 0.984 . S
H307 N301 0.985 . S
H308 N305 0.984 . S
H309 N305 0.985 . S
H310 N304 0.984 . S
H311 N304 0.984 . S
H312 N300 0.984 . S
H313 N300 0.985 . S
C314 C315 1.363 . S
C314 C320 1.379 . S
C314 N322 1.356 . S
C315 C314 1.363 . S
C315 C321 1.363 . S
C316 C317 1.363 . S
C316 C321 1.379 . S
C316 N323 1.356 . S
C317 C316 1.363 . S
C317 C320 1.363 . S
N318 C320 1.356 . S
N318 H330 0.984 . S
N318 H331 0.985 . S
N319 C321 1.356 . S
N319 H324 0.984 . S
N319 H325 0.985 . S
C320 C314 1.379 . S
C320 C317 1.363 . S
C320 N318 1.356 . S
C321 C315 1.363 . S
C321 C316 1.379 . S
C321 N319 1.356 . S
N322 C314 1.356 . S
N322 H328 0.984 . S
N322 H329 0.984 . S
N323 C316 1.356 . S
N323 H326 0.984 . S
N323 H327 0.985 . S
H324 N319 0.984 . S
H325 N319 0.985 . S
H326 N323 0.984 . S
H327 N323 0.985 . S
H328 N322 0.984 . S
H329 N322 0.984 . S
H330 N318 0.984 . S
H331 N318 0.985 . S
C332 C333 1.363 . S
C332 C338 1.379 . S
C332 N340 1.356 . S
C333 C332 1.363 . S
C333 C339 1.363 . S
C334 C335 1.363 . S
C334 C339 1.379 . S
C334 N341 1.356 . S
C335 C334 1.363 . S
C335 C338 1.363 . S
N336 C338 1.356 . S
N336 H348 0.984 . S
N336 H349 0.985 . S
N337 C339 1.356 . S
N337 H342 0.984 . S
N337 H343 0.985 . S
C338 C332 1.379 . S
C338 C335 1.363 . S
C338 N336 1.356 . S
C339 C333 1.363 . S
C339 C334 1.379 . S
C339 N337 1.356 . S
N340 C332 1.356 . S
N340 H346 0.984 . S
N340 H347 0.984 . S
N341 C334 1.356 . S
N341 H344 0.984 . S
N341 H345 0.985 . S
H342 N337 0.984 . S
H343 N337 0.985 . S
H344 N341 0.984 . S
H345 N341 0.985 . S
H346 N340 0.984 . S
H347 N340 0.984 . S
H348 N336 0.984 . S
H349 N336 0.985 . S
C350 C351 1.363 . S
C350 C356 1.379 . S
C350 N358 1.356 . S
C351 C350 1.363 . S
C351 C357 1.363 . S
C352 C353 1.363 . S
C352 C357 1.379 . S
C352 N359 1.356 . S
C353 C352 1.363 . S
C353 C356 1.363 . S
N354 C356 1.356 . S
N354 H366 0.984 . S
N354 H367 0.985 . S
N355 C357 1.356 . S
N355 H360 0.984 . S
N355 H361 0.985 . S
C356 C350 1.379 . S
C356 C353 1.363 . S
C356 N354 1.356 . S
C357 C351 1.363 . S
C357 C352 1.379 . S
C357 N355 1.356 . S
N358 C350 1.356 . S
N358 H364 0.984 . S
N358 H365 0.984 . S
N359 C352 1.356 . S
N359 H362 0.984 . S
N359 H363 0.985 . S
H360 N355 0.984 . S
H361 N355 0.985 . S
H362 N359 0.984 . S
H363 N359 0.985 . S
H364 N358 0.984 . S
H365 N358 0.984 . S
H366 N354 0.984 . S
H367 N354 0.985 . S
C368 C369 1.363 . S
C368 C374 1.379 1_655 S
C368 N376 1.357 . S
C369 C368 1.363 . S
C369 C375 1.363 . S
C370 C371 1.363 . S
C370 C375 1.379 . S
C370 N377 1.356 . S
C371 C370 1.363 . S
C371 C374 1.363 1_655 S
N372 C374 1.356 . S
N372 H384 0.984 . S
N372 H385 0.985 . S
N373 C375 1.356 . S
N373 H378 0.984 . S
N373 H379 0.985 . S
C374 C368 1.379 1_455 S
C374 C371 1.363 1_455 S
C374 N372 1.356 . S
C375 C369 1.363 . S
C375 C370 1.379 . S
C375 N373 1.356 . S
N376 C368 1.357 . S
N376 H382 0.983 1_655 S
N376 H383 0.986 . S
N377 C370 1.356 . S
N377 H380 0.984 . S
N377 H381 0.985 . S
H378 N373 0.984 . S
H379 N373 0.985 . S
H380 N377 0.984 . S
H381 N377 0.985 . S
H382 N376 0.983 1_455 S
H383 N376 0.986 . S
H384 N372 0.984 . S
H385 N372 0.985 . S
C386 C387 1.363 1_545 S
C386 C392 1.379 1_645 S
C386 N394 1.356 . S
C387 C386 1.363 1_565 S
C387 C393 1.363 . S
C388 C389 1.363 . S
C388 C393 1.379 . S
C388 N395 1.356 . S
C389 C388 1.363 . S
C389 C392 1.363 1_655 S
N390 C392 1.356 1_545 S
N390 H402 0.984 . S
N390 H403 0.985 1_545 S
N391 C393 1.356 . S
N391 H396 0.984 . S
N391 H397 0.985 . S
C392 C386 1.379 1_465 S
C392 C389 1.363 1_455 S
C392 N390 1.356 1_565 S
C393 C387 1.363 . S
C393 C388 1.379 . S
C393 N391 1.356 . S
N394 C386 1.356 . S
N394 H400 0.984 1_655 S
N394 H401 0.984 . S
N395 C388 1.356 . S
N395 H398 0.984 . S
N395 H399 0.985 . S
H396 N391 0.984 . S
H397 N391 0.985 . S
H398 N395 0.984 . S
H399 N395 0.985 . S
H400 N394 0.984 1_455 S
H401 N394 0.984 . S
H402 N390 0.984 . S
H403 N390 0.985 1_565 S
C404 C405 1.363 . S
C404 C410 1.379 . S
C404 N412 1.356 . S
C405 C404 1.363 . S
C405 C411 1.363 1_565 S
C406 C407 1.363 . S
C406 C411 1.379 1_565 S
C406 N413 1.356 1_565 S
C407 C406 1.363 . S
C407 C410 1.363 . S
N408 C410 1.356 . S
N408 H420 0.984 . S
N408 H421 0.985 . S
N409 C411 1.356 . S
N409 H414 0.984 . S
N409 H415 0.985 . S
C410 C404 1.379 . S
C410 C407 1.363 . S
C410 N408 1.356 . S
C411 C405 1.363 1_545 S
C411 C406 1.379 1_545 S
C411 N409 1.356 . S
N412 C404 1.356 . S
N412 H418 0.984 . S
N412 H419 0.984 . S
N413 C406 1.356 1_545 S
N413 H416 0.984 1_545 S
N413 H417 0.985 . S
H414 N409 0.984 . S
H415 N409 0.985 . S
H416 N413 0.984 1_565 S
H417 N413 0.985 . S
H418 N412 0.984 . S
H419 N412 0.984 . S
H420 N408 0.984 . S
H421 N408 0.985 . S
C422 C423 1.363 . S
C422 C428 1.379 . S
C422 N430 1.356 . S
C423 C422 1.363 . S
C423 C429 1.363 . S
C424 C425 1.363 . S
C424 C429 1.379 . S
C424 N431 1.356 . S
C425 C424 1.363 . S
C425 C428 1.363 . S
N426 C428 1.356 . S
N426 H438 0.984 . S
N426 H439 0.985 . S
N427 C429 1.356 . S
N427 H432 0.984 . S
N427 H433 0.985 . S
C428 C422 1.379 . S
C428 C425 1.363 . S
C428 N426 1.356 . S
C429 C423 1.363 . S
C429 C424 1.379 . S
C429 N427 1.356 . S
N430 C422 1.356 . S
N430 H436 0.984 . S
N430 H437 0.984 . S
N431 C424 1.356 . S
N431 H434 0.984 . S
N431 H435 0.985 . S
H432 N427 0.984 . S
H433 N427 0.985 . S
H434 N431 0.984 . S
H435 N431 0.985 . S
H436 N430 0.984 . S
H437 N430 0.984 . S
H438 N426 0.984 . S
H439 N426 0.985 . S
C440 C441 1.363 . S
C440 C446 1.379 . S
C440 N448 1.356 . S
C441 C440 1.363 . S
C441 C447 1.363 . S
C442 C443 1.363 1_655 S
C442 C447 1.379 1_655 S
C442 N449 1.356 . S
C443 C442 1.363 1_455 S
C443 C446 1.363 . S
N444 C446 1.356 . S
N444 H456 0.984 . S
N444 H457 0.985 . S
N445 C447 1.356 1_655 S
N445 H450 0.984 1_655 S
N445 H451 0.985 . S
C446 C440 1.379 . S
C446 C443 1.363 . S
C446 N444 1.356 . S
C447 C441 1.363 . S
C447 C442 1.379 1_455 S
C447 N445 1.356 1_455 S
N448 C440 1.356 . S
N448 H454 0.984 . S
N448 H455 0.984 . S
N449 C442 1.356 . S
N449 H452 0.984 . S
N449 H453 0.985 . S
H450 N445 0.984 1_455 S
H451 N445 0.985 . S
H452 N449 0.984 . S
H453 N449 0.985 . S
H454 N448 0.984 . S
H455 N448 0.984 . S
H456 N444 0.984 . S
H457 N444 0.985 . S
C458 C459 1.363 . S
C458 C464 1.379 . S
C458 N466 1.356 . S
C459 C458 1.363 . S
C459 C465 1.363 1_545 S
C460 C461 1.382 . S
C460 C465 1.372 1_545 S
C460 N467 1.350 1_545 S
C461 C460 1.382 . S
C461 C464 1.363 . S
N462 C464 1.356 1_655 S
N462 H474 0.984 . S
N462 H475 0.985 . S
N463 C465 1.356 . S
N463 H468 0.984 . S
N463 H469 0.985 . S
C464 C458 1.379 . S
C464 C461 1.363 . S
C464 N462 1.356 1_455 S
C465 C459 1.363 1_565 S
C465 C460 1.372 1_565 S
C465 N463 1.356 . S
N466 C458 1.356 . S
N466 H472 0.984 . S
N466 H473 0.984 . S
N467 C460 1.350 1_565 S
N467 H470 0.984 1_565 S
N467 H471 0.985 . S
H468 N463 0.984 . S
H469 N463 0.985 . S
H470 N467 0.984 1_545 S
H471 N467 0.985 . S
H472 N466 0.984 . S
H473 N466 0.984 . S
H474 N462 0.984 . S
H475 N462 0.985 . S
C476 C477 1.363 . S
C476 C482 1.379 . S
C476 N484 1.356 . S
C477 C476 1.363 . S
C477 C483 1.363 . S
C478 C479 1.363 . S
C478 C483 1.379 . S
C478 N485 1.356 . S
C479 C478 1.363 . S
C479 C482 1.363 . S
N480 C482 1.356 1_565 S
N480 H492 0.984 . S
N480 H493 0.985 . S
N481 C483 1.356 . S
N481 H486 0.984 . S
N481 H487 0.985 . S
C482 C476 1.379 . S
C482 C479 1.363 . S
C482 N480 1.356 1_545 S
C483 C477 1.363 . S
C483 C478 1.379 . S
C483 N481 1.356 . S
N484 C476 1.356 . S
N484 H490 0.984 . S
N484 H491 0.984 . S
N485 C478 1.356 . S
N485 H488 0.984 . S
N485 H489 0.985 . S
H486 N481 0.984 . S
H487 N481 0.985 . S
H488 N485 0.984 . S
H489 N485 0.985 . S
H490 N484 0.984 . S
H491 N484 0.984 . S
H492 N480 0.984 . S
H493 N480 0.985 . S
C494 C495 1.363 . S
C494 C500 1.379 . S
C494 N502 1.356 . S
C495 C494 1.363 . S
C495 C501 1.363 . S
C496 C497 1.363 . S
C496 C501 1.379 . S
C496 N503 1.356 . S
C497 C496 1.363 . S
C497 C500 1.363 . S
N498 C500 1.356 . S
N498 H510 0.984 . S
N498 H511 0.985 . S
N499 C501 1.356 . S
N499 H504 0.984 . S
N499 H505 0.985 . S
C500 C494 1.379 . S
C500 C497 1.363 . S
C500 N498 1.356 . S
C501 C495 1.363 . S
C501 C496 1.379 . S
C501 N499 1.356 . S
N502 C494 1.356 . S
N502 H508 0.984 . S
N502 H509 0.984 . S
N503 C496 1.356 . S
N503 H506 0.984 . S
N503 H507 0.985 . S
H504 N499 0.984 . S
H505 N499 0.985 . S
H506 N503 0.984 . S
H507 N503 0.985 . S
H508 N502 0.984 . S
H509 N502 0.984 . S
H510 N498 0.984 . S
H511 N498 0.985 . S
C512 C513 1.363 . S
C512 C518 1.379 . S
C512 N520 1.356 . S
C513 C512 1.363 . S
C513 C519 1.363 1_455 S
C514 C515 1.363 1_655 S
C514 C519 1.379 . S
C514 N521 1.356 . S
C515 C514 1.363 1_455 S
C515 C518 1.363 . S
N516 C518 1.356 . S
N516 H528 0.984 . S
N516 H529 0.985 . S
N517 C519 1.356 . S
N517 H522 0.984 . S
N517 H523 0.985 . S
C518 C512 1.379 . S
C518 C515 1.363 . S
C518 N516 1.356 . S
C519 C513 1.363 1_655 S
C519 C514 1.379 . S
C519 N517 1.356 . S
N520 C512 1.356 . S
N520 H526 0.984 . S
N520 H527 0.984 . S
N521 C514 1.356 . S
N521 H524 0.984 . S
N521 H525 0.985 . S
H522 N517 0.984 . S
H523 N517 0.985 . S
H524 N521 0.984 . S
H525 N521 0.985 . S
H526 N520 0.984 . S
H527 N520 0.984 . S
H528 N516 0.984 . S
H529 N516 0.985 . S
C530 C531 1.363 . S
C530 C536 1.379 . S
C530 N538 1.356 . S
C531 C530 1.363 . S
C531 C537 1.363 1_545 S
C532 C533 1.363 1_565 S
C532 C537 1.379 . S
C532 N539 1.356 . S
C533 C532 1.363 1_545 S
C533 C536 1.363 . S
N534 C536 1.356 . S
N534 H546 0.984 . S
N534 H547 0.985 . S
N535 C537 1.356 . S
N535 H540 0.984 . S
N535 H541 0.985 . S
C536 C530 1.379 . S
C536 C533 1.363 . S
C536 N534 1.356 . S
C537 C531 1.363 1_565 S
C537 C532 1.379 . S
C537 N535 1.356 . S
N538 C530 1.356 . S
N538 H544 0.984 . S
N538 H545 0.984 . S
N539 C532 1.356 . S
N539 H542 0.984 . S
N539 H543 0.985 . S
H540 N535 0.984 . S
H541 N535 0.985 . S
H542 N539 0.984 . S
H543 N539 0.985 . S
H544 N538 0.984 . S
H545 N538 0.984 . S
H546 N534 0.984 . S
H547 N534 0.985 . S
C548 C549 1.363 . S
C548 C554 1.379 . S
C548 N556 1.356 . S
C549 C548 1.363 . S
C549 C555 1.363 . S
C550 C551 1.363 . S
C550 C555 1.379 . S
C550 N557 1.356 . S
C551 C550 1.363 . S
C551 C554 1.363 . S
N552 C554 1.356 . S
N552 H564 0.984 . S
N552 H565 0.985 . S
N553 C555 1.356 . S
N553 H558 0.984 . S
N553 H559 0.985 . S
C554 C548 1.379 . S
C554 C551 1.363 . S
C554 N552 1.356 . S
C555 C549 1.363 . S
C555 C550 1.379 . S
C555 N553 1.356 . S
N556 C548 1.356 . S
N556 H562 0.984 . S
N556 H563 0.984 . S
N557 C550 1.356 . S
N557 H560 0.984 . S
N557 H561 0.985 . S
H558 N553 0.984 . S
H559 N553 0.985 . S
H560 N557 0.984 . S
H561 N557 0.985 . S
H562 N556 0.984 . S
H563 N556 0.984 . S
H564 N552 0.984 . S
H565 N552 0.985 . S
C566 C567 1.363 . S
C566 C572 1.379 . S
C566 N574 1.356 . S
C567 C566 1.363 . S
C567 C573 1.363 . S
C568 C569 1.363 . S
C568 C573 1.379 . S
C568 N575 1.356 . S
C569 C568 1.363 . S
C569 C572 1.363 . S
N570 C572 1.356 . S
N570 H582 0.984 . S
N570 H583 0.985 . S
N571 C573 1.356 . S
N571 H576 0.984 . S
N571 H577 0.985 . S
C572 C566 1.379 . S
C572 C569 1.363 . S
C572 N570 1.356 . S
C573 C567 1.363 . S
C573 C568 1.379 . S
C573 N571 1.356 . S
N574 C566 1.356 . S
N574 H580 0.984 . S
N574 H581 0.984 . S
N575 C568 1.356 . S
N575 H578 0.984 . S
N575 H579 0.985 . S
H576 N571 0.984 . S
H577 N571 0.985 . S
H578 N575 0.984 . S
H579 N575 0.985 . S
H580 N574 0.984 . S
H581 N574 0.984 . S
H582 N570 0.984 . S
H583 N570 0.985 . S
C584 C585 1.363 1_455 S
C584 C590 1.379 . S
C584 N592 1.356 . S
C585 C584 1.363 1_655 S
C585 C591 1.363 . S
C586 C587 1.363 . S
C586 C591 1.379 . S
C586 N593 1.356 . S
C587 C586 1.363 . S
C587 C590 1.363 1_655 S
N588 C590 1.356 . S
N588 H600 0.984 . S
N588 H601 0.985 . S
N589 C591 1.356 . S
N589 H594 0.984 . S
N589 H595 0.985 . S
C590 C584 1.379 . S
C590 C587 1.363 1_455 S
C590 N588 1.356 . S
C591 C585 1.363 . S
C591 C586 1.379 . S
C591 N589 1.356 . S
N592 C584 1.356 . S
N592 H598 0.984 . S
N592 H599 0.984 . S
N593 C586 1.356 . S
N593 H596 0.984 . S
N593 H597 0.985 . S
H594 N589 0.984 . S
H595 N589 0.985 . S
H596 N593 0.984 . S
H597 N593 0.985 . S
H598 N592 0.984 . S
H599 N592 0.984 . S
H600 N588 0.984 . S
H601 N588 0.985 . S
C602 C603 1.363 1_545 S
C602 C608 1.379 . S
C602 N610 1.356 . S
C603 C602 1.363 1_565 S
C603 C609 1.363 . S
C604 C605 1.363 . S
C604 C609 1.379 . S
C604 N611 1.356 . S
C605 C604 1.363 . S
C605 C608 1.363 1_565 S
N606 C608 1.356 . S
N606 H618 0.984 . S
N606 H619 0.985 . S
N607 C609 1.356 . S
N607 H612 0.984 . S
N607 H613 0.985 . S
C608 C602 1.379 . S
C608 C605 1.363 1_545 S
C608 N606 1.356 . S
C609 C603 1.363 . S
C609 C604 1.379 . S
C609 N607 1.356 . S
N610 C602 1.356 . S
N610 H616 0.984 . S
N610 H617 0.984 . S
N611 C604 1.356 . S
N611 H614 0.984 . S
N611 H615 0.985 . S
H612 N607 0.984 . S
H613 N607 0.985 . S
H614 N611 0.984 . S
H615 N611 0.985 . S
H616 N610 0.984 . S
H617 N610 0.984 . S
H618 N606 0.984 . S
H619 N606 0.985 . S
C620 C621 1.363 . S
C620 C626 1.379 . S
C620 N628 1.356 . S
C621 C620 1.363 . S
C621 C627 1.363 . S
C622 C623 1.363 . S
C622 C627 1.379 . S
C622 N629 1.356 . S
C623 C622 1.363 . S
C623 C626 1.363 . S
N624 C626 1.356 . S
N624 H636 0.984 . S
N624 H637 0.985 . S
N625 C627 1.356 . S
N625 H630 0.984 . S
N625 H631 0.985 . S
C626 C620 1.379 . S
C626 C623 1.363 . S
C626 N624 1.356 . S
C627 C621 1.363 . S
C627 C622 1.379 . S
C627 N625 1.356 . S
N628 C620 1.356 . S
N628 H634 0.984 . S
N628 H635 0.984 . S
N629 C622 1.356 . S
N629 H632 0.984 . S
N629 H633 0.985 . S
H630 N625 0.984 . S
H631 N625 0.985 . S
H632 N629 0.984 . S
H633 N629 0.985 . S
H634 N628 0.984 . S
H635 N628 0.984 . S
H636 N624 0.984 . S
H637 N624 0.985 . S
C638 C639 1.363 . S
C638 C644 1.379 . S
C638 N646 1.356 . S
C639 C638 1.363 . S
C639 C645 1.363 . S
C640 C641 1.363 . S
C640 C645 1.379 . S
C640 N647 1.356 . S
C641 C640 1.363 . S
C641 C644 1.363 . S
N642 C644 1.356 . S
N642 H654 0.984 . S
N642 H655 0.985 . S
N643 C645 1.356 . S
N643 H648 0.984 . S
N643 H649 0.985 . S
C644 C638 1.379 . S
C644 C641 1.363 . S
C644 N642 1.356 . S
C645 C639 1.363 . S
C645 C640 1.379 . S
C645 N643 1.356 . S
N646 C638 1.356 . S
N646 H652 0.984 . S
N646 H653 0.984 . S
N647 C640 1.356 . S
N647 H650 0.984 . S
N647 H651 0.985 . S
H648 N643 0.984 . S
H649 N643 0.985 . S
H650 N647 0.984 . S
H651 N647 0.985 . S
H652 N646 0.984 . S
H653 N646 0.984 . S
H654 N642 0.984 . S
H655 N642 0.985 . S
C656 C657 1.363 . S
C656 C662 1.379 . S
C656 N664 1.356 . S
C657 C656 1.363 . S
C657 C663 1.363 1_454 S
C658 C659 1.363 . S
C658 C663 1.379 . S
C658 N665 1.356 . S
C659 C658 1.363 . S
C659 C662 1.363 1_656 S
N660 C662 1.356 . S
N660 H672 0.984 . S
N660 H673 0.985 . S
N661 C663 1.356 . S
N661 H666 0.984 . S
N661 H667 0.985 . S
C662 C656 1.379 . S
C662 C659 1.363 1_454 S
C662 N660 1.356 . S
C663 C657 1.363 1_656 S
C663 C658 1.379 . S
C663 N661 1.356 . S
N664 C656 1.356 . S
N664 H670 0.984 . S
N664 H671 0.984 . S
N665 C658 1.356 . S
N665 H668 0.984 . S
N665 H669 0.985 . S
H666 N661 0.984 . S
H667 N661 0.985 . S
H668 N665 0.984 . S
H669 N665 0.985 . S
H670 N664 0.984 . S
H671 N664 0.984 . S
H672 N660 0.984 . S
H673 N660 0.985 . S
C674 C675 1.363 1_544 S
C674 C680 1.379 1_455 S
C674 N682 1.356 . S
C675 C674 1.363 1_566 S
C675 C681 1.363 . S
C676 C677 1.363 1_566 S
C676 C681 1.379 1_655 S
C676 N683 1.356 . S
C677 C676 1.363 1_544 S
C677 C680 1.363 . S
N678 C680 1.356 . S
N678 H690 0.984 . S
N678 H691 0.985 . S
N679 C681 1.356 . S
N679 H684 0.984 . S
N679 H685 0.985 . S
C680 C674 1.379 1_655 S
C680 C677 1.363 . S
C680 N678 1.356 . S
C681 C675 1.363 . S
C681 C676 1.379 1_455 S
C681 N679 1.356 . S
N682 C674 1.356 . S
N682 H688 0.984 . S
N682 H689 0.984 1_554 S
N683 C676 1.356 . S
N683 H686 0.984 1_556 S
N683 H687 0.985 . S
H684 N679 0.984 . S
H685 N679 0.985 . S
H686 N683 0.984 1_554 S
H687 N683 0.985 . S
H688 N682 0.984 . S
H689 N682 0.984 1_556 S
H690 N678 0.984 . S
H691 N678 0.985 . S
C692 C693 1.363 1_556 S
C692 C698 1.379 1_565 S
C692 N700 1.356 . S
C693 C692 1.363 1_554 S
C693 C699 1.363 . S
C694 C695 1.363 1_554 S
C694 C699 1.379 1_545 S
C694 N701 1.356 . S
C695 C694 1.363 1_556 S
C695 C698 1.363 . S
N696 C698 1.356 . S
N696 H708 0.984 . S
N696 H709 0.985 . S
N697 C699 1.356 . S
N697 H702 0.984 . S
N697 H703 0.985 . S
C698 C692 1.379 1_545 S
C698 C695 1.363 . S
C698 N696 1.356 . S
C699 C693 1.363 . S
C699 C694 1.379 1_565 S
C699 N697 1.356 . S
N700 C692 1.356 . S
N700 H706 0.984 . S
N700 H707 0.984 . S
N701 C694 1.356 . S
N701 H704 0.984 . S
N701 H705 0.985 . S
H702 N697 0.984 . S
H703 N697 0.985 . S
H704 N701 0.984 . S
H705 N701 0.985 . S
H706 N700 0.984 . S
H707 N700 0.984 . S
H708 N696 0.984 . S
H709 N696 0.985 . S
C710 C711 1.363 1_554 S
C710 C716 1.379 . S
C710 N718 1.356 . S
C711 C710 1.363 1_556 S
C711 C717 1.363 . S
C712 C713 1.363 1_556 S
C712 C717 1.379 . S
C712 N719 1.356 . S
C713 C712 1.363 1_554 S
C713 C716 1.363 . S
N714 C716 1.356 . S
N714 H726 0.984 . S
N714 H727 0.985 . S
N715 C717 1.356 . S
N715 H720 0.984 . S
N715 H721 0.985 . S
C716 C710 1.379 . S
C716 C713 1.363 . S
C716 N714 1.356 . S
C717 C711 1.363 . S
C717 C712 1.379 . S
C717 N715 1.356 . S
N718 C710 1.356 . S
N718 H724 0.984 . S
N718 H725 0.984 1_554 S
N719 C712 1.356 . S
N719 H722 0.984 1_556 S
N719 H723 0.985 . S
H720 N715 0.984 . S
H721 N715 0.985 . S
H722 N719 0.984 1_554 S
H723 N719 0.985 . S
H724 N718 0.984 . S
H725 N718 0.984 1_556 S
H726 N714 0.984 . S
H727 N714 0.985 . S
C728 C729 1.363 1_655 S
C728 C734 1.379 1_565 S
C728 N736 1.356 . S
C729 C728 1.363 1_455 S
C729 C735 1.363 . S
C730 C731 1.363 1_455 S
C730 C735 1.379 1_545 S
C730 N737 1.356 . S
C731 C730 1.363 1_655 S
C731 C734 1.363 . S
N732 C734 1.356 . S
N732 H744 0.984 . S
N732 H745 0.985 . S
N733 C735 1.356 . S
N733 H738 0.984 . S
N733 H739 0.985 . S
C734 C728 1.379 1_545 S
C734 C731 1.363 . S
C734 N732 1.356 . S
C735 C729 1.363 . S
C735 C730 1.379 1_565 S
C735 N733 1.356 . S
N736 C728 1.356 . S
N736 H742 0.984 . S
N736 H743 0.984 . S
N737 C730 1.356 . S
N737 H740 0.984 . S
N737 H741 0.985 . S
H738 N733 0.984 . S
H739 N733 0.985 . S
H740 N737 0.984 . S
H741 N737 0.985 . S
H742 N736 0.984 . S
H743 N736 0.984 . S
H744 N732 0.984 . S
H745 N732 0.985 . S
C746 C747 1.363 1_565 S
C746 C752 1.379 . S
C746 N754 1.356 . S
C747 C746 1.363 1_545 S
C747 C753 1.363 . S
C748 C749 1.363 1_545 S
C748 C753 1.379 . S
C748 N755 1.356 . S
C749 C748 1.363 1_565 S
C749 C752 1.363 . S
N750 C752 1.356 . S
N750 H762 0.984 . S
N750 H763 0.985 . S
N751 C753 1.356 . S
N751 H756 0.984 . S
N751 H757 0.985 . S
C752 C746 1.379 . S
C752 C749 1.363 . S
C752 N750 1.356 . S
C753 C747 1.363 . S
C753 C748 1.379 . S
C753 N751 1.356 . S
N754 C746 1.356 . S
N754 H760 0.984 . S
N754 H761 0.984 . S
N755 C748 1.356 . S
N755 H758 0.984 . S
N755 H759 0.985 . S
H756 N751 0.984 . S
H757 N751 0.985 . S
H758 N755 0.984 . S
H759 N755 0.985 . S
H760 N754 0.984 . S
H761 N754 0.984 . S
H762 N750 0.984 . S
H763 N750 0.985 . S
C764 C765 1.363 . S
C764 C770 1.379 . S
C764 N772 1.356 . S
C765 C764 1.363 . S
C765 C771 1.363 . S
C766 C767 1.363 . S
C766 C771 1.379 . S
C766 N773 1.356 . S
C767 C766 1.363 . S
C767 C770 1.363 . S
N768 C770 1.356 . S
N768 H780 0.984 . S
N768 H781 0.985 . S
N769 C771 1.356 . S
N769 H774 0.984 . S
N769 H775 0.985 . S
C770 C764 1.379 . S
C770 C767 1.363 . S
C770 N768 1.356 . S
C771 C765 1.363 . S
C771 C766 1.379 . S
C771 N769 1.356 . S
N772 C764 1.356 . S
N772 H778 0.984 . S
N772 H779 0.984 . S
N773 C766 1.356 . S
N773 H776 0.984 . S
N773 H777 0.985 . S
H774 N769 0.984 . S
H775 N769 0.985 . S
H776 N773 0.984 . S
H777 N773 0.985 . S
H778 N772 0.984 . S
H779 N772 0.984 . S
H780 N768 0.984 . S
H781 N768 0.985 . S
C782 C783 1.363 . S
C782 C788 1.379 1_655 S
C782 N790 1.356 . S
C783 C782 1.363 . S
C783 C789 1.363 . S
C784 C785 1.363 . S
C784 C789 1.379 1_455 S
C784 N791 1.356 . S
C785 C784 1.363 . S
C785 C788 1.363 . S
N786 C788 1.356 . S
N786 H798 0.984 . S
N786 H799 0.985 . S
N787 C789 1.356 . S
N787 H792 0.984 . S
N787 H793 0.985 . S
C788 C782 1.379 1_455 S
C788 C785 1.363 . S
C788 N786 1.356 . S
C789 C783 1.363 . S
C789 C784 1.379 1_655 S
C789 N787 1.356 . S
N790 C782 1.356 . S
N790 H796 0.984 . S
N790 H797 0.984 . S
N791 C784 1.356 . S
N791 H794 0.984 . S
N791 H795 0.985 . S
H792 N787 0.984 . S
H793 N787 0.985 . S
H794 N791 0.984 . S
H795 N791 0.985 . S
H796 N790 0.984 . S
H797 N790 0.984 . S
H798 N786 0.984 . S
H799 N786 0.985 . S
C225 C3 1.664 . S
C227 C31 1.664 . S
C243 C17 1.664 . S
C245 C45 1.664 . S
C261 C59 1.664 . S
C263 C87 1.664 . S
C279 C101 1.664 . S
C281 C73 1.664 . S
C297 C115 1.664 . S
C299 C143 1.664 . S
C315 C157 1.664 . S
C317 C129 1.664 . S
C333 C199 1.664 . S
C335 C171 1.664 . S
C351 C213 1.664 . S
C353 C185 1.664 . S
C369 C105 1.296 . S
C371 C7 1.296 1_655 S
C387 C21 1.296 1_565 S
C389 C63 1.296 1_655 S
C405 C77 1.296 1_565 S
C407 C35 1.296 . S
C423 C49 1.296 . S
C425 C91 1.296 . S
C441 C217 1.296 . S
C443 C119 1.296 1_455 S
C459 C133 1.296 1_545 S
C461 C175 1.296 1_455 S
C477 C147 1.296 . S
C479 C189 1.296 1_545 S
C495 C203 1.296 . S
C497 C161 1.296 . S
C513 C9 1.084 . S
C515 C65 1.084 . S
C531 C23 1.084 . S
C533 C79 1.084 . S
C549 C93 1.084 . S
C551 C37 1.084 . S
C567 C51 1.084 . S
C569 C107 1.084 . S
C585 C177 1.084 . S
C587 C121 1.084 . S
C603 C191 1.084 . S
C605 C135 1.084 . S
C621 C149 1.084 . S
C623 C205 1.084 . S
C639 C163 1.084 . S
C641 C219 1.084 . S
C657 C8 1.771 . S
C659 C120 1.771 . S
C675 C134 1.771 . S
C677 C22 1.771 . S
C693 C36 1.771 . S
C695 C148 1.771 . S
C711 C162 1.771 . S
C713 C50 1.771 . S
C729 C64 1.771 . S
C731 C176 1.771 . S
C747 C78 1.771 . S
C749 C190 1.771 . S
C765 C204 1.771 . S
C767 C92 1.771 . S
C783 C106 1.771 . S
C785 C218 1.771 . S
