# Generated by pormake.
# Topology umx, (4)-cn, num edge types: 1
# Building blocks:
#     Node 0, Type 0, BuildingBlock: ESEHIV_clean_sbu_0, # of connection points: 4
#     Node 1, Type 0, BuildingBlock: ESEHIV_clean_sbu_0, # of connection points: 4
#     Node 2, Type 0, BuildingBlock: ESEHIV_clean_sbu_0, # of connection points: 4
#     Node 3, Type 0, BuildingBlock: ESEHIV_clean_sbu_0, # of connection points: 4
#     Node 4, Type 0, BuildingBlock: ESEHIV_clean_sbu_0, # of connection points: 4
#     Node 5, Type 0, BuildingBlock: ESEHIV_clean_sbu_0, # of connection points: 4
#     Node 6, Type 0, BuildingBlock: ESEHIV_clean_sbu_0, # of connection points: 4
#     Node 7, Type 0, BuildingBlock: ESEHIV_clean_sbu_0, # of connection points: 4
#     Edge 8, Type (0, 0), BuildingBlock: XUDNAN_clean_linker_2, # of connection points: 2
#     Edge 9, Type (0, 0), BuildingBlock: XUDNAN_clean_linker_2, # of connection points: 2
#     Edge 10, Type (0, 0), BuildingBlock: XUDNAN_clean_linker_2, # of connection points: 2
#     Edge 11, Type (0, 0), BuildingBlock: XUDNAN_clean_linker_2, # of connection points: 2
#     Edge 12, Type (0, 0), BuildingBlock: XUDNAN_clean_linker_2, # of connection points: 2
#     Edge 13, Type (0, 0), BuildingBlock: XUDNAN_clean_linker_2, # of connection points: 2
#     Edge 14, Type (0, 0), BuildingBlock: XUDNAN_clean_linker_2, # of connection points: 2
#     Edge 15, Type (0, 0), BuildingBlock: XUDNAN_clean_linker_2, # of connection points: 2
#     Edge 16, Type (0, 0), BuildingBlock: XUDNAN_clean_linker_2, # of connection points: 2
#     Edge 17, Type (0, 0), BuildingBlock: XUDNAN_clean_linker_2, # of connection points: 2
#     Edge 18, Type (0, 0), BuildingBlock: XUDNAN_clean_linker_2, # of connection points: 2
#     Edge 19, Type (0, 0), BuildingBlock: XUDNAN_clean_linker_2, # of connection points: 2
#     Edge 20, Type (0, 0), BuildingBlock: XUDNAN_clean_linker_2, # of connection points: 2
#     Edge 21, Type (0, 0), BuildingBlock: XUDNAN_clean_linker_2, # of connection points: 2
#     Edge 22, Type (0, 0), BuildingBlock: XUDNAN_clean_linker_2, # of connection points: 2
#     Edge 23, Type (0, 0), BuildingBlock: XUDNAN_clean_linker_2, # of connection points: 2
# Relax obj value: 0.115
# Max RMSD: 0.185
# Mean RMSD: 0.174
data_MOF--net-umx--node1-ESEHIV_clean_sbu_0--edge1-XUDNAN_clean_linker_2
_symmetry_space_group_name_H-M    P1
_symmetry_Int_Tables_number       1
_symmetry_cell_setting            triclinic
loop_
_symmetry_equiv_pos_as_xyz
'x, y, z'
_cell_length_a     38.761641
_cell_length_b     46.026841
_cell_length_c     30.119279
_cell_angle_alpha  89.335596
_cell_angle_beta   88.998179
_cell_angle_gamma 89.844404
loop_
_atom_site_label
_atom_site_type_symbol
_atom_site_fract_x
_atom_site_fract_y
_atom_site_fract_z
_atom_type_partial_charge
Cu0 Cu 0.19702 0.43813 0.10323 0.0
N1 N 0.21933 0.45763 0.05681 0.0
N2 N 0.22908 0.48472 0.996 0.0
C3 C 0.20495 0.47298 1.02367 0.0
C4 C 0.25974 0.47638 1.01259 0.0
C5 C 0.25361 0.45968 0.05011 0.0
O6 O 0.20505 0.39691 0.09515 0.0
C7 C 0.13018 0.45188 0.13825 0.0
O8 O 0.14323 0.44483 0.17684 0.0
H9 H 0.17737 0.47571 1.02033 0.0
H10 H 0.27275 0.44964 0.07108 0.0
N11 N 0.21795 0.44986 0.1552 0.0
N12 N 0.23075 0.47537 0.21525 0.0
C13 C 0.21091 0.47379 0.17898 0.0
C14 C 0.24371 0.43622 0.17638 0.0
C15 C 0.25154 0.4518 0.2136 0.0
C16 C 0.20122 0.37784 0.12576 0.0
O17 O 0.18776 0.38551 0.16423 0.0
H18 H 0.19081 0.48915 0.17054 0.0
H19 H 0.25577 0.41623 0.16562 0.0
O20 O 0.14835 0.44893 0.10299 0.0
H21 H 0.28482 0.4815 0.99825 0.0
H22 H 0.27096 0.44613 0.2376 0.0
Cu23 Cu 0.53907 0.19083 0.55121 0.0
N24 N 0.5656 0.15688 0.55002 0.0
N25 N 0.57626 0.10928 0.55595 0.0
C26 C 0.55516 0.1313 0.56766 0.0
C27 C 0.60093 0.12137 0.52958 0.0
C28 C 0.59437 0.15086 0.52614 0.0
O29 O 0.51475 0.19152 0.60989 0.0
C30 C 0.52717 0.1951 0.45918 0.0
O31 O 0.55982 0.20257 0.45988 0.0
H32 H 0.53129 0.12861 0.58647 0.0
H33 H 0.6085 0.16648 0.50588 0.0
N34 N 0.56584 0.22468 0.54802 0.0
N35 N 0.60573 0.25878 0.55916 0.0
C36 C 0.59617 0.23086 0.56703 0.0
C37 C 0.55582 0.24953 0.52805 0.0
C38 C 0.58038 0.27046 0.53452 0.0
C39 C 0.53235 0.18456 0.64414 0.0
O40 O 0.56484 0.17709 0.6385 0.0
H41 H 0.61064 0.21534 0.58657 0.0
H42 H 0.53182 0.25236 0.51071 0.0
O43 O 0.51148 0.18936 0.49615 0.0
H44 H 0.6215 0.10959 0.5129 0.0
H45 H 0.57902 0.29287 0.52336 0.0
Cu46 Cu 0.83156 0.55076 0.09109 0.0
N47 N 0.81805 0.52998 1.04147 0.0
N48 N 0.82486 0.50376 0.97999 0.0
C49 C 0.83822 0.52458 1.00569 0.0
C50 C 0.79444 0.49653 0.99956 0.0
C51 C 0.79038 0.51267 1.03759 0.0
O52 O 0.81256 0.59008 0.08932 0.0
C53 C 0.89813 0.52715 0.086 0.0
O54 O 0.88065 0.50351 0.0775 0.0
H55 H 0.86331 0.53438 1.0003 0.0
H56 H 0.76986 0.51046 0.06213 0.0
N57 N 0.81798 0.53098 0.14296 0.0
N58 N 0.82467 0.5044 0.20487 0.0
C59 C 0.84037 0.5203 0.17258 0.0
C60 C 0.78669 0.52181 0.15714 0.0
C61 C 0.79075 0.50531 0.19537 0.0
C62 C 0.78036 0.59472 0.08471 0.0
O63 O 0.75949 0.57243 0.08159 0.0
H64 H 0.86794 0.52325 0.16949 0.0
H65 H 0.76275 0.52615 0.1404 0.0
O66 O 0.88194 0.55098 0.09219 0.0
H67 H 0.77759 0.4793 0.98903 0.0
H68 H 0.77036 0.49468 0.21435 0.0
Cu69 Cu 0.46947 0.82536 0.54844 0.0
N70 N 0.47949 0.86472 0.53703 0.0
N71 N 0.50048 0.90995 0.53858 0.0
C72 C 0.49671 0.88446 0.56102 0.0
C73 C 0.4851 0.9061 0.49934 0.0
C74 C 0.47229 0.87836 0.4985 0.0
O75 O 0.48891 0.8128 0.60646 0.0
C76 C 0.46704 0.80605 0.45883 0.0
O77 O 0.43548 0.81612 0.46319 0.0
H78 H 0.50706 0.8801 0.59356 0.0
H79 H 0.45882 0.86872 0.47128 0.0
N80 N 0.42141 0.82119 0.55405 0.0
N81 N 0.36931 0.80165 0.56629 0.0
C82 C 0.40377 0.79785 0.56951 0.0
C83 C 0.39722 0.84051 0.54139 0.0
C84 C 0.36509 0.8284 0.5485 0.0
C85 C 0.47925 0.82658 0.64135 0.0
O86 O 0.4579 0.84859 0.63669 0.0
H87 H 0.41594 0.77819 0.58169 0.0
H88 H 0.40259 0.86169 0.52705 0.0
O89 O 0.48609 0.80533 0.49333 0.0
H90 H 0.48294 0.92234 0.47323 0.0
H91 H 0.34051 0.83845 0.54123 0.0
Cu92 Cu 0.14626 0.61016 0.59687 0.0
N93 N 0.14455 0.58662 0.64749 0.0
N94 N 0.15567 0.56651 0.71358 0.0
C95 C 0.16319 0.58841 0.68466 0.0
C96 C 0.13147 0.55047 0.69351 0.0
C97 C 0.1247 0.56291 0.65294 0.0
O98 O 0.16666 0.64724 0.61174 0.0
C99 C 0.08792 0.58988 0.55336 0.0
O100 O 0.10998 0.56957 0.54153 0.0
H101 H 0.18189 0.60534 0.69012 0.0
H102 H 0.10693 0.55487 0.62877 0.0
N103 N 0.17688 0.59264 0.55687 0.0
N104 N 0.20238 0.57603 0.49516 0.0
C105 C 0.17645 0.59236 0.51218 0.0
C106 C 0.2044 0.5766 0.56842 0.0
C107 C 0.22013 0.56623 0.5305 0.0
C108 C 0.17685 0.66498 0.58156 0.0
O109 O 0.16822 0.66035 0.54025 0.0
H110 H 0.15663 0.60282 0.49276 0.0
H111 H 0.2121 0.57233 0.60223 0.0
O112 O 0.09884 0.61144 0.57531 0.0
H113 H 0.12007 0.53062 0.70647 0.0
H114 H 0.24261 0.55226 0.52914 0.0
Cu115 Cu 0.45257 0.17475 0.05189 0.0
N116 N 0.43112 0.13895 1.04449 0.0
N117 N 0.42562 0.09062 1.04203 0.0
C118 C 0.44522 0.11309 0.05506 0.0
C119 C 0.39776 0.10298 1.02308 0.0
C120 C 0.40129 0.13282 1.02453 0.0
O121 O 0.48145 0.18277 0.99806 0.0
C122 C 0.47758 0.1939 0.1381 0.0
O123 O 0.47288 0.22063 0.12366 0.0
H124 H 0.46993 0.11094 0.07097 0.0
H125 H 0.38397 0.14887 1.0107 0.0
N126 N 0.42032 0.20494 0.05065 0.0
N127 N 0.37439 0.23404 0.05849 0.0
C128 C 0.38889 0.20828 0.07006 0.0
C129 C 0.42579 0.22936 1.02668 0.0
C130 C 0.39772 0.24726 1.03139 0.0
C131 C 0.48872 0.16451 0.9675 0.0
O132 O 0.48452 0.13665 0.97559 0.0
H133 H 0.37687 0.19217 0.09169 0.0
H134 H 0.44891 0.23393 1.00726 0.0
O135 O 0.47338 0.17278 0.1115 0.0
H136 H 0.37703 0.09137 1.00756 0.0
H137 H 0.39509 0.26872 1.01676 0.0
Cu138 Cu 0.86268 0.4121 0.5856 0.0
N139 N 0.88571 0.40278 0.6376 0.0
N140 N 0.89635 0.4059 0.70988 0.0
C141 C 0.87484 0.41304 0.67689 0.0
C142 C 0.92211 0.39053 0.69047 0.0
C143 C 0.91534 0.38848 0.6456 0.0
O144 O 0.81493 0.39888 0.59306 0.0
C145 C 0.90205 0.46039 0.57478 0.0
O146 O 0.92494 0.43938 0.57764 0.0
H147 H 0.8522 0.42668 0.68065 0.0
H148 H 0.93132 0.37816 0.62053 0.0
N149 N 0.88035 0.39385 0.53499 0.0
N150 N 0.89125 0.39229 0.462 0.0
C151 C 0.89131 0.40864 0.49869 0.0
C152 C 0.8732 0.36693 0.52065 0.0
C153 C 0.87967 0.36598 0.47539 0.0
C154 C 0.81102 0.37436 0.61277 0.0
O155 O 0.83835 0.36057 0.62733 0.0
H156 H 0.8947 0.43194 0.49774 0.0
H157 H 0.86055 0.35025 0.54051 0.0
O158 O 0.87005 0.45395 0.5774 0.0
H159 H 0.94438 0.38181 0.70728 0.0
H160 H 0.87353 0.34829 0.45354 0.0
Cu161 Cu 0.55174 0.81142 0.05166 0.0
N162 N 0.54962 0.85173 0.05976 0.0
N163 N 0.53055 0.89766 0.06184 0.0
C164 C 0.52366 0.8701 0.04969 0.0
C165 C 0.56199 0.89643 0.0804 0.0
C166 C 0.57357 0.86813 0.07921 0.0
O167 O 0.52913 0.80153 0.99472 0.0
C168 C 0.51315 0.80476 0.1347 0.0
O169 O 0.49434 0.82639 0.11969 0.0
H170 H 0.50027 0.86331 1.03372 0.0
H171 H 0.59758 0.85995 0.09228 0.0
N172 N 0.59813 0.80061 1.04453 0.0
N173 N 0.64737 0.77507 1.04691 0.0
C174 C 0.61333 0.77562 0.05774 0.0
C175 C 0.62326 0.81626 1.02441 0.0
C176 C 0.6536 0.80066 1.02594 0.0
C177 C 0.5348 0.81826 0.96095 0.0
O178 O 0.55368 0.84157 0.96622 0.0
H179 H 0.59975 0.75836 0.07532 0.0
H180 H 0.61971 0.83753 1.00951 0.0
O181 O 0.53592 0.79345 0.10883 0.0
H182 H 0.57536 0.91451 0.0949 0.0
H183 H 0.67822 0.80747 1.01194 0.0
H184 H 0.24739 0.46706 0.30166 0.0
H185 H 0.207 0.53095 0.20898 0.0
H186 H 0.19819 0.56532 0.27057 0.0
H187 H 0.18946 0.48122 0.38891 0.0
H188 H 0.22044 0.47595 0.43222 0.0
H189 H 0.22591 0.45739 0.38033 0.0
H190 H 0.28706 0.47947 0.37033 0.0
H191 H 0.28183 0.49807 0.42233 0.0
H192 H 0.29245 0.51832 0.37238 0.0
H193 H 0.19043 0.59147 0.34356 0.0
H194 H 0.18488 0.60721 0.42164 0.0
H195 H 0.2308 0.5259 0.46511 0.0
C196 C 0.23746 0.48848 0.29398 0.0
C197 C 0.22798 0.49628 0.25038 0.0
C198 C 0.21418 0.52436 0.24216 0.0
C199 C 0.20929 0.5441 0.27688 0.0
C200 C 0.2185 0.53549 0.31957 0.0
C201 C 0.23245 0.50838 0.32813 0.0
C202 C 0.23864 0.50379 0.37713 0.0
C203 C 0.21733 0.47807 0.39572 0.0
C204 C 0.2773 0.49968 0.38606 0.0
C205 C 0.22553 0.5324 0.39495 0.0
C206 C 0.21416 0.55049 0.36131 0.0
C207 C 0.19954 0.57757 0.37013 0.0
C208 C 0.1963 0.58625 0.41455 0.0
C209 C 0.20758 0.56788 0.4495 0.0
C210 C 0.22263 0.54075 0.43923 0.0
H211 H 0.54572 0.14658 0.71183 0.0
H212 H 0.48839 0.22507 0.68175 0.0
H213 H 0.4731 0.22998 0.76186 0.0
H214 H 0.48501 0.11923 0.79702 0.0
H215 H 0.51883 0.10366 0.83011 0.0
H216 H 0.52437 0.10669 0.77074 0.0
H217 H 0.58098 0.13529 0.78163 0.0
H218 H 0.57528 0.13285 0.84102 0.0
H219 H 0.58018 0.16787 0.8143 0.0
H220 H 0.46867 0.22799 0.84766 0.0
H221 H 0.46662 0.21512 0.92772 0.0
H222 H 0.52315 0.13577 0.90022 0.0
C223 C 0.5295 0.1646 0.72202 0.0
C224 C 0.51817 0.18546 0.69048 0.0
C225 C 0.497 0.20868 0.70516 0.0
C226 C 0.48852 0.21174 0.7507 0.0
C227 C 0.50086 0.19112 0.78109 0.0
C228 C 0.52019 0.16758 0.76703 0.0
C229 C 0.52946 0.14785 0.80584 0.0
C230 C 0.51346 0.11757 0.80062 0.0
C231 C 0.56881 0.14586 0.81098 0.0
C232 C 0.51278 0.16406 0.84425 0.0
C233 C 0.49686 0.18922 0.82949 0.0
C234 C 0.48077 0.20817 0.8593 0.0
C235 C 0.48004 0.20082 0.90492 0.0
C236 C 0.4948 0.17446 0.92054 0.0
C237 C 0.51164 0.15608 0.88952 0.0
H238 H 0.84247 0.3873 0.39949 0.0
H239 H 0.94075 0.42675 0.42767 0.0
H240 H 0.93637 0.4574 0.36 0.0
H241 H 0.8503 0.39092 0.27404 0.0
H242 H 0.80519 0.3997 0.26895 0.0
H243 H 0.81939 0.377 0.31429 0.0
H244 H 0.79005 0.4122 0.36986 0.0
H245 H 0.77647 0.43538 0.32493 0.0
H246 H 0.80193 0.45005 0.36883 0.0
H247 H 0.91743 0.48844 0.29725 0.0
H248 H 0.8873 0.51614 0.23951 0.0
H249 H 0.80041 0.45695 0.25107 0.0
C250 C 0.86375 0.40137 0.38999 0.0
C251 C 0.89242 0.40429 0.41786 0.0
C252 C 0.91907 0.42393 0.40595 0.0
C253 C 0.91667 0.44143 0.36781 0.0
C254 C 0.88735 0.43901 0.34201 0.0
C255 C 0.86151 0.41923 0.35217 0.0
C256 C 0.83114 0.42318 0.32156 0.0
C257 C 0.82623 0.39609 0.293 0.0
C258 C 0.79795 0.43065 0.34788 0.0
C259 C 0.84351 0.44883 0.29363 0.0
C260 C 0.87612 0.45738 0.30578 0.0
C261 C 0.89223 0.48154 0.28669 0.0
C262 C 0.87483 0.49714 0.25377 0.0
C263 C 0.84155 0.4886 0.24007 0.0
C264 C 0.82575 0.46412 0.26061 0.0
H265 H 0.51546 0.85743 0.89744 0.0
H266 H 0.52833 0.76496 0.91988 0.0
H267 H 0.51718 0.7563 0.83999 0.0
H268 H 0.44522 0.85131 0.81834 0.0
H269 H 0.45992 0.88227 0.78615 0.0
H270 H 0.46803 0.88027 0.8448 0.0
H271 H 0.53335 0.88706 0.82844 0.0
H272 H 0.52552 0.88859 0.76972 0.0
H273 H 0.55543 0.86228 0.79168 0.0
H274 H 0.50925 0.75915 0.75356 0.0
H275 H 0.49705 0.77226 0.67498 0.0
H276 H 0.48595 0.86247 0.71229 0.0
C277 C 0.51543 0.83526 0.88576 0.0
C278 C 0.5227 0.81184 0.91514 0.0
C279 C 0.52241 0.78322 0.89831 0.0
C280 C 0.51641 0.77817 0.85279 0.0
C281 C 0.51014 0.80192 0.8245 0.0
C282 C 0.50885 0.82986 0.84085 0.0
C283 C 0.50095 0.85179 0.80438 0.0
C284 C 0.46648 0.86732 0.81399 0.0
C285 C 0.53058 0.87371 0.79821 0.0
C286 C 0.49843 0.83206 0.76457 0.0
C287 C 0.5042 0.80337 0.77642 0.0
C288 C 0.50433 0.78156 0.74433 0.0
C289 C 0.49765 0.7892 0.6996 0.0
C290 C 0.4904 0.81837 0.68725 0.0
C291 C 0.49113 0.83991 0.72048 0.0
H292 H 0.83701 0.41615 0.75553 0.0
H293 H 0.94838 0.41874 0.76578 0.0
H294 H 0.94223 0.44228 0.83905 0.0
H295 H 0.82105 0.48503 0.79788 0.0
H296 H 0.7818 0.4753 0.82734 0.0
H297 H 0.79492 0.45552 0.77869 0.0
H298 H 0.79295 0.40718 0.82366 0.0
H299 H 0.7794 0.42677 0.87242 0.0
H300 H 0.81713 0.40383 0.87405 0.0
H301 H 0.9235 0.46985 0.9076 0.0
H302 H 0.89409 0.49632 0.96812 0.0
H303 H 0.79492 0.47674 0.91105 0.0
C304 C 0.86013 0.42136 0.7734 0.0
C305 C 0.8932 0.41572 0.75496 0.0
C306 C 0.92282 0.42258 0.77954 0.0
C307 C 0.91954 0.4361 0.821 0.0
C308 C 0.88647 0.44232 0.83739 0.0
C309 C 0.85729 0.43483 0.81453 0.0
C310 C 0.82474 0.44509 0.83805 0.0
C311 C 0.80445 0.46651 0.80874 0.0
C312 C 0.80224 0.41917 0.85294 0.0
C313 C 0.84013 0.46015 0.87734 0.0
C314 C 0.87574 0.45822 0.87652 0.0
C315 C 0.89563 0.47134 0.90866 0.0
C316 C 0.87866 0.48664 0.94265 0.0
C317 C 0.84213 0.48879 0.94417 0.0
C318 C 0.82279 0.47526 0.91101 0.0
H319 H 0.46017 0.81606 0.19391 0.0
H320 H 0.56207 0.77727 0.18627 0.0
H321 H 0.56152 0.77114 0.26823 0.0
H322 H 0.47168 0.85612 0.29068 0.0
H323 H 0.42873 0.8501 0.31273 0.0
H324 H 0.43655 0.84948 0.2537 0.0
H325 H 0.41031 0.79785 0.25019 0.0
H326 H 0.40217 0.7984 0.30926 0.0
H327 H 0.42716 0.76931 0.28517 0.0
H328 H 0.55102 0.77386 0.35432 0.0
H329 H 0.52997 0.78171 0.43181 0.0
H330 H 0.43429 0.81648 0.38055 0.0
C331 C 0.48219 0.8058 0.20929 0.0
C332 C 0.51113 0.79706 0.18326 0.0
C333 C 0.5394 0.78387 0.20513 0.0
C334 C 0.53938 0.78045 0.25187 0.0
C335 C 0.51067 0.78991 0.27658 0.0
C336 C 0.48237 0.80187 0.2557 0.0
C337 C 0.45479 0.81069 0.28928 0.0
C338 C 0.44753 0.84354 0.28641 0.0
C339 C 0.42165 0.79301 0.28311 0.0
C340 C 0.47214 0.80254 0.33247 0.0
C341 C 0.50439 0.7906 0.32485 0.0
C342 C 0.52555 0.78282 0.36037 0.0
C343 C 0.51342 0.78736 0.40442 0.0
C344 C 0.48027 0.79942 0.41281 0.0
C345 C 0.45957 0.80682 0.37589 0.0
H346 H 0.17236 0.48397 0.94421 0.0
H347 H 0.27285 0.52402 0.95732 0.0
H348 H 0.26392 0.5515 0.88757 0.0
H349 H 0.17627 0.47515 0.82854 0.0
H350 H 0.13132 0.48322 0.82007 0.0
H351 H 0.14493 0.46794 0.87219 0.0
H352 H 0.11676 0.51107 0.91407 0.0
H353 H 0.10291 0.52643 0.86205 0.0
H354 H 0.12861 0.54774 0.89881 0.0
H355 H 0.24497 0.57271 0.81408 0.0
H356 H 0.21774 0.58561 0.7431 0.0
H357 H 0.12876 0.53312 0.78078 0.0
C358 C 0.19227 0.4989 0.933 0.0
C359 C 0.22333 0.50179 0.95637 0.0
C360 C 0.24901 0.52114 0.93978 0.0
C361 C 0.24407 0.53702 0.90035 0.0
C362 C 0.21324 0.53342 0.87801 0.0
C363 C 0.18774 0.51491 0.89386 0.0
C364 C 0.15749 0.51407 0.86288 0.0
C365 C 0.15222 0.48327 0.84486 0.0
C366 C 0.1245 0.52552 0.88583 0.0
C367 C 0.17015 0.53473 0.82679 0.0
C368 C 0.20227 0.54577 0.83611 0.0
C369 C 0.21963 0.56443 0.80666 0.0
C370 C 0.20384 0.57176 0.76643 0.0
C371 C 0.17102 0.56041 0.75601 0.0
C372 C 0.15397 0.54198 0.78716 0.0
H373 H 0.53605 0.23012 0.38616 0.0
H374 H 0.48335 0.15209 0.43143 0.0
H375 H 0.46569 0.1426 0.354 0.0
H376 H 0.4714 0.2512 0.30303 0.0
H377 H 0.50368 0.26562 0.26508 0.0
H378 H 0.51066 0.26632 0.32404 0.0
H379 H 0.56832 0.2387 0.31232 0.0
H380 H 0.56125 0.23744 0.25345 0.0
H381 H 0.56839 0.20427 0.28437 0.0
H382 H 0.45958 0.13927 0.26899 0.0
H383 H 0.45674 0.14645 0.18752 0.0
H384 H 0.5092 0.22901 0.199 0.0
C385 C 0.52017 0.21133 0.37991 0.0
C386 C 0.5109 0.19189 0.41496 0.0
C387 C 0.4903 0.16749 0.40534 0.0
C388 C 0.48047 0.16182 0.36132 0.0
C389 C 0.49085 0.18107 0.32734 0.0
C390 C 0.50949 0.20577 0.33646 0.0
C391 C 0.51697 0.22336 0.29436 0.0
C392 C 0.49963 0.2534 0.29678 0.0
C393 C 0.55605 0.22609 0.28563 0.0
C394 C 0.50025 0.2045 0.25978 0.0
C395 C 0.48574 0.17996 0.27932 0.0
C396 C 0.47042 0.15864 0.25364 0.0
C397 C 0.46919 0.16279 0.20722 0.0
C398 C 0.48264 0.18833 0.18663 0.0
C399 C 0.49847 0.20933 0.21358 0.0
H400 H 0.94507 0.49284 1.04339 0.0
H401 H 0.93379 0.55377 0.15136 0.0
H402 H 0.99294 0.54185 0.17569 0.0
H403 H 0.99032 0.4391 0.0996 0.0
H404 H 0.01908 0.42981 0.05425 0.0
H405 H 0.97713 0.44475 1.04304 0.0
H406 H 1.00492 0.48626 0.99607 0.0
H407 H 0.04701 0.47119 1.00644 0.0
H408 H 0.03783 0.50849 1.02 0.0
H409 H 0.04968 0.51806 0.19398 0.0
H410 H 0.10421 0.49023 0.19814 0.0
H411 H 0.08083 0.44795 0.07436 0.0
C412 C 0.95547 0.50416 0.07149 0.0
C413 C 0.93515 0.52432 0.09546 0.0
C414 C 0.94927 0.53861 0.13224 0.0
C415 C 0.98267 0.53179 0.14645 0.0
C416 C 1.00174 0.51117 0.12282 0.0
C417 C 0.98902 0.49815 0.08539 0.0
C418 C 0.01464 0.47656 0.06611 0.0
C419 C 0.99937 0.44574 0.06576 0.0
C420 C 0.02683 0.48621 1.01939 0.0
C421 C 0.04339 0.47881 0.09929 0.0
C422 C 0.03527 0.49867 0.132 0.0
C423 C 0.05662 0.50291 0.16808 0.0
C424 C 0.08735 0.48684 0.17037 0.0
C425 C 0.09669 0.46714 0.13644 0.0
C426 C 0.07444 0.46316 0.10043 0.0
H427 H 0.53706 0.94784 0.48728 0.0
H428 H 0.49939 0.93219 0.62164 0.0
H429 H 0.52031 0.98081 0.64332 0.0
H430 H 0.61469 0.99001 0.51747 0.0
H431 H 0.61066 0.01398 0.47008 0.0
H432 H 0.59627 0.97686 0.46699 0.0
H433 H 0.53568 0.99476 0.44382 0.0
H434 H 0.54978 0.03185 0.44701 0.0
H435 H 0.51249 0.01996 0.47879 0.0
H436 H 0.53777 0.03377 0.64684 0.0
H437 H 0.55418 0.08518 0.63349 0.0
H438 H 0.58276 0.06518 0.49764 0.0
C439 C 0.53373 0.95449 0.52144 0.0
C440 C 0.51655 0.93636 0.55284 0.0
C441 C 0.51279 0.94568 0.59727 0.0
C442 C 0.52449 0.97326 0.60975 0.0
C443 C 0.54048 0.99095 0.57756 0.0
C444 C 0.54562 0.98169 0.53446 0.0
C445 C 0.56195 0.00523 0.50554 0.0
C446 C 0.59804 0.99596 0.48906 0.0
C447 C 0.53857 0.01343 0.46651 0.0
C448 C 0.56407 0.02963 0.53861 0.0
C449 C 0.55167 0.02098 0.58004 0.0
C450 C 0.54824 0.04055 0.61485 0.0
C451 C 0.55747 0.06967 0.60698 0.0
C452 C 0.57022 0.0789 0.56481 0.0
C453 C 0.57404 0.05847 0.53051 0.0
H454 H 0.05836 0.5523 0.49702 0.0
H455 H 0.03379 0.61143 0.60388 0.0
H456 H 0.97509 0.59052 0.61004 0.0
H457 H 0.96762 0.54681 0.45007 0.0
H458 H 0.97428 0.50876 0.43918 0.0
H459 H 0.01006 0.53368 0.4351 0.0
H460 H 0.04395 0.5018 0.49095 0.0
H461 H 0.00846 0.47701 0.4953 0.0
H462 H 0.02482 0.49355 0.54462 0.0
H463 H 0.92418 0.55562 0.61547 0.0
H464 H 0.88842 0.51092 0.61978 0.0
H465 H 0.9472 0.47494 0.51007 0.0
C466 C 0.04015 0.56171 0.52046 0.0
C467 C 0.05056 0.58361 0.54974 0.0
C468 C 0.02621 0.59499 0.58057 0.0
C469 C 0.99278 0.58315 0.58434 0.0
C470 C 0.98395 0.56033 0.55652 0.0
C471 C 1.00694 0.55011 0.52461 0.0
C472 C 0.99373 0.52282 0.50321 0.0
C473 C 0.98595 0.52836 0.45396 0.0
C474 C 0.01924 0.49732 0.50892 0.0
C475 C 0.96084 0.51806 0.52999 0.0
C476 C 0.95492 0.54026 0.55978 0.0
C477 C 0.92805 0.5386 0.59138 0.0
C478 C 0.90769 0.51325 0.59352 0.0
C479 C 0.91481 0.4899 0.5647 0.0
C480 C 0.94082 0.49289 0.53171 0.0
H481 H 0.55106 0.95413 0.0568 0.0
H482 H 0.46043 0.899 0.05683 0.0
H483 H 0.42331 0.94255 0.05088 0.0
H484 H 0.51463 0.01057 0.12355 0.0
H485 H 0.53627 0.03943 0.09329 0.0
H486 H 0.5556 0.00385 0.09625 0.0
H487 H 0.55894 0.00207 1.01029 0.0
H488 H 0.53971 0.03768 1.00707 0.0
H489 H 0.5203 0.0077 0.97884 0.0
H490 H 0.39597 0.99275 1.04651 0.0
H491 H 0.38104 0.04499 1.04321 0.0
H492 H 0.48988 0.06662 1.04606 0.0
C493 C 0.52342 0.95112 0.05582 0.0
C494 C 0.50875 0.92302 0.05733 0.0
C495 C 0.47239 0.9202 0.0552 0.0
C496 C 0.45106 0.94485 0.05208 0.0
C497 C 0.46643 0.97221 0.051 0.0
C498 C 0.50181 0.97543 0.05267 0.0
C499 C 0.51199 0.00717 0.05109 0.0
C500 C 0.53072 0.01575 0.09358 0.0
C501 C 0.53403 0.01405 1.00934 0.0
C502 C 0.47679 0.02136 1.04866 0.0
C503 C 0.4508 1.00088 1.04853 0.0
C504 C 0.41616 0.00895 1.04646 0.0
C505 C 0.40792 0.03869 1.04441 0.0
C506 C 0.43419 0.06007 1.04453 0.0
C507 C 0.46905 0.05103 1.04665 0.0
H508 H 0.23358 0.35648 0.05163 0.0
H509 H 0.20739 0.3343 0.18848 0.0
H510 H 0.2433 0.28999 0.1828 0.0
H511 H 0.2395 0.28024 1.00935 0.0
H512 H 0.2755 0.28959 0.97333 0.0
H513 H 0.24284 0.31636 0.98593 0.0
H514 H 0.29005 0.35122 1.01362 0.0
H515 H 0.32272 0.32458 1.00153 0.0
H516 H 0.31859 0.33908 0.05672 0.0
H517 H 0.28944 0.25217 0.16535 0.0
H518 H 0.34054 0.22498 0.13751 0.0
H519 H 0.33497 0.27185 1.0122 0.0
C520 C 0.23449 0.3419 0.08006 0.0
C521 C 0.21755 0.34887 0.12046 0.0
C522 C 0.21993 0.32936 0.15704 0.0
C523 C 0.24027 0.30409 0.15412 0.0
C524 C 0.25771 0.29845 0.11423 0.0
C525 C 0.25461 0.31669 0.07768 0.0
C526 C 0.27849 0.30759 1.04009 0.0
C527 C 0.25784 0.29786 0.9998 0.0
C528 C 0.30396 0.33207 1.02728 0.0
C529 C 0.29666 0.28218 0.06178 0.0
C530 C 0.28406 0.27683 0.10427 0.0
C531 C 0.29901 0.25582 0.13178 0.0
C532 C 0.32796 0.2404 0.11571 0.0
C533 C 0.34183 0.24635 0.07276 0.0
C534 C 0.32516 0.26692 1.04528 0.0
H535 H 0.75691 0.37598 0.5544 0.0
H536 H 0.79038 0.33782 0.67878 0.0
H537 H 0.73966 0.30565 0.68036 0.0
H538 H 0.6621 0.3711 0.57842 0.0
H539 H 0.6527 0.36182 0.52193 0.0
H540 H 0.68914 0.3846 0.53349 0.0
H541 H 0.72922 0.34898 0.49092 0.0
H542 H 0.69306 0.32589 0.47979 0.0
H543 H 0.73021 0.31122 0.50747 0.0
H544 H 0.68932 0.274 0.66484 0.0
H545 H 0.63974 0.24718 0.63547 0.0
H546 H 0.63891 0.30487 0.52052 0.0
C547 C 0.75282 0.36154 0.58263 0.0
C548 C 0.77732 0.35956 0.61672 0.0
C549 C 0.77178 0.33975 0.65246 0.0
C550 C 0.74308 0.32137 0.65366 0.0
C551 C 0.72006 0.32299 0.6188 0.0
C552 C 0.72429 0.34276 0.58416 0.0
C553 C 0.69693 0.33853 0.54944 0.0
C554 C 0.67385 0.36563 0.54561 0.0
C555 C 0.71335 0.33069 0.50425 0.0
C556 C 0.67722 0.31303 0.56963 0.0
C557 C 0.69093 0.30449 0.6097 0.0
C558 C 0.67808 0.28067 0.6337 0.0
C559 C 0.65013 0.26536 0.61654 0.0
C560 C 0.63531 0.27391 0.57578 0.0
C561 C 0.64925 0.29806 0.55212 0.0
H562 H 0.71263 0.6117 0.07674 0.0
H563 H 0.8165 0.64595 0.08588 0.0
H564 H 0.7934 0.69587 0.07919 0.0
H565 H 0.68256 0.66272 0.99602 0.0
H566 H 0.63975 0.66544 1.01998 0.0
H567 H 0.66431 0.63247 1.02679 0.0
H568 H 0.65683 0.63591 0.11222 0.0
H569 H 0.63225 0.66892 0.10567 0.0
H570 H 0.66995 0.6685 0.13987 0.0
H571 H 0.75913 0.74206 0.06931 0.0
H572 H 0.71635 0.78106 0.05776 0.0
H573 H 0.63468 0.71687 0.0551 0.0
C574 C 0.73058 0.62967 0.07755 0.0
C575 C 0.76647 0.62482 0.08186 0.0
C576 C 0.78895 0.64903 0.08268 0.0
C577 C 0.77605 0.6775 0.07891 0.0
C578 C 0.74058 0.68147 0.0745 0.0
C579 C 0.71814 0.65822 0.07394 0.0
C580 C 0.68119 0.6684 0.06825 0.0
C581 C 0.66607 0.65656 1.0252 0.0
C582 C 0.65873 0.65993 0.10893 0.0
C583 C 0.68636 0.70102 0.0653 0.0
C584 C 0.72082 0.70807 0.06904 0.0
C585 C 0.73209 0.73676 0.06641 0.0
C586 C 0.70757 0.75879 0.05957 0.0
C587 C 0.67207 0.75214 0.0554 0.0
C588 C 0.66148 0.72277 0.05868 0.0
H589 H 0.31234 0.78988 0.51905 0.0
H590 H 0.36608 0.76701 0.63939 0.0
H591 H 0.31949 0.73227 0.65998 0.0
H592 H 0.22457 0.78409 0.56274 0.0
H593 H 0.2083 0.76795 0.51306 0.0
H594 H 0.2445 0.7924 0.50959 0.0
H595 H 0.28099 0.75303 0.46955 0.0
H596 H 0.24485 0.72857 0.47259 0.0
H597 H 0.28572 0.71768 0.49517 0.0
H598 H 0.26679 0.70006 0.66701 0.0
H599 H 0.21638 0.66845 0.65588 0.0
H600 H 0.19888 0.71041 0.52842 0.0
C601 C 0.31399 0.77776 0.54996 0.0
C602 C 0.34249 0.78124 0.57798 0.0
C603 C 0.34437 0.76455 0.61761 0.0
C604 C 0.31796 0.74498 0.62963 0.0
C605 C 0.29008 0.74212 0.60131 0.0
C606 C 0.28821 0.75775 0.56195 0.0
C607 C 0.2569 0.74909 0.53575 0.0
C608 C 0.2321 0.77492 0.52996 0.0
C609 C 0.26778 0.73633 0.49061 0.0
C610 C 0.24147 0.72604 0.56639 0.0
C611 C 0.26065 0.7227 0.60438 0.0
C612 C 0.2516 0.70251 0.63738 0.0
C613 C 0.22276 0.68474 0.63085 0.0
C614 C 0.20359 0.68694 0.59128 0.0
C615 C 0.21289 0.70825 0.55908 0.0
loop_
_geom_bond_atom_site_label_1
_geom_bond_atom_site_label_2
_geom_bond_distance
_geom_bond_site_symmetry_2
_ccdc_geom_bond_type
Cu0 N1 1.999 1_554 S
Cu0 O6 1.974 . S
Cu0 N11 1.985 . S
Cu0 O20 1.959 . S
N1 Cu0 1.999 1_556 S
N1 C3 1.263 . S
N1 C5 1.389 . S
N2 C3 1.358 . S
N2 C4 1.400 . S
C3 N1 1.263 . S
C3 N2 1.358 . S
C3 H9 0.930 . S
C4 N2 1.400 . S
C4 C5 1.351 . S
C4 H21 0.930 . S
C5 N1 1.389 . S
C5 C4 1.351 . S
C5 H10 0.930 . S
O6 Cu0 1.974 . S
O6 C16 1.282 . S
C7 O8 1.261 . S
C7 O20 1.251 . S
O8 C7 1.261 . S
H9 C3 0.930 . S
H10 C5 0.930 . S
N11 Cu0 1.985 . S
N11 C13 1.335 . S
N11 C14 1.390 . S
N12 C13 1.345 . S
N12 C15 1.336 . S
C13 N11 1.335 . S
C13 N12 1.345 . S
C13 H18 0.930 . S
C14 N11 1.390 . S
C14 C15 1.346 . S
C14 H19 0.930 . S
C15 N12 1.336 . S
C15 C14 1.346 . S
C15 H22 0.929 . S
C16 O6 1.282 . S
C16 O17 1.216 . S
O17 C16 1.216 . S
H18 C13 0.930 . S
H19 C14 0.930 . S
O20 Cu0 1.959 . S
O20 C7 1.251 . S
H21 C4 0.930 . S
H22 C15 0.929 . S
Cu23 N24 1.999 . S
Cu23 O29 1.974 . S
Cu23 N34 1.985 . S
Cu23 O43 1.959 . S
N24 Cu23 1.999 . S
N24 C26 1.263 . S
N24 C28 1.389 . S
N25 C26 1.358 . S
N25 C27 1.400 . S
C26 N24 1.263 . S
C26 N25 1.358 . S
C26 H32 0.930 . S
C27 N25 1.400 . S
C27 C28 1.351 . S
C27 H44 0.930 . S
C28 N24 1.389 . S
C28 C27 1.351 . S
C28 H33 0.930 . S
O29 Cu23 1.974 . S
O29 C39 1.282 . S
C30 O31 1.261 . S
C30 O43 1.251 . S
O31 C30 1.261 . S
H32 C26 0.930 . S
H33 C28 0.930 . S
N34 Cu23 1.985 . S
N34 C36 1.335 . S
N34 C37 1.390 . S
N35 C36 1.345 . S
N35 C38 1.336 . S
C36 N34 1.335 . S
C36 N35 1.345 . S
C36 H41 0.930 . S
C37 N34 1.390 . S
C37 C38 1.346 . S
C37 H42 0.930 . S
C38 N35 1.336 . S
C38 C37 1.346 . S
C38 H45 0.929 . S
C39 O29 1.282 . S
C39 O40 1.216 . S
O40 C39 1.216 . S
H41 C36 0.930 . S
H42 C37 0.930 . S
O43 Cu23 1.959 . S
O43 C30 1.251 . S
H44 C27 0.930 . S
H45 C38 0.929 . S
Cu46 N47 1.999 1_554 S
Cu46 O52 1.974 . S
Cu46 N57 1.985 . S
Cu46 O66 1.959 . S
N47 Cu46 1.999 1_556 S
N47 C49 1.263 . S
N47 C51 1.389 . S
N48 C49 1.358 . S
N48 C50 1.400 . S
C49 N47 1.263 . S
C49 N48 1.358 . S
C49 H55 0.930 . S
C50 N48 1.400 . S
C50 C51 1.351 . S
C50 H67 0.930 . S
C51 N47 1.389 . S
C51 C50 1.351 . S
C51 H56 0.930 . S
O52 Cu46 1.974 . S
O52 C62 1.282 . S
C53 O54 1.261 . S
C53 O66 1.251 . S
O54 C53 1.261 . S
H55 C49 0.930 . S
H56 C51 0.930 . S
N57 Cu46 1.985 . S
N57 C59 1.335 . S
N57 C60 1.390 . S
N58 C59 1.345 . S
N58 C61 1.336 . S
C59 N57 1.335 . S
C59 N58 1.345 . S
C59 H64 0.930 . S
C60 N57 1.390 . S
C60 C61 1.346 . S
C60 H65 0.930 . S
C61 N58 1.336 . S
C61 C60 1.346 . S
C61 H68 0.929 . S
C62 O52 1.282 . S
C62 O63 1.216 . S
O63 C62 1.216 . S
H64 C59 0.930 . S
H65 C60 0.930 . S
O66 Cu46 1.959 . S
O66 C53 1.251 . S
H67 C50 0.930 . S
H68 C61 0.929 . S
Cu69 N70 1.999 . S
Cu69 O75 1.974 . S
Cu69 N80 1.985 . S
Cu69 O89 1.959 . S
N70 Cu69 1.999 . S
N70 C72 1.263 . S
N70 C74 1.389 . S
N71 C72 1.358 . S
N71 C73 1.400 . S
C72 N70 1.263 . S
C72 N71 1.358 . S
C72 H78 0.930 . S
C73 N71 1.400 . S
C73 C74 1.351 . S
C73 H90 0.930 . S
C74 N70 1.389 . S
C74 C73 1.351 . S
C74 H79 0.930 . S
O75 Cu69 1.974 . S
O75 C85 1.282 . S
C76 O77 1.261 . S
C76 O89 1.251 . S
O77 C76 1.261 . S
H78 C72 0.930 . S
H79 C74 0.930 . S
N80 Cu69 1.985 . S
N80 C82 1.335 . S
N80 C83 1.390 . S
N81 C82 1.345 . S
N81 C84 1.336 . S
C82 N80 1.335 . S
C82 N81 1.345 . S
C82 H87 0.930 . S
C83 N80 1.390 . S
C83 C84 1.346 . S
C83 H88 0.930 . S
C84 N81 1.336 . S
C84 C83 1.346 . S
C84 H91 0.929 . S
C85 O75 1.282 . S
C85 O86 1.216 . S
O86 C85 1.216 . S
H87 C82 0.930 . S
H88 C83 0.930 . S
O89 Cu69 1.959 . S
O89 C76 1.251 . S
H90 C73 0.930 . S
H91 C84 0.929 . S
Cu92 N93 1.999 . S
Cu92 O98 1.974 . S
Cu92 N103 1.985 . S
Cu92 O112 1.959 . S
N93 Cu92 1.999 . S
N93 C95 1.263 . S
N93 C97 1.389 . S
N94 C95 1.358 . S
N94 C96 1.400 . S
C95 N93 1.263 . S
C95 N94 1.358 . S
C95 H101 0.930 . S
C96 N94 1.400 . S
C96 C97 1.351 . S
C96 H113 0.930 . S
C97 N93 1.389 . S
C97 C96 1.351 . S
C97 H102 0.930 . S
O98 Cu92 1.974 . S
O98 C108 1.282 . S
C99 O100 1.261 . S
C99 O112 1.251 . S
O100 C99 1.261 . S
H101 C95 0.930 . S
H102 C97 0.930 . S
N103 Cu92 1.985 . S
N103 C105 1.335 . S
N103 C106 1.390 . S
N104 C105 1.345 . S
N104 C107 1.336 . S
C105 N103 1.335 . S
C105 N104 1.345 . S
C105 H110 0.930 . S
C106 N103 1.390 . S
C106 C107 1.346 . S
C106 H111 0.930 . S
C107 N104 1.336 . S
C107 C106 1.346 . S
C107 H114 0.929 . S
C108 O98 1.282 . S
C108 O109 1.216 . S
O109 C108 1.216 . S
H110 C105 0.930 . S
H111 C106 0.930 . S
O112 Cu92 1.959 . S
O112 C99 1.251 . S
H113 C96 0.930 . S
H114 C107 0.929 . S
Cu115 N116 1.999 . S
Cu115 O121 1.974 1_554 S
Cu115 N126 1.985 . S
Cu115 O135 1.959 . S
N116 Cu115 1.999 . S
N116 C118 1.263 1_554 S
N116 C120 1.389 . S
N117 C118 1.358 1_554 S
N117 C119 1.400 . S
C118 N116 1.263 1_556 S
C118 N117 1.358 1_556 S
C118 H124 0.930 . S
C119 N117 1.400 . S
C119 C120 1.351 . S
C119 H136 0.930 . S
C120 N116 1.389 . S
C120 C119 1.351 . S
C120 H125 0.930 . S
O121 Cu115 1.974 1_556 S
O121 C131 1.282 . S
C122 O123 1.261 . S
C122 O135 1.251 . S
O123 C122 1.261 . S
H124 C118 0.930 . S
H125 C120 0.930 . S
N126 Cu115 1.985 . S
N126 C128 1.335 . S
N126 C129 1.390 1_554 S
N127 C128 1.345 . S
N127 C130 1.336 1_554 S
C128 N126 1.335 . S
C128 N127 1.345 . S
C128 H133 0.930 . S
C129 N126 1.390 1_556 S
C129 C130 1.346 . S
C129 H134 0.930 . S
C130 N127 1.336 1_556 S
C130 C129 1.346 . S
C130 H137 0.929 . S
C131 O121 1.282 . S
C131 O132 1.216 . S
O132 C131 1.216 . S
H133 C128 0.930 . S
H134 C129 0.930 . S
O135 Cu115 1.959 . S
O135 C122 1.251 . S
H136 C119 0.930 . S
H137 C130 0.929 . S
Cu138 N139 1.999 . S
Cu138 O144 1.974 . S
Cu138 N149 1.985 . S
Cu138 O158 1.959 . S
N139 Cu138 1.999 . S
N139 C141 1.263 . S
N139 C143 1.389 . S
N140 C141 1.358 . S
N140 C142 1.400 . S
C141 N139 1.263 . S
C141 N140 1.358 . S
C141 H147 0.930 . S
C142 N140 1.400 . S
C142 C143 1.351 . S
C142 H159 0.930 . S
C143 N139 1.389 . S
C143 C142 1.351 . S
C143 H148 0.930 . S
O144 Cu138 1.974 . S
O144 C154 1.282 . S
C145 O146 1.261 . S
C145 O158 1.251 . S
O146 C145 1.261 . S
H147 C141 0.930 . S
H148 C143 0.930 . S
N149 Cu138 1.985 . S
N149 C151 1.335 . S
N149 C152 1.390 . S
N150 C151 1.345 . S
N150 C153 1.336 . S
C151 N149 1.335 . S
C151 N150 1.345 . S
C151 H156 0.930 . S
C152 N149 1.390 . S
C152 C153 1.346 . S
C152 H157 0.930 . S
C153 N150 1.336 . S
C153 C152 1.346 . S
C153 H160 0.929 . S
C154 O144 1.282 . S
C154 O155 1.216 . S
O155 C154 1.216 . S
H156 C151 0.930 . S
H157 C152 0.930 . S
O158 Cu138 1.959 . S
O158 C145 1.251 . S
H159 C142 0.930 . S
H160 C153 0.929 . S
Cu161 N162 1.999 . S
Cu161 O167 1.974 1_554 S
Cu161 N172 1.985 . S
Cu161 O181 1.959 . S
N162 Cu161 1.999 . S
N162 C164 1.263 1_554 S
N162 C166 1.389 . S
N163 C164 1.358 1_554 S
N163 C165 1.400 . S
C164 N162 1.263 1_556 S
C164 N163 1.358 1_556 S
C164 H170 0.930 . S
C165 N163 1.400 . S
C165 C166 1.351 . S
C165 H182 0.930 . S
C166 N162 1.389 . S
C166 C165 1.351 . S
C166 H171 0.930 . S
O167 Cu161 1.974 1_556 S
O167 C177 1.282 . S
C168 O169 1.261 . S
C168 O181 1.251 . S
O169 C168 1.261 . S
H170 C164 0.930 . S
H171 C166 0.930 . S
N172 Cu161 1.985 . S
N172 C174 1.335 . S
N172 C175 1.390 1_554 S
N173 C174 1.345 . S
N173 C176 1.336 1_554 S
C174 N172 1.335 . S
C174 N173 1.345 . S
C174 H179 0.930 . S
C175 N172 1.390 1_556 S
C175 C176 1.346 . S
C175 H180 0.930 . S
C176 N173 1.336 1_556 S
C176 C175 1.346 . S
C176 H183 0.929 . S
C177 O167 1.282 . S
C177 O178 1.216 . S
O178 C177 1.216 . S
H179 C174 0.930 . S
H180 C175 0.930 . S
O181 Cu161 1.959 . S
O181 C168 1.251 . S
H182 C165 0.930 . S
H183 C176 0.929 . S
H184 C196 0.930 . S
H185 C198 0.930 . S
H186 C199 0.930 . S
H187 C203 0.959 . S
H188 C203 0.959 . S
H189 C203 0.961 . S
H190 C204 0.960 . S
H191 C204 0.961 . S
H192 C204 0.959 . S
H193 C207 0.929 . S
H194 C208 0.931 . S
H195 C210 0.930 . S
C196 H184 0.930 . S
C196 C197 1.399 . S
C196 C201 1.399 . S
C197 C196 1.399 . S
C197 C198 1.376 . S
C198 H185 0.930 . S
C198 C197 1.376 . S
C198 C199 1.388 . S
C199 H186 0.930 . S
C199 C198 1.388 . S
C199 C200 1.390 . S
C200 C199 1.390 . S
C200 C201 1.394 . S
C200 C206 1.465 . S
C201 C196 1.399 . S
C201 C200 1.394 . S
C201 C202 1.516 . S
C202 C201 1.516 . S
C202 C203 1.502 . S
C202 C204 1.561 . S
C202 C205 1.526 . S
C203 H187 0.959 . S
C203 H188 0.959 . S
C203 H189 0.961 . S
C203 C202 1.502 . S
C204 H190 0.960 . S
C204 H191 0.961 . S
C204 H192 0.959 . S
C204 C202 1.561 . S
C205 C202 1.526 . S
C205 C206 1.396 . S
C205 C210 1.390 . S
C206 C200 1.465 . S
C206 C205 1.396 . S
C206 C207 1.399 . S
C207 H193 0.929 . S
C207 C206 1.399 . S
C207 C208 1.385 . S
C208 H194 0.931 . S
C208 C207 1.385 . S
C208 C209 1.389 . S
C209 C208 1.389 . S
C209 C210 1.387 . S
C210 H195 0.930 . S
C210 C205 1.390 . S
C210 C209 1.387 . S
H211 C223 0.930 . S
H212 C225 0.930 . S
H213 C226 0.930 . S
H214 C230 0.959 . S
H215 C230 0.959 . S
H216 C230 0.961 . S
H217 C231 0.960 . S
H218 C231 0.961 . S
H219 C231 0.959 . S
H220 C234 0.929 . S
H221 C235 0.931 . S
H222 C237 0.930 . S
C223 H211 0.930 . S
C223 C224 1.399 . S
C223 C228 1.399 . S
C224 C223 1.399 . S
C224 C225 1.376 . S
C225 H212 0.930 . S
C225 C224 1.376 . S
C225 C226 1.388 . S
C226 H213 0.930 . S
C226 C225 1.388 . S
C226 C227 1.390 . S
C227 C226 1.390 . S
C227 C228 1.394 . S
C227 C233 1.465 . S
C228 C223 1.399 . S
C228 C227 1.394 . S
C228 C229 1.516 . S
C229 C228 1.516 . S
C229 C230 1.502 . S
C229 C231 1.561 . S
C229 C232 1.526 . S
C230 H214 0.959 . S
C230 H215 0.959 . S
C230 H216 0.961 . S
C230 C229 1.502 . S
C231 H217 0.960 . S
C231 H218 0.961 . S
C231 H219 0.959 . S
C231 C229 1.561 . S
C232 C229 1.526 . S
C232 C233 1.396 . S
C232 C237 1.390 . S
C233 C227 1.465 . S
C233 C232 1.396 . S
C233 C234 1.399 . S
C234 H220 0.929 . S
C234 C233 1.399 . S
C234 C235 1.385 . S
C235 H221 0.931 . S
C235 C234 1.385 . S
C235 C236 1.389 . S
C236 C235 1.389 . S
C236 C237 1.387 . S
C237 H222 0.930 . S
C237 C232 1.390 . S
C237 C236 1.387 . S
H238 C250 0.930 . S
H239 C252 0.930 . S
H240 C253 0.930 . S
H241 C257 0.959 . S
H242 C257 0.959 . S
H243 C257 0.961 . S
H244 C258 0.960 . S
H245 C258 0.961 . S
H246 C258 0.959 . S
H247 C261 0.929 . S
H248 C262 0.931 . S
H249 C264 0.930 . S
C250 H238 0.930 . S
C250 C251 1.399 . S
C250 C255 1.399 . S
C251 C250 1.399 . S
C251 C252 1.376 . S
C252 H239 0.930 . S
C252 C251 1.376 . S
C252 C253 1.388 . S
C253 H240 0.930 . S
C253 C252 1.388 . S
C253 C254 1.390 . S
C254 C253 1.390 . S
C254 C255 1.394 . S
C254 C260 1.465 . S
C255 C250 1.399 . S
C255 C254 1.394 . S
C255 C256 1.516 . S
C256 C255 1.516 . S
C256 C257 1.502 . S
C256 C258 1.561 . S
C256 C259 1.526 . S
C257 H241 0.959 . S
C257 H242 0.959 . S
C257 H243 0.961 . S
C257 C256 1.502 . S
C258 H244 0.960 . S
C258 H245 0.961 . S
C258 H246 0.959 . S
C258 C256 1.561 . S
C259 C256 1.526 . S
C259 C260 1.396 . S
C259 C264 1.390 . S
C260 C254 1.465 . S
C260 C259 1.396 . S
C260 C261 1.399 . S
C261 H247 0.929 . S
C261 C260 1.399 . S
C261 C262 1.385 . S
C262 H248 0.931 . S
C262 C261 1.385 . S
C262 C263 1.389 . S
C263 C262 1.389 . S
C263 C264 1.387 . S
C264 H249 0.930 . S
C264 C259 1.390 . S
C264 C263 1.387 . S
H265 C277 0.930 . S
H266 C279 0.930 . S
H267 C280 0.930 . S
H268 C284 0.959 . S
H269 C284 0.959 . S
H270 C284 0.961 . S
H271 C285 0.960 . S
H272 C285 0.961 . S
H273 C285 0.959 . S
H274 C288 0.929 . S
H275 C289 0.931 . S
H276 C291 0.930 . S
C277 H265 0.930 . S
C277 C278 1.399 . S
C277 C282 1.399 . S
C278 C277 1.399 . S
C278 C279 1.376 . S
C279 H266 0.930 . S
C279 C278 1.376 . S
C279 C280 1.388 . S
C280 H267 0.930 . S
C280 C279 1.388 . S
C280 C281 1.390 . S
C281 C280 1.390 . S
C281 C282 1.394 . S
C281 C287 1.465 . S
C282 C277 1.399 . S
C282 C281 1.394 . S
C282 C283 1.516 . S
C283 C282 1.516 . S
C283 C284 1.502 . S
C283 C285 1.561 . S
C283 C286 1.526 . S
C284 H268 0.959 . S
C284 H269 0.959 . S
C284 H270 0.961 . S
C284 C283 1.502 . S
C285 H271 0.960 . S
C285 H272 0.961 . S
C285 H273 0.959 . S
C285 C283 1.561 . S
C286 C283 1.526 . S
C286 C287 1.396 . S
C286 C291 1.390 . S
C287 C281 1.465 . S
C287 C286 1.396 . S
C287 C288 1.399 . S
C288 H274 0.929 . S
C288 C287 1.399 . S
C288 C289 1.385 . S
C289 H275 0.931 . S
C289 C288 1.385 . S
C289 C290 1.389 . S
C290 C289 1.389 . S
C290 C291 1.387 . S
C291 H276 0.930 . S
C291 C286 1.390 . S
C291 C290 1.387 . S
H292 C304 0.930 . S
H293 C306 0.930 . S
H294 C307 0.930 . S
H295 C311 0.959 . S
H296 C311 0.959 . S
H297 C311 0.961 . S
H298 C312 0.960 . S
H299 C312 0.961 . S
H300 C312 0.959 . S
H301 C315 0.929 . S
H302 C316 0.931 . S
H303 C318 0.930 . S
C304 H292 0.930 . S
C304 C305 1.399 . S
C304 C309 1.399 . S
C305 C304 1.399 . S
C305 C306 1.376 . S
C306 H293 0.930 . S
C306 C305 1.376 . S
C306 C307 1.388 . S
C307 H294 0.930 . S
C307 C306 1.388 . S
C307 C308 1.390 . S
C308 C307 1.390 . S
C308 C309 1.394 . S
C308 C314 1.465 . S
C309 C304 1.399 . S
C309 C308 1.394 . S
C309 C310 1.516 . S
C310 C309 1.516 . S
C310 C311 1.502 . S
C310 C312 1.561 . S
C310 C313 1.526 . S
C311 H295 0.959 . S
C311 H296 0.959 . S
C311 H297 0.961 . S
C311 C310 1.502 . S
C312 H298 0.960 . S
C312 H299 0.961 . S
C312 H300 0.959 . S
C312 C310 1.561 . S
C313 C310 1.526 . S
C313 C314 1.396 . S
C313 C318 1.390 . S
C314 C308 1.465 . S
C314 C313 1.396 . S
C314 C315 1.399 . S
C315 H301 0.929 . S
C315 C314 1.399 . S
C315 C316 1.385 . S
C316 H302 0.931 . S
C316 C315 1.385 . S
C316 C317 1.389 . S
C317 C316 1.389 . S
C317 C318 1.387 . S
C318 H303 0.930 . S
C318 C313 1.390 . S
C318 C317 1.387 . S
H319 C331 0.930 . S
H320 C333 0.930 . S
H321 C334 0.930 . S
H322 C338 0.959 . S
H323 C338 0.959 . S
H324 C338 0.961 . S
H325 C339 0.960 . S
H326 C339 0.961 . S
H327 C339 0.959 . S
H328 C342 0.929 . S
H329 C343 0.931 . S
H330 C345 0.930 . S
C331 H319 0.930 . S
C331 C332 1.399 . S
C331 C336 1.399 . S
C332 C331 1.399 . S
C332 C333 1.376 . S
C333 H320 0.930 . S
C333 C332 1.376 . S
C333 C334 1.388 . S
C334 H321 0.930 . S
C334 C333 1.388 . S
C334 C335 1.390 . S
C335 C334 1.390 . S
C335 C336 1.394 . S
C335 C341 1.465 . S
C336 C331 1.399 . S
C336 C335 1.394 . S
C336 C337 1.516 . S
C337 C336 1.516 . S
C337 C338 1.502 . S
C337 C339 1.561 . S
C337 C340 1.526 . S
C338 H322 0.959 . S
C338 H323 0.959 . S
C338 H324 0.961 . S
C338 C337 1.502 . S
C339 H325 0.960 . S
C339 H326 0.961 . S
C339 H327 0.959 . S
C339 C337 1.561 . S
C340 C337 1.526 . S
C340 C341 1.396 . S
C340 C345 1.390 . S
C341 C335 1.465 . S
C341 C340 1.396 . S
C341 C342 1.399 . S
C342 H328 0.929 . S
C342 C341 1.399 . S
C342 C343 1.385 . S
C343 H329 0.931 . S
C343 C342 1.385 . S
C343 C344 1.389 . S
C344 C343 1.389 . S
C344 C345 1.387 . S
C345 H330 0.930 . S
C345 C340 1.390 . S
C345 C344 1.387 . S
H346 C358 0.930 . S
H347 C360 0.930 . S
H348 C361 0.930 . S
H349 C365 0.959 . S
H350 C365 0.959 . S
H351 C365 0.961 . S
H352 C366 0.960 . S
H353 C366 0.961 . S
H354 C366 0.959 . S
H355 C369 0.929 . S
H356 C370 0.931 . S
H357 C372 0.930 . S
C358 H346 0.930 . S
C358 C359 1.399 . S
C358 C363 1.399 . S
C359 C358 1.399 . S
C359 C360 1.376 . S
C360 H347 0.930 . S
C360 C359 1.376 . S
C360 C361 1.388 . S
C361 H348 0.930 . S
C361 C360 1.388 . S
C361 C362 1.390 . S
C362 C361 1.390 . S
C362 C363 1.394 . S
C362 C368 1.465 . S
C363 C358 1.399 . S
C363 C362 1.394 . S
C363 C364 1.516 . S
C364 C363 1.516 . S
C364 C365 1.502 . S
C364 C366 1.561 . S
C364 C367 1.526 . S
C365 H349 0.959 . S
C365 H350 0.959 . S
C365 H351 0.961 . S
C365 C364 1.502 . S
C366 H352 0.960 . S
C366 H353 0.961 . S
C366 H354 0.959 . S
C366 C364 1.561 . S
C367 C364 1.526 . S
C367 C368 1.396 . S
C367 C372 1.390 . S
C368 C362 1.465 . S
C368 C367 1.396 . S
C368 C369 1.399 . S
C369 H355 0.929 . S
C369 C368 1.399 . S
C369 C370 1.385 . S
C370 H356 0.931 . S
C370 C369 1.385 . S
C370 C371 1.389 . S
C371 C370 1.389 . S
C371 C372 1.387 . S
C372 H357 0.930 . S
C372 C367 1.390 . S
C372 C371 1.387 . S
H373 C385 0.930 . S
H374 C387 0.930 . S
H375 C388 0.930 . S
H376 C392 0.959 . S
H377 C392 0.959 . S
H378 C392 0.961 . S
H379 C393 0.960 . S
H380 C393 0.961 . S
H381 C393 0.959 . S
H382 C396 0.929 . S
H383 C397 0.931 . S
H384 C399 0.930 . S
C385 H373 0.930 . S
C385 C386 1.399 . S
C385 C390 1.399 . S
C386 C385 1.399 . S
C386 C387 1.376 . S
C387 H374 0.930 . S
C387 C386 1.376 . S
C387 C388 1.388 . S
C388 H375 0.930 . S
C388 C387 1.388 . S
C388 C389 1.390 . S
C389 C388 1.390 . S
C389 C390 1.394 . S
C389 C395 1.465 . S
C390 C385 1.399 . S
C390 C389 1.394 . S
C390 C391 1.516 . S
C391 C390 1.516 . S
C391 C392 1.502 . S
C391 C393 1.561 . S
C391 C394 1.526 . S
C392 H376 0.959 . S
C392 H377 0.959 . S
C392 H378 0.961 . S
C392 C391 1.502 . S
C393 H379 0.960 . S
C393 H380 0.961 . S
C393 H381 0.959 . S
C393 C391 1.561 . S
C394 C391 1.526 . S
C394 C395 1.396 . S
C394 C399 1.390 . S
C395 C389 1.465 . S
C395 C394 1.396 . S
C395 C396 1.399 . S
C396 H382 0.929 . S
C396 C395 1.399 . S
C396 C397 1.385 . S
C397 H383 0.931 . S
C397 C396 1.385 . S
C397 C398 1.389 . S
C398 C397 1.389 . S
C398 C399 1.387 . S
C399 H384 0.930 . S
C399 C394 1.390 . S
C399 C398 1.387 . S
H400 C412 0.930 1_556 S
H401 C414 0.930 . S
H402 C415 0.930 . S
H403 C419 0.959 . S
H404 C419 0.959 . S
H405 C419 0.961 1_655 S
H406 C420 0.974 . S
H407 C420 0.949 1_455 S
H408 C420 0.958 1_455 S
H409 C423 0.929 . S
H410 C424 0.931 . S
H411 C426 0.930 1_556 S
C412 H400 0.930 1_554 S
C412 C413 1.399 . S
C412 C417 1.399 . S
C413 C412 1.399 . S
C413 C414 1.376 . S
C414 H401 0.930 . S
C414 C413 1.376 . S
C414 C415 1.388 . S
C415 H402 0.930 . S
C415 C414 1.388 . S
C415 C416 1.390 . S
C416 C415 1.390 . S
C416 C417 1.394 . S
C416 C422 1.465 1_655 S
C417 C412 1.399 . S
C417 C416 1.394 . S
C417 C418 1.513 1_655 S
C418 C417 1.513 1_455 S
C418 C419 1.502 1_554 S
C418 C420 1.561 1_454 S
C418 C421 1.529 . S
C419 H403 0.959 . S
C419 H404 0.959 . S
C419 H405 0.961 1_455 S
C419 C418 1.502 1_556 S
C420 H406 0.974 . S
C420 H407 0.949 1_655 S
C420 H408 0.958 1_655 S
C420 C418 1.561 1_656 S
C421 C418 1.529 . S
C421 C422 1.396 . S
C421 C426 1.390 . S
C422 C416 1.465 1_455 S
C422 C421 1.396 . S
C422 C423 1.399 . S
C423 H409 0.929 . S
C423 C422 1.399 . S
C423 C424 1.385 . S
C424 H410 0.931 . S
C424 C423 1.385 . S
C424 C425 1.389 . S
C425 C424 1.389 . S
C425 C426 1.387 . S
C426 H411 0.930 1_554 S
C426 C421 1.390 . S
C426 C425 1.387 . S
H427 C439 0.930 . S
H428 C441 0.930 . S
H429 C442 0.930 . S
H430 C446 0.959 . S
H431 C446 0.959 . S
H432 C446 0.961 1_565 S
H433 C447 0.960 1_565 S
H434 C447 0.961 . S
H435 C447 0.962 . S
H436 C450 0.929 . S
H437 C451 0.931 . S
H438 C453 0.930 . S
C439 H427 0.930 . S
C439 C440 1.399 . S
C439 C444 1.399 . S
C440 C439 1.399 . S
C440 C441 1.376 . S
C441 H428 0.930 . S
C441 C440 1.376 . S
C441 C442 1.388 . S
C442 H429 0.930 . S
C442 C441 1.388 . S
C442 C443 1.390 . S
C443 C442 1.390 . S
C443 C444 1.394 . S
C443 C449 1.465 1_565 S
C444 C439 1.399 . S
C444 C443 1.394 . S
C444 C445 1.516 1_565 S
C445 C444 1.516 1_545 S
C445 C446 1.502 . S
C445 C447 1.561 . S
C445 C448 1.526 . S
C446 H430 0.959 . S
C446 H431 0.959 . S
C446 H432 0.961 1_545 S
C446 C445 1.502 . S
C447 H433 0.960 1_545 S
C447 H434 0.961 . S
C447 H435 0.962 . S
C447 C445 1.561 . S
C448 C445 1.526 . S
C448 C449 1.396 . S
C448 C453 1.390 . S
C449 C443 1.465 1_545 S
C449 C448 1.396 . S
C449 C450 1.399 . S
C450 H436 0.929 . S
C450 C449 1.399 . S
C450 C451 1.385 . S
C451 H437 0.931 . S
C451 C450 1.385 . S
C451 C452 1.389 . S
C452 C451 1.389 . S
C452 C453 1.387 . S
C453 H438 0.930 . S
C453 C448 1.390 . S
C453 C452 1.387 . S
H454 C466 0.930 . S
H455 C468 0.930 . S
H456 C469 0.930 . S
H457 C473 0.959 1_655 S
H458 C473 0.956 1_655 S
H459 C473 0.964 . S
H460 C474 0.936 1_455 S
H461 C474 0.983 . S
H462 C474 0.962 . S
H463 C477 0.929 . S
H464 C478 0.931 . S
H465 C480 0.930 . S
C466 H454 0.930 . S
C466 C467 1.399 . S
C466 C471 1.399 . S
C467 C466 1.399 . S
C467 C468 1.376 . S
C468 H455 0.930 . S
C468 C467 1.376 . S
C468 C469 1.388 . S
C469 H456 0.930 . S
C469 C468 1.388 . S
C469 C470 1.390 . S
C470 C469 1.390 . S
C470 C471 1.394 . S
C470 C476 1.465 1_455 S
C471 C466 1.399 . S
C471 C470 1.394 . S
C471 C472 1.514 . S
C472 C471 1.514 . S
C472 C473 1.502 . S
C472 C474 1.561 1_455 S
C472 C475 1.528 1_455 S
C473 H457 0.959 1_455 S
C473 H458 0.956 1_455 S
C473 H459 0.964 . S
C473 C472 1.502 . S
C474 H460 0.936 1_655 S
C474 H461 0.983 . S
C474 H462 0.962 . S
C474 C472 1.561 1_655 S
C475 C472 1.528 1_655 S
C475 C476 1.396 . S
C475 C480 1.390 . S
C476 C470 1.465 1_655 S
C476 C475 1.396 . S
C476 C477 1.399 . S
C477 H463 0.929 . S
C477 C476 1.399 . S
C477 C478 1.385 . S
C478 H464 0.931 . S
C478 C477 1.385 . S
C478 C479 1.389 . S
C479 C478 1.389 . S
C479 C480 1.387 . S
C480 H465 0.930 . S
C480 C475 1.390 . S
C480 C479 1.387 . S
H481 C493 0.930 . S
H482 C495 0.930 . S
H483 C496 0.930 . S
H484 C500 0.959 . S
H485 C500 0.959 1_545 S
H486 C500 0.961 . S
H487 C501 0.960 1_565 S
H488 C501 0.961 . S
H489 C501 0.959 . S
H490 C504 0.929 . S
H491 C505 0.931 . S
H492 C507 0.930 . S
C493 H481 0.930 . S
C493 C494 1.399 . S
C493 C498 1.399 . S
C494 C493 1.399 . S
C494 C495 1.376 1_556 S
C495 H482 0.930 . S
C495 C494 1.376 1_554 S
C495 C496 1.388 . S
C496 H483 0.930 . S
C496 C495 1.388 . S
C496 C497 1.390 . S
C497 C496 1.390 . S
C497 C498 1.394 1_554 S
C497 C503 1.465 1_565 S
C498 C493 1.399 . S
C498 C497 1.394 1_556 S
C498 C499 1.538 . S
C499 C498 1.538 . S
C499 C500 1.505 . S
C499 C501 1.558 1_565 S
C499 C502 1.503 1_565 S
C500 H484 0.959 . S
C500 H485 0.959 1_565 S
C500 H486 0.961 . S
C500 C499 1.505 . S
C501 H487 0.960 1_545 S
C501 H488 0.961 . S
C501 H489 0.959 . S
C501 C499 1.558 1_545 S
C502 C499 1.503 1_545 S
C502 C503 1.396 1_556 S
C502 C507 1.390 . S
C503 C497 1.465 1_545 S
C503 C502 1.396 1_554 S
C503 C504 1.399 . S
C504 H490 0.929 . S
C504 C503 1.399 . S
C504 C505 1.385 . S
C505 H491 0.931 . S
C505 C504 1.385 . S
C505 C506 1.389 1_554 S
C506 C505 1.389 1_556 S
C506 C507 1.387 . S
C507 H492 0.930 . S
C507 C502 1.390 . S
C507 C506 1.387 . S
H508 C520 0.930 . S
H509 C522 0.930 . S
H510 C523 0.930 . S
H511 C527 0.959 . S
H512 C527 0.959 . S
H513 C527 0.961 . S
H514 C528 0.960 . S
H515 C528 0.961 . S
H516 C528 0.959 . S
H517 C531 0.929 . S
H518 C532 0.931 . S
H519 C534 0.930 1_556 S
C520 H508 0.930 . S
C520 C521 1.399 1_556 S
C520 C525 1.399 1_556 S
C521 C520 1.399 1_554 S
C521 C522 1.376 . S
C522 H509 0.930 . S
C522 C521 1.376 . S
C522 C523 1.388 . S
C523 H510 0.930 . S
C523 C522 1.388 . S
C523 C524 1.390 . S
C524 C523 1.390 . S
C524 C525 1.394 . S
C524 C530 1.465 . S
C525 C520 1.399 1_554 S
C525 C524 1.394 . S
C525 C526 1.516 1_554 S
C526 C525 1.516 1_556 S
C526 C527 1.502 . S
C526 C528 1.561 . S
C526 C529 1.526 1_556 S
C527 H511 0.959 . S
C527 H512 0.959 . S
C527 H513 0.961 . S
C527 C526 1.502 . S
C528 H514 0.960 . S
C528 H515 0.961 . S
C528 H516 0.959 . S
C528 C526 1.561 . S
C529 C526 1.526 1_554 S
C529 C530 1.396 . S
C529 C534 1.390 . S
C530 C524 1.465 . S
C530 C529 1.396 . S
C530 C531 1.399 . S
C531 H517 0.929 . S
C531 C530 1.399 . S
C531 C532 1.385 . S
C532 H518 0.931 . S
C532 C531 1.385 . S
C532 C533 1.389 . S
C533 C532 1.389 . S
C533 C534 1.387 . S
C534 H519 0.930 1_554 S
C534 C529 1.390 . S
C534 C533 1.387 . S
H535 C547 0.930 . S
H536 C549 0.930 . S
H537 C550 0.930 . S
H538 C554 0.959 . S
H539 C554 0.959 . S
H540 C554 0.961 . S
H541 C555 0.960 . S
H542 C555 0.961 . S
H543 C555 0.959 . S
H544 C558 0.929 . S
H545 C559 0.931 . S
H546 C561 0.930 . S
C547 H535 0.930 . S
C547 C548 1.399 . S
C547 C552 1.399 . S
C548 C547 1.399 . S
C548 C549 1.376 . S
C549 H536 0.930 . S
C549 C548 1.376 . S
C549 C550 1.388 . S
C550 H537 0.930 . S
C550 C549 1.388 . S
C550 C551 1.390 . S
C551 C550 1.390 . S
C551 C552 1.394 . S
C551 C557 1.465 . S
C552 C547 1.399 . S
C552 C551 1.394 . S
C552 C553 1.516 . S
C553 C552 1.516 . S
C553 C554 1.502 . S
C553 C555 1.561 . S
C553 C556 1.526 . S
C554 H538 0.959 . S
C554 H539 0.959 . S
C554 H540 0.961 . S
C554 C553 1.502 . S
C555 H541 0.960 . S
C555 H542 0.961 . S
C555 H543 0.959 . S
C555 C553 1.561 . S
C556 C553 1.526 . S
C556 C557 1.396 . S
C556 C561 1.390 . S
C557 C551 1.465 . S
C557 C556 1.396 . S
C557 C558 1.399 . S
C558 H544 0.929 . S
C558 C557 1.399 . S
C558 C559 1.385 . S
C559 H545 0.931 . S
C559 C558 1.385 . S
C559 C560 1.389 . S
C560 C559 1.389 . S
C560 C561 1.387 . S
C561 H546 0.930 . S
C561 C556 1.390 . S
C561 C560 1.387 . S
H562 C574 0.930 . S
H563 C576 0.930 . S
H564 C577 0.930 . S
H565 C581 0.959 . S
H566 C581 0.959 . S
H567 C581 0.961 . S
H568 C582 0.960 . S
H569 C582 0.961 . S
H570 C582 0.959 . S
H571 C585 0.929 . S
H572 C586 0.931 . S
H573 C588 0.930 . S
C574 H562 0.930 . S
C574 C575 1.399 . S
C574 C579 1.399 . S
C575 C574 1.399 . S
C575 C576 1.376 1_554 S
C576 H563 0.930 . S
C576 C575 1.376 1_556 S
C576 C577 1.388 . S
C577 H564 0.930 . S
C577 C576 1.388 . S
C577 C578 1.390 1_556 S
C578 C577 1.390 1_554 S
C578 C579 1.394 . S
C578 C584 1.465 . S
C579 C574 1.399 . S
C579 C578 1.394 . S
C579 C580 1.516 . S
C580 C579 1.516 . S
C580 C581 1.502 . S
C580 C582 1.561 . S
C580 C583 1.526 . S
C581 H565 0.959 . S
C581 H566 0.959 . S
C581 H567 0.961 . S
C581 C580 1.502 . S
C582 H568 0.960 . S
C582 H569 0.961 . S
C582 H570 0.959 . S
C582 C580 1.561 . S
C583 C580 1.526 . S
C583 C584 1.396 . S
C583 C588 1.390 . S
C584 C578 1.465 . S
C584 C583 1.396 . S
C584 C585 1.399 1_554 S
C585 H571 0.929 . S
C585 C584 1.399 1_556 S
C585 C586 1.385 . S
C586 H572 0.931 . S
C586 C585 1.385 . S
C586 C587 1.389 1_556 S
C587 C586 1.389 1_554 S
C587 C588 1.387 . S
C588 H573 0.930 . S
C588 C583 1.390 . S
C588 C587 1.387 . S
H589 C601 0.930 . S
H590 C603 0.930 . S
H591 C604 0.930 . S
H592 C608 0.959 . S
H593 C608 0.959 . S
H594 C608 0.961 . S
H595 C609 0.960 . S
H596 C609 0.961 . S
H597 C609 0.959 . S
H598 C612 0.929 . S
H599 C613 0.931 . S
H600 C615 0.930 . S
C601 H589 0.930 . S
C601 C602 1.399 . S
C601 C606 1.399 . S
C602 C601 1.399 . S
C602 C603 1.376 . S
C603 H590 0.930 . S
C603 C602 1.376 . S
C603 C604 1.388 . S
C604 H591 0.930 . S
C604 C603 1.388 . S
C604 C605 1.390 . S
C605 C604 1.390 . S
C605 C606 1.394 . S
C605 C611 1.465 . S
C606 C601 1.399 . S
C606 C605 1.394 . S
C606 C607 1.516 . S
C607 C606 1.516 . S
C607 C608 1.502 . S
C607 C609 1.561 . S
C607 C610 1.526 . S
C608 H592 0.959 . S
C608 H593 0.959 . S
C608 H594 0.961 . S
C608 C607 1.502 . S
C609 H595 0.960 . S
C609 H596 0.961 . S
C609 H597 0.959 . S
C609 C607 1.561 . S
C610 C607 1.526 . S
C610 C611 1.396 . S
C610 C615 1.390 . S
C611 C605 1.465 . S
C611 C610 1.396 . S
C611 C612 1.399 . S
C612 H598 0.929 . S
C612 C611 1.399 . S
C612 C613 1.385 . S
C613 H599 0.931 . S
C613 C612 1.385 . S
C613 C614 1.389 . S
C614 C613 1.389 . S
C614 C615 1.387 . S
C615 H600 0.930 . S
C615 C610 1.390 . S
C615 C614 1.387 . S
C197 N12 0.479 . S
C209 N104 0.407 . S
C224 C39 1.778 . S
C236 C131 1.765 . S
C251 N150 0.447 . S
C263 N58 0.385 . S
C278 C177 1.777 . S
C290 C85 1.765 . S
C305 N140 1.253 . S
C317 N48 1.354 . S
C332 C168 2.667 . S
C344 C76 2.660 . S
C359 N2 1.264 . S
C371 N94 1.339 . S
C386 C30 2.672 . S
C398 C122 2.659 . S
C413 C53 1.862 . S
C425 C7 1.889 . S
C440 N71 1.745 . S
C452 N25 1.828 . S
C467 C99 1.877 . S
C479 C145 1.847 . S
C494 N163 1.788 1_556 S
C506 N117 1.739 1_556 S
C521 C16 1.814 . S
C533 N127 1.830 . S
C548 C154 1.785 . S
C560 N35 1.770 . S
C575 C62 1.794 . S
C587 N173 1.763 . S
C602 N81 1.786 . S
C614 C108 1.840 . S
