# Generated by pormake.
# Topology ecv, (8)-cn, num edge types: 1
# Building blocks:
#     Node 0, Type 0, BuildingBlock: EBIMEJ_clean_sbu_0, # of connection points: 8
#     Node 1, Type 0, BuildingBlock: EBIMEJ_clean_sbu_0, # of connection points: 8
#     Node 2, Type 0, BuildingBlock: EBIMEJ_clean_sbu_0, # of connection points: 8
#     Node 3, Type 0, BuildingBlock: EBIMEJ_clean_sbu_0, # of connection points: 8
#     Node 4, Type 0, BuildingBlock: EBIMEJ_clean_sbu_0, # of connection points: 8
#     Node 5, Type 0, BuildingBlock: EBIMEJ_clean_sbu_0, # of connection points: 8
#     Node 6, Type 0, BuildingBlock: EBIMEJ_clean_sbu_0, # of connection points: 8
#     Node 7, Type 0, BuildingBlock: EBIMEJ_clean_sbu_0, # of connection points: 8
#     Node 8, Type 0, BuildingBlock: EBIMEJ_clean_sbu_0, # of connection points: 8
#     Node 9, Type 0, BuildingBlock: EBIMEJ_clean_sbu_0, # of connection points: 8
#     Node 10, Type 0, BuildingBlock: EBIMEJ_clean_sbu_0, # of connection points: 8
#     Node 11, Type 0, BuildingBlock: EBIMEJ_clean_sbu_0, # of connection points: 8
#     Node 12, Type 0, BuildingBlock: EBIMEJ_clean_sbu_0, # of connection points: 8
#     Node 13, Type 0, BuildingBlock: EBIMEJ_clean_sbu_0, # of connection points: 8
#     Node 14, Type 0, BuildingBlock: EBIMEJ_clean_sbu_0, # of connection points: 8
#     Node 15, Type 0, BuildingBlock: EBIMEJ_clean_sbu_0, # of connection points: 8
#     Edge 16, Type (0, 0), BuildingBlock: EZIPEK_clean_linker_0, # of connection points: 2
#     Edge 17, Type (0, 0), BuildingBlock: EZIPEK_clean_linker_0, # of connection points: 2
#     Edge 18, Type (0, 0), BuildingBlock: EZIPEK_clean_linker_0, # of connection points: 2
#     Edge 19, Type (0, 0), BuildingBlock: EZIPEK_clean_linker_0, # of connection points: 2
#     Edge 20, Type (0, 0), BuildingBlock: EZIPEK_clean_linker_0, # of connection points: 2
#     Edge 21, Type (0, 0), BuildingBlock: EZIPEK_clean_linker_0, # of connection points: 2
#     Edge 22, Type (0, 0), BuildingBlock: EZIPEK_clean_linker_0, # of connection points: 2
#     Edge 23, Type (0, 0), BuildingBlock: EZIPEK_clean_linker_0, # of connection points: 2
#     Edge 24, Type (0, 0), BuildingBlock: EZIPEK_clean_linker_0, # of connection points: 2
#     Edge 25, Type (0, 0), BuildingBlock: EZIPEK_clean_linker_0, # of connection points: 2
#     Edge 26, Type (0, 0), BuildingBlock: EZIPEK_clean_linker_0, # of connection points: 2
#     Edge 27, Type (0, 0), BuildingBlock: EZIPEK_clean_linker_0, # of connection points: 2
#     Edge 28, Type (0, 0), BuildingBlock: EZIPEK_clean_linker_0, # of connection points: 2
#     Edge 29, Type (0, 0), BuildingBlock: EZIPEK_clean_linker_0, # of connection points: 2
#     Edge 30, Type (0, 0), BuildingBlock: EZIPEK_clean_linker_0, # of connection points: 2
#     Edge 31, Type (0, 0), BuildingBlock: EZIPEK_clean_linker_0, # of connection points: 2
#     Edge 32, Type (0, 0), BuildingBlock: EZIPEK_clean_linker_0, # of connection points: 2
#     Edge 33, Type (0, 0), BuildingBlock: EZIPEK_clean_linker_0, # of connection points: 2
#     Edge 34, Type (0, 0), BuildingBlock: EZIPEK_clean_linker_0, # of connection points: 2
#     Edge 35, Type (0, 0), BuildingBlock: EZIPEK_clean_linker_0, # of connection points: 2
#     Edge 36, Type (0, 0), BuildingBlock: EZIPEK_clean_linker_0, # of connection points: 2
#     Edge 37, Type (0, 0), BuildingBlock: EZIPEK_clean_linker_0, # of connection points: 2
#     Edge 38, Type (0, 0), BuildingBlock: EZIPEK_clean_linker_0, # of connection points: 2
#     Edge 39, Type (0, 0), BuildingBlock: EZIPEK_clean_linker_0, # of connection points: 2
#     Edge 40, Type (0, 0), BuildingBlock: EZIPEK_clean_linker_0, # of connection points: 2
#     Edge 41, Type (0, 0), BuildingBlock: EZIPEK_clean_linker_0, # of connection points: 2
#     Edge 42, Type (0, 0), BuildingBlock: EZIPEK_clean_linker_0, # of connection points: 2
#     Edge 43, Type (0, 0), BuildingBlock: EZIPEK_clean_linker_0, # of connection points: 2
#     Edge 44, Type (0, 0), BuildingBlock: EZIPEK_clean_linker_0, # of connection points: 2
#     Edge 45, Type (0, 0), BuildingBlock: EZIPEK_clean_linker_0, # of connection points: 2
#     Edge 46, Type (0, 0), BuildingBlock: EZIPEK_clean_linker_0, # of connection points: 2
#     Edge 47, Type (0, 0), BuildingBlock: EZIPEK_clean_linker_0, # of connection points: 2
#     Edge 48, Type (0, 0), BuildingBlock: EZIPEK_clean_linker_0, # of connection points: 2
#     Edge 49, Type (0, 0), BuildingBlock: EZIPEK_clean_linker_0, # of connection points: 2
#     Edge 50, Type (0, 0), BuildingBlock: EZIPEK_clean_linker_0, # of connection points: 2
#     Edge 51, Type (0, 0), BuildingBlock: EZIPEK_clean_linker_0, # of connection points: 2
#     Edge 52, Type (0, 0), BuildingBlock: EZIPEK_clean_linker_0, # of connection points: 2
#     Edge 53, Type (0, 0), BuildingBlock: EZIPEK_clean_linker_0, # of connection points: 2
#     Edge 54, Type (0, 0), BuildingBlock: EZIPEK_clean_linker_0, # of connection points: 2
#     Edge 55, Type (0, 0), BuildingBlock: EZIPEK_clean_linker_0, # of connection points: 2
#     Edge 56, Type (0, 0), BuildingBlock: EZIPEK_clean_linker_0, # of connection points: 2
#     Edge 57, Type (0, 0), BuildingBlock: EZIPEK_clean_linker_0, # of connection points: 2
#     Edge 58, Type (0, 0), BuildingBlock: EZIPEK_clean_linker_0, # of connection points: 2
#     Edge 59, Type (0, 0), BuildingBlock: EZIPEK_clean_linker_0, # of connection points: 2
#     Edge 60, Type (0, 0), BuildingBlock: EZIPEK_clean_linker_0, # of connection points: 2
#     Edge 61, Type (0, 0), BuildingBlock: EZIPEK_clean_linker_0, # of connection points: 2
#     Edge 62, Type (0, 0), BuildingBlock: EZIPEK_clean_linker_0, # of connection points: 2
#     Edge 63, Type (0, 0), BuildingBlock: EZIPEK_clean_linker_0, # of connection points: 2
#     Edge 64, Type (0, 0), BuildingBlock: EZIPEK_clean_linker_0, # of connection points: 2
#     Edge 65, Type (0, 0), BuildingBlock: EZIPEK_clean_linker_0, # of connection points: 2
#     Edge 66, Type (0, 0), BuildingBlock: EZIPEK_clean_linker_0, # of connection points: 2
#     Edge 67, Type (0, 0), BuildingBlock: EZIPEK_clean_linker_0, # of connection points: 2
#     Edge 68, Type (0, 0), BuildingBlock: EZIPEK_clean_linker_0, # of connection points: 2
#     Edge 69, Type (0, 0), BuildingBlock: EZIPEK_clean_linker_0, # of connection points: 2
#     Edge 70, Type (0, 0), BuildingBlock: EZIPEK_clean_linker_0, # of connection points: 2
#     Edge 71, Type (0, 0), BuildingBlock: EZIPEK_clean_linker_0, # of connection points: 2
#     Edge 72, Type (0, 0), BuildingBlock: EZIPEK_clean_linker_0, # of connection points: 2
#     Edge 73, Type (0, 0), BuildingBlock: EZIPEK_clean_linker_0, # of connection points: 2
#     Edge 74, Type (0, 0), BuildingBlock: EZIPEK_clean_linker_0, # of connection points: 2
#     Edge 75, Type (0, 0), BuildingBlock: EZIPEK_clean_linker_0, # of connection points: 2
#     Edge 76, Type (0, 0), BuildingBlock: EZIPEK_clean_linker_0, # of connection points: 2
#     Edge 77, Type (0, 0), BuildingBlock: EZIPEK_clean_linker_0, # of connection points: 2
#     Edge 78, Type (0, 0), BuildingBlock: EZIPEK_clean_linker_0, # of connection points: 2
#     Edge 79, Type (0, 0), BuildingBlock: EZIPEK_clean_linker_0, # of connection points: 2
# Relax obj value: 0.075
# Max RMSD: 0.177
# Mean RMSD: 0.177
data_MOF--net-ecv--node1-EBIMEJ_clean_sbu_0--edge1-EZIPEK_clean_linker_0
_symmetry_space_group_name_H-M    P1
_symmetry_Int_Tables_number       1
_symmetry_cell_setting            triclinic
loop_
_symmetry_equiv_pos_as_xyz
'x, y, z'
_cell_length_a     12.500452
_cell_length_b     22.451175
_cell_length_c     106.39063
_cell_angle_alpha  100.72673
_cell_angle_beta   90.125218
_cell_angle_gamma 89.849766
loop_
_atom_site_label
_atom_site_type_symbol
_atom_site_fract_x
_atom_site_fract_y
_atom_site_fract_z
_atom_type_partial_charge
Co0 Co 0.19389 0.21385 0.4376 0.0
Co1 Co 0.10957 0.09982 0.45074 0.0
Co2 Co 0.1933 0.21022 0.46798 0.0
H3 H 0.19783 0.19582 0.4526 0.0
O4 O 0.22124 0.15957 0.44994 0.0
H5 H 0.11545 0.11384 0.46611 0.0
O6 O 0.0867 0.14895 0.46879 0.0
Co7 Co 0.13617 0.0967 0.48085 0.0
O8 O 0.99219 0.06274 0.47433 0.0
O9 O 0.00561 0.03842 0.453 0.0
O10 O 0.21956 0.15814 0.49374 0.0
O11 O 0.18057 0.24421 0.48692 0.0
O12 O 0.21535 0.19853 0.41784 0.0
O13 O 0.34076 0.23018 0.42974 0.0
O14 O 0.26281 0.04426 0.47339 0.0
O15 O 0.22561 0.03664 0.45257 0.0
C16 C 0.31695 0.2979 0.45827 0.0
C17 C 0.07151 0.10417 0.42395 0.0
C18 C 0.07553 0.06422 0.50099 0.0
C19 C 0.04663 0.29719 0.45477 0.0
C20 C 0.97232 0.02827 0.46369 0.0
C21 C 0.21023 0.21581 0.49579 0.0
C22 C 0.31179 0.2144 0.41831 0.0
C23 C 0.27741 1.01907 0.46173 0.0
O24 O 0.27382 0.28529 0.44725 0.0
O25 O 0.3064 0.26727 0.46698 0.0
O26 O 0.10521 0.07021 0.43165 0.0
O27 O 0.08547 0.1616 0.42619 0.0
O28 O 0.1704 0.07831 0.49886 0.0
O29 O 0.01611 0.06864 0.4917 0.0
O30 O 0.08122 0.27791 0.44347 0.0
O31 O 0.07841 0.27322 0.46437 0.0
Co32 Co 0.20572 0.06597 0.85756 0.0
Co33 Co 0.11329 0.18191 0.84604 0.0
Co34 Co 0.20054 0.0762 0.82767 0.0
H35 H 0.20699 0.08748 0.84296 0.0
O36 O 0.22893 0.12365 0.84595 0.0
H37 H 0.11833 0.17234 0.83065 0.0
O38 O 0.09099 0.13722 0.82761 0.0
Co39 Co 0.13633 0.19301 0.8162 0.0
O40 O 0.98964 0.22067 0.82337 0.0
O41 O 0.00489 0.24288 0.84467 0.0
O42 O 0.21309 0.13363 0.80226 0.0
O43 O 0.1873 0.04524 0.80863 0.0
O44 O 0.27247 0.02538 0.87189 0.0
O45 O 0.3057 0.11473 0.87151 0.0
O46 O 0.26433 0.24223 0.8242 0.0
O47 O 0.22534 0.2483 0.84495 0.0
C48 C 0.34608 0.99307 0.83687 0.0
C49 C 0.06318 0.1625 0.87108 0.0
C50 C 0.08443 0.23121 0.79634 0.0
C51 C 0.06084 0.98391 0.83998 0.0
C52 C 0.96989 0.25439 0.83414 0.0
C53 C 0.20936 0.07576 0.79986 0.0
C54 C 0.32233 0.07165 0.8773 0.0
C55 C 0.27765 0.26668 0.83593 0.0
O56 O 0.30714 1.00353 0.84816 0.0
O57 O 0.31634 0.01966 0.82802 0.0
O58 O 0.10705 0.20255 0.86546 0.0
O59 O 0.06842 0.10675 0.86567 0.0
O60 O 0.17781 0.23381 0.80089 0.0
O61 O 0.02194 0.20588 0.80291 0.0
O62 O 0.10009 0.9992 0.85119 0.0
O63 O 0.08766 1.01192 0.83082 0.0
Co64 Co 0.87139 0.94246 0.56618 0.0
Co65 Co 0.80795 0.82507 0.57812 0.0
Co66 Co 0.89342 0.93335 0.59585 0.0
H67 H 0.89008 0.92137 0.58054 0.0
O68 O 0.9167 0.88597 0.57761 0.0
H69 H 0.80101 0.83954 0.59349 0.0
O70 O 0.77758 0.87587 0.5961 0.0
Co71 Co 0.80486 0.82167 0.60847 0.0
O72 O 0.72559 0.75039 0.5988 0.0
O73 O 0.69447 0.76727 0.57894 0.0
O74 O 0.91364 0.87118 0.62033 0.0
O75 O 0.89442 0.9624 0.61497 0.0
O76 O 0.84412 0.95315 0.54754 0.0
O77 O 0.99092 0.97643 0.55621 0.0
O78 O 0.92047 0.75919 0.60288 0.0
O79 O 0.92204 0.76192 0.5819 0.0
C80 C 0.02289 1.01711 0.58555 0.0
C81 C 0.80165 0.82215 0.55033 0.0
C82 C 0.68622 0.82299 0.62768 0.0
C83 C 0.73479 0.02294 0.58501 0.0
C84 C 0.68296 0.73719 0.58777 0.0
C85 C 0.92775 0.92853 0.62267 0.0
C86 C 0.93601 0.97398 0.54626 0.0
C87 C 0.95489 0.73915 0.59161 0.0
O88 O 0.96922 1.00683 0.5752 0.0
O89 O 0.01067 0.98832 0.59458 0.0
O90 O 0.82275 0.79179 0.55918 0.0
O91 O 0.79816 0.87997 0.55252 0.0
O92 O 0.78387 0.83615 0.62816 0.0
O93 O 0.65627 0.80863 0.61626 0.0
O94 O 0.75796 1.00325 0.57334 0.0
O95 O 0.7799 0.99983 0.594 0.0
Co96 Co 0.86188 0.85358 0.23106 0.0
Co97 Co 0.80584 0.97276 0.21849 0.0
Co98 Co 0.89284 0.86195 0.20155 0.0
H99 H 0.8844 0.87433 0.2168 0.0
O100 O 0.91057 0.90973 0.21983 0.0
H101 H 0.7981 0.95476 0.2032 0.0
O102 O 0.77561 0.91811 0.20094 0.0
Co103 Co 0.79592 0.96803 0.18785 0.0
O104 O 0.65816 1.0024 0.19603 0.0
O105 O 0.70315 0.03544 0.21643 0.0
O106 O 0.92191 0.92682 0.17767 0.0
O107 O 0.90206 0.8344 0.18229 0.0
O108 O 0.8242 0.82873 0.2483 0.0
O109 O 0.98294 0.83464 0.24294 0.0
O110 O 0.9216 0.02461 0.19276 0.0
O111 O 0.92183 0.03182 0.21398 0.0
C112 C 0.01203 0.77567 0.21206 0.0
C113 C 0.79912 0.97888 0.24639 0.0
C114 C 0.67446 0.96688 0.16894 0.0
C115 C 0.73139 0.7717 0.21166 0.0
C116 C 0.6522 0.04067 0.20638 0.0
C117 C 0.93962 0.86974 0.17511 0.0
C118 C 0.92038 0.82177 0.25125 0.0
C119 C 0.95567 0.04978 0.20375 0.0
O120 O 0.95276 0.7851 0.22196 0.0
O121 O 0.01019 0.80777 0.20348 0.0
O122 O 0.81916 1.00849 0.23736 0.0
O123 O 0.7971 0.92093 0.2445 0.0
O124 O 0.77065 0.98349 0.16935 0.0
O125 O 0.64796 0.95074 0.17915 0.0
O126 O 0.75034 0.79249 0.22342 0.0
O127 O 0.77995 0.79417 0.20282 0.0
Co128 Co 0.20229 0.7145 0.9374 0.0
Co129 Co 0.10724 0.60614 0.95047 0.0
Co130 Co 0.19317 0.71459 0.96791 0.0
H131 H 0.20118 0.69862 0.95255 0.0
O132 O 0.22457 0.66211 0.95025 0.0
H133 H 0.11096 0.61682 0.96579 0.0
O134 O 0.08614 0.65251 0.96879 0.0
Co135 Co 0.125 0.5951 0.98021 0.0
O136 O 0.01917 0.53434 0.97099 0.0
O137 O 0.98714 0.55356 0.95142 0.0
O138 O 0.19501 0.66029 0.99366 0.0
O139 O 0.17918 0.74881 0.98674 0.0
O140 O 0.20117 0.72447 0.91831 0.0
O141 O 0.34305 0.70617 0.92689 0.0
O142 O 0.23244 0.53149 0.97286 0.0
O143 O 0.21633 0.53728 0.95218 0.0
C144 C 0.34872 0.78215 0.95617 0.0
C145 C 0.06485 0.61426 0.92439 0.0
C146 C 0.06998 0.56422 1.00066 0.0
C147 C 0.04375 0.79532 0.95421 0.0
C148 C 0.96858 0.52529 0.96036 0.0
C149 C 0.19697 0.71824 0.99565 0.0
C150 C 0.30005 0.71535 0.91675 0.0
C151 C 0.25671 0.51241 0.9612 0.0
O152 O 0.34187 0.74429 0.94575 0.0
O153 O 0.29601 0.77744 0.96612 0.0
O154 O 0.10477 0.57903 0.93141 0.0
O155 O 0.07884 0.67154 0.92716 0.0
O156 O 0.13364 0.53478 0.9927 0.0
O157 O 0.0401 0.61224 0.99721 0.0
O158 O 0.08754 0.77832 0.94329 0.0
O159 O 0.07483 0.7725 0.9639 0.0
Co160 Co 0.19778 0.576 0.35867 0.0
Co161 Co 0.10873 0.6857 0.3454 0.0
Co162 Co 0.19112 0.57523 0.32814 0.0
H163 H 0.1985 0.59157 0.34349 0.0
O164 O 0.22322 0.62773 0.34583 0.0
H165 H 0.1149 0.67437 0.33009 0.0
O166 O 0.08814 0.63923 0.32705 0.0
Co167 Co 0.13369 0.69524 0.31568 0.0
O168 O 0.03576 0.76051 0.32489 0.0
O169 O 0.99173 0.74047 0.34403 0.0
O170 O 0.19971 0.62809 0.30216 0.0
O171 O 0.17628 0.54063 0.30931 0.0
O172 O 0.20794 0.58275 0.37846 0.0
O173 O 0.34385 0.56798 0.36748 0.0
O174 O 0.24623 0.75566 0.32313 0.0
O175 O 0.22117 0.75306 0.34383 0.0
C176 C 0.341 0.50454 0.3401 0.0
C177 C 0.0656 0.67854 0.3718 0.0
C178 C 0.06837 0.72991 0.29603 0.0
C179 C 0.03896 0.49625 0.34171 0.0
C180 C 0.98088 0.77034 0.33517 0.0
C181 C 0.197 0.57008 0.3003 0.0
C182 C 0.30784 0.57615 0.37866 0.0
C183 C 0.26658 0.77609 0.33486 0.0
O184 O 0.33542 0.54234 0.35051 0.0
O185 O 0.29009 0.51041 0.33007 0.0
O186 O 0.10435 0.71312 0.36457 0.0
O187 O 0.07715 0.62105 0.36913 0.0
O188 O 0.15991 0.7078 0.29708 0.0
O189 O 0.01452 0.73148 0.306 0.0
O190 O 0.08176 0.51313 0.35271 0.0
O191 O 0.07025 0.51938 0.3321 0.0
Co192 Co 0.86966 0.44103 0.06598 0.0
Co193 Co 0.80804 0.32284 0.07779 0.0
Co194 Co 0.89351 0.43082 0.09568 0.0
H195 H 0.88936 0.41965 0.08032 0.0
O196 O 0.91626 0.38434 0.07733 0.0
H197 H 0.80079 0.3366 0.09315 0.0
O198 O 0.77766 0.37293 0.09581 0.0
Co199 Co 0.80378 0.31778 0.10805 0.0
O200 O 0.72369 0.24702 0.0983 0.0
O201 O 0.69447 0.26511 0.0785 0.0
O202 O 0.9168 0.36422 0.11939 0.0
O203 O 0.89744 0.45713 0.11493 0.0
O204 O 0.88147 0.50873 0.05527 0.0
O205 O 0.94564 0.42374 0.04837 0.0
O206 O 0.91549 0.25322 0.10224 0.0
O207 O 0.9226 0.25968 0.08147 0.0
C208 C 0.01613 0.51819 0.08574 0.0
C209 C 0.80448 0.31929 0.04989 0.0
C210 C 0.6961 0.32555 0.12831 0.0
C211 C 0.73103 0.5192 0.08501 0.0
C212 C 0.68191 0.23451 0.08721 0.0
C213 C 0.93217 0.42129 0.1222 0.0
C214 C 0.93213 0.47657 0.0463 0.0
C215 C 0.95266 0.23498 0.09103 0.0
O216 O 0.96027 0.50773 0.07555 0.0
O217 O 0.0096 0.48709 0.09449 0.0
O218 O 0.82309 0.28942 0.05887 0.0
O219 O 0.8037 0.37717 0.05187 0.0
O220 O 0.78921 0.30424 0.12686 0.0
O221 O 0.66534 0.34321 0.11835 0.0
O222 O 0.7513 0.49821 0.0733 0.0
O223 O 0.77938 0.49783 0.09407 0.0
Co224 Co 0.88317 0.34436 0.73001 0.0
Co225 Co 0.80455 0.46281 0.71896 0.0
Co226 Co 0.89412 0.35877 0.7004 0.0
H227 H 0.89435 0.36778 0.71575 0.0
O228 O 0.91837 0.40357 0.71885 0.0
H229 H 0.79659 0.45073 0.70363 0.0
O230 O 0.77449 0.41433 0.70084 0.0
Co231 Co 0.79881 0.47073 0.68888 0.0
O232 O 0.70077 0.53352 0.69837 0.0
O233 O 0.68637 0.51888 0.71857 0.0
O234 O 0.91707 0.4282 0.67767 0.0
O235 O 0.89357 0.33428 0.68118 0.0
O236 O 0.86873 0.2933 0.74422 0.0
O237 O 0.98909 0.35743 0.74522 0.0
O238 O 0.90511 0.53749 0.69511 0.0
O239 O 0.91497 0.52769 0.71567 0.0
C240 C 0.03636 0.27662 0.7095 0.0
C241 C 0.80333 0.46177 0.74657 0.0
C242 C 0.69124 0.46004 0.6686 0.0
C243 C 0.74828 0.26313 0.71095 0.0
C244 C 0.65864 0.54469 0.70946 0.0
C245 C 0.9297 0.37107 0.67428 0.0
C246 C 0.94844 0.31698 0.75042 0.0
C247 C 0.94302 0.55418 0.70634 0.0
O248 O 0.98758 0.2845 0.72022 0.0
O249 O 0.01575 0.30592 0.70076 0.0
O250 O 0.81988 0.49392 0.73795 0.0
O251 O 0.80573 0.40389 0.74405 0.0
O252 O 0.78555 0.47957 0.66978 0.0
O253 O 0.65896 0.44625 0.67885 0.0
O254 O 0.77547 0.28092 0.72258 0.0
O255 O 0.78646 0.28911 0.70199 0.0
Co256 Co 0.69382 0.21649 0.93849 0.0
Co257 Co 0.61248 0.10106 0.95113 0.0
Co258 Co 0.69594 0.21111 0.9687 0.0
H259 H 0.69981 0.19754 0.95335 0.0
O260 O 0.72373 0.16146 0.9506 0.0
H261 H 0.61631 0.11429 0.96645 0.0
O262 O 0.58848 0.14955 0.96925 0.0
Co263 Co 0.63413 0.09604 0.98109 0.0
O264 O 0.49433 0.05714 0.97432 0.0
O265 O 0.50811 0.03908 0.95292 0.0
O266 O 0.71406 0.15661 0.9945 0.0
O267 O 0.68391 0.24399 0.98773 0.0
O268 O 0.70359 0.20518 0.9186 0.0
O269 O 0.84052 0.21956 0.9296 0.0
O270 O 0.76772 0.05112 0.97387 0.0
O271 O 0.7291 0.03742 0.95316 0.0
C272 C 0.82713 0.29742 0.95868 0.0
C273 C 0.56741 0.10976 0.92493 0.0
C274 C 0.57332 0.0578 1.00048 0.0
C275 C 0.54882 0.29897 0.95606 0.0
C276 C 0.47449 0.02581 0.96332 0.0
C277 C 0.70934 0.21443 0.99658 0.0
C278 C 0.8035 0.2108 0.91844 0.0
C279 C 0.78584 0.02415 0.96246 0.0
O280 O 0.78192 0.28523 0.94775 0.0
O281 O 0.80886 0.26934 0.9677 0.0
O282 O 0.60725 0.07395 0.93192 0.0
O283 O 0.57818 0.16725 0.92794 0.0
O284 O 0.66805 0.0731 0.99869 0.0
O285 O 0.51403 0.06409 0.9913 0.0
O286 O 0.58587 0.28239 0.9448 0.0
O287 O 0.57931 0.27301 0.9654 0.0
Co288 Co 0.69873 0.07364 0.35835 0.0
Co289 Co 0.61388 0.18937 0.34597 0.0
Co290 Co 0.69931 0.08087 0.32814 0.0
H291 H 0.70303 0.09326 0.34352 0.0
O292 O 0.72621 0.12938 0.34637 0.0
H293 H 0.61645 0.17644 0.33068 0.0
O294 O 0.58908 0.14117 0.32783 0.0
Co295 Co 0.6338 0.19534 0.31612 0.0
O296 O 0.49007 0.22875 0.32295 0.0
O297 O 0.50824 0.25089 0.34425 0.0
O298 O 0.72046 0.13793 0.30291 0.0
O299 O 0.68843 0.04952 0.309 0.0
O300 O 0.71475 0.08609 0.37819 0.0
O301 O 0.84292 0.05637 0.36661 0.0
O302 O 0.7665 0.24148 0.32325 0.0
O303 O 0.72958 0.25297 0.34395 0.0
C304 C 0.84374 0.99981 0.33798 0.0
C305 C 0.57548 0.18195 0.37247 0.0
C306 C 0.57342 0.23092 0.29642 0.0
C307 C 0.55543 0.991 0.34058 0.0
C308 C 0.4708 0.26167 0.3338 0.0
C309 C 0.71541 0.08017 0.3004 0.0
C310 C 0.81156 0.07073 0.37795 0.0
C311 C 0.78593 0.26697 0.33475 0.0
O312 O 0.80071 1.01125 0.34905 0.0
O313 O 0.81575 0.02494 0.32883 0.0
O314 O 0.61138 0.21703 0.36514 0.0
O315 O 0.5877 0.12435 0.36975 0.0
O316 O 0.66926 0.23175 0.30009 0.0
O317 O 0.5128 0.20919 0.30378 0.0
O318 O 0.58902 1.0091 0.35197 0.0
O319 O 0.58751 1.01608 0.33119 0.0
Co320 Co 0.36648 0.93544 0.06526 0.0
Co321 Co 0.29058 0.8211 0.07726 0.0
Co322 Co 0.39454 0.92442 0.09466 0.0
H323 H 0.38639 0.91305 0.07942 0.0
O324 O 0.40743 0.87665 0.07629 0.0
H325 H 0.28813 0.83559 0.09261 0.0
O326 O 0.27053 0.87294 0.09533 0.0
Co327 Co 0.29173 0.81696 0.10748 0.0
O328 O 0.17602 0.76206 0.09927 0.0
O329 O 0.16891 0.76892 0.0786 0.0
O330 O 0.405 0.86163 0.11899 0.0
O331 O 0.40375 0.95309 0.11372 0.0
O332 O 0.33104 0.96361 0.04834 0.0
O333 O 0.48929 0.95097 0.05336 0.0
O334 O 0.40176 0.75145 0.10137 0.0
O335 O 0.39798 0.75406 0.08042 0.0
C336 C 0.52609 1.00482 0.08441 0.0
C337 C 0.28251 0.81804 0.04945 0.0
C338 C 0.18973 0.8212 0.12797 0.0
C339 C 0.24286 0.01951 0.08444 0.0
C340 C 0.13367 0.74921 0.0882 0.0
C341 C 0.43099 0.91753 0.12133 0.0
C342 C 0.42761 0.96705 0.04526 0.0
C343 C 0.43237 0.73079 0.08997 0.0
O344 O 0.46806 0.99807 0.07441 0.0
O345 O 0.51927 0.97275 0.09294 0.0
O346 O 0.298 0.78708 0.05833 0.0
O347 O 0.2886 0.87574 0.05154 0.0
O348 O 0.28975 0.82488 0.12733 0.0
O349 O 0.14875 0.81466 0.11702 0.0
O350 O 0.25359 0.99573 0.07271 0.0
O351 O 0.29324 0.9978 0.0933 0.0
Co352 Co 0.3757 0.84619 0.73035 0.0
Co353 Co 0.3036 0.96341 0.71834 0.0
Co354 Co 0.39319 0.85641 0.70058 0.0
H355 H 0.39057 0.86772 0.71593 0.0
O356 O 0.41508 0.9035 0.71892 0.0
H357 H 0.29916 0.94982 0.70299 0.0
O358 O 0.27662 0.91346 0.70026 0.0
Co359 Co 0.30467 0.96932 0.68822 0.0
O360 O 0.21863 0.03857 0.6976 0.0
O361 O 0.18774 0.02032 0.71728 0.0
O362 O 0.41491 0.92019 0.67648 0.0
O363 O 0.39445 0.82827 0.68144 0.0
O364 O 0.3745 0.78426 0.74246 0.0
O365 O 0.46438 0.86299 0.7471 0.0
O366 O 0.41561 0.03386 0.69441 0.0
O367 O 0.4185 0.02613 0.71508 0.0
C368 C 0.52552 0.77217 0.71055 0.0
C369 C 0.30151 0.96704 0.74633 0.0
C370 C 0.18684 0.96823 0.66888 0.0
C371 C 0.23904 0.76573 0.71149 0.0
C372 C 0.1713 0.04953 0.70837 0.0
C373 C 0.42831 0.86274 0.67392 0.0
C374 C 0.43885 0.81378 0.75031 0.0
C375 C 0.45129 0.05123 0.70574 0.0
O376 O 0.47383 0.78194 0.72105 0.0
O377 O 0.5113 0.80169 0.70169 0.0
O378 O 0.31496 0.99701 0.73727 0.0
O379 O 0.30724 0.90923 0.74441 0.0
O380 O 0.28507 0.95615 0.66848 0.0
O381 O 0.15627 0.98138 0.68027 0.0
O382 O 0.26365 0.78505 0.72314 0.0
O383 O 0.28135 0.78936 0.70242 0.0
Co384 Co 0.70412 0.7158 0.43836 0.0
Co385 Co 0.60795 0.60905 0.45174 0.0
Co386 Co 0.69878 0.71677 0.46896 0.0
H387 H 0.70473 0.70026 0.45357 0.0
O388 O 0.72689 0.66351 0.45119 0.0
H389 H 0.61731 0.61998 0.467 0.0
O390 O 0.59231 0.65543 0.47015 0.0
Co391 Co 0.63963 0.59863 0.48127 0.0
O392 O 0.53914 0.53508 0.47205 0.0
O393 O 0.48688 0.55864 0.45338 0.0
O394 O 0.70977 0.66383 0.49479 0.0
O395 O 0.68658 0.7517 0.48783 0.0
O396 O 0.71309 0.71066 0.41863 0.0
O397 O 0.85017 0.72153 0.4295 0.0
O398 O 0.75275 0.53889 0.47366 0.0
O399 O 0.71238 0.53707 0.45307 0.0
C400 C 0.85068 0.78511 0.45689 0.0
C401 C 0.56507 0.61624 0.42518 0.0
C402 C 0.57781 0.56459 0.50103 0.0
C403 C 0.55447 0.79992 0.45558 0.0
C404 C 0.48163 0.52705 0.46198 0.0
C405 C 0.70734 0.72181 0.49678 0.0
C406 C 0.81326 0.71549 0.41838 0.0
C407 C 0.76292 0.51525 0.4619 0.0
O408 O 0.84318 0.74787 0.44642 0.0
O409 O 0.8012 0.77911 0.46697 0.0
O410 O 0.60028 0.58131 0.43257 0.0
O411 O 0.58206 0.67331 0.42763 0.0
O412 O 0.66612 0.59018 0.50008 0.0
O413 O 0.52534 0.5584 0.49082 0.0
O414 O 0.59293 0.78141 0.44442 0.0
O415 O 0.58124 0.77553 0.46522 0.0
Co416 Co 0.69793 0.57099 0.85859 0.0
Co417 Co 0.60986 0.67888 0.84481 0.0
Co418 Co 0.69536 0.56816 0.82793 0.0
H419 H 0.70051 0.58535 0.8433 0.0
O420 O 0.72467 0.62163 0.8456 0.0
H421 H 0.61811 0.6669 0.82955 0.0
O422 O 0.59203 0.6316 0.82648 0.0
Co423 Co 0.63928 0.68791 0.81523 0.0
O424 O 0.54648 0.75568 0.82444 0.0
O425 O 0.49265 0.73293 0.84305 0.0
O426 O 0.69988 0.61933 0.80158 0.0
O427 O 0.68313 0.53235 0.8091 0.0
O428 O 0.69768 0.56344 0.8778 0.0
O429 O 0.83915 0.57997 0.86896 0.0
O430 O 0.75116 0.74863 0.82285 0.0
O431 O 0.7235 0.74605 0.84344 0.0
C432 C 0.8434 0.49849 0.84046 0.0
C433 C 0.56137 0.67309 0.87104 0.0
C434 C 0.57997 0.72218 0.79532 0.0
C435 C 0.5499 0.4864 0.84137 0.0
C436 C 0.48871 0.76481 0.83448 0.0
C437 C 0.70033 0.56134 0.79992 0.0
C438 C 0.79679 0.57207 0.8792 0.0
C439 C 0.77154 0.76875 0.8346 0.0
O440 O 0.83651 0.5365 0.85084 0.0
O441 O 0.79503 0.50446 0.83026 0.0
O442 O 0.60257 0.70732 0.86391 0.0
O443 O 0.57373 0.61563 0.86841 0.0
O444 O 0.65107 0.74798 0.80275 0.0
O445 O 0.54577 0.6756 0.79894 0.0
O446 O 0.58924 0.5046 0.85249 0.0
O447 O 0.57538 0.5111 0.83174 0.0
Co448 Co 0.37128 0.44202 0.56591 0.0
Co449 Co 0.29774 0.32477 0.57687 0.0
Co450 Co 0.39194 0.427 0.59543 0.0
H451 H 0.38797 0.41866 0.58009 0.0
O452 O 0.41185 0.38294 0.57688 0.0
H453 H 0.28806 0.33768 0.59214 0.0
O454 O 0.26832 0.37455 0.59497 0.0
Co455 Co 0.28751 0.31726 0.60682 0.0
O456 O 0.18604 0.25555 0.59742 0.0
O457 O 0.17895 0.26964 0.57714 0.0
O458 O 0.42191 0.35272 0.61641 0.0
O459 O 0.39634 0.44863 0.61488 0.0
O460 O 0.34495 0.4539 0.54733 0.0
O461 O 0.48891 0.48046 0.55643 0.0
O462 O 0.39572 0.25076 0.60107 0.0
O463 O 0.40752 0.2599 0.5805 0.0
C464 C 0.52653 0.50927 0.58616 0.0
C465 C 0.30071 0.32323 0.54913 0.0
C466 C 0.17006 0.32755 0.62639 0.0
C467 C 0.24294 0.52303 0.58531 0.0
C468 C 0.14753 0.24428 0.58611 0.0
C469 C 0.4349 0.40896 0.62103 0.0
C470 C 0.43521 0.47725 0.54635 0.0
C471 C 0.43497 0.23379 0.58992 0.0
O472 O 0.47231 0.50259 0.57586 0.0
O473 O 0.51604 0.47723 0.59467 0.0
O474 O 0.31434 0.29208 0.55799 0.0
O475 O 0.3034 0.38109 0.55138 0.0
O476 O 0.22334 0.28114 0.62176 0.0
O477 O 0.18366 0.36828 0.61989 0.0
O478 O 0.2554 0.49989 0.57355 0.0
O479 O 0.29156 0.50086 0.59424 0.0
Co480 Co 0.36973 0.35156 0.23104 0.0
Co481 Co 0.30406 0.46549 0.21933 0.0
Co482 Co 0.39053 0.35852 0.20116 0.0
H483 H 0.38786 0.37025 0.21647 0.0
O484 O 0.41532 0.40548 0.21937 0.0
H485 H 0.29576 0.45249 0.20408 0.0
O486 O 0.27359 0.41612 0.20125 0.0
Co487 Co 0.29627 0.47265 0.18938 0.0
O488 O 0.19547 0.53558 0.19867 0.0
O489 O 0.18691 0.52144 0.21894 0.0
O490 O 0.4285 0.43071 0.18029 0.0
O491 O 0.39439 0.33529 0.18172 0.0
O492 O 0.33511 0.31379 0.24687 0.0
O493 O 0.48846 0.34385 0.24415 0.0
O494 O 0.40346 0.53937 0.19527 0.0
O495 O 0.4147 0.53022 0.21586 0.0
C496 C 0.53273 0.28589 0.21299 0.0
C497 C 0.29202 0.46658 0.24694 0.0
C498 C 0.17763 0.46557 0.16987 0.0
C499 C 0.22683 0.27566 0.21239 0.0
C500 C 0.15636 0.54698 0.20994 0.0
C501 C 0.43639 0.37408 0.1756 0.0
C502 C 0.42913 0.31895 0.25113 0.0
C503 C 0.44187 0.55655 0.20646 0.0
O504 O 0.51356 0.31854 0.22389 0.0
O505 O 0.5012 0.29956 0.20252 0.0
O506 O 0.31916 0.49722 0.23837 0.0
O507 O 0.28397 0.409 0.24436 0.0
O508 O 0.23638 0.50992 0.17428 0.0
O509 O 0.18669 0.42514 0.17654 0.0
O510 O 0.23583 0.30676 0.22362 0.0
O511 O 0.28363 0.28973 0.20317 0.0
C512 C 0.45559 0.36393 0.45361 0.0
C513 C 0.36888 0.35527 0.4614 0.0
C514 C 0.34323 0.46343 0.4682 0.0
C515 C 0.4235 0.47157 0.45939 0.0
N516 N 0.5411 0.43144 0.44173 0.0
N517 N 0.22563 0.39381 0.47602 0.0
C518 C 0.47474 0.42236 0.45139 0.0
C519 C 0.31196 0.40412 0.46885 0.0
N520 N 0.51938 0.31599 0.44847 0.0
N521 N 0.29968 0.51258 0.47609 0.0
H522 H 0.20533 0.3511 0.47769 0.0
H523 H 0.17182 0.42741 0.48005 0.0
H524 H 0.31587 0.55703 0.47506 0.0
H525 H 0.25118 0.50963 0.48389 0.0
H526 H 0.59042 0.32051 0.44364 0.0
H527 H 0.50646 0.27238 0.45026 0.0
H528 H 0.57349 0.39622 0.43504 0.0
H529 H 0.55494 0.47383 0.43946 0.0
C530 C 0.84659 0.94777 0.45585 0.0
C531 C 0.93406 0.96754 0.46379 0.0
C532 C 0.97608 0.86377 0.46598 0.0
C533 C 0.89593 0.84401 0.4569 0.0
N534 N 0.77013 0.86601 0.44089 0.0
N535 N 0.0929 0.94385 0.47523 0.0
C536 C 0.83593 0.88551 0.45107 0.0
C537 C 0.00124 0.92564 0.4687 0.0
N538 N 0.77344 0.98876 0.45302 0.0
N539 N 0.02729 0.82326 0.4721 0.0
H540 H 0.11408 0.98863 0.47794 0.0
H541 H 0.15213 0.91419 0.47721 0.0
H542 H 0.01787 0.77641 0.46941 0.0
H543 H 0.07468 0.83615 0.48021 0.0
H544 H 0.70154 0.97631 0.4483 0.0
H545 H 0.7796 0.03515 0.45666 0.0
H546 H 0.73276 0.89517 0.43569 0.0
H547 H 0.76182 0.82093 0.43664 0.0
C548 C 0.36939 0.89256 0.82423 0.0
C549 C 0.41232 0.93971 0.83347 0.0
C550 C 0.48288 0.8686 0.84579 0.0
C551 C 0.43296 0.82179 0.83705 0.0
N552 N 0.3075 0.78891 0.82019 0.0
N553 N 0.54084 0.97349 0.84983 0.0
C554 C 0.36862 0.83395 0.82699 0.0
C555 C 0.48043 0.92764 0.84318 0.0
N556 N 0.33495 0.90341 0.81268 0.0
N557 N 0.52791 0.85683 0.85676 0.0
H558 H 0.53756 1.01717 0.84776 0.0
H559 H 0.59953 0.96717 0.85642 0.0
H560 H 0.52224 0.81492 0.85954 0.0
H561 H 0.56165 0.88995 0.86373 0.0
H562 H 0.30887 0.86929 0.80531 0.0
H563 H 0.3458 0.94514 0.80992 0.0
H564 H 0.25219 0.79618 0.8133 0.0
H565 H 0.30613 0.74546 0.82239 0.0
C566 C 0.99706 0.35784 0.82928 0.0
C567 C 0.93185 0.31599 0.83439 0.0
C568 C 0.83198 0.39879 0.84679 0.0
C569 C 0.88961 0.43972 0.84062 0.0
N570 N 0.01875 0.45917 0.82514 0.0
N571 N 0.77387 0.29529 0.84563 0.0
C572 C 0.96968 0.41945 0.8316 0.0
C573 C 0.84497 0.33615 0.84242 0.0
N574 N 0.08868 0.33966 0.82282 0.0
N575 N 0.76597 0.41931 0.85688 0.0
H576 H 0.78133 0.24868 0.84232 0.0
H577 H 0.70211 0.3078 0.85037 0.0
H578 H 0.75645 0.46479 0.8608 0.0
H579 H 0.73019 0.39097 0.86236 0.0
H580 H 0.14662 0.36912 0.82052 0.0
H581 H 0.1104 0.29491 0.82053 0.0
H582 H 0.06563 0.44547 0.81703 0.0
H583 H 0.00799 0.50605 0.82752 0.0
C584 C 0.52984 0.61451 0.59602 0.0
C585 C 0.58604 0.56445 0.589 0.0
C586 C 0.69336 0.62988 0.5784 0.0
C587 C 0.63196 0.67928 0.5849 0.0
N588 N 0.47858 0.71929 0.59715 0.0
N589 N 0.71821 0.52097 0.57362 0.0
C590 C 0.54541 0.67159 0.59282 0.0
C591 C 0.66818 0.57124 0.58032 0.0
N592 N 0.46097 0.60714 0.60557 0.0
N593 N 0.77796 0.63957 0.57091 0.0
H594 H 0.70503 0.47775 0.57561 0.0
H595 H 0.76966 0.52149 0.56596 0.0
H596 H 0.79286 0.68127 0.56834 0.0
H597 H 0.83483 0.60678 0.5674 0.0
H598 H 0.4241 0.64307 0.61162 0.0
H599 H 0.44845 0.56554 0.60829 0.0
H600 H 0.40789 0.71548 0.60209 0.0
H601 H 0.48916 0.76165 0.5946 0.0
C602 C 0.03124 0.12041 0.59652 0.0
C603 C 0.0807 0.07361 0.58776 0.0
C604 C 0.12587 0.14329 0.57376 0.0
C605 C 0.08206 0.19035 0.58294 0.0
N606 N 0.95706 0.22217 0.59974 0.0
N607 N 0.19315 0.04016 0.5696 0.0
C608 C 0.02051 0.1777 0.59312 0.0
C609 C 0.13598 0.08554 0.57696 0.0
N610 N 0.99729 0.10999 0.60808 0.0
N611 N 0.15288 0.15369 0.56194 0.0
H612 H 0.20064 0.99755 0.57214 0.0
H613 H 0.23786 0.04571 0.56166 0.0
H614 H 0.1355 0.19474 0.55914 0.0
H615 H 0.18013 0.12013 0.55454 0.0
H616 H 0.95849 0.14215 0.61479 0.0
H617 H 0.01687 0.07063 0.61145 0.0
H618 H 0.90416 0.21537 0.60687 0.0
H619 H 0.95216 0.26479 0.59716 0.0
C620 C 0.52479 0.11995 0.21485 0.0
C621 C 0.60702 0.09966 0.20616 0.0
C622 C 0.65062 0.20247 0.20378 0.0
C623 C 0.56734 0.22349 0.2123 0.0
N624 N 0.42445 0.20352 0.22636 0.0
N625 N 0.72828 0.11848 0.18962 0.0
C626 C 0.50404 0.18264 0.21798 0.0
C627 C 0.6639 0.13982 0.19978 0.0
N628 N 0.46263 0.07839 0.21937 0.0
N629 N 0.72049 0.24259 0.20001 0.0
H630 H 0.74586 0.07306 0.18661 0.0
H631 H 0.75423 0.14567 0.1833 0.0
H632 H 0.71459 0.28939 0.20315 0.0
H633 H 0.79024 0.22934 0.19489 0.0
H634 H 0.39467 0.08885 0.22497 0.0
H635 H 0.47475 0.03172 0.21668 0.0
H636 H 0.39146 0.1789 0.23275 0.0
H637 H 0.39328 0.24659 0.22726 0.0
C638 C 0.02631 0.6723 0.20043 0.0
C639 C 0.06908 0.71885 0.20989 0.0
C640 C 0.1229 0.64644 0.22294 0.0
C641 C 0.08792 0.59991 0.21301 0.0
N642 N 0.97077 0.56706 0.19536 0.0
N643 N 0.17569 0.75159 0.22868 0.0
C644 C 0.02642 0.61279 0.20279 0.0
C645 C 0.12428 0.706 0.22065 0.0
N646 N 0.98978 0.68473 0.18911 0.0
N647 N 0.14889 0.63389 0.23464 0.0
H648 H 0.17831 0.79565 0.22682 0.0
H649 H 0.22235 0.74487 0.23641 0.0
H650 H 0.13599 0.59135 0.23693 0.0
H651 H 0.16918 0.66693 0.24251 0.0
H652 H 0.96059 0.65198 0.18172 0.0
H653 H 0.99742 0.727 0.18656 0.0
H654 H 0.91713 0.57362 0.18825 0.0
H655 H 0.97213 0.52304 0.19726 0.0
C656 C 0.5063 0.92158 0.96726 0.0
C657 C 0.4382 0.96404 0.96266 0.0
C658 C 0.33613 0.88249 0.95026 0.0
C659 C 0.39561 0.84072 0.95606 0.0
N660 N 0.52965 0.81928 0.97087 0.0
N661 N 0.27719 0.98632 0.95203 0.0
C662 C 0.47863 0.85994 0.96478 0.0
C663 C 0.34947 0.94485 0.95485 0.0
N664 N 0.60006 0.93917 0.97342 0.0
N665 N 0.26826 0.86293 0.9403 0.0
H666 H 0.28507 0.03278 0.95547 0.0
H667 H 0.20447 0.97435 0.94746 0.0
H668 H 0.2595 0.81766 0.93618 0.0
H669 H 0.23026 0.89188 0.9351 0.0
H670 H 0.65894 0.90889 0.97521 0.0
H671 H 0.62279 0.98387 0.97612 0.0
H672 H 0.58001 0.83205 0.97872 0.0
H673 H 0.51714 0.77258 0.96845 0.0
C674 C 0.85098 0.39956 0.97084 0.0
C675 C 0.88942 0.35267 0.96118 0.0
C676 C 0.94097 0.42449 0.94796 0.0
C677 C 0.90328 0.4713 0.95768 0.0
N678 N 0.7905 0.50374 0.97574 0.0
N679 N 0.99935 0.31986 0.94278 0.0
C680 C 0.84651 0.45851 0.96823 0.0
C681 C 0.94536 0.3654 0.95051 0.0
N682 N 0.82499 0.38835 0.98263 0.0
N683 N 0.96706 0.43623 0.93621 0.0
H684 H 0.00416 0.27644 0.94497 0.0
H685 H 0.04551 0.3261 0.935 0.0
H686 H 0.95307 0.47826 0.93369 0.0
H687 H 0.98957 0.40279 0.92851 0.0
H688 H 0.80285 0.42226 0.99026 0.0
H689 H 0.83852 0.34649 0.98523 0.0
H690 H 0.74022 0.4965 0.98309 0.0
H691 H 0.7878 0.54747 0.97369 0.0
C692 C 0.50146 0.36544 0.32974 0.0
C693 C 0.43288 0.3229 0.33412 0.0
C694 C 0.32699 0.40423 0.34598 0.0
C695 C 0.38692 0.44583 0.34025 0.0
N696 N 0.52351 0.46709 0.3258 0.0
N697 N 0.27078 0.30015 0.34436 0.0
C698 C 0.47216 0.42677 0.33189 0.0
C699 C 0.34235 0.34186 0.3416 0.0
N700 N 0.59617 0.34789 0.32387 0.0
N701 N 0.25737 0.42394 0.35575 0.0
H702 H 0.28057 0.25363 0.34112 0.0
H703 H 0.19709 0.31183 0.3487 0.0
H704 H 0.2472 0.46924 0.35978 0.0
H705 H 0.21904 0.39508 0.3609 0.0
H706 H 0.65586 0.37803 0.32233 0.0
H707 H 0.6168 0.303 0.32093 0.0
H708 H 0.57595 0.45396 0.31818 0.0
H709 H 0.5093 0.51373 0.32794 0.0
C710 C 0.96165 0.93076 0.34605 0.0
C711 C 0.91227 0.94663 0.33526 0.0
C712 C 0.87367 0.84196 0.32646 0.0
C713 C 0.91938 0.82606 0.33751 0.0
N714 N 0.96985 0.85641 0.3597 0.0
N715 N 0.86942 0.91694 0.31289 0.0
C716 C 0.95249 0.87078 0.34795 0.0
C717 C 0.88297 0.90206 0.32466 0.0
N718 N 0.01273 0.97443 0.35458 0.0
N719 N 0.82459 0.79854 0.31767 0.0
H720 H 0.88845 0.95986 0.31114 0.0
H721 H 0.85365 0.88521 0.30464 0.0
H722 H 0.81624 0.75416 0.31922 0.0
H723 H 0.78576 0.80743 0.30955 0.0
H724 H 0.05263 0.9663 0.36269 0.0
H725 H 0.02084 1.01846 0.35281 0.0
H726 H 0.98876 0.88834 0.36781 0.0
H727 H 0.95181 0.81396 0.36172 0.0
C728 C 0.66396 0.06855 0.07817 0.0
C729 C 0.58483 0.06029 0.0871 0.0
C730 C 0.5458 0.16747 0.09202 0.0
C731 C 0.63102 0.17664 0.08404 0.0
N732 N 0.77565 0.13867 0.06961 0.0
N733 N 0.46744 0.10086 0.1047 0.0
C734 C 0.6907 0.12794 0.07694 0.0
C735 C 0.5315 0.10955 0.0948 0.0
N736 N 0.71042 1.01922 0.07066 0.0
N737 N 0.47941 0.21461 0.09688 0.0
H738 H 0.45831 0.05889 0.10736 0.0
H739 H 0.43281 0.13623 0.11114 0.0
H740 H 0.48912 0.25774 0.09469 0.0
H741 H 0.40949 0.20954 0.10189 0.0
H742 H 0.75864 0.02159 0.0628 0.0
H743 H 0.69712 0.97511 0.07212 0.0
H744 H 0.83149 0.10578 0.06581 0.0
H745 H 0.79261 0.18114 0.06755 0.0
C746 C 0.10628 0.59439 0.07669 0.0
C747 C 0.07158 0.57602 0.08799 0.0
C748 C 0.0229 0.67955 0.09721 0.0
C749 C 0.06166 0.69726 0.08603 0.0
N750 N 0.08313 0.66918 0.06328 0.0
N751 N 0.02924 0.60291 0.11046 0.0
C752 C 0.08455 0.6537 0.07509 0.0
C753 C 0.03925 0.61917 0.09877 0.0
N754 N 0.15523 0.55365 0.06735 0.0
N755 N 0.9768 0.7222 0.10643 0.0
H756 H 0.05339 0.56059 0.11211 0.0
H757 H 0.00947 0.63311 0.11879 0.0
H758 H 0.96414 0.76638 0.10493 0.0
H759 H 0.94576 0.71335 0.11496 0.0
H760 H 0.18703 0.56544 0.05911 0.0
H761 H 0.17223 0.50955 0.06862 0.0
H762 H 0.09334 0.63782 0.05482 0.0
H763 H 0.05866 0.71222 0.06203 0.0
C764 C 0.54582 0.67011 0.69854 0.0
C765 C 0.58712 0.71666 0.70806 0.0
C766 C 0.63122 0.64537 0.72171 0.0
C767 C 0.5923 0.59859 0.71211 0.0
N768 N 0.48298 0.56625 0.69362 0.0
N769 N 0.69875 0.74796 0.72633 0.0
C770 C 0.53729 0.61157 0.70136 0.0
C771 C 0.64121 0.70353 0.71881 0.0
N772 N 0.52064 0.68143 0.68672 0.0
N773 N 0.65418 0.63448 0.73363 0.0
H774 H 0.70566 0.79114 0.72407 0.0
H775 H 0.74595 0.74038 0.73395 0.0
H776 H 0.6366 0.59312 0.73626 0.0
H777 H 0.67745 0.66823 0.74123 0.0
H778 H 0.49608 0.64806 0.67912 0.0
H779 H 0.53638 0.72298 0.68409 0.0
H780 H 0.43771 0.57253 0.68575 0.0
H781 H 0.47786 0.52292 0.69585 0.0
C782 C 0.05649 0.17528 0.69738 0.0
C783 C 0.10106 0.22245 0.70647 0.0
C784 C 0.1568 0.1524 0.7199 0.0
C785 C 0.11059 0.10525 0.71095 0.0
N786 N 0.99198 0.07176 0.69338 0.0
N787 N 0.225 0.25505 0.72341 0.0
C788 C 0.05074 0.11719 0.70046 0.0
C789 C 0.16308 0.21021 0.7167 0.0
N790 N 0.0244 0.18585 0.68572 0.0
N791 N 0.19003 0.14221 0.73154 0.0
H792 H 0.22795 0.29799 0.72096 0.0
H793 H 0.2789 0.24805 0.73046 0.0
H794 H 0.17571 0.10146 0.73458 0.0
H795 H 0.22131 0.17586 0.73863 0.0
H796 H 0.99697 0.152 0.67838 0.0
H797 H 0.03714 0.22733 0.68291 0.0
H798 H 0.94295 0.07749 0.68578 0.0
H799 H 0.98701 0.02909 0.69593 0.0
C800 C 0.31262 0.90586 0.45259 0.0
C801 C 0.35102 0.96353 0.45907 0.0
C802 C 0.51725 0.91223 0.46444 0.0
C803 C 0.48117 0.85531 0.45743 0.0
N804 N 0.34956 0.80012 0.44336 0.0
N805 N 0.50004 0.02231 0.4688 0.0
C806 C 0.38062 0.85308 0.45102 0.0
C807 C 0.45607 0.96663 0.46438 0.0
N808 N 0.2088 0.90031 0.44849 0.0
N809 N 0.61075 0.91465 0.4712 0.0
H810 H 0.45957 0.06272 0.4685 0.0
H811 H 0.57977 0.02893 0.47152 0.0
H812 H 0.66098 0.8774 0.47097 0.0
H813 H 0.6356 0.9526 0.47772 0.0
H814 H 0.17135 0.85883 0.44536 0.0
H815 H 0.15635 0.93676 0.44911 0.0
H816 H 0.28532 0.79695 0.43703 0.0
H817 H 0.39186 0.75958 0.44277 0.0
C818 C 0.00364 0.40688 0.45221 0.0
C819 C 0.97231 0.35286 0.45664 0.0
C820 C 0.80091 0.40453 0.4639 0.0
C821 C 0.83035 0.4572 0.45888 0.0
N822 N 0.95436 0.50348 0.44642 0.0
N823 N 0.83062 0.29764 0.4645 0.0
C824 C 0.92976 0.45647 0.45242 0.0
C825 C 0.86814 0.35124 0.46194 0.0
N826 N 0.10677 0.4126 0.4484 0.0
N827 N 0.70803 0.40525 0.47067 0.0
H828 H 0.87648 0.25811 0.46319 0.0
H829 H 0.75143 0.29072 0.46687 0.0
H830 H 0.65222 0.44016 0.47141 0.0
H831 H 0.6884 0.37267 0.47607 0.0
H832 H 0.13929 0.453 0.44671 0.0
H833 H 0.16361 0.3786 0.44808 0.0
H834 H 0.01866 0.5028 0.44019 0.0
H835 H 0.90544 0.54147 0.44684 0.0
C836 C 0.31068 0.3802 0.84487 0.0
C837 C 0.35047 0.32231 0.83869 0.0
C838 C 0.51497 0.37362 0.83298 0.0
C839 C 0.47728 0.43094 0.83963 0.0
N840 N 0.34472 0.48694 0.8534 0.0
N841 N 0.50062 0.26347 0.82925 0.0
C842 C 0.37698 0.43338 0.84605 0.0
C843 C 0.45541 0.31918 0.83338 0.0
N844 N 0.20722 0.38544 0.84906 0.0
N845 N 0.60837 0.37092 0.82624 0.0
H846 H 0.46121 0.22312 0.82979 0.0
H847 H 0.58033 0.25692 0.82653 0.0
H848 H 0.65685 0.40849 0.82616 0.0
H849 H 0.63468 0.33238 0.81999 0.0
H850 H 0.16845 0.42678 0.85197 0.0
H851 H 0.15647 0.34861 0.84881 0.0
H852 H 0.28066 0.49078 0.85974 0.0
H853 H 0.38601 0.52745 0.85368 0.0
C854 C 0.83818 0.87414 0.84715 0.0
C855 C 0.85297 0.8216 0.83738 0.0
C856 C 0.00089 0.87692 0.8286 0.0
C857 C 0.98241 0.9302 0.83797 0.0
N858 N 0.86591 0.98257 0.85435 0.0
N859 N 0.97567 0.76831 0.8218 0.0
C860 C 0.89653 0.92924 0.84677 0.0
C861 C 0.94135 0.82218 0.82886 0.0
N862 N 0.77393 0.87097 0.85735 0.0
N863 N 0.07436 0.87835 0.81919 0.0
H864 H 0.94183 0.72679 0.82263 0.0
H865 H 0.04566 0.7634 0.81642 0.0
H866 H 0.12431 0.91505 0.81897 0.0
H867 H 0.07955 0.84511 0.81096 0.0
H868 H 0.76893 0.90515 0.86541 0.0
H869 H 0.73599 0.83158 0.85866 0.0
H870 H 0.7971 0.98742 0.85995 0.0
H871 H 0.90257 0.02387 0.85396 0.0
C872 C 0.49643 0.12622 0.57919 0.0
C873 C 0.51465 0.18066 0.58823 0.0
C874 C 0.66748 0.12884 0.59699 0.0
C875 C 0.65189 0.07496 0.58761 0.0
N876 N 0.52874 1.01803 0.5726 0.0
N877 N 0.63273 0.23684 0.60396 0.0
C878 C 0.56058 0.07294 0.5794 0.0
C879 C 0.60379 0.18236 0.59671 0.0
N880 N 0.41851 0.12519 0.57014 0.0
N881 N 0.73971 0.12875 0.60661 0.0
H882 H 0.59205 0.27713 0.60362 0.0
H883 H 0.7033 0.24375 0.60923 0.0
H884 H 0.78727 0.09175 0.60742 0.0
H885 H 0.74466 0.16308 0.61465 0.0
H886 H 0.41309 0.09143 0.56201 0.0
H887 H 0.36412 0.16031 0.57015 0.0
H888 H 0.45717 1.0112 0.56752 0.0
H889 H 0.56729 0.97749 0.57328 0.0
C890 C 0.20309 0.63308 0.58298 0.0
C891 C 0.17457 0.58079 0.5882 0.0
C892 C 1.00028 0.63048 0.59467 0.0
C893 C 0.03034 0.68398 0.58996 0.0
N894 N 0.17061 0.73915 0.58181 0.0
N895 N 0.05116 0.53478 0.60077 0.0
C896 C 0.13447 0.68579 0.58465 0.0
C897 C 0.07504 0.58142 0.59464 0.0
N898 N 0.29656 0.63252 0.57632 0.0
N899 N 0.89752 0.62477 0.59862 0.0
H900 H 0.10045 0.49702 0.60045 0.0
H901 H 0.98697 0.53552 0.60702 0.0
H902 H 0.84016 0.65848 0.59887 0.0
H903 H 0.86566 0.58461 0.60052 0.0
H904 H 0.31576 0.66451 0.57076 0.0
H905 H 0.35367 0.59837 0.57589 0.0
H906 H 0.24957 0.74644 0.57942 0.0
H907 H 0.12371 0.77825 0.58291 0.0
C908 C 0.60947 0.6099 0.20007 0.0
C909 C 0.51892 0.61084 0.20827 0.0
C910 C 0.55755 0.71992 0.21675 0.0
C911 C 0.65052 0.71861 0.20885 0.0
N912 N 0.74141 0.66512 0.19007 0.0
N913 N 0.41439 0.6667 0.22553 0.0
C914 C 0.6698 0.66437 0.19969 0.0
C915 C 0.49558 0.66585 0.21693 0.0
N916 N 0.6423 0.55551 0.19311 0.0
N917 N 0.52222 0.77477 0.22326 0.0
H918 H 0.36205 0.63066 0.22542 0.0
H919 H 0.40359 0.70136 0.2334 0.0
H920 H 0.55906 0.8156 0.22251 0.0
H921 H 0.44981 0.78118 0.22813 0.0
H922 H 0.71422 0.54936 0.18812 0.0
H923 H 0.60326 0.51479 0.19342 0.0
H924 H 0.75002 0.62981 0.18227 0.0
H925 H 0.78294 0.70359 0.1889 0.0
C926 C 0.14675 0.17814 0.21918 0.0
C927 C 0.15325 0.21886 0.21018 0.0
C928 C 0.03224 0.14671 0.196 0.0
C929 C 0.03335 0.10445 0.20474 0.0
N930 N 0.1323 0.07354 0.22183 0.0
N931 N 0.09902 0.23844 0.1896 0.0
C932 C 0.10261 0.11849 0.21545 0.0
C933 C 0.09562 0.20159 0.19848 0.0
N934 N 0.17781 0.19562 0.23163 0.0
N935 N 0.96857 0.13676 0.18536 0.0
H936 H 0.1224 0.28369 0.19177 0.0
H937 H 0.07979 0.22397 0.17999 0.0
H938 H 0.93702 0.09533 0.18112 0.0
H939 H 0.94606 0.1709 0.18047 0.0
H940 H 0.16321 0.16934 0.23856 0.0
H941 H 0.2055 0.23813 0.23567 0.0
H942 H 0.1909 0.07944 0.22894 0.0
H943 H 0.11017 0.02839 0.21878 0.0
C944 C 0.42904 0.46076 0.96653 0.0
C945 C 0.33582 0.45899 0.95868 0.0
C946 C 0.37806 0.35058 0.94985 0.0
C947 C 0.46947 0.35219 0.95801 0.0
N948 N 0.56841 0.40743 0.9759 0.0
N949 N 0.23228 0.40328 0.94126 0.0
C950 C 0.49063 0.40684 0.96686 0.0
C951 C 0.31366 0.40418 0.94987 0.0
N952 N 0.46415 0.51566 0.97301 0.0
N953 N 0.34767 0.29602 0.94275 0.0
H954 H 0.17931 0.4391 0.9414 0.0
H955 H 0.22189 0.36896 0.93332 0.0
H956 H 0.38902 0.25584 0.94298 0.0
H957 H 0.27645 0.28883 0.93763 0.0
H958 H 0.53732 0.52191 0.97776 0.0
H959 H 0.42615 0.55646 0.9724 0.0
H960 H 0.57583 0.44197 0.98387 0.0
H961 H 0.61945 0.37112 0.97618 0.0
C962 C 0.92557 0.87664 0.96823 0.0
C963 C 0.96405 0.84932 0.95593 0.0
C964 C 0.89573 0.94016 0.94788 0.0
C965 C 0.8627 0.96875 0.96038 0.0
N966 N 0.89757 0.97028 0.98299 0.0
N967 N 0.93507 0.84617 0.93333 0.0
C968 C 0.89185 0.93879 0.97072 0.0
C969 C 0.93561 0.87875 0.94553 0.0
N970 N 0.91182 0.84221 0.97741 0.0
N971 N 0.89812 0.9733 0.93834 0.0
H972 H 0.9443 0.79924 0.9313 0.0
H973 H 0.90725 0.86349 0.9255 0.0
H974 H 0.88198 0.01967 0.93998 0.0
H975 H 0.9316 0.9573 0.92939 0.0
H976 H 0.87498 0.85878 0.98616 0.0
H977 H 0.91924 0.79516 0.9755 0.0
H978 H 0.92355 0.95061 0.9906 0.0
H979 H 0.89749 1.01735 0.9853 0.0
C980 C 0.31955 0.88541 0.34597 0.0
C981 C 0.34515 0.8298 0.33757 0.0
C982 C 0.50521 0.88105 0.33035 0.0
C983 C 0.47836 0.93686 0.33854 0.0
N984 N 0.34847 0.99422 0.35248 0.0
N985 N 0.47912 0.77195 0.32435 0.0
C986 C 0.38308 0.93913 0.34601 0.0
C987 C 0.44214 0.82732 0.33038 0.0
N988 N 0.23591 0.88706 0.35424 0.0
N989 N 0.59078 0.87913 0.32233 0.0
H990 H 0.43978 0.73151 0.32481 0.0
H991 H 0.55413 0.76488 0.3201 0.0
H992 H 0.64408 0.9149 0.32263 0.0
H993 H 0.60446 0.84372 0.31468 0.0
H994 H 0.22464 0.92186 0.36207 0.0
H995 H 0.18281 0.85144 0.35405 0.0
H996 H 0.27409 1.00143 0.35689 0.0
H997 H 0.38975 0.03446 0.3524 0.0
C998 C 0.93905 0.40647 0.32758 0.0
C999 C 0.96074 0.44182 0.33989 0.0
C1000 C 0.88153 0.35777 0.34932 0.0
C1001 C 0.86307 0.32201 0.33694 0.0
N1002 N 0.92928 0.30532 0.31516 0.0
N1003 N 0.90782 0.4581 0.36208 0.0
C1004 C 0.90728 0.34436 0.32631 0.0
C1005 C 0.91993 0.41919 0.35067 0.0
N1006 N 0.9396 0.43276 0.317 0.0
N1007 N 0.87266 0.33154 0.35986 0.0
H1008 H 0.91965 0.50468 0.36306 0.0
H1009 H 0.8702 0.44612 0.36998 0.0
H1010 H 0.86029 0.28521 0.35922 0.0
H1011 H 0.89481 0.35324 0.36901 0.0
H1012 H 0.91622 0.40962 0.308 0.0
H1013 H 0.94376 0.47944 0.31752 0.0
H1014 H 0.96782 0.31893 0.30749 0.0
H1015 H 0.92738 0.25839 0.3144 0.0
C1016 C 0.61022 0.68191 0.09479 0.0
C1017 C 0.51069 0.67684 0.0881 0.0
C1018 C 0.54986 0.56671 0.08082 0.0
C1019 C 0.64958 0.57183 0.08759 0.0
N1020 N 0.76108 0.63375 0.10332 0.0
N1021 N 0.39244 0.61464 0.07336 0.0
C1022 C 0.6754 0.62921 0.09525 0.0
C1023 C 0.4827 0.61922 0.08073 0.0
N1024 N 0.64738 0.73849 0.09985 0.0
N1025 N 0.51518 0.51017 0.07526 0.0
H1026 H 0.3377 0.64994 0.07367 0.0
H1027 H 0.37548 0.57744 0.06624 0.0
H1028 H 0.55835 0.47085 0.07576 0.0
H1029 H 0.43955 0.50102 0.07129 0.0
H1030 H 0.72389 0.74698 0.10364 0.0
H1031 H 0.60596 0.77777 0.09888 0.0
H1032 H 0.77318 0.67092 0.11064 0.0
H1033 H 0.81408 0.59836 0.10363 0.0
C1034 C 0.20262 0.13003 0.08243 0.0
C1035 C 0.17399 0.07711 0.0874 0.0
C1036 C 0.9984 0.12571 0.09368 0.0
C1037 C 0.02867 0.17996 0.08926 0.0
N1038 N 0.17002 0.23657 0.08172 0.0
N1039 N 0.04984 0.02984 0.09966 0.0
C1040 C 0.13359 0.18261 0.08421 0.0
C1041 C 0.07375 0.07693 0.09366 0.0
N1042 N 0.29658 0.13019 0.07591 0.0
N1043 N 0.89502 0.11902 0.0973 0.0
H1044 H 0.10003 0.99248 0.09941 0.0
H1045 H 0.98479 0.02993 0.10576 0.0
H1046 H 0.83707 0.15235 0.09746 0.0
H1047 H 0.8635 0.07838 0.09899 0.0
H1048 H 0.31637 0.16298 0.07057 0.0
H1049 H 0.35329 0.09575 0.07532 0.0
H1050 H 0.24928 0.24426 0.07951 0.0
H1051 H 0.12302 0.27565 0.08294 0.0
C1052 C 0.62078 0.10293 0.69918 0.0
C1053 C 0.53216 0.104 0.70773 0.0
C1054 C 0.57759 0.21155 0.71675 0.0
C1055 C 0.66755 0.21034 0.70844 0.0
N1056 N 0.76159 0.1564 0.69003 0.0
N1057 N 0.44392 0.15749 0.7267 0.0
C1058 C 0.6851 0.15644 0.69916 0.0
C1059 C 0.51601 0.15771 0.7171 0.0
N1060 N 0.64941 0.04877 0.69176 0.0
N1061 N 0.54523 0.26605 0.72372 0.0
H1062 H 0.39439 0.12112 0.72727 0.0
H1063 H 0.44044 0.19131 0.73484 0.0
H1064 H 0.58255 0.30691 0.72311 0.0
H1065 H 0.47426 0.27217 0.72891 0.0
H1066 H 0.71914 0.04199 0.68635 0.0
H1067 H 0.60928 1.00836 0.69203 0.0
H1068 H 0.76828 0.12284 0.68189 0.0
H1069 H 0.81327 0.19244 0.68994 0.0
C1070 C 0.00235 0.66192 0.71711 0.0
C1071 C 0.02238 0.60727 0.70822 0.0
C1072 C 0.17857 0.6582 0.70007 0.0
C1073 C 0.15845 0.71301 0.70899 0.0
N1074 N 0.03222 0.77031 0.72354 0.0
N1075 N 0.14408 0.55022 0.69312 0.0
C1076 C 0.06565 0.7153 0.71692 0.0
C1077 C 0.11378 0.60505 0.7001 0.0
N1078 N 0.92389 0.66299 0.72605 0.0
N1079 N 0.25819 0.65678 0.69126 0.0
H1080 H 0.10254 0.51035 0.69343 0.0
H1081 H 0.21576 0.54261 0.68812 0.0
H1082 H 0.31124 0.69221 0.69123 0.0
H1083 H 0.26645 0.62245 0.68328 0.0
H1084 H 0.91802 0.69691 0.73415 0.0
H1085 H 0.87028 0.62764 0.72605 0.0
H1086 H 0.95957 0.77708 0.72837 0.0
H1087 H 0.07105 0.81082 0.723 0.0
C1088 C 0.492 0.19483 0.40696 0.0
C1089 C 0.38302 0.21378 0.40681 0.0
C1090 C 0.40457 0.22139 0.38404 0.0
C1091 C 0.51458 0.20591 0.38453 0.0
N1092 N 0.66849 0.19642 0.39755 0.0
N1093 N 0.2464 0.26135 0.39588 0.0
C1094 C 0.55987 0.19894 0.39639 0.0
C1095 C 0.34243 0.2319 0.39554 0.0
N1096 N 0.52965 0.16858 0.41671 0.0
N1097 N 0.35798 0.22387 0.37253 0.0
H1098 H 0.20113 0.27301 0.4042 0.0
H1099 H 0.21752 0.28029 0.38831 0.0
H1100 H 0.40127 0.21833 0.36402 0.0
H1101 H 0.27561 0.22749 0.37132 0.0
H1102 H 0.60508 0.14857 0.41656 0.0
H1103 H 0.48207 0.1601 0.42419 0.0
H1104 H 0.7072 0.19623 0.40622 0.0
H1105 H 0.71956 0.20135 0.39005 0.0
C1106 C 0.84036 0.05316 0.40074 0.0
C1107 C 0.88156 0.07134 0.38954 0.0
C1108 C 0.05784 0.0854 0.4001 0.0
C1109 C 0.01184 0.07896 0.41191 0.0
N1110 N 0.85485 0.06123 0.42377 0.0
N1111 N 0.02862 0.11694 0.37989 0.0
C1112 C 0.9019 0.0636 0.4123 0.0
C1113 C 0.99054 0.09009 0.3895 0.0
N1114 N 0.74439 0.02387 0.40028 0.0
N1115 N 0.16653 0.08722 0.39902 0.0
H1116 H 0.98115 0.12673 0.37248 0.0
H1117 H 0.10435 0.13646 0.38014 0.0
H1118 H 0.21715 0.08202 0.40657 0.0
H1119 H 0.20553 0.08705 0.39037 0.0
H1120 H 0.71517 1.00498 0.40782 0.0
H1121 H 0.69957 1.0123 0.39192 0.0
H1122 H 0.77244 0.05774 0.42489 0.0
H1123 H 0.89783 0.0666 0.43231 0.0
C1124 C 0.39799 0.11865 0.91286 0.0
C1125 C 0.49675 0.088 0.91354 0.0
C1126 C 0.46945 0.03715 0.89116 0.0
C1127 C 0.38202 0.07663 0.88984 0.0
N1128 N 0.27393 0.16247 0.89972 0.0
N1129 N 0.63288 0.022 0.90263 0.0
C1130 C 0.34956 0.11963 0.90076 0.0
C1131 C 0.53382 0.0477 0.90254 0.0
N1132 N 0.34887 0.14593 0.92391 0.0
N1133 N 0.49193 0.9895 0.88159 0.0
H1134 H 0.68145 0.02807 0.91074 0.0
H1135 H 0.66987 0.99834 0.89443 0.0
H1136 H 0.44982 0.98094 0.873 0.0
H1137 H 0.5463 0.9557 0.88274 0.0
H1138 H 0.27201 0.16422 0.92415 0.0
H1139 H 0.38007 0.14374 0.93292 0.0
H1140 H 0.25633 0.1985 0.90713 0.0
H1141 H 0.23516 0.1656 0.89122 0.0
C1142 C 0.94691 0.15314 0.9046 0.0
C1143 C 0.87104 0.20079 0.90653 0.0
C1144 C 0.92621 0.22844 0.88593 0.0
C1145 C 0.99975 0.17842 0.88361 0.0
N1146 N 0.06364 0.0871 0.89061 0.0
N1147 N 0.78172 0.28188 0.89883 0.0
C1148 C 0.00531 0.13944 0.89293 0.0
C1149 C 0.85922 0.23797 0.89715 0.0
N1150 N 0.96479 0.12028 0.91405 0.0
N1151 N 0.91787 0.26646 0.87733 0.0
H1152 H 0.73668 0.29279 0.90719 0.0
H1153 H 0.75768 0.30578 0.89183 0.0
H1154 H 0.9499 0.25693 0.86819 0.0
H1155 H 0.88034 0.30858 0.87926 0.0
H1156 H 0.03236 0.0933 0.91436 0.0
H1157 H 0.91566 0.12189 0.92199 0.0
H1158 H 0.05219 0.05131 0.89544 0.0
H1159 H 0.12197 0.0779 0.88371 0.0
C1160 C 0.59729 0.82176 0.66218 0.0
C1161 C 0.48757 0.83792 0.66183 0.0
C1162 C 0.50716 0.84541 0.63918 0.0
C1163 C 0.61537 0.82503 0.63922 0.0
N1164 N 0.75039 0.7762 0.65014 0.0
N1165 N 0.33194 0.84627 0.64899 0.0
C1166 C 0.65657 0.80783 0.65053 0.0
C1167 C 0.44062 0.84332 0.64996 0.0
N1168 N 0.64674 0.82228 0.67365 0.0
N1169 N 0.46915 0.87107 0.62937 0.0
H1170 H 0.28175 0.84234 0.65662 0.0
H1171 H 0.29228 0.84563 0.64033 0.0
H1172 H 0.516 0.87834 0.62173 0.0
H1173 H 0.39433 0.89187 0.62961 0.0
H1174 H 0.72926 0.81777 0.67456 0.0
H1175 H 0.60623 0.83199 0.68233 0.0
H1176 H 0.77901 0.75822 0.65785 0.0
H1177 H 0.79291 0.76153 0.64171 0.0
C1178 C 0.94056 0.94848 0.64661 0.0
C1179 C 0.98693 0.95394 0.63475 0.0
C1180 C 0.15611 0.98397 0.64605 0.0
C1181 C 0.11572 0.96629 0.65733 0.0
N1182 N 0.97016 0.91993 0.66711 0.0
N1183 N 0.14507 0.97055 0.62295 0.0
C1184 C 0.00761 0.94598 0.65736 0.0
C1185 C 0.09636 0.97039 0.63441 0.0
N1186 N 0.83193 0.94581 0.64761 0.0
N1187 N 0.2495 1.01575 0.64648 0.0
H1188 H 0.10406 0.96142 0.61428 0.0
H1189 H 0.22747 0.97518 0.62202 0.0
H1190 H 0.29217 0.0303 0.65491 0.0
H1191 H 0.27755 0.03401 0.6388 0.0
H1192 H 0.79269 0.94651 0.65628 0.0
H1193 H 0.78141 0.94997 0.63999 0.0
H1194 H 0.8953 0.89938 0.66686 0.0
H1195 H 0.01744 0.91191 0.67469 0.0
C1196 C 0.59377 0.89869 0.15006 0.0
C1197 C 0.60645 0.95781 0.15719 0.0
C1198 C 0.49507 0.99567 0.14112 0.0
C1199 C 0.49959 0.93724 0.13306 0.0
N1200 N 0.60019 0.84318 0.1286 0.0
N1201 N 0.57738 0.06514 0.15881 0.0
C1202 C 0.56309 0.89173 0.13715 0.0
C1203 C 0.56057 1.00735 0.15243 0.0
N1204 N 0.61086 0.84874 0.1554 0.0
N1205 N 0.4255 0.0388 0.13855 0.0
H1206 H 0.61993 0.07462 0.16738 0.0
H1207 H 0.55472 0.10329 0.15517 0.0
H1208 H 0.37325 0.03193 0.1308 0.0
H1209 H 0.4126 0.0797 0.14481 0.0
H1210 H 0.59532 0.80497 0.15044 0.0
H1211 H 0.63152 0.85136 0.16499 0.0
H1212 H 0.65174 0.81097 0.13124 0.0
H1213 H 0.59218 0.84052 0.11876 0.0
C1214 C 0.96097 0.86427 0.15148 0.0
C1215 C 0.99823 0.84614 0.16278 0.0
C1216 C 0.15644 0.80184 0.15061 0.0
C1217 C 0.126 0.82961 0.14012 0.0
N1218 N 0.00999 0.90207 0.13257 0.0
N1219 N 0.14222 0.80402 0.17347 0.0
C1220 C 0.0311 0.86485 0.14109 0.0
C1221 C 0.09891 0.81624 0.16245 0.0
N1222 N 0.85649 0.87942 0.15053 0.0
N1223 N 0.23764 0.76036 0.14922 0.0
H1224 H 0.10326 0.81471 0.18224 0.0
H1225 H 0.22002 0.78798 0.17406 0.0
H1226 H 0.27928 0.74727 0.14067 0.0
H1227 H 0.25623 0.73459 0.15612 0.0
H1228 H 0.82206 0.88849 0.14215 0.0
H1229 H 0.80329 0.87458 0.15773 0.0
H1230 H 0.94591 0.93243 0.13367 0.0
H1231 H 0.06319 0.90865 0.12542 0.0
C1232 C 0.38354 0.66936 0.88159 0.0
C1233 C 0.48531 0.69731 0.8817 0.0
C1234 C 0.45104 0.74986 0.90384 0.0
C1235 C 0.35908 0.71293 0.90437 0.0
N1236 N 0.24383 0.63272 0.89382 0.0
N1237 N 0.61494 0.76745 0.89272 0.0
C1238 C 0.32607 0.67201 0.89321 0.0
C1239 C 0.51811 0.73937 0.89271 0.0
N1240 N 0.3407 0.64115 0.8702 0.0
N1241 N 0.47276 0.79582 0.91387 0.0
H1242 H 0.66408 0.7621 0.88469 0.0
H1243 H 0.64966 0.79333 0.90082 0.0
H1244 H 0.4253 0.80487 0.92205 0.0
H1245 H 0.53193 0.82817 0.91371 0.0
H1246 H 0.26282 0.62449 0.86926 0.0
H1247 H 0.37912 0.64063 0.86148 0.0
H1248 H 0.22506 0.59692 0.88642 0.0
H1249 H 0.20019 0.63229 0.90212 0.0
C1250 C 0.01781 0.54835 0.90289 0.0
C1251 C 0.9874 0.59148 0.91384 0.0
C1252 C 0.82708 0.61754 0.90252 0.0
C1253 C 0.8572 0.57496 0.89148 0.0
N1254 N 0.96749 0.49002 0.88211 0.0
N1255 N 0.84682 0.65164 0.92539 0.0
C1256 C 0.94845 0.53725 0.89198 0.0
C1257 C 0.88662 0.62101 0.91404 0.0
N1258 N 0.11493 0.52011 0.90267 0.0
N1259 N 0.74561 0.65749 0.90184 0.0
H1260 H 0.88671 0.65333 0.93408 0.0
H1261 H 0.76969 0.66954 0.92641 0.0
H1262 H 0.70024 0.65705 0.89362 0.0
H1263 H 0.72905 0.69444 0.90907 0.0
H1264 H 0.14777 0.49372 0.89451 0.0
H1265 H 0.16648 0.52614 0.91051 0.0
H1266 H 0.02565 0.45701 0.88237 0.0
H1267 H 0.91872 0.48066 0.87404 0.0
C1268 C 0.3365 0.56098 0.40169 0.0
C1269 C 0.37623 0.58003 0.39051 0.0
C1270 C 0.55069 0.59872 0.40131 0.0
C1271 C 0.50497 0.59196 0.4131 0.0
N1272 N 0.34773 0.57289 0.4248 0.0
N1273 N 0.5187 0.63214 0.38142 0.0
C1274 C 0.39598 0.57454 0.41338 0.0
C1275 C 0.48308 0.60258 0.39072 0.0
N1276 N 0.24461 0.52782 0.40113 0.0
N1277 N 0.65921 0.60122 0.40019 0.0
H1278 H 0.46984 0.64299 0.37423 0.0
H1279 H 0.59309 0.65337 0.38188 0.0
H1280 H 0.71029 0.59555 0.40766 0.0
H1281 H 0.69749 0.60175 0.39151 0.0
H1282 H 0.2174 0.50881 0.40875 0.0
H1283 H 0.2026 0.51297 0.39267 0.0
H1284 H 0.26553 0.5673 0.4257 0.0
H1285 H 0.38893 0.58164 0.43346 0.0
C1286 C 0.98851 0.69142 0.40621 0.0
C1287 C 0.88073 0.71301 0.40654 0.0
C1288 C 0.8974 0.71929 0.38372 0.0
C1289 C 0.00722 0.7033 0.3839 0.0
N1290 N 0.16346 0.69469 0.39662 0.0
N1291 N 0.7468 0.76544 0.39613 0.0
C1292 C 0.05473 0.69663 0.39562 0.0
C1293 C 0.83917 0.73241 0.39545 0.0
N1294 N 0.02629 0.66126 0.41535 0.0
N1295 N 0.84717 0.71977 0.37234 0.0
H1296 H 0.70607 0.7806 0.40465 0.0
H1297 H 0.71832 0.78431 0.38852 0.0
H1298 H 0.88725 0.71077 0.36361 0.0
H1299 H 0.76456 0.72454 0.37156 0.0
H1300 H 0.10162 0.64088 0.41478 0.0
H1301 H 0.97855 0.64887 0.42243 0.0
H1302 H 0.20284 0.69419 0.40525 0.0
H1303 H 0.21339 0.70044 0.38908 0.0
C1304 C 0.56299 0.30244 0.15998 0.0
C1305 C 0.49983 0.35656 0.1631 0.0
C1306 C 0.58613 0.3927 0.14495 0.0
C1307 C 0.63406 0.33565 0.14065 0.0
N1308 N 0.65317 0.23166 0.14319 0.0
N1309 N 0.43273 0.44402 0.15496 0.0
C1310 C 0.61819 0.2891 0.14791 0.0
C1311 C 0.5064 0.39897 0.15456 0.0
N1312 N 0.57649 0.26524 0.16865 0.0
N1313 N 0.61829 0.44213 0.14014 0.0
H1314 H 0.36623 0.44719 0.16074 0.0
H1315 H 0.42919 0.47223 0.14821 0.0
H1316 H 0.67991 0.4405 0.1335 0.0
H1317 H 0.59263 0.48603 0.14395 0.0
H1318 H 0.62986 0.22887 0.16725 0.0
H1319 H 0.54452 0.27418 0.17781 0.0
H1320 H 0.63417 0.19468 0.1474 0.0
H1321 H 0.69261 0.22005 0.13445 0.0
C1322 C 0.14308 0.40907 0.14718 0.0
C1323 C 0.11846 0.45826 0.15729 0.0
C1324 C 0.97494 0.48974 0.14377 0.0
C1325 C 0.00388 0.44241 0.13354 0.0
N1326 N 0.14153 0.37252 0.1243 0.0
N1327 N 0.02803 0.55439 0.16363 0.0
C1328 C 0.09609 0.40694 0.13491 0.0
C1329 C 0.04032 0.50162 0.15505 0.0
N1330 N 0.21077 0.36376 0.14914 0.0
N1331 N 0.88239 0.52145 0.14311 0.0
H1332 H 0.07078 0.5643 0.17216 0.0
H1333 H 0.98218 0.59036 0.16165 0.0
H1334 H 0.83328 0.51485 0.13505 0.0
H1335 H 0.85048 0.55115 0.1509 0.0
H1336 H 0.22088 0.32383 0.14246 0.0
H1337 H 0.25072 0.36324 0.15769 0.0
H1338 H 0.21452 0.35017 0.1245 0.0
H1339 H 0.11299 0.37247 0.11506 0.0
C1340 C 0.49985 0.38517 0.6425 0.0
C1341 C 0.4986 0.42565 0.63352 0.0
C1342 C 0.61772 0.49321 0.64851 0.0
C1343 C 0.6286 0.44856 0.65631 0.0
N1344 N 0.60308 0.34405 0.65809 0.0
N1345 N 0.58643 0.51162 0.62715 0.0
C1346 C 0.57686 0.39222 0.65249 0.0
C1347 C 0.56551 0.47816 0.63631 0.0
N1348 N 0.42418 0.34131 0.6421 0.0
N1349 N 0.65497 0.55054 0.65279 0.0
H1350 H 0.56018 0.49926 0.61779 0.0
H1351 H 0.64176 0.54689 0.6284 0.0
H1352 H 0.69206 0.56357 0.66166 0.0
H1353 H 0.63947 0.58637 0.64806 0.0
H1354 H 0.41618 0.31524 0.64919 0.0
H1355 H 0.3605 0.3367 0.63583 0.0
H1356 H 0.57581 0.30019 0.65462 0.0
H1357 H 0.6614 0.34615 0.66517 0.0
C1358 C 0.14089 0.38148 0.64936 0.0
C1359 C 0.11032 0.33548 0.63889 0.0
C1360 C 0.96312 0.30676 0.65212 0.0
C1361 C 0.99839 0.35029 0.66271 0.0
N1362 N 0.14457 0.41183 0.67241 0.0
N1363 N 0.00688 0.2449 0.63165 0.0
C1364 C 0.09453 0.38242 0.6616 0.0
C1365 C 0.02642 0.295 0.64073 0.0
N1366 N 0.21367 0.42477 0.64778 0.0
N1367 N 0.86707 0.27849 0.65263 0.0
H1368 H 0.04845 0.23529 0.62305 0.0
H1369 H 0.95584 0.21052 0.63326 0.0
H1370 H 0.82021 0.28423 0.66085 0.0
H1371 H 0.83052 0.25254 0.64464 0.0
H1372 H 0.22941 0.46259 0.65484 0.0
H1373 H 0.25212 0.42604 0.63918 0.0
H1374 H 0.21997 0.43148 0.67233 0.0
H1375 H 0.11665 0.40957 0.68154 0.0
C1376 C 0.35613 0.29608 0.52593 0.0
C1377 C 0.27861 0.29292 0.53557 0.0
C1378 C 0.15298 0.24379 0.51893 0.0
C1379 C 0.22915 0.24877 0.50925 0.0
N1380 N 0.39626 0.28823 0.50327 0.0
N1381 N 0.09712 0.27352 0.54112 0.0
C1382 C 0.3286 0.27772 0.51269 0.0
C1383 C 0.17541 0.26915 0.53203 0.0
N1384 N 0.45757 0.31477 0.52949 0.0
N1385 N 0.05865 0.21455 0.51556 0.0
H1386 H 0.11072 0.29125 0.55077 0.0
H1387 H 0.01698 0.26359 0.53909 0.0
H1388 H 0.03551 0.20022 0.50606 0.0
H1389 H 0.00538 0.20236 0.52214 0.0
H1390 H 0.52121 0.31304 0.52315 0.0
H1391 H 0.48057 0.32759 0.53904 0.0
H1392 H 0.46487 0.31468 0.50497 0.0
H1393 H 0.37917 0.27444 0.49357 0.0
C1394 C 0.91308 0.04361 0.53049 0.0
C1395 C 0.97238 0.99704 0.53472 0.0
C1396 C 0.09789 0.9939 0.51679 0.0
C1397 C 0.0392 0.04101 0.51258 0.0
N1398 N 0.87859 0.10271 0.5141 0.0
N1399 N 0.13055 0.93428 0.53323 0.0
C1400 C 0.94314 0.06339 0.51902 0.0
C1401 C 0.06764 0.97425 0.52828 0.0
N1402 N 0.83315 0.07275 0.53804 0.0
N1403 N 0.17658 0.96382 0.50919 0.0
H1404 H 0.10833 0.91494 0.541 0.0
H1405 H 0.20824 0.92297 0.53016 0.0
H1406 H 0.1983 0.97408 0.50039 0.0
H1407 H 0.21324 0.92434 0.51085 0.0
H1408 H 0.79599 0.11222 0.53644 0.0
H1409 H 0.81048 0.06139 0.54672 0.0
H1410 H 0.8002 0.1125 0.51709 0.0
H1411 H 0.89987 0.12355 0.50653 0.0
C1412 C 0.34648 0.0406 0.76694 0.0
C1413 C 0.27451 0.99846 0.75976 0.0
C1414 C 0.16128 1.0034 0.77909 0.0
C1415 C 0.23458 0.04476 0.78632 0.0
N1416 N 0.40805 0.09227 0.7878 0.0
N1417 N 0.10506 0.94679 0.75833 0.0
C1418 C 0.32963 0.06095 0.78037 0.0
C1419 C 0.18029 0.9812 0.76573 0.0
N1420 N 0.43117 0.06163 0.76094 0.0
N1421 N 0.07317 0.98527 0.78498 0.0
H1422 H 0.11308 0.93265 0.74847 0.0
H1423 H 0.03055 0.93587 0.76156 0.0
H1424 H 0.04992 1.00464 0.79423 0.0
H1425 H 0.02466 0.94908 0.781 0.0
H1426 H 0.4772 0.09875 0.76506 0.0
H1427 H 0.4517 0.04488 0.75146 0.0
H1428 H 0.48366 0.10056 0.78445 0.0
H1429 H 0.40211 0.10485 0.79772 0.0
C1430 C 0.95482 0.29016 0.78492 0.0
C1431 C 0.05117 0.25592 0.78481 0.0
C1432 C 0.09024 0.27541 0.76334 0.0
C1433 C 0.98667 0.3006 0.76263 0.0
N1434 N 0.8171 0.33032 0.77271 0.0
N1435 N 0.19904 0.20549 0.77255 0.0
C1436 C 0.91772 0.30713 0.77339 0.0
C1437 C 0.11623 0.24603 0.77369 0.0
N1438 N 0.90158 0.30956 0.79615 0.0
N1439 N 0.16482 0.27975 0.75422 0.0
H1440 H 0.21766 0.18009 0.77952 0.0
H1441 H 0.24156 0.19198 0.76408 0.0
H1442 H 0.14924 0.3 0.74638 0.0
H1443 H 0.24506 0.26857 0.75517 0.0
H1444 H 0.83858 0.34052 0.79709 0.0
H1445 H 0.92668 0.29983 0.80487 0.0
H1446 H 0.75861 0.32902 0.77961 0.0
H1447 H 0.78995 0.34825 0.76492 0.0
C1448 C 0.65286 0.74472 0.52007 0.0
C1449 C 0.72672 0.75326 0.51036 0.0
C1450 C 0.85545 0.79765 0.52711 0.0
C1451 C 0.78001 0.79143 0.53678 0.0
N1452 N 0.60257 0.76562 0.54258 0.0
N1453 N 0.89233 0.79526 0.50454 0.0
C1454 C 0.67765 0.7664 0.53328 0.0
C1455 C 0.82612 0.7822 0.51387 0.0
N1456 N 0.55849 0.71559 0.5166 0.0
N1457 N 0.95699 0.81627 0.53063 0.0
H1458 H 0.8748 0.78315 0.49482 0.0
H1459 H 0.96042 0.82207 0.50637 0.0
H1460 H 0.98131 0.82675 0.54017 0.0
H1461 H 0.01962 0.81644 0.52421 0.0
H1462 H 0.50687 0.70071 0.52301 0.0
H1463 H 0.53315 0.70431 0.50711 0.0
H1464 H 0.52247 0.75485 0.54075 0.0
H1465 H 0.61912 0.77901 0.55231 0.0
C1466 C 0.67513 0.99896 0.26548 0.0
C1467 C 0.77464 1.01068 0.25986 0.0
C1468 C 0.83907 0.06149 0.28118 0.0
C1469 C 0.73937 0.0499 0.28679 0.0
N1470 N 0.55703 1.01539 0.28396 0.0
N1471 N 0.95569 0.04696 0.26251 0.0
C1472 C 0.65642 0.02002 0.27886 0.0
C1473 C 0.85725 0.04109 0.26775 0.0
N1474 N 0.59853 0.96645 0.25796 0.0
N1475 N 0.91633 0.09297 0.28877 0.0
H1476 H 0.97149 0.03385 0.25277 0.0
H1477 H 0.02381 0.06196 0.26777 0.0
H1478 H 0.91108 0.10288 0.29872 0.0
H1479 H 0.98419 0.11116 0.2853 0.0
H1480 H 0.53169 0.94764 0.26152 0.0
H1481 H 0.60386 0.95588 0.24801 0.0
H1482 H 0.48919 1.00102 0.27858 0.0
H1483 H 0.53975 0.02952 0.29363 0.0
C1484 C 0.08069 0.80483 0.28108 0.0
C1485 C 0.02948 0.75408 0.28469 0.0
C1486 C 0.9112 0.74573 0.26596 0.0
C1487 C 0.95626 0.79931 0.26293 0.0
N1488 N 0.06778 0.88731 0.26929 0.0
N1489 N 0.87897 0.68542 0.28218 0.0
C1490 C 0.03708 0.83082 0.27092 0.0
C1491 C 0.93912 0.72763 0.27768 0.0
N1492 N 0.17002 0.82903 0.28749 0.0
N1493 N 0.84663 0.70981 0.25733 0.0
H1494 H 0.89777 0.66907 0.29046 0.0
H1495 H 0.80552 0.67008 0.27821 0.0
H1496 H 0.8275 0.71965 0.2484 0.0
H1497 H 0.8214 0.66692 0.25846 0.0
H1498 H 0.21833 0.86091 0.28431 0.0
H1499 H 0.19979 0.81483 0.29561 0.0
H1500 H 0.11787 0.91534 0.27562 0.0
H1501 H 0.03464 0.90901 0.26234 0.0
C1502 C 0.16029 0.80327 0.0302 0.0
C1503 C 0.25723 0.78794 0.03596 0.0
C1504 C 0.31944 0.73396 1.01487 0.0
C1505 C 0.22223 0.74898 1.00912 0.0
N1506 N 0.0449 0.79176 1.01144 0.0
N1507 N 0.43493 0.74572 0.03362 0.0
C1508 C 0.1418 0.78271 1.01681 0.0
C1509 C 0.33784 0.75447 0.02826 0.0
N1510 N 0.08618 0.83851 0.03761 0.0
N1511 N 0.39399 0.69904 1.00747 0.0
H1512 H 0.45116 0.75903 0.04335 0.0
H1513 H 0.5021 0.72836 0.02844 0.0
H1514 H 0.38941 0.68878 0.9975 0.0
H1515 H 0.45857 0.67831 1.0111 0.0
H1516 H 0.02143 0.85914 0.03399 0.0
H1517 H 0.0914 0.84923 0.04757 0.0
H1518 H 0.97797 0.80965 1.0166 0.0
H1519 H 0.02862 0.77838 1.00171 0.0
C1520 C 0.92299 0.53865 1.01512 0.0
C1521 C 0.03395 0.54408 1.0126 0.0
C1522 C 0.07755 0.49892 0.03137 0.0
C1523 C 0.96706 0.49786 0.03447 0.0
N1524 N 0.78391 0.5204 0.02983 0.0
N1525 N 0.21615 0.54232 1.01996 0.0
C1526 C 0.88974 0.51929 0.02654 0.0
C1527 C 0.11107 0.52749 1.02114 0.0
N1528 N 0.84908 0.54889 1.00627 0.0
N1529 N 0.151 0.47241 0.03813 0.0
H1530 H 0.24334 0.56527 1.01291 0.0
H1531 H 0.27445 0.5378 0.02672 0.0
H1532 H 0.13128 0.45324 0.04601 0.0
H1533 H 0.23066 0.46557 0.03537 0.0
H1534 H 0.76827 0.53847 1.00671 0.0
H1535 H 0.86919 0.56368 0.99788 0.0
H1536 H 0.72543 0.54315 0.02557 0.0
H1537 H 0.75439 0.50081 0.03726 0.0
C1538 C 0.31925 0.51189 0.28335 0.0
C1539 C 0.21717 0.53765 0.28683 0.0
C1540 C 0.16382 0.51743 0.26401 0.0
C1541 C 0.26895 0.49684 0.26047 0.0
N1542 N 0.4503 0.47955 0.26655 0.0
N1543 N 0.04334 0.56811 0.28053 0.0
C1544 C 0.34759 0.49549 0.27011 0.0
C1545 C 0.13991 0.54132 0.27714 0.0
N1546 N 0.38862 0.50237 0.29274 0.0
N1547 N 0.08568 0.512 0.25486 0.0
H1548 H 0.01988 0.58175 0.29003 0.0
H1549 H 0.98823 0.57904 0.27397 0.0
H1550 H 0.10085 0.49619 0.24517 0.0
H1551 H 0.00478 0.51944 0.25685 0.0
H1552 H 0.45945 0.4778 0.29098 0.0
H1553 H 0.37113 0.51481 0.30245 0.0
H1554 H 0.51424 0.4826 0.27291 0.0
H1555 H 0.47352 0.46757 0.257 0.0
C1556 C 0.65009 0.2488 1.01952 0.0
C1557 C 0.73108 0.24644 1.01005 0.0
C1558 C 0.86311 0.28269 0.02704 0.0
C1559 C 0.78135 0.28746 0.03646 0.0
N1560 N 0.59549 0.28041 0.04176 0.0
N1561 N 0.91106 0.26834 1.00448 0.0
C1562 C 0.67435 0.27177 0.0327 0.0
C1563 C 0.83658 0.26565 1.01374 0.0
N1564 N 0.54979 0.22848 1.01584 0.0
N1565 N 0.96699 0.29263 0.03089 0.0
H1566 H 0.89456 0.25508 0.99474 0.0
H1567 H 0.98624 0.28785 1.00628 0.0
H1568 H 0.98889 0.30372 0.04051 0.0
H1569 H 0.03233 0.28516 0.02476 0.0
H1570 H 0.48901 0.22306 1.02218 0.0
H1571 H 0.52785 0.21504 1.00627 0.0
H1572 H 0.51415 0.2765 0.03973 0.0
H1573 H 0.61124 0.29431 0.0515 0.0
C1574 C 0.64486 0.53179 0.77669 0.0
C1575 C 0.72136 0.52835 0.78648 0.0
C1576 C 0.85491 0.48946 0.76991 0.0
C1577 C 0.77755 0.49083 0.76014 0.0
N1578 N 0.59528 0.50638 0.75417 0.0
N1579 N 0.89298 0.4938 0.79252 0.0
C1580 C 0.67156 0.51046 0.76353 0.0
C1581 C 0.82438 0.50378 0.7831 0.0
N1582 N 0.54586 0.55527 0.78006 0.0
N1583 N 0.95919 0.47715 0.76655 0.0
H1584 H 0.87408 0.5049 0.80222 0.0
H1585 H 0.96442 0.46981 0.79075 0.0
H1586 H 0.98468 0.46961 0.75705 0.0
H1587 H 0.02195 0.48019 0.77307 0.0
H1588 H 0.49124 0.56786 0.77363 0.0
H1589 H 0.51922 0.56351 0.78951 0.0
H1590 H 0.51406 0.51368 0.75596 0.0
H1591 H 0.61247 0.49243 0.74448 0.0
C1592 C 0.58097 0.98002 1.01483 0.0
C1593 C 0.53549 0.0339 1.01186 0.0
C1594 C 0.4259 0.04587 0.0313 0.0
C1595 C 0.46442 0.98956 0.03371 0.0
N1596 N 0.56157 0.89679 0.02631 0.0
N1597 N 0.39624 0.11029 1.01582 0.0
C1598 C 0.53785 0.95498 0.02511 0.0
C1599 C 0.45194 0.0642 1.0196 0.0
N1600 N 0.66405 0.95198 1.00773 0.0
N1601 N 0.36938 0.0838 0.0405 0.0
H1602 H 0.41409 0.12739 1.00763 0.0
H1603 H 0.32648 0.12858 1.02033 0.0
H1604 H 0.35167 0.07344 0.04941 0.0
H1605 H 0.34992 0.12826 0.03983 0.0
H1606 H 0.70886 0.91715 1.01039 0.0
H1607 H 0.6926 0.96555 0.99951 0.0
H1608 H 0.60515 0.8669 1.01955 0.0
H1609 H 0.52883 0.8761 0.03341 0.0
C1610 C 0.45278 0.29721 0.28581 0.0
C1611 C 0.53574 0.25312 0.28481 0.0
C1612 C 0.55425 0.25556 0.26193 0.0
C1613 C 0.46621 0.29657 0.26273 0.0
N1614 N 0.3226 0.35068 0.2752 0.0
N1615 N 0.64927 0.18081 0.27145 0.0
C1616 C 0.41248 0.31537 0.27458 0.0
C1617 C 0.58258 0.22998 0.27276 0.0
N1618 N 0.41567 0.32416 0.29758 0.0
N1619 N 0.61086 0.24033 0.2508 0.0
H1620 H 0.67008 0.15985 0.27905 0.0
H1621 H 0.67561 0.15688 0.26266 0.0
H1622 H 0.58904 0.25324 0.24227 0.0
H1623 H 0.68393 0.21759 0.2502 0.0
H1624 H 0.36721 0.36262 0.29914 0.0
H1625 H 0.43985 0.31109 0.306 0.0
H1626 H 0.27181 0.35871 0.28308 0.0
H1627 H 0.29439 0.36954 0.26761 0.0
C1628 C 0.61852 0.7543 0.77438 0.0
C1629 C 0.54248 0.74413 0.78364 0.0
C1630 C 0.39918 0.7831 0.77137 0.0
C1631 C 0.47571 0.79357 0.76219 0.0
N1632 N 0.66074 0.80177 0.75635 0.0
N1633 N 0.35787 0.74058 0.79013 0.0
C1634 C 0.58611 0.78297 0.76412 0.0
C1635 C 0.43199 0.75613 0.78189 0.0
N1636 N 0.72032 0.73223 0.77484 0.0
N1637 N 0.29642 0.80326 0.77051 0.0
H1638 H 0.3779 0.72364 0.79828 0.0
H1639 H 0.27572 0.74076 0.78856 0.0
H1640 H 0.27042 0.8249 0.76318 0.0
H1641 H 0.23894 0.80401 0.77759 0.0
H1642 H 0.776 0.73125 0.76754 0.0
H1643 H 0.74622 0.70879 0.78188 0.0
H1644 H 0.7426 0.80216 0.75819 0.0
H1645 H 0.64104 0.82177 0.74858 0.0
C1646 C 0.41144 0.54417 0.53006 0.0
C1647 C 0.47252 0.49956 0.53477 0.0
C1648 C 0.603 0.4978 0.51736 0.0
C1649 C 0.54134 0.54219 0.51263 0.0
N1650 N 0.37768 0.6 0.51303 0.0
N1651 N 0.63139 0.43757 0.53384 0.0
C1652 C 0.44274 0.56296 0.51854 0.0
C1653 C 0.56992 0.47755 0.5287 0.0
N1654 N 0.32795 0.5721 0.53715 0.0
N1655 N 0.68856 0.4715 0.51042 0.0
H1656 H 0.60641 0.41748 0.5414 0.0
H1657 H 0.70959 0.42601 0.53107 0.0
H1658 H 0.71344 0.48357 0.50189 0.0
H1659 H 0.73042 0.43426 0.51241 0.0
H1660 H 0.28826 0.61003 0.53513 0.0
H1661 H 0.30416 0.5613 0.54584 0.0
H1662 H 0.29861 0.6095 0.51576 0.0
H1663 H 0.3999 0.61873 0.50518 0.0
loop_
_geom_bond_atom_site_label_1
_geom_bond_atom_site_label_2
_geom_bond_distance
_geom_bond_site_symmetry_2
_ccdc_geom_bond_type
Co0 H3 2.400 . S
Co0 O4 2.009 . S
Co0 O12 2.115 . S
Co0 O13 2.315 . S
Co0 O24 2.053 . S
Co0 O27 2.094 . S
Co0 O30 2.122 . S
Co1 O4 2.126 . S
Co1 H5 2.388 . S
Co1 O6 2.053 . S
Co1 O9 2.047 . S
Co1 O15 2.113 . S
Co1 O26 2.063 . S
Co2 H3 2.388 . S
Co2 O4 2.053 . S
Co2 O6 2.126 . S
Co2 O11 2.063 . S
Co2 O25 2.047 . S
Co2 O31 2.113 . S
H3 Co0 2.400 . S
H3 Co2 2.388 . S
H3 O4 0.760 . S
O4 Co0 2.009 . S
O4 Co1 2.126 . S
O4 Co2 2.053 . S
O4 H3 0.760 . S
H5 Co1 2.388 . S
H5 O6 0.760 . S
H5 Co7 2.400 . S
O6 Co1 2.053 . S
O6 Co2 2.126 . S
O6 H5 0.760 . S
O6 Co7 2.009 . S
Co7 H5 2.400 . S
Co7 O6 2.009 . S
Co7 O8 2.053 1_545 S
Co7 O10 2.094 . S
Co7 O14 2.122 . S
Co7 O28 2.115 . S
Co7 O29 2.315 . S
O8 Co7 2.053 1_565 S
O8 C20 1.259 1_455 S
O9 Co1 2.047 . S
O9 C20 1.257 1_445 S
O10 Co7 2.094 . S
O10 C21 1.253 . S
O11 Co2 2.063 . S
O11 C21 1.268 . S
O12 Co0 2.115 . S
O12 C22 1.281 . S
O13 Co0 2.315 . S
O13 C22 1.252 . S
O14 Co7 2.122 . S
O14 C23 1.272 1_545 S
O15 Co1 2.113 . S
O15 C23 1.245 1_545 S
C16 O24 1.259 . S
C16 O25 1.257 . S
C17 O26 1.268 . S
C17 O27 1.253 . S
C18 O28 1.281 . S
C18 O29 1.252 . S
C19 O30 1.272 . S
C19 O31 1.245 . S
C20 O8 1.259 1_655 S
C20 O9 1.257 1_665 S
C21 O10 1.253 . S
C21 O11 1.268 . S
C22 O12 1.281 . S
C22 O13 1.252 . S
C23 O14 1.272 1_565 S
C23 O15 1.245 1_565 S
O24 Co0 2.053 . S
O24 C16 1.259 . S
O25 Co2 2.047 . S
O25 C16 1.257 . S
O26 Co1 2.063 . S
O26 C17 1.268 . S
O27 Co0 2.094 . S
O27 C17 1.253 . S
O28 Co7 2.115 . S
O28 C18 1.281 . S
O29 Co7 2.315 . S
O29 C18 1.252 . S
O30 Co0 2.122 . S
O30 C19 1.272 . S
O31 Co2 2.113 . S
O31 C19 1.245 . S
Co32 H35 2.400 . S
Co32 O36 2.009 . S
Co32 O44 2.115 . S
Co32 O45 2.315 . S
Co32 O56 2.053 1_545 S
Co32 O59 2.094 . S
Co32 O62 2.129 . S
Co33 O36 2.126 . S
Co33 H37 2.388 . S
Co33 O38 2.053 . S
Co33 O41 2.047 . S
Co33 O47 2.113 . S
Co33 O58 2.063 . S
Co34 H35 2.388 . S
Co34 O36 2.053 . S
Co34 O38 2.126 . S
Co34 O43 2.063 . S
Co34 O57 2.047 1_545 S
Co34 O63 2.113 . S
H35 Co32 2.400 . S
H35 Co34 2.388 . S
H35 O36 0.760 . S
O36 Co32 2.009 . S
O36 Co33 2.126 . S
O36 Co34 2.053 . S
O36 H35 0.760 . S
H37 Co33 2.388 . S
H37 O38 0.760 . S
H37 Co39 2.400 . S
O38 Co33 2.053 . S
O38 Co34 2.126 . S
O38 H37 0.760 . S
O38 Co39 2.009 . S
Co39 H37 2.400 . S
Co39 O38 2.009 . S
Co39 O40 2.053 . S
Co39 O42 2.094 . S
Co39 O46 2.122 . S
Co39 O60 2.115 . S
Co39 O61 2.315 . S
O40 Co39 2.053 . S
O40 C52 1.259 1_455 S
O41 Co33 2.047 . S
O41 C52 1.257 1_455 S
O42 Co39 2.094 . S
O42 C53 1.253 . S
O43 Co34 2.063 . S
O43 C53 1.268 . S
O44 Co32 2.115 . S
O44 C54 1.281 . S
O45 Co32 2.315 . S
O45 C54 1.252 . S
O46 Co39 2.122 . S
O46 C55 1.272 . S
O47 Co33 2.113 . S
O47 C55 1.245 . S
C48 O56 1.259 . S
C48 O57 1.257 . S
C49 O58 1.268 . S
C49 O59 1.253 . S
C50 O60 1.281 . S
C50 O61 1.252 . S
C51 O62 1.270 1_565 S
C51 O63 1.245 1_565 S
C52 O40 1.259 1_655 S
C52 O41 1.257 1_655 S
C53 O42 1.253 . S
C53 O43 1.268 . S
C54 O44 1.281 . S
C54 O45 1.252 . S
C55 O46 1.272 . S
C55 O47 1.245 . S
O56 Co32 2.053 1_565 S
O56 C48 1.259 . S
O57 Co34 2.047 1_565 S
O57 C48 1.257 . S
O58 Co33 2.063 . S
O58 C49 1.268 . S
O59 Co32 2.094 . S
O59 C49 1.253 . S
O60 Co39 2.115 . S
O60 C50 1.281 . S
O61 Co39 2.315 . S
O61 C50 1.252 . S
O62 Co32 2.129 . S
O62 C51 1.270 1_545 S
O63 Co34 2.113 . S
O63 C51 1.245 1_545 S
Co64 H67 2.400 . S
Co64 O68 2.009 . S
Co64 O76 2.115 . S
Co64 O77 2.315 . S
Co64 O88 2.053 1_565 S
Co64 O91 2.094 . S
Co64 O94 2.122 . S
Co65 O68 2.126 . S
Co65 H69 2.388 . S
Co65 O70 2.053 . S
Co65 O73 2.047 . S
Co65 O79 2.113 . S
Co65 O90 2.063 . S
Co66 H67 2.388 . S
Co66 O68 2.053 . S
Co66 O70 2.126 . S
Co66 O75 2.063 . S
Co66 O89 2.047 . S
Co66 O95 2.113 . S
H67 Co64 2.400 . S
H67 Co66 2.388 . S
H67 O68 0.760 . S
O68 Co64 2.009 . S
O68 Co65 2.126 . S
O68 Co66 2.053 . S
O68 H67 0.760 . S
H69 Co65 2.388 . S
H69 O70 0.760 . S
H69 Co71 2.400 . S
O70 Co65 2.053 . S
O70 Co66 2.126 . S
O70 H69 0.760 . S
O70 Co71 2.009 . S
Co71 H69 2.400 . S
Co71 O70 2.009 . S
Co71 O72 2.053 . S
Co71 O74 2.094 . S
Co71 O78 2.122 . S
Co71 O92 2.115 . S
Co71 O93 2.315 . S
O72 Co71 2.053 . S
O72 C84 1.259 . S
O73 Co65 2.047 . S
O73 C84 1.257 . S
O74 Co71 2.094 . S
O74 C85 1.253 . S
O75 Co66 2.063 . S
O75 C85 1.268 . S
O76 Co64 2.115 . S
O76 C86 1.281 . S
O77 Co64 2.315 . S
O77 C86 1.252 . S
O78 Co71 2.122 . S
O78 C87 1.272 . S
O79 Co65 2.113 . S
O79 C87 1.245 . S
C80 O88 1.259 1_455 S
C80 O89 1.257 1_445 S
C81 O90 1.268 . S
C81 O91 1.253 . S
C82 O92 1.281 . S
C82 O93 1.252 . S
C83 O94 1.272 1_545 S
C83 O95 1.245 1_545 S
C84 O72 1.259 . S
C84 O73 1.257 . S
C85 O74 1.253 . S
C85 O75 1.268 . S
C86 O76 1.281 . S
C86 O77 1.252 . S
C87 O78 1.272 . S
C87 O79 1.245 . S
O88 Co64 2.053 1_545 S
O88 C80 1.259 1_655 S
O89 Co66 2.047 . S
O89 C80 1.257 1_665 S
O90 Co65 2.063 . S
O90 C81 1.268 . S
O91 Co64 2.094 . S
O91 C81 1.253 . S
O92 Co71 2.115 . S
O92 C82 1.281 . S
O93 Co71 2.315 . S
O93 C82 1.252 . S
O94 Co64 2.122 . S
O94 C83 1.272 1_565 S
O95 Co66 2.113 . S
O95 C83 1.245 1_565 S
Co96 H99 2.400 . S
Co96 O100 2.009 . S
Co96 O108 2.115 . S
Co96 O109 2.315 . S
Co96 O120 2.053 . S
Co96 O123 2.094 . S
Co96 O126 2.122 . S
Co97 O100 2.126 . S
Co97 H101 2.388 . S
Co97 O102 2.053 . S
Co97 O105 2.047 1_565 S
Co97 O111 2.113 . S
Co97 O122 2.063 . S
Co98 H99 2.388 . S
Co98 O100 2.053 . S
Co98 O102 2.126 . S
Co98 O107 2.063 . S
Co98 O121 2.047 . S
Co98 O127 2.113 . S
H99 Co96 2.400 . S
H99 Co98 2.388 . S
H99 O100 0.760 . S
O100 Co96 2.009 . S
O100 Co97 2.126 . S
O100 Co98 2.053 . S
O100 H99 0.760 . S
H101 Co97 2.388 . S
H101 O102 0.760 . S
H101 Co103 2.400 . S
O102 Co97 2.053 . S
O102 Co98 2.126 . S
O102 H101 0.760 . S
O102 Co103 2.009 . S
Co103 H101 2.400 . S
Co103 O102 2.009 . S
Co103 O104 2.053 1_565 S
Co103 O106 2.094 . S
Co103 O110 2.129 . S
Co103 O124 2.115 . S
Co103 O125 2.315 . S
O104 Co103 2.053 1_545 S
O104 C116 1.259 . S
O105 Co97 2.047 1_545 S
O105 C116 1.257 . S
O106 Co103 2.094 . S
O106 C117 1.253 . S
O107 Co98 2.063 . S
O107 C117 1.268 . S
O108 Co96 2.115 . S
O108 C118 1.281 . S
O109 Co96 2.315 . S
O109 C118 1.252 . S
O110 Co103 2.129 . S
O110 C119 1.270 1_565 S
O111 Co97 2.113 . S
O111 C119 1.245 1_565 S
C112 O120 1.259 1_455 S
C112 O121 1.257 1_455 S
C113 O122 1.268 . S
C113 O123 1.253 . S
C114 O124 1.281 . S
C114 O125 1.252 . S
C115 O126 1.272 . S
C115 O127 1.245 . S
C116 O104 1.259 . S
C116 O105 1.257 . S
C117 O106 1.253 . S
C117 O107 1.268 . S
C118 O108 1.281 . S
C118 O109 1.252 . S
C119 O110 1.270 1_545 S
C119 O111 1.245 1_545 S
O120 Co96 2.053 . S
O120 C112 1.259 1_655 S
O121 Co98 2.047 . S
O121 C112 1.257 1_655 S
O122 Co97 2.063 . S
O122 C113 1.268 . S
O123 Co96 2.094 . S
O123 C113 1.253 . S
O124 Co103 2.115 . S
O124 C114 1.281 . S
O125 Co103 2.315 . S
O125 C114 1.252 . S
O126 Co96 2.122 . S
O126 C115 1.272 . S
O127 Co98 2.113 . S
O127 C115 1.245 . S
Co128 H131 2.400 . S
Co128 O132 2.009 . S
Co128 O140 2.115 . S
Co128 O141 2.315 . S
Co128 O152 2.053 . S
Co128 O155 2.094 . S
Co128 O158 2.122 . S
Co129 O132 2.126 . S
Co129 H133 2.388 . S
Co129 O134 2.053 . S
Co129 O137 2.047 . S
Co129 O143 2.113 . S
Co129 O154 2.063 . S
Co130 H131 2.388 . S
Co130 O132 2.053 . S
Co130 O134 2.126 . S
Co130 O139 2.063 . S
Co130 O153 2.047 . S
Co130 O159 2.113 . S
H131 Co128 2.400 . S
H131 Co130 2.388 . S
H131 O132 0.760 . S
O132 Co128 2.009 . S
O132 Co129 2.126 . S
O132 Co130 2.053 . S
O132 H131 0.760 . S
H133 Co129 2.388 . S
H133 O134 0.760 . S
H133 Co135 2.400 . S
O134 Co129 2.053 . S
O134 Co130 2.126 . S
O134 H133 0.760 . S
O134 Co135 2.009 . S
Co135 H133 2.400 . S
Co135 O134 2.009 . S
Co135 O136 2.053 . S
Co135 O138 2.094 . S
Co135 O142 2.122 . S
Co135 O156 2.115 . S
Co135 O157 2.315 . S
O136 Co135 2.053 . S
O136 C148 1.259 1_455 S
O137 Co129 2.047 . S
O137 C148 1.257 1_455 S
O138 Co135 2.094 . S
O138 C149 1.253 . S
O139 Co130 2.063 . S
O139 C149 1.268 . S
O140 Co128 2.115 . S
O140 C150 1.281 . S
O141 Co128 2.315 . S
O141 C150 1.252 . S
O142 Co135 2.122 . S
O142 C151 1.272 . S
O143 Co129 2.113 . S
O143 C151 1.245 . S
C144 O152 1.259 . S
C144 O153 1.257 . S
C145 O154 1.268 . S
C145 O155 1.253 . S
C146 O156 1.281 . S
C146 O157 1.252 . S
C147 O158 1.272 . S
C147 O159 1.245 . S
C148 O136 1.259 1_655 S
C148 O137 1.257 1_655 S
C149 O138 1.253 . S
C149 O139 1.268 . S
C150 O140 1.281 . S
C150 O141 1.252 . S
C151 O142 1.272 . S
C151 O143 1.245 . S
O152 Co128 2.053 . S
O152 C144 1.259 . S
O153 Co130 2.047 . S
O153 C144 1.257 . S
O154 Co129 2.063 . S
O154 C145 1.268 . S
O155 Co128 2.094 . S
O155 C145 1.253 . S
O156 Co135 2.115 . S
O156 C146 1.281 . S
O157 Co135 2.315 . S
O157 C146 1.252 . S
O158 Co128 2.122 . S
O158 C147 1.272 . S
O159 Co130 2.113 . S
O159 C147 1.245 . S
Co160 H163 2.400 . S
Co160 O164 2.009 . S
Co160 O172 2.115 . S
Co160 O173 2.315 . S
Co160 O184 2.053 . S
Co160 O187 2.094 . S
Co160 O190 2.122 . S
Co161 O164 2.126 . S
Co161 H165 2.388 . S
Co161 O166 2.053 . S
Co161 O169 2.047 . S
Co161 O175 2.113 . S
Co161 O186 2.063 . S
Co162 H163 2.388 . S
Co162 O164 2.053 . S
Co162 O166 2.126 . S
Co162 O171 2.063 . S
Co162 O185 2.047 . S
Co162 O191 2.113 . S
H163 Co160 2.400 . S
H163 Co162 2.388 . S
H163 O164 0.760 . S
O164 Co160 2.009 . S
O164 Co161 2.126 . S
O164 Co162 2.053 . S
O164 H163 0.760 . S
H165 Co161 2.388 . S
H165 O166 0.760 . S
H165 Co167 2.400 . S
O166 Co161 2.053 . S
O166 Co162 2.126 . S
O166 H165 0.760 . S
O166 Co167 2.009 . S
Co167 H165 2.400 . S
Co167 O166 2.009 . S
Co167 O168 2.053 . S
Co167 O170 2.094 . S
Co167 O174 2.122 . S
Co167 O188 2.115 . S
Co167 O189 2.315 . S
O168 Co167 2.053 . S
O168 C180 1.259 1_455 S
O169 Co161 2.047 . S
O169 C180 1.257 1_455 S
O170 Co167 2.094 . S
O170 C181 1.253 . S
O171 Co162 2.063 . S
O171 C181 1.268 . S
O172 Co160 2.115 . S
O172 C182 1.281 . S
O173 Co160 2.315 . S
O173 C182 1.252 . S
O174 Co167 2.122 . S
O174 C183 1.272 . S
O175 Co161 2.113 . S
O175 C183 1.245 . S
C176 O184 1.259 . S
C176 O185 1.257 . S
C177 O186 1.268 . S
C177 O187 1.253 . S
C178 O188 1.281 . S
C178 O189 1.252 . S
C179 O190 1.272 . S
C179 O191 1.245 . S
C180 O168 1.259 1_655 S
C180 O169 1.257 1_655 S
C181 O170 1.253 . S
C181 O171 1.268 . S
C182 O172 1.281 . S
C182 O173 1.252 . S
C183 O174 1.272 . S
C183 O175 1.245 . S
O184 Co160 2.053 . S
O184 C176 1.259 . S
O185 Co162 2.047 . S
O185 C176 1.257 . S
O186 Co161 2.063 . S
O186 C177 1.268 . S
O187 Co160 2.094 . S
O187 C177 1.253 . S
O188 Co167 2.115 . S
O188 C178 1.281 . S
O189 Co167 2.315 . S
O189 C178 1.252 . S
O190 Co160 2.122 . S
O190 C179 1.272 . S
O191 Co162 2.113 . S
O191 C179 1.245 . S
Co192 H195 2.400 . S
Co192 O196 2.009 . S
Co192 O204 2.115 . S
Co192 O205 2.315 . S
Co192 O216 2.053 . S
Co192 O219 2.094 . S
Co192 O222 2.122 . S
Co193 O196 2.126 . S
Co193 H197 2.388 . S
Co193 O198 2.053 . S
Co193 O201 2.047 . S
Co193 O207 2.113 . S
Co193 O218 2.063 . S
Co194 H195 2.388 . S
Co194 O196 2.053 . S
Co194 O198 2.126 . S
Co194 O203 2.063 . S
Co194 O217 2.047 . S
Co194 O223 2.113 . S
H195 Co192 2.400 . S
H195 Co194 2.388 . S
H195 O196 0.760 . S
O196 Co192 2.009 . S
O196 Co193 2.126 . S
O196 Co194 2.053 . S
O196 H195 0.760 . S
H197 Co193 2.388 . S
H197 O198 0.760 . S
H197 Co199 2.400 . S
O198 Co193 2.053 . S
O198 Co194 2.126 . S
O198 H197 0.760 . S
O198 Co199 2.009 . S
Co199 H197 2.400 . S
Co199 O198 2.009 . S
Co199 O200 2.053 . S
Co199 O202 2.094 . S
Co199 O206 2.122 . S
Co199 O220 2.115 . S
Co199 O221 2.315 . S
O200 Co199 2.053 . S
O200 C212 1.259 . S
O201 Co193 2.047 . S
O201 C212 1.257 . S
O202 Co199 2.094 . S
O202 C213 1.253 . S
O203 Co194 2.063 . S
O203 C213 1.268 . S
O204 Co192 2.115 . S
O204 C214 1.281 . S
O205 Co192 2.315 . S
O205 C214 1.252 . S
O206 Co199 2.122 . S
O206 C215 1.272 . S
O207 Co193 2.113 . S
O207 C215 1.245 . S
C208 O216 1.259 1_455 S
C208 O217 1.257 1_455 S
C209 O218 1.268 . S
C209 O219 1.253 . S
C210 O220 1.281 . S
C210 O221 1.252 . S
C211 O222 1.272 . S
C211 O223 1.245 . S
C212 O200 1.259 . S
C212 O201 1.257 . S
C213 O202 1.253 . S
C213 O203 1.268 . S
C214 O204 1.281 . S
C214 O205 1.252 . S
C215 O206 1.272 . S
C215 O207 1.245 . S
O216 Co192 2.053 . S
O216 C208 1.259 1_655 S
O217 Co194 2.047 . S
O217 C208 1.257 1_655 S
O218 Co193 2.063 . S
O218 C209 1.268 . S
O219 Co192 2.094 . S
O219 C209 1.253 . S
O220 Co199 2.115 . S
O220 C210 1.281 . S
O221 Co199 2.315 . S
O221 C210 1.252 . S
O222 Co192 2.122 . S
O222 C211 1.272 . S
O223 Co194 2.113 . S
O223 C211 1.245 . S
Co224 H227 2.400 . S
Co224 O228 2.009 . S
Co224 O236 2.115 . S
Co224 O237 2.315 . S
Co224 O248 2.053 . S
Co224 O251 2.094 . S
Co224 O254 2.122 . S
Co225 O228 2.126 . S
Co225 H229 2.388 . S
Co225 O230 2.053 . S
Co225 O233 2.047 . S
Co225 O239 2.113 . S
Co225 O250 2.063 . S
Co226 H227 2.388 . S
Co226 O228 2.053 . S
Co226 O230 2.126 . S
Co226 O235 2.063 . S
Co226 O249 2.047 . S
Co226 O255 2.113 . S
H227 Co224 2.400 . S
H227 Co226 2.388 . S
H227 O228 0.760 . S
O228 Co224 2.009 . S
O228 Co225 2.126 . S
O228 Co226 2.053 . S
O228 H227 0.760 . S
H229 Co225 2.388 . S
H229 O230 0.760 . S
H229 Co231 2.400 . S
O230 Co225 2.053 . S
O230 Co226 2.126 . S
O230 H229 0.760 . S
O230 Co231 2.009 . S
Co231 H229 2.400 . S
Co231 O230 2.009 . S
Co231 O232 2.053 . S
Co231 O234 2.094 . S
Co231 O238 2.122 . S
Co231 O252 2.115 . S
Co231 O253 2.315 . S
O232 Co231 2.053 . S
O232 C244 1.259 . S
O233 Co225 2.047 . S
O233 C244 1.257 . S
O234 Co231 2.094 . S
O234 C245 1.253 . S
O235 Co226 2.063 . S
O235 C245 1.268 . S
O236 Co224 2.115 . S
O236 C246 1.281 . S
O237 Co224 2.315 . S
O237 C246 1.252 . S
O238 Co231 2.122 . S
O238 C247 1.272 . S
O239 Co225 2.113 . S
O239 C247 1.245 . S
C240 O248 1.259 1_455 S
C240 O249 1.257 1_455 S
C241 O250 1.268 . S
C241 O251 1.253 . S
C242 O252 1.281 . S
C242 O253 1.252 . S
C243 O254 1.272 . S
C243 O255 1.245 . S
C244 O232 1.259 . S
C244 O233 1.257 . S
C245 O234 1.253 . S
C245 O235 1.268 . S
C246 O236 1.281 . S
C246 O237 1.252 . S
C247 O238 1.272 . S
C247 O239 1.245 . S
O248 Co224 2.053 . S
O248 C240 1.259 1_655 S
O249 Co226 2.047 . S
O249 C240 1.257 1_655 S
O250 Co225 2.063 . S
O250 C241 1.268 . S
O251 Co224 2.094 . S
O251 C241 1.253 . S
O252 Co231 2.115 . S
O252 C242 1.281 . S
O253 Co231 2.315 . S
O253 C242 1.252 . S
O254 Co224 2.122 . S
O254 C243 1.272 . S
O255 Co226 2.113 . S
O255 C243 1.245 . S
Co256 H259 2.400 . S
Co256 O260 2.009 . S
Co256 O268 2.115 . S
Co256 O269 2.315 . S
Co256 O280 2.053 . S
Co256 O283 2.094 . S
Co256 O286 2.122 . S
Co257 O260 2.126 . S
Co257 H261 2.388 . S
Co257 O262 2.053 . S
Co257 O265 2.047 . S
Co257 O271 2.113 . S
Co257 O282 2.063 . S
Co258 H259 2.388 . S
Co258 O260 2.053 . S
Co258 O262 2.126 . S
Co258 O267 2.063 . S
Co258 O281 2.047 . S
Co258 O287 2.113 . S
H259 Co256 2.400 . S
H259 Co258 2.388 . S
H259 O260 0.760 . S
O260 Co256 2.009 . S
O260 Co257 2.126 . S
O260 Co258 2.053 . S
O260 H259 0.760 . S
H261 Co257 2.388 . S
H261 O262 0.760 . S
H261 Co263 2.400 . S
O262 Co257 2.053 . S
O262 Co258 2.126 . S
O262 H261 0.760 . S
O262 Co263 2.009 . S
Co263 H261 2.400 . S
Co263 O262 2.009 . S
Co263 O264 2.053 1_545 S
Co263 O266 2.094 . S
Co263 O270 2.122 . S
Co263 O284 2.115 . S
Co263 O285 2.315 . S
O264 Co263 2.053 1_565 S
O264 C276 1.259 . S
O265 Co257 2.047 . S
O265 C276 1.257 1_545 S
O266 Co263 2.094 . S
O266 C277 1.253 . S
O267 Co258 2.063 . S
O267 C277 1.268 . S
O268 Co256 2.115 . S
O268 C278 1.281 . S
O269 Co256 2.315 . S
O269 C278 1.252 . S
O270 Co263 2.122 . S
O270 C279 1.272 1_545 S
O271 Co257 2.113 . S
O271 C279 1.245 1_545 S
C272 O280 1.259 . S
C272 O281 1.257 . S
C273 O282 1.268 . S
C273 O283 1.253 . S
C274 O284 1.281 . S
C274 O285 1.252 . S
C275 O286 1.272 . S
C275 O287 1.245 . S
C276 O264 1.259 . S
C276 O265 1.257 1_565 S
C277 O266 1.253 . S
C277 O267 1.268 . S
C278 O268 1.281 . S
C278 O269 1.252 . S
C279 O270 1.272 1_565 S
C279 O271 1.245 1_565 S
O280 Co256 2.053 . S
O280 C272 1.259 . S
O281 Co258 2.047 . S
O281 C272 1.257 . S
O282 Co257 2.063 . S
O282 C273 1.268 . S
O283 Co256 2.094 . S
O283 C273 1.253 . S
O284 Co263 2.115 . S
O284 C274 1.281 . S
O285 Co263 2.315 . S
O285 C274 1.252 . S
O286 Co256 2.122 . S
O286 C275 1.272 . S
O287 Co258 2.113 . S
O287 C275 1.245 . S
Co288 H291 2.400 . S
Co288 O292 2.009 . S
Co288 O300 2.115 . S
Co288 O301 2.315 . S
Co288 O312 2.053 1_545 S
Co288 O315 2.094 . S
Co288 O318 2.129 . S
Co289 O292 2.126 . S
Co289 H293 2.388 . S
Co289 O294 2.053 . S
Co289 O297 2.047 . S
Co289 O303 2.113 . S
Co289 O314 2.063 . S
Co290 H291 2.388 . S
Co290 O292 2.053 . S
Co290 O294 2.126 . S
Co290 O299 2.063 . S
Co290 O313 2.047 1_545 S
Co290 O319 2.113 . S
H291 Co288 2.400 . S
H291 Co290 2.388 . S
H291 O292 0.760 . S
O292 Co288 2.009 . S
O292 Co289 2.126 . S
O292 Co290 2.053 . S
O292 H291 0.760 . S
H293 Co289 2.388 . S
H293 O294 0.760 . S
H293 Co295 2.400 . S
O294 Co289 2.053 . S
O294 Co290 2.126 . S
O294 H293 0.760 . S
O294 Co295 2.009 . S
Co295 H293 2.400 . S
Co295 O294 2.009 . S
Co295 O296 2.053 . S
Co295 O298 2.094 . S
Co295 O302 2.122 . S
Co295 O316 2.115 . S
Co295 O317 2.315 . S
O296 Co295 2.053 . S
O296 C308 1.259 . S
O297 Co289 2.047 . S
O297 C308 1.257 . S
O298 Co295 2.094 . S
O298 C309 1.253 . S
O299 Co290 2.063 . S
O299 C309 1.268 . S
O300 Co288 2.115 . S
O300 C310 1.281 . S
O301 Co288 2.315 . S
O301 C310 1.252 . S
O302 Co295 2.122 . S
O302 C311 1.272 . S
O303 Co289 2.113 . S
O303 C311 1.245 . S
C304 O312 1.259 . S
C304 O313 1.257 . S
C305 O314 1.268 . S
C305 O315 1.253 . S
C306 O316 1.281 . S
C306 O317 1.252 . S
C307 O318 1.270 1_565 S
C307 O319 1.245 1_565 S
C308 O296 1.259 . S
C308 O297 1.257 . S
C309 O298 1.253 . S
C309 O299 1.268 . S
C310 O300 1.281 . S
C310 O301 1.252 . S
C311 O302 1.272 . S
C311 O303 1.245 . S
O312 Co288 2.053 1_565 S
O312 C304 1.259 . S
O313 Co290 2.047 1_565 S
O313 C304 1.257 . S
O314 Co289 2.063 . S
O314 C305 1.268 . S
O315 Co288 2.094 . S
O315 C305 1.253 . S
O316 Co295 2.115 . S
O316 C306 1.281 . S
O317 Co295 2.315 . S
O317 C306 1.252 . S
O318 Co288 2.129 . S
O318 C307 1.270 1_545 S
O319 Co290 2.113 . S
O319 C307 1.245 1_545 S
Co320 H323 2.400 . S
Co320 O324 2.009 . S
Co320 O332 2.115 . S
Co320 O333 2.315 . S
Co320 O344 2.053 1_565 S
Co320 O347 2.094 . S
Co320 O350 2.122 . S
Co321 O324 2.126 . S
Co321 H325 2.388 . S
Co321 O326 2.053 . S
Co321 O329 2.047 . S
Co321 O335 2.113 . S
Co321 O346 2.063 . S
Co322 H323 2.388 . S
Co322 O324 2.053 . S
Co322 O326 2.126 . S
Co322 O331 2.063 . S
Co322 O345 2.047 . S
Co322 O351 2.113 . S
H323 Co320 2.400 . S
H323 Co322 2.388 . S
H323 O324 0.760 . S
O324 Co320 2.009 . S
O324 Co321 2.126 . S
O324 Co322 2.053 . S
O324 H323 0.760 . S
H325 Co321 2.388 . S
H325 O326 0.760 . S
H325 Co327 2.400 . S
O326 Co321 2.053 . S
O326 Co322 2.126 . S
O326 H325 0.760 . S
O326 Co327 2.009 . S
Co327 H325 2.400 . S
Co327 O326 2.009 . S
Co327 O328 2.053 . S
Co327 O330 2.094 . S
Co327 O334 2.122 . S
Co327 O348 2.115 . S
Co327 O349 2.315 . S
O328 Co327 2.053 . S
O328 C340 1.259 . S
O329 Co321 2.047 . S
O329 C340 1.257 . S
O330 Co327 2.094 . S
O330 C341 1.253 . S
O331 Co322 2.063 . S
O331 C341 1.268 . S
O332 Co320 2.115 . S
O332 C342 1.281 . S
O333 Co320 2.315 . S
O333 C342 1.252 . S
O334 Co327 2.122 . S
O334 C343 1.272 . S
O335 Co321 2.113 . S
O335 C343 1.245 . S
C336 O344 1.259 . S
C336 O345 1.257 1_545 S
C337 O346 1.268 . S
C337 O347 1.253 . S
C338 O348 1.281 . S
C338 O349 1.252 . S
C339 O350 1.272 1_545 S
C339 O351 1.245 1_545 S
C340 O328 1.259 . S
C340 O329 1.257 . S
C341 O330 1.253 . S
C341 O331 1.268 . S
C342 O332 1.281 . S
C342 O333 1.252 . S
C343 O334 1.272 . S
C343 O335 1.245 . S
O344 Co320 2.053 1_545 S
O344 C336 1.259 . S
O345 Co322 2.047 . S
O345 C336 1.257 1_565 S
O346 Co321 2.063 . S
O346 C337 1.268 . S
O347 Co320 2.094 . S
O347 C337 1.253 . S
O348 Co327 2.115 . S
O348 C338 1.281 . S
O349 Co327 2.315 . S
O349 C338 1.252 . S
O350 Co320 2.122 . S
O350 C339 1.272 1_565 S
O351 Co322 2.113 . S
O351 C339 1.245 1_565 S
Co352 H355 2.400 . S
Co352 O356 2.009 . S
Co352 O364 2.115 . S
Co352 O365 2.315 . S
Co352 O376 2.053 . S
Co352 O379 2.094 . S
Co352 O382 2.122 . S
Co353 O356 2.126 . S
Co353 H357 2.388 . S
Co353 O358 2.053 . S
Co353 O361 2.047 1_565 S
Co353 O367 2.113 . S
Co353 O378 2.063 . S
Co354 H355 2.388 . S
Co354 O356 2.053 . S
Co354 O358 2.126 . S
Co354 O363 2.063 . S
Co354 O377 2.047 . S
Co354 O383 2.113 . S
H355 Co352 2.400 . S
H355 Co354 2.388 . S
H355 O356 0.760 . S
O356 Co352 2.009 . S
O356 Co353 2.126 . S
O356 Co354 2.053 . S
O356 H355 0.760 . S
H357 Co353 2.388 . S
H357 O358 0.760 . S
H357 Co359 2.400 . S
O358 Co353 2.053 . S
O358 Co354 2.126 . S
O358 H357 0.760 . S
O358 Co359 2.009 . S
Co359 H357 2.400 . S
Co359 O358 2.009 . S
Co359 O360 2.053 1_565 S
Co359 O362 2.094 . S
Co359 O366 2.129 . S
Co359 O380 2.115 . S
Co359 O381 2.315 . S
O360 Co359 2.053 1_545 S
O360 C372 1.259 . S
O361 Co353 2.047 1_545 S
O361 C372 1.257 . S
O362 Co359 2.094 . S
O362 C373 1.253 . S
O363 Co354 2.063 . S
O363 C373 1.268 . S
O364 Co352 2.115 . S
O364 C374 1.281 . S
O365 Co352 2.315 . S
O365 C374 1.252 . S
O366 Co359 2.129 . S
O366 C375 1.270 1_565 S
O367 Co353 2.113 . S
O367 C375 1.245 1_565 S
C368 O376 1.259 . S
C368 O377 1.257 . S
C369 O378 1.268 . S
C369 O379 1.253 . S
C370 O380 1.281 . S
C370 O381 1.252 . S
C371 O382 1.272 . S
C371 O383 1.245 . S
C372 O360 1.259 . S
C372 O361 1.257 . S
C373 O362 1.253 . S
C373 O363 1.268 . S
C374 O364 1.281 . S
C374 O365 1.252 . S
C375 O366 1.270 1_545 S
C375 O367 1.245 1_545 S
O376 Co352 2.053 . S
O376 C368 1.259 . S
O377 Co354 2.047 . S
O377 C368 1.257 . S
O378 Co353 2.063 . S
O378 C369 1.268 . S
O379 Co352 2.094 . S
O379 C369 1.253 . S
O380 Co359 2.115 . S
O380 C370 1.281 . S
O381 Co359 2.315 . S
O381 C370 1.252 . S
O382 Co352 2.122 . S
O382 C371 1.272 . S
O383 Co354 2.113 . S
O383 C371 1.245 . S
Co384 H387 2.400 . S
Co384 O388 2.009 . S
Co384 O396 2.115 . S
Co384 O397 2.315 . S
Co384 O408 2.053 . S
Co384 O411 2.094 . S
Co384 O414 2.122 . S
Co385 O388 2.126 . S
Co385 H389 2.388 . S
Co385 O390 2.053 . S
Co385 O393 2.047 . S
Co385 O399 2.113 . S
Co385 O410 2.063 . S
Co386 H387 2.388 . S
Co386 O388 2.053 . S
Co386 O390 2.126 . S
Co386 O395 2.063 . S
Co386 O409 2.047 . S
Co386 O415 2.113 . S
H387 Co384 2.400 . S
H387 Co386 2.388 . S
H387 O388 0.760 . S
O388 Co384 2.009 . S
O388 Co385 2.126 . S
O388 Co386 2.053 . S
O388 H387 0.760 . S
H389 Co385 2.388 . S
H389 O390 0.760 . S
H389 Co391 2.400 . S
O390 Co385 2.053 . S
O390 Co386 2.126 . S
O390 H389 0.760 . S
O390 Co391 2.009 . S
Co391 H389 2.400 . S
Co391 O390 2.009 . S
Co391 O392 2.053 . S
Co391 O394 2.094 . S
Co391 O398 2.122 . S
Co391 O412 2.115 . S
Co391 O413 2.315 . S
O392 Co391 2.053 . S
O392 C404 1.259 . S
O393 Co385 2.047 . S
O393 C404 1.257 . S
O394 Co391 2.094 . S
O394 C405 1.253 . S
O395 Co386 2.063 . S
O395 C405 1.268 . S
O396 Co384 2.115 . S
O396 C406 1.281 . S
O397 Co384 2.315 . S
O397 C406 1.252 . S
O398 Co391 2.122 . S
O398 C407 1.272 . S
O399 Co385 2.113 . S
O399 C407 1.245 . S
C400 O408 1.259 . S
C400 O409 1.257 . S
C401 O410 1.268 . S
C401 O411 1.253 . S
C402 O412 1.281 . S
C402 O413 1.252 . S
C403 O414 1.272 . S
C403 O415 1.245 . S
C404 O392 1.259 . S
C404 O393 1.257 . S
C405 O394 1.253 . S
C405 O395 1.268 . S
C406 O396 1.281 . S
C406 O397 1.252 . S
C407 O398 1.272 . S
C407 O399 1.245 . S
O408 Co384 2.053 . S
O408 C400 1.259 . S
O409 Co386 2.047 . S
O409 C400 1.257 . S
O410 Co385 2.063 . S
O410 C401 1.268 . S
O411 Co384 2.094 . S
O411 C401 1.253 . S
O412 Co391 2.115 . S
O412 C402 1.281 . S
O413 Co391 2.315 . S
O413 C402 1.252 . S
O414 Co384 2.122 . S
O414 C403 1.272 . S
O415 Co386 2.113 . S
O415 C403 1.245 . S
Co416 H419 2.400 . S
Co416 O420 2.009 . S
Co416 O428 2.115 . S
Co416 O429 2.315 . S
Co416 O440 2.053 . S
Co416 O443 2.094 . S
Co416 O446 2.122 . S
Co417 O420 2.126 . S
Co417 H421 2.388 . S
Co417 O422 2.053 . S
Co417 O425 2.047 . S
Co417 O431 2.113 . S
Co417 O442 2.063 . S
Co418 H419 2.388 . S
Co418 O420 2.053 . S
Co418 O422 2.126 . S
Co418 O427 2.063 . S
Co418 O441 2.047 . S
Co418 O447 2.113 . S
H419 Co416 2.400 . S
H419 Co418 2.388 . S
H419 O420 0.760 . S
O420 Co416 2.009 . S
O420 Co417 2.126 . S
O420 Co418 2.053 . S
O420 H419 0.760 . S
H421 Co417 2.388 . S
H421 O422 0.760 . S
H421 Co423 2.400 . S
O422 Co417 2.053 . S
O422 Co418 2.126 . S
O422 H421 0.760 . S
O422 Co423 2.009 . S
Co423 H421 2.400 . S
Co423 O422 2.009 . S
Co423 O424 2.053 . S
Co423 O426 2.094 . S
Co423 O430 2.122 . S
Co423 O444 2.115 . S
Co423 O445 2.315 . S
O424 Co423 2.053 . S
O424 C436 1.259 . S
O425 Co417 2.047 . S
O425 C436 1.257 . S
O426 Co423 2.094 . S
O426 C437 1.253 . S
O427 Co418 2.063 . S
O427 C437 1.268 . S
O428 Co416 2.115 . S
O428 C438 1.281 . S
O429 Co416 2.315 . S
O429 C438 1.252 . S
O430 Co423 2.122 . S
O430 C439 1.272 . S
O431 Co417 2.113 . S
O431 C439 1.245 . S
C432 O440 1.259 . S
C432 O441 1.257 . S
C433 O442 1.268 . S
C433 O443 1.253 . S
C434 O444 1.281 . S
C434 O445 1.252 . S
C435 O446 1.272 . S
C435 O447 1.245 . S
C436 O424 1.259 . S
C436 O425 1.257 . S
C437 O426 1.253 . S
C437 O427 1.268 . S
C438 O428 1.281 . S
C438 O429 1.252 . S
C439 O430 1.272 . S
C439 O431 1.245 . S
O440 Co416 2.053 . S
O440 C432 1.259 . S
O441 Co418 2.047 . S
O441 C432 1.257 . S
O442 Co417 2.063 . S
O442 C433 1.268 . S
O443 Co416 2.094 . S
O443 C433 1.253 . S
O444 Co423 2.115 . S
O444 C434 1.281 . S
O445 Co423 2.315 . S
O445 C434 1.252 . S
O446 Co416 2.122 . S
O446 C435 1.272 . S
O447 Co418 2.113 . S
O447 C435 1.245 . S
Co448 H451 2.400 . S
Co448 O452 2.009 . S
Co448 O460 2.115 . S
Co448 O461 2.315 . S
Co448 O472 2.053 . S
Co448 O475 2.094 . S
Co448 O478 2.122 . S
Co449 O452 2.126 . S
Co449 H453 2.388 . S
Co449 O454 2.053 . S
Co449 O457 2.047 . S
Co449 O463 2.113 . S
Co449 O474 2.063 . S
Co450 H451 2.388 . S
Co450 O452 2.053 . S
Co450 O454 2.126 . S
Co450 O459 2.063 . S
Co450 O473 2.047 . S
Co450 O479 2.113 . S
H451 Co448 2.400 . S
H451 Co450 2.388 . S
H451 O452 0.760 . S
O452 Co448 2.009 . S
O452 Co449 2.126 . S
O452 Co450 2.053 . S
O452 H451 0.760 . S
H453 Co449 2.388 . S
H453 O454 0.760 . S
H453 Co455 2.400 . S
O454 Co449 2.053 . S
O454 Co450 2.126 . S
O454 H453 0.760 . S
O454 Co455 2.009 . S
Co455 H453 2.400 . S
Co455 O454 2.009 . S
Co455 O456 2.053 . S
Co455 O458 2.094 . S
Co455 O462 2.122 . S
Co455 O476 2.115 . S
Co455 O477 2.315 . S
O456 Co455 2.053 . S
O456 C468 1.259 . S
O457 Co449 2.047 . S
O457 C468 1.257 . S
O458 Co455 2.094 . S
O458 C469 1.253 . S
O459 Co450 2.063 . S
O459 C469 1.268 . S
O460 Co448 2.115 . S
O460 C470 1.281 . S
O461 Co448 2.315 . S
O461 C470 1.252 . S
O462 Co455 2.122 . S
O462 C471 1.272 . S
O463 Co449 2.113 . S
O463 C471 1.245 . S
C464 O472 1.259 . S
C464 O473 1.257 . S
C465 O474 1.268 . S
C465 O475 1.253 . S
C466 O476 1.281 . S
C466 O477 1.252 . S
C467 O478 1.272 . S
C467 O479 1.245 . S
C468 O456 1.259 . S
C468 O457 1.257 . S
C469 O458 1.253 . S
C469 O459 1.268 . S
C470 O460 1.281 . S
C470 O461 1.252 . S
C471 O462 1.272 . S
C471 O463 1.245 . S
O472 Co448 2.053 . S
O472 C464 1.259 . S
O473 Co450 2.047 . S
O473 C464 1.257 . S
O474 Co449 2.063 . S
O474 C465 1.268 . S
O475 Co448 2.094 . S
O475 C465 1.253 . S
O476 Co455 2.115 . S
O476 C466 1.281 . S
O477 Co455 2.315 . S
O477 C466 1.252 . S
O478 Co448 2.122 . S
O478 C467 1.272 . S
O479 Co450 2.113 . S
O479 C467 1.245 . S
Co480 H483 2.400 . S
Co480 O484 2.009 . S
Co480 O492 2.115 . S
Co480 O493 2.315 . S
Co480 O504 2.053 . S
Co480 O507 2.094 . S
Co480 O510 2.122 . S
Co481 O484 2.126 . S
Co481 H485 2.388 . S
Co481 O486 2.053 . S
Co481 O489 2.047 . S
Co481 O495 2.113 . S
Co481 O506 2.063 . S
Co482 H483 2.388 . S
Co482 O484 2.053 . S
Co482 O486 2.126 . S
Co482 O491 2.063 . S
Co482 O505 2.047 . S
Co482 O511 2.113 . S
H483 Co480 2.400 . S
H483 Co482 2.388 . S
H483 O484 0.760 . S
O484 Co480 2.009 . S
O484 Co481 2.126 . S
O484 Co482 2.053 . S
O484 H483 0.760 . S
H485 Co481 2.388 . S
H485 O486 0.760 . S
H485 Co487 2.400 . S
O486 Co481 2.053 . S
O486 Co482 2.126 . S
O486 H485 0.760 . S
O486 Co487 2.009 . S
Co487 H485 2.400 . S
Co487 O486 2.009 . S
Co487 O488 2.053 . S
Co487 O490 2.094 . S
Co487 O494 2.122 . S
Co487 O508 2.115 . S
Co487 O509 2.315 . S
O488 Co487 2.053 . S
O488 C500 1.259 . S
O489 Co481 2.047 . S
O489 C500 1.257 . S
O490 Co487 2.094 . S
O490 C501 1.253 . S
O491 Co482 2.063 . S
O491 C501 1.268 . S
O492 Co480 2.115 . S
O492 C502 1.281 . S
O493 Co480 2.315 . S
O493 C502 1.252 . S
O494 Co487 2.122 . S
O494 C503 1.272 . S
O495 Co481 2.113 . S
O495 C503 1.245 . S
C496 O504 1.259 . S
C496 O505 1.257 . S
C497 O506 1.268 . S
C497 O507 1.253 . S
C498 O508 1.281 . S
C498 O509 1.252 . S
C499 O510 1.272 . S
C499 O511 1.245 . S
C500 O488 1.259 . S
C500 O489 1.257 . S
C501 O490 1.253 . S
C501 O491 1.268 . S
C502 O492 1.281 . S
C502 O493 1.252 . S
C503 O494 1.272 . S
C503 O495 1.245 . S
O504 Co480 2.053 . S
O504 C496 1.259 . S
O505 Co482 2.047 . S
O505 C496 1.257 . S
O506 Co481 2.063 . S
O506 C497 1.268 . S
O507 Co480 2.094 . S
O507 C497 1.253 . S
O508 Co487 2.115 . S
O508 C498 1.281 . S
O509 Co487 2.315 . S
O509 C498 1.252 . S
O510 Co480 2.122 . S
O510 C499 1.272 . S
O511 Co482 2.113 . S
O511 C499 1.245 . S
C512 C513 1.363 . S
C512 C518 1.379 . S
C512 N520 1.356 . S
C513 C512 1.363 . S
C513 C519 1.363 . S
C514 C515 1.363 . S
C514 C519 1.379 . S
C514 N521 1.356 . S
C515 C514 1.363 . S
C515 C518 1.363 . S
N516 C518 1.356 . S
N516 H528 0.984 . S
N516 H529 0.985 . S
N517 C519 1.356 . S
N517 H522 0.984 . S
N517 H523 0.985 . S
C518 C512 1.379 . S
C518 C515 1.363 . S
C518 N516 1.356 . S
C519 C513 1.363 . S
C519 C514 1.379 . S
C519 N517 1.356 . S
N520 C512 1.356 . S
N520 H526 0.984 . S
N520 H527 0.984 . S
N521 C514 1.356 . S
N521 H524 0.984 . S
N521 H525 0.985 . S
H522 N517 0.984 . S
H523 N517 0.985 . S
H524 N521 0.984 . S
H525 N521 0.985 . S
H526 N520 0.984 . S
H527 N520 0.984 . S
H528 N516 0.984 . S
H529 N516 0.985 . S
C530 C531 1.363 . S
C530 C536 1.379 . S
C530 N538 1.356 . S
C531 C530 1.363 . S
C531 C537 1.363 . S
C532 C533 1.363 . S
C532 C537 1.379 . S
C532 N539 1.356 . S
C533 C532 1.363 . S
C533 C536 1.363 . S
N534 C536 1.356 . S
N534 H546 0.984 . S
N534 H547 0.985 . S
N535 C537 1.356 1_455 S
N535 H540 0.984 . S
N535 H541 0.985 . S
C536 C530 1.379 . S
C536 C533 1.363 . S
C536 N534 1.356 . S
C537 C531 1.363 . S
C537 C532 1.379 . S
C537 N535 1.356 1_655 S
N538 C530 1.356 . S
N538 H544 0.984 . S
N538 H545 0.984 . S
N539 C532 1.356 . S
N539 H542 0.984 . S
N539 H543 0.985 1_655 S
H540 N535 0.984 . S
H541 N535 0.985 . S
H542 N539 0.984 . S
H543 N539 0.985 1_455 S
H544 N538 0.984 . S
H545 N538 0.984 . S
H546 N534 0.984 . S
H547 N534 0.985 . S
C548 C549 1.363 . S
C548 C554 1.379 . S
C548 N556 1.356 . S
C549 C548 1.363 . S
C549 C555 1.363 . S
C550 C551 1.363 . S
C550 C555 1.379 . S
C550 N557 1.356 . S
C551 C550 1.363 . S
C551 C554 1.363 . S
N552 C554 1.356 . S
N552 H564 0.984 . S
N552 H565 0.985 . S
N553 C555 1.356 . S
N553 H558 0.984 1_565 S
N553 H559 0.985 . S
C554 C548 1.379 . S
C554 C551 1.363 . S
C554 N552 1.356 . S
C555 C549 1.363 . S
C555 C550 1.379 . S
C555 N553 1.356 . S
N556 C548 1.356 . S
N556 H562 0.984 . S
N556 H563 0.984 . S
N557 C550 1.356 . S
N557 H560 0.984 . S
N557 H561 0.985 . S
H558 N553 0.984 1_545 S
H559 N553 0.985 . S
H560 N557 0.984 . S
H561 N557 0.985 . S
H562 N556 0.984 . S
H563 N556 0.984 . S
H564 N552 0.984 . S
H565 N552 0.985 . S
C566 C567 1.363 . S
C566 C572 1.379 . S
C566 N574 1.356 1_655 S
C567 C566 1.363 . S
C567 C573 1.363 . S
C568 C569 1.363 . S
C568 C573 1.379 . S
C568 N575 1.356 . S
C569 C568 1.363 . S
C569 C572 1.363 . S
N570 C572 1.356 . S
N570 H582 0.984 1_655 S
N570 H583 0.985 . S
N571 C573 1.356 . S
N571 H576 0.984 . S
N571 H577 0.985 . S
C572 C566 1.379 . S
C572 C569 1.363 . S
C572 N570 1.356 . S
C573 C567 1.363 . S
C573 C568 1.379 . S
C573 N571 1.356 . S
N574 C566 1.356 1_455 S
N574 H580 0.984 . S
N574 H581 0.984 . S
N575 C568 1.356 . S
N575 H578 0.984 . S
N575 H579 0.985 . S
H576 N571 0.984 . S
H577 N571 0.985 . S
H578 N575 0.984 . S
H579 N575 0.985 . S
H580 N574 0.984 . S
H581 N574 0.984 . S
H582 N570 0.984 1_455 S
H583 N570 0.985 . S
C584 C585 1.363 . S
C584 C590 1.379 . S
C584 N592 1.356 . S
C585 C584 1.363 . S
C585 C591 1.363 . S
C586 C587 1.363 . S
C586 C591 1.379 . S
C586 N593 1.356 . S
C587 C586 1.363 . S
C587 C590 1.363 . S
N588 C590 1.356 . S
N588 H600 0.984 . S
N588 H601 0.985 . S
N589 C591 1.356 . S
N589 H594 0.984 . S
N589 H595 0.985 . S
C590 C584 1.379 . S
C590 C587 1.363 . S
C590 N588 1.356 . S
C591 C585 1.363 . S
C591 C586 1.379 . S
C591 N589 1.356 . S
N592 C584 1.356 . S
N592 H598 0.984 . S
N592 H599 0.984 . S
N593 C586 1.356 . S
N593 H596 0.984 . S
N593 H597 0.985 . S
H594 N589 0.984 . S
H595 N589 0.985 . S
H596 N593 0.984 . S
H597 N593 0.985 . S
H598 N592 0.984 . S
H599 N592 0.984 . S
H600 N588 0.984 . S
H601 N588 0.985 . S
C602 C603 1.363 . S
C602 C608 1.379 . S
C602 N610 1.356 1_455 S
C603 C602 1.363 . S
C603 C609 1.363 . S
C604 C605 1.363 . S
C604 C609 1.379 . S
C604 N611 1.356 . S
C605 C604 1.363 . S
C605 C608 1.363 . S
N606 C608 1.356 . S
N606 H618 0.984 1_455 S
N606 H619 0.985 . S
N607 C609 1.356 . S
N607 H612 0.984 1_545 S
N607 H613 0.985 . S
C608 C602 1.379 . S
C608 C605 1.363 . S
C608 N606 1.356 . S
C609 C603 1.363 . S
C609 C604 1.379 . S
C609 N607 1.356 . S
N610 C602 1.356 1_655 S
N610 H616 0.984 . S
N610 H617 0.984 . S
N611 C604 1.356 . S
N611 H614 0.984 . S
N611 H615 0.985 . S
H612 N607 0.984 1_565 S
H613 N607 0.985 . S
H614 N611 0.984 . S
H615 N611 0.985 . S
H616 N610 0.984 . S
H617 N610 0.984 . S
H618 N606 0.984 1_655 S
H619 N606 0.985 . S
C620 C621 1.363 . S
C620 C626 1.379 . S
C620 N628 1.356 . S
C621 C620 1.363 . S
C621 C627 1.363 . S
C622 C623 1.363 . S
C622 C627 1.379 . S
C622 N629 1.356 . S
C623 C622 1.363 . S
C623 C626 1.363 . S
N624 C626 1.356 . S
N624 H636 0.984 . S
N624 H637 0.985 . S
N625 C627 1.356 . S
N625 H630 0.984 . S
N625 H631 0.985 . S
C626 C620 1.379 . S
C626 C623 1.363 . S
C626 N624 1.356 . S
C627 C621 1.363 . S
C627 C622 1.379 . S
C627 N625 1.356 . S
N628 C620 1.356 . S
N628 H634 0.984 . S
N628 H635 0.984 . S
N629 C622 1.356 . S
N629 H632 0.984 . S
N629 H633 0.985 . S
H630 N625 0.984 . S
H631 N625 0.985 . S
H632 N629 0.984 . S
H633 N629 0.985 . S
H634 N628 0.984 . S
H635 N628 0.984 . S
H636 N624 0.984 . S
H637 N624 0.985 . S
C638 C639 1.363 . S
C638 C644 1.379 . S
C638 N646 1.356 1_455 S
C639 C638 1.363 . S
C639 C645 1.363 . S
C640 C641 1.363 . S
C640 C645 1.379 . S
C640 N647 1.356 . S
C641 C640 1.363 . S
C641 C644 1.363 . S
N642 C644 1.356 . S
N642 H654 0.984 1_455 S
N642 H655 0.985 . S
N643 C645 1.356 . S
N643 H648 0.984 . S
N643 H649 0.985 . S
C644 C638 1.379 . S
C644 C641 1.363 . S
C644 N642 1.356 . S
C645 C639 1.363 . S
C645 C640 1.379 . S
C645 N643 1.356 . S
N646 C638 1.356 1_655 S
N646 H652 0.984 . S
N646 H653 0.984 . S
N647 C640 1.356 . S
N647 H650 0.984 . S
N647 H651 0.985 . S
H648 N643 0.984 . S
H649 N643 0.985 . S
H650 N647 0.984 . S
H651 N647 0.985 . S
H652 N646 0.984 . S
H653 N646 0.984 . S
H654 N642 0.984 1_655 S
H655 N642 0.985 . S
C656 C657 1.363 . S
C656 C662 1.379 . S
C656 N664 1.356 . S
C657 C656 1.363 . S
C657 C663 1.363 . S
C658 C659 1.363 . S
C658 C663 1.379 . S
C658 N665 1.356 . S
C659 C658 1.363 . S
C659 C662 1.363 . S
N660 C662 1.356 . S
N660 H672 0.984 . S
N660 H673 0.985 . S
N661 C663 1.356 . S
N661 H666 0.984 . S
N661 H667 0.985 . S
C662 C656 1.379 . S
C662 C659 1.363 . S
C662 N660 1.356 . S
C663 C657 1.363 . S
C663 C658 1.379 . S
C663 N661 1.356 . S
N664 C656 1.356 . S
N664 H670 0.984 . S
N664 H671 0.984 . S
N665 C658 1.356 . S
N665 H668 0.984 . S
N665 H669 0.985 . S
H666 N661 0.984 . S
H667 N661 0.985 . S
H668 N665 0.984 . S
H669 N665 0.985 . S
H670 N664 0.984 . S
H671 N664 0.984 . S
H672 N660 0.984 . S
H673 N660 0.985 . S
C674 C675 1.363 . S
C674 C680 1.379 . S
C674 N682 1.356 . S
C675 C674 1.363 . S
C675 C681 1.363 . S
C676 C677 1.363 . S
C676 C681 1.379 . S
C676 N683 1.356 1_655 S
C677 C676 1.363 . S
C677 C680 1.363 . S
N678 C680 1.356 . S
N678 H690 0.984 . S
N678 H691 0.985 . S
N679 C681 1.356 . S
N679 H684 0.984 . S
N679 H685 0.985 1_655 S
C680 C674 1.379 . S
C680 C677 1.363 . S
C680 N678 1.356 . S
C681 C675 1.363 . S
C681 C676 1.379 . S
C681 N679 1.356 . S
N682 C674 1.356 . S
N682 H688 0.984 . S
N682 H689 0.984 . S
N683 C676 1.356 1_455 S
N683 H686 0.984 . S
N683 H687 0.985 . S
H684 N679 0.984 . S
H685 N679 0.985 1_455 S
H686 N683 0.984 . S
H687 N683 0.985 . S
H688 N682 0.984 . S
H689 N682 0.984 . S
H690 N678 0.984 . S
H691 N678 0.985 . S
C692 C693 1.363 . S
C692 C698 1.379 . S
C692 N700 1.356 . S
C693 C692 1.363 . S
C693 C699 1.363 . S
C694 C695 1.363 . S
C694 C699 1.379 . S
C694 N701 1.356 . S
C695 C694 1.363 . S
C695 C698 1.363 . S
N696 C698 1.356 . S
N696 H708 0.984 . S
N696 H709 0.985 . S
N697 C699 1.356 . S
N697 H702 0.984 . S
N697 H703 0.985 . S
C698 C692 1.379 . S
C698 C695 1.363 . S
C698 N696 1.356 . S
C699 C693 1.363 . S
C699 C694 1.379 . S
C699 N697 1.356 . S
N700 C692 1.356 . S
N700 H706 0.984 . S
N700 H707 0.984 . S
N701 C694 1.356 . S
N701 H704 0.984 . S
N701 H705 0.985 . S
H702 N697 0.984 . S
H703 N697 0.985 . S
H704 N701 0.984 . S
H705 N701 0.985 . S
H706 N700 0.984 . S
H707 N700 0.984 . S
H708 N696 0.984 . S
H709 N696 0.985 . S
C710 C711 1.363 . S
C710 C716 1.378 1_655 S
C710 N718 1.356 . S
C711 C710 1.363 . S
C711 C717 1.363 . S
C712 C713 1.363 . S
C712 C717 1.379 . S
C712 N719 1.356 . S
C713 C712 1.363 . S
C713 C716 1.362 1_655 S
N714 C716 1.357 . S
N714 H726 0.984 . S
N714 H727 0.985 . S
N715 C717 1.356 . S
N715 H720 0.984 . S
N715 H721 0.985 . S
C716 C710 1.378 1_455 S
C716 C713 1.362 1_455 S
C716 N714 1.357 . S
C717 C711 1.363 . S
C717 C712 1.379 . S
C717 N715 1.356 . S
N718 C710 1.356 . S
N718 H724 0.984 1_655 S
N718 H725 0.984 1_565 S
N719 C712 1.356 . S
N719 H722 0.984 . S
N719 H723 0.985 . S
H720 N715 0.984 . S
H721 N715 0.985 . S
H722 N719 0.984 . S
H723 N719 0.985 . S
H724 N718 0.984 1_455 S
H725 N718 0.984 1_545 S
H726 N714 0.984 . S
H727 N714 0.985 . S
C728 C729 1.363 . S
C728 C734 1.379 . S
C728 N736 1.356 . S
C729 C728 1.363 . S
C729 C735 1.363 . S
C730 C731 1.363 . S
C730 C735 1.379 . S
C730 N737 1.356 . S
C731 C730 1.363 . S
C731 C734 1.363 . S
N732 C734 1.356 . S
N732 H744 0.984 . S
N732 H745 0.985 . S
N733 C735 1.356 . S
N733 H738 0.984 . S
N733 H739 0.985 . S
C734 C728 1.379 . S
C734 C731 1.363 . S
C734 N732 1.356 . S
C735 C729 1.363 . S
C735 C730 1.379 . S
C735 N733 1.356 . S
N736 C728 1.356 . S
N736 H742 0.984 . S
N736 H743 0.984 1_545 S
N737 C730 1.356 . S
N737 H740 0.984 . S
N737 H741 0.985 . S
H738 N733 0.984 . S
H739 N733 0.985 . S
H740 N737 0.984 . S
H741 N737 0.985 . S
H742 N736 0.984 . S
H743 N736 0.984 1_565 S
H744 N732 0.984 . S
H745 N732 0.985 . S
C746 C747 1.363 . S
C746 C752 1.379 . S
C746 N754 1.356 . S
C747 C746 1.363 . S
C747 C753 1.363 . S
C748 C749 1.363 . S
C748 C753 1.379 . S
C748 N755 1.356 . S
C749 C748 1.363 . S
C749 C752 1.363 . S
N750 C752 1.356 . S
N750 H762 0.984 . S
N750 H763 0.985 . S
N751 C753 1.356 . S
N751 H756 0.984 . S
N751 H757 0.985 . S
C752 C746 1.379 . S
C752 C749 1.363 . S
C752 N750 1.356 . S
C753 C747 1.363 . S
C753 C748 1.379 . S
C753 N751 1.356 . S
N754 C746 1.356 . S
N754 H760 0.984 . S
N754 H761 0.984 . S
N755 C748 1.356 . S
N755 H758 0.984 . S
N755 H759 0.985 . S
H756 N751 0.984 . S
H757 N751 0.985 . S
H758 N755 0.984 . S
H759 N755 0.985 . S
H760 N754 0.984 . S
H761 N754 0.984 . S
H762 N750 0.984 . S
H763 N750 0.985 . S
C764 C765 1.363 . S
C764 C770 1.379 . S
C764 N772 1.356 . S
C765 C764 1.363 . S
C765 C771 1.363 . S
C766 C767 1.363 . S
C766 C771 1.379 . S
C766 N773 1.356 . S
C767 C766 1.363 . S
C767 C770 1.363 . S
N768 C770 1.356 . S
N768 H780 0.984 . S
N768 H781 0.985 . S
N769 C771 1.356 . S
N769 H774 0.984 . S
N769 H775 0.985 . S
C770 C764 1.379 . S
C770 C767 1.363 . S
C770 N768 1.356 . S
C771 C765 1.363 . S
C771 C766 1.379 . S
C771 N769 1.356 . S
N772 C764 1.356 . S
N772 H778 0.984 . S
N772 H779 0.984 . S
N773 C766 1.356 . S
N773 H776 0.984 . S
N773 H777 0.985 . S
H774 N769 0.984 . S
H775 N769 0.985 . S
H776 N773 0.984 . S
H777 N773 0.985 . S
H778 N772 0.984 . S
H779 N772 0.984 . S
H780 N768 0.984 . S
H781 N768 0.985 . S
C782 C783 1.363 . S
C782 C788 1.379 . S
C782 N790 1.356 1_455 S
C783 C782 1.363 . S
C783 C789 1.363 . S
C784 C785 1.363 . S
C784 C789 1.379 . S
C784 N791 1.356 . S
C785 C784 1.363 . S
C785 C788 1.363 . S
N786 C788 1.356 . S
N786 H798 0.984 1_455 S
N786 H799 0.985 1_545 S
N787 C789 1.356 . S
N787 H792 0.984 . S
N787 H793 0.985 . S
C788 C782 1.379 . S
C788 C785 1.363 . S
C788 N786 1.356 . S
C789 C783 1.363 . S
C789 C784 1.379 . S
C789 N787 1.356 . S
N790 C782 1.356 1_655 S
N790 H796 0.984 . S
N790 H797 0.984 . S
N791 C784 1.356 . S
N791 H794 0.984 . S
N791 H795 0.985 . S
H792 N787 0.984 . S
H793 N787 0.985 . S
H794 N791 0.984 . S
H795 N791 0.985 . S
H796 N790 0.984 . S
H797 N790 0.984 . S
H798 N786 0.984 1_655 S
H799 N786 0.985 1_565 S
C800 C801 1.363 . S
C800 C806 1.379 . S
C800 N808 1.356 . S
C801 C800 1.363 . S
C801 C807 1.363 . S
C802 C803 1.363 . S
C802 C807 1.379 . S
C802 N809 1.356 . S
C803 C802 1.363 . S
C803 C806 1.363 . S
N804 C806 1.356 . S
N804 H816 0.984 . S
N804 H817 0.985 . S
N805 C807 1.356 . S
N805 H810 0.984 1_565 S
N805 H811 0.985 . S
C806 C800 1.379 . S
C806 C803 1.363 . S
C806 N804 1.356 . S
C807 C801 1.363 . S
C807 C802 1.379 . S
C807 N805 1.356 . S
N808 C800 1.356 . S
N808 H814 0.984 . S
N808 H815 0.984 . S
N809 C802 1.356 . S
N809 H812 0.984 . S
N809 H813 0.985 . S
H810 N805 0.984 1_545 S
H811 N805 0.985 . S
H812 N809 0.984 . S
H813 N809 0.985 . S
H814 N808 0.984 . S
H815 N808 0.984 . S
H816 N804 0.984 . S
H817 N804 0.985 . S
C818 C819 1.363 . S
C818 C824 1.379 . S
C818 N826 1.356 1_655 S
C819 C818 1.363 . S
C819 C825 1.363 . S
C820 C821 1.363 . S
C820 C825 1.379 . S
C820 N827 1.356 . S
C821 C820 1.363 . S
C821 C824 1.363 . S
N822 C824 1.356 . S
N822 H834 0.984 . S
N822 H835 0.985 . S
N823 C825 1.356 . S
N823 H828 0.984 . S
N823 H829 0.985 . S
C824 C818 1.379 . S
C824 C821 1.363 . S
C824 N822 1.356 . S
C825 C819 1.363 . S
C825 C820 1.379 . S
C825 N823 1.356 . S
N826 C818 1.356 1_455 S
N826 H832 0.984 . S
N826 H833 0.984 . S
N827 C820 1.356 . S
N827 H830 0.984 . S
N827 H831 0.985 . S
H828 N823 0.984 . S
H829 N823 0.985 . S
H830 N827 0.984 . S
H831 N827 0.985 . S
H832 N826 0.984 . S
H833 N826 0.984 . S
H834 N822 0.984 . S
H835 N822 0.985 . S
C836 C837 1.363 . S
C836 C842 1.379 . S
C836 N844 1.356 . S
C837 C836 1.363 . S
C837 C843 1.363 . S
C838 C839 1.363 . S
C838 C843 1.379 . S
C838 N845 1.356 . S
C839 C838 1.363 . S
C839 C842 1.363 . S
N840 C842 1.356 . S
N840 H852 0.984 . S
N840 H853 0.985 . S
N841 C843 1.356 . S
N841 H846 0.984 . S
N841 H847 0.985 . S
C842 C836 1.379 . S
C842 C839 1.363 . S
C842 N840 1.356 . S
C843 C837 1.363 . S
C843 C838 1.379 . S
C843 N841 1.356 . S
N844 C836 1.356 . S
N844 H850 0.984 . S
N844 H851 0.984 . S
N845 C838 1.356 . S
N845 H848 0.984 . S
N845 H849 0.985 . S
H846 N841 0.984 . S
H847 N841 0.985 . S
H848 N845 0.984 . S
H849 N845 0.985 . S
H850 N844 0.984 . S
H851 N844 0.984 . S
H852 N840 0.984 . S
H853 N840 0.985 . S
C854 C855 1.363 . S
C854 C860 1.379 . S
C854 N862 1.356 . S
C855 C854 1.363 . S
C855 C861 1.363 . S
C856 C857 1.363 . S
C856 C861 1.379 . S
C856 N863 1.356 1_655 S
C857 C856 1.363 . S
C857 C860 1.363 . S
N858 C860 1.356 . S
N858 H870 0.984 . S
N858 H871 0.990 . S
N859 C861 1.356 . S
N859 H864 0.984 . S
N859 H865 0.985 . S
C860 C854 1.379 . S
C860 C857 1.363 . S
C860 N858 1.356 . S
C861 C855 1.363 . S
C861 C856 1.379 . S
C861 N859 1.356 . S
N862 C854 1.356 . S
N862 H868 0.984 . S
N862 H869 0.984 . S
N863 C856 1.356 1_455 S
N863 H866 0.984 . S
N863 H867 0.985 . S
H864 N859 0.984 . S
H865 N859 0.985 . S
H866 N863 0.984 . S
H867 N863 0.985 . S
H868 N862 0.984 . S
H869 N862 0.984 . S
H870 N858 0.984 . S
H871 N858 0.990 . S
C872 C873 1.363 . S
C872 C878 1.379 . S
C872 N880 1.356 . S
C873 C872 1.363 . S
C873 C879 1.363 . S
C874 C875 1.363 . S
C874 C879 1.379 . S
C874 N881 1.356 . S
C875 C874 1.363 . S
C875 C878 1.363 . S
N876 C878 1.356 . S
N876 H888 0.984 . S
N876 H889 0.985 1_545 S
N877 C879 1.356 . S
N877 H882 0.984 . S
N877 H883 0.985 . S
C878 C872 1.379 . S
C878 C875 1.363 . S
C878 N876 1.356 . S
C879 C873 1.363 . S
C879 C874 1.379 . S
C879 N877 1.356 . S
N880 C872 1.356 . S
N880 H886 0.984 . S
N880 H887 0.984 . S
N881 C874 1.356 . S
N881 H884 0.984 . S
N881 H885 0.985 . S
H882 N877 0.984 . S
H883 N877 0.985 . S
H884 N881 0.984 . S
H885 N881 0.985 . S
H886 N880 0.984 . S
H887 N880 0.984 . S
H888 N876 0.984 . S
H889 N876 0.985 1_565 S
C890 C891 1.363 . S
C890 C896 1.379 . S
C890 N898 1.356 . S
C891 C890 1.363 . S
C891 C897 1.363 . S
C892 C893 1.363 1_655 S
C892 C897 1.379 1_655 S
C892 N899 1.356 . S
C893 C892 1.363 1_455 S
C893 C896 1.363 . S
N894 C896 1.356 . S
N894 H906 0.984 . S
N894 H907 0.985 . S
N895 C897 1.356 . S
N895 H900 0.984 . S
N895 H901 0.985 . S
C896 C890 1.379 . S
C896 C893 1.363 . S
C896 N894 1.356 . S
C897 C891 1.363 . S
C897 C892 1.379 1_455 S
C897 N895 1.356 . S
N898 C890 1.356 . S
N898 H904 0.984 . S
N898 H905 0.984 . S
N899 C892 1.356 . S
N899 H902 0.984 . S
N899 H903 0.985 . S
H900 N895 0.984 . S
H901 N895 0.985 . S
H902 N899 0.984 . S
H903 N899 0.985 . S
H904 N898 0.984 . S
H905 N898 0.984 . S
H906 N894 0.984 . S
H907 N894 0.985 . S
C908 C909 1.363 . S
C908 C914 1.379 . S
C908 N916 1.356 . S
C909 C908 1.363 . S
C909 C915 1.363 . S
C910 C911 1.363 . S
C910 C915 1.379 . S
C910 N917 1.356 . S
C911 C910 1.363 . S
C911 C914 1.363 . S
N912 C914 1.356 . S
N912 H924 0.984 . S
N912 H925 0.985 . S
N913 C915 1.356 . S
N913 H918 0.984 . S
N913 H919 0.985 . S
C914 C908 1.379 . S
C914 C911 1.363 . S
C914 N912 1.356 . S
C915 C909 1.363 . S
C915 C910 1.379 . S
C915 N913 1.356 . S
N916 C908 1.356 . S
N916 H922 0.984 . S
N916 H923 0.984 . S
N917 C910 1.356 . S
N917 H920 0.984 . S
N917 H921 0.985 . S
H918 N913 0.984 . S
H919 N913 0.985 . S
H920 N917 0.984 . S
H921 N917 0.985 . S
H922 N916 0.984 . S
H923 N916 0.984 . S
H924 N912 0.984 . S
H925 N912 0.985 . S
C926 C927 1.363 . S
C926 C932 1.379 . S
C926 N934 1.356 . S
C927 C926 1.363 . S
C927 C933 1.363 . S
C928 C929 1.361 1_655 S
C928 C933 1.374 1_655 S
C928 N935 1.364 . S
C929 C928 1.361 1_455 S
C929 C932 1.363 . S
N930 C932 1.356 . S
N930 H942 0.984 . S
N930 H943 0.985 . S
N931 C933 1.356 . S
N931 H936 0.984 . S
N931 H937 0.985 . S
C932 C926 1.379 . S
C932 C929 1.363 . S
C932 N930 1.356 . S
C933 C927 1.363 . S
C933 C928 1.374 1_455 S
C933 N931 1.356 . S
N934 C926 1.356 . S
N934 H940 0.984 . S
N934 H941 0.984 . S
N935 C928 1.364 . S
N935 H938 0.984 . S
N935 H939 0.985 . S
H936 N931 0.984 . S
H937 N931 0.985 . S
H938 N935 0.984 . S
H939 N935 0.985 . S
H940 N934 0.984 . S
H941 N934 0.984 . S
H942 N930 0.984 . S
H943 N930 0.985 . S
C944 C945 1.363 . S
C944 C950 1.379 . S
C944 N952 1.356 . S
C945 C944 1.363 . S
C945 C951 1.363 . S
C946 C947 1.363 . S
C946 C951 1.379 . S
C946 N953 1.356 . S
C947 C946 1.363 . S
C947 C950 1.363 . S
N948 C950 1.356 . S
N948 H960 0.984 . S
N948 H961 0.985 . S
N949 C951 1.356 . S
N949 H954 0.984 . S
N949 H955 0.985 . S
C950 C944 1.379 . S
C950 C947 1.363 . S
C950 N948 1.356 . S
C951 C945 1.363 . S
C951 C946 1.379 . S
C951 N949 1.356 . S
N952 C944 1.356 . S
N952 H958 0.984 . S
N952 H959 0.984 . S
N953 C946 1.356 . S
N953 H956 0.984 . S
N953 H957 0.985 . S
H954 N949 0.984 . S
H955 N949 0.985 . S
H956 N953 0.984 . S
H957 N953 0.985 . S
H958 N952 0.984 . S
H959 N952 0.984 . S
H960 N948 0.984 . S
H961 N948 0.985 . S
C962 C963 1.363 . S
C962 C968 1.379 . S
C962 N970 1.356 . S
C963 C962 1.363 . S
C963 C969 1.363 . S
C964 C965 1.363 . S
C964 C969 1.379 . S
C964 N971 1.356 . S
C965 C964 1.363 . S
C965 C968 1.363 . S
N966 C968 1.356 . S
N966 H978 0.984 . S
N966 H979 0.985 . S
N967 C969 1.356 1_455 S
N967 H972 0.984 . S
N967 H973 0.985 . S
C968 C962 1.379 . S
C968 C965 1.363 . S
C968 N966 1.356 . S
C969 C963 1.363 . S
C969 C964 1.379 . S
C969 N967 1.356 1_655 S
N970 C962 1.356 . S
N970 H976 0.984 . S
N970 H977 0.984 . S
N971 C964 1.356 . S
N971 H974 0.984 . S
N971 H975 0.985 . S
H972 N967 0.984 . S
H973 N967 0.985 . S
H974 N971 0.984 . S
H975 N971 0.985 . S
H976 N970 0.984 . S
H977 N970 0.984 . S
H978 N966 0.984 . S
H979 N966 0.985 . S
C980 C981 1.363 . S
C980 C986 1.379 . S
C980 N988 1.356 . S
C981 C980 1.363 . S
C981 C987 1.363 . S
C982 C983 1.363 . S
C982 C987 1.379 . S
C982 N989 1.356 . S
C983 C982 1.363 . S
C983 C986 1.363 . S
N984 C986 1.356 . S
N984 H996 0.984 . S
N984 H997 0.985 1_565 S
N985 C987 1.356 . S
N985 H990 0.984 . S
N985 H991 0.985 . S
C986 C980 1.379 . S
C986 C983 1.363 . S
C986 N984 1.356 . S
C987 C981 1.363 . S
C987 C982 1.379 . S
C987 N985 1.356 . S
N988 C980 1.356 . S
N988 H994 0.984 . S
N988 H995 0.984 . S
N989 C982 1.356 . S
N989 H992 0.984 . S
N989 H993 0.985 . S
H990 N985 0.984 . S
H991 N985 0.985 . S
H992 N989 0.984 . S
H993 N989 0.985 . S
H994 N988 0.984 . S
H995 N988 0.984 . S
H996 N984 0.984 . S
H997 N984 0.985 1_545 S
C998 C999 1.363 . S
C998 C1004 1.379 . S
C998 N1006 1.356 . S
C999 C998 1.363 . S
C999 C1005 1.363 . S
C1000 C1001 1.363 . S
C1000 C1005 1.379 . S
C1000 N1007 1.356 . S
C1001 C1000 1.363 . S
C1001 C1004 1.363 . S
N1002 C1004 1.356 . S
N1002 H1014 0.984 . S
N1002 H1015 0.985 . S
N1003 C1005 1.356 1_455 S
N1003 H1008 0.984 . S
N1003 H1009 0.985 . S
C1004 C998 1.379 . S
C1004 C1001 1.363 . S
C1004 N1002 1.356 . S
C1005 C999 1.363 . S
C1005 C1000 1.379 . S
C1005 N1003 1.356 1_655 S
N1006 C998 1.356 . S
N1006 H1012 0.984 . S
N1006 H1013 0.988 . S
N1007 C1000 1.356 . S
N1007 H1010 0.984 . S
N1007 H1011 0.985 . S
H1008 N1003 0.984 . S
H1009 N1003 0.985 . S
H1010 N1007 0.984 . S
H1011 N1007 0.985 . S
H1012 N1006 0.984 . S
H1013 N1006 0.988 . S
H1014 N1002 0.984 . S
H1015 N1002 0.985 . S
C1016 C1017 1.363 . S
C1016 C1022 1.379 . S
C1016 N1024 1.356 . S
C1017 C1016 1.363 . S
C1017 C1023 1.363 . S
C1018 C1019 1.363 . S
C1018 C1023 1.379 . S
C1018 N1025 1.356 . S
C1019 C1018 1.363 . S
C1019 C1022 1.363 . S
N1020 C1022 1.356 . S
N1020 H1032 0.984 . S
N1020 H1033 0.985 . S
N1021 C1023 1.356 . S
N1021 H1026 0.984 . S
N1021 H1027 0.985 . S
C1022 C1016 1.379 . S
C1022 C1019 1.363 . S
C1022 N1020 1.356 . S
C1023 C1017 1.363 . S
C1023 C1018 1.379 . S
C1023 N1021 1.356 . S
N1024 C1016 1.356 . S
N1024 H1030 0.984 . S
N1024 H1031 0.984 . S
N1025 C1018 1.356 . S
N1025 H1028 0.984 . S
N1025 H1029 0.985 . S
H1026 N1021 0.984 . S
H1027 N1021 0.985 . S
H1028 N1025 0.984 . S
H1029 N1025 0.985 . S
H1030 N1024 0.984 . S
H1031 N1024 0.984 . S
H1032 N1020 0.984 . S
H1033 N1020 0.985 . S
C1034 C1035 1.363 . S
C1034 C1040 1.379 . S
C1034 N1042 1.356 . S
C1035 C1034 1.363 . S
C1035 C1041 1.363 . S
C1036 C1037 1.363 1_655 S
C1036 C1041 1.379 1_655 S
C1036 N1043 1.356 . S
C1037 C1036 1.363 1_455 S
C1037 C1040 1.363 . S
N1038 C1040 1.356 . S
N1038 H1050 0.984 . S
N1038 H1051 0.985 . S
N1039 C1041 1.356 . S
N1039 H1044 0.984 . S
N1039 H1045 0.985 1_455 S
C1040 C1034 1.379 . S
C1040 C1037 1.363 . S
C1040 N1038 1.356 . S
C1041 C1035 1.363 . S
C1041 C1036 1.379 1_455 S
C1041 N1039 1.356 . S
N1042 C1034 1.356 . S
N1042 H1048 0.984 . S
N1042 H1049 0.984 . S
N1043 C1036 1.356 . S
N1043 H1046 0.984 . S
N1043 H1047 0.985 . S
H1044 N1039 0.984 . S
H1045 N1039 0.985 1_655 S
H1046 N1043 0.984 . S
H1047 N1043 0.985 . S
H1048 N1042 0.984 . S
H1049 N1042 0.984 . S
H1050 N1038 0.984 . S
H1051 N1038 0.985 . S
C1052 C1053 1.363 . S
C1052 C1058 1.379 . S
C1052 N1060 1.356 . S
C1053 C1052 1.363 . S
C1053 C1059 1.363 . S
C1054 C1055 1.363 . S
C1054 C1059 1.379 . S
C1054 N1061 1.356 . S
C1055 C1054 1.363 . S
C1055 C1058 1.363 . S
N1056 C1058 1.356 . S
N1056 H1068 0.984 . S
N1056 H1069 0.985 . S
N1057 C1059 1.356 . S
N1057 H1062 0.984 . S
N1057 H1063 0.985 . S
C1058 C1052 1.379 . S
C1058 C1055 1.363 . S
C1058 N1056 1.356 . S
C1059 C1053 1.363 . S
C1059 C1054 1.379 . S
C1059 N1057 1.356 . S
N1060 C1052 1.356 . S
N1060 H1066 0.984 . S
N1060 H1067 0.984 1_545 S
N1061 C1054 1.356 . S
N1061 H1064 0.984 . S
N1061 H1065 0.985 . S
H1062 N1057 0.984 . S
H1063 N1057 0.985 . S
H1064 N1061 0.984 . S
H1065 N1061 0.985 . S
H1066 N1060 0.984 . S
H1067 N1060 0.984 1_565 S
H1068 N1056 0.984 . S
H1069 N1056 0.985 . S
C1070 C1071 1.363 . S
C1070 C1076 1.379 . S
C1070 N1078 1.356 1_455 S
C1071 C1070 1.363 . S
C1071 C1077 1.363 . S
C1072 C1073 1.363 . S
C1072 C1077 1.379 . S
C1072 N1079 1.356 . S
C1073 C1072 1.363 . S
C1073 C1076 1.363 . S
N1074 C1076 1.356 . S
N1074 H1086 0.984 . S
N1074 H1087 0.985 . S
N1075 C1077 1.356 . S
N1075 H1080 0.984 . S
N1075 H1081 0.985 . S
C1076 C1070 1.379 . S
C1076 C1073 1.363 . S
C1076 N1074 1.356 . S
C1077 C1071 1.363 . S
C1077 C1072 1.379 . S
C1077 N1075 1.356 . S
N1078 C1070 1.356 1_655 S
N1078 H1084 0.984 . S
N1078 H1085 0.984 . S
N1079 C1072 1.356 . S
N1079 H1082 0.984 . S
N1079 H1083 0.985 . S
H1080 N1075 0.984 . S
H1081 N1075 0.985 . S
H1082 N1079 0.984 . S
H1083 N1079 0.985 . S
H1084 N1078 0.984 . S
H1085 N1078 0.984 . S
H1086 N1074 0.984 . S
H1087 N1074 0.985 . S
C1088 C1089 1.363 . S
C1088 C1094 1.379 . S
C1088 N1096 1.356 . S
C1089 C1088 1.363 . S
C1089 C1095 1.363 . S
C1090 C1091 1.363 . S
C1090 C1095 1.379 . S
C1090 N1097 1.356 . S
C1091 C1090 1.363 . S
C1091 C1094 1.363 . S
N1092 C1094 1.356 . S
N1092 H1104 0.984 . S
N1092 H1105 0.985 . S
N1093 C1095 1.356 . S
N1093 H1098 0.984 . S
N1093 H1099 0.985 . S
C1094 C1088 1.379 . S
C1094 C1091 1.363 . S
C1094 N1092 1.356 . S
C1095 C1089 1.363 . S
C1095 C1090 1.379 . S
C1095 N1093 1.356 . S
N1096 C1088 1.356 . S
N1096 H1102 0.984 . S
N1096 H1103 0.984 . S
N1097 C1090 1.356 . S
N1097 H1100 0.984 . S
N1097 H1101 0.985 . S
H1098 N1093 0.984 . S
H1099 N1093 0.985 . S
H1100 N1097 0.984 . S
H1101 N1097 0.985 . S
H1102 N1096 0.984 . S
H1103 N1096 0.984 . S
H1104 N1092 0.984 . S
H1105 N1092 0.985 . S
C1106 C1107 1.363 . S
C1106 C1112 1.379 . S
C1106 N1114 1.356 1_545 S
C1107 C1106 1.363 . S
C1107 C1113 1.363 . S
C1108 C1109 1.363 . S
C1108 C1113 1.379 1_455 S
C1108 N1115 1.356 . S
C1109 C1108 1.363 . S
C1109 C1112 1.363 1_455 S
N1110 C1112 1.356 1_565 S
N1110 H1122 0.984 . S
N1110 H1123 0.985 1_665 S
N1111 C1113 1.356 . S
N1111 H1116 0.984 . S
N1111 H1117 0.985 . S
C1112 C1106 1.379 . S
C1112 C1109 1.363 1_655 S
C1112 N1110 1.356 1_545 S
C1113 C1107 1.363 . S
C1113 C1108 1.379 1_655 S
C1113 N1111 1.356 . S
N1114 C1106 1.356 1_565 S
N1114 H1120 0.984 . S
N1114 H1121 0.984 . S
N1115 C1108 1.356 . S
N1115 H1118 0.984 . S
N1115 H1119 0.985 . S
H1116 N1111 0.984 . S
H1117 N1111 0.985 . S
H1118 N1115 0.984 . S
H1119 N1115 0.985 . S
H1120 N1114 0.984 . S
H1121 N1114 0.984 . S
H1122 N1110 0.984 . S
H1123 N1110 0.985 1_445 S
C1124 C1125 1.363 . S
C1124 C1130 1.379 . S
C1124 N1132 1.356 . S
C1125 C1124 1.363 . S
C1125 C1131 1.363 . S
C1126 C1127 1.363 . S
C1126 C1131 1.379 . S
C1126 N1133 1.356 1_545 S
C1127 C1126 1.363 . S
C1127 C1130 1.363 . S
N1128 C1130 1.356 . S
N1128 H1140 0.984 . S
N1128 H1141 0.985 . S
N1129 C1131 1.356 1_565 S
N1129 H1134 0.984 1_565 S
N1129 H1135 0.985 . S
C1130 C1124 1.379 . S
C1130 C1127 1.363 . S
C1130 N1128 1.356 . S
C1131 C1125 1.363 . S
C1131 C1126 1.379 . S
C1131 N1129 1.356 1_545 S
N1132 C1124 1.356 . S
N1132 H1138 0.984 . S
N1132 H1139 0.984 . S
N1133 C1126 1.356 1_565 S
N1133 H1136 0.984 . S
N1133 H1137 0.985 . S
H1134 N1129 0.984 1_545 S
H1135 N1129 0.985 . S
H1136 N1133 0.984 . S
H1137 N1133 0.985 . S
H1138 N1132 0.984 . S
H1139 N1132 0.984 . S
H1140 N1128 0.984 . S
H1141 N1128 0.985 . S
C1142 C1143 1.363 . S
C1142 C1148 1.379 1_655 S
C1142 N1150 1.356 . S
C1143 C1142 1.363 . S
C1143 C1149 1.363 . S
C1144 C1145 1.363 1_655 S
C1144 C1149 1.379 . S
C1144 N1151 1.356 . S
C1145 C1144 1.363 1_455 S
C1145 C1148 1.363 . S
N1146 C1148 1.356 . S
N1146 H1158 0.984 . S
N1146 H1159 0.985 . S
N1147 C1149 1.356 . S
N1147 H1152 0.984 . S
N1147 H1153 0.985 . S
C1148 C1142 1.379 1_455 S
C1148 C1145 1.363 . S
C1148 N1146 1.356 . S
C1149 C1143 1.363 . S
C1149 C1144 1.379 . S
C1149 N1147 1.356 . S
N1150 C1142 1.356 . S
N1150 H1156 0.984 . S
N1150 H1157 0.984 . S
N1151 C1144 1.356 . S
N1151 H1154 0.984 1_655 S
N1151 H1155 0.985 . S
H1152 N1147 0.984 . S
H1153 N1147 0.985 . S
H1154 N1151 0.984 1_455 S
H1155 N1151 0.985 . S
H1156 N1150 0.984 . S
H1157 N1150 0.984 . S
H1158 N1146 0.984 . S
H1159 N1146 0.985 . S
C1160 C1161 1.363 . S
C1160 C1166 1.379 . S
C1160 N1168 1.356 . S
C1161 C1160 1.363 . S
C1161 C1167 1.363 . S
C1162 C1163 1.363 . S
C1162 C1167 1.379 . S
C1162 N1169 1.356 . S
C1163 C1162 1.363 . S
C1163 C1166 1.363 . S
N1164 C1166 1.356 . S
N1164 H1176 0.984 . S
N1164 H1177 0.985 . S
N1165 C1167 1.356 . S
N1165 H1170 0.984 . S
N1165 H1171 0.985 . S
C1166 C1160 1.379 . S
C1166 C1163 1.363 . S
C1166 N1164 1.356 . S
C1167 C1161 1.363 . S
C1167 C1162 1.379 . S
C1167 N1165 1.356 . S
N1168 C1160 1.356 . S
N1168 H1174 0.984 . S
N1168 H1175 0.984 . S
N1169 C1162 1.356 . S
N1169 H1172 0.984 . S
N1169 H1173 0.985 . S
H1170 N1165 0.984 . S
H1171 N1165 0.985 . S
H1172 N1169 0.984 . S
H1173 N1169 0.985 . S
H1174 N1168 0.984 . S
H1175 N1168 0.984 . S
H1176 N1164 0.984 . S
H1177 N1164 0.985 . S
C1178 C1179 1.363 . S
C1178 C1184 1.379 1_655 S
C1178 N1186 1.356 . S
C1179 C1178 1.363 . S
C1179 C1185 1.363 1_655 S
C1180 C1181 1.363 . S
C1180 C1185 1.379 . S
C1180 N1187 1.356 1_565 S
C1181 C1180 1.363 . S
C1181 C1184 1.363 . S
N1182 C1184 1.356 . S
N1182 H1194 0.984 . S
N1182 H1195 0.985 . S
N1183 C1185 1.356 1_545 S
N1183 H1188 0.984 1_445 S
N1183 H1189 0.985 . S
C1184 C1178 1.379 1_455 S
C1184 C1181 1.363 . S
C1184 N1182 1.356 . S
C1185 C1179 1.363 1_455 S
C1185 C1180 1.379 . S
C1185 N1183 1.356 1_565 S
N1186 C1178 1.356 . S
N1186 H1192 0.984 . S
N1186 H1193 0.984 . S
N1187 C1180 1.356 1_545 S
N1187 H1190 0.984 . S
N1187 H1191 0.985 . S
H1188 N1183 0.984 1_665 S
H1189 N1183 0.985 . S
H1190 N1187 0.984 . S
H1191 N1187 0.985 . S
H1192 N1186 0.984 . S
H1193 N1186 0.984 . S
H1194 N1182 0.984 . S
H1195 N1182 0.985 . S
C1196 C1197 1.363 . S
C1196 C1202 1.379 . S
C1196 N1204 1.356 . S
C1197 C1196 1.363 . S
C1197 C1203 1.363 . S
C1198 C1199 1.363 . S
C1198 C1203 1.379 . S
C1198 N1205 1.356 1_565 S
C1199 C1198 1.363 . S
C1199 C1202 1.363 . S
N1200 C1202 1.356 . S
N1200 H1212 0.984 . S
N1200 H1213 0.985 . S
N1201 C1203 1.356 1_545 S
N1201 H1206 0.984 . S
N1201 H1207 0.985 . S
C1202 C1196 1.379 . S
C1202 C1199 1.363 . S
C1202 N1200 1.356 . S
C1203 C1197 1.363 . S
C1203 C1198 1.379 . S
C1203 N1201 1.356 1_565 S
N1204 C1196 1.356 . S
N1204 H1210 0.984 . S
N1204 H1211 0.984 . S
N1205 C1198 1.356 1_545 S
N1205 H1208 0.984 . S
N1205 H1209 0.985 . S
H1206 N1201 0.984 . S
H1207 N1201 0.985 . S
H1208 N1205 0.984 . S
H1209 N1205 0.985 . S
H1210 N1204 0.984 . S
H1211 N1204 0.984 . S
H1212 N1200 0.984 . S
H1213 N1200 0.985 . S
C1214 C1215 1.363 . S
C1214 C1220 1.379 1_655 S
C1214 N1222 1.356 . S
C1215 C1214 1.363 . S
C1215 C1221 1.363 1_655 S
C1216 C1217 1.363 . S
C1216 C1221 1.379 . S
C1216 N1223 1.356 . S
C1217 C1216 1.363 . S
C1217 C1220 1.363 . S
N1218 C1220 1.356 . S
N1218 H1230 0.984 . S
N1218 H1231 0.985 . S
N1219 C1221 1.356 . S
N1219 H1224 0.984 1_455 S
N1219 H1225 0.985 . S
C1220 C1214 1.379 1_455 S
C1220 C1217 1.363 . S
C1220 N1218 1.356 . S
C1221 C1215 1.363 1_455 S
C1221 C1216 1.379 . S
C1221 N1219 1.356 . S
N1222 C1214 1.356 . S
N1222 H1228 0.984 . S
N1222 H1229 0.984 . S
N1223 C1216 1.356 . S
N1223 H1226 0.984 . S
N1223 H1227 0.985 . S
H1224 N1219 0.984 1_655 S
H1225 N1219 0.985 . S
H1226 N1223 0.984 . S
H1227 N1223 0.985 . S
H1228 N1222 0.984 . S
H1229 N1222 0.984 . S
H1230 N1218 0.984 . S
H1231 N1218 0.985 . S
C1232 C1233 1.363 . S
C1232 C1238 1.379 . S
C1232 N1240 1.356 . S
C1233 C1232 1.363 . S
C1233 C1239 1.363 . S
C1234 C1235 1.363 . S
C1234 C1239 1.379 . S
C1234 N1241 1.356 . S
C1235 C1234 1.363 . S
C1235 C1238 1.363 . S
N1236 C1238 1.356 . S
N1236 H1248 0.984 . S
N1236 H1249 0.985 . S
N1237 C1239 1.356 . S
N1237 H1242 0.984 . S
N1237 H1243 0.985 . S
C1238 C1232 1.379 . S
C1238 C1235 1.363 . S
C1238 N1236 1.356 . S
C1239 C1233 1.363 . S
C1239 C1234 1.379 . S
C1239 N1237 1.356 . S
N1240 C1232 1.356 . S
N1240 H1246 0.984 . S
N1240 H1247 0.984 . S
N1241 C1234 1.356 . S
N1241 H1244 0.984 . S
N1241 H1245 0.985 . S
H1242 N1237 0.984 . S
H1243 N1237 0.985 . S
H1244 N1241 0.984 . S
H1245 N1241 0.985 . S
H1246 N1240 0.984 . S
H1247 N1240 0.984 . S
H1248 N1236 0.984 . S
H1249 N1236 0.985 . S
C1250 C1251 1.363 . S
C1250 C1256 1.379 1_455 S
C1250 N1258 1.356 . S
C1251 C1250 1.363 . S
C1251 C1257 1.363 1_455 S
C1252 C1253 1.363 . S
C1252 C1257 1.379 . S
C1252 N1259 1.356 . S
C1253 C1252 1.363 . S
C1253 C1256 1.363 . S
N1254 C1256 1.356 . S
N1254 H1266 0.984 . S
N1254 H1267 0.985 . S
N1255 C1257 1.356 . S
N1255 H1260 0.984 1_655 S
N1255 H1261 0.985 . S
C1256 C1250 1.379 1_655 S
C1256 C1253 1.363 . S
C1256 N1254 1.356 . S
C1257 C1251 1.363 1_655 S
C1257 C1252 1.379 . S
C1257 N1255 1.356 . S
N1258 C1250 1.356 . S
N1258 H1264 0.984 . S
N1258 H1265 0.984 . S
N1259 C1252 1.356 . S
N1259 H1262 0.984 . S
N1259 H1263 0.985 . S
H1260 N1255 0.984 1_455 S
H1261 N1255 0.985 . S
H1262 N1259 0.984 . S
H1263 N1259 0.985 . S
H1264 N1258 0.984 . S
H1265 N1258 0.984 . S
H1266 N1254 0.984 . S
H1267 N1254 0.985 . S
C1268 C1269 1.363 . S
C1268 C1274 1.379 . S
C1268 N1276 1.356 . S
C1269 C1268 1.363 . S
C1269 C1275 1.363 . S
C1270 C1271 1.363 . S
C1270 C1275 1.379 . S
C1270 N1277 1.356 . S
C1271 C1270 1.363 . S
C1271 C1274 1.363 . S
N1272 C1274 1.356 . S
N1272 H1284 0.984 . S
N1272 H1285 0.985 . S
N1273 C1275 1.356 . S
N1273 H1278 0.984 . S
N1273 H1279 0.985 . S
C1274 C1268 1.379 . S
C1274 C1271 1.363 . S
C1274 N1272 1.356 . S
C1275 C1269 1.363 . S
C1275 C1270 1.379 . S
C1275 N1273 1.356 . S
N1276 C1268 1.356 . S
N1276 H1282 0.984 . S
N1276 H1283 0.984 . S
N1277 C1270 1.356 . S
N1277 H1280 0.984 . S
N1277 H1281 0.985 . S
H1278 N1273 0.984 . S
H1279 N1273 0.985 . S
H1280 N1277 0.984 . S
H1281 N1277 0.985 . S
H1282 N1276 0.984 . S
H1283 N1276 0.984 . S
H1284 N1272 0.984 . S
H1285 N1272 0.985 . S
C1286 C1287 1.363 . S
C1286 C1292 1.379 1_655 S
C1286 N1294 1.356 . S
C1287 C1286 1.363 . S
C1287 C1293 1.363 . S
C1288 C1289 1.363 1_655 S
C1288 C1293 1.379 . S
C1288 N1295 1.356 . S
C1289 C1288 1.363 1_455 S
C1289 C1292 1.363 . S
N1290 C1292 1.356 . S
N1290 H1302 0.984 . S
N1290 H1303 0.985 . S
N1291 C1293 1.356 . S
N1291 H1296 0.984 . S
N1291 H1297 0.985 . S
C1292 C1286 1.379 1_455 S
C1292 C1289 1.363 . S
C1292 N1290 1.356 . S
C1293 C1287 1.363 . S
C1293 C1288 1.379 . S
C1293 N1291 1.356 . S
N1294 C1286 1.356 . S
N1294 H1300 0.984 . S
N1294 H1301 0.984 . S
N1295 C1288 1.356 . S
N1295 H1298 0.984 1_655 S
N1295 H1299 0.985 . S
H1296 N1291 0.984 . S
H1297 N1291 0.985 . S
H1298 N1295 0.984 1_455 S
H1299 N1295 0.985 . S
H1300 N1294 0.984 . S
H1301 N1294 0.984 . S
H1302 N1290 0.984 . S
H1303 N1290 0.985 . S
C1304 C1305 1.363 . S
C1304 C1310 1.379 . S
C1304 N1312 1.356 . S
C1305 C1304 1.363 . S
C1305 C1311 1.363 . S
C1306 C1307 1.363 . S
C1306 C1311 1.379 . S
C1306 N1313 1.356 . S
C1307 C1306 1.363 . S
C1307 C1310 1.363 . S
N1308 C1310 1.356 . S
N1308 H1320 0.984 . S
N1308 H1321 0.985 . S
N1309 C1311 1.356 . S
N1309 H1314 0.984 . S
N1309 H1315 0.985 . S
C1310 C1304 1.379 . S
C1310 C1307 1.363 . S
C1310 N1308 1.356 . S
C1311 C1305 1.363 . S
C1311 C1306 1.379 . S
C1311 N1309 1.356 . S
N1312 C1304 1.356 . S
N1312 H1318 0.984 . S
N1312 H1319 0.984 . S
N1313 C1306 1.356 . S
N1313 H1316 0.984 . S
N1313 H1317 0.985 . S
H1314 N1309 0.984 . S
H1315 N1309 0.985 . S
H1316 N1313 0.984 . S
H1317 N1313 0.985 . S
H1318 N1312 0.984 . S
H1319 N1312 0.984 . S
H1320 N1308 0.984 . S
H1321 N1308 0.985 . S
C1322 C1323 1.363 . S
C1322 C1328 1.379 . S
C1322 N1330 1.356 . S
C1323 C1322 1.363 . S
C1323 C1329 1.363 . S
C1324 C1325 1.363 . S
C1324 C1329 1.379 1_655 S
C1324 N1331 1.356 . S
C1325 C1324 1.363 . S
C1325 C1328 1.363 1_655 S
N1326 C1328 1.356 . S
N1326 H1338 0.984 . S
N1326 H1339 0.985 1_455 S
N1327 C1329 1.356 . S
N1327 H1332 0.984 . S
N1327 H1333 0.985 . S
C1328 C1322 1.379 . S
C1328 C1325 1.363 1_455 S
C1328 N1326 1.356 . S
C1329 C1323 1.363 . S
C1329 C1324 1.379 1_455 S
C1329 N1327 1.356 . S
N1330 C1322 1.356 . S
N1330 H1336 0.984 . S
N1330 H1337 0.984 . S
N1331 C1324 1.356 . S
N1331 H1334 0.984 . S
N1331 H1335 0.985 . S
H1332 N1327 0.984 . S
H1333 N1327 0.985 . S
H1334 N1331 0.984 . S
H1335 N1331 0.985 . S
H1336 N1330 0.984 . S
H1337 N1330 0.984 . S
H1338 N1326 0.984 . S
H1339 N1326 0.985 1_655 S
C1340 C1341 1.363 . S
C1340 C1346 1.379 . S
C1340 N1348 1.356 . S
C1341 C1340 1.363 . S
C1341 C1347 1.363 . S
C1342 C1343 1.363 . S
C1342 C1347 1.379 . S
C1342 N1349 1.356 . S
C1343 C1342 1.363 . S
C1343 C1346 1.363 . S
N1344 C1346 1.356 . S
N1344 H1356 0.984 . S
N1344 H1357 0.985 . S
N1345 C1347 1.356 . S
N1345 H1350 0.984 . S
N1345 H1351 0.985 . S
C1346 C1340 1.379 . S
C1346 C1343 1.363 . S
C1346 N1344 1.356 . S
C1347 C1341 1.363 . S
C1347 C1342 1.379 . S
C1347 N1345 1.356 . S
N1348 C1340 1.356 . S
N1348 H1354 0.984 . S
N1348 H1355 0.984 . S
N1349 C1342 1.356 . S
N1349 H1352 0.984 . S
N1349 H1353 0.985 . S
H1350 N1345 0.984 . S
H1351 N1345 0.985 . S
H1352 N1349 0.984 . S
H1353 N1349 0.985 . S
H1354 N1348 0.984 . S
H1355 N1348 0.984 . S
H1356 N1344 0.984 . S
H1357 N1344 0.985 . S
C1358 C1359 1.363 . S
C1358 C1364 1.379 . S
C1358 N1366 1.356 . S
C1359 C1358 1.363 . S
C1359 C1365 1.363 . S
C1360 C1361 1.363 . S
C1360 C1365 1.379 1_655 S
C1360 N1367 1.356 . S
C1361 C1360 1.363 . S
C1361 C1364 1.363 1_655 S
N1362 C1364 1.356 . S
N1362 H1374 0.984 . S
N1362 H1375 0.985 1_455 S
N1363 C1365 1.356 . S
N1363 H1368 0.984 . S
N1363 H1369 0.985 . S
C1364 C1358 1.379 . S
C1364 C1361 1.363 1_455 S
C1364 N1362 1.356 . S
C1365 C1359 1.363 . S
C1365 C1360 1.379 1_455 S
C1365 N1363 1.356 . S
N1366 C1358 1.356 . S
N1366 H1372 0.984 . S
N1366 H1373 0.984 . S
N1367 C1360 1.356 . S
N1367 H1370 0.984 . S
N1367 H1371 0.985 . S
H1368 N1363 0.984 . S
H1369 N1363 0.985 . S
H1370 N1367 0.984 . S
H1371 N1367 0.985 . S
H1372 N1366 0.984 . S
H1373 N1366 0.984 . S
H1374 N1362 0.984 . S
H1375 N1362 0.985 1_655 S
C1376 C1377 1.363 . S
C1376 C1382 1.379 . S
C1376 N1384 1.356 . S
C1377 C1376 1.363 . S
C1377 C1383 1.363 . S
C1378 C1379 1.363 . S
C1378 C1383 1.379 . S
C1378 N1385 1.356 . S
C1379 C1378 1.363 . S
C1379 C1382 1.363 . S
N1380 C1382 1.356 . S
N1380 H1392 0.984 . S
N1380 H1393 0.985 . S
N1381 C1383 1.356 . S
N1381 H1386 0.984 . S
N1381 H1387 0.985 . S
C1382 C1376 1.379 . S
C1382 C1379 1.363 . S
C1382 N1380 1.356 . S
C1383 C1377 1.363 . S
C1383 C1378 1.379 . S
C1383 N1381 1.356 . S
N1384 C1376 1.356 . S
N1384 H1390 0.984 . S
N1384 H1391 0.984 . S
N1385 C1378 1.356 . S
N1385 H1388 0.984 . S
N1385 H1389 0.985 . S
H1386 N1381 0.984 . S
H1387 N1381 0.985 . S
H1388 N1385 0.984 . S
H1389 N1385 0.985 . S
H1390 N1384 0.984 . S
H1391 N1384 0.984 . S
H1392 N1380 0.984 . S
H1393 N1380 0.985 . S
C1394 C1395 1.363 1_545 S
C1394 C1400 1.379 . S
C1394 N1402 1.356 . S
C1395 C1394 1.363 1_565 S
C1395 C1401 1.363 1_655 S
C1396 C1397 1.363 1_565 S
C1396 C1401 1.379 . S
C1396 N1403 1.356 . S
C1397 C1396 1.363 1_545 S
C1397 C1400 1.363 1_455 S
N1398 C1400 1.356 . S
N1398 H1410 0.984 . S
N1398 H1411 0.985 1_655 S
N1399 C1401 1.356 . S
N1399 H1404 0.984 1_455 S
N1399 H1405 0.985 . S
C1400 C1394 1.379 . S
C1400 C1397 1.363 1_655 S
C1400 N1398 1.356 . S
C1401 C1395 1.363 1_455 S
C1401 C1396 1.379 . S
C1401 N1399 1.356 . S
N1402 C1394 1.356 . S
N1402 H1408 0.984 . S
N1402 H1409 0.984 . S
N1403 C1396 1.356 . S
N1403 H1406 0.984 . S
N1403 H1407 0.985 . S
H1404 N1399 0.984 1_655 S
H1405 N1399 0.985 . S
H1406 N1403 0.984 . S
H1407 N1403 0.985 . S
H1408 N1402 0.984 . S
H1409 N1402 0.984 . S
H1410 N1398 0.984 . S
H1411 N1398 0.985 1_455 S
C1412 C1413 1.363 1_545 S
C1412 C1418 1.379 . S
C1412 N1420 1.356 . S
C1413 C1412 1.363 1_565 S
C1413 C1419 1.363 . S
C1414 C1415 1.363 1_565 S
C1414 C1419 1.379 . S
C1414 N1421 1.356 . S
C1415 C1414 1.363 1_545 S
C1415 C1418 1.363 . S
N1416 C1418 1.356 . S
N1416 H1428 0.984 . S
N1416 H1429 0.985 . S
N1417 C1419 1.356 . S
N1417 H1422 0.984 . S
N1417 H1423 0.985 . S
C1418 C1412 1.379 . S
C1418 C1415 1.363 . S
C1418 N1416 1.356 . S
C1419 C1413 1.363 . S
C1419 C1414 1.379 . S
C1419 N1417 1.356 . S
N1420 C1412 1.356 . S
N1420 H1426 0.984 . S
N1420 H1427 0.984 . S
N1421 C1414 1.356 . S
N1421 H1424 0.984 . S
N1421 H1425 0.985 . S
H1422 N1417 0.984 . S
H1423 N1417 0.985 . S
H1424 N1421 0.984 . S
H1425 N1421 0.985 . S
H1426 N1420 0.984 . S
H1427 N1420 0.984 . S
H1428 N1416 0.984 . S
H1429 N1416 0.985 . S
C1430 C1431 1.363 1_655 S
C1430 C1436 1.379 . S
C1430 N1438 1.356 . S
C1431 C1430 1.363 1_455 S
C1431 C1437 1.363 . S
C1432 C1433 1.363 1_455 S
C1432 C1437 1.379 . S
C1432 N1439 1.356 . S
C1433 C1432 1.363 1_655 S
C1433 C1436 1.363 . S
N1434 C1436 1.356 . S
N1434 H1446 0.984 . S
N1434 H1447 0.985 . S
N1435 C1437 1.356 . S
N1435 H1440 0.984 . S
N1435 H1441 0.985 . S
C1436 C1430 1.379 . S
C1436 C1433 1.363 . S
C1436 N1434 1.356 . S
C1437 C1431 1.363 . S
C1437 C1432 1.379 . S
C1437 N1435 1.356 . S
N1438 C1430 1.356 . S
N1438 H1444 0.984 . S
N1438 H1445 0.984 . S
N1439 C1432 1.356 . S
N1439 H1442 0.984 . S
N1439 H1443 0.985 . S
H1440 N1435 0.984 . S
H1441 N1435 0.985 . S
H1442 N1439 0.984 . S
H1443 N1439 0.985 . S
H1444 N1438 0.984 . S
H1445 N1438 0.984 . S
H1446 N1434 0.984 . S
H1447 N1434 0.985 . S
C1448 C1449 1.363 . S
C1448 C1454 1.379 . S
C1448 N1456 1.356 . S
C1449 C1448 1.363 . S
C1449 C1455 1.363 . S
C1450 C1451 1.363 . S
C1450 C1455 1.379 . S
C1450 N1457 1.356 . S
C1451 C1450 1.363 . S
C1451 C1454 1.363 . S
N1452 C1454 1.356 . S
N1452 H1464 0.984 . S
N1452 H1465 0.985 . S
N1453 C1455 1.356 . S
N1453 H1458 0.984 . S
N1453 H1459 0.985 . S
C1454 C1448 1.379 . S
C1454 C1451 1.363 . S
C1454 N1452 1.356 . S
C1455 C1449 1.363 . S
C1455 C1450 1.379 . S
C1455 N1453 1.356 . S
N1456 C1448 1.356 . S
N1456 H1462 0.984 . S
N1456 H1463 0.984 . S
N1457 C1450 1.356 . S
N1457 H1460 0.984 . S
N1457 H1461 0.985 . S
H1458 N1453 0.984 . S
H1459 N1453 0.985 . S
H1460 N1457 0.984 . S
H1461 N1457 0.985 . S
H1462 N1456 0.984 . S
H1463 N1456 0.984 . S
H1464 N1452 0.984 . S
H1465 N1452 0.985 . S
C1466 C1467 1.363 . S
C1466 C1472 1.379 . S
C1466 N1474 1.356 . S
C1467 C1466 1.363 . S
C1467 C1473 1.363 1_565 S
C1468 C1469 1.363 . S
C1468 C1473 1.379 . S
C1468 N1475 1.356 . S
C1469 C1468 1.363 . S
C1469 C1472 1.363 1_545 S
N1470 C1472 1.356 . S
N1470 H1482 0.984 . S
N1470 H1483 0.985 1_565 S
N1471 C1473 1.356 . S
N1471 H1476 0.984 1_545 S
N1471 H1477 0.985 . S
C1472 C1466 1.379 . S
C1472 C1469 1.363 1_565 S
C1472 N1470 1.356 . S
C1473 C1467 1.363 1_545 S
C1473 C1468 1.379 . S
C1473 N1471 1.356 . S
N1474 C1466 1.356 . S
N1474 H1480 0.984 . S
N1474 H1481 0.984 . S
N1475 C1468 1.356 . S
N1475 H1478 0.984 . S
N1475 H1479 0.985 . S
H1476 N1471 0.984 1_565 S
H1477 N1471 0.985 . S
H1478 N1475 0.984 . S
H1479 N1475 0.985 . S
H1480 N1474 0.984 . S
H1481 N1474 0.984 . S
H1482 N1470 0.984 . S
H1483 N1470 0.985 1_545 S
C1484 C1485 1.363 . S
C1484 C1490 1.379 . S
C1484 N1492 1.356 . S
C1485 C1484 1.363 . S
C1485 C1491 1.363 1_455 S
C1486 C1487 1.363 . S
C1486 C1491 1.379 . S
C1486 N1493 1.356 . S
C1487 C1486 1.363 . S
C1487 C1490 1.363 1_655 S
N1488 C1490 1.356 . S
N1488 H1500 0.984 . S
N1488 H1501 0.985 1_455 S
N1489 C1491 1.356 . S
N1489 H1494 0.984 1_655 S
N1489 H1495 0.985 . S
C1490 C1484 1.379 . S
C1490 C1487 1.363 1_455 S
C1490 N1488 1.356 . S
C1491 C1485 1.363 1_655 S
C1491 C1486 1.379 . S
C1491 N1489 1.356 . S
N1492 C1484 1.356 . S
N1492 H1498 0.984 . S
N1492 H1499 0.984 . S
N1493 C1486 1.356 . S
N1493 H1496 0.984 . S
N1493 H1497 0.985 . S
H1494 N1489 0.984 1_455 S
H1495 N1489 0.985 . S
H1496 N1493 0.984 . S
H1497 N1493 0.985 . S
H1498 N1492 0.984 . S
H1499 N1492 0.984 . S
H1500 N1488 0.984 . S
H1501 N1488 0.985 1_655 S
C1502 C1503 1.363 . S
C1502 C1508 1.379 1_554 S
C1502 N1510 1.356 . S
C1503 C1502 1.363 . S
C1503 C1509 1.363 . S
C1504 C1505 1.363 . S
C1504 C1509 1.379 1_556 S
C1504 N1511 1.356 . S
C1505 C1504 1.363 . S
C1505 C1508 1.363 . S
N1506 C1508 1.356 . S
N1506 H1518 0.984 . S
N1506 H1519 0.985 . S
N1507 C1509 1.356 . S
N1507 H1512 0.984 . S
N1507 H1513 0.985 . S
C1508 C1502 1.379 1_556 S
C1508 C1505 1.363 . S
C1508 N1506 1.356 . S
C1509 C1503 1.363 . S
C1509 C1504 1.379 1_554 S
C1509 N1507 1.356 . S
N1510 C1502 1.356 . S
N1510 H1516 0.984 . S
N1510 H1517 0.984 . S
N1511 C1504 1.356 . S
N1511 H1514 0.984 . S
N1511 H1515 0.985 . S
H1512 N1507 0.984 . S
H1513 N1507 0.985 . S
H1514 N1511 0.984 . S
H1515 N1511 0.985 . S
H1516 N1510 0.984 . S
H1517 N1510 0.984 . S
H1518 N1506 0.984 . S
H1519 N1506 0.985 . S
C1520 C1521 1.363 1_655 S
C1520 C1526 1.379 . S
C1520 N1528 1.356 . S
C1521 C1520 1.363 1_455 S
C1521 C1527 1.363 1_556 S
C1522 C1523 1.363 1_455 S
C1522 C1527 1.379 . S
C1522 N1529 1.356 . S
C1523 C1522 1.363 1_655 S
C1523 C1526 1.363 1_554 S
N1524 C1526 1.356 . S
N1524 H1536 0.984 . S
N1524 H1537 0.985 1_556 S
N1525 C1527 1.356 . S
N1525 H1530 0.984 1_554 S
N1525 H1531 0.985 . S
C1526 C1520 1.379 . S
C1526 C1523 1.363 1_556 S
C1526 N1524 1.356 . S
C1527 C1521 1.363 1_554 S
C1527 C1522 1.379 . S
C1527 N1525 1.356 . S
N1528 C1520 1.356 . S
N1528 H1534 0.984 . S
N1528 H1535 0.984 . S
N1529 C1522 1.356 . S
N1529 H1532 0.984 . S
N1529 H1533 0.985 . S
H1530 N1525 0.984 1_556 S
H1531 N1525 0.985 . S
H1532 N1529 0.984 . S
H1533 N1529 0.985 . S
H1534 N1528 0.984 . S
H1535 N1528 0.984 . S
H1536 N1524 0.984 . S
H1537 N1524 0.985 1_554 S
C1538 C1539 1.363 . S
C1538 C1544 1.379 . S
C1538 N1546 1.356 . S
C1539 C1538 1.363 . S
C1539 C1545 1.363 . S
C1540 C1541 1.363 . S
C1540 C1545 1.379 . S
C1540 N1547 1.356 . S
C1541 C1540 1.363 . S
C1541 C1544 1.363 . S
N1542 C1544 1.356 . S
N1542 H1554 0.984 . S
N1542 H1555 0.985 . S
N1543 C1545 1.356 . S
N1543 H1548 0.984 . S
N1543 H1549 0.985 . S
C1544 C1538 1.379 . S
C1544 C1541 1.363 . S
C1544 N1542 1.356 . S
C1545 C1539 1.363 . S
C1545 C1540 1.379 . S
C1545 N1543 1.356 . S
N1546 C1538 1.356 . S
N1546 H1552 0.984 . S
N1546 H1553 0.984 . S
N1547 C1540 1.356 . S
N1547 H1550 0.984 . S
N1547 H1551 0.985 . S
H1548 N1543 0.984 . S
H1549 N1543 0.985 . S
H1550 N1547 0.984 . S
H1551 N1547 0.985 . S
H1552 N1546 0.984 . S
H1553 N1546 0.984 . S
H1554 N1542 0.984 . S
H1555 N1542 0.985 . S
C1556 C1557 1.363 . S
C1556 C1562 1.379 1_556 S
C1556 N1564 1.356 . S
C1557 C1556 1.363 . S
C1557 C1563 1.363 . S
C1558 C1559 1.363 . S
C1558 C1563 1.379 1_554 S
C1558 N1565 1.356 . S
C1559 C1558 1.363 . S
C1559 C1562 1.363 . S
N1560 C1562 1.356 . S
N1560 H1572 0.984 . S
N1560 H1573 0.985 . S
N1561 C1563 1.356 . S
N1561 H1566 0.984 . S
N1561 H1567 0.985 . S
C1562 C1556 1.379 1_554 S
C1562 C1559 1.363 . S
C1562 N1560 1.356 . S
C1563 C1557 1.363 . S
C1563 C1558 1.379 1_556 S
C1563 N1561 1.356 . S
N1564 C1556 1.356 . S
N1564 H1570 0.984 . S
N1564 H1571 0.984 . S
N1565 C1558 1.356 . S
N1565 H1568 0.984 . S
N1565 H1569 0.985 . S
H1566 N1561 0.984 . S
H1567 N1561 0.985 . S
H1568 N1565 0.984 . S
H1569 N1565 0.985 . S
H1570 N1564 0.984 . S
H1571 N1564 0.984 . S
H1572 N1560 0.984 . S
H1573 N1560 0.985 . S
C1574 C1575 1.363 . S
C1574 C1580 1.379 . S
C1574 N1582 1.356 . S
C1575 C1574 1.363 . S
C1575 C1581 1.363 . S
C1576 C1577 1.363 . S
C1576 C1581 1.379 . S
C1576 N1583 1.356 . S
C1577 C1576 1.363 . S
C1577 C1580 1.363 . S
N1578 C1580 1.356 . S
N1578 H1590 0.984 . S
N1578 H1591 0.985 . S
N1579 C1581 1.356 . S
N1579 H1584 0.984 . S
N1579 H1585 0.985 . S
C1580 C1574 1.379 . S
C1580 C1577 1.363 . S
C1580 N1578 1.356 . S
C1581 C1575 1.363 . S
C1581 C1576 1.379 . S
C1581 N1579 1.356 . S
N1582 C1574 1.356 . S
N1582 H1588 0.984 . S
N1582 H1589 0.984 . S
N1583 C1576 1.356 . S
N1583 H1586 0.984 . S
N1583 H1587 0.985 . S
H1584 N1579 0.984 . S
H1585 N1579 0.985 . S
H1586 N1583 0.984 . S
H1587 N1583 0.985 . S
H1588 N1582 0.984 . S
H1589 N1582 0.984 . S
H1590 N1578 0.984 . S
H1591 N1578 0.985 . S
C1592 C1593 1.363 1_565 S
C1592 C1598 1.379 . S
C1592 N1600 1.356 . S
C1593 C1592 1.363 1_545 S
C1593 C1599 1.363 1_556 S
C1594 C1595 1.363 1_545 S
C1594 C1599 1.379 . S
C1594 N1601 1.356 . S
C1595 C1594 1.363 1_565 S
C1595 C1598 1.363 1_554 S
N1596 C1598 1.356 . S
N1596 H1608 0.984 . S
N1596 H1609 0.985 1_556 S
N1597 C1599 1.356 . S
N1597 H1602 0.984 1_554 S
N1597 H1603 0.985 . S
C1598 C1592 1.379 . S
C1598 C1595 1.363 1_556 S
C1598 N1596 1.356 . S
C1599 C1593 1.363 1_554 S
C1599 C1594 1.379 . S
C1599 N1597 1.356 . S
N1600 C1592 1.356 . S
N1600 H1606 0.984 . S
N1600 H1607 0.984 1_565 S
N1601 C1594 1.356 . S
N1601 H1604 0.984 1_545 S
N1601 H1605 0.985 . S
H1602 N1597 0.984 1_556 S
H1603 N1597 0.985 . S
H1604 N1601 0.984 1_565 S
H1605 N1601 0.985 . S
H1606 N1600 0.984 . S
H1607 N1600 0.984 1_545 S
H1608 N1596 0.984 . S
H1609 N1596 0.985 1_554 S
C1610 C1611 1.363 . S
C1610 C1616 1.379 . S
C1610 N1618 1.356 . S
C1611 C1610 1.363 . S
C1611 C1617 1.363 . S
C1612 C1613 1.363 . S
C1612 C1617 1.379 . S
C1612 N1619 1.356 . S
C1613 C1612 1.363 . S
C1613 C1616 1.363 . S
N1614 C1616 1.356 . S
N1614 H1626 0.984 . S
N1614 H1627 0.985 . S
N1615 C1617 1.356 . S
N1615 H1620 0.984 . S
N1615 H1621 0.985 . S
C1616 C1610 1.379 . S
C1616 C1613 1.363 . S
C1616 N1614 1.356 . S
C1617 C1611 1.363 . S
C1617 C1612 1.379 . S
C1617 N1615 1.356 . S
N1618 C1610 1.356 . S
N1618 H1624 0.984 . S
N1618 H1625 0.984 . S
N1619 C1612 1.356 . S
N1619 H1622 0.984 . S
N1619 H1623 0.985 . S
H1620 N1615 0.984 . S
H1621 N1615 0.985 . S
H1622 N1619 0.984 . S
H1623 N1619 0.985 . S
H1624 N1618 0.984 . S
H1625 N1618 0.984 . S
H1626 N1614 0.984 . S
H1627 N1614 0.985 . S
C1628 C1629 1.363 . S
C1628 C1634 1.379 . S
C1628 N1636 1.356 . S
C1629 C1628 1.363 . S
C1629 C1635 1.363 . S
C1630 C1631 1.363 . S
C1630 C1635 1.379 . S
C1630 N1637 1.356 . S
C1631 C1630 1.363 . S
C1631 C1634 1.363 . S
N1632 C1634 1.356 . S
N1632 H1644 0.984 . S
N1632 H1645 0.985 . S
N1633 C1635 1.356 . S
N1633 H1638 0.984 . S
N1633 H1639 0.985 . S
C1634 C1628 1.379 . S
C1634 C1631 1.363 . S
C1634 N1632 1.356 . S
C1635 C1629 1.363 . S
C1635 C1630 1.379 . S
C1635 N1633 1.356 . S
N1636 C1628 1.356 . S
N1636 H1642 0.984 . S
N1636 H1643 0.984 . S
N1637 C1630 1.356 . S
N1637 H1640 0.984 . S
N1637 H1641 0.985 . S
H1638 N1633 0.984 . S
H1639 N1633 0.985 . S
H1640 N1637 0.984 . S
H1641 N1637 0.985 . S
H1642 N1636 0.984 . S
H1643 N1636 0.984 . S
H1644 N1632 0.984 . S
H1645 N1632 0.985 . S
C1646 C1647 1.363 . S
C1646 C1652 1.379 . S
C1646 N1654 1.356 . S
C1647 C1646 1.363 . S
C1647 C1653 1.363 . S
C1648 C1649 1.363 . S
C1648 C1653 1.379 . S
C1648 N1655 1.356 . S
C1649 C1648 1.363 . S
C1649 C1652 1.363 . S
N1650 C1652 1.356 . S
N1650 H1662 0.984 . S
N1650 H1663 0.985 . S
N1651 C1653 1.356 . S
N1651 H1656 0.984 . S
N1651 H1657 0.985 . S
C1652 C1646 1.379 . S
C1652 C1649 1.363 . S
C1652 N1650 1.356 . S
C1653 C1647 1.363 . S
C1653 C1648 1.379 . S
C1653 N1651 1.356 . S
N1654 C1646 1.356 . S
N1654 H1660 0.984 . S
N1654 H1661 0.984 . S
N1655 C1648 1.356 . S
N1655 H1658 0.984 . S
N1655 H1659 0.985 . S
H1656 N1651 0.984 . S
H1657 N1651 0.985 . S
H1658 N1655 0.984 . S
H1659 N1655 0.985 . S
H1660 N1654 0.984 . S
H1661 N1654 0.984 . S
H1662 N1650 0.984 . S
H1663 N1650 0.985 . S
C513 C16 0.983 . S
C515 C404 0.983 . S
C531 C20 0.983 . S
C533 C400 0.983 . S
C549 C48 0.983 . S
C551 C436 0.983 . S
C567 C52 0.983 . S
C569 C432 0.983 . S
C585 C464 0.983 . S
C587 C84 0.983 . S
C603 C80 0.983 . S
C605 C468 0.983 . S
C621 C116 0.983 . S
C623 C496 0.983 . S
C639 C112 0.983 . S
C641 C500 0.983 . S
C657 C276 0.983 . S
C659 C144 0.983 . S
C675 C272 0.983 . S
C677 C148 0.983 . S
C693 C308 0.983 . S
C695 C176 0.983 . S
C711 C304 0.983 . S
C713 C180 0.983 . S
C729 C336 0.983 . S
C731 C212 0.983 . S
C747 C208 0.983 . S
C749 C340 0.983 . S
C765 C368 0.983 . S
C767 C244 0.983 . S
C783 C240 0.983 . S
C785 C372 0.983 . S
C801 C23 1.662 . S
C803 C403 1.662 . S
C819 C19 1.662 1_655 S
C821 C407 1.662 . S
C837 C55 1.663 . S
C839 C435 1.663 . S
C855 C439 1.662 . S
C857 C51 1.662 1_655 S
C873 C471 1.662 . S
C875 C83 1.662 . S
C891 C467 1.662 . S
C893 C87 1.662 1_455 S
C909 C503 1.663 . S
C911 C115 1.663 . S
C927 C499 1.662 . S
C929 C119 1.662 1_455 S
C945 C151 1.662 . S
C947 C275 1.662 . S
C963 C147 1.662 1_655 S
C965 C279 1.662 . S
C981 C183 1.663 . S
C983 C307 1.663 . S
C999 C179 1.662 1_655 S
C1001 C311 1.662 . S
C1017 C343 1.662 . S
C1019 C211 1.662 . S
C1035 C339 1.662 . S
C1037 C215 1.662 1_455 S
C1053 C375 1.662 . S
C1055 C243 1.662 . S
C1071 C247 1.662 1_455 S
C1073 C371 1.662 . S
C1089 C22 1.970 . S
C1091 C305 1.946 . S
C1107 C310 1.970 . S
C1109 C17 1.946 . S
C1125 C273 1.946 . S
C1127 C54 1.970 . S
C1143 C278 1.970 . S
C1145 C49 1.946 . S
C1161 C373 1.946 . S
C1163 C82 1.970 . S
C1179 C85 1.946 . S
C1181 C370 1.970 . S
C1197 C114 1.970 . S
C1199 C341 1.946 . S
C1215 C117 1.946 . S
C1217 C338 1.970 . S
C1233 C433 1.946 . S
C1235 C150 1.970 . S
C1251 C145 1.946 . S
C1253 C438 1.970 . S
C1269 C182 1.970 . S
C1271 C401 1.946 . S
C1287 C406 1.970 . S
C1289 C177 1.946 . S
C1305 C501 1.946 . S
C1307 C210 1.970 . S
C1323 C498 1.970 . S
C1325 C213 1.946 . S
C1341 C469 1.946 . S
C1343 C242 1.970 . S
C1359 C466 1.970 . S
C1361 C245 1.946 . S
C1377 C465 1.752 . S
C1379 C21 1.752 . S
C1395 C86 1.532 . S
C1397 C18 1.532 . S
C1413 C369 1.752 . S
C1415 C53 1.752 . S
C1431 C50 1.532 . S
C1433 C246 1.532 . S
C1449 C405 1.752 . S
C1451 C81 1.752 . S
C1467 C113 1.752 . S
C1469 C309 1.752 . S
C1485 C178 1.532 . S
C1487 C118 1.532 . S
C1503 C337 1.752 . S
C1505 C149 1.752 . S
C1521 C146 1.532 . S
C1523 C214 1.532 . S
C1539 C181 1.752 . S
C1541 C497 1.752 . S
C1557 C277 1.752 . S
C1559 C209 1.752 . S
C1575 C437 1.752 . S
C1577 C241 1.752 . S
C1593 C274 1.532 . S
C1595 C342 1.532 . S
C1611 C306 1.532 . S
C1613 C502 1.532 . S
C1629 C434 1.531 . S
C1631 C374 1.531 . S
C1647 C470 1.532 . S
C1649 C402 1.532 . S
