# Generated by pormake.
# Topology uoz, (4)-cn, num edge types: 1
# Building blocks:
#     Node 0, Type 0, BuildingBlock: UXUYUI_clean_sbu_0, # of connection points: 4
#     Node 1, Type 0, BuildingBlock: UXUYUI_clean_sbu_0, # of connection points: 4
#     Node 2, Type 0, BuildingBlock: UXUYUI_clean_sbu_0, # of connection points: 4
#     Node 3, Type 0, BuildingBlock: UXUYUI_clean_sbu_0, # of connection points: 4
#     Node 4, Type 0, BuildingBlock: UXUYUI_clean_sbu_0, # of connection points: 4
#     Node 5, Type 0, BuildingBlock: UXUYUI_clean_sbu_0, # of connection points: 4
#     Node 6, Type 0, BuildingBlock: UXUYUI_clean_sbu_0, # of connection points: 4
#     Node 7, Type 0, BuildingBlock: UXUYUI_clean_sbu_0, # of connection points: 4
#     Node 8, Type 0, BuildingBlock: UXUYUI_clean_sbu_0, # of connection points: 4
#     Node 9, Type 0, BuildingBlock: UXUYUI_clean_sbu_0, # of connection points: 4
#     Node 10, Type 0, BuildingBlock: UXUYUI_clean_sbu_0, # of connection points: 4
#     Node 11, Type 0, BuildingBlock: UXUYUI_clean_sbu_0, # of connection points: 4
#     Node 12, Type 0, BuildingBlock: UXUYUI_clean_sbu_0, # of connection points: 4
#     Node 13, Type 0, BuildingBlock: UXUYUI_clean_sbu_0, # of connection points: 4
#     Node 14, Type 0, BuildingBlock: UXUYUI_clean_sbu_0, # of connection points: 4
#     Node 15, Type 0, BuildingBlock: UXUYUI_clean_sbu_0, # of connection points: 4
#     Edge 16, Type (0, 0), BuildingBlock: CIFDUS_clean_linker_0, # of connection points: 2
#     Edge 17, Type (0, 0), BuildingBlock: CIFDUS_clean_linker_0, # of connection points: 2
#     Edge 18, Type (0, 0), BuildingBlock: CIFDUS_clean_linker_0, # of connection points: 2
#     Edge 19, Type (0, 0), BuildingBlock: CIFDUS_clean_linker_0, # of connection points: 2
#     Edge 20, Type (0, 0), BuildingBlock: CIFDUS_clean_linker_0, # of connection points: 2
#     Edge 21, Type (0, 0), BuildingBlock: CIFDUS_clean_linker_0, # of connection points: 2
#     Edge 22, Type (0, 0), BuildingBlock: CIFDUS_clean_linker_0, # of connection points: 2
#     Edge 23, Type (0, 0), BuildingBlock: CIFDUS_clean_linker_0, # of connection points: 2
#     Edge 24, Type (0, 0), BuildingBlock: CIFDUS_clean_linker_0, # of connection points: 2
#     Edge 25, Type (0, 0), BuildingBlock: CIFDUS_clean_linker_0, # of connection points: 2
#     Edge 26, Type (0, 0), BuildingBlock: CIFDUS_clean_linker_0, # of connection points: 2
#     Edge 27, Type (0, 0), BuildingBlock: CIFDUS_clean_linker_0, # of connection points: 2
#     Edge 28, Type (0, 0), BuildingBlock: CIFDUS_clean_linker_0, # of connection points: 2
#     Edge 29, Type (0, 0), BuildingBlock: CIFDUS_clean_linker_0, # of connection points: 2
#     Edge 30, Type (0, 0), BuildingBlock: CIFDUS_clean_linker_0, # of connection points: 2
#     Edge 31, Type (0, 0), BuildingBlock: CIFDUS_clean_linker_0, # of connection points: 2
#     Edge 32, Type (0, 0), BuildingBlock: CIFDUS_clean_linker_0, # of connection points: 2
#     Edge 33, Type (0, 0), BuildingBlock: CIFDUS_clean_linker_0, # of connection points: 2
#     Edge 34, Type (0, 0), BuildingBlock: CIFDUS_clean_linker_0, # of connection points: 2
#     Edge 35, Type (0, 0), BuildingBlock: CIFDUS_clean_linker_0, # of connection points: 2
#     Edge 36, Type (0, 0), BuildingBlock: CIFDUS_clean_linker_0, # of connection points: 2
#     Edge 37, Type (0, 0), BuildingBlock: CIFDUS_clean_linker_0, # of connection points: 2
#     Edge 38, Type (0, 0), BuildingBlock: CIFDUS_clean_linker_0, # of connection points: 2
#     Edge 39, Type (0, 0), BuildingBlock: CIFDUS_clean_linker_0, # of connection points: 2
#     Edge 40, Type (0, 0), BuildingBlock: CIFDUS_clean_linker_0, # of connection points: 2
#     Edge 41, Type (0, 0), BuildingBlock: CIFDUS_clean_linker_0, # of connection points: 2
#     Edge 42, Type (0, 0), BuildingBlock: CIFDUS_clean_linker_0, # of connection points: 2
#     Edge 43, Type (0, 0), BuildingBlock: CIFDUS_clean_linker_0, # of connection points: 2
#     Edge 44, Type (0, 0), BuildingBlock: CIFDUS_clean_linker_0, # of connection points: 2
#     Edge 45, Type (0, 0), BuildingBlock: CIFDUS_clean_linker_0, # of connection points: 2
#     Edge 46, Type (0, 0), BuildingBlock: CIFDUS_clean_linker_0, # of connection points: 2
#     Edge 47, Type (0, 0), BuildingBlock: CIFDUS_clean_linker_0, # of connection points: 2
# Relax obj value: 0.206
# Max RMSD: 0.135
# Mean RMSD: 0.135
data_MOF--net-uoz--node1-UXUYUI_clean_sbu_0--edge1-CIFDUS_clean_linker_0
_symmetry_space_group_name_H-M    P1
_symmetry_Int_Tables_number       1
_symmetry_cell_setting            triclinic
loop_
_symmetry_equiv_pos_as_xyz
'x, y, z'
_cell_length_a     79.394
_cell_length_b     79.17466
_cell_length_c     30.412552
_cell_angle_alpha  89.988837
_cell_angle_beta   89.998401
_cell_angle_gamma 89.999504
loop_
_atom_site_label
_atom_site_type_symbol
_atom_site_fract_x
_atom_site_fract_y
_atom_site_fract_z
_atom_type_partial_charge
Li0 Li 0.98673 0.5972 0.31292 0.0
Li1 Li 0.01757 0.59794 0.31856 0.0
Li2 Li 0.00249 0.57357 0.28242 0.0
Li3 Li 0.00217 0.57624 0.3628 0.0
C4 C 0.99736 0.60821 0.23311 0.0
N5 N 0.98421 0.6301 0.17098 0.0
C6 C 0.00298 0.62492 0.23088 0.0
C7 C 0.98527 0.60258 0.20306 0.0
C8 C 0.99614 0.6358 0.1994 0.0
C9 C 0.9787 0.61385 0.17211 0.0
C10 C 0.00796 0.61229 0.39749 0.0
C11 C 0.02712 0.61691 0.45784 0.0
N12 N 0.02269 0.6335 0.45856 0.0
C13 C 0.00343 0.62934 0.3992 0.0
C14 C 0.01975 0.60598 0.42735 0.0
C15 C 0.01108 0.63988 0.43016 0.0
C16 C 0.95252 0.60422 0.28984 0.0
N17 N 0.96755 0.6113 0.30081 0.0
C18 C 0.95795 0.63841 0.2767 0.0
C19 C 0.97023 0.62816 0.29597 0.0
C20 C 0.94265 0.63129 0.26277 0.0
C21 C 0.93979 0.61405 0.27086 0.0
H22 H 0.95067 0.5908 0.29382 0.0
H23 H 0.98233 0.63348 0.30448 0.0
C24 C 0.05057 0.6044 0.29083 0.0
N25 N 0.03707 0.6119 0.31025 0.0
C26 C 0.06378 0.61415 0.27416 0.0
C27 C 0.04912 0.63923 0.29828 0.0
C28 C 0.03635 0.62896 0.31534 0.0
C29 C 0.06285 0.63182 0.27646 0.0
H30 H 0.05064 0.59088 0.28588 0.0
H31 H 0.02527 0.63471 0.32948 0.0
C32 C 0.97262 0.55954 0.30777 0.0
N33 N 0.95293 0.53308 0.27792 0.0
C34 C 0.96942 0.54564 0.33489 0.0
C35 C 0.96544 0.56012 0.26584 0.0
C36 C 0.95954 0.53236 0.31914 0.0
C37 C 0.95563 0.54659 0.25122 0.0
C38 C 0.03485 0.56453 0.34159 0.0
C39 C 0.03741 0.54757 0.33079 0.0
C40 C 0.04592 0.57255 0.37058 0.0
C41 C 0.05073 0.53877 0.3502 0.0
C42 C 0.05911 0.56333 0.38923 0.0
N43 N 0.0612 0.54676 0.37882 0.0
C44 C 0.00874 0.56387 0.19582 0.0
C45 C 1.00187 0.54111 0.24325 0.0
C46 C 0.01024 0.5529 0.16026 0.0
N47 N 0.00435 0.55787 0.23605 0.0
C48 C 0.00329 0.52966 0.20861 0.0
C49 C 0.00742 0.53555 0.16637 0.0
H50 H 0.01106 0.5772 0.19131 0.0
H51 H 0.99881 0.53666 0.2759 0.0
C52 C 0.99874 0.56697 0.45572 0.0
N53 N 0.00211 0.56169 0.41406 0.0
C54 C 0.99838 0.55533 0.49057 0.0
C55 C 0.00478 0.53308 0.439 0.0
C56 C 0.0051 0.5451 0.4054 0.0
C57 C 1.00137 0.53805 0.48246 0.0
H58 H 0.99616 0.58017 0.46193 0.0
H59 H 0.00714 0.54108 0.37189 0.0
O60 O 0.0036 0.59747 0.26457 0.0
O61 O 1.00062 0.60179 0.36732 0.0
O62 O 0.98246 0.57259 0.32254 0.0
O63 O 0.02184 0.57333 0.3229 0.0
H64 H 0.01231 0.62957 0.25357 0.0
H65 H 0.981 0.58966 0.20342 0.0
H66 H 1.00028 0.6488 0.1977 0.0
H67 H 0.96925 0.60965 0.14895 0.0
H68 H 0.03632 0.61219 0.48103 0.0
H69 H 0.99416 0.6344 0.37674 0.0
H70 H 0.02311 0.59275 0.42721 0.0
H71 H 0.00778 0.65312 0.43163 0.0
H72 H 0.9606 0.65169 0.27162 0.0
H73 H 0.92819 0.60804 0.26055 0.0
H74 H 0.07407 0.60799 0.25712 0.0
H75 H 0.04796 0.65283 0.3006 0.0
H76 H 0.97431 0.54518 0.36798 0.0
H77 H 0.96746 0.57085 0.24472 0.0
H78 H 0.95705 0.52151 0.33977 0.0
H79 H 0.95016 0.54684 0.21866 0.0
H80 H 0.02913 0.54122 0.30792 0.0
H81 H 0.04449 0.58581 0.37816 0.0
H82 H 0.05276 0.52559 0.34244 0.0
H83 H 0.06773 0.56938 0.41184 0.0
H84 H 0.01333 0.558 0.12821 0.0
H85 H 1.00131 0.51634 0.2149 0.0
H86 H 0.99581 0.55984 0.52348 0.0
H87 H 0.00671 0.51994 0.43061 0.0
Li88 Li 0.67774 0.75335 0.61026 0.0
Li89 Li 0.65605 0.76695 0.56182 0.0
Li90 Li 0.65887 0.73622 0.56484 0.0
Li91 Li 0.68062 0.75289 0.53288 0.0
C92 C 0.64663 0.76069 0.64962 0.0
N93 N 0.63579 0.77891 0.72175 0.0
C94 C 0.65157 0.77751 0.65497 0.0
C95 C 0.63619 0.75313 0.68096 0.0
C96 C 0.64595 0.78651 0.69165 0.0
C97 C 0.63085 0.76255 0.7172 0.0
C98 C 0.68979 0.78408 0.54746 0.0
C99 C 0.69402 0.80222 0.48469 0.0
N100 N 0.71016 0.805 0.49783 0.0
C101 C 0.70638 0.78719 0.56047 0.0
C102 C 0.68352 0.79171 0.50937 0.0
C103 C 0.71649 0.79777 0.53488 0.0
C104 C 0.70876 0.75321 0.64868 0.0
N105 N 0.69234 0.75447 0.66088 0.0
C106 C 0.70052 0.75677 0.73659 0.0
C107 C 0.68797 0.75607 0.70398 0.0
C108 C 0.71764 0.75592 0.72456 0.0
C109 C 0.72161 0.75398 0.67987 0.0
H110 H 0.71189 0.75162 0.61433 0.0
H111 H 0.67484 0.75684 0.71314 0.0
C112 C 0.62589 0.77798 0.52785 0.0
N113 N 0.63986 0.78405 0.54826 0.0
C114 C 0.61482 0.78894 0.50654 0.0
C115 C 0.63201 0.81242 0.53027 0.0
C116 C 0.64291 0.80094 0.55087 0.0
C117 C 0.61809 0.80636 0.50642 0.0
H118 H 0.62387 0.7645 0.526 0.0
H119 H 0.65427 0.80542 0.56663 0.0
C120 C 0.68669 0.71995 0.59905 0.0
N121 N 0.69317 0.69237 0.65209 0.0
C122 C 0.69993 0.70899 0.58896 0.0
C123 C 0.67676 0.71691 0.63621 0.0
C124 C 0.703 0.69511 0.61615 0.0
C125 C 0.68024 0.70289 0.66258 0.0
C126 C 0.65571 0.74144 0.47547 0.0
C127 C 0.66609 0.72742 0.46853 0.0
C128 C 0.64331 0.74546 0.44459 0.0
C129 C 0.66382 0.7176 0.43084 0.0
C130 C 0.64145 0.73533 0.40729 0.0
N131 N 0.65165 0.72172 0.40126 0.0
C132 C 0.62916 0.72032 0.54241 0.0
C133 C 0.65164 0.70082 0.54844 0.0
C134 C 0.61902 0.70816 0.52229 0.0
N135 N 0.64527 0.71662 0.55399 0.0
C136 C 0.64182 0.68815 0.52909 0.0
C137 C 0.62541 0.69187 0.51431 0.0
H138 H 0.62458 0.73311 0.54595 0.0
H139 H 0.66463 0.69822 0.5565 0.0
C140 C 0.7131 0.7494 0.49982 0.0
N141 N 0.69717 0.75383 0.48838 0.0
C142 C 0.726 0.75002 0.46879 0.0
C143 C 0.70576 0.75965 0.4148 0.0
C144 C 0.6933 0.75903 0.447 0.0
C145 C 0.72233 0.75509 0.42564 0.0
H146 H 0.71575 0.7454 0.5331 0.0
H147 H 0.68057 0.76279 0.43909 0.0
O148 O 0.65206 0.75147 0.61431 0.0
O149 O 0.6798 0.77344 0.57144 0.0
O150 O 0.68372 0.73364 0.57273 0.0
O151 O 0.65739 0.75103 0.51268 0.0
H152 H 0.6597 0.78359 0.6313 0.0
H153 H 0.63231 0.7401 0.67734 0.0
H154 H 0.64968 0.79953 0.69622 0.0
H155 H 0.62278 0.75686 0.74174 0.0
H156 H 0.68937 0.80809 0.45495 0.0
H157 H 0.71143 0.78149 0.58996 0.0
H158 H 0.67079 0.78924 0.49843 0.0
H159 H 0.72938 0.80023 0.54447 0.0
H160 H 0.69688 0.75828 0.77068 0.0
H161 H 0.73456 0.7529 0.66905 0.0
H162 H 0.60412 0.78378 0.48901 0.0
H163 H 0.63499 0.82577 0.53076 0.0
H164 H 0.70776 0.71122 0.56038 0.0
H165 H 0.6665 0.72524 0.64473 0.0
H166 H 0.7132 0.68651 0.6087 0.0
H167 H 0.67267 0.70038 0.69141 0.0
H168 H 0.67573 0.72406 0.49208 0.0
H169 H 0.63517 0.75626 0.44942 0.0
H170 H 0.67172 0.70669 0.42515 0.0
H171 H 0.63188 0.73828 0.38316 0.0
H172 H 0.60665 0.71188 0.51086 0.0
H173 H 0.64727 0.67576 0.52438 0.0
H174 H 0.73863 0.74631 0.47819 0.0
H175 H 0.70254 0.76381 0.38192 0.0
Li176 Li 0.5014 0.43412 0.78321 0.0
Li177 Li 0.5027 0.42845 0.86109 0.0
Li178 Li 0.517 0.4095 0.80683 0.0
Li179 Li 0.48629 0.40975 0.81425 0.0
C180 C 0.53857 0.43309 0.82657 0.0
N181 N 0.57293 0.43056 0.8394 0.0
C182 C 0.54512 0.4321 0.86915 0.0
C183 C 0.54949 0.43276 0.7905 0.0
C184 C 0.56253 0.43087 0.87495 0.0
C185 C 0.56682 0.43147 0.79768 0.0
C186 C 0.47384 0.44512 0.85008 0.0
C187 C 0.45551 0.45131 0.91119 0.0
N188 N 0.45773 0.46812 0.90387 0.0
C189 C 0.47583 0.46244 0.84289 0.0
C190 C 0.4635 0.43948 0.88424 0.0
C191 C 0.46761 0.47387 0.87054 0.0
C192 C 0.48579 0.45526 0.72091 0.0
N193 N 0.50047 0.45193 0.74218 0.0
C194 C 0.51462 0.47377 0.70288 0.0
C195 C 0.51467 0.46098 0.73433 0.0
C196 C 0.49978 0.47721 0.67945 0.0
C197 C 0.48518 0.46787 0.68894 0.0
H198 H 0.47465 0.44795 0.72841 0.0
H199 H 0.52609 0.45815 0.75216 0.0
C200 C 0.49918 0.43664 0.95501 0.0
N201 N 0.50391 0.44173 0.91413 0.0
C202 C 0.49885 0.44826 0.98991 0.0
C203 C 0.50827 0.46997 0.93989 0.0
C204 C 0.50869 0.45794 0.90639 0.0
C205 C 0.5032 0.46533 0.98253 0.0
H206 H 0.49532 0.4237 0.96036 0.0
H207 H 0.5122 0.46171 0.87345 0.0
C208 C 0.49664 0.41414 0.71696 0.0
N209 N 0.48957 0.42208 0.63037 0.0
C210 C 0.48029 0.41224 0.70059 0.0
C211 C 0.5094 0.42005 0.68919 0.0
C212 C 0.47698 0.41631 0.65672 0.0
C213 C 0.50556 0.42402 0.64557 0.0
C214 C 0.49659 0.38886 0.87638 0.0
C215 C 0.50304 0.37315 0.8639 0.0
C216 C 0.48278 0.38967 0.90477 0.0
C217 C 0.49537 0.35846 0.87963 0.0
C218 C 0.47546 0.37469 0.91975 0.0
N219 N 0.48184 0.35953 0.90695 0.0
C220 C 0.54793 0.38994 0.81886 0.0
C221 C 0.53488 0.38901 0.74893 0.0
C222 C 0.56069 0.37901 0.80421 0.0
N223 N 0.53541 0.3948 0.79099 0.0
C224 C 0.54736 0.37833 0.73288 0.0
C225 C 0.56052 0.37318 0.76049 0.0
H226 H 0.54798 0.39445 0.85242 0.0
H227 H 0.52459 0.39245 0.72772 0.0
C228 C 0.45126 0.40054 0.80579 0.0
N229 N 0.46752 0.39519 0.80404 0.0
C230 C 0.43835 0.39046 0.7884 0.0
C231 C 0.45917 0.36943 0.76941 0.0
C232 C 0.4716 0.37989 0.78681 0.0
C233 C 0.44232 0.37485 0.76878 0.0
H234 H 0.44841 0.41299 0.81836 0.0
H235 H 0.48468 0.37621 0.7844 0.0
O236 O 0.52155 0.43404 0.82011 0.0
O237 O 0.48215 0.43373 0.82416 0.0
O238 O 0.50011 0.41055 0.76011 0.0
O239 O 0.50377 0.40336 0.86087 0.0
H240 H 0.53686 0.43215 0.89742 0.0
H241 H 0.54461 0.43327 0.7573 0.0
H242 H 0.56778 0.43007 0.90771 0.0
H243 H 0.57541 0.43112 0.77009 0.0
H244 H 0.44757 0.44714 0.93797 0.0
H245 H 0.48383 0.46701 0.81666 0.0
H246 H 0.46178 0.42612 0.89009 0.0
H247 H 0.46915 0.48731 0.86562 0.0
H248 H 0.52615 0.48061 0.69624 0.0
H249 H 0.47345 0.47031 0.6719 0.0
H250 H 0.4951 0.4439 0.02218 0.0
H251 H 0.51135 0.48291 0.93176 0.0
H252 H 0.47021 0.40784 0.72149 0.0
H253 H 0.52208 0.42182 0.70142 0.0
H254 H 0.46438 0.41495 0.64368 0.0
H255 H 0.51528 0.42872 0.62386 0.0
H256 H 0.51374 0.37232 0.84198 0.0
H257 H 0.47772 0.40174 0.91492 0.0
H258 H 0.50015 0.3462 0.87004 0.0
H259 H 0.4647 0.37512 0.94154 0.0
H260 H 0.57059 0.37524 0.82666 0.0
H261 H 0.54647 0.37379 0.69936 0.0
H262 H 0.42557 0.39523 0.78825 0.0
H263 H 0.46282 0.35741 0.75532 0.0
Li264 Li 0.82474 0.25117 0.11245 0.0
Li265 Li 0.84441 0.23411 0.06296 0.0
Li266 Li 0.84679 0.26583 0.06533 0.0
Li267 Li 0.82219 0.25229 0.03466 0.0
C268 C 0.85679 0.25688 0.15141 0.0
N269 N 0.86919 0.27277 0.22552 0.0
C270 C 0.86836 0.24861 0.17852 0.0
C271 C 0.85158 0.27327 0.16186 0.0
C272 C 0.87447 0.25684 0.21589 0.0
C273 C 0.85799 0.28107 0.1995 0.0
C274 C 0.80807 0.22229 0.0512 0.0
C275 C 0.79892 0.20742 0.9862 0.0
N276 N 0.78409 0.20371 0.00642 0.0
C277 C 0.79281 0.21817 0.0715 0.0
C278 C 0.81122 0.21671 0.00837 0.0
C279 C 0.78083 0.20882 0.04826 0.0
C280 C 0.79421 0.25169 0.15696 0.0
N281 N 0.81104 0.25115 0.16502 0.0
C282 C 0.80578 0.24984 0.2426 0.0
C283 C 0.817 0.25022 0.20692 0.0
C284 C 0.78825 0.25023 0.2352 0.0
C285 C 0.78259 0.25118 0.19146 0.0
H286 H 0.78976 0.25226 0.12339 0.0
H287 H 0.8304 0.24965 0.21282 0.0
C288 C 0.87441 0.21738 0.04408 0.0
N289 N 0.85775 0.21459 0.05139 0.0
C290 C 0.88448 0.20473 0.02579 0.0
C291 C 0.8602 0.18632 0.02437 0.0
C292 C 0.85062 0.1993 0.04307 0.0
C293 C 0.87728 0.18911 0.01451 0.0
H294 H 0.87964 0.22979 0.05011 0.0
H295 H 0.83732 0.19743 0.04887 0.0
C296 C 0.8127 0.28339 0.05557 0.0
N297 N 0.79184 0.30595 0.01264 0.0
C298 C 0.81797 0.29109 0.01659 0.0
C299 C 0.79692 0.28736 0.07309 0.0
C300 C 0.80722 0.3024 0.99526 0.0
C301 C 0.78653 0.29875 0.05081 0.0
C302 C 0.85164 0.2501 0.97311 0.0
C303 C 0.85557 0.26514 0.95117 0.0
C304 C 0.85404 0.23467 0.9516 0.0
C305 C 0.86189 0.26447 0.90834 0.0
C306 C 0.86037 0.23454 0.90875 0.0
N307 N 0.86414 0.24931 0.88819 0.0
C308 C 0.87742 0.27781 0.03559 0.0
C309 C 0.85944 0.2999 0.05895 0.0
C310 C 0.88826 0.28934 0.01553 0.0
N311 N 0.863 0.28318 0.05508 0.0
C312 C 0.87025 0.31197 0.0405 0.0
C313 C 0.88461 0.30676 0.01671 0.0
H314 H 0.87979 0.26441 0.03245 0.0
H315 H 0.84781 0.30384 0.07442 0.0
C316 C 0.78892 0.25419 0.00285 0.0
N317 N 0.80533 0.25436 0.98993 0.0
C318 C 0.77604 0.25514 0.97173 0.0
C319 C 0.79717 0.25692 0.91471 0.0
C320 C 0.80959 0.25587 0.94684 0.0
C321 C 0.78014 0.25635 0.92694 0.0
H322 H 0.78586 0.2531 0.03737 0.0
H323 H 0.82256 0.25623 0.93702 0.0
O324 O 0.85072 0.24895 0.11475 0.0
O325 O 0.81984 0.23173 0.07308 0.0
O326 O 0.82292 0.27197 0.07629 0.0
O327 O 0.84558 0.25049 0.01534 0.0
H328 H 0.87254 0.23593 0.17078 0.0
H329 H 0.84266 0.2799 0.14128 0.0
H330 H 0.8834 0.25058 0.23723 0.0
H331 H 0.85404 0.29373 0.20804 0.0
H332 H 0.80113 0.20319 0.95287 0.0
H333 H 0.79025 0.22208 0.10487 0.0
H334 H 0.82292 0.2198 0.99216 0.0
H335 H 0.76895 0.20561 0.06352 0.0
H336 H 0.81084 0.2493 0.27562 0.0
H337 H 0.76929 0.25116 0.18367 0.0
H338 H 0.89753 0.20749 0.01831 0.0
H339 H 0.85422 0.1744 0.01662 0.0
H340 H 0.83014 0.2882 0.00268 0.0
H341 H 0.79271 0.28173 0.10354 0.0
H342 H 0.81109 0.30832 0.96484 0.0
H343 H 0.77424 0.30187 0.06387 0.0
H344 H 0.8537 0.27724 0.96681 0.0
H345 H 0.85105 0.22288 0.9676 0.0
H346 H 0.86497 0.27602 0.8911 0.0
H347 H 0.86229 0.22267 0.89184 0.0
H348 H 0.89882 0.28438 0.99717 0.0
H349 H 0.86701 0.32518 0.04375 0.0
H350 H 0.76306 0.25457 0.98254 0.0
H351 H 0.80087 0.25819 0.8806 0.0
Li352 Li 0.00351 0.42535 0.7774 0.0
Li353 Li 1.00033 0.43035 0.85456 0.0
Li354 Li 0.01926 0.40858 0.83102 0.0
Li355 Li 0.98834 0.40354 0.82761 0.0
C356 C 0.02503 0.4495 0.81116 0.0
N357 N 0.03247 0.48289 0.79316 0.0
C358 C 0.0121 0.46136 0.80707 0.0
C359 C 0.04176 0.45463 0.80626 0.0
C360 C 0.0161 0.47817 0.79792 0.0
C361 C 0.04527 0.47157 0.79713 0.0
C362 C 0.96694 0.43522 0.82168 0.0
C363 C 0.94027 0.43571 0.85985 0.0
N364 N 0.93687 0.45107 0.84191 0.0
C365 C 0.96311 0.45099 0.80347 0.0
C366 C 0.95539 0.4275 0.85001 0.0
C367 C 0.94788 0.4588 0.8142 0.0
C368 C 0.98962 0.44318 0.70375 0.0
N369 N 0.0041 0.4372 0.72191 0.0
C370 C 0.02056 0.45299 0.67023 0.0
C371 C 0.01939 0.44158 0.70524 0.0
C372 C 0.00585 0.46001 0.65197 0.0
C373 C 0.99021 0.45467 0.6687 0.0
H374 H 0.97761 0.4395 0.71744 0.0
H375 H 0.03074 0.43684 0.72051 0.0
C376 C 0.01318 0.45155 0.91904 0.0
N377 N 0.99835 0.44687 0.90028 0.0
C378 C 0.01334 0.46221 0.95549 0.0
C379 C 0.98296 0.46342 0.95221 0.0
C380 C 0.9834 0.45263 0.91605 0.0
C381 C 0.99806 0.46819 0.97274 0.0
H382 H 0.0249 0.44653 0.90652 0.0
H383 H 0.97174 0.44866 0.90155 0.0
C384 C 0.01625 0.38762 0.76529 0.0
N385 N 0.03858 0.36281 0.73941 0.0
C386 C 0.01262 0.37065 0.7735 0.0
C387 C 0.03115 0.392 0.74364 0.0
C388 C 0.02409 0.35828 0.76021 0.0
C389 C 0.0423 0.37926 0.73091 0.0
C390 C 0.00269 0.40933 0.92268 0.0
C391 C 0.01777 0.41146 0.94572 0.0
C392 C 0.98739 0.40952 0.94538 0.0
C393 C 0.01727 0.41394 0.99118 0.0
C394 C 0.98742 0.41205 0.99083 0.0
N395 N 0.00223 0.41421 0.01259 0.0
C396 C 0.05474 0.40261 0.84812 0.0
C397 C 0.03547 0.38076 0.8655 0.0
C398 C 0.06794 0.3935 0.86756 0.0
N399 N 0.03886 0.39617 0.84795 0.0
C400 C 0.04819 0.37127 0.88507 0.0
C401 C 0.06464 0.37775 0.88725 0.0
H402 H 0.05704 0.41504 0.83468 0.0
H403 H 0.02268 0.37607 0.86554 0.0
C404 C 0.9564 0.38423 0.82675 0.0
N405 N 0.97261 0.38579 0.84083 0.0
C406 C 0.94581 0.37195 0.84545 0.0
C407 C 0.96899 0.36288 0.8911 0.0
C408 C 0.97905 0.37512 0.87148 0.0
C409 C 0.95202 0.36122 0.87875 0.0
H410 H 0.95151 0.3929 0.80238 0.0
H411 H 0.99195 0.37654 0.88209 0.0
O412 O 0.02141 0.4329 0.81938 0.0
O413 O 0.98163 0.42716 0.81085 0.0
O414 O 0.0054 0.39993 0.779 0.0
O415 O 0.00289 0.40733 0.87801 0.0
H416 H 0.99912 0.45761 0.81095 0.0
H417 H 0.05193 0.4456 0.80922 0.0
H418 H 0.00619 0.48746 0.79459 0.0
H419 H 0.05816 0.47571 0.79313 0.0
H420 H 0.9313 0.42991 0.88195 0.0
H421 H 0.97176 0.45718 0.78125 0.0
H422 H 0.95819 0.4155 0.86507 0.0
H423 H 0.94479 0.47101 0.8004 0.0
H424 H 0.03291 0.45681 0.65887 0.0
H425 H 0.97853 0.45948 0.65525 0.0
H426 H 0.02527 0.46534 0.9707 0.0
H427 H 0.9709 0.4679 0.96406 0.0
H428 H 1.00114 0.36708 0.7903 0.0
H429 H 0.03414 0.40511 0.73726 0.0
H430 H 0.0215 0.34509 0.76653 0.0
H431 H 0.05393 0.38245 0.71437 0.0
H432 H 0.02972 0.41144 0.92862 0.0
H433 H 0.97561 0.40787 0.92804 0.0
H434 H 0.02883 0.41573 0.00941 0.0
H435 H 0.97566 0.41234 0.0088 0.0
H436 H 0.08042 0.39902 0.86872 0.0
H437 H 0.0451 0.35908 0.89903 0.0
H438 H 0.93289 0.37103 0.83437 0.0
H439 H 0.9744 0.35524 0.91703 0.0
Li440 Li 0.84898 0.73585 0.07661 0.0
Li441 Li 0.82586 0.74966 0.11131 0.0
Li442 Li 0.82642 0.75097 0.03284 0.0
Li443 Li 0.84861 0.76701 0.08135 0.0
C444 C 0.8142 0.71951 0.09066 0.0
N445 N 0.79229 0.69863 0.13578 0.0
C446 C 0.81921 0.71189 0.13 0.0
C447 C 0.79813 0.71628 0.0739 0.0
C448 C 0.80793 0.70145 0.15244 0.0
C449 C 0.78721 0.70574 0.09728 0.0
C450 C 0.8563 0.74948 0.16907 0.0
C451 C 0.86652 0.76321 0.23474 0.0
N452 N 0.87046 0.74788 0.25209 0.0
C453 C 0.86048 0.73386 0.18763 0.0
C454 C 0.85936 0.76428 0.19288 0.0
C455 C 0.8676 0.73332 0.22959 0.0
C456 C 0.881 0.72305 0.09234 0.0
N457 N 0.86505 0.71798 0.08295 0.0
C458 C 0.87199 0.68943 0.1015 0.0
C459 C 0.86045 0.70147 0.08619 0.0
C460 C 0.88838 0.69447 0.11332 0.0
C461 C 0.89292 0.71147 0.10739 0.0
H462 H 0.88416 0.73632 0.09073 0.0
H463 H 0.84763 0.69779 0.07911 0.0
C464 C 0.79323 0.75018 0.14513 0.0
N465 N 0.80958 0.74839 0.15745 0.0
C466 C 0.78043 0.7498 0.17641 0.0
C467 C 0.80149 0.74521 0.23257 0.0
C468 C 0.81389 0.74581 0.20017 0.0
C469 C 0.7845 0.74736 0.22087 0.0
H470 H 0.79014 0.75206 0.11089 0.0
H471 H 0.82689 0.74414 0.20929 0.0
C472 C 0.86285 0.74356 1.00123 0.0
N473 N 0.88479 0.72396 0.95265 0.0
C474 C 0.87983 0.74803 0.99822 0.0
C475 C 0.85698 0.72919 0.97936 0.0
C476 C 0.89073 0.73793 0.97354 0.0
C477 C 0.86828 0.71943 0.95501 0.0
C478 C 0.81323 0.78102 0.0969 0.0
C479 C 0.79845 0.78693 0.07721 0.0
C480 C 0.81715 0.78596 0.13983 0.0
C481 C 0.78769 0.79744 0.10113 0.0
C482 C 0.80605 0.79646 0.16268 0.0
N483 N 0.79166 0.80193 0.14304 0.0
C484 C 0.79466 0.75228 0.99668 0.0
C485 C 0.81519 0.75067 0.94044 0.0
C486 C 0.78167 0.75197 0.96582 0.0
N487 N 0.81103 0.75151 0.98381 0.0
C488 C 0.8025 0.75038 0.90817 0.0
C489 C 0.78542 0.75084 0.9208 0.0
H490 H 0.79167 0.75291 0.03129 0.0
H491 H 0.8283 0.75001 0.93089 0.0
C492 C 0.87944 0.78118 0.1015 0.0
N493 N 0.86315 0.78557 0.09418 0.0
C494 C 0.89025 0.79214 0.12373 0.0
C495 C 0.8676 0.81243 0.12843 0.0
C496 C 0.85721 0.80107 0.10575 0.0
C497 C 0.88418 0.80772 0.13926 0.0
H498 H 0.8837 0.76862 0.09303 0.0
H499 H 0.84413 0.80417 0.10025 0.0
O500 O 0.82495 0.73013 0.06884 0.0
O501 O 0.84953 0.7503 0.12766 0.0
O502 O 0.85203 0.75298 0.02612 0.0
O503 O 0.82382 0.7705 0.07426 0.0
H504 H 0.83158 0.71425 0.14343 0.0
H505 H 0.79411 0.7218 0.04316 0.0
H506 H 0.8116 0.69563 0.18316 0.0
H507 H 0.7747 0.70321 0.0848 0.0
H508 H 0.86897 0.77458 0.25341 0.0
H509 H 0.85826 0.72224 0.16999 0.0
H510 H 0.85629 0.7765 0.17933 0.0
H511 H 0.87088 0.72131 0.24427 0.0
H512 H 0.86801 0.67643 0.10518 0.0
H513 H 0.90529 0.71601 0.11669 0.0
H514 H 0.76754 0.7517 0.16593 0.0
H515 H 0.80516 0.74297 0.26636 0.0
H516 H 0.88455 0.75913 0.01492 0.0
H517 H 0.84386 0.72554 0.98159 0.0
H518 H 0.90393 0.74119 0.97103 0.0
H519 H 0.86395 0.70823 0.93808 0.0
H520 H 0.79535 0.78353 0.04376 0.0
H521 H 0.8285 0.78149 0.15555 0.0
H522 H 0.77618 0.80206 0.08634 0.0
H523 H 0.80886 0.80023 0.19607 0.0
H524 H 0.76876 0.75265 0.97724 0.0
H525 H 0.80601 0.7494 0.87386 0.0
H526 H 0.90301 0.78808 0.13052 0.0
H527 H 0.86234 0.82426 0.13987 0.0
Li528 Li 0.48732 0.59942 0.32582 0.0
Li529 Li 0.5184 0.59831 0.32687 0.0
Li530 Li 0.50295 0.57906 0.27465 0.0
Li531 Li 0.50257 0.57463 0.3523 0.0
C532 C 0.49521 0.6117 0.2409 0.0
N533 N 0.47863 0.62504 0.16898 0.0
C534 C 0.50127 0.62632 0.22063 0.0
C535 C 0.48072 0.60386 0.22463 0.0
C536 C 0.4927 0.63289 0.18431 0.0
C537 C 0.47253 0.61079 0.18821 0.0
C538 C 0.50865 0.60843 0.40672 0.0
C539 C 0.52678 0.61458 0.46836 0.0
N540 N 0.52204 0.63107 0.46649 0.0
C541 C 0.5039 0.62544 0.40557 0.0
C542 C 0.52011 0.60294 0.43856 0.0
C543 C 0.51081 0.63668 0.43603 0.0
C544 C 0.46384 0.61205 0.38345 0.0
N545 N 0.46854 0.61368 0.34068 0.0
C546 C 0.4492 0.63662 0.33132 0.0
C547 C 0.46141 0.6256 0.31437 0.0
C548 C 0.44453 0.63561 0.37599 0.0
C549 C 0.45197 0.62293 0.40187 0.0
H550 H 0.4699 0.6027 0.40398 0.0
H551 H 0.46545 0.62694 0.28067 0.0
C552 C 0.55166 0.60697 0.35679 0.0
N553 N 0.53714 0.61298 0.33889 0.0
C554 C 0.56303 0.618 0.37707 0.0
C555 C 0.54492 0.6413 0.35716 0.0
C556 C 0.53401 0.62985 0.33692 0.0
C557 C 0.55933 0.63534 0.37905 0.0
H558 H 0.55397 0.59355 0.35772 0.0
H559 H 0.52234 0.6343 0.32266 0.0
C560 C 0.47343 0.56185 0.32568 0.0
N561 N 0.45506 0.53458 0.35596 0.0
C562 C 0.47631 0.54573 0.30855 0.0
C563 C 0.46112 0.56412 0.35799 0.0
C564 C 0.4669 0.5321 0.32431 0.0
C565 C 0.452 0.55017 0.37296 0.0
C566 C 0.53148 0.56054 0.3286 0.0
C567 C 0.53281 0.54582 0.30343 0.0
C568 C 0.53911 0.56121 0.36999 0.0
C569 C 0.54175 0.53203 0.32011 0.0
C570 C 0.54791 0.54715 0.38556 0.0
N571 N 0.54905 0.53297 0.36049 0.0
C572 C 0.51863 0.56416 0.20045 0.0
C573 C 0.48912 0.56013 0.20271 0.0
C574 C 0.52009 0.55275 0.16552 0.0
N575 N 0.50339 0.56724 0.21916 0.0
C576 C 0.48996 0.54876 0.1675 0.0
C577 C 0.50567 0.54451 0.14909 0.0
H578 H 0.52983 0.56981 0.2144 0.0
H579 H 0.47712 0.56268 0.21817 0.0
C580 C 0.49601 0.56329 0.43756 0.0
N581 N 0.50063 0.55781 0.39698 0.0
C582 C 0.49402 0.55185 0.47196 0.0
C583 C 0.50103 0.5292 0.4219 0.0
C584 C 0.5029 0.5411 0.38848 0.0
C585 C 0.49665 0.53457 0.46436 0.0
H586 H 0.49371 0.57656 0.44315 0.0
H587 H 0.50604 0.53694 0.35571 0.0
O588 O 0.50357 0.60509 0.27625 0.0
O589 O 0.5023 0.59727 0.37654 0.0
O590 O 0.48269 0.57532 0.31114 0.0
O591 O 0.52283 0.57422 0.31273 0.0
H592 H 0.51248 0.63253 0.23285 0.0
H593 H 0.47573 0.59266 0.2402 0.0
H594 H 0.49724 0.64421 0.1683 0.0
H595 H 0.46128 0.60487 0.17533 0.0
H596 H 0.53574 0.6105 0.49298 0.0
H597 H 0.49526 0.63002 0.38081 0.0
H598 H 0.52387 0.58983 0.44023 0.0
H599 H 0.50736 0.64989 0.43523 0.0
H600 H 0.4437 0.64598 0.30972 0.0
H601 H 0.44924 0.62178 0.4366 0.0
H602 H 0.574 0.61289 0.3935 0.0
H603 H 0.54173 0.6546 0.3574 0.0
H604 H 0.48598 0.54366 0.2841 0.0
H605 H 0.45869 0.57649 0.37154 0.0
H606 H 0.46911 0.51953 0.3116 0.0
H607 H 0.4425 0.55173 0.39813 0.0
H608 H 0.52683 0.5449 0.27164 0.0
H609 H 0.53801 0.57235 0.39024 0.0
H610 H 0.54282 0.52056 0.30102 0.0
H611 H 0.55377 0.54748 0.41765 0.0
H612 H 0.53252 0.54984 0.15304 0.0
H613 H 0.47843 0.54311 0.15551 0.0
H614 H 0.49029 0.55646 0.50404 0.0
H615 H 0.50321 0.51598 0.4147 0.0
Li616 Li 0.65453 0.26674 0.58023 0.0
Li617 Li 0.67711 0.25009 0.61112 0.0
Li618 Li 0.67549 0.25094 0.53278 0.0
Li619 Li 0.65371 0.23493 0.57875 0.0
C620 C 0.68895 0.28163 0.59455 0.0
N621 N 0.70932 0.30389 0.64006 0.0
C622 C 0.68398 0.28774 0.63564 0.0
C623 C 0.7042 0.28701 0.57634 0.0
C624 C 0.69447 0.29893 0.65822 0.0
C625 C 0.71434 0.29824 0.59992 0.0
C626 C 0.64701 0.24965 0.67007 0.0
C627 C 0.63699 0.23331 0.73181 0.0
N628 N 0.63388 0.24784 0.75422 0.0
C629 C 0.64371 0.26442 0.69383 0.0
C630 C 0.64362 0.23396 0.68931 0.0
C631 C 0.63708 0.26324 0.73626 0.0
C632 C 0.62485 0.28233 0.60696 0.0
N633 N 0.64037 0.28579 0.59034 0.0
C634 C 0.63645 0.31532 0.60343 0.0
C635 C 0.64617 0.30191 0.5874 0.0
C636 C 0.62079 0.31198 0.62319 0.0
C637 C 0.61487 0.29528 0.62401 0.0
H638 H 0.62064 0.26937 0.60919 0.0
H639 H 0.65862 0.30429 0.57435 0.0
C640 C 0.70992 0.25093 0.64482 0.0
N641 N 0.6935 0.24975 0.65717 0.0
C642 C 0.72267 0.25069 0.67634 0.0
C643 C 0.70139 0.24805 0.73276 0.0
C644 C 0.68908 0.2483 0.70018 0.0
C645 C 0.71843 0.24927 0.72098 0.0
H646 H 0.71309 0.25203 0.61036 0.0
H647 H 0.67608 0.24721 0.70952 0.0
C648 C 0.64455 0.26062 0.49286 0.0
N649 N 0.63434 0.27931 0.42093 0.0
C650 C 0.63166 0.25466 0.46571 0.0
C651 C 0.65222 0.27611 0.48356 0.0
C652 C 0.62669 0.26429 0.42946 0.0
C653 C 0.64688 0.28536 0.447 0.0
C654 C 0.68971 0.22033 0.59056 0.0
C655 C 0.70542 0.21738 0.57132 0.0
C656 C 0.686 0.2132 0.63148 0.0
C657 C 0.71728 0.20758 0.59374 0.0
C658 C 0.69819 0.20351 0.6529 0.0
N659 N 0.71346 0.20094 0.63377 0.0
C660 C 0.70634 0.25269 0.48943 0.0
C661 C 0.68378 0.25041 0.43892 0.0
C662 C 0.71803 0.2533 0.45512 0.0
N663 N 0.68957 0.25134 0.48097 0.0
C664 C 0.69507 0.25109 0.40344 0.0
C665 C 0.71249 0.25256 0.4113 0.0
H666 H 0.71065 0.25331 0.52311 0.0
H667 H 0.67043 0.24914 0.43277 0.0
C668 C 0.62194 0.22098 0.59212 0.0
N669 N 0.6384 0.21665 0.58709 0.0
C670 C 0.61038 0.20926 0.60845 0.0
C671 C 0.63279 0.18867 0.61299 0.0
C672 C 0.64391 0.20074 0.59598 0.0
C673 C 0.61585 0.193 0.6203 0.0
H674 H 0.61802 0.23384 0.58582 0.0
H675 H 0.65708 0.19767 0.59211 0.0
O676 O 0.67899 0.27038 0.57241 0.0
O677 O 0.65339 0.25054 0.62824 0.0
O678 O 0.64952 0.25132 0.52847 0.0
O679 O 0.67806 0.23021 0.56956 0.0
H680 H 0.67225 0.28369 0.65016 0.0
H681 H 0.70816 0.28264 0.5443 0.0
H682 H 0.69082 0.30363 0.69022 0.0
H683 H 0.7262 0.30246 0.58628 0.0
H684 H 0.63434 0.22124 0.747 0.0
H685 H 0.64622 0.2767 0.67983 0.0
H686 H 0.64615 0.22237 0.67186 0.0
H687 H 0.63447 0.27457 0.75491 0.0
H688 H 0.64144 0.32804 0.60223 0.0
H689 H 0.60277 0.29224 0.63847 0.0
H690 H 0.73567 0.2518 0.66594 0.0
H691 H 0.69761 0.24667 0.7668 0.0
H692 H 0.62558 0.24271 0.47258 0.0
H693 H 0.6622 0.28095 0.50418 0.0
H694 H 0.61674 0.25983 0.40811 0.0
H695 H 0.65272 0.29735 0.43935 0.0
H696 H 0.70844 0.22255 0.53939 0.0
H697 H 0.67394 0.21542 0.64694 0.0
H698 H 0.72952 0.20526 0.57932 0.0
H699 H 0.69554 0.19809 0.68481 0.0
H700 H 0.73128 0.25463 0.4629 0.0
H701 H 0.69021 0.25029 0.37024 0.0
H702 H 0.59748 0.21317 0.61399 0.0
H703 H 0.63746 0.17623 0.62136 0.0
Li704 Li 0.3248 0.25497 0.61564 0.0
Li705 Li 0.3477 0.23905 0.58341 0.0
Li706 Li 0.34797 0.27067 0.58276 0.0
Li707 Li 0.32698 0.25408 0.5368 0.0
C708 C 0.3548 0.25602 0.67384 0.0
N709 N 0.36799 0.25804 0.75782 0.0
C710 C 0.35872 0.24131 0.69713 0.0
C711 C 0.35767 0.27177 0.69328 0.0
C712 C 0.36536 0.24259 0.73954 0.0
C713 C 0.36432 0.27253 0.73575 0.0
C714 C 0.31798 0.22024 0.5965 0.0
C715 C 0.30417 0.19317 0.59236 0.0
N716 N 0.3078 0.19043 0.63549 0.0
C717 C 0.32152 0.21719 0.64079 0.0
C718 C 0.30919 0.20818 0.57206 0.0
C719 C 0.31628 0.20204 0.65991 0.0
C720 C 0.29255 0.25056 0.64983 0.0
N721 N 0.30847 0.25503 0.66146 0.0
C722 C 0.29985 0.25976 0.73559 0.0
C723 C 0.31231 0.25959 0.70335 0.0
C724 C 0.28329 0.25529 0.72449 0.0
C725 C 0.27967 0.25066 0.68096 0.0
H726 H 0.28988 0.24704 0.61618 0.0
H727 H 0.32492 0.26335 0.71179 0.0
C728 C 0.37871 0.22652 0.60543 0.0
N729 N 0.36317 0.22093 0.59369 0.0
C730 C 0.39075 0.21531 0.62157 0.0
C731 C 0.37091 0.1925 0.61146 0.0
C732 C 0.35918 0.20423 0.59545 0.0
C733 C 0.38687 0.19805 0.62551 0.0
H734 H 0.38145 0.2399 0.60425 0.0
H735 H 0.34679 0.20002 0.58576 0.0
C736 C 0.31088 0.28356 0.59373 0.0
N737 N 0.28507 0.30053 0.63577 0.0
C738 C 0.29469 0.28364 0.57571 0.0
C739 C 0.31398 0.29225 0.63292 0.0
C740 C 0.2818 0.29227 0.59751 0.0
C741 C 0.30076 0.30071 0.65374 0.0
C742 C 0.35751 0.24517 0.49664 0.0
C743 C 0.37028 0.25109 0.46905 0.0
C744 C 0.34978 0.22968 0.48765 0.0
C745 C 0.37509 0.24142 0.43273 0.0
C746 C 0.35494 0.22039 0.45101 0.0
N747 N 0.36738 0.2264 0.42453 0.0
C748 C 0.3795 0.2851 0.5949 0.0
C749 C 0.35736 0.3051 0.59963 0.0
C750 C 0.39111 0.29704 0.60985 0.0
N751 N 0.36296 0.28921 0.5909 0.0
C752 C 0.36852 0.3174 0.61529 0.0
C753 C 0.38559 0.31331 0.62133 0.0
H754 H 0.38352 0.27228 0.58856 0.0
H755 H 0.34412 0.30803 0.59641 0.0
C756 C 0.29703 0.24831 0.49161 0.0
N757 N 0.31316 0.25346 0.48496 0.0
C758 C 0.28532 0.24864 0.45728 0.0
C759 C 0.3072 0.25889 0.40905 0.0
C760 C 0.31847 0.25857 0.44458 0.0
C761 C 0.29024 0.25412 0.41518 0.0
H762 H 0.2931 0.24441 0.52414 0.0
H763 H 0.33136 0.26263 0.44005 0.0
O764 O 0.34853 0.25504 0.63195 0.0
O765 O 0.32297 0.23496 0.57692 0.0
O766 O 0.32355 0.27478 0.57356 0.0
O767 O 0.35267 0.25453 0.53224 0.0
H768 H 0.35674 0.22899 0.6827 0.0
H769 H 0.35464 0.2833 0.67605 0.0
H770 H 0.36843 0.2313 0.7579 0.0
H771 H 0.36655 0.28463 0.75119 0.0
H772 H 0.29739 0.18369 0.57382 0.0
H773 H 0.32819 0.22643 0.66021 0.0
H774 H 0.30633 0.21038 0.53773 0.0
H775 H 0.31896 0.19951 0.69416 0.0
H776 H 0.30308 0.26364 0.76869 0.0
H777 H 0.26706 0.24701 0.67123 0.0
H778 H 0.40275 0.22027 0.63252 0.0
H779 H 0.36747 0.17929 0.61325 0.0
H780 H 0.29207 0.27707 0.54533 0.0
H781 H 0.32637 0.29213 0.64767 0.0
H782 H 0.26919 0.29237 0.58403 0.0
H783 H 0.30295 0.30732 0.68433 0.0
H784 H 0.3764 0.26305 0.47565 0.0
H785 H 0.33989 0.22486 0.50862 0.0
H786 H 0.38495 0.24586 0.41105 0.0
H787 H 0.34906 0.2084 0.44362 0.0
H788 H 0.40412 0.29331 0.61445 0.0
H789 H 0.36381 0.32985 0.62342 0.0
H790 H 0.27242 0.24511 0.46422 0.0
H791 H 0.31176 0.26292 0.37719 0.0
Li792 Li 0.1583 0.76597 0.08541 0.0
Li793 Li 0.18122 0.74908 0.11352 0.0
Li794 Li 0.17775 0.75108 0.03485 0.0
Li795 Li 0.15693 0.73444 0.08247 0.0
C796 C 0.18727 0.7852 0.09052 0.0
N797 N 0.19587 0.81721 0.11879 0.0
C798 C 0.1866 0.78922 0.1352 0.0
C799 C 0.19246 0.79741 0.06022 0.0
C800 C 0.19095 0.80548 0.14885 0.0
C801 C 0.19672 0.81354 0.07516 0.0
C802 C 0.15472 0.74788 0.17723 0.0
C803 C 0.1478 0.73072 0.2403 0.0
N804 N 0.14781 0.74478 0.26598 0.0
C805 C 0.15452 0.76217 0.20424 0.0
C806 C 0.1512 0.73203 0.19537 0.0
C807 C 0.15106 0.76033 0.24902 0.0
C808 C 0.13058 0.77989 0.12485 0.0
N809 N 0.14372 0.78456 0.09899 0.0
C810 C 0.13567 0.81362 0.1052 0.0
C811 C 0.14627 0.80103 0.08818 0.0
C812 C 0.12244 0.80921 0.13403 0.0
C813 C 0.12 0.79198 0.14335 0.0
H814 H 0.12867 0.76671 0.13259 0.0
H815 H 0.15667 0.80447 0.06705 0.0
C816 C 0.21311 0.75609 0.14844 0.0
N817 N 0.19836 0.74806 0.15741 0.0
C818 C 0.22603 0.75636 0.17952 0.0
C819 C 0.20856 0.73963 0.2279 0.0
C820 C 0.19604 0.73961 0.19583 0.0
C821 C 0.22369 0.74826 0.2201 0.0
H822 H 0.21477 0.76241 0.11722 0.0
H823 H 0.1846 0.73268 0.20157 0.0
C824 C 0.14611 0.76118 1.00017 0.0
N825 N 0.13392 0.78112 0.93277 0.0
C826 C 0.13096 0.75703 0.97945 0.0
C827 C 0.15505 0.77548 0.98673 0.0
C828 C 0.12501 0.76726 0.94539 0.0
C829 C 0.14868 0.7854 0.95257 0.0
C830 C 0.19398 0.72063 0.08767 0.0
C831 C 0.21043 0.72283 0.07231 0.0
C832 C 0.19086 0.7094 0.12216 0.0
C833 C 0.22353 0.71378 0.09196 0.0
C834 C 0.2043 0.70057 0.14091 0.0
N835 N 0.22022 0.70294 0.12557 0.0
C836 C 0.20644 0.75935 0.98703 0.0
C837 C 0.1862 0.74546 0.94271 0.0
C838 C 0.21787 0.75982 0.95214 0.0
N839 N 0.19101 0.75214 0.98196 0.0
C840 C 0.19727 0.74572 0.9067 0.0
C841 C 0.21347 0.7528 0.91129 0.0
H842 H 0.21001 0.76447 0.01865 0.0
H843 H 0.17391 0.73968 0.93956 0.0
C844 C 0.12549 0.7228 0.10348 0.0
N845 N 0.14089 0.71689 0.0917 0.0
C846 C 0.11339 0.71192 0.12087 0.0
C847 C 0.13292 0.68877 0.11177 0.0
C848 C 0.14471 0.70017 0.09451 0.0
C849 C 0.11713 0.69469 0.12623 0.0
H850 H 0.12296 0.73622 0.10176 0.0
H851 H 0.15713 0.69581 0.08531 0.0
O852 O 0.18288 0.76941 0.07631 0.0
O853 O 0.15778 0.74945 0.13307 0.0
O854 O 0.15203 0.75133 0.03371 0.0
O855 O 0.18107 0.72974 0.06972 0.0
H856 H 0.18286 0.77985 0.15909 0.0
H857 H 0.19312 0.79448 0.02549 0.0
H858 H 0.19046 0.80877 0.18335 0.0
H859 H 0.20069 0.82314 0.05207 0.0
H860 H 0.14518 0.71851 0.25477 0.0
H861 H 0.15682 0.77459 0.19079 0.0
H862 H 0.15137 0.72079 0.17522 0.0
H863 H 0.15088 0.77129 0.27025 0.0
H864 H 0.13792 0.82664 0.09608 0.0
H865 H 0.11037 0.78773 0.16592 0.0
H866 H 0.23754 0.76315 0.17229 0.0
H867 H 0.20646 0.73287 0.25839 0.0
H868 H 0.12388 0.74601 0.98962 0.0
H869 H 0.16675 0.7789 0.00248 0.0
H870 H 0.11331 0.7642 0.92901 0.0
H871 H 0.15547 0.7965 0.94182 0.0
H872 H 0.21307 0.73152 0.04576 0.0
H873 H 0.17826 0.70777 0.13496 0.0
H874 H 0.23633 0.7154 0.08055 0.0
H875 H 0.20209 0.69193 0.16785 0.0
H876 H 0.23005 0.76566 0.95716 0.0
H877 H 0.19335 0.74005 0.87597 0.0
H878 H 0.10156 0.71717 0.13212 0.0
H879 H 0.13628 0.67557 0.11473 0.0
Li880 Li 0.17775 0.25315 0.11756 0.0
Li881 Li 0.15703 0.27117 0.07006 0.0
Li882 Li 0.15541 0.24009 0.06907 0.0
Li883 Li 0.17962 0.25366 0.03925 0.0
C884 C 0.1408 0.24591 0.14353 0.0
N885 N 0.11764 0.22518 0.18453 0.0
C886 C 0.12394 0.25085 0.14665 0.0
C887 C 0.14591 0.23049 0.16146 0.0
C888 C 0.11242 0.24018 0.16747 0.0
C889 C 0.134 0.22017 0.18201 0.0
C890 C 0.1923 0.28474 0.0592 0.0
C891 C 0.19959 0.30156 0.99586 0.0
N892 N 0.21357 0.30717 0.01718 0.0
C893 C 0.20667 0.29077 0.08062 0.0
C894 C 0.18866 0.29028 0.01661 0.0
C895 C 0.21729 0.30207 0.05878 0.0
C896 C 0.20856 0.2545 0.16088 0.0
N897 N 0.19187 0.25219 0.16895 0.0
C898 C 0.19756 0.24809 0.24561 0.0
C899 C 0.18618 0.24909 0.21038 0.0
C900 C 0.21492 0.25043 0.23813 0.0
C901 C 0.22031 0.25374 0.195 0.0
H902 H 0.21278 0.25673 0.12758 0.0
H903 H 0.17286 0.24731 0.21611 0.0
C904 C 0.12653 0.28696 0.05565 0.0
N905 N 0.14312 0.29055 0.06136 0.0
C906 C 0.11537 0.29943 0.04152 0.0
C907 C 0.13852 0.31923 0.03939 0.0
C908 C 0.14925 0.30637 0.05426 0.0
C909 C 0.12137 0.31574 0.03239 0.0
H910 H 0.12212 0.27417 0.06002 0.0
H911 H 0.16253 0.30888 0.05843 0.0
C912 C 0.18994 0.22289 0.05606 0.0
N913 N 0.21218 0.20294 0.00931 0.0
C914 C 0.18463 0.21458 0.01798 0.0
C915 C 0.2065 0.22085 0.07073 0.0
C916 C 0.19608 0.2046 0.9947 0.0
C917 C 0.21757 0.21076 0.04655 0.0
C918 C 0.14981 0.25624 0.97885 0.0
C919 C 0.14612 0.24118 0.9568 0.0
C920 C 0.14653 0.27168 0.9582 0.0
C921 C 0.13927 0.24182 0.91453 0.0
C922 C 0.13968 0.27179 0.91589 0.0
N923 N 0.13622 0.25699 0.89512 0.0
C924 C 0.12391 0.23002 0.04256 0.0
C925 C 0.14118 0.20642 0.0584 0.0
C926 C 0.1117 0.21965 0.02386 0.0
N927 N 0.13851 0.22339 0.05803 0.0
C928 C 0.12904 0.19545 0.04082 0.0
C929 C 0.1142 0.20206 0.02193 0.0
H930 H 0.12225 0.24357 0.04205 0.0
H931 H 0.15298 0.20146 0.07066 0.0
C932 C 0.2127 0.25495 0.00643 0.0
N933 N 0.1964 0.25259 0.99423 0.0
C934 C 0.22555 0.25424 0.97525 0.0
C935 C 0.20466 0.24815 0.91967 0.0
C936 C 0.19223 0.2491 0.95187 0.0
C937 C 0.22158 0.25087 0.93112 0.0
H938 H 0.21572 0.2574 0.04051 0.0
H939 H 0.17933 0.24684 0.94294 0.0
O940 O 0.15221 0.2559 0.12215 0.0
O941 O 0.18187 0.27346 0.07977 0.0
O942 O 0.17903 0.2331 0.07854 0.0
O943 O 0.15626 0.2559 0.02066 0.0
H944 H 0.1198 0.26279 0.13317 0.0
H945 H 0.15889 0.22643 0.159 0.0
H946 H 0.09932 0.24381 0.17004 0.0
H947 H 0.13775 0.20815 0.1958 0.0
H948 H 0.19699 0.30584 0.96276 0.0
H949 H 0.20957 0.28684 0.11383 0.0
H950 H 0.17763 0.28571 0.99956 0.0
H951 H 0.22847 0.3068 0.07492 0.0
H952 H 0.19282 0.24563 0.27837 0.0
H953 H 0.23354 0.25535 0.18744 0.0
H954 H 0.10231 0.29612 0.03583 0.0
H955 H 0.14361 0.33167 0.0328 0.0
H956 H 0.17187 0.21599 0.00623 0.0
H957 H 0.2108 0.22706 0.10031 0.0
H958 H 0.19217 0.19822 0.96495 0.0
H959 H 0.23045 0.20918 0.05735 0.0
H960 H 0.14858 0.22909 0.97197 0.0
H961 H 0.14919 0.28349 0.97456 0.0
H962 H 0.13639 0.23026 0.89716 0.0
H963 H 0.13709 0.28366 0.8996 0.0
H964 H 0.10082 0.2256 0.00908 0.0
H965 H 0.13149 0.18201 0.04117 0.0
H966 H 0.23841 0.25652 0.98551 0.0
H967 H 0.20106 0.24513 0.88624 0.0
Li968 Li 0.34753 0.73735 0.56901 0.0
Li969 Li 0.32786 0.7533 0.6184 0.0
Li970 Li 0.3246 0.75452 0.53973 0.0
Li971 Li 0.3488 0.76903 0.57047 0.0
C972 C 0.31672 0.72006 0.5584 0.0
N973 N 0.30433 0.6912 0.51889 0.0
C974 C 0.30732 0.70846 0.58284 0.0
C975 C 0.31976 0.71702 0.51383 0.0
C976 C 0.30119 0.69393 0.56227 0.0
C977 C 0.31341 0.70235 0.49446 0.0
C978 C 0.35936 0.76063 0.65675 0.0
C979 C 0.36139 0.78584 0.70094 0.0
N980 N 0.37118 0.77736 0.73025 0.0
C981 C 0.36949 0.75218 0.68721 0.0
C982 C 0.35528 0.77761 0.66358 0.0
C983 C 0.37531 0.76085 0.72422 0.0
C984 C 0.37748 0.72249 0.5424 0.0
N985 N 0.36179 0.71836 0.55669 0.0
C986 C 0.36641 0.68938 0.53784 0.0
C987 C 0.35632 0.70208 0.55603 0.0
C988 C 0.38238 0.69341 0.52064 0.0
C989 C 0.38804 0.71019 0.52439 0.0
H990 H 0.3815 0.73554 0.54318 0.0
H991 H 0.3439 0.69897 0.56794 0.0
C992 C 0.29835 0.74605 0.66395 0.0
N993 N 0.31404 0.75243 0.67089 0.0
C994 C 0.28656 0.74535 0.69807 0.0
C995 C 0.30723 0.75771 0.74648 0.0
C996 C 0.31867 0.75813 0.71135 0.0
C997 C 0.29084 0.75133 0.74013 0.0
H998 H 0.29488 0.74168 0.6315 0.0
H999 H 0.33113 0.76318 0.71652 0.0
C1000 C 0.35337 0.75474 0.47801 0.0
N1001 N 0.365 0.75709 0.39251 0.0
C1002 C 0.35602 0.77056 0.45873 0.0
C1003 C 0.35675 0.74012 0.45377 0.0
C1004 C 0.36187 0.77149 0.41549 0.0
C1005 C 0.36259 0.74157 0.4106 0.0
C1006 C 0.31209 0.78338 0.56335 0.0
C1007 C 0.31553 0.79387 0.52747 0.0
C1008 C 0.29562 0.78212 0.57921 0.0
C1009 C 0.30238 0.80282 0.5078 0.0
C1010 C 0.28281 0.79128 0.55862 0.0
N1011 N 0.28642 0.80134 0.52362 0.0
C1012 C 0.29237 0.74876 0.50494 0.0
C1013 C 0.3108 0.76264 0.45546 0.0
C1014 C 0.27962 0.74854 0.47341 0.0
N1015 N 0.30769 0.75546 0.49521 0.0
C1016 C 0.29841 0.7628 0.42305 0.0
C1017 C 0.28264 0.75548 0.43164 0.0
H1018 H 0.29012 0.74342 0.53713 0.0
H1019 H 0.32281 0.76842 0.44892 0.0
C1020 C 0.37965 0.78256 0.54458 0.0
N1021 N 0.36426 0.78714 0.56009 0.0
C1022 C 0.39047 0.79465 0.5267 0.0
C1023 C 0.36988 0.81616 0.54376 0.0
C1024 C 0.35938 0.8036 0.56107 0.0
C1025 C 0.38545 0.81166 0.52502 0.0
H1026 H 0.3831 0.76935 0.54375 0.0
H1027 H 0.34701 0.80689 0.57326 0.0
O1028 O 0.32274 0.73438 0.57808 0.0
O1029 O 0.35379 0.75234 0.62007 0.0
O1030 O 0.34808 0.75357 0.52081 0.0
O1031 O 0.32471 0.77412 0.58222 0.0
H1032 H 0.30484 0.71064 0.61737 0.0
H1033 H 0.32684 0.72593 0.49437 0.0
H1034 H 0.29392 0.68482 0.58081 0.0
H1035 H 0.31566 0.69985 0.46 0.0
H1036 H 0.3583 0.79896 0.7067 0.0
H1037 H 0.37281 0.73905 0.68227 0.0
H1038 H 0.34737 0.78434 0.64059 0.0
H1039 H 0.38314 0.75446 0.74811 0.0
H1040 H 0.36141 0.67669 0.53565 0.0
H1041 H 0.40038 0.7139 0.51273 0.0
H1042 H 0.27424 0.74006 0.6915 0.0
H1043 H 0.31112 0.76264 0.77808 0.0
H1044 H 0.35337 0.78204 0.47669 0.0
H1045 H 0.35498 0.72774 0.46807 0.0
H1046 H 0.3639 0.78365 0.40018 0.0
H1047 H 0.36524 0.73035 0.39152 0.0
H1048 H 0.32816 0.79482 0.5144 0.0
H1049 H 0.29272 0.77407 0.60691 0.0
H1050 H 0.30484 0.81087 0.47978 0.0
H1051 H 0.26998 0.79036 0.57041 0.0
H1052 H 0.26767 0.74271 0.48139 0.0
H1053 H 0.30113 0.76868 0.3917 0.0
H1054 H 0.40245 0.79067 0.51322 0.0
H1055 H 0.36548 0.8291 0.54299 0.0
Li1056 Li 0.51797 0.09636 0.81993 0.0
Li1057 Li 0.48737 0.09552 0.8084 0.0
Li1058 Li 0.50134 0.07687 0.86412 0.0
Li1059 Li 0.50446 0.07154 0.78659 0.0
C1060 C 0.50566 0.1166 0.88115 0.0
N1061 N 0.51863 0.14628 0.9147 0.0
C1062 C 0.49871 0.13212 0.86883 0.0
C1063 C 0.51906 0.11615 0.91088 0.0
C1064 C 0.50548 0.14699 0.88608 0.0
C1065 C 0.52549 0.13131 0.92737 0.0
C1066 C 0.50943 0.09196 0.72126 0.0
C1067 C 0.50186 0.08216 0.64873 0.0
N1068 N 0.51799 0.08468 0.63519 0.0
C1069 C 0.52593 0.09446 0.70657 0.0
C1070 C 0.49727 0.0858 0.69205 0.0
C1071 C 0.53 0.09072 0.66294 0.0
C1072 C 0.55268 0.10658 0.81277 0.0
N1073 N 0.53631 0.11162 0.81151 0.0
C1074 C 0.54403 0.13759 0.77686 0.0
C1075 C 0.53188 0.12688 0.79466 0.0
C1076 C 0.56096 0.13243 0.77535 0.0
C1077 C 0.56531 0.1169 0.79491 0.0
H1078 H 0.55581 0.09413 0.8249 0.0
H1079 H 0.51872 0.13029 0.79244 0.0
C1080 C 0.45525 0.11376 0.81544 0.0
N1081 N 0.4688 0.10967 0.79011 0.0
C1082 C 0.44254 0.12431 0.79872 0.0
C1083 C 0.45796 0.12614 0.73054 0.0
C1084 C 0.47035 0.11584 0.74863 0.0
C1085 C 0.44384 0.13072 0.75559 0.0
H1086 H 0.45436 0.10895 0.84865 0.0
H1087 H 0.48132 0.11292 0.72933 0.0
C1088 C 0.53095 0.06132 0.85693 0.0
N1089 N 0.54664 0.03869 0.9126 0.0
C1090 C 0.52944 0.04396 0.84962 0.0
C1091 C 0.54061 0.06719 0.89215 0.0
C1092 C 0.53743 0.03271 0.87825 0.0
C1093 C 0.5484 0.05554 0.92003 0.0
C1094 C 0.46637 0.07103 0.82499 0.0
C1095 C 0.45909 0.07164 0.8668 0.0
C1096 C 0.45606 0.07107 0.78773 0.0
C1097 C 0.44156 0.07218 0.87062 0.0
C1098 C 0.43859 0.07166 0.79294 0.0
N1099 N 0.43176 0.07219 0.83393 0.0
C1100 C 0.50312 0.06849 0.95838 0.0
C1101 C 0.49519 0.04706 0.90814 0.0
C1102 C 0.50271 0.05685 0.99325 0.0
N1103 N 0.49947 0.06336 0.91674 0.0
C1104 C 0.49491 0.03503 0.94165 0.0
C1105 C 0.49881 0.0398 0.98487 0.0
H1106 H 0.50664 0.08148 0.9644 0.0
H1107 H 0.4924 0.04329 0.87474 0.0
C1108 C 0.52233 0.05149 0.72615 0.0
N1109 N 0.50702 0.05419 0.74481 0.0
C1110 C 0.52404 0.03979 0.69218 0.0
C1111 C 0.49434 0.03339 0.69894 0.0
C1112 C 0.49322 0.04521 0.73268 0.0
C1113 C 0.50984 0.03081 0.6777 0.0
H1114 H 0.53308 0.05882 0.73682 0.0
H1115 H 0.48128 0.04749 0.74861 0.0
O1116 O 0.49934 0.10193 0.86422 0.0
O1117 O 0.50523 0.09519 0.76417 0.0
O1118 O 0.52282 0.07251 0.83006 0.0
O1119 O 0.48351 0.07074 0.82046 0.0
H1120 H 0.4883 0.13266 0.8459 0.0
H1121 H 0.52448 0.10423 0.92093 0.0
H1122 H 0.50031 0.1591 0.87664 0.0
H1123 H 0.53593 0.13116 0.95022 0.0
H1124 H 0.49261 0.07726 0.62594 0.0
H1125 H 0.53556 0.09907 0.72858 0.0
H1126 H 0.48449 0.08357 0.70295 0.0
H1127 H 0.54273 0.09255 0.65121 0.0
H1128 H 0.54009 0.14952 0.76286 0.0
H1129 H 0.57815 0.11231 0.79409 0.0
H1130 H 0.432 0.12762 0.81958 0.0
H1131 H 0.4595 0.13039 0.69694 0.0
H1132 H 0.52198 0.03921 0.82255 0.0
H1133 H 0.54197 0.08059 0.89806 0.0
H1134 H 0.53625 0.01924 0.87327 0.0
H1135 H 0.55582 0.0599 0.94762 0.0
H1136 H 0.46685 0.07184 0.896 0.0
H1137 H 0.4615 0.07087 0.7551 0.0
H1138 H 0.43574 0.07267 0.90277 0.0
H1139 H 0.43046 0.07177 0.76439 0.0
H1140 H 0.50583 0.06102 0.02617 0.0
H1141 H 0.49164 0.0221 0.93381 0.0
H1142 H 0.53618 0.03821 0.67647 0.0
H1143 H 0.48317 0.02647 0.68929 0.0
Li1144 Li 0.99882 0.93067 0.28062 0.0
Li1145 Li 1.00137 0.92818 0.35947 0.0
Li1146 Li 0.01452 0.90641 0.31025 0.0
Li1147 Li 0.98372 0.90823 0.32052 0.0
C1148 C 0.03675 0.93211 0.32006 0.0
N1149 N 0.07127 0.93402 0.33059 0.0
C1150 C 0.04377 0.93232 0.36222 0.0
C1151 C 0.04729 0.93275 0.28327 0.0
C1152 C 0.06126 0.93335 0.36684 0.0
C1153 C 0.06471 0.93373 0.28928 0.0
C1154 C 0.97328 0.94574 0.34631 0.0
C1155 C 0.95628 0.9561 0.40619 0.0
N1156 N 0.95972 0.97222 0.39363 0.0
C1157 C 0.97653 0.9624 0.33371 0.0
C1158 C 0.96296 0.94253 0.38258 0.0
C1159 C 0.9696 0.97562 0.35816 0.0
C1160 C 0.98269 0.94666 0.21017 0.0
N1161 N 0.99728 0.94586 0.23341 0.0
C1162 C 0.00988 0.96689 0.18809 0.0
C1163 C 0.01068 0.95581 0.22357 0.0
C1164 C 0.99511 0.96774 0.16273 0.0
C1165 C 0.98135 0.95753 0.17428 0.0
H1166 H 0.97217 0.93874 0.21938 0.0
H1167 H 0.02194 0.95518 0.2434 0.0
C1168 C 0.99922 0.94075 0.45053 0.0
N1169 N 0.00404 0.94358 0.40822 0.0
C1170 C 1.00047 0.95371 0.48194 0.0
C1171 C 0.01151 0.9721 0.42557 0.0
C1172 C 0.0102 0.95885 0.3956 0.0
C1173 C 0.00662 0.96974 0.46957 0.0
H1174 H 0.99417 0.92856 0.45973 0.0
H1175 H 0.01366 0.96088 0.36161 0.0
C1176 C 0.99579 0.90626 0.22136 0.0
N1177 N 0.99363 0.90644 0.13074 0.0
C1178 C 0.98031 0.90347 0.20075 0.0
C1179 C 0.01019 0.90906 0.19596 0.0
C1180 C 0.97948 0.90362 0.15486 0.0
C1181 C 0.00883 0.90913 0.15017 0.0
C1182 C 0.99394 0.88967 0.38646 0.0
C1183 C 0.9998 0.87327 0.37918 0.0
C1184 C 0.98002 0.89231 0.41368 0.0
C1185 C 0.99144 0.8597 0.39886 0.0
C1186 C 0.97199 0.87842 0.43274 0.0
N1187 N 0.97781 0.86254 0.42497 0.0
C1188 C 0.04806 0.89014 0.30594 0.0
C1189 C 0.02532 0.87808 0.26672 0.0
C1190 C 0.0592 0.87825 0.28786 0.0
N1191 N 0.03149 0.89006 0.29435 0.0
C1192 C 0.03593 0.86616 0.24768 0.0
C1193 C 0.0532 0.86612 0.2578 0.0
H1194 H 0.05272 0.89946 0.32879 0.0
H1195 H 0.01208 0.87792 0.25866 0.0
C1196 C 0.94861 0.90038 0.31094 0.0
N1197 N 0.96452 0.89406 0.31312 0.0
C1198 C 0.93559 0.89062 0.29296 0.0
C1199 C 0.95548 0.86794 0.28161 0.0
C1200 C 0.96807 0.87811 0.29955 0.0
C1201 C 0.93906 0.87431 0.27687 0.0
H1202 H 0.94626 0.91333 0.32048 0.0
H1203 H 0.98096 0.87371 0.29959 0.0
O1204 O 0.01967 0.93132 0.31474 0.0
O1205 O 0.98035 0.93264 0.3236 0.0
O1206 O 0.99682 0.90648 0.26624 0.0
O1207 O 1.00179 0.90308 0.36696 0.0
H1208 H 0.03585 0.93159 0.39107 0.0
H1209 H 0.0421 0.93237 0.2504 0.0
H1210 H 0.06686 0.93354 0.39925 0.0
H1211 H 0.07301 0.93421 0.26111 0.0
H1212 H 0.94837 0.95381 0.43454 0.0
H1213 H 0.98452 0.96509 0.30574 0.0
H1214 H 0.96026 0.9297 0.39257 0.0
H1215 H 0.97213 0.98858 0.34904 0.0
H1216 H 0.02063 0.97484 0.18089 0.0
H1217 H 0.96977 0.95776 0.15547 0.0
H1218 H 0.99666 0.95118 0.51548 0.0
H1219 H 0.01591 0.98423 0.41385 0.0
H1220 H 0.96902 0.90137 0.21994 0.0
H1221 H 0.02225 0.91129 0.21149 0.0
H1222 H 0.96757 0.90154 0.13844 0.0
H1223 H 0.01985 0.91136 0.13007 0.0
H1224 H 0.01061 0.87103 0.35829 0.0
H1225 H 0.97541 0.90495 0.4198 0.0
H1226 H 0.99576 0.84692 0.39333 0.0
H1227 H 0.96114 0.88026 0.45369 0.0
H1228 H 0.07233 0.87854 0.29742 0.0
H1229 H 0.03062 0.85731 0.22437 0.0
H1230 H 0.92311 0.89602 0.29012 0.0
H1231 H 0.9589 0.85565 0.26881 0.0
Li1232 Li 0.50083 0.92676 0.2748 0.0
Li1233 Li 0.49925 0.93286 0.35218 0.0
Li1234 Li 0.51577 0.90787 0.32845 0.0
Li1235 Li 0.48489 0.90804 0.32595 0.0
C1236 C 0.52711 0.94772 0.31077 0.0
N1237 N 0.54191 0.97913 0.30194 0.0
C1238 C 0.51773 0.96139 0.29521 0.0
C1239 C 0.54406 0.94999 0.32166 0.0
C1240 C 0.52542 0.97717 0.291 0.0
C1241 C 0.55131 0.96598 0.31704 0.0
C1242 C 0.46975 0.94458 0.32462 0.0
C1243 C 0.45181 0.95618 0.38119 0.0
N1244 N 0.44926 0.97015 0.35608 0.0
C1245 C 0.46695 0.9591 0.29942 0.0
C1246 C 0.46211 0.94315 0.36585 0.0
C1247 C 0.45655 0.97186 0.31586 0.0
C1248 C 0.4874 0.94329 0.19949 0.0
N1249 N 0.50198 0.93771 0.21795 0.0
C1250 C 0.51815 0.95314 0.16488 0.0
C1251 C 0.51719 0.94201 0.20059 0.0
C1252 C 0.50332 0.96009 0.14732 0.0
C1253 C 0.48778 0.95474 0.16441 0.0
H1254 H 0.47545 0.93953 0.21348 0.0
H1255 H 0.52865 0.93758 0.21597 0.0
C1256 C 0.50479 0.94514 0.43653 0.0
N1257 N 0.49981 0.95012 0.39581 0.0
C1258 C 0.50519 0.95666 0.47113 0.0
C1259 C 0.49599 0.97845 0.42089 0.0
C1260 C 0.49575 0.96649 0.38728 0.0
C1261 C 0.5006 0.97353 0.46356 0.0
H1262 H 0.50835 0.93216 0.44226 0.0
H1263 H 0.49222 0.97033 0.35456 0.0
C1264 C 0.51056 0.89506 0.24389 0.0
N1265 N 0.52981 0.8831 0.17492 0.0
C1266 C 0.50387 0.88319 0.21473 0.0
C1267 C 0.52706 0.90082 0.23807 0.0
C1268 C 0.5138 0.8773 0.18004 0.0
C1269 C 0.53658 0.89463 0.20298 0.0
C1270 C 0.49337 0.89948 0.40858 0.0
C1271 C 0.4979 0.88242 0.40874 0.0
C1272 C 0.48196 0.90545 0.43999 0.0
C1273 C 0.4907 0.87156 0.4397 0.0
C1274 C 0.47503 0.89419 0.47038 0.0
N1275 N 0.47948 0.87761 0.46957 0.0
C1276 C 0.54589 0.90216 0.37311 0.0
C1277 C 0.53575 0.87778 0.33663 0.0
C1278 C 0.55826 0.89268 0.39449 0.0
N1279 N 0.5348 0.89459 0.34542 0.0
C1280 C 0.54776 0.86773 0.35795 0.0
C1281 C 0.559 0.87508 0.3883 0.0
H1282 H 0.54461 0.91547 0.38026 0.0
H1283 H 0.52651 0.87199 0.31529 0.0
C1284 C 0.45148 0.89801 0.35262 0.0
N1285 N 0.46654 0.89266 0.33647 0.0
C1286 C 0.43999 0.8864 0.37002 0.0
C1287 C 0.45914 0.86388 0.35088 0.0
C1288 C 0.47025 0.87592 0.3339 0.0
C1289 C 0.44397 0.86911 0.37052 0.0
H1290 H 0.44859 0.9113 0.35366 0.0
H1291 H 0.48237 0.87199 0.32122 0.0
O1292 O 0.51985 0.93211 0.31487 0.0
O1293 O 0.47993 0.93189 0.30918 0.0
O1294 O 0.50093 0.90091 0.27794 0.0
O1295 O 0.49995 0.91022 0.37767 0.0
H1296 H 0.50462 0.95985 0.28646 0.0
H1297 H 0.55157 0.93952 0.33337 0.0
H1298 H 0.51827 0.98786 0.27903 0.0
H1299 H 0.56441 0.96792 0.32538 0.0
H1300 H 0.44592 0.95522 0.41317 0.0
H1301 H 0.47291 0.96072 0.26782 0.0
H1302 H 0.46433 0.93221 0.38613 0.0
H1303 H 0.45435 0.98317 0.29673 0.0
H1304 H 0.53038 0.95696 0.1526 0.0
H1305 H 0.47606 0.95963 0.15131 0.0
H1306 H 0.50874 0.95232 0.5036 0.0
H1307 H 0.49267 0.99141 0.4135 0.0
H1308 H 0.49113 0.87859 0.21888 0.0
H1309 H 0.5325 0.90994 0.26036 0.0
H1310 H 0.50879 0.86812 0.15719 0.0
H1311 H 0.54935 0.89899 0.19806 0.0
H1312 H 0.50657 0.87751 0.38462 0.0
H1313 H 0.4785 0.91864 0.44109 0.0
H1314 H 0.49397 0.8583 0.4398 0.0
H1315 H 0.46611 0.89864 0.49465 0.0
H1316 H 0.56681 0.89905 0.41668 0.0
H1317 H 0.54757 0.85423 0.3524 0.0
H1318 H 0.42828 0.89097 0.38384 0.0
H1319 H 0.46282 0.85072 0.35073 0.0
Li1320 Li 0.01803 0.09891 0.82776 0.0
Li1321 Li 0.98704 0.09578 0.83387 0.0
Li1322 Li 0.00538 0.07236 0.85176 0.0
Li1323 Li 0.00227 0.07867 0.77448 0.0
C1324 C 0.01281 0.09724 0.91838 0.0
N1325 N 0.03078 0.10313 0.99472 0.0
C1326 C 0.0072 0.10929 0.94866 0.0
C1327 C 0.0275 0.08813 0.92715 0.0
C1328 C 0.01648 0.11211 0.98699 0.0
C1329 C 0.03642 0.09129 0.96586 0.0
C1330 C 0.99212 0.11697 0.76174 0.0
C1331 C 0.97307 0.12685 0.7056 0.0
N1332 N 0.97467 0.14285 0.72133 0.0
C1333 C 0.99366 0.13352 0.77723 0.0
C1334 C 0.98181 0.11358 0.72557 0.0
C1335 C 0.98469 0.14643 0.7564 0.0
C1336 C 0.0516 0.11422 0.8269 0.0
N1337 N 0.03522 0.11538 0.83952 0.0
C1338 C 0.04169 0.13844 0.88728 0.0
C1339 C 0.03006 0.12774 0.86734 0.0
C1340 C 0.05894 0.13721 0.8769 0.0
C1341 C 0.06368 0.1252 0.84478 0.0
H1342 H 0.05541 0.10446 0.80409 0.0
H1343 H 0.0169 0.12867 0.87605 0.0
C1344 C 0.96544 0.1052 0.89933 0.0
N1345 N 0.9676 0.10768 0.85546 0.0
C1346 C 0.95391 0.11487 0.92297 0.0
C1347 C 0.94586 0.12868 0.85536 0.0
C1348 C 0.95774 0.11877 0.83293 0.0
C1349 C 0.94426 0.12714 0.90124 0.0
H1350 H 0.97319 0.09609 0.91641 0.0
H1351 H 0.9594 0.12041 0.79799 0.0
C1352 C 0.03649 0.06374 0.81031 0.0
N1353 N 0.06245 0.04044 0.8129 0.0
C1354 C 0.03509 0.04841 0.78777 0.0
C1355 C 0.05125 0.06728 0.83365 0.0
C1356 C 0.0483 0.03678 0.78962 0.0
C1357 C 0.06419 0.05533 0.83474 0.0
C1358 C 0.97731 0.05706 0.82953 0.0
C1359 C 0.98226 0.04186 0.8101 0.0
C1360 C 0.96562 0.05692 0.86388 0.0
C1361 C 0.97553 0.0267 0.82569 0.0
C1362 C 0.9592 0.04149 0.87858 0.0
N1363 N 0.96425 0.02682 0.85936 0.0
C1364 C 0.9993 0.05756 0.93322 0.0
C1365 C 0.01323 0.03892 0.88445 0.0
C1366 C 0.99917 0.04532 0.96604 0.0
N1367 N 0.00658 0.05434 0.89365 0.0
C1368 C 0.01334 0.02624 0.91628 0.0
C1369 C 0.00633 0.02943 0.95781 0.0
H1370 H 0.99341 0.06964 0.93925 0.0
H1371 H 0.01802 0.03619 0.85221 0.0
C1372 C 0.01511 0.06279 0.69678 0.0
N1373 N 1.00087 0.06769 0.71808 0.0
C1374 C 0.01434 0.05066 0.66331 0.0
C1375 C 0.98408 0.05033 0.67079 0.0
C1376 C 0.98548 0.06215 0.7048 0.0
C1377 C 0.99869 0.04376 0.65072 0.0
H1378 H 0.02722 0.06731 0.70802 0.0
H1379 H 0.97433 0.06617 0.72236 0.0
O1380 O 0.00401 0.09452 0.88023 0.0
O1381 O 1.00086 0.10419 0.78143 0.0
O1382 O 0.02388 0.07553 0.80772 0.0
O1383 O 0.98412 0.07199 0.81558 0.0
H1384 H 0.99594 0.11658 0.94234 0.0
H1385 H 0.03184 0.07858 0.90458 0.0
H1386 H 0.01234 0.12147 0.01053 0.0
H1387 H 0.0478 0.0843 0.973 0.0
H1388 H 0.96501 0.12442 0.67763 0.0
H1389 H 1.00163 0.13634 0.80512 0.0
H1390 H 0.98055 0.10084 0.71312 0.0
H1391 H 0.9857 0.15929 0.76811 0.0
H1392 H 0.03701 0.14703 0.91203 0.0
H1393 H 0.0766 0.12395 0.83403 0.0
H1394 H 0.95284 0.11305 0.95816 0.0
H1395 H 0.9386 0.13798 0.83738 0.0
H1396 H 0.02371 0.04527 0.77008 0.0
H1397 H 0.05279 0.07916 0.85067 0.0
H1398 H 0.04726 0.0248 0.77271 0.0
H1399 H 0.07563 0.05791 0.85284 0.0
H1400 H 0.99142 0.04174 0.78376 0.0
H1401 H 0.96168 0.06857 0.87931 0.0
H1402 H 0.97934 0.01482 0.81118 0.0
H1403 H 0.95023 0.04116 0.90535 0.0
H1404 H 0.99365 0.04833 0.99764 0.0
H1405 H 0.01857 0.014 0.90819 0.0
H1406 H 0.02603 0.04607 0.64951 0.0
H1407 H 0.97166 0.04598 0.66156 0.0
H1408 H 0.12386 0.66961 0.18569 0.0
H1409 H 0.08276 0.69435 0.11858 0.0
H1410 H 0.06253 0.67776 0.16066 0.0
H1411 H 0.05635 0.65638 0.21697 0.0
H1412 H 0.0972 0.63046 0.28142 0.0
H1413 H 0.11768 0.64723 0.23971 0.0
C1414 C 0.11049 0.67119 0.17968 0.0
C1415 C 0.10491 0.68335 0.14907 0.0
C1416 C 0.09886 0.66148 0.2038 0.0
C1417 C 0.08748 0.68533 0.14236 0.0
C1418 C 0.07586 0.6758 0.16634 0.0
C1419 C 0.06975 0.65454 0.22213 0.0
C1420 C 0.0753 0.6424 0.2526 0.0
C1421 C 0.0814 0.66397 0.19744 0.0
C1422 C 0.09267 0.63982 0.25828 0.0
C1423 C 0.10435 0.64938 0.2344 0.0
H1424 H 0.57534 0.84592 0.3645 0.0
H1425 H 0.56862 0.87992 0.4742 0.0
H1426 H 0.58685 0.86236 0.51935 0.0
H1427 H 0.604 0.83663 0.52913 0.0
H1428 H 0.6091 0.80178 0.42103 0.0
H1429 H 0.59194 0.8201 0.37452 0.0
C1430 C 0.5777 0.84947 0.39837 0.0
C1431 C 0.5706 0.86441 0.41544 0.0
C1432 C 0.58784 0.83902 0.42482 0.0
C1433 C 0.57414 0.86879 0.45943 0.0
C1434 C 0.58446 0.85862 0.48563 0.0
C1435 C 0.60139 0.83312 0.49533 0.0
C1436 C 0.60773 0.81783 0.47866 0.0
C1437 C 0.59132 0.84365 0.46881 0.0
C1438 C 0.60418 0.81338 0.43485 0.0
C1439 C 0.59443 0.82389 0.40815 0.0
H1440 H 0.44561 0.35817 0.69106 0.0
H1441 H 0.40957 0.36882 0.79358 0.0
H1442 H 0.38848 0.35167 0.75549 0.0
H1443 H 0.38073 0.3325 0.69464 0.0
H1444 H 0.41731 0.32124 0.59395 0.0
H1445 H 0.43783 0.33958 0.63012 0.0
C1446 C 0.43321 0.35661 0.70544 0.0
C1447 C 0.42928 0.36466 0.74547 0.0
C1448 C 0.42125 0.34658 0.68367 0.0
C1449 C 0.41295 0.36285 0.76278 0.0
C1450 C 0.4009 0.35298 0.7411 0.0
C1451 C 0.39312 0.33427 0.68033 0.0
C1452 C 0.3975 0.32553 0.64163 0.0
C1453 C 0.40495 0.34468 0.70167 0.0
C1454 C 0.41368 0.32773 0.62384 0.0
C1455 C 0.4254 0.33822 0.64448 0.0
H1456 H 0.90943 0.17887 0.03081 0.0
H1457 H 0.86765 0.17076 0.94269 0.0
H1458 H 0.88455 0.15097 0.89955 0.0
H1459 H 0.91158 0.13635 0.88581 0.0
H1460 H 0.9531 0.1444 0.97482 0.0
H1461 H 0.93603 0.16385 0.01829 0.0
C1462 C 0.90403 0.17277 0.00215 0.0
C1463 C 0.8873 0.17629 0.99005 0.0
C1464 C 0.91382 0.16142 0.97746 0.0
C1465 C 0.88043 0.16812 0.95309 0.0
C1466 C 0.89013 0.15689 0.92817 0.0
C1467 C 0.91686 0.14242 0.91465 0.0
C1468 C 0.93356 0.13891 0.9271 0.0
C1469 C 0.90689 0.15352 0.93986 0.0
C1470 C 0.94021 0.14675 0.9648 0.0
C1471 C 0.93049 0.15792 0.98961 0.0
H1472 H 0.06159 0.36134 0.96527 0.0
H1473 H 0.09771 0.37292 0.86366 0.0
H1474 H 0.11897 0.35591 0.90163 0.0
H1475 H 0.12665 0.33608 0.96127 0.0
H1476 H 0.08993 0.32395 0.06095 0.0
H1477 H 0.06951 0.34269 0.02595 0.0
C1478 C 0.07409 0.36008 0.95121 0.0
C1479 C 0.07796 0.36824 0.91133 0.0
C1480 C 0.08613 0.35011 0.97286 0.0
C1481 C 0.09437 0.36683 0.89433 0.0
C1482 C 0.10652 0.35702 0.91593 0.0
C1483 C 0.11427 0.33778 0.97567 0.0
C1484 C 0.10979 0.3286 0.01359 0.0
C1485 C 0.10247 0.34842 0.95494 0.0
C1486 C 0.09363 0.33076 0.03159 0.0
C1487 C 0.08195 0.34148 0.01161 0.0
H1488 H 0.93311 0.84039 0.27964 0.0
H1489 H 0.91643 0.88617 0.21618 0.0
H1490 H 0.89765 0.86983 0.1689 0.0
H1491 H 0.88726 0.84227 0.14221 0.0
H1492 H 0.90433 0.79662 0.2059 0.0
H1493 H 0.92195 0.81313 0.25528 0.0
C1494 C 0.92537 0.84682 0.25549 0.0
C1495 C 0.92626 0.86451 0.25156 0.0
C1496 C 0.91485 0.83732 0.22777 0.0
C1497 C 0.91588 0.87261 0.22049 0.0
C1498 C 0.90525 0.86324 0.19304 0.0
C1499 C 0.89474 0.83594 0.16709 0.0
C1500 C 0.89465 0.81817 0.16961 0.0
C1501 C 0.90481 0.84555 0.19591 0.0
C1502 C 0.90447 0.81023 0.20218 0.0
C1503 C 0.91445 0.81967 0.23084 0.0
H1504 H 0.4025 0.69769 0.44847 0.0
H1505 H 0.38566 0.65967 0.54037 0.0
H1506 H 0.4022 0.63838 0.50175 0.0
H1507 H 0.42181 0.63059 0.44288 0.0
H1508 H 0.44078 0.66925 0.35559 0.0
H1509 H 0.42285 0.69009 0.39118 0.0
C1510 C 0.40261 0.68482 0.46062 0.0
C1511 C 0.3928 0.68041 0.49757 0.0
C1512 C 0.41244 0.67265 0.4388 0.0
C1513 C 0.39285 0.66349 0.51181 0.0
C1514 C 0.4024 0.65128 0.48985 0.0
C1515 C 0.42224 0.64359 0.43178 0.0
C1516 C 0.43277 0.64818 0.39633 0.0
C1517 C 0.4123 0.65573 0.45341 0.0
C1518 C 0.43267 0.66511 0.38207 0.0
C1519 C 0.42252 0.67716 0.4028 0.0
H1520 H 0.62153 0.17443 0.69428 0.0
H1521 H 0.58369 0.18516 0.59643 0.0
H1522 H 0.56359 0.16717 0.63534 0.0
H1523 H 0.5566 0.14888 0.6976 0.0
H1524 H 0.59395 0.13879 0.79731 0.0
H1525 H 0.61452 0.15575 0.75676 0.0
C1526 C 0.60895 0.17263 0.68121 0.0
C1527 C 0.60411 0.18109 0.64244 0.0
C1528 C 0.59738 0.16243 0.70412 0.0
C1529 C 0.58768 0.17887 0.6263 0.0
C1530 C 0.5762 0.16857 0.64851 0.0
C1531 C 0.56917 0.15054 0.71088 0.0
C1532 C 0.57363 0.14268 0.75082 0.0
C1533 C 0.58085 0.16045 0.68768 0.0
C1534 C 0.59016 0.14461 0.76664 0.0
C1535 C 0.60192 0.15437 0.74353 0.0
H1536 H 0.91865 0.36447 0.90143 0.0
H1537 H 0.96054 0.32976 0.90912 0.0
H1538 H 0.94402 0.3109 0.95508 0.0
H1539 H 0.91821 0.30456 0.99495 0.0
H1540 H 0.87483 0.33705 0.97917 0.0
H1541 H 0.89162 0.35657 0.93577 0.0
C1542 C 0.9241 0.35265 0.9124 0.0
C1543 C 0.94101 0.34881 0.90221 0.0
C1544 C 0.91437 0.34153 0.9382 0.0
C1545 C 0.94777 0.3334 0.91726 0.0
C1546 C 0.93829 0.3225 0.94348 0.0
C1547 C 0.91216 0.31567 0.9815 0.0
C1548 C 0.89511 0.31911 0.99107 0.0
C1549 C 0.92164 0.32652 0.95455 0.0
C1550 C 0.88796 0.33404 0.97385 0.0
C1551 C 0.89752 0.34519 0.94827 0.0
H1552 H 0.44892 0.15741 0.7005 0.0
H1553 H 0.40939 0.13014 0.76736 0.0
H1554 H 0.3883 0.1484 0.73301 0.0
H1555 H 0.38108 0.17197 0.68295 0.0
H1556 H 0.42091 0.19753 0.6128 0.0
H1557 H 0.4418 0.17976 0.64875 0.0
C1558 C 0.43569 0.1552 0.70719 0.0
C1559 C 0.43085 0.14224 0.73637 0.0
C1560 C 0.42362 0.16541 0.68646 0.0
C1561 C 0.4136 0.14008 0.74549 0.0
C1562 C 0.40148 0.15043 0.72549 0.0
C1563 C 0.3943 0.17349 0.67504 0.0
C1564 C 0.39936 0.1862 0.6453 0.0
C1565 C 0.40635 0.16307 0.69565 0.0
C1566 C 0.41662 0.1881 0.63602 0.0
C1567 C 0.4286 0.17788 0.65647 0.0
H1568 H 0.59363 0.63804 0.38355 0.0
H1569 H 0.54776 0.65829 0.43827 0.0
H1570 H 0.56402 0.67681 0.48634 0.0
H1571 H 0.59118 0.68722 0.51312 0.0
H1572 H 0.63717 0.66842 0.45506 0.0
H1573 H 0.62099 0.64904 0.40944 0.0
C1574 C 0.58723 0.64651 0.40605 0.0
C1575 C 0.56951 0.64687 0.40705 0.0
C1576 C 0.59668 0.65725 0.43351 0.0
C1577 C 0.56138 0.65796 0.43628 0.0
C1578 C 0.57067 0.66847 0.46405 0.0
C1579 C 0.59773 0.67904 0.49025 0.0
C1580 C 0.61547 0.67937 0.48802 0.0
C1581 C 0.58833 0.66827 0.46288 0.0
C1582 C 0.6236 0.66831 0.45855 0.0
C1583 C 0.61433 0.6573 0.4319 0.0
H1584 H 0.08934 0.80634 0.15831 0.0
H1585 H 0.13072 0.8418 0.15853 0.0
H1586 H 0.11309 0.86249 0.19611 0.0
H1587 H 0.08595 0.8704 0.23027 0.0
H1588 H 0.04623 0.83318 0.23752 0.0
H1589 H 0.06346 0.81323 0.19692 0.0
C1590 C 0.09477 0.81842 0.16719 0.0
C1591 C 0.11151 0.82229 0.15542 0.0
C1592 C 0.08484 0.83002 0.19054 0.0
C1593 C 0.11785 0.83839 0.16621 0.0
C1594 C 0.10782 0.85023 0.18829 0.0
C1595 C 0.08113 0.85785 0.22362 0.0
C1596 C 0.0646 0.85353 0.23651 0.0
C1597 C 0.09131 0.84614 0.20094 0.0
C1598 C 0.05865 0.83716 0.22711 0.0
C1599 C 0.06855 0.82564 0.20403 0.0
H1600 H 0.94881 0.65301 0.19549 0.0
H1601 H 0.90843 0.63241 0.27376 0.0
H1602 H 0.88797 0.64939 0.23286 0.0
H1603 H 0.88171 0.67095 0.17667 0.0
H1604 H 0.92219 0.69129 0.09816 0.0
H1605 H 0.94244 0.67368 0.13756 0.0
C1606 C 0.93554 0.65235 0.20383 0.0
C1607 C 0.93017 0.64159 0.23795 0.0
C1608 C 0.92386 0.6621 0.1801 0.0
C1609 C 0.91289 0.64057 0.24763 0.0
C1610 C 0.90119 0.6503 0.22431 0.0
C1611 C 0.89492 0.67132 0.16765 0.0
C1612 C 0.90039 0.68249 0.1345 0.0
C1613 C 0.90653 0.66117 0.19058 0.0
C1614 C 0.91763 0.68297 0.12381 0.0
C1615 C 0.92922 0.67288 0.14629 0.0
H1616 H 0.0544 0.16801 0.91792 0.0
H1617 H 0.09286 0.13064 0.89129 0.0
H1618 H 0.11315 0.14741 0.93199 0.0
H1619 H 0.12004 0.17248 0.97638 0.0
H1620 H 0.07994 0.20651 0.0141 0.0
H1621 H 0.06026 0.19078 0.969 0.0
C1622 C 0.06702 0.16307 0.9216 0.0
C1623 C 0.07175 0.14781 0.90088 0.0
C1624 C 0.07849 0.17221 0.94751 0.0
C1625 C 0.08861 0.14241 0.90542 0.0
C1626 C 0.1003 0.15192 0.92945 0.0
C1627 C 0.10695 0.17634 0.9757 0.0
C1628 C 0.10177 0.19105 0.99828 0.0
C1629 C 0.09535 0.16679 0.95094 0.0
C1630 C 0.08465 0.19571 0.99611 0.0
C1631 C 0.07325 0.18661 0.97049 0.0
H1632 H 0.60721 0.31215 0.70512 0.0
H1633 H 0.6124 0.34262 0.58839 0.0
H1634 H 0.59507 0.36476 0.62176 0.0
H1635 H 0.57735 0.37482 0.68277 0.0
H1636 H 0.57239 0.34453 0.79992 0.0
H1637 H 0.59095 0.32307 0.76813 0.0
C1638 C 0.6045 0.32365 0.68704 0.0
C1639 C 0.61088 0.32569 0.64416 0.0
C1640 C 0.59466 0.33636 0.7066 0.0
C1641 C 0.60761 0.34077 0.62139 0.0
C1642 C 0.59768 0.3534 0.64043 0.0
C1643 C 0.58041 0.36355 0.7014 0.0
C1644 C 0.57341 0.36121 0.74353 0.0
C1645 C 0.59099 0.35124 0.68281 0.0
C1646 C 0.5777 0.34668 0.76759 0.0
C1647 C 0.58819 0.33435 0.74926 0.0
H1648 H 0.40124 0.80817 0.44618 0.0
H1649 H 0.39302 0.84391 0.55104 0.0
H1650 H 0.40996 0.86493 0.51201 0.0
H1651 H 0.42761 0.87294 0.4488 0.0
H1652 H 0.4355 0.8372 0.34363 0.0
H1653 H 0.41843 0.81632 0.38247 0.0
C1654 C 0.4033 0.8205 0.46074 0.0
C1655 C 0.39596 0.82441 0.50167 0.0
C1656 C 0.41301 0.83252 0.43807 0.0
C1657 C 0.39845 0.84059 0.51954 0.0
C1658 C 0.40818 0.8526 0.49728 0.0
C1659 C 0.42541 0.86067 0.43403 0.0
C1660 C 0.43285 0.85669 0.39323 0.0
C1661 C 0.41552 0.84871 0.45652 0.0
C1662 C 0.4301 0.84058 0.37512 0.0
C1663 C 0.42028 0.82863 0.39726 0.0
H1664 H 0.98653 0.50937 0.14768 0.0
H1665 H 0.03072 0.53538 0.10017 0.0
H1666 H 0.03164 0.51691 0.03597 0.0
H1667 H 0.01951 0.49385 0.99262 0.0
H1668 H 0.97609 0.46701 0.04187 0.0
H1669 H 0.97526 0.48539 0.10618 0.0
C1670 C 0.99651 0.51084 0.12363 0.0
C1671 C 0.00849 0.52377 0.12863 0.0
C1672 C 0.99704 0.50013 0.08699 0.0
C1673 C 0.02119 0.52569 0.09676 0.0
C1674 C 0.02177 0.51509 0.06016 0.0
C1675 C 0.00999 0.49187 0.01767 0.0
C1676 C 0.99783 0.47914 0.01226 0.0
C1677 C 0.0097 0.50234 0.05482 0.0
C1678 C 0.98542 0.47692 0.04478 0.0
C1679 C 0.985 0.48734 0.08174 0.0
H1680 H 0.78569 0.7615 0.30222 0.0
H1681 H 0.75322 0.73304 0.21569 0.0
H1682 H 0.73095 0.73346 0.27095 0.0
H1683 H 0.72085 0.74154 0.34422 0.0
H1684 H 0.75364 0.76895 0.43187 0.0
H1685 H 0.77584 0.76901 0.37603 0.0
C1686 C 0.77382 0.75519 0.29563 0.0
C1687 C 0.77113 0.74727 0.25485 0.0
C1688 C 0.76117 0.75526 0.32775 0.0
C1689 C 0.75555 0.73944 0.24656 0.0
C1690 C 0.74284 0.73958 0.27822 0.0
C1691 C 0.73283 0.74762 0.35087 0.0
C1692 C 0.73566 0.75528 0.39183 0.0
C1693 C 0.74552 0.74747 0.31887 0.0
C1694 C 0.75128 0.7629 0.40053 0.0
C1695 C 0.76392 0.76297 0.36864 0.0
H1696 H 0.50857 0.53783 0.54733 0.0
H1697 H 0.48135 0.50366 0.46269 0.0
H1698 H 0.47953 0.48304 0.52232 0.0
H1699 H 0.48629 0.47452 0.59792 0.0
H1700 H 0.51335 0.50882 0.68253 0.0
H1701 H 0.51453 0.52971 0.62345 0.0
C1702 C 0.50206 0.52596 0.54212 0.0
C1703 C 0.49511 0.52226 0.50074 0.0
C1704 C 0.50106 0.5142 0.57644 0.0
C1705 C 0.48696 0.50671 0.49417 0.0
C1706 C 0.48585 0.49496 0.52826 0.0
C1707 C 0.49223 0.48666 0.60355 0.0
C1708 C 0.49972 0.49016 0.64442 0.0
C1709 C 0.49292 0.49855 0.56945 0.0
C1710 C 0.50765 0.50581 0.65114 0.0
C1711 C 0.50828 0.51776 0.61748 0.0
H1712 H 0.77995 0.23962 0.84927 0.0
H1713 H 0.75046 0.27389 0.92835 0.0
H1714 H 0.72871 0.27465 0.87149 0.0
H1715 H 0.71839 0.26597 0.79885 0.0
H1716 H 0.74807 0.23187 0.71975 0.0
H1717 H 0.76975 0.23106 0.77671 0.0
C1718 C 0.76885 0.2474 0.85388 0.0
C1719 C 0.76684 0.25673 0.89286 0.0
C1720 C 0.75653 0.24791 0.82099 0.0
C1721 C 0.75222 0.26646 0.89879 0.0
C1722 C 0.73984 0.26699 0.86621 0.0
C1723 C 0.72956 0.25826 0.79426 0.0
C1724 C 0.73165 0.24899 0.75522 0.0
C1725 C 0.74189 0.25778 0.82719 0.0
C1726 C 0.74628 0.23927 0.74934 0.0
C1727 C 0.75861 0.23872 0.78197 0.0
H1728 H 0.22014 0.26335 0.84804 0.0
H1729 H 0.25304 0.23701 0.93789 0.0
H1730 H 0.27509 0.23623 0.88195 0.0
H1731 H 0.28486 0.24274 0.80727 0.0
H1732 H 0.25171 0.26846 0.717 0.0
H1733 H 0.22967 0.26934 0.77309 0.0
C1734 C 0.23205 0.25725 0.85526 0.0
C1735 C 0.23493 0.25026 0.8971 0.0
C1736 C 0.24456 0.25665 0.82282 0.0
C1737 C 0.25058 0.2427 0.90615 0.0
C1738 C 0.26315 0.24214 0.8741 0.0
C1739 C 0.27284 0.24862 0.80004 0.0
C1740 C 0.26989 0.25555 0.7582 0.0
C1741 C 0.26027 0.24909 0.83237 0.0
C1742 C 0.25418 0.2629 0.7489 0.0
C1743 C 0.24164 0.26349 0.78098 0.0
H1744 H 0.28705 0.74862 0.34492 0.0
H1745 H 0.24879 0.76092 0.44059 0.0
H1746 H 0.22718 0.75945 0.38359 0.0
H1747 H 0.21924 0.75501 0.30652 0.0
H1748 H 0.25752 0.74335 0.21056 0.0
H1749 H 0.27917 0.74465 0.26769 0.0
C1750 C 0.27401 0.75119 0.35323 0.0
C1751 C 0.26954 0.75487 0.39694 0.0
C1752 C 0.2617 0.7505 0.32027 0.0
C1753 C 0.25254 0.75784 0.4073 0.0
C1754 C 0.2402 0.7571 0.3747 0.0
C1755 C 0.23231 0.75262 0.29824 0.0
C1756 C 0.23681 0.74903 0.25454 0.0
C1757 C 0.24464 0.75342 0.33113 0.0
C1758 C 0.25381 0.74626 0.24399 0.0
C1759 C 0.26616 0.74693 0.27662 0.0
H1760 H 0.52376 0.9772 0.52869 0.0
H1761 H 0.47675 0.99744 0.48055 0.0
H1762 H 0.47578 0.01723 0.54198 0.0
H1763 H 0.48792 0.02833 0.60997 0.0
H1764 H 0.53439 0.00757 0.65986 0.0
H1765 H 0.53595 0.98837 0.59698 0.0
C1766 C 0.51325 0.98586 0.53184 0.0
C1767 C 0.50034 0.98584 0.50018 0.0
C1768 C 0.51266 0.99707 0.56748 0.0
C1769 C 0.48695 0.99735 0.50421 0.0
C1770 C 0.48632 0.00858 0.53946 0.0
C1771 C 0.4983 0.01948 0.60731 0.0
C1772 C 0.51095 0.01925 0.63962 0.0
C1773 C 0.49904 0.00846 0.57139 0.0
C1774 C 0.52455 0.00802 0.63523 0.0
C1775 C 0.5254 0.99701 0.59944 0.0
H1776 H 0.98104 0.02142 0.01416 0.0
H1777 H 0.03199 0.00797 0.97905 0.0
H1778 H 0.03267 0.98711 0.03815 0.0
H1779 H 0.01918 0.97347 0.10126 0.0
H1780 H 0.96875 0.98792 0.13867 0.0
H1781 H 0.96748 0.00765 0.07703 0.0
C1782 C 0.99234 0.01401 0.01965 0.0
C1783 C 0.00647 0.0163 0.99246 0.0
C1784 C 0.99274 1.00225 0.05404 0.0
C1785 C 0.02089 0.00634 0.9993 0.0
C1786 C 0.02133 0.9945 0.03325 0.0
C1787 C 0.00796 0.98103 0.09611 0.0
C1788 C 0.99412 0.97931 0.1246 0.0
C1789 C 0.0074 0.99248 0.06106 0.0
C1790 C 0.97952 0.98891 0.11696 0.0
C1791 C 0.97882 1.00026 0.08191 0.0
H1792 H 0.9869 0.48872 0.64289 0.0
H1793 H 0.0274 0.46099 0.58162 0.0
H1794 H 0.02999 0.48282 0.52538 0.0
H1795 H 0.02087 0.50979 0.49342 0.0
H1796 H 0.97963 0.53705 0.55277 0.0
H1797 H 0.97741 0.51555 0.60997 0.0
C1798 C 0.99617 0.48733 0.61695 0.0
C1799 C 0.00693 0.47314 0.61669 0.0
C1800 C 0.99758 0.49996 0.58445 0.0
C1801 C 0.01906 0.4718 0.58312 0.0
C1802 C 0.02052 0.48428 0.55076 0.0
C1803 C 0.01127 0.511 0.51856 0.0
C1804 C 1.00044 0.52514 0.51845 0.0
C1805 C 0.00987 0.49842 0.5511 0.0
C1806 C 0.98833 0.52653 0.5521 0.0
C1807 C 0.98694 0.51412 0.58473 0.0
H1808 H 0.78314 0.76665 0.84081 0.0
H1809 H 0.75617 0.73275 0.92673 0.0
H1810 H 0.73269 0.73184 0.87509 0.0
H1811 H 0.71972 0.74043 0.8049 0.0
H1812 H 0.74679 0.77411 0.71865 0.0
H1813 H 0.7702 0.77519 0.77057 0.0
C1814 C 0.7722 0.75894 0.84806 0.0
C1815 C 0.77147 0.74986 0.88786 0.0
C1816 C 0.75866 0.75843 0.81806 0.0
C1817 C 0.75704 0.74009 0.89676 0.0
C1818 C 0.74358 0.73949 0.86712 0.0
C1819 C 0.73067 0.74814 0.79769 0.0
C1820 C 0.73145 0.75712 0.75778 0.0
C1821 C 0.7442 0.74867 0.82771 0.0
C1822 C 0.74588 0.76689 0.74882 0.0
C1823 C 0.75929 0.76756 0.77858 0.0
H1824 H 0.48718 0.51537 0.14036 0.0
H1825 H 0.52763 0.54332 0.07924 0.0
H1826 H 0.5311 0.52098 0.02495 0.0
H1827 H 0.52281 0.49357 0.99467 0.0
H1828 H 0.48058 0.46684 0.05118 0.0
H1829 H 0.4779 0.48854 0.10754 0.0
C1830 C 0.49659 0.51678 0.11481 0.0
C1831 C 0.50715 0.53115 0.11438 0.0
C1832 C 0.49835 0.50398 0.08295 0.0
C1833 C 0.51948 0.53239 0.08124 0.0
C1834 C 0.52143 0.51962 0.04987 0.0
C1835 C 0.51282 0.4925 0.01879 0.0
C1836 C 0.50194 0.47839 0.01819 0.0
C1837 C 0.51096 0.50535 0.05043 0.0
C1838 C 0.48941 0.47726 0.05086 0.0
C1839 C 0.48772 0.48981 0.083 0.0
H1840 H 0.75753 0.26594 0.2427 0.0
H1841 H 0.79096 0.23212 0.31201 0.0
H1842 H 0.77077 0.23005 0.37215 0.0
H1843 H 0.7433 0.23727 0.40472 0.0
H1844 H 0.70953 0.27035 0.33444 0.0
H1845 H 0.72991 0.27275 0.27458 0.0
C1846 C 0.76039 0.25795 0.27066 0.0
C1847 C 0.77591 0.24925 0.27247 0.0
C1848 C 0.74854 0.25652 0.30495 0.0
C1849 C 0.77936 0.23924 0.30969 0.0
C1850 C 0.76771 0.23791 0.34408 0.0
C1851 C 0.74043 0.24509 0.37644 0.0
C1852 C 0.72484 0.25361 0.37426 0.0
C1853 C 0.75224 0.24646 0.34205 0.0
C1854 C 0.72129 0.26348 0.33691 0.0
C1855 C 0.73301 0.26496 0.30273 0.0
H1856 H 0.26308 0.23353 0.39841 0.0
H1857 H 0.28867 0.27785 0.34934 0.0
H1858 H 0.26797 0.28044 0.29066 0.0
H1859 H 0.24218 0.27061 0.25383 0.0
H1860 H 0.21592 0.22705 0.30447 0.0
H1861 H 0.23693 0.22412 0.36274 0.0
C1862 C 0.2641 0.2439 0.37528 0.0
C1863 C 0.27763 0.25541 0.3786 0.0
C1864 C 0.25186 0.24559 0.342 0.0
C1865 C 0.27872 0.26854 0.34746 0.0
C1866 C 0.26674 0.27016 0.31398 0.0
C1867 C 0.24109 0.26042 0.27748 0.0
C1868 C 0.22745 0.24907 0.27462 0.0
C1869 C 0.25324 0.25879 0.31096 0.0
C1870 C 0.22614 0.2361 0.30607 0.0
C1871 C 0.23823 0.23434 0.33926 0.0
H1872 H 0.25681 0.75728 0.73638 0.0
H1873 H 0.29655 0.74427 0.82721 0.0
H1874 H 0.27631 0.74367 0.88751 0.0
H1875 H 0.24729 0.7465 0.91468 0.0
H1876 H 0.20743 0.7591 0.82397 0.0
H1877 H 0.22767 0.75967 0.7634 0.0
C1878 C 0.26107 0.75413 0.76924 0.0
C1879 C 0.27831 0.75088 0.77695 0.0
C1880 C 0.24929 0.7536 0.80389 0.0
C1881 C 0.28349 0.74711 0.82012 0.0
C1882 C 0.27187 0.74664 0.8547 0.0
C1883 C 0.24302 0.74951 0.88174 0.0
C1884 C 0.2258 0.75281 0.8741 0.0
C1885 C 0.25475 0.74989 0.84702 0.0
C1886 C 0.22052 0.75634 0.83091 0.0
C1887 C 0.23213 0.75677 0.79623 0.0
H1888 H 0.48878 0.99118 0.14853 0.0
H1889 H 0.51997 0.95878 0.06895 0.0
H1890 H 0.52149 0.9806 0.01192 0.0
H1891 H 0.51373 0.00885 0.98441 0.0
H1892 H 0.48367 0.04182 0.06543 0.0
H1893 H 0.48205 0.01997 0.12234 0.0
C1894 C 0.49582 0.98891 0.11855 0.0
C1895 C 0.50411 0.97333 0.11268 0.0
C1896 C 0.49692 1.00166 0.08634 0.0
C1897 C 0.51347 0.97065 0.07412 0.0
C1898 C 0.51433 0.98311 0.04154 0.0
C1899 C 0.50682 0.01123 0.01455 0.0
C1900 C 0.49874 0.02691 0.02059 0.0
C1901 C 0.50608 0.99866 0.04725 0.0
C1902 C 0.49006 0.02991 0.06009 0.0
C1903 C 0.48906 0.01738 0.09251 0.0
H1904 H 0.01966 0.03606 0.58123 0.0
H1905 H 0.97557 0.01778 0.64973 0.0
H1906 H 0.974 0.99379 0.60017 0.0
H1907 H 0.98511 0.97763 0.53742 0.0
H1908 H 0.03086 0.9944 0.47416 0.0
H1909 H 0.03185 0.01898 0.52209 0.0
C1910 C 0.00979 0.02679 0.58594 0.0
C1911 C 0.99767 0.02911 0.61934 0.0
C1912 C 0.00924 0.01255 0.55817 0.0
C1913 C 0.98487 0.01686 0.62383 0.0
C1914 C 0.98405 0.00289 0.59572 0.0
C1915 C 0.99546 0.98649 0.53444 0.0
C1916 C 0.00776 0.98411 0.50155 0.0
C1917 C 0.99618 1.00056 0.56281 0.0
C1918 C 0.02094 0.99597 0.49824 0.0
C1919 C 0.0216 0.01006 0.52591 0.0
loop_
_geom_bond_atom_site_label_1
_geom_bond_atom_site_label_2
_geom_bond_distance
_geom_bond_site_symmetry_2
_ccdc_geom_bond_type
Li0 N17 1.990 . S
Li0 O60 1.919 1_655 S
Li0 O61 1.995 . S
Li0 O62 1.961 . S
Li1 N25 1.990 . S
Li1 O60 2.005 . S
Li1 O61 1.930 1_455 S
Li1 O63 1.961 . S
Li2 N47 1.993 . S
Li2 O60 1.958 1_655 S
Li2 O62 1.987 . S
Li2 O63 1.938 1_655 S
Li3 N53 1.994 . S
Li3 O61 1.958 1_455 S
Li3 O62 1.926 1_455 S
Li3 O63 1.998 . S
C4 C6 1.348 . S
C4 C7 1.356 1_455 S
C4 O60 1.324 . S
N5 C8 1.314 1_655 S
N5 C9 1.279 . S
C6 C4 1.348 . S
C6 C8 1.353 . S
C6 H64 0.929 . S
C7 C4 1.356 1_655 S
C7 C9 1.358 . S
C7 H65 0.930 . S
C8 N5 1.314 1_455 S
C8 C6 1.353 . S
C8 H66 0.930 . S
C9 N5 1.279 . S
C9 C7 1.358 . S
C9 H67 0.930 . S
C10 C13 1.348 1_455 S
C10 C14 1.356 . S
C10 O61 1.324 1_455 S
C11 N12 1.279 . S
C11 C14 1.358 . S
C11 H68 0.930 . S
N12 C11 1.279 . S
N12 C15 1.314 1_455 S
C13 C10 1.348 1_655 S
C13 C15 1.353 . S
C13 H69 0.929 . S
C14 C10 1.356 . S
C14 C11 1.358 . S
C14 H70 0.930 . S
C15 N12 1.314 1_655 S
C15 C13 1.353 . S
C15 H71 0.930 . S
C16 N17 1.314 . S
C16 C21 1.353 . S
C16 H22 0.930 . S
N17 Li0 1.990 . S
N17 C16 1.314 . S
N17 C19 1.279 . S
C18 C19 1.358 . S
C18 C20 1.356 . S
C18 H72 0.930 . S
C19 N17 1.279 . S
C19 C18 1.358 . S
C19 H23 0.930 . S
C20 C18 1.356 . S
C20 C21 1.348 . S
C21 C16 1.353 . S
C21 C20 1.348 . S
C21 H73 0.929 . S
H22 C16 0.930 . S
H23 C19 0.930 . S
C24 N25 1.314 . S
C24 C26 1.353 . S
C24 H30 0.930 . S
N25 Li1 1.990 . S
N25 C24 1.314 . S
N25 C28 1.279 . S
C26 C24 1.353 . S
C26 C29 1.348 . S
C26 H74 0.929 . S
C27 C28 1.358 . S
C27 C29 1.356 . S
C27 H75 0.930 . S
C28 N25 1.279 . S
C28 C27 1.358 . S
C28 H31 0.930 . S
C29 C26 1.348 . S
C29 C27 1.356 . S
H30 C24 0.930 . S
H31 C28 0.930 . S
C32 C34 1.348 . S
C32 C35 1.356 . S
C32 O62 1.325 . S
N33 C36 1.314 . S
N33 C37 1.279 . S
C34 C32 1.348 . S
C34 C36 1.353 . S
C34 H76 0.929 . S
C35 C32 1.356 . S
C35 C37 1.358 . S
C35 H77 0.930 . S
C36 N33 1.314 . S
C36 C34 1.353 . S
C36 H78 0.930 . S
C37 N33 1.279 . S
C37 C35 1.358 . S
C37 H79 0.930 . S
C38 C39 1.348 . S
C38 C40 1.356 . S
C38 O63 1.325 . S
C39 C38 1.348 . S
C39 C41 1.353 . S
C39 H80 0.929 . S
C40 C38 1.356 . S
C40 C42 1.358 . S
C40 H81 0.930 . S
C41 C39 1.353 . S
C41 N43 1.314 . S
C41 H82 0.930 . S
C42 C40 1.358 . S
C42 N43 1.279 . S
C42 H83 0.930 . S
N43 C41 1.314 . S
N43 C42 1.279 . S
C44 C46 1.353 . S
C44 N47 1.314 1_455 S
C44 H50 0.930 . S
C45 N47 1.279 . S
C45 C48 1.358 . S
C45 H51 0.930 . S
C46 C44 1.353 . S
C46 C49 1.348 . S
C46 H84 0.929 . S
N47 Li2 1.993 . S
N47 C44 1.314 1_655 S
N47 C45 1.279 . S
C48 C45 1.358 . S
C48 C49 1.356 1_655 S
C48 H85 0.930 . S
C49 C46 1.348 . S
C49 C48 1.356 1_455 S
H50 C44 0.930 . S
H51 C45 0.930 . S
C52 N53 1.314 1_655 S
C52 C54 1.353 . S
C52 H58 0.930 . S
N53 Li3 1.994 . S
N53 C52 1.314 1_455 S
N53 C56 1.279 . S
C54 C52 1.353 . S
C54 C57 1.348 1_655 S
C54 H86 0.929 . S
C55 C56 1.358 . S
C55 C57 1.356 . S
C55 H87 0.930 . S
C56 N53 1.279 . S
C56 C55 1.358 . S
C56 H59 0.930 . S
C57 C54 1.348 1_455 S
C57 C55 1.356 . S
H58 C52 0.930 . S
H59 C56 0.930 . S
O60 Li0 1.919 1_455 S
O60 Li1 2.005 . S
O60 Li2 1.958 1_455 S
O60 C4 1.324 . S
O61 Li0 1.995 . S
O61 Li1 1.930 1_655 S
O61 Li3 1.958 1_655 S
O61 C10 1.324 1_655 S
O62 Li0 1.961 . S
O62 Li2 1.987 . S
O62 Li3 1.926 1_655 S
O62 C32 1.325 . S
O63 Li1 1.961 . S
O63 Li2 1.938 1_455 S
O63 Li3 1.998 . S
O63 C38 1.325 . S
H64 C6 0.929 . S
H65 C7 0.930 . S
H66 C8 0.930 . S
H67 C9 0.930 . S
H68 C11 0.930 . S
H69 C13 0.929 . S
H70 C14 0.930 . S
H71 C15 0.930 . S
H72 C18 0.930 . S
H73 C21 0.929 . S
H74 C26 0.929 . S
H75 C27 0.930 . S
H76 C34 0.929 . S
H77 C35 0.930 . S
H78 C36 0.930 . S
H79 C37 0.930 . S
H80 C39 0.929 . S
H81 C40 0.930 . S
H82 C41 0.930 . S
H83 C42 0.930 . S
H84 C46 0.929 . S
H85 C48 0.930 . S
H86 C54 0.929 . S
H87 C55 0.930 . S
Li88 N105 1.990 . S
Li88 O148 1.956 . S
Li88 O149 1.970 . S
Li88 O150 1.961 . S
Li89 N113 1.990 . S
Li89 O148 1.970 . S
Li89 O149 1.956 . S
Li89 O151 1.961 . S
Li90 N135 1.990 . S
Li90 O148 1.961 . S
Li90 O150 1.956 . S
Li90 O151 1.970 . S
Li91 N141 1.990 . S
Li91 O149 1.961 . S
Li91 O150 1.970 . S
Li91 O151 1.956 . S
C92 C94 1.348 . S
C92 C95 1.356 . S
C92 O148 1.325 . S
N93 C96 1.314 . S
N93 C97 1.279 . S
C94 C92 1.348 . S
C94 C96 1.353 . S
C94 H152 0.929 . S
C95 C92 1.356 . S
C95 C97 1.358 . S
C95 H153 0.930 . S
C96 N93 1.314 . S
C96 C94 1.353 . S
C96 H154 0.930 . S
C97 N93 1.279 . S
C97 C95 1.358 . S
C97 H155 0.930 . S
C98 C101 1.348 . S
C98 C102 1.356 . S
C98 O149 1.325 . S
C99 N100 1.279 . S
C99 C102 1.358 . S
C99 H156 0.930 . S
N100 C99 1.279 . S
N100 C103 1.314 . S
C101 C98 1.348 . S
C101 C103 1.353 . S
C101 H157 0.929 . S
C102 C98 1.356 . S
C102 C99 1.358 . S
C102 H158 0.930 . S
C103 N100 1.314 . S
C103 C101 1.353 . S
C103 H159 0.930 . S
C104 N105 1.314 . S
C104 C109 1.353 . S
C104 H110 0.930 . S
N105 Li88 1.990 . S
N105 C104 1.314 . S
N105 C107 1.279 . S
C106 C107 1.358 . S
C106 C108 1.356 . S
C106 H160 0.930 . S
C107 N105 1.279 . S
C107 C106 1.358 . S
C107 H111 0.930 . S
C108 C106 1.356 . S
C108 C109 1.348 . S
C109 C104 1.353 . S
C109 C108 1.348 . S
C109 H161 0.929 . S
H110 C104 0.930 . S
H111 C107 0.930 . S
C112 N113 1.314 . S
C112 C114 1.353 . S
C112 H118 0.930 . S
N113 Li89 1.990 . S
N113 C112 1.314 . S
N113 C116 1.279 . S
C114 C112 1.353 . S
C114 C117 1.348 . S
C114 H162 0.929 . S
C115 C116 1.358 . S
C115 C117 1.356 . S
C115 H163 0.930 . S
C116 N113 1.279 . S
C116 C115 1.358 . S
C116 H119 0.930 . S
C117 C114 1.348 . S
C117 C115 1.356 . S
H118 C112 0.930 . S
H119 C116 0.930 . S
C120 C122 1.348 . S
C120 C123 1.356 . S
C120 O150 1.325 . S
N121 C124 1.314 . S
N121 C125 1.279 . S
C122 C120 1.348 . S
C122 C124 1.353 . S
C122 H164 0.929 . S
C123 C120 1.356 . S
C123 C125 1.358 . S
C123 H165 0.930 . S
C124 N121 1.314 . S
C124 C122 1.353 . S
C124 H166 0.930 . S
C125 N121 1.279 . S
C125 C123 1.358 . S
C125 H167 0.930 . S
C126 C127 1.348 . S
C126 C128 1.356 . S
C126 O151 1.325 . S
C127 C126 1.348 . S
C127 C129 1.353 . S
C127 H168 0.929 . S
C128 C126 1.356 . S
C128 C130 1.358 . S
C128 H169 0.930 . S
C129 C127 1.353 . S
C129 N131 1.314 . S
C129 H170 0.930 . S
C130 C128 1.358 . S
C130 N131 1.279 . S
C130 H171 0.930 . S
N131 C129 1.314 . S
N131 C130 1.279 . S
C132 C134 1.353 . S
C132 N135 1.314 . S
C132 H138 0.930 . S
C133 N135 1.279 . S
C133 C136 1.358 . S
C133 H139 0.930 . S
C134 C132 1.353 . S
C134 C137 1.348 . S
C134 H172 0.929 . S
N135 Li90 1.990 . S
N135 C132 1.314 . S
N135 C133 1.279 . S
C136 C133 1.358 . S
C136 C137 1.356 . S
C136 H173 0.930 . S
C137 C134 1.348 . S
C137 C136 1.356 . S
H138 C132 0.930 . S
H139 C133 0.930 . S
C140 N141 1.314 . S
C140 C142 1.353 . S
C140 H146 0.930 . S
N141 Li91 1.990 . S
N141 C140 1.314 . S
N141 C144 1.279 . S
C142 C140 1.353 . S
C142 C145 1.348 . S
C142 H174 0.929 . S
C143 C144 1.358 . S
C143 C145 1.356 . S
C143 H175 0.930 . S
C144 N141 1.279 . S
C144 C143 1.358 . S
C144 H147 0.930 . S
C145 C142 1.348 . S
C145 C143 1.356 . S
H146 C140 0.930 . S
H147 C144 0.930 . S
O148 Li88 1.956 . S
O148 Li89 1.970 . S
O148 Li90 1.961 . S
O148 C92 1.325 . S
O149 Li88 1.970 . S
O149 Li89 1.956 . S
O149 Li91 1.961 . S
O149 C98 1.325 . S
O150 Li88 1.961 . S
O150 Li90 1.956 . S
O150 Li91 1.970 . S
O150 C120 1.325 . S
O151 Li89 1.961 . S
O151 Li90 1.970 . S
O151 Li91 1.956 . S
O151 C126 1.325 . S
H152 C94 0.929 . S
H153 C95 0.930 . S
H154 C96 0.930 . S
H155 C97 0.930 . S
H156 C99 0.930 . S
H157 C101 0.929 . S
H158 C102 0.930 . S
H159 C103 0.930 . S
H160 C106 0.930 . S
H161 C109 0.929 . S
H162 C114 0.929 . S
H163 C115 0.930 . S
H164 C122 0.929 . S
H165 C123 0.930 . S
H166 C124 0.930 . S
H167 C125 0.930 . S
H168 C127 0.929 . S
H169 C128 0.930 . S
H170 C129 0.930 . S
H171 C130 0.930 . S
H172 C134 0.929 . S
H173 C136 0.930 . S
H174 C142 0.929 . S
H175 C143 0.930 . S
Li176 N193 1.990 . S
Li176 O236 1.956 . S
Li176 O237 1.970 . S
Li176 O238 1.961 . S
Li177 N201 1.990 . S
Li177 O236 1.970 . S
Li177 O237 1.956 . S
Li177 O239 1.961 . S
Li178 N223 1.990 . S
Li178 O236 1.961 . S
Li178 O238 1.956 . S
Li178 O239 1.970 . S
Li179 N229 1.990 . S
Li179 O237 1.961 . S
Li179 O238 1.970 . S
Li179 O239 1.956 . S
C180 C182 1.348 . S
C180 C183 1.356 . S
C180 O236 1.325 . S
N181 C184 1.314 . S
N181 C185 1.279 . S
C182 C180 1.348 . S
C182 C184 1.353 . S
C182 H240 0.929 . S
C183 C180 1.356 . S
C183 C185 1.358 . S
C183 H241 0.930 . S
C184 N181 1.314 . S
C184 C182 1.353 . S
C184 H242 0.930 . S
C185 N181 1.279 . S
C185 C183 1.358 . S
C185 H243 0.930 . S
C186 C189 1.348 . S
C186 C190 1.356 . S
C186 O237 1.325 . S
C187 N188 1.279 . S
C187 C190 1.358 . S
C187 H244 0.930 . S
N188 C187 1.279 . S
N188 C191 1.314 . S
C189 C186 1.348 . S
C189 C191 1.353 . S
C189 H245 0.929 . S
C190 C186 1.356 . S
C190 C187 1.358 . S
C190 H246 0.930 . S
C191 N188 1.314 . S
C191 C189 1.353 . S
C191 H247 0.930 . S
C192 N193 1.314 . S
C192 C197 1.353 . S
C192 H198 0.930 . S
N193 Li176 1.990 . S
N193 C192 1.314 . S
N193 C195 1.279 . S
C194 C195 1.358 . S
C194 C196 1.356 . S
C194 H248 0.930 . S
C195 N193 1.279 . S
C195 C194 1.358 . S
C195 H199 0.930 . S
C196 C194 1.356 . S
C196 C197 1.348 . S
C197 C192 1.353 . S
C197 C196 1.348 . S
C197 H249 0.929 . S
H198 C192 0.930 . S
H199 C195 0.930 . S
C200 N201 1.314 . S
C200 C202 1.353 . S
C200 H206 0.930 . S
N201 Li177 1.990 . S
N201 C200 1.314 . S
N201 C204 1.279 . S
C202 C200 1.353 . S
C202 C205 1.348 . S
C202 H250 0.929 . S
C203 C204 1.358 . S
C203 C205 1.356 . S
C203 H251 0.930 . S
C204 N201 1.279 . S
C204 C203 1.358 . S
C204 H207 0.930 . S
C205 C202 1.348 . S
C205 C203 1.356 . S
H206 C200 0.930 . S
H207 C204 0.930 . S
C208 C210 1.348 . S
C208 C211 1.356 . S
C208 O238 1.325 . S
N209 C212 1.314 . S
N209 C213 1.279 . S
C210 C208 1.348 . S
C210 C212 1.353 . S
C210 H252 0.929 . S
C211 C208 1.356 . S
C211 C213 1.358 . S
C211 H253 0.930 . S
C212 N209 1.314 . S
C212 C210 1.353 . S
C212 H254 0.930 . S
C213 N209 1.279 . S
C213 C211 1.358 . S
C213 H255 0.930 . S
C214 C215 1.348 . S
C214 C216 1.356 . S
C214 O239 1.325 . S
C215 C214 1.348 . S
C215 C217 1.353 . S
C215 H256 0.929 . S
C216 C214 1.356 . S
C216 C218 1.358 . S
C216 H257 0.930 . S
C217 C215 1.353 . S
C217 N219 1.314 . S
C217 H258 0.930 . S
C218 C216 1.358 . S
C218 N219 1.279 . S
C218 H259 0.930 . S
N219 C217 1.314 . S
N219 C218 1.279 . S
C220 C222 1.353 . S
C220 N223 1.314 . S
C220 H226 0.930 . S
C221 N223 1.279 . S
C221 C224 1.358 . S
C221 H227 0.930 . S
C222 C220 1.353 . S
C222 C225 1.348 . S
C222 H260 0.929 . S
N223 Li178 1.990 . S
N223 C220 1.314 . S
N223 C221 1.279 . S
C224 C221 1.358 . S
C224 C225 1.356 . S
C224 H261 0.930 . S
C225 C222 1.348 . S
C225 C224 1.356 . S
H226 C220 0.930 . S
H227 C221 0.930 . S
C228 N229 1.314 . S
C228 C230 1.353 . S
C228 H234 0.930 . S
N229 Li179 1.990 . S
N229 C228 1.314 . S
N229 C232 1.279 . S
C230 C228 1.353 . S
C230 C233 1.348 . S
C230 H262 0.929 . S
C231 C232 1.358 . S
C231 C233 1.356 . S
C231 H263 0.930 . S
C232 N229 1.279 . S
C232 C231 1.358 . S
C232 H235 0.930 . S
C233 C230 1.348 . S
C233 C231 1.356 . S
H234 C228 0.930 . S
H235 C232 0.930 . S
O236 Li176 1.956 . S
O236 Li177 1.970 . S
O236 Li178 1.961 . S
O236 C180 1.325 . S
O237 Li176 1.970 . S
O237 Li177 1.956 . S
O237 Li179 1.961 . S
O237 C186 1.325 . S
O238 Li176 1.961 . S
O238 Li178 1.956 . S
O238 Li179 1.970 . S
O238 C208 1.325 . S
O239 Li177 1.961 . S
O239 Li178 1.970 . S
O239 Li179 1.956 . S
O239 C214 1.325 . S
H240 C182 0.929 . S
H241 C183 0.930 . S
H242 C184 0.930 . S
H243 C185 0.930 . S
H244 C187 0.930 . S
H245 C189 0.929 . S
H246 C190 0.930 . S
H247 C191 0.930 . S
H248 C194 0.930 . S
H249 C197 0.929 . S
H250 C202 0.929 . S
H251 C203 0.930 . S
H252 C210 0.929 . S
H253 C211 0.930 . S
H254 C212 0.930 . S
H255 C213 0.930 . S
H256 C215 0.929 . S
H257 C216 0.930 . S
H258 C217 0.930 . S
H259 C218 0.930 . S
H260 C222 0.929 . S
H261 C224 0.930 . S
H262 C230 0.929 . S
H263 C231 0.930 . S
Li264 N281 1.990 . S
Li264 O324 1.956 . S
Li264 O325 1.970 . S
Li264 O326 1.961 . S
Li265 N289 1.990 . S
Li265 O324 1.970 . S
Li265 O325 1.956 . S
Li265 O327 1.961 1_554 S
Li266 N311 1.990 . S
Li266 O324 1.961 . S
Li266 O326 1.956 . S
Li266 O327 1.970 1_554 S
Li267 N317 1.990 . S
Li267 O325 1.961 1_556 S
Li267 O326 1.970 1_556 S
Li267 O327 1.956 . S
C268 C270 1.348 . S
C268 C271 1.356 . S
C268 O324 1.325 . S
N269 C272 1.314 . S
N269 C273 1.279 . S
C270 C268 1.348 . S
C270 C272 1.353 . S
C270 H328 0.929 . S
C271 C268 1.356 . S
C271 C273 1.358 . S
C271 H329 0.930 . S
C272 N269 1.314 . S
C272 C270 1.353 . S
C272 H330 0.930 . S
C273 N269 1.279 . S
C273 C271 1.358 . S
C273 H331 0.930 . S
C274 C277 1.348 . S
C274 C278 1.356 1_554 S
C274 O325 1.325 . S
C275 N276 1.279 . S
C275 C278 1.358 1_554 S
C275 H332 0.930 1_554 S
N276 C275 1.279 . S
N276 C279 1.314 . S
C277 C274 1.348 . S
C277 C279 1.353 . S
C277 H333 0.929 . S
C278 C274 1.356 1_556 S
C278 C275 1.358 1_556 S
C278 H334 0.930 . S
C279 N276 1.314 . S
C279 C277 1.353 . S
C279 H335 0.930 . S
C280 N281 1.314 . S
C280 C285 1.353 . S
C280 H286 0.930 . S
N281 Li264 1.990 . S
N281 C280 1.314 . S
N281 C283 1.279 . S
C282 C283 1.358 . S
C282 C284 1.356 . S
C282 H336 0.930 . S
C283 N281 1.279 . S
C283 C282 1.358 . S
C283 H287 0.930 . S
C284 C282 1.356 . S
C284 C285 1.348 . S
C285 C280 1.353 . S
C285 C284 1.348 . S
C285 H337 0.929 . S
H286 C280 0.930 . S
H287 C283 0.930 . S
C288 N289 1.314 1_556 S
C288 C290 1.353 . S
C288 H294 0.930 . S
N289 Li265 1.990 . S
N289 C288 1.314 1_554 S
N289 C292 1.279 . S
C290 C288 1.353 . S
C290 C293 1.347 1_556 S
C290 H338 0.929 . S
C291 C292 1.358 . S
C291 C293 1.356 . S
C291 H339 0.930 . S
C292 N289 1.279 . S
C292 C291 1.358 . S
C292 H295 0.930 . S
C293 C290 1.347 1_554 S
C293 C291 1.356 . S
H294 C288 0.930 . S
H295 C292 0.930 . S
C296 C298 1.348 1_554 S
C296 C299 1.356 . S
C296 O326 1.325 . S
N297 C300 1.314 . S
N297 C301 1.279 . S
C298 C296 1.348 1_556 S
C298 C300 1.353 1_556 S
C298 H340 0.929 . S
C299 C296 1.356 . S
C299 C301 1.358 . S
C299 H341 0.930 . S
C300 N297 1.314 . S
C300 C298 1.353 1_554 S
C300 H342 0.930 1_554 S
C301 N297 1.279 . S
C301 C299 1.358 . S
C301 H343 0.930 . S
C302 C303 1.348 . S
C302 C304 1.356 . S
C302 O327 1.325 . S
C303 C302 1.348 . S
C303 C305 1.353 . S
C303 H344 0.929 . S
C304 C302 1.356 . S
C304 C306 1.358 . S
C304 H345 0.930 . S
C305 C303 1.353 . S
C305 N307 1.314 . S
C305 H346 0.930 . S
C306 C304 1.358 . S
C306 N307 1.279 . S
C306 H347 0.930 . S
N307 C305 1.314 . S
N307 C306 1.279 . S
C308 C310 1.353 . S
C308 N311 1.314 . S
C308 H314 0.930 . S
C309 N311 1.279 . S
C309 C312 1.358 1_554 S
C309 H315 0.930 . S
C310 C308 1.353 . S
C310 C313 1.347 1_554 S
C310 H348 0.929 . S
N311 Li266 1.990 . S
N311 C308 1.314 . S
N311 C309 1.279 . S
C312 C309 1.358 1_556 S
C312 C313 1.356 . S
C312 H349 0.931 . S
C313 C310 1.347 1_556 S
C313 C312 1.356 . S
H314 C308 0.930 . S
H315 C309 0.930 . S
C316 N317 1.314 . S
C316 C318 1.353 . S
C316 H322 0.930 . S
N317 Li267 1.990 . S
N317 C316 1.314 . S
N317 C320 1.279 . S
C318 C316 1.353 . S
C318 C321 1.348 . S
C318 H350 0.929 . S
C319 C320 1.358 . S
C319 C321 1.356 . S
C319 H351 0.930 . S
C320 N317 1.279 . S
C320 C319 1.358 . S
C320 H323 0.930 . S
C321 C318 1.348 . S
C321 C319 1.356 . S
H322 C316 0.930 . S
H323 C320 0.930 . S
O324 Li264 1.956 . S
O324 Li265 1.970 . S
O324 Li266 1.961 . S
O324 C268 1.325 . S
O325 Li264 1.970 . S
O325 Li265 1.956 . S
O325 Li267 1.961 1_554 S
O325 C274 1.325 . S
O326 Li264 1.961 . S
O326 Li266 1.956 . S
O326 Li267 1.970 1_554 S
O326 C296 1.325 . S
O327 Li265 1.961 1_556 S
O327 Li266 1.970 1_556 S
O327 Li267 1.956 . S
O327 C302 1.325 . S
H328 C270 0.929 . S
H329 C271 0.930 . S
H330 C272 0.930 . S
H331 C273 0.930 . S
H332 C275 0.930 1_556 S
H333 C277 0.929 . S
H334 C278 0.930 . S
H335 C279 0.930 . S
H336 C282 0.930 . S
H337 C285 0.929 . S
H338 C290 0.929 . S
H339 C291 0.930 . S
H340 C298 0.929 . S
H341 C299 0.930 . S
H342 C300 0.930 1_556 S
H343 C301 0.930 . S
H344 C303 0.929 . S
H345 C304 0.930 . S
H346 C305 0.930 . S
H347 C306 0.930 . S
H348 C310 0.929 . S
H349 C312 0.931 . S
H350 C318 0.929 . S
H351 C319 0.930 . S
Li352 N369 1.994 . S
Li352 O412 1.998 . S
Li352 O413 1.926 1_455 S
Li352 O414 1.958 1_455 S
Li353 N377 1.993 . S
Li353 O412 1.938 1_655 S
Li353 O413 1.987 . S
Li353 O415 1.958 1_655 S
Li354 N399 1.990 . S
Li354 O412 1.961 . S
Li354 O414 1.930 1_455 S
Li354 O415 2.005 . S
Li355 N405 1.990 . S
Li355 O413 1.961 . S
Li355 O414 1.995 . S
Li355 O415 1.919 1_655 S
C356 C358 1.348 . S
C356 C359 1.356 . S
C356 O412 1.325 . S
N357 C360 1.314 . S
N357 C361 1.279 . S
C358 C356 1.348 . S
C358 C360 1.353 . S
C358 H416 0.929 . S
C359 C356 1.356 . S
C359 C361 1.358 . S
C359 H417 0.930 . S
C360 N357 1.314 . S
C360 C358 1.353 . S
C360 H418 0.930 . S
C361 N357 1.279 . S
C361 C359 1.358 . S
C361 H419 0.930 . S
C362 C365 1.348 . S
C362 C366 1.356 . S
C362 O413 1.325 . S
C363 N364 1.279 . S
C363 C366 1.358 . S
C363 H420 0.930 . S
N364 C363 1.279 . S
N364 C367 1.314 . S
C365 C362 1.348 . S
C365 C367 1.353 . S
C365 H421 0.929 . S
C366 C362 1.356 . S
C366 C363 1.358 . S
C366 H422 0.930 . S
C367 N364 1.314 . S
C367 C365 1.353 . S
C367 H423 0.930 . S
C368 N369 1.314 1_655 S
C368 C373 1.353 . S
C368 H374 0.930 . S
N369 Li352 1.994 . S
N369 C368 1.314 1_455 S
N369 C371 1.279 . S
C370 C371 1.358 . S
C370 C372 1.356 . S
C370 H424 0.930 . S
C371 N369 1.279 . S
C371 C370 1.358 . S
C371 H375 0.930 . S
C372 C370 1.356 . S
C372 C373 1.348 1_455 S
C373 C368 1.353 . S
C373 C372 1.348 1_655 S
C373 H425 0.929 . S
H374 C368 0.930 . S
H375 C371 0.930 . S
C376 N377 1.314 1_455 S
C376 C378 1.353 1_556 S
C376 H382 0.930 . S
N377 Li353 1.993 . S
N377 C376 1.314 1_655 S
N377 C380 1.279 . S
C378 C376 1.353 1_554 S
C378 C381 1.348 . S
C378 H426 0.929 . S
C379 C380 1.358 . S
C379 C381 1.356 1_656 S
C379 H427 0.930 . S
C380 N377 1.279 . S
C380 C379 1.358 . S
C380 H383 0.930 . S
C381 C378 1.348 . S
C381 C379 1.356 1_454 S
H382 C376 0.930 . S
H383 C380 0.930 . S
C384 C386 1.348 1_455 S
C384 C387 1.356 . S
C384 O414 1.324 1_455 S
N385 C388 1.314 1_455 S
N385 C389 1.279 . S
C386 C384 1.348 1_655 S
C386 C388 1.353 . S
C386 H428 0.929 . S
C387 C384 1.356 . S
C387 C389 1.358 . S
C387 H429 0.930 . S
C388 N385 1.314 1_655 S
C388 C386 1.353 . S
C388 H430 0.930 . S
C389 N385 1.279 . S
C389 C387 1.358 . S
C389 H431 0.930 . S
C390 C391 1.348 . S
C390 C392 1.356 1_455 S
C390 O415 1.324 . S
C391 C390 1.348 . S
C391 C393 1.353 1_556 S
C391 H432 0.929 . S
C392 C390 1.356 1_655 S
C392 C394 1.358 1_556 S
C392 H433 0.930 . S
C393 C391 1.353 1_554 S
C393 N395 1.314 1_455 S
C393 H434 0.930 . S
C394 C392 1.358 1_554 S
C394 N395 1.279 . S
C394 H435 0.930 . S
N395 C393 1.314 1_655 S
N395 C394 1.279 . S
C396 C398 1.353 . S
C396 N399 1.314 . S
C396 H402 0.930 . S
C397 N399 1.279 . S
C397 C400 1.358 . S
C397 H403 0.930 . S
C398 C396 1.353 . S
C398 C401 1.348 . S
C398 H436 0.929 . S
N399 Li354 1.990 . S
N399 C396 1.314 . S
N399 C397 1.279 . S
C400 C397 1.358 . S
C400 C401 1.356 . S
C400 H437 0.930 . S
C401 C398 1.348 . S
C401 C400 1.356 . S
H402 C396 0.930 . S
H403 C397 0.930 . S
C404 N405 1.314 . S
C404 C406 1.353 . S
C404 H410 0.930 . S
N405 Li355 1.990 . S
N405 C404 1.314 . S
N405 C408 1.279 . S
C406 C404 1.353 . S
C406 C409 1.348 . S
C406 H438 0.929 . S
C407 C408 1.358 . S
C407 C409 1.356 . S
C407 H439 0.930 . S
C408 N405 1.279 . S
C408 C407 1.358 . S
C408 H411 0.930 . S
C409 C406 1.348 . S
C409 C407 1.356 . S
H410 C404 0.930 . S
H411 C408 0.930 . S
O412 Li352 1.998 . S
O412 Li353 1.938 1_455 S
O412 Li354 1.961 . S
O412 C356 1.325 . S
O413 Li352 1.926 1_655 S
O413 Li353 1.987 . S
O413 Li355 1.961 . S
O413 C362 1.325 . S
O414 Li352 1.958 1_655 S
O414 Li354 1.930 1_655 S
O414 Li355 1.995 . S
O414 C384 1.324 1_655 S
O415 Li353 1.958 1_455 S
O415 Li354 2.005 . S
O415 Li355 1.919 1_455 S
O415 C390 1.324 . S
H416 C358 0.929 . S
H417 C359 0.930 . S
H418 C360 0.930 . S
H419 C361 0.930 . S
H420 C363 0.930 . S
H421 C365 0.929 . S
H422 C366 0.930 . S
H423 C367 0.930 . S
H424 C370 0.930 . S
H425 C373 0.929 . S
H426 C378 0.929 . S
H427 C379 0.930 . S
H428 C386 0.929 . S
H429 C387 0.930 . S
H430 C388 0.930 . S
H431 C389 0.930 . S
H432 C391 0.929 . S
H433 C392 0.930 . S
H434 C393 0.930 . S
H435 C394 0.930 . S
H436 C398 0.929 . S
H437 C400 0.930 . S
H438 C406 0.929 . S
H439 C407 0.930 . S
Li440 N457 1.990 . S
Li440 O500 1.956 . S
Li440 O501 1.970 . S
Li440 O502 1.961 . S
Li441 N465 1.990 . S
Li441 O500 1.970 . S
Li441 O501 1.956 . S
Li441 O503 1.961 . S
Li442 N487 1.990 . S
Li442 O500 1.961 . S
Li442 O502 1.956 . S
Li442 O503 1.970 . S
Li443 N493 1.990 . S
Li443 O501 1.961 . S
Li443 O502 1.970 . S
Li443 O503 1.956 . S
C444 C446 1.348 . S
C444 C447 1.356 . S
C444 O500 1.325 . S
N445 C448 1.314 . S
N445 C449 1.279 . S
C446 C444 1.348 . S
C446 C448 1.353 . S
C446 H504 0.929 . S
C447 C444 1.356 . S
C447 C449 1.358 . S
C447 H505 0.930 . S
C448 N445 1.314 . S
C448 C446 1.353 . S
C448 H506 0.930 . S
C449 N445 1.279 . S
C449 C447 1.358 . S
C449 H507 0.930 . S
C450 C453 1.348 . S
C450 C454 1.356 . S
C450 O501 1.325 . S
C451 N452 1.279 . S
C451 C454 1.358 . S
C451 H508 0.930 . S
N452 C451 1.279 . S
N452 C455 1.314 . S
C453 C450 1.348 . S
C453 C455 1.353 . S
C453 H509 0.929 . S
C454 C450 1.356 . S
C454 C451 1.358 . S
C454 H510 0.930 . S
C455 N452 1.314 . S
C455 C453 1.353 . S
C455 H511 0.930 . S
C456 N457 1.314 . S
C456 C461 1.353 . S
C456 H462 0.930 . S
N457 Li440 1.990 . S
N457 C456 1.314 . S
N457 C459 1.279 . S
C458 C459 1.358 . S
C458 C460 1.356 . S
C458 H512 0.930 . S
C459 N457 1.279 . S
C459 C458 1.358 . S
C459 H463 0.930 . S
C460 C458 1.356 . S
C460 C461 1.348 . S
C461 C456 1.353 . S
C461 C460 1.348 . S
C461 H513 0.929 . S
H462 C456 0.930 . S
H463 C459 0.930 . S
C464 N465 1.314 . S
C464 C466 1.353 . S
C464 H470 0.930 . S
N465 Li441 1.990 . S
N465 C464 1.314 . S
N465 C468 1.279 . S
C466 C464 1.353 . S
C466 C469 1.348 . S
C466 H514 0.929 . S
C467 C468 1.358 . S
C467 C469 1.356 . S
C467 H515 0.930 . S
C468 N465 1.279 . S
C468 C467 1.358 . S
C468 H471 0.930 . S
C469 C466 1.348 . S
C469 C467 1.356 . S
H470 C464 0.930 . S
H471 C468 0.930 . S
C472 C474 1.348 . S
C472 C475 1.356 . S
C472 O502 1.325 . S
N473 C476 1.314 1_556 S
N473 C477 1.279 . S
C474 C472 1.348 . S
C474 C476 1.353 . S
C474 H516 0.929 . S
C475 C472 1.356 . S
C475 C477 1.358 1_554 S
C475 H517 0.930 . S
C476 N473 1.314 1_554 S
C476 C474 1.353 . S
C476 H518 0.925 1_554 S
C477 N473 1.279 . S
C477 C475 1.358 1_556 S
C477 H519 0.930 . S
C478 C479 1.348 . S
C478 C480 1.356 . S
C478 O503 1.325 . S
C479 C478 1.348 . S
C479 C481 1.353 . S
C479 H520 0.929 . S
C480 C478 1.356 . S
C480 C482 1.358 . S
C480 H521 0.930 . S
C481 C479 1.353 . S
C481 N483 1.314 . S
C481 H522 0.930 . S
C482 C480 1.358 . S
C482 N483 1.279 . S
C482 H523 0.930 . S
N483 C481 1.314 . S
N483 C482 1.279 . S
C484 C486 1.353 1_554 S
C484 N487 1.314 . S
C484 H490 0.930 . S
C485 N487 1.279 1_556 S
C485 C488 1.358 . S
C485 H491 0.930 . S
C486 C484 1.353 1_556 S
C486 C489 1.348 . S
C486 H524 0.929 . S
N487 Li442 1.990 . S
N487 C484 1.314 . S
N487 C485 1.279 1_554 S
C488 C485 1.358 . S
C488 C489 1.356 . S
C488 H525 0.930 . S
C489 C486 1.348 . S
C489 C488 1.356 . S
H490 C484 0.930 . S
H491 C485 0.930 . S
C492 N493 1.314 . S
C492 C494 1.353 . S
C492 H498 0.930 . S
N493 Li443 1.990 . S
N493 C492 1.314 . S
N493 C496 1.279 . S
C494 C492 1.353 . S
C494 C497 1.348 . S
C494 H526 0.929 . S
C495 C496 1.358 . S
C495 C497 1.356 . S
C495 H527 0.930 . S
C496 N493 1.279 . S
C496 C495 1.358 . S
C496 H499 0.930 . S
C497 C494 1.348 . S
C497 C495 1.356 . S
H498 C492 0.930 . S
H499 C496 0.930 . S
O500 Li440 1.956 . S
O500 Li441 1.970 . S
O500 Li442 1.961 . S
O500 C444 1.325 . S
O501 Li440 1.970 . S
O501 Li441 1.956 . S
O501 Li443 1.961 . S
O501 C450 1.325 . S
O502 Li440 1.961 . S
O502 Li442 1.956 . S
O502 Li443 1.970 . S
O502 C472 1.325 . S
O503 Li441 1.961 . S
O503 Li442 1.970 . S
O503 Li443 1.956 . S
O503 C478 1.325 . S
H504 C446 0.929 . S
H505 C447 0.930 . S
H506 C448 0.930 . S
H507 C449 0.930 . S
H508 C451 0.930 . S
H509 C453 0.929 . S
H510 C454 0.930 . S
H511 C455 0.930 . S
H512 C458 0.930 . S
H513 C461 0.929 . S
H514 C466 0.929 . S
H515 C467 0.930 . S
H516 C474 0.929 . S
H517 C475 0.930 . S
H518 C476 0.925 1_556 S
H519 C477 0.930 . S
H520 C479 0.929 . S
H521 C480 0.930 . S
H522 C481 0.930 . S
H523 C482 0.930 . S
H524 C486 0.929 . S
H525 C488 0.930 . S
H526 C494 0.929 . S
H527 C495 0.930 . S
Li528 N545 1.990 . S
Li528 O588 1.956 . S
Li528 O589 1.970 . S
Li528 O590 1.961 . S
Li529 N553 1.990 . S
Li529 O588 1.970 . S
Li529 O589 1.956 . S
Li529 O591 1.961 . S
Li530 N575 1.990 . S
Li530 O588 1.961 . S
Li530 O590 1.956 . S
Li530 O591 1.970 . S
Li531 N581 1.990 . S
Li531 O589 1.961 . S
Li531 O590 1.970 . S
Li531 O591 1.956 . S
C532 C534 1.348 . S
C532 C535 1.356 . S
C532 O588 1.325 . S
N533 C536 1.314 . S
N533 C537 1.279 . S
C534 C532 1.348 . S
C534 C536 1.353 . S
C534 H592 0.929 . S
C535 C532 1.356 . S
C535 C537 1.358 . S
C535 H593 0.930 . S
C536 N533 1.314 . S
C536 C534 1.353 . S
C536 H594 0.930 . S
C537 N533 1.279 . S
C537 C535 1.358 . S
C537 H595 0.930 . S
C538 C541 1.348 . S
C538 C542 1.356 . S
C538 O589 1.325 . S
C539 N540 1.279 . S
C539 C542 1.358 . S
C539 H596 0.930 . S
N540 C539 1.279 . S
N540 C543 1.314 . S
C541 C538 1.348 . S
C541 C543 1.353 . S
C541 H597 0.929 . S
C542 C538 1.356 . S
C542 C539 1.358 . S
C542 H598 0.930 . S
C543 N540 1.314 . S
C543 C541 1.353 . S
C543 H599 0.930 . S
C544 N545 1.314 . S
C544 C549 1.353 . S
C544 H550 0.930 . S
N545 Li528 1.990 . S
N545 C544 1.314 . S
N545 C547 1.279 . S
C546 C547 1.358 . S
C546 C548 1.356 . S
C546 H600 0.930 . S
C547 N545 1.279 . S
C547 C546 1.358 . S
C547 H551 0.930 . S
C548 C546 1.356 . S
C548 C549 1.348 . S
C549 C544 1.353 . S
C549 C548 1.348 . S
C549 H601 0.929 . S
H550 C544 0.930 . S
H551 C547 0.930 . S
C552 N553 1.314 . S
C552 C554 1.353 . S
C552 H558 0.930 . S
N553 Li529 1.990 . S
N553 C552 1.314 . S
N553 C556 1.279 . S
C554 C552 1.353 . S
C554 C557 1.348 . S
C554 H602 0.929 . S
C555 C556 1.358 . S
C555 C557 1.356 . S
C555 H603 0.930 . S
C556 N553 1.279 . S
C556 C555 1.358 . S
C556 H559 0.930 . S
C557 C554 1.348 . S
C557 C555 1.356 . S
H558 C552 0.930 . S
H559 C556 0.930 . S
C560 C562 1.348 . S
C560 C563 1.356 . S
C560 O590 1.325 . S
N561 C564 1.314 . S
N561 C565 1.279 . S
C562 C560 1.348 . S
C562 C564 1.353 . S
C562 H604 0.929 . S
C563 C560 1.356 . S
C563 C565 1.358 . S
C563 H605 0.930 . S
C564 N561 1.314 . S
C564 C562 1.353 . S
C564 H606 0.930 . S
C565 N561 1.279 . S
C565 C563 1.358 . S
C565 H607 0.930 . S
C566 C567 1.348 . S
C566 C568 1.356 . S
C566 O591 1.325 . S
C567 C566 1.348 . S
C567 C569 1.353 . S
C567 H608 0.929 . S
C568 C566 1.356 . S
C568 C570 1.358 . S
C568 H609 0.930 . S
C569 C567 1.353 . S
C569 N571 1.314 . S
C569 H610 0.930 . S
C570 C568 1.358 . S
C570 N571 1.279 . S
C570 H611 0.930 . S
N571 C569 1.314 . S
N571 C570 1.279 . S
C572 C574 1.353 . S
C572 N575 1.314 . S
C572 H578 0.930 . S
C573 N575 1.279 . S
C573 C576 1.358 . S
C573 H579 0.930 . S
C574 C572 1.353 . S
C574 C577 1.348 . S
C574 H612 0.929 . S
N575 Li530 1.990 . S
N575 C572 1.314 . S
N575 C573 1.279 . S
C576 C573 1.358 . S
C576 C577 1.356 . S
C576 H613 0.930 . S
C577 C574 1.348 . S
C577 C576 1.356 . S
H578 C572 0.930 . S
H579 C573 0.930 . S
C580 N581 1.314 . S
C580 C582 1.353 . S
C580 H586 0.930 . S
N581 Li531 1.990 . S
N581 C580 1.314 . S
N581 C584 1.279 . S
C582 C580 1.353 . S
C582 C585 1.348 . S
C582 H614 0.929 . S
C583 C584 1.358 . S
C583 C585 1.356 . S
C583 H615 0.930 . S
C584 N581 1.279 . S
C584 C583 1.358 . S
C584 H587 0.930 . S
C585 C582 1.348 . S
C585 C583 1.356 . S
H586 C580 0.930 . S
H587 C584 0.930 . S
O588 Li528 1.956 . S
O588 Li529 1.970 . S
O588 Li530 1.961 . S
O588 C532 1.325 . S
O589 Li528 1.970 . S
O589 Li529 1.956 . S
O589 Li531 1.961 . S
O589 C538 1.325 . S
O590 Li528 1.961 . S
O590 Li530 1.956 . S
O590 Li531 1.970 . S
O590 C560 1.325 . S
O591 Li529 1.961 . S
O591 Li530 1.970 . S
O591 Li531 1.956 . S
O591 C566 1.325 . S
H592 C534 0.929 . S
H593 C535 0.930 . S
H594 C536 0.930 . S
H595 C537 0.930 . S
H596 C539 0.930 . S
H597 C541 0.929 . S
H598 C542 0.930 . S
H599 C543 0.930 . S
H600 C546 0.930 . S
H601 C549 0.929 . S
H602 C554 0.929 . S
H603 C555 0.930 . S
H604 C562 0.929 . S
H605 C563 0.930 . S
H606 C564 0.930 . S
H607 C565 0.930 . S
H608 C567 0.929 . S
H609 C568 0.930 . S
H610 C569 0.930 . S
H611 C570 0.930 . S
H612 C574 0.929 . S
H613 C576 0.930 . S
H614 C582 0.929 . S
H615 C583 0.930 . S
Li616 N633 1.990 . S
Li616 O676 1.956 . S
Li616 O677 1.970 . S
Li616 O678 1.961 . S
Li617 N641 1.990 . S
Li617 O676 1.970 . S
Li617 O677 1.956 . S
Li617 O679 1.961 . S
Li618 N663 1.990 . S
Li618 O676 1.961 . S
Li618 O678 1.956 . S
Li618 O679 1.970 . S
Li619 N669 1.990 . S
Li619 O677 1.961 . S
Li619 O678 1.970 . S
Li619 O679 1.956 . S
C620 C622 1.348 . S
C620 C623 1.356 . S
C620 O676 1.325 . S
N621 C624 1.314 . S
N621 C625 1.279 . S
C622 C620 1.348 . S
C622 C624 1.353 . S
C622 H680 0.929 . S
C623 C620 1.356 . S
C623 C625 1.358 . S
C623 H681 0.930 . S
C624 N621 1.314 . S
C624 C622 1.353 . S
C624 H682 0.930 . S
C625 N621 1.279 . S
C625 C623 1.358 . S
C625 H683 0.930 . S
C626 C629 1.348 . S
C626 C630 1.356 . S
C626 O677 1.325 . S
C627 N628 1.279 . S
C627 C630 1.358 . S
C627 H684 0.930 . S
N628 C627 1.279 . S
N628 C631 1.314 . S
C629 C626 1.348 . S
C629 C631 1.353 . S
C629 H685 0.929 . S
C630 C626 1.356 . S
C630 C627 1.358 . S
C630 H686 0.930 . S
C631 N628 1.314 . S
C631 C629 1.353 . S
C631 H687 0.930 . S
C632 N633 1.314 . S
C632 C637 1.353 . S
C632 H638 0.930 . S
N633 Li616 1.990 . S
N633 C632 1.314 . S
N633 C635 1.279 . S
C634 C635 1.358 . S
C634 C636 1.356 . S
C634 H688 0.930 . S
C635 N633 1.279 . S
C635 C634 1.358 . S
C635 H639 0.930 . S
C636 C634 1.356 . S
C636 C637 1.348 . S
C637 C632 1.353 . S
C637 C636 1.348 . S
C637 H689 0.929 . S
H638 C632 0.930 . S
H639 C635 0.930 . S
C640 N641 1.314 . S
C640 C642 1.353 . S
C640 H646 0.930 . S
N641 Li617 1.990 . S
N641 C640 1.314 . S
N641 C644 1.279 . S
C642 C640 1.353 . S
C642 C645 1.348 . S
C642 H690 0.929 . S
C643 C644 1.358 . S
C643 C645 1.356 . S
C643 H691 0.930 . S
C644 N641 1.279 . S
C644 C643 1.358 . S
C644 H647 0.930 . S
C645 C642 1.348 . S
C645 C643 1.356 . S
H646 C640 0.930 . S
H647 C644 0.930 . S
C648 C650 1.348 . S
C648 C651 1.356 . S
C648 O678 1.325 . S
N649 C652 1.314 . S
N649 C653 1.279 . S
C650 C648 1.348 . S
C650 C652 1.353 . S
C650 H692 0.929 . S
C651 C648 1.356 . S
C651 C653 1.358 . S
C651 H693 0.930 . S
C652 N649 1.314 . S
C652 C650 1.353 . S
C652 H694 0.930 . S
C653 N649 1.279 . S
C653 C651 1.358 . S
C653 H695 0.930 . S
C654 C655 1.348 . S
C654 C656 1.356 . S
C654 O679 1.325 . S
C655 C654 1.348 . S
C655 C657 1.353 . S
C655 H696 0.929 . S
C656 C654 1.356 . S
C656 C658 1.358 . S
C656 H697 0.930 . S
C657 C655 1.353 . S
C657 N659 1.314 . S
C657 H698 0.930 . S
C658 C656 1.358 . S
C658 N659 1.279 . S
C658 H699 0.930 . S
N659 C657 1.314 . S
N659 C658 1.279 . S
C660 C662 1.353 . S
C660 N663 1.314 . S
C660 H666 0.930 . S
C661 N663 1.279 . S
C661 C664 1.358 . S
C661 H667 0.930 . S
C662 C660 1.353 . S
C662 C665 1.348 . S
C662 H700 0.929 . S
N663 Li618 1.990 . S
N663 C660 1.314 . S
N663 C661 1.279 . S
C664 C661 1.358 . S
C664 C665 1.356 . S
C664 H701 0.930 . S
C665 C662 1.348 . S
C665 C664 1.356 . S
H666 C660 0.930 . S
H667 C661 0.930 . S
C668 N669 1.314 . S
C668 C670 1.353 . S
C668 H674 0.930 . S
N669 Li619 1.990 . S
N669 C668 1.314 . S
N669 C672 1.279 . S
C670 C668 1.353 . S
C670 C673 1.348 . S
C670 H702 0.929 . S
C671 C672 1.358 . S
C671 C673 1.356 . S
C671 H703 0.930 . S
C672 N669 1.279 . S
C672 C671 1.358 . S
C672 H675 0.930 . S
C673 C670 1.348 . S
C673 C671 1.356 . S
H674 C668 0.930 . S
H675 C672 0.930 . S
O676 Li616 1.956 . S
O676 Li617 1.970 . S
O676 Li618 1.961 . S
O676 C620 1.325 . S
O677 Li616 1.970 . S
O677 Li617 1.956 . S
O677 Li619 1.961 . S
O677 C626 1.325 . S
O678 Li616 1.961 . S
O678 Li618 1.956 . S
O678 Li619 1.970 . S
O678 C648 1.325 . S
O679 Li617 1.961 . S
O679 Li618 1.970 . S
O679 Li619 1.956 . S
O679 C654 1.325 . S
H680 C622 0.929 . S
H681 C623 0.930 . S
H682 C624 0.930 . S
H683 C625 0.930 . S
H684 C627 0.930 . S
H685 C629 0.929 . S
H686 C630 0.930 . S
H687 C631 0.930 . S
H688 C634 0.930 . S
H689 C637 0.929 . S
H690 C642 0.929 . S
H691 C643 0.930 . S
H692 C650 0.929 . S
H693 C651 0.930 . S
H694 C652 0.930 . S
H695 C653 0.930 . S
H696 C655 0.929 . S
H697 C656 0.930 . S
H698 C657 0.930 . S
H699 C658 0.930 . S
H700 C662 0.929 . S
H701 C664 0.930 . S
H702 C670 0.929 . S
H703 C671 0.930 . S
Li704 N721 1.990 . S
Li704 O764 1.956 . S
Li704 O765 1.970 . S
Li704 O766 1.961 . S
Li705 N729 1.990 . S
Li705 O764 1.970 . S
Li705 O765 1.956 . S
Li705 O767 1.961 . S
Li706 N751 1.990 . S
Li706 O764 1.961 . S
Li706 O766 1.956 . S
Li706 O767 1.970 . S
Li707 N757 1.990 . S
Li707 O765 1.961 . S
Li707 O766 1.970 . S
Li707 O767 1.956 . S
C708 C710 1.348 . S
C708 C711 1.356 . S
C708 O764 1.325 . S
N709 C712 1.314 . S
N709 C713 1.279 . S
C710 C708 1.348 . S
C710 C712 1.353 . S
C710 H768 0.929 . S
C711 C708 1.356 . S
C711 C713 1.358 . S
C711 H769 0.930 . S
C712 N709 1.314 . S
C712 C710 1.353 . S
C712 H770 0.930 . S
C713 N709 1.279 . S
C713 C711 1.358 . S
C713 H771 0.930 . S
C714 C717 1.348 . S
C714 C718 1.356 . S
C714 O765 1.325 . S
C715 N716 1.279 . S
C715 C718 1.358 . S
C715 H772 0.930 . S
N716 C715 1.279 . S
N716 C719 1.314 . S
C717 C714 1.348 . S
C717 C719 1.353 . S
C717 H773 0.929 . S
C718 C714 1.356 . S
C718 C715 1.358 . S
C718 H774 0.930 . S
C719 N716 1.314 . S
C719 C717 1.353 . S
C719 H775 0.930 . S
C720 N721 1.314 . S
C720 C725 1.353 . S
C720 H726 0.930 . S
N721 Li704 1.990 . S
N721 C720 1.314 . S
N721 C723 1.279 . S
C722 C723 1.358 . S
C722 C724 1.356 . S
C722 H776 0.930 . S
C723 N721 1.279 . S
C723 C722 1.358 . S
C723 H727 0.930 . S
C724 C722 1.356 . S
C724 C725 1.348 . S
C725 C720 1.353 . S
C725 C724 1.348 . S
C725 H777 0.929 . S
H726 C720 0.930 . S
H727 C723 0.930 . S
C728 N729 1.314 . S
C728 C730 1.353 . S
C728 H734 0.930 . S
N729 Li705 1.990 . S
N729 C728 1.314 . S
N729 C732 1.279 . S
C730 C728 1.353 . S
C730 C733 1.348 . S
C730 H778 0.929 . S
C731 C732 1.358 . S
C731 C733 1.356 . S
C731 H779 0.930 . S
C732 N729 1.279 . S
C732 C731 1.358 . S
C732 H735 0.930 . S
C733 C730 1.348 . S
C733 C731 1.356 . S
H734 C728 0.930 . S
H735 C732 0.930 . S
C736 C738 1.348 . S
C736 C739 1.356 . S
C736 O766 1.325 . S
N737 C740 1.314 . S
N737 C741 1.279 . S
C738 C736 1.348 . S
C738 C740 1.353 . S
C738 H780 0.929 . S
C739 C736 1.356 . S
C739 C741 1.358 . S
C739 H781 0.930 . S
C740 N737 1.314 . S
C740 C738 1.353 . S
C740 H782 0.930 . S
C741 N737 1.279 . S
C741 C739 1.358 . S
C741 H783 0.930 . S
C742 C743 1.348 . S
C742 C744 1.356 . S
C742 O767 1.325 . S
C743 C742 1.348 . S
C743 C745 1.353 . S
C743 H784 0.929 . S
C744 C742 1.356 . S
C744 C746 1.358 . S
C744 H785 0.930 . S
C745 C743 1.353 . S
C745 N747 1.314 . S
C745 H786 0.930 . S
C746 C744 1.358 . S
C746 N747 1.279 . S
C746 H787 0.930 . S
N747 C745 1.314 . S
N747 C746 1.279 . S
C748 C750 1.353 . S
C748 N751 1.314 . S
C748 H754 0.930 . S
C749 N751 1.279 . S
C749 C752 1.358 . S
C749 H755 0.930 . S
C750 C748 1.353 . S
C750 C753 1.348 . S
C750 H788 0.929 . S
N751 Li706 1.990 . S
N751 C748 1.314 . S
N751 C749 1.279 . S
C752 C749 1.358 . S
C752 C753 1.356 . S
C752 H789 0.930 . S
C753 C750 1.348 . S
C753 C752 1.356 . S
H754 C748 0.930 . S
H755 C749 0.930 . S
C756 N757 1.314 . S
C756 C758 1.353 . S
C756 H762 0.930 . S
N757 Li707 1.990 . S
N757 C756 1.314 . S
N757 C760 1.279 . S
C758 C756 1.353 . S
C758 C761 1.348 . S
C758 H790 0.929 . S
C759 C760 1.358 . S
C759 C761 1.356 . S
C759 H791 0.930 . S
C760 N757 1.279 . S
C760 C759 1.358 . S
C760 H763 0.930 . S
C761 C758 1.348 . S
C761 C759 1.356 . S
H762 C756 0.930 . S
H763 C760 0.930 . S
O764 Li704 1.956 . S
O764 Li705 1.970 . S
O764 Li706 1.961 . S
O764 C708 1.325 . S
O765 Li704 1.970 . S
O765 Li705 1.956 . S
O765 Li707 1.961 . S
O765 C714 1.325 . S
O766 Li704 1.961 . S
O766 Li706 1.956 . S
O766 Li707 1.970 . S
O766 C736 1.325 . S
O767 Li705 1.961 . S
O767 Li706 1.970 . S
O767 Li707 1.956 . S
O767 C742 1.325 . S
H768 C710 0.929 . S
H769 C711 0.930 . S
H770 C712 0.930 . S
H771 C713 0.930 . S
H772 C715 0.930 . S
H773 C717 0.929 . S
H774 C718 0.930 . S
H775 C719 0.930 . S
H776 C722 0.930 . S
H777 C725 0.929 . S
H778 C730 0.929 . S
H779 C731 0.930 . S
H780 C738 0.929 . S
H781 C739 0.930 . S
H782 C740 0.930 . S
H783 C741 0.930 . S
H784 C743 0.929 . S
H785 C744 0.930 . S
H786 C745 0.930 . S
H787 C746 0.930 . S
H788 C750 0.929 . S
H789 C752 0.930 . S
H790 C758 0.929 . S
H791 C759 0.930 . S
Li792 N809 1.990 . S
Li792 O852 1.956 . S
Li792 O853 1.970 . S
Li792 O854 1.961 . S
Li793 N817 1.990 . S
Li793 O852 1.970 . S
Li793 O853 1.956 . S
Li793 O855 1.961 . S
Li794 N839 1.990 . S
Li794 O852 1.961 . S
Li794 O854 1.956 . S
Li794 O855 1.970 . S
Li795 N845 1.990 . S
Li795 O853 1.961 . S
Li795 O854 1.970 . S
Li795 O855 1.956 . S
C796 C798 1.348 . S
C796 C799 1.356 . S
C796 O852 1.325 . S
N797 C800 1.314 . S
N797 C801 1.279 . S
C798 C796 1.348 . S
C798 C800 1.353 . S
C798 H856 0.929 . S
C799 C796 1.356 . S
C799 C801 1.358 . S
C799 H857 0.930 . S
C800 N797 1.314 . S
C800 C798 1.353 . S
C800 H858 0.930 . S
C801 N797 1.279 . S
C801 C799 1.358 . S
C801 H859 0.930 . S
C802 C805 1.348 . S
C802 C806 1.356 . S
C802 O853 1.325 . S
C803 N804 1.279 . S
C803 C806 1.358 . S
C803 H860 0.930 . S
N804 C803 1.279 . S
N804 C807 1.314 . S
C805 C802 1.348 . S
C805 C807 1.353 . S
C805 H861 0.929 . S
C806 C802 1.356 . S
C806 C803 1.358 . S
C806 H862 0.930 . S
C807 N804 1.314 . S
C807 C805 1.353 . S
C807 H863 0.930 . S
C808 N809 1.314 . S
C808 C813 1.353 . S
C808 H814 0.930 . S
N809 Li792 1.990 . S
N809 C808 1.314 . S
N809 C811 1.279 . S
C810 C811 1.358 . S
C810 C812 1.356 . S
C810 H864 0.930 . S
C811 N809 1.279 . S
C811 C810 1.358 . S
C811 H815 0.930 . S
C812 C810 1.356 . S
C812 C813 1.348 . S
C813 C808 1.353 . S
C813 C812 1.348 . S
C813 H865 0.929 . S
H814 C808 0.930 . S
H815 C811 0.930 . S
C816 N817 1.314 . S
C816 C818 1.353 . S
C816 H822 0.930 . S
N817 Li793 1.990 . S
N817 C816 1.314 . S
N817 C820 1.279 . S
C818 C816 1.353 . S
C818 C821 1.348 . S
C818 H866 0.929 . S
C819 C820 1.358 . S
C819 C821 1.356 . S
C819 H867 0.930 . S
C820 N817 1.279 . S
C820 C819 1.358 . S
C820 H823 0.930 . S
C821 C818 1.348 . S
C821 C819 1.356 . S
H822 C816 0.930 . S
H823 C820 0.930 . S
C824 C826 1.348 . S
C824 C827 1.356 . S
C824 O854 1.325 . S
N825 C828 1.314 1_556 S
N825 C829 1.279 . S
C826 C824 1.348 . S
C826 C828 1.353 . S
C826 H868 0.929 . S
C827 C824 1.356 . S
C827 C829 1.358 1_554 S
C827 H869 0.930 . S
C828 N825 1.314 1_554 S
C828 C826 1.353 . S
C828 H870 0.925 1_554 S
C829 N825 1.279 . S
C829 C827 1.358 1_556 S
C829 H871 0.930 . S
C830 C831 1.348 . S
C830 C832 1.356 . S
C830 O855 1.325 . S
C831 C830 1.348 . S
C831 C833 1.353 . S
C831 H872 0.929 . S
C832 C830 1.356 . S
C832 C834 1.358 . S
C832 H873 0.930 . S
C833 C831 1.353 . S
C833 N835 1.314 . S
C833 H874 0.930 . S
C834 C832 1.358 . S
C834 N835 1.279 . S
C834 H875 0.930 . S
N835 C833 1.314 . S
N835 C834 1.279 . S
C836 C838 1.353 1_554 S
C836 N839 1.314 . S
C836 H842 0.930 . S
C837 N839 1.279 1_556 S
C837 C840 1.358 . S
C837 H843 0.930 . S
C838 C836 1.353 1_556 S
C838 C841 1.348 . S
C838 H876 0.929 . S
N839 Li794 1.990 . S
N839 C836 1.314 . S
N839 C837 1.279 1_554 S
C840 C837 1.358 . S
C840 C841 1.356 . S
C840 H877 0.930 . S
C841 C838 1.348 . S
C841 C840 1.356 . S
H842 C836 0.930 . S
H843 C837 0.930 . S
C844 N845 1.314 . S
C844 C846 1.353 . S
C844 H850 0.930 . S
N845 Li795 1.990 . S
N845 C844 1.314 . S
N845 C848 1.279 . S
C846 C844 1.353 . S
C846 C849 1.348 . S
C846 H878 0.929 . S
C847 C848 1.358 . S
C847 C849 1.356 . S
C847 H879 0.930 . S
C848 N845 1.279 . S
C848 C847 1.358 . S
C848 H851 0.930 . S
C849 C846 1.348 . S
C849 C847 1.356 . S
H850 C844 0.930 . S
H851 C848 0.930 . S
O852 Li792 1.956 . S
O852 Li793 1.970 . S
O852 Li794 1.961 . S
O852 C796 1.325 . S
O853 Li792 1.970 . S
O853 Li793 1.956 . S
O853 Li795 1.961 . S
O853 C802 1.325 . S
O854 Li792 1.961 . S
O854 Li794 1.956 . S
O854 Li795 1.970 . S
O854 C824 1.325 . S
O855 Li793 1.961 . S
O855 Li794 1.970 . S
O855 Li795 1.956 . S
O855 C830 1.325 . S
H856 C798 0.929 . S
H857 C799 0.930 . S
H858 C800 0.930 . S
H859 C801 0.930 . S
H860 C803 0.930 . S
H861 C805 0.929 . S
H862 C806 0.930 . S
H863 C807 0.930 . S
H864 C810 0.930 . S
H865 C813 0.929 . S
H866 C818 0.929 . S
H867 C819 0.930 . S
H868 C826 0.929 . S
H869 C827 0.930 . S
H870 C828 0.925 1_556 S
H871 C829 0.930 . S
H872 C831 0.929 . S
H873 C832 0.930 . S
H874 C833 0.930 . S
H875 C834 0.930 . S
H876 C838 0.929 . S
H877 C840 0.930 . S
H878 C846 0.929 . S
H879 C847 0.930 . S
Li880 N897 1.990 . S
Li880 O940 1.956 . S
Li880 O941 1.970 . S
Li880 O942 1.961 . S
Li881 N905 1.990 . S
Li881 O940 1.970 . S
Li881 O941 1.956 . S
Li881 O943 1.961 1_554 S
Li882 N927 1.990 . S
Li882 O940 1.961 . S
Li882 O942 1.956 . S
Li882 O943 1.970 1_554 S
Li883 N933 1.990 . S
Li883 O941 1.961 1_556 S
Li883 O942 1.970 1_556 S
Li883 O943 1.956 . S
C884 C886 1.348 . S
C884 C887 1.356 . S
C884 O940 1.325 . S
N885 C888 1.314 . S
N885 C889 1.279 . S
C886 C884 1.348 . S
C886 C888 1.353 . S
C886 H944 0.929 . S
C887 C884 1.356 . S
C887 C889 1.358 . S
C887 H945 0.930 . S
C888 N885 1.314 . S
C888 C886 1.353 . S
C888 H946 0.930 . S
C889 N885 1.279 . S
C889 C887 1.358 . S
C889 H947 0.930 . S
C890 C893 1.348 . S
C890 C894 1.356 1_554 S
C890 O941 1.325 . S
C891 N892 1.279 . S
C891 C894 1.358 1_554 S
C891 H948 0.930 1_554 S
N892 C891 1.279 . S
N892 C895 1.314 . S
C893 C890 1.348 . S
C893 C895 1.353 . S
C893 H949 0.929 . S
C894 C890 1.356 1_556 S
C894 C891 1.358 1_556 S
C894 H950 0.930 . S
C895 N892 1.314 . S
C895 C893 1.353 . S
C895 H951 0.930 . S
C896 N897 1.314 . S
C896 C901 1.353 . S
C896 H902 0.930 . S
N897 Li880 1.990 . S
N897 C896 1.314 . S
N897 C899 1.279 . S
C898 C899 1.358 . S
C898 C900 1.356 . S
C898 H952 0.930 . S
C899 N897 1.279 . S
C899 C898 1.358 . S
C899 H903 0.930 . S
C900 C898 1.356 . S
C900 C901 1.348 . S
C901 C896 1.353 . S
C901 C900 1.348 . S
C901 H953 0.929 . S
H902 C896 0.930 . S
H903 C899 0.930 . S
C904 N905 1.314 1_556 S
C904 C906 1.353 . S
C904 H910 0.930 . S
N905 Li881 1.990 . S
N905 C904 1.314 1_554 S
N905 C908 1.279 . S
C906 C904 1.353 . S
C906 C909 1.347 1_556 S
C906 H954 0.929 . S
C907 C908 1.358 . S
C907 C909 1.356 . S
C907 H955 0.930 . S
C908 N905 1.279 . S
C908 C907 1.358 . S
C908 H911 0.930 . S
C909 C906 1.347 1_554 S
C909 C907 1.356 . S
H910 C904 0.930 . S
H911 C908 0.930 . S
C912 C914 1.348 1_554 S
C912 C915 1.356 . S
C912 O942 1.325 . S
N913 C916 1.314 . S
N913 C917 1.279 . S
C914 C912 1.348 1_556 S
C914 C916 1.353 1_556 S
C914 H956 0.929 . S
C915 C912 1.356 . S
C915 C917 1.358 . S
C915 H957 0.930 . S
C916 N913 1.314 . S
C916 C914 1.353 1_554 S
C916 H958 0.930 1_554 S
C917 N913 1.279 . S
C917 C915 1.358 . S
C917 H959 0.930 . S
C918 C919 1.348 . S
C918 C920 1.356 . S
C918 O943 1.325 . S
C919 C918 1.348 . S
C919 C921 1.353 . S
C919 H960 0.929 . S
C920 C918 1.356 . S
C920 C922 1.358 . S
C920 H961 0.930 . S
C921 C919 1.353 . S
C921 N923 1.314 . S
C921 H962 0.930 . S
C922 C920 1.358 . S
C922 N923 1.279 . S
C922 H963 0.930 . S
N923 C921 1.314 . S
N923 C922 1.279 . S
C924 C926 1.353 . S
C924 N927 1.314 . S
C924 H930 0.930 . S
C925 N927 1.279 . S
C925 C928 1.358 1_554 S
C925 H931 0.930 . S
C926 C924 1.353 . S
C926 C929 1.347 1_554 S
C926 H964 0.929 . S
N927 Li882 1.990 . S
N927 C924 1.314 . S
N927 C925 1.279 . S
C928 C925 1.358 1_556 S
C928 C929 1.356 . S
C928 H965 0.931 . S
C929 C926 1.347 1_556 S
C929 C928 1.356 . S
H930 C924 0.930 . S
H931 C925 0.930 . S
C932 N933 1.314 . S
C932 C934 1.353 . S
C932 H938 0.930 . S
N933 Li883 1.990 . S
N933 C932 1.314 . S
N933 C936 1.279 . S
C934 C932 1.353 . S
C934 C937 1.348 . S
C934 H966 0.929 . S
C935 C936 1.358 . S
C935 C937 1.356 . S
C935 H967 0.930 . S
C936 N933 1.279 . S
C936 C935 1.358 . S
C936 H939 0.930 . S
C937 C934 1.348 . S
C937 C935 1.356 . S
H938 C932 0.930 . S
H939 C936 0.930 . S
O940 Li880 1.956 . S
O940 Li881 1.970 . S
O940 Li882 1.961 . S
O940 C884 1.325 . S
O941 Li880 1.970 . S
O941 Li881 1.956 . S
O941 Li883 1.961 1_554 S
O941 C890 1.325 . S
O942 Li880 1.961 . S
O942 Li882 1.956 . S
O942 Li883 1.970 1_554 S
O942 C912 1.325 . S
O943 Li881 1.961 1_556 S
O943 Li882 1.970 1_556 S
O943 Li883 1.956 . S
O943 C918 1.325 . S
H944 C886 0.929 . S
H945 C887 0.930 . S
H946 C888 0.930 . S
H947 C889 0.930 . S
H948 C891 0.930 1_556 S
H949 C893 0.929 . S
H950 C894 0.930 . S
H951 C895 0.930 . S
H952 C898 0.930 . S
H953 C901 0.929 . S
H954 C906 0.929 . S
H955 C907 0.930 . S
H956 C914 0.929 . S
H957 C915 0.930 . S
H958 C916 0.930 1_556 S
H959 C917 0.930 . S
H960 C919 0.929 . S
H961 C920 0.930 . S
H962 C921 0.930 . S
H963 C922 0.930 . S
H964 C926 0.929 . S
H965 C928 0.931 . S
H966 C934 0.929 . S
H967 C935 0.930 . S
Li968 N985 1.990 . S
Li968 O1028 1.956 . S
Li968 O1029 1.970 . S
Li968 O1030 1.961 . S
Li969 N993 1.990 . S
Li969 O1028 1.970 . S
Li969 O1029 1.956 . S
Li969 O1031 1.961 . S
Li970 N1015 1.990 . S
Li970 O1028 1.961 . S
Li970 O1030 1.956 . S
Li970 O1031 1.970 . S
Li971 N1021 1.990 . S
Li971 O1029 1.961 . S
Li971 O1030 1.970 . S
Li971 O1031 1.956 . S
C972 C974 1.348 . S
C972 C975 1.356 . S
C972 O1028 1.325 . S
N973 C976 1.314 . S
N973 C977 1.279 . S
C974 C972 1.348 . S
C974 C976 1.353 . S
C974 H1032 0.929 . S
C975 C972 1.356 . S
C975 C977 1.358 . S
C975 H1033 0.930 . S
C976 N973 1.314 . S
C976 C974 1.353 . S
C976 H1034 0.930 . S
C977 N973 1.279 . S
C977 C975 1.358 . S
C977 H1035 0.930 . S
C978 C981 1.348 . S
C978 C982 1.356 . S
C978 O1029 1.325 . S
C979 N980 1.279 . S
C979 C982 1.358 . S
C979 H1036 0.930 . S
N980 C979 1.279 . S
N980 C983 1.314 . S
C981 C978 1.348 . S
C981 C983 1.353 . S
C981 H1037 0.929 . S
C982 C978 1.356 . S
C982 C979 1.358 . S
C982 H1038 0.930 . S
C983 N980 1.314 . S
C983 C981 1.353 . S
C983 H1039 0.930 . S
C984 N985 1.314 . S
C984 C989 1.353 . S
C984 H990 0.930 . S
N985 Li968 1.990 . S
N985 C984 1.314 . S
N985 C987 1.279 . S
C986 C987 1.358 . S
C986 C988 1.356 . S
C986 H1040 0.930 . S
C987 N985 1.279 . S
C987 C986 1.358 . S
C987 H991 0.930 . S
C988 C986 1.356 . S
C988 C989 1.348 . S
C989 C984 1.353 . S
C989 C988 1.348 . S
C989 H1041 0.929 . S
H990 C984 0.930 . S
H991 C987 0.930 . S
C992 N993 1.314 . S
C992 C994 1.353 . S
C992 H998 0.930 . S
N993 Li969 1.990 . S
N993 C992 1.314 . S
N993 C996 1.279 . S
C994 C992 1.353 . S
C994 C997 1.348 . S
C994 H1042 0.929 . S
C995 C996 1.358 . S
C995 C997 1.356 . S
C995 H1043 0.930 . S
C996 N993 1.279 . S
C996 C995 1.358 . S
C996 H999 0.930 . S
C997 C994 1.348 . S
C997 C995 1.356 . S
H998 C992 0.930 . S
H999 C996 0.930 . S
C1000 C1002 1.348 . S
C1000 C1003 1.356 . S
C1000 O1030 1.325 . S
N1001 C1004 1.314 . S
N1001 C1005 1.279 . S
C1002 C1000 1.348 . S
C1002 C1004 1.353 . S
C1002 H1044 0.929 . S
C1003 C1000 1.356 . S
C1003 C1005 1.358 . S
C1003 H1045 0.930 . S
C1004 N1001 1.314 . S
C1004 C1002 1.353 . S
C1004 H1046 0.930 . S
C1005 N1001 1.279 . S
C1005 C1003 1.358 . S
C1005 H1047 0.930 . S
C1006 C1007 1.348 . S
C1006 C1008 1.356 . S
C1006 O1031 1.325 . S
C1007 C1006 1.348 . S
C1007 C1009 1.353 . S
C1007 H1048 0.929 . S
C1008 C1006 1.356 . S
C1008 C1010 1.358 . S
C1008 H1049 0.930 . S
C1009 C1007 1.353 . S
C1009 N1011 1.314 . S
C1009 H1050 0.930 . S
C1010 C1008 1.358 . S
C1010 N1011 1.279 . S
C1010 H1051 0.930 . S
N1011 C1009 1.314 . S
N1011 C1010 1.279 . S
C1012 C1014 1.353 . S
C1012 N1015 1.314 . S
C1012 H1018 0.930 . S
C1013 N1015 1.279 . S
C1013 C1016 1.358 . S
C1013 H1019 0.930 . S
C1014 C1012 1.353 . S
C1014 C1017 1.348 . S
C1014 H1052 0.929 . S
N1015 Li970 1.990 . S
N1015 C1012 1.314 . S
N1015 C1013 1.279 . S
C1016 C1013 1.358 . S
C1016 C1017 1.356 . S
C1016 H1053 0.930 . S
C1017 C1014 1.348 . S
C1017 C1016 1.356 . S
H1018 C1012 0.930 . S
H1019 C1013 0.930 . S
C1020 N1021 1.314 . S
C1020 C1022 1.353 . S
C1020 H1026 0.930 . S
N1021 Li971 1.990 . S
N1021 C1020 1.314 . S
N1021 C1024 1.279 . S
C1022 C1020 1.353 . S
C1022 C1025 1.348 . S
C1022 H1054 0.929 . S
C1023 C1024 1.358 . S
C1023 C1025 1.356 . S
C1023 H1055 0.930 . S
C1024 N1021 1.279 . S
C1024 C1023 1.358 . S
C1024 H1027 0.930 . S
C1025 C1022 1.348 . S
C1025 C1023 1.356 . S
H1026 C1020 0.930 . S
H1027 C1024 0.930 . S
O1028 Li968 1.956 . S
O1028 Li969 1.970 . S
O1028 Li970 1.961 . S
O1028 C972 1.325 . S
O1029 Li968 1.970 . S
O1029 Li969 1.956 . S
O1029 Li971 1.961 . S
O1029 C978 1.325 . S
O1030 Li968 1.961 . S
O1030 Li970 1.956 . S
O1030 Li971 1.970 . S
O1030 C1000 1.325 . S
O1031 Li969 1.961 . S
O1031 Li970 1.970 . S
O1031 Li971 1.956 . S
O1031 C1006 1.325 . S
H1032 C974 0.929 . S
H1033 C975 0.930 . S
H1034 C976 0.930 . S
H1035 C977 0.930 . S
H1036 C979 0.930 . S
H1037 C981 0.929 . S
H1038 C982 0.930 . S
H1039 C983 0.930 . S
H1040 C986 0.930 . S
H1041 C989 0.929 . S
H1042 C994 0.929 . S
H1043 C995 0.930 . S
H1044 C1002 0.929 . S
H1045 C1003 0.930 . S
H1046 C1004 0.930 . S
H1047 C1005 0.930 . S
H1048 C1007 0.929 . S
H1049 C1008 0.930 . S
H1050 C1009 0.930 . S
H1051 C1010 0.930 . S
H1052 C1014 0.929 . S
H1053 C1016 0.930 . S
H1054 C1022 0.929 . S
H1055 C1023 0.930 . S
Li1056 N1073 1.990 . S
Li1056 O1116 1.956 . S
Li1056 O1117 1.970 . S
Li1056 O1118 1.961 . S
Li1057 N1081 1.990 . S
Li1057 O1116 1.970 . S
Li1057 O1117 1.956 . S
Li1057 O1119 1.961 . S
Li1058 N1103 1.990 . S
Li1058 O1116 1.961 . S
Li1058 O1118 1.956 . S
Li1058 O1119 1.970 . S
Li1059 N1109 1.990 . S
Li1059 O1117 1.961 . S
Li1059 O1118 1.970 . S
Li1059 O1119 1.956 . S
C1060 C1062 1.348 . S
C1060 C1063 1.356 . S
C1060 O1116 1.325 . S
N1061 C1064 1.314 . S
N1061 C1065 1.279 . S
C1062 C1060 1.348 . S
C1062 C1064 1.353 . S
C1062 H1120 0.929 . S
C1063 C1060 1.356 . S
C1063 C1065 1.358 . S
C1063 H1121 0.930 . S
C1064 N1061 1.314 . S
C1064 C1062 1.353 . S
C1064 H1122 0.930 . S
C1065 N1061 1.279 . S
C1065 C1063 1.358 . S
C1065 H1123 0.930 . S
C1066 C1069 1.348 . S
C1066 C1070 1.356 . S
C1066 O1117 1.325 . S
C1067 N1068 1.279 . S
C1067 C1070 1.358 . S
C1067 H1124 0.930 . S
N1068 C1067 1.279 . S
N1068 C1071 1.314 . S
C1069 C1066 1.348 . S
C1069 C1071 1.353 . S
C1069 H1125 0.929 . S
C1070 C1066 1.356 . S
C1070 C1067 1.358 . S
C1070 H1126 0.930 . S
C1071 N1068 1.314 . S
C1071 C1069 1.353 . S
C1071 H1127 0.930 . S
C1072 N1073 1.314 . S
C1072 C1077 1.353 . S
C1072 H1078 0.930 . S
N1073 Li1056 1.990 . S
N1073 C1072 1.314 . S
N1073 C1075 1.279 . S
C1074 C1075 1.358 . S
C1074 C1076 1.356 . S
C1074 H1128 0.930 . S
C1075 N1073 1.279 . S
C1075 C1074 1.358 . S
C1075 H1079 0.930 . S
C1076 C1074 1.356 . S
C1076 C1077 1.348 . S
C1077 C1072 1.353 . S
C1077 C1076 1.348 . S
C1077 H1129 0.929 . S
H1078 C1072 0.930 . S
H1079 C1075 0.930 . S
C1080 N1081 1.314 . S
C1080 C1082 1.353 . S
C1080 H1086 0.930 . S
N1081 Li1057 1.990 . S
N1081 C1080 1.314 . S
N1081 C1084 1.279 . S
C1082 C1080 1.353 . S
C1082 C1085 1.348 . S
C1082 H1130 0.929 . S
C1083 C1084 1.358 . S
C1083 C1085 1.356 . S
C1083 H1131 0.930 . S
C1084 N1081 1.279 . S
C1084 C1083 1.358 . S
C1084 H1087 0.930 . S
C1085 C1082 1.348 . S
C1085 C1083 1.356 . S
H1086 C1080 0.930 . S
H1087 C1084 0.930 . S
C1088 C1090 1.348 . S
C1088 C1091 1.356 . S
C1088 O1118 1.325 . S
N1089 C1092 1.314 . S
N1089 C1093 1.279 . S
C1090 C1088 1.348 . S
C1090 C1092 1.353 . S
C1090 H1132 0.929 . S
C1091 C1088 1.356 . S
C1091 C1093 1.358 . S
C1091 H1133 0.930 . S
C1092 N1089 1.314 . S
C1092 C1090 1.353 . S
C1092 H1134 0.930 . S
C1093 N1089 1.279 . S
C1093 C1091 1.358 . S
C1093 H1135 0.930 . S
C1094 C1095 1.348 . S
C1094 C1096 1.356 . S
C1094 O1119 1.325 . S
C1095 C1094 1.348 . S
C1095 C1097 1.353 . S
C1095 H1136 0.929 . S
C1096 C1094 1.356 . S
C1096 C1098 1.358 . S
C1096 H1137 0.930 . S
C1097 C1095 1.353 . S
C1097 N1099 1.314 . S
C1097 H1138 0.930 . S
C1098 C1096 1.358 . S
C1098 N1099 1.279 . S
C1098 H1139 0.930 . S
N1099 C1097 1.314 . S
N1099 C1098 1.279 . S
C1100 C1102 1.353 . S
C1100 N1103 1.314 . S
C1100 H1106 0.930 . S
C1101 N1103 1.279 . S
C1101 C1104 1.358 . S
C1101 H1107 0.930 . S
C1102 C1100 1.353 . S
C1102 C1105 1.348 . S
C1102 H1140 0.929 . S
N1103 Li1058 1.990 . S
N1103 C1100 1.314 . S
N1103 C1101 1.279 . S
C1104 C1101 1.358 . S
C1104 C1105 1.356 . S
C1104 H1141 0.930 . S
C1105 C1102 1.348 . S
C1105 C1104 1.356 . S
H1106 C1100 0.930 . S
H1107 C1101 0.930 . S
C1108 N1109 1.314 . S
C1108 C1110 1.353 . S
C1108 H1114 0.930 . S
N1109 Li1059 1.990 . S
N1109 C1108 1.314 . S
N1109 C1112 1.279 . S
C1110 C1108 1.353 . S
C1110 C1113 1.348 . S
C1110 H1142 0.929 . S
C1111 C1112 1.358 . S
C1111 C1113 1.356 . S
C1111 H1143 0.930 . S
C1112 N1109 1.279 . S
C1112 C1111 1.358 . S
C1112 H1115 0.930 . S
C1113 C1110 1.348 . S
C1113 C1111 1.356 . S
H1114 C1108 0.930 . S
H1115 C1112 0.930 . S
O1116 Li1056 1.956 . S
O1116 Li1057 1.970 . S
O1116 Li1058 1.961 . S
O1116 C1060 1.325 . S
O1117 Li1056 1.970 . S
O1117 Li1057 1.956 . S
O1117 Li1059 1.961 . S
O1117 C1066 1.325 . S
O1118 Li1056 1.961 . S
O1118 Li1058 1.956 . S
O1118 Li1059 1.970 . S
O1118 C1088 1.325 . S
O1119 Li1057 1.961 . S
O1119 Li1058 1.970 . S
O1119 Li1059 1.956 . S
O1119 C1094 1.325 . S
H1120 C1062 0.929 . S
H1121 C1063 0.930 . S
H1122 C1064 0.930 . S
H1123 C1065 0.930 . S
H1124 C1067 0.930 . S
H1125 C1069 0.929 . S
H1126 C1070 0.930 . S
H1127 C1071 0.930 . S
H1128 C1074 0.930 . S
H1129 C1077 0.929 . S
H1130 C1082 0.929 . S
H1131 C1083 0.930 . S
H1132 C1090 0.929 . S
H1133 C1091 0.930 . S
H1134 C1092 0.930 . S
H1135 C1093 0.930 . S
H1136 C1095 0.929 . S
H1137 C1096 0.930 . S
H1138 C1097 0.930 . S
H1139 C1098 0.930 . S
H1140 C1102 0.929 . S
H1141 C1104 0.930 . S
H1142 C1110 0.929 . S
H1143 C1111 0.930 . S
Li1144 N1161 1.994 . S
Li1144 O1204 1.998 . S
Li1144 O1205 1.926 1_455 S
Li1144 O1206 1.958 1_455 S
Li1145 N1169 1.993 . S
Li1145 O1204 1.938 1_655 S
Li1145 O1205 1.987 . S
Li1145 O1207 1.958 1_655 S
Li1146 N1191 1.990 . S
Li1146 O1204 1.961 . S
Li1146 O1206 1.930 1_455 S
Li1146 O1207 2.005 . S
Li1147 N1197 1.990 . S
Li1147 O1205 1.961 . S
Li1147 O1206 1.995 . S
Li1147 O1207 1.919 1_655 S
C1148 C1150 1.348 . S
C1148 C1151 1.356 . S
C1148 O1204 1.325 . S
N1149 C1152 1.314 . S
N1149 C1153 1.279 . S
C1150 C1148 1.348 . S
C1150 C1152 1.353 . S
C1150 H1208 0.929 . S
C1151 C1148 1.356 . S
C1151 C1153 1.358 . S
C1151 H1209 0.930 . S
C1152 N1149 1.314 . S
C1152 C1150 1.353 . S
C1152 H1210 0.930 . S
C1153 N1149 1.279 . S
C1153 C1151 1.358 . S
C1153 H1211 0.930 . S
C1154 C1157 1.348 . S
C1154 C1158 1.356 . S
C1154 O1205 1.325 . S
C1155 N1156 1.279 . S
C1155 C1158 1.358 . S
C1155 H1212 0.930 . S
N1156 C1155 1.279 . S
N1156 C1159 1.314 . S
C1157 C1154 1.348 . S
C1157 C1159 1.353 . S
C1157 H1213 0.929 . S
C1158 C1154 1.356 . S
C1158 C1155 1.358 . S
C1158 H1214 0.930 . S
C1159 N1156 1.314 . S
C1159 C1157 1.353 . S
C1159 H1215 0.930 . S
C1160 N1161 1.314 1_655 S
C1160 C1165 1.353 . S
C1160 H1166 0.930 . S
N1161 Li1144 1.994 . S
N1161 C1160 1.314 1_455 S
N1161 C1163 1.279 . S
C1162 C1163 1.358 . S
C1162 C1164 1.356 . S
C1162 H1216 0.930 . S
C1163 N1161 1.279 . S
C1163 C1162 1.358 . S
C1163 H1167 0.930 . S
C1164 C1162 1.356 . S
C1164 C1165 1.348 1_455 S
C1165 C1160 1.353 . S
C1165 C1164 1.348 1_655 S
C1165 H1217 0.929 . S
H1166 C1160 0.930 . S
H1167 C1163 0.930 . S
C1168 N1169 1.314 1_455 S
C1168 C1170 1.353 . S
C1168 H1174 0.930 . S
N1169 Li1145 1.993 . S
N1169 C1168 1.314 1_655 S
N1169 C1172 1.279 . S
C1170 C1168 1.353 . S
C1170 C1173 1.348 . S
C1170 H1218 0.929 . S
C1171 C1172 1.358 . S
C1171 C1173 1.356 1_655 S
C1171 H1219 0.930 . S
C1172 N1169 1.279 . S
C1172 C1171 1.358 . S
C1172 H1175 0.930 . S
C1173 C1170 1.348 . S
C1173 C1171 1.356 1_455 S
H1174 C1168 0.930 . S
H1175 C1172 0.930 . S
C1176 C1178 1.348 1_455 S
C1176 C1179 1.356 . S
C1176 O1206 1.324 1_455 S
N1177 C1180 1.314 1_455 S
N1177 C1181 1.279 . S
C1178 C1176 1.348 1_655 S
C1178 C1180 1.353 . S
C1178 H1220 0.929 . S
C1179 C1176 1.356 . S
C1179 C1181 1.358 . S
C1179 H1221 0.930 . S
C1180 N1177 1.314 1_655 S
C1180 C1178 1.353 . S
C1180 H1222 0.930 . S
C1181 N1177 1.279 . S
C1181 C1179 1.358 . S
C1181 H1223 0.930 . S
C1182 C1183 1.348 . S
C1182 C1184 1.356 1_455 S
C1182 O1207 1.324 . S
C1183 C1182 1.348 . S
C1183 C1185 1.353 . S
C1183 H1224 0.929 . S
C1184 C1182 1.356 1_655 S
C1184 C1186 1.358 . S
C1184 H1225 0.930 . S
C1185 C1183 1.353 . S
C1185 N1187 1.314 1_455 S
C1185 H1226 0.930 . S
C1186 C1184 1.358 . S
C1186 N1187 1.279 . S
C1186 H1227 0.930 . S
N1187 C1185 1.314 1_655 S
N1187 C1186 1.279 . S
C1188 C1190 1.353 . S
C1188 N1191 1.314 . S
C1188 H1194 0.930 . S
C1189 N1191 1.279 . S
C1189 C1192 1.358 . S
C1189 H1195 0.930 . S
C1190 C1188 1.353 . S
C1190 C1193 1.348 . S
C1190 H1228 0.929 . S
N1191 Li1146 1.990 . S
N1191 C1188 1.314 . S
N1191 C1189 1.279 . S
C1192 C1189 1.358 . S
C1192 C1193 1.356 . S
C1192 H1229 0.930 . S
C1193 C1190 1.348 . S
C1193 C1192 1.356 . S
H1194 C1188 0.930 . S
H1195 C1189 0.930 . S
C1196 N1197 1.314 . S
C1196 C1198 1.353 . S
C1196 H1202 0.930 . S
N1197 Li1147 1.990 . S
N1197 C1196 1.314 . S
N1197 C1200 1.279 . S
C1198 C1196 1.353 . S
C1198 C1201 1.348 . S
C1198 H1230 0.929 . S
C1199 C1200 1.358 . S
C1199 C1201 1.356 . S
C1199 H1231 0.930 . S
C1200 N1197 1.279 . S
C1200 C1199 1.358 . S
C1200 H1203 0.930 . S
C1201 C1198 1.348 . S
C1201 C1199 1.356 . S
H1202 C1196 0.930 . S
H1203 C1200 0.930 . S
O1204 Li1144 1.998 . S
O1204 Li1145 1.938 1_455 S
O1204 Li1146 1.961 . S
O1204 C1148 1.325 . S
O1205 Li1144 1.926 1_655 S
O1205 Li1145 1.987 . S
O1205 Li1147 1.961 . S
O1205 C1154 1.325 . S
O1206 Li1144 1.958 1_655 S
O1206 Li1146 1.930 1_655 S
O1206 Li1147 1.995 . S
O1206 C1176 1.324 1_655 S
O1207 Li1145 1.958 1_455 S
O1207 Li1146 2.005 . S
O1207 Li1147 1.919 1_455 S
O1207 C1182 1.324 . S
H1208 C1150 0.929 . S
H1209 C1151 0.930 . S
H1210 C1152 0.930 . S
H1211 C1153 0.930 . S
H1212 C1155 0.930 . S
H1213 C1157 0.929 . S
H1214 C1158 0.930 . S
H1215 C1159 0.930 . S
H1216 C1162 0.930 . S
H1217 C1165 0.929 . S
H1218 C1170 0.929 . S
H1219 C1171 0.930 . S
H1220 C1178 0.929 . S
H1221 C1179 0.930 . S
H1222 C1180 0.930 . S
H1223 C1181 0.930 . S
H1224 C1183 0.929 . S
H1225 C1184 0.930 . S
H1226 C1185 0.930 . S
H1227 C1186 0.930 . S
H1228 C1190 0.929 . S
H1229 C1192 0.930 . S
H1230 C1198 0.929 . S
H1231 C1199 0.930 . S
Li1232 N1249 1.990 . S
Li1232 O1292 1.956 . S
Li1232 O1293 1.970 . S
Li1232 O1294 1.961 . S
Li1233 N1257 1.990 . S
Li1233 O1292 1.970 . S
Li1233 O1293 1.956 . S
Li1233 O1295 1.961 . S
Li1234 N1279 1.990 . S
Li1234 O1292 1.961 . S
Li1234 O1294 1.956 . S
Li1234 O1295 1.970 . S
Li1235 N1285 1.990 . S
Li1235 O1293 1.961 . S
Li1235 O1294 1.970 . S
Li1235 O1295 1.956 . S
C1236 C1238 1.348 . S
C1236 C1239 1.356 . S
C1236 O1292 1.325 . S
N1237 C1240 1.314 . S
N1237 C1241 1.279 . S
C1238 C1236 1.348 . S
C1238 C1240 1.353 . S
C1238 H1296 0.929 . S
C1239 C1236 1.356 . S
C1239 C1241 1.358 . S
C1239 H1297 0.930 . S
C1240 N1237 1.314 . S
C1240 C1238 1.353 . S
C1240 H1298 0.930 . S
C1241 N1237 1.279 . S
C1241 C1239 1.358 . S
C1241 H1299 0.930 . S
C1242 C1245 1.348 . S
C1242 C1246 1.356 . S
C1242 O1293 1.325 . S
C1243 N1244 1.279 . S
C1243 C1246 1.358 . S
C1243 H1300 0.930 . S
N1244 C1243 1.279 . S
N1244 C1247 1.314 . S
C1245 C1242 1.348 . S
C1245 C1247 1.353 . S
C1245 H1301 0.929 . S
C1246 C1242 1.356 . S
C1246 C1243 1.358 . S
C1246 H1302 0.930 . S
C1247 N1244 1.314 . S
C1247 C1245 1.353 . S
C1247 H1303 0.930 . S
C1248 N1249 1.314 . S
C1248 C1253 1.353 . S
C1248 H1254 0.930 . S
N1249 Li1232 1.990 . S
N1249 C1248 1.314 . S
N1249 C1251 1.279 . S
C1250 C1251 1.358 . S
C1250 C1252 1.356 . S
C1250 H1304 0.930 . S
C1251 N1249 1.279 . S
C1251 C1250 1.358 . S
C1251 H1255 0.930 . S
C1252 C1250 1.356 . S
C1252 C1253 1.348 . S
C1253 C1248 1.353 . S
C1253 C1252 1.348 . S
C1253 H1305 0.929 . S
H1254 C1248 0.930 . S
H1255 C1251 0.930 . S
C1256 N1257 1.314 . S
C1256 C1258 1.353 . S
C1256 H1262 0.930 . S
N1257 Li1233 1.990 . S
N1257 C1256 1.314 . S
N1257 C1260 1.279 . S
C1258 C1256 1.353 . S
C1258 C1261 1.348 . S
C1258 H1306 0.929 . S
C1259 C1260 1.358 . S
C1259 C1261 1.356 . S
C1259 H1307 0.930 . S
C1260 N1257 1.279 . S
C1260 C1259 1.358 . S
C1260 H1263 0.930 . S
C1261 C1258 1.348 . S
C1261 C1259 1.356 . S
H1262 C1256 0.930 . S
H1263 C1260 0.930 . S
C1264 C1266 1.348 . S
C1264 C1267 1.356 . S
C1264 O1294 1.325 . S
N1265 C1268 1.314 . S
N1265 C1269 1.279 . S
C1266 C1264 1.348 . S
C1266 C1268 1.353 . S
C1266 H1308 0.929 . S
C1267 C1264 1.356 . S
C1267 C1269 1.358 . S
C1267 H1309 0.930 . S
C1268 N1265 1.314 . S
C1268 C1266 1.353 . S
C1268 H1310 0.930 . S
C1269 N1265 1.279 . S
C1269 C1267 1.358 . S
C1269 H1311 0.930 . S
C1270 C1271 1.348 . S
C1270 C1272 1.356 . S
C1270 O1295 1.325 . S
C1271 C1270 1.348 . S
C1271 C1273 1.353 . S
C1271 H1312 0.929 . S
C1272 C1270 1.356 . S
C1272 C1274 1.358 . S
C1272 H1313 0.930 . S
C1273 C1271 1.353 . S
C1273 N1275 1.314 . S
C1273 H1314 0.930 . S
C1274 C1272 1.358 . S
C1274 N1275 1.279 . S
C1274 H1315 0.930 . S
N1275 C1273 1.314 . S
N1275 C1274 1.279 . S
C1276 C1278 1.353 . S
C1276 N1279 1.314 . S
C1276 H1282 0.930 . S
C1277 N1279 1.279 . S
C1277 C1280 1.358 . S
C1277 H1283 0.930 . S
C1278 C1276 1.353 . S
C1278 C1281 1.348 . S
C1278 H1316 0.929 . S
N1279 Li1234 1.990 . S
N1279 C1276 1.314 . S
N1279 C1277 1.279 . S
C1280 C1277 1.358 . S
C1280 C1281 1.356 . S
C1280 H1317 0.930 . S
C1281 C1278 1.348 . S
C1281 C1280 1.356 . S
H1282 C1276 0.930 . S
H1283 C1277 0.930 . S
C1284 N1285 1.314 . S
C1284 C1286 1.353 . S
C1284 H1290 0.930 . S
N1285 Li1235 1.990 . S
N1285 C1284 1.314 . S
N1285 C1288 1.279 . S
C1286 C1284 1.353 . S
C1286 C1289 1.348 . S
C1286 H1318 0.929 . S
C1287 C1288 1.358 . S
C1287 C1289 1.356 . S
C1287 H1319 0.930 . S
C1288 N1285 1.279 . S
C1288 C1287 1.358 . S
C1288 H1291 0.930 . S
C1289 C1286 1.348 . S
C1289 C1287 1.356 . S
H1290 C1284 0.930 . S
H1291 C1288 0.930 . S
O1292 Li1232 1.956 . S
O1292 Li1233 1.970 . S
O1292 Li1234 1.961 . S
O1292 C1236 1.325 . S
O1293 Li1232 1.970 . S
O1293 Li1233 1.956 . S
O1293 Li1235 1.961 . S
O1293 C1242 1.325 . S
O1294 Li1232 1.961 . S
O1294 Li1234 1.956 . S
O1294 Li1235 1.970 . S
O1294 C1264 1.325 . S
O1295 Li1233 1.961 . S
O1295 Li1234 1.970 . S
O1295 Li1235 1.956 . S
O1295 C1270 1.325 . S
H1296 C1238 0.929 . S
H1297 C1239 0.930 . S
H1298 C1240 0.930 . S
H1299 C1241 0.930 . S
H1300 C1243 0.930 . S
H1301 C1245 0.929 . S
H1302 C1246 0.930 . S
H1303 C1247 0.930 . S
H1304 C1250 0.930 . S
H1305 C1253 0.929 . S
H1306 C1258 0.929 . S
H1307 C1259 0.930 . S
H1308 C1266 0.929 . S
H1309 C1267 0.930 . S
H1310 C1268 0.930 . S
H1311 C1269 0.930 . S
H1312 C1271 0.929 . S
H1313 C1272 0.930 . S
H1314 C1273 0.930 . S
H1315 C1274 0.930 . S
H1316 C1278 0.929 . S
H1317 C1280 0.930 . S
H1318 C1286 0.929 . S
H1319 C1287 0.930 . S
Li1320 N1337 1.990 . S
Li1320 O1380 1.930 1_455 S
Li1320 O1381 2.005 . S
Li1320 O1382 1.961 . S
Li1321 N1345 1.990 . S
Li1321 O1380 1.995 . S
Li1321 O1381 1.919 1_655 S
Li1321 O1383 1.961 . S
Li1322 N1367 1.994 . S
Li1322 O1380 1.958 1_455 S
Li1322 O1382 1.998 . S
Li1322 O1383 1.926 1_455 S
Li1323 N1373 1.993 . S
Li1323 O1381 1.958 1_655 S
Li1323 O1382 1.938 1_655 S
Li1323 O1383 1.987 . S
C1324 C1326 1.348 1_455 S
C1324 C1327 1.356 . S
C1324 O1380 1.324 1_455 S
N1325 C1328 1.314 1_455 S
N1325 C1329 1.279 . S
C1326 C1324 1.348 1_655 S
C1326 C1328 1.353 1_556 S
C1326 H1384 0.929 . S
C1327 C1324 1.356 . S
C1327 C1329 1.358 1_556 S
C1327 H1385 0.930 . S
C1328 N1325 1.314 1_655 S
C1328 C1326 1.353 1_554 S
C1328 H1386 0.930 . S
C1329 N1325 1.279 . S
C1329 C1327 1.358 1_554 S
C1329 H1387 0.930 . S
C1330 C1333 1.348 . S
C1330 C1334 1.356 1_455 S
C1330 O1381 1.324 . S
C1331 N1332 1.279 . S
C1331 C1334 1.358 . S
C1331 H1388 0.930 . S
N1332 C1331 1.279 . S
N1332 C1335 1.314 1_655 S
C1333 C1330 1.348 . S
C1333 C1335 1.353 . S
C1333 H1389 0.929 . S
C1334 C1330 1.356 1_655 S
C1334 C1331 1.358 . S
C1334 H1390 0.930 . S
C1335 N1332 1.314 1_455 S
C1335 C1333 1.353 . S
C1335 H1391 0.930 . S
C1336 N1337 1.314 . S
C1336 C1341 1.353 . S
C1336 H1342 0.930 . S
N1337 Li1320 1.990 . S
N1337 C1336 1.314 . S
N1337 C1339 1.279 . S
C1338 C1339 1.358 . S
C1338 C1340 1.356 . S
C1338 H1392 0.930 . S
C1339 N1337 1.279 . S
C1339 C1338 1.358 . S
C1339 H1343 0.930 . S
C1340 C1338 1.356 . S
C1340 C1341 1.348 . S
C1341 C1336 1.353 . S
C1341 C1340 1.348 . S
C1341 H1393 0.929 . S
H1342 C1336 0.930 . S
H1343 C1339 0.930 . S
C1344 N1345 1.314 . S
C1344 C1346 1.353 . S
C1344 H1350 0.930 . S
N1345 Li1321 1.990 . S
N1345 C1344 1.314 . S
N1345 C1348 1.279 . S
C1346 C1344 1.353 . S
C1346 C1349 1.348 . S
C1346 H1394 0.929 . S
C1347 C1348 1.358 . S
C1347 C1349 1.356 . S
C1347 H1395 0.930 . S
C1348 N1345 1.279 . S
C1348 C1347 1.358 . S
C1348 H1351 0.930 . S
C1349 C1346 1.348 . S
C1349 C1347 1.356 . S
H1350 C1344 0.930 . S
H1351 C1348 0.930 . S
C1352 C1354 1.348 . S
C1352 C1355 1.356 . S
C1352 O1382 1.325 . S
N1353 C1356 1.314 . S
N1353 C1357 1.279 . S
C1354 C1352 1.348 . S
C1354 C1356 1.353 . S
C1354 H1396 0.929 . S
C1355 C1352 1.356 . S
C1355 C1357 1.358 . S
C1355 H1397 0.930 . S
C1356 N1353 1.314 . S
C1356 C1354 1.353 . S
C1356 H1398 0.930 . S
C1357 N1353 1.279 . S
C1357 C1355 1.358 . S
C1357 H1399 0.930 . S
C1358 C1359 1.348 . S
C1358 C1360 1.356 . S
C1358 O1383 1.325 . S
C1359 C1358 1.348 . S
C1359 C1361 1.353 . S
C1359 H1400 0.929 . S
C1360 C1358 1.356 . S
C1360 C1362 1.358 . S
C1360 H1401 0.930 . S
C1361 C1359 1.353 . S
C1361 N1363 1.314 . S
C1361 H1402 0.930 . S
C1362 C1360 1.358 . S
C1362 N1363 1.279 . S
C1362 H1403 0.930 . S
N1363 C1361 1.314 . S
N1363 C1362 1.279 . S
C1364 C1366 1.353 1_556 S
C1364 N1367 1.314 1_655 S
C1364 H1370 0.930 . S
C1365 N1367 1.279 . S
C1365 C1368 1.358 . S
C1365 H1371 0.930 . S
C1366 C1364 1.353 1_554 S
C1366 C1369 1.348 1_655 S
C1366 H1404 0.929 . S
N1367 Li1322 1.994 . S
N1367 C1364 1.314 1_455 S
N1367 C1365 1.279 . S
C1368 C1365 1.358 . S
C1368 C1369 1.356 1_556 S
C1368 H1405 0.930 . S
C1369 C1366 1.348 1_455 S
C1369 C1368 1.356 1_554 S
H1370 C1364 0.930 . S
H1371 C1365 0.930 . S
C1372 N1373 1.314 1_455 S
C1372 C1374 1.353 . S
C1372 H1378 0.930 . S
N1373 Li1323 1.993 . S
N1373 C1372 1.314 1_655 S
N1373 C1376 1.279 . S
C1374 C1372 1.353 . S
C1374 C1377 1.348 . S
C1374 H1406 0.929 . S
C1375 C1376 1.358 . S
C1375 C1377 1.356 1_655 S
C1375 H1407 0.930 . S
C1376 N1373 1.279 . S
C1376 C1375 1.358 . S
C1376 H1379 0.930 . S
C1377 C1374 1.348 . S
C1377 C1375 1.356 1_455 S
H1378 C1372 0.930 . S
H1379 C1376 0.930 . S
O1380 Li1320 1.930 1_655 S
O1380 Li1321 1.995 . S
O1380 Li1322 1.958 1_655 S
O1380 C1324 1.324 1_655 S
O1381 Li1320 2.005 . S
O1381 Li1321 1.919 1_455 S
O1381 Li1323 1.958 1_455 S
O1381 C1330 1.324 . S
O1382 Li1320 1.961 . S
O1382 Li1322 1.998 . S
O1382 Li1323 1.938 1_455 S
O1382 C1352 1.325 . S
O1383 Li1321 1.961 . S
O1383 Li1322 1.926 1_655 S
O1383 Li1323 1.987 . S
O1383 C1358 1.325 . S
H1384 C1326 0.929 . S
H1385 C1327 0.930 . S
H1386 C1328 0.930 . S
H1387 C1329 0.930 . S
H1388 C1331 0.930 . S
H1389 C1333 0.929 . S
H1390 C1334 0.930 . S
H1391 C1335 0.930 . S
H1392 C1338 0.930 . S
H1393 C1341 0.929 . S
H1394 C1346 0.929 . S
H1395 C1347 0.930 . S
H1396 C1354 0.929 . S
H1397 C1355 0.930 . S
H1398 C1356 0.930 . S
H1399 C1357 0.930 . S
H1400 C1359 0.929 . S
H1401 C1360 0.930 . S
H1402 C1361 0.930 . S
H1403 C1362 0.930 . S
H1404 C1366 0.929 . S
H1405 C1368 0.930 . S
H1406 C1374 0.929 . S
H1407 C1375 0.930 . S
H1408 C1414 0.930 . S
H1409 C1417 0.930 . S
H1410 C1418 0.930 . S
H1411 C1419 0.930 . S
H1412 C1422 0.930 . S
H1413 C1423 0.930 . S
C1414 H1408 0.930 . S
C1414 C1415 1.355 . S
C1414 C1416 1.415 . S
C1415 C1414 1.355 . S
C1415 C1417 1.419 . S
C1416 C1414 1.415 . S
C1416 C1421 1.425 . S
C1416 C1423 1.409 . S
C1417 H1409 0.930 . S
C1417 C1415 1.419 . S
C1417 C1418 1.362 . S
C1418 H1410 0.930 . S
C1418 C1417 1.362 . S
C1418 C1421 1.409 . S
C1419 H1411 0.930 . S
C1419 C1420 1.355 . S
C1419 C1421 1.415 . S
C1420 C1419 1.355 . S
C1420 C1422 1.419 . S
C1421 C1416 1.425 . S
C1421 C1418 1.409 . S
C1421 C1419 1.415 . S
C1422 H1412 0.930 . S
C1422 C1420 1.419 . S
C1422 C1423 1.362 . S
C1423 H1413 0.930 . S
C1423 C1416 1.409 . S
C1423 C1422 1.362 . S
H1424 C1430 0.930 . S
H1425 C1433 0.930 . S
H1426 C1434 0.930 . S
H1427 C1435 0.930 . S
H1428 C1438 0.930 . S
H1429 C1439 0.930 . S
C1430 H1424 0.930 . S
C1430 C1431 1.355 . S
C1430 C1432 1.415 . S
C1431 C1430 1.355 . S
C1431 C1433 1.419 . S
C1432 C1430 1.415 . S
C1432 C1437 1.425 . S
C1432 C1439 1.409 . S
C1433 H1425 0.930 . S
C1433 C1431 1.419 . S
C1433 C1434 1.362 . S
C1434 H1426 0.930 . S
C1434 C1433 1.362 . S
C1434 C1437 1.409 . S
C1435 H1427 0.930 . S
C1435 C1436 1.355 . S
C1435 C1437 1.415 . S
C1436 C1435 1.355 . S
C1436 C1438 1.419 . S
C1437 C1432 1.425 . S
C1437 C1434 1.409 . S
C1437 C1435 1.415 . S
C1438 H1428 0.930 . S
C1438 C1436 1.419 . S
C1438 C1439 1.362 . S
C1439 H1429 0.930 . S
C1439 C1432 1.409 . S
C1439 C1438 1.362 . S
H1440 C1446 0.930 . S
H1441 C1449 0.930 . S
H1442 C1450 0.930 . S
H1443 C1451 0.930 . S
H1444 C1454 0.930 . S
H1445 C1455 0.930 . S
C1446 H1440 0.930 . S
C1446 C1447 1.355 . S
C1446 C1448 1.415 . S
C1447 C1446 1.355 . S
C1447 C1449 1.419 . S
C1448 C1446 1.415 . S
C1448 C1453 1.425 . S
C1448 C1455 1.409 . S
C1449 H1441 0.930 . S
C1449 C1447 1.419 . S
C1449 C1450 1.362 . S
C1450 H1442 0.930 . S
C1450 C1449 1.362 . S
C1450 C1453 1.409 . S
C1451 H1443 0.930 . S
C1451 C1452 1.355 . S
C1451 C1453 1.415 . S
C1452 C1451 1.355 . S
C1452 C1454 1.419 . S
C1453 C1448 1.425 . S
C1453 C1450 1.409 . S
C1453 C1451 1.415 . S
C1454 H1444 0.930 . S
C1454 C1452 1.419 . S
C1454 C1455 1.362 . S
C1455 H1445 0.930 . S
C1455 C1448 1.409 . S
C1455 C1454 1.362 . S
H1456 C1462 0.930 1_554 S
H1457 C1465 0.930 . S
H1458 C1466 0.930 . S
H1459 C1467 0.930 . S
H1460 C1470 0.930 . S
H1461 C1471 0.930 1_554 S
C1462 H1456 0.930 1_556 S
C1462 C1463 1.355 . S
C1462 C1464 1.415 . S
C1463 C1462 1.355 . S
C1463 C1465 1.419 . S
C1464 C1462 1.415 . S
C1464 C1469 1.425 . S
C1464 C1471 1.409 . S
C1465 H1457 0.930 . S
C1465 C1463 1.419 . S
C1465 C1466 1.362 . S
C1466 H1458 0.930 . S
C1466 C1465 1.362 . S
C1466 C1469 1.409 . S
C1467 H1459 0.930 . S
C1467 C1468 1.355 . S
C1467 C1469 1.415 . S
C1468 C1467 1.355 . S
C1468 C1470 1.419 . S
C1469 C1464 1.425 . S
C1469 C1466 1.409 . S
C1469 C1467 1.415 . S
C1470 H1460 0.930 . S
C1470 C1468 1.419 . S
C1470 C1471 1.362 . S
C1471 H1461 0.930 1_556 S
C1471 C1464 1.409 . S
C1471 C1470 1.362 . S
H1472 C1478 0.930 . S
H1473 C1481 0.930 . S
H1474 C1482 0.930 . S
H1475 C1483 0.930 . S
H1476 C1486 0.930 . S
H1477 C1487 0.930 . S
C1478 H1472 0.930 . S
C1478 C1479 1.355 . S
C1478 C1480 1.415 . S
C1479 C1478 1.355 . S
C1479 C1481 1.419 . S
C1480 C1478 1.415 . S
C1480 C1485 1.425 . S
C1480 C1487 1.409 . S
C1481 H1473 0.930 . S
C1481 C1479 1.419 . S
C1481 C1482 1.362 . S
C1482 H1474 0.930 . S
C1482 C1481 1.362 . S
C1482 C1485 1.409 . S
C1483 H1475 0.930 . S
C1483 C1484 1.355 . S
C1483 C1485 1.415 . S
C1484 C1483 1.355 . S
C1484 C1486 1.419 1_556 S
C1485 C1480 1.425 . S
C1485 C1482 1.409 . S
C1485 C1483 1.415 . S
C1486 H1476 0.930 . S
C1486 C1484 1.419 1_554 S
C1486 C1487 1.362 1_554 S
C1487 H1477 0.930 . S
C1487 C1480 1.409 . S
C1487 C1486 1.362 1_556 S
H1488 C1494 0.930 . S
H1489 C1497 0.930 . S
H1490 C1498 0.930 . S
H1491 C1499 0.930 . S
H1492 C1502 0.930 . S
H1493 C1503 0.930 . S
C1494 H1488 0.930 . S
C1494 C1495 1.355 . S
C1494 C1496 1.415 . S
C1495 C1494 1.355 . S
C1495 C1497 1.419 . S
C1496 C1494 1.415 . S
C1496 C1501 1.425 . S
C1496 C1503 1.409 . S
C1497 H1489 0.930 . S
C1497 C1495 1.419 . S
C1497 C1498 1.362 . S
C1498 H1490 0.930 . S
C1498 C1497 1.362 . S
C1498 C1501 1.409 . S
C1499 H1491 0.930 . S
C1499 C1500 1.355 . S
C1499 C1501 1.415 . S
C1500 C1499 1.355 . S
C1500 C1502 1.419 . S
C1501 C1496 1.425 . S
C1501 C1498 1.409 . S
C1501 C1499 1.415 . S
C1502 H1492 0.930 . S
C1502 C1500 1.419 . S
C1502 C1503 1.362 . S
C1503 H1493 0.930 . S
C1503 C1496 1.409 . S
C1503 C1502 1.362 . S
H1504 C1510 0.930 . S
H1505 C1513 0.930 . S
H1506 C1514 0.930 . S
H1507 C1515 0.930 . S
H1508 C1518 0.930 . S
H1509 C1519 0.930 . S
C1510 H1504 0.930 . S
C1510 C1511 1.355 . S
C1510 C1512 1.415 . S
C1511 C1510 1.355 . S
C1511 C1513 1.419 . S
C1512 C1510 1.415 . S
C1512 C1517 1.425 . S
C1512 C1519 1.409 . S
C1513 H1505 0.930 . S
C1513 C1511 1.419 . S
C1513 C1514 1.362 . S
C1514 H1506 0.930 . S
C1514 C1513 1.362 . S
C1514 C1517 1.409 . S
C1515 H1507 0.930 . S
C1515 C1516 1.355 . S
C1515 C1517 1.415 . S
C1516 C1515 1.355 . S
C1516 C1518 1.419 . S
C1517 C1512 1.425 . S
C1517 C1514 1.409 . S
C1517 C1515 1.415 . S
C1518 H1508 0.930 . S
C1518 C1516 1.419 . S
C1518 C1519 1.362 . S
C1519 H1509 0.930 . S
C1519 C1512 1.409 . S
C1519 C1518 1.362 . S
H1520 C1526 0.930 . S
H1521 C1529 0.930 . S
H1522 C1530 0.930 . S
H1523 C1531 0.930 . S
H1524 C1534 0.930 . S
H1525 C1535 0.930 . S
C1526 H1520 0.930 . S
C1526 C1527 1.355 . S
C1526 C1528 1.415 . S
C1527 C1526 1.355 . S
C1527 C1529 1.419 . S
C1528 C1526 1.415 . S
C1528 C1533 1.425 . S
C1528 C1535 1.409 . S
C1529 H1521 0.930 . S
C1529 C1527 1.419 . S
C1529 C1530 1.362 . S
C1530 H1522 0.930 . S
C1530 C1529 1.362 . S
C1530 C1533 1.409 . S
C1531 H1523 0.930 . S
C1531 C1532 1.355 . S
C1531 C1533 1.415 . S
C1532 C1531 1.355 . S
C1532 C1534 1.419 . S
C1533 C1528 1.425 . S
C1533 C1530 1.409 . S
C1533 C1531 1.415 . S
C1534 H1524 0.930 . S
C1534 C1532 1.419 . S
C1534 C1535 1.362 . S
C1535 H1525 0.930 . S
C1535 C1528 1.409 . S
C1535 C1534 1.362 . S
H1536 C1542 0.930 . S
H1537 C1545 0.930 . S
H1538 C1546 0.930 . S
H1539 C1547 0.930 1_554 S
H1540 C1550 0.930 . S
H1541 C1551 0.930 . S
C1542 H1536 0.930 . S
C1542 C1543 1.355 . S
C1542 C1544 1.415 . S
C1543 C1542 1.355 . S
C1543 C1545 1.419 . S
C1544 C1542 1.415 . S
C1544 C1549 1.425 . S
C1544 C1551 1.409 . S
C1545 H1537 0.930 . S
C1545 C1543 1.419 . S
C1545 C1546 1.362 . S
C1546 H1538 0.930 . S
C1546 C1545 1.362 . S
C1546 C1549 1.409 . S
C1547 H1539 0.930 1_556 S
C1547 C1548 1.355 . S
C1547 C1549 1.415 . S
C1548 C1547 1.355 . S
C1548 C1550 1.419 . S
C1549 C1544 1.425 . S
C1549 C1546 1.409 . S
C1549 C1547 1.415 . S
C1550 H1540 0.930 . S
C1550 C1548 1.419 . S
C1550 C1551 1.362 . S
C1551 H1541 0.930 . S
C1551 C1544 1.409 . S
C1551 C1550 1.362 . S
H1552 C1558 0.930 . S
H1553 C1561 0.930 . S
H1554 C1562 0.930 . S
H1555 C1563 0.930 . S
H1556 C1566 0.930 . S
H1557 C1567 0.930 . S
C1558 H1552 0.930 . S
C1558 C1559 1.355 . S
C1558 C1560 1.415 . S
C1559 C1558 1.355 . S
C1559 C1561 1.419 . S
C1560 C1558 1.415 . S
C1560 C1565 1.425 . S
C1560 C1567 1.409 . S
C1561 H1553 0.930 . S
C1561 C1559 1.419 . S
C1561 C1562 1.362 . S
C1562 H1554 0.930 . S
C1562 C1561 1.362 . S
C1562 C1565 1.409 . S
C1563 H1555 0.930 . S
C1563 C1564 1.355 . S
C1563 C1565 1.415 . S
C1564 C1563 1.355 . S
C1564 C1566 1.419 . S
C1565 C1560 1.425 . S
C1565 C1562 1.409 . S
C1565 C1563 1.415 . S
C1566 H1556 0.930 . S
C1566 C1564 1.419 . S
C1566 C1567 1.362 . S
C1567 H1557 0.930 . S
C1567 C1560 1.409 . S
C1567 C1566 1.362 . S
H1568 C1574 0.930 . S
H1569 C1577 0.930 . S
H1570 C1578 0.930 . S
H1571 C1579 0.930 . S
H1572 C1582 0.930 . S
H1573 C1583 0.930 . S
C1574 H1568 0.930 . S
C1574 C1575 1.355 . S
C1574 C1576 1.415 . S
C1575 C1574 1.355 . S
C1575 C1577 1.419 . S
C1576 C1574 1.415 . S
C1576 C1581 1.425 . S
C1576 C1583 1.409 . S
C1577 H1569 0.930 . S
C1577 C1575 1.419 . S
C1577 C1578 1.362 . S
C1578 H1570 0.930 . S
C1578 C1577 1.362 . S
C1578 C1581 1.409 . S
C1579 H1571 0.930 . S
C1579 C1580 1.355 . S
C1579 C1581 1.415 . S
C1580 C1579 1.355 . S
C1580 C1582 1.419 . S
C1581 C1576 1.425 . S
C1581 C1578 1.409 . S
C1581 C1579 1.415 . S
C1582 H1572 0.930 . S
C1582 C1580 1.419 . S
C1582 C1583 1.362 . S
C1583 H1573 0.930 . S
C1583 C1576 1.409 . S
C1583 C1582 1.362 . S
H1584 C1590 0.930 . S
H1585 C1593 0.930 . S
H1586 C1594 0.930 . S
H1587 C1595 0.930 . S
H1588 C1598 0.930 . S
H1589 C1599 0.930 . S
C1590 H1584 0.930 . S
C1590 C1591 1.355 . S
C1590 C1592 1.415 . S
C1591 C1590 1.355 . S
C1591 C1593 1.419 . S
C1592 C1590 1.415 . S
C1592 C1597 1.425 . S
C1592 C1599 1.409 . S
C1593 H1585 0.930 . S
C1593 C1591 1.419 . S
C1593 C1594 1.362 . S
C1594 H1586 0.930 . S
C1594 C1593 1.362 . S
C1594 C1597 1.409 . S
C1595 H1587 0.930 . S
C1595 C1596 1.355 . S
C1595 C1597 1.415 . S
C1596 C1595 1.355 . S
C1596 C1598 1.419 . S
C1597 C1592 1.425 . S
C1597 C1594 1.409 . S
C1597 C1595 1.415 . S
C1598 H1588 0.930 . S
C1598 C1596 1.419 . S
C1598 C1599 1.362 . S
C1599 H1589 0.930 . S
C1599 C1592 1.409 . S
C1599 C1598 1.362 . S
H1600 C1606 0.930 . S
H1601 C1609 0.930 . S
H1602 C1610 0.930 . S
H1603 C1611 0.930 . S
H1604 C1614 0.930 . S
H1605 C1615 0.930 . S
C1606 H1600 0.930 . S
C1606 C1607 1.355 . S
C1606 C1608 1.415 . S
C1607 C1606 1.355 . S
C1607 C1609 1.419 . S
C1608 C1606 1.415 . S
C1608 C1613 1.425 . S
C1608 C1615 1.409 . S
C1609 H1601 0.930 . S
C1609 C1607 1.419 . S
C1609 C1610 1.362 . S
C1610 H1602 0.930 . S
C1610 C1609 1.362 . S
C1610 C1613 1.409 . S
C1611 H1603 0.930 . S
C1611 C1612 1.355 . S
C1611 C1613 1.415 . S
C1612 C1611 1.355 . S
C1612 C1614 1.419 . S
C1613 C1608 1.425 . S
C1613 C1610 1.409 . S
C1613 C1611 1.415 . S
C1614 H1604 0.930 . S
C1614 C1612 1.419 . S
C1614 C1615 1.362 . S
C1615 H1605 0.930 . S
C1615 C1608 1.409 . S
C1615 C1614 1.362 . S
H1616 C1622 0.930 . S
H1617 C1625 0.930 . S
H1618 C1626 0.930 . S
H1619 C1627 0.930 . S
H1620 C1630 0.930 1_554 S
H1621 C1631 0.930 . S
C1622 H1616 0.930 . S
C1622 C1623 1.355 . S
C1622 C1624 1.415 . S
C1623 C1622 1.355 . S
C1623 C1625 1.419 . S
C1624 C1622 1.415 . S
C1624 C1629 1.425 . S
C1624 C1631 1.409 . S
C1625 H1617 0.930 . S
C1625 C1623 1.419 . S
C1625 C1626 1.362 . S
C1626 H1618 0.930 . S
C1626 C1625 1.362 . S
C1626 C1629 1.409 . S
C1627 H1619 0.930 . S
C1627 C1628 1.355 . S
C1627 C1629 1.415 . S
C1628 C1627 1.355 . S
C1628 C1630 1.419 . S
C1629 C1624 1.425 . S
C1629 C1626 1.409 . S
C1629 C1627 1.415 . S
C1630 H1620 0.930 1_556 S
C1630 C1628 1.419 . S
C1630 C1631 1.362 . S
C1631 H1621 0.930 . S
C1631 C1624 1.409 . S
C1631 C1630 1.362 . S
H1632 C1638 0.930 . S
H1633 C1641 0.930 . S
H1634 C1642 0.930 . S
H1635 C1643 0.930 . S
H1636 C1646 0.930 . S
H1637 C1647 0.930 . S
C1638 H1632 0.930 . S
C1638 C1639 1.355 . S
C1638 C1640 1.415 . S
C1639 C1638 1.355 . S
C1639 C1641 1.419 . S
C1640 C1638 1.415 . S
C1640 C1645 1.425 . S
C1640 C1647 1.409 . S
C1641 H1633 0.930 . S
C1641 C1639 1.419 . S
C1641 C1642 1.362 . S
C1642 H1634 0.930 . S
C1642 C1641 1.362 . S
C1642 C1645 1.409 . S
C1643 H1635 0.930 . S
C1643 C1644 1.355 . S
C1643 C1645 1.415 . S
C1644 C1643 1.355 . S
C1644 C1646 1.419 . S
C1645 C1640 1.425 . S
C1645 C1642 1.409 . S
C1645 C1643 1.415 . S
C1646 H1636 0.930 . S
C1646 C1644 1.419 . S
C1646 C1647 1.362 . S
C1647 H1637 0.930 . S
C1647 C1640 1.409 . S
C1647 C1646 1.362 . S
H1648 C1654 0.930 . S
H1649 C1657 0.930 . S
H1650 C1658 0.930 . S
H1651 C1659 0.930 . S
H1652 C1662 0.930 . S
H1653 C1663 0.930 . S
C1654 H1648 0.930 . S
C1654 C1655 1.355 . S
C1654 C1656 1.415 . S
C1655 C1654 1.355 . S
C1655 C1657 1.419 . S
C1656 C1654 1.415 . S
C1656 C1661 1.425 . S
C1656 C1663 1.409 . S
C1657 H1649 0.930 . S
C1657 C1655 1.419 . S
C1657 C1658 1.362 . S
C1658 H1650 0.930 . S
C1658 C1657 1.362 . S
C1658 C1661 1.409 . S
C1659 H1651 0.930 . S
C1659 C1660 1.355 . S
C1659 C1661 1.415 . S
C1660 C1659 1.355 . S
C1660 C1662 1.419 . S
C1661 C1656 1.425 . S
C1661 C1658 1.409 . S
C1661 C1659 1.415 . S
C1662 H1652 0.930 . S
C1662 C1660 1.419 . S
C1662 C1663 1.362 . S
C1663 H1653 0.930 . S
C1663 C1656 1.409 . S
C1663 C1662 1.362 . S
H1664 C1670 0.930 . S
H1665 C1673 0.930 . S
H1666 C1674 0.930 . S
H1667 C1675 0.930 1_556 S
H1668 C1678 0.930 . S
H1669 C1679 0.930 . S
C1670 H1664 0.930 . S
C1670 C1671 1.355 1_655 S
C1670 C1672 1.415 . S
C1671 C1670 1.355 1_455 S
C1671 C1673 1.419 . S
C1672 C1670 1.415 . S
C1672 C1677 1.425 1_655 S
C1672 C1679 1.409 . S
C1673 H1665 0.930 . S
C1673 C1671 1.419 . S
C1673 C1674 1.362 . S
C1674 H1666 0.930 . S
C1674 C1673 1.362 . S
C1674 C1677 1.409 . S
C1675 H1667 0.930 1_554 S
C1675 C1676 1.355 1_455 S
C1675 C1677 1.415 . S
C1676 C1675 1.355 1_655 S
C1676 C1678 1.419 . S
C1677 C1672 1.425 1_455 S
C1677 C1674 1.409 . S
C1677 C1675 1.415 . S
C1678 H1668 0.930 . S
C1678 C1676 1.419 . S
C1678 C1679 1.362 . S
C1679 H1669 0.930 . S
C1679 C1672 1.409 . S
C1679 C1678 1.362 . S
H1680 C1686 0.930 . S
H1681 C1689 0.930 . S
H1682 C1690 0.930 . S
H1683 C1691 0.930 . S
H1684 C1694 0.930 . S
H1685 C1695 0.930 . S
C1686 H1680 0.930 . S
C1686 C1687 1.355 . S
C1686 C1688 1.415 . S
C1687 C1686 1.355 . S
C1687 C1689 1.419 . S
C1688 C1686 1.415 . S
C1688 C1693 1.425 . S
C1688 C1695 1.409 . S
C1689 H1681 0.930 . S
C1689 C1687 1.419 . S
C1689 C1690 1.362 . S
C1690 H1682 0.930 . S
C1690 C1689 1.362 . S
C1690 C1693 1.409 . S
C1691 H1683 0.930 . S
C1691 C1692 1.355 . S
C1691 C1693 1.415 . S
C1692 C1691 1.355 . S
C1692 C1694 1.419 . S
C1693 C1688 1.425 . S
C1693 C1690 1.409 . S
C1693 C1691 1.415 . S
C1694 H1684 0.930 . S
C1694 C1692 1.419 . S
C1694 C1695 1.362 . S
C1695 H1685 0.930 . S
C1695 C1688 1.409 . S
C1695 C1694 1.362 . S
H1696 C1702 0.930 . S
H1697 C1705 0.930 . S
H1698 C1706 0.930 . S
H1699 C1707 0.930 . S
H1700 C1710 0.930 . S
H1701 C1711 0.930 . S
C1702 H1696 0.930 . S
C1702 C1703 1.355 . S
C1702 C1704 1.415 . S
C1703 C1702 1.355 . S
C1703 C1705 1.419 . S
C1704 C1702 1.415 . S
C1704 C1709 1.425 . S
C1704 C1711 1.409 . S
C1705 H1697 0.930 . S
C1705 C1703 1.419 . S
C1705 C1706 1.362 . S
C1706 H1698 0.930 . S
C1706 C1705 1.362 . S
C1706 C1709 1.409 . S
C1707 H1699 0.930 . S
C1707 C1708 1.355 . S
C1707 C1709 1.415 . S
C1708 C1707 1.355 . S
C1708 C1710 1.419 . S
C1709 C1704 1.425 . S
C1709 C1706 1.409 . S
C1709 C1707 1.415 . S
C1710 H1700 0.930 . S
C1710 C1708 1.419 . S
C1710 C1711 1.362 . S
C1711 H1701 0.930 . S
C1711 C1704 1.409 . S
C1711 C1710 1.362 . S
H1712 C1718 0.930 . S
H1713 C1721 0.930 . S
H1714 C1722 0.930 . S
H1715 C1723 0.930 . S
H1716 C1726 0.930 . S
H1717 C1727 0.930 . S
C1718 H1712 0.930 . S
C1718 C1719 1.355 . S
C1718 C1720 1.415 . S
C1719 C1718 1.355 . S
C1719 C1721 1.419 . S
C1720 C1718 1.415 . S
C1720 C1725 1.425 . S
C1720 C1727 1.409 . S
C1721 H1713 0.930 . S
C1721 C1719 1.419 . S
C1721 C1722 1.362 . S
C1722 H1714 0.930 . S
C1722 C1721 1.362 . S
C1722 C1725 1.409 . S
C1723 H1715 0.930 . S
C1723 C1724 1.355 . S
C1723 C1725 1.415 . S
C1724 C1723 1.355 . S
C1724 C1726 1.419 . S
C1725 C1720 1.425 . S
C1725 C1722 1.409 . S
C1725 C1723 1.415 . S
C1726 H1716 0.930 . S
C1726 C1724 1.419 . S
C1726 C1727 1.362 . S
C1727 H1717 0.930 . S
C1727 C1720 1.409 . S
C1727 C1726 1.362 . S
H1728 C1734 0.930 . S
H1729 C1737 0.930 . S
H1730 C1738 0.930 . S
H1731 C1739 0.930 . S
H1732 C1742 0.930 . S
H1733 C1743 0.930 . S
C1734 H1728 0.930 . S
C1734 C1735 1.355 . S
C1734 C1736 1.415 . S
C1735 C1734 1.355 . S
C1735 C1737 1.419 . S
C1736 C1734 1.415 . S
C1736 C1741 1.425 . S
C1736 C1743 1.409 . S
C1737 H1729 0.930 . S
C1737 C1735 1.419 . S
C1737 C1738 1.362 . S
C1738 H1730 0.930 . S
C1738 C1737 1.362 . S
C1738 C1741 1.409 . S
C1739 H1731 0.930 . S
C1739 C1740 1.355 . S
C1739 C1741 1.415 . S
C1740 C1739 1.355 . S
C1740 C1742 1.419 . S
C1741 C1736 1.425 . S
C1741 C1738 1.409 . S
C1741 C1739 1.415 . S
C1742 H1732 0.930 . S
C1742 C1740 1.419 . S
C1742 C1743 1.362 . S
C1743 H1733 0.930 . S
C1743 C1736 1.409 . S
C1743 C1742 1.362 . S
H1744 C1750 0.930 . S
H1745 C1753 0.930 . S
H1746 C1754 0.930 . S
H1747 C1755 0.930 . S
H1748 C1758 0.930 . S
H1749 C1759 0.930 . S
C1750 H1744 0.930 . S
C1750 C1751 1.355 . S
C1750 C1752 1.415 . S
C1751 C1750 1.355 . S
C1751 C1753 1.419 . S
C1752 C1750 1.415 . S
C1752 C1757 1.425 . S
C1752 C1759 1.409 . S
C1753 H1745 0.930 . S
C1753 C1751 1.419 . S
C1753 C1754 1.362 . S
C1754 H1746 0.930 . S
C1754 C1753 1.362 . S
C1754 C1757 1.409 . S
C1755 H1747 0.930 . S
C1755 C1756 1.355 . S
C1755 C1757 1.415 . S
C1756 C1755 1.355 . S
C1756 C1758 1.419 . S
C1757 C1752 1.425 . S
C1757 C1754 1.409 . S
C1757 C1755 1.415 . S
C1758 H1748 0.930 . S
C1758 C1756 1.419 . S
C1758 C1759 1.362 . S
C1759 H1749 0.930 . S
C1759 C1752 1.409 . S
C1759 C1758 1.362 . S
H1760 C1766 0.917 1_545 S
H1761 C1769 0.930 . S
H1762 C1770 0.930 . S
H1763 C1771 0.917 1_565 S
H1764 C1774 0.930 . S
H1765 C1775 0.930 . S
C1766 H1760 0.917 1_565 S
C1766 C1767 1.355 . S
C1766 C1768 1.415 1_565 S
C1767 C1766 1.355 . S
C1767 C1769 1.419 . S
C1768 C1766 1.415 1_545 S
C1768 C1773 1.425 1_545 S
C1768 C1775 1.409 . S
C1769 H1761 0.930 . S
C1769 C1767 1.419 . S
C1769 C1770 1.362 . S
C1770 H1762 0.930 . S
C1770 C1769 1.362 . S
C1770 C1773 1.409 . S
C1771 H1763 0.917 1_545 S
C1771 C1772 1.355 . S
C1771 C1773 1.415 1_545 S
C1772 C1771 1.355 . S
C1772 C1774 1.419 . S
C1773 C1768 1.425 1_565 S
C1773 C1770 1.409 . S
C1773 C1771 1.415 1_565 S
C1774 H1764 0.930 . S
C1774 C1772 1.419 . S
C1774 C1775 1.362 . S
C1775 H1765 0.930 . S
C1775 C1768 1.409 . S
C1775 C1774 1.362 . S
H1776 C1782 0.930 . S
H1777 C1785 0.945 . S
H1778 C1786 0.930 . S
H1779 C1787 0.930 . S
H1780 C1790 0.930 . S
H1781 C1791 0.930 . S
C1782 H1776 0.930 . S
C1782 C1783 1.355 1_655 S
C1782 C1784 1.415 . S
C1783 C1782 1.355 1_455 S
C1783 C1785 1.419 1_554 S
C1784 C1782 1.415 . S
C1784 C1789 1.425 1_645 S
C1784 C1791 1.409 . S
C1785 H1777 0.945 . S
C1785 C1783 1.419 1_556 S
C1785 C1786 1.348 1_546 S
C1786 H1778 0.930 . S
C1786 C1785 1.348 1_564 S
C1786 C1789 1.409 . S
C1787 H1779 0.930 . S
C1787 C1788 1.355 1_455 S
C1787 C1789 1.415 . S
C1788 C1787 1.355 1_655 S
C1788 C1790 1.419 . S
C1789 C1784 1.425 1_465 S
C1789 C1786 1.409 . S
C1789 C1787 1.415 . S
C1790 H1780 0.930 . S
C1790 C1788 1.419 . S
C1790 C1791 1.362 1_565 S
C1791 H1781 0.930 . S
C1791 C1784 1.409 . S
C1791 C1790 1.362 1_545 S
H1792 C1798 0.930 . S
H1793 C1801 0.930 . S
H1794 C1802 0.930 . S
H1795 C1803 0.930 . S
H1796 C1806 0.930 . S
H1797 C1807 0.930 . S
C1798 H1792 0.930 . S
C1798 C1799 1.323 1_655 S
C1798 C1800 1.415 . S
C1799 C1798 1.323 1_455 S
C1799 C1801 1.460 . S
C1800 C1798 1.415 . S
C1800 C1805 1.425 1_655 S
C1800 C1807 1.409 . S
C1801 H1793 0.930 . S
C1801 C1799 1.460 . S
C1801 C1802 1.362 . S
C1802 H1794 0.930 . S
C1802 C1801 1.362 . S
C1802 C1805 1.409 . S
C1803 H1795 0.930 . S
C1803 C1804 1.355 1_455 S
C1803 C1805 1.415 . S
C1804 C1803 1.355 1_655 S
C1804 C1806 1.419 . S
C1805 C1800 1.425 1_455 S
C1805 C1802 1.409 . S
C1805 C1803 1.415 . S
C1806 H1796 0.930 . S
C1806 C1804 1.419 . S
C1806 C1807 1.362 . S
C1807 H1797 0.930 . S
C1807 C1800 1.409 . S
C1807 C1806 1.362 . S
H1808 C1814 0.930 . S
H1809 C1817 0.930 . S
H1810 C1818 0.930 . S
H1811 C1819 0.930 . S
H1812 C1822 0.930 . S
H1813 C1823 0.930 . S
C1814 H1808 0.930 . S
C1814 C1815 1.355 . S
C1814 C1816 1.415 . S
C1815 C1814 1.355 . S
C1815 C1817 1.419 . S
C1816 C1814 1.415 . S
C1816 C1821 1.425 . S
C1816 C1823 1.409 . S
C1817 H1809 0.930 . S
C1817 C1815 1.419 . S
C1817 C1818 1.362 . S
C1818 H1810 0.930 . S
C1818 C1817 1.362 . S
C1818 C1821 1.409 . S
C1819 H1811 0.930 . S
C1819 C1820 1.355 . S
C1819 C1821 1.415 . S
C1820 C1819 1.355 . S
C1820 C1822 1.419 . S
C1821 C1816 1.425 . S
C1821 C1818 1.409 . S
C1821 C1819 1.415 . S
C1822 H1812 0.930 . S
C1822 C1820 1.419 . S
C1822 C1823 1.362 . S
C1823 H1813 0.930 . S
C1823 C1816 1.409 . S
C1823 C1822 1.362 . S
H1824 C1830 0.930 . S
H1825 C1833 0.930 . S
H1826 C1834 0.930 . S
H1827 C1835 0.930 1_556 S
H1828 C1838 0.930 . S
H1829 C1839 0.930 . S
C1830 H1824 0.930 . S
C1830 C1831 1.355 . S
C1830 C1832 1.415 . S
C1831 C1830 1.355 . S
C1831 C1833 1.419 . S
C1832 C1830 1.415 . S
C1832 C1837 1.425 . S
C1832 C1839 1.409 . S
C1833 H1825 0.930 . S
C1833 C1831 1.419 . S
C1833 C1834 1.362 . S
C1834 H1826 0.930 . S
C1834 C1833 1.362 . S
C1834 C1837 1.409 . S
C1835 H1827 0.930 1_554 S
C1835 C1836 1.355 . S
C1835 C1837 1.415 . S
C1836 C1835 1.355 . S
C1836 C1838 1.419 . S
C1837 C1832 1.425 . S
C1837 C1834 1.409 . S
C1837 C1835 1.415 . S
C1838 H1828 0.930 . S
C1838 C1836 1.419 . S
C1838 C1839 1.362 . S
C1839 H1829 0.930 . S
C1839 C1832 1.409 . S
C1839 C1838 1.362 . S
H1840 C1846 0.930 . S
H1841 C1849 0.930 . S
H1842 C1850 0.930 . S
H1843 C1851 0.930 . S
H1844 C1854 0.930 . S
H1845 C1855 0.930 . S
C1846 H1840 0.930 . S
C1846 C1847 1.355 . S
C1846 C1848 1.415 . S
C1847 C1846 1.355 . S
C1847 C1849 1.419 . S
C1848 C1846 1.415 . S
C1848 C1853 1.425 . S
C1848 C1855 1.409 . S
C1849 H1841 0.930 . S
C1849 C1847 1.419 . S
C1849 C1850 1.362 . S
C1850 H1842 0.930 . S
C1850 C1849 1.362 . S
C1850 C1853 1.409 . S
C1851 H1843 0.930 . S
C1851 C1852 1.355 . S
C1851 C1853 1.415 . S
C1852 C1851 1.355 . S
C1852 C1854 1.419 . S
C1853 C1848 1.425 . S
C1853 C1850 1.409 . S
C1853 C1851 1.415 . S
C1854 H1844 0.930 . S
C1854 C1852 1.419 . S
C1854 C1855 1.362 . S
C1855 H1845 0.930 . S
C1855 C1848 1.409 . S
C1855 C1854 1.362 . S
H1856 C1862 0.930 . S
H1857 C1865 0.930 . S
H1858 C1866 0.930 . S
H1859 C1867 0.930 . S
H1860 C1870 0.930 . S
H1861 C1871 0.930 . S
C1862 H1856 0.930 . S
C1862 C1863 1.355 . S
C1862 C1864 1.415 . S
C1863 C1862 1.355 . S
C1863 C1865 1.419 . S
C1864 C1862 1.415 . S
C1864 C1869 1.425 . S
C1864 C1871 1.409 . S
C1865 H1857 0.930 . S
C1865 C1863 1.419 . S
C1865 C1866 1.362 . S
C1866 H1858 0.930 . S
C1866 C1865 1.362 . S
C1866 C1869 1.409 . S
C1867 H1859 0.930 . S
C1867 C1868 1.355 . S
C1867 C1869 1.415 . S
C1868 C1867 1.355 . S
C1868 C1870 1.419 . S
C1869 C1864 1.425 . S
C1869 C1866 1.409 . S
C1869 C1867 1.415 . S
C1870 H1860 0.930 . S
C1870 C1868 1.419 . S
C1870 C1871 1.362 . S
C1871 H1861 0.930 . S
C1871 C1864 1.409 . S
C1871 C1870 1.362 . S
H1872 C1878 0.930 . S
H1873 C1881 0.930 . S
H1874 C1882 0.930 . S
H1875 C1883 0.930 . S
H1876 C1886 0.930 . S
H1877 C1887 0.930 . S
C1878 H1872 0.930 . S
C1878 C1879 1.355 . S
C1878 C1880 1.415 . S
C1879 C1878 1.355 . S
C1879 C1881 1.419 . S
C1880 C1878 1.415 . S
C1880 C1885 1.425 . S
C1880 C1887 1.409 . S
C1881 H1873 0.930 . S
C1881 C1879 1.419 . S
C1881 C1882 1.362 . S
C1882 H1874 0.930 . S
C1882 C1881 1.362 . S
C1882 C1885 1.409 . S
C1883 H1875 0.930 . S
C1883 C1884 1.355 . S
C1883 C1885 1.415 . S
C1884 C1883 1.355 . S
C1884 C1886 1.419 . S
C1885 C1880 1.425 . S
C1885 C1882 1.409 . S
C1885 C1883 1.415 . S
C1886 H1876 0.930 . S
C1886 C1884 1.419 . S
C1886 C1887 1.362 . S
C1887 H1877 0.930 . S
C1887 C1880 1.409 . S
C1887 C1886 1.362 . S
H1888 C1894 0.930 . S
H1889 C1897 0.930 . S
H1890 C1898 0.930 . S
H1891 C1899 0.930 . S
H1892 C1902 0.930 . S
H1893 C1903 0.930 . S
C1894 H1888 0.930 . S
C1894 C1895 1.355 . S
C1894 C1896 1.400 1_565 S
C1895 C1894 1.355 . S
C1895 C1897 1.419 . S
C1896 C1894 1.400 1_545 S
C1896 C1901 1.424 1_545 S
C1896 C1903 1.425 . S
C1897 H1889 0.930 . S
C1897 C1895 1.419 . S
C1897 C1898 1.362 . S
C1898 H1890 0.930 . S
C1898 C1897 1.362 . S
C1898 C1901 1.425 . S
C1899 H1891 0.930 . S
C1899 C1900 1.355 . S
C1899 C1901 1.400 1_545 S
C1900 C1899 1.355 . S
C1900 C1902 1.419 . S
C1901 C1896 1.424 1_565 S
C1901 C1898 1.425 . S
C1901 C1899 1.400 1_565 S
C1902 H1892 0.930 . S
C1902 C1900 1.419 . S
C1902 C1903 1.362 . S
C1903 H1893 0.930 . S
C1903 C1896 1.425 . S
C1903 C1902 1.362 . S
H1904 C1910 0.930 . S
H1905 C1913 0.930 . S
H1906 C1914 0.930 . S
H1907 C1915 0.930 . S
H1908 C1918 0.930 . S
H1909 C1919 0.930 . S
C1910 H1904 0.930 . S
C1910 C1911 1.325 1_455 S
C1910 C1912 1.415 . S
C1911 C1910 1.325 1_655 S
C1911 C1913 1.458 . S
C1912 C1910 1.415 . S
C1912 C1917 1.425 1_445 S
C1912 C1919 1.409 . S
C1913 H1905 0.930 . S
C1913 C1911 1.458 . S
C1913 C1914 1.362 1_545 S
C1914 H1906 0.930 . S
C1914 C1913 1.362 1_565 S
C1914 C1917 1.409 . S
C1915 H1907 0.930 . S
C1915 C1916 1.355 1_655 S
C1915 C1917 1.415 . S
C1916 C1915 1.355 1_455 S
C1916 C1918 1.419 . S
C1917 C1912 1.425 1_665 S
C1917 C1914 1.409 . S
C1917 C1915 1.415 . S
C1918 H1908 0.930 . S
C1918 C1916 1.419 . S
C1918 C1919 1.362 1_565 S
C1919 H1909 0.930 . S
C1919 C1912 1.409 . S
C1919 C1918 1.362 1_545 S
C1415 C849 1.590 . S
C1420 C29 1.605 . S
C1431 C1281 1.565 . S
C1436 C117 1.560 . S
C1447 C233 1.583 . S
C1452 C753 1.558 . S
C1463 C293 1.558 1_556 S
C1468 C1349 1.570 . S
C1479 C401 1.605 . S
C1484 C909 1.575 1_556 S
C1495 C1201 1.565 . S
C1500 C497 1.570 . S
C1511 C988 1.596 . S
C1516 C548 1.582 . S
C1527 C673 1.583 . S
C1532 C1076 1.607 . S
C1543 C409 1.552 . S
C1548 C313 1.583 . S
C1559 C1085 1.604 . S
C1564 C733 1.597 . S
C1575 C557 1.559 . S
C1580 C137 1.567 . S
C1591 C812 1.592 . S
C1596 C1193 1.556 . S
C1607 C20 1.607 . S
C1612 C460 1.612 . S
C1623 C1340 1.604 . S
C1628 C929 1.593 . S
C1639 C636 1.613 . S
C1644 C225 1.605 . S
C1655 C1025 1.605 . S
C1660 C1289 1.575 . S
C1671 C49 0.643 . S
C1676 C381 0.630 1_655 S
C1687 C469 0.618 . S
C1692 C145 0.612 . S
C1703 C585 0.685 . S
C1708 C196 0.687 . S
C1719 C321 0.607 . S
C1724 C645 0.605 . S
C1735 C937 0.685 . S
C1740 C724 0.680 . S
C1751 C1017 0.664 . S
C1756 C821 0.656 . S
C1767 C1261 0.608 . S
C1772 C1113 0.614 . S
C1783 C1369 0.656 . S
C1788 C1164 0.668 1_655 S
C1799 C372 1.983 . S
C1804 C57 1.987 1_655 S
C1815 C489 1.966 . S
C1820 C108 1.967 . S
C1831 C577 1.987 . S
C1836 C205 1.985 1_554 S
C1847 C284 1.995 . S
C1852 C665 1.995 . S
C1863 C761 1.995 . S
C1868 C900 1.995 . S
C1879 C997 1.996 . S
C1884 C841 1.995 . S
C1895 C1252 1.982 . S
C1900 C1105 1.985 1_554 S
C1911 C1377 1.960 1_655 S
C1916 C1173 1.965 . S
