# Generated by pormake.
# Topology uni, (4)-cn, num edge types: 1
# Building blocks:
#     Node 0, Type 0, BuildingBlock: AZAVOO_clean_sbu_0, # of connection points: 4
#     Node 1, Type 0, BuildingBlock: AZAVOO_clean_sbu_0, # of connection points: 4
#     Node 2, Type 0, BuildingBlock: AZAVOO_clean_sbu_0, # of connection points: 4
#     Node 3, Type 0, BuildingBlock: AZAVOO_clean_sbu_0, # of connection points: 4
#     Node 4, Type 0, BuildingBlock: AZAVOO_clean_sbu_0, # of connection points: 4
#     Node 5, Type 0, BuildingBlock: AZAVOO_clean_sbu_0, # of connection points: 4
#     Edge 6, Type (0, 0), BuildingBlock: XIVTED_clean_linker_0, # of connection points: 2
#     Edge 7, Type (0, 0), BuildingBlock: XIVTED_clean_linker_0, # of connection points: 2
#     Edge 8, Type (0, 0), BuildingBlock: XIVTED_clean_linker_0, # of connection points: 2
#     Edge 9, Type (0, 0), BuildingBlock: XIVTED_clean_linker_0, # of connection points: 2
#     Edge 10, Type (0, 0), BuildingBlock: XIVTED_clean_linker_0, # of connection points: 2
#     Edge 11, Type (0, 0), BuildingBlock: XIVTED_clean_linker_0, # of connection points: 2
#     Edge 12, Type (0, 0), BuildingBlock: XIVTED_clean_linker_0, # of connection points: 2
#     Edge 13, Type (0, 0), BuildingBlock: XIVTED_clean_linker_0, # of connection points: 2
#     Edge 14, Type (0, 0), BuildingBlock: XIVTED_clean_linker_0, # of connection points: 2
#     Edge 15, Type (0, 0), BuildingBlock: XIVTED_clean_linker_0, # of connection points: 2
#     Edge 16, Type (0, 0), BuildingBlock: XIVTED_clean_linker_0, # of connection points: 2
#     Edge 17, Type (0, 0), BuildingBlock: XIVTED_clean_linker_0, # of connection points: 2
# Relax obj value: 0.054
# Max RMSD: 0.095
# Mean RMSD: 0.095
data_MOF--net-uni--node1-AZAVOO_clean_sbu_0--edge1-XIVTED_clean_linker_0
_symmetry_space_group_name_H-M    P1
_symmetry_Int_Tables_number       1
_symmetry_cell_setting            triclinic
loop_
_symmetry_equiv_pos_as_xyz
'x, y, z'
_cell_length_a     40.178888
_cell_length_b     40.289091
_cell_length_c     21.796314
_cell_angle_alpha  89.997471
_cell_angle_beta   89.927549
_cell_angle_gamma 120.0853
loop_
_atom_site_label
_atom_site_type_symbol
_atom_site_fract_x
_atom_site_fract_y
_atom_site_fract_z
_atom_type_partial_charge
Mg0 Mg 0.64504 0.01388 0.0242 0.0
O1 O 0.61197 0.02675 0.09669 0.0
O2 O 0.60465 0.07533 0.06469 0.0
Mg3 Mg 0.63204 0.09241 0.96943 0.0
C4 C 0.59968 0.05012 0.1047 0.0
C5 C 0.68321 0.97497 0.10405 0.0
O6 O 0.71446 -0.00328 0.07204 0.0
O7 O 0.70127 0.06735 0.04961 0.0
O8 O 0.69205 0.11353 0.01092 0.0
O9 O 0.59011 0.97277 0.97923 0.0
O10 O 0.62371 0.03434 0.95525 0.0
C11 C 0.7131 0.1026 0.03812 0.0
C12 C 0.59315 0.00138 0.94764 0.0
O13 O 0.65315 0.97712 0.09473 0.0
Mg14 Mg 0.64066 0.64936 0.19679 0.0
O15 O 0.59287 0.61579 0.26648 0.0
O16 O 0.53776 0.60966 0.23213 0.0
Mg17 Mg 0.55058 0.63886 0.13827 0.0
C18 C 0.55704 0.60378 0.27278 0.0
C19 C 0.71686 0.68477 0.27809 0.0
O20 O 0.7275 0.7159 0.24535 0.0
O21 O 0.64391 0.70534 0.22396 0.0
O22 O 0.58936 0.69759 0.18337 0.0
O23 O 0.62689 0.5952 0.14994 0.0
O24 O 0.60018 0.62992 0.12578 0.0
C25 C 0.62093 0.71771 0.21229 0.0
C26 C 0.60218 0.59926 0.11752 0.0
O27 O 0.68401 0.65548 0.26904 0.0
Mg28 Mg 0.00065 0.64151 0.35474 0.0
O29 O 0.98754 0.5936 0.42337 0.0
O30 O 0.93749 0.53901 0.38988 0.0
Mg31 Mg 0.91965 0.5521 0.29754 0.0
C32 C 0.9635 0.5579 0.42966 0.0
C33 C 0.04295 0.71754 0.43498 0.0
O34 O 0.0218 0.72781 0.40323 0.0
O35 O 0.94835 0.64477 0.38562 0.0
O36 O 0.90059 0.59086 0.34522 0.0
O37 O 0.04024 0.62787 0.3045 0.0
O38 O 0.97824 0.60139 0.2835 0.0
C39 C 0.9127 0.6222 0.37493 0.0
C40 C 0.0108 0.60338 0.27299 0.0
O41 O 0.03929 0.68473 0.42599 0.0
Mg42 Mg 0.36922 0.00643 0.52406 0.0
O43 O 0.40181 0.99356 0.59788 0.0
O44 O 0.41001 0.94548 0.56599 0.0
Mg45 Mg 0.38351 0.92836 0.47036 0.0
C46 C 0.41437 0.97042 0.60607 0.0
C47 C 0.38624 0.06722 0.62357 0.0
O48 O 0.4199 0.06971 0.61676 0.0
O49 O 0.31321 0.95258 0.54875 0.0
O50 O 0.32311 0.90666 0.5109 0.0
O51 O 0.42439 0.04807 0.4795 0.0
O52 O 0.3917 0.98635 0.45658 0.0
C53 C 0.30171 0.91738 0.53757 0.0
C54 C 0.42196 0.01949 0.44861 0.0
O55 O 0.35796 0.04261 0.59215 0.0
Mg56 Mg 0.37517 0.37095 0.69358 0.0
O57 O 0.4211 0.40792 0.76478 0.0
O58 O 0.47853 0.41943 0.73138 0.0
Mg59 Mg 0.4696 0.39036 0.63842 0.0
C60 C 0.45739 0.423 0.7715 0.0
C61 C 0.33012 0.38781 0.79129 0.0
O62 O 0.36053 0.42177 0.78245 0.0
O63 O 0.37778 0.31803 0.72346 0.0
O64 O 0.43523 0.33197 0.6859 0.0
O65 O 0.38469 0.4234 0.64394 0.0
O66 O 0.41681 0.39334 0.6245 0.0
C67 C 0.40406 0.30957 0.71435 0.0
C68 C 0.41165 0.42188 0.61371 0.0
O69 O 0.32746 0.35925 0.76213 0.0
Mg70 Mg 0.01369 0.37693 0.85262 0.0
O71 O 0.02256 0.42432 0.92009 0.0
O72 O 0.06933 0.48052 0.88454 0.0
Mg73 Mg 0.08964 0.46924 0.79332 0.0
C74 C 0.0442 0.46058 0.925 0.0
C75 C 0.97283 0.29976 0.93105 0.0
O76 O 0.99313 0.28973 0.89645 0.0
O77 O 0.06893 0.37935 0.88505 0.0
O78 O 0.11298 0.43548 0.84453 0.0
O79 O 0.9713 0.38601 0.80052 0.0
O80 O 0.03361 0.41653 0.78047 0.0
C81 C 0.10387 0.40504 0.87512 0.0
C82 C 3e-05 0.4118 0.76913 0.0
O83 O 0.97679 0.33288 0.9246 0.0
H84 H 0.56575 0.98943 0.18419 0.0
H85 H 0.48193 0.0872 0.40726 0.0
H86 H 0.58297 0.10288 0.15329 0.0
H87 H 0.43104 0.96454 0.38896 0.0
H88 H 0.5288 0.09597 0.32787 0.0
H89 H 0.52581 0.9827 0.27334 0.0
C90 C 0.56143 0.01307 0.19642 0.0
C91 C 0.57753 0.0467 0.16094 0.0
C92 C 0.5075 0.06717 0.34167 0.0
C93 C 0.53207 0.03917 0.26306 0.0
C94 C 0.48086 0.0621 0.38713 0.0
C95 C 0.4524 0.02504 0.4047 0.0
C96 C 0.50599 0.03496 0.31419 0.0
C97 C 0.45236 0.9936 0.37689 0.0
C98 C 0.53852 0.00911 0.24714 0.0
C99 C 0.57087 0.07634 0.17899 0.0
N100 N 0.47874 -0.00073 0.33298 0.0
N101 N 0.54865 0.07188 0.22885 0.0
H102 H 0.48578 0.58538 0.3169 0.0
H103 H 0.47606 0.43178 0.55391 0.0
H104 H 0.5825 0.56948 0.35352 0.0
H105 H 0.40143 0.47971 0.56916 0.0
H106 H 0.51316 0.47921 0.47563 0.0
H107 H 0.45193 0.54397 0.40454 0.0
C108 C 0.49996 0.57335 0.34347 0.0
C109 C 0.53698 0.58079 0.32767 0.0
C110 C 0.48889 0.47959 0.49654 0.0
C111 C 0.4983 0.53323 0.42738 0.0
C112 C 0.46764 0.45248 0.54139 0.0
C113 C 0.43566 0.45184 0.56856 0.0
C114 C 0.47769 0.50585 0.47774 0.0
C115 C 0.42597 0.47925 0.54962 0.0
C116 C 0.48069 0.54987 0.39357 0.0
C117 C 0.55403 0.56458 0.36397 0.0
N118 N 0.44669 0.50495 0.50489 0.0
N119 N 0.5344 0.54126 0.41171 0.0
H120 H 0.05527 0.47353 0.70505 0.0
H121 H 0.90999 0.48757 0.4753 0.0
H122 H 0.93219 0.40338 0.72629 0.0
H123 H 0.02508 0.58167 0.50647 0.0
H124 H 0.918 0.45324 0.56154 0.0
H125 H 0.0454 0.51065 0.62631 0.0
C126 C 0.02617 0.46609 0.69369 0.0
C127 C -0.00547 0.43543 0.7228 0.0
C128 C 0.94134 0.48152 0.54966 0.0
C129 C 0.98305 0.47742 0.63154 0.0
C130 C 0.93687 0.50107 0.50035 0.0
C131 C 0.96696 0.53751 0.48352 0.0
C132 C 0.97635 0.49826 0.58162 0.0
C133 C 0.00109 0.55368 0.51784 0.0
C134 C 0.02057 0.48733 0.6486 0.0
C135 C 0.95744 0.42689 0.70526 0.0
N136 N 0.00499 0.53378 0.56487 0.0
N137 N 0.95269 0.44759 0.66037 0.0
H138 H 0.53241 0.93386 0.90793 0.0
H139 H 0.44867 0.03143 0.68493 0.0
H140 H 0.58502 0.05653 0.88656 0.0
H141 H 0.43062 0.91759 0.65538 0.0
H142 H 0.4891 0.03848 0.77336 0.0
H143 H 0.48525 0.92515 0.82942 0.0
C144 C 0.53383 0.95899 0.88727 0.0
C145 C 0.56282 -0.00398 0.90377 0.0
C146 C 0.47608 0.01192 0.74763 0.0
C147 C 0.50885 0.98616 0.81426 0.0
C148 C 0.45285 0.00776 0.69734 0.0
C149 C 0.43643 0.97394 0.66239 0.0
C150 C 0.48246 0.98184 0.76368 0.0
C151 C 0.44298 0.94428 0.68066 0.0
C152 C 0.507 0.95395 0.84232 0.0
C153 C 0.56328 0.0275 0.8753 0.0
N154 N 0.46548 0.94891 0.7301 0.0
N155 N 0.53668 0.02185 0.83191 0.0
H156 H 0.60843 0.5385 0.0773 0.0
H157 H 0.43009 0.45797 0.84806 0.0
H158 H 0.54051 0.59332 0.05356 0.0
H159 H 0.52669 0.44048 0.82118 0.0
H160 H 0.46288 0.49851 0.93695 0.0
H161 H 0.57086 0.49279 0.99674 0.0
C162 C 0.58537 0.54072 0.05565 0.0
C163 C 0.57767 0.56988 0.07213 0.0
C164 C 0.47673 0.48563 0.9116 0.0
C165 C 0.53456 0.51757 0.98021 0.0
C166 C 0.45802 0.46239 0.8611 0.0
C167 C 0.47581 0.44601 0.82696 0.0
C168 C 0.51311 0.49191 0.92863 0.0
C169 C 0.51208 0.45281 0.84585 0.0
C170 C 0.56409 0.51472 0.00952 0.0
C171 C 0.54749 0.57138 0.04235 0.0
N172 N 0.5295 0.47517 0.89553 0.0
N173 N 0.52697 0.54555 0.99778 0.0
H174 H 0.09643 0.53087 0.9708 0.0
H175 H 0.95373 0.542 0.21042 0.0
H176 H 0.98222 0.43518 0.0022 0.0
H177 H 0.0772 0.61008 0.22774 0.0
H178 H 0.96195 0.50521 0.12846 0.0
H179 H 0.08836 0.56365 0.05896 0.0
C180 C 0.06964 0.51675 0.99623 0.0
C181 C 0.03991 0.48026 0.97907 0.0
C182 C 0.98717 0.528 0.15067 0.0
C183 C 0.03045 0.51775 0.07966 0.0
C184 C 0.98253 0.54904 0.19743 0.0
C185 C 0.01482 0.57913 0.2261 0.0
C186 C 0.02436 0.53766 0.13173 0.0
C187 C 0.05148 0.58706 0.20703 0.0
C188 C 0.06516 0.5354 0.04671 0.0
C189 C 0.00591 0.46324 0.01396 0.0
N190 N 0.05526 0.5667 0.16063 0.0
N191 N 0.00195 0.4823 0.06234 0.0
H192 H 0.5754 0.74886 0.23294 0.0
H193 H 0.73619 0.9514 0.11917 0.0
H194 H 0.6943 0.77888 0.21706 0.0
H195 H 0.62357 0.92706 0.17842 0.0
H196 H 0.72492 0.89208 0.1686 0.0
H197 H 0.59507 0.8167 0.22824 0.0
C198 C 0.60576 0.76987 0.22973 0.0
C199 C 0.63321 0.75828 0.22443 0.0
C200 C 0.70299 0.90013 0.17179 0.0
C201 C 0.65596 0.83599 0.21733 0.0
C202 C 0.70942 0.93401 0.14353 0.0
C203 C 0.68041 0.94372 0.14334 0.0
C204 C 0.66722 0.87579 0.19949 0.0
C205 C 0.64644 0.9203 0.17618 0.0
C206 C 0.61704 0.80865 0.22701 0.0
C207 C 0.6722 0.78665 0.22095 0.0
N208 N 0.64054 0.88713 0.20195 0.0
N209 N 0.68238 0.82423 0.21597 0.0
H210 H 0.92642 0.69566 0.38775 0.0
H211 H 0.70331 0.62473 0.35258 0.0
H212 H 0.83534 0.5774 0.3928 0.0
H213 H 0.79403 0.73589 0.29309 0.0
H214 H 0.75129 0.61297 0.40025 0.0
H215 H 0.87795 0.71559 0.38599 0.0
C216 C 0.89627 0.67393 0.39026 0.0
C217 C 0.8848 0.63478 0.38925 0.0
C218 C 0.76065 0.6402 0.37763 0.0
C219 C 0.82949 0.65737 0.38711 0.0
C220 C 0.73328 0.64698 0.35036 0.0
C221 C 0.74477 0.68098 0.31737 0.0
C222 C 0.79982 0.66753 0.37183 0.0
C223 C 0.78395 0.70901 0.31714 0.0
C224 C 0.86867 0.68534 0.38886 0.0
C225 C 0.84539 0.60787 0.39247 0.0
N226 N 0.8102 0.7014 0.34304 0.0
N227 N 0.81914 0.61965 0.39051 0.0
H228 H 0.09177 0.70516 0.50575 0.0
H229 H 0.23998 0.92854 0.54754 0.0
H230 H 0.06788 0.79416 0.45122 0.0
H231 H 0.27053 0.83998 0.55044 0.0
H232 H 0.17196 0.87888 0.54254 0.0
H233 H 0.15165 0.75367 0.55254 0.0
C234 C 0.0988 0.73485 0.50438 0.0
C235 C 0.07519 0.74572 0.47319 0.0
C236 C 0.19358 0.8704 0.54548 0.0
C237 C 0.14386 0.8014 0.52664 0.0
C238 C 0.23237 0.89867 0.5487 0.0
C239 C 0.26096 0.88833 0.54831 0.0
C240 C 0.18344 0.83163 0.54248 0.0
C241 C 0.24945 0.84922 0.54974 0.0
C242 C 0.13304 0.76253 0.53112 0.0
C243 C 0.08551 0.78457 0.47393 0.0
N244 N 0.2116 0.82231 0.54609 0.0
N245 N 0.11943 0.81114 0.49937 0.0
H246 H 0.45693 0.28987 0.74827 0.0
H247 H 0.32398 0.07767 0.63519 0.0
H248 H 0.33566 0.24168 0.71388 0.0
H249 H 0.44122 0.12324 0.69555 0.0
H250 H 0.32376 0.13294 0.68113 0.0
H251 H 0.44814 0.22549 0.74843 0.0
C252 C 0.42825 0.26555 0.74207 0.0
C253 C 0.39708 0.27103 0.73006 0.0
C254 C 0.34929 0.13048 0.68531 0.0
C255 C 0.38689 0.19726 0.72835 0.0
C256 C 0.34945 0.09894 0.659 0.0
C257 C 0.383 0.09633 0.66023 0.0
C258 C 0.38299 0.15966 0.71256 0.0
C259 C 0.41497 0.12446 0.69234 0.0
C260 C 0.42321 0.22876 0.74205 0.0
C261 C 0.36047 0.23862 0.72297 0.0
N262 N 0.41438 0.15524 0.71632 0.0
N263 N 0.35651 0.20306 0.72073 0.0
H264 H 0.17617 0.45778 0.9107 0.0
H265 H 0.25728 0.32538 0.80246 0.0
H266 H 0.10337 0.33682 0.87607 0.0
H267 H 0.32814 0.44265 0.86199 0.0
H268 H 0.20108 0.32503 0.84671 0.0
H269 H 0.23198 0.44913 0.91257 0.0
C270 C 0.17191 0.42919 0.90489 0.0
C271 C 0.1353 0.39807 0.89235 0.0
C272 C 0.22905 0.35059 0.85109 0.0
C273 C 0.19917 0.38803 0.89242 0.0
C274 C 0.26116 0.35082 0.8258 0.0
C275 C 0.29731 0.38441 0.82725 0.0
C276 C 0.23318 0.38425 0.87762 0.0
C277 C 0.3007 0.41636 0.85862 0.0
C278 C 0.20379 0.42423 0.90578 0.0
C279 C 0.13122 0.36158 0.88564 0.0
N280 N 0.26898 0.41568 0.88166 0.0
N281 N 0.16296 0.35769 0.88425 0.0
H282 H 0.94843 0.22306 0.94492 0.0
H283 H 0.7442 0.17954 0.05591 0.0
H284 H 0.92383 0.31085 0.00387 0.0
H285 H 0.77492 0.09141 0.04217 0.0
H286 H 0.81213 0.22818 0.05005 0.0
H287 H 0.88825 0.17461 0.99237 0.0
C288 C 0.93077 0.23224 0.96876 0.0
C289 C 0.9408 0.27101 0.9692 0.0
C290 C 0.8042 0.19823 0.04949 0.0
C291 C 0.87179 0.21574 0.02305 0.0
C292 C 0.76536 0.17044 0.05285 0.0
C293 C 0.75391 0.13143 0.04864 0.0
C294 C 0.83177 0.18698 0.04041 0.0
C295 C 0.78254 0.12122 0.04527 0.0
C296 C 0.8964 0.20455 0.9959 0.0
C297 C 0.91696 0.28125 0.00132 0.0
N298 N 0.82015 0.14886 0.03983 0.0
N299 N 0.88329 0.25375 0.02597 0.0
loop_
_geom_bond_atom_site_label_1
_geom_bond_atom_site_label_2
_geom_bond_distance
_geom_bond_site_symmetry_2
_ccdc_geom_bond_type
Mg0 O1 2.028 . S
Mg0 O7 1.986 . S
Mg0 O9 2.114 1_544 S
Mg0 O10 2.251 1_554 S
Mg0 O13 2.010 1_545 S
O1 Mg0 2.028 . S
O1 C4 1.250 . S
O2 Mg3 2.028 . S
O2 C4 1.248 . S
Mg3 O2 2.028 . S
Mg3 O8 2.032 . S
Mg3 O10 2.079 1_554 S
C4 O1 1.250 . S
C4 O2 1.248 . S
C5 O6 1.264 . S
C5 O13 1.249 . S
O6 C5 1.264 . S
O7 Mg0 1.986 . S
O7 C11 1.246 . S
O8 Mg3 2.032 . S
O8 C11 1.259 . S
O9 Mg0 2.114 1_566 S
O9 C12 1.252 1_565 S
O10 Mg0 2.251 1_556 S
O10 Mg3 2.079 1_556 S
O10 C12 1.273 . S
C11 O7 1.246 . S
C11 O8 1.259 . S
C12 O9 1.252 1_545 S
C12 O10 1.273 . S
O13 Mg0 2.010 1_565 S
O13 C5 1.249 . S
Mg14 O15 2.028 . S
Mg14 O21 1.986 . S
Mg14 O23 2.114 . S
Mg14 O24 2.251 . S
Mg14 O27 2.010 . S
O15 Mg14 2.028 . S
O15 C18 1.250 . S
O16 Mg17 2.028 . S
O16 C18 1.248 . S
Mg17 O16 2.028 . S
Mg17 O22 2.032 . S
Mg17 O24 2.079 . S
C18 O15 1.250 . S
C18 O16 1.248 . S
C19 O20 1.264 . S
C19 O27 1.249 . S
O20 C19 1.264 . S
O21 Mg14 1.986 . S
O21 C25 1.246 . S
O22 Mg17 2.032 . S
O22 C25 1.259 . S
O23 Mg14 2.114 . S
O23 C26 1.252 . S
O24 Mg14 2.251 . S
O24 Mg17 2.079 . S
O24 C26 1.273 . S
C25 O21 1.246 . S
C25 O22 1.259 . S
C26 O23 1.252 . S
C26 O24 1.273 . S
O27 Mg14 2.010 . S
O27 C19 1.249 . S
Mg28 O29 2.028 . S
Mg28 O35 1.986 1_455 S
Mg28 O37 2.114 . S
Mg28 O38 2.251 1_455 S
Mg28 O41 2.010 . S
O29 Mg28 2.028 . S
O29 C32 1.250 . S
O30 Mg31 2.028 . S
O30 C32 1.248 1_655 S
Mg31 O30 2.028 . S
Mg31 O36 2.032 . S
Mg31 O38 2.079 . S
C32 O29 1.250 . S
C32 O30 1.248 1_455 S
C33 O34 1.264 . S
C33 O41 1.249 . S
O34 C33 1.264 . S
O35 Mg28 1.986 1_655 S
O35 C39 1.246 . S
O36 Mg31 2.032 . S
O36 C39 1.259 . S
O37 Mg28 2.114 . S
O37 C40 1.252 . S
O38 Mg28 2.251 1_655 S
O38 Mg31 2.079 . S
O38 C40 1.273 1_655 S
C39 O35 1.246 . S
C39 O36 1.259 . S
C40 O37 1.252 . S
C40 O38 1.273 1_455 S
O41 Mg28 2.010 . S
O41 C33 1.249 . S
Mg42 O43 2.028 . S
Mg42 O49 1.986 1_545 S
Mg42 O51 2.114 . S
Mg42 O52 2.251 1_545 S
Mg42 O55 2.010 . S
O43 Mg42 2.028 . S
O43 C46 1.250 . S
O44 Mg45 2.028 . S
O44 C46 1.248 1_565 S
Mg45 O44 2.028 . S
Mg45 O50 2.032 . S
Mg45 O52 2.079 . S
C46 O43 1.250 . S
C46 O44 1.248 1_545 S
C47 O48 1.264 . S
C47 O55 1.249 . S
O48 C47 1.264 . S
O49 Mg42 1.986 1_565 S
O49 C53 1.246 . S
O50 Mg45 2.032 . S
O50 C53 1.259 . S
O51 Mg42 2.114 . S
O51 C54 1.252 . S
O52 Mg42 2.251 1_565 S
O52 Mg45 2.079 . S
O52 C54 1.273 1_565 S
C53 O49 1.246 . S
C53 O50 1.259 . S
C54 O51 1.252 . S
C54 O52 1.273 1_545 S
O55 Mg42 2.010 . S
O55 C47 1.249 . S
Mg56 O57 2.028 . S
Mg56 O63 1.986 . S
Mg56 O65 2.114 . S
Mg56 O66 2.251 . S
Mg56 O69 2.010 . S
O57 Mg56 2.028 . S
O57 C60 1.250 . S
O58 Mg59 2.028 . S
O58 C60 1.248 . S
Mg59 O58 2.028 . S
Mg59 O64 2.032 . S
Mg59 O66 2.079 . S
C60 O57 1.250 . S
C60 O58 1.248 . S
C61 O62 1.264 . S
C61 O69 1.249 . S
O62 C61 1.264 . S
O63 Mg56 1.986 . S
O63 C67 1.246 . S
O64 Mg59 2.032 . S
O64 C67 1.259 . S
O65 Mg56 2.114 . S
O65 C68 1.252 . S
O66 Mg56 2.251 . S
O66 Mg59 2.079 . S
O66 C68 1.273 . S
C67 O63 1.246 . S
C67 O64 1.259 . S
C68 O65 1.252 . S
C68 O66 1.273 . S
O69 Mg56 2.010 . S
O69 C61 1.249 . S
Mg70 O71 2.028 . S
Mg70 O77 1.986 . S
Mg70 O79 2.114 1_455 S
Mg70 O80 2.251 . S
Mg70 O83 2.010 1_455 S
O71 Mg70 2.028 . S
O71 C74 1.250 . S
O72 Mg73 2.028 . S
O72 C74 1.248 . S
Mg73 O72 2.028 . S
Mg73 O78 2.032 . S
Mg73 O80 2.079 . S
C74 O71 1.250 . S
C74 O72 1.248 . S
C75 O76 1.264 . S
C75 O83 1.249 . S
O76 C75 1.264 . S
O77 Mg70 1.986 . S
O77 C81 1.246 . S
O78 Mg73 2.032 . S
O78 C81 1.259 . S
O79 Mg70 2.114 1_655 S
O79 C82 1.252 1_655 S
O80 Mg70 2.251 . S
O80 Mg73 2.079 . S
O80 C82 1.273 . S
C81 O77 1.246 . S
C81 O78 1.259 . S
C82 O79 1.252 1_455 S
C82 O80 1.273 . S
O83 Mg70 2.010 1_655 S
O83 C75 1.249 . S
H84 C90 0.930 . S
H85 C94 0.930 . S
H86 C99 0.929 . S
H87 C97 0.929 . S
H88 C92 0.929 . S
H89 C98 0.929 . S
C90 H84 0.930 . S
C90 C91 1.367 1_565 S
C90 C98 1.378 . S
C91 C90 1.367 1_545 S
C91 C99 1.433 . S
C92 H88 0.929 . S
C92 C94 1.378 . S
C92 C96 1.350 . S
C93 C96 1.463 . S
C93 C98 1.350 1_545 S
C93 N101 1.427 . S
C94 H85 0.930 . S
C94 C92 1.378 . S
C94 C95 1.367 . S
C95 C94 1.367 . S
C95 C97 1.433 1_545 S
C96 C92 1.350 . S
C96 C93 1.463 . S
C96 N100 1.427 1_545 S
C97 H87 0.929 . S
C97 C95 1.433 1_565 S
C97 N100 1.384 . S
C98 H89 0.929 . S
C98 C90 1.378 . S
C98 C93 1.350 1_565 S
C99 H86 0.929 . S
C99 C91 1.433 . S
C99 N101 1.384 . S
N100 C96 1.427 1_565 S
N100 C97 1.384 . S
N101 C93 1.427 . S
N101 C99 1.384 . S
H102 C108 0.930 . S
H103 C112 0.930 . S
H104 C117 0.929 . S
H105 C115 0.929 . S
H106 C110 0.929 . S
H107 C116 0.929 . S
C108 H102 0.930 . S
C108 C109 1.367 . S
C108 C116 1.378 . S
C109 C108 1.367 . S
C109 C117 1.433 . S
C110 H106 0.929 . S
C110 C112 1.378 . S
C110 C114 1.350 . S
C111 C114 1.463 . S
C111 C116 1.350 . S
C111 N119 1.427 . S
C112 H103 0.930 . S
C112 C110 1.378 . S
C112 C113 1.367 . S
C113 C112 1.367 . S
C113 C115 1.433 . S
C114 C110 1.350 . S
C114 C111 1.463 . S
C114 N118 1.427 . S
C115 H105 0.929 . S
C115 C113 1.433 . S
C115 N118 1.384 . S
C116 H107 0.929 . S
C116 C108 1.378 . S
C116 C111 1.350 . S
C117 H104 0.929 . S
C117 C109 1.433 . S
C117 N119 1.384 . S
N118 C114 1.427 . S
N118 C115 1.384 . S
N119 C111 1.427 . S
N119 C117 1.384 . S
H120 C126 0.930 . S
H121 C130 0.930 . S
H122 C135 0.929 . S
H123 C133 0.929 . S
H124 C128 0.929 . S
H125 C134 0.929 . S
C126 H120 0.930 . S
C126 C127 1.367 . S
C126 C134 1.378 . S
C127 C126 1.367 . S
C127 C135 1.433 1_455 S
C128 H124 0.929 . S
C128 C130 1.378 . S
C128 C132 1.350 1_655 S
C129 C132 1.463 . S
C129 C134 1.350 . S
C129 N137 1.427 1_455 S
C130 H121 0.930 . S
C130 C128 1.378 . S
C130 C131 1.367 1_655 S
C131 C130 1.367 1_455 S
C131 C133 1.433 . S
C132 C128 1.350 1_455 S
C132 C129 1.463 . S
C132 N136 1.427 . S
C133 H123 0.929 . S
C133 C131 1.433 . S
C133 N136 1.384 . S
C134 H125 0.929 . S
C134 C126 1.378 . S
C134 C129 1.350 . S
C135 H122 0.929 . S
C135 C127 1.433 1_655 S
C135 N137 1.384 . S
N136 C132 1.427 . S
N136 C133 1.384 . S
N137 C129 1.427 1_655 S
N137 C135 1.384 . S
H138 C144 0.930 . S
H139 C148 0.930 . S
H140 C153 0.929 . S
H141 C151 0.929 . S
H142 C146 0.929 . S
H143 C152 0.929 . S
C144 H138 0.930 . S
C144 C145 1.367 1_565 S
C144 C152 1.378 . S
C145 C144 1.367 1_545 S
C145 C153 1.433 . S
C146 H142 0.929 . S
C146 C148 1.378 . S
C146 C150 1.350 . S
C147 C150 1.463 . S
C147 C152 1.350 1_545 S
C147 N155 1.427 . S
C148 H139 0.930 . S
C148 C146 1.378 . S
C148 C149 1.367 . S
C149 C148 1.367 . S
C149 C151 1.433 1_545 S
C150 C146 1.350 . S
C150 C147 1.463 . S
C150 N154 1.427 1_545 S
C151 H141 0.929 . S
C151 C149 1.433 1_565 S
C151 N154 1.384 . S
C152 H143 0.929 . S
C152 C144 1.378 . S
C152 C147 1.350 1_565 S
C153 H140 0.929 . S
C153 C145 1.433 . S
C153 N155 1.384 . S
N154 C150 1.427 1_565 S
N154 C151 1.384 . S
N155 C147 1.427 . S
N155 C153 1.384 . S
H156 C162 0.930 . S
H157 C166 0.930 . S
H158 C171 0.929 . S
H159 C169 0.929 . S
H160 C164 0.917 1_554 S
H161 C170 0.929 . S
C162 H156 0.930 . S
C162 C163 1.367 . S
C162 C170 1.378 1_554 S
C163 C162 1.367 . S
C163 C171 1.433 . S
C164 H160 0.917 1_556 S
C164 C166 1.378 . S
C164 C168 1.350 . S
C165 C168 1.463 . S
C165 C170 1.350 . S
C165 N173 1.427 1_556 S
C166 H157 0.930 . S
C166 C164 1.378 . S
C166 C167 1.367 . S
C167 C166 1.367 . S
C167 C169 1.433 . S
C168 C164 1.350 . S
C168 C165 1.463 . S
C168 N172 1.427 . S
C169 H159 0.929 . S
C169 C167 1.433 . S
C169 N172 1.384 . S
C170 H161 0.929 . S
C170 C162 1.378 1_556 S
C170 C165 1.350 . S
C171 H158 0.929 . S
C171 C163 1.433 . S
C171 N173 1.384 . S
N172 C168 1.427 . S
N172 C169 1.384 . S
N173 C165 1.427 1_554 S
N173 C171 1.384 . S
H174 C180 0.930 1_556 S
H175 C184 0.930 . S
H176 C189 0.929 . S
H177 C187 0.929 . S
H178 C182 0.929 . S
H179 C188 0.929 . S
C180 H174 0.930 1_554 S
C180 C181 1.367 . S
C180 C188 1.378 . S
C181 C180 1.367 . S
C181 C189 1.433 . S
C182 H178 0.929 . S
C182 C184 1.378 . S
C182 C186 1.350 . S
C183 C186 1.463 . S
C183 C188 1.350 . S
C183 N191 1.427 . S
C184 H175 0.930 . S
C184 C182 1.378 . S
C184 C185 1.367 . S
C185 C184 1.367 . S
C185 C187 1.433 . S
C186 C182 1.350 . S
C186 C183 1.463 . S
C186 N190 1.427 . S
C187 H177 0.929 . S
C187 C185 1.433 . S
C187 N190 1.384 . S
C188 H179 0.929 . S
C188 C180 1.378 . S
C188 C183 1.350 . S
C189 H176 0.929 . S
C189 C181 1.433 . S
C189 N191 1.384 . S
N190 C186 1.427 . S
N190 C187 1.384 . S
N191 C183 1.427 . S
N191 C189 1.384 . S
H192 C198 0.930 . S
H193 C202 0.930 . S
H194 C207 0.929 . S
H195 C205 0.929 . S
H196 C200 0.929 . S
H197 C206 0.929 . S
C198 H192 0.930 . S
C198 C199 1.367 . S
C198 C206 1.378 . S
C199 C198 1.367 . S
C199 C207 1.433 . S
C200 H196 0.929 . S
C200 C202 1.378 . S
C200 C204 1.350 . S
C201 C204 1.463 . S
C201 C206 1.350 . S
C201 N209 1.427 . S
C202 H193 0.930 . S
C202 C200 1.378 . S
C202 C203 1.367 . S
C203 C202 1.367 . S
C203 C205 1.433 . S
C204 C200 1.350 . S
C204 C201 1.463 . S
C204 N208 1.427 . S
C205 H195 0.929 . S
C205 C203 1.433 . S
C205 N208 1.384 . S
C206 H197 0.929 . S
C206 C198 1.378 . S
C206 C201 1.350 . S
C207 H194 0.929 . S
C207 C199 1.433 . S
C207 N209 1.384 . S
N208 C204 1.427 . S
N208 C205 1.384 . S
N209 C201 1.427 . S
N209 C207 1.384 . S
H210 C216 0.930 . S
H211 C220 0.930 . S
H212 C225 0.929 . S
H213 C223 0.929 . S
H214 C218 0.929 . S
H215 C224 0.929 . S
C216 H210 0.930 . S
C216 C217 1.367 . S
C216 C224 1.378 . S
C217 C216 1.367 . S
C217 C225 1.433 . S
C218 H214 0.929 . S
C218 C220 1.378 . S
C218 C222 1.350 . S
C219 C222 1.463 . S
C219 C224 1.350 . S
C219 N227 1.427 . S
C220 H211 0.930 . S
C220 C218 1.378 . S
C220 C221 1.367 . S
C221 C220 1.367 . S
C221 C223 1.433 . S
C222 C218 1.350 . S
C222 C219 1.463 . S
C222 N226 1.427 . S
C223 H213 0.929 . S
C223 C221 1.433 . S
C223 N226 1.384 . S
C224 H215 0.929 . S
C224 C216 1.378 . S
C224 C219 1.350 . S
C225 H212 0.929 . S
C225 C217 1.433 . S
C225 N227 1.384 . S
N226 C222 1.427 . S
N226 C223 1.384 . S
N227 C219 1.427 . S
N227 C225 1.384 . S
H228 C234 0.930 . S
H229 C238 0.930 . S
H230 C243 0.929 . S
H231 C241 0.929 . S
H232 C236 0.929 . S
H233 C242 0.929 . S
C234 H228 0.930 . S
C234 C235 1.367 . S
C234 C242 1.378 . S
C235 C234 1.367 . S
C235 C243 1.433 . S
C236 H232 0.929 . S
C236 C238 1.378 . S
C236 C240 1.350 . S
C237 C240 1.463 . S
C237 C242 1.350 . S
C237 N245 1.427 . S
C238 H229 0.930 . S
C238 C236 1.378 . S
C238 C239 1.367 . S
C239 C238 1.367 . S
C239 C241 1.433 . S
C240 C236 1.350 . S
C240 C237 1.463 . S
C240 N244 1.427 . S
C241 H231 0.929 . S
C241 C239 1.433 . S
C241 N244 1.384 . S
C242 H233 0.929 . S
C242 C234 1.378 . S
C242 C237 1.350 . S
C243 H230 0.929 . S
C243 C235 1.433 . S
C243 N245 1.384 . S
N244 C240 1.427 . S
N244 C241 1.384 . S
N245 C237 1.427 . S
N245 C243 1.384 . S
H246 C252 0.930 . S
H247 C256 0.930 . S
H248 C261 0.929 . S
H249 C259 0.929 . S
H250 C254 0.929 . S
H251 C260 0.929 . S
C252 H246 0.930 . S
C252 C253 1.367 . S
C252 C260 1.378 . S
C253 C252 1.367 . S
C253 C261 1.433 . S
C254 H250 0.929 . S
C254 C256 1.378 . S
C254 C258 1.350 . S
C255 C258 1.463 . S
C255 C260 1.350 . S
C255 N263 1.427 . S
C256 H247 0.930 . S
C256 C254 1.378 . S
C256 C257 1.367 . S
C257 C256 1.367 . S
C257 C259 1.433 . S
C258 C254 1.350 . S
C258 C255 1.463 . S
C258 N262 1.427 . S
C259 H249 0.929 . S
C259 C257 1.433 . S
C259 N262 1.384 . S
C260 H251 0.929 . S
C260 C252 1.378 . S
C260 C255 1.350 . S
C261 H248 0.929 . S
C261 C253 1.433 . S
C261 N263 1.384 . S
N262 C258 1.427 . S
N262 C259 1.384 . S
N263 C255 1.427 . S
N263 C261 1.384 . S
H264 C270 0.930 . S
H265 C274 0.930 . S
H266 C279 0.929 . S
H267 C277 0.929 . S
H268 C272 0.929 . S
H269 C278 0.929 . S
C270 H264 0.930 . S
C270 C271 1.367 . S
C270 C278 1.378 . S
C271 C270 1.367 . S
C271 C279 1.433 . S
C272 H268 0.929 . S
C272 C274 1.378 . S
C272 C276 1.350 . S
C273 C276 1.463 . S
C273 C278 1.350 . S
C273 N281 1.427 . S
C274 H265 0.930 . S
C274 C272 1.378 . S
C274 C275 1.367 . S
C275 C274 1.367 . S
C275 C277 1.433 . S
C276 C272 1.350 . S
C276 C273 1.463 . S
C276 N280 1.427 . S
C277 H267 0.929 . S
C277 C275 1.433 . S
C277 N280 1.384 . S
C278 H269 0.929 . S
C278 C270 1.378 . S
C278 C273 1.350 . S
C279 H266 0.929 . S
C279 C271 1.433 . S
C279 N281 1.384 . S
N280 C276 1.427 . S
N280 C277 1.384 . S
N281 C273 1.427 . S
N281 C279 1.384 . S
H282 C288 0.930 . S
H283 C292 0.930 . S
H284 C297 0.929 . S
H285 C295 0.929 . S
H286 C290 0.929 . S
H287 C296 0.929 . S
C288 H282 0.930 . S
C288 C289 1.367 . S
C288 C296 1.378 . S
C289 C288 1.367 . S
C289 C297 1.433 1_556 S
C290 H286 0.929 . S
C290 C292 1.378 . S
C290 C294 1.350 . S
C291 C294 1.463 1_556 S
C291 C296 1.350 . S
C291 N299 1.427 1_556 S
C292 H283 0.930 . S
C292 C290 1.378 . S
C292 C293 1.367 . S
C293 C292 1.367 . S
C293 C295 1.433 1_554 S
C294 C290 1.350 . S
C294 C291 1.463 1_554 S
C294 N298 1.427 1_554 S
C295 H285 0.929 . S
C295 C293 1.433 1_556 S
C295 N298 1.384 . S
C296 H287 0.929 . S
C296 C288 1.378 . S
C296 C291 1.350 . S
C297 H284 0.929 . S
C297 C289 1.433 1_554 S
C297 N299 1.384 . S
N298 C294 1.427 1_556 S
N298 C295 1.384 . S
N299 C291 1.427 1_554 S
N299 C297 1.384 . S
C91 C4 1.328 . S
C95 C54 1.362 . S
C109 C18 1.320 . S
C113 C68 1.360 . S
C127 C82 1.360 . S
C131 C32 1.318 . S
C145 C12 1.362 . S
C149 C46 1.325 . S
C163 C26 1.363 . S
C167 C60 1.332 . S
C181 C74 1.318 1_554 S
C185 C40 1.361 . S
C199 C25 1.428 . S
C203 C5 1.276 . S
C217 C39 1.428 . S
C221 C19 1.297 . S
C235 C33 1.300 . S
C239 C53 1.421 . S
C253 C67 1.418 . S
C257 C47 1.291 . S
C271 C81 1.419 . S
C275 C61 1.278 . S
C289 C75 1.276 . S
C293 C11 1.429 . S
