# Generated by pormake.
# Topology afi, (4)-cn, num edge types: 1
# Building blocks:
#     Node 0, Type 0, BuildingBlock: KUFVIS_clean_sbu_0, # of connection points: 4
#     Node 1, Type 0, BuildingBlock: KUFVIS_clean_sbu_0, # of connection points: 4
#     Node 2, Type 0, BuildingBlock: KUFVIS_clean_sbu_0, # of connection points: 4
#     Node 3, Type 0, BuildingBlock: KUFVIS_clean_sbu_0, # of connection points: 4
#     Node 4, Type 0, BuildingBlock: KUFVIS_clean_sbu_0, # of connection points: 4
#     Node 5, Type 0, BuildingBlock: KUFVIS_clean_sbu_0, # of connection points: 4
#     Node 6, Type 0, BuildingBlock: KUFVIS_clean_sbu_0, # of connection points: 4
#     Node 7, Type 0, BuildingBlock: KUFVIS_clean_sbu_0, # of connection points: 4
#     Node 8, Type 0, BuildingBlock: KUFVIS_clean_sbu_0, # of connection points: 4
#     Node 9, Type 0, BuildingBlock: KUFVIS_clean_sbu_0, # of connection points: 4
#     Node 10, Type 0, BuildingBlock: KUFVIS_clean_sbu_0, # of connection points: 4
#     Node 11, Type 0, BuildingBlock: KUFVIS_clean_sbu_0, # of connection points: 4
#     Node 12, Type 0, BuildingBlock: KUFVIS_clean_sbu_0, # of connection points: 4
#     Node 13, Type 0, BuildingBlock: KUFVIS_clean_sbu_0, # of connection points: 4
#     Node 14, Type 0, BuildingBlock: KUFVIS_clean_sbu_0, # of connection points: 4
#     Node 15, Type 0, BuildingBlock: KUFVIS_clean_sbu_0, # of connection points: 4
#     Node 16, Type 0, BuildingBlock: KUFVIS_clean_sbu_0, # of connection points: 4
#     Node 17, Type 0, BuildingBlock: KUFVIS_clean_sbu_0, # of connection points: 4
#     Node 18, Type 0, BuildingBlock: KUFVIS_clean_sbu_0, # of connection points: 4
#     Node 19, Type 0, BuildingBlock: KUFVIS_clean_sbu_0, # of connection points: 4
#     Node 20, Type 0, BuildingBlock: KUFVIS_clean_sbu_0, # of connection points: 4
#     Node 21, Type 0, BuildingBlock: KUFVIS_clean_sbu_0, # of connection points: 4
#     Node 22, Type 0, BuildingBlock: KUFVIS_clean_sbu_0, # of connection points: 4
#     Node 23, Type 0, BuildingBlock: KUFVIS_clean_sbu_0, # of connection points: 4
#     Edge 24, Type (0, 0), BuildingBlock: ZUJKAS_clean_linker_0, # of connection points: 2
#     Edge 25, Type (0, 0), BuildingBlock: ZUJKAS_clean_linker_0, # of connection points: 2
#     Edge 26, Type (0, 0), BuildingBlock: ZUJKAS_clean_linker_0, # of connection points: 2
#     Edge 27, Type (0, 0), BuildingBlock: ZUJKAS_clean_linker_0, # of connection points: 2
#     Edge 28, Type (0, 0), BuildingBlock: ZUJKAS_clean_linker_0, # of connection points: 2
#     Edge 29, Type (0, 0), BuildingBlock: ZUJKAS_clean_linker_0, # of connection points: 2
#     Edge 30, Type (0, 0), BuildingBlock: ZUJKAS_clean_linker_0, # of connection points: 2
#     Edge 31, Type (0, 0), BuildingBlock: ZUJKAS_clean_linker_0, # of connection points: 2
#     Edge 32, Type (0, 0), BuildingBlock: ZUJKAS_clean_linker_0, # of connection points: 2
#     Edge 33, Type (0, 0), BuildingBlock: ZUJKAS_clean_linker_0, # of connection points: 2
#     Edge 34, Type (0, 0), BuildingBlock: ZUJKAS_clean_linker_0, # of connection points: 2
#     Edge 35, Type (0, 0), BuildingBlock: ZUJKAS_clean_linker_0, # of connection points: 2
#     Edge 36, Type (0, 0), BuildingBlock: ZUJKAS_clean_linker_0, # of connection points: 2
#     Edge 37, Type (0, 0), BuildingBlock: ZUJKAS_clean_linker_0, # of connection points: 2
#     Edge 38, Type (0, 0), BuildingBlock: ZUJKAS_clean_linker_0, # of connection points: 2
#     Edge 39, Type (0, 0), BuildingBlock: ZUJKAS_clean_linker_0, # of connection points: 2
#     Edge 40, Type (0, 0), BuildingBlock: ZUJKAS_clean_linker_0, # of connection points: 2
#     Edge 41, Type (0, 0), BuildingBlock: ZUJKAS_clean_linker_0, # of connection points: 2
#     Edge 42, Type (0, 0), BuildingBlock: ZUJKAS_clean_linker_0, # of connection points: 2
#     Edge 43, Type (0, 0), BuildingBlock: ZUJKAS_clean_linker_0, # of connection points: 2
#     Edge 44, Type (0, 0), BuildingBlock: ZUJKAS_clean_linker_0, # of connection points: 2
#     Edge 45, Type (0, 0), BuildingBlock: ZUJKAS_clean_linker_0, # of connection points: 2
#     Edge 46, Type (0, 0), BuildingBlock: ZUJKAS_clean_linker_0, # of connection points: 2
#     Edge 47, Type (0, 0), BuildingBlock: ZUJKAS_clean_linker_0, # of connection points: 2
#     Edge 48, Type (0, 0), BuildingBlock: ZUJKAS_clean_linker_0, # of connection points: 2
#     Edge 49, Type (0, 0), BuildingBlock: ZUJKAS_clean_linker_0, # of connection points: 2
#     Edge 50, Type (0, 0), BuildingBlock: ZUJKAS_clean_linker_0, # of connection points: 2
#     Edge 51, Type (0, 0), BuildingBlock: ZUJKAS_clean_linker_0, # of connection points: 2
#     Edge 52, Type (0, 0), BuildingBlock: ZUJKAS_clean_linker_0, # of connection points: 2
#     Edge 53, Type (0, 0), BuildingBlock: ZUJKAS_clean_linker_0, # of connection points: 2
#     Edge 54, Type (0, 0), BuildingBlock: ZUJKAS_clean_linker_0, # of connection points: 2
#     Edge 55, Type (0, 0), BuildingBlock: ZUJKAS_clean_linker_0, # of connection points: 2
#     Edge 56, Type (0, 0), BuildingBlock: ZUJKAS_clean_linker_0, # of connection points: 2
#     Edge 57, Type (0, 0), BuildingBlock: ZUJKAS_clean_linker_0, # of connection points: 2
#     Edge 58, Type (0, 0), BuildingBlock: ZUJKAS_clean_linker_0, # of connection points: 2
#     Edge 59, Type (0, 0), BuildingBlock: ZUJKAS_clean_linker_0, # of connection points: 2
#     Edge 60, Type (0, 0), BuildingBlock: ZUJKAS_clean_linker_0, # of connection points: 2
#     Edge 61, Type (0, 0), BuildingBlock: ZUJKAS_clean_linker_0, # of connection points: 2
#     Edge 62, Type (0, 0), BuildingBlock: ZUJKAS_clean_linker_0, # of connection points: 2
#     Edge 63, Type (0, 0), BuildingBlock: ZUJKAS_clean_linker_0, # of connection points: 2
#     Edge 64, Type (0, 0), BuildingBlock: ZUJKAS_clean_linker_0, # of connection points: 2
#     Edge 65, Type (0, 0), BuildingBlock: ZUJKAS_clean_linker_0, # of connection points: 2
#     Edge 66, Type (0, 0), BuildingBlock: ZUJKAS_clean_linker_0, # of connection points: 2
#     Edge 67, Type (0, 0), BuildingBlock: ZUJKAS_clean_linker_0, # of connection points: 2
#     Edge 68, Type (0, 0), BuildingBlock: ZUJKAS_clean_linker_0, # of connection points: 2
#     Edge 69, Type (0, 0), BuildingBlock: ZUJKAS_clean_linker_0, # of connection points: 2
#     Edge 70, Type (0, 0), BuildingBlock: ZUJKAS_clean_linker_0, # of connection points: 2
#     Edge 71, Type (0, 0), BuildingBlock: ZUJKAS_clean_linker_0, # of connection points: 2
# Relax obj value: 0.075
# Max RMSD: 0.080
# Mean RMSD: 0.080
data_MOF--net-afi--node1-KUFVIS_clean_sbu_0--edge1-ZUJKAS_clean_linker_0
_symmetry_space_group_name_H-M    P1
_symmetry_Int_Tables_number       1
_symmetry_cell_setting            triclinic
loop_
_symmetry_equiv_pos_as_xyz
'x, y, z'
_cell_length_a     86.899399
_cell_length_b     86.890286
_cell_length_c     50.796912
_cell_angle_alpha  90.016859
_cell_angle_beta   90.036263
_cell_angle_gamma 119.99145
loop_
_atom_site_label
_atom_site_type_symbol
_atom_site_fract_x
_atom_site_fract_y
_atom_site_fract_z
_atom_type_partial_charge
Mn0 Mn 0.46735 0.12396 0.1999 0.0
Mn1 Mn 0.5038 0.1562 0.16942 0.0
C2 C 0.49538 0.13379 0.21741 0.0
C3 C 0.44665 0.09396 0.20711 0.0
C4 C 0.47872 0.16358 0.20148 0.0
O5 O 0.45822 0.12384 0.16264 0.0
O6 O 0.48376 0.14486 0.1441 0.0
C7 C 0.51062 0.13368 0.13299 0.0
N8 N 0.51628 0.14599 0.15263 0.0
C9 C 0.54487 0.1479 0.15388 0.0
C10 C 0.53938 0.13532 0.13356 0.0
C11 C 0.52217 0.12815 0.12312 0.0
C12 C 0.5328 0.15294 0.16287 0.0
H13 H 0.49739 0.1281 0.12495 0.0
C14 C 0.46722 0.13313 0.1429 0.0
O15 O 0.44311 0.10641 0.21298 0.0
O16 O 0.46184 0.09891 0.19594 0.0
N17 N 0.52422 0.16807 0.19174 0.0
C18 C 0.52713 0.17941 0.21213 0.0
C19 C 0.5436 0.18746 0.22514 0.0
C20 C 0.55693 0.18387 0.21696 0.0
C21 C 0.55366 0.17224 0.19583 0.0
C22 C 0.53704 0.16472 0.18348 0.0
H23 H 0.51695 0.18224 0.21849 0.0
O24 O 0.48144 0.12613 0.23236 0.0
O25 O 0.49249 0.13561 0.19285 0.0
O26 O 0.46823 0.14755 0.2085 0.0
O27 O 0.49215 0.16812 0.18658 0.0
C28 C 0.56615 0.16763 0.18676 0.0
C29 C 0.56174 0.15542 0.16587 0.0
H30 H 0.54823 0.13096 0.12597 0.0
H31 H 0.51781 0.11837 0.10751 0.0
H32 H 0.54602 0.1964 0.24147 0.0
H33 H 0.56958 0.19004 0.22714 0.0
H34 H 0.57911 0.17322 0.19592 0.0
H35 H 0.57136 0.15179 0.15932 0.0
Mn36 Mn 0.35026 0.4636 0.20113 0.0
Mn37 Mn 0.35453 0.49999 0.17035 0.0
C38 C 0.36799 0.4917 0.21889 0.0
C39 C 0.35972 0.44305 0.20884 0.0
C40 C 0.32194 0.47496 0.20208 0.0
O41 O 0.34167 0.4544 0.16379 0.0
O42 O 0.34564 0.47976 0.14536 0.0
C43 C 0.3839 0.50606 0.13449 0.0
N44 N 0.37732 0.51204 0.15379 0.0
C45 C 0.40436 0.54031 0.15517 0.0
C46 C 0.41139 0.53449 0.13521 0.0
C47 C 0.40113 0.51727 0.12489 0.0
C48 C 0.38715 0.52852 0.16404 0.0
H49 H 0.37607 0.49283 0.12652 0.0
C50 C 0.34106 0.46328 0.14413 0.0
O51 O 0.34363 0.43938 0.21431 0.0
O52 O 0.37 0.45831 0.1979 0.0
N53 N 0.3632 0.52067 0.19213 0.0
C54 C 0.35449 0.52424 0.21135 0.0
C55 C 0.36292 0.54095 0.22368 0.0
C56 C 0.38012 0.55387 0.21596 0.0
C57 C 0.3887 0.55 0.19582 0.0
C58 C 0.3796 0.53316 0.18413 0.0
H59 H 0.34123 0.5144 0.21728 0.0
O60 O 0.36174 0.47775 0.23381 0.0
O61 O 0.36362 0.48877 0.19423 0.0
O62 O 0.32735 0.46428 0.20873 0.0
O63 O 0.33101 0.48862 0.18761 0.0
C64 C 0.40594 0.56218 0.18693 0.0
C65 C 0.4138 0.55731 0.16671 0.0
H66 H 0.42468 0.5431 0.12774 0.0
H67 H 0.40649 0.51266 0.10956 0.0
H68 H 0.35618 0.54385 0.23914 0.0
H69 H 0.38663 0.5667 0.22563 0.0
H70 H 0.41334 0.57528 0.19568 0.0
H71 H 0.42714 0.56673 0.16024 0.0
Mn72 Mn 0.89357 0.34736 0.19676 0.0
Mn73 Mn 0.86082 0.34933 0.16388 0.0
C74 C 0.88228 0.36492 0.21219 0.0
C75 C 0.92364 0.35765 0.20554 0.0
C76 C 0.85421 0.31816 0.19836 0.0
O77 O 0.8948 0.33797 0.16029 0.0
O78 O 0.8728 0.34027 0.14048 0.0
C79 C 0.88303 0.37752 0.1257 0.0
N80 N 0.87064 0.37132 0.14522 0.0
C81 C 0.86631 0.39647 0.14107 0.0
C82 C 0.879 0.40313 0.12088 0.0
C83 C 0.88749 0.39367 0.1133 0.0
C84 C 0.86271 0.38053 0.1531 0.0
H85 H 0.88939 0.37016 0.11955 0.0
C86 C 0.88518 0.33634 0.14025 0.0
O87 O 0.91139 0.34163 0.21162 0.0
O88 O 0.91848 0.36744 0.19344 0.0
N89 N 0.84816 0.35804 0.18399 0.0
C90 C 0.83628 0.34985 0.20385 0.0
C91 C 0.82691 0.35778 0.21411 0.0
C92 C 0.82951 0.37381 0.2034 0.0
C93 C 0.84151 0.38178 0.18257 0.0
C94 C 0.85072 0.37344 0.1735 0.0
H95 H 0.834 0.33737 0.21187 0.0
O96 O 0.89018 0.3594 0.22809 0.0
O97 O 0.88118 0.35998 0.18784 0.0
O98 O 0.87037 0.3242 0.20521 0.0
O99 O 0.84931 0.32649 0.18291 0.0
C100 C 0.84448 0.39753 0.17018 0.0
C101 C 0.85695 0.40494 0.14954 0.0
H102 H 0.88231 0.41546 0.11105 0.0
H103 H 0.8973 0.39872 0.09774 0.0
H104 H 0.81758 0.35148 0.23006 0.0
H105 H 0.82214 0.37982 0.21119 0.0
H106 H 0.83744 0.40422 0.17662 0.0
H107 H 0.85932 0.41721 0.14044 0.0
Mn108 Mn 0.55309 0.88927 0.19787 0.0
Mn109 Mn 0.51859 0.85669 0.16436 0.0
C110 C 0.52414 0.87806 0.21274 0.0
C111 C 0.57291 0.91936 0.2066 0.0
C112 C 0.54303 0.84998 0.19907 0.0
O113 O 0.56397 0.89037 0.16158 0.0
O114 O 0.53958 0.86898 0.14108 0.0
C115 C 0.51228 0.87889 0.12658 0.0
N116 N 0.50622 0.86641 0.14598 0.0
C117 C 0.47659 0.8617 0.14192 0.0
C118 C 0.48249 0.87449 0.12187 0.0
C119 C 0.50045 0.88322 0.1143 0.0
C120 C 0.48908 0.85825 0.15383 0.0
H121 H 0.52601 0.88543 0.12044 0.0
C122 C 0.55598 0.88112 0.14123 0.0
O123 O 0.57657 0.90708 0.21303 0.0
O124 O 0.55806 0.91422 0.19419 0.0
N125 N 0.49728 0.84375 0.18447 0.0
C126 C 0.49377 0.83186 0.20426 0.0
C127 C 0.47648 0.82229 0.21454 0.0
C128 C 0.46292 0.82474 0.20395 0.0
C129 C 0.46679 0.83677 0.18321 0.0
C130 C 0.48432 0.84618 0.17411 0.0
H131 H 0.50406 0.82969 0.21215 0.0
O132 O 0.53744 0.88602 0.22885 0.0
O133 O 0.52817 0.87693 0.18852 0.0
O134 O 0.55279 0.866 0.20681 0.0
O135 O 0.53016 0.84523 0.18295 0.0
C136 C 0.45388 0.83961 0.17094 0.0
C137 C 0.45879 0.85213 0.15038 0.0
H138 H 0.47336 0.8777 0.11213 0.0
H139 H 0.5051 0.8931 0.09885 0.0
H140 H 0.47359 0.81294 0.23043 0.0
H141 H 0.44957 0.81722 0.21176 0.0
H142 H 0.44017 0.83242 0.1774 0.0
H143 H 0.44879 0.85438 0.14136 0.0
Mn144 Mn 0.67123 0.549 0.19772 0.0
Mn145 Mn 0.66865 0.51396 0.16494 0.0
C146 C 0.65329 0.52022 0.21318 0.0
C147 C 0.66153 0.56928 0.20623 0.0
C148 C 0.69999 0.53825 0.19942 0.0
O149 O 0.68078 0.5595 0.16127 0.0
O150 O 0.67783 0.53494 0.14144 0.0
C151 C 0.64048 0.50821 0.12679 0.0
N152 N 0.64661 0.50195 0.14635 0.0
C153 C 0.62133 0.47255 0.14216 0.0
C154 C 0.61475 0.47866 0.12195 0.0
C155 C 0.6243 0.4966 0.11437 0.0
C156 C 0.6373 0.48483 0.15424 0.0
H157 H 0.64793 0.52192 0.12062 0.0
C158 C 0.68208 0.55134 0.14118 0.0
O159 O 0.67743 0.5727 0.21244 0.0
O160 O 0.65149 0.55434 0.19423 0.0
N161 N 0.65979 0.49262 0.18514 0.0
C162 C 0.66795 0.48885 0.20498 0.0
C163 C 0.65992 0.47154 0.21523 0.0
C164 C 0.64383 0.45819 0.20453 0.0
C165 C 0.6359 0.4623 0.18371 0.0
C166 C 0.64434 0.47986 0.17466 0.0
H167 H 0.68048 0.49897 0.21297 0.0
O168 O 0.65896 0.53368 0.22904 0.0
O169 O 0.65827 0.52397 0.18884 0.0
O170 O 0.69412 0.54849 0.20635 0.0
O171 O 0.69156 0.5251 0.18386 0.0
C172 C 0.62012 0.44959 0.17128 0.0
C173 C 0.61278 0.45473 0.15061 0.0
H174 H 0.60239 0.46969 0.11208 0.0
H175 H 0.61931 0.50142 0.09879 0.0
H176 H 0.66619 0.46845 0.23117 0.0
H177 H 0.63776 0.44481 0.21231 0.0
H178 H 0.61337 0.43587 0.1777 0.0
H179 H 0.6005 0.44488 0.14147 0.0
Mn180 Mn 0.12776 0.66821 0.20044 0.0
Mn181 Mn 0.16 0.66371 0.17047 0.0
C182 C 0.13701 0.6495 0.21781 0.0
C183 C 0.09786 0.65937 0.20712 0.0
C184 C 0.16752 0.69592 0.20334 0.0
O185 O 0.12817 0.67769 0.16339 0.0
O186 O 0.14925 0.6731 0.14522 0.0
C187 C 0.13754 0.63506 0.13298 0.0
N188 N 0.14965 0.64126 0.15292 0.0
C189 C 0.15106 0.61429 0.1534 0.0
C190 C 0.13868 0.60766 0.13276 0.0
C191 C 0.13187 0.61808 0.12255 0.0
C192 C 0.15625 0.63132 0.16295 0.0
H193 H 0.13224 0.643 0.12511 0.0
C194 C 0.13767 0.67811 0.14385 0.0
O195 O 0.11044 0.67516 0.2136 0.0
O196 O 0.1026 0.64904 0.1957 0.0
N197 N 0.17134 0.65452 0.19266 0.0
C198 C 0.18258 0.66255 0.2133 0.0
C199 C 0.19036 0.65377 0.22601 0.0
C200 C 0.18661 0.63691 0.21728 0.0
C201 C 0.17507 0.62895 0.19592 0.0
C202 C 0.16784 0.63841 0.18386 0.0
H203 H 0.18555 0.67553 0.22008 0.0
O204 O 0.12937 0.65582 0.23273 0.0
O205 O 0.13913 0.65441 0.19334 0.0
O206 O 0.15142 0.69062 0.20967 0.0
O207 O 0.17205 0.68696 0.18852 0.0
C208 C 0.17029 0.61192 0.18631 0.0
C209 C 0.15824 0.60457 0.16514 0.0
H210 H 0.13422 0.59455 0.12473 0.0
H211 H 0.12226 0.61302 0.1067 0.0
H212 H 0.19923 0.65999 0.24251 0.0
H213 H 0.19262 0.63018 0.22718 0.0
H214 H 0.17564 0.60426 0.19527 0.0
H215 H 0.15448 0.59136 0.15817 0.0
Mn216 Mn 0.88994 0.54929 0.31865 0.0
Mn217 Mn 0.85773 0.51472 0.35237 0.0
C218 C 0.8793 0.5203 0.30433 0.0
C219 C 0.91978 0.56949 0.30957 0.0
C220 C 0.8504 0.53831 0.31676 0.0
O221 O 0.89091 0.5604 0.35463 0.0
O222 O 0.86947 0.53609 0.37519 0.0
C223 C 0.88037 0.50976 0.39109 0.0
N224 N 0.86794 0.50313 0.37161 0.0
C225 C 0.86433 0.47397 0.37652 0.0
C226 C 0.87706 0.48047 0.39668 0.0
C227 C 0.88521 0.49847 0.40387 0.0
C228 C 0.86032 0.48593 0.36414 0.0
H229 H 0.88648 0.52354 0.39692 0.0
C230 C 0.88154 0.55253 0.37492 0.0
O231 O 0.90723 0.57267 0.30291 0.0
O232 O 0.91509 0.5549 0.32245 0.0
N233 N 0.84537 0.49308 0.33278 0.0
C234 C 0.83351 0.48896 0.31273 0.0
C235 C 0.82448 0.47154 0.30282 0.0
C236 C 0.82742 0.45846 0.31401 0.0
C237 C 0.83942 0.46293 0.33496 0.0
C238 C 0.84828 0.48057 0.3437 0.0
H239 H 0.83098 0.4989 0.30433 0.0
O240 O 0.88694 0.53348 0.288 0.0
O241 O 0.87809 0.52445 0.32847 0.0
O242 O 0.86646 0.54846 0.30963 0.0
O243 O 0.84578 0.52543 0.3328 0.0
C244 C 0.84279 0.45053 0.34774 0.0
C245 C 0.85534 0.45607 0.36838 0.0
H246 H 0.88068 0.47175 0.40679 0.0
H247 H 0.89506 0.50359 0.4194 0.0
H248 H 0.81516 0.46818 0.28673 0.0
H249 H 0.82032 0.445 0.30645 0.0
H250 H 0.83603 0.43675 0.34157 0.0
H251 H 0.85803 0.44646 0.37775 0.0
Mn252 Mn 0.34806 0.88646 0.31956 0.0
Mn253 Mn 0.3505 0.85406 0.35267 0.0
C254 C 0.36605 0.87558 0.30448 0.0
C255 C 0.35797 0.91642 0.31074 0.0
C256 C 0.31929 0.84696 0.31783 0.0
O257 O 0.33843 0.88753 0.35589 0.0
O258 O 0.34116 0.86585 0.37591 0.0
C259 C 0.37846 0.87652 0.39106 0.0
N260 N 0.37245 0.86413 0.37151 0.0
C261 C 0.39784 0.86021 0.3759 0.0
C262 C 0.4043 0.87291 0.39612 0.0
C263 C 0.39462 0.88119 0.40359 0.0
C264 C 0.38185 0.85639 0.36375 0.0
H265 H 0.37093 0.88273 0.39713 0.0
C266 C 0.33696 0.87804 0.37601 0.0
O267 O 0.34204 0.90402 0.30451 0.0
O268 O 0.36787 0.91148 0.32303 0.0
N269 N 0.35951 0.84162 0.33266 0.0
C270 C 0.35154 0.82979 0.31265 0.0
C271 C 0.35972 0.82064 0.30244 0.0
C272 C 0.37578 0.82343 0.31333 0.0
C273 C 0.38354 0.8354 0.33428 0.0
C274 C 0.37495 0.84439 0.34329 0.0
H275 H 0.33904 0.82736 0.30449 0.0
O276 O 0.36041 0.88329 0.28844 0.0
O277 O 0.36097 0.87441 0.32876 0.0
O278 O 0.32516 0.86307 0.31091 0.0
O279 O 0.32769 0.84226 0.33348 0.0
C280 C 0.39933 0.83859 0.34681 0.0
C281 C 0.40654 0.85107 0.3675 0.0
H282 H 0.41666 0.87639 0.40604 0.0
H283 H 0.39952 0.89101 0.41917 0.0
H284 H 0.35359 0.81134 0.28638 0.0
H285 H 0.38198 0.81624 0.30557 0.0
H286 H 0.40619 0.83172 0.34042 0.0
H287 H 0.41884 0.85361 0.3767 0.0
Mn288 Mn 0.46859 0.34393 0.31897 0.0
Mn289 Mn 0.50305 0.34603 0.35274 0.0
C290 C 0.49758 0.36204 0.30454 0.0
C291 C 0.44853 0.35388 0.31021 0.0
C292 C 0.47904 0.315 0.31751 0.0
O293 O 0.45758 0.33393 0.35507 0.0
O294 O 0.48192 0.33699 0.37583 0.0
C295 C 0.50888 0.37421 0.39089 0.0
N296 N 0.51515 0.36802 0.37145 0.0
C297 C 0.54459 0.39319 0.37579 0.0
C298 C 0.53848 0.39984 0.39589 0.0
C299 C 0.52051 0.39037 0.40334 0.0
C300 C 0.5323 0.37722 0.36373 0.0
H301 H 0.49514 0.36684 0.39693 0.0
C302 C 0.46549 0.33264 0.37549 0.0
O303 O 0.44512 0.33805 0.30361 0.0
O304 O 0.46329 0.36369 0.32278 0.0
N305 N 0.52448 0.35475 0.33279 0.0
C306 C 0.52818 0.34666 0.31278 0.0
C307 C 0.54549 0.35467 0.30254 0.0
C308 C 0.55889 0.37068 0.31338 0.0
C309 C 0.55482 0.37857 0.3343 0.0
C310 C 0.53727 0.37015 0.34336 0.0
H311 H 0.518 0.3342 0.30466 0.0
O312 O 0.48436 0.35663 0.28825 0.0
O313 O 0.49344 0.3567 0.32867 0.0
O314 O 0.46921 0.32117 0.30983 0.0
O315 O 0.49181 0.32312 0.3338 0.0
C316 C 0.56754 0.39434 0.34673 0.0
C317 C 0.56242 0.4017 0.36738 0.0
H318 H 0.54745 0.4122 0.40575 0.0
H319 H 0.51568 0.39541 0.41883 0.0
H320 H 0.54853 0.34844 0.28648 0.0
H321 H 0.57226 0.37674 0.30558 0.0
H322 H 0.58126 0.40108 0.34031 0.0
H323 H 0.57227 0.41399 0.3765 0.0
Mn324 Mn 0.13179 0.4658 0.31618 0.0
Mn325 Mn 0.16492 0.50085 0.34806 0.0
C326 C 0.14282 0.49447 0.30013 0.0
C327 C 0.10161 0.44603 0.30823 0.0
C328 C 0.17097 0.47555 0.31435 0.0
O329 O 0.131 0.45568 0.35291 0.0
O330 O 0.15282 0.48034 0.37238 0.0
C331 C 0.14329 0.50823 0.38551 0.0
N332 N 0.15567 0.51382 0.36601 0.0
C333 C 0.1597 0.54329 0.36728 0.0
C334 C 0.14704 0.53788 0.38747 0.0
C335 C 0.13877 0.52026 0.39656 0.0
C336 C 0.16364 0.53071 0.35701 0.0
H337 H 0.13691 0.4947 0.39255 0.0
C338 C 0.14053 0.46398 0.37289 0.0
O339 O 0.11374 0.44211 0.30204 0.0
O340 O 0.10696 0.46111 0.32003 0.0
N341 N 0.17762 0.52164 0.32681 0.0
C342 C 0.18888 0.52446 0.30637 0.0
C343 C 0.19827 0.54141 0.29499 0.0
C344 C 0.19604 0.55528 0.3048 0.0
C345 C 0.18419 0.552 0.32562 0.0
C346 C 0.17538 0.53489 0.3364 0.0
H347 H 0.19079 0.5139 0.29892 0.0
O348 O 0.13483 0.48088 0.28453 0.0
O349 O 0.14432 0.49088 0.32448 0.0
O350 O 0.15483 0.46566 0.30731 0.0
O351 O 0.17598 0.48879 0.32981 0.0
C352 C 0.18071 0.56499 0.33602 0.0
C353 C 0.16838 0.56061 0.35672 0.0
H354 H 0.14349 0.54711 0.39601 0.0
H355 H 0.12894 0.51596 0.41206 0.0
H356 H 0.2073 0.54382 0.27882 0.0
H357 H 0.20347 0.56838 0.29613 0.0
H358 H 0.18728 0.57833 0.32805 0.0
H359 H 0.16563 0.57064 0.36429 0.0
Mn360 Mn 0.67379 0.12819 0.31535 0.0
Mn361 Mn 0.67201 0.16147 0.34698 0.0
C362 C 0.6562 0.13929 0.29918 0.0
C363 C 0.66322 0.09794 0.30755 0.0
C364 C 0.70332 0.16733 0.31332 0.0
O365 O 0.68312 0.12743 0.35215 0.0
O366 O 0.68031 0.14932 0.3714 0.0
C367 C 0.64299 0.14004 0.38448 0.0
N368 N 0.64983 0.15238 0.36492 0.0
C369 C 0.62452 0.15663 0.36615 0.0
C370 C 0.61723 0.14402 0.3864 0.0
C371 C 0.62648 0.13566 0.39554 0.0
C372 C 0.64099 0.16043 0.35587 0.0
H373 H 0.65007 0.1336 0.39157 0.0
C374 C 0.68432 0.137 0.37208 0.0
O375 O 0.67928 0.10999 0.30132 0.0
O376 O 0.65357 0.10339 0.31932 0.0
N377 N 0.66403 0.17422 0.32562 0.0
C378 C 0.67249 0.18541 0.30511 0.0
C379 C 0.66502 0.19488 0.29369 0.0
C380 C 0.649 0.19281 0.30351 0.0
C381 C 0.64039 0.18102 0.32438 0.0
C382 C 0.6486 0.17212 0.33521 0.0
H383 H 0.68491 0.1872 0.29765 0.0
O384 O 0.66174 0.13122 0.28365 0.0
O385 O 0.66132 0.14083 0.32352 0.0
O386 O 0.69703 0.15116 0.30636 0.0
O387 O 0.69512 0.1724 0.32873 0.0
C388 C 0.62398 0.17768 0.33479 0.0
C389 C 0.61599 0.16541 0.35554 0.0
H390 H 0.60449 0.14058 0.39495 0.0
H391 H 0.62091 0.12586 0.41109 0.0
H392 H 0.67166 0.20386 0.27747 0.0
H393 H 0.6434 0.2003 0.2948 0.0
H394 H 0.61728 0.18433 0.32678 0.0
H395 H 0.60325 0.16277 0.36312 0.0
Mn396 Mn 0.55431 0.67012 0.31467 0.0
Mn397 Mn 0.51812 0.66583 0.34607 0.0
C398 C 0.52609 0.65205 0.29754 0.0
C399 C 0.57487 0.66068 0.30699 0.0
C400 C 0.54281 0.69831 0.31378 0.0
O401 O 0.56381 0.67917 0.35179 0.0
O402 O 0.53843 0.67466 0.37086 0.0
C403 C 0.51211 0.63643 0.38183 0.0
N404 N 0.50609 0.64303 0.36261 0.0
C405 C 0.47786 0.61593 0.36114 0.0
C406 C 0.48372 0.60888 0.38103 0.0
C407 C 0.50093 0.61916 0.39136 0.0
C408 C 0.48961 0.63319 0.35237 0.0
H409 H 0.52534 0.64426 0.38979 0.0
C410 C 0.55499 0.67953 0.37172 0.0
O411 O 0.57843 0.67668 0.3011 0.0
O412 O 0.55975 0.65052 0.31834 0.0
N413 N 0.4974 0.65718 0.32439 0.0
C414 C 0.49385 0.66588 0.30511 0.0
C415 C 0.47717 0.65741 0.2927 0.0
C416 C 0.46427 0.64018 0.30037 0.0
C417 C 0.46814 0.63161 0.32053 0.0
C418 C 0.48494 0.64076 0.33233 0.0
H419 H 0.50368 0.67915 0.2992 0.0
O420 O 0.53991 0.65819 0.28237 0.0
O421 O 0.52924 0.65671 0.32207 0.0
O422 O 0.5533 0.69281 0.30648 0.0
O423 O 0.52949 0.6894 0.32891 0.0
C424 C 0.45601 0.61431 0.3293 0.0
C425 C 0.46089 0.60646 0.34952 0.0
H426 H 0.47514 0.59557 0.38842 0.0
H427 H 0.50557 0.61379 0.40664 0.0
H428 H 0.47427 0.66414 0.27721 0.0
H429 H 0.45147 0.63364 0.29062 0.0
H430 H 0.44295 0.60687 0.32045 0.0
H431 H 0.45152 0.59308 0.3559 0.0
Mn432 Mn 0.55588 0.89205 0.81575 0.0
Mn433 Mn 0.51949 0.8599 0.8465 0.0
C434 C 0.52777 0.88257 0.79877 0.0
C435 C 0.57696 0.9219 0.80869 0.0
C436 C 0.54399 0.85232 0.8134 0.0
O437 O 0.56526 0.89192 0.85265 0.0
O438 O 0.53983 0.87089 0.87146 0.0
C439 C 0.51345 0.88255 0.8838 0.0
N440 N 0.50744 0.87028 0.86407 0.0
C441 C 0.479 0.86875 0.86387 0.0
C442 C 0.48486 0.88129 0.8843 0.0
C443 C 0.50217 0.88824 0.89426 0.0
C444 C 0.49082 0.86355 0.85428 0.0
H445 H 0.52676 0.88796 0.89146 0.0
C446 C 0.55642 0.88253 0.8724 0.0
O447 O 0.58005 0.90924 0.80223 0.0
O448 O 0.56193 0.91727 0.82019 0.0
N449 N 0.49879 0.84831 0.82467 0.0
C450 C 0.49547 0.83692 0.8042 0.0
C451 C 0.47881 0.82898 0.79175 0.0
C452 C 0.46572 0.83273 0.80056 0.0
C453 C 0.46942 0.84443 0.82174 0.0
C454 C 0.4862 0.8518 0.83355 0.0
H455 H 0.50546 0.83395 0.79736 0.0
O456 O 0.54163 0.89019 0.78364 0.0
O457 O 0.53076 0.88064 0.82325 0.0
O458 O 0.55464 0.86839 0.80674 0.0
O459 O 0.53065 0.84781 0.82846 0.0
C460 C 0.4572 0.84924 0.83137 0.0
C461 C 0.46201 0.86143 0.85236 0.0
H462 H 0.47623 0.88577 0.89235 0.0
H463 H 0.50682 0.89798 0.90994 0.0
H464 H 0.47607 0.81999 0.77539 0.0
H465 H 0.45291 0.8266 0.79085 0.0
H466 H 0.44414 0.8438 0.82256 0.0
H467 H 0.45259 0.86521 0.85936 0.0
Mn468 Mn 0.67011 0.55142 0.81522 0.0
Mn469 Mn 0.66613 0.51509 0.84588 0.0
C470 C 0.65198 0.52335 0.79781 0.0
C471 C 0.66081 0.57212 0.80802 0.0
C472 C 0.69842 0.54014 0.81358 0.0
O473 O 0.67923 0.56065 0.85236 0.0
O474 O 0.67493 0.53523 0.87108 0.0
C475 C 0.63688 0.50833 0.88242 0.0
N476 N 0.6435 0.50262 0.86281 0.0
C477 C 0.61685 0.474 0.86175 0.0
C478 C 0.60978 0.47954 0.88204 0.0
C479 C 0.61983 0.49678 0.89238 0.0
C480 C 0.63393 0.48607 0.85268 0.0
H481 H 0.64453 0.52159 0.89035 0.0
C482 C 0.67972 0.55178 0.87211 0.0
O483 O 0.67678 0.57562 0.80207 0.0
O484 O 0.65057 0.55694 0.81921 0.0
N485 N 0.65757 0.4946 0.82372 0.0
C486 C 0.66598 0.49162 0.8034 0.0
C487 C 0.65758 0.4751 0.79054 0.0
C488 C 0.64069 0.46178 0.79881 0.0
C489 C 0.63234 0.46511 0.81988 0.0
C490 C 0.64143 0.48178 0.8321 0.0
H491 H 0.67898 0.5018 0.79697 0.0
O492 O 0.65816 0.53728 0.78283 0.0
O493 O 0.65669 0.52627 0.82238 0.0
O494 O 0.6928 0.55058 0.80657 0.0
O495 O 0.68961 0.52673 0.82855 0.0
C496 C 0.61526 0.45264 0.829 0.0
C497 C 0.6075 0.45711 0.84986 0.0
H498 H 0.59661 0.4707 0.8897 0.0
H499 H 0.61443 0.50117 0.90795 0.0
H500 H 0.6641 0.47264 0.77428 0.0
H501 H 0.63424 0.44908 0.78876 0.0
H502 H 0.60788 0.43967 0.81989 0.0
H503 H 0.59426 0.4475 0.85646 0.0
Mn504 Mn 0.12718 0.66704 0.81686 0.0
Mn505 Mn 0.15943 0.66278 0.84733 0.0
C506 C 0.13682 0.64867 0.79943 0.0
C507 C 0.0972 0.65797 0.80984 0.0
C508 C 0.16683 0.6951 0.81496 0.0
O509 O 0.12729 0.6763 0.85399 0.0
O510 O 0.1483 0.67175 0.87257 0.0
C511 C 0.13689 0.63364 0.884 0.0
N512 N 0.14917 0.64017 0.86434 0.0
C513 C 0.15097 0.61342 0.86341 0.0
C514 C 0.13842 0.60645 0.88375 0.0
C515 C 0.13132 0.6166 0.89404 0.0
C516 C 0.15604 0.6305 0.85423 0.0
H517 H 0.13137 0.64138 0.89192 0.0
C518 C 0.13668 0.67671 0.87369 0.0
O519 O 0.10973 0.67388 0.80379 0.0
O520 O 0.10206 0.64766 0.82103 0.0
N521 N 0.17117 0.65404 0.82514 0.0
C522 C 0.18254 0.66238 0.80478 0.0
C523 C 0.1906 0.65389 0.79199 0.0
C524 C 0.18697 0.637 0.80036 0.0
C525 C 0.1753 0.62873 0.82145 0.0
C526 C 0.1678 0.6379 0.8336 0.0
H527 H 0.18542 0.67538 0.7983 0.0
O528 O 0.12912 0.65492 0.78448 0.0
O529 O 0.13875 0.65345 0.82398 0.0
O530 O 0.15079 0.6896 0.80801 0.0
O531 O 0.17137 0.68623 0.82992 0.0
C532 C 0.17064 0.61165 0.83068 0.0
C533 C 0.15844 0.60398 0.85158 0.0
H534 H 0.13403 0.59328 0.89148 0.0
H535 H 0.12157 0.61128 0.90967 0.0
H536 H 0.19957 0.66035 0.7757 0.0
H537 H 0.19317 0.63048 0.79038 0.0
H538 H 0.1762 0.60421 0.82165 0.0
H539 H 0.15477 0.59074 0.85826 0.0
Mn540 Mn 0.46873 0.12417 0.81578 0.0
Mn541 Mn 0.5049 0.15607 0.84734 0.0
C542 C 0.49689 0.13469 0.79828 0.0
C543 C 0.44816 0.09421 0.8079 0.0
C544 C 0.47996 0.16378 0.81554 0.0
O545 O 0.45933 0.12344 0.853 0.0
O546 O 0.48466 0.14434 0.87217 0.0
C547 C 0.51119 0.13256 0.88242 0.0
N548 N 0.5171 0.14534 0.86346 0.0
C549 C 0.54548 0.1468 0.86176 0.0
C550 C 0.53974 0.13373 0.88138 0.0
C551 C 0.5225 0.12655 0.8917 0.0
C552 C 0.5336 0.15221 0.85322 0.0
H553 H 0.49794 0.12698 0.89037 0.0
C554 C 0.46813 0.13258 0.87298 0.0
O555 O 0.44457 0.10667 0.80234 0.0
O556 O 0.46339 0.09913 0.81895 0.0
N557 N 0.52558 0.16846 0.82572 0.0
C558 C 0.52906 0.18094 0.80686 0.0
C559 C 0.54577 0.18946 0.79458 0.0
C560 C 0.55878 0.18522 0.802 0.0
C561 C 0.555 0.17257 0.82179 0.0
C562 C 0.53816 0.1646 0.83345 0.0
H563 H 0.51916 0.18434 0.80117 0.0
O564 O 0.48298 0.12693 0.78325 0.0
O565 O 0.49387 0.13598 0.82296 0.0
O566 O 0.46954 0.1478 0.80812 0.0
O567 O 0.49335 0.16823 0.83057 0.0
C568 C 0.56727 0.16753 0.83035 0.0
C569 C 0.56248 0.15458 0.85023 0.0
H570 H 0.54842 0.12906 0.88859 0.0
H571 H 0.51795 0.11641 0.90677 0.0
H572 H 0.54861 0.19926 0.7794 0.0
H573 H 0.57162 0.19173 0.79236 0.0
H574 H 0.58037 0.1734 0.82162 0.0
H575 H 0.57196 0.15067 0.85644 0.0
Mn576 Mn 0.35201 0.46441 0.81676 0.0
Mn577 Mn 0.35625 0.50122 0.84617 0.0
C578 C 0.37007 0.49224 0.79854 0.0
C579 C 0.36124 0.44361 0.81009 0.0
C580 C 0.32377 0.4758 0.81442 0.0
O581 O 0.34321 0.45571 0.85415 0.0
O582 O 0.34742 0.48137 0.87187 0.0
C583 C 0.3855 0.50821 0.88295 0.0
N584 N 0.3789 0.51376 0.86308 0.0
C585 C 0.40563 0.54231 0.86166 0.0
C586 C 0.41266 0.53694 0.88221 0.0
C587 C 0.40256 0.5198 0.89286 0.0
C588 C 0.38853 0.5302 0.85264 0.0
H589 H 0.3778 0.49504 0.89115 0.0
C590 C 0.34275 0.46487 0.87356 0.0
O591 O 0.34522 0.44002 0.8043 0.0
O592 O 0.37158 0.45894 0.82083 0.0
N593 N 0.3649 0.52149 0.82356 0.0
C594 C 0.35649 0.52432 0.80306 0.0
C595 C 0.36492 0.54074 0.78995 0.0
C596 C 0.38183 0.5541 0.79814 0.0
C597 C 0.39017 0.5509 0.81937 0.0
C598 C 0.38106 0.53434 0.83184 0.0
H599 H 0.34349 0.51412 0.7967 0.0
O600 O 0.36371 0.47811 0.78395 0.0
O601 O 0.36553 0.48967 0.82318 0.0
O602 O 0.32921 0.46509 0.8082 0.0
O603 O 0.33277 0.48953 0.82875 0.0
C604 C 0.40727 0.56342 0.82844 0.0
C605 C 0.41502 0.5591 0.8495 0.0
H606 H 0.42585 0.54581 0.88984 0.0
H607 H 0.40793 0.51553 0.90864 0.0
H608 H 0.35841 0.5431 0.77356 0.0
H609 H 0.38829 0.56672 0.78793 0.0
H610 H 0.41467 0.57632 0.81915 0.0
H611 H 0.42826 0.56874 0.85606 0.0
Mn612 Mn 0.89574 0.34922 0.81425 0.0
Mn613 Mn 0.86356 0.35339 0.84506 0.0
C614 C 0.88597 0.36753 0.79702 0.0
C615 C 0.92572 0.35836 0.80712 0.0
C616 C 0.85612 0.32108 0.81254 0.0
O617 O 0.89577 0.33996 0.85133 0.0
O618 O 0.87491 0.34459 0.87021 0.0
C619 C 0.88614 0.38264 0.88162 0.0
N620 N 0.87379 0.37603 0.86202 0.0
C621 C 0.87184 0.4027 0.8611 0.0
C622 C 0.88447 0.40975 0.88138 0.0
C623 C 0.89167 0.39969 0.89164 0.0
C624 C 0.8668 0.38562 0.85196 0.0
H625 H 0.89174 0.37497 0.8895 0.0
C626 C 0.88656 0.33965 0.87118 0.0
O627 O 0.9132 0.34245 0.80102 0.0
O628 O 0.92085 0.36864 0.8184 0.0
N629 N 0.85164 0.36199 0.82295 0.0
C630 C 0.84024 0.35359 0.80262 0.0
C631 C 0.83211 0.36201 0.78983 0.0
C632 C 0.8357 0.3789 0.79817 0.0
C633 C 0.8474 0.38723 0.81924 0.0
C634 C 0.85498 0.37813 0.83139 0.0
H635 H 0.8374 0.34059 0.79614 0.0
O636 O 0.89367 0.36133 0.78198 0.0
O637 O 0.88414 0.36275 0.82155 0.0
O638 O 0.87213 0.32665 0.80537 0.0
O639 O 0.85163 0.32988 0.82773 0.0
C640 C 0.85204 0.40432 0.82844 0.0
C641 C 0.86429 0.41207 0.8493 0.0
H642 H 0.88883 0.42293 0.88909 0.0
H643 H 0.90148 0.40508 0.90721 0.0
H644 H 0.82312 0.3555 0.77355 0.0
H645 H 0.82946 0.38537 0.78818 0.0
H646 H 0.84643 0.4117 0.8194 0.0
H647 H 0.86793 0.42531 0.85595 0.0
Mn648 Mn 0.13386 0.46646 0.69894 0.0
Mn649 Mn 0.16683 0.50176 0.66741 0.0
C650 C 0.14472 0.49502 0.71539 0.0
C651 C 0.10374 0.44645 0.70668 0.0
C652 C 0.17308 0.47637 0.7006 0.0
O653 O 0.13312 0.45656 0.66204 0.0
O654 O 0.15472 0.48141 0.64275 0.0
C655 C 0.14513 0.50932 0.63033 0.0
N656 N 0.15751 0.51479 0.64986 0.0
C657 C 0.1614 0.54423 0.64925 0.0
C658 C 0.14874 0.53893 0.62905 0.0
C659 C 0.14054 0.52138 0.61961 0.0
C660 C 0.16542 0.53162 0.65918 0.0
H661 H 0.1388 0.49585 0.62302 0.0
C662 C 0.1425 0.46503 0.64205 0.0
O663 O 0.11596 0.44263 0.71276 0.0
O664 O 0.10897 0.46159 0.69515 0.0
N665 N 0.17949 0.5224 0.68902 0.0
C666 C 0.19072 0.52509 0.70948 0.0
C667 C 0.19999 0.54194 0.72125 0.0
C668 C 0.19767 0.55583 0.71181 0.0
C669 C 0.18586 0.55268 0.69095 0.0
C670 C 0.17717 0.53568 0.67979 0.0
H671 H 0.19268 0.51451 0.71666 0.0
O672 O 0.13681 0.48134 0.73082 0.0
O673 O 0.14625 0.49157 0.69098 0.0
O674 O 0.15696 0.46642 0.70767 0.0
O675 O 0.178 0.48964 0.68526 0.0
C676 C 0.18231 0.5657 0.6809 0.0
C677 C 0.17 0.56145 0.66018 0.0
H678 H 0.14514 0.54818 0.62076 0.0
H679 H 0.13071 0.51717 0.60409 0.0
H680 H 0.20899 0.54425 0.73744 0.0
H681 H 0.205 0.56885 0.7208 0.0
H682 H 0.18881 0.57898 0.68917 0.0
H683 H 0.16718 0.57149 0.65288 0.0
Mn684 Mn 0.67601 0.12966 0.69867 0.0
Mn685 Mn 0.6712 0.16094 0.66633 0.0
C686 C 0.65764 0.13956 0.71526 0.0
C687 C 0.66718 0.09993 0.70701 0.0
C688 C 0.70377 0.16944 0.69897 0.0
O689 O 0.68515 0.12904 0.66174 0.0
O690 O 0.68022 0.14943 0.6419 0.0
C691 C 0.64186 0.13699 0.63084 0.0
N692 N 0.64836 0.14979 0.64981 0.0
C693 C 0.62098 0.15038 0.65121 0.0
C694 C 0.61403 0.13729 0.63157 0.0
C695 C 0.62451 0.13054 0.62139 0.0
C696 C 0.63835 0.15628 0.65988 0.0
H697 H 0.64984 0.13171 0.62304 0.0
C698 C 0.68531 0.1379 0.64152 0.0
O699 O 0.68303 0.11264 0.71298 0.0
O700 O 0.65678 0.10443 0.69523 0.0
N701 N 0.66235 0.173 0.68763 0.0
C702 C 0.67096 0.18544 0.70672 0.0
C703 C 0.66229 0.19352 0.71895 0.0
C704 C 0.64495 0.18882 0.71132 0.0
C705 C 0.63647 0.17618 0.69136 0.0
C706 C 0.64582 0.16871 0.6797 0.0
H707 H 0.6843 0.18915 0.71263 0.0
O708 O 0.66394 0.13216 0.7307 0.0
O709 O 0.66227 0.14091 0.69073 0.0
O710 O 0.69841 0.15356 0.70665 0.0
O711 O 0.6948 0.17358 0.68346 0.0
C712 C 0.61905 0.17062 0.6827 0.0
C713 C 0.61129 0.15767 0.66271 0.0
H714 H 0.60064 0.13225 0.62426 0.0
H715 H 0.61921 0.12038 0.60631 0.0
H716 H 0.66895 0.20329 0.73429 0.0
H717 H 0.63825 0.19495 0.72096 0.0
H718 H 0.61145 0.17608 0.69146 0.0
H719 H 0.59782 0.15336 0.65644 0.0
Mn720 Mn 0.55221 0.67121 0.69767 0.0
Mn721 Mn 0.51709 0.66893 0.66555 0.0
C722 C 0.52357 0.65345 0.71368 0.0
C723 C 0.57224 0.66117 0.70579 0.0
C724 C 0.54222 0.70047 0.69913 0.0
O725 O 0.56233 0.68046 0.66094 0.0
O726 O 0.53762 0.67733 0.64123 0.0
C727 C 0.50988 0.63982 0.62835 0.0
N728 N 0.50423 0.64663 0.64777 0.0
C729 C 0.47486 0.62103 0.64667 0.0
C730 C 0.48033 0.61377 0.62658 0.0
C731 C 0.49794 0.62319 0.61744 0.0
C732 C 0.48735 0.63764 0.6568 0.0
H733 H 0.5234 0.64703 0.62128 0.0
C734 C 0.55401 0.6815 0.64084 0.0
O735 O 0.57596 0.67718 0.71188 0.0
O736 O 0.55717 0.65123 0.69405 0.0
N737 N 0.4963 0.66082 0.68679 0.0
C738 C 0.49342 0.66926 0.70718 0.0
C739 C 0.47649 0.66161 0.71865 0.0
C740 C 0.4627 0.64541 0.70897 0.0
C741 C 0.46603 0.63685 0.6882 0.0
C742 C 0.48311 0.64523 0.67733 0.0
H743 H 0.50393 0.6818 0.71455 0.0
O744 O 0.53715 0.6592 0.72932 0.0
O745 O 0.52716 0.65848 0.6893 0.0
O746 O 0.55214 0.6943 0.70632 0.0
O747 O 0.52902 0.69215 0.68361 0.0
C748 C 0.45312 0.62028 0.67793 0.0
C749 C 0.45756 0.61233 0.6573 0.0
H750 H 0.47117 0.60093 0.61814 0.0
H751 H 0.50228 0.61764 0.60201 0.0
H752 H 0.47404 0.66823 0.73479 0.0
H753 H 0.44962 0.63966 0.71773 0.0
H754 H 0.4398 0.61345 0.68596 0.0
H755 H 0.4476 0.59948 0.64984 0.0
Mn756 Mn 0.8894 0.55043 0.69941 0.0
Mn757 Mn 0.85687 0.51569 0.66622 0.0
C758 C 0.87843 0.52163 0.71475 0.0
C759 C 0.91944 0.57038 0.70792 0.0
C760 C 0.85023 0.54056 0.70003 0.0
O761 O 0.89041 0.56095 0.6629 0.0
O762 O 0.86933 0.53635 0.64228 0.0
C763 C 0.87896 0.50849 0.62948 0.0
N764 N 0.86634 0.50281 0.64863 0.0
C765 C 0.86239 0.47336 0.64744 0.0
C766 C 0.87529 0.47887 0.62761 0.0
C767 C 0.88365 0.49652 0.61865 0.0
C768 C 0.85827 0.48587 0.65748 0.0
H769 H 0.88541 0.52205 0.62256 0.0
C770 C 0.88139 0.5528 0.64245 0.0
O771 O 0.90714 0.57404 0.71417 0.0
O772 O 0.91434 0.55543 0.69582 0.0
N773 N 0.84388 0.4948 0.68717 0.0
C774 C 0.83244 0.49191 0.70738 0.0
C775 C 0.82305 0.47495 0.71874 0.0
C776 C 0.82546 0.46114 0.70915 0.0
C777 C 0.83746 0.46449 0.68853 0.0
C778 C 0.84628 0.4816 0.67777 0.0
H779 H 0.83041 0.50243 0.71468 0.0
O780 O 0.88624 0.53505 0.7307 0.0
O781 O 0.87714 0.52548 0.69045 0.0
O782 O 0.86616 0.55017 0.70815 0.0
O783 O 0.84554 0.5277 0.68394 0.0
C784 C 0.84111 0.45156 0.67834 0.0
C785 C 0.85364 0.45602 0.65792 0.0
H786 H 0.87898 0.46969 0.61926 0.0
H787 H 0.89367 0.50089 0.60343 0.0
H788 H 0.81389 0.47249 0.73475 0.0
H789 H 0.81806 0.44805 0.71784 0.0
H790 H 0.83452 0.4382 0.68628 0.0
H791 H 0.85653 0.44604 0.65053 0.0
Mn792 Mn 0.34805 0.88566 0.70078 0.0
Mn793 Mn 0.35032 0.85309 0.66787 0.0
C794 C 0.36599 0.87483 0.71626 0.0
C795 C 0.35806 0.91573 0.70891 0.0
C796 C 0.31881 0.84647 0.70164 0.0
O797 O 0.33845 0.8865 0.66426 0.0
O798 O 0.34208 0.86545 0.64376 0.0
C799 C 0.37958 0.87511 0.63105 0.0
N800 N 0.37267 0.86254 0.6503 0.0
C801 C 0.39821 0.85866 0.64926 0.0
C802 C 0.40557 0.87151 0.62934 0.0
C803 C 0.39623 0.8798 0.62025 0.0
C804 C 0.38157 0.85454 0.65926 0.0
H805 H 0.37243 0.88151 0.62403 0.0
C806 C 0.33763 0.87747 0.64385 0.0
O807 O 0.34214 0.90342 0.71531 0.0
O808 O 0.36793 0.91061 0.69693 0.0
N809 N 0.35828 0.84019 0.68897 0.0
C810 C 0.34976 0.82881 0.70925 0.0
C811 C 0.35737 0.81949 0.72075 0.0
C812 C 0.37359 0.82191 0.71121 0.0
C813 C 0.38222 0.83385 0.69051 0.0
C814 C 0.37389 0.84261 0.67963 0.0
H815 H 0.3372 0.82678 0.71651 0.0
O816 O 0.36037 0.88267 0.73212 0.0
O817 O 0.36079 0.87343 0.69197 0.0
O818 O 0.32514 0.86242 0.70969 0.0
O819 O 0.327 0.84177 0.68557 0.0
C820 C 0.3988 0.83751 0.68037 0.0
C821 C 0.40684 0.84998 0.65987 0.0
H822 H 0.41843 0.87519 0.62101 0.0
H823 H 0.40186 0.88977 0.60496 0.0
H824 H 0.3507 0.81038 0.73681 0.0
H825 H 0.37933 0.81457 0.72001 0.0
H826 H 0.40559 0.83096 0.6884 0.0
H827 H 0.41971 0.85287 0.6525 0.0
Mn828 Mn 0.46921 0.3439 0.69971 0.0
Mn829 Mn 0.50379 0.34598 0.66632 0.0
C830 C 0.49807 0.36181 0.71479 0.0
C831 C 0.44923 0.35394 0.70825 0.0
C832 C 0.47915 0.31465 0.70054 0.0
O833 O 0.45852 0.33423 0.66332 0.0
O834 O 0.483 0.33764 0.64254 0.0
C835 C 0.51075 0.37508 0.62932 0.0
N836 N 0.51655 0.36825 0.64849 0.0
C837 C 0.54597 0.39377 0.64696 0.0
C838 C 0.54033 0.40105 0.62711 0.0
C839 C 0.52264 0.39168 0.61831 0.0
C840 C 0.53353 0.37718 0.65719 0.0
H841 H 0.49716 0.36792 0.62252 0.0
C842 C 0.46656 0.33327 0.64283 0.0
O843 O 0.44566 0.33802 0.71461 0.0
O844 O 0.46411 0.36378 0.69603 0.0
N845 N 0.5248 0.35401 0.68709 0.0
C846 C 0.52782 0.34557 0.70732 0.0
C847 C 0.54484 0.35321 0.71853 0.0
C848 C 0.55858 0.36939 0.70874 0.0
C849 C 0.5551 0.37794 0.6881 0.0
C850 C 0.53793 0.36957 0.6775 0.0
H851 H 0.51736 0.33304 0.71477 0.0
O852 O 0.48472 0.35626 0.73084 0.0
O853 O 0.49411 0.35657 0.69053 0.0
O854 O 0.46957 0.32101 0.70861 0.0
O855 O 0.49192 0.32274 0.6843 0.0
C856 C 0.56795 0.39447 0.67773 0.0
C857 C 0.56336 0.40243 0.65728 0.0
H858 H 0.54945 0.41387 0.61861 0.0
H859 H 0.51817 0.39725 0.60307 0.0
H860 H 0.54741 0.34659 0.73456 0.0
H861 H 0.57172 0.37513 0.71731 0.0
H862 H 0.58134 0.40129 0.68554 0.0
H863 H 0.57328 0.41527 0.64974 0.0
H864 H 0.41524 0.07989 0.2343 0.0
H865 H 0.39766 0.04963 0.25162 0.0
H866 H 0.434 0.03556 0.21609 0.0
H867 H 0.45147 0.06563 0.19844 0.0
H868 H 0.39859 0.00935 0.21013 0.0
H869 H 0.41395 0.03153 0.31423 0.0
H870 H 0.40393 0.04179 0.29557 0.0
H871 H 0.42571 0.0459 0.28691 0.0
C872 C 0.41937 0.0703 0.22992 0.0
C873 C 0.43482 0.07521 0.2151 0.0
C874 C 0.40939 0.05305 0.24002 0.0
C875 C 0.41471 0.04043 0.2356 0.0
C876 C 0.42969 0.0451 0.21989 0.0
H877 H 0.39125 0.94471 0.31903 0.0
H878 H 0.40386 0.97476 0.30114 0.0
C879 C 0.43967 0.06231 0.2098 0.0
C880 C 0.40501 0.02248 0.24777 0.0
H881 H 0.39446 1.0009 0.30698 0.0
C882 C 0.39759 1.00749 0.2313 0.0
C883 C 0.40396 0.02008 0.27542 0.0
C884 C 0.41243 0.03564 0.29414 0.0
C885 C 0.38916 0.99018 0.24169 0.0
C886 C 0.38788 0.98778 0.26934 0.0
C887 C 0.39529 1.00276 0.28581 0.0
C888 C 0.37971 0.96983 0.2815 0.0
C889 C 0.38223 0.97463 0.22297 0.0
C890 C 0.36179 0.95719 0.27703 0.0
C891 C 0.35453 0.93997 0.28724 0.0
C892 C 0.36504 0.9351 0.30225 0.0
C893 C 0.38279 0.948 0.30753 0.0
C894 C 0.39003 0.96519 0.29731 0.0
H895 H 0.3879 0.97879 0.20291 0.0
H896 H 0.38534 0.96444 0.23025 0.0
H897 H 0.36758 0.96838 0.22142 0.0
H898 H 0.35347 0.96057 0.26535 0.0
H899 H 0.3408 0.93039 0.28289 0.0
H900 H 0.45305 0.38686 0.31984 0.0
H901 H 0.43527 0.39936 0.30293 0.0
H902 H 0.39994 0.34957 0.26486 0.0
H903 H 0.41779 0.33701 0.28147 0.0
H904 H 0.41118 0.37837 0.23163 0.0
H905 H 0.38651 0.39072 0.32532 0.0
H906 H 0.41021 0.40024 0.32456 0.0
H907 H 0.39609 0.37649 0.32327 0.0
C908 C 0.44136 0.37848 0.30818 0.0
C909 C 0.43682 0.36091 0.30207 0.0
C910 C 0.43115 0.38563 0.29861 0.0
C911 C 0.41614 0.37535 0.28288 0.0
C912 C 0.41143 0.35773 0.27706 0.0
H913 H 0.3424 0.41173 0.23624 0.0
H914 H 0.35488 0.39376 0.25278 0.0
C915 C 0.42162 0.35055 0.28664 0.0
C916 C 0.40598 0.38331 0.27128 0.0
H917 H 0.38343 0.4049 0.28699 0.0
C918 C 0.40497 0.38403 0.24374 0.0
C919 C 0.39769 0.3905 0.28705 0.0
C920 C 0.3975 0.38932 0.31669 0.0
C921 C 0.39641 0.39224 0.23158 0.0
C922 C 0.38885 0.40018 0.24736 0.0
C923 C 0.38935 0.39895 0.27489 0.0
C924 C 0.3809 0.41034 0.23577 0.0
C925 C 0.3955 0.39231 0.20192 0.0
C926 C 0.39134 0.42559 0.22062 0.0
C927 C 0.38425 0.43585 0.21111 0.0
C928 C 0.36657 0.43113 0.21668 0.0
C929 C 0.35603 0.41568 0.23147 0.0
C930 C 0.36316 0.40543 0.24102 0.0
H931 H 0.39713 0.38149 0.19316 0.0
H932 H 0.38268 0.39082 0.19512 0.0
H933 H 0.4064 0.40515 0.1944 0.0
H934 H 0.40516 0.42986 0.21674 0.0
H935 H 0.39278 0.44773 0.19995 0.0
H936 H 0.95178 0.39093 0.19658 0.0
H937 H 0.98202 0.40375 0.2138 0.0
H938 H 0.9682 0.35388 0.25097 0.0
H939 H 0.93783 0.34098 0.23403 0.0
H940 H 0.98534 0.38276 0.28473 0.0
H941 H 0.0226 0.39572 0.19113 0.0
H942 H 1.0081 0.40487 0.19205 0.0
H943 H 0.99884 0.38118 0.19311 0.0
C944 C 0.95522 0.3826 0.20811 0.0
C945 C 0.94239 0.3649 0.21385 0.0
C946 C 0.97256 0.38994 0.21787 0.0
C947 C 0.97746 0.37973 0.23344 0.0
C948 C 0.96474 0.36199 0.23891 0.0
H949 H 0.08703 0.41493 0.28025 0.0
H950 H 0.05659 0.39762 0.26355 0.0
C951 C 0.9474 0.35462 0.22913 0.0
C952 C 0.99555 0.38784 0.24514 0.0
H953 H 0.03972 0.40953 0.22964 0.0
C954 C 0.99723 0.3885 0.27269 0.0
C955 C 1.01107 0.39515 0.22944 0.0
C956 C 1.01012 0.39407 0.19979 0.0
C957 C 0.01399 0.3967 0.28494 0.0
C958 C 0.02951 0.40466 0.26923 0.0
C959 C 0.02783 0.40356 0.24169 0.0
C960 C 0.04763 0.4145 0.28091 0.0
C961 C 0.01493 0.39667 0.31459 0.0
C962 C 0.05271 0.42972 0.29634 0.0
C963 C 0.07009 0.43962 0.30597 0.0
C964 C 0.08279 0.43457 0.30023 0.0
C965 C 0.07758 0.41915 0.28515 0.0
C966 C 0.06019 0.40927 0.2755 0.0
H967 H 1.00239 0.38598 0.3233 0.0
H968 H 0.02611 0.39491 0.32135 0.0
H969 H 0.01711 0.40958 0.32221 0.0
H970 H 0.04337 0.43423 0.30037 0.0
H971 H 0.07369 0.45149 0.31735 0.0
H972 H 0.56796 0.94757 0.19703 0.0
H973 H 0.58543 0.97788 0.21395 0.0
H974 H 0.62118 0.96402 0.25207 0.0
H975 H 0.60365 0.93357 0.23544 0.0
H976 H 0.60964 0.98151 0.28525 0.0
H977 H 0.63406 0.0182 0.19125 0.0
H978 H 0.6104 1.00384 0.19217 0.0
H979 H 0.62471 0.99444 0.19353 0.0
C980 C 0.57968 0.95101 0.20872 0.0
C981 C 0.58443 0.93814 0.2148 0.0
C982 C 0.5897 0.96839 0.2183 0.0
C983 C 0.60475 0.97331 0.23405 0.0
C984 C 0.60967 0.96056 0.23987 0.0
H985 H 0.67953 0.0831 0.27968 0.0
H986 H 0.66623 0.05257 0.26325 0.0
C987 C 0.59966 0.94317 0.23027 0.0
C988 C 0.61479 0.99149 0.24553 0.0
H989 H 0.63743 0.03558 0.22947 0.0
C990 C 0.61583 0.99333 0.27305 0.0
C991 C 0.62305 1.00692 0.22964 0.0
C992 C 0.62318 1.00581 0.20001 0.0
C993 C 0.62446 0.01017 0.28509 0.0
C994 C 0.63207 0.0256 0.26919 0.0
C995 C 0.63147 0.02375 0.24168 0.0
C996 C 0.64044 0.0438 0.28065 0.0
C997 C 0.62545 0.01126 0.31474 0.0
C998 C 0.6304 0.04903 0.296 0.0
C999 C 0.63798 0.06646 0.30547 0.0
C1000 C 0.65574 0.07907 0.29967 0.0
C1001 C 0.66585 0.07372 0.28463 0.0
C1002 C 0.65825 0.05628 0.27514 0.0
H1003 H 0.62357 0.99875 0.32363 0.0
H1004 H 0.6384 0.02245 0.32142 0.0
H1005 H 0.61475 0.01353 0.32224 0.0
H1006 H 0.61655 0.03976 0.3001 0.0
H1007 H 0.62977 0.07016 0.31681 0.0
H1008 H 0.57043 0.62785 0.31711 0.0
H1009 H 0.58797 0.61513 0.30025 0.0
H1010 H 0.62335 0.66466 0.26169 0.0
H1011 H 0.6057 0.67748 0.2783 0.0
H1012 H 0.61155 0.63541 0.22868 0.0
H1013 H 0.63673 0.62355 0.32225 0.0
H1014 H 0.61307 0.61428 0.32198 0.0
H1015 H 0.62739 0.63798 0.3201 0.0
C1016 C 0.5821 0.63616 0.30537 0.0
C1017 C 0.58669 0.65371 0.29913 0.0
C1018 C 0.59217 0.62887 0.29583 0.0
C1019 C 0.60711 0.63899 0.27995 0.0
C1020 C 0.61192 0.65663 0.27402 0.0
H1021 H 0.67906 0.60055 0.23359 0.0
H1022 H 0.66699 0.61889 0.24991 0.0
C1023 C 0.60186 0.66395 0.28361 0.0
C1024 C 0.61702 0.63077 0.26834 0.0
H1025 H 0.63893 0.60856 0.28419 0.0
C1026 C 0.61769 0.6297 0.24081 0.0
C1027 C 0.6252 0.62347 0.28414 0.0
C1028 C 0.62574 0.62501 0.31375 0.0
C1029 C 0.6258 0.62101 0.22869 0.0
C1030 C 0.63323 0.61296 0.24453 0.0
C1031 C 0.63309 0.61457 0.27203 0.0
C1032 C 0.64087 0.60248 0.23306 0.0
C1033 C 0.62639 0.62057 0.19903 0.0
C1034 C 0.63023 0.58717 0.21807 0.0
C1035 C 0.6371 0.57668 0.20866 0.0
C1036 C 0.65474 0.58122 0.21419 0.0
C1037 C 0.66545 0.59671 0.22888 0.0
C1038 C 0.65856 0.60719 0.23829 0.0
H1039 H 0.6249 0.63143 0.19009 0.0
H1040 H 0.63904 0.62174 0.19206 0.0
H1041 H 0.61526 0.60774 0.19188 0.0
H1042 H 0.61644 0.58305 0.21422 0.0
H1043 H 0.62845 0.56478 0.19759 0.0
H1044 H 0.06808 0.63151 0.18595 0.0
H1045 H 0.03751 0.61849 0.20183 0.0
H1046 H 0.05514 0.65812 0.26318 0.0
H1047 H 0.08549 0.67173 0.2464 0.0
H1048 H 0.02445 0.6029 0.24533 0.0
H1049 H 0.01241 0.65952 0.24086 0.0
H1050 H 0.03153 0.66029 0.2257 0.0
H1051 H 0.03165 0.66492 0.26034 0.0
C1052 C 0.06533 0.63767 0.20244 0.0
C1053 C 0.07914 0.65272 0.21479 0.0
C1054 C 0.04786 0.63018 0.2116 0.0
C1055 C 0.04385 0.6374 0.23357 0.0
C1056 C 0.05766 0.65257 0.24573 0.0
H1057 H 0.94995 0.57143 0.3295 0.0
H1058 H 0.98022 0.58871 0.31231 0.0
C1059 C 0.07508 0.66031 0.2362 0.0
C1060 C 0.02554 0.62823 0.24485 0.0
H1061 H 0.99228 0.63487 0.26755 0.0
C1062 C 0.01738 0.60991 0.24993 0.0
C1063 C 0.0161 0.63722 0.25065 0.0
C1064 C 0.02331 0.65652 0.24383 0.0
C1065 C 1.00024 0.60039 0.26075 0.0
C1066 C 0.99121 0.60956 0.26791 0.0
C1067 C 0.99926 0.62784 0.26255 0.0
C1068 C 0.97317 0.60032 0.28004 0.0
C1069 C 0.99187 0.5805 0.26359 0.0
C1070 C 0.95925 0.60192 0.26879 0.0
C1071 C 0.94205 0.59249 0.27913 0.0
C1072 C 0.93835 0.58108 0.30077 0.0
C1073 C 0.95237 0.57996 0.31262 0.0
C1074 C 0.96965 0.5897 0.30262 0.0
H1075 H 0.99787 0.57505 0.24977 0.0
H1076 H 0.99415 0.57733 0.28388 0.0
H1077 H 0.97734 0.57365 0.25989 0.0
H1078 H 0.96158 0.6101 0.2515 0.0
H1079 H 0.93152 0.59361 0.26953 0.0
H1080 H 0.60178 0.93409 0.76963 0.0
H1081 H 0.61914 0.96451 0.75333 0.0
H1082 H 0.59741 0.98244 0.81462 0.0
H1083 H 0.57924 0.95182 0.83 0.0
H1084 H 0.59557 0.99605 0.77135 0.0
H1085 H 0.66362 1.00652 0.77645 0.0
H1086 H 0.64963 0.9875 0.75668 0.0
H1087 H 0.64494 0.98751 0.79126 0.0
C1088 C 0.60095 0.94458 0.7799 0.0
C1089 C 0.5892 0.94059 0.80115 0.0
C1090 C 0.61099 0.96203 0.77066 0.0
C1091 C 0.60991 0.97595 0.78297 0.0
C1092 C 0.59855 0.972 0.80475 0.0
H1093 H 0.67994 0.08827 0.74677 0.0
H1094 H 0.6663 0.05822 0.76501 0.0
C1095 C 0.5882 0.9545 0.81361 0.0
C1096 C 0.61946 0.99433 0.77196 0.0
H1097 H 0.65975 0.02704 0.74952 0.0
C1098 C 0.60965 1.00286 0.76685 0.0
C1099 C 0.63791 1.00344 0.76632 0.0
C1100 C 0.64965 0.99583 0.77325 0.0
C1101 C 0.61763 0.02002 0.75607 0.0
C1102 C 0.63583 0.02869 0.74895 0.0
C1103 C 0.64573 0.02031 0.75446 0.0
C1104 C 0.64489 0.04664 0.73652 0.0
C1105 C 0.60647 0.02879 0.75315 0.0
C1106 C 0.63785 0.0501 0.71383 0.0
C1107 C 0.64543 0.06735 0.70372 0.0
C1108 C 0.66055 0.08138 0.71557 0.0
C1109 C 0.66831 0.07771 0.73718 0.0
C1110 C 0.66049 0.06053 0.74766 0.0
H1111 H 0.59507 0.02308 0.76704 0.0
H1112 H 0.61444 0.04333 0.75671 0.0
H1113 H 0.60097 0.02654 0.7329 0.0
H1114 H 0.62624 0.03953 0.70423 0.0
H1115 H 0.63928 0.06974 0.68685 0.0
H1116 H 0.67806 0.60321 0.78014 0.0
H1117 H 0.66559 0.62113 0.76342 0.0
H1118 H 0.61555 0.58559 0.80056 0.0
H1119 H 0.62793 0.56775 0.81753 0.0
H1120 H 0.6367 0.6095 0.72961 0.0
H1121 H 0.62406 0.63442 0.82287 0.0
H1122 H 0.63845 0.62502 0.82105 0.0
H1123 H 0.61474 0.61075 0.82229 0.0
C1124 C 0.66449 0.59938 0.78513 0.0
C1125 C 0.65401 0.58408 0.80026 0.0
C1126 C 0.65737 0.6096 0.77547 0.0
C1127 C 0.63969 0.60482 0.78094 0.0
C1128 C 0.62932 0.58975 0.79649 0.0
H1129 H 0.5672 0.62789 0.69708 0.0
H1130 H 0.58493 0.61536 0.71407 0.0
C1131 C 0.63641 0.57952 0.80611 0.0
C1132 C 0.63172 0.61488 0.76913 0.0
H1133 H 0.60987 0.63725 0.78436 0.0
C1134 C 0.63098 0.61572 0.74157 0.0
C1135 C 0.62442 0.62314 0.78473 0.0
C1136 C 0.62558 0.62347 0.81438 0.0
C1137 C 0.62264 0.6241 0.72922 0.0
C1138 C 0.61463 0.63166 0.74484 0.0
C1139 C 0.61588 0.63132 0.77238 0.0
C1140 C 0.60454 0.63962 0.73308 0.0
C1141 C 0.62254 0.62484 0.69955 0.0
C1142 C 0.60956 0.6574 0.73824 0.0
C1143 C 0.59941 0.6646 0.7286 0.0
C1144 C 0.58394 0.6541 0.71378 0.0
C1145 C 0.5791 0.63638 0.70827 0.0
C1146 C 0.58927 0.6292 0.71789 0.0
H1147 H 0.63331 0.62311 0.69087 0.0
H1148 H 0.60967 0.61395 0.6921 0.0
H1149 H 0.62409 0.63766 0.6926 0.0
H1150 H 0.62125 0.66566 0.75001 0.0
H1151 H 0.60347 0.67827 0.73331 0.0
H1152 H 0.93357 0.60137 0.73608 0.0
H1153 H 0.96396 0.61903 0.75284 0.0
H1154 H 0.97792 0.58299 0.71592 0.0
H1155 H 0.94767 0.5654 0.69887 0.0
H1156 H 0.98111 0.60756 0.7867 0.0
H1157 H 0.0185 0.63143 0.69319 0.0
H1158 H 0.99473 0.62216 0.69502 0.0
H1159 H 1.00407 0.60778 0.69416 0.0
C1160 C 0.94318 0.59735 0.73118 0.0
C1161 C 0.9382 0.582 0.71604 0.0
C1162 C 0.96054 0.60743 0.74085 0.0
C1163 C 0.97329 0.60246 0.73541 0.0
C1164 C 0.96843 0.5873 0.71995 0.0
H1165 H 0.06857 0.62515 0.81934 0.0
H1166 H 0.03834 0.61298 0.80252 0.0
C1167 C 0.95108 0.57721 0.71029 0.0
C1168 C 0.99138 0.61248 0.74714 0.0
H1169 H 0.03556 0.6345 0.73176 0.0
C1170 C 0.99302 0.61359 0.77468 0.0
C1171 C 1.00691 0.62053 0.73148 0.0
C1172 C 1.00602 0.6206 0.70182 0.0
C1173 C 1.00976 0.62203 0.78698 0.0
C1174 C 0.02529 0.62936 0.77132 0.0
C1175 C 0.02365 0.62876 0.74377 0.0
C1176 C 0.04335 0.63721 0.78305 0.0
C1177 C 1.01066 0.62307 0.81663 0.0
C1178 C 0.05631 0.65487 0.7776 0.0
C1179 C 0.07367 0.66187 0.78717 0.0
C1180 C 0.07843 0.65129 0.80218 0.0
C1181 C 0.06533 0.63371 0.80801 0.0
C1182 C 0.04799 0.62674 0.79848 0.0
H1183 H 0.99824 0.62161 0.82522 0.0
H1184 H 0.01243 0.61212 0.82438 0.0
H1185 H 0.02205 0.63587 0.82339 0.0
H1186 H 0.05305 0.66316 0.76564 0.0
H1187 H 0.08346 0.67543 0.7822 0.0
H1188 H 0.41687 0.08033 0.7804 0.0
H1189 H 0.39868 0.04984 0.76416 0.0
H1190 H 0.43451 0.03541 0.80062 0.0
H1191 H 0.45261 0.06572 0.81712 0.0
H1192 H 0.40962 0.03203 0.73028 0.0
H1193 H 0.38594 0.99556 0.82453 0.0
H1194 H 0.39544 0.01935 0.82222 0.0
H1195 H 0.40961 0.00978 0.82329 0.0
C1196 C 0.42072 0.07059 0.78531 0.0
C1197 C 0.43616 0.07545 0.80014 0.0
C1198 C 0.41034 0.05319 0.77594 0.0
C1199 C 0.41511 0.04028 0.78141 0.0
C1200 C 0.43036 0.04503 0.79658 0.0
H1201 H 0.39112 0.944 0.69923 0.0
H1202 H 0.4037 0.97441 0.71561 0.0
C1203 C 0.44075 0.06241 0.80591 0.0
C1204 C 0.40481 0.02212 0.77004 0.0
H1205 H 0.38265 0.97809 0.78634 0.0
C1206 C 0.40357 0.02023 0.74253 0.0
C1207 C 0.39674 1.00673 0.78602 0.0
C1208 C 0.39682 0.00791 0.81566 0.0
C1209 C 0.39501 1.00337 0.73059 0.0
C1210 C 0.38769 0.98799 0.74657 0.0
C1211 C 0.3884 0.98988 0.77408 0.0
C1212 C 0.37966 0.9698 0.73523 0.0
C1213 C 0.39385 1.0022 0.70095 0.0
C1214 C 0.362 0.95701 0.74098 0.0
C1215 C 0.35477 0.93957 0.7317 0.0
C1216 C 0.36513 0.93454 0.71666 0.0
C1217 C 0.38274 0.94745 0.71061 0.0
C1218 C 0.38993 0.96488 0.71986 0.0
H1219 H 0.39536 0.01457 0.69209 0.0
H1220 H 0.4047 1.00025 0.69328 0.0
H1221 H 0.38098 0.9908 0.69443 0.0
H1222 H 0.35385 0.96049 0.75291 0.0
H1223 H 0.3412 0.92995 0.73683 0.0
H1224 H 0.34375 0.41216 0.78306 0.0
H1225 H 0.35611 0.39408 0.76658 0.0
H1226 H 0.40648 0.43013 0.80254 0.0
H1227 H 0.39422 0.44813 0.81928 0.0
H1228 H 0.38462 0.40537 0.73225 0.0
H1229 H 0.39839 0.38163 0.82575 0.0
H1230 H 0.38393 0.39096 0.82397 0.0
H1231 H 0.40765 0.40529 0.82467 0.0
C1232 C 0.35737 0.41606 0.78785 0.0
C1233 C 0.36798 0.43156 0.80256 0.0
C1234 C 0.36443 0.40575 0.77833 0.0
C1235 C 0.38217 0.41064 0.78354 0.0
C1236 C 0.39267 0.42589 0.79869 0.0
H1237 H 0.454 0.38705 0.69903 0.0
H1238 H 0.43636 0.39964 0.71613 0.0
C1239 C 0.38564 0.43622 0.80817 0.0
C1240 C 0.39006 0.40049 0.77179 0.0
H1241 H 0.41225 0.37846 0.78711 0.0
C1242 C 0.39051 0.39934 0.74425 0.0
C1243 C 0.39759 0.39246 0.78744 0.0
C1244 C 0.39675 0.39247 0.8171 0.0
C1245 C 0.39877 0.39088 0.73193 0.0
C1246 C 0.40702 0.38357 0.74756 0.0
C1247 C 0.40607 0.38421 0.77512 0.0
C1248 C 0.41706 0.37556 0.7358 0.0
C1249 C 0.39855 0.3898 0.70228 0.0
C1250 C 0.41219 0.35786 0.74133 0.0
C1251 C 0.4223 0.35064 0.73163 0.0
C1252 C 0.43757 0.36102 0.71639 0.0
C1253 C 0.44226 0.37865 0.71055 0.0
C1254 C 0.43213 0.38586 0.72022 0.0
H1255 H 0.38764 0.39135 0.69371 0.0
H1256 H 0.41131 0.40066 0.69447 0.0
H1257 H 0.39701 0.37694 0.69556 0.0
H1258 H 0.40066 0.34969 0.7534 0.0
H1259 H 0.41837 0.33704 0.73659 0.0
H1260 H 0.08938 0.41511 0.73393 0.0
H1261 H 0.05892 0.39737 0.7503 0.0
H1262 H 0.04529 0.43396 0.71444 0.0
H1263 H 0.07562 0.45164 0.69779 0.0
H1264 H 0.04181 0.4087 0.78456 0.0
H1265 H 1.00462 0.38577 0.69063 0.0
H1266 H 0.02837 0.39489 0.69261 0.0
H1267 H 0.01917 0.40939 0.69212 0.0
C1268 C 0.07983 0.41923 0.72917 0.0
C1269 C 0.08493 0.43477 0.71446 0.0
C1270 C 0.06243 0.40911 0.73862 0.0
C1271 C 0.04975 0.41422 0.73338 0.0
C1272 C 0.05473 0.42955 0.71831 0.0
H1273 H 0.95435 0.39112 0.81703 0.0
H1274 H 0.9846 0.40337 0.80032 0.0
C1275 C 0.07212 0.43969 0.70889 0.0
C1276 C 0.03164 0.40415 0.74493 0.0
H1277 H 0.98749 0.38238 0.7292 0.0
C1278 C 0.02993 0.40281 0.77245 0.0
C1279 C 0.01614 0.39627 0.72914 0.0
C1280 C 0.01711 0.39647 0.69948 0.0
C1281 C 0.01316 0.39431 0.78461 0.0
C1282 C 0.99767 0.38716 0.76884 0.0
C1283 C 0.99937 0.38799 0.7413 0.0
C1284 C 0.97958 0.37926 0.78046 0.0
C1285 C 0.01218 0.39303 0.81424 0.0
C1286 C 0.96662 0.36163 0.77476 0.0
C1287 C 0.94925 0.35458 0.78426 0.0
C1288 C 0.94448 0.36509 0.79947 0.0
C1289 C 0.95759 0.38263 0.80553 0.0
C1290 C 0.97493 0.38964 0.79607 0.0
H1291 H 0.02457 0.39441 0.82284 0.0
H1292 H 1.01038 0.40392 0.82222 0.0
H1293 H 1.00077 0.38018 0.82075 0.0
H1294 H 0.96989 0.3534 0.76265 0.0
H1295 H 0.93946 0.34106 0.77911 0.0
H1296 H 0.459 0.16265 0.24439 0.0
H1297 H 0.45665 0.18731 0.26329 0.0
H1298 H 0.48925 0.22157 0.20061 0.0
H1299 H 0.49215 0.19723 0.18217 0.0
H1300 H 0.50087 0.23732 0.24599 0.0
H1301 H 0.42811 0.21015 0.24316 0.0
H1302 H 0.43416 0.19604 0.26069 0.0
H1303 H 0.43874 0.19979 0.226 0.0
C1304 C 0.46546 0.17537 0.23442 0.0
C1305 C 0.47578 0.17793 0.21176 0.0
C1306 C 0.46401 0.18946 0.24518 0.0
C1307 C 0.47256 0.20631 0.23321 0.0
C1308 C 0.4825 0.20873 0.21024 0.0
H1309 H 0.45994 0.29735 0.27341 0.0
H1310 H 0.45784 0.27078 0.25304 0.0
C1311 C 0.48414 0.19476 0.19969 0.0
C1312 C 0.47229 0.22177 0.24547 0.0
H1313 H 0.44496 0.23646 0.26878 0.0
C1314 C 0.48862 0.23713 0.25082 0.0
C1315 C 0.45633 0.22169 0.25151 0.0
C1316 C 0.43835 0.2061 0.2448 0.0
C1317 C 0.48947 0.25225 0.26224 0.0
C1318 C 0.47354 0.25189 0.26939 0.0
C1319 C 0.45718 0.23667 0.26366 0.0
C1320 C 0.47371 0.26725 0.28269 0.0
C1321 C 0.50747 0.26859 0.26602 0.0
C1322 C 0.48285 0.27381 0.30655 0.0
C1323 C 0.48423 0.28906 0.31807 0.0
C1324 C 0.47621 0.29796 0.30626 0.0
C1325 C 0.4663 0.29086 0.28303 0.0
C1326 C 0.46509 0.27567 0.27135 0.0
H1327 H 0.51754 0.26858 0.25257 0.0
H1328 H 0.50692 0.28092 0.26256 0.0
H1329 H 0.51203 0.26886 0.28651 0.0
H1330 H 0.48917 0.26727 0.31611 0.0
H1331 H 0.49176 0.29397 0.33614 0.0
H1332 H 0.16681 0.44856 0.28124 0.0
H1333 H 0.19019 0.44397 0.2624 0.0
H1334 H 0.22995 0.49049 0.30315 0.0
H1335 H 0.20688 0.49502 0.32233 0.0
H1336 H 0.21756 0.46574 0.23015 0.0
H1337 H 0.24471 0.45453 0.32195 0.0
H1338 H 0.22359 0.4538 0.32083 0.0
H1339 H 0.24397 0.47477 0.32326 0.0
C1340 C 0.18051 0.45771 0.28643 0.0
C1341 C 0.18488 0.4721 0.30349 0.0
C1342 C 0.19387 0.45507 0.27561 0.0
C1343 C 0.21182 0.46669 0.28174 0.0
C1344 C 0.21619 0.48106 0.29867 0.0
H1345 H 0.30715 0.49615 0.19597 0.0
H1346 H 0.27938 0.49188 0.21419 0.0
C1347 C 0.20291 0.48368 0.30951 0.0
C1348 C 0.22616 0.46451 0.26947 0.0
H1349 H 0.26377 0.46297 0.28397 0.0
C1350 C 0.22753 0.46488 0.24191 0.0
C1351 C 0.23902 0.46306 0.28475 0.0
C1352 C 0.23766 0.46132 0.31432 0.0
C1353 C 0.24187 0.46476 0.22929 0.0
C1354 C 0.25541 0.46463 0.24466 0.0
C1355 C 0.25355 0.46333 0.27216 0.0
C1356 C 0.27199 0.46671 0.23275 0.0
C1357 C 0.24237 0.46484 0.19961 0.0
C1358 C 0.2774 0.45421 0.23762 0.0
C1359 C 0.29347 0.4567 0.22741 0.0
C1360 C 0.30452 0.47181 0.21219 0.0
C1361 C 0.29898 0.48427 0.20735 0.0
C1362 C 0.28298 0.48179 0.21763 0.0
H1363 H 0.22881 0.45905 0.19111 0.0
H1364 H 0.25022 0.47876 0.19257 0.0
H1365 H 0.24864 0.45729 0.19205 0.0
H1366 H 0.26921 0.44253 0.24941 0.0
H1367 H 0.29728 0.44684 0.23163 0.0
H1368 H 0.71919 0.20333 0.31979 0.0
H1369 H 0.74654 0.22638 0.30001 0.0
H1370 H 0.7545 0.18642 0.26236 0.0
H1371 H 0.72674 0.16306 0.28169 0.0
H1372 H 0.78075 0.234 0.30416 0.0
H1373 H 0.75777 0.21745 0.20051 0.0
H1374 H 0.74287 0.20807 0.2281 0.0
H1375 H 0.75724 0.1996 0.21906 0.0
C1376 C 0.72671 0.19932 0.30737 0.0
C1377 C 0.72061 0.18124 0.30226 0.0
C1378 C 0.74241 0.21259 0.29608 0.0
C1379 C 0.75249 0.20819 0.27938 0.0
C1380 C 0.74676 0.19017 0.27473 0.0
H1381 H 0.8583 0.29419 0.22888 0.0
H1382 H 0.83486 0.26642 0.24803 0.0
C1383 C 0.73093 0.17681 0.28594 0.0
C1384 C 0.76879 0.22266 0.26677 0.0
H1385 H 0.7868 0.24126 0.20725 0.0
C1386 C 0.78215 0.23552 0.28296 0.0
C1387 C 0.77054 0.22473 0.23909 0.0
C1388 C 0.7563 0.21184 0.22061 0.0
C1389 C 0.79696 0.25058 0.27232 0.0
C1390 C 0.79868 0.25267 0.24465 0.0
C1391 C 0.78554 0.23959 0.22844 0.0
C1392 C 0.81315 0.26903 0.23215 0.0
C1393 C 0.81016 0.26451 0.29087 0.0
C1394 C 0.80881 0.27946 0.21613 0.0
C1395 C 0.82213 0.29518 0.20492 0.0
C1396 C 0.8402 0.30094 0.20945 0.0
C1397 C 0.84455 0.29028 0.22511 0.0
C1398 C 0.83116 0.27443 0.23621 0.0
H1399 H 0.80477 0.26289 0.31116 0.0
H1400 H 0.82229 0.26335 0.29182 0.0
H1401 H 0.81405 0.27808 0.28386 0.0
H1402 H 0.79503 0.27558 0.21265 0.0
H1403 H 0.81818 0.30297 0.19301 0.0
H1404 H 0.5611 0.85086 0.24406 0.0
H1405 H 0.56351 0.82638 0.2636 0.0
H1406 H 0.53456 0.79277 0.19799 0.0
H1407 H 0.5316 0.81688 0.17885 0.0
H1408 H 0.52116 0.77613 0.24238 0.0
H1409 H 0.59419 0.80525 0.24691 0.0
H1410 H 0.58671 0.81855 0.26348 0.0
H1411 H 0.58382 0.81536 0.22843 0.0
C1412 C 0.55548 0.83833 0.23361 0.0
C1413 C 0.54614 0.83586 0.20989 0.0
C1414 C 0.55695 0.82435 0.24475 0.0
C1415 C 0.54942 0.80773 0.23214 0.0
C1416 C 0.5405 0.80543 0.20813 0.0
H1417 H 0.56347 0.71773 0.27195 0.0
H1418 H 0.56558 0.74457 0.25266 0.0
C1419 C 0.53882 0.81927 0.19719 0.0
C1420 C 0.54965 0.79231 0.24462 0.0
H1421 H 0.57682 0.77816 0.27042 0.0
C1422 C 0.53337 0.77659 0.24839 0.0
C1423 C 0.56556 0.79276 0.25222 0.0
C1424 C 0.58358 0.80882 0.24733 0.0
C1425 C 0.5325 0.76142 0.25963 0.0
C1426 C 0.54833 0.76208 0.2682 0.0
C1427 C 0.56466 0.77771 0.26417 0.0
C1428 C 0.54811 0.74656 0.28106 0.0
C1429 C 0.51461 0.74469 0.26159 0.0
C1430 C 0.53802 0.73903 0.3039 0.0
C1431 C 0.53663 0.72361 0.31479 0.0
C1432 C 0.54557 0.71551 0.30338 0.0
C1433 C 0.55638 0.72358 0.28124 0.0
C1434 C 0.55761 0.73893 0.27018 0.0
H1435 H 0.50493 0.74478 0.24736 0.0
H1436 H 0.5157 0.73268 0.2579 0.0
H1437 H 0.50918 0.74371 0.28167 0.0
H1438 H 0.53097 0.74494 0.31312 0.0
H1439 H 0.52837 0.71794 0.33204 0.0
H1440 H 0.72348 0.56547 0.2316 0.0
H1441 H 0.75116 0.56949 0.25074 0.0
H1442 H 0.74266 0.52158 0.21242 0.0
H1443 H 0.71533 0.51761 0.19288 0.0
H1444 H 0.75612 0.54812 0.28427 0.0
H1445 H 0.79361 0.55572 0.19272 0.0
H1446 H 0.77358 0.55712 0.19324 0.0
H1447 H 0.77233 0.5358 0.19238 0.0
C1448 C 0.72759 0.55587 0.22701 0.0
C1449 C 0.71715 0.54127 0.21051 0.0
C1450 C 0.74342 0.5582 0.238 0.0
C1451 C 0.74919 0.54603 0.23264 0.0
C1452 C 0.73878 0.53143 0.21629 0.0
H1453 H 0.81441 0.51752 0.32302 0.0
H1454 H 0.79103 0.52143 0.30337 0.0
C1455 C 0.72303 0.52912 0.20524 0.0
C1456 C 0.76556 0.54795 0.24514 0.0
H1457 H 0.80415 0.54808 0.23159 0.0
C1458 C 0.76673 0.54834 0.27274 0.0
C1459 C 0.7796 0.54857 0.23016 0.0
C1460 C 0.77983 0.54948 0.20049 0.0
C1461 C 0.78109 0.54849 0.28571 0.0
C1462 C 0.7945 0.54784 0.27072 0.0
C1463 C 0.79377 0.54831 0.24313 0.0
C1464 C 0.80893 0.54589 0.28321 0.0
C1465 C 0.78174 0.54933 0.31539 0.0
C1466 C 0.82687 0.55806 0.27789 0.0
C1467 C 0.84038 0.55577 0.28893 0.0
C1468 C 0.83621 0.54119 0.30546 0.0
C1469 C 0.8182 0.52901 0.31065 0.0
C1470 C 0.80475 0.53129 0.29954 0.0
H1471 H 0.77421 0.55557 0.32321 0.0
H1472 H 0.77555 0.53563 0.32339 0.0
H1473 H 0.79563 0.55694 0.32268 0.0
H1474 H 0.83043 0.56936 0.26517 0.0
H1475 H 0.85407 0.56538 0.2844 0.0
H1476 H 0.20346 0.71001 0.1983 0.0
H1477 H 0.22714 0.7372 0.21775 0.0
H1478 H 0.18831 0.74816 0.25229 0.0
H1479 H 0.16435 0.72065 0.23328 0.0
H1480 H 0.2362 0.77196 0.21171 0.0
H1481 H 0.21813 0.75096 0.31576 0.0
H1482 H 0.20864 0.73568 0.28856 0.0
H1483 H 0.20075 0.75072 0.29631 0.0
C1484 C 0.19985 0.71815 0.20998 0.0
C1485 C 0.1819 0.71299 0.2143 0.0
C1486 C 0.21347 0.73376 0.22108 0.0
C1487 C 0.20954 0.74463 0.23681 0.0
C1488 C 0.19168 0.7398 0.24069 0.0
H1489 H 0.29569 0.8506 0.28575 0.0
H1490 H 0.26818 0.82688 0.26633 0.0
C1491 C 0.17798 0.7241 0.22966 0.0
C1492 C 0.22428 0.76085 0.24919 0.0
H1493 H 0.24239 0.77972 0.30859 0.0
C1494 C 0.23751 0.77373 0.23289 0.0
C1495 C 0.22606 0.76306 0.27685 0.0
C1496 C 0.21275 0.74933 0.29546 0.0
C1497 C 0.25259 0.78856 0.24346 0.0
C1498 C 0.25435 0.79079 0.27112 0.0
C1499 C 0.24097 0.77808 0.28739 0.0
C1500 C 0.27059 0.80542 0.28363 0.0
C1501 C 0.26686 0.8013 0.22493 0.0
C1502 C 0.28082 0.8013 0.30047 0.0
C1503 C 0.29642 0.81478 0.3118 0.0
C1504 C 0.30221 0.83278 0.30659 0.0
C1505 C 0.29174 0.83691 0.29009 0.0
C1506 C 0.27604 0.82335 0.27883 0.0
H1507 H 0.26539 0.79554 0.20493 0.0
H1508 H 0.26594 0.81354 0.22309 0.0
H1509 H 0.28028 0.80511 0.23254 0.0
H1510 H 0.27689 0.78757 0.30453 0.0
H1511 H 0.30406 0.81101 0.32437 0.0
H1512 H 0.52248 0.71667 0.69143 0.0
H1513 H 0.52696 0.74428 0.7106 0.0
H1514 H 0.5739 0.75149 0.75056 0.0
H1515 H 0.56936 0.72354 0.73176 0.0
H1516 H 0.55232 0.75694 0.78322 0.0
H1517 H 0.56245 0.79506 0.69149 0.0
H1518 H 0.54227 0.77401 0.69055 0.0
H1519 H 0.56332 0.77473 0.6924 0.0
C1520 C 0.53389 0.72415 0.70406 0.0
C1521 C 0.54561 0.71783 0.7099 0.0
C1522 C 0.53649 0.74005 0.7149 0.0
C1523 C 0.55096 0.75018 0.73162 0.0
C1524 C 0.56272 0.74397 0.73753 0.0
H1525 H 0.57163 0.85561 0.78276 0.0
H1526 H 0.57549 0.83173 0.76424 0.0
C1527 C 0.5601 0.72799 0.72673 0.0
C1528 C 0.55313 0.76668 0.74397 0.0
H1529 H 0.5545 0.80579 0.72984 0.0
C1530 C 0.55304 0.76773 0.77154 0.0
C1531 C 0.55438 0.78094 0.7288 0.0
C1532 C 0.55581 0.78124 0.69918 0.0
C1533 C 0.5533 0.78222 0.78431 0.0
C1534 C 0.55328 0.79586 0.76908 0.0
C1535 C 0.55426 0.79523 0.74154 0.0
C1536 C 0.55141 0.81043 0.78123 0.0
C1537 C 0.55355 0.78272 0.814 0.0
C1538 C 0.53651 0.80643 0.79674 0.0
C1539 C 0.53429 0.82001 0.80744 0.0
C1540 C 0.54683 0.83798 0.80264 0.0
C1541 C 0.56173 0.84196 0.78696 0.0
C1542 C 0.56396 0.82832 0.77633 0.0
H1543 H 0.55936 0.77491 0.82226 0.0
H1544 H 0.56125 0.79656 0.82147 0.0
H1545 H 0.53972 0.77675 0.82138 0.0
H1546 H 0.52638 0.79275 0.80022 0.0
H1547 H 0.52255 0.81636 0.81915 0.0
H1548 H 0.71767 0.56098 0.77177 0.0
H1549 H 0.74455 0.5633 0.75228 0.0
H1550 H 0.74527 0.52868 0.81245 0.0
H1551 H 0.71825 0.52589 0.83159 0.0
H1552 H 0.77831 0.5746 0.77017 0.0
H1553 H 0.74485 0.50284 0.74617 0.0
H1554 H 0.73277 0.5136 0.75686 0.0
H1555 H 0.74371 0.50689 0.78053 0.0
C1556 C 0.72361 0.55394 0.78096 0.0
C1557 C 0.71564 0.54306 0.80307 0.0
C1558 C 0.73898 0.55529 0.76978 0.0
C1559 C 0.7467 0.54584 0.78053 0.0
C1560 C 0.73928 0.53569 0.80335 0.0
H1561 H 0.85083 0.55852 0.74495 0.0
H1562 H 0.82629 0.56107 0.76389 0.0
C1563 C 0.72385 0.53419 0.81435 0.0
C1564 C 0.7622 0.54612 0.76756 0.0
H1565 H 0.77624 0.51903 0.74152 0.0
C1566 C 0.77786 0.56247 0.76377 0.0
C1567 C 0.76151 0.53032 0.75879 0.0
C1568 C 0.74476 0.51244 0.76052 0.0
C1569 C 0.79294 0.5634 0.75191 0.0
C1570 C 0.79248 0.5475 0.74417 0.0
C1571 C 0.77671 0.53121 0.74764 0.0
C1572 C 0.80795 0.54728 0.73197 0.0
C1573 C 0.80906 0.58141 0.74733 0.0
C1574 C 0.80584 0.53849 0.70789 0.0
C1575 C 0.81971 0.53673 0.69729 0.0
C1576 C 0.83613 0.54382 0.71042 0.0
C1577 C 0.83843 0.55306 0.73419 0.0
C1578 C 0.82442 0.55462 0.74498 0.0
H1579 H 0.80552 0.59206 0.7469 0.0
H1580 H 0.81866 0.58444 0.76364 0.0
H1581 H 0.81573 0.58174 0.72853 0.0
H1582 H 0.79329 0.5327 0.69745 0.0
H1583 H 0.81746 0.5296 0.6789 0.0
H1584 H 0.29705 0.81367 0.68059 0.0
H1585 H 0.26969 0.78956 0.69903 0.0
H1586 H 0.27422 0.82267 0.76525 0.0
H1587 H 0.3014 0.84714 0.74641 0.0
H1588 H 0.26605 0.77249 0.74311 0.0
H1589 H 0.22258 0.8021 0.74783 0.0
H1590 H 0.24316 0.81223 0.72964 0.0
H1591 H 0.24328 0.81516 0.76473 0.0
C1592 C 0.29213 0.81595 0.69891 0.0
C1593 C 0.30144 0.83238 0.712 0.0
C1594 C 0.27645 0.80211 0.70945 0.0
C1595 C 0.26972 0.80428 0.73342 0.0
C1596 C 0.27885 0.82076 0.74641 0.0
H1597 H 0.20092 0.7148 0.833 0.0
H1598 H 0.22524 0.74171 0.81383 0.0
C1599 C 0.29446 0.83473 0.73568 0.0
C1600 C 0.25393 0.78885 0.74555 0.0
H1601 H 0.21264 0.77489 0.77122 0.0
C1602 C 0.25435 0.77303 0.74911 0.0
C1603 C 0.23853 0.7894 0.75312 0.0
C1604 C 0.23674 0.80557 0.7484 0.0
C1605 C 0.23997 0.75787 0.76021 0.0
C1606 C 0.22488 0.75865 0.76884 0.0
C1607 C 0.2243 0.77436 0.76494 0.0
C1608 C 0.20961 0.74322 0.78181 0.0
C1609 C 0.24099 0.74106 0.76205 0.0
C1610 C 0.19245 0.73557 0.77102 0.0
C1611 C 0.17836 0.72025 0.78221 0.0
C1612 C 0.1812 0.71227 0.80439 0.0
C1613 C 0.19827 0.72041 0.81571 0.0
C1614 C 0.21225 0.73578 0.80469 0.0
H1615 H 0.25067 0.74108 0.74775 0.0
H1616 H 0.24546 0.74 0.7821 0.0
H1617 H 0.22783 0.72911 0.75838 0.0
H1618 H 0.19006 0.74115 0.75347 0.0
H1619 H 0.1654 0.71437 0.773 0.0
H1620 H 0.49032 0.29285 0.68004 0.0
H1621 H 0.4874 0.26578 0.69919 0.0
H1622 H 0.45893 0.27075 0.76514 0.0
H1623 H 0.4613 0.2976 0.74561 0.0
H1624 H 0.50111 0.26279 0.74358 0.0
H1625 H 0.4281 0.21889 0.74874 0.0
H1626 H 0.43837 0.23928 0.73009 0.0
H1627 H 0.43564 0.23974 0.76515 0.0
C1628 C 0.4832 0.28807 0.69845 0.0
C1629 C 0.47602 0.29741 0.71126 0.0
C1630 C 0.48156 0.27257 0.70939 0.0
C1631 C 0.47278 0.26605 0.7335 0.0
C1632 C 0.46537 0.2752 0.74621 0.0
H1633 H 0.49435 0.19786 0.83379 0.0
H1634 H 0.4916 0.22217 0.81482 0.0
C1635 C 0.46682 0.29064 0.73508 0.0
C1636 C 0.47262 0.25047 0.74604 0.0
H1637 H 0.4456 0.20933 0.77237 0.0
C1638 C 0.48893 0.25108 0.74975 0.0
C1639 C 0.45675 0.23507 0.75385 0.0
C1640 C 0.43871 0.23308 0.74903 0.0
C1641 C 0.48987 0.23686 0.76115 0.0
C1642 C 0.47408 0.22175 0.76994 0.0
C1643 C 0.45772 0.221 0.76596 0.0
C1644 C 0.47436 0.20653 0.78289 0.0
C1645 C 0.50777 0.23803 0.76307 0.0
C1646 C 0.46485 0.18938 0.77209 0.0
C1647 C 0.46616 0.17531 0.78317 0.0
C1648 C 0.47707 0.17815 0.80525 0.0
C1649 C 0.48601 0.19521 0.8166 0.0
C1650 C 0.48454 0.20919 0.80568 0.0
H1651 H 0.51739 0.24774 0.74875 0.0
H1652 H 0.51327 0.24256 0.78311 0.0
H1653 H 0.50667 0.22491 0.75946 0.0
H1654 H 0.45681 0.18697 0.7546 0.0
H1655 H 0.45907 0.16236 0.77392 0.0
H1656 H 0.209 0.49593 0.69271 0.0
H1657 H 0.23211 0.49143 0.71189 0.0
H1658 H 0.19238 0.44472 0.75219 0.0
H1659 H 0.16898 0.44928 0.73336 0.0
H1660 H 0.21953 0.46642 0.78471 0.0
H1661 H 0.24723 0.45574 0.69312 0.0
H1662 H 0.2464 0.47594 0.69195 0.0
H1663 H 0.22607 0.45492 0.69401 0.0
C1664 C 0.20505 0.48456 0.70542 0.0
C1665 C 0.18702 0.47292 0.71134 0.0
C1666 C 0.21835 0.48194 0.71626 0.0
C1667 C 0.214 0.46754 0.73308 0.0
C1668 C 0.19605 0.45585 0.73907 0.0
H1669 H 0.29933 0.44769 0.7845 0.0
H1670 H 0.27136 0.44338 0.76616 0.0
C1671 C 0.18268 0.45847 0.72826 0.0
C1672 C 0.22835 0.46539 0.74546 0.0
H1673 H 0.26608 0.464 0.73137 0.0
C1674 C 0.22957 0.46564 0.77304 0.0
C1675 C 0.24131 0.46405 0.73032 0.0
C1676 C 0.2401 0.46245 0.70072 0.0
C1677 C 0.24385 0.46549 0.78581 0.0
C1678 C 0.25748 0.46545 0.77059 0.0
C1679 C 0.25578 0.46428 0.74307 0.0
C1680 C 0.27402 0.46754 0.78272 0.0
C1681 C 0.24421 0.46545 0.81551 0.0
C1682 C 0.28492 0.48262 0.79795 0.0
C1683 C 0.30085 0.48509 0.80853 0.0
C1684 C 0.30642 0.47263 0.80391 0.0
C1685 C 0.29548 0.45753 0.78856 0.0
C1686 C 0.27948 0.45505 0.77803 0.0
H1687 H 0.23061 0.45962 0.82383 0.0
H1688 H 0.25044 0.45786 0.82308 0.0
H1689 H 0.25203 0.47934 0.82271 0.0
H1690 H 0.28128 0.4927 0.80127 0.0
H1691 H 0.30894 0.49698 0.81999 0.0
H1692 H 0.82269 0.30049 0.83231 0.0
H1693 H 0.79826 0.27346 0.81351 0.0
H1694 H 0.83202 0.27618 0.74934 0.0
H1695 H 0.85678 0.30296 0.76859 0.0
H1696 H 0.78199 0.26974 0.76875 0.0
H1697 H 0.80982 0.22466 0.76779 0.0
H1698 H 0.82022 0.24545 0.7855 0.0
H1699 H 0.82356 0.24505 0.75058 0.0
C1700 C 0.82503 0.29523 0.81438 0.0
C1701 C 0.84174 0.3039 0.80201 0.0
C1702 C 0.81101 0.27974 0.80362 0.0
C1703 C 0.81327 0.27258 0.78012 0.0
C1704 C 0.83 0.28111 0.76783 0.0
H1705 H 0.72337 0.2034 0.68017 0.0
H1706 H 0.75035 0.22796 0.69896 0.0
C1707 C 0.84415 0.29651 0.7788 0.0
C1708 C 0.79776 0.25694 0.76779 0.0
H1709 H 0.78311 0.2152 0.74331 0.0
C1710 C 0.78225 0.25779 0.76333 0.0
C1711 C 0.79794 0.24121 0.76095 0.0
C1712 C 0.81371 0.23892 0.76669 0.0
C1713 C 0.76702 0.24352 0.75212 0.0
C1714 C 0.76743 0.22809 0.74426 0.0
C1715 C 0.78285 0.22711 0.74898 0.0
C1716 C 0.75184 0.21274 0.73159 0.0
C1717 C 0.7505 0.245 0.74947 0.0
C1718 C 0.74415 0.19572 0.74284 0.0
C1719 C 0.72884 0.18151 0.73184 0.0
C1720 C 0.72087 0.18405 0.70939 0.0
C1721 C 0.72898 0.20098 0.69765 0.0
C1722 C 0.74438 0.2151 0.70848 0.0
H1723 H 0.75067 0.25499 0.76332 0.0
H1724 H 0.74976 0.24933 0.72919 0.0
H1725 H 0.73832 0.23204 0.75321 0.0
H1726 H 0.74972 0.19353 0.76057 0.0
H1727 H 0.72298 0.16866 0.7414 0.0
H1728 H 0.43851 0.10251 0.12373 0.0
H1729 H 0.42811 0.09648 0.07777 0.0
H1730 H 0.46685 0.15027 0.05681 0.0
H1731 H 0.47716 0.15639 0.1022 0.0
H1732 H 0.43237 0.13709 0.03283 0.0
H1733 H 0.45984 0.09163 0.02045 0.0
H1734 H 0.44424 0.08725 0.04665 0.0
H1735 H 0.46591 0.10662 0.04809 0.0
C1736 C 0.44453 0.11312 0.10939 0.0
C1737 C 0.45877 0.12988 0.11656 0.0
C1738 C 0.43867 0.10962 0.08314 0.0
C1739 C 0.44688 0.12287 0.06383 0.0
C1740 C 0.46036 0.13984 0.07134 0.0
H1741 H 0.47641 0.15642 0.91245 0.0
H1742 H 0.46561 0.15077 0.95757 0.0
C1743 C 0.46628 0.14329 0.09733 0.0
C1744 C 0.44267 0.11918 0.0354 0.0
H1745 H 0.45218 0.10129 0.98226 0.0
C1746 C 0.43627 0.1289 0.0218 0.0
C1747 C 0.4477 0.10843 0.02101 0.0
C1748 C 0.45489 0.0979 0.03462 0.0
C1749 C 0.43584 0.12906 0.99416 0.0
C1750 C 0.44224 0.11949 0.97977 0.0
C1751 C 0.44729 0.10863 0.99334 0.0
C1752 C 0.44669 0.12291 0.95136 0.0
C1753 C 0.42928 0.14014 0.98061 0.0
C1754 C 0.43965 0.10911 0.93269 0.0
C1755 C 0.4458 0.11235 0.90658 0.0
C1756 C 0.45937 0.12935 0.89902 0.0
C1757 C 0.46597 0.14317 0.91764 0.0
C1758 C 0.45969 0.14 0.94344 0.0
H1759 H 0.41938 0.14135 0.99294 0.0
H1760 H 0.44064 0.15372 0.97731 0.0
H1761 H 0.42317 0.13437 0.96124 0.0
H1762 H 0.42974 0.09577 0.93848 0.0
H1763 H 0.4406 0.1014 0.89273 0.0
H1764 H 0.33024 0.47572 0.91432 0.0
H1765 H 0.32544 0.46525 0.95964 0.0
H1766 H 0.33868 0.42515 0.93882 0.0
H1767 H 0.34363 0.43567 0.89295 0.0
H1768 H 0.30268 0.43027 0.98261 0.0
H1769 H 0.37513 0.45598 0.99745 0.0
H1770 H 0.36696 0.46287 0.9698 0.0
H1771 H 0.36405 0.44094 0.97055 0.0
C1772 C 0.33196 0.46453 0.9192 0.0
C1773 C 0.33749 0.45664 0.90002 0.0
C1774 C 0.32914 0.45852 0.94515 0.0
C1775 C 0.33189 0.44457 0.95266 0.0
C1776 C 0.33664 0.43606 0.93344 0.0
H1777 H 0.34473 0.43591 0.1237 0.0
H1778 H 0.33989 0.42566 0.07764 0.0
C1779 C 0.33935 0.44201 0.90724 0.0
C1780 C 0.33083 0.44005 0.98103 0.0
H1781 H 0.35726 0.44824 0.03504 0.0
C1782 C 0.31454 0.43378 0.99405 0.0
C1783 C 0.34629 0.44454 0.99591 0.0
C1784 C 0.36416 0.45153 0.9829 0.0
C1785 C 0.31348 0.43293 0.02164 0.0
C1786 C 0.32918 0.43881 0.0366 0.0
C1787 C 0.34523 0.44375 0.02355 0.0
C1788 C 0.32983 0.44279 0.06516 0.0
C1789 C 0.29567 0.42642 0.03456 0.0
C1790 C 0.32566 0.45567 0.07343 0.0
C1791 C 0.3285 0.46158 0.09944 0.0
C1792 C 0.3356 0.45476 0.1179 0.0
C1793 C 0.33908 0.44128 0.10998 0.0
C1794 C 0.33639 0.43547 0.08369 0.0
H1795 H 0.28471 0.41672 0.02178 0.0
H1796 H 0.29492 0.42009 0.05387 0.0
H1797 H 0.29354 0.43786 0.03782 0.0
H1798 H 0.32096 0.46182 0.05944 0.0
H1799 H 0.32566 0.47196 0.10489 0.0
H1800 H 0.86321 0.32596 0.91172 0.0
H1801 H 0.86913 0.32091 0.95683 0.0
H1802 H 0.92293 0.33612 0.93575 0.0
H1803 H 0.91708 0.34126 0.89008 0.0
H1804 H 0.88296 0.29882 0.97903 0.0
H1805 H 0.92664 0.37168 0.99523 0.0
H1806 H 0.91147 0.36317 0.96774 0.0
H1807 H 0.93113 0.36136 0.96783 0.0
C1808 C 0.87626 0.32803 0.9165 0.0
C1809 C 0.88973 0.33416 0.89734 0.0
C1810 C 0.8796 0.32507 0.94231 0.0
C1811 C 0.8965 0.32831 0.9497 0.0
C1812 C 0.90982 0.33367 0.93045 0.0
H1813 H 0.9171 0.34194 0.12062 0.0
H1814 H 0.92326 0.3374 0.07483 0.0
C1815 C 0.90643 0.33649 0.90437 0.0
C1816 C 0.90008 0.32722 0.978 0.0
H1817 H 0.91692 0.35346 0.0325 0.0
C1818 C 0.89075 0.31071 0.9907 0.0
C1819 C 0.91033 0.34272 0.99319 0.0
C1820 C 0.92046 0.3608 0.98049 0.0
C1821 C 0.89051 0.30943 0.01829 0.0
C1822 C 0.89952 0.32511 0.03356 0.0
C1823 C 0.90999 0.34145 0.0208 0.0
C1824 C 0.89587 0.32531 0.06211 0.0
C1825 C 0.88001 0.29136 0.03083 0.0
C1826 C 0.87845 0.31983 0.07022 0.0
C1827 C 0.87496 0.32247 0.0961 0.0
C1828 C 0.88879 0.33069 0.11457 0.0
C1829 C 0.90615 0.3354 0.10689 0.0
C1830 C 0.90969 0.33289 0.08074 0.0
H1831 H 0.87977 0.28089 0.01798 0.0
H1832 H 0.88558 0.2909 0.05031 0.0
H1833 H 0.86607 0.28822 0.03363 0.0
H1834 H 0.86762 0.31435 0.05617 0.0
H1835 H 0.86144 0.31871 0.10138 0.0
H1836 H 0.58379 0.91272 0.12287 0.0
H1837 H 0.59491 0.91918 0.0773 0.0
H1838 H 0.55982 0.86433 0.05638 0.0
H1839 H 0.54897 0.85781 0.1014 0.0
H1840 H 0.59323 0.87888 0.03225 0.0
H1841 H 0.56292 0.92187 0.01976 0.0
H1842 H 0.57921 0.92759 0.04536 0.0
H1843 H 0.5581 0.90757 0.04796 0.0
C1844 C 0.57881 0.90199 0.10865 0.0
C1845 C 0.56536 0.8848 0.11564 0.0
C1846 C 0.58504 0.90573 0.08259 0.0
C1847 C 0.57795 0.89229 0.06332 0.0
C1848 C 0.56544 0.87493 0.07083 0.0
H1849 H 0.54805 0.85856 0.9118 0.0
H1850 H 0.55892 0.86421 0.95699 0.0
C1851 C 0.5592 0.87124 0.09661 0.0
C1852 C 0.58208 0.89608 0.03487 0.0
H1853 H 0.57151 0.91308 0.98168 0.0
C1854 C 0.5889 0.88673 0.02123 0.0
C1855 C 0.57645 0.90635 0.02045 0.0
C1856 C 0.56866 0.91638 0.03396 0.0
C1857 C 0.58914 0.88642 0.99359 0.0
C1858 C 0.58225 0.89556 0.97922 0.0
C1859 C 0.57678 0.90607 0.99278 0.0
C1860 C 0.57784 0.89206 0.95081 0.0
C1861 C 0.59601 0.87563 0.97998 0.0
C1862 C 0.58494 0.90584 0.93216 0.0
C1863 C 0.5788 0.90259 0.90604 0.0
C1864 C 0.56518 0.88561 0.89844 0.0
C1865 C 0.55854 0.87179 0.91703 0.0
C1866 C 0.56483 0.87497 0.94286 0.0
H1867 H 0.60587 0.87441 0.99242 0.0
H1868 H 0.58476 0.86203 0.97624 0.0
H1869 H 0.60225 0.88164 0.96081 0.0
H1870 H 0.59485 0.91917 0.93798 0.0
H1871 H 0.58403 0.91355 0.89222 0.0
H1872 H 0.6789 0.57952 0.12293 0.0
H1873 H 0.68331 0.59051 0.07733 0.0
H1874 H 0.70151 0.55427 0.05572 0.0
H1875 H 0.6974 0.5435 0.1008 0.0
H1876 H 0.72097 0.58806 0.03165 0.0
H1877 H 0.64771 0.55861 0.02019 0.0
H1878 H 0.65862 0.5747 0.04594 0.0
H1879 H 0.65721 0.55341 0.04801 0.0
C1880 C 0.68424 0.57424 0.10855 0.0
C1881 C 0.68762 0.56051 0.11541 0.0
C1882 C 0.6866 0.58041 0.08248 0.0
C1883 C 0.69246 0.57299 0.06304 0.0
C1884 C 0.69693 0.56015 0.07034 0.0
H1885 H 0.69549 0.54341 0.91123 0.0
H1886 H 0.70093 0.55422 0.95642 0.0
C1887 C 0.6945 0.55396 0.09615 0.0
C1888 C 0.69267 0.57717 0.03464 0.0
H1889 H 0.66483 0.56702 0.98186 0.0
C1890 C 0.70875 0.58389 0.0208 0.0
C1891 C 0.67673 0.57175 0.02046 0.0
C1892 C 0.65903 0.56412 0.03424 0.0
C1893 C 0.70914 0.58424 0.99316 0.0
C1894 C 0.69304 0.57752 0.97899 0.0
C1895 C 0.67716 0.57216 0.99279 0.0
C1896 C 0.69191 0.57312 0.95056 0.0
C1897 C 0.72671 0.59105 0.97932 0.0
C1898 C 0.68506 0.58018 0.93209 0.0
C1899 C 0.68202 0.57405 0.90597 0.0
C1900 C 0.6854 0.56047 0.89819 0.0
C1901 C 0.69272 0.55386 0.9166 0.0
C1902 C 0.69597 0.56013 0.94243 0.0
H1903 H 0.73786 0.60093 0.99163 0.0
H1904 H 0.72902 0.57978 0.97557 0.0
H1905 H 0.72684 0.59725 0.96014 0.0
H1906 H 0.68165 0.59007 0.93806 0.0
H1907 H 0.6762 0.57927 0.89228 0.0
H1908 H 0.10606 0.67412 0.89388 0.0
H1909 H 0.10096 0.6797 0.93971 0.0
H1910 H 0.15575 0.69731 0.95812 0.0
H1911 H 0.16089 0.69182 0.9129 0.0
H1912 H 0.10592 0.66236 0.98318 0.0
H1913 H 0.14801 0.73503 0.99399 0.0
H1914 H 0.14071 0.72435 0.96227 0.0
H1915 H 0.15978 0.72551 0.97824 0.0
C1916 C 0.11709 0.67961 0.9076 0.0
C1917 C 0.13387 0.6825 0.89981 0.0
C1918 C 0.11415 0.68273 0.93375 0.0
C1919 C 0.12804 0.68916 0.95226 0.0
C1920 C 0.14493 0.69272 0.94412 0.0
H1921 H 0.16112 0.691 0.10331 0.0
H1922 H 0.15537 0.69555 0.0579 0.0
C1923 C 0.1478 0.68942 0.91826 0.0
C1924 C 0.12484 0.69032 0.98072 0.0
H1925 H 0.14325 0.71762 0.03381 0.0
C1926 C 0.11362 0.67454 0.99428 0.0
C1927 C 0.13488 0.70623 0.99514 0.0
C1928 C 0.14638 0.72377 0.9816 0.0
C1929 C 0.11345 0.67392 0.02195 0.0
C1930 C 0.1246 0.68956 0.03634 0.0
C1931 C 0.13475 0.70562 0.02277 0.0
C1932 C 0.12817 0.6889 0.06478 0.0
C1933 C 0.10246 0.65626 0.03552 0.0
C1934 C 0.11493 0.68419 0.08402 0.0
C1935 C 0.11822 0.68161 0.11026 0.0
C1936 C 0.13475 0.68359 0.11752 0.0
C1937 C 0.14819 0.6892 0.09838 0.0
C1938 C 0.14495 0.69187 0.07238 0.0
H1939 H 0.09597 0.64507 0.02132 0.0
H1940 H 0.1109 0.65361 0.04907 0.0
H1941 H 0.09195 0.65662 0.04744 0.0
H1942 H 0.10194 0.68202 0.07859 0.0
H1943 H 0.10759 0.67727 0.12453 0.0
H1944 H 0.91344 0.57931 0.62354 0.0
H1945 H 0.9199 0.59066 0.57809 0.0
H1946 H 0.86442 0.55822 0.55839 0.0
H1947 H 0.85797 0.54691 0.60324 0.0
H1948 H 0.91296 0.56801 0.53438 0.0
H1949 H 0.87752 0.60548 0.52293 0.0
H1950 H 0.88366 0.60089 0.55476 0.0
H1951 H 0.8638 0.58439 0.53845 0.0
C1952 C 0.90259 0.57503 0.60965 0.0
C1953 C 0.8852 0.56221 0.61691 0.0
C1954 C 0.9063 0.58146 0.5837 0.0
C1955 C 0.8926 0.57547 0.56492 0.0
C1956 C 0.87515 0.56334 0.57261 0.0
H1957 H 0.85826 0.54587 0.4147 0.0
H1958 H 0.86494 0.55706 0.45963 0.0
C1959 C 0.8715 0.55677 0.59825 0.0
C1960 C 0.8964 0.57987 0.53655 0.0
H1961 H 0.88058 0.59152 0.48317 0.0
C1962 C 0.9064 0.5737 0.52316 0.0
C1963 C 0.88784 0.58731 0.52197 0.0
C1964 C 0.87776 0.59506 0.53533 0.0
C1965 C 0.90663 0.57318 0.4955 0.0
C1966 C 0.89682 0.57928 0.48092 0.0
C1967 C 0.88806 0.58681 0.49434 0.0
C1968 C 0.8929 0.575 0.45253 0.0
C1969 C 0.91607 0.56471 0.48215 0.0
C1970 C 0.9063 0.58189 0.43324 0.0
C1971 C 0.90247 0.57551 0.40726 0.0
C1972 C 0.88523 0.56209 0.40037 0.0
C1973 C 0.87171 0.5561 0.41941 0.0
C1974 C 0.8755 0.56253 0.44513 0.0
H1975 H 0.92144 0.55893 0.49648 0.0
H1976 H 0.90688 0.55404 0.46855 0.0
H1977 H 0.92729 0.57486 0.47032 0.0
H1978 H 0.91979 0.5917 0.43849 0.0
H1979 H 0.91317 0.58034 0.39304 0.0
H1980 H 0.3427 0.90939 0.62512 0.0
H1981 H 0.33763 0.91585 0.57973 0.0
H1982 H 0.31543 0.86052 0.55964 0.0
H1983 H 0.32046 0.85407 0.60442 0.0
H1984 H 0.35357 0.90925 0.53574 0.0
H1985 H 0.2806 0.87312 0.5248 0.0
H1986 H 0.29145 0.8794 0.55654 0.0
H1987 H 0.2883 0.85963 0.54019 0.0
C1988 C 0.33629 0.89857 0.61115 0.0
C1989 C 0.33199 0.88123 0.61829 0.0
C1990 C 0.33347 0.90228 0.58525 0.0
C1991 C 0.32593 0.88862 0.56638 0.0
C1992 C 0.32091 0.87121 0.57393 0.0
H1993 H 0.3207 0.85469 0.41584 0.0
H1994 H 0.3164 0.86125 0.46091 0.0
C1995 C 0.32393 0.86756 0.59953 0.0
C1996 C 0.32519 0.89246 0.53807 0.0
H1997 H 0.29754 0.87657 0.48487 0.0
C1998 C 0.34128 0.90262 0.52459 0.0
C1999 C 0.30914 0.88381 0.52361 0.0
C2000 C 0.29138 0.87352 0.53709 0.0
C2001 C 0.34192 0.90292 0.49693 0.0
C2002 C 0.32599 0.89304 0.48244 0.0
C2003 C 0.30975 0.88411 0.49597 0.0
C2004 C 0.32627 0.88921 0.454 0.0
C2005 C 0.35977 0.91254 0.48346 0.0
C2006 C 0.33264 0.90265 0.43478 0.0
C2007 C 0.33508 0.89889 0.40872 0.0
C2008 C 0.33129 0.88168 0.40166 0.0
C2009 C 0.32391 0.86812 0.42066 0.0
C2010 C 0.32138 0.87184 0.44647 0.0
H2011 H 0.37098 0.91794 0.49771 0.0
H2012 H 0.3613 0.90346 0.4697 0.0
H2013 H 0.36071 0.92377 0.47179 0.0
H2014 H 0.33628 0.91611 0.44013 0.0
H2015 H 0.34083 0.90962 0.39453 0.0
H2016 H 0.43994 0.33874 0.62421 0.0
H2017 H 0.42832 0.33374 0.57888 0.0
H2018 H 0.46067 0.31068 0.55878 0.0
H2019 H 0.47226 0.31567 0.60351 0.0
H2020 H 0.45084 0.34937 0.53486 0.0
H2021 H 0.41305 0.27641 0.52396 0.0
H2022 H 0.41781 0.28727 0.55571 0.0
H2023 H 0.4342 0.28379 0.53934 0.0
C2024 C 0.44415 0.33216 0.61026 0.0
C2025 C 0.45701 0.32761 0.61737 0.0
C2026 C 0.43756 0.32937 0.58439 0.0
C2027 C 0.44345 0.32162 0.56553 0.0
C2028 C 0.45564 0.31633 0.57307 0.0
H2029 H 0.47201 0.31595 0.4153 0.0
H2030 H 0.46098 0.31169 0.46027 0.0
C2031 C 0.46237 0.31932 0.59864 0.0
C2032 C 0.43887 0.32094 0.53721 0.0
H2033 H 0.42673 0.29326 0.48403 0.0
C2034 C 0.44502 0.33707 0.52373 0.0
C2035 C 0.43126 0.30489 0.52275 0.0
C2036 C 0.42354 0.2871 0.53625 0.0
C2037 C 0.44536 0.33771 0.49606 0.0
C2038 C 0.43909 0.32174 0.48158 0.0
C2039 C 0.43157 0.30549 0.49512 0.0
C2040 C 0.44324 0.32196 0.45316 0.0
C2041 C 0.45383 0.35557 0.48259 0.0
C2042 C 0.43641 0.32853 0.43386 0.0
C2043 C 0.4427 0.33095 0.40785 0.0
C2044 C 0.45598 0.32693 0.40096 0.0
C2045 C 0.46189 0.31933 0.42002 0.0
C2046 C 0.45556 0.31683 0.44576 0.0
H2047 H 0.45975 0.36678 0.49683 0.0
H2048 H 0.4644 0.35694 0.46889 0.0
H2049 H 0.44366 0.35668 0.47085 0.0
H2050 H 0.42672 0.33238 0.43911 0.0
H2051 H 0.43794 0.33688 0.39361 0.0
H2052 H 0.16544 0.47341 0.60121 0.0
H2053 H 0.15868 0.46261 0.55609 0.0
H2054 H 0.10442 0.42608 0.57796 0.0
H2055 H 0.1111 0.43698 0.62363 0.0
H2056 H 0.1437 0.42756 0.53292 0.0
H2057 H 0.10128 0.45846 0.51993 0.0
H2058 H 0.11635 0.46413 0.54739 0.0
H2059 H 0.09628 0.44298 0.54651 0.0
C2060 C 0.1521 0.4629 0.59661 0.0
C2061 C 0.13876 0.45617 0.61599 0.0
C2062 C 0.14828 0.45669 0.57078 0.0
C2063 C 0.13101 0.44371 0.56358 0.0
C2064 C 0.1178 0.43625 0.58308 0.0
H2065 H 0.10877 0.43766 0.39295 0.0
H2066 H 0.10294 0.42689 0.43873 0.0
C2067 C 0.12167 0.44239 0.60917 0.0
C2068 C 0.12701 0.4393 0.53525 0.0
H2069 H 0.10998 0.44965 0.48192 0.0
C2070 C 0.13595 0.43197 0.5218 0.0
C2071 C 0.11684 0.44498 0.52076 0.0
C2072 C 0.10715 0.45316 0.53421 0.0
C2073 C 0.13591 0.43122 0.49418 0.0
C2074 C 0.12696 0.43826 0.47963 0.0
C2075 C 0.11685 0.44427 0.4931 0.0
C2076 C 0.13039 0.44236 0.45111 0.0
C2077 C 0.14611 0.42359 0.48079 0.0
C2078 C 0.14771 0.45446 0.44287 0.0
C2079 C 0.15102 0.46067 0.41703 0.0
C2080 C 0.13707 0.45493 0.39871 0.0
C2081 C 0.1198 0.44217 0.40656 0.0
C2082 C 0.11645 0.43608 0.4327 0.0
H2083 H 0.14657 0.41333 0.49328 0.0
H2084 H 0.14013 0.4176 0.46146 0.0
H2085 H 0.15999 0.43436 0.47747 0.0
H2086 H 0.15863 0.45982 0.45679 0.0
H2087 H 0.16447 0.47049 0.41161 0.0
H2088 H 0.68041 0.10555 0.39133 0.0
H2089 H 0.68497 0.0994 0.43714 0.0
H2090 H 0.70435 0.1543 0.45721 0.0
H2091 H 0.70003 0.16051 0.41197 0.0
H2092 H 0.72376 0.13954 0.48107 0.0
H2093 H 0.65053 0.09755 0.49522 0.0
H2094 H 0.66069 0.09172 0.46916 0.0
H2095 H 0.65984 0.11189 0.46701 0.0
C2096 C 0.68601 0.11635 0.40543 0.0
C2097 C 0.6897 0.13348 0.39809 0.0
C2098 C 0.68847 0.11279 0.43161 0.0
C2099 C 0.69475 0.12635 0.45067 0.0
C2100 C 0.69944 0.14362 0.4429 0.0
H2101 H 0.70141 0.16149 0.60196 0.0
H2102 H 0.70596 0.1553 0.55675 0.0
C2103 C 0.69689 0.14714 0.41699 0.0
C2104 C 0.69533 0.12277 0.47915 0.0
H2105 H 0.66831 0.10649 0.53296 0.0
C2106 C 0.71168 0.13194 0.49239 0.0
C2107 C 0.67957 0.11281 0.49393 0.0
C2108 C 0.6616 0.10296 0.48078 0.0
C2109 C 0.71256 0.13235 0.52001 0.0
C2110 C 0.69667 0.12355 0.53478 0.0
C2111 C 0.68048 0.11322 0.52159 0.0
C2112 C 0.69619 0.1273 0.56321 0.0
C2113 C 0.73043 0.14286 0.53318 0.0
C2114 C 0.68926 0.11362 0.58204 0.0
C2115 C 0.68675 0.11718 0.60818 0.0
C2116 C 0.69076 0.1344 0.61561 0.0
C2117 C 0.69821 0.1481 0.59685 0.0
C2118 C 0.70093 0.1446 0.571 0.0
H2119 H 0.7412 0.14359 0.52053 0.0
H2120 H 0.73323 0.15664 0.53665 0.0
H2121 H 0.73069 0.13695 0.55244 0.0
H2122 H 0.68533 0.10013 0.57635 0.0
H2123 H 0.6808 0.10633 0.62215 0.0
H2124 H 0.5834 0.67714 0.39109 0.0
H2125 H 0.59405 0.68205 0.43696 0.0
H2126 H 0.55642 0.69876 0.45701 0.0
H2127 H 0.54587 0.69403 0.41172 0.0
H2128 H 0.59111 0.71973 0.48053 0.0
H2129 H 0.56194 0.64675 0.49531 0.0
H2130 H 0.57755 0.65731 0.4689 0.0
H2131 H 0.55611 0.65554 0.46726 0.0
C2132 C 0.5777 0.68222 0.4052 0.0
C2133 C 0.56368 0.68504 0.39785 0.0
C2134 C 0.58369 0.68489 0.43141 0.0
C2135 C 0.57585 0.69055 0.45045 0.0
C2136 C 0.56263 0.69435 0.44269 0.0
H2137 H 0.5469 0.69771 0.60091 0.0
H2138 H 0.55794 0.70224 0.55593 0.0
C2139 C 0.55657 0.69157 0.41677 0.0
C2140 C 0.58012 0.69137 0.4789 0.0
H2141 H 0.56988 0.66462 0.53294 0.0
C2142 C 0.58691 0.70774 0.49198 0.0
C2143 C 0.57469 0.67573 0.49382 0.0
C2144 C 0.56709 0.65778 0.48079 0.0
C2145 C 0.58732 0.70872 0.51959 0.0
C2146 C 0.5805 0.6929 0.5345 0.0
C2147 C 0.57508 0.67673 0.52147 0.0
C2148 C 0.57606 0.69239 0.56284 0.0
C2149 C 0.59433 0.72661 0.53255 0.0
C2150 C 0.5826 0.68536 0.58187 0.0
C2151 C 0.57631 0.6828 0.60788 0.0
C2152 C 0.5631 0.68687 0.61501 0.0
C2153 C 0.55707 0.69443 0.59607 0.0
C2154 C 0.56348 0.69716 0.57034 0.0
H2155 H 0.60449 0.73738 0.52004 0.0
H2156 H 0.58323 0.72931 0.53534 0.0
H2157 H 0.60025 0.72702 0.5521 0.0
H2158 H 0.59217 0.6814 0.57642 0.0
H2159 H 0.58107 0.67678 0.62198 0.0
H2160 H 0.51309 0.11937 0.19408 0.0
H2161 H 0.54086 0.12117 0.20841 0.0
H2162 H 0.54259 0.15222 0.27581 0.0
H2163 H 0.51472 0.15051 0.26127 0.0
H2164 H 0.57541 0.16613 0.24639 0.0
H2165 H 0.54685 0.0949 0.27214 0.0
H2166 H 0.54129 0.09902 0.23981 0.0
H2167 H 0.53337 0.1052 0.26828 0.0
C2168 C 0.5195 0.12668 0.21185 0.0
C2169 C 0.51217 0.13524 0.22625 0.0
C2170 C 0.53522 0.12754 0.22015 0.0
C2171 C 0.5437 0.13674 0.24322 0.0
C2172 C 0.53622 0.14507 0.25791 0.0
H2173 H 0.62559 0.1278 0.32601 0.0
H2174 H 0.59919 0.12894 0.31259 0.0
C2175 C 0.52038 0.1441 0.24967 0.0
C2176 C 0.5605 0.13781 0.25174 0.0
H2177 H 0.57823 0.11252 0.27192 0.0
C2178 C 0.57607 0.15444 0.252 0.0
C2179 C 0.56125 0.12254 0.25922 0.0
C2180 C 0.54479 0.1044 0.26011 0.0
C2181 C 0.59248 0.15621 0.25928 0.0
C2182 C 0.59332 0.1409 0.2665 0.0
C2183 C 0.57765 0.12427 0.26636 0.0
C2184 C 0.61008 0.14175 0.27521 0.0
C2185 C 0.60862 0.1745 0.25967 0.0
C2186 C 0.6251 0.14864 0.25878 0.0
C2187 C 0.6404 0.14834 0.26678 0.0
C2188 C 0.64091 0.14123 0.29135 0.0
C2189 C 0.6258 0.13406 0.30748 0.0
C2190 C 0.61063 0.13451 0.29966 0.0
H2191 H 0.60498 0.18506 0.26085 0.0
H2192 H 0.61721 0.17592 0.27661 0.0
H2193 H 0.61635 0.17659 0.24134 0.0
H2194 H 0.62485 0.15381 0.2395 0.0
H2195 H 0.65175 0.15349 0.25371 0.0
H2196 H 0.51164 0.6191 0.31752 0.0
H2197 H 0.48473 0.59244 0.30318 0.0
H2198 H 0.47528 0.62363 0.24598 0.0
H2199 H 0.50343 0.64991 0.25852 0.0
H2200 H 0.45326 0.5818 0.3054 0.0
H2201 H 0.46674 0.58545 0.1987 0.0
H2202 H 0.48319 0.60042 0.22166 0.0
H2203 H 0.46625 0.60482 0.20933 0.0
C2204 C 0.50385 0.62013 0.30166 0.0
C2205 C 0.50936 0.63646 0.28923 0.0
C2206 C 0.48841 0.60491 0.2935 0.0
C2207 C 0.47792 0.60576 0.27308 0.0
C2208 C 0.48337 0.62229 0.26099 0.0
H2209 H 0.36938 0.51388 0.25815 0.0
H2210 H 0.39519 0.54226 0.2711 0.0
C2211 C 0.49929 0.6374 0.26841 0.0
C2212 C 0.46121 0.58936 0.2651 0.0
H2213 H 0.43743 0.56492 0.21212 0.0
C2214 C 0.44989 0.57812 0.28495 0.0
C2215 C 0.4568 0.58415 0.23846 0.0
C2216 C 0.469 0.59425 0.21589 0.0
C2217 C 0.43459 0.56187 0.27909 0.0
C2218 C 0.42966 0.55714 0.25242 0.0
C2219 C 0.44086 0.56851 0.23258 0.0
C2220 C 0.41357 0.54015 0.24441 0.0
C2221 C 0.42458 0.5497 0.30173 0.0
C2222 C 0.41483 0.52983 0.22409 0.0
C2223 C 0.39986 0.51427 0.21565 0.0
C2224 C 0.38336 0.50844 0.22771 0.0
C2225 C 0.38203 0.51827 0.24853 0.0
C2226 C 0.39687 0.53433 0.25621 0.0
H2227 H 0.43336 0.5523 0.31906 0.0
H2228 H 0.41376 0.55216 0.30798 0.0
H2229 H 0.41876 0.53551 0.29621 0.0
H2230 H 0.42744 0.53377 0.21466 0.0
H2231 H 0.4012 0.50667 0.1998 0.0
H2232 H 0.85853 0.49738 0.26598 0.0
H2233 H 0.85736 0.46975 0.25243 0.0
H2234 H 0.89771 0.47902 0.31007 0.0
H2235 H 0.89704 0.50526 0.32565 0.0
H2236 H 0.87885 0.46438 0.22991 0.0
H2237 H 0.86902 0.42926 0.32425 0.0
H2238 H 0.86926 0.45 0.32236 0.0
H2239 H 0.88978 0.44972 0.32477 0.0
C2240 C 0.86665 0.49307 0.27624 0.0
C2241 C 0.87744 0.50302 0.2973 0.0
C2242 C 0.86616 0.47739 0.26838 0.0
C2243 C 0.8772 0.47186 0.28048 0.0
C2244 C 0.88842 0.48228 0.30108 0.0
H2245 H 0.90009 0.39816 0.19262 0.0
H2246 H 0.89993 0.42451 0.20891 0.0
C2247 C 0.88819 0.49743 0.30984 0.0
C2248 C 0.8778 0.45602 0.27014 0.0
H2249 H 0.87882 0.41863 0.28804 0.0
C2250 C 0.87845 0.4542 0.24273 0.0
C2251 C 0.87765 0.44273 0.28657 0.0
C2252 C 0.87623 0.44295 0.31611 0.0
C2253 C 0.8785 0.4395 0.23132 0.0
C2254 C 0.87865 0.42636 0.24776 0.0
C2255 C 0.87844 0.42841 0.27519 0.0
C2256 C 0.87885 0.41031 0.23738 0.0
C2257 C 0.87799 0.43833 0.20171 0.0
C2258 C 0.86789 0.39349 0.2488 0.0
C2259 C 0.8689 0.37863 0.24065 0.0
C2260 C 0.88013 0.38007 0.21988 0.0
C2261 C 0.8909 0.39668 0.20815 0.0
C2262 C 0.89065 0.41173 0.21729 0.0
H2263 H 0.87054 0.44446 0.19315 0.0
H2264 H 0.89176 0.44573 0.19396 0.0
H2265 H 0.87171 0.42445 0.19493 0.0
H2266 H 0.85868 0.39185 0.26436 0.0
H2267 H 0.86078 0.36599 0.25034 0.0
H2268 H 0.5014 0.85647 0.25061 0.0
H2269 H 0.47337 0.85435 0.26428 0.0
H2270 H 0.48204 0.89546 0.20848 0.0
H2271 H 0.50867 0.8957 0.19261 0.0
H2272 H 0.46692 0.87476 0.28772 0.0
H2273 H 0.43263 0.86599 0.19284 0.0
H2274 H 0.45376 0.86705 0.19474 0.0
H2275 H 0.45264 0.88716 0.19339 0.0
C2276 C 0.49688 0.86456 0.24076 0.0
C2277 C 0.50675 0.8758 0.22007 0.0
C2278 C 0.48097 0.86352 0.24871 0.0
C2279 C 0.47514 0.87447 0.23711 0.0
C2280 C 0.48554 0.88621 0.21701 0.0
H2281 H 0.39899 0.89353 0.32512 0.0
H2282 H 0.42579 0.8941 0.30927 0.0
C2283 C 0.50091 0.88651 0.2081 0.0
C2284 C 0.45893 0.87436 0.24743 0.0
H2285 H 0.42116 0.8746 0.22944 0.0
C2286 C 0.45676 0.87434 0.27485 0.0
C2287 C 0.44563 0.87415 0.23094 0.0
C2288 C 0.44622 0.87344 0.20135 0.0
C2289 C 0.44172 0.87371 0.28619 0.0
C2290 C 0.42857 0.87382 0.26971 0.0
C2291 C 0.43095 0.87425 0.2423 0.0
C2292 C 0.41222 0.87339 0.28002 0.0
C2293 C 0.44019 0.87252 0.31575 0.0
C2294 C 0.39558 0.86232 0.26812 0.0
C2295 C 0.38045 0.86288 0.2761 0.0
C2296 C 0.38144 0.87378 0.2971 0.0
C2297 C 0.39787 0.8846 0.30937 0.0
C2298 C 0.41317 0.88477 0.30047 0.0
H2299 H 0.44655 0.86522 0.324 0.0
H2300 H 0.44715 0.88613 0.32419 0.0
H2301 H 0.4262 0.86575 0.32211 0.0
H2302 H 0.3943 0.85341 0.25228 0.0
H2303 H 0.36795 0.8547 0.26603 0.0
H2304 H 0.65208 0.49751 0.2512 0.0
H2305 H 0.62613 0.4696 0.26507 0.0
H2306 H 0.59358 0.47867 0.20995 0.0
H2307 H 0.62001 0.50512 0.19376 0.0
H2308 H 0.59943 0.46298 0.28881 0.0
H2309 H 0.57339 0.42939 0.19361 0.0
H2310 H 0.59338 0.45057 0.19551 0.0
H2311 H 0.57209 0.44932 0.19481 0.0
C2312 C 0.63943 0.49311 0.24154 0.0
C2313 C 0.63805 0.50301 0.22088 0.0
C2314 C 0.62453 0.47726 0.24961 0.0
C2315 C 0.60771 0.47154 0.23822 0.0
C2316 C 0.60634 0.48205 0.21828 0.0
H2317 H 0.51272 0.39477 0.32599 0.0
H2318 H 0.53903 0.42165 0.31057 0.0
C2319 C 0.62144 0.49732 0.2092 0.0
C2320 C 0.59163 0.45529 0.24848 0.0
H2321 H 0.55353 0.41762 0.2304 0.0
C2322 C 0.58962 0.45291 0.27589 0.0
C2323 C 0.57843 0.4421 0.23195 0.0
C2324 C 0.57953 0.44292 0.20234 0.0
C2325 C 0.57529 0.43777 0.28717 0.0
C2326 C 0.56196 0.42473 0.27065 0.0
C2327 C 0.56374 0.42732 0.24327 0.0
C2328 C 0.5461 0.40829 0.2809 0.0
C2329 C 0.5751 0.43599 0.31668 0.0
C2330 C 0.54052 0.39174 0.26871 0.0
C2331 C 0.52482 0.37656 0.27651 0.0
C2332 C 0.51489 0.37742 0.29756 0.0
C2333 C 0.52053 0.39374 0.31018 0.0
C2334 C 0.53571 0.4091 0.30151 0.0
H2335 H 0.58881 0.4424 0.3248 0.0
H2336 H 0.56837 0.44276 0.3255 0.0
H2337 H 0.56804 0.42194 0.32275 0.0
H2338 H 0.54814 0.39058 0.25275 0.0
H2339 H 0.52048 0.36415 0.26619 0.0
H2340 H 0.12276 0.61746 0.19413 0.0
H2341 H 0.12445 0.59141 0.20844 0.0
H2342 H 0.1549 0.62044 0.27645 0.0
H2343 H 0.15329 0.64665 0.26196 0.0
H2344 H 0.16917 0.60182 0.24704 0.0
H2345 H 0.09782 0.55876 0.27172 0.0
H2346 H 0.10217 0.56863 0.23952 0.0
H2347 H 0.10804 0.58256 0.26818 0.0
C2348 C 0.12991 0.61827 0.21204 0.0
C2349 C 0.13835 0.6341 0.22663 0.0
C2350 C 0.1307 0.60336 0.22032 0.0
C2351 C 0.13972 0.60399 0.24355 0.0
C2352 C 0.1479 0.61973 0.25844 0.0
H2353 H 0.13116 0.51353 0.32682 0.0
H2354 H 0.1321 0.54094 0.31319 0.0
C2355 C 0.14699 0.63463 0.25022 0.0
C2356 C 0.14083 0.58827 0.25202 0.0
H2357 H 0.11565 0.54522 0.27208 0.0
C2358 C 0.1575 0.58943 0.25253 0.0
C2359 C 0.12557 0.5722 0.25934 0.0
C2360 C 0.10738 0.57041 0.25991 0.0
C2361 C 0.15934 0.57487 0.25995 0.0
C2362 C 0.14406 0.55868 0.26704 0.0
C2363 C 0.12737 0.5576 0.26663 0.0
C2364 C 0.145 0.54285 0.27589 0.0
C2365 C 0.17768 0.57715 0.26068 0.0
C2366 C 0.15202 0.53477 0.25958 0.0
C2367 C 0.15184 0.51926 0.2677 0.0
C2368 C 0.14471 0.51167 0.29227 0.0
C2369 C 0.13744 0.51957 0.3083 0.0
C2370 C 0.13776 0.5351 0.30035 0.0
H2371 H 0.18817 0.59137 0.26177 0.0
H2372 H 0.17907 0.57011 0.2778 0.0
H2373 H 0.1799 0.57142 0.24252 0.0
H2374 H 0.1572 0.54017 0.2403 0.0
H2375 H 0.15706 0.51308 0.25471 0.0
H2376 H 0.50857 0.86579 0.7549 0.0
H2377 H 0.48055 0.8637 0.74033 0.0
H2378 H 0.48172 0.89441 0.80784 0.0
H2379 H 0.50967 0.89659 0.82221 0.0
H2380 H 0.44767 0.84929 0.76928 0.0
H2381 H 0.4753 0.92053 0.74442 0.0
H2382 H 0.4891 0.91058 0.74839 0.0
H2383 H 0.48074 0.91636 0.77679 0.0
C2384 C 0.50276 0.87204 0.76653 0.0
C2385 C 0.51087 0.8809 0.79 0.0
C2386 C 0.48682 0.87085 0.75826 0.0
C2387 C 0.47913 0.87897 0.77296 0.0
C2388 C 0.48752 0.8882 0.79608 0.0
H2389 H 0.37043 0.86023 0.76122 0.0
H2390 H 0.3975 0.86029 0.7755 0.0
C2391 C 0.50334 0.88926 0.80441 0.0
C2392 C 0.46222 0.87765 0.76435 0.0
H2393 H 0.44397 0.90246 0.74404 0.0
C2394 C 0.44683 0.86088 0.76372 0.0
C2395 C 0.46122 0.89281 0.75694 0.0
C2396 C 0.47748 0.91109 0.75641 0.0
C2397 C 0.43037 0.85884 0.75608 0.0
C2398 C 0.42927 0.87402 0.74897 0.0
C2399 C 0.44476 0.8908 0.74951 0.0
C2400 C 0.41241 0.87291 0.74011 0.0
C2401 C 0.41445 0.8404 0.75521 0.0
C2402 C 0.41186 0.88032 0.71582 0.0
C2403 C 0.39657 0.88054 0.70796 0.0
C2404 C 0.38136 0.87298 0.72389 0.0
C2405 C 0.38186 0.86566 0.74828 0.0
C2406 C 0.39726 0.8656 0.75633 0.0
H2407 H 0.41839 0.83006 0.75379 0.0
H2408 H 0.40658 0.83795 0.77349 0.0
H2409 H 0.40588 0.83896 0.73823 0.0
H2410 H 0.42338 0.88622 0.70306 0.0
H2411 H 0.39678 0.88698 0.68959 0.0
H2412 H 0.64994 0.50434 0.7539 0.0
H2413 H 0.62414 0.47633 0.73893 0.0
H2414 H 0.59417 0.47713 0.80606 0.0
H2415 H 0.61978 0.50507 0.8208 0.0
H2416 H 0.60557 0.44333 0.76724 0.0
H2417 H 0.56199 0.471 0.74249 0.0
H2418 H 0.58569 0.48482 0.74691 0.0
H2419 H 0.57133 0.47623 0.77504 0.0
C2420 C 0.63781 0.49844 0.76536 0.0
C2421 C 0.63688 0.50645 0.78881 0.0
C2422 C 0.62314 0.48251 0.75687 0.0
C2423 C 0.60724 0.47473 0.77134 0.0
C2424 C 0.60624 0.483 0.79447 0.0
H2425 H 0.51734 0.36619 0.7595 0.0
H2426 H 0.54449 0.39321 0.77353 0.0
C2427 C 0.6209 0.49881 0.80301 0.0
C2428 C 0.59172 0.45786 0.76249 0.0
H2429 H 0.54866 0.43964 0.7422 0.0
C2430 C 0.59313 0.44249 0.7617 0.0
C2431 C 0.57556 0.45687 0.7551 0.0
C2432 C 0.57351 0.47312 0.75467 0.0
C2433 C 0.57873 0.42605 0.75397 0.0
C2434 C 0.56243 0.42495 0.74696 0.0
C2435 C 0.56111 0.44042 0.7476 0.0
C2436 C 0.54665 0.4081 0.73816 0.0
C2437 C 0.58127 0.41014 0.75288 0.0
C2438 C 0.53859 0.40756 0.71396 0.0
C2439 C 0.523 0.39232 0.70625 0.0
C2440 C 0.51537 0.37712 0.72223 0.0
C2441 C 0.52331 0.3776 0.74652 0.0
C2442 C 0.53886 0.39297 0.75442 0.0
H2443 H 0.59554 0.4141 0.75151 0.0
H2444 H 0.5758 0.40215 0.77105 0.0
H2445 H 0.57418 0.40168 0.73578 0.0
H2446 H 0.54419 0.41908 0.70118 0.0
H2447 H 0.51669 0.39254 0.68797 0.0
H2448 H 0.15365 0.6464 0.75555 0.0
H2449 H 0.15572 0.62048 0.74078 0.0
H2450 H 0.12485 0.59073 0.80797 0.0
H2451 H 0.12271 0.61648 0.82254 0.0
H2452 H 0.17001 0.60185 0.76993 0.0
H2453 H 0.09888 0.55849 0.74407 0.0
H2454 H 0.10888 0.58224 0.74814 0.0
H2455 H 0.10293 0.56804 0.77649 0.0
C2456 C 0.14736 0.63429 0.76706 0.0
C2457 C 0.13846 0.63347 0.79049 0.0
C2458 C 0.14854 0.61955 0.75868 0.0
C2459 C 0.14036 0.60369 0.77325 0.0
C2460 C 0.1311 0.60278 0.79633 0.0
H2461 H 0.15882 0.51351 0.76101 0.0
H2462 H 0.15868 0.54041 0.77572 0.0
C2463 C 0.13005 0.61752 0.80477 0.0
C2464 C 0.14168 0.58812 0.76457 0.0
H2465 H 0.1169 0.54517 0.74382 0.0
C2466 C 0.15843 0.58944 0.76419 0.0
C2467 C 0.12654 0.57202 0.75694 0.0
C2468 C 0.10829 0.57007 0.75617 0.0
C2469 C 0.16046 0.57502 0.7566 0.0
C2470 C 0.1453 0.5588 0.74921 0.0
C2471 C 0.12854 0.55756 0.7495 0.0
C2472 C 0.14642 0.54309 0.74018 0.0
C2473 C 0.17888 0.57747 0.75605 0.0
C2474 C 0.13923 0.53539 0.71565 0.0
C2475 C 0.13905 0.51996 0.70754 0.0
C2476 C 0.14644 0.51211 0.72346 0.0
C2477 C 0.15352 0.51965 0.7481 0.0
C2478 C 0.15354 0.53506 0.75639 0.0
H2479 H 0.18927 0.59172 0.755 0.0
H2480 H 0.18112 0.57182 0.77427 0.0
H2481 H 0.18041 0.57046 0.73898 0.0
H2482 H 0.13349 0.54119 0.70289 0.0
H2483 H 0.13281 0.51395 0.68897 0.0
H2484 H 0.65573 0.16025 0.75415 0.0
H2485 H 0.62946 0.16192 0.76732 0.0
H2486 H 0.59793 0.12112 0.71048 0.0
H2487 H 0.62456 0.12102 0.69555 0.0
H2488 H 0.58695 0.14183 0.70909 0.0
H2489 H 0.59206 0.1317 0.81536 0.0
H2490 H 0.61115 0.15171 0.80448 0.0
H2491 H 0.60683 0.13049 0.79177 0.0
C2492 C 0.64316 0.15182 0.74443 0.0
C2493 C 0.6421 0.14078 0.72358 0.0
C2494 C 0.62806 0.15252 0.75223 0.0
C2495 C 0.61143 0.1413 0.74048 0.0
C2496 C 0.61048 0.13 0.71992 0.0
H2497 H 0.51264 0.11695 0.81659 0.0
H2498 H 0.53991 0.1185 0.80094 0.0
C2499 C 0.62568 0.12987 0.71141 0.0
C2500 C 0.59502 0.14135 0.74908 0.0
H2501 H 0.57103 0.14008 0.80298 0.0
C2502 C 0.58347 0.14136 0.72967 0.0
C2503 C 0.5901 0.14036 0.7759 0.0
C2504 C 0.6006 0.13835 0.798 0.0
C2505 C 0.56717 0.14011 0.73613 0.0
C2506 C 0.5627 0.14009 0.76299 0.0
C2507 C 0.5744 0.14037 0.78239 0.0
C2508 C 0.54568 0.13886 0.77163 0.0
C2509 C 0.55466 0.13786 0.71391 0.0
C2510 C 0.53949 0.14959 0.7604 0.0
C2511 C 0.52336 0.14801 0.76855 0.0
C2512 C 0.51381 0.13659 0.78928 0.0
C2513 C 0.52003 0.12609 0.80083 0.0
C2514 C 0.53567 0.12705 0.79192 0.0
H2515 H 0.55719 0.13188 0.69628 0.0
H2516 H 0.54056 0.12928 0.71971 0.0
H2517 H 0.55682 0.15109 0.70801 0.0
H2518 H 0.54716 0.15936 0.74556 0.0
H2519 H 0.51867 0.15614 0.75931 0.0
H2520 H 0.37218 0.51085 0.75411 0.0
H2521 H 0.39802 0.53869 0.73883 0.0
H2522 H 0.42801 0.5383 0.80628 0.0
H2523 H 0.40235 0.51055 0.82136 0.0
H2524 H 0.4166 0.57186 0.76733 0.0
H2525 H 0.46018 0.54418 0.74259 0.0
H2526 H 0.43646 0.53038 0.74675 0.0
H2527 H 0.45071 0.5389 0.77504 0.0
C2528 C 0.38433 0.51679 0.76555 0.0
C2529 C 0.38524 0.50896 0.78921 0.0
C2530 C 0.39902 0.53262 0.75689 0.0
C2531 C 0.41493 0.54048 0.77139 0.0
C2532 C 0.41593 0.53237 0.79468 0.0
H2533 H 0.50486 0.64906 0.759 0.0
H2534 H 0.47792 0.62201 0.77349 0.0
C2535 C 0.40124 0.51666 0.8034 0.0
C2536 C 0.43044 0.55732 0.76248 0.0
H2537 H 0.47344 0.57553 0.74204 0.0
C2538 C 0.42904 0.5727 0.76177 0.0
C2539 C 0.44657 0.55831 0.75506 0.0
C2540 C 0.44862 0.54205 0.75464 0.0
C2541 C 0.44343 0.58914 0.7541 0.0
C2542 C 0.4597 0.59023 0.74697 0.0
C2543 C 0.46101 0.57475 0.74753 0.0
C2544 C 0.47541 0.60707 0.73801 0.0
C2545 C 0.44091 0.60506 0.75319 0.0
C2546 C 0.48321 0.60758 0.7136 0.0
C2547 C 0.49866 0.62285 0.70561 0.0
C2548 C 0.50643 0.63808 0.72155 0.0
C2549 C 0.49878 0.63761 0.74607 0.0
C2550 C 0.48335 0.62222 0.75424 0.0
H2551 H 0.44656 0.6131 0.7713 0.0
H2552 H 0.44787 0.61347 0.73601 0.0
H2553 H 0.42664 0.60115 0.75208 0.0
H2554 H 0.47747 0.59604 0.70083 0.0
H2555 H 0.50475 0.62262 0.68712 0.0
H2556 H 0.86899 0.36974 0.75323 0.0
H2557 H 0.86684 0.39561 0.73855 0.0
H2558 H 0.89777 0.4254 0.80578 0.0
H2559 H 0.90003 0.3997 0.82023 0.0
H2560 H 0.85254 0.4142 0.76724 0.0
H2561 H 0.92375 0.45769 0.74233 0.0
H2562 H 0.91382 0.43397 0.74655 0.0
H2563 H 0.91967 0.44827 0.77481 0.0
C2564 C 0.87527 0.38185 0.76477 0.0
C2565 C 0.88423 0.3827 0.78817 0.0
C2566 C 0.87405 0.39656 0.75645 0.0
C2567 C 0.88222 0.41242 0.77104 0.0
C2568 C 0.89152 0.41335 0.79411 0.0
H2569 H 0.86365 0.50248 0.75956 0.0
H2570 H 0.86356 0.47536 0.77368 0.0
C2571 C 0.89264 0.39864 0.80248 0.0
C2572 C 0.8809 0.428 0.76236 0.0
H2573 H 0.90576 0.47106 0.74224 0.0
C2574 C 0.86414 0.42663 0.76171 0.0
C2575 C 0.89607 0.44414 0.755 0.0
C2576 C 0.91435 0.44614 0.75445 0.0
C2577 C 0.86212 0.44107 0.75413 0.0
C2578 C 0.87732 0.45736 0.7471 0.0
C2579 C 0.89409 0.45862 0.74764 0.0
C2580 C 0.87626 0.47314 0.73832 0.0
C2581 C 0.84369 0.43858 0.75323 0.0
C2582 C 0.88377 0.48116 0.71411 0.0
C2583 C 0.88408 0.49672 0.70635 0.0
C2584 C 0.87651 0.50437 0.7223 0.0
C2585 C 0.8691 0.49649 0.74661 0.0
C2586 C 0.86894 0.48096 0.75456 0.0
H2587 H 0.84123 0.44397 0.77154 0.0
H2588 H 0.84229 0.44576 0.73629 0.0
H2589 H 0.83335 0.42432 0.75174 0.0
H2590 H 0.88966 0.47553 0.70134 0.0
H2591 H 0.89059 0.503 0.68806 0.0
loop_
_geom_bond_atom_site_label_1
_geom_bond_atom_site_label_2
_geom_bond_distance
_geom_bond_site_symmetry_2
_ccdc_geom_bond_type
Mn0 O5 2.095 . S
Mn0 O15 2.162 . S
Mn0 O16 2.297 . S
Mn0 O24 2.385 . S
Mn0 O25 2.209 . S
Mn0 O26 2.094 . S
Mn1 O6 2.121 . S
Mn1 N8 2.257 . S
Mn1 N17 2.282 . S
Mn1 O25 2.215 . S
Mn1 O27 2.117 . S
C2 O24 1.234 . S
C2 O25 1.283 . S
C3 O15 1.281 . S
C3 O16 1.236 . S
C4 O26 1.240 . S
C4 O27 1.264 . S
O5 Mn0 2.095 . S
O5 C14 1.250 . S
O6 Mn1 2.121 . S
O6 C14 1.258 . S
C7 N8 1.326 . S
C7 C11 1.460 . S
C7 H13 0.929 . S
N8 Mn1 2.257 . S
N8 C7 1.326 . S
N8 C12 1.362 . S
C9 C10 1.258 . S
C9 C12 1.431 . S
C9 C29 1.449 . S
C10 C9 1.258 . S
C10 C11 1.477 . S
C10 H30 0.931 . S
C11 C7 1.460 . S
C11 C10 1.477 . S
C11 H31 0.930 . S
C12 N8 1.362 . S
C12 C9 1.431 . S
C12 C22 1.476 . S
H13 C7 0.929 . S
C14 O5 1.250 . S
C14 O6 1.258 . S
O15 Mn0 2.162 . S
O15 C3 1.281 . S
O16 Mn0 2.297 . S
O16 C3 1.236 . S
N17 Mn1 2.282 . S
N17 C18 1.328 . S
N17 C22 1.318 . S
C18 N17 1.328 . S
C18 C19 1.457 . S
C18 H23 0.929 . S
C19 C18 1.457 . S
C19 C20 1.291 . S
C19 H32 0.931 . S
C20 C19 1.291 . S
C20 C21 1.373 . S
C20 H33 0.929 . S
C21 C20 1.373 . S
C21 C22 1.396 . S
C21 C28 1.403 . S
C22 C12 1.476 . S
C22 N17 1.318 . S
C22 C21 1.396 . S
H23 C18 0.929 . S
O24 Mn0 2.385 . S
O24 C2 1.234 . S
O25 Mn0 2.209 . S
O25 Mn1 2.215 . S
O25 C2 1.283 . S
O26 Mn0 2.094 . S
O26 C4 1.240 . S
O27 Mn1 2.117 . S
O27 C4 1.264 . S
C28 C21 1.403 . S
C28 C29 1.399 . S
C28 H34 0.929 . S
C29 C9 1.449 . S
C29 C28 1.399 . S
C29 H35 0.930 . S
H30 C10 0.931 . S
H31 C11 0.930 . S
H32 C19 0.931 . S
H33 C20 0.929 . S
H34 C28 0.929 . S
H35 C29 0.930 . S
Mn36 O41 2.095 . S
Mn36 O51 2.162 . S
Mn36 O52 2.297 . S
Mn36 O60 2.385 . S
Mn36 O61 2.209 . S
Mn36 O62 2.094 . S
Mn37 O42 2.121 . S
Mn37 N44 2.257 . S
Mn37 N53 2.282 . S
Mn37 O61 2.215 . S
Mn37 O63 2.117 . S
C38 O60 1.234 . S
C38 O61 1.283 . S
C39 O51 1.281 . S
C39 O52 1.236 . S
C40 O62 1.240 . S
C40 O63 1.264 . S
O41 Mn36 2.095 . S
O41 C50 1.250 . S
O42 Mn37 2.121 . S
O42 C50 1.258 . S
C43 N44 1.326 . S
C43 C47 1.460 . S
C43 H49 0.929 . S
N44 Mn37 2.257 . S
N44 C43 1.326 . S
N44 C48 1.362 . S
C45 C46 1.258 . S
C45 C48 1.431 . S
C45 C65 1.449 . S
C46 C45 1.258 . S
C46 C47 1.477 . S
C46 H66 0.931 . S
C47 C43 1.460 . S
C47 C46 1.477 . S
C47 H67 0.930 . S
C48 N44 1.362 . S
C48 C45 1.431 . S
C48 C58 1.476 . S
H49 C43 0.929 . S
C50 O41 1.250 . S
C50 O42 1.258 . S
O51 Mn36 2.162 . S
O51 C39 1.281 . S
O52 Mn36 2.297 . S
O52 C39 1.236 . S
N53 Mn37 2.282 . S
N53 C54 1.328 . S
N53 C58 1.318 . S
C54 N53 1.328 . S
C54 C55 1.457 . S
C54 H59 0.929 . S
C55 C54 1.457 . S
C55 C56 1.291 . S
C55 H68 0.931 . S
C56 C55 1.291 . S
C56 C57 1.373 . S
C56 H69 0.929 . S
C57 C56 1.373 . S
C57 C58 1.396 . S
C57 C64 1.403 . S
C58 C48 1.476 . S
C58 N53 1.318 . S
C58 C57 1.396 . S
H59 C54 0.929 . S
O60 Mn36 2.385 . S
O60 C38 1.234 . S
O61 Mn36 2.209 . S
O61 Mn37 2.215 . S
O61 C38 1.283 . S
O62 Mn36 2.094 . S
O62 C40 1.240 . S
O63 Mn37 2.117 . S
O63 C40 1.264 . S
C64 C57 1.403 . S
C64 C65 1.399 . S
C64 H70 0.929 . S
C65 C45 1.449 . S
C65 C64 1.399 . S
C65 H71 0.930 . S
H66 C46 0.931 . S
H67 C47 0.930 . S
H68 C55 0.931 . S
H69 C56 0.929 . S
H70 C64 0.929 . S
H71 C65 0.930 . S
Mn72 O77 2.095 . S
Mn72 O87 2.162 . S
Mn72 O88 2.297 . S
Mn72 O96 2.385 . S
Mn72 O97 2.209 . S
Mn72 O98 2.094 . S
Mn73 O78 2.121 . S
Mn73 N80 2.257 . S
Mn73 N89 2.282 . S
Mn73 O97 2.215 . S
Mn73 O99 2.117 . S
C74 O96 1.234 . S
C74 O97 1.283 . S
C75 O87 1.281 . S
C75 O88 1.236 . S
C76 O98 1.240 . S
C76 O99 1.264 . S
O77 Mn72 2.095 . S
O77 C86 1.250 . S
O78 Mn73 2.121 . S
O78 C86 1.258 . S
C79 N80 1.326 . S
C79 C83 1.460 . S
C79 H85 0.929 . S
N80 Mn73 2.257 . S
N80 C79 1.326 . S
N80 C84 1.362 . S
C81 C82 1.258 . S
C81 C84 1.431 . S
C81 C101 1.449 . S
C82 C81 1.258 . S
C82 C83 1.477 . S
C82 H102 0.931 . S
C83 C79 1.460 . S
C83 C82 1.477 . S
C83 H103 0.930 . S
C84 N80 1.362 . S
C84 C81 1.431 . S
C84 C94 1.476 . S
H85 C79 0.929 . S
C86 O77 1.250 . S
C86 O78 1.258 . S
O87 Mn72 2.162 . S
O87 C75 1.281 . S
O88 Mn72 2.297 . S
O88 C75 1.236 . S
N89 Mn73 2.282 . S
N89 C90 1.328 . S
N89 C94 1.318 . S
C90 N89 1.328 . S
C90 C91 1.457 . S
C90 H95 0.929 . S
C91 C90 1.457 . S
C91 C92 1.291 . S
C91 H104 0.931 . S
C92 C91 1.291 . S
C92 C93 1.373 . S
C92 H105 0.929 . S
C93 C92 1.373 . S
C93 C94 1.396 . S
C93 C100 1.403 . S
C94 C84 1.476 . S
C94 N89 1.318 . S
C94 C93 1.396 . S
H95 C90 0.929 . S
O96 Mn72 2.385 . S
O96 C74 1.234 . S
O97 Mn72 2.209 . S
O97 Mn73 2.215 . S
O97 C74 1.283 . S
O98 Mn72 2.094 . S
O98 C76 1.240 . S
O99 Mn73 2.117 . S
O99 C76 1.264 . S
C100 C93 1.403 . S
C100 C101 1.399 . S
C100 H106 0.929 . S
C101 C81 1.449 . S
C101 C100 1.399 . S
C101 H107 0.930 . S
H102 C82 0.931 . S
H103 C83 0.930 . S
H104 C91 0.931 . S
H105 C92 0.929 . S
H106 C100 0.929 . S
H107 C101 0.930 . S
Mn108 O113 2.095 . S
Mn108 O123 2.162 . S
Mn108 O124 2.297 . S
Mn108 O132 2.385 . S
Mn108 O133 2.209 . S
Mn108 O134 2.094 . S
Mn109 O114 2.121 . S
Mn109 N116 2.257 . S
Mn109 N125 2.282 . S
Mn109 O133 2.215 . S
Mn109 O135 2.117 . S
C110 O132 1.234 . S
C110 O133 1.283 . S
C111 O123 1.281 . S
C111 O124 1.236 . S
C112 O134 1.240 . S
C112 O135 1.264 . S
O113 Mn108 2.095 . S
O113 C122 1.250 . S
O114 Mn109 2.121 . S
O114 C122 1.258 . S
C115 N116 1.326 . S
C115 C119 1.460 . S
C115 H121 0.929 . S
N116 Mn109 2.257 . S
N116 C115 1.326 . S
N116 C120 1.362 . S
C117 C118 1.258 . S
C117 C120 1.431 . S
C117 C137 1.449 . S
C118 C117 1.258 . S
C118 C119 1.477 . S
C118 H138 0.931 . S
C119 C115 1.460 . S
C119 C118 1.477 . S
C119 H139 0.930 . S
C120 N116 1.362 . S
C120 C117 1.431 . S
C120 C130 1.476 . S
H121 C115 0.929 . S
C122 O113 1.250 . S
C122 O114 1.258 . S
O123 Mn108 2.162 . S
O123 C111 1.281 . S
O124 Mn108 2.297 . S
O124 C111 1.236 . S
N125 Mn109 2.282 . S
N125 C126 1.328 . S
N125 C130 1.318 . S
C126 N125 1.328 . S
C126 C127 1.457 . S
C126 H131 0.929 . S
C127 C126 1.457 . S
C127 C128 1.291 . S
C127 H140 0.931 . S
C128 C127 1.291 . S
C128 C129 1.373 . S
C128 H141 0.929 . S
C129 C128 1.373 . S
C129 C130 1.396 . S
C129 C136 1.403 . S
C130 C120 1.476 . S
C130 N125 1.318 . S
C130 C129 1.396 . S
H131 C126 0.929 . S
O132 Mn108 2.385 . S
O132 C110 1.234 . S
O133 Mn108 2.209 . S
O133 Mn109 2.215 . S
O133 C110 1.283 . S
O134 Mn108 2.094 . S
O134 C112 1.240 . S
O135 Mn109 2.117 . S
O135 C112 1.264 . S
C136 C129 1.403 . S
C136 C137 1.399 . S
C136 H142 0.929 . S
C137 C117 1.449 . S
C137 C136 1.399 . S
C137 H143 0.930 . S
H138 C118 0.931 . S
H139 C119 0.930 . S
H140 C127 0.931 . S
H141 C128 0.929 . S
H142 C136 0.929 . S
H143 C137 0.930 . S
Mn144 O149 2.095 . S
Mn144 O159 2.162 . S
Mn144 O160 2.297 . S
Mn144 O168 2.385 . S
Mn144 O169 2.209 . S
Mn144 O170 2.094 . S
Mn145 O150 2.121 . S
Mn145 N152 2.257 . S
Mn145 N161 2.282 . S
Mn145 O169 2.215 . S
Mn145 O171 2.117 . S
C146 O168 1.234 . S
C146 O169 1.283 . S
C147 O159 1.281 . S
C147 O160 1.236 . S
C148 O170 1.240 . S
C148 O171 1.264 . S
O149 Mn144 2.095 . S
O149 C158 1.250 . S
O150 Mn145 2.121 . S
O150 C158 1.258 . S
C151 N152 1.326 . S
C151 C155 1.460 . S
C151 H157 0.929 . S
N152 Mn145 2.257 . S
N152 C151 1.326 . S
N152 C156 1.362 . S
C153 C154 1.258 . S
C153 C156 1.431 . S
C153 C173 1.449 . S
C154 C153 1.258 . S
C154 C155 1.477 . S
C154 H174 0.931 . S
C155 C151 1.460 . S
C155 C154 1.477 . S
C155 H175 0.930 . S
C156 N152 1.362 . S
C156 C153 1.431 . S
C156 C166 1.476 . S
H157 C151 0.929 . S
C158 O149 1.250 . S
C158 O150 1.258 . S
O159 Mn144 2.162 . S
O159 C147 1.281 . S
O160 Mn144 2.297 . S
O160 C147 1.236 . S
N161 Mn145 2.282 . S
N161 C162 1.328 . S
N161 C166 1.318 . S
C162 N161 1.328 . S
C162 C163 1.457 . S
C162 H167 0.929 . S
C163 C162 1.457 . S
C163 C164 1.291 . S
C163 H176 0.931 . S
C164 C163 1.291 . S
C164 C165 1.373 . S
C164 H177 0.929 . S
C165 C164 1.373 . S
C165 C166 1.396 . S
C165 C172 1.403 . S
C166 C156 1.476 . S
C166 N161 1.318 . S
C166 C165 1.396 . S
H167 C162 0.929 . S
O168 Mn144 2.385 . S
O168 C146 1.234 . S
O169 Mn144 2.209 . S
O169 Mn145 2.215 . S
O169 C146 1.283 . S
O170 Mn144 2.094 . S
O170 C148 1.240 . S
O171 Mn145 2.117 . S
O171 C148 1.264 . S
C172 C165 1.403 . S
C172 C173 1.399 . S
C172 H178 0.929 . S
C173 C153 1.449 . S
C173 C172 1.399 . S
C173 H179 0.930 . S
H174 C154 0.931 . S
H175 C155 0.930 . S
H176 C163 0.931 . S
H177 C164 0.929 . S
H178 C172 0.929 . S
H179 C173 0.930 . S
Mn180 O185 2.095 . S
Mn180 O195 2.162 . S
Mn180 O196 2.297 . S
Mn180 O204 2.385 . S
Mn180 O205 2.209 . S
Mn180 O206 2.094 . S
Mn181 O186 2.121 . S
Mn181 N188 2.257 . S
Mn181 N197 2.282 . S
Mn181 O205 2.215 . S
Mn181 O207 2.117 . S
C182 O204 1.234 . S
C182 O205 1.283 . S
C183 O195 1.281 . S
C183 O196 1.236 . S
C184 O206 1.240 . S
C184 O207 1.264 . S
O185 Mn180 2.095 . S
O185 C194 1.250 . S
O186 Mn181 2.121 . S
O186 C194 1.258 . S
C187 N188 1.326 . S
C187 C191 1.460 . S
C187 H193 0.929 . S
N188 Mn181 2.257 . S
N188 C187 1.326 . S
N188 C192 1.362 . S
C189 C190 1.258 . S
C189 C192 1.431 . S
C189 C209 1.449 . S
C190 C189 1.258 . S
C190 C191 1.477 . S
C190 H210 0.931 . S
C191 C187 1.460 . S
C191 C190 1.477 . S
C191 H211 0.930 . S
C192 N188 1.362 . S
C192 C189 1.431 . S
C192 C202 1.476 . S
H193 C187 0.929 . S
C194 O185 1.250 . S
C194 O186 1.258 . S
O195 Mn180 2.162 . S
O195 C183 1.281 . S
O196 Mn180 2.297 . S
O196 C183 1.236 . S
N197 Mn181 2.282 . S
N197 C198 1.328 . S
N197 C202 1.318 . S
C198 N197 1.328 . S
C198 C199 1.457 . S
C198 H203 0.929 . S
C199 C198 1.457 . S
C199 C200 1.291 . S
C199 H212 0.931 . S
C200 C199 1.291 . S
C200 C201 1.373 . S
C200 H213 0.929 . S
C201 C200 1.373 . S
C201 C202 1.396 . S
C201 C208 1.403 . S
C202 C192 1.476 . S
C202 N197 1.318 . S
C202 C201 1.396 . S
H203 C198 0.929 . S
O204 Mn180 2.385 . S
O204 C182 1.234 . S
O205 Mn180 2.209 . S
O205 Mn181 2.215 . S
O205 C182 1.283 . S
O206 Mn180 2.094 . S
O206 C184 1.240 . S
O207 Mn181 2.117 . S
O207 C184 1.264 . S
C208 C201 1.403 . S
C208 C209 1.399 . S
C208 H214 0.929 . S
C209 C189 1.449 . S
C209 C208 1.399 . S
C209 H215 0.930 . S
H210 C190 0.931 . S
H211 C191 0.930 . S
H212 C199 0.931 . S
H213 C200 0.929 . S
H214 C208 0.929 . S
H215 C209 0.930 . S
Mn216 O221 2.095 . S
Mn216 O231 2.162 . S
Mn216 O232 2.297 . S
Mn216 O240 2.385 . S
Mn216 O241 2.209 . S
Mn216 O242 2.094 . S
Mn217 O222 2.121 . S
Mn217 N224 2.257 . S
Mn217 N233 2.282 . S
Mn217 O241 2.215 . S
Mn217 O243 2.117 . S
C218 O240 1.234 . S
C218 O241 1.283 . S
C219 O231 1.281 . S
C219 O232 1.236 . S
C220 O242 1.240 . S
C220 O243 1.264 . S
O221 Mn216 2.095 . S
O221 C230 1.250 . S
O222 Mn217 2.121 . S
O222 C230 1.258 . S
C223 N224 1.326 . S
C223 C227 1.460 . S
C223 H229 0.929 . S
N224 Mn217 2.257 . S
N224 C223 1.326 . S
N224 C228 1.362 . S
C225 C226 1.258 . S
C225 C228 1.431 . S
C225 C245 1.449 . S
C226 C225 1.258 . S
C226 C227 1.477 . S
C226 H246 0.931 . S
C227 C223 1.460 . S
C227 C226 1.477 . S
C227 H247 0.930 . S
C228 N224 1.362 . S
C228 C225 1.431 . S
C228 C238 1.476 . S
H229 C223 0.929 . S
C230 O221 1.250 . S
C230 O222 1.258 . S
O231 Mn216 2.162 . S
O231 C219 1.281 . S
O232 Mn216 2.297 . S
O232 C219 1.236 . S
N233 Mn217 2.282 . S
N233 C234 1.328 . S
N233 C238 1.318 . S
C234 N233 1.328 . S
C234 C235 1.457 . S
C234 H239 0.929 . S
C235 C234 1.457 . S
C235 C236 1.291 . S
C235 H248 0.931 . S
C236 C235 1.291 . S
C236 C237 1.373 . S
C236 H249 0.929 . S
C237 C236 1.373 . S
C237 C238 1.396 . S
C237 C244 1.403 . S
C238 C228 1.476 . S
C238 N233 1.318 . S
C238 C237 1.396 . S
H239 C234 0.929 . S
O240 Mn216 2.385 . S
O240 C218 1.234 . S
O241 Mn216 2.209 . S
O241 Mn217 2.215 . S
O241 C218 1.283 . S
O242 Mn216 2.094 . S
O242 C220 1.240 . S
O243 Mn217 2.117 . S
O243 C220 1.264 . S
C244 C237 1.403 . S
C244 C245 1.399 . S
C244 H250 0.929 . S
C245 C225 1.449 . S
C245 C244 1.399 . S
C245 H251 0.930 . S
H246 C226 0.931 . S
H247 C227 0.930 . S
H248 C235 0.931 . S
H249 C236 0.929 . S
H250 C244 0.929 . S
H251 C245 0.930 . S
Mn252 O257 2.095 . S
Mn252 O267 2.162 . S
Mn252 O268 2.297 . S
Mn252 O276 2.385 . S
Mn252 O277 2.209 . S
Mn252 O278 2.094 . S
Mn253 O258 2.121 . S
Mn253 N260 2.257 . S
Mn253 N269 2.282 . S
Mn253 O277 2.215 . S
Mn253 O279 2.117 . S
C254 O276 1.234 . S
C254 O277 1.283 . S
C255 O267 1.281 . S
C255 O268 1.236 . S
C256 O278 1.240 . S
C256 O279 1.264 . S
O257 Mn252 2.095 . S
O257 C266 1.250 . S
O258 Mn253 2.121 . S
O258 C266 1.258 . S
C259 N260 1.326 . S
C259 C263 1.460 . S
C259 H265 0.929 . S
N260 Mn253 2.257 . S
N260 C259 1.326 . S
N260 C264 1.362 . S
C261 C262 1.258 . S
C261 C264 1.431 . S
C261 C281 1.449 . S
C262 C261 1.258 . S
C262 C263 1.477 . S
C262 H282 0.931 . S
C263 C259 1.460 . S
C263 C262 1.477 . S
C263 H283 0.930 . S
C264 N260 1.362 . S
C264 C261 1.431 . S
C264 C274 1.476 . S
H265 C259 0.929 . S
C266 O257 1.250 . S
C266 O258 1.258 . S
O267 Mn252 2.162 . S
O267 C255 1.281 . S
O268 Mn252 2.297 . S
O268 C255 1.236 . S
N269 Mn253 2.282 . S
N269 C270 1.328 . S
N269 C274 1.318 . S
C270 N269 1.328 . S
C270 C271 1.457 . S
C270 H275 0.929 . S
C271 C270 1.457 . S
C271 C272 1.291 . S
C271 H284 0.931 . S
C272 C271 1.291 . S
C272 C273 1.373 . S
C272 H285 0.929 . S
C273 C272 1.373 . S
C273 C274 1.396 . S
C273 C280 1.403 . S
C274 C264 1.476 . S
C274 N269 1.318 . S
C274 C273 1.396 . S
H275 C270 0.929 . S
O276 Mn252 2.385 . S
O276 C254 1.234 . S
O277 Mn252 2.209 . S
O277 Mn253 2.215 . S
O277 C254 1.283 . S
O278 Mn252 2.094 . S
O278 C256 1.240 . S
O279 Mn253 2.117 . S
O279 C256 1.264 . S
C280 C273 1.403 . S
C280 C281 1.399 . S
C280 H286 0.929 . S
C281 C261 1.449 . S
C281 C280 1.399 . S
C281 H287 0.930 . S
H282 C262 0.931 . S
H283 C263 0.930 . S
H284 C271 0.931 . S
H285 C272 0.929 . S
H286 C280 0.929 . S
H287 C281 0.930 . S
Mn288 O293 2.095 . S
Mn288 O303 2.162 . S
Mn288 O304 2.297 . S
Mn288 O312 2.385 . S
Mn288 O313 2.209 . S
Mn288 O314 2.094 . S
Mn289 O294 2.121 . S
Mn289 N296 2.257 . S
Mn289 N305 2.282 . S
Mn289 O313 2.215 . S
Mn289 O315 2.117 . S
C290 O312 1.234 . S
C290 O313 1.283 . S
C291 O303 1.281 . S
C291 O304 1.236 . S
C292 O314 1.240 . S
C292 O315 1.264 . S
O293 Mn288 2.095 . S
O293 C302 1.250 . S
O294 Mn289 2.121 . S
O294 C302 1.258 . S
C295 N296 1.326 . S
C295 C299 1.460 . S
C295 H301 0.929 . S
N296 Mn289 2.257 . S
N296 C295 1.326 . S
N296 C300 1.362 . S
C297 C298 1.258 . S
C297 C300 1.431 . S
C297 C317 1.449 . S
C298 C297 1.258 . S
C298 C299 1.477 . S
C298 H318 0.931 . S
C299 C295 1.460 . S
C299 C298 1.477 . S
C299 H319 0.930 . S
C300 N296 1.362 . S
C300 C297 1.431 . S
C300 C310 1.476 . S
H301 C295 0.929 . S
C302 O293 1.250 . S
C302 O294 1.258 . S
O303 Mn288 2.162 . S
O303 C291 1.281 . S
O304 Mn288 2.297 . S
O304 C291 1.236 . S
N305 Mn289 2.282 . S
N305 C306 1.328 . S
N305 C310 1.318 . S
C306 N305 1.328 . S
C306 C307 1.457 . S
C306 H311 0.929 . S
C307 C306 1.457 . S
C307 C308 1.291 . S
C307 H320 0.931 . S
C308 C307 1.291 . S
C308 C309 1.373 . S
C308 H321 0.929 . S
C309 C308 1.373 . S
C309 C310 1.396 . S
C309 C316 1.403 . S
C310 C300 1.476 . S
C310 N305 1.318 . S
C310 C309 1.396 . S
H311 C306 0.929 . S
O312 Mn288 2.385 . S
O312 C290 1.234 . S
O313 Mn288 2.209 . S
O313 Mn289 2.215 . S
O313 C290 1.283 . S
O314 Mn288 2.094 . S
O314 C292 1.240 . S
O315 Mn289 2.117 . S
O315 C292 1.264 . S
C316 C309 1.403 . S
C316 C317 1.399 . S
C316 H322 0.929 . S
C317 C297 1.449 . S
C317 C316 1.399 . S
C317 H323 0.930 . S
H318 C298 0.931 . S
H319 C299 0.930 . S
H320 C307 0.931 . S
H321 C308 0.929 . S
H322 C316 0.929 . S
H323 C317 0.930 . S
Mn324 O329 2.095 . S
Mn324 O339 2.162 . S
Mn324 O340 2.297 . S
Mn324 O348 2.385 . S
Mn324 O349 2.209 . S
Mn324 O350 2.094 . S
Mn325 O330 2.121 . S
Mn325 N332 2.257 . S
Mn325 N341 2.282 . S
Mn325 O349 2.215 . S
Mn325 O351 2.117 . S
C326 O348 1.234 . S
C326 O349 1.283 . S
C327 O339 1.281 . S
C327 O340 1.236 . S
C328 O350 1.240 . S
C328 O351 1.264 . S
O329 Mn324 2.095 . S
O329 C338 1.250 . S
O330 Mn325 2.121 . S
O330 C338 1.258 . S
C331 N332 1.326 . S
C331 C335 1.460 . S
C331 H337 0.929 . S
N332 Mn325 2.257 . S
N332 C331 1.326 . S
N332 C336 1.362 . S
C333 C334 1.258 . S
C333 C336 1.431 . S
C333 C353 1.449 . S
C334 C333 1.258 . S
C334 C335 1.477 . S
C334 H354 0.931 . S
C335 C331 1.460 . S
C335 C334 1.477 . S
C335 H355 0.930 . S
C336 N332 1.362 . S
C336 C333 1.431 . S
C336 C346 1.476 . S
H337 C331 0.929 . S
C338 O329 1.250 . S
C338 O330 1.258 . S
O339 Mn324 2.162 . S
O339 C327 1.281 . S
O340 Mn324 2.297 . S
O340 C327 1.236 . S
N341 Mn325 2.282 . S
N341 C342 1.328 . S
N341 C346 1.318 . S
C342 N341 1.328 . S
C342 C343 1.457 . S
C342 H347 0.929 . S
C343 C342 1.457 . S
C343 C344 1.291 . S
C343 H356 0.931 . S
C344 C343 1.291 . S
C344 C345 1.373 . S
C344 H357 0.929 . S
C345 C344 1.373 . S
C345 C346 1.396 . S
C345 C352 1.403 . S
C346 C336 1.476 . S
C346 N341 1.318 . S
C346 C345 1.396 . S
H347 C342 0.929 . S
O348 Mn324 2.385 . S
O348 C326 1.234 . S
O349 Mn324 2.209 . S
O349 Mn325 2.215 . S
O349 C326 1.283 . S
O350 Mn324 2.094 . S
O350 C328 1.240 . S
O351 Mn325 2.117 . S
O351 C328 1.264 . S
C352 C345 1.403 . S
C352 C353 1.399 . S
C352 H358 0.929 . S
C353 C333 1.449 . S
C353 C352 1.399 . S
C353 H359 0.930 . S
H354 C334 0.931 . S
H355 C335 0.930 . S
H356 C343 0.931 . S
H357 C344 0.929 . S
H358 C352 0.929 . S
H359 C353 0.930 . S
Mn360 O365 2.095 . S
Mn360 O375 2.162 . S
Mn360 O376 2.297 . S
Mn360 O384 2.385 . S
Mn360 O385 2.209 . S
Mn360 O386 2.094 . S
Mn361 O366 2.121 . S
Mn361 N368 2.257 . S
Mn361 N377 2.282 . S
Mn361 O385 2.215 . S
Mn361 O387 2.117 . S
C362 O384 1.234 . S
C362 O385 1.283 . S
C363 O375 1.281 . S
C363 O376 1.236 . S
C364 O386 1.240 . S
C364 O387 1.264 . S
O365 Mn360 2.095 . S
O365 C374 1.250 . S
O366 Mn361 2.121 . S
O366 C374 1.258 . S
C367 N368 1.326 . S
C367 C371 1.460 . S
C367 H373 0.929 . S
N368 Mn361 2.257 . S
N368 C367 1.326 . S
N368 C372 1.362 . S
C369 C370 1.258 . S
C369 C372 1.431 . S
C369 C389 1.449 . S
C370 C369 1.258 . S
C370 C371 1.477 . S
C370 H390 0.931 . S
C371 C367 1.460 . S
C371 C370 1.477 . S
C371 H391 0.930 . S
C372 N368 1.362 . S
C372 C369 1.431 . S
C372 C382 1.476 . S
H373 C367 0.929 . S
C374 O365 1.250 . S
C374 O366 1.258 . S
O375 Mn360 2.162 . S
O375 C363 1.281 . S
O376 Mn360 2.297 . S
O376 C363 1.236 . S
N377 Mn361 2.282 . S
N377 C378 1.328 . S
N377 C382 1.318 . S
C378 N377 1.328 . S
C378 C379 1.457 . S
C378 H383 0.929 . S
C379 C378 1.457 . S
C379 C380 1.291 . S
C379 H392 0.931 . S
C380 C379 1.291 . S
C380 C381 1.373 . S
C380 H393 0.929 . S
C381 C380 1.373 . S
C381 C382 1.396 . S
C381 C388 1.403 . S
C382 C372 1.476 . S
C382 N377 1.318 . S
C382 C381 1.396 . S
H383 C378 0.929 . S
O384 Mn360 2.385 . S
O384 C362 1.234 . S
O385 Mn360 2.209 . S
O385 Mn361 2.215 . S
O385 C362 1.283 . S
O386 Mn360 2.094 . S
O386 C364 1.240 . S
O387 Mn361 2.117 . S
O387 C364 1.264 . S
C388 C381 1.403 . S
C388 C389 1.399 . S
C388 H394 0.929 . S
C389 C369 1.449 . S
C389 C388 1.399 . S
C389 H395 0.930 . S
H390 C370 0.931 . S
H391 C371 0.930 . S
H392 C379 0.931 . S
H393 C380 0.929 . S
H394 C388 0.929 . S
H395 C389 0.930 . S
Mn396 O401 2.095 . S
Mn396 O411 2.162 . S
Mn396 O412 2.297 . S
Mn396 O420 2.385 . S
Mn396 O421 2.209 . S
Mn396 O422 2.094 . S
Mn397 O402 2.121 . S
Mn397 N404 2.257 . S
Mn397 N413 2.282 . S
Mn397 O421 2.215 . S
Mn397 O423 2.117 . S
C398 O420 1.234 . S
C398 O421 1.283 . S
C399 O411 1.281 . S
C399 O412 1.236 . S
C400 O422 1.240 . S
C400 O423 1.264 . S
O401 Mn396 2.095 . S
O401 C410 1.250 . S
O402 Mn397 2.121 . S
O402 C410 1.258 . S
C403 N404 1.326 . S
C403 C407 1.460 . S
C403 H409 0.929 . S
N404 Mn397 2.257 . S
N404 C403 1.326 . S
N404 C408 1.362 . S
C405 C406 1.258 . S
C405 C408 1.431 . S
C405 C425 1.449 . S
C406 C405 1.258 . S
C406 C407 1.477 . S
C406 H426 0.931 . S
C407 C403 1.460 . S
C407 C406 1.477 . S
C407 H427 0.930 . S
C408 N404 1.362 . S
C408 C405 1.431 . S
C408 C418 1.476 . S
H409 C403 0.929 . S
C410 O401 1.250 . S
C410 O402 1.258 . S
O411 Mn396 2.162 . S
O411 C399 1.281 . S
O412 Mn396 2.297 . S
O412 C399 1.236 . S
N413 Mn397 2.282 . S
N413 C414 1.328 . S
N413 C418 1.318 . S
C414 N413 1.328 . S
C414 C415 1.457 . S
C414 H419 0.929 . S
C415 C414 1.457 . S
C415 C416 1.291 . S
C415 H428 0.931 . S
C416 C415 1.291 . S
C416 C417 1.373 . S
C416 H429 0.929 . S
C417 C416 1.373 . S
C417 C418 1.396 . S
C417 C424 1.403 . S
C418 C408 1.476 . S
C418 N413 1.318 . S
C418 C417 1.396 . S
H419 C414 0.929 . S
O420 Mn396 2.385 . S
O420 C398 1.234 . S
O421 Mn396 2.209 . S
O421 Mn397 2.215 . S
O421 C398 1.283 . S
O422 Mn396 2.094 . S
O422 C400 1.240 . S
O423 Mn397 2.117 . S
O423 C400 1.264 . S
C424 C417 1.403 . S
C424 C425 1.399 . S
C424 H430 0.929 . S
C425 C405 1.449 . S
C425 C424 1.399 . S
C425 H431 0.930 . S
H426 C406 0.931 . S
H427 C407 0.930 . S
H428 C415 0.931 . S
H429 C416 0.929 . S
H430 C424 0.929 . S
H431 C425 0.930 . S
Mn432 O437 2.095 . S
Mn432 O447 2.162 . S
Mn432 O448 2.297 . S
Mn432 O456 2.385 . S
Mn432 O457 2.209 . S
Mn432 O458 2.094 . S
Mn433 O438 2.121 . S
Mn433 N440 2.257 . S
Mn433 N449 2.282 . S
Mn433 O457 2.215 . S
Mn433 O459 2.117 . S
C434 O456 1.234 . S
C434 O457 1.283 . S
C435 O447 1.281 . S
C435 O448 1.236 . S
C436 O458 1.240 . S
C436 O459 1.264 . S
O437 Mn432 2.095 . S
O437 C446 1.250 . S
O438 Mn433 2.121 . S
O438 C446 1.258 . S
C439 N440 1.326 . S
C439 C443 1.460 . S
C439 H445 0.929 . S
N440 Mn433 2.257 . S
N440 C439 1.326 . S
N440 C444 1.362 . S
C441 C442 1.258 . S
C441 C444 1.431 . S
C441 C461 1.449 . S
C442 C441 1.258 . S
C442 C443 1.477 . S
C442 H462 0.931 . S
C443 C439 1.460 . S
C443 C442 1.477 . S
C443 H463 0.930 . S
C444 N440 1.362 . S
C444 C441 1.431 . S
C444 C454 1.476 . S
H445 C439 0.929 . S
C446 O437 1.250 . S
C446 O438 1.258 . S
O447 Mn432 2.162 . S
O447 C435 1.281 . S
O448 Mn432 2.297 . S
O448 C435 1.236 . S
N449 Mn433 2.282 . S
N449 C450 1.328 . S
N449 C454 1.318 . S
C450 N449 1.328 . S
C450 C451 1.457 . S
C450 H455 0.929 . S
C451 C450 1.457 . S
C451 C452 1.291 . S
C451 H464 0.931 . S
C452 C451 1.291 . S
C452 C453 1.373 . S
C452 H465 0.929 . S
C453 C452 1.373 . S
C453 C454 1.396 . S
C453 C460 1.403 . S
C454 C444 1.476 . S
C454 N449 1.318 . S
C454 C453 1.396 . S
H455 C450 0.929 . S
O456 Mn432 2.385 . S
O456 C434 1.234 . S
O457 Mn432 2.209 . S
O457 Mn433 2.215 . S
O457 C434 1.283 . S
O458 Mn432 2.094 . S
O458 C436 1.240 . S
O459 Mn433 2.117 . S
O459 C436 1.264 . S
C460 C453 1.403 . S
C460 C461 1.399 . S
C460 H466 0.929 . S
C461 C441 1.449 . S
C461 C460 1.399 . S
C461 H467 0.930 . S
H462 C442 0.931 . S
H463 C443 0.930 . S
H464 C451 0.931 . S
H465 C452 0.929 . S
H466 C460 0.929 . S
H467 C461 0.930 . S
Mn468 O473 2.095 . S
Mn468 O483 2.162 . S
Mn468 O484 2.297 . S
Mn468 O492 2.385 . S
Mn468 O493 2.209 . S
Mn468 O494 2.094 . S
Mn469 O474 2.121 . S
Mn469 N476 2.257 . S
Mn469 N485 2.282 . S
Mn469 O493 2.215 . S
Mn469 O495 2.117 . S
C470 O492 1.234 . S
C470 O493 1.283 . S
C471 O483 1.281 . S
C471 O484 1.236 . S
C472 O494 1.240 . S
C472 O495 1.264 . S
O473 Mn468 2.095 . S
O473 C482 1.250 . S
O474 Mn469 2.121 . S
O474 C482 1.258 . S
C475 N476 1.326 . S
C475 C479 1.460 . S
C475 H481 0.929 . S
N476 Mn469 2.257 . S
N476 C475 1.326 . S
N476 C480 1.362 . S
C477 C478 1.258 . S
C477 C480 1.431 . S
C477 C497 1.449 . S
C478 C477 1.258 . S
C478 C479 1.477 . S
C478 H498 0.931 . S
C479 C475 1.460 . S
C479 C478 1.477 . S
C479 H499 0.930 . S
C480 N476 1.362 . S
C480 C477 1.431 . S
C480 C490 1.476 . S
H481 C475 0.929 . S
C482 O473 1.250 . S
C482 O474 1.258 . S
O483 Mn468 2.162 . S
O483 C471 1.281 . S
O484 Mn468 2.297 . S
O484 C471 1.236 . S
N485 Mn469 2.282 . S
N485 C486 1.328 . S
N485 C490 1.318 . S
C486 N485 1.328 . S
C486 C487 1.457 . S
C486 H491 0.929 . S
C487 C486 1.457 . S
C487 C488 1.291 . S
C487 H500 0.931 . S
C488 C487 1.291 . S
C488 C489 1.373 . S
C488 H501 0.929 . S
C489 C488 1.373 . S
C489 C490 1.396 . S
C489 C496 1.403 . S
C490 C480 1.476 . S
C490 N485 1.318 . S
C490 C489 1.396 . S
H491 C486 0.929 . S
O492 Mn468 2.385 . S
O492 C470 1.234 . S
O493 Mn468 2.209 . S
O493 Mn469 2.215 . S
O493 C470 1.283 . S
O494 Mn468 2.094 . S
O494 C472 1.240 . S
O495 Mn469 2.117 . S
O495 C472 1.264 . S
C496 C489 1.403 . S
C496 C497 1.399 . S
C496 H502 0.929 . S
C497 C477 1.449 . S
C497 C496 1.399 . S
C497 H503 0.930 . S
H498 C478 0.931 . S
H499 C479 0.930 . S
H500 C487 0.931 . S
H501 C488 0.929 . S
H502 C496 0.929 . S
H503 C497 0.930 . S
Mn504 O509 2.095 . S
Mn504 O519 2.162 . S
Mn504 O520 2.297 . S
Mn504 O528 2.385 . S
Mn504 O529 2.209 . S
Mn504 O530 2.094 . S
Mn505 O510 2.121 . S
Mn505 N512 2.257 . S
Mn505 N521 2.282 . S
Mn505 O529 2.215 . S
Mn505 O531 2.117 . S
C506 O528 1.234 . S
C506 O529 1.283 . S
C507 O519 1.281 . S
C507 O520 1.236 . S
C508 O530 1.240 . S
C508 O531 1.264 . S
O509 Mn504 2.095 . S
O509 C518 1.250 . S
O510 Mn505 2.121 . S
O510 C518 1.258 . S
C511 N512 1.326 . S
C511 C515 1.460 . S
C511 H517 0.929 . S
N512 Mn505 2.257 . S
N512 C511 1.326 . S
N512 C516 1.362 . S
C513 C514 1.258 . S
C513 C516 1.431 . S
C513 C533 1.449 . S
C514 C513 1.258 . S
C514 C515 1.477 . S
C514 H534 0.931 . S
C515 C511 1.460 . S
C515 C514 1.477 . S
C515 H535 0.930 . S
C516 N512 1.362 . S
C516 C513 1.431 . S
C516 C526 1.476 . S
H517 C511 0.929 . S
C518 O509 1.250 . S
C518 O510 1.258 . S
O519 Mn504 2.162 . S
O519 C507 1.281 . S
O520 Mn504 2.297 . S
O520 C507 1.236 . S
N521 Mn505 2.282 . S
N521 C522 1.328 . S
N521 C526 1.318 . S
C522 N521 1.328 . S
C522 C523 1.457 . S
C522 H527 0.929 . S
C523 C522 1.457 . S
C523 C524 1.291 . S
C523 H536 0.931 . S
C524 C523 1.291 . S
C524 C525 1.373 . S
C524 H537 0.929 . S
C525 C524 1.373 . S
C525 C526 1.396 . S
C525 C532 1.403 . S
C526 C516 1.476 . S
C526 N521 1.318 . S
C526 C525 1.396 . S
H527 C522 0.929 . S
O528 Mn504 2.385 . S
O528 C506 1.234 . S
O529 Mn504 2.209 . S
O529 Mn505 2.215 . S
O529 C506 1.283 . S
O530 Mn504 2.094 . S
O530 C508 1.240 . S
O531 Mn505 2.117 . S
O531 C508 1.264 . S
C532 C525 1.403 . S
C532 C533 1.399 . S
C532 H538 0.929 . S
C533 C513 1.449 . S
C533 C532 1.399 . S
C533 H539 0.930 . S
H534 C514 0.931 . S
H535 C515 0.930 . S
H536 C523 0.931 . S
H537 C524 0.929 . S
H538 C532 0.929 . S
H539 C533 0.930 . S
Mn540 O545 2.095 . S
Mn540 O555 2.162 . S
Mn540 O556 2.297 . S
Mn540 O564 2.385 . S
Mn540 O565 2.209 . S
Mn540 O566 2.094 . S
Mn541 O546 2.121 . S
Mn541 N548 2.257 . S
Mn541 N557 2.282 . S
Mn541 O565 2.215 . S
Mn541 O567 2.117 . S
C542 O564 1.234 . S
C542 O565 1.283 . S
C543 O555 1.281 . S
C543 O556 1.236 . S
C544 O566 1.240 . S
C544 O567 1.264 . S
O545 Mn540 2.095 . S
O545 C554 1.250 . S
O546 Mn541 2.121 . S
O546 C554 1.258 . S
C547 N548 1.326 . S
C547 C551 1.460 . S
C547 H553 0.929 . S
N548 Mn541 2.257 . S
N548 C547 1.326 . S
N548 C552 1.362 . S
C549 C550 1.258 . S
C549 C552 1.431 . S
C549 C569 1.449 . S
C550 C549 1.258 . S
C550 C551 1.477 . S
C550 H570 0.931 . S
C551 C547 1.460 . S
C551 C550 1.477 . S
C551 H571 0.930 . S
C552 N548 1.362 . S
C552 C549 1.431 . S
C552 C562 1.476 . S
H553 C547 0.929 . S
C554 O545 1.250 . S
C554 O546 1.258 . S
O555 Mn540 2.162 . S
O555 C543 1.281 . S
O556 Mn540 2.297 . S
O556 C543 1.236 . S
N557 Mn541 2.282 . S
N557 C558 1.328 . S
N557 C562 1.318 . S
C558 N557 1.328 . S
C558 C559 1.457 . S
C558 H563 0.929 . S
C559 C558 1.457 . S
C559 C560 1.291 . S
C559 H572 0.931 . S
C560 C559 1.291 . S
C560 C561 1.373 . S
C560 H573 0.929 . S
C561 C560 1.373 . S
C561 C562 1.396 . S
C561 C568 1.403 . S
C562 C552 1.476 . S
C562 N557 1.318 . S
C562 C561 1.396 . S
H563 C558 0.929 . S
O564 Mn540 2.385 . S
O564 C542 1.234 . S
O565 Mn540 2.209 . S
O565 Mn541 2.215 . S
O565 C542 1.283 . S
O566 Mn540 2.094 . S
O566 C544 1.240 . S
O567 Mn541 2.117 . S
O567 C544 1.264 . S
C568 C561 1.403 . S
C568 C569 1.399 . S
C568 H574 0.929 . S
C569 C549 1.449 . S
C569 C568 1.399 . S
C569 H575 0.930 . S
H570 C550 0.931 . S
H571 C551 0.930 . S
H572 C559 0.931 . S
H573 C560 0.929 . S
H574 C568 0.929 . S
H575 C569 0.930 . S
Mn576 O581 2.095 . S
Mn576 O591 2.162 . S
Mn576 O592 2.297 . S
Mn576 O600 2.385 . S
Mn576 O601 2.209 . S
Mn576 O602 2.094 . S
Mn577 O582 2.121 . S
Mn577 N584 2.257 . S
Mn577 N593 2.282 . S
Mn577 O601 2.215 . S
Mn577 O603 2.117 . S
C578 O600 1.234 . S
C578 O601 1.283 . S
C579 O591 1.281 . S
C579 O592 1.236 . S
C580 O602 1.240 . S
C580 O603 1.264 . S
O581 Mn576 2.095 . S
O581 C590 1.250 . S
O582 Mn577 2.121 . S
O582 C590 1.258 . S
C583 N584 1.326 . S
C583 C587 1.460 . S
C583 H589 0.929 . S
N584 Mn577 2.257 . S
N584 C583 1.326 . S
N584 C588 1.362 . S
C585 C586 1.258 . S
C585 C588 1.431 . S
C585 C605 1.449 . S
C586 C585 1.258 . S
C586 C587 1.477 . S
C586 H606 0.931 . S
C587 C583 1.460 . S
C587 C586 1.477 . S
C587 H607 0.930 . S
C588 N584 1.362 . S
C588 C585 1.431 . S
C588 C598 1.476 . S
H589 C583 0.929 . S
C590 O581 1.250 . S
C590 O582 1.258 . S
O591 Mn576 2.162 . S
O591 C579 1.281 . S
O592 Mn576 2.297 . S
O592 C579 1.236 . S
N593 Mn577 2.282 . S
N593 C594 1.328 . S
N593 C598 1.318 . S
C594 N593 1.328 . S
C594 C595 1.457 . S
C594 H599 0.929 . S
C595 C594 1.457 . S
C595 C596 1.291 . S
C595 H608 0.931 . S
C596 C595 1.291 . S
C596 C597 1.373 . S
C596 H609 0.929 . S
C597 C596 1.373 . S
C597 C598 1.396 . S
C597 C604 1.403 . S
C598 C588 1.476 . S
C598 N593 1.318 . S
C598 C597 1.396 . S
H599 C594 0.929 . S
O600 Mn576 2.385 . S
O600 C578 1.234 . S
O601 Mn576 2.209 . S
O601 Mn577 2.215 . S
O601 C578 1.283 . S
O602 Mn576 2.094 . S
O602 C580 1.240 . S
O603 Mn577 2.117 . S
O603 C580 1.264 . S
C604 C597 1.403 . S
C604 C605 1.399 . S
C604 H610 0.929 . S
C605 C585 1.449 . S
C605 C604 1.399 . S
C605 H611 0.930 . S
H606 C586 0.931 . S
H607 C587 0.930 . S
H608 C595 0.931 . S
H609 C596 0.929 . S
H610 C604 0.929 . S
H611 C605 0.930 . S
Mn612 O617 2.095 . S
Mn612 O627 2.162 . S
Mn612 O628 2.297 . S
Mn612 O636 2.385 . S
Mn612 O637 2.209 . S
Mn612 O638 2.094 . S
Mn613 O618 2.121 . S
Mn613 N620 2.257 . S
Mn613 N629 2.282 . S
Mn613 O637 2.215 . S
Mn613 O639 2.117 . S
C614 O636 1.234 . S
C614 O637 1.283 . S
C615 O627 1.281 . S
C615 O628 1.236 . S
C616 O638 1.240 . S
C616 O639 1.264 . S
O617 Mn612 2.095 . S
O617 C626 1.250 . S
O618 Mn613 2.121 . S
O618 C626 1.258 . S
C619 N620 1.326 . S
C619 C623 1.460 . S
C619 H625 0.929 . S
N620 Mn613 2.257 . S
N620 C619 1.326 . S
N620 C624 1.362 . S
C621 C622 1.258 . S
C621 C624 1.431 . S
C621 C641 1.449 . S
C622 C621 1.258 . S
C622 C623 1.477 . S
C622 H642 0.931 . S
C623 C619 1.460 . S
C623 C622 1.477 . S
C623 H643 0.930 . S
C624 N620 1.362 . S
C624 C621 1.431 . S
C624 C634 1.476 . S
H625 C619 0.929 . S
C626 O617 1.250 . S
C626 O618 1.258 . S
O627 Mn612 2.162 . S
O627 C615 1.281 . S
O628 Mn612 2.297 . S
O628 C615 1.236 . S
N629 Mn613 2.282 . S
N629 C630 1.328 . S
N629 C634 1.318 . S
C630 N629 1.328 . S
C630 C631 1.457 . S
C630 H635 0.929 . S
C631 C630 1.457 . S
C631 C632 1.291 . S
C631 H644 0.931 . S
C632 C631 1.291 . S
C632 C633 1.373 . S
C632 H645 0.929 . S
C633 C632 1.373 . S
C633 C634 1.396 . S
C633 C640 1.403 . S
C634 C624 1.476 . S
C634 N629 1.318 . S
C634 C633 1.396 . S
H635 C630 0.929 . S
O636 Mn612 2.385 . S
O636 C614 1.234 . S
O637 Mn612 2.209 . S
O637 Mn613 2.215 . S
O637 C614 1.283 . S
O638 Mn612 2.094 . S
O638 C616 1.240 . S
O639 Mn613 2.117 . S
O639 C616 1.264 . S
C640 C633 1.403 . S
C640 C641 1.399 . S
C640 H646 0.929 . S
C641 C621 1.449 . S
C641 C640 1.399 . S
C641 H647 0.930 . S
H642 C622 0.931 . S
H643 C623 0.930 . S
H644 C631 0.931 . S
H645 C632 0.929 . S
H646 C640 0.929 . S
H647 C641 0.930 . S
Mn648 O653 2.095 . S
Mn648 O663 2.162 . S
Mn648 O664 2.297 . S
Mn648 O672 2.385 . S
Mn648 O673 2.209 . S
Mn648 O674 2.094 . S
Mn649 O654 2.121 . S
Mn649 N656 2.257 . S
Mn649 N665 2.282 . S
Mn649 O673 2.215 . S
Mn649 O675 2.117 . S
C650 O672 1.234 . S
C650 O673 1.283 . S
C651 O663 1.281 . S
C651 O664 1.236 . S
C652 O674 1.240 . S
C652 O675 1.264 . S
O653 Mn648 2.095 . S
O653 C662 1.250 . S
O654 Mn649 2.121 . S
O654 C662 1.258 . S
C655 N656 1.326 . S
C655 C659 1.460 . S
C655 H661 0.929 . S
N656 Mn649 2.257 . S
N656 C655 1.326 . S
N656 C660 1.362 . S
C657 C658 1.258 . S
C657 C660 1.431 . S
C657 C677 1.449 . S
C658 C657 1.258 . S
C658 C659 1.477 . S
C658 H678 0.931 . S
C659 C655 1.460 . S
C659 C658 1.477 . S
C659 H679 0.930 . S
C660 N656 1.362 . S
C660 C657 1.431 . S
C660 C670 1.476 . S
H661 C655 0.929 . S
C662 O653 1.250 . S
C662 O654 1.258 . S
O663 Mn648 2.162 . S
O663 C651 1.281 . S
O664 Mn648 2.297 . S
O664 C651 1.236 . S
N665 Mn649 2.282 . S
N665 C666 1.328 . S
N665 C670 1.318 . S
C666 N665 1.328 . S
C666 C667 1.457 . S
C666 H671 0.929 . S
C667 C666 1.457 . S
C667 C668 1.291 . S
C667 H680 0.931 . S
C668 C667 1.291 . S
C668 C669 1.373 . S
C668 H681 0.929 . S
C669 C668 1.373 . S
C669 C670 1.396 . S
C669 C676 1.403 . S
C670 C660 1.476 . S
C670 N665 1.318 . S
C670 C669 1.396 . S
H671 C666 0.929 . S
O672 Mn648 2.385 . S
O672 C650 1.234 . S
O673 Mn648 2.209 . S
O673 Mn649 2.215 . S
O673 C650 1.283 . S
O674 Mn648 2.094 . S
O674 C652 1.240 . S
O675 Mn649 2.117 . S
O675 C652 1.264 . S
C676 C669 1.403 . S
C676 C677 1.399 . S
C676 H682 0.929 . S
C677 C657 1.449 . S
C677 C676 1.399 . S
C677 H683 0.930 . S
H678 C658 0.931 . S
H679 C659 0.930 . S
H680 C667 0.931 . S
H681 C668 0.929 . S
H682 C676 0.929 . S
H683 C677 0.930 . S
Mn684 O689 2.095 . S
Mn684 O699 2.162 . S
Mn684 O700 2.297 . S
Mn684 O708 2.385 . S
Mn684 O709 2.209 . S
Mn684 O710 2.094 . S
Mn685 O690 2.121 . S
Mn685 N692 2.257 . S
Mn685 N701 2.282 . S
Mn685 O709 2.215 . S
Mn685 O711 2.117 . S
C686 O708 1.234 . S
C686 O709 1.283 . S
C687 O699 1.281 . S
C687 O700 1.236 . S
C688 O710 1.240 . S
C688 O711 1.264 . S
O689 Mn684 2.095 . S
O689 C698 1.250 . S
O690 Mn685 2.121 . S
O690 C698 1.258 . S
C691 N692 1.326 . S
C691 C695 1.460 . S
C691 H697 0.929 . S
N692 Mn685 2.257 . S
N692 C691 1.326 . S
N692 C696 1.362 . S
C693 C694 1.258 . S
C693 C696 1.431 . S
C693 C713 1.449 . S
C694 C693 1.258 . S
C694 C695 1.477 . S
C694 H714 0.931 . S
C695 C691 1.460 . S
C695 C694 1.477 . S
C695 H715 0.930 . S
C696 N692 1.362 . S
C696 C693 1.431 . S
C696 C706 1.476 . S
H697 C691 0.929 . S
C698 O689 1.250 . S
C698 O690 1.258 . S
O699 Mn684 2.162 . S
O699 C687 1.281 . S
O700 Mn684 2.297 . S
O700 C687 1.236 . S
N701 Mn685 2.282 . S
N701 C702 1.328 . S
N701 C706 1.318 . S
C702 N701 1.328 . S
C702 C703 1.457 . S
C702 H707 0.929 . S
C703 C702 1.457 . S
C703 C704 1.291 . S
C703 H716 0.931 . S
C704 C703 1.291 . S
C704 C705 1.373 . S
C704 H717 0.929 . S
C705 C704 1.373 . S
C705 C706 1.396 . S
C705 C712 1.403 . S
C706 C696 1.476 . S
C706 N701 1.318 . S
C706 C705 1.396 . S
H707 C702 0.929 . S
O708 Mn684 2.385 . S
O708 C686 1.234 . S
O709 Mn684 2.209 . S
O709 Mn685 2.215 . S
O709 C686 1.283 . S
O710 Mn684 2.094 . S
O710 C688 1.240 . S
O711 Mn685 2.117 . S
O711 C688 1.264 . S
C712 C705 1.403 . S
C712 C713 1.399 . S
C712 H718 0.929 . S
C713 C693 1.449 . S
C713 C712 1.399 . S
C713 H719 0.930 . S
H714 C694 0.931 . S
H715 C695 0.930 . S
H716 C703 0.931 . S
H717 C704 0.929 . S
H718 C712 0.929 . S
H719 C713 0.930 . S
Mn720 O725 2.095 . S
Mn720 O735 2.162 . S
Mn720 O736 2.297 . S
Mn720 O744 2.385 . S
Mn720 O745 2.209 . S
Mn720 O746 2.094 . S
Mn721 O726 2.121 . S
Mn721 N728 2.257 . S
Mn721 N737 2.282 . S
Mn721 O745 2.215 . S
Mn721 O747 2.117 . S
C722 O744 1.234 . S
C722 O745 1.283 . S
C723 O735 1.281 . S
C723 O736 1.236 . S
C724 O746 1.240 . S
C724 O747 1.264 . S
O725 Mn720 2.095 . S
O725 C734 1.250 . S
O726 Mn721 2.121 . S
O726 C734 1.258 . S
C727 N728 1.326 . S
C727 C731 1.460 . S
C727 H733 0.929 . S
N728 Mn721 2.257 . S
N728 C727 1.326 . S
N728 C732 1.362 . S
C729 C730 1.258 . S
C729 C732 1.431 . S
C729 C749 1.449 . S
C730 C729 1.258 . S
C730 C731 1.477 . S
C730 H750 0.931 . S
C731 C727 1.460 . S
C731 C730 1.477 . S
C731 H751 0.930 . S
C732 N728 1.362 . S
C732 C729 1.431 . S
C732 C742 1.476 . S
H733 C727 0.929 . S
C734 O725 1.250 . S
C734 O726 1.258 . S
O735 Mn720 2.162 . S
O735 C723 1.281 . S
O736 Mn720 2.297 . S
O736 C723 1.236 . S
N737 Mn721 2.282 . S
N737 C738 1.328 . S
N737 C742 1.318 . S
C738 N737 1.328 . S
C738 C739 1.457 . S
C738 H743 0.929 . S
C739 C738 1.457 . S
C739 C740 1.291 . S
C739 H752 0.931 . S
C740 C739 1.291 . S
C740 C741 1.373 . S
C740 H753 0.929 . S
C741 C740 1.373 . S
C741 C742 1.396 . S
C741 C748 1.403 . S
C742 C732 1.476 . S
C742 N737 1.318 . S
C742 C741 1.396 . S
H743 C738 0.929 . S
O744 Mn720 2.385 . S
O744 C722 1.234 . S
O745 Mn720 2.209 . S
O745 Mn721 2.215 . S
O745 C722 1.283 . S
O746 Mn720 2.094 . S
O746 C724 1.240 . S
O747 Mn721 2.117 . S
O747 C724 1.264 . S
C748 C741 1.403 . S
C748 C749 1.399 . S
C748 H754 0.929 . S
C749 C729 1.449 . S
C749 C748 1.399 . S
C749 H755 0.930 . S
H750 C730 0.931 . S
H751 C731 0.930 . S
H752 C739 0.931 . S
H753 C740 0.929 . S
H754 C748 0.929 . S
H755 C749 0.930 . S
Mn756 O761 2.095 . S
Mn756 O771 2.162 . S
Mn756 O772 2.297 . S
Mn756 O780 2.385 . S
Mn756 O781 2.209 . S
Mn756 O782 2.094 . S
Mn757 O762 2.121 . S
Mn757 N764 2.257 . S
Mn757 N773 2.282 . S
Mn757 O781 2.215 . S
Mn757 O783 2.117 . S
C758 O780 1.234 . S
C758 O781 1.283 . S
C759 O771 1.281 . S
C759 O772 1.236 . S
C760 O782 1.240 . S
C760 O783 1.264 . S
O761 Mn756 2.095 . S
O761 C770 1.250 . S
O762 Mn757 2.121 . S
O762 C770 1.258 . S
C763 N764 1.326 . S
C763 C767 1.460 . S
C763 H769 0.929 . S
N764 Mn757 2.257 . S
N764 C763 1.326 . S
N764 C768 1.362 . S
C765 C766 1.258 . S
C765 C768 1.431 . S
C765 C785 1.449 . S
C766 C765 1.258 . S
C766 C767 1.477 . S
C766 H786 0.931 . S
C767 C763 1.460 . S
C767 C766 1.477 . S
C767 H787 0.930 . S
C768 N764 1.362 . S
C768 C765 1.431 . S
C768 C778 1.476 . S
H769 C763 0.929 . S
C770 O761 1.250 . S
C770 O762 1.258 . S
O771 Mn756 2.162 . S
O771 C759 1.281 . S
O772 Mn756 2.297 . S
O772 C759 1.236 . S
N773 Mn757 2.282 . S
N773 C774 1.328 . S
N773 C778 1.318 . S
C774 N773 1.328 . S
C774 C775 1.457 . S
C774 H779 0.929 . S
C775 C774 1.457 . S
C775 C776 1.291 . S
C775 H788 0.931 . S
C776 C775 1.291 . S
C776 C777 1.373 . S
C776 H789 0.929 . S
C777 C776 1.373 . S
C777 C778 1.396 . S
C777 C784 1.403 . S
C778 C768 1.476 . S
C778 N773 1.318 . S
C778 C777 1.396 . S
H779 C774 0.929 . S
O780 Mn756 2.385 . S
O780 C758 1.234 . S
O781 Mn756 2.209 . S
O781 Mn757 2.215 . S
O781 C758 1.283 . S
O782 Mn756 2.094 . S
O782 C760 1.240 . S
O783 Mn757 2.117 . S
O783 C760 1.264 . S
C784 C777 1.403 . S
C784 C785 1.399 . S
C784 H790 0.929 . S
C785 C765 1.449 . S
C785 C784 1.399 . S
C785 H791 0.930 . S
H786 C766 0.931 . S
H787 C767 0.930 . S
H788 C775 0.931 . S
H789 C776 0.929 . S
H790 C784 0.929 . S
H791 C785 0.930 . S
Mn792 O797 2.095 . S
Mn792 O807 2.162 . S
Mn792 O808 2.297 . S
Mn792 O816 2.385 . S
Mn792 O817 2.209 . S
Mn792 O818 2.094 . S
Mn793 O798 2.121 . S
Mn793 N800 2.257 . S
Mn793 N809 2.282 . S
Mn793 O817 2.215 . S
Mn793 O819 2.117 . S
C794 O816 1.234 . S
C794 O817 1.283 . S
C795 O807 1.281 . S
C795 O808 1.236 . S
C796 O818 1.240 . S
C796 O819 1.264 . S
O797 Mn792 2.095 . S
O797 C806 1.250 . S
O798 Mn793 2.121 . S
O798 C806 1.258 . S
C799 N800 1.326 . S
C799 C803 1.460 . S
C799 H805 0.929 . S
N800 Mn793 2.257 . S
N800 C799 1.326 . S
N800 C804 1.362 . S
C801 C802 1.258 . S
C801 C804 1.431 . S
C801 C821 1.449 . S
C802 C801 1.258 . S
C802 C803 1.477 . S
C802 H822 0.931 . S
C803 C799 1.460 . S
C803 C802 1.477 . S
C803 H823 0.930 . S
C804 N800 1.362 . S
C804 C801 1.431 . S
C804 C814 1.476 . S
H805 C799 0.929 . S
C806 O797 1.250 . S
C806 O798 1.258 . S
O807 Mn792 2.162 . S
O807 C795 1.281 . S
O808 Mn792 2.297 . S
O808 C795 1.236 . S
N809 Mn793 2.282 . S
N809 C810 1.328 . S
N809 C814 1.318 . S
C810 N809 1.328 . S
C810 C811 1.457 . S
C810 H815 0.929 . S
C811 C810 1.457 . S
C811 C812 1.291 . S
C811 H824 0.931 . S
C812 C811 1.291 . S
C812 C813 1.373 . S
C812 H825 0.929 . S
C813 C812 1.373 . S
C813 C814 1.396 . S
C813 C820 1.403 . S
C814 C804 1.476 . S
C814 N809 1.318 . S
C814 C813 1.396 . S
H815 C810 0.929 . S
O816 Mn792 2.385 . S
O816 C794 1.234 . S
O817 Mn792 2.209 . S
O817 Mn793 2.215 . S
O817 C794 1.283 . S
O818 Mn792 2.094 . S
O818 C796 1.240 . S
O819 Mn793 2.117 . S
O819 C796 1.264 . S
C820 C813 1.403 . S
C820 C821 1.399 . S
C820 H826 0.929 . S
C821 C801 1.449 . S
C821 C820 1.399 . S
C821 H827 0.930 . S
H822 C802 0.931 . S
H823 C803 0.930 . S
H824 C811 0.931 . S
H825 C812 0.929 . S
H826 C820 0.929 . S
H827 C821 0.930 . S
Mn828 O833 2.095 . S
Mn828 O843 2.162 . S
Mn828 O844 2.297 . S
Mn828 O852 2.385 . S
Mn828 O853 2.209 . S
Mn828 O854 2.094 . S
Mn829 O834 2.121 . S
Mn829 N836 2.257 . S
Mn829 N845 2.282 . S
Mn829 O853 2.215 . S
Mn829 O855 2.117 . S
C830 O852 1.234 . S
C830 O853 1.283 . S
C831 O843 1.281 . S
C831 O844 1.236 . S
C832 O854 1.240 . S
C832 O855 1.264 . S
O833 Mn828 2.095 . S
O833 C842 1.250 . S
O834 Mn829 2.121 . S
O834 C842 1.258 . S
C835 N836 1.326 . S
C835 C839 1.460 . S
C835 H841 0.929 . S
N836 Mn829 2.257 . S
N836 C835 1.326 . S
N836 C840 1.362 . S
C837 C838 1.258 . S
C837 C840 1.431 . S
C837 C857 1.449 . S
C838 C837 1.258 . S
C838 C839 1.477 . S
C838 H858 0.931 . S
C839 C835 1.460 . S
C839 C838 1.477 . S
C839 H859 0.930 . S
C840 N836 1.362 . S
C840 C837 1.431 . S
C840 C850 1.476 . S
H841 C835 0.929 . S
C842 O833 1.250 . S
C842 O834 1.258 . S
O843 Mn828 2.162 . S
O843 C831 1.281 . S
O844 Mn828 2.297 . S
O844 C831 1.236 . S
N845 Mn829 2.282 . S
N845 C846 1.328 . S
N845 C850 1.318 . S
C846 N845 1.328 . S
C846 C847 1.457 . S
C846 H851 0.929 . S
C847 C846 1.457 . S
C847 C848 1.291 . S
C847 H860 0.931 . S
C848 C847 1.291 . S
C848 C849 1.373 . S
C848 H861 0.929 . S
C849 C848 1.373 . S
C849 C850 1.396 . S
C849 C856 1.403 . S
C850 C840 1.476 . S
C850 N845 1.318 . S
C850 C849 1.396 . S
H851 C846 0.929 . S
O852 Mn828 2.385 . S
O852 C830 1.234 . S
O853 Mn828 2.209 . S
O853 Mn829 2.215 . S
O853 C830 1.283 . S
O854 Mn828 2.094 . S
O854 C832 1.240 . S
O855 Mn829 2.117 . S
O855 C832 1.264 . S
C856 C849 1.403 . S
C856 C857 1.399 . S
C856 H862 0.929 . S
C857 C837 1.449 . S
C857 C856 1.399 . S
C857 H863 0.930 . S
H858 C838 0.931 . S
H859 C839 0.930 . S
H860 C847 0.931 . S
H861 C848 0.929 . S
H862 C856 0.929 . S
H863 C857 0.930 . S
H864 C872 0.929 . S
H865 C874 0.930 . S
H866 C876 0.930 . S
H867 C879 0.929 . S
H868 C882 0.930 . S
H869 C884 0.960 . S
H870 C884 0.960 . S
H871 C884 0.960 . S
C872 H864 0.929 . S
C872 C873 1.377 . S
C872 C874 1.384 . S
C873 C872 1.377 . S
C873 C879 1.390 . S
C874 H865 0.930 . S
C874 C872 1.384 . S
C874 C875 1.372 . S
C875 C874 1.372 . S
C875 C876 1.400 . S
C875 C880 1.490 . S
C876 H866 0.930 . S
C876 C875 1.400 . S
C876 C879 1.386 . S
H877 C893 0.930 . S
H878 C894 0.931 . S
C879 H867 0.929 . S
C879 C873 1.390 . S
C879 C876 1.386 . S
C880 C875 1.490 . S
C880 C882 1.395 . S
C880 C883 1.403 . S
H881 C887 0.930 . S
C882 H868 0.930 . S
C882 C880 1.395 . S
C882 C885 1.403 1_545 S
C883 C880 1.403 . S
C883 C884 1.524 . S
C883 C887 1.400 1_545 S
C884 H869 0.960 . S
C884 H870 0.960 . S
C884 H871 0.960 . S
C884 C883 1.524 . S
C885 C882 1.403 1_565 S
C885 C886 1.392 . S
C885 C889 1.495 . S
C886 C885 1.392 . S
C886 C887 1.385 . S
C886 C888 1.478 . S
C887 H881 0.930 . S
C887 C883 1.400 1_565 S
C887 C886 1.385 . S
C888 C886 1.478 . S
C888 C890 1.381 . S
C888 C894 1.383 . S
C889 C885 1.495 . S
C889 H895 0.959 . S
C889 H896 0.961 . S
C889 H897 0.960 . S
C890 C888 1.381 . S
C890 C891 1.394 . S
C890 H898 0.930 . S
C891 C890 1.394 . S
C891 C892 1.383 . S
C891 H899 0.929 . S
C892 C891 1.383 . S
C892 C893 1.377 . S
C893 H877 0.930 . S
C893 C892 1.377 . S
C893 C894 1.379 . S
C894 H878 0.931 . S
C894 C888 1.383 . S
C894 C893 1.379 . S
H895 C889 0.959 . S
H896 C889 0.961 . S
H897 C889 0.960 . S
H898 C890 0.930 . S
H899 C891 0.929 . S
H900 C908 0.929 . S
H901 C910 0.930 . S
H902 C912 0.930 . S
H903 C915 0.929 . S
H904 C918 0.930 . S
H905 C920 0.960 . S
H906 C920 0.960 . S
H907 C920 0.960 . S
C908 H900 0.929 . S
C908 C909 1.377 . S
C908 C910 1.384 . S
C909 C908 1.377 . S
C909 C915 1.390 . S
C910 H901 0.930 . S
C910 C908 1.384 . S
C910 C911 1.372 . S
C911 C910 1.372 . S
C911 C912 1.400 . S
C911 C916 1.490 . S
C912 H902 0.930 . S
C912 C911 1.400 . S
C912 C915 1.386 . S
H913 C929 0.930 . S
H914 C930 0.931 . S
C915 H903 0.929 . S
C915 C909 1.390 . S
C915 C912 1.386 . S
C916 C911 1.490 . S
C916 C918 1.395 . S
C916 C919 1.403 . S
H917 C923 0.930 . S
C918 H904 0.930 . S
C918 C916 1.395 . S
C918 C921 1.403 . S
C919 C916 1.403 . S
C919 C920 1.524 . S
C919 C923 1.400 . S
C920 H905 0.960 . S
C920 H906 0.960 . S
C920 H907 0.960 . S
C920 C919 1.524 . S
C921 C918 1.403 . S
C921 C922 1.392 . S
C921 C925 1.495 . S
C922 C921 1.392 . S
C922 C923 1.385 . S
C922 C924 1.478 . S
C923 H917 0.930 . S
C923 C919 1.400 . S
C923 C922 1.385 . S
C924 C922 1.478 . S
C924 C926 1.381 . S
C924 C930 1.383 . S
C925 C921 1.495 . S
C925 H931 0.959 . S
C925 H932 0.961 . S
C925 H933 0.960 . S
C926 C924 1.381 . S
C926 C927 1.394 . S
C926 H934 0.930 . S
C927 C926 1.394 . S
C927 C928 1.383 . S
C927 H935 0.929 . S
C928 C927 1.383 . S
C928 C929 1.377 . S
C929 H913 0.930 . S
C929 C928 1.377 . S
C929 C930 1.379 . S
C930 H914 0.931 . S
C930 C924 1.383 . S
C930 C929 1.379 . S
H931 C925 0.959 . S
H932 C925 0.961 . S
H933 C925 0.960 . S
H934 C926 0.930 . S
H935 C927 0.929 . S
H936 C944 0.929 . S
H937 C946 0.930 . S
H938 C948 0.930 . S
H939 C951 0.929 . S
H940 C954 0.930 . S
H941 C956 0.960 1_455 S
H942 C956 0.960 . S
H943 C956 0.960 . S
C944 H936 0.929 . S
C944 C945 1.377 . S
C944 C946 1.384 . S
C945 C944 1.377 . S
C945 C951 1.390 . S
C946 H937 0.930 . S
C946 C944 1.384 . S
C946 C947 1.372 . S
C947 C946 1.372 . S
C947 C948 1.400 . S
C947 C952 1.490 . S
C948 H938 0.930 . S
C948 C947 1.400 . S
C948 C951 1.386 . S
H949 C965 0.930 . S
H950 C966 0.931 . S
C951 H939 0.929 . S
C951 C945 1.390 . S
C951 C948 1.386 . S
C952 C947 1.490 . S
C952 C954 1.395 . S
C952 C955 1.403 . S
H953 C959 0.930 . S
C954 H940 0.930 . S
C954 C952 1.395 . S
C954 C957 1.403 1_655 S
C955 C952 1.403 . S
C955 C956 1.524 . S
C955 C959 1.400 1_655 S
C956 H941 0.960 1_655 S
C956 H942 0.960 . S
C956 H943 0.960 . S
C956 C955 1.524 . S
C957 C954 1.403 1_455 S
C957 C958 1.392 . S
C957 C961 1.495 . S
C958 C957 1.392 . S
C958 C959 1.385 . S
C958 C960 1.478 . S
C959 H953 0.930 . S
C959 C955 1.400 1_455 S
C959 C958 1.385 . S
C960 C958 1.478 . S
C960 C962 1.381 . S
C960 C966 1.383 . S
C961 C957 1.495 . S
C961 H967 0.959 1_455 S
C961 H968 0.961 . S
C961 H969 0.960 . S
C962 C960 1.381 . S
C962 C963 1.394 . S
C962 H970 0.930 . S
C963 C962 1.394 . S
C963 C964 1.383 . S
C963 H971 0.929 . S
C964 C963 1.383 . S
C964 C965 1.377 . S
C965 H949 0.930 . S
C965 C964 1.377 . S
C965 C966 1.379 . S
C966 H950 0.931 . S
C966 C960 1.383 . S
C966 C965 1.379 . S
H967 C961 0.959 1_655 S
H968 C961 0.961 . S
H969 C961 0.960 . S
H970 C962 0.930 . S
H971 C963 0.929 . S
H972 C980 0.929 . S
H973 C982 0.930 . S
H974 C984 0.930 . S
H975 C987 0.929 . S
H976 C990 0.930 . S
H977 C992 0.960 1_545 S
H978 C992 0.960 . S
H979 C992 0.960 . S
C980 H972 0.929 . S
C980 C981 1.377 . S
C980 C982 1.384 . S
C981 C980 1.377 . S
C981 C987 1.390 . S
C982 H973 0.930 . S
C982 C980 1.384 . S
C982 C983 1.372 . S
C983 C982 1.372 . S
C983 C984 1.400 . S
C983 C988 1.490 . S
C984 H974 0.930 . S
C984 C983 1.400 . S
C984 C987 1.386 . S
H985 C1001 0.930 . S
H986 C1002 0.931 . S
C987 H975 0.929 . S
C987 C981 1.390 . S
C987 C984 1.386 . S
C988 C983 1.490 . S
C988 C990 1.395 . S
C988 C991 1.403 . S
H989 C995 0.930 . S
C990 H976 0.930 . S
C990 C988 1.395 . S
C990 C993 1.403 1_565 S
C991 C988 1.403 . S
C991 C992 1.524 . S
C991 C995 1.400 1_565 S
C992 H977 0.960 1_565 S
C992 H978 0.960 . S
C992 H979 0.960 . S
C992 C991 1.524 . S
C993 C990 1.403 1_545 S
C993 C994 1.392 . S
C993 C997 1.495 . S
C994 C993 1.392 . S
C994 C995 1.385 . S
C994 C996 1.478 . S
C995 H989 0.930 . S
C995 C991 1.400 1_545 S
C995 C994 1.385 . S
C996 C994 1.478 . S
C996 C998 1.381 . S
C996 C1002 1.383 . S
C997 C993 1.495 . S
C997 H1003 0.959 1_545 S
C997 H1004 0.961 . S
C997 H1005 0.960 . S
C998 C996 1.381 . S
C998 C999 1.394 . S
C998 H1006 0.930 . S
C999 C998 1.394 . S
C999 C1000 1.383 . S
C999 H1007 0.929 . S
C1000 C999 1.383 . S
C1000 C1001 1.377 . S
C1001 H985 0.930 . S
C1001 C1000 1.377 . S
C1001 C1002 1.379 . S
C1002 H986 0.931 . S
C1002 C996 1.383 . S
C1002 C1001 1.379 . S
H1003 C997 0.959 1_565 S
H1004 C997 0.961 . S
H1005 C997 0.960 . S
H1006 C998 0.930 . S
H1007 C999 0.929 . S
H1008 C1016 0.929 . S
H1009 C1018 0.930 . S
H1010 C1020 0.930 . S
H1011 C1023 0.929 . S
H1012 C1026 0.930 . S
H1013 C1028 0.960 . S
H1014 C1028 0.960 . S
H1015 C1028 0.960 . S
C1016 H1008 0.929 . S
C1016 C1017 1.377 . S
C1016 C1018 1.384 . S
C1017 C1016 1.377 . S
C1017 C1023 1.390 . S
C1018 H1009 0.930 . S
C1018 C1016 1.384 . S
C1018 C1019 1.372 . S
C1019 C1018 1.372 . S
C1019 C1020 1.400 . S
C1019 C1024 1.490 . S
C1020 H1010 0.930 . S
C1020 C1019 1.400 . S
C1020 C1023 1.386 . S
H1021 C1037 0.930 . S
H1022 C1038 0.931 . S
C1023 H1011 0.929 . S
C1023 C1017 1.390 . S
C1023 C1020 1.386 . S
C1024 C1019 1.490 . S
C1024 C1026 1.395 . S
C1024 C1027 1.403 . S
H1025 C1031 0.930 . S
C1026 H1012 0.930 . S
C1026 C1024 1.395 . S
C1026 C1029 1.403 . S
C1027 C1024 1.403 . S
C1027 C1028 1.524 . S
C1027 C1031 1.400 . S
C1028 H1013 0.960 . S
C1028 H1014 0.960 . S
C1028 H1015 0.960 . S
C1028 C1027 1.524 . S
C1029 C1026 1.403 . S
C1029 C1030 1.392 . S
C1029 C1033 1.495 . S
C1030 C1029 1.392 . S
C1030 C1031 1.385 . S
C1030 C1032 1.478 . S
C1031 H1025 0.930 . S
C1031 C1027 1.400 . S
C1031 C1030 1.385 . S
C1032 C1030 1.478 . S
C1032 C1034 1.381 . S
C1032 C1038 1.383 . S
C1033 C1029 1.495 . S
C1033 H1039 0.959 . S
C1033 H1040 0.961 . S
C1033 H1041 0.960 . S
C1034 C1032 1.381 . S
C1034 C1035 1.394 . S
C1034 H1042 0.930 . S
C1035 C1034 1.394 . S
C1035 C1036 1.383 . S
C1035 H1043 0.929 . S
C1036 C1035 1.383 . S
C1036 C1037 1.377 . S
C1037 H1021 0.930 . S
C1037 C1036 1.377 . S
C1037 C1038 1.379 . S
C1038 H1022 0.931 . S
C1038 C1032 1.383 . S
C1038 C1037 1.379 . S
H1039 C1033 0.959 . S
H1040 C1033 0.961 . S
H1041 C1033 0.960 . S
H1042 C1034 0.930 . S
H1043 C1035 0.929 . S
H1044 C1052 0.929 . S
H1045 C1054 0.930 . S
H1046 C1056 0.930 . S
H1047 C1059 0.929 . S
H1048 C1062 0.930 . S
H1049 C1064 0.960 . S
H1050 C1064 0.960 . S
H1051 C1064 0.960 . S
C1052 H1044 0.929 . S
C1052 C1053 1.377 . S
C1052 C1054 1.384 . S
C1053 C1052 1.377 . S
C1053 C1059 1.390 . S
C1054 H1045 0.930 . S
C1054 C1052 1.384 . S
C1054 C1055 1.372 . S
C1055 C1054 1.372 . S
C1055 C1056 1.400 . S
C1055 C1060 1.490 . S
C1056 H1046 0.930 . S
C1056 C1055 1.400 . S
C1056 C1059 1.386 . S
H1057 C1073 0.930 . S
H1058 C1074 0.931 . S
C1059 H1047 0.929 . S
C1059 C1053 1.390 . S
C1059 C1056 1.386 . S
C1060 C1055 1.490 . S
C1060 C1062 1.395 . S
C1060 C1063 1.403 . S
H1061 C1067 0.930 . S
C1062 H1048 0.930 . S
C1062 C1060 1.395 . S
C1062 C1065 1.403 1_455 S
C1063 C1060 1.403 . S
C1063 C1064 1.524 . S
C1063 C1067 1.400 1_455 S
C1064 H1049 0.960 . S
C1064 H1050 0.960 . S
C1064 H1051 0.960 . S
C1064 C1063 1.524 . S
C1065 C1062 1.403 1_655 S
C1065 C1066 1.392 . S
C1065 C1069 1.495 . S
C1066 C1065 1.392 . S
C1066 C1067 1.385 . S
C1066 C1068 1.478 . S
C1067 H1061 0.930 . S
C1067 C1063 1.400 1_655 S
C1067 C1066 1.385 . S
C1068 C1066 1.478 . S
C1068 C1070 1.381 . S
C1068 C1074 1.383 . S
C1069 C1065 1.495 . S
C1069 H1075 0.959 . S
C1069 H1076 0.961 . S
C1069 H1077 0.960 . S
C1070 C1068 1.381 . S
C1070 C1071 1.394 . S
C1070 H1078 0.930 . S
C1071 C1070 1.394 . S
C1071 C1072 1.383 . S
C1071 H1079 0.929 . S
C1072 C1071 1.383 . S
C1072 C1073 1.377 . S
C1073 H1057 0.930 . S
C1073 C1072 1.377 . S
C1073 C1074 1.379 . S
C1074 H1058 0.931 . S
C1074 C1068 1.383 . S
C1074 C1073 1.379 . S
H1075 C1069 0.959 . S
H1076 C1069 0.961 . S
H1077 C1069 0.960 . S
H1078 C1070 0.930 . S
H1079 C1071 0.929 . S
H1080 C1088 0.929 . S
H1081 C1090 0.930 . S
H1082 C1092 0.930 . S
H1083 C1095 0.929 . S
H1084 C1098 0.930 . S
H1085 C1100 0.960 1_545 S
H1086 C1100 0.960 . S
H1087 C1100 0.960 . S
C1088 H1080 0.929 . S
C1088 C1089 1.377 . S
C1088 C1090 1.384 . S
C1089 C1088 1.377 . S
C1089 C1095 1.390 . S
C1090 H1081 0.930 . S
C1090 C1088 1.384 . S
C1090 C1091 1.372 . S
C1091 C1090 1.372 . S
C1091 C1092 1.400 . S
C1091 C1096 1.490 . S
C1092 H1082 0.930 . S
C1092 C1091 1.400 . S
C1092 C1095 1.386 . S
H1093 C1109 0.930 . S
H1094 C1110 0.931 . S
C1095 H1083 0.929 . S
C1095 C1089 1.390 . S
C1095 C1092 1.386 . S
C1096 C1091 1.490 . S
C1096 C1098 1.395 . S
C1096 C1099 1.403 . S
H1097 C1103 0.930 . S
C1098 H1084 0.930 . S
C1098 C1096 1.395 . S
C1098 C1101 1.403 1_565 S
C1099 C1096 1.403 . S
C1099 C1100 1.524 . S
C1099 C1103 1.400 1_565 S
C1100 H1085 0.960 1_565 S
C1100 H1086 0.960 . S
C1100 H1087 0.960 . S
C1100 C1099 1.524 . S
C1101 C1098 1.403 1_545 S
C1101 C1102 1.392 . S
C1101 C1105 1.495 . S
C1102 C1101 1.392 . S
C1102 C1103 1.385 . S
C1102 C1104 1.478 . S
C1103 H1097 0.930 . S
C1103 C1099 1.400 1_545 S
C1103 C1102 1.385 . S
C1104 C1102 1.478 . S
C1104 C1106 1.381 . S
C1104 C1110 1.383 . S
C1105 C1101 1.495 . S
C1105 H1111 0.959 1_545 S
C1105 H1112 0.961 . S
C1105 H1113 0.960 . S
C1106 C1104 1.381 . S
C1106 C1107 1.394 . S
C1106 H1114 0.930 . S
C1107 C1106 1.394 . S
C1107 C1108 1.383 . S
C1107 H1115 0.929 . S
C1108 C1107 1.383 . S
C1108 C1109 1.377 . S
C1109 H1093 0.930 . S
C1109 C1108 1.377 . S
C1109 C1110 1.379 . S
C1110 H1094 0.931 . S
C1110 C1104 1.383 . S
C1110 C1109 1.379 . S
H1111 C1105 0.959 1_565 S
H1112 C1105 0.961 . S
H1113 C1105 0.960 . S
H1114 C1106 0.930 . S
H1115 C1107 0.929 . S
H1116 C1124 0.929 . S
H1117 C1126 0.930 . S
H1118 C1128 0.930 . S
H1119 C1131 0.929 . S
H1120 C1134 0.930 . S
H1121 C1136 0.960 . S
H1122 C1136 0.960 . S
H1123 C1136 0.960 . S
C1124 H1116 0.929 . S
C1124 C1125 1.377 . S
C1124 C1126 1.384 . S
C1125 C1124 1.377 . S
C1125 C1131 1.390 . S
C1126 H1117 0.930 . S
C1126 C1124 1.384 . S
C1126 C1127 1.372 . S
C1127 C1126 1.372 . S
C1127 C1128 1.400 . S
C1127 C1132 1.490 . S
C1128 H1118 0.930 . S
C1128 C1127 1.400 . S
C1128 C1131 1.386 . S
H1129 C1145 0.930 . S
H1130 C1146 0.931 . S
C1131 H1119 0.929 . S
C1131 C1125 1.390 . S
C1131 C1128 1.386 . S
C1132 C1127 1.490 . S
C1132 C1134 1.395 . S
C1132 C1135 1.403 . S
H1133 C1139 0.930 . S
C1134 H1120 0.930 . S
C1134 C1132 1.395 . S
C1134 C1137 1.403 . S
C1135 C1132 1.403 . S
C1135 C1136 1.524 . S
C1135 C1139 1.400 . S
C1136 H1121 0.960 . S
C1136 H1122 0.960 . S
C1136 H1123 0.960 . S
C1136 C1135 1.524 . S
C1137 C1134 1.403 . S
C1137 C1138 1.392 . S
C1137 C1141 1.495 . S
C1138 C1137 1.392 . S
C1138 C1139 1.385 . S
C1138 C1140 1.478 . S
C1139 H1133 0.930 . S
C1139 C1135 1.400 . S
C1139 C1138 1.385 . S
C1140 C1138 1.478 . S
C1140 C1142 1.381 . S
C1140 C1146 1.383 . S
C1141 C1137 1.495 . S
C1141 H1147 0.959 . S
C1141 H1148 0.961 . S
C1141 H1149 0.960 . S
C1142 C1140 1.381 . S
C1142 C1143 1.394 . S
C1142 H1150 0.930 . S
C1143 C1142 1.394 . S
C1143 C1144 1.383 . S
C1143 H1151 0.929 . S
C1144 C1143 1.383 . S
C1144 C1145 1.377 . S
C1145 H1129 0.930 . S
C1145 C1144 1.377 . S
C1145 C1146 1.379 . S
C1146 H1130 0.931 . S
C1146 C1140 1.383 . S
C1146 C1145 1.379 . S
H1147 C1141 0.959 . S
H1148 C1141 0.961 . S
H1149 C1141 0.960 . S
H1150 C1142 0.930 . S
H1151 C1143 0.929 . S
H1152 C1160 0.929 . S
H1153 C1162 0.930 . S
H1154 C1164 0.930 . S
H1155 C1167 0.929 . S
H1156 C1170 0.930 . S
H1157 C1172 0.960 . S
H1158 C1172 0.960 . S
H1159 C1172 0.960 . S
C1160 H1152 0.929 . S
C1160 C1161 1.377 . S
C1160 C1162 1.384 . S
C1161 C1160 1.377 . S
C1161 C1167 1.390 . S
C1162 H1153 0.930 . S
C1162 C1160 1.384 . S
C1162 C1163 1.372 . S
C1163 C1162 1.372 . S
C1163 C1164 1.400 . S
C1163 C1168 1.490 . S
C1164 H1154 0.930 . S
C1164 C1163 1.400 . S
C1164 C1167 1.386 . S
H1165 C1181 0.930 . S
H1166 C1182 0.931 . S
C1167 H1155 0.929 . S
C1167 C1161 1.390 . S
C1167 C1164 1.386 . S
C1168 C1163 1.490 . S
C1168 C1170 1.395 . S
C1168 C1171 1.403 . S
H1169 C1175 0.930 . S
C1170 H1156 0.930 . S
C1170 C1168 1.395 . S
C1170 C1173 1.403 1_655 S
C1171 C1168 1.403 . S
C1171 C1172 1.524 . S
C1171 C1175 1.400 1_655 S
C1172 H1157 0.960 . S
C1172 H1158 0.960 . S
C1172 H1159 0.960 . S
C1172 C1171 1.524 . S
C1173 C1170 1.403 1_455 S
C1173 C1174 1.392 . S
C1173 C1177 1.495 . S
C1174 C1173 1.392 . S
C1174 C1175 1.385 . S
C1174 C1176 1.478 . S
C1175 H1169 0.930 . S
C1175 C1171 1.400 1_455 S
C1175 C1174 1.385 . S
C1176 C1174 1.478 . S
C1176 C1178 1.381 . S
C1176 C1182 1.383 . S
C1177 C1173 1.495 . S
C1177 H1183 0.959 . S
C1177 H1184 0.961 . S
C1177 H1185 0.960 . S
C1178 C1176 1.381 . S
C1178 C1179 1.394 . S
C1178 H1186 0.930 . S
C1179 C1178 1.394 . S
C1179 C1180 1.383 . S
C1179 H1187 0.929 . S
C1180 C1179 1.383 . S
C1180 C1181 1.377 . S
C1181 H1165 0.930 . S
C1181 C1180 1.377 . S
C1181 C1182 1.379 . S
C1182 H1166 0.931 . S
C1182 C1176 1.383 . S
C1182 C1181 1.379 . S
H1183 C1177 0.959 . S
H1184 C1177 0.961 . S
H1185 C1177 0.960 . S
H1186 C1178 0.930 . S
H1187 C1179 0.929 . S
H1188 C1196 0.929 . S
H1189 C1198 0.930 . S
H1190 C1200 0.930 . S
H1191 C1203 0.929 . S
H1192 C1206 0.930 . S
H1193 C1208 0.960 1_565 S
H1194 C1208 0.960 . S
H1195 C1208 0.960 . S
C1196 H1188 0.929 . S
C1196 C1197 1.377 . S
C1196 C1198 1.384 . S
C1197 C1196 1.377 . S
C1197 C1203 1.390 . S
C1198 H1189 0.930 . S
C1198 C1196 1.384 . S
C1198 C1199 1.372 . S
C1199 C1198 1.372 . S
C1199 C1200 1.400 . S
C1199 C1204 1.490 . S
C1200 H1190 0.930 . S
C1200 C1199 1.400 . S
C1200 C1203 1.386 . S
H1201 C1217 0.930 . S
H1202 C1218 0.931 . S
C1203 H1191 0.929 . S
C1203 C1197 1.390 . S
C1203 C1200 1.386 . S
C1204 C1199 1.490 . S
C1204 C1206 1.395 . S
C1204 C1207 1.403 . S
H1205 C1211 0.930 . S
C1206 H1192 0.930 . S
C1206 C1204 1.395 . S
C1206 C1209 1.403 1_545 S
C1207 C1204 1.403 . S
C1207 C1208 1.524 . S
C1207 C1211 1.400 1_545 S
C1208 H1193 0.960 1_545 S
C1208 H1194 0.960 . S
C1208 H1195 0.960 . S
C1208 C1207 1.524 . S
C1209 C1206 1.403 1_565 S
C1209 C1210 1.392 . S
C1209 C1213 1.495 . S
C1210 C1209 1.392 . S
C1210 C1211 1.385 . S
C1210 C1212 1.478 . S
C1211 H1205 0.930 . S
C1211 C1207 1.400 1_565 S
C1211 C1210 1.385 . S
C1212 C1210 1.478 . S
C1212 C1214 1.381 . S
C1212 C1218 1.383 . S
C1213 C1209 1.495 . S
C1213 H1219 0.959 1_565 S
C1213 H1220 0.961 . S
C1213 H1221 0.960 . S
C1214 C1212 1.381 . S
C1214 C1215 1.394 . S
C1214 H1222 0.930 . S
C1215 C1214 1.394 . S
C1215 C1216 1.383 . S
C1215 H1223 0.929 . S
C1216 C1215 1.383 . S
C1216 C1217 1.377 . S
C1217 H1201 0.930 . S
C1217 C1216 1.377 . S
C1217 C1218 1.379 . S
C1218 H1202 0.931 . S
C1218 C1212 1.383 . S
C1218 C1217 1.379 . S
H1219 C1213 0.959 1_545 S
H1220 C1213 0.961 . S
H1221 C1213 0.960 . S
H1222 C1214 0.930 . S
H1223 C1215 0.929 . S
H1224 C1232 0.929 . S
H1225 C1234 0.930 . S
H1226 C1236 0.930 . S
H1227 C1239 0.929 . S
H1228 C1242 0.930 . S
H1229 C1244 0.960 . S
H1230 C1244 0.960 . S
H1231 C1244 0.960 . S
C1232 H1224 0.929 . S
C1232 C1233 1.377 . S
C1232 C1234 1.384 . S
C1233 C1232 1.377 . S
C1233 C1239 1.390 . S
C1234 H1225 0.930 . S
C1234 C1232 1.384 . S
C1234 C1235 1.372 . S
C1235 C1234 1.372 . S
C1235 C1236 1.400 . S
C1235 C1240 1.490 . S
C1236 H1226 0.930 . S
C1236 C1235 1.400 . S
C1236 C1239 1.386 . S
H1237 C1253 0.930 . S
H1238 C1254 0.931 . S
C1239 H1227 0.929 . S
C1239 C1233 1.390 . S
C1239 C1236 1.386 . S
C1240 C1235 1.490 . S
C1240 C1242 1.395 . S
C1240 C1243 1.403 . S
H1241 C1247 0.930 . S
C1242 H1228 0.930 . S
C1242 C1240 1.395 . S
C1242 C1245 1.403 . S
C1243 C1240 1.403 . S
C1243 C1244 1.524 . S
C1243 C1247 1.400 . S
C1244 H1229 0.960 . S
C1244 H1230 0.960 . S
C1244 H1231 0.960 . S
C1244 C1243 1.524 . S
C1245 C1242 1.403 . S
C1245 C1246 1.392 . S
C1245 C1249 1.495 . S
C1246 C1245 1.392 . S
C1246 C1247 1.385 . S
C1246 C1248 1.478 . S
C1247 H1241 0.930 . S
C1247 C1243 1.400 . S
C1247 C1246 1.385 . S
C1248 C1246 1.478 . S
C1248 C1250 1.381 . S
C1248 C1254 1.383 . S
C1249 C1245 1.495 . S
C1249 H1255 0.959 . S
C1249 H1256 0.961 . S
C1249 H1257 0.960 . S
C1250 C1248 1.381 . S
C1250 C1251 1.394 . S
C1250 H1258 0.930 . S
C1251 C1250 1.394 . S
C1251 C1252 1.383 . S
C1251 H1259 0.929 . S
C1252 C1251 1.383 . S
C1252 C1253 1.377 . S
C1253 H1237 0.930 . S
C1253 C1252 1.377 . S
C1253 C1254 1.379 . S
C1254 H1238 0.931 . S
C1254 C1248 1.383 . S
C1254 C1253 1.379 . S
H1255 C1249 0.959 . S
H1256 C1249 0.961 . S
H1257 C1249 0.960 . S
H1258 C1250 0.930 . S
H1259 C1251 0.929 . S
H1260 C1268 0.929 . S
H1261 C1270 0.930 . S
H1262 C1272 0.930 . S
H1263 C1275 0.929 . S
H1264 C1278 0.930 . S
H1265 C1280 0.960 1_655 S
H1266 C1280 0.960 . S
H1267 C1280 0.960 . S
C1268 H1260 0.929 . S
C1268 C1269 1.377 . S
C1268 C1270 1.384 . S
C1269 C1268 1.377 . S
C1269 C1275 1.390 . S
C1270 H1261 0.930 . S
C1270 C1268 1.384 . S
C1270 C1271 1.372 . S
C1271 C1270 1.372 . S
C1271 C1272 1.400 . S
C1271 C1276 1.490 . S
C1272 H1262 0.930 . S
C1272 C1271 1.400 . S
C1272 C1275 1.386 . S
H1273 C1289 0.930 . S
H1274 C1290 0.931 . S
C1275 H1263 0.929 . S
C1275 C1269 1.390 . S
C1275 C1272 1.386 . S
C1276 C1271 1.490 . S
C1276 C1278 1.395 . S
C1276 C1279 1.403 . S
H1277 C1283 0.930 . S
C1278 H1264 0.930 . S
C1278 C1276 1.395 . S
C1278 C1281 1.403 1_455 S
C1279 C1276 1.403 . S
C1279 C1280 1.524 . S
C1279 C1283 1.400 1_455 S
C1280 H1265 0.960 1_455 S
C1280 H1266 0.960 . S
C1280 H1267 0.960 . S
C1280 C1279 1.524 . S
C1281 C1278 1.403 1_655 S
C1281 C1282 1.392 . S
C1281 C1285 1.495 . S
C1282 C1281 1.392 . S
C1282 C1283 1.385 . S
C1282 C1284 1.478 . S
C1283 H1277 0.930 . S
C1283 C1279 1.400 1_655 S
C1283 C1282 1.385 . S
C1284 C1282 1.478 . S
C1284 C1286 1.381 . S
C1284 C1290 1.383 . S
C1285 C1281 1.495 . S
C1285 H1291 0.959 1_655 S
C1285 H1292 0.961 . S
C1285 H1293 0.960 . S
C1286 C1284 1.381 . S
C1286 C1287 1.394 . S
C1286 H1294 0.930 . S
C1287 C1286 1.394 . S
C1287 C1288 1.383 . S
C1287 H1295 0.929 . S
C1288 C1287 1.383 . S
C1288 C1289 1.377 . S
C1289 H1273 0.930 . S
C1289 C1288 1.377 . S
C1289 C1290 1.379 . S
C1290 H1274 0.931 . S
C1290 C1284 1.383 . S
C1290 C1289 1.379 . S
H1291 C1285 0.959 1_455 S
H1292 C1285 0.961 . S
H1293 C1285 0.960 . S
H1294 C1286 0.930 . S
H1295 C1287 0.929 . S
H1296 C1304 0.929 . S
H1297 C1306 0.930 . S
H1298 C1308 0.930 . S
H1299 C1311 0.929 . S
H1300 C1314 0.930 . S
H1301 C1316 0.960 . S
H1302 C1316 0.960 . S
H1303 C1316 0.960 . S
C1304 H1296 0.929 . S
C1304 C1305 1.377 . S
C1304 C1306 1.384 . S
C1305 C1304 1.377 . S
C1305 C1311 1.390 . S
C1306 H1297 0.930 . S
C1306 C1304 1.384 . S
C1306 C1307 1.372 . S
C1307 C1306 1.372 . S
C1307 C1308 1.400 . S
C1307 C1312 1.490 . S
C1308 H1298 0.930 . S
C1308 C1307 1.400 . S
C1308 C1311 1.386 . S
H1309 C1325 0.930 . S
H1310 C1326 0.931 . S
C1311 H1299 0.929 . S
C1311 C1305 1.390 . S
C1311 C1308 1.386 . S
C1312 C1307 1.490 . S
C1312 C1314 1.395 . S
C1312 C1315 1.403 . S
H1313 C1319 0.930 . S
C1314 H1300 0.930 . S
C1314 C1312 1.395 . S
C1314 C1317 1.403 . S
C1315 C1312 1.403 . S
C1315 C1316 1.524 . S
C1315 C1319 1.400 . S
C1316 H1301 0.960 . S
C1316 H1302 0.960 . S
C1316 H1303 0.960 . S
C1316 C1315 1.524 . S
C1317 C1314 1.403 . S
C1317 C1318 1.392 . S
C1317 C1321 1.495 . S
C1318 C1317 1.392 . S
C1318 C1319 1.385 . S
C1318 C1320 1.478 . S
C1319 H1313 0.930 . S
C1319 C1315 1.400 . S
C1319 C1318 1.385 . S
C1320 C1318 1.478 . S
C1320 C1322 1.381 . S
C1320 C1326 1.383 . S
C1321 C1317 1.495 . S
C1321 H1327 0.959 . S
C1321 H1328 0.961 . S
C1321 H1329 0.960 . S
C1322 C1320 1.381 . S
C1322 C1323 1.394 . S
C1322 H1330 0.930 . S
C1323 C1322 1.394 . S
C1323 C1324 1.383 . S
C1323 H1331 0.929 . S
C1324 C1323 1.383 . S
C1324 C1325 1.377 . S
C1325 H1309 0.930 . S
C1325 C1324 1.377 . S
C1325 C1326 1.379 . S
C1326 H1310 0.931 . S
C1326 C1320 1.383 . S
C1326 C1325 1.379 . S
H1327 C1321 0.959 . S
H1328 C1321 0.961 . S
H1329 C1321 0.960 . S
H1330 C1322 0.930 . S
H1331 C1323 0.929 . S
H1332 C1340 0.929 . S
H1333 C1342 0.930 . S
H1334 C1344 0.930 . S
H1335 C1347 0.929 . S
H1336 C1350 0.930 . S
H1337 C1352 0.960 . S
H1338 C1352 0.960 . S
H1339 C1352 0.960 . S
C1340 H1332 0.929 . S
C1340 C1341 1.377 . S
C1340 C1342 1.384 . S
C1341 C1340 1.377 . S
C1341 C1347 1.390 . S
C1342 H1333 0.930 . S
C1342 C1340 1.384 . S
C1342 C1343 1.372 . S
C1343 C1342 1.372 . S
C1343 C1344 1.400 . S
C1343 C1348 1.490 . S
C1344 H1334 0.930 . S
C1344 C1343 1.400 . S
C1344 C1347 1.386 . S
H1345 C1361 0.930 . S
H1346 C1362 0.931 . S
C1347 H1335 0.929 . S
C1347 C1341 1.390 . S
C1347 C1344 1.386 . S
C1348 C1343 1.490 . S
C1348 C1350 1.395 . S
C1348 C1351 1.403 . S
H1349 C1355 0.930 . S
C1350 H1336 0.930 . S
C1350 C1348 1.395 . S
C1350 C1353 1.403 . S
C1351 C1348 1.403 . S
C1351 C1352 1.524 . S
C1351 C1355 1.400 . S
C1352 H1337 0.960 . S
C1352 H1338 0.960 . S
C1352 H1339 0.960 . S
C1352 C1351 1.524 . S
C1353 C1350 1.403 . S
C1353 C1354 1.392 . S
C1353 C1357 1.495 . S
C1354 C1353 1.392 . S
C1354 C1355 1.385 . S
C1354 C1356 1.478 . S
C1355 H1349 0.930 . S
C1355 C1351 1.400 . S
C1355 C1354 1.385 . S
C1356 C1354 1.478 . S
C1356 C1358 1.381 . S
C1356 C1362 1.383 . S
C1357 C1353 1.495 . S
C1357 H1363 0.959 . S
C1357 H1364 0.961 . S
C1357 H1365 0.960 . S
C1358 C1356 1.381 . S
C1358 C1359 1.394 . S
C1358 H1366 0.930 . S
C1359 C1358 1.394 . S
C1359 C1360 1.383 . S
C1359 H1367 0.929 . S
C1360 C1359 1.383 . S
C1360 C1361 1.377 . S
C1361 H1345 0.930 . S
C1361 C1360 1.377 . S
C1361 C1362 1.379 . S
C1362 H1346 0.931 . S
C1362 C1356 1.383 . S
C1362 C1361 1.379 . S
H1363 C1357 0.959 . S
H1364 C1357 0.961 . S
H1365 C1357 0.960 . S
H1366 C1358 0.930 . S
H1367 C1359 0.929 . S
H1368 C1376 0.929 . S
H1369 C1378 0.930 . S
H1370 C1380 0.930 . S
H1371 C1383 0.929 . S
H1372 C1386 0.930 . S
H1373 C1388 0.960 . S
H1374 C1388 0.960 . S
H1375 C1388 0.960 . S
C1376 H1368 0.929 . S
C1376 C1377 1.377 . S
C1376 C1378 1.384 . S
C1377 C1376 1.377 . S
C1377 C1383 1.390 . S
C1378 H1369 0.930 . S
C1378 C1376 1.384 . S
C1378 C1379 1.372 . S
C1379 C1378 1.372 . S
C1379 C1380 1.400 . S
C1379 C1384 1.490 . S
C1380 H1370 0.930 . S
C1380 C1379 1.400 . S
C1380 C1383 1.386 . S
H1381 C1397 0.930 . S
H1382 C1398 0.931 . S
C1383 H1371 0.929 . S
C1383 C1377 1.390 . S
C1383 C1380 1.386 . S
C1384 C1379 1.490 . S
C1384 C1386 1.395 . S
C1384 C1387 1.403 . S
H1385 C1391 0.930 . S
C1386 H1372 0.930 . S
C1386 C1384 1.395 . S
C1386 C1389 1.403 . S
C1387 C1384 1.403 . S
C1387 C1388 1.524 . S
C1387 C1391 1.400 . S
C1388 H1373 0.960 . S
C1388 H1374 0.960 . S
C1388 H1375 0.960 . S
C1388 C1387 1.524 . S
C1389 C1386 1.403 . S
C1389 C1390 1.392 . S
C1389 C1393 1.495 . S
C1390 C1389 1.392 . S
C1390 C1391 1.385 . S
C1390 C1392 1.478 . S
C1391 H1385 0.930 . S
C1391 C1387 1.400 . S
C1391 C1390 1.385 . S
C1392 C1390 1.478 . S
C1392 C1394 1.381 . S
C1392 C1398 1.383 . S
C1393 C1389 1.495 . S
C1393 H1399 0.959 . S
C1393 H1400 0.961 . S
C1393 H1401 0.960 . S
C1394 C1392 1.381 . S
C1394 C1395 1.394 . S
C1394 H1402 0.930 . S
C1395 C1394 1.394 . S
C1395 C1396 1.383 . S
C1395 H1403 0.929 . S
C1396 C1395 1.383 . S
C1396 C1397 1.377 . S
C1397 H1381 0.930 . S
C1397 C1396 1.377 . S
C1397 C1398 1.379 . S
C1398 H1382 0.931 . S
C1398 C1392 1.383 . S
C1398 C1397 1.379 . S
H1399 C1393 0.959 . S
H1400 C1393 0.961 . S
H1401 C1393 0.960 . S
H1402 C1394 0.930 . S
H1403 C1395 0.929 . S
H1404 C1412 0.929 . S
H1405 C1414 0.930 . S
H1406 C1416 0.930 . S
H1407 C1419 0.929 . S
H1408 C1422 0.930 . S
H1409 C1424 0.960 . S
H1410 C1424 0.960 . S
H1411 C1424 0.960 . S
C1412 H1404 0.929 . S
C1412 C1413 1.377 . S
C1412 C1414 1.384 . S
C1413 C1412 1.377 . S
C1413 C1419 1.390 . S
C1414 H1405 0.930 . S
C1414 C1412 1.384 . S
C1414 C1415 1.372 . S
C1415 C1414 1.372 . S
C1415 C1416 1.400 . S
C1415 C1420 1.490 . S
C1416 H1406 0.930 . S
C1416 C1415 1.400 . S
C1416 C1419 1.386 . S
H1417 C1433 0.930 . S
H1418 C1434 0.931 . S
C1419 H1407 0.929 . S
C1419 C1413 1.390 . S
C1419 C1416 1.386 . S
C1420 C1415 1.490 . S
C1420 C1422 1.395 . S
C1420 C1423 1.403 . S
H1421 C1427 0.930 . S
C1422 H1408 0.930 . S
C1422 C1420 1.395 . S
C1422 C1425 1.403 . S
C1423 C1420 1.403 . S
C1423 C1424 1.524 . S
C1423 C1427 1.400 . S
C1424 H1409 0.960 . S
C1424 H1410 0.960 . S
C1424 H1411 0.960 . S
C1424 C1423 1.524 . S
C1425 C1422 1.403 . S
C1425 C1426 1.392 . S
C1425 C1429 1.495 . S
C1426 C1425 1.392 . S
C1426 C1427 1.385 . S
C1426 C1428 1.478 . S
C1427 H1421 0.930 . S
C1427 C1423 1.400 . S
C1427 C1426 1.385 . S
C1428 C1426 1.478 . S
C1428 C1430 1.381 . S
C1428 C1434 1.383 . S
C1429 C1425 1.495 . S
C1429 H1435 0.959 . S
C1429 H1436 0.961 . S
C1429 H1437 0.960 . S
C1430 C1428 1.381 . S
C1430 C1431 1.394 . S
C1430 H1438 0.930 . S
C1431 C1430 1.394 . S
C1431 C1432 1.383 . S
C1431 H1439 0.929 . S
C1432 C1431 1.383 . S
C1432 C1433 1.377 . S
C1433 H1417 0.930 . S
C1433 C1432 1.377 . S
C1433 C1434 1.379 . S
C1434 H1418 0.931 . S
C1434 C1428 1.383 . S
C1434 C1433 1.379 . S
H1435 C1429 0.959 . S
H1436 C1429 0.961 . S
H1437 C1429 0.960 . S
H1438 C1430 0.930 . S
H1439 C1431 0.929 . S
H1440 C1448 0.929 . S
H1441 C1450 0.930 . S
H1442 C1452 0.930 . S
H1443 C1455 0.929 . S
H1444 C1458 0.930 . S
H1445 C1460 0.960 . S
H1446 C1460 0.960 . S
H1447 C1460 0.960 . S
C1448 H1440 0.929 . S
C1448 C1449 1.377 . S
C1448 C1450 1.384 . S
C1449 C1448 1.377 . S
C1449 C1455 1.390 . S
C1450 H1441 0.930 . S
C1450 C1448 1.384 . S
C1450 C1451 1.372 . S
C1451 C1450 1.372 . S
C1451 C1452 1.400 . S
C1451 C1456 1.490 . S
C1452 H1442 0.930 . S
C1452 C1451 1.400 . S
C1452 C1455 1.386 . S
H1453 C1469 0.930 . S
H1454 C1470 0.931 . S
C1455 H1443 0.929 . S
C1455 C1449 1.390 . S
C1455 C1452 1.386 . S
C1456 C1451 1.490 . S
C1456 C1458 1.395 . S
C1456 C1459 1.403 . S
H1457 C1463 0.930 . S
C1458 H1444 0.930 . S
C1458 C1456 1.395 . S
C1458 C1461 1.403 . S
C1459 C1456 1.403 . S
C1459 C1460 1.524 . S
C1459 C1463 1.400 . S
C1460 H1445 0.960 . S
C1460 H1446 0.960 . S
C1460 H1447 0.960 . S
C1460 C1459 1.524 . S
C1461 C1458 1.403 . S
C1461 C1462 1.392 . S
C1461 C1465 1.495 . S
C1462 C1461 1.392 . S
C1462 C1463 1.385 . S
C1462 C1464 1.478 . S
C1463 H1457 0.930 . S
C1463 C1459 1.400 . S
C1463 C1462 1.385 . S
C1464 C1462 1.478 . S
C1464 C1466 1.381 . S
C1464 C1470 1.383 . S
C1465 C1461 1.495 . S
C1465 H1471 0.959 . S
C1465 H1472 0.961 . S
C1465 H1473 0.960 . S
C1466 C1464 1.381 . S
C1466 C1467 1.394 . S
C1466 H1474 0.930 . S
C1467 C1466 1.394 . S
C1467 C1468 1.383 . S
C1467 H1475 0.929 . S
C1468 C1467 1.383 . S
C1468 C1469 1.377 . S
C1469 H1453 0.930 . S
C1469 C1468 1.377 . S
C1469 C1470 1.379 . S
C1470 H1454 0.931 . S
C1470 C1464 1.383 . S
C1470 C1469 1.379 . S
H1471 C1465 0.959 . S
H1472 C1465 0.961 . S
H1473 C1465 0.960 . S
H1474 C1466 0.930 . S
H1475 C1467 0.929 . S
H1476 C1484 0.929 . S
H1477 C1486 0.930 . S
H1478 C1488 0.930 . S
H1479 C1491 0.929 . S
H1480 C1494 0.930 . S
H1481 C1496 0.960 . S
H1482 C1496 0.960 . S
H1483 C1496 0.960 . S
C1484 H1476 0.929 . S
C1484 C1485 1.377 . S
C1484 C1486 1.384 . S
C1485 C1484 1.377 . S
C1485 C1491 1.390 . S
C1486 H1477 0.930 . S
C1486 C1484 1.384 . S
C1486 C1487 1.372 . S
C1487 C1486 1.372 . S
C1487 C1488 1.400 . S
C1487 C1492 1.490 . S
C1488 H1478 0.930 . S
C1488 C1487 1.400 . S
C1488 C1491 1.386 . S
H1489 C1505 0.930 . S
H1490 C1506 0.931 . S
C1491 H1479 0.929 . S
C1491 C1485 1.390 . S
C1491 C1488 1.386 . S
C1492 C1487 1.490 . S
C1492 C1494 1.395 . S
C1492 C1495 1.403 . S
H1493 C1499 0.930 . S
C1494 H1480 0.930 . S
C1494 C1492 1.395 . S
C1494 C1497 1.403 . S
C1495 C1492 1.403 . S
C1495 C1496 1.524 . S
C1495 C1499 1.400 . S
C1496 H1481 0.960 . S
C1496 H1482 0.960 . S
C1496 H1483 0.960 . S
C1496 C1495 1.524 . S
C1497 C1494 1.403 . S
C1497 C1498 1.392 . S
C1497 C1501 1.495 . S
C1498 C1497 1.392 . S
C1498 C1499 1.385 . S
C1498 C1500 1.478 . S
C1499 H1493 0.930 . S
C1499 C1495 1.400 . S
C1499 C1498 1.385 . S
C1500 C1498 1.478 . S
C1500 C1502 1.381 . S
C1500 C1506 1.383 . S
C1501 C1497 1.495 . S
C1501 H1507 0.959 . S
C1501 H1508 0.961 . S
C1501 H1509 0.960 . S
C1502 C1500 1.381 . S
C1502 C1503 1.394 . S
C1502 H1510 0.930 . S
C1503 C1502 1.394 . S
C1503 C1504 1.383 . S
C1503 H1511 0.929 . S
C1504 C1503 1.383 . S
C1504 C1505 1.377 . S
C1505 H1489 0.930 . S
C1505 C1504 1.377 . S
C1505 C1506 1.379 . S
C1506 H1490 0.931 . S
C1506 C1500 1.383 . S
C1506 C1505 1.379 . S
H1507 C1501 0.959 . S
H1508 C1501 0.961 . S
H1509 C1501 0.960 . S
H1510 C1502 0.930 . S
H1511 C1503 0.929 . S
H1512 C1520 0.929 . S
H1513 C1522 0.930 . S
H1514 C1524 0.930 . S
H1515 C1527 0.929 . S
H1516 C1530 0.930 . S
H1517 C1532 0.960 . S
H1518 C1532 0.960 . S
H1519 C1532 0.960 . S
C1520 H1512 0.929 . S
C1520 C1521 1.377 . S
C1520 C1522 1.384 . S
C1521 C1520 1.377 . S
C1521 C1527 1.390 . S
C1522 H1513 0.930 . S
C1522 C1520 1.384 . S
C1522 C1523 1.372 . S
C1523 C1522 1.372 . S
C1523 C1524 1.400 . S
C1523 C1528 1.490 . S
C1524 H1514 0.930 . S
C1524 C1523 1.400 . S
C1524 C1527 1.386 . S
H1525 C1541 0.930 . S
H1526 C1542 0.931 . S
C1527 H1515 0.929 . S
C1527 C1521 1.390 . S
C1527 C1524 1.386 . S
C1528 C1523 1.490 . S
C1528 C1530 1.395 . S
C1528 C1531 1.403 . S
H1529 C1535 0.930 . S
C1530 H1516 0.930 . S
C1530 C1528 1.395 . S
C1530 C1533 1.403 . S
C1531 C1528 1.403 . S
C1531 C1532 1.524 . S
C1531 C1535 1.400 . S
C1532 H1517 0.960 . S
C1532 H1518 0.960 . S
C1532 H1519 0.960 . S
C1532 C1531 1.524 . S
C1533 C1530 1.403 . S
C1533 C1534 1.392 . S
C1533 C1537 1.495 . S
C1534 C1533 1.392 . S
C1534 C1535 1.385 . S
C1534 C1536 1.478 . S
C1535 H1529 0.930 . S
C1535 C1531 1.400 . S
C1535 C1534 1.385 . S
C1536 C1534 1.478 . S
C1536 C1538 1.381 . S
C1536 C1542 1.383 . S
C1537 C1533 1.495 . S
C1537 H1543 0.959 . S
C1537 H1544 0.961 . S
C1537 H1545 0.960 . S
C1538 C1536 1.381 . S
C1538 C1539 1.394 . S
C1538 H1546 0.930 . S
C1539 C1538 1.394 . S
C1539 C1540 1.383 . S
C1539 H1547 0.929 . S
C1540 C1539 1.383 . S
C1540 C1541 1.377 . S
C1541 H1525 0.930 . S
C1541 C1540 1.377 . S
C1541 C1542 1.379 . S
C1542 H1526 0.931 . S
C1542 C1536 1.383 . S
C1542 C1541 1.379 . S
H1543 C1537 0.959 . S
H1544 C1537 0.961 . S
H1545 C1537 0.960 . S
H1546 C1538 0.930 . S
H1547 C1539 0.929 . S
H1548 C1556 0.929 . S
H1549 C1558 0.930 . S
H1550 C1560 0.930 . S
H1551 C1563 0.929 . S
H1552 C1566 0.930 . S
H1553 C1568 0.960 . S
H1554 C1568 0.960 . S
H1555 C1568 0.960 . S
C1556 H1548 0.929 . S
C1556 C1557 1.377 . S
C1556 C1558 1.384 . S
C1557 C1556 1.377 . S
C1557 C1563 1.390 . S
C1558 H1549 0.930 . S
C1558 C1556 1.384 . S
C1558 C1559 1.372 . S
C1559 C1558 1.372 . S
C1559 C1560 1.400 . S
C1559 C1564 1.490 . S
C1560 H1550 0.930 . S
C1560 C1559 1.400 . S
C1560 C1563 1.386 . S
H1561 C1577 0.930 . S
H1562 C1578 0.931 . S
C1563 H1551 0.929 . S
C1563 C1557 1.390 . S
C1563 C1560 1.386 . S
C1564 C1559 1.490 . S
C1564 C1566 1.395 . S
C1564 C1567 1.403 . S
H1565 C1571 0.930 . S
C1566 H1552 0.930 . S
C1566 C1564 1.395 . S
C1566 C1569 1.403 . S
C1567 C1564 1.403 . S
C1567 C1568 1.524 . S
C1567 C1571 1.400 . S
C1568 H1553 0.960 . S
C1568 H1554 0.960 . S
C1568 H1555 0.960 . S
C1568 C1567 1.524 . S
C1569 C1566 1.403 . S
C1569 C1570 1.392 . S
C1569 C1573 1.495 . S
C1570 C1569 1.392 . S
C1570 C1571 1.385 . S
C1570 C1572 1.478 . S
C1571 H1565 0.930 . S
C1571 C1567 1.400 . S
C1571 C1570 1.385 . S
C1572 C1570 1.478 . S
C1572 C1574 1.381 . S
C1572 C1578 1.383 . S
C1573 C1569 1.495 . S
C1573 H1579 0.959 . S
C1573 H1580 0.961 . S
C1573 H1581 0.960 . S
C1574 C1572 1.381 . S
C1574 C1575 1.394 . S
C1574 H1582 0.930 . S
C1575 C1574 1.394 . S
C1575 C1576 1.383 . S
C1575 H1583 0.929 . S
C1576 C1575 1.383 . S
C1576 C1577 1.377 . S
C1577 H1561 0.930 . S
C1577 C1576 1.377 . S
C1577 C1578 1.379 . S
C1578 H1562 0.931 . S
C1578 C1572 1.383 . S
C1578 C1577 1.379 . S
H1579 C1573 0.959 . S
H1580 C1573 0.961 . S
H1581 C1573 0.960 . S
H1582 C1574 0.930 . S
H1583 C1575 0.929 . S
H1584 C1592 0.929 . S
H1585 C1594 0.930 . S
H1586 C1596 0.930 . S
H1587 C1599 0.929 . S
H1588 C1602 0.930 . S
H1589 C1604 0.960 . S
H1590 C1604 0.960 . S
H1591 C1604 0.960 . S
C1592 H1584 0.929 . S
C1592 C1593 1.377 . S
C1592 C1594 1.384 . S
C1593 C1592 1.377 . S
C1593 C1599 1.390 . S
C1594 H1585 0.930 . S
C1594 C1592 1.384 . S
C1594 C1595 1.372 . S
C1595 C1594 1.372 . S
C1595 C1596 1.400 . S
C1595 C1600 1.490 . S
C1596 H1586 0.930 . S
C1596 C1595 1.400 . S
C1596 C1599 1.386 . S
H1597 C1613 0.930 . S
H1598 C1614 0.931 . S
C1599 H1587 0.929 . S
C1599 C1593 1.390 . S
C1599 C1596 1.386 . S
C1600 C1595 1.490 . S
C1600 C1602 1.395 . S
C1600 C1603 1.403 . S
H1601 C1607 0.930 . S
C1602 H1588 0.930 . S
C1602 C1600 1.395 . S
C1602 C1605 1.403 . S
C1603 C1600 1.403 . S
C1603 C1604 1.524 . S
C1603 C1607 1.400 . S
C1604 H1589 0.960 . S
C1604 H1590 0.960 . S
C1604 H1591 0.960 . S
C1604 C1603 1.524 . S
C1605 C1602 1.403 . S
C1605 C1606 1.392 . S
C1605 C1609 1.495 . S
C1606 C1605 1.392 . S
C1606 C1607 1.385 . S
C1606 C1608 1.478 . S
C1607 H1601 0.930 . S
C1607 C1603 1.400 . S
C1607 C1606 1.385 . S
C1608 C1606 1.478 . S
C1608 C1610 1.381 . S
C1608 C1614 1.383 . S
C1609 C1605 1.495 . S
C1609 H1615 0.959 . S
C1609 H1616 0.961 . S
C1609 H1617 0.960 . S
C1610 C1608 1.381 . S
C1610 C1611 1.394 . S
C1610 H1618 0.930 . S
C1611 C1610 1.394 . S
C1611 C1612 1.383 . S
C1611 H1619 0.929 . S
C1612 C1611 1.383 . S
C1612 C1613 1.377 . S
C1613 H1597 0.930 . S
C1613 C1612 1.377 . S
C1613 C1614 1.379 . S
C1614 H1598 0.931 . S
C1614 C1608 1.383 . S
C1614 C1613 1.379 . S
H1615 C1609 0.959 . S
H1616 C1609 0.961 . S
H1617 C1609 0.960 . S
H1618 C1610 0.930 . S
H1619 C1611 0.929 . S
H1620 C1628 0.929 . S
H1621 C1630 0.930 . S
H1622 C1632 0.930 . S
H1623 C1635 0.929 . S
H1624 C1638 0.930 . S
H1625 C1640 0.960 . S
H1626 C1640 0.960 . S
H1627 C1640 0.960 . S
C1628 H1620 0.929 . S
C1628 C1629 1.377 . S
C1628 C1630 1.384 . S
C1629 C1628 1.377 . S
C1629 C1635 1.390 . S
C1630 H1621 0.930 . S
C1630 C1628 1.384 . S
C1630 C1631 1.372 . S
C1631 C1630 1.372 . S
C1631 C1632 1.400 . S
C1631 C1636 1.490 . S
C1632 H1622 0.930 . S
C1632 C1631 1.400 . S
C1632 C1635 1.386 . S
H1633 C1649 0.930 . S
H1634 C1650 0.931 . S
C1635 H1623 0.929 . S
C1635 C1629 1.390 . S
C1635 C1632 1.386 . S
C1636 C1631 1.490 . S
C1636 C1638 1.395 . S
C1636 C1639 1.403 . S
H1637 C1643 0.930 . S
C1638 H1624 0.930 . S
C1638 C1636 1.395 . S
C1638 C1641 1.403 . S
C1639 C1636 1.403 . S
C1639 C1640 1.524 . S
C1639 C1643 1.400 . S
C1640 H1625 0.960 . S
C1640 H1626 0.960 . S
C1640 H1627 0.960 . S
C1640 C1639 1.524 . S
C1641 C1638 1.403 . S
C1641 C1642 1.392 . S
C1641 C1645 1.495 . S
C1642 C1641 1.392 . S
C1642 C1643 1.385 . S
C1642 C1644 1.478 . S
C1643 H1637 0.930 . S
C1643 C1639 1.400 . S
C1643 C1642 1.385 . S
C1644 C1642 1.478 . S
C1644 C1646 1.381 . S
C1644 C1650 1.383 . S
C1645 C1641 1.495 . S
C1645 H1651 0.959 . S
C1645 H1652 0.961 . S
C1645 H1653 0.960 . S
C1646 C1644 1.381 . S
C1646 C1647 1.394 . S
C1646 H1654 0.930 . S
C1647 C1646 1.394 . S
C1647 C1648 1.383 . S
C1647 H1655 0.929 . S
C1648 C1647 1.383 . S
C1648 C1649 1.377 . S
C1649 H1633 0.930 . S
C1649 C1648 1.377 . S
C1649 C1650 1.379 . S
C1650 H1634 0.931 . S
C1650 C1644 1.383 . S
C1650 C1649 1.379 . S
H1651 C1645 0.959 . S
H1652 C1645 0.961 . S
H1653 C1645 0.960 . S
H1654 C1646 0.930 . S
H1655 C1647 0.929 . S
H1656 C1664 0.929 . S
H1657 C1666 0.930 . S
H1658 C1668 0.930 . S
H1659 C1671 0.929 . S
H1660 C1674 0.930 . S
H1661 C1676 0.960 . S
H1662 C1676 0.960 . S
H1663 C1676 0.960 . S
C1664 H1656 0.929 . S
C1664 C1665 1.377 . S
C1664 C1666 1.384 . S
C1665 C1664 1.377 . S
C1665 C1671 1.390 . S
C1666 H1657 0.930 . S
C1666 C1664 1.384 . S
C1666 C1667 1.372 . S
C1667 C1666 1.372 . S
C1667 C1668 1.400 . S
C1667 C1672 1.490 . S
C1668 H1658 0.930 . S
C1668 C1667 1.400 . S
C1668 C1671 1.386 . S
H1669 C1685 0.930 . S
H1670 C1686 0.931 . S
C1671 H1659 0.929 . S
C1671 C1665 1.390 . S
C1671 C1668 1.386 . S
C1672 C1667 1.490 . S
C1672 C1674 1.395 . S
C1672 C1675 1.403 . S
H1673 C1679 0.930 . S
C1674 H1660 0.930 . S
C1674 C1672 1.395 . S
C1674 C1677 1.403 . S
C1675 C1672 1.403 . S
C1675 C1676 1.524 . S
C1675 C1679 1.400 . S
C1676 H1661 0.960 . S
C1676 H1662 0.960 . S
C1676 H1663 0.960 . S
C1676 C1675 1.524 . S
C1677 C1674 1.403 . S
C1677 C1678 1.392 . S
C1677 C1681 1.495 . S
C1678 C1677 1.392 . S
C1678 C1679 1.385 . S
C1678 C1680 1.478 . S
C1679 H1673 0.930 . S
C1679 C1675 1.400 . S
C1679 C1678 1.385 . S
C1680 C1678 1.478 . S
C1680 C1682 1.381 . S
C1680 C1686 1.383 . S
C1681 C1677 1.495 . S
C1681 H1687 0.959 . S
C1681 H1688 0.961 . S
C1681 H1689 0.960 . S
C1682 C1680 1.381 . S
C1682 C1683 1.394 . S
C1682 H1690 0.930 . S
C1683 C1682 1.394 . S
C1683 C1684 1.383 . S
C1683 H1691 0.929 . S
C1684 C1683 1.383 . S
C1684 C1685 1.377 . S
C1685 H1669 0.930 . S
C1685 C1684 1.377 . S
C1685 C1686 1.379 . S
C1686 H1670 0.931 . S
C1686 C1680 1.383 . S
C1686 C1685 1.379 . S
H1687 C1681 0.959 . S
H1688 C1681 0.961 . S
H1689 C1681 0.960 . S
H1690 C1682 0.930 . S
H1691 C1683 0.929 . S
H1692 C1700 0.929 . S
H1693 C1702 0.930 . S
H1694 C1704 0.930 . S
H1695 C1707 0.929 . S
H1696 C1710 0.930 . S
H1697 C1712 0.960 . S
H1698 C1712 0.960 . S
H1699 C1712 0.960 . S
C1700 H1692 0.929 . S
C1700 C1701 1.377 . S
C1700 C1702 1.384 . S
C1701 C1700 1.377 . S
C1701 C1707 1.390 . S
C1702 H1693 0.930 . S
C1702 C1700 1.384 . S
C1702 C1703 1.372 . S
C1703 C1702 1.372 . S
C1703 C1704 1.400 . S
C1703 C1708 1.490 . S
C1704 H1694 0.930 . S
C1704 C1703 1.400 . S
C1704 C1707 1.386 . S
H1705 C1721 0.930 . S
H1706 C1722 0.931 . S
C1707 H1695 0.929 . S
C1707 C1701 1.390 . S
C1707 C1704 1.386 . S
C1708 C1703 1.490 . S
C1708 C1710 1.395 . S
C1708 C1711 1.403 . S
H1709 C1715 0.930 . S
C1710 H1696 0.930 . S
C1710 C1708 1.395 . S
C1710 C1713 1.403 . S
C1711 C1708 1.403 . S
C1711 C1712 1.524 . S
C1711 C1715 1.400 . S
C1712 H1697 0.960 . S
C1712 H1698 0.960 . S
C1712 H1699 0.960 . S
C1712 C1711 1.524 . S
C1713 C1710 1.403 . S
C1713 C1714 1.392 . S
C1713 C1717 1.495 . S
C1714 C1713 1.392 . S
C1714 C1715 1.385 . S
C1714 C1716 1.478 . S
C1715 H1709 0.930 . S
C1715 C1711 1.400 . S
C1715 C1714 1.385 . S
C1716 C1714 1.478 . S
C1716 C1718 1.381 . S
C1716 C1722 1.383 . S
C1717 C1713 1.495 . S
C1717 H1723 0.959 . S
C1717 H1724 0.961 . S
C1717 H1725 0.960 . S
C1718 C1716 1.381 . S
C1718 C1719 1.394 . S
C1718 H1726 0.930 . S
C1719 C1718 1.394 . S
C1719 C1720 1.383 . S
C1719 H1727 0.929 . S
C1720 C1719 1.383 . S
C1720 C1721 1.377 . S
C1721 H1705 0.930 . S
C1721 C1720 1.377 . S
C1721 C1722 1.379 . S
C1722 H1706 0.931 . S
C1722 C1716 1.383 . S
C1722 C1721 1.379 . S
H1723 C1717 0.959 . S
H1724 C1717 0.961 . S
H1725 C1717 0.960 . S
H1726 C1718 0.930 . S
H1727 C1719 0.929 . S
H1728 C1736 0.929 . S
H1729 C1738 0.930 . S
H1730 C1740 0.930 . S
H1731 C1743 0.929 . S
H1732 C1746 0.930 . S
H1733 C1748 0.960 . S
H1734 C1748 0.960 . S
H1735 C1748 0.960 . S
C1736 H1728 0.929 . S
C1736 C1737 1.377 . S
C1736 C1738 1.384 . S
C1737 C1736 1.377 . S
C1737 C1743 1.390 . S
C1738 H1729 0.930 . S
C1738 C1736 1.384 . S
C1738 C1739 1.372 . S
C1739 C1738 1.372 . S
C1739 C1740 1.400 . S
C1739 C1744 1.490 . S
C1740 H1730 0.930 . S
C1740 C1739 1.400 . S
C1740 C1743 1.386 . S
H1741 C1757 0.930 . S
H1742 C1758 0.931 . S
C1743 H1731 0.929 . S
C1743 C1737 1.390 . S
C1743 C1740 1.386 . S
C1744 C1739 1.490 . S
C1744 C1746 1.395 . S
C1744 C1747 1.403 . S
H1745 C1751 0.930 . S
C1746 H1732 0.930 . S
C1746 C1744 1.395 . S
C1746 C1749 1.403 1_554 S
C1747 C1744 1.403 . S
C1747 C1748 1.524 . S
C1747 C1751 1.400 1_554 S
C1748 H1733 0.960 . S
C1748 H1734 0.960 . S
C1748 H1735 0.960 . S
C1748 C1747 1.524 . S
C1749 C1746 1.403 1_556 S
C1749 C1750 1.392 . S
C1749 C1753 1.495 . S
C1750 C1749 1.392 . S
C1750 C1751 1.385 . S
C1750 C1752 1.478 . S
C1751 H1745 0.930 . S
C1751 C1747 1.400 1_556 S
C1751 C1750 1.385 . S
C1752 C1750 1.478 . S
C1752 C1754 1.381 . S
C1752 C1758 1.383 . S
C1753 C1749 1.495 . S
C1753 H1759 0.959 . S
C1753 H1760 0.961 . S
C1753 H1761 0.960 . S
C1754 C1752 1.381 . S
C1754 C1755 1.394 . S
C1754 H1762 0.930 . S
C1755 C1754 1.394 . S
C1755 C1756 1.383 . S
C1755 H1763 0.929 . S
C1756 C1755 1.383 . S
C1756 C1757 1.377 . S
C1757 H1741 0.930 . S
C1757 C1756 1.377 . S
C1757 C1758 1.379 . S
C1758 H1742 0.931 . S
C1758 C1752 1.383 . S
C1758 C1757 1.379 . S
H1759 C1753 0.959 . S
H1760 C1753 0.961 . S
H1761 C1753 0.960 . S
H1762 C1754 0.930 . S
H1763 C1755 0.929 . S
H1764 C1772 0.929 . S
H1765 C1774 0.930 . S
H1766 C1776 0.930 . S
H1767 C1779 0.929 . S
H1768 C1782 0.930 . S
H1769 C1784 0.960 . S
H1770 C1784 0.960 . S
H1771 C1784 0.960 . S
C1772 H1764 0.929 . S
C1772 C1773 1.377 . S
C1772 C1774 1.384 . S
C1773 C1772 1.377 . S
C1773 C1779 1.390 . S
C1774 H1765 0.930 . S
C1774 C1772 1.384 . S
C1774 C1775 1.372 . S
C1775 C1774 1.372 . S
C1775 C1776 1.400 . S
C1775 C1780 1.490 . S
C1776 H1766 0.930 . S
C1776 C1775 1.400 . S
C1776 C1779 1.386 . S
H1777 C1793 0.930 . S
H1778 C1794 0.931 . S
C1779 H1767 0.929 . S
C1779 C1773 1.390 . S
C1779 C1776 1.386 . S
C1780 C1775 1.490 . S
C1780 C1782 1.395 . S
C1780 C1783 1.403 . S
H1781 C1787 0.930 . S
C1782 H1768 0.930 . S
C1782 C1780 1.395 . S
C1782 C1785 1.403 1_556 S
C1783 C1780 1.403 . S
C1783 C1784 1.524 . S
C1783 C1787 1.400 1_556 S
C1784 H1769 0.960 . S
C1784 H1770 0.960 . S
C1784 H1771 0.960 . S
C1784 C1783 1.524 . S
C1785 C1782 1.403 1_554 S
C1785 C1786 1.392 . S
C1785 C1789 1.495 . S
C1786 C1785 1.392 . S
C1786 C1787 1.385 . S
C1786 C1788 1.478 . S
C1787 H1781 0.930 . S
C1787 C1783 1.400 1_554 S
C1787 C1786 1.385 . S
C1788 C1786 1.478 . S
C1788 C1790 1.381 . S
C1788 C1794 1.383 . S
C1789 C1785 1.495 . S
C1789 H1795 0.959 . S
C1789 H1796 0.961 . S
C1789 H1797 0.960 . S
C1790 C1788 1.381 . S
C1790 C1791 1.394 . S
C1790 H1798 0.930 . S
C1791 C1790 1.394 . S
C1791 C1792 1.383 . S
C1791 H1799 0.929 . S
C1792 C1791 1.383 . S
C1792 C1793 1.377 . S
C1793 H1777 0.930 . S
C1793 C1792 1.377 . S
C1793 C1794 1.379 . S
C1794 H1778 0.931 . S
C1794 C1788 1.383 . S
C1794 C1793 1.379 . S
H1795 C1789 0.959 . S
H1796 C1789 0.961 . S
H1797 C1789 0.960 . S
H1798 C1790 0.930 . S
H1799 C1791 0.929 . S
H1800 C1808 0.929 . S
H1801 C1810 0.930 . S
H1802 C1812 0.930 . S
H1803 C1815 0.929 . S
H1804 C1818 0.930 . S
H1805 C1820 0.960 . S
H1806 C1820 0.960 . S
H1807 C1820 0.960 . S
C1808 H1800 0.929 . S
C1808 C1809 1.377 . S
C1808 C1810 1.384 . S
C1809 C1808 1.377 . S
C1809 C1815 1.390 . S
C1810 H1801 0.930 . S
C1810 C1808 1.384 . S
C1810 C1811 1.372 . S
C1811 C1810 1.372 . S
C1811 C1812 1.400 . S
C1811 C1816 1.490 . S
C1812 H1802 0.930 . S
C1812 C1811 1.400 . S
C1812 C1815 1.386 . S
H1813 C1829 0.930 . S
H1814 C1830 0.931 . S
C1815 H1803 0.929 . S
C1815 C1809 1.390 . S
C1815 C1812 1.386 . S
C1816 C1811 1.490 . S
C1816 C1818 1.395 . S
C1816 C1819 1.403 . S
H1817 C1823 0.930 . S
C1818 H1804 0.930 . S
C1818 C1816 1.395 . S
C1818 C1821 1.403 1_556 S
C1819 C1816 1.403 . S
C1819 C1820 1.524 . S
C1819 C1823 1.400 1_556 S
C1820 H1805 0.960 . S
C1820 H1806 0.960 . S
C1820 H1807 0.960 . S
C1820 C1819 1.524 . S
C1821 C1818 1.403 1_554 S
C1821 C1822 1.392 . S
C1821 C1825 1.495 . S
C1822 C1821 1.392 . S
C1822 C1823 1.385 . S
C1822 C1824 1.478 . S
C1823 H1817 0.930 . S
C1823 C1819 1.400 1_554 S
C1823 C1822 1.385 . S
C1824 C1822 1.478 . S
C1824 C1826 1.381 . S
C1824 C1830 1.383 . S
C1825 C1821 1.495 . S
C1825 H1831 0.959 . S
C1825 H1832 0.961 . S
C1825 H1833 0.960 . S
C1826 C1824 1.381 . S
C1826 C1827 1.394 . S
C1826 H1834 0.930 . S
C1827 C1826 1.394 . S
C1827 C1828 1.383 . S
C1827 H1835 0.929 . S
C1828 C1827 1.383 . S
C1828 C1829 1.377 . S
C1829 H1813 0.930 . S
C1829 C1828 1.377 . S
C1829 C1830 1.379 . S
C1830 H1814 0.931 . S
C1830 C1824 1.383 . S
C1830 C1829 1.379 . S
H1831 C1825 0.959 . S
H1832 C1825 0.961 . S
H1833 C1825 0.960 . S
H1834 C1826 0.930 . S
H1835 C1827 0.929 . S
H1836 C1844 0.929 . S
H1837 C1846 0.930 . S
H1838 C1848 0.930 . S
H1839 C1851 0.929 . S
H1840 C1854 0.930 . S
H1841 C1856 0.960 . S
H1842 C1856 0.960 . S
H1843 C1856 0.960 . S
C1844 H1836 0.929 . S
C1844 C1845 1.377 . S
C1844 C1846 1.384 . S
C1845 C1844 1.377 . S
C1845 C1851 1.390 . S
C1846 H1837 0.930 . S
C1846 C1844 1.384 . S
C1846 C1847 1.372 . S
C1847 C1846 1.372 . S
C1847 C1848 1.400 . S
C1847 C1852 1.490 . S
C1848 H1838 0.930 . S
C1848 C1847 1.400 . S
C1848 C1851 1.386 . S
H1849 C1865 0.930 . S
H1850 C1866 0.931 . S
C1851 H1839 0.929 . S
C1851 C1845 1.390 . S
C1851 C1848 1.386 . S
C1852 C1847 1.490 . S
C1852 C1854 1.395 . S
C1852 C1855 1.403 . S
H1853 C1859 0.930 . S
C1854 H1840 0.930 . S
C1854 C1852 1.395 . S
C1854 C1857 1.403 1_554 S
C1855 C1852 1.403 . S
C1855 C1856 1.524 . S
C1855 C1859 1.400 1_554 S
C1856 H1841 0.960 . S
C1856 H1842 0.960 . S
C1856 H1843 0.960 . S
C1856 C1855 1.524 . S
C1857 C1854 1.403 1_556 S
C1857 C1858 1.392 . S
C1857 C1861 1.495 . S
C1858 C1857 1.392 . S
C1858 C1859 1.385 . S
C1858 C1860 1.478 . S
C1859 H1853 0.930 . S
C1859 C1855 1.400 1_556 S
C1859 C1858 1.385 . S
C1860 C1858 1.478 . S
C1860 C1862 1.381 . S
C1860 C1866 1.383 . S
C1861 C1857 1.495 . S
C1861 H1867 0.959 . S
C1861 H1868 0.961 . S
C1861 H1869 0.960 . S
C1862 C1860 1.381 . S
C1862 C1863 1.394 . S
C1862 H1870 0.930 . S
C1863 C1862 1.394 . S
C1863 C1864 1.383 . S
C1863 H1871 0.929 . S
C1864 C1863 1.383 . S
C1864 C1865 1.377 . S
C1865 H1849 0.930 . S
C1865 C1864 1.377 . S
C1865 C1866 1.379 . S
C1866 H1850 0.931 . S
C1866 C1860 1.383 . S
C1866 C1865 1.379 . S
H1867 C1861 0.959 . S
H1868 C1861 0.961 . S
H1869 C1861 0.960 . S
H1870 C1862 0.930 . S
H1871 C1863 0.929 . S
H1872 C1880 0.929 . S
H1873 C1882 0.930 . S
H1874 C1884 0.930 . S
H1875 C1887 0.929 . S
H1876 C1890 0.930 . S
H1877 C1892 0.960 . S
H1878 C1892 0.960 . S
H1879 C1892 0.960 . S
C1880 H1872 0.929 . S
C1880 C1881 1.377 . S
C1880 C1882 1.384 . S
C1881 C1880 1.377 . S
C1881 C1887 1.390 . S
C1882 H1873 0.930 . S
C1882 C1880 1.384 . S
C1882 C1883 1.372 . S
C1883 C1882 1.372 . S
C1883 C1884 1.400 . S
C1883 C1888 1.490 . S
C1884 H1874 0.930 . S
C1884 C1883 1.400 . S
C1884 C1887 1.386 . S
H1885 C1901 0.930 . S
H1886 C1902 0.931 . S
C1887 H1875 0.929 . S
C1887 C1881 1.390 . S
C1887 C1884 1.386 . S
C1888 C1883 1.490 . S
C1888 C1890 1.395 . S
C1888 C1891 1.403 . S
H1889 C1895 0.930 . S
C1890 H1876 0.930 . S
C1890 C1888 1.395 . S
C1890 C1893 1.403 1_554 S
C1891 C1888 1.403 . S
C1891 C1892 1.524 . S
C1891 C1895 1.400 1_554 S
C1892 H1877 0.960 . S
C1892 H1878 0.960 . S
C1892 H1879 0.960 . S
C1892 C1891 1.524 . S
C1893 C1890 1.403 1_556 S
C1893 C1894 1.392 . S
C1893 C1897 1.495 . S
C1894 C1893 1.392 . S
C1894 C1895 1.385 . S
C1894 C1896 1.478 . S
C1895 H1889 0.930 . S
C1895 C1891 1.400 1_556 S
C1895 C1894 1.385 . S
C1896 C1894 1.478 . S
C1896 C1898 1.381 . S
C1896 C1902 1.383 . S
C1897 C1893 1.495 . S
C1897 H1903 0.959 . S
C1897 H1904 0.961 . S
C1897 H1905 0.960 . S
C1898 C1896 1.381 . S
C1898 C1899 1.394 . S
C1898 H1906 0.930 . S
C1899 C1898 1.394 . S
C1899 C1900 1.383 . S
C1899 H1907 0.929 . S
C1900 C1899 1.383 . S
C1900 C1901 1.377 . S
C1901 H1885 0.930 . S
C1901 C1900 1.377 . S
C1901 C1902 1.379 . S
C1902 H1886 0.931 . S
C1902 C1896 1.383 . S
C1902 C1901 1.379 . S
H1903 C1897 0.959 . S
H1904 C1897 0.961 . S
H1905 C1897 0.960 . S
H1906 C1898 0.930 . S
H1907 C1899 0.929 . S
H1908 C1916 0.929 . S
H1909 C1918 0.930 . S
H1910 C1920 0.930 . S
H1911 C1923 0.929 . S
H1912 C1926 0.930 . S
H1913 C1928 0.960 . S
H1914 C1928 0.960 . S
H1915 C1928 0.960 . S
C1916 H1908 0.929 . S
C1916 C1917 1.377 . S
C1916 C1918 1.384 . S
C1917 C1916 1.377 . S
C1917 C1923 1.390 . S
C1918 H1909 0.930 . S
C1918 C1916 1.384 . S
C1918 C1919 1.372 . S
C1919 C1918 1.372 . S
C1919 C1920 1.400 . S
C1919 C1924 1.490 . S
C1920 H1910 0.930 . S
C1920 C1919 1.400 . S
C1920 C1923 1.386 . S
H1921 C1937 0.930 . S
H1922 C1938 0.931 . S
C1923 H1911 0.929 . S
C1923 C1917 1.390 . S
C1923 C1920 1.386 . S
C1924 C1919 1.490 . S
C1924 C1926 1.395 . S
C1924 C1927 1.403 . S
H1925 C1931 0.930 . S
C1926 H1912 0.930 . S
C1926 C1924 1.395 . S
C1926 C1929 1.403 1_556 S
C1927 C1924 1.403 . S
C1927 C1928 1.524 . S
C1927 C1931 1.400 1_556 S
C1928 H1913 0.960 . S
C1928 H1914 0.960 . S
C1928 H1915 0.960 . S
C1928 C1927 1.524 . S
C1929 C1926 1.403 1_554 S
C1929 C1930 1.392 . S
C1929 C1933 1.495 . S
C1930 C1929 1.392 . S
C1930 C1931 1.385 . S
C1930 C1932 1.478 . S
C1931 H1925 0.930 . S
C1931 C1927 1.400 1_554 S
C1931 C1930 1.385 . S
C1932 C1930 1.478 . S
C1932 C1934 1.381 . S
C1932 C1938 1.383 . S
C1933 C1929 1.495 . S
C1933 H1939 0.959 . S
C1933 H1940 0.961 . S
C1933 H1941 0.960 . S
C1934 C1932 1.381 . S
C1934 C1935 1.394 . S
C1934 H1942 0.930 . S
C1935 C1934 1.394 . S
C1935 C1936 1.383 . S
C1935 H1943 0.929 . S
C1936 C1935 1.383 . S
C1936 C1937 1.377 . S
C1937 H1921 0.930 . S
C1937 C1936 1.377 . S
C1937 C1938 1.379 . S
C1938 H1922 0.931 . S
C1938 C1932 1.383 . S
C1938 C1937 1.379 . S
H1939 C1933 0.959 . S
H1940 C1933 0.961 . S
H1941 C1933 0.960 . S
H1942 C1934 0.930 . S
H1943 C1935 0.929 . S
H1944 C1952 0.929 . S
H1945 C1954 0.930 . S
H1946 C1956 0.930 . S
H1947 C1959 0.929 . S
H1948 C1962 0.930 . S
H1949 C1964 0.960 . S
H1950 C1964 0.960 . S
H1951 C1964 0.960 . S
C1952 H1944 0.929 . S
C1952 C1953 1.377 . S
C1952 C1954 1.384 . S
C1953 C1952 1.377 . S
C1953 C1959 1.390 . S
C1954 H1945 0.930 . S
C1954 C1952 1.384 . S
C1954 C1955 1.372 . S
C1955 C1954 1.372 . S
C1955 C1956 1.400 . S
C1955 C1960 1.490 . S
C1956 H1946 0.930 . S
C1956 C1955 1.400 . S
C1956 C1959 1.386 . S
H1957 C1973 0.930 . S
H1958 C1974 0.931 . S
C1959 H1947 0.929 . S
C1959 C1953 1.390 . S
C1959 C1956 1.386 . S
C1960 C1955 1.490 . S
C1960 C1962 1.395 . S
C1960 C1963 1.403 . S
H1961 C1967 0.930 . S
C1962 H1948 0.930 . S
C1962 C1960 1.395 . S
C1962 C1965 1.403 . S
C1963 C1960 1.403 . S
C1963 C1964 1.524 . S
C1963 C1967 1.400 . S
C1964 H1949 0.960 . S
C1964 H1950 0.960 . S
C1964 H1951 0.960 . S
C1964 C1963 1.524 . S
C1965 C1962 1.403 . S
C1965 C1966 1.392 . S
C1965 C1969 1.495 . S
C1966 C1965 1.392 . S
C1966 C1967 1.385 . S
C1966 C1968 1.478 . S
C1967 H1961 0.930 . S
C1967 C1963 1.400 . S
C1967 C1966 1.385 . S
C1968 C1966 1.478 . S
C1968 C1970 1.381 . S
C1968 C1974 1.383 . S
C1969 C1965 1.495 . S
C1969 H1975 0.959 . S
C1969 H1976 0.961 . S
C1969 H1977 0.960 . S
C1970 C1968 1.381 . S
C1970 C1971 1.394 . S
C1970 H1978 0.930 . S
C1971 C1970 1.394 . S
C1971 C1972 1.383 . S
C1971 H1979 0.929 . S
C1972 C1971 1.383 . S
C1972 C1973 1.377 . S
C1973 H1957 0.930 . S
C1973 C1972 1.377 . S
C1973 C1974 1.379 . S
C1974 H1958 0.931 . S
C1974 C1968 1.383 . S
C1974 C1973 1.379 . S
H1975 C1969 0.959 . S
H1976 C1969 0.961 . S
H1977 C1969 0.960 . S
H1978 C1970 0.930 . S
H1979 C1971 0.929 . S
H1980 C1988 0.929 . S
H1981 C1990 0.930 . S
H1982 C1992 0.930 . S
H1983 C1995 0.929 . S
H1984 C1998 0.930 . S
H1985 C2000 0.960 . S
H1986 C2000 0.960 . S
H1987 C2000 0.960 . S
C1988 H1980 0.929 . S
C1988 C1989 1.377 . S
C1988 C1990 1.384 . S
C1989 C1988 1.377 . S
C1989 C1995 1.390 . S
C1990 H1981 0.930 . S
C1990 C1988 1.384 . S
C1990 C1991 1.372 . S
C1991 C1990 1.372 . S
C1991 C1992 1.400 . S
C1991 C1996 1.490 . S
C1992 H1982 0.930 . S
C1992 C1991 1.400 . S
C1992 C1995 1.386 . S
H1993 C2009 0.930 . S
H1994 C2010 0.931 . S
C1995 H1983 0.929 . S
C1995 C1989 1.390 . S
C1995 C1992 1.386 . S
C1996 C1991 1.490 . S
C1996 C1998 1.395 . S
C1996 C1999 1.403 . S
H1997 C2003 0.930 . S
C1998 H1984 0.930 . S
C1998 C1996 1.395 . S
C1998 C2001 1.403 . S
C1999 C1996 1.403 . S
C1999 C2000 1.524 . S
C1999 C2003 1.400 . S
C2000 H1985 0.960 . S
C2000 H1986 0.960 . S
C2000 H1987 0.960 . S
C2000 C1999 1.524 . S
C2001 C1998 1.403 . S
C2001 C2002 1.392 . S
C2001 C2005 1.495 . S
C2002 C2001 1.392 . S
C2002 C2003 1.385 . S
C2002 C2004 1.478 . S
C2003 H1997 0.930 . S
C2003 C1999 1.400 . S
C2003 C2002 1.385 . S
C2004 C2002 1.478 . S
C2004 C2006 1.381 . S
C2004 C2010 1.383 . S
C2005 C2001 1.495 . S
C2005 H2011 0.959 . S
C2005 H2012 0.961 . S
C2005 H2013 0.960 . S
C2006 C2004 1.381 . S
C2006 C2007 1.394 . S
C2006 H2014 0.930 . S
C2007 C2006 1.394 . S
C2007 C2008 1.383 . S
C2007 H2015 0.929 . S
C2008 C2007 1.383 . S
C2008 C2009 1.377 . S
C2009 H1993 0.930 . S
C2009 C2008 1.377 . S
C2009 C2010 1.379 . S
C2010 H1994 0.931 . S
C2010 C2004 1.383 . S
C2010 C2009 1.379 . S
H2011 C2005 0.959 . S
H2012 C2005 0.961 . S
H2013 C2005 0.960 . S
H2014 C2006 0.930 . S
H2015 C2007 0.929 . S
H2016 C2024 0.929 . S
H2017 C2026 0.930 . S
H2018 C2028 0.930 . S
H2019 C2031 0.929 . S
H2020 C2034 0.930 . S
H2021 C2036 0.960 . S
H2022 C2036 0.960 . S
H2023 C2036 0.960 . S
C2024 H2016 0.929 . S
C2024 C2025 1.377 . S
C2024 C2026 1.384 . S
C2025 C2024 1.377 . S
C2025 C2031 1.390 . S
C2026 H2017 0.930 . S
C2026 C2024 1.384 . S
C2026 C2027 1.372 . S
C2027 C2026 1.372 . S
C2027 C2028 1.400 . S
C2027 C2032 1.490 . S
C2028 H2018 0.930 . S
C2028 C2027 1.400 . S
C2028 C2031 1.386 . S
H2029 C2045 0.930 . S
H2030 C2046 0.931 . S
C2031 H2019 0.929 . S
C2031 C2025 1.390 . S
C2031 C2028 1.386 . S
C2032 C2027 1.490 . S
C2032 C2034 1.395 . S
C2032 C2035 1.403 . S
H2033 C2039 0.930 . S
C2034 H2020 0.930 . S
C2034 C2032 1.395 . S
C2034 C2037 1.403 . S
C2035 C2032 1.403 . S
C2035 C2036 1.524 . S
C2035 C2039 1.400 . S
C2036 H2021 0.960 . S
C2036 H2022 0.960 . S
C2036 H2023 0.960 . S
C2036 C2035 1.524 . S
C2037 C2034 1.403 . S
C2037 C2038 1.392 . S
C2037 C2041 1.495 . S
C2038 C2037 1.392 . S
C2038 C2039 1.385 . S
C2038 C2040 1.478 . S
C2039 H2033 0.930 . S
C2039 C2035 1.400 . S
C2039 C2038 1.385 . S
C2040 C2038 1.478 . S
C2040 C2042 1.381 . S
C2040 C2046 1.383 . S
C2041 C2037 1.495 . S
C2041 H2047 0.959 . S
C2041 H2048 0.961 . S
C2041 H2049 0.960 . S
C2042 C2040 1.381 . S
C2042 C2043 1.394 . S
C2042 H2050 0.930 . S
C2043 C2042 1.394 . S
C2043 C2044 1.383 . S
C2043 H2051 0.929 . S
C2044 C2043 1.383 . S
C2044 C2045 1.377 . S
C2045 H2029 0.930 . S
C2045 C2044 1.377 . S
C2045 C2046 1.379 . S
C2046 H2030 0.931 . S
C2046 C2040 1.383 . S
C2046 C2045 1.379 . S
H2047 C2041 0.959 . S
H2048 C2041 0.961 . S
H2049 C2041 0.960 . S
H2050 C2042 0.930 . S
H2051 C2043 0.929 . S
H2052 C2060 0.929 . S
H2053 C2062 0.930 . S
H2054 C2064 0.930 . S
H2055 C2067 0.929 . S
H2056 C2070 0.930 . S
H2057 C2072 0.960 . S
H2058 C2072 0.960 . S
H2059 C2072 0.960 . S
C2060 H2052 0.929 . S
C2060 C2061 1.377 . S
C2060 C2062 1.384 . S
C2061 C2060 1.377 . S
C2061 C2067 1.390 . S
C2062 H2053 0.930 . S
C2062 C2060 1.384 . S
C2062 C2063 1.372 . S
C2063 C2062 1.372 . S
C2063 C2064 1.400 . S
C2063 C2068 1.490 . S
C2064 H2054 0.930 . S
C2064 C2063 1.400 . S
C2064 C2067 1.386 . S
H2065 C2081 0.930 . S
H2066 C2082 0.931 . S
C2067 H2055 0.929 . S
C2067 C2061 1.390 . S
C2067 C2064 1.386 . S
C2068 C2063 1.490 . S
C2068 C2070 1.395 . S
C2068 C2071 1.403 . S
H2069 C2075 0.930 . S
C2070 H2056 0.930 . S
C2070 C2068 1.395 . S
C2070 C2073 1.403 . S
C2071 C2068 1.403 . S
C2071 C2072 1.524 . S
C2071 C2075 1.400 . S
C2072 H2057 0.960 . S
C2072 H2058 0.960 . S
C2072 H2059 0.960 . S
C2072 C2071 1.524 . S
C2073 C2070 1.403 . S
C2073 C2074 1.392 . S
C2073 C2077 1.495 . S
C2074 C2073 1.392 . S
C2074 C2075 1.385 . S
C2074 C2076 1.478 . S
C2075 H2069 0.930 . S
C2075 C2071 1.400 . S
C2075 C2074 1.385 . S
C2076 C2074 1.478 . S
C2076 C2078 1.381 . S
C2076 C2082 1.383 . S
C2077 C2073 1.495 . S
C2077 H2083 0.959 . S
C2077 H2084 0.961 . S
C2077 H2085 0.960 . S
C2078 C2076 1.381 . S
C2078 C2079 1.394 . S
C2078 H2086 0.930 . S
C2079 C2078 1.394 . S
C2079 C2080 1.383 . S
C2079 H2087 0.929 . S
C2080 C2079 1.383 . S
C2080 C2081 1.377 . S
C2081 H2065 0.930 . S
C2081 C2080 1.377 . S
C2081 C2082 1.379 . S
C2082 H2066 0.931 . S
C2082 C2076 1.383 . S
C2082 C2081 1.379 . S
H2083 C2077 0.959 . S
H2084 C2077 0.961 . S
H2085 C2077 0.960 . S
H2086 C2078 0.930 . S
H2087 C2079 0.929 . S
H2088 C2096 0.929 . S
H2089 C2098 0.930 . S
H2090 C2100 0.930 . S
H2091 C2103 0.929 . S
H2092 C2106 0.930 . S
H2093 C2108 0.960 . S
H2094 C2108 0.960 . S
H2095 C2108 0.960 . S
C2096 H2088 0.929 . S
C2096 C2097 1.377 . S
C2096 C2098 1.384 . S
C2097 C2096 1.377 . S
C2097 C2103 1.390 . S
C2098 H2089 0.930 . S
C2098 C2096 1.384 . S
C2098 C2099 1.372 . S
C2099 C2098 1.372 . S
C2099 C2100 1.400 . S
C2099 C2104 1.490 . S
C2100 H2090 0.930 . S
C2100 C2099 1.400 . S
C2100 C2103 1.386 . S
H2101 C2117 0.930 . S
H2102 C2118 0.931 . S
C2103 H2091 0.929 . S
C2103 C2097 1.390 . S
C2103 C2100 1.386 . S
C2104 C2099 1.490 . S
C2104 C2106 1.395 . S
C2104 C2107 1.403 . S
H2105 C2111 0.930 . S
C2106 H2092 0.930 . S
C2106 C2104 1.395 . S
C2106 C2109 1.403 . S
C2107 C2104 1.403 . S
C2107 C2108 1.524 . S
C2107 C2111 1.400 . S
C2108 H2093 0.960 . S
C2108 H2094 0.960 . S
C2108 H2095 0.960 . S
C2108 C2107 1.524 . S
C2109 C2106 1.403 . S
C2109 C2110 1.392 . S
C2109 C2113 1.495 . S
C2110 C2109 1.392 . S
C2110 C2111 1.385 . S
C2110 C2112 1.478 . S
C2111 H2105 0.930 . S
C2111 C2107 1.400 . S
C2111 C2110 1.385 . S
C2112 C2110 1.478 . S
C2112 C2114 1.381 . S
C2112 C2118 1.383 . S
C2113 C2109 1.495 . S
C2113 H2119 0.959 . S
C2113 H2120 0.961 . S
C2113 H2121 0.960 . S
C2114 C2112 1.381 . S
C2114 C2115 1.394 . S
C2114 H2122 0.930 . S
C2115 C2114 1.394 . S
C2115 C2116 1.383 . S
C2115 H2123 0.929 . S
C2116 C2115 1.383 . S
C2116 C2117 1.377 . S
C2117 H2101 0.930 . S
C2117 C2116 1.377 . S
C2117 C2118 1.379 . S
C2118 H2102 0.931 . S
C2118 C2112 1.383 . S
C2118 C2117 1.379 . S
H2119 C2113 0.959 . S
H2120 C2113 0.961 . S
H2121 C2113 0.960 . S
H2122 C2114 0.930 . S
H2123 C2115 0.929 . S
H2124 C2132 0.929 . S
H2125 C2134 0.930 . S
H2126 C2136 0.930 . S
H2127 C2139 0.929 . S
H2128 C2142 0.930 . S
H2129 C2144 0.960 . S
H2130 C2144 0.960 . S
H2131 C2144 0.960 . S
C2132 H2124 0.929 . S
C2132 C2133 1.377 . S
C2132 C2134 1.384 . S
C2133 C2132 1.377 . S
C2133 C2139 1.390 . S
C2134 H2125 0.930 . S
C2134 C2132 1.384 . S
C2134 C2135 1.372 . S
C2135 C2134 1.372 . S
C2135 C2136 1.400 . S
C2135 C2140 1.490 . S
C2136 H2126 0.930 . S
C2136 C2135 1.400 . S
C2136 C2139 1.386 . S
H2137 C2153 0.930 . S
H2138 C2154 0.931 . S
C2139 H2127 0.929 . S
C2139 C2133 1.390 . S
C2139 C2136 1.386 . S
C2140 C2135 1.490 . S
C2140 C2142 1.395 . S
C2140 C2143 1.403 . S
H2141 C2147 0.930 . S
C2142 H2128 0.930 . S
C2142 C2140 1.395 . S
C2142 C2145 1.403 . S
C2143 C2140 1.403 . S
C2143 C2144 1.524 . S
C2143 C2147 1.400 . S
C2144 H2129 0.960 . S
C2144 H2130 0.960 . S
C2144 H2131 0.960 . S
C2144 C2143 1.524 . S
C2145 C2142 1.403 . S
C2145 C2146 1.392 . S
C2145 C2149 1.495 . S
C2146 C2145 1.392 . S
C2146 C2147 1.385 . S
C2146 C2148 1.478 . S
C2147 H2141 0.930 . S
C2147 C2143 1.400 . S
C2147 C2146 1.385 . S
C2148 C2146 1.478 . S
C2148 C2150 1.381 . S
C2148 C2154 1.383 . S
C2149 C2145 1.495 . S
C2149 H2155 0.959 . S
C2149 H2156 0.961 . S
C2149 H2157 0.960 . S
C2150 C2148 1.381 . S
C2150 C2151 1.394 . S
C2150 H2158 0.930 . S
C2151 C2150 1.394 . S
C2151 C2152 1.383 . S
C2151 H2159 0.929 . S
C2152 C2151 1.383 . S
C2152 C2153 1.377 . S
C2153 H2137 0.930 . S
C2153 C2152 1.377 . S
C2153 C2154 1.379 . S
C2154 H2138 0.931 . S
C2154 C2148 1.383 . S
C2154 C2153 1.379 . S
H2155 C2149 0.959 . S
H2156 C2149 0.961 . S
H2157 C2149 0.960 . S
H2158 C2150 0.930 . S
H2159 C2151 0.929 . S
H2160 C2168 0.929 . S
H2161 C2170 0.930 . S
H2162 C2172 0.930 . S
H2163 C2175 0.929 . S
H2164 C2178 0.930 . S
H2165 C2180 0.960 . S
H2166 C2180 0.960 . S
H2167 C2180 0.960 . S
C2168 H2160 0.929 . S
C2168 C2169 1.377 . S
C2168 C2170 1.384 . S
C2169 C2168 1.377 . S
C2169 C2175 1.390 . S
C2170 H2161 0.930 . S
C2170 C2168 1.384 . S
C2170 C2171 1.372 . S
C2171 C2170 1.372 . S
C2171 C2172 1.400 . S
C2171 C2176 1.490 . S
C2172 H2162 0.930 . S
C2172 C2171 1.400 . S
C2172 C2175 1.386 . S
H2173 C2189 0.930 . S
H2174 C2190 0.931 . S
C2175 H2163 0.929 . S
C2175 C2169 1.390 . S
C2175 C2172 1.386 . S
C2176 C2171 1.490 . S
C2176 C2178 1.395 . S
C2176 C2179 1.403 . S
H2177 C2183 0.930 . S
C2178 H2164 0.930 . S
C2178 C2176 1.395 . S
C2178 C2181 1.403 . S
C2179 C2176 1.403 . S
C2179 C2180 1.524 . S
C2179 C2183 1.400 . S
C2180 H2165 0.960 . S
C2180 H2166 0.960 . S
C2180 H2167 0.960 . S
C2180 C2179 1.524 . S
C2181 C2178 1.403 . S
C2181 C2182 1.392 . S
C2181 C2185 1.495 . S
C2182 C2181 1.392 . S
C2182 C2183 1.385 . S
C2182 C2184 1.478 . S
C2183 H2177 0.930 . S
C2183 C2179 1.400 . S
C2183 C2182 1.385 . S
C2184 C2182 1.478 . S
C2184 C2186 1.381 . S
C2184 C2190 1.383 . S
C2185 C2181 1.495 . S
C2185 H2191 0.959 . S
C2185 H2192 0.961 . S
C2185 H2193 0.960 . S
C2186 C2184 1.381 . S
C2186 C2187 1.394 . S
C2186 H2194 0.930 . S
C2187 C2186 1.394 . S
C2187 C2188 1.383 . S
C2187 H2195 0.929 . S
C2188 C2187 1.383 . S
C2188 C2189 1.377 . S
C2189 H2173 0.930 . S
C2189 C2188 1.377 . S
C2189 C2190 1.379 . S
C2190 H2174 0.931 . S
C2190 C2184 1.383 . S
C2190 C2189 1.379 . S
H2191 C2185 0.959 . S
H2192 C2185 0.961 . S
H2193 C2185 0.960 . S
H2194 C2186 0.930 . S
H2195 C2187 0.929 . S
H2196 C2204 0.929 . S
H2197 C2206 0.930 . S
H2198 C2208 0.930 . S
H2199 C2211 0.929 . S
H2200 C2214 0.930 . S
H2201 C2216 0.960 . S
H2202 C2216 0.960 . S
H2203 C2216 0.960 . S
C2204 H2196 0.929 . S
C2204 C2205 1.377 . S
C2204 C2206 1.384 . S
C2205 C2204 1.377 . S
C2205 C2211 1.390 . S
C2206 H2197 0.930 . S
C2206 C2204 1.384 . S
C2206 C2207 1.372 . S
C2207 C2206 1.372 . S
C2207 C2208 1.400 . S
C2207 C2212 1.490 . S
C2208 H2198 0.930 . S
C2208 C2207 1.400 . S
C2208 C2211 1.386 . S
H2209 C2225 0.930 . S
H2210 C2226 0.931 . S
C2211 H2199 0.929 . S
C2211 C2205 1.390 . S
C2211 C2208 1.386 . S
C2212 C2207 1.490 . S
C2212 C2214 1.395 . S
C2212 C2215 1.403 . S
H2213 C2219 0.930 . S
C2214 H2200 0.930 . S
C2214 C2212 1.395 . S
C2214 C2217 1.403 . S
C2215 C2212 1.403 . S
C2215 C2216 1.524 . S
C2215 C2219 1.400 . S
C2216 H2201 0.960 . S
C2216 H2202 0.960 . S
C2216 H2203 0.960 . S
C2216 C2215 1.524 . S
C2217 C2214 1.403 . S
C2217 C2218 1.392 . S
C2217 C2221 1.495 . S
C2218 C2217 1.392 . S
C2218 C2219 1.385 . S
C2218 C2220 1.478 . S
C2219 H2213 0.930 . S
C2219 C2215 1.400 . S
C2219 C2218 1.385 . S
C2220 C2218 1.478 . S
C2220 C2222 1.381 . S
C2220 C2226 1.383 . S
C2221 C2217 1.495 . S
C2221 H2227 0.959 . S
C2221 H2228 0.961 . S
C2221 H2229 0.960 . S
C2222 C2220 1.381 . S
C2222 C2223 1.394 . S
C2222 H2230 0.930 . S
C2223 C2222 1.394 . S
C2223 C2224 1.383 . S
C2223 H2231 0.929 . S
C2224 C2223 1.383 . S
C2224 C2225 1.377 . S
C2225 H2209 0.930 . S
C2225 C2224 1.377 . S
C2225 C2226 1.379 . S
C2226 H2210 0.931 . S
C2226 C2220 1.383 . S
C2226 C2225 1.379 . S
H2227 C2221 0.959 . S
H2228 C2221 0.961 . S
H2229 C2221 0.960 . S
H2230 C2222 0.930 . S
H2231 C2223 0.929 . S
H2232 C2240 0.929 . S
H2233 C2242 0.930 . S
H2234 C2244 0.930 . S
H2235 C2247 0.929 . S
H2236 C2250 0.930 . S
H2237 C2252 0.960 . S
H2238 C2252 0.960 . S
H2239 C2252 0.960 . S
C2240 H2232 0.929 . S
C2240 C2241 1.377 . S
C2240 C2242 1.384 . S
C2241 C2240 1.377 . S
C2241 C2247 1.390 . S
C2242 H2233 0.930 . S
C2242 C2240 1.384 . S
C2242 C2243 1.372 . S
C2243 C2242 1.372 . S
C2243 C2244 1.400 . S
C2243 C2248 1.490 . S
C2244 H2234 0.930 . S
C2244 C2243 1.400 . S
C2244 C2247 1.386 . S
H2245 C2261 0.930 . S
H2246 C2262 0.931 . S
C2247 H2235 0.929 . S
C2247 C2241 1.390 . S
C2247 C2244 1.386 . S
C2248 C2243 1.490 . S
C2248 C2250 1.395 . S
C2248 C2251 1.403 . S
H2249 C2255 0.930 . S
C2250 H2236 0.930 . S
C2250 C2248 1.395 . S
C2250 C2253 1.403 . S
C2251 C2248 1.403 . S
C2251 C2252 1.524 . S
C2251 C2255 1.400 . S
C2252 H2237 0.960 . S
C2252 H2238 0.960 . S
C2252 H2239 0.960 . S
C2252 C2251 1.524 . S
C2253 C2250 1.403 . S
C2253 C2254 1.392 . S
C2253 C2257 1.495 . S
C2254 C2253 1.392 . S
C2254 C2255 1.385 . S
C2254 C2256 1.478 . S
C2255 H2249 0.930 . S
C2255 C2251 1.400 . S
C2255 C2254 1.385 . S
C2256 C2254 1.478 . S
C2256 C2258 1.381 . S
C2256 C2262 1.383 . S
C2257 C2253 1.495 . S
C2257 H2263 0.959 . S
C2257 H2264 0.961 . S
C2257 H2265 0.960 . S
C2258 C2256 1.381 . S
C2258 C2259 1.394 . S
C2258 H2266 0.930 . S
C2259 C2258 1.394 . S
C2259 C2260 1.383 . S
C2259 H2267 0.929 . S
C2260 C2259 1.383 . S
C2260 C2261 1.377 . S
C2261 H2245 0.930 . S
C2261 C2260 1.377 . S
C2261 C2262 1.379 . S
C2262 H2246 0.931 . S
C2262 C2256 1.383 . S
C2262 C2261 1.379 . S
H2263 C2257 0.959 . S
H2264 C2257 0.961 . S
H2265 C2257 0.960 . S
H2266 C2258 0.930 . S
H2267 C2259 0.929 . S
H2268 C2276 0.929 . S
H2269 C2278 0.930 . S
H2270 C2280 0.930 . S
H2271 C2283 0.929 . S
H2272 C2286 0.930 . S
H2273 C2288 0.960 . S
H2274 C2288 0.960 . S
H2275 C2288 0.960 . S
C2276 H2268 0.929 . S
C2276 C2277 1.377 . S
C2276 C2278 1.384 . S
C2277 C2276 1.377 . S
C2277 C2283 1.390 . S
C2278 H2269 0.930 . S
C2278 C2276 1.384 . S
C2278 C2279 1.372 . S
C2279 C2278 1.372 . S
C2279 C2280 1.400 . S
C2279 C2284 1.490 . S
C2280 H2270 0.930 . S
C2280 C2279 1.400 . S
C2280 C2283 1.386 . S
H2281 C2297 0.930 . S
H2282 C2298 0.931 . S
C2283 H2271 0.929 . S
C2283 C2277 1.390 . S
C2283 C2280 1.386 . S
C2284 C2279 1.490 . S
C2284 C2286 1.395 . S
C2284 C2287 1.403 . S
H2285 C2291 0.930 . S
C2286 H2272 0.930 . S
C2286 C2284 1.395 . S
C2286 C2289 1.403 . S
C2287 C2284 1.403 . S
C2287 C2288 1.524 . S
C2287 C2291 1.400 . S
C2288 H2273 0.960 . S
C2288 H2274 0.960 . S
C2288 H2275 0.960 . S
C2288 C2287 1.524 . S
C2289 C2286 1.403 . S
C2289 C2290 1.392 . S
C2289 C2293 1.495 . S
C2290 C2289 1.392 . S
C2290 C2291 1.385 . S
C2290 C2292 1.478 . S
C2291 H2285 0.930 . S
C2291 C2287 1.400 . S
C2291 C2290 1.385 . S
C2292 C2290 1.478 . S
C2292 C2294 1.381 . S
C2292 C2298 1.383 . S
C2293 C2289 1.495 . S
C2293 H2299 0.959 . S
C2293 H2300 0.961 . S
C2293 H2301 0.960 . S
C2294 C2292 1.381 . S
C2294 C2295 1.394 . S
C2294 H2302 0.930 . S
C2295 C2294 1.394 . S
C2295 C2296 1.383 . S
C2295 H2303 0.929 . S
C2296 C2295 1.383 . S
C2296 C2297 1.377 . S
C2297 H2281 0.930 . S
C2297 C2296 1.377 . S
C2297 C2298 1.379 . S
C2298 H2282 0.931 . S
C2298 C2292 1.383 . S
C2298 C2297 1.379 . S
H2299 C2293 0.959 . S
H2300 C2293 0.961 . S
H2301 C2293 0.960 . S
H2302 C2294 0.930 . S
H2303 C2295 0.929 . S
H2304 C2312 0.929 . S
H2305 C2314 0.930 . S
H2306 C2316 0.930 . S
H2307 C2319 0.929 . S
H2308 C2322 0.930 . S
H2309 C2324 0.960 . S
H2310 C2324 0.960 . S
H2311 C2324 0.960 . S
C2312 H2304 0.929 . S
C2312 C2313 1.377 . S
C2312 C2314 1.384 . S
C2313 C2312 1.377 . S
C2313 C2319 1.390 . S
C2314 H2305 0.930 . S
C2314 C2312 1.384 . S
C2314 C2315 1.372 . S
C2315 C2314 1.372 . S
C2315 C2316 1.400 . S
C2315 C2320 1.490 . S
C2316 H2306 0.930 . S
C2316 C2315 1.400 . S
C2316 C2319 1.386 . S
H2317 C2333 0.930 . S
H2318 C2334 0.931 . S
C2319 H2307 0.929 . S
C2319 C2313 1.390 . S
C2319 C2316 1.386 . S
C2320 C2315 1.490 . S
C2320 C2322 1.395 . S
C2320 C2323 1.403 . S
H2321 C2327 0.930 . S
C2322 H2308 0.930 . S
C2322 C2320 1.395 . S
C2322 C2325 1.403 . S
C2323 C2320 1.403 . S
C2323 C2324 1.524 . S
C2323 C2327 1.400 . S
C2324 H2309 0.960 . S
C2324 H2310 0.960 . S
C2324 H2311 0.960 . S
C2324 C2323 1.524 . S
C2325 C2322 1.403 . S
C2325 C2326 1.392 . S
C2325 C2329 1.495 . S
C2326 C2325 1.392 . S
C2326 C2327 1.385 . S
C2326 C2328 1.478 . S
C2327 H2321 0.930 . S
C2327 C2323 1.400 . S
C2327 C2326 1.385 . S
C2328 C2326 1.478 . S
C2328 C2330 1.381 . S
C2328 C2334 1.383 . S
C2329 C2325 1.495 . S
C2329 H2335 0.959 . S
C2329 H2336 0.961 . S
C2329 H2337 0.960 . S
C2330 C2328 1.381 . S
C2330 C2331 1.394 . S
C2330 H2338 0.930 . S
C2331 C2330 1.394 . S
C2331 C2332 1.383 . S
C2331 H2339 0.929 . S
C2332 C2331 1.383 . S
C2332 C2333 1.377 . S
C2333 H2317 0.930 . S
C2333 C2332 1.377 . S
C2333 C2334 1.379 . S
C2334 H2318 0.931 . S
C2334 C2328 1.383 . S
C2334 C2333 1.379 . S
H2335 C2329 0.959 . S
H2336 C2329 0.961 . S
H2337 C2329 0.960 . S
H2338 C2330 0.930 . S
H2339 C2331 0.929 . S
H2340 C2348 0.929 . S
H2341 C2350 0.930 . S
H2342 C2352 0.930 . S
H2343 C2355 0.929 . S
H2344 C2358 0.930 . S
H2345 C2360 0.960 . S
H2346 C2360 0.960 . S
H2347 C2360 0.960 . S
C2348 H2340 0.929 . S
C2348 C2349 1.377 . S
C2348 C2350 1.384 . S
C2349 C2348 1.377 . S
C2349 C2355 1.390 . S
C2350 H2341 0.930 . S
C2350 C2348 1.384 . S
C2350 C2351 1.372 . S
C2351 C2350 1.372 . S
C2351 C2352 1.400 . S
C2351 C2356 1.490 . S
C2352 H2342 0.930 . S
C2352 C2351 1.400 . S
C2352 C2355 1.386 . S
H2353 C2369 0.930 . S
H2354 C2370 0.931 . S
C2355 H2343 0.929 . S
C2355 C2349 1.390 . S
C2355 C2352 1.386 . S
C2356 C2351 1.490 . S
C2356 C2358 1.395 . S
C2356 C2359 1.403 . S
H2357 C2363 0.930 . S
C2358 H2344 0.930 . S
C2358 C2356 1.395 . S
C2358 C2361 1.403 . S
C2359 C2356 1.403 . S
C2359 C2360 1.524 . S
C2359 C2363 1.400 . S
C2360 H2345 0.960 . S
C2360 H2346 0.960 . S
C2360 H2347 0.960 . S
C2360 C2359 1.524 . S
C2361 C2358 1.403 . S
C2361 C2362 1.392 . S
C2361 C2365 1.495 . S
C2362 C2361 1.392 . S
C2362 C2363 1.385 . S
C2362 C2364 1.478 . S
C2363 H2357 0.930 . S
C2363 C2359 1.400 . S
C2363 C2362 1.385 . S
C2364 C2362 1.478 . S
C2364 C2366 1.381 . S
C2364 C2370 1.383 . S
C2365 C2361 1.495 . S
C2365 H2371 0.959 . S
C2365 H2372 0.961 . S
C2365 H2373 0.960 . S
C2366 C2364 1.381 . S
C2366 C2367 1.394 . S
C2366 H2374 0.930 . S
C2367 C2366 1.394 . S
C2367 C2368 1.383 . S
C2367 H2375 0.929 . S
C2368 C2367 1.383 . S
C2368 C2369 1.377 . S
C2369 H2353 0.930 . S
C2369 C2368 1.377 . S
C2369 C2370 1.379 . S
C2370 H2354 0.931 . S
C2370 C2364 1.383 . S
C2370 C2369 1.379 . S
H2371 C2365 0.959 . S
H2372 C2365 0.961 . S
H2373 C2365 0.960 . S
H2374 C2366 0.930 . S
H2375 C2367 0.929 . S
H2376 C2384 0.929 . S
H2377 C2386 0.930 . S
H2378 C2388 0.930 . S
H2379 C2391 0.929 . S
H2380 C2394 0.930 . S
H2381 C2396 0.960 . S
H2382 C2396 0.960 . S
H2383 C2396 0.960 . S
C2384 H2376 0.929 . S
C2384 C2385 1.377 . S
C2384 C2386 1.384 . S
C2385 C2384 1.377 . S
C2385 C2391 1.390 . S
C2386 H2377 0.930 . S
C2386 C2384 1.384 . S
C2386 C2387 1.372 . S
C2387 C2386 1.372 . S
C2387 C2388 1.400 . S
C2387 C2392 1.490 . S
C2388 H2378 0.930 . S
C2388 C2387 1.400 . S
C2388 C2391 1.386 . S
H2389 C2405 0.930 . S
H2390 C2406 0.931 . S
C2391 H2379 0.929 . S
C2391 C2385 1.390 . S
C2391 C2388 1.386 . S
C2392 C2387 1.490 . S
C2392 C2394 1.395 . S
C2392 C2395 1.403 . S
H2393 C2399 0.930 . S
C2394 H2380 0.930 . S
C2394 C2392 1.395 . S
C2394 C2397 1.403 . S
C2395 C2392 1.403 . S
C2395 C2396 1.524 . S
C2395 C2399 1.400 . S
C2396 H2381 0.960 . S
C2396 H2382 0.960 . S
C2396 H2383 0.960 . S
C2396 C2395 1.524 . S
C2397 C2394 1.403 . S
C2397 C2398 1.392 . S
C2397 C2401 1.495 . S
C2398 C2397 1.392 . S
C2398 C2399 1.385 . S
C2398 C2400 1.478 . S
C2399 H2393 0.930 . S
C2399 C2395 1.400 . S
C2399 C2398 1.385 . S
C2400 C2398 1.478 . S
C2400 C2402 1.381 . S
C2400 C2406 1.383 . S
C2401 C2397 1.495 . S
C2401 H2407 0.959 . S
C2401 H2408 0.961 . S
C2401 H2409 0.960 . S
C2402 C2400 1.381 . S
C2402 C2403 1.394 . S
C2402 H2410 0.930 . S
C2403 C2402 1.394 . S
C2403 C2404 1.383 . S
C2403 H2411 0.929 . S
C2404 C2403 1.383 . S
C2404 C2405 1.377 . S
C2405 H2389 0.930 . S
C2405 C2404 1.377 . S
C2405 C2406 1.379 . S
C2406 H2390 0.931 . S
C2406 C2400 1.383 . S
C2406 C2405 1.379 . S
H2407 C2401 0.959 . S
H2408 C2401 0.961 . S
H2409 C2401 0.960 . S
H2410 C2402 0.930 . S
H2411 C2403 0.929 . S
H2412 C2420 0.929 . S
H2413 C2422 0.930 . S
H2414 C2424 0.930 . S
H2415 C2427 0.929 . S
H2416 C2430 0.930 . S
H2417 C2432 0.960 . S
H2418 C2432 0.960 . S
H2419 C2432 0.960 . S
C2420 H2412 0.929 . S
C2420 C2421 1.377 . S
C2420 C2422 1.384 . S
C2421 C2420 1.377 . S
C2421 C2427 1.390 . S
C2422 H2413 0.930 . S
C2422 C2420 1.384 . S
C2422 C2423 1.372 . S
C2423 C2422 1.372 . S
C2423 C2424 1.400 . S
C2423 C2428 1.490 . S
C2424 H2414 0.930 . S
C2424 C2423 1.400 . S
C2424 C2427 1.386 . S
H2425 C2441 0.930 . S
H2426 C2442 0.931 . S
C2427 H2415 0.929 . S
C2427 C2421 1.390 . S
C2427 C2424 1.386 . S
C2428 C2423 1.490 . S
C2428 C2430 1.395 . S
C2428 C2431 1.403 . S
H2429 C2435 0.930 . S
C2430 H2416 0.930 . S
C2430 C2428 1.395 . S
C2430 C2433 1.403 . S
C2431 C2428 1.403 . S
C2431 C2432 1.524 . S
C2431 C2435 1.400 . S
C2432 H2417 0.960 . S
C2432 H2418 0.960 . S
C2432 H2419 0.960 . S
C2432 C2431 1.524 . S
C2433 C2430 1.403 . S
C2433 C2434 1.392 . S
C2433 C2437 1.495 . S
C2434 C2433 1.392 . S
C2434 C2435 1.385 . S
C2434 C2436 1.478 . S
C2435 H2429 0.930 . S
C2435 C2431 1.400 . S
C2435 C2434 1.385 . S
C2436 C2434 1.478 . S
C2436 C2438 1.381 . S
C2436 C2442 1.383 . S
C2437 C2433 1.495 . S
C2437 H2443 0.959 . S
C2437 H2444 0.961 . S
C2437 H2445 0.960 . S
C2438 C2436 1.381 . S
C2438 C2439 1.394 . S
C2438 H2446 0.930 . S
C2439 C2438 1.394 . S
C2439 C2440 1.383 . S
C2439 H2447 0.929 . S
C2440 C2439 1.383 . S
C2440 C2441 1.377 . S
C2441 H2425 0.930 . S
C2441 C2440 1.377 . S
C2441 C2442 1.379 . S
C2442 H2426 0.931 . S
C2442 C2436 1.383 . S
C2442 C2441 1.379 . S
H2443 C2437 0.959 . S
H2444 C2437 0.961 . S
H2445 C2437 0.960 . S
H2446 C2438 0.930 . S
H2447 C2439 0.929 . S
H2448 C2456 0.929 . S
H2449 C2458 0.930 . S
H2450 C2460 0.930 . S
H2451 C2463 0.929 . S
H2452 C2466 0.930 . S
H2453 C2468 0.960 . S
H2454 C2468 0.960 . S
H2455 C2468 0.960 . S
C2456 H2448 0.929 . S
C2456 C2457 1.377 . S
C2456 C2458 1.384 . S
C2457 C2456 1.377 . S
C2457 C2463 1.390 . S
C2458 H2449 0.930 . S
C2458 C2456 1.384 . S
C2458 C2459 1.372 . S
C2459 C2458 1.372 . S
C2459 C2460 1.400 . S
C2459 C2464 1.490 . S
C2460 H2450 0.930 . S
C2460 C2459 1.400 . S
C2460 C2463 1.386 . S
H2461 C2477 0.930 . S
H2462 C2478 0.931 . S
C2463 H2451 0.929 . S
C2463 C2457 1.390 . S
C2463 C2460 1.386 . S
C2464 C2459 1.490 . S
C2464 C2466 1.395 . S
C2464 C2467 1.403 . S
H2465 C2471 0.930 . S
C2466 H2452 0.930 . S
C2466 C2464 1.395 . S
C2466 C2469 1.403 . S
C2467 C2464 1.403 . S
C2467 C2468 1.524 . S
C2467 C2471 1.400 . S
C2468 H2453 0.960 . S
C2468 H2454 0.960 . S
C2468 H2455 0.960 . S
C2468 C2467 1.524 . S
C2469 C2466 1.403 . S
C2469 C2470 1.392 . S
C2469 C2473 1.495 . S
C2470 C2469 1.392 . S
C2470 C2471 1.385 . S
C2470 C2472 1.478 . S
C2471 H2465 0.930 . S
C2471 C2467 1.400 . S
C2471 C2470 1.385 . S
C2472 C2470 1.478 . S
C2472 C2474 1.381 . S
C2472 C2478 1.383 . S
C2473 C2469 1.495 . S
C2473 H2479 0.959 . S
C2473 H2480 0.961 . S
C2473 H2481 0.960 . S
C2474 C2472 1.381 . S
C2474 C2475 1.394 . S
C2474 H2482 0.930 . S
C2475 C2474 1.394 . S
C2475 C2476 1.383 . S
C2475 H2483 0.929 . S
C2476 C2475 1.383 . S
C2476 C2477 1.377 . S
C2477 H2461 0.930 . S
C2477 C2476 1.377 . S
C2477 C2478 1.379 . S
C2478 H2462 0.931 . S
C2478 C2472 1.383 . S
C2478 C2477 1.379 . S
H2479 C2473 0.959 . S
H2480 C2473 0.961 . S
H2481 C2473 0.960 . S
H2482 C2474 0.930 . S
H2483 C2475 0.929 . S
H2484 C2492 0.929 . S
H2485 C2494 0.930 . S
H2486 C2496 0.930 . S
H2487 C2499 0.929 . S
H2488 C2502 0.930 . S
H2489 C2504 0.960 . S
H2490 C2504 0.960 . S
H2491 C2504 0.960 . S
C2492 H2484 0.929 . S
C2492 C2493 1.377 . S
C2492 C2494 1.384 . S
C2493 C2492 1.377 . S
C2493 C2499 1.390 . S
C2494 H2485 0.930 . S
C2494 C2492 1.384 . S
C2494 C2495 1.372 . S
C2495 C2494 1.372 . S
C2495 C2496 1.400 . S
C2495 C2500 1.490 . S
C2496 H2486 0.930 . S
C2496 C2495 1.400 . S
C2496 C2499 1.386 . S
H2497 C2513 0.930 . S
H2498 C2514 0.931 . S
C2499 H2487 0.929 . S
C2499 C2493 1.390 . S
C2499 C2496 1.386 . S
C2500 C2495 1.490 . S
C2500 C2502 1.395 . S
C2500 C2503 1.403 . S
H2501 C2507 0.930 . S
C2502 H2488 0.930 . S
C2502 C2500 1.395 . S
C2502 C2505 1.403 . S
C2503 C2500 1.403 . S
C2503 C2504 1.524 . S
C2503 C2507 1.400 . S
C2504 H2489 0.960 . S
C2504 H2490 0.960 . S
C2504 H2491 0.960 . S
C2504 C2503 1.524 . S
C2505 C2502 1.403 . S
C2505 C2506 1.392 . S
C2505 C2509 1.495 . S
C2506 C2505 1.392 . S
C2506 C2507 1.385 . S
C2506 C2508 1.478 . S
C2507 H2501 0.930 . S
C2507 C2503 1.400 . S
C2507 C2506 1.385 . S
C2508 C2506 1.478 . S
C2508 C2510 1.381 . S
C2508 C2514 1.383 . S
C2509 C2505 1.495 . S
C2509 H2515 0.959 . S
C2509 H2516 0.961 . S
C2509 H2517 0.960 . S
C2510 C2508 1.381 . S
C2510 C2511 1.394 . S
C2510 H2518 0.930 . S
C2511 C2510 1.394 . S
C2511 C2512 1.383 . S
C2511 H2519 0.929 . S
C2512 C2511 1.383 . S
C2512 C2513 1.377 . S
C2513 H2497 0.930 . S
C2513 C2512 1.377 . S
C2513 C2514 1.379 . S
C2514 H2498 0.931 . S
C2514 C2508 1.383 . S
C2514 C2513 1.379 . S
H2515 C2509 0.959 . S
H2516 C2509 0.961 . S
H2517 C2509 0.960 . S
H2518 C2510 0.930 . S
H2519 C2511 0.929 . S
H2520 C2528 0.929 . S
H2521 C2530 0.930 . S
H2522 C2532 0.930 . S
H2523 C2535 0.929 . S
H2524 C2538 0.930 . S
H2525 C2540 0.960 . S
H2526 C2540 0.960 . S
H2527 C2540 0.960 . S
C2528 H2520 0.929 . S
C2528 C2529 1.377 . S
C2528 C2530 1.384 . S
C2529 C2528 1.377 . S
C2529 C2535 1.390 . S
C2530 H2521 0.930 . S
C2530 C2528 1.384 . S
C2530 C2531 1.372 . S
C2531 C2530 1.372 . S
C2531 C2532 1.400 . S
C2531 C2536 1.490 . S
C2532 H2522 0.930 . S
C2532 C2531 1.400 . S
C2532 C2535 1.386 . S
H2533 C2549 0.930 . S
H2534 C2550 0.931 . S
C2535 H2523 0.929 . S
C2535 C2529 1.390 . S
C2535 C2532 1.386 . S
C2536 C2531 1.490 . S
C2536 C2538 1.395 . S
C2536 C2539 1.403 . S
H2537 C2543 0.930 . S
C2538 H2524 0.930 . S
C2538 C2536 1.395 . S
C2538 C2541 1.403 . S
C2539 C2536 1.403 . S
C2539 C2540 1.524 . S
C2539 C2543 1.400 . S
C2540 H2525 0.960 . S
C2540 H2526 0.960 . S
C2540 H2527 0.960 . S
C2540 C2539 1.524 . S
C2541 C2538 1.403 . S
C2541 C2542 1.392 . S
C2541 C2545 1.495 . S
C2542 C2541 1.392 . S
C2542 C2543 1.385 . S
C2542 C2544 1.478 . S
C2543 H2537 0.930 . S
C2543 C2539 1.400 . S
C2543 C2542 1.385 . S
C2544 C2542 1.478 . S
C2544 C2546 1.381 . S
C2544 C2550 1.383 . S
C2545 C2541 1.495 . S
C2545 H2551 0.959 . S
C2545 H2552 0.961 . S
C2545 H2553 0.960 . S
C2546 C2544 1.381 . S
C2546 C2547 1.394 . S
C2546 H2554 0.930 . S
C2547 C2546 1.394 . S
C2547 C2548 1.383 . S
C2547 H2555 0.929 . S
C2548 C2547 1.383 . S
C2548 C2549 1.377 . S
C2549 H2533 0.930 . S
C2549 C2548 1.377 . S
C2549 C2550 1.379 . S
C2550 H2534 0.931 . S
C2550 C2544 1.383 . S
C2550 C2549 1.379 . S
H2551 C2545 0.959 . S
H2552 C2545 0.961 . S
H2553 C2545 0.960 . S
H2554 C2546 0.930 . S
H2555 C2547 0.929 . S
H2556 C2564 0.929 . S
H2557 C2566 0.930 . S
H2558 C2568 0.930 . S
H2559 C2571 0.929 . S
H2560 C2574 0.930 . S
H2561 C2576 0.960 . S
H2562 C2576 0.960 . S
H2563 C2576 0.960 . S
C2564 H2556 0.929 . S
C2564 C2565 1.377 . S
C2564 C2566 1.384 . S
C2565 C2564 1.377 . S
C2565 C2571 1.390 . S
C2566 H2557 0.930 . S
C2566 C2564 1.384 . S
C2566 C2567 1.372 . S
C2567 C2566 1.372 . S
C2567 C2568 1.400 . S
C2567 C2572 1.490 . S
C2568 H2558 0.930 . S
C2568 C2567 1.400 . S
C2568 C2571 1.386 . S
H2569 C2585 0.930 . S
H2570 C2586 0.931 . S
C2571 H2559 0.929 . S
C2571 C2565 1.390 . S
C2571 C2568 1.386 . S
C2572 C2567 1.490 . S
C2572 C2574 1.395 . S
C2572 C2575 1.403 . S
H2573 C2579 0.930 . S
C2574 H2560 0.930 . S
C2574 C2572 1.395 . S
C2574 C2577 1.403 . S
C2575 C2572 1.403 . S
C2575 C2576 1.524 . S
C2575 C2579 1.400 . S
C2576 H2561 0.960 . S
C2576 H2562 0.960 . S
C2576 H2563 0.960 . S
C2576 C2575 1.524 . S
C2577 C2574 1.403 . S
C2577 C2578 1.392 . S
C2577 C2581 1.495 . S
C2578 C2577 1.392 . S
C2578 C2579 1.385 . S
C2578 C2580 1.478 . S
C2579 H2573 0.930 . S
C2579 C2575 1.400 . S
C2579 C2578 1.385 . S
C2580 C2578 1.478 . S
C2580 C2582 1.381 . S
C2580 C2586 1.383 . S
C2581 C2577 1.495 . S
C2581 H2587 0.959 . S
C2581 H2588 0.961 . S
C2581 H2589 0.960 . S
C2582 C2580 1.381 . S
C2582 C2583 1.394 . S
C2582 H2590 0.930 . S
C2583 C2582 1.394 . S
C2583 C2584 1.383 . S
C2583 H2591 0.929 . S
C2584 C2583 1.383 . S
C2584 C2585 1.377 . S
C2585 H2569 0.930 . S
C2585 C2584 1.377 . S
C2585 C2586 1.379 . S
C2586 H2570 0.931 . S
C2586 C2580 1.383 . S
C2586 C2585 1.379 . S
H2587 C2581 0.959 . S
H2588 C2581 0.961 . S
H2589 C2581 0.960 . S
H2590 C2582 0.930 . S
H2591 C2583 0.929 . S
C873 C3 1.496 . S
C892 C255 1.497 . S
C909 C291 1.497 . S
C928 C39 1.492 . S
C945 C75 1.496 . S
C964 C327 1.499 . S
C981 C111 1.496 . S
C1000 C363 1.497 . S
C1017 C399 1.496 . S
C1036 C147 1.497 . S
C1053 C183 1.498 . S
C1072 C219 1.489 . S
C1089 C435 1.497 . S
C1108 C687 1.492 . S
C1125 C471 1.498 . S
C1144 C723 1.499 . S
C1161 C759 1.497 . S
C1180 C507 1.499 . S
C1197 C543 1.498 . S
C1216 C795 1.499 . S
C1233 C579 1.498 . S
C1252 C831 1.499 . S
C1269 C651 1.498 . S
C1288 C615 1.499 . S
C1305 C4 1.303 . S
C1324 C292 1.289 . S
C1341 C328 1.303 . S
C1360 C40 1.307 . S
C1377 C364 1.302 . S
C1396 C76 1.292 . S
C1413 C112 1.303 . S
C1432 C400 1.288 . S
C1449 C148 1.304 . S
C1468 C220 1.300 . S
C1485 C184 1.301 . S
C1504 C256 1.295 . S
C1521 C724 1.301 . S
C1540 C436 1.296 . S
C1557 C472 1.302 . S
C1576 C760 1.310 . S
C1593 C796 1.303 . S
C1612 C508 1.289 . S
C1629 C832 1.303 . S
C1648 C544 1.288 . S
C1665 C652 1.300 . S
C1684 C580 1.302 . S
C1701 C616 1.305 . S
C1720 C688 1.292 . S
C1737 C14 1.495 . S
C1756 C554 1.520 . S
C1773 C590 1.497 . S
C1792 C50 1.480 . S
C1809 C626 1.495 . S
C1828 C86 1.498 . S
C1845 C122 1.505 . S
C1864 C446 1.490 . S
C1881 C158 1.498 . S
C1900 C482 1.523 . S
C1917 C518 1.503 . S
C1936 C194 1.508 . S
C1953 C770 1.505 . S
C1972 C230 1.476 . S
C1989 C806 1.505 . S
C2008 C266 1.484 . S
C2025 C842 1.504 . S
C2044 C302 1.498 . S
C2061 C662 1.497 . S
C2080 C338 1.523 . S
C2097 C374 1.494 . S
C2116 C698 1.509 . S
C2133 C410 1.497 . S
C2152 C734 1.523 . S
C2169 C2 1.380 . S
C2188 C362 1.376 . S
C2205 C398 1.379 . S
C2224 C38 1.371 . S
C2241 C218 1.383 . S
C2260 C74 1.387 . S
C2277 C110 1.383 . S
C2296 C254 1.387 . S
C2313 C146 1.383 . S
C2332 C290 1.387 . S
C2349 C182 1.383 . S
C2368 C326 1.388 . S
C2385 C434 1.380 . S
C2404 C794 1.386 . S
C2421 C470 1.380 . S
C2440 C830 1.383 . S
C2457 C506 1.379 . S
C2476 C650 1.388 . S
C2493 C686 1.381 . S
C2512 C542 1.377 . S
C2529 C578 1.380 . S
C2548 C722 1.387 . S
C2565 C614 1.379 . S
C2584 C758 1.388 . S
