# Generated by pormake.
# Topology sxc, (6)-cn, num edge types: 1
# Building blocks:
#     Node 0, Type 0, BuildingBlock: BETFEN_clean_sbu_0, # of connection points: 6
#     Node 1, Type 0, BuildingBlock: BETFEN_clean_sbu_0, # of connection points: 6
#     Node 2, Type 0, BuildingBlock: BETFEN_clean_sbu_0, # of connection points: 6
#     Edge 3, Type (0, 0), BuildingBlock: TEMPAE_clean_linker_10, # of connection points: 2
#     Edge 4, Type (0, 0), BuildingBlock: TEMPAE_clean_linker_10, # of connection points: 2
#     Edge 5, Type (0, 0), BuildingBlock: TEMPAE_clean_linker_10, # of connection points: 2
#     Edge 6, Type (0, 0), BuildingBlock: TEMPAE_clean_linker_10, # of connection points: 2
#     Edge 7, Type (0, 0), BuildingBlock: TEMPAE_clean_linker_10, # of connection points: 2
#     Edge 8, Type (0, 0), BuildingBlock: TEMPAE_clean_linker_10, # of connection points: 2
#     Edge 9, Type (0, 0), BuildingBlock: TEMPAE_clean_linker_10, # of connection points: 2
#     Edge 10, Type (0, 0), BuildingBlock: TEMPAE_clean_linker_10, # of connection points: 2
#     Edge 11, Type (0, 0), BuildingBlock: TEMPAE_clean_linker_10, # of connection points: 2
# Relax obj value: 0.318
# Max RMSD: 0.161
# Mean RMSD: 0.088
data_MOF--net-sxc--node1-BETFEN_clean_sbu_0--edge1-TEMPAE_clean_linker_10
_symmetry_space_group_name_H-M    P1
_symmetry_Int_Tables_number       1
_symmetry_cell_setting            triclinic
loop_
_symmetry_equiv_pos_as_xyz
'x, y, z'
_cell_length_a     16.265962
_cell_length_b     17.771212
_cell_length_c     46.326256
_cell_angle_alpha  94.107891
_cell_angle_beta   91.491845
_cell_angle_gamma 93.923686
loop_
_atom_site_label
_atom_site_type_symbol
_atom_site_fract_x
_atom_site_fract_y
_atom_site_fract_z
_atom_type_partial_charge
Pr0 Pr 0.19587 0.14416 0.00554 0.0
Pr1 Pr 1.03639 0.14399 0.00596 0.0
C2 C 0.35656 0.16787 -0.00578 0.0
C3 C 0.40752 0.23626 -0.01118 0.0
C4 C 0.48002 0.25472 0.00556 0.0
C5 C 0.51957 0.32677 0.00553 0.0
C6 C 0.48742 0.38067 -0.0115 0.0
C7 C 0.41827 0.36057 0.97021 0.0
C8 C 0.37812 0.28886 0.97049 0.0
C9 C 0.1482 0.13698 0.06318 0.0
C10 C 0.11715 0.32731 0.00669 0.0
C11 C 0.87374 0.12305 0.01506 0.0
C12 C 0.81673 1.05652 0.01798 0.0
C13 C 0.75144 1.03957 -0.00233 0.0
C14 C 0.70546 0.97025 -0.00292 0.0
C15 C 0.72402 0.91724 0.01693 0.0
C16 C 0.78548 0.93666 0.03854 0.0
C17 C 0.83178 1.00552 0.03899 0.0
C18 C 0.08861 0.15159 0.94882 0.0
C19 C 0.11573 0.96068 0.0058 0.0
O20 O 0.3006 0.14381 0.97436 0.0
O21 O 0.32929 0.16643 0.0204 0.0
O22 O 0.12095 0.18206 0.04579 0.0
O23 O 0.19787 1.09209 0.05049 0.0
O24 O 1.04847 0.28458 0.01126 0.0
O25 O 0.18299 0.28592 0.002 0.0
O26 O 0.92903 0.13968 0.03588 0.0
O27 O 0.90365 0.12921 -0.01056 0.0
O28 O 0.11032 1.10413 0.96613 0.0
O29 O 1.04415 0.20094 0.96167 0.0
O30 O 0.18582 1.00379 0.00396 0.0
O31 O 1.04833 1.0014 0.0075 0.0
H32 H 0.50319 0.21499 0.01993 0.0
H33 H 0.5732 0.34151 0.01969 0.0
H34 H 0.39232 0.40178 0.95712 0.0
H35 H 0.32164 0.27625 0.95762 0.0
H36 H 0.73877 1.07831 0.98135 0.0
H37 H 0.6586 0.95657 0.98012 0.0
H38 H 0.79986 0.89734 0.05446 0.0
H39 H 0.88149 1.01717 0.05504 0.0
Pr40 Pr 0.10105 0.21158 0.34222 0.0
Pr41 Pr 0.09518 1.05997 0.33484 0.0
C42 C 0.08781 0.35648 0.33202 0.0
C43 C 1.04243 0.38244 0.30733 0.0
C44 C 1.04184 0.4593 0.30307 0.0
C45 C 1.00664 0.48216 0.27762 0.0
C46 C 0.97208 0.42836 0.25597 0.0
C47 C 0.97087 0.35138 0.26074 0.0
C48 C 1.00513 0.3287 0.28637 0.0
C49 C 0.12738 0.15862 0.39745 0.0
C50 C 0.91214 0.13062 0.34193 0.0
C51 C 0.07947 0.90814 0.32571 0.0
C52 C 0.09613 0.85949 0.29985 0.0
C53 C 0.11119 0.89165 0.27351 0.0
C54 C 0.12065 0.84616 0.24816 0.0
C55 C 0.11518 0.76725 0.24874 0.0
C56 C 0.10193 0.7352 0.27543 0.0
C57 C 0.09261 0.781 0.30076 0.0
C58 C 0.11978 0.12644 0.28139 0.0
C59 C 0.27907 0.13728 0.34294 0.0
O60 O 0.15219 0.32009 0.32487 0.0
O61 O 1.04277 0.32291 0.3509 0.0
O62 O 1.0747 0.12785 0.37874 0.0
O63 O 0.1679 0.21627 0.38763 0.0
O64 O 0.95048 1.06747 0.3397 0.0
O65 O 0.95595 0.19577 0.34301 0.0
O66 O 0.14349 0.94416 0.33922 0.0
O67 O 1.01856 0.95107 0.32256 0.0
O68 O 1.06596 0.14187 0.29942 0.0
O69 O 0.16604 1.07794 0.2915 0.0
O70 O 0.24102 0.19197 0.33163 0.0
O71 O 0.23284 1.08172 0.35283 0.0
H72 H 1.071 0.50134 0.31887 0.0
H73 H 1.01039 0.54198 0.27426 0.0
H74 H 0.94524 0.30885 0.24444 0.0
H75 H 1.00508 0.26894 0.2894 0.0
H76 H 0.11332 0.95198 0.27237 0.0
H77 H 0.13089 0.87277 0.22813 0.0
H78 H 0.09536 0.67445 0.27661 0.0
H79 H 0.08038 0.75508 0.32083 0.0
Pr80 Pr 0.115 1.04255 0.6712 0.0
Pr81 Pr 0.11608 0.19576 0.67315 0.0
C82 C 0.08943 0.89258 0.67491 0.0
C83 C 1.03078 0.83712 0.65934 0.0
C84 C 0.99341 0.85458 0.63324 0.0
C85 C 0.9287 0.80735 0.6204 0.0
C86 C 0.89984 0.74241 0.63367 0.0
C87 C 0.94034 0.72324 0.65908 0.0
C88 C 1.00541 0.77044 0.67184 0.0
C89 C 0.13028 1.09021 0.61462 0.0
C90 C 0.92953 0.1181 0.67058 0.0
C91 C 0.14378 0.34484 0.66697 0.0
C92 C 0.20908 0.39147 0.65443 0.0
C93 C 0.2218 0.46809 0.66374 0.0
C94 C 0.29009 0.5108 0.65459 0.0
C95 C 0.34643 0.47717 0.63605 0.0
C96 C 0.33128 0.40115 0.62569 0.0
C97 C 0.26311 0.35844 0.63492 0.0
C98 C 0.09789 0.14556 0.72921 0.0
C99 C 0.29711 0.12096 0.67473 0.0
O100 O 1.0563 0.94219 0.69237 0.0
O101 O 0.1467 0.92275 0.65928 0.0
O102 O 0.08001 0.11483 0.63284 0.0
O103 O 0.17539 1.04189 0.62577 0.0
O104 O 0.97216 0.183 0.66886 0.0
O105 O 0.96909 1.05594 0.67265 0.0
O106 O 0.09845 0.29927 0.64871 0.0
O107 O 0.16535 0.31303 0.69026 0.0
O108 O 0.15076 0.12374 0.71146 0.0
O109 O 1.05018 0.19133 0.71765 0.0
O110 O 0.25384 1.06637 0.6863 0.0
O111 O 0.25637 0.17314 0.66274 0.0
H112 H 1.01206 0.90636 0.62341 0.0
H113 H 0.89911 0.82318 0.60073 0.0
H114 H 0.91867 0.67421 0.67006 0.0
H115 H 1.0333 0.7567 0.69213 0.0
H116 H 0.18055 0.49417 0.67883 0.0
H117 H 0.30031 0.56951 0.66269 0.0
H118 H 0.37431 0.37374 0.61168 0.0
H119 H 0.2542 0.29904 0.62766 0.0
C120 C 1.05568 0.4651 0.01871 0.0
C121 C 0.11865 0.42049 0.00668 0.0
C122 C 1.05506 0.54832 0.01931 0.0
C123 C 0.11739 0.59699 0.00639 0.0
C124 C 0.1809 0.55181 -0.00621 0.0
C125 C 0.18138 0.46864 -0.00543 0.0
C126 C 0.98523 0.58306 0.03485 0.0
C127 C 0.2507 0.59015 0.97841 0.0
C128 C 1.05039 0.81443 -0.00625 0.0
C129 C 0.1144 0.8676 0.00621 0.0
C130 C 1.05146 0.73103 -0.0071 0.0
C131 C 0.11623 0.6911 0.00627 0.0
C132 C 0.17965 0.74508 0.01974 0.0
C133 C 0.17909 0.82801 0.01874 0.0
C134 C 0.98107 0.68635 0.97647 0.0
C135 C 0.25031 0.71659 0.03641 0.0
H136 H 1.00521 0.43451 0.0286 0.0
H137 H 0.23213 0.4409 0.98477 0.0
H138 H 0.99778 0.64443 0.04073 0.0
H139 H 0.92882 0.57412 0.02071 0.0
H140 H 0.97217 0.55432 0.05492 0.0
H141 H 0.26552 0.55506 0.95866 0.0
H142 H 0.23677 0.64701 0.97205 0.0
H143 H 0.30671 0.59561 -0.00718 0.0
H144 H 0.99847 0.83805 0.98344 0.0
H145 H 0.23065 0.86273 0.02893 0.0
H146 H 0.92572 0.68659 -0.01008 0.0
H147 H 0.99463 0.62702 0.97054 0.0
H148 H 0.96553 0.71352 0.95636 0.0
H149 H 0.26674 0.75478 0.05606 0.0
H150 H 0.30506 0.71703 0.0227 0.0
H151 H 0.23656 0.65852 0.04314 0.0
C152 C 0.41419 1.09781 0.36397 0.0
C153 C 0.37195 0.13646 0.34336 0.0
C154 C 0.50136 1.09643 0.36453 0.0
C155 C 0.54864 0.1323 0.34334 0.0
C156 C 0.506 0.1704 0.3222 0.0
C157 C 0.41905 0.17307 0.32276 0.0
C158 C 0.54302 1.0572 0.38813 0.0
C159 C 0.55221 0.20766 0.29861 0.0
C160 C 0.78067 0.1901 0.35675 0.0
C161 C 0.81922 0.12931 0.343 0.0
C162 C 0.69365 0.19091 0.3576 0.0
C163 C 0.64228 0.13071 0.34346 0.0
C164 C 0.68095 1.06948 0.32926 0.0
C165 C 0.76826 1.06891 0.32962 0.0
C166 C 0.65664 0.25637 0.37385 0.0
C167 C 0.63 1.00502 0.31309 0.0
H168 H 0.37903 1.06956 0.38011 0.0
H169 H 0.3876 0.20252 0.30652 0.0
H170 H 0.57664 1.00979 0.3785 0.0
H171 H 0.58919 1.09726 0.40021 0.0
H172 H 0.49848 1.03455 0.40367 0.0
H173 H 0.51031 0.23184 0.28295 0.0
H174 H 0.59617 0.25365 0.30824 0.0
H175 H 0.58887 0.1659 0.28665 0.0
H176 H 0.8188 0.23704 0.36731 0.0
H177 H 0.79674 1.0219 0.31866 0.0
H178 H 0.6136 0.23507 0.3901 0.0
H179 H 0.62038 0.2876 0.35867 0.0
H180 H 0.70431 0.29656 0.38513 0.0
H181 H 0.58866 0.97614 0.32813 0.0
H182 H 0.66875 0.96267 0.30246 0.0
H183 H 0.59024 1.02723 0.2963 0.0
C184 C 0.75293 0.74049 0.61682 0.0
C185 C 0.82153 0.70046 0.62348 0.0
C186 C 0.67424 0.70353 0.613 0.0
C187 C 0.66415 0.62491 0.61616 0.0
C188 C 0.73404 0.58319 0.62035 0.0
C189 C 0.81216 0.6216 0.62393 0.0
C190 C 0.60125 0.74992 0.60837 0.0
C191 C 0.72568 0.49915 0.62372 0.0
C192 C 0.47221 0.55617 0.65317 0.0
C193 C 0.42513 0.5187 0.63009 0.0
C194 C 0.54982 0.59133 0.64874 0.0
C195 C 0.58084 0.58936 0.62044 0.0
C196 C 0.53304 0.55284 0.59689 0.0
C197 C 0.45561 0.51731 0.60204 0.0
C198 C 0.59932 0.62924 0.67449 0.0
C199 C 0.56404 0.55071 0.56644 0.0
H200 H 0.75953 0.80158 0.61666 0.0
H201 H 0.86537 0.5904 0.62855 0.0
H202 H 0.5565 0.72027 0.59222 0.0
H203 H 0.56897 0.75825 0.62905 0.0
H204 H 0.6203 0.80649 0.60102 0.0
H205 H 0.78593 0.47343 0.62221 0.0
H206 H 0.70017 0.48888 0.64519 0.0
H207 H 0.68232 0.46998 0.607 0.0
H208 H 0.44931 0.55599 0.67495 0.0
H209 H 0.4189 0.48839 0.5842 0.0
H210 H 0.61458 0.68968 0.67107 0.0
H211 H 0.65838 0.60222 0.67693 0.0
H212 H 0.56584 0.62593 0.69501 0.0
H213 H 0.57958 0.60907 0.56028 0.0
H214 H 0.51803 0.5222 0.5504 0.0
H215 H 0.62141 0.52043 0.56527 0.0
C216 C 0.78624 1.05367 0.65929 0.0
C217 C 0.83666 0.11635 0.67113 0.0
C218 C 0.69887 1.05365 0.65893 0.0
C219 C 0.65984 0.11664 0.67172 0.0
C220 C 0.71081 0.17918 0.6843 0.0
C221 C 0.79774 0.17884 0.68335 0.0
C222 C 0.64828 0.98652 0.64437 0.0
C223 C 0.67351 0.24648 0.69921 0.0
C224 C 0.4345 0.15489 0.65222 0.0
C225 C 0.3899 0.12122 0.67411 0.0
C226 C 0.52131 0.15214 0.65074 0.0
C227 C 0.56626 0.11721 0.67224 0.0
C228 C 0.52148 1.08455 0.69473 0.0
C229 C 0.43445 1.08573 0.69508 0.0
C230 C 0.56486 0.18591 0.62585 0.0
C231 C 0.56571 1.04924 0.71882 0.0
H232 H 0.81516 1.00524 0.64958 0.0
H233 H 0.83561 0.22739 0.69282 0.0
H234 H 0.60861 0.95933 0.66032 0.0
H235 H 0.60686 1.00556 0.62734 0.0
H236 H 0.6873 0.94349 0.63433 0.0
H237 H 0.72109 0.28872 0.70936 0.0
H238 H 0.63597 0.27466 0.68344 0.0
H239 H 0.63165 0.22756 0.71622 0.0
H240 H 0.40117 0.18191 0.63572 0.0
H241 H 0.40121 1.05983 0.71221 0.0
H242 H 0.60153 0.14304 0.61453 0.0
H243 H 0.60851 0.23376 0.63407 0.0
H244 H 0.52117 0.2068 0.60993 0.0
H245 H 0.59893 1.00082 0.70985 0.0
H246 H 0.52288 1.02887 0.73533 0.0
H247 H 0.6125 1.09106 0.72964 0.0
C248 C 0.60066 0.82596 0.00711 0.0
C249 C 0.6853 0.83944 0.01348 0.0
C250 C 0.5649 0.75188 0.00269 0.0
C251 C 0.61527 0.6905 0.00465 0.0
C252 C 0.70049 0.70385 0.01138 0.0
C253 C 0.7346 0.77823 0.01543 0.0
C254 C 0.47358 0.73928 -0.00425 0.0
C255 C 0.75632 0.6399 0.01374 0.0
C256 C 0.52292 0.49746 0.01988 0.0
C257 C 0.52017 0.45987 -0.00775 0.0
C258 C 0.55152 0.57348 0.02407 0.0
C259 C 0.57906 0.61197 6e-05 0.0
C260 C 0.5758 0.57435 0.97203 0.0
C261 C 0.54543 0.49849 0.96839 0.0
C262 C 0.55348 0.6123 0.0542 0.0
C263 C 0.60579 0.61375 0.94608 0.0
H264 H 0.56247 0.87328 0.00567 0.0
H265 H 0.80048 0.78845 0.01961 0.0
H266 H 0.46364 0.71634 0.97293 0.0
H267 H 0.44503 0.69691 0.00958 0.0
H268 H 0.44137 0.7923 -0.00121 0.0
H269 H 0.81621 0.65967 0.02471 0.0
H270 H 0.72728 0.59423 0.02597 0.0
H271 H 0.76838 0.61514 -0.00828 0.0
H272 H 0.50171 0.46743 0.03817 0.0
H273 H 0.54262 0.46893 0.94705 0.0
H274 H 0.51914 0.66416 0.05427 0.0
H275 H 0.61812 0.63 0.06119 0.0
H276 H 0.52629 0.57515 0.07029 0.0
H277 H 0.57295 0.66582 0.94386 0.0
H278 H 0.59657 0.57708 0.92564 0.0
H279 H 0.67243 0.63122 0.94917 0.0
C280 C 0.97854 0.42179 0.20172 0.0
C281 C 0.94769 0.45401 0.2275 0.0
C282 C 0.99164 0.46702 0.17826 0.0
C283 C 0.98123 0.54527 0.1826 0.0
C284 C 0.92172 0.56616 0.20313 0.0
C285 C 0.90919 0.52166 0.2265 0.0
C286 C 1.02607 0.43434 0.15064 0.0
C287 C 0.87988 0.63914 0.20317 0.0
C288 C 0.14871 0.64715 0.22214 0.0
C289 C 0.11492 0.71721 0.22165 0.0
C290 C 0.12325 0.58843 0.2015 0.0
C291 C 1.05676 0.59904 0.18188 0.0
C292 C 1.04551 0.67438 0.17556 0.0
C293 C 1.07177 0.73344 0.19637 0.0
C294 C 0.16336 0.51479 0.20304 0.0
C295 C 0.99867 0.69153 0.14864 0.0
H296 H 1.0017 0.36604 0.20104 0.0
H297 H 0.87642 0.5432 0.24509 0.0
H298 H 1.05648 0.4789 0.13813 0.0
H299 H 1.06987 0.39101 0.15501 0.0
H300 H 0.9745 0.40554 0.13701 0.0
H301 H 0.91871 0.68514 0.21532 0.0
H302 H 0.86747 0.65435 0.18079 0.0
H303 H 0.82008 0.63421 0.21419 0.0
H304 H 0.19068 0.63657 0.23974 0.0
H305 H 1.05151 0.78956 0.19404 0.0
H306 H 0.16344 0.48346 0.18154 0.0
H307 H 0.13145 0.47967 0.21873 0.0
H308 H 0.2285 0.52506 0.21099 0.0
H309 H 1.04323 0.71465 0.13323 0.0
H310 H 0.95501 0.73574 0.15364 0.0
H311 H 0.96519 0.64017 0.1378 0.0
C312 C 1.07697 1.07764 0.23078 0.0
C313 C 0.11164 0.13677 0.24987 0.0
C314 C 1.07668 1.08278 0.20054 0.0
C315 C 0.11248 0.14864 0.18887 0.0
C316 C 0.14435 0.21001 0.20826 0.0
C317 C 0.14355 0.20327 0.23849 0.0
C318 C 1.04026 1.01648 0.18104 0.0
C319 C 0.18333 0.28142 0.19721 0.0
C320 C 0.19889 0.11538 0.11332 0.0
C321 C 0.13935 0.14369 0.0953 0.0
C322 C 0.19211 0.11921 0.14365 0.0
C323 C 0.12269 0.15015 0.15661 0.0
C324 C 1.06238 0.17927 0.13853 0.0
C325 C 1.07188 0.17648 0.10818 0.0
C326 C 0.25931 1.08949 0.16186 0.0
C327 C 0.98646 0.21124 0.15111 0.0
H328 H 1.05096 1.02664 0.23949 0.0
H329 H 0.17033 0.24917 0.2532 0.0
H330 H 0.99552 1.03585 0.16517 0.0
H331 H 0.08978 0.99056 0.16859 0.0
H332 H 1.0086 0.97224 0.19339 0.0
H333 H 0.18756 0.32911 0.21419 0.0
H334 H 0.24656 0.2711 0.19021 0.0
H335 H 0.14818 0.29832 0.17821 0.0
H336 H 0.25164 1.09048 0.10368 0.0
H337 H 1.02533 0.19812 0.09446 0.0
H338 H 0.23401 1.04041 0.17314 0.0
H339 H 0.28302 0.1337 0.17873 0.0
H340 H 0.31169 1.07147 0.14874 0.0
H341 H 0.94535 0.16449 0.15849 0.0
H342 H 0.95165 0.24135 0.13509 0.0
H343 H 1.00318 0.25078 0.17027 0.0
C344 C 1.0714 1.09217 0.44021 0.0
C345 C 0.12636 0.14656 0.42914 0.0
C346 C 1.06892 1.0829 0.47028 0.0
C347 C 0.12252 0.12912 0.48995 0.0
C348 C 0.17814 0.18398 0.47881 0.0
C349 C 0.1795 0.19182 0.44873 0.0
C350 C 1.00897 1.02337 0.481 0.0
C351 C 0.23656 0.23456 0.49871 0.0
C352 C 1.07423 0.15066 0.57092 0.0
C353 C 0.12724 1.10116 0.58286 0.0
C354 C 1.07151 0.16 0.54082 0.0
C355 C 0.12269 0.11867 0.52202 0.0
C356 C 0.17605 1.06853 0.53406 0.0
C357 C 0.17786 1.06068 0.56415 0.0
C358 C 1.01416 0.21454 0.52914 0.0
C359 C 0.23174 1.02314 0.51514 0.0
H360 H 1.02999 1.05695 0.42537 0.0
H361 H 0.22229 0.23405 0.44054 0.0
H362 H 1.04306 0.98183 0.49246 0.0
H363 H 0.9676 1.04988 0.49681 0.0
H364 H 0.97067 0.99263 0.46313 0.0
H365 H 0.27471 0.27562 0.48682 0.0
H366 H 0.20137 0.26641 0.51511 0.0
H367 H 0.27827 0.19979 0.51057 0.0
H368 H 1.035 0.18233 0.58512 0.0
H369 H 0.21912 1.02226 0.57303 0.0
H370 H 0.97116 0.18457 0.51247 0.0
H371 H 1.05019 0.25938 0.51845 0.0
H372 H 0.97755 0.24171 0.54637 0.0
H373 H 0.19456 0.98822 0.49805 0.0
H374 H 0.26825 0.98527 0.52764 0.0
H375 H 0.27496 1.06178 0.50409 0.0
C376 C 1.02836 0.13836 0.7767 0.0
C377 C 0.1009 0.13623 0.76101 0.0
C378 C 1.02956 0.13508 0.80705 0.0
C379 C 0.10566 0.13254 0.82253 0.0
C380 C 0.17922 0.1298 0.80671 0.0
C381 C 0.1758 0.13033 0.77616 0.0
C382 C 0.94917 0.13556 0.8226 0.0
C383 C 0.26202 0.12957 0.82214 0.0
C384 C 0.10382 0.21157 0.90169 0.0
C385 C 0.09994 0.14591 0.91686 0.0
C386 C 0.1095 0.20804 0.87129 0.0
C387 C 0.10806 0.13683 0.85524 0.0
C388 C 0.10467 1.07021 0.87053 0.0
C389 C 0.10217 1.07561 0.90112 0.0
C390 C 0.11587 0.2808 0.85631 0.0
C391 C 0.10024 0.99301 0.85451 0.0
H392 H 0.97022 0.14262 0.76515 0.0
H393 H 0.23225 0.12946 0.76425 0.0
H394 H 0.9441 1.08853 0.83712 0.0
H395 H 0.94718 0.18912 0.83633 0.0
H396 H 0.89489 0.13006 0.80734 0.0
H397 H 0.31316 0.12476 0.80682 0.0
H398 H 0.27383 0.18265 0.8362 0.0
H399 H 0.26241 1.08203 0.83638 0.0
H400 H 0.1026 0.26612 0.9137 0.0
H401 H 0.09843 1.02457 0.91265 0.0
H402 H 1.059 0.28547 0.84301 0.0
H403 H 0.1683 0.28104 0.84144 0.0
H404 H 0.12454 0.33137 0.87191 0.0
H405 H 1.04304 0.98499 0.84072 0.0
H406 H 0.10049 0.9468 0.86943 0.0
H407 H 0.15292 0.98819 0.83993 0.0
loop_
_geom_bond_atom_site_label_1
_geom_bond_atom_site_label_2
_geom_bond_distance
_geom_bond_site_symmetry_2
_ccdc_geom_bond_type
Pr0 C2 2.880 . S
Pr0 O20 2.562 1_554 S
Pr0 O21 2.490 . S
Pr0 O22 2.695 1_455 S
Pr0 O23 2.512 . S
Pr0 O25 2.437 . S
Pr0 O28 2.436 1_554 S
Pr0 O30 2.438 1_545 S
Pr1 C11 2.877 1_556 S
Pr1 O22 2.436 1_566 S
Pr1 O24 2.438 1_566 S
Pr1 O26 2.562 1_556 S
Pr1 O27 2.490 . S
Pr1 O28 2.695 1_665 S
Pr1 O29 2.512 . S
Pr1 O31 2.437 . S
C2 Pr0 2.880 . S
C2 C3 1.491 . S
C2 O20 1.254 1_554 S
C2 O21 1.225 . S
C3 C2 1.491 . S
C3 C4 1.392 . S
C3 C8 1.356 1_554 S
C4 C3 1.392 . S
C4 C5 1.368 . S
C4 H32 0.929 . S
C5 C4 1.368 . S
C5 C6 1.400 . S
C5 H33 0.929 . S
C6 C5 1.400 . S
C6 C7 1.360 1_554 S
C7 C6 1.360 1_556 S
C7 C8 1.409 . S
C7 H34 0.931 . S
C8 C3 1.356 1_556 S
C8 C7 1.409 . S
C8 H35 0.930 . S
C9 O22 1.270 1_455 S
C9 O23 1.248 . S
C10 O24 1.269 . S
C10 O25 1.278 1_655 S
C11 Pr1 2.877 1_554 S
C11 C12 1.493 . S
C11 O26 1.267 . S
C11 O27 1.210 1_554 S
C12 C11 1.493 . S
C12 C13 1.392 1_554 S
C12 C17 1.356 . S
C13 C12 1.392 1_556 S
C13 C14 1.368 . S
C13 H36 0.929 . S
C14 C13 1.368 . S
C14 C15 1.386 1_556 S
C14 H37 0.929 . S
C15 C14 1.386 1_554 S
C15 C16 1.373 . S
C16 C15 1.373 . S
C16 C17 1.409 . S
C16 H38 0.931 . S
C17 C12 1.356 . S
C17 C16 1.409 . S
C17 H39 0.930 . S
C18 O28 1.270 1_655 S
C18 O29 1.248 1_545 S
C19 O30 1.267 1_556 S
C19 O31 1.278 1_455 S
O20 Pr0 2.562 1_556 S
O20 C2 1.254 1_556 S
O21 Pr0 2.490 . S
O21 C2 1.225 . S
O22 Pr0 2.695 1_655 S
O22 Pr1 2.436 1_544 S
O22 C9 1.270 1_655 S
O23 Pr0 2.512 . S
O23 C9 1.248 . S
O24 Pr1 2.438 1_544 S
O24 C10 1.269 . S
O25 Pr0 2.437 . S
O25 C10 1.278 1_455 S
O26 Pr1 2.562 1_554 S
O26 C11 1.267 . S
O27 Pr1 2.490 . S
O27 C11 1.210 1_556 S
O28 Pr0 2.436 1_556 S
O28 Pr1 2.695 1_445 S
O28 C18 1.270 1_455 S
O29 Pr1 2.512 . S
O29 C18 1.248 1_565 S
O30 Pr0 2.438 1_565 S
O30 C19 1.267 1_554 S
O31 Pr1 2.437 . S
O31 C19 1.278 1_655 S
H32 C4 0.929 . S
H33 C5 0.929 . S
H34 C7 0.931 . S
H35 C8 0.930 . S
H36 C13 0.929 . S
H37 C14 0.929 . S
H38 C16 0.931 . S
H39 C17 0.930 . S
Pr40 C42 2.880 . S
Pr40 O60 2.562 . S
Pr40 O61 2.490 . S
Pr40 O62 2.695 . S
Pr40 O63 2.512 . S
Pr40 O65 2.437 1_455 S
Pr40 O68 2.436 . S
Pr40 O70 2.438 . S
Pr41 C51 2.880 1_655 S
Pr41 O62 2.436 1_665 S
Pr41 O64 2.438 . S
Pr41 O66 2.562 1_655 S
Pr41 O67 2.490 1_655 S
Pr41 O68 2.695 1_665 S
Pr41 O69 2.513 . S
Pr41 O71 2.437 1_655 S
C42 Pr40 2.880 . S
C42 C43 1.491 1_455 S
C42 O60 1.254 . S
C42 O61 1.225 . S
C43 C42 1.491 1_655 S
C43 C44 1.393 1_655 S
C43 C48 1.356 . S
C44 C43 1.393 1_455 S
C44 C45 1.361 1_455 S
C44 H72 0.936 . S
C45 C44 1.361 1_655 S
C45 C46 1.386 . S
C45 H73 0.929 . S
C46 C45 1.386 . S
C46 C47 1.373 . S
C47 C46 1.373 . S
C47 C48 1.409 . S
C47 H74 0.931 . S
C48 C43 1.356 . S
C48 C47 1.409 . S
C48 H75 0.930 . S
C49 O62 1.270 . S
C49 O63 1.248 . S
C50 O64 1.267 1_545 S
C50 O65 1.278 . S
C51 Pr41 2.880 1_455 S
C51 C52 1.491 . S
C51 O66 1.254 . S
C51 O67 1.225 . S
C52 C51 1.491 . S
C52 C53 1.392 . S
C52 C57 1.356 . S
C53 C52 1.392 . S
C53 C54 1.368 . S
C53 H76 0.929 . S
C54 C53 1.368 . S
C54 C55 1.386 . S
C54 H77 0.929 . S
C55 C54 1.386 . S
C55 C56 1.373 . S
C56 C55 1.373 . S
C56 C57 1.409 . S
C56 H78 0.931 . S
C57 C52 1.356 . S
C57 C56 1.409 . S
C57 H79 0.930 . S
C58 O68 1.270 . S
C58 O69 1.248 1_445 S
C59 O70 1.267 . S
C59 O71 1.278 1_545 S
O60 Pr40 2.562 . S
O60 C42 1.254 . S
O61 Pr40 2.490 . S
O61 C42 1.225 . S
O62 Pr40 2.695 . S
O62 Pr41 2.436 1_445 S
O62 C49 1.270 . S
O63 Pr40 2.512 . S
O63 C49 1.248 . S
O64 Pr41 2.438 . S
O64 C50 1.267 1_565 S
O65 Pr40 2.437 1_655 S
O65 C50 1.278 . S
O66 Pr41 2.562 1_455 S
O66 C51 1.254 . S
O67 Pr41 2.490 1_455 S
O67 C51 1.225 . S
O68 Pr40 2.436 . S
O68 Pr41 2.695 1_445 S
O68 C58 1.270 . S
O69 Pr41 2.513 . S
O69 C58 1.248 1_665 S
O70 Pr40 2.438 . S
O70 C59 1.267 . S
O71 Pr41 2.437 1_455 S
O71 C59 1.278 1_565 S
H72 C44 0.936 . S
H73 C45 0.929 . S
H74 C47 0.931 . S
H75 C48 0.930 . S
H76 C53 0.929 . S
H77 C54 0.929 . S
H78 C56 0.931 . S
H79 C57 0.930 . S
Pr80 C82 2.880 1_455 S
Pr80 O100 2.562 1_455 S
Pr80 O101 2.490 1_455 S
Pr80 O102 2.695 1_565 S
Pr80 O103 2.512 . S
Pr80 O105 2.437 1_455 S
Pr80 O108 2.436 . S
Pr80 O110 2.438 . S
Pr81 C91 2.880 . S
Pr81 O102 2.436 . S
Pr81 O104 2.438 1_455 S
Pr81 O106 2.562 . S
Pr81 O107 2.490 . S
Pr81 O108 2.695 1_545 S
Pr81 O109 2.512 . S
Pr81 O111 2.437 . S
C82 Pr80 2.880 1_655 S
C82 C83 1.491 . S
C82 O100 1.254 . S
C82 O101 1.225 . S
C83 C82 1.491 . S
C83 C84 1.392 . S
C83 C88 1.356 . S
C84 C83 1.392 . S
C84 C85 1.368 . S
C84 H112 0.929 . S
C85 C84 1.368 . S
C85 C86 1.386 . S
C85 H113 0.929 . S
C86 C85 1.386 . S
C86 C87 1.373 . S
C87 C86 1.373 . S
C87 C88 1.409 . S
C87 H114 0.931 . S
C88 C83 1.356 . S
C88 C87 1.409 . S
C88 H115 0.930 . S
C89 O102 1.270 1_565 S
C89 O103 1.248 . S
C90 O104 1.267 . S
C90 O105 1.278 1_545 S
C91 Pr81 2.880 . S
C91 C92 1.491 . S
C91 O106 1.254 . S
C91 O107 1.225 . S
C92 C91 1.491 . S
C92 C93 1.392 . S
C92 C97 1.356 . S
C93 C92 1.392 . S
C93 C94 1.368 . S
C93 H116 0.929 . S
C94 C93 1.368 . S
C94 C95 1.386 . S
C94 H117 0.929 . S
C95 C94 1.386 . S
C95 C96 1.373 . S
C96 C95 1.373 . S
C96 C97 1.409 . S
C96 H118 0.931 . S
C97 C92 1.356 . S
C97 C96 1.409 . S
C97 H119 0.930 . S
C98 O108 1.270 1_545 S
C98 O109 1.248 . S
C99 O110 1.267 1_545 S
C99 O111 1.278 . S
O100 Pr80 2.562 1_655 S
O100 C82 1.254 . S
O101 Pr80 2.490 1_655 S
O101 C82 1.225 . S
O102 Pr80 2.695 1_545 S
O102 Pr81 2.436 . S
O102 C89 1.270 1_545 S
O103 Pr80 2.512 . S
O103 C89 1.248 . S
O104 Pr81 2.438 1_655 S
O104 C90 1.267 . S
O105 Pr80 2.437 1_655 S
O105 C90 1.278 1_565 S
O106 Pr81 2.562 . S
O106 C91 1.254 . S
O107 Pr81 2.490 . S
O107 C91 1.225 . S
O108 Pr80 2.436 . S
O108 Pr81 2.695 1_565 S
O108 C98 1.270 1_565 S
O109 Pr81 2.512 . S
O109 C98 1.248 . S
O110 Pr80 2.438 . S
O110 C99 1.267 1_565 S
O111 Pr81 2.437 . S
O111 C99 1.278 . S
H112 C84 0.929 . S
H113 C85 0.929 . S
H114 C87 0.931 . S
H115 C88 0.930 . S
H116 C93 0.929 . S
H117 C94 0.929 . S
H118 C96 0.931 . S
H119 C97 0.930 . S
C120 C121 1.391 1_655 S
C120 C122 1.394 . S
C120 H136 0.931 . S
C121 C120 1.391 1_455 S
C121 C125 1.376 1_554 S
C122 C120 1.394 . S
C122 C123 1.369 1_655 S
C122 C126 1.531 . S
C123 C122 1.369 1_455 S
C123 C124 1.410 1_554 S
C123 C131 1.503 . S
C124 C123 1.410 1_556 S
C124 C125 1.392 . S
C124 C127 1.511 . S
C125 C121 1.376 1_556 S
C125 C124 1.392 . S
C125 H137 0.929 . S
C126 C122 1.531 . S
C126 H138 0.960 . S
C126 H139 0.962 . S
C126 H140 0.960 . S
C127 C124 1.511 . S
C127 H141 0.961 . S
C127 H142 0.961 . S
C127 H143 0.961 . S
C128 C129 1.370 1_656 S
C128 C130 1.363 . S
C128 H144 0.931 . S
C129 C128 1.370 1_454 S
C129 C133 1.408 . S
C130 C128 1.363 . S
C130 C131 1.370 1_656 S
C130 C134 1.524 . S
C131 C123 1.503 . S
C131 C130 1.370 1_454 S
C131 C132 1.403 . S
C132 C131 1.403 . S
C132 C133 1.404 . S
C132 C135 1.539 . S
C133 C129 1.408 . S
C133 C132 1.404 . S
C133 H145 0.930 . S
C134 C130 1.524 . S
C134 H146 0.956 . S
C134 H147 0.961 . S
C134 H148 0.961 . S
C135 C132 1.539 . S
C135 H149 0.958 . S
C135 H150 0.961 . S
C135 H151 0.960 . S
H136 C120 0.931 . S
H137 C125 0.929 . S
H138 C126 0.960 . S
H139 C126 0.962 . S
H140 C126 0.960 . S
H141 C127 0.961 . S
H142 C127 0.961 . S
H143 C127 0.961 . S
H144 C128 0.931 . S
H145 C133 0.930 . S
H146 C134 0.956 . S
H147 C134 0.961 . S
H148 C134 0.961 . S
H149 C135 0.958 . S
H150 C135 0.961 . S
H151 C135 0.960 . S
C152 C153 1.391 1_565 S
C152 C154 1.394 . S
C152 H168 0.931 . S
C153 C152 1.391 1_545 S
C153 C157 1.376 . S
C154 C152 1.394 . S
C154 C155 1.369 1_565 S
C154 C158 1.531 . S
C155 C154 1.369 1_545 S
C155 C156 1.410 . S
C155 C163 1.503 . S
C156 C155 1.410 . S
C156 C157 1.392 . S
C156 C159 1.511 . S
C157 C153 1.376 . S
C157 C156 1.392 . S
C157 H169 0.929 . S
C158 C154 1.531 . S
C158 H170 0.960 . S
C158 H171 0.962 . S
C158 H172 0.960 . S
C159 C156 1.511 . S
C159 H173 0.961 . S
C159 H174 0.961 . S
C159 H175 0.961 . S
C160 C161 1.370 . S
C160 C162 1.363 . S
C160 H176 0.931 . S
C161 C160 1.370 . S
C161 C165 1.408 1_545 S
C162 C160 1.363 . S
C162 C163 1.370 . S
C162 C166 1.524 . S
C163 C155 1.503 . S
C163 C162 1.370 . S
C163 C164 1.403 1_545 S
C164 C163 1.403 1_565 S
C164 C165 1.404 . S
C164 C167 1.539 . S
C165 C161 1.408 1_565 S
C165 C164 1.404 . S
C165 H177 0.930 . S
C166 C162 1.524 . S
C166 H178 0.956 . S
C166 H179 0.961 . S
C166 H180 0.961 . S
C167 C164 1.539 . S
C167 H181 0.958 . S
C167 H182 0.961 . S
C167 H183 0.960 . S
H168 C152 0.931 . S
H169 C157 0.929 . S
H170 C158 0.960 . S
H171 C158 0.962 . S
H172 C158 0.960 . S
H173 C159 0.961 . S
H174 C159 0.961 . S
H175 C159 0.961 . S
H176 C160 0.931 . S
H177 C165 0.930 . S
H178 C166 0.956 . S
H179 C166 0.961 . S
H180 C166 0.961 . S
H181 C167 0.958 . S
H182 C167 0.961 . S
H183 C167 0.960 . S
C184 C185 1.391 . S
C184 C186 1.394 . S
C184 H200 0.931 . S
C185 C184 1.391 . S
C185 C189 1.376 . S
C186 C184 1.394 . S
C186 C187 1.369 . S
C186 C190 1.531 . S
C187 C186 1.369 . S
C187 C188 1.410 . S
C187 C195 1.503 . S
C188 C187 1.410 . S
C188 C189 1.392 . S
C188 C191 1.511 . S
C189 C185 1.376 . S
C189 C188 1.392 . S
C189 H201 0.929 . S
C190 C186 1.531 . S
C190 H202 0.960 . S
C190 H203 0.962 . S
C190 H204 0.960 . S
C191 C188 1.511 . S
C191 H205 0.961 . S
C191 H206 0.961 . S
C191 H207 0.961 . S
C192 C193 1.370 . S
C192 C194 1.363 . S
C192 H208 0.931 . S
C193 C192 1.370 . S
C193 C197 1.408 . S
C194 C192 1.363 . S
C194 C195 1.370 . S
C194 C198 1.524 . S
C195 C187 1.503 . S
C195 C194 1.370 . S
C195 C196 1.403 . S
C196 C195 1.403 . S
C196 C197 1.404 . S
C196 C199 1.539 . S
C197 C193 1.408 . S
C197 C196 1.404 . S
C197 H209 0.930 . S
C198 C194 1.524 . S
C198 H210 0.956 . S
C198 H211 0.961 . S
C198 H212 0.961 . S
C199 C196 1.539 . S
C199 H213 0.958 . S
C199 H214 0.961 . S
C199 H215 0.960 . S
H200 C184 0.931 . S
H201 C189 0.929 . S
H202 C190 0.960 . S
H203 C190 0.962 . S
H204 C190 0.960 . S
H205 C191 0.961 . S
H206 C191 0.961 . S
H207 C191 0.961 . S
H208 C192 0.931 . S
H209 C197 0.930 . S
H210 C198 0.956 . S
H211 C198 0.961 . S
H212 C198 0.961 . S
H213 C199 0.958 . S
H214 C199 0.961 . S
H215 C199 0.960 . S
C216 C217 1.391 1_565 S
C216 C218 1.394 . S
C216 H232 0.931 . S
C217 C216 1.391 1_545 S
C217 C221 1.379 . S
C218 C216 1.394 . S
C218 C219 1.369 . S
C218 C222 1.531 . S
C219 C218 1.369 . S
C219 C220 1.410 1_565 S
C219 C227 1.503 1_565 S
C220 C219 1.410 1_545 S
C220 C221 1.392 . S
C220 C223 1.511 . S
C221 C217 1.379 . S
C221 C220 1.392 . S
C221 H233 0.929 . S
C222 C218 1.531 . S
C222 H234 0.960 . S
C222 H235 0.962 1_565 S
C222 H236 0.960 . S
C223 C220 1.511 . S
C223 H237 0.961 . S
C223 H238 0.961 . S
C223 H239 0.961 1_545 S
C224 C225 1.370 . S
C224 C226 1.363 . S
C224 H240 0.931 . S
C225 C224 1.370 . S
C225 C229 1.408 1_545 S
C226 C224 1.363 . S
C226 C227 1.371 . S
C226 C230 1.524 . S
C227 C219 1.503 1_545 S
C227 C226 1.371 . S
C227 C228 1.402 1_545 S
C228 C227 1.402 1_565 S
C228 C229 1.404 . S
C228 C231 1.539 . S
C229 C225 1.408 1_565 S
C229 C228 1.404 . S
C229 H241 0.930 . S
C230 C226 1.524 . S
C230 H242 0.956 . S
C230 H243 0.961 . S
C230 H244 0.961 . S
C231 C228 1.539 . S
C231 H245 0.958 . S
C231 H246 0.961 . S
C231 H247 0.960 . S
H232 C216 0.931 . S
H233 C221 0.929 . S
H234 C222 0.960 . S
H235 C222 0.962 1_545 S
H236 C222 0.960 . S
H237 C223 0.961 . S
H238 C223 0.961 . S
H239 C223 0.961 1_565 S
H240 C224 0.931 . S
H241 C229 0.930 . S
H242 C230 0.956 . S
H243 C230 0.961 . S
H244 C230 0.961 . S
H245 C231 0.958 . S
H246 C231 0.961 . S
H247 C231 0.960 . S
C248 C249 1.391 1_556 S
C248 C250 1.394 . S
C248 H264 0.931 . S
C249 C248 1.391 1_554 S
C249 C253 1.376 . S
C250 C248 1.394 . S
C250 C251 1.369 . S
C250 C254 1.531 . S
C251 C250 1.369 . S
C251 C252 1.410 1_556 S
C251 C259 1.503 . S
C252 C251 1.410 1_554 S
C252 C253 1.392 . S
C252 C255 1.511 . S
C253 C249 1.376 . S
C253 C252 1.392 . S
C253 H265 0.929 . S
C254 C250 1.531 . S
C254 H266 0.960 . S
C254 H267 0.962 . S
C254 H268 0.960 . S
C255 C252 1.511 . S
C255 H269 0.961 . S
C255 H270 0.961 . S
C255 H271 0.961 . S
C256 C257 1.349 1_554 S
C256 C258 1.363 . S
C256 H272 0.931 . S
C257 C256 1.349 1_556 S
C257 C261 1.436 . S
C258 C256 1.363 . S
C258 C259 1.370 1_554 S
C258 C262 1.524 . S
C259 C251 1.503 . S
C259 C258 1.370 1_556 S
C259 C260 1.403 . S
C260 C259 1.403 . S
C260 C261 1.404 . S
C260 C263 1.539 . S
C261 C257 1.436 . S
C261 C260 1.404 . S
C261 H273 0.930 . S
C262 C258 1.524 . S
C262 H274 0.956 . S
C262 H275 0.961 . S
C262 H276 0.961 . S
C263 C260 1.539 . S
C263 H277 0.958 . S
C263 H278 0.961 . S
C263 H279 0.960 . S
H264 C248 0.931 . S
H265 C253 0.929 . S
H266 C254 0.960 . S
H267 C254 0.962 . S
H268 C254 0.960 . S
H269 C255 0.961 . S
H270 C255 0.961 . S
H271 C255 0.961 . S
H272 C256 0.931 . S
H273 C261 0.930 . S
H274 C262 0.956 . S
H275 C262 0.961 . S
H276 C262 0.961 . S
H277 C263 0.958 . S
H278 C263 0.961 . S
H279 C263 0.960 . S
C280 C281 1.391 . S
C280 C282 1.394 . S
C280 H296 0.931 . S
C281 C280 1.391 . S
C281 C285 1.376 . S
C282 C280 1.394 . S
C282 C283 1.369 . S
C282 C286 1.531 1_655 S
C283 C282 1.369 . S
C283 C284 1.410 . S
C283 C291 1.503 1_655 S
C284 C283 1.410 . S
C284 C285 1.392 . S
C284 C287 1.511 . S
C285 C281 1.376 . S
C285 C284 1.392 . S
C285 H297 0.929 . S
C286 C282 1.531 1_455 S
C286 H298 0.960 . S
C286 H299 0.962 . S
C286 H300 0.960 . S
C287 C284 1.511 . S
C287 H301 0.961 . S
C287 H302 0.961 . S
C287 H303 0.961 . S
C288 C289 1.370 . S
C288 C290 1.363 . S
C288 H304 0.931 . S
C289 C288 1.370 . S
C289 C293 1.408 . S
C290 C288 1.363 . S
C290 C291 1.370 . S
C290 C294 1.524 . S
C291 C283 1.503 1_455 S
C291 C290 1.370 . S
C291 C292 1.403 . S
C292 C291 1.403 . S
C292 C293 1.404 . S
C292 C295 1.539 1_455 S
C293 C289 1.408 . S
C293 C292 1.404 . S
C293 H305 0.930 . S
C294 C290 1.524 . S
C294 H306 0.956 . S
C294 H307 0.961 . S
C294 H308 0.961 . S
C295 C292 1.539 1_655 S
C295 H309 0.958 . S
C295 H310 0.961 . S
C295 H311 0.960 . S
H296 C280 0.931 . S
H297 C285 0.929 . S
H298 C286 0.960 . S
H299 C286 0.962 . S
H300 C286 0.960 . S
H301 C287 0.961 . S
H302 C287 0.961 . S
H303 C287 0.961 . S
H304 C288 0.931 . S
H305 C293 0.930 . S
H306 C294 0.956 . S
H307 C294 0.961 . S
H308 C294 0.961 . S
H309 C295 0.958 . S
H310 C295 0.961 . S
H311 C295 0.960 . S
C312 C313 1.391 1_565 S
C312 C314 1.394 . S
C312 H328 0.931 . S
C313 C312 1.391 1_545 S
C313 C317 1.376 1_455 S
C314 C312 1.394 . S
C314 C315 1.362 1_465 S
C314 C318 1.531 . S
C315 C314 1.362 1_645 S
C315 C316 1.416 . S
C315 C323 1.503 1_655 S
C316 C315 1.416 . S
C316 C317 1.392 . S
C316 C319 1.511 . S
C317 C313 1.376 1_655 S
C317 C316 1.392 . S
C317 H329 0.929 . S
C318 C314 1.531 . S
C318 H330 0.960 . S
C318 H331 0.962 . S
C318 H332 0.960 . S
C319 C316 1.511 . S
C319 H333 0.961 . S
C319 H334 0.961 . S
C319 H335 0.961 . S
C320 C321 1.370 . S
C320 C322 1.363 . S
C320 H336 0.931 . S
C321 C320 1.370 . S
C321 C325 1.408 1_445 S
C322 C320 1.363 . S
C322 C323 1.372 . S
C322 C326 1.524 . S
C323 C315 1.503 1_455 S
C323 C322 1.372 . S
C323 C324 1.401 1_445 S
C324 C323 1.401 1_665 S
C324 C325 1.404 . S
C324 C327 1.539 . S
C325 C321 1.408 1_665 S
C325 C324 1.404 . S
C325 H337 0.930 . S
C326 C322 1.524 . S
C326 H338 0.956 . S
C326 H339 0.961 . S
C326 H340 0.961 . S
C327 C324 1.539 . S
C327 H341 0.958 . S
C327 H342 0.961 . S
C327 H343 0.960 . S
H328 C312 0.931 . S
H329 C317 0.929 . S
H330 C318 0.960 . S
H331 C318 0.962 . S
H332 C318 0.960 . S
H333 C319 0.961 . S
H334 C319 0.961 . S
H335 C319 0.961 . S
H336 C320 0.931 . S
H337 C325 0.930 . S
H338 C326 0.956 . S
H339 C326 0.961 . S
H340 C326 0.961 . S
H341 C327 0.958 . S
H342 C327 0.961 . S
H343 C327 0.960 . S
C344 C345 1.391 1_665 S
C344 C346 1.394 . S
C344 H360 0.931 . S
C345 C344 1.391 1_445 S
C345 C349 1.376 . S
C346 C344 1.394 . S
C346 C347 1.369 1_665 S
C346 C350 1.531 . S
C347 C346 1.369 1_445 S
C347 C348 1.410 . S
C347 C355 1.503 . S
C348 C347 1.410 . S
C348 C349 1.392 . S
C348 C351 1.511 . S
C349 C345 1.376 . S
C349 C348 1.392 . S
C349 H361 0.929 . S
C350 C346 1.531 . S
C350 H362 0.960 . S
C350 H363 0.962 . S
C350 H364 0.960 . S
C351 C348 1.511 . S
C351 H365 0.961 . S
C351 H366 0.961 . S
C351 H367 0.961 . S
C352 C353 1.370 . S
C352 C354 1.363 . S
C352 H368 0.931 1_455 S
C353 C352 1.370 . S
C353 C357 1.408 1_545 S
C354 C352 1.363 . S
C354 C355 1.370 . S
C354 C358 1.524 1_455 S
C355 C347 1.503 . S
C355 C354 1.370 . S
C355 C356 1.403 1_545 S
C356 C355 1.403 1_565 S
C356 C357 1.404 . S
C356 C359 1.539 . S
C357 C353 1.408 1_565 S
C357 C356 1.404 . S
C357 H369 0.930 . S
C358 C354 1.524 1_655 S
C358 H370 0.956 . S
C358 H371 0.961 1_655 S
C358 H372 0.961 . S
C359 C356 1.539 . S
C359 H373 0.958 . S
C359 H374 0.961 . S
C359 H375 0.960 . S
H360 C344 0.931 . S
H361 C349 0.929 . S
H362 C350 0.960 . S
H363 C350 0.962 . S
H364 C350 0.960 . S
H365 C351 0.961 . S
H366 C351 0.961 . S
H367 C351 0.961 . S
H368 C352 0.931 1_655 S
H369 C357 0.930 . S
H370 C358 0.956 . S
H371 C358 0.961 1_455 S
H372 C358 0.961 . S
H373 C359 0.958 . S
H374 C359 0.961 . S
H375 C359 0.960 . S
C376 C377 1.391 1_665 S
C376 C378 1.394 . S
C376 H392 0.931 . S
C377 C376 1.391 1_445 S
C377 C381 1.376 . S
C378 C376 1.394 . S
C378 C379 1.369 1_665 S
C378 C382 1.531 . S
C379 C378 1.369 1_445 S
C379 C380 1.410 . S
C379 C387 1.503 . S
C380 C379 1.410 . S
C380 C381 1.392 . S
C380 C383 1.511 . S
C381 C377 1.376 . S
C381 C380 1.392 . S
C381 H393 0.929 . S
C382 C378 1.531 . S
C382 H394 0.960 . S
C382 H395 0.962 . S
C382 H396 0.960 . S
C383 C380 1.511 . S
C383 H397 0.961 . S
C383 H398 0.961 . S
C383 H399 0.961 . S
C384 C385 1.370 . S
C384 C386 1.363 . S
C384 H400 0.931 1_455 S
C385 C384 1.370 . S
C385 C389 1.408 1_545 S
C386 C384 1.363 . S
C386 C387 1.370 . S
C386 C390 1.524 . S
C387 C379 1.503 . S
C387 C386 1.370 . S
C387 C388 1.403 1_545 S
C388 C387 1.403 1_565 S
C388 C389 1.404 . S
C388 C391 1.539 . S
C389 C385 1.408 1_565 S
C389 C388 1.404 . S
C389 H401 0.930 . S
C390 C386 1.524 . S
C390 H402 0.956 1_455 S
C390 H403 0.961 . S
C390 H404 0.961 . S
C391 C388 1.539 . S
C391 H405 0.958 1_455 S
C391 H406 0.961 . S
C391 H407 0.960 . S
H392 C376 0.931 . S
H393 C381 0.929 . S
H394 C382 0.960 . S
H395 C382 0.962 . S
H396 C382 0.960 . S
H397 C383 0.961 . S
H398 C383 0.961 . S
H399 C383 0.961 . S
H400 C384 0.931 1_655 S
H401 C389 0.930 . S
H402 C390 0.956 1_655 S
H403 C390 0.961 . S
H404 C390 0.961 . S
H405 C391 0.958 1_655 S
H406 C391 0.961 . S
H407 C391 0.960 . S
C121 C10 4.869 1_455 S
C129 C19 4.879 1_554 S
C153 C59 3.040 . S
C161 C50 3.043 . S
C185 C86 0.580 . S
C193 C95 0.566 . S
C217 C90 2.978 . S
C225 C99 2.979 . S
C249 C15 0.633 . S
C257 C6 0.661 1_556 S
C281 C46 0.899 . S
C289 C55 0.775 . S
C313 C58 1.430 . S
C321 C9 1.458 . S
C345 C49 1.476 . S
C353 C89 1.457 1_545 S
C377 C98 1.477 . S
C385 C18 1.466 1_455 S
